drugbank_target|Q9BYZ2 L-lactate dehydrogenase A-like 6B (DB00157)
 OpenBabel12092119243D

  0  0  0     0  0            999 V3000
M  V30 BEGIN CTAB
M  V30 COUNTS 5999 6056 0 0 0
M  V30 BEGIN ATOM
M  V30 1 H -0.908 1.98254 -0.117106 0
M  V30 2 N 0 1.576 0 0
M  V30 3 C 0.933 2.03868 1.02534 0
M  V30 4 C 1.911 0.928543 1.3348 0
M  V30 5 O 3.095 1.19667 1.45644 0
M  V30 6 C 0.222 2.43627 2.35294 0
M  V30 7 C -0.732 3.65373 2.2001 0
M  V30 8 S 0.101 5.13292 1.52614 0
M  V30 9 C 1.257 5.56322 2.86805 0
M  V30 10 H 1.49 2.90518 0.631377 0
M  V30 11 H -0.977 1.52953 0.210867 0
M  V30 12 H 0.981 2.67203 3.11629 0
M  V30 13 H -0.358 1.57376 2.7183 0
M  V30 14 H -1.165 3.90944 3.18086 0
M  V30 15 H -1.563 3.418 1.51819 0
M  V30 16 H 0.729 5.58782 3.83104 0
M  V30 17 H 1.672 6.56266 2.65933 0
M  V30 18 H 2.08 4.83886 2.90714 0
M  V30 19 N 1.4781 -0.272755 1.55222 0
M  V30 20 C 2.7031 -1.02683 1.80197 0
M  V30 21 C 3.1281 -1.79142 0.573551 0
M  V30 22 O 2.4861 -1.74917 -0.476849 0
M  V30 23 C 2.5341 -1.9609 3.02624 0
M  V30 24 O 1.6381 -3.04863 2.77727 0
M  V30 25 H 0.9791 -0.293557 0.595584 0
M  V30 26 H 3.5091 -0.30159 2.02365 0
M  V30 27 H 3.5191 -2.38039 3.31363 0
M  V30 28 H 2.1941 -1.39851 3.91682 0
M  V30 29 H 0.7711 -2.67228 2.60084 0
M  V30 30 N 2.9562 -1.48159 -0.537278 0
M  V30 31 C 4.2022 -1.57015 -1.29297 0
M  V30 32 C 4.5572 -0.237791 -1.90925 0
M  V30 33 O 3.8502 0.758621 -1.75942 0
M  V30 34 C 4.0442 -2.63956 -2.40961 0
M  V30 35 C 3.8732 -4.07461 -1.90278 0
M  V30 36 C 2.6432 -4.74685 -1.73213 0
M  V30 37 C 4.8412 -4.93858 -1.43556 0
M  V30 38 N 2.8232 -6.02633 -1.17078 0
M  V30 39 C 4.1942 -6.11993 -0.993204 0
M  V30 40 C 6.2492 -4.80141 -1.31792 0
M  V30 41 C 4.9522 -7.17923 -0.444872 0
M  V30 42 C 6.9782 -5.86186 -0.783585 0
M  V30 43 C 6.3402 -7.03524 -0.351261 0
M  V30 44 H 2.4392 -0.629154 -0.464423 0
M  V30 45 H 5.0232 -1.85006 -0.606705 0
M  V30 46 H 3.1942 -2.378 -3.07093 0
M  V30 47 H 4.9262 -2.62539 -3.07986 0
M  V30 48 H 1.6812 -4.30902 -1.9652 0
M  V30 49 H 2.1052 -6.7085 -0.910421 0
M  V30 50 H 6.7472 -3.89772 -1.63823 0
M  V30 51 H 4.4652 -8.08022 -0.11222 0
M  V30 52 H 8.0512 -5.77624 -0.695835 0
M  V30 53 H 6.9312 -7.8418 0.055777 0
M  V30 54 N 4.4343 0.785586 -1.36625 0
M  V30 55 C 5.6623 1.57448 -1.3423 0
M  V30 56 C 6.0773 1.88649 0.0755653 0
M  V30 57 O 5.4343 1.50414 1.03354 0
M  V30 58 C 5.4853 2.89316 -2.16745 0
M  V30 59 O 5.2063 2.59459 -3.53005 0
M  V30 60 C 6.7073 3.83606 -2.22174 0
M  V30 61 H 3.9273 0.488226 -0.4603 0
M  V30 62 H 6.4713 0.974733 -1.79775 0
M  V30 63 H 4.6263 3.4575 -1.74745 0
M  V30 64 H 5.0403 3.43804 -3.96105 0
M  V30 65 H 6.5143 4.73181 -2.8426 0
M  V30 66 H 6.9913 4.21734 -1.22627 0
M  V30 67 H 7.5973 3.33104 -2.64427 0
M  V30 68 N 5.9124 1.20967 1.01018 0
M  V30 69 C 7.1584 1.02526 1.74975 0
M  V30 70 C 7.4914 -0.4408 1.89131 0
M  V30 71 O 6.7664 -1.32718 1.42184 0
M  V30 72 C 7.0494 1.71699 3.1653 0
M  V30 73 C 6.9024 3.25791 3.10129 0
M  V30 74 C 8.2214 1.45531 4.15342 0
M  V30 75 H 5.3404 0.373863 0.635134 0
M  V30 76 H 7.9824 1.49071 1.17805 0
M  V30 77 H 6.1324 1.32128 3.65341 0
M  V30 78 H 7.8044 3.74697 2.69072 0
M  V30 79 H 6.0474 3.56363 2.47362 0
M  V30 80 H 6.7184 3.69353 4.10222 0
M  V30 81 H 9.1944 1.79872 3.75213 0
M  V30 82 H 8.0704 1.96453 5.1254 0
M  V30 83 H 8.3314 0.384237 4.40427 0
M  V30 84 N 7.3905 -1.2043 1.01659 0
M  V30 85 C 8.8015 -1.71517 0.737482 0
M  V30 86 C 9.1525 -1.81547 -0.743973 0
M  V30 87 O 8.2775 -1.47803 -1.58061 0
M  V30 88 C 8.8725 -3.11515 1.33206 0
M  V30 89 C 7.4315 -3.59912 1.10183 0
M  V30 90 C 6.5785 -2.37116 1.43776 0
M  V30 91 H 9.5295 -1.05444 1.18606 0
M  V30 92 H 9.5505 -3.73575 0.722636 0
M  V30 93 H 9.0625 -3.04182 2.41028 0
M  V30 94 H 7.1635 -3.72577 0.0412756 0
M  V30 95 H 7.2765 -4.44731 1.78188 0
M  V30 96 H 5.6405 -2.39857 0.856778 0
M  V30 97 H 6.4235 -2.32424 2.52654 0
M  V30 98 N 8.8686 -0.792821 -1.36206 0
M  V30 99 C 10.1146 -0.36733 -1.99446 0
M  V30 100 C 10.4476 1.05917 -1.62774 0
M  V30 101 O 9.7226 1.7324 -0.88421 0
M  V30 102 C 10.0056 -0.535044 -3.56103 0
M  V30 103 C 9.8586 -2.00548 -4.02617 0
M  V30 104 C 11.1776 0.0478191 -4.40074 0
M  V30 105 H 8.2966 -0.134941 -0.724541 0
M  V30 106 H 10.9386 -0.999794 -1.61568 0
M  V30 107 H 9.0886 0.00336329 -3.885 0
M  V30 108 H 10.7606 -2.60521 -3.80692 0
M  V30 109 H 9.0036 -2.50686 -3.54032 0
M  V30 110 H 9.6746 -2.07377 -5.11565 0
M  V30 111 H 12.1506 -0.411822 -4.14057 0
M  V30 112 H 11.0266 -0.0995336 -5.4881 0
M  V30 113 H 11.2876 1.14025 -4.27142 0
M  V30 114 N 10.3467 1.47872 -0.545128 0
M  V30 115 C 11.5927 2.02793 -0.0166104 0
M  V30 116 C 11.9257 1.41987 1.32489 0
M  V30 117 O 11.2007 0.571045 1.85928 0
M  V30 118 C 11.4837 3.59989 0.0893294 0
M  V30 119 C 11.3367 4.3125 -1.27841 0
M  V30 120 C 12.6557 4.32606 0.808724 0
M  V30 121 H 9.7747 0.736962 -0.00751035 0
M  V30 122 H 12.4167 1.76433 -0.705085 0
M  V30 123 H 10.5667 3.82579 0.675681 0
M  V30 124 H 12.2387 4.20035 -1.90704 0
M  V30 125 H 10.4817 3.92076 -1.85632 0
M  V30 126 H 11.1527 5.39736 -1.15713 0
M  V30 127 H 13.6287 4.14936 0.310992 0
M  V30 128 H 12.5047 5.42251 0.851782 0
M  V30 129 H 12.7657 4.00963 1.86229 0
M  V30 130 N 11.8248 0.280983 1.55075 0
M  V30 131 C 13.2408 -0.0729964 1.59433 0
M  V30 132 C 13.4408 -1.5411 1.29817 0
M  V30 133 O 12.4968 -2.29086 1.06187 0
M  V30 134 C 13.8098 0.306921 2.9913 0
M  V30 135 C 15.3578 0.254023 3.11968 0
M  V30 136 C 15.8328 0.608467 4.5394 0
M  V30 137 N 17.3238 0.560241 4.59799 0
M  V30 138 C 18.0588 0.80722 5.6769 0
M  V30 139 N 17.5548 1.11912 6.83701 0
M  V30 140 N 19.3478 0.735623 5.57266 0
M  V30 141 H 11.4988 1.238 1.7259 0
M  V30 142 H 13.7618 0.500547 0.805082 0
M  V30 143 H 13.4678 1.32816 3.25657 0
M  V30 144 H 13.3418 -0.349363 3.75579 0
M  V30 145 H 15.7288 -0.75794 2.852 0
M  V30 146 H 15.8098 0.944649 2.37718 0
M  V30 147 H 15.4538 1.61814 4.81434 0
M  V30 148 H 15.3838 -0.104013 5.26497 0
M  V30 149 H 17.8748 0.329288 3.76463 0
M  V30 150 H 18.1878 1.29409 7.61888 0
M  V30 151 H 16.5328 1.15695 6.85303 0
M  V30 152 H 19.7238 0.491752 4.6551 0
M  V30 153 H 19.8968 0.931482 6.4127 0
M  V30 154 N 13.3029 -1.57598 0.00835791 0
M  V30 155 C 14.2659 -2.07884 -0.965242 0
M  V30 156 C 15.2659 -0.989825 -1.26725 0
M  V30 157 O 16.4559 -1.25218 -1.21104 0
M  V30 158 C 13.5879 -2.52731 -2.28779 0
M  V30 159 H 14.7809 -2.95178 -0.530112 0
M  V30 160 H 12.3339 -1.54458 -0.239283 0
M  V30 161 H 13.0689 -1.68705 -2.76964 0
M  V30 162 H 12.8539 -3.32272 -2.08177 0
M  V30 163 H 14.3439 -2.91933 -2.98605 0
M  V30 164 N 14.781 0.264519 -1.55364 0
M  V30 165 C 16.006 1.01726 -1.80739 0
M  V30 166 C 16.431 1.78836 -0.583044 0
M  V30 167 O 15.789 1.75167 0.467566 0
M  V30 168 C 15.837 1.94482 -3.03659 0
M  V30 169 O 14.941 3.03386 -2.7934 0
M  V30 170 H 14.282 0.290395 -0.597132 0
M  V30 171 H 16.812 0.290854 -2.02522 0
M  V30 172 H 16.822 2.36278 -3.32621 0
M  V30 173 H 15.497 1.37772 -3.92418 0
M  V30 174 H 14.074 2.65844 -2.61498 0
M  V30 175 N 16.2591 1.48442 0.529413 0
M  V30 176 C 17.1911 1.59095 1.64989 0
M  V30 177 C 18.2041 0.475212 1.5571 0
M  V30 178 O 19.3931 0.746081 1.6216 0
M  V30 179 C 16.4931 1.50518 3.0364 0
M  V30 180 C 15.6661 2.77142 3.38395 0
M  V30 181 C 14.7251 2.62012 4.56329 0
M  V30 182 O 13.7511 3.35898 4.59522 0
M  V30 183 N 14.9531 1.71667 5.54536 0
M  V30 184 H 17.7181 2.55723 1.56287 0
M  V30 185 H 15.2791 1.45173 0.716697 0
M  V30 186 H 17.2711 1.38091 3.80412 0
M  V30 187 H 15.8411 0.618627 3.06418 0
M  V30 188 H 15.0611 3.0413 2.50796 0
M  V30 189 H 16.3491 3.61146 3.58401 0
M  V30 190 H 15.7471 1.10841 5.54735 0
M  V30 191 H 14.3041 1.65178 6.30523 0
M  V30 192 N 17.7372 -0.778329 1.37039 0
M  V30 193 C 19.1532 -1.07796 1.17695 0
M  V30 194 C 19.3532 -2.01498 0.00860115 0
M  V30 195 O 18.4092 -2.43901 -0.653352 0
M  V30 196 C 19.7222 -1.68178 2.49272 0
M  V30 197 C 21.2702 -1.80467 2.55735 0
M  V30 198 C 21.7452 -2.44263 3.87427 0
M  V30 199 N 23.2362 -2.51721 3.88833 0
M  V30 200 C 23.9712 -3.01919 4.87476 0
M  V30 201 N 23.4672 -3.5234 5.96513 0
M  V30 202 N 25.2602 -3.00733 4.74885 0
M  V30 203 H 17.4112 -0.156032 2.11826 0
M  V30 204 H 19.6742 -0.131844 0.938787 0
M  V30 205 H 19.3802 -1.06796 3.35093 0
M  V30 206 H 19.2542 -2.67554 2.65885 0
M  V30 207 H 21.6412 -2.40984 1.70325 0
M  V30 208 H 21.7222 -0.798656 2.43013 0
M  V30 209 H 21.3662 -1.84388 4.73248 0
M  V30 210 H 21.2962 -3.45458 3.9745 0
M  V30 211 H 23.7872 -2.1603 3.10063 0
M  V30 212 H 24.1002 -3.89027 6.67741 0
M  V30 213 H 22.4452 -3.50462 6.00168 0
M  V30 214 H 25.6362 -2.60638 3.88826 0
M  V30 215 H 25.8092 -3.39545 5.51918 0
M  V30 216 N 19.2153 -1.21501 -1.00376 0
M  V30 217 C 20.4613 -1.03452 -1.74429 0
M  V30 218 C 20.7943 0.430764 -1.89362 0
M  V30 219 O 20.0693 1.31962 -1.42886 0
M  V30 220 C 20.3523 -1.73375 -3.15615 0
M  V30 221 C 20.2053 -3.27431 -3.08397 0
M  V30 222 C 21.5243 -1.47732 -4.14564 0
M  V30 223 H 18.6433 -0.377226 -0.633143 0
M  V30 224 H 21.2853 -1.49693 -1.17013 0
M  V30 225 H 19.4353 -1.34064 -3.64636 0
M  V30 226 H 21.1073 -3.76119 -2.67081 0
M  V30 227 H 19.3503 -3.5767 -2.45468 0
M  V30 228 H 20.0213 -3.71524 -4.08258 0
M  V30 229 H 22.4973 -1.8186 -3.74254 0
M  V30 230 H 21.3733 -1.99169 -5.11491 0
M  V30 231 H 21.6343 -0.407589 -4.40217 0
M  V30 232 N 20.6934 1.19889 -1.02296 0
M  V30 233 C 21.9184 1.9393 -0.735237 0
M  V30 234 C 22.3434 1.74639 0.698782 0
M  V30 235 O 21.7014 1.04481 1.48167 0
M  V30 236 C 21.7494 3.43916 -1.08417 0
M  V30 237 O 20.8534 4.11917 -0.199446 0
M  V30 238 H 20.1944 0.605645 -0.272196 0
M  V30 239 H 22.7244 1.52137 -1.36804 0
M  V30 240 H 22.7344 3.9456 -1.03856 0
M  V30 241 H 21.4094 3.5728 -2.12894 0
M  V30 242 H 19.9864 3.71666 -0.303136 0
M  V30 243 N 22.1715 0.800033 1.35784 0
M  V30 244 C 23.3965 0.388511 2.03729 0
M  V30 245 C 23.8215 -0.990481 1.5991 0
M  V30 246 O 23.1795 -1.64013 0.772612 0
M  V30 247 C 23.2275 0.4726 3.5749 0
M  V30 248 O 22.3315 -0.51646 4.09153 0
M  V30 249 H 21.6725 0.163271 0.643614 0
M  V30 250 H 24.2025 1.0841 1.73518 0
M  V30 251 H 24.2125 0.34003 4.06581 0
M  V30 252 H 22.8875 1.47848 3.88734 0
M  V30 253 H 21.4645 -0.344673 3.71304 0
M  V30 254 N 23.6496 -1.47581 0.552962 0
M  V30 255 C 24.8956 -2.02782 0.0273648 0
M  V30 256 C 25.2286 -1.42687 -1.31734 0
M  V30 257 O 24.5036 -0.580897 -1.85623 0
M  V30 258 C 24.7866 -3.60031 -0.0702371 0
M  V30 259 C 24.6396 -4.30566 1.30126 0
M  V30 260 C 25.9586 -4.33028 -0.785771 0
M  V30 261 H 23.0776 -0.736912 0.0114185 0
M  V30 262 H 25.7196 -1.76056 0.714432 0
M  V30 263 H 23.8696 -3.82932 -0.655382 0
M  V30 264 H 25.5416 -4.19018 1.92929 0
M  V30 265 H 23.7846 -3.91086 1.87709 0
M  V30 266 H 24.4556 -5.39114 1.18573 0
M  V30 267 H 26.9316 -4.15095 -0.288982 0
M  V30 268 H 25.8076 -5.42695 -0.823013 0
M  V30 269 H 26.0686 -4.01945 -1.841 0
M  V30 270 N 25.1277 -0.289203 -1.54924 0
M  V30 271 C 26.3757 0.322879 -1.99504 0
M  V30 272 C 26.6967 1.55313 -1.1791 0
M  V30 273 O 25.9667 1.94001 -0.272097 0
M  V30 274 H 24.5467 0.122291 -0.736922 0
M  V30 275 H 27.2087 -0.397802 -1.90797 0
M  V30 276 H 26.3047 0.603061 -3.06218 0
M  V30 277 N 26.6058 1.57591 -0.0167156 0
M  V30 278 C 27.5688 2.08393 0.954204 0
M  V30 279 C 28.5688 0.996531 1.26198 0
M  V30 280 O 29.7588 1.25858 1.20438 0
M  V30 281 C 26.8908 2.5394 2.27436 0
M  V30 282 H 28.0838 2.95455 0.514451 0
M  V30 283 H 25.6368 1.54582 0.231089 0
M  V30 284 H 26.3718 1.70171 2.76066 0
M  V30 285 H 26.1568 3.33371 2.06412 0
M  V30 286 H 27.6468 2.93512 2.97053 0
M  V30 287 N 28.0839 -0.256276 1.55502 0
M  V30 288 C 29.0319 -1.33694 1.90338 0
M  V30 289 C 30.0259 -1.50299 0.781441 0
M  V30 290 O 31.2319 -1.51885 0.965966 0
M  V30 291 H 27.6069 -0.447483 0.60437 0
M  V30 292 H 29.5779 -1.01574 2.8058 0
M  V30 293 C 28.3269 -2.68724 2.20642 0
M  V30 294 H 27.6499 -2.56743 3.06469 0
M  V30 295 H 29.0899 -3.43237 2.48926 0
M  V30 296 C 27.5489 -3.21101 1.01959 0
M  V30 297 O 28.0789 -4.0084 0.262762 0
M  V30 298 N 26.2849 -2.79003 0.812746 0
M  V30 299 H 25.8319 -2.14271 1.42989 0
M  V30 300 H 25.7899 -3.14393 0.0203076 0
M  V30 301 N 29.562 -1.4872 -0.521534 0
M  V30 302 C 30.809 -1.57168 -1.27689 0
M  V30 303 C 31.137 -0.249275 -1.92896 0
M  V30 304 O 30.392 0.761162 -1.80291 0
M  V30 305 C 30.691 -2.66497 -2.38148 0
M  V30 306 C 30.357 -4.08664 -1.90538 0
M  V30 307 C 29.019 -4.47357 -1.77271 0
M  V30 308 C 31.371 -4.97724 -1.54663 0
M  V30 309 C 28.699 -5.72905 -1.26478 0
M  V30 310 C 31.051 -6.2377 -1.05329 0
M  V30 311 C 29.715 -6.61311 -0.906861 0
M  V30 312 H 28.985 -0.575117 -0.467249 0
M  V30 313 H 31.632 -1.82472 -0.581051 0
M  V30 314 H 29.937 -2.35085 -3.13437 0
M  V30 315 H 31.634 -2.70246 -2.96257 0
M  V30 316 H 28.224 -3.78111 -2.01816 0
M  V30 317 H 32.408 -4.68501 -1.63768 0
M  V30 318 H 27.664 -6.00709 -1.13835 0
M  V30 319 H 31.838 -6.9217 -0.76644 0
M  V30 320 H 29.465 -7.5848 -0.511083 0
M  V30 321 N 31.0401 0.771051 -1.3745 0
M  V30 322 C 31.9701 1.89827 -1.3597 0
M  V30 323 C 32.9511 1.68562 -0.228216 0
M  V30 324 O 34.1361 1.8941 -0.428675 0
M  V30 325 C 31.2661 3.2712 -1.16662 0
M  V30 326 C 30.2201 3.6295 -2.2683 0
M  V30 327 C 29.5461 4.98791 -1.92644 0
M  V30 328 C 30.8461 3.69627 -3.69017 0
M  V30 329 H 32.5401 1.91323 -2.30295 0
M  V30 330 H 30.0861 0.919082 -1.10855 0
M  V30 331 H 32.0391 4.05615 -1.14256 0
M  V30 332 H 30.7631 3.26059 -0.187926 0
M  V30 333 H 29.4221 2.86763 -2.28392 0
M  V30 334 H 29.0701 4.94271 -0.933021 0
M  V30 335 H 28.7701 5.23733 -2.66416 0
M  V30 336 H 30.2941 5.79685 -1.91826 0
M  V30 337 H 31.7081 4.38273 -3.69581 0
M  V30 338 H 30.1051 4.06067 -4.41848 0
M  V30 339 H 31.1751 2.70273 -4.02592 0
M  V30 340 N 32.5182 1.22032 0.997298 0
M  V30 341 C 33.7582 1.05375 1.75144 0
M  V30 342 C 34.1222 -0.404696 1.87686 0
M  V30 343 O 35.3232 -0.691998 2.5974 0
M  V30 344 C 33.5942 1.74046 3.12158 0
M  V30 345 S 35.1532 1.72745 4.03366 0
M  V30 346 H 31.9712 0.377449 0.602539 0
M  V30 347 H 34.5732 1.54902 1.19272 0
M  V30 348 H 33.2772 2.79332 3.00669 0
M  V30 349 H 32.8082 1.24731 3.73103 0
M  V30 350 H 34.8232 0.774015 4.90126 0
M  V30 351 N 33.9963 -1.19345 1.0293 0
M  V30 352 C 34.9263 -2.2481 0.631105 0
M  V30 353 C 35.9073 -1.66245 -0.360104 0
M  V30 354 O 37.0923 -1.92677 -0.242726 0
M  V30 355 C 34.2223 -3.47295 -0.0184607 0
M  V30 356 C 33.1763 -4.18536 0.895073 0
M  V30 357 C 32.5023 -5.34586 0.110592 0
M  V30 358 C 33.8023 -4.73287 2.209 0
M  V30 359 H 35.4963 -2.58372 1.51275 0
M  V30 360 H 33.0423 -1.24194 0.728818 0
M  V30 361 H 34.9953 -4.20268 -0.308675 0
M  V30 362 H 33.7193 -3.12933 -0.934907 0
M  V30 363 H 32.3783 -3.47446 1.16949 0
M  V30 364 H 32.0263 -4.96469 -0.807902 0
M  V30 365 H 31.7263 -5.83183 0.719087 0
M  V30 366 H 33.2503 -6.10355 -0.172871 0
M  V30 367 H 34.6643 -5.38013 1.98028 0
M  V30 368 H 33.0613 -5.32373 2.76946 0
M  V30 369 H 34.1313 -3.91331 2.86336 0
M  V30 370 N 35.4744 -0.807222 -1.35358 0
M  V30 371 C 36.7224 -0.387122 -1.98358 0
M  V30 372 C 37.0434 1.04942 -1.64354 0
M  V30 373 O 36.3134 1.72615 -0.926339 0
M  V30 374 H 34.8934 -0.140154 -0.733734 0
M  V30 375 H 37.5554 -1.0332 -1.6526 0
M  V30 376 H 36.6514 -0.493352 -3.08176 0
M  V30 377 N 36.9525 1.47285 -0.560781 0
M  V30 378 C 37.8855 2.27009 0.232821 0
M  V30 379 C 38.8635 1.34273 0.917039 0
M  V30 380 O 40.0475 1.63659 0.935315 0
M  V30 381 C 37.1745 3.11406 1.33206 0
M  V30 382 C 36.2205 4.19746 0.756019 0
M  V30 383 S 37.0535 5.34003 -0.400165 0
M  V30 384 C 38.2095 6.21964 0.700805 0
M  V30 385 H 38.4425 2.93971 -0.443683 0
M  V30 386 H 35.9755 1.50446 -0.347181 0
M  V30 387 H 37.9335 3.60601 1.96156 0
M  V30 388 H 36.5945 2.438 1.98041 0
M  V30 389 H 35.7875 4.78541 1.5816 0
M  V30 390 H 35.3895 3.73451 0.202619 0
M  V30 391 H 37.6815 6.58529 1.59202 0
M  V30 392 H 38.6245 7.07941 0.150126 0
M  V30 393 H 39.0325 5.5566 0.995083 0
M  V30 394 N 38.4306 0.297415 1.54768 0
M  V30 395 C 39.3936 -0.567375 2.22066 0
M  V30 396 C 40.3936 -1.06409 1.20556 0
M  V30 397 O 41.5836 -0.960691 1.45315 0
M  V30 398 C 38.7156 -1.78517 2.90421 0
M  V30 399 H 39.9086 0.0205534 2.99893 0
M  V30 400 H 37.4616 0.0482163 1.56226 0
M  V30 401 H 38.1966 -2.41303 2.16664 0
M  V30 402 H 37.9816 -1.43669 3.64831 0
M  V30 403 H 39.4716 -2.39964 3.41771 0
M  V30 404 N 39.9087 -1.5758 0.0250728 0
M  V30 405 C 40.8387 -2.13007 -0.956575 0
M  V30 406 C 41.8197 -1.0452 -1.342 0
M  V30 407 O 43.0047 -1.32332 -1.42133 0
M  V30 408 C 40.1347 -2.65386 -2.24026 0
M  V30 409 C 39.0887 -3.78623 -1.99571 0
M  V30 410 C 38.4147 -4.17414 -3.3417 0
M  V30 411 C 39.7147 -5.04867 -1.33814 0
M  V30 412 H 41.4087 -2.9528 -0.494991 0
M  V30 413 H 38.9547 -1.42042 -0.236651 0
M  V30 414 H 40.9077 -3.02794 -2.93076 0
M  V30 415 H 39.6317 -1.80268 -2.72343 0
M  V30 416 H 38.2907 -3.41646 -1.32941 0
M  V30 417 H 37.9387 -3.29284 -3.80238 0
M  V30 418 H 37.6387 -4.93719 -3.18615 0
M  V30 419 H 39.1627 -4.57402 -4.04495 0
M  V30 420 H 40.5767 -5.39888 -1.92857 0
M  V30 421 H 38.9737 -5.86144 -1.28669 0
M  V30 422 H 40.0437 -4.83904 -0.310561 0
M  V30 423 N 41.3868 0.248026 -1.55636 0
M  V30 424 C 42.6268 0.983592 -1.79178 0
M  V30 425 C 42.9908 1.82567 -0.594414 0
M  V30 426 O 44.1918 2.59292 -0.708583 0
M  V30 427 C 42.4628 1.82228 -3.07454 0
M  V30 428 S 44.0218 2.61709 -3.52213 0
M  V30 429 H 40.8398 0.330866 -0.629324 0
M  V30 430 H 43.4418 0.251562 -1.93875 0
M  V30 431 H 42.1458 1.19333 -3.92668 0
M  V30 432 H 41.6768 2.59708 -2.95492 0
M  V30 433 H 43.6918 3.84655 -3.13457 0
M  V30 434 N 42.8649 1.48995 0.513639 0
M  V30 435 C 44.2759 1.5119 1.09537 0
M  V30 436 C 44.6269 0.290906 1.94031 0
M  V30 437 O 43.7519 -0.60049 2.07902 0
M  V30 438 C 44.3469 2.73964 1.99322 0
M  V30 439 C 42.9059 2.78978 2.52682 0
M  V30 440 C 42.0529 2.44934 1.30009 0
M  V30 441 H 45.0039 1.55875 0.298125 0
M  V30 442 H 45.0249 2.53409 2.83838 0
M  V30 443 H 44.5369 3.62813 1.37799 0
M  V30 444 H 42.6379 1.94378 3.1788 0
M  V30 445 H 42.7509 3.8083 2.90698 0
M  V30 446 H 41.1149 1.9644 1.62122 0
M  V30 447 H 41.8979 3.36043 0.702131 0
M  V30 448 N 44.343 -0.763751 1.37857 0
M  V30 449 C 45.759 -1.06542 1.18832 0
M  V30 450 C 45.959 -2.01478 0.0299722 0
M  V30 451 O 45.015 -2.4458 -0.627447 0
M  V30 452 C 46.328 -1.65525 2.51042 0
M  V30 453 C 47.876 -1.77745 2.57635 0
M  V30 454 C 48.351 -2.4014 3.89996 0
M  V30 455 N 49.842 -2.47582 3.91481 0
M  V30 456 C 50.577 -2.96732 4.9065 0
M  V30 457 N 50.073 -3.45993 6.00217 0
M  V30 458 N 51.866 -2.95679 4.78048 0
M  V30 459 H 44.017 -0.133556 2.1198 0
M  V30 460 H 46.28 -0.121879 0.940133 0
M  V30 461 H 45.986 -1.03236 3.36207 0
M  V30 462 H 45.86 -2.64719 2.68707 0
M  V30 463 H 48.247 -2.39164 1.72872 0
M  V30 464 H 48.328 -0.772836 2.43846 0
M  V30 465 H 47.972 -1.79358 4.75177 0
M  V30 466 H 47.902 -3.41223 4.01092 0
M  V30 467 H 50.393 -2.1273 3.12337 0
M  V30 468 H 50.706 -3.81922 6.7183 0
M  V30 469 H 49.051 -3.44077 6.03851 0
M  V30 470 H 52.242 -2.56499 3.91568 0
M  V30 471 H 52.415 -3.33672 5.55488 0
M  V30 472 N 45.8211 -1.22559 -0.990812 0
M  V30 473 C 46.7531 -0.955325 -2.08342 0
M  V30 474 C 47.7661 0.0668408 -1.62663 0
M  V30 475 O 48.9551 -0.167421 -1.77713 0
M  V30 476 C 46.0551 -0.415566 -3.36342 0
M  V30 477 C 45.2281 -1.49544 -4.11042 0
M  V30 478 C 44.2871 -0.962399 -5.17324 0
M  V30 479 O 43.3131 -1.64907 -5.44788 0
M  V30 480 N 44.5151 0.215134 -5.80101 0
M  V30 481 H 47.2801 -1.89596 -2.32106 0
M  V30 482 H 44.8411 -1.13276 -1.15673 0
M  V30 483 H 46.8331 -0.0442386 -4.04676 0
M  V30 484 H 45.4031 0.430232 -3.09625 0
M  V30 485 H 44.6231 -2.04 -3.37309 0
M  V30 486 H 45.9111 -2.22195 -4.57719 0
M  V30 487 H 45.3091 0.789779 -5.6016 0
M  V30 488 H 43.8661 0.527826 -6.49659 0
M  V30 489 N 47.2992 1.18797 -1.03562 0
M  V30 490 C 48.2622 2.20464 -0.626769 0
M  V30 491 C 49.2622 1.57721 0.313173 0
M  V30 492 O 50.4522 1.73917 0.0992615 0
M  V30 493 C 47.5842 3.40802 0.0818498 0
M  V30 494 H 48.7772 2.58149 -1.5264 0
M  V30 495 H 46.3302 1.32593 -0.827578 0
M  V30 496 H 47.0652 3.08642 0.995518 0
M  V30 497 H 46.8502 3.8758 -0.593652 0
M  V30 498 H 48.3402 4.16092 0.354584 0
M  V30 499 N 48.7773 0.814389 1.34928 0
M  V30 500 C 50.0053 0.411136 2.02774 0
M  V30 501 C 50.4203 -0.980316 1.61354 0
M  V30 502 O 49.7773 -1.63299 0.814847 0
M  V30 503 C 49.8283 0.493865 3.58111 0
M  V30 504 O 49.5493 1.83047 3.98027 0
M  V30 505 C 51.0503 0.0844174 4.4322 0
M  V30 506 H 48.2703 0.166037 0.650133 0
M  V30 507 H 50.8143 1.10018 1.72384 0
M  V30 508 H 48.9693 -0.147006 3.87121 0
M  V30 509 H 49.3833 1.79872 4.92693 0
M  V30 510 H 50.8573 0.193404 5.51661 0
M  V30 511 H 51.3343 -0.97113 4.28329 0
M  V30 512 H 51.9403 0.69875 4.19521 0
M  V30 513 N 50.2554 -1.46986 0.568584 0
M  V30 514 C 51.6714 -1.57946 0.229189 0
M  V30 515 C 51.8714 -1.56567 -1.26843 0
M  V30 516 O 50.9274 -1.47511 -2.04931 0
M  V30 517 C 52.2404 -2.87963 0.865909 0
M  V30 518 C 53.7884 -3.01568 0.838188 0
M  V30 519 C 54.2634 -4.34301 1.45419 0
M  V30 520 N 55.7544 -4.40965 1.41788 0
M  V30 521 C 56.4894 -5.42256 1.86403 0
M  V30 522 N 55.9854 -6.50297 2.38926 0
M  V30 523 N 57.7784 -5.3337 1.77405 0
M  V30 524 H 49.9294 -1.46126 1.54146 0
M  V30 525 H 52.1924 -0.696156 0.643484 0
M  V30 526 H 51.8984 -2.94742 1.91886 0
M  V30 527 H 51.7724 -3.75423 0.365687 0
M  V30 528 H 54.1594 -2.94379 -0.206106 0
M  V30 529 H 54.2404 -2.1562 1.37629 0
M  V30 530 H 53.8844 -4.42247 2.49761 0
M  V30 531 H 53.8144 -5.19 0.891435 0
M  V30 532 H 56.3054 -3.63484 1.03381 0
M  V30 533 H 56.6184 -7.23777 2.70863 0
M  V30 534 H 54.9634 -6.51155 2.42944 0
M  V30 535 H 58.1544 -4.47865 1.3614 0
M  V30 536 H 58.3274 -6.12169 2.12492 0
M  V30 537 N 51.7335 -0.305618 -1.54608 0
M  V30 538 C 52.9825 0.303098 -1.9941 0
M  V30 539 C 53.2955 1.54648 -1.19764 0
M  V30 540 O 54.5015 2.23007 -1.54855 0
M  V30 541 C 52.9575 0.590588 -3.55021 0
M  V30 542 C 52.5655 -0.634719 -4.43481 0
M  V30 543 C 54.3095 1.16025 -4.08336 0
M  V30 544 C 52.2165 -0.320126 -5.90533 0
M  V30 545 H 51.1465 0.117031 -0.744862 0
M  V30 546 H 53.7975 -0.415045 -1.78745 0
M  V30 547 H 52.1795 1.36845 -3.71604 0
M  V30 548 H 53.3535 -1.41079 -4.38672 0
M  V30 549 H 51.6685 -1.12333 -4.00962 0
M  V30 550 H 54.2655 1.40994 -5.15776 0
M  V30 551 H 54.6085 2.10397 -3.5922 0
M  V30 552 H 55.1415 0.443985 -3.95315 0
M  V30 553 H 51.8805 -1.23254 -6.43808 0
M  V30 554 H 51.4005 0.418579 -5.98338 0
M  V30 555 H 53.0795 0.0766241 -6.46955 0
M  V30 556 N 53.2116 1.57565 -0.0334293 0
M  V30 557 C 54.6226 1.79746 0.504798 0
M  V30 558 C 54.9736 0.944091 1.71992 0
M  V30 559 O 54.0986 0.155694 2.15839 0
M  V30 560 C 54.6936 3.25997 0.922567 0
M  V30 561 C 53.2526 3.49159 1.40588 0
M  V30 562 C 52.3996 2.74785 0.372633 0
M  V30 563 H 55.3506 1.56565 -0.259436 0
M  V30 564 H 55.3716 3.35945 1.78666 0
M  V30 565 H 54.8836 3.88081 0.0379825 0
M  V30 566 H 52.9846 2.92332 2.31025 0
M  V30 567 H 53.0976 4.57873 1.41028 0
M  V30 568 H 51.4616 2.40391 0.841672 0
M  V30 569 H 52.2446 3.39587 -0.503559 0
M  V30 570 N 54.6897 -0.239769 1.55765 0
M  V30 571 C 55.6197 -1.30052 1.9393 0
M  V30 572 C 56.6007 -1.49839 0.805132 0
M  V30 573 O 57.7857 -1.62328 1.06599 0
M  V30 574 C 54.9157 -2.65391 2.2402 0
M  V30 575 C 53.8697 -2.60289 3.39755 0
M  V30 576 C 53.1957 -3.99489 3.55405 0
M  V30 577 C 54.4957 -2.16654 4.75246 0
M  V30 578 H 56.1897 -0.983573 2.82783 0
M  V30 579 H 53.7357 -0.471701 1.36055 0
M  V30 580 H 55.6887 -3.3974 2.49308 0
M  V30 581 H 54.4127 -2.98736 1.32 0
M  V30 582 H 53.0717 -1.88398 3.14487 0
M  V30 583 H 52.7197 -4.30112 2.60793 0
M  V30 584 H 52.4197 -3.96962 4.33238 0
M  V30 585 H 53.9437 -4.75528 3.83022 0
M  V30 586 H 55.3577 -2.80737 4.99859 0
M  V30 587 H 53.7547 -2.25223 5.56232 0
M  V30 588 H 54.8247 -1.11835 4.71827 0
M  V30 589 N 56.1678 -1.49265 -0.50573 0
M  V30 590 C 57.1158 -1.66065 -1.62866 0
M  V30 591 C 58.1098 -0.526636 -1.61006 0
M  V30 592 O 59.3158 -0.706126 -1.65571 0
M  V30 593 H 55.6908 -0.52356 -0.539805 0
M  V30 594 H 57.6618 -2.60329 -1.45848 0
M  V30 595 C 56.4108 -1.74008 -3.01026 0
M  V30 596 H 55.7338 -2.6064 -3.03161 0
M  V30 597 H 57.1738 -1.89798 -3.79147 0
M  V30 598 C 55.6328 -0.483868 -3.33407 0
M  V30 599 O 56.1628 0.392548 -3.99777 0
M  V30 600 N 54.3688 -0.348236 -2.88506 0
M  V30 601 H 53.9158 -1.06242 -2.34671 0
M  V30 602 H 53.8738 0.491204 -3.10539 0
M  V30 603 N 57.6459 0.756429 -1.3826 0
M  V30 604 C 58.8939 1.51248 -1.34047 0
M  V30 605 C 59.2149 1.94875 0.0698372 0
M  V30 606 O 58.4849 1.67436 1.01696 0
M  V30 607 H 57.0649 0.561018 -0.493222 0
M  V30 608 H 59.7269 0.899347 -1.7291 0
M  V30 609 H 58.8229 2.40472 -1.98947 0
M  V30 610 N 59.124 1.23083 0.984299 0
M  V30 611 C 60.352 1.08714 1.76037 0
M  V30 612 C 60.767 -0.361691 1.85303 0
M  V30 613 O 60.124 -1.25034 1.32939 0
M  V30 614 C 60.175 1.70206 3.18923 0
M  V30 615 O 59.896 3.09423 3.10144 0
M  V30 616 C 61.397 1.61227 4.12941 0
M  V30 617 H 58.617 0.380664 0.552572 0
M  V30 618 H 61.161 1.62853 1.23689 0
M  V30 619 H 59.316 1.20109 3.6831 0
M  V30 620 H 59.73 3.39188 4.00065 0
M  V30 621 H 61.204 2.08962 5.10919 0
M  V30 622 H 61.681 0.570375 4.35481 0
M  V30 623 H 62.287 2.10671 3.69456 0
M  V30 624 N 60.6021 -1.18246 1.0419 0
M  V30 625 C 61.8481 -1.88793 0.75689 0
M  V30 626 C 62.2031 -1.78909 -0.707767 0
M  V30 627 O 61.4961 -1.1794 -1.50999 0
M  V30 628 C 61.6901 -3.38082 1.15911 0
M  V30 629 C 61.5191 -3.62496 2.66133 0
M  V30 630 C 60.2891 -3.7979 3.33298 0
M  V30 631 C 62.4871 -3.62976 3.64353 0
M  V30 632 N 60.4691 -3.91955 4.72487 0
M  V30 633 C 61.8401 -3.80869 4.89222 0
M  V30 634 C 63.8951 -3.46071 3.57965 0
M  V30 635 C 62.5981 -3.83608 6.08471 0
M  V30 636 C 64.6241 -3.50093 4.76643 0
M  V30 637 C 63.9861 -3.68484 6.00332 0
M  V30 638 H 60.0851 -0.709406 0.32904 0
M  V30 639 H 62.6691 -1.42022 1.33183 0
M  V30 640 H 60.8401 -3.83544 0.612238 0
M  V30 641 H 62.5721 -3.96202 0.824989 0
M  V30 642 H 59.3271 -3.79224 2.83701 0
M  V30 643 H 59.7511 -4.01857 5.44831 0
M  V30 644 H 64.3931 -3.30797 2.63311 0
M  V30 645 H 62.1111 -3.97669 7.0348 0
M  V30 646 H 65.6971 -3.38285 4.73344 0
M  V30 647 H 64.5771 -3.71488 6.90627 0
M  V30 648 N 62.0802 -0.821533 -1.34494 0
M  V30 649 C 63.0102 -0.257138 -2.3208 0
M  V30 650 C 63.9912 0.625645 -1.58176 0
M  V30 651 O 65.1762 0.552811 -1.86166 0
M  V30 652 C 62.3062 0.582958 -3.42372 0
M  V30 653 C 61.2602 -0.202571 -4.2752 0
M  V30 654 C 60.5862 0.760179 -5.29269 0
M  V30 655 C 61.8862 -1.40998 -5.02908 0
M  V30 656 H 63.5802 -1.07247 -2.79532 0
M  V30 657 H 61.1262 -0.517163 -1.34393 0
M  V30 658 H 63.0792 0.987972 -4.09655 0
M  V30 659 H 61.8032 1.43133 -2.93565 0
M  V30 660 H 60.4622 -0.588936 -3.61838 0
M  V30 661 H 60.1102 1.60447 -4.76724 0
M  V30 662 H 59.8102 0.238809 -5.87115 0
M  V30 663 H 61.3342 1.16308 -5.9942 0
M  V30 664 H 62.7482 -1.07905 -5.63054 0
M  V30 665 H 61.1452 -1.86689 -5.70322 0
M  V30 666 H 62.2152 -2.1889 -4.32684 0
M  V30 667 N 63.5583 1.46682 -0.576371 0
M  V30 668 C 64.8053 2.02412 -0.0595339 0
M  V30 669 C 65.1333 1.44859 1.29793 0
M  V30 670 O 64.3883 0.601099 1.8624 0
M  V30 671 C 64.6873 3.57345 0.062886 0
M  V30 672 C 64.3533 4.33908 -1.22616 0
M  V30 673 C 63.0153 4.54544 -1.57933 0
M  V30 674 C 65.3673 4.77919 -2.07948 0
M  V30 675 C 62.6953 5.16444 -2.78393 0
M  V30 676 C 65.0473 5.41149 -3.27629 0
M  V30 677 C 63.7113 5.60014 -3.63236 0
M  V30 678 H 62.9813 0.74068 -0.021785 0
M  V30 679 H 65.6283 1.76128 -0.751735 0
M  V30 680 H 63.9333 3.82729 0.838178 0
M  V30 681 H 65.6303 3.98136 0.478439 0
M  V30 682 H 62.2203 4.18138 -0.941202 0
M  V30 683 H 66.4043 4.61738 -1.81967 0
M  V30 684 H 61.6603 5.29242 -3.06126 0
M  V30 685 H 65.8343 5.74211 -3.94023 0
M  V30 686 H 63.4613 6.07748 -4.56669 0
M  V30 687 N 65.0364 0.313813 1.54444 0
M  V30 688 C 66.2644 -0.293918 2.04802 0
M  V30 689 C 66.6794 -1.46537 1.19047 0
M  V30 690 O 66.0364 -1.81182 0.218939 0
M  V30 691 C 66.0874 -0.737806 3.53891 0
M  V30 692 O 65.8084 0.387038 4.36387 0
M  V30 693 C 67.3094 -1.40936 4.203 0
M  V30 694 H 64.5294 -0.0620057 0.668129 0
M  V30 695 H 67.0734 0.457169 1.99324 0
M  V30 696 H 65.2284 -1.43889 3.59687 0
M  V30 697 H 65.6424 0.0391274 5.24485 0
M  V30 698 H 67.1164 -1.67099 5.26101 0
M  V30 699 H 67.5934 -2.35355 3.70816 0
M  V30 700 H 68.1994 -0.751117 4.18615 0
M  V30 701 N 66.5145 -1.57545 0.0417849 0
M  V30 702 C 67.9255 -1.80011 -0.495259 0
M  V30 703 C 68.2765 -0.953199 -1.71489 0
M  V30 704 O 67.4015 -0.167138 -2.15754 0
M  V30 705 C 67.9965 -3.26482 -0.905265 0
M  V30 706 C 66.5555 -3.499 -1.38734 0
M  V30 707 C 65.7025 -2.74979 -0.358056 0
M  V30 708 H 68.6535 -1.56425 0.267736 0
M  V30 709 H 68.6745 -3.36887 -1.76882 0
M  V30 710 H 68.1865 -3.88096 -0.017401 0
M  V30 711 H 66.2875 -2.93553 -2.29471 0
M  V30 712 H 66.4005 -4.58615 -1.38598 0
M  V30 713 H 64.7645 -2.40834 -0.828912 0
M  V30 714 H 65.5475 -3.39315 0.521561 0
M  V30 715 N 67.9926 0.231505 -1.5589 0
M  V30 716 C 69.2386 0.95877 -1.78705 0
M  V30 717 C 69.5716 1.8438 -0.609725 0
M  V30 718 O 68.8466 1.90521 0.391426 0
M  V30 719 C 69.1296 1.8062 -3.11526 0
M  V30 720 C 68.9826 0.948328 -4.39689 0
M  V30 721 C 70.3016 2.78585 -3.40703 0
M  V30 722 H 67.4206 0.347129 -0.650131 0
M  V30 723 H 70.0626 0.228259 -1.88624 0
M  V30 724 H 68.2126 2.42902 -3.03201 0
M  V30 725 H 69.8846 0.343016 -4.60023 0
M  V30 726 H 68.1276 0.253314 -4.3306 0
M  V30 727 H 68.7986 1.57543 -5.29041 0
M  V30 728 H 71.2746 2.26439 -3.49091 0
M  V30 729 H 70.1506 3.34988 -4.34826 0
M  V30 730 H 70.4116 3.55825 -2.62375 0
M  V30 731 N 69.4707 1.49531 0.497807 0
M  V30 732 C 70.6957 1.63159 1.28039 0
M  V30 733 C 71.1207 0.30418 1.85624 0
M  V30 734 O 70.4787 -0.728618 1.66015 0
M  V30 735 C 70.5267 2.70537 2.38416 0
M  V30 736 O 69.6307 2.29931 3.42353 0
M  V30 737 H 68.9717 0.546001 0.377861 0
M  V30 738 H 71.5017 1.9574 0.59558 0
M  V30 739 H 71.5117 2.92802 2.84132 0
M  V30 740 H 70.1867 3.6689 1.95869 0
M  V30 741 H 68.7637 2.18009 3.02533 0
M  V30 742 N 70.9488 -0.749086 1.3866 0
M  V30 743 C 71.8958 -1.86291 1.36251 0
M  V30 744 C 72.8658 -1.64578 0.224347 0
M  V30 745 O 74.0508 -1.86181 0.417279 0
M  V30 746 C 71.1908 -3.23644 1.19786 0
M  V30 747 C 70.3038 -3.57158 2.43027 0
M  V30 748 C 69.4388 -4.83838 2.19258 0
M  V30 749 C 68.4778 -5.10152 3.38247 0
M  V30 750 N 67.6148 -6.28029 3.13884 0
M  V30 751 H 72.4548 -1.87685 2.3147 0
M  V30 752 H 69.9918 -0.917287 1.14997 0
M  V30 753 H 71.9498 -4.0291 1.08254 0
M  V30 754 H 70.5798 -3.21566 0.282031 0
M  V30 755 H 69.6318 -2.72701 2.65214 0
M  V30 756 H 70.9438 -3.7253 3.31697 0
M  V30 757 H 70.0978 -5.71057 2.04888 0
M  V30 758 H 68.8368 -4.70614 1.2796 0
M  V30 759 H 67.8418 -4.21401 3.53131 0
M  V30 760 H 69.0668 -5.25271 4.30427 0
M  V30 761 H 67.0128 -6.1612 2.25238 0
M  V30 762 H 66.9298 -6.43922 3.96106 0
M  V30 763 H 68.1978 -7.18124 3.03179 0
M  V30 764 N 72.4269 -1.23603 -0.977757 0
M  V30 765 C 73.3599 -0.962772 -2.06896 0
M  V30 766 C 74.3379 0.0998743 -1.62293 0
M  V30 767 O 75.5219 -0.0349421 -1.88468 0
M  V30 768 C 72.6489 -0.45095 -3.35685 0
M  V30 769 C 71.6949 -1.50061 -3.99229 0
M  V30 770 S 72.5279 -3.07884 -4.38142 0
M  V30 771 C 73.6839 -2.58378 -5.7008 0
M  V30 772 H 73.9169 -1.88677 -2.29757 0
M  V30 773 H 71.4499 -1.06876 -1.11431 0
M  V30 774 H 73.4079 -0.162261 -4.10179 0
M  V30 775 H 72.0689 0.452179 -3.10828 0
M  V30 776 H 71.2619 -1.09269 -4.92013 0
M  V30 777 H 70.8639 -1.73878 -3.31123 0
M  V30 778 H 73.1559 -2.00563 -6.47133 0
M  V30 779 H 74.0989 -3.49711 -6.15717 0
M  V30 780 H 74.5069 -1.99143 -5.28207 0
M  V30 781 N 73.905 1.17692 -1.04816 0
M  V30 782 C 74.868 2.19787 -0.650117 0
M  V30 783 C 75.868 1.58044 0.296427 0
M  V30 784 O 77.058 1.74012 0.0808097 0
M  V30 785 C 74.19 3.40869 0.0456987 0
M  V30 786 H 75.383 2.56516 -1.5537 0
M  V30 787 H 72.936 1.31708 -0.841594 0
M  V30 788 H 73.671 3.09681 0.962726 0
M  V30 789 H 73.456 3.86928 -0.634727 0
M  V30 790 H 74.946 4.16445 0.310432 0
M  V30 791 N 75.3831 0.828654 1.34056 0
M  V30 792 C 76.6111 0.43262 2.02326 0
M  V30 793 C 77.0261 -0.963147 1.62385 0
M  V30 794 O 76.3831 -1.62425 0.832121 0
M  V30 795 C 76.4341 0.53182 3.57567 0
M  V30 796 O 76.1551 1.87258 3.96063 0
M  V30 797 C 77.6561 0.131422 4.43105 0
M  V30 798 H 74.8761 0.172923 0.648335 0
M  V30 799 H 77.4201 1.1184 1.71208 0
M  V30 800 H 75.5751 -0.105938 3.87255 0
M  V30 801 H 75.9891 1.85087 4.90758 0
M  V30 802 H 77.4631 0.251904 5.51425 0
M  V30 803 H 77.9401 -0.925645 4.29335 0
M  V30 804 H 78.5461 0.743207 4.18756 0
M  V30 805 N 76.8612 -1.46375 0.584142 0
M  V30 806 C 78.1072 -2.02678 0.0703716 0
M  V30 807 C 78.4402 -1.4545 -1.28678 0
M  V30 808 O 77.7152 -0.62014 -1.84349 0
M  V30 809 C 77.9982 -3.60099 0.00614674 0
M  V30 810 C 77.8512 -4.27709 1.3923 0
M  V30 811 C 79.1702 -4.34598 -0.693742 0
M  V30 812 H 76.2892 -0.736504 0.027047 0
M  V30 813 H 78.9312 -1.74501 0.751615 0
M  V30 814 H 77.0812 -3.84236 -0.574009 0
M  V30 815 H 78.7532 -4.14832 2.01773 0
M  V30 816 H 76.9962 -3.87016 1.95962 0
M  V30 817 H 77.6672 -5.36478 1.29982 0
M  V30 818 H 80.1432 -4.15615 -0.200869 0
M  V30 819 H 79.0192 -5.44318 -0.707714 0
M  V30 820 H 79.2802 -4.05759 -1.75533 0
M  V30 821 N 78.3393 -0.321999 -1.54275 0
M  V30 822 C 79.2863 0.544664 -2.24281 0
M  V30 823 C 80.2563 1.1129 -1.23303 0
M  V30 824 O 81.4413 1.15354 -1.51981 0
M  V30 825 C 78.5813 1.70045 -3.00298 0
M  V30 826 C 77.6943 1.16159 -4.1609 0
M  V30 827 C 76.8293 2.28293 -4.79641 0
M  V30 828 C 75.8683 1.71648 -5.8754 0
M  V30 829 N 75.0053 2.77438 -6.44959 0
M  V30 830 H 79.8453 -0.0588907 -2.97942 0
M  V30 831 H 77.3823 -0.0408345 -1.47043 0
M  V30 832 H 79.3403 2.38054 -3.42616 0
M  V30 833 H 77.9703 2.27531 -2.28975 0
M  V30 834 H 77.0223 0.373092 -3.78566 0
M  V30 835 H 78.3343 0.707087 -4.93763 0
M  V30 836 H 77.4883 3.0421 -5.2492 0
M  V30 837 H 76.2273 2.77079 -4.01346 0
M  V30 838 H 75.2323 0.942282 -5.41665 0
M  V30 839 H 76.4573 1.23741 -6.67731 0
M  V30 840 H 74.4033 3.25519 -5.69538 0
M  V30 841 H 74.3203 2.36547 -7.1804 0
M  V30 842 H 75.5883 3.53189 -6.94894 0
M  V30 843 N 79.8174 1.5752 -0.0501392 0
M  V30 844 C 81.0424 1.97376 0.636997 0
M  V30 845 C 81.4674 0.927466 1.63645 0
M  V30 846 O 80.8254 -0.10941 1.8097 0
M  V30 847 C 80.8734 3.36304 1.30123 0
M  V30 848 O 79.9774 3.34156 2.41689 0
M  V30 849 H 79.3184 0.642998 0.165679 0
M  V30 850 H 81.8484 2.04258 -0.118233 0
M  V30 851 H 81.8584 3.73008 1.65315 0
M  V30 852 H 80.5334 4.11993 0.568746 0
M  V30 853 H 79.1104 3.09196 2.08451 0
M  V30 854 N 81.2955 -0.223234 1.56011 0
M  V30 855 C 82.2055 -1.29766 1.95443 0
M  V30 856 C 83.2215 -1.51373 0.858028 0
M  V30 857 O 84.3975 -1.64536 1.16146 0
M  V30 858 C 81.4625 -2.62772 2.26167 0
M  V30 859 C 80.5235 -2.49482 3.49367 0
M  V30 860 C 79.7565 -3.76145 3.78616 0
M  V30 861 O 79.9795 -4.79087 3.09568 0
M  V30 862 O 78.9135 -3.73358 4.72109 0
M  V30 863 H 82.7395 -0.99309 2.87004 0
M  V30 864 H 80.3245 -0.425958 1.43199 0
M  V30 865 H 82.2065 -3.41327 2.47131 0
M  V30 866 H 80.8815 -2.92913 1.37781 0
M  V30 867 H 79.7885 -1.69133 3.33684 0
M  V30 868 H 81.1215 -2.2428 4.38131 0
M  V30 869 N 82.7736 -1.49793 -0.48987 0
M  V30 870 C 83.7036 -1.70201 -1.59856 0
M  V30 871 C 84.6846 -0.55076 -1.60937 0
M  V30 872 O 85.8696 -0.787841 -1.77501 0
M  V30 873 C 82.9996 -1.77882 -2.98287 0
M  V30 874 C 81.9536 -2.92907 -3.12073 0
M  V30 875 C 81.2796 -2.85712 -4.51965 0
M  V30 876 C 82.5796 -4.3369 -2.91051 0
M  V30 877 H 84.2736 -2.63025 -1.43032 0
M  V30 878 H 81.8196 -1.26574 -0.686664 0
M  V30 879 H 83.7726 -1.90744 -3.75759 0
M  V30 880 H 82.4966 -0.816653 -3.16225 0
M  V30 881 H 81.1556 -2.79665 -2.37029 0
M  V30 882 H 80.8036 -1.8738 -4.66795 0
M  V30 883 H 80.5036 -3.62921 -4.62128 0
M  V30 884 H 82.0276 -3.00598 -5.31482 0
M  V30 885 H 83.4416 -4.47555 -3.58284 0
M  V30 886 H 81.8386 -5.12205 -3.12675 0
M  V30 887 H 82.9086 -4.47362 -1.87071 0
M  V30 888 N 84.2517 0.741722 -1.39055 0
M  V30 889 C 85.5007 1.49656 -1.35225 0
M  V30 890 C 85.8137 1.95533 0.0512708 0
M  V30 891 O 87.0197 2.7067 0.212138 0
M  V30 892 C 85.4757 2.70389 -2.37525 0
M  V30 893 C 85.0837 2.31489 -3.83558 0
M  V30 894 C 86.8277 3.48236 -2.42759 0
M  V30 895 C 84.7347 3.48903 -4.77515 0
M  V30 896 H 83.6647 0.56197 -0.502699 0
M  V30 897 H 86.3157 0.809727 -1.64668 0
M  V30 898 H 84.6977 3.41113 -2.01142 0
M  V30 899 H 85.8717 1.68354 -4.28945 0
M  V30 900 H 84.1867 1.66749 -3.81554 0
M  V30 901 H 86.7837 4.35558 -3.1015 0
M  V30 902 H 87.1267 3.90229 -1.45008 0
M  V30 903 H 87.6597 2.84535 -2.78002 0
M  V30 904 H 84.3987 3.11966 -5.76504 0
M  V30 905 H 83.9187 4.11041 -4.36813 0
M  V30 906 H 85.5977 4.15328 -4.96096 0
M  V30 907 N 85.7298 1.2412 0.971189 0
M  V30 908 C 86.6398 1.04747 2.09917 0
M  V30 909 C 87.6558 -0.0107162 1.73997 0
M  V30 910 O 88.8318 0.186714 2.00533 0
M  V30 911 C 85.8968 0.650828 3.40537 0
M  V30 912 C 84.9578 1.7851 3.90426 0
M  V30 913 C 84.1908 1.40729 5.14812 0
M  V30 914 O 84.4138 0.29557 5.69634 0
M  V30 915 O 83.3478 2.23168 5.58999 0
M  V30 916 H 87.1738 1.99304 2.29154 0
M  V30 917 H 84.7588 1.02908 1.08307 0
M  V30 918 H 86.6408 0.440992 4.19086 0
M  V30 919 H 85.3158 -0.265649 3.22608 0
M  V30 920 H 84.2228 2.04966 3.12953 0
M  V30 921 H 85.5558 2.68023 4.12825 0
M  V30 922 N 87.2079 -1.17134 1.05439 0
M  V30 923 C 88.6239 -1.39454 0.776201 0
M  V30 924 C 88.8239 -1.91454 -0.628307 0
M  V30 925 O 87.8799 -2.10777 -1.39031 0
M  V30 926 C 89.1929 -2.38305 1.83388 0
M  V30 927 C 90.7409 -2.52006 1.85639 0
M  V30 928 C 91.2159 -3.54133 2.90437 0
M  V30 929 N 92.7069 -3.61653 2.89415 0
M  V30 930 C 93.4419 -4.4044 3.67152 0
M  V30 931 N 92.9379 -5.22721 4.54681 0
M  V30 932 N 94.7309 -4.35337 3.55581 0
M  V30 933 H 86.8819 -0.817134 1.96053 0
M  V30 934 H 89.1449 -0.421626 0.849079 0
M  V30 935 H 88.8509 -2.07173 2.84204 0
M  V30 936 H 88.7249 -3.37841 1.67761 0
M  V30 937 H 91.1119 -2.82447 0.85486 0
M  V30 938 H 91.1929 -1.52537 2.05344 0
M  V30 939 H 90.8369 -3.24431 3.90777 0
M  V30 940 H 90.7669 -4.53313 2.67983 0
M  V30 941 H 93.2579 -3.02909 2.25952 0
M  V30 942 H 93.5709 -5.80027 5.10674 0
M  V30 943 H 91.9159 -5.22093 4.58741 0
M  V30 944 H 95.1069 -3.70112 2.86592 0
M  V30 945 H 95.2799 -4.96494 4.1641 0
M  V30 946 N 88.686 -0.835752 -1.33615 0
M  V30 947 C 89.933 -0.429959 -1.97883 0
M  V30 948 C 90.261 1.01006 -1.66217 0
M  V30 949 O 89.516 1.72047 -0.93265 0
M  V30 950 C 89.815 -0.593925 -3.52431 0
M  V30 951 C 89.481 -2.00158 -4.04039 0
M  V30 952 C 88.143 -2.38662 -4.17844 0
M  V30 953 C 90.495 -2.92117 -4.31644 0
M  V30 954 C 87.823 -3.68435 -4.56588 0
M  V30 955 C 90.175 -4.21368 -4.71838 0
M  V30 956 C 88.839 -4.59833 -4.83849 0
M  V30 957 H 88.109 -0.157333 -0.724104 0
M  V30 958 H 90.756 -1.06217 -1.59343 0
M  V30 959 H 89.061 0.121619 -3.91611 0
M  V30 960 H 90.758 -0.260282 -4.00154 0
M  V30 961 H 87.348 -1.69252 -3.93766 0
M  V30 962 H 91.532 -2.63608 -4.20505 0
M  V30 963 H 86.788 -3.98046 -4.64079 0
M  V30 964 H 90.962 -4.92703 -4.92155 0
M  V30 965 H 88.589 -5.60438 -5.13627 0
M  V30 966 N 90.1641 1.46063 -0.591896 0
M  V30 967 C 91.3921 2.06717 -0.0868936 0
M  V30 968 C 91.8071 1.43916 1.22203 0
M  V30 969 O 91.1641 0.547698 1.74088 0
M  V30 970 C 91.2151 3.6142 0.0758725 0
M  V30 971 O 90.9361 4.21874 -1.18126 0
M  V30 972 C 92.4371 4.39025 0.61416 0
M  V30 973 H 89.6571 0.668162 -0.0616518 0
M  V30 974 H 92.2011 1.8755 -0.815175 0
M  V30 975 H 90.3561 3.79983 0.754413 0
M  V30 976 H 90.7701 5.14861 -1.00092 0
M  V30 977 H 92.2441 5.4783 0.677193 0
M  V30 978 H 92.7211 4.07708 1.63312 0
M  V30 979 H 93.3271 4.2529 -0.0298142 0
M  V30 980 N 91.6422 0.330177 1.54103 0
M  V30 981 C 92.8672 -0.274893 2.0557 0
M  V30 982 C 93.2922 -1.44487 1.20437 0
M  V30 983 O 92.6502 -1.80021 0.214991 0
M  V30 984 C 92.6982 -0.68079 3.54115 0
M  V30 985 O 91.8022 -1.7824 3.71893 0
M  V30 986 H 91.1432 -0.0483849 0.662235 0
M  V30 987 H 93.6732 0.480508 1.98878 0
M  V30 988 H 93.6832 -0.961635 3.96505 0
M  V30 989 H 92.3582 0.174903 4.15532 0
M  V30 990 H 90.9352 -1.49985 3.41407 0
M  V30 991 N 93.1203 -1.57491 0.0584922 0
M  V30 992 C 94.0303 -2.15448 -0.928414 0
M  V30 993 C 95.0463 -1.11416 -1.3365 0
M  V30 994 O 96.2223 -1.4362 -1.41193 0
M  V30 995 C 93.2873 -2.69393 -2.18239 0
M  V30 996 C 92.3483 -3.88249 -1.83196 0
M  V30 997 C 91.5813 -4.39613 -3.02616 0
M  V30 998 O 91.8043 -3.90023 -4.16219 0
M  V30 999 O 90.7383 -5.31111 -2.83204 0
M  V30 1000 H 94.5643 -3.00112 -0.465483 0
M  V30 1001 H 92.1493 -1.48499 -0.163826 0
M  V30 1002 H 94.0313 -3.04026 -2.91798 0
M  V30 1003 H 92.7063 -1.87796 -2.63656 0
M  V30 1004 H 91.6133 -3.58492 -1.06931 0
M  V30 1005 H 92.9463 -4.71098 -1.42573 0
M  V30 1006 N 94.5984 0.214957 -1.56127 0
M  V30 1007 C 95.5454 1.26642 -1.92952 0
M  V30 1008 C 96.5154 1.46244 -0.78753 0
M  V30 1009 O 97.7004 1.59704 -1.04399 0
M  V30 1010 C 94.8404 2.6104 -2.25726 0
M  V30 1011 C 93.9534 2.49183 -3.52891 0
M  V30 1012 C 93.0884 3.76149 -3.7508 0
M  V30 1013 C 92.1274 3.59041 -4.95738 0
M  V30 1014 N 91.2644 4.77972 -5.14283 0
M  V30 1015 H 96.1044 0.945384 -2.82607 0
M  V30 1016 H 93.6414 0.455489 -1.3987 0
M  V30 1017 H 95.5994 3.39313 -2.42739 0
M  V30 1018 H 94.2294 2.91227 -1.39236 0
M  V30 1019 H 93.2814 1.6231 -3.44034 0
M  V30 1020 H 94.5934 2.32466 -4.41318 0
M  V30 1021 H 93.7474 4.62865 -3.92226 0
M  V30 1022 H 92.4864 3.95799 -2.84947 0
M  V30 1023 H 91.4914 2.7071 -4.78535 0
M  V30 1024 H 92.7164 3.40856 -5.87362 0
M  V30 1025 H 90.6624 4.97923 -4.27093 0
M  V30 1026 H 90.5794 4.64006 -5.96853 0
M  V30 1027 H 91.8474 5.66096 -5.35869 0
M  V30 1028 N 96.0765 1.50051 0.48192 0
M  V30 1029 C 97.4875 1.5348 1.06305 0
M  V30 1030 C 97.8385 0.331997 1.93371 0
M  V30 1031 O 96.9635 -0.556256 2.09129 0
M  V30 1032 C 97.5585 2.7813 1.93466 0
M  V30 1033 C 96.1175 2.84275 2.46707 0
M  V30 1034 C 95.2645 2.47637 1.24785 0
M  V30 1035 H 98.2155 1.56472 0.264995 0
M  V30 1036 H 98.2365 2.59372 2.78399 0
M  V30 1037 H 97.7485 3.65654 1.30072 0
M  V30 1038 H 95.8495 2.01077 3.13686 0
M  V30 1039 H 95.9625 3.8691 2.82555 0
M  V30 1040 H 94.3265 1.99835 1.57918 0
M  V30 1041 H 95.1095 3.37457 0.630694 0
M  V30 1042 N 97.5546 -0.734337 1.39446 0
M  V30 1043 C 98.8006 -1.49613 1.36908 0
M  V30 1044 C 99.1336 -1.94169 -0.0347829 0
M  V30 1045 O 98.4086 -1.66833 -0.999847 0
M  V30 1046 C 98.6916 -2.73534 2.34203 0
M  V30 1047 C 98.5446 -2.34993 3.83534 0
M  V30 1048 C 99.8636 -3.75635 2.29317 0
M  V30 1049 H 96.9826 -0.542714 0.498629 0
M  V30 1050 H 99.6246 -0.839597 1.70443 0
M  V30 1051 H 97.7746 -3.29553 2.05736 0
M  V30 1052 H 99.4466 -1.84601 4.22753 0
M  V30 1053 H 97.6896 -1.67213 4.00278 0
M  V30 1054 H 98.3606 -3.23738 4.47099 0
M  V30 1055 H 100.837 -3.29203 2.54489 0
M  V30 1056 H 99.7126 -4.60008 2.99472 0
M  V30 1057 H 99.9736 -4.22603 1.29842 0
M  V30 1058 N 99.0327 -1.24633 -0.964593 0
M  V30 1059 C 99.9827 -1.00841 -2.04487 0
M  V30 1060 C 100.967 0.0512468 -1.60818 0
M  V30 1061 O 102.159 -0.162865 -1.76249 0
M  V30 1062 C 99.2877 -0.618474 -3.37683 0
M  V30 1063 C 98.3737 -1.71437 -3.87905 0
M  V30 1064 N 98.7647 -2.9477 -4.11029 0
M  V30 1065 C 97.0627 -1.5926 -4.16596 0
M  V30 1066 C 97.7637 -3.65834 -4.52261 0
M  V30 1067 N 96.7397 -2.9341 -4.57615 0
M  V30 1068 H 100.542 -1.94487 -2.20345 0
M  V30 1069 H 98.0557 -1.14805 -1.14863 0
M  V30 1070 H 100.053 -0.429247 -4.14684 0
M  V30 1071 H 98.7127 0.310766 -3.23209 0
M  V30 1072 H 99.7237 -3.30917 -3.9839 0
M  V30 1073 H 96.4007 -0.731606 -4.1104 0
M  V30 1074 H 97.7907 -4.71646 -4.78539 0
M  V30 1075 N 100.511 1.16574 -1.06058 0
M  V30 1076 C 101.461 2.18854 -0.63929 0
M  V30 1077 C 102.445 1.57505 0.328798 0
M  V30 1078 O 103.637 1.76408 0.144623 0
M  V30 1079 C 100.766 3.43291 -0.0247203 0
M  V30 1080 C 99.8518 4.11722 -1.01716 0
M  V30 1081 N 100.243 4.55841 -2.19186 0
M  V30 1082 C 98.5408 4.37872 -0.847569 0
M  V30 1083 C 99.2418 5.08751 -2.82042 0
M  V30 1084 N 98.2178 5.01489 -2.09784 0
M  V30 1085 H 102.02 2.5068 -1.53417 0
M  V30 1086 H 99.5338 1.32999 -0.931935 0
M  V30 1087 H 101.531 4.15856 0.294915 0
M  V30 1088 H 100.191 3.12954 0.865448 0
M  V30 1089 H 101.202 4.49649 -2.56975 0
M  V30 1090 H 97.8788 4.17499 -0.00918848 0
M  V30 1091 H 99.2688 5.52944 -3.81709 0
M  V30 1092 N 101.989 0.842826 1.3317 0
M  V30 1093 C 103.214 0.453129 2.02389 0
M  V30 1094 C 103.639 -0.939105 1.6298 0
M  V30 1095 O 102.997 -1.61472 0.8244 0
M  V30 1096 C 103.045 0.586094 3.55805 0
M  V30 1097 O 102.149 -0.386029 4.10589 0
M  V30 1098 H 101.49 0.183664 0.638094 0
M  V30 1099 H 104.02 1.13875 1.69981 0
M  V30 1100 H 104.03 0.469209 4.05293 0
M  V30 1101 H 102.705 1.6014 3.83833 0
M  V30 1102 H 101.282 -0.226371 3.72212 0
M  V30 1103 N 103.467 -1.45747 0.599634 0
M  V30 1104 C 104.414 -2.30467 -0.123849 0
M  V30 1105 C 105.384 -1.41632 -0.86774 0
M  V30 1106 O 106.569 -1.70568 -0.855056 0
M  V30 1107 C 103.709 -3.26402 -1.12051 0
M  V30 1108 C 102.822 -4.3034 -0.37832 0
M  V30 1109 C 101.957 -5.13389 -1.364 0
M  V30 1110 C 100.996 -6.09061 -0.609171 0
M  V30 1111 N 100.133 -6.84918 -1.54374 0
M  V30 1112 H 104.973 -2.91802 0.604627 0
M  V30 1113 H 102.51 -1.43797 0.309972 0
M  V30 1114 H 104.468 -3.80482 -1.7114 0
M  V30 1115 H 103.098 -2.66839 -1.8165 0
M  V30 1116 H 102.15 -3.78984 0.327929 0
M  V30 1117 H 103.462 -4.98354 0.210997 0
M  V30 1118 H 102.616 -5.7183 -2.02719 0
M  V30 1119 H 101.355 -4.45376 -1.98725 0
M  V30 1120 H 100.36 -5.49758 0.0676979 0
M  V30 1121 H 101.585 -6.79099 0.00891991 0
M  V30 1122 H 99.531 -6.19601 -2.15478 0
M  V30 1123 H 99.448 -7.49254 -1.00766 0
M  V30 1124 H 100.716 -7.47906 -2.19676 0
M  V30 1125 N 104.945 -0.338344 -1.53925 0
M  V30 1126 C 106.191 0.260143 -2.01125 0
M  V30 1127 C 106.524 1.50617 -1.22589 0
M  V30 1128 O 105.799 1.91979 -0.312113 0
M  V30 1129 C 106.082 0.579499 -3.55407 0
M  V30 1130 C 105.935 -0.678264 -4.44657 0
M  V30 1131 C 107.254 1.39122 -4.17532 0
M  V30 1132 H 104.373 0.0930772 -0.731099 0
M  V30 1133 H 107.015 -0.457852 -1.84401 0
M  V30 1134 H 105.165 1.19118 -3.69788 0
M  V30 1135 H 106.837 -1.31631 -4.42121 0
M  V30 1136 H 105.08 -1.3042 -4.13731 0
M  V30 1137 H 105.751 -0.410143 -5.50474 0
M  V30 1138 H 108.227 0.874035 -4.06817 0
M  V30 1139 H 107.103 1.58342 -5.25565 0
M  V30 1140 H 107.364 2.39178 -3.71815 0
M  V30 1141 N 106.423 1.57458 -0.0668435 0
M  V30 1142 C 107.648 1.9804 0.616027 0
M  V30 1143 C 108.073 0.944771 1.62652 0
M  V30 1144 O 107.431 -0.0902094 1.81075 0
M  V30 1145 C 107.479 3.37665 1.26549 0
M  V30 1146 O 106.583 3.36701 2.38131 0
M  V30 1147 H 105.924 0.644719 0.158849 0
M  V30 1148 H 108.454 2.04121 -0.139891 0
M  V30 1149 H 108.464 3.7474 1.6135 0
M  V30 1150 H 107.139 4.12573 0.525016 0
M  V30 1151 H 105.716 3.1139 2.0516 0
M  V30 1152 N 107.901 -0.206675 1.56239 0
M  V30 1153 C 109.15 -0.926964 1.79138 0
M  V30 1154 C 109.463 -1.84901 0.638043 0
M  V30 1155 O 110.669 -2.60906 0.751033 0
M  V30 1156 C 109.125 -1.6986 3.17294 0
M  V30 1157 C 108.733 -0.821956 4.40395 0
M  V30 1158 C 110.477 -2.40922 3.4951 0
M  V30 1159 C 108.384 -1.59179 5.69575 0
M  V30 1160 H 107.314 -0.349864 0.667915 0
M  V30 1161 H 109.965 -0.180487 1.8261 0
M  V30 1162 H 108.347 -2.48853 3.08039 0
M  V30 1163 H 109.521 -0.0715019 4.60745 0
M  V30 1164 H 107.836 -0.222741 4.15804 0
M  V30 1165 H 110.433 -2.99047 4.43255 0
M  V30 1166 H 110.776 -3.14542 2.72707 0
M  V30 1167 H 111.309 -1.68905 3.60161 0
M  V30 1168 H 108.048 -0.898589 6.49312 0
M  V30 1169 H 107.568 -2.31648 5.53262 0
M  V30 1170 H 109.247 -2.14862 6.10281 0
M  V30 1171 N 109.379 -1.50304 -0.473955 0
M  V30 1172 C 110.628 -1.60392 -1.22301 0
M  V30 1173 C 110.941 -0.308411 -1.93153 0
M  V30 1174 O 112.147 -0.288156 -2.69966 0
M  V30 1175 C 110.603 -2.83109 -2.2221 0
M  V30 1176 C 110.211 -4.19524 -1.57173 0
M  V30 1177 C 111.955 -3.0254 -2.97775 0
M  V30 1178 C 109.862 -5.33431 -2.55353 0
M  V30 1179 H 108.792 -0.597286 -0.460179 0
M  V30 1180 H 111.443 -1.76731 -0.493803 0
M  V30 1181 H 109.825 -2.60322 -2.9841 0
M  V30 1182 H 110.999 -4.52554 -0.867824 0
M  V30 1183 H 109.314 -4.05674 -0.939002 0
M  V30 1184 H 111.911 -3.84811 -3.71248 0
M  V30 1185 H 112.254 -2.14154 -3.56992 0
M  V30 1186 H 112.787 -3.25494 -2.28688 0
M  V30 1187 H 109.526 -6.23962 -2.00878 0
M  V30 1188 H 109.046 -5.04823 -3.23904 0
M  V30 1189 H 110.725 -5.63887 -3.17239 0
M  V30 1190 N 110.857 0.726932 -1.39834 0
M  V30 1191 C 112.105 1.4837 -1.37225 0
M  V30 1192 C 112.426 1.94979 0.0284857 0
M  V30 1193 O 111.696 1.69555 0.981213 0
M  V30 1194 H 110.276 0.55043 -0.505011 0
M  V30 1195 H 112.938 0.862468 -1.74778 0
M  V30 1196 H 112.034 2.36198 -2.04003 0
M  V30 1197 N 112.336 1.25143 0.95797 0
M  V30 1198 C 113.564 1.12424 1.73691 0
M  V30 1199 C 113.979 -0.322304 1.86029 0
M  V30 1200 O 113.336 -1.22186 1.35561 0
M  V30 1201 C 113.387 1.76933 3.15241 0
M  V30 1202 O 113.108 3.15932 3.03511 0
M  V30 1203 C 114.609 1.6995 4.09429 0
M  V30 1204 H 111.829 0.3923 0.544373 0
M  V30 1205 H 114.373 1.6544 1.20207 0
M  V30 1206 H 112.528 1.27895 3.6568 0
M  V30 1207 H 112.942 3.47598 3.9278 0
M  V30 1208 H 114.416 2.19753 5.06372 0
M  V30 1209 H 114.893 0.662619 4.34173 0
M  V30 1210 H 115.499 2.18461 3.64904 0
M  V30 1211 N 113.814 -1.1601 1.06675 0
M  V30 1212 C 115.062 -1.86264 0.784229 0
M  V30 1213 C 115.383 -1.82328 -0.691488 0
M  V30 1214 O 114.653 -1.25947 -1.50047 0
M  V30 1215 H 113.233 -0.689621 0.28711 0
M  V30 1216 H 115.895 -1.40664 1.34906 0
M  V30 1217 H 114.991 -2.91595 1.11259 0
M  V30 1218 N 115.292 -0.849877 -1.32721 0
M  V30 1219 C 116.517 -0.463856 -2.02146 0
M  V30 1220 C 116.942 0.930449 -1.63476 0
M  V30 1221 O 116.3 1.61033 -0.832952 0
M  V30 1222 C 116.348 -0.604955 -3.55489 0
M  V30 1223 O 115.452 0.36425 -4.10788 0
M  V30 1224 H 114.793 -0.187046 -0.637111 0
M  V30 1225 H 117.323 -1.14775 -1.69375 0
M  V30 1226 H 117.333 -0.490696 -4.05038 0
M  V30 1227 H 116.008 -1.62174 -3.82978 0
M  V30 1228 H 114.585 0.206628 -3.72327 0
M  V30 1229 N 116.77 1.45427 -0.607355 0
M  V30 1230 C 118.016 2.0254 -0.102607 0
M  V30 1231 C 118.349 1.47478 1.26348 0
M  V30 1232 O 117.624 0.64939 1.83339 0
M  V30 1233 C 117.907 3.60044 -0.0634347 0
M  V30 1234 C 117.76 4.2544 -1.46017 0
M  V30 1235 C 119.079 4.35646 0.624514 0
M  V30 1236 H 116.198 0.73598 -0.0387607 0
M  V30 1237 H 118.84 1.73284 -0.779282 0
M  V30 1238 H 116.99 3.85101 0.512808 0
M  V30 1239 H 118.662 4.11569 -2.08347 0
M  V30 1240 H 116.905 3.83849 -2.02094 0
M  V30 1241 H 117.576 5.34342 -1.385 0
M  V30 1242 H 120.052 4.15882 0.134723 0
M  V30 1243 H 118.928 5.45376 0.621028 0
M  V30 1244 H 119.189 4.08501 1.69055 0
M  V30 1245 N 118.248 0.346503 1.53744 0
M  V30 1246 C 119.496 -0.248612 2.00565 0
M  V30 1247 C 119.817 -1.5083 1.23593 0
M  V30 1248 O 119.087 -1.92858 0.343912 0
M  V30 1249 H 117.667 -0.0948564 0.740953 0
M  V30 1250 H 120.329 0.468341 1.89189 0
M  V30 1251 H 119.425 -0.488994 3.08245 0
M  V30 1252 N 119.726 -1.57421 0.075193 0
M  V30 1253 C 120.659 -2.08528 -0.926904 0
M  V30 1254 C 121.637 -0.991171 -1.28898 0
M  V30 1255 O 122.821 -1.26479 -1.39769 0
M  V30 1256 C 119.948 -2.54576 -2.23402 0
M  V30 1257 C 118.994 -3.75454 -2.02327 0
M  V30 1258 S 119.827 -5.19989 -1.27951 0
M  V30 1259 C 120.983 -5.69372 -2.59935 0
M  V30 1260 H 121.216 -2.932 -0.492048 0
M  V30 1261 H 118.749 -1.53785 -0.137651 0
M  V30 1262 H 120.707 -2.81767 -2.98526 0
M  V30 1263 H 119.368 -1.70166 -2.64012 0
M  V30 1264 H 118.561 -4.05675 -2.99071 0
M  V30 1265 H 118.163 -3.48654 -1.35339 0
M  V30 1266 H 120.455 -5.76424 -3.56008 0
M  V30 1267 H 121.398 -6.68207 -2.34319 0
M  V30 1268 H 121.806 -4.97205 -2.67296 0
M  V30 1269 N 121.204 0.198386 -1.56346 0
M  V30 1270 C 122.167 1.22952 -1.93431 0
M  V30 1271 C 123.167 1.38611 -0.815092 0
M  V30 1272 O 124.357 1.36479 -1.08255 0
M  V30 1273 C 121.489 2.59946 -2.20546 0
M  V30 1274 H 122.682 0.912626 -2.85677 0
M  V30 1275 H 120.235 0.43977 -1.49986 0
M  V30 1276 H 120.97 2.96696 -1.30927 0
M  V30 1277 H 120.755 2.49953 -3.02102 0
M  V30 1278 H 122.245 3.3431 -2.50253 0
M  V30 1279 N 122.682 1.50554 0.465978 0
M  V30 1280 C 123.922 1.63439 1.22747 0
M  V30 1281 C 124.286 0.329822 1.89146 0
M  V30 1282 O 125.487 0.334161 2.66715 0
M  V30 1283 C 123.758 2.78542 2.2394 0
M  V30 1284 S 125.317 3.11591 3.0896 0
M  V30 1285 H 122.135 0.576113 0.416672 0
M  V30 1286 H 124.737 1.88357 0.523641 0
M  V30 1287 H 123.441 3.71805 1.7375 0
M  V30 1288 H 122.972 2.55726 2.98944 0
M  V30 1289 H 124.987 2.55811 4.25176 0
M  V30 1290 N 124.16 -0.719506 1.40217 0
M  V30 1291 C 125.123 -1.8153 1.39927 0
M  V30 1292 C 126.123 -1.58095 0.293723 0
M  V30 1293 O 127.313 -1.65209 0.552429 0
M  V30 1294 C 124.445 -3.19561 1.18716 0
M  V30 1295 H 125.638 -1.83186 2.37451 0
M  V30 1296 H 123.191 -0.924746 1.26008 0
M  V30 1297 H 123.926 -3.23557 0.219366 0
M  V30 1298 H 123.711 -3.3797 1.98793 0
M  V30 1299 H 125.201 -3.99598 1.21291 0
M  V30 1300 N 125.638 -1.25649 -0.95132 0
M  V30 1301 C 126.887 -1.09988 -1.69073 0
M  V30 1302 C 127.2 0.358355 -1.92289 0
M  V30 1303 O 128.406 0.635466 -2.63958 0
M  V30 1304 C 126.862 -1.92012 -3.044 0
M  V30 1305 C 126.47 -3.42347 -2.88968 0
M  V30 1306 C 128.214 -1.8493 -3.82101 0
M  V30 1307 C 126.121 -4.16655 -4.19705 0
M  V30 1308 H 125.051 -0.407993 -0.63408 0
M  V30 1309 H 127.702 -1.49873 -1.05879 0
M  V30 1310 H 126.084 -1.44952 -3.68517 0
M  V30 1311 H 127.258 -3.97104 -2.33762 0
M  V30 1312 H 125.573 -3.50557 -2.24719 0
M  V30 1313 H 128.17 -2.37739 -4.78941 0
M  V30 1314 H 128.513 -0.817883 -4.08187 0
M  V30 1315 H 129.046 -2.29758 -3.2474 0
M  V30 1316 H 125.785 -5.20224 -3.98807 0
M  V30 1317 H 125.305 -3.66681 -4.74663 0
M  V30 1318 H 126.984 -4.24551 -4.88227 0
M  V30 1319 N 127.117 1.15442 -1.07289 0
M  V30 1320 C 128.342 1.90638 -0.816828 0
M  V30 1321 C 128.767 1.77445 0.624083 0
M  V30 1322 O 128.125 1.10671 1.43602 0
M  V30 1323 C 128.173 3.39008 -1.22906 0
M  V30 1324 O 127.277 4.10701 -0.373975 0
M  V30 1325 H 126.618 0.593555 -0.297638 0
M  V30 1326 H 129.148 1.46198 -1.43134 0
M  V30 1327 H 129.158 3.89801 -1.20497 0
M  V30 1328 H 127.833 3.47929 -2.27856 0
M  V30 1329 H 126.41 3.70046 -0.460499 0
M  V30 1330 N 128.595 0.856903 1.32268 0
M  V30 1331 C 129.844 0.457599 1.96441 0
M  V30 1332 C 130.157 -0.992426 1.68553 0
M  V30 1333 O 131.363 -1.49727 2.26482 0
M  V30 1334 C 129.819 0.767358 3.51624 0
M  V30 1335 C 129.427 2.23326 3.88367 0
M  V30 1336 C 131.171 0.435887 4.22256 0
M  V30 1337 C 129.078 2.48613 5.36606 0
M  V30 1338 H 128.008 0.167387 0.735185 0
M  V30 1339 H 130.659 1.048 1.5063 0
M  V30 1340 H 129.041 0.106367 3.95857 0
M  V30 1341 H 130.215 2.93623 3.55137 0
M  V30 1342 H 128.53 2.52948 3.30766 0
M  V30 1343 H 131.127 0.602202 5.31298 0
M  V30 1344 H 131.47 -0.622672 4.11617 0
M  V30 1345 H 132.003 1.05286 3.83614 0
M  V30 1346 H 128.742 3.53101 5.52268 0
M  V30 1347 H 128.262 1.82896 5.71235 0
M  V30 1348 H 129.941 2.32676 6.03714 0
M  V30 1349 N 130.073 -1.45103 0.615059 0
M  V30 1350 C 131.003 -2.33339 -0.0865619 0
M  V30 1351 C 131.984 -1.4727 -0.851209 0
M  V30 1352 O 133.169 -1.76026 -0.820281 0
M  V30 1353 C 130.299 -3.30095 -1.07956 0
M  V30 1354 C 129.253 -4.25858 -0.427628 0
M  V30 1355 C 128.579 -5.12361 -1.5294 0
M  V30 1356 C 129.879 -5.18165 0.655944 0
M  V30 1357 H 131.573 -2.92254 0.650224 0
M  V30 1358 H 129.119 -1.40532 0.314138 0
M  V30 1359 H 131.072 -3.90698 -1.57901 0
M  V30 1360 H 129.796 -2.69355 -1.84703 0
M  V30 1361 H 128.455 -3.66564 0.0510292 0
M  V30 1362 H 128.103 -4.47984 -2.28734 0
M  V30 1363 H 127.803 -5.77238 -1.09865 0
M  V30 1364 H 129.327 -5.75833 -2.03098 0
M  V30 1365 H 130.741 -5.72796 0.240257 0
M  V30 1366 H 129.138 -5.91559 1.00888 0
M  V30 1367 H 130.208 -4.60144 1.52957 0
M  V30 1368 N 131.551 -0.354651 -1.53558 0
M  V30 1369 C 132.481 0.489091 -2.2832 0
M  V30 1370 C 133.462 1.09324 -1.30316 0
M  V30 1371 O 134.647 1.11255 -1.59173 0
M  V30 1372 C 131.777 1.63456 -3.0643 0
M  V30 1373 C 130.731 1.1582 -4.12031 0
M  V30 1374 C 130.057 2.39305 -4.7816 0
M  V30 1375 C 131.357 0.250731 -5.21698 0
M  V30 1376 H 133.051 -0.134614 -2.99097 0
M  V30 1377 H 130.597 -0.0661826 -1.43848 0
M  V30 1378 H 132.55 2.23136 -3.57475 0
M  V30 1379 H 131.274 2.28533 -2.33325 0
M  V30 1380 H 129.933 0.584146 -3.61916 0
M  V30 1381 H 129.581 3.02814 -4.01637 0
M  V30 1382 H 129.281 2.08109 -5.49513 0
M  V30 1383 H 130.805 2.99691 -5.31994 0
M  V30 1384 H 132.219 0.754695 -5.68311 0
M  V30 1385 H 130.616 0.0301468 -6.00092 0
M  V30 1386 H 131.686 -0.710125 -4.79672 0
M  V30 1387 N 133.029 1.57378 -0.0835403 0
M  V30 1388 C 133.976 2.13384 0.879539 0
M  V30 1389 C 134.946 1.04936 1.28754 0
M  V30 1390 O 136.131 1.32662 1.37133 0
M  V30 1391 C 133.271 2.70932 2.13752 0
M  V30 1392 C 132.384 3.93575 1.7811 0
M  V30 1393 C 131.519 4.39326 2.98607 0
M  V30 1394 C 130.558 5.54587 2.59037 0
M  V30 1395 N 129.695 5.95243 3.72331 0
M  V30 1396 H 134.535 2.9537 0.395076 0
M  V30 1397 H 132.072 1.45953 0.183349 0
M  V30 1398 H 134.03 3.02411 2.87408 0
M  V30 1399 H 132.66 1.91693 2.59718 0
M  V30 1400 H 131.712 3.68483 0.94469 0
M  V30 1401 H 133.024 4.77258 1.45005 0
M  V30 1402 H 132.178 4.72528 3.80529 0
M  V30 1403 H 130.917 3.5452 3.34913 0
M  V30 1404 H 129.922 5.21024 1.75539 0
M  V30 1405 H 131.147 6.41133 2.23887 0
M  V30 1406 H 129.093 5.13385 4.08378 0
M  V30 1407 H 129.01 6.73694 3.43034 0
M  V30 1408 H 130.278 6.33072 4.54797 0
M  V30 1409 N 134.507 -0.190092 1.56449 0
M  V30 1410 C 135.755 -0.907908 1.80559 0
M  V30 1411 C 136.076 -1.83583 0.657438 0
M  V30 1412 O 135.346 -1.93203 -0.323924 0
M  V30 1413 H 133.926 -0.338247 0.666032 0
M  V30 1414 H 136.588 -0.194403 1.93928 0
M  V30 1415 H 135.684 -1.49604 2.73907 0
M  V30 1416 N 135.985 -1.50799 -0.457987 0
M  V30 1417 C 136.915 -1.73553 -1.5621 0
M  V30 1418 C 137.896 -0.584774 -1.59732 0
M  V30 1419 O 139.081 -0.825314 -1.7579 0
M  V30 1420 C 136.211 -1.84169 -2.94447 0
M  V30 1421 C 135.165 -2.99461 -3.0579 0
M  V30 1422 C 134.491 -2.95235 -4.45803 0
M  V30 1423 C 135.791 -4.39766 -2.81786 0
M  V30 1424 H 137.485 -2.66 -1.37421 0
M  V30 1425 H 135.031 -1.28002 -0.659662 0
M  V30 1426 H 136.984 -1.98672 -3.71628 0
M  V30 1427 H 135.708 -0.883545 -3.14422 0
M  V30 1428 H 134.367 -2.8463 -2.31044 0
M  V30 1429 H 134.015 -1.97239 -4.62715 0
M  V30 1430 H 133.715 -3.72642 -4.54326 0
M  V30 1431 H 135.239 -3.11803 -5.24987 0
M  V30 1432 H 136.653 -4.55054 -3.4871 0
M  V30 1433 H 135.05 -5.18722 -3.0174 0
M  V30 1434 H 136.12 -4.51229 -1.7754 0
M  V30 1435 N 137.463 0.71206 -1.40597 0
M  V30 1436 C 138.688 1.50617 -1.42581 0
M  V30 1437 C 139.113 1.88079 -0.0282102 0
M  V30 1438 O 138.471 1.53511 0.964579 0
M  V30 1439 C 138.519 2.7557 -2.3258 0
M  V30 1440 O 137.623 3.72414 -1.77148 0
M  V30 1441 H 136.964 0.453966 -0.484573 0
M  V30 1442 H 139.494 0.876649 -1.84868 0
M  V30 1443 H 139.504 3.2406 -2.47889 0
M  V30 1444 H 138.179 2.47639 -3.34138 0
M  V30 1445 H 136.756 3.31276 -1.71204 0
M  V30 1446 N 138.941 1.26152 0.944643 0
M  V30 1447 C 140.218 1.02247 1.66748 0
M  V30 1448 C 140.598 -0.448202 2.06287 0
M  V30 1449 O 139.946 -1.42779 1.78399 0
M  V30 1450 C 140.156 1.96788 2.88228 0
M  V30 1451 C 141.504 2.25201 3.59958 0
M  V30 1452 O 142.528 1.94626 2.98327 0
M  V30 1453 O 141.387 2.77242 4.70956 0
M  V30 1454 H 138.481 0.388517 0.730057 0
M  V30 1455 H 141.027 1.37348 0.99668 0
M  V30 1456 H 139.799 2.96047 2.55875 0
M  V30 1457 H 139.422 1.62145 3.63035 0
M  V30 1458 N 140.419 -1.14872 1.07899 0
M  V30 1459 C 141.329 -2.2341 0.715915 0
M  V30 1460 C 142.345 -1.71808 -0.275306 0
M  V30 1461 O 143.521 -2.01039 -0.120545 0
M  V30 1462 C 140.586 -3.46474 0.125168 0
M  V30 1463 C 139.647 -4.13039 1.17034 0
M  V30 1464 C 138.88 -5.30229 0.607688 0
M  V30 1465 O 139.103 -5.675 -0.574497 0
M  V30 1466 O 138.037 -5.86444 1.35526 0
M  V30 1467 H 141.863 -2.56808 1.62121 0
M  V30 1468 H 139.448 -1.22702 0.852322 0
M  V30 1469 H 141.33 -4.20917 -0.201729 0
M  V30 1470 H 140.005 -3.14811 -0.753364 0
M  V30 1471 H 138.912 -3.40493 1.54968 0
M  V30 1472 H 140.245 -4.48796 2.02097 0
M  V30 1473 N 141.898 -0.863906 -1.31812 0
M  V30 1474 C 142.828 -0.330843 -2.31144 0
M  V30 1475 C 143.809 0.575005 -1.60087 0
M  V30 1476 O 144.994 0.493304 -1.8783 0
M  V30 1477 C 142.124 0.47374 -3.44054 0
M  V30 1478 C 141.078 -0.338481 -4.26659 0
M  V30 1479 C 140.404 0.591412 -5.31419 0
M  V30 1480 C 141.704 -1.56926 -4.98168 0
M  V30 1481 H 143.398 -1.16086 -2.75979 0
M  V30 1482 H 140.944 -0.559657 -1.32679 0
M  V30 1483 H 142.897 0.857143 -4.12591 0
M  V30 1484 H 141.621 1.33721 -2.9797 0
M  V30 1485 H 140.28 -0.703754 -3.59782 0
M  V30 1486 H 139.928 1.45199 -4.81587 0
M  V30 1487 H 139.628 0.0519022 -5.87577 0
M  V30 1488 H 141.152 0.97179 -6.02817 0
M  V30 1489 H 142.566 -1.25764 -5.59336 0
M  V30 1490 H 140.963 -2.04739 -5.64094 0
M  V30 1491 H 142.033 -2.32544 -4.25501 0
M  V30 1492 N 143.376 1.44774 -0.622745 0
M  V30 1493 C 144.339 2.29069 0.0774015 0
M  V30 1494 C 145.339 1.4059 0.780461 0
M  V30 1495 O 146.529 1.62551 0.626322 0
M  V30 1496 C 143.661 3.21974 1.12006 0
M  V30 1497 H 144.854 2.92459 -0.663901 0
M  V30 1498 H 142.407 1.51548 -0.382486 0
M  V30 1499 H 143.142 2.63417 1.89162 0
M  V30 1500 H 142.927 3.87168 0.619951 0
M  V30 1501 H 144.417 3.85318 1.60995 0
M  V30 1502 N 144.854 0.36279 1.53368 0
M  V30 1503 C 145.784 -0.476976 2.28576 0
M  V30 1504 C 146.765 -1.08631 1.30894 0
M  V30 1505 O 147.95 -1.10409 1.59761 0
M  V30 1506 C 145.08 -1.61828 3.07293 0
M  V30 1507 C 144.034 -1.13633 4.1264 0
M  V30 1508 C 143.36 -2.36766 4.79423 0
M  V30 1509 C 144.66 -0.223061 5.21823 0
M  V30 1510 H 146.354 0.150474 2.99022 0
M  V30 1511 H 143.9 0.0738103 1.43811 0
M  V30 1512 H 145.853 -2.21237 3.58653 0
M  V30 1513 H 144.577 -2.27292 2.34533 0
M  V30 1514 H 143.236 -0.564945 3.62221 0
M  V30 1515 H 142.884 -3.0068 4.03238 0
M  V30 1516 H 142.584 -2.05192 5.50609 0
M  V30 1517 H 144.108 -2.96865 5.33576 0
M  V30 1518 H 145.522 -0.724545 5.68703 0
M  V30 1519 H 143.919 0.001678 6.001 0
M  V30 1520 H 144.989 0.735553 4.79289 0
M  V30 1521 N 146.332 -1.57332 0.0918853 0
M  V30 1522 C 147.578 -1.94524 -0.573425 0
M  V30 1523 C 147.911 -0.973578 -1.68033 0
M  V30 1524 O 147.186 -0.00609226 -1.94499 0
M  V30 1525 C 147.469 -3.41858 -1.13161 0
M  V30 1526 C 147.322 -4.4979 -0.0299747 0
M  V30 1527 C 148.641 -3.90435 -2.03098 0
M  V30 1528 H 145.76 -0.70734 -0.206975 0
M  V30 1529 H 148.402 -1.89309 0.161942 0
M  V30 1530 H 146.552 -3.46433 -1.7583 0
M  V30 1531 H 148.224 -4.57327 0.604112 0
M  V30 1532 H 146.467 -4.291 0.636833 0
M  V30 1533 H 147.138 -5.50069 -0.461287 0
M  V30 1534 H 149.614 -3.87992 -1.50338 0
M  V30 1535 H 148.49 -4.94097 -2.39081 0
M  V30 1536 H 148.751 -3.29541 -2.94712 0
M  V30 1537 N 147.81 0.181792 -1.56548 0
M  V30 1538 C 149.087 0.926765 -1.72251 0
M  V30 1539 C 149.467 2.00831 -0.650386 0
M  V30 1540 O 148.815 2.26008 0.336521 0
M  V30 1541 C 149.025 1.50106 -3.1507 0
M  V30 1542 C 150.373 1.97805 -3.75711 0
M  V30 1543 O 151.397 1.59922 -3.18282 0
M  V30 1544 O 150.256 2.67555 -4.76525 0
M  V30 1545 H 147.35 0.435506 -0.703039 0
M  V30 1546 H 149.896 0.170443 -1.68842 0
M  V30 1547 H 148.668 0.72212 -3.84579 0
M  V30 1548 H 148.291 2.32186 -3.22763 0
M  V30 1549 N 149.288 1.51039 0.449983 0
M  V30 1550 C 150.218 1.74379 1.55288 0
M  V30 1551 C 151.199 0.593236 1.5942 0
M  V30 1552 O 152.384 0.834625 1.7535 0
M  V30 1553 C 149.514 1.85728 2.93466 0
M  V30 1554 C 148.468 3.01078 3.04197 0
M  V30 1555 C 147.794 2.97595 4.44231 0
M  V30 1556 C 149.094 4.41254 2.7945 0
M  V30 1557 H 150.788 2.66725 1.36008 0
M  V30 1558 H 148.334 1.2835 0.652864 0
M  V30 1559 H 150.287 2.0064 3.70569 0
M  V30 1560 H 149.011 0.900207 3.13949 0
M  V30 1561 H 147.67 2.85851 2.29531 0
M  V30 1562 H 147.318 1.99691 4.61663 0
M  V30 1563 H 147.018 3.75046 4.52343 0
M  V30 1564 H 148.542 3.14583 5.23326 0
M  V30 1565 H 149.956 4.56897 3.46292 0
M  V30 1566 H 148.353 5.20315 2.98985 0
M  V30 1567 H 149.423 4.52164 1.75144 0
M  V30 1568 N 150.766 -0.704594 1.40972 0
M  V30 1569 C 152.043 -1.45847 1.30338 0
M  V30 1570 C 152.423 -2.10973 -0.0732344 0
M  V30 1571 O 151.771 -2.00997 -1.08685 0
M  V30 1572 C 151.981 -2.48525 2.45023 0
M  V30 1573 C 153.329 -3.1404 2.8577 0
M  V30 1574 O 154.353 -2.58848 2.44696 0
M  V30 1575 O 153.212 -4.13981 3.56766 0
M  V30 1576 H 150.306 -0.649092 0.512454 0
M  V30 1577 H 152.852 -0.735836 1.52917 0
M  V30 1578 H 151.624 -1.98994 3.36923 0
M  V30 1579 H 151.247 -3.2831 2.24272 0
M  V30 1580 N 152.244 -1.26651 -0.937939 0
M  V30 1581 C 153.154 -1.10276 -2.07066 0
M  V30 1582 C 154.17 -0.0354197 -1.73964 0
M  V30 1583 O 155.346 -0.239816 -1.99967 0
M  V30 1584 C 152.411 -0.740887 -3.38691 0
M  V30 1585 C 151.472 -1.88799 -3.85556 0
M  V30 1586 C 150.705 -1.54329 -5.10899 0
M  V30 1587 O 150.928 -0.446494 -5.6865 0
M  V30 1588 O 149.862 -2.37911 -5.52885 0
M  V30 1589 H 153.688 -2.05309 -2.23789 0
M  V30 1590 H 151.273 -1.05743 -1.0554 0
M  V30 1591 H 153.155 -0.55195 -4.1777 0
M  V30 1592 H 151.83 0.180022 -3.23199 0
M  V30 1593 H 150.737 -2.13191 -3.07409 0
M  V30 1594 H 152.07 -2.78874 -4.05574 0
M  V30 1595 N 153.722 1.14298 -1.08507 0
M  V30 1596 C 154.999 1.81544 -0.728088 0
M  V30 1597 C 155.379 1.95838 0.78808 0
M  V30 1598 O 154.727 1.51904 1.70697 0
M  V30 1599 C 154.937 3.17169 -1.45619 0
M  V30 1600 C 156.285 3.9265 -1.61591 0
M  V30 1601 O 157.309 3.26762 -1.41793 0
M  V30 1602 O 156.168 5.10807 -1.94263 0
M  V30 1603 H 153.262 0.78491 -0.260471 0
M  V30 1604 H 155.808 1.21307 -1.18671 0
M  V30 1605 H 154.58 3.01934 -2.489 0
M  V30 1606 H 154.203 3.851 -0.989124 0
M  V30 1607 N 155.201 0.870884 1.31352 0
M  V30 1608 C 156.148 0.325425 2.28494 0
M  V30 1609 C 157.118 -0.576615 1.5577 0
M  V30 1610 O 158.303 -0.508059 1.83911 0
M  V30 1611 C 155.443 -0.466283 3.41935 0
M  V30 1612 C 154.556 0.463378 4.29508 0
M  V30 1613 C 153.691 -0.342544 5.30094 0
M  V30 1614 C 152.73 0.583486 6.09313 0
M  V30 1615 N 151.867 -0.186244 7.01853 0
M  V30 1616 H 156.707 1.15901 2.74538 0
M  V30 1617 H 154.244 0.58294 1.35056 0
M  V30 1618 H 156.202 -0.941085 4.06447 0
M  V30 1619 H 154.832 -1.26456 2.97 0
M  V30 1620 H 153.884 1.05663 3.65431 0
M  V30 1621 H 155.196 1.1734 4.84802 0
M  V30 1622 H 154.35 -0.879816 6.00287 0
M  V30 1623 H 153.089 -1.08585 4.75458 0
M  V30 1624 H 152.094 1.13251 5.3801 0
M  V30 1625 H 153.319 1.32566 6.66035 0
M  V30 1626 H 151.265 -0.912348 6.49625 0
M  V30 1627 H 151.182 0.464422 7.54572 0
M  V30 1628 H 152.45 -0.704716 7.76308 0
M  V30 1629 N 156.679 -1.44442 0.630414 0
M  V30 1630 C 157.609 -2.33418 -0.0618083 0
M  V30 1631 C 158.59 -1.48165 -0.835541 0
M  V30 1632 O 159.775 -1.76886 -0.801564 0
M  V30 1633 C 156.905 -3.31222 -1.04449 0
M  V30 1634 C 155.859 -4.26288 -0.382436 0
M  V30 1635 C 155.185 -5.13954 -1.47497 0
M  V30 1636 C 156.485 -5.1744 0.710865 0
M  V30 1637 H 158.179 -2.91548 0.681184 0
M  V30 1638 H 155.725 -1.40191 0.329026 0
M  V30 1639 H 157.678 -3.92351 -1.53748 0
M  V30 1640 H 156.402 -2.71299 -1.81836 0
M  V30 1641 H 155.061 -3.6649 0.0899054 0
M  V30 1642 H 154.709 -4.50385 -2.2397 0
M  V30 1643 H 154.409 -5.7837 -1.03737 0
M  V30 1644 H 155.933 -5.77955 -1.96979 0
M  V30 1645 H 157.347 -5.72509 0.300996 0
M  V30 1646 H 155.744 -5.90455 1.07156 0
M  V30 1647 H 156.814 -4.58496 1.57829 0
M  V30 1648 N 158.157 -0.370918 -1.53173 0
M  V30 1649 C 159.104 0.473035 -2.259 0
M  V30 1650 C 160.074 1.07311 -1.26781 0
M  V30 1651 O 161.259 1.1046 -1.55574 0
M  V30 1652 C 158.399 1.60405 -3.05556 0
M  V30 1653 C 157.512 1.02863 -4.19575 0
M  V30 1654 C 156.647 2.12918 -4.86661 0
M  V30 1655 C 155.686 1.52869 -5.92704 0
M  V30 1656 N 154.823 2.56779 -6.53459 0
M  V30 1657 H 159.663 -0.153649 -2.97604 0
M  V30 1658 H 157.2 -0.0875946 -1.46839 0
M  V30 1659 H 159.158 2.27034 -3.50016 0
M  V30 1660 H 157.788 2.20131 -2.36097 0
M  V30 1661 H 156.84 0.252465 -3.79561 0
M  V30 1662 H 158.152 0.549642 -4.95762 0
M  V30 1663 H 157.306 2.87356 -5.34333 0
M  V30 1664 H 156.045 2.6417 -4.09958 0
M  V30 1665 H 155.05 0.769479 -5.44389 0
M  V30 1666 H 156.275 1.02435 -6.7133 0
M  V30 1667 H 154.221 3.07235 -5.79606 0
M  V30 1668 H 154.138 2.13583 -7.25202 0
M  V30 1669 H 155.406 3.30903 -7.05779 0
M  V30 1670 N 159.635 1.57281 -0.100228 0
M  V30 1671 C 160.883 1.94153 0.561157 0
M  V30 1672 C 161.204 0.983157 1.68401 0
M  V30 1673 O 160.474 0.0361132 1.95867 0
M  V30 1674 H 159.054 0.716791 0.210283 0
M  V30 1675 H 161.716 1.94202 -0.164765 0
M  V30 1676 H 160.812 2.96709 0.968008 0
M  V30 1677 N 161.113 -0.173488 1.56642 0
M  V30 1678 C 162.023 -1.23482 1.99473 0
M  V30 1679 C 163.039 -1.48567 0.905752 0
M  V30 1680 O 164.215 -1.60758 1.21321 0
M  V30 1681 C 161.28 -2.55444 2.34413 0
M  V30 1682 C 160.341 -2.38241 3.57127 0
M  V30 1683 C 159.574 -3.63909 3.90392 0
M  V30 1684 O 159.797 -4.68996 3.24653 0
M  V30 1685 O 158.731 -3.58149 4.83749 0
M  V30 1686 H 162.557 -0.901279 2.90018 0
M  V30 1687 H 160.142 -0.380185 1.44482 0
M  V30 1688 H 162.024 -3.33292 2.57865 0
M  V30 1689 H 160.699 -2.88382 1.4703 0
M  V30 1690 H 159.606 -1.58431 3.38896 0
M  V30 1691 H 160.939 -2.10228 4.45045 0
M  V30 1692 N 162.591 -1.51276 -0.441967 0
M  V30 1693 C 163.819 -1.67516 -1.21434 0
M  V30 1694 C 164.234 -0.37055 -1.85128 0
M  V30 1695 O 163.591 0.650498 -1.70513 0
M  V30 1696 C 163.642 -2.78748 -2.30177 0
M  V30 1697 O 163.363 -4.04154 -1.69089 0
M  V30 1698 C 164.864 -3.06217 -3.20541 0
M  V30 1699 H 162.084 -0.562276 -0.366178 0
M  V30 1700 H 164.628 -1.97666 -0.524244 0
M  V30 1701 H 162.783 -2.5121 -2.94911 0
M  V30 1702 H 163.197 -4.65894 -2.40922 0
M  V30 1703 H 164.671 -3.8764 -3.92987 0
M  V30 1704 H 165.148 -2.18439 -3.81026 0
M  V30 1705 H 165.754 -3.35397 -2.61513 0
M  V30 1706 N 164.069 0.697108 -1.41344 0
M  V30 1707 C 165.002 1.82134 -1.37486 0
M  V30 1708 C 165.98 1.60784 -0.242351 0
M  V30 1709 O 167.164 1.83553 -0.429012 0
M  V30 1710 C 164.291 3.18788 -1.14421 0
M  V30 1711 C 163.337 3.58932 -2.3037 0
M  V30 1712 S 164.17 3.63916 -3.92843 0
M  V30 1713 C 165.326 5.03298 -3.72078 0
M  V30 1714 H 165.559 1.85129 -2.32625 0
M  V30 1715 H 163.092 0.865671 -1.2785 0
M  V30 1716 H 165.05 3.97677 -1.018 0
M  V30 1717 H 163.711 3.13404 -0.20905 0
M  V30 1718 H 162.904 4.58202 -2.09922 0
M  V30 1719 H 162.506 2.87347 -2.39391 0
M  V30 1720 H 164.798 5.90753 -3.31688 0
M  V30 1721 H 165.741 5.28788 -4.70945 0
M  V30 1722 H 166.149 4.74764 -3.05384 0
M  V30 1723 N 165.547 1.27147 0.931209 0
M  V30 1724 C 166.824 1.0401 1.65654 0
M  V30 1725 C 167.204 -0.426297 2.06751 0
M  V30 1726 O 166.552 -1.40879 1.79904 0
M  V30 1727 C 166.762 1.99834 2.86125 0
M  V30 1728 C 168.11 2.29007 3.57549 0
M  V30 1729 O 169.134 1.97779 2.96246 0
M  V30 1730 O 167.993 2.82222 4.67989 0
M  V30 1731 H 165.087 0.396239 0.725895 0
M  V30 1732 H 167.633 1.38397 0.982056 0
M  V30 1733 H 166.405 2.98744 2.52721 0
M  V30 1734 H 166.028 1.65987 3.61295 0
M  V30 1735 N 167.025 -1.13721 1.09112 0
M  V30 1736 C 167.955 -2.21148 0.749385 0
M  V30 1737 C 168.936 -1.6792 -0.271475 0
M  V30 1738 O 170.121 -1.93693 -0.140251 0
M  V30 1739 C 167.251 -3.46905 0.165659 0
M  V30 1740 C 166.205 -4.13203 1.11567 0
M  V30 1741 C 165.531 -5.33248 0.393809 0
M  V30 1742 C 166.831 -4.60912 2.45678 0
M  V30 1743 H 168.525 -2.4999 1.64758 0
M  V30 1744 H 166.071 -1.20156 0.793626 0
M  V30 1745 H 168.024 -4.21313 -0.085466 0
M  V30 1746 H 166.748 -3.17449 -0.767714 0
M  V30 1747 H 165.407 -3.40758 1.35202 0
M  V30 1748 H 165.055 -5.00054 -0.543599 0
M  V30 1749 H 164.755 -5.78552 1.02721 0
M  V30 1750 H 166.279 -6.10413 0.150908 0
M  V30 1751 H 167.693 -5.26759 2.26269 0
M  V30 1752 H 166.09 -5.16944 3.04776 0
M  V30 1753 H 167.16 -3.75603 3.06677 0
M  V30 1754 N 168.503 -0.877838 -1.30888 0
M  V30 1755 C 169.435 -0.296607 -2.27273 0
M  V30 1756 C 170.448 0.544799 -1.53414 0
M  V30 1757 O 171.637 0.365511 -1.74718 0
M  V30 1758 C 168.737 0.597481 -3.33592 0
M  V30 1759 C 167.91 -0.213251 -4.3688 0
M  V30 1760 C 166.969 0.610208 -5.2265 0
M  V30 1761 O 165.995 0.035441 -5.69189 0
M  V30 1762 N 167.197 1.92071 -5.47804 0
M  V30 1763 H 169.962 -1.12492 -2.77787 0
M  V30 1764 H 167.523 -0.740105 -1.43993 0
M  V30 1765 H 169.515 1.15425 -3.87891 0
M  V30 1766 H 168.085 1.32647 -2.83061 0
M  V30 1767 H 167.305 -0.951466 -3.82545 0
M  V30 1768 H 168.593 -0.769262 -5.02951 0
M  V30 1769 H 167.991 2.4107 -5.11763 0
M  V30 1770 H 166.548 2.42508 -6.05007 0
M  V30 1771 N 169.982 1.44106 -0.638065 0
M  V30 1772 C 170.932 2.27843 0.0847285 0
M  V30 1773 C 171.916 1.39055 0.809471 0
M  V30 1774 O 173.108 1.62808 0.694435 0
M  V30 1775 C 170.237 3.26497 1.06089 0
M  V30 1776 C 169.323 4.22772 0.33541 0
M  V30 1777 N 169.714 5.01737 -0.639787 0
M  V30 1778 C 168.012 4.42227 0.578921 0
M  V30 1779 C 168.713 5.71792 -1.06904 0
M  V30 1780 N 167.689 5.42079 -0.406395 0
M  V30 1781 H 171.491 2.86305 -0.663814 0
M  V30 1782 H 169.005 1.55627 -0.464122 0
M  V30 1783 H 171.002 3.8525 1.59337 0
M  V30 1784 H 169.662 2.69595 1.80966 0
M  V30 1785 H 170.673 5.07799 -1.01789 0
M  V30 1786 H 167.35 3.96415 1.31003 0
M  V30 1787 H 168.74 6.45205 -1.8751 0
M  V30 1788 N 171.46 0.379036 1.52974 0
M  V30 1789 C 172.708 -0.206014 2.01047 0
M  V30 1790 C 173.029 -1.48175 1.26765 0
M  V30 1791 O 172.299 -1.92085 0.384743 0
M  V30 1792 H 170.879 -0.0791184 0.742798 0
M  V30 1793 H 173.541 0.508366 1.88153 0
M  V30 1794 H 172.637 -0.423501 3.09213 0
M  V30 1795 N 172.938 -1.57226 0.108567 0
M  V30 1796 C 174.163 -1.99604 -0.563303 0
M  V30 1797 C 174.588 -0.987563 -1.6009 0
M  V30 1798 O 173.946 0.0421687 -1.81251 0
M  V30 1799 C 173.994 -3.40902 -1.17552 0
M  V30 1800 O 173.098 -3.42896 -2.2912 0
M  V30 1801 H 172.439 -0.648704 -0.1417 0
M  V30 1802 H 174.969 -2.03679 0.193961 0
M  V30 1803 H 174.979 -3.78886 -1.51357 0
M  V30 1804 H 173.654 -4.1382 -0.415445 0
M  V30 1805 H 172.231 -3.1672 -1.96832 0
M  V30 1806 N 174.416 0.165178 -1.56732 0
M  V30 1807 C 175.827 0.727046 -1.71962 0
M  V30 1808 C 176.178 1.82508 -0.720078 0
M  V30 1809 O 175.303 2.16082 0.117242 0
M  V30 1810 C 175.898 1.32559 -3.11791 0
M  V30 1811 C 174.457 1.83422 -3.28684 0
M  V30 1812 C 173.604 0.715567 -2.67908 0
M  V30 1813 H 176.555 -0.0602896 -1.58585 0
M  V30 1814 H 176.576 2.19533 -3.10782 0
M  V30 1815 H 176.088 0.526195 -3.84516 0
M  V30 1816 H 174.189 2.65986 -2.60926 0
M  V30 1817 H 174.302 1.97543 -4.36478 0
M  V30 1818 H 172.666 1.13758 -2.27884 0
M  V30 1819 H 173.449 -0.0720836 -3.43224 0
M  V30 1820 N 175.894 1.51508 0.433938 0
M  V30 1821 C 177.141 1.64345 1.18309 0
M  V30 1822 C 177.469 0.361315 1.91115 0
M  V30 1823 O 176.724 -0.654753 1.84422 0
M  V30 1824 C 177.023 2.79928 2.22205 0
M  V30 1825 C 176.689 4.19078 1.66387 0
M  V30 1826 C 175.351 4.56932 1.50887 0
M  V30 1827 C 177.703 5.05894 1.25381 0
M  V30 1828 C 175.031 5.79305 0.928608 0
M  V30 1829 C 177.383 6.2885 0.687823 0
M  V30 1830 C 176.047 6.65473 0.519755 0
M  V30 1831 H 175.317 0.601381 0.432923 0
M  V30 1832 H 177.964 1.85549 0.473676 0
M  V30 1833 H 176.269 2.52959 2.99197 0
M  V30 1834 H 177.966 2.87059 2.79997 0
M  V30 1835 H 174.556 3.89234 1.79428 0
M  V30 1836 H 178.74 4.77253 1.36175 0
M  V30 1837 H 173.996 6.06324 0.786186 0
M  V30 1838 H 178.17 6.95461 0.361581 0
M  V30 1839 H 175.797 7.6017 0.0679979 0
M  V30 1840 N 177.372 -0.689602 1.41712 0
M  V30 1841 C 178.6 -1.47827 1.44758 0
M  V30 1842 C 179.015 -1.88721 0.0545703 0
M  V30 1843 O 178.372 -1.57176 -0.927463 0
M  V30 1844 C 178.423 -2.73698 2.3616 0
M  V30 1845 O 178.144 -2.34524 3.7004 0
M  V30 1846 C 179.645 -3.67389 2.48072 0
M  V30 1847 H 176.865 -0.455357 0.49284 0
M  V30 1848 H 179.409 -0.848574 1.86063 0
M  V30 1849 H 177.564 -3.32891 1.98148 0
M  V30 1850 H 177.978 -3.15701 4.18847 0
M  V30 1851 H 179.452 -4.52475 3.16181 0
M  V30 1852 H 179.929 -4.12284 1.51388 0
M  V30 1853 H 180.535 -3.14097 2.86746 0
M  V30 1854 N 178.85 -1.27639 -0.924453 0
M  V30 1855 C 179.797 -1.10644 -2.0255 0
M  V30 1856 C 180.767 -0.00658438 -1.66099 0
M  V30 1857 O 181.952 -0.16952 -1.90045 0
M  V30 1858 C 179.092 -0.76309 -3.36557 0
M  V30 1859 C 178.205 -1.94091 -3.85944 0
M  V30 1860 C 177.34 -1.53914 -5.08413 0
M  V30 1861 C 176.379 -2.68425 -5.50104 0
M  V30 1862 N 175.516 -2.28815 -6.63768 0
M  V30 1863 H 180.356 -2.04858 -2.16419 0
M  V30 1864 H 177.893 -1.01974 -1.06017 0
M  V30 1865 H 179.851 -0.544822 -4.13627 0
M  V30 1866 H 178.481 0.142102 -3.22487 0
M  V30 1867 H 177.533 -2.27162 -3.05125 0
M  V30 1868 H 178.845 -2.7998 -4.12811 0
M  V30 1869 H 177.999 -1.28231 -5.92994 0
M  V30 1870 H 176.738 -0.651391 -4.8333 0
M  V30 1871 H 175.743 -2.94819 -4.64071 0
M  V30 1872 H 176.968 -3.57826 -5.7718 0
M  V30 1873 H 174.914 -1.42495 -6.40337 0
M  V30 1874 H 174.831 -3.08242 -6.90306 0
M  V30 1875 H 176.099 -2.06387 -7.51681 0
M  V30 1876 N 180.328 1.1314 -1.09713 0
M  V30 1877 C 181.261 2.17735 -0.683137 0
M  V30 1878 C 182.239 1.59582 0.311841 0
M  V30 1879 O 183.423 1.87298 0.212514 0
M  V30 1880 C 180.55 3.38699 -0.00684324 0
M  V30 1881 C 179.596 4.1546 -0.964102 0
M  V30 1882 S 180.429 4.74733 -2.47767 0
M  V30 1883 C 181.585 5.9904 -1.81387 0
M  V30 1884 H 181.818 2.52515 -1.56918 0
M  V30 1885 H 179.351 1.24484 -0.913404 0
M  V30 1886 H 181.309 4.08765 0.377044 0
M  V30 1887 H 179.97 3.02214 0.85589 0
M  V30 1888 H 179.163 5.02093 -0.43803 0
M  V30 1889 H 178.765 3.51066 -1.28953 0
M  V30 1890 H 181.057 6.67846 -1.13967 0
M  V30 1891 H 182 6.56261 -2.65947 0
M  V30 1892 H 182.408 5.4976 -1.28155 0
M  V30 1893 N 181.806 0.884767 1.30421 0
M  V30 1894 C 183.217 0.553656 1.78302 0
M  V30 1895 C 183.568 -0.930153 1.7275 0
M  V30 1896 O 182.693 -1.72681 1.30423 0
M  V30 1897 C 183.288 0.998234 3.2376 0
M  V30 1898 C 181.847 0.71854 3.69478 0
M  V30 1899 C 180.994 1.18132 2.50879 0
M  V30 1900 H 183.945 1.06901 1.17294 0
M  V30 1901 H 183.966 0.327118 3.79091 0
M  V30 1902 H 183.478 2.0782 3.27769 0
M  V30 1903 H 181.579 -0.349444 3.70958 0
M  V30 1904 H 181.692 1.30595 4.60958 0
M  V30 1905 H 180.056 0.600669 2.47516 0
M  V30 1906 H 180.839 2.26902 2.57624 0
M  V30 1907 N 183.284 -1.43765 0.645699 0
M  V30 1908 C 184.232 -2.32516 -0.0624849 0
M  V30 1909 C 185.226 -1.48183 -0.820855 0
M  V30 1910 O 186.432 -1.64439 -0.732106 0
M  V30 1911 H 182.807 -0.750989 -0.0389864 0
M  V30 1912 H 184.778 -2.89979 0.703892 0
M  V30 1913 C 183.527 -3.32389 -1.02044 0
M  V30 1914 H 182.85 -3.97301 -0.446312 0
M  V30 1915 H 184.29 -3.97138 -1.48517 0
M  V30 1916 C 182.749 -2.62416 -2.11281 0
M  V30 1917 O 183.279 -2.434 -3.19561 0
M  V30 1918 N 181.485 -2.21913 -1.87624 0
M  V30 1919 H 181.032 -2.37578 -0.995703 0
M  V30 1920 H 180.99 -1.75424 -2.6091 0
M  V30 1921 N 184.763 -0.387143 -1.52771 0
M  V30 1922 C 186.012 0.19697 -2.00736 0
M  V30 1923 C 186.325 1.48082 -1.27793 0
M  V30 1924 O 187.531 2.14485 -1.66458 0
M  V30 1925 C 185.987 0.401568 -3.57653 0
M  V30 1926 C 185.595 -0.868907 -4.39493 0
M  V30 1927 C 187.339 0.942164 -4.13912 0
M  V30 1928 C 185.246 -0.632705 -5.88006 0
M  V30 1929 H 184.176 0.0773827 -0.750019 0
M  V30 1930 H 186.827 -0.50921 -1.76293 0
M  V30 1931 H 185.209 1.16954 -3.78335 0
M  V30 1932 H 186.383 -1.64133 -4.30577 0
M  V30 1933 H 184.698 -1.33429 -3.94443 0
M  V30 1934 H 187.295 1.13455 -5.22525 0
M  V30 1935 H 187.638 1.9106 -3.69867 0
M  V30 1936 H 188.171 0.233814 -3.97112 0
M  V30 1937 H 184.91 -1.57208 -6.36369 0
M  V30 1938 H 184.43 0.100825 -5.99715 0
M  V30 1939 H 186.109 -0.26642 -6.46451 0
M  V30 1940 N 186.241 1.57166 -0.116904 0
M  V30 1941 C 187.487 1.95412 0.542405 0
M  V30 1942 C 187.82 1.00019 1.66463 0
M  V30 1943 O 187.095 0.0370346 1.94465 0
M  V30 1944 C 187.378 3.43615 1.07708 0
M  V30 1945 C 187.231 4.49781 -0.0415868 0
M  V30 1946 C 188.55 3.93616 1.96861 0
M  V30 1947 H 185.669 0.710543 0.195696 0
M  V30 1948 H 188.311 1.89027 -0.192038 0
M  V30 1949 H 186.461 3.49187 1.70296 0
M  V30 1950 H 188.133 4.56308 -0.676793 0
M  V30 1951 H 186.376 4.28033 -0.705019 0
M  V30 1952 H 187.047 5.50733 0.373717 0
M  V30 1953 H 189.523 3.90335 1.44146 0
M  V30 1954 H 188.399 4.97838 2.3119 0
M  V30 1955 H 188.66 3.34188 2.89432 0
M  V30 1956 N 187.719 -0.156864 1.56817 0
M  V30 1957 C 188.959 -0.877453 1.84608 0
M  V30 1958 C 189.323 -1.78791 0.699845 0
M  V30 1959 O 190.524 -2.5472 0.858553 0
M  V30 1960 C 188.795 -1.63992 3.17555 0
M  V30 1961 S 190.354 -2.40729 3.66872 0
M  V30 1962 H 187.172 -0.293612 0.647544 0
M  V30 1963 H 189.774 -0.138099 1.95012 0
M  V30 1964 H 188.478 -0.962363 3.98957 0
M  V30 1965 H 188.009 -2.42038 3.10131 0
M  V30 1966 H 190.024 -3.65725 3.3535 0
M  V30 1967 N 189.197 -1.51736 -0.425897 0
M  V30 1968 C 190.422 -1.69082 -1.20108 0
M  V30 1969 C 190.847 -0.392398 -1.83962 0
M  V30 1970 O 190.205 0.64858 -1.69302 0
M  V30 1971 C 190.253 -2.81604 -2.25237 0
M  V30 1972 O 189.357 -2.46004 -3.30992 0
M  V30 1973 H 188.698 -0.563408 -0.35138 0
M  V30 1974 H 191.228 -1.98358 -0.501512 0
M  V30 1975 H 191.238 -3.06025 -2.69838 0
M  V30 1976 H 189.913 -3.75817 -1.78142 0
M  V30 1977 H 188.49 -2.32195 -2.91787 0
M  V30 1978 N 190.675 0.682077 -1.42076 0
M  V30 1979 C 191.622 1.79578 -1.44984 0
M  V30 1980 C 192.592 1.6332 -0.302614 0
M  V30 1981 O 193.777 1.83978 -0.505633 0
M  V30 1982 C 190.917 3.1756 -1.35091 0
M  V30 1983 C 190.03 3.45156 -2.59791 0
M  V30 1984 C 189.165 4.72826 -2.42093 0
M  V30 1985 C 188.204 4.93433 -3.62202 0
M  V30 1986 N 187.341 6.12338 -3.43491 0
M  V30 1987 H 192.181 1.76427 -2.40161 0
M  V30 1988 H 189.718 0.861376 -1.19242 0
M  V30 1989 H 191.676 3.97287 -1.27354 0
M  V30 1990 H 190.306 3.19854 -0.435133 0
M  V30 1991 H 189.358 2.59736 -2.77923 0
M  V30 1992 H 190.67 3.5628 -3.49094 0
M  V30 1993 H 189.824 5.60631 -2.319 0
M  V30 1994 H 188.563 4.63973 -1.50268 0
M  V30 1995 H 187.568 4.04073 -3.72834 0
M  V30 1996 H 188.793 5.04136 -4.54998 0
M  V30 1997 H 186.739 6.04672 -2.54377 0
M  V30 1998 H 186.656 6.2429 -4.26377 0
M  V30 1999 H 187.924 7.02841 -3.37097 0
M  V30 2000 N 192.153 1.28127 0.917671 0
M  V30 2001 C 193.43 1.05761 1.64542 0
M  V30 2002 C 193.81 -0.404344 2.07191 0
M  V30 2003 O 193.158 -1.38963 1.81388 0
M  V30 2004 C 193.368 2.02857 2.83989 0
M  V30 2005 C 194.716 2.32786 3.551 0
M  V30 2006 O 195.74 2.0091 2.94132 0
M  V30 2007 O 194.599 2.87169 4.64969 0
M  V30 2008 H 191.693 0.403916 0.721652 0
M  V30 2009 H 194.239 1.39431 0.967322 0
M  V30 2010 H 193.011 3.01407 2.49538 0
M  V30 2011 H 192.634 1.69809 3.59514 0
M  V30 2012 N 193.631 -1.12557 1.10312 0
M  V30 2013 C 194.861 -1.87592 0.865617 0
M  V30 2014 C 195.269 -1.79851 -0.587389 0
M  V30 2015 O 194.612 -1.16949 -1.41664 0
M  V30 2016 C 194.674 -3.37665 1.23381 0
M  V30 2017 C 194.338 -3.69181 2.69359 0
M  V30 2018 C 195.335 -3.67652 3.67597 0
M  V30 2019 C 193.02 -3.98555 3.05711 0
M  V30 2020 C 195.014 -3.95053 5.00212 0
M  V30 2021 C 192.701 -4.25616 4.38514 0
M  V30 2022 C 193.699 -4.23851 5.35574 0
M  V30 2023 O 193.387 -4.50242 6.65986 0
M  V30 2024 H 193.119 -0.600442 0.310557 0
M  V30 2025 H 195.673 -1.4335 1.47105 0
M  V30 2026 H 193.903 -3.82454 0.571467 0
M  V30 2027 H 195.592 -3.94041 0.973994 0
M  V30 2028 H 196.358 -3.45024 3.40857 0
M  V30 2029 H 192.237 -3.99071 2.30789 0
M  V30 2030 H 195.781 -3.93591 5.75962 0
M  V30 2031 H 191.678 -4.47718 4.64994 0
M  V30 2032 H 192.446 -4.67867 6.71597 0
M  V30 2033 N 195.109 -0.891671 -1.2995 0
M  V30 2034 C 196.356 -0.513501 -1.95881 0
M  V30 2035 C 196.684 0.938655 -1.70351 0
M  V30 2036 O 195.939 1.67936 -1.00478 0
M  V30 2037 C 196.238 -0.742868 -3.49594 0
M  V30 2038 C 195.904 -2.17114 -3.95186 0
M  V30 2039 C 194.566 -2.56169 -4.07346 0
M  V30 2040 C 196.918 -3.10162 -4.18866 0
M  V30 2041 C 194.246 -3.87469 -4.4055 0
M  V30 2042 C 196.598 -4.41001 -4.53542 0
M  V30 2043 C 195.262 -4.79941 -4.63911 0
M  V30 2044 H 194.532 -0.187903 -0.71678 0
M  V30 2045 H 197.179 -1.1288 -1.54694 0
M  V30 2046 H 195.484 -0.044586 -3.91775 0
M  V30 2047 H 197.181 -0.429767 -3.9869 0
M  V30 2048 H 193.771 -1.85801 -3.86233 0
M  V30 2049 H 197.955 -2.81206 -4.08946 0
M  V30 2050 H 193.211 -4.17371 -4.46779 0
M  V30 2051 H 197.385 -5.13133 -4.70815 0
M  V30 2052 H 195.012 -5.81719 -4.89395 0
M  V30 2053 N 196.587 1.43421 -0.653314 0
M  V30 2054 C 197.833 2.02111 -0.166992 0
M  V30 2055 C 198.166 1.51423 1.21592 0
M  V30 2056 O 197.441 0.707389 1.8118 0
M  V30 2057 C 197.724 3.5966 -0.177948 0
M  V30 2058 C 197.577 4.20579 -1.59478 0
M  V30 2059 C 198.896 4.37413 0.4856 0
M  V30 2060 H 196.015 0.734374 -0.0621557 0
M  V30 2061 H 198.657 1.70717 -0.834016 0
M  V30 2062 H 196.807 3.86537 0.390032 0
M  V30 2063 H 198.479 4.04732 -2.21336 0
M  V30 2064 H 196.722 3.77226 -2.14204 0
M  V30 2065 H 197.393 5.29665 -1.5543 0
M  V30 2066 H 199.869 4.161 0.00234528 0
M  V30 2067 H 198.745 5.47075 0.447207 0
M  V30 2068 H 199.006 4.13672 1.55974 0
M  V30 2069 N 198.065 0.39524 1.52563 0
M  V30 2070 C 199.293 -0.184943 2.06072 0
M  V30 2071 C 199.708 -1.40021 1.26647 0
M  V30 2072 O 199.065 -1.79767 0.314672 0
M  V30 2073 C 199.116 -0.549179 3.57304 0
M  V30 2074 O 198.837 0.617813 4.33722 0
M  V30 2075 C 200.338 -1.18459 4.2718 0
M  V30 2076 H 197.558 -0.0265025 0.670476 0
M  V30 2077 H 200.102 0.562184 1.96621 0
M  V30 2078 H 198.257 -1.2462 3.66809 0
M  V30 2079 H 198.671 0.317091 5.23541 0
M  V30 2080 H 200.145 -1.38976 5.34219 0
M  V30 2081 H 200.622 -2.15368 3.82771 0
M  V30 2082 H 201.228 -0.528163 4.22008 0
M  V30 2083 N 199.544 -1.57102 0.125237 0
M  V30 2084 C 200.507 -2.14471 -0.80838 0
M  V30 2085 C 201.507 -1.0811 -1.19033 0
M  V30 2086 O 202.697 -1.33856 -1.11482 0
M  V30 2087 C 199.829 -2.69005 -2.09402 0
M  V30 2088 H 201.022 -2.98297 -0.309696 0
M  V30 2089 H 198.575 -1.55807 -0.124051 0
M  V30 2090 H 199.31 -1.88785 -2.63687 0
M  V30 2091 H 199.095 -3.46799 -1.82957 0
M  V30 2092 H 200.585 -3.13278 -2.76128 0
M  V30 2093 N 201.022 0.148545 -1.56898 0
M  V30 2094 C 201.97 1.20265 -1.99096 0
M  V30 2095 C 202.964 1.44559 -0.883123 0
M  V30 2096 O 204.17 1.4487 -1.0683 0
M  V30 2097 H 200.545 0.404786 -0.63376 0
M  V30 2098 H 202.516 0.82004 -2.86911 0
M  V30 2099 C 201.265 2.52886 -2.3863 0
M  V30 2100 H 200.588 2.35021 -3.23427 0
M  V30 2101 H 202.028 3.25274 -2.7198 0
M  V30 2102 C 200.487 3.13315 -1.23837 0
M  V30 2103 O 201.017 3.98077 -0.538268 0
M  V30 2104 N 199.223 2.72742 -1.00301 0
M  V30 2105 H 198.77 2.03912 -1.5741 0
M  V30 2106 H 198.728 3.13507 -0.236838 0
M  V30 2107 N 202.5 1.5196 0.417844 0
M  V30 2108 C 203.725 1.69717 1.1921 0
M  V30 2109 C 204.15 0.402148 1.83751 0
M  V30 2110 O 203.508 -0.639593 1.69643 0
M  V30 2111 C 203.556 2.82794 2.2374 0
M  V30 2112 O 202.66 2.47756 3.29683 0
M  V30 2113 H 202.001 0.565263 0.348387 0
M  V30 2114 H 204.531 1.98621 0.490985 0
M  V30 2115 H 204.541 3.07452 2.68212 0
M  V30 2116 H 203.216 3.76756 1.76146 0
M  V30 2117 H 201.793 2.33739 2.90552 0
M  V30 2118 N 203.978 -0.674533 1.42435 0
M  V30 2119 C 204.926 -1.80934 1.46169 0
M  V30 2120 C 205.92 -1.66006 0.3374 0
M  V30 2121 O 207.126 -1.72611 0.510425 0
M  V30 2122 H 203.501 -0.596594 0.457798 0
M  V30 2123 H 205.472 -1.74903 2.41767 0
M  V30 2124 C 204.221 -3.19088 1.38123 0
M  V30 2125 H 203.544 -3.31203 2.23931 0
M  V30 2126 H 204.984 -3.9851 1.44797 0
M  V30 2127 C 203.443 -3.36763 0.0960517 0
M  V30 2128 O 203.973 -3.92581 -0.851073 0
M  V30 2129 N 202.179 -2.90597 0.0131186 0
M  V30 2130 H 201.726 -2.45359 0.784639 0
M  V30 2131 H 201.684 -3.028 -0.846133 0
M  V30 2132 N 205.456 -1.28612 -0.910864 0
M  V30 2133 C 206.386 -1.15326 -2.03032 0
M  V30 2134 C 207.367 -0.0502924 -1.70026 0
M  V30 2135 O 208.552 -0.227797 -1.92859 0
M  V30 2136 C 205.682 -0.817343 -3.37545 0
M  V30 2137 C 204.636 -1.8754 -3.84724 0
M  V30 2138 C 203.962 -1.39305 -5.16235 0
M  V30 2139 C 205.262 -3.28244 -4.06267 0
M  V30 2140 H 206.956 -2.08975 -2.14406 0
M  V30 2141 H 204.502 -1.00612 -1.03021 0
M  V30 2142 H 206.455 -0.711151 -4.15356 0
M  V30 2143 H 205.179 0.154846 -3.26233 0
M  V30 2144 H 203.838 -1.97079 -3.09121 0
M  V30 2145 H 203.486 -0.409846 -5.01328 0
M  V30 2146 H 203.186 -2.10057 -5.48771 0
M  V30 2147 H 204.71 -1.30014 -5.96598 0
M  V30 2148 H 206.124 -3.21611 -4.74594 0
M  V30 2149 H 204.521 -3.96855 -4.5014 0
M  V30 2150 H 205.591 -3.72048 -3.10979 0
M  V30 2151 N 206.934 1.1197 -1.10907 0
M  V30 2152 C 208.18 1.8386 -0.855773 0
M  V30 2153 C 208.513 1.84134 0.617103 0
M  V30 2154 O 207.788 1.29041 1.45529 0
M  V30 2155 C 208.071 3.31305 -1.411 0
M  V30 2156 C 207.924 3.39456 -2.9511 0
M  V30 2157 C 209.243 4.2721 -1.05736 0
M  V30 2158 H 206.362 0.667545 -0.312334 0
M  V30 2159 H 209.004 1.31331 -1.37303 0
M  V30 2160 H 207.154 3.76169 -0.97105 0
M  V30 2161 H 208.826 3.03191 -3.47668 0
M  V30 2162 H 207.069 2.79849 -3.31462 0
M  V30 2163 H 207.74 4.43209 -3.29044 0
M  V30 2164 H 210.216 3.90497 -1.43706 0
M  V30 2165 H 209.092 5.28775 -1.47269 0
M  V30 2166 H 209.353 4.42088 0.0325958 0
M  V30 2167 N 208.412 0.89855 1.29475 0
M  V30 2168 C 209.661 0.519863 1.94885 0
M  V30 2169 C 209.974 -0.9383 1.71625 0
M  V30 2170 O 211.18 -1.42445 2.31131 0
M  V30 2171 C 209.636 0.878836 3.49005 0
M  V30 2172 C 209.244 2.35569 3.81066 0
M  V30 2173 C 210.988 0.570004 4.20656 0
M  V30 2174 C 208.895 2.65558 5.28425 0
M  V30 2175 H 207.825 0.190692 0.729488 0
M  V30 2176 H 210.476 1.09539 1.47219 0
M  V30 2177 H 208.858 0.232253 3.95318 0
M  V30 2178 H 210.032 3.04773 3.45616 0
M  V30 2179 H 208.347 2.63343 3.22552 0
M  V30 2180 H 210.944 0.770925 5.29113 0
M  V30 2181 H 211.287 -0.491404 4.1339 0
M  V30 2182 H 211.82 1.17438 3.8007 0
M  V30 2183 H 208.559 3.70493 5.40754 0
M  V30 2184 H 208.079 2.00977 5.65127 0
M  V30 2185 H 209.758 2.51765 5.96006 0
M  V30 2186 N 209.89 -1.43072 0.660911 0
M  V30 2187 C 211.139 -2.00942 0.174735 0
M  V30 2188 C 211.452 -1.52797 -1.22117 0
M  V30 2189 O 212.658 -2.02991 -1.80297 0
M  V30 2190 C 211.114 -3.58948 0.261559 0
M  V30 2191 C 210.722 -4.16085 1.66064 0
M  V30 2192 C 212.466 -4.24173 -0.166617 0
M  V30 2193 C 210.373 -5.6641 1.70098 0
M  V30 2194 H 209.303 -0.751483 0.0615631 0
M  V30 2195 H 211.954 -1.63955 0.824069 0
M  V30 2196 H 210.336 -3.93372 -0.455421 0
M  V30 2197 H 211.51 -3.93147 2.40359 0
M  V30 2198 H 209.825 -3.6326 2.03546 0
M  V30 2199 H 212.422 -5.34471 -0.156433 0
M  V30 2200 H 212.765 -3.98647 -1.19943 0
M  V30 2201 H 213.298 -3.94659 0.498875 0
M  V30 2202 H 210.037 -5.96715 2.71315 0
M  V30 2203 H 209.557 -5.91382 1.00139 0
M  V30 2204 H 211.236 -6.30585 1.44816 0
M  V30 2205 N 211.368 -0.403325 -1.52352 0
M  V30 2206 C 212.596 0.174012 -2.06167 0
M  V30 2207 C 213.011 1.39347 -1.27388 0
M  V30 2208 O 212.368 1.79597 -0.324201 0
M  V30 2209 C 212.419 0.530223 -3.5759 0
M  V30 2210 O 212.14 -0.640806 -4.33388 0
M  V30 2211 C 213.641 1.16192 -4.27802 0
M  V30 2212 H 210.861 0.0229464 -0.670608 0
M  V30 2213 H 213.405 -0.572604 -1.9632 0
M  V30 2214 H 211.56 1.22673 -3.67464 0
M  V30 2215 H 211.974 -0.344851 -5.23365 0
M  V30 2216 H 213.448 1.36141 -5.34948 0
M  V30 2217 H 213.925 2.13335 -3.83907 0
M  V30 2218 H 214.531 0.505775 -4.22282 0
M  V30 2219 N 212.846 1.57033 -0.133567 0
M  V30 2220 C 213.809 2.14897 0.796995 0
M  V30 2221 C 214.809 1.0874 1.18458 0
M  V30 2222 O 215.999 1.34446 1.1077 0
M  V30 2223 C 213.131 2.70112 2.07973 0
M  V30 2224 H 214.324 2.98457 0.293873 0
M  V30 2225 H 211.877 1.55871 0.115787 0
M  V30 2226 H 212.612 1.9018 2.62682 0
M  V30 2227 H 212.397 3.47764 1.81115 0
M  V30 2228 H 213.887 3.14738 2.74462 0
M  V30 2229 N 214.325 -0.140222 1.56975 0
M  V30 2230 C 215.573 -0.850005 1.83356 0
M  V30 2231 C 215.894 -1.81399 0.71551 0
M  V30 2232 O 215.164 -1.94136 -0.262294 0
M  V30 2233 H 213.744 -0.316886 0.676456 0
M  V30 2234 H 216.406 -0.132608 1.94448 0
M  V30 2235 H 215.502 -1.40814 2.78528 0
M  V30 2236 N 215.803 -1.52179 -0.40978 0
M  V30 2237 C 216.766 -1.74853 -1.48186 0
M  V30 2238 C 217.766 -0.618417 -1.48433 0
M  V30 2239 O 218.956 -0.886286 -1.49969 0
M  V30 2240 C 216.088 -1.8303 -2.87598 0
M  V30 2241 H 217.281 -2.70559 -1.29374 0
M  V30 2242 H 214.834 -1.42586 -0.640233 0
M  V30 2243 H 215.569 -0.89236 -3.11781 0
M  V30 2244 H 215.354 -2.65187 -2.88822 0
M  V30 2245 H 216.844 -2.02316 -3.65319 0
M  V30 2246 N 217.281 0.66697 -1.42791 0
M  V30 2247 C 218.697 0.981027 -1.25889 0
M  V30 2248 C 218.897 2.00793 -0.168695 0
M  V30 2249 O 217.953 2.48321 0.45747 0
M  V30 2250 C 219.266 1.47838 -2.61848 0
M  V30 2251 C 220.814 1.59575 -2.69267 0
M  V30 2252 C 221.289 2.12704 -4.05612 0
M  V30 2253 N 222.78 2.20026 -4.07606 0
M  V30 2254 C 223.515 2.62227 -5.09926 0
M  V30 2255 N 223.011 3.03824 -6.22626 0
M  V30 2256 N 224.804 2.62045 -4.97281 0
M  V30 2257 H 216.955 -0.0127891 -2.12396 0
M  V30 2258 H 219.218 0.0568258 -0.946295 0
M  V30 2259 H 218.924 0.798299 -3.4252 0
M  V30 2260 H 218.798 2.45579 -2.86305 0
M  V30 2261 H 221.185 2.26687 -1.88936 0
M  V30 2262 H 221.266 0.60302 -2.48591 0
M  V30 2263 H 220.91 1.46198 -4.86404 0
M  V30 2264 H 220.84 3.12782 -4.23645 0
M  V30 2265 H 223.331 1.90708 -3.2625 0
M  V30 2266 H 223.644 3.34734 -6.96544 0
M  V30 2267 H 221.989 3.01662 -6.26119 0
M  V30 2268 H 225.18 2.28916 -4.08308 0
M  V30 2269 H 225.353 2.94613 -5.77154 0
M  V30 2270 N 218.759 1.29093 0.90403 0
M  V30 2271 C 219.691 1.09658 2.01266 0
M  V30 2272 C 220.704 0.0453729 1.62737 0
M  V30 2273 O 221.893 0.289446 1.76138 0
M  V30 2274 C 218.993 0.646278 3.32681 0
M  V30 2275 C 218.166 1.77505 3.99763 0
M  V30 2276 C 217.225 1.31649 5.09465 0
M  V30 2277 O 216.251 2.02045 5.32134 0
M  V30 2278 N 217.453 0.184997 5.80205 0
M  V30 2279 H 220.218 2.05135 2.18494 0
M  V30 2280 H 217.779 1.20975 1.07594 0
M  V30 2281 H 219.771 0.322906 4.0341 0
M  V30 2282 H 218.341 -0.215916 3.11853 0
M  V30 2283 H 217.561 2.26752 3.22455 0
M  V30 2284 H 218.849 2.53198 4.41325 0
M  V30 2285 H 218.247 -0.402021 5.6427 0
M  V30 2286 H 216.804 -0.0790358 6.51752 0
M  V30 2287 N 220.237 -1.11381 1.11499 0
M  V30 2288 C 221.147 -2.21019 0.786628 0
M  V30 2289 C 222.163 -1.72597 -0.220507 0
M  V30 2290 O 223.339 -2.01321 -0.0565251 0
M  V30 2291 C 220.404 -3.459 0.235333 0
M  V30 2292 C 219.465 -4.09107 1.30115 0
M  V30 2293 C 218.698 -5.28027 0.776068 0
M  V30 2294 O 218.921 -5.6904 -0.393661 0
M  V30 2295 O 217.855 -5.81835 1.54114 0
M  V30 2296 H 221.681 -2.51521 1.70209 0
M  V30 2297 H 219.266 -1.19928 0.890928 0
M  V30 2298 H 221.148 -4.21346 -0.067715 0
M  V30 2299 H 219.823 -3.17049 -0.652828 0
M  V30 2300 H 218.73 -3.35391 1.65722 0
M  V30 2301 H 220.063 -4.42139 2.16273 0
M  V30 2302 N 221.715 -0.905404 -1.28997 0
M  V30 2303 C 222.662 -0.385892 -2.27551 0
M  V30 2304 C 223.632 0.535113 -1.57244 0
M  V30 2305 O 224.817 0.459119 -1.85194 0
M  V30 2306 C 221.957 0.375461 -3.43051 0
M  V30 2307 C 221.07 -0.577092 -4.28128 0
M  V30 2308 C 220.205 0.201879 -5.30816 0
M  V30 2309 C 219.244 -0.744829 -6.07551 0
M  V30 2310 N 218.381 9.42587e-05 -7.021 0
M  V30 2311 H 223.221 -1.23139 -2.71368 0
M  V30 2312 H 220.758 -0.618542 -1.33463 0
M  V30 2313 H 222.716 0.832992 -4.088 0
M  V30 2314 H 221.346 1.18537 -3.00248 0
M  V30 2315 H 220.398 -1.15315 -3.62501 0
M  V30 2316 H 221.71 -1.30152 -4.8152 0
M  V30 2317 H 220.864 0.720351 -6.02408 0
M  V30 2318 H 219.603 0.959413 -4.7817 0
M  V30 2319 H 218.608 -1.27475 -5.34818 0
M  V30 2320 H 219.833 -1.50178 -6.62286 0
M  V30 2321 H 217.779 0.739791 -6.51815 0
M  V30 2322 H 217.696 -0.664321 -7.53076 0
M  V30 2323 H 218.964 0.498644 -7.77903 0
M  V30 2324 N 223.193 1.4272 -0.668489 0
M  V30 2325 C 224.441 2.01226 -0.187769 0
M  V30 2326 C 224.762 1.53092 1.2078 0
M  V30 2327 O 224.032 0.74993 1.80977 0
M  V30 2328 H 222.612 0.744041 -0.0664272 0
M  V30 2329 H 225.274 1.74723 -0.863583 0
M  V30 2330 H 224.37 3.11556 -0.184166 0
M  V30 2331 N 224.671 0.411399 1.52136 0
M  V30 2332 C 225.581 -0.419774 2.30814 0
M  V30 2333 C 226.597 -1.0515 1.38634 0
M  V30 2334 O 227.773 -1.05252 1.71709 0
M  V30 2335 C 224.838 -1.52019 3.11594 0
M  V30 2336 C 223.899 -0.91129 4.19516 0
M  V30 2337 C 223.132 -1.95927 4.96436 0
M  V30 2338 O 223.355 -3.17775 4.73683 0
M  V30 2339 O 222.289 -1.56423 5.81219 0
M  V30 2340 H 226.115 0.221805 3.02889 0
M  V30 2341 H 223.7 0.174547 1.48377 0
M  V30 2342 H 225.582 -2.15898 3.61892 0
M  V30 2343 H 224.257 -2.14633 2.42311 0
M  V30 2344 H 223.164 -0.235157 3.7336 0
M  V30 2345 H 224.497 -0.32904 4.91099 0
M  V30 2346 N 226.149 -1.5696 0.141893 0
M  V30 2347 C 227.377 -2.00322 -0.517579 0
M  V30 2348 C 227.792 -1.02193 -1.58752 0
M  V30 2349 O 227.149 -0.0181619 -1.82491 0
M  V30 2350 C 227.2 -3.43618 -1.12289 0
M  V30 2351 O 226.921 -4.37995 -0.0956929 0
M  V30 2352 C 228.422 -4.02231 -1.86347 0
M  V30 2353 H 225.642 -0.657243 -0.135177 0
M  V30 2354 H 228.186 -2.03146 0.234973 0
M  V30 2355 H 226.341 -3.41662 -1.82609 0
M  V30 2356 H 226.755 -5.21729 -0.538469 0
M  V30 2357 H 228.229 -5.04509 -2.23997 0
M  V30 2358 H 228.706 -3.42655 -2.74744 0
M  V30 2359 H 229.312 -4.07802 -1.20737 0
M  V30 2360 N 227.627 0.131896 -1.57047 0
M  V30 2361 C 229.043 0.485031 -1.52051 0
M  V30 2362 C 229.243 1.82563 -0.85281 0
M  V30 2363 O 228.299 2.48817 -0.429694 0
M  V30 2364 C 229.612 0.481409 -2.96821 0
M  V30 2365 C 231.16 0.565868 -3.07842 0
M  V30 2366 C 231.635 0.592762 -4.54148 0
M  V30 2367 N 233.126 0.654564 -4.58552 0
M  V30 2368 C 233.861 0.696608 -5.69153 0
M  V30 2369 N 233.357 0.697078 -6.89284 0
M  V30 2370 N 235.15 0.738639 -5.57226 0
M  V30 2371 H 227.301 -0.746664 -1.98843 0
M  V30 2372 H 229.564 -0.273999 -0.90754 0
M  V30 2373 H 229.27 -0.435731 -3.4899 0
M  V30 2374 H 229.144 1.3139 -3.53577 0
M  V30 2375 H 231.531 1.47343 -2.55684 0
M  V30 2376 H 231.612 -0.29406 -2.54104 0
M  V30 2377 H 231.256 -0.310701 -5.06949 0
M  V30 2378 H 231.186 1.46939 -5.05684 0
M  V30 2379 H 233.677 0.660887 -3.72076 0
M  V30 2380 H 233.99 0.731426 -7.69331 0
M  V30 2381 H 232.335 0.66471 -6.91814 0
M  V30 2382 H 235.526 0.735545 -4.62285 0
M  V30 2383 H 235.699 0.767938 -6.43434 0
M  V30 2384 N 229.106 1.52395 0.401703 0
M  V30 2385 C 230.036 1.79231 1.49661 0
M  V30 2386 C 231.017 0.643654 1.57452 0
M  V30 2387 O 232.202 0.889989 1.72606 0
M  V30 2388 C 229.332 1.94971 2.87409 0
M  V30 2389 C 228.286 3.10604 2.94465 0
M  V30 2390 C 227.612 3.11577 4.34538 0
M  V30 2391 C 228.912 4.49921 2.6527 0
M  V30 2392 H 230.606 2.70917 1.27454 0
M  V30 2393 H 228.152 1.30362 0.6117 0
M  V30 2394 H 230.105 2.12328 3.63999 0
M  V30 2395 H 228.829 0.999632 3.10926 0
M  V30 2396 H 227.488 2.93009 2.20321 0
M  V30 2397 H 227.136 2.14277 4.55076 0
M  V30 2398 H 226.836 3.89247 4.40183 0
M  V30 2399 H 228.36 3.31073 5.13053 0
M  V30 2400 H 229.774 4.67683 3.31581 0
M  V30 2401 H 228.171 5.29564 2.82281 0
M  V30 2402 H 229.241 4.57507 1.60671 0
M  V30 2403 N 230.584 -0.659388 1.43143 0
M  V30 2404 C 231.532 -1.79374 1.4808 0
M  V30 2405 C 232.526 -1.65639 0.354988 0
M  V30 2406 O 233.732 -1.7206 0.528704 0
M  V30 2407 H 230.107 -0.591705 0.4641 0
M  V30 2408 H 232.078 -1.72329 2.43609 0
M  V30 2409 C 230.827 -3.17606 1.41499 0
M  V30 2410 H 230.15 -3.28809 2.27431 0
M  V30 2411 H 231.59 -3.96951 1.49015 0
M  V30 2412 C 230.049 -3.36642 0.131765 0
M  V30 2413 O 230.579 -3.93461 -0.809386 0
M  V30 2414 N 228.785 -2.90567 0.0439396 0
M  V30 2415 H 228.332 -2.44513 0.810619 0
M  V30 2416 H 228.29 -3.03681 -0.813969 0
M  V30 2417 N 232.062 -1.29571 -0.897171 0
M  V30 2418 C 232.992 -1.17473 -2.01798 0
M  V30 2419 C 233.973 -0.068323 -1.69963 0
M  V30 2420 O 235.158 -0.248239 -1.92607 0
M  V30 2421 C 232.288 -0.853099 -3.36659 0
M  V30 2422 C 231.242 -1.9161 -3.82713 0
M  V30 2423 C 230.568 -1.44773 -5.14728 0
M  V30 2424 C 231.868 -3.32535 -4.02763 0
M  V30 2425 H 233.562 -2.11237 -2.12177 0
M  V30 2426 H 231.108 -1.01699 -1.01948 0
M  V30 2427 H 233.061 -0.755165 -4.14578 0
M  V30 2428 H 231.785 0.120236 -3.26379 0
M  V30 2429 H 230.444 -2.00346 -3.07013 0
M  V30 2430 H 230.092 -0.462995 -5.00865 0
M  V30 2431 H 229.792 -2.15865 -5.46513 0
M  V30 2432 H 231.316 -1.36334 -5.95185 0
M  V30 2433 H 232.73 -3.26626 -4.71156 0
M  V30 2434 H 231.127 -4.01607 -4.45905 0
M  V30 2435 H 232.197 -3.75326 -3.07016 0
M  V30 2436 N 233.54 1.10788 -1.12088 0
M  V30 2437 C 234.786 1.82942 -0.875226 0
M  V30 2438 C 235.119 1.84779 0.597538 0
M  V30 2439 O 234.394 1.30578 1.44152 0
M  V30 2440 C 234.677 3.29789 -1.44606 0
M  V30 2441 C 234.53 3.36307 -2.98693 0
M  V30 2442 C 235.849 4.26064 -1.10261 0
M  V30 2443 H 232.968 0.664195 -0.319397 0
M  V30 2444 H 235.61 1.29867 -1.38689 0
M  V30 2445 H 233.76 3.75118 -1.01089 0
M  V30 2446 H 235.432 2.99487 -3.50864 0
M  V30 2447 H 233.675 2.76318 -3.34411 0
M  V30 2448 H 234.346 4.39694 -3.33726 0
M  V30 2449 H 236.822 3.88951 -1.4784 0
M  V30 2450 H 235.698 5.27183 -1.52869 0
M  V30 2451 H 235.959 4.42098 -0.0142953 0
M  V30 2452 N 235.018 0.912232 1.28515 0
M  V30 2453 C 235.95 0.35676 2.26406 0
M  V30 2454 C 236.963 -0.503933 1.54804 0
M  V30 2455 O 238.152 -0.319059 1.75625 0
M  V30 2456 C 235.252 -0.508825 3.35058 0
M  V30 2457 C 234.425 0.329007 4.36161 0
M  V30 2458 C 233.484 -0.471422 5.24084 0
M  V30 2459 O 232.51 0.115482 5.69083 0
M  V30 2460 N 233.712 -1.77479 5.52704 0
M  V30 2461 H 236.477 1.19818 2.74707 0
M  V30 2462 H 234.038 0.778022 1.4198 0
M  V30 2463 H 236.03 -1.051 3.90815 0
M  V30 2464 H 234.6 -1.25095 2.86478 0
M  V30 2465 H 233.82 1.05256 3.79888 0
M  V30 2466 H 235.108 0.90234 5.00735 0
M  V30 2467 H 234.506 -2.27417 5.17975 0
M  V30 2468 H 233.063 -2.26382 6.11224 0
M  V30 2469 N 236.496 -1.42363 0.676048 0
M  V30 2470 C 237.912 -1.55811 0.345718 0
M  V30 2471 C 238.112 -1.65544 -1.14879 0
M  V30 2472 O 237.168 -1.62306 -1.93424 0
M  V30 2473 C 238.481 -2.80746 1.07713 0
M  V30 2474 C 240.029 -2.9452 1.05958 0
M  V30 2475 C 240.504 -4.22318 1.77233 0
M  V30 2476 N 241.995 -4.29233 1.74108 0
M  V30 2477 C 242.73 -5.26935 2.26113 0
M  V30 2478 N 242.226 -6.30783 2.86505 0
M  V30 2479 N 244.019 -5.18741 2.1648 0
M  V30 2480 H 236.17 -1.34289 1.6456 0
M  V30 2481 H 238.433 -0.646506 0.69335 0
M  V30 2482 H 238.139 -2.79696 2.13221 0
M  V30 2483 H 238.013 -3.71676 0.64316 0
M  V30 2484 H 240.4 -2.95097 0.0128255 0
M  V30 2485 H 240.481 -2.04817 1.53244 0
M  V30 2486 H 240.125 -4.22502 2.81877 0
M  V30 2487 H 240.055 -5.10958 1.27396 0
M  V30 2488 H 242.546 -3.54814 1.30059 0
M  V30 2489 H 242.859 -7.01691 3.23805 0
M  V30 2490 H 241.204 -6.31341 2.90575 0
M  V30 2491 H 244.395 -4.36533 1.68987 0
M  V30 2492 H 244.568 -5.94721 2.57316 0
M  V30 2493 N 237.974 -0.419461 -1.51915 0
M  V30 2494 C 238.922 0.415502 -2.28859 0
M  V30 2495 C 239.916 1.03674 -1.3397 0
M  V30 2496 O 241.122 0.973757 -1.51387 0
M  V30 2497 H 237.497 0.152786 -0.736315 0
M  V30 2498 H 239.468 -0.254531 -2.97312 0
M  V30 2499 C 238.217 1.51425 -3.12995 0
M  V30 2500 H 237.54 1.04556 -3.85886 0
M  V30 2501 H 238.98 2.07208 -3.6992 0
M  V30 2502 C 237.439 2.48745 -2.27217 0
M  V30 2503 O 237.969 3.52871 -1.9195 0
M  V30 2504 N 236.175 2.19202 -1.90785 0
M  V30 2505 H 235.722 1.34556 -2.19664 0
M  V30 2506 H 235.68 2.84561 -1.33687 0
M  V30 2507 N 239.452 1.56882 -0.150215 0
M  V30 2508 C 240.698 1.96518 0.500834 0
M  V30 2509 C 241.031 1.03527 1.64304 0
M  V30 2510 O 240.306 0.0782751 1.94342 0
M  V30 2511 C 240.589 3.45822 1.00395 0
M  V30 2512 C 240.442 4.49591 -0.136983 0
M  V30 2513 C 241.761 3.97704 1.88467 0
M  V30 2514 H 238.88 0.714535 0.18058 0
M  V30 2515 H 241.522 1.88577 -0.232091 0
M  V30 2516 H 239.672 3.5272 1.62851 0
M  V30 2517 H 241.344 4.5477 -0.77343 0
M  V30 2518 H 239.587 4.26441 -0.795652 0
M  V30 2519 H 240.258 5.51402 0.256815 0
M  V30 2520 H 242.734 3.93304 1.35834 0
M  V30 2521 H 241.61 5.0263 2.20578 0
M  V30 2522 H 241.871 3.40252 2.82279 0
M  V30 2523 N 240.93 -0.123565 1.57115 0
M  V30 2524 C 241.893 -1.13583 1.99076 0
M  V30 2525 C 242.893 -1.34564 0.880296 0
M  V30 2526 O 244.083 -1.31158 1.14644 0
M  V30 2527 C 241.215 -2.49128 2.32698 0
M  V30 2528 H 242.408 -0.775287 2.89706 0
M  V30 2529 H 239.961 -0.36771 1.51913 0
M  V30 2530 H 240.696 -2.90111 1.44934 0
M  V30 2531 H 240.481 -2.35255 3.13684 0
M  V30 2532 H 241.971 -3.2199 2.65918 0
M  V30 2533 N 242.408 -1.52605 -0.393616 0
M  V30 2534 C 243.657 -1.66649 -1.13627 0
M  V30 2535 C 243.97 -0.410364 -1.91247 0
M  V30 2536 O 245.176 -0.430854 -2.68059 0
M  V30 2537 C 243.632 -2.9449 -2.06891 0
M  V30 2538 C 243.24 -4.27266 -1.34714 0
M  V30 2539 C 244.984 -3.17899 -2.81319 0
M  V30 2540 C 242.891 -5.46217 -2.26717 0
M  V30 2541 H 241.821 -0.62084 -0.427871 0
M  V30 2542 H 244.472 -1.791 -0.399428 0
M  V30 2543 H 242.854 -2.75774 -2.84191 0
M  V30 2544 H 244.028 -4.56518 -0.626714 0
M  V30 2545 H 242.343 -4.10081 -0.722643 0
M  V30 2546 H 244.94 -4.03949 -3.50328 0
M  V30 2547 H 245.283 -2.32777 -3.45139 0
M  V30 2548 H 245.816 -3.37159 -2.11113 0
M  V30 2549 H 242.555 -6.33733 -1.67521 0
M  V30 2550 H 242.075 -5.21283 -2.96689 0
M  V30 2551 H 243.754 -5.7991 -2.86903 0
M  V30 2552 N 243.887 0.651787 -1.4349 0
M  V30 2553 C 245.134 1.41167 -1.45183 0
M  V30 2554 C 245.462 1.94349 -0.0766601 0
M  V30 2555 O 244.717 1.72804 0.918555 0
M  V30 2556 C 245.016 2.60914 -2.44251 0
M  V30 2557 C 244.682 2.26142 -3.9009 0
M  V30 2558 C 243.344 2.16371 -4.2981 0
M  V30 2559 C 245.696 1.98334 -4.81989 0
M  V30 2560 C 243.024 1.7695 -5.5938 0
M  V30 2561 C 245.376 1.6041 -6.11924 0
M  V30 2562 C 244.04 1.49166 -6.5062 0
M  V30 2563 H 243.31 0.516566 -0.531263 0
M  V30 2564 H 245.957 0.741099 -1.76579 0
M  V30 2565 H 244.262 3.3311 -2.06265 0
M  V30 2566 H 245.959 3.19127 -2.42815 0
M  V30 2567 H 242.549 2.34658 -3.58655 0
M  V30 2568 H 246.733 2.04803 -4.52072 0
M  V30 2569 H 241.989 1.66831 -5.88198 0
M  V30 2570 H 246.163 1.37925 -6.82605 0
M  V30 2571 H 243.79 1.1839 -7.50925 0
M  V30 2572 N 245.365 1.30045 0.890287 0
M  V30 2573 C 246.312 1.15976 1.99545 0
M  V30 2574 C 247.282 0.0506202 1.66023 0
M  V30 2575 O 248.467 0.219847 1.89529 0
M  V30 2576 C 245.607 0.852054 3.34416 0
M  V30 2577 C 244.72 2.04255 3.80662 0
M  V30 2578 C 243.855 1.6734 5.04154 0
M  V30 2579 C 242.894 2.82916 5.42794 0
M  V30 2580 N 242.031 2.46333 6.57468 0
M  V30 2581 H 246.871 2.10524 2.10911 0
M  V30 2582 H 244.408 1.04749 1.03276 0
M  V30 2583 H 246.366 0.654296 4.12037 0
M  V30 2584 H 244.996 -0.0565502 3.2275 0
M  V30 2585 H 244.048 2.35172 2.98995 0
M  V30 2586 H 245.36 2.90826 4.05242 0
M  V30 2587 H 244.514 1.43908 5.89386 0
M  V30 2588 H 243.253 0.779308 4.81433 0
M  V30 2589 H 242.258 3.0702 4.56091 0
M  V30 2590 H 243.483 3.73004 5.6749 0
M  V30 2591 H 241.429 1.59423 6.36334 0
M  V30 2592 H 241.346 3.26436 6.81891 0
M  V30 2593 H 242.614 2.26244 7.45945 0
M  V30 2594 N 246.843 -1.10192 1.12674 0
M  V30 2595 C 247.773 -2.18652 0.819362 0
M  V30 2596 C 248.754 -1.68698 -0.217915 0
M  V30 2597 O 249.939 -1.94041 -0.0785581 0
M  V30 2598 C 247.069 -3.46202 0.27594 0
M  V30 2599 C 246.023 -4.09444 1.24656 0
M  V30 2600 C 245.349 -5.31725 0.563258 0
M  V30 2601 C 246.649 -4.52863 2.60217 0
M  V30 2602 H 248.343 -2.44622 1.72628 0
M  V30 2603 H 245.889 -1.17571 0.831451 0
M  V30 2604 H 247.842 -4.21372 0.0486149 0
M  V30 2605 H 246.566 -3.1973 -0.666331 0
M  V30 2606 H 245.225 -3.36284 1.45974 0
M  V30 2607 H 244.873 -5.0153 -0.384235 0
M  V30 2608 H 244.573 -5.74991 1.21075 0
M  V30 2609 H 246.097 -6.09624 0.34503 0
M  V30 2610 H 247.511 -5.19294 2.42913 0
M  V30 2611 H 245.908 -5.06986 3.21068 0
M  V30 2612 H 246.978 -3.65656 3.18471 0
M  V30 2613 N 248.321 -0.919034 -1.28029 0
M  V30 2614 C 249.254 -0.355887 -2.25408 0
M  V30 2615 C 250.232 0.542874 -1.5327 0
M  V30 2616 O 251.416 0.485338 -1.82145 0
M  V30 2617 C 248.543 0.490759 -3.35126 0
M  V30 2618 C 247.589 -0.343358 -4.25116 0
M  V30 2619 S 248.422 -1.75344 -5.05979 0
M  V30 2620 C 249.578 -0.914244 -6.19187 0
M  V30 2621 H 249.811 -1.18123 -2.72826 0
M  V30 2622 H 247.344 -0.720636 -1.36551 0
M  V30 2623 H 249.302 0.973404 -3.98792 0
M  V30 2624 H 247.963 1.29054 -2.86363 0
M  V30 2625 H 247.156 0.304266 -5.03081 0
M  V30 2626 H 246.758 -0.759851 -3.662 0
M  V30 2627 H 249.05 -0.146282 -6.77342 0
M  V30 2628 H 249.993 -1.66661 -6.88208 0
M  V30 2629 H 250.401 -0.460082 -5.62622 0
M  V30 2630 N 249.799 1.42003 -0.683588 0
M  V30 2631 C 251.048 2.00638 -0.206681 0
M  V30 2632 C 251.361 1.5472 1.19671 0
M  V30 2633 O 252.567 2.05833 1.77045 0
M  V30 2634 C 251.023 3.58487 -0.318632 0
M  V30 2635 C 250.631 4.1339 -1.72663 0
M  V30 2636 C 252.375 4.24384 0.0991141 0
M  V30 2637 C 250.282 5.63633 -1.79087 0
M  V30 2638 H 249.212 0.750408 -0.0735107 0
M  V30 2639 H 251.863 1.62624 -0.850048 0
M  V30 2640 H 250.245 3.94047 0.392781 0
M  V30 2641 H 251.419 3.89273 -2.46583 0
M  V30 2642 H 249.734 3.59976 -2.09299 0
M  V30 2643 H 252.331 5.34652 0.0713833 0
M  V30 2644 H 252.674 4.00505 1.13586 0
M  V30 2645 H 253.207 3.93816 -0.561599 0
M  V30 2646 H 249.946 5.92323 -2.80774 0
M  V30 2647 H 249.466 5.89714 -1.09535 0
M  V30 2648 H 251.145 6.28201 -1.5483 0
M  V30 2649 N 251.277 0.427512 1.51691 0
M  V30 2650 C 252.502 -0.143601 2.06902 0
M  V30 2651 C 252.927 -1.36536 1.29382 0
M  V30 2652 O 252.285 -1.78289 0.329043 0
M  V30 2653 C 252.333 -0.454207 3.57728 0
M  V30 2654 O 251.437 -1.54228 3.82475 0
M  V30 2655 H 250.778 -0.00617128 0.663971 0
M  V30 2656 H 253.308 0.606014 1.95419 0
M  V30 2657 H 253.318 -0.707525 4.01818 0
M  V30 2658 H 251.993 0.438812 4.13579 0
M  V30 2659 H 250.57 -1.2797 3.50254 0
M  V30 2660 N 252.755 -1.56801 0.158532 0
M  V30 2661 C 253.98 -2.01295 -0.499516 0
M  V30 2662 C 254.405 -1.03799 -1.56867 0
M  V30 2663 O 253.763 -0.0155162 -1.81293 0
M  V30 2664 C 253.811 -3.44469 -1.06647 0
M  V30 2665 O 252.915 -3.50012 -2.18095 0
M  V30 2666 H 252.256 -0.652884 -0.12099 0
M  V30 2667 H 254.786 -2.02958 0.258661 0
M  V30 2668 H 254.796 -3.8351 -1.39227 0
M  V30 2669 H 253.471 -4.14932 -0.283581 0
M  V30 2670 H 252.048 -3.22822 -1.86656 0
M  V30 2671 N 254.233 0.115231 -1.57178 0
M  V30 2672 C 255.482 0.820945 -1.84237 0
M  V30 2673 C 255.795 1.80866 -0.744761 0
M  V30 2674 O 257.001 2.56083 -0.901871 0
M  V30 2675 C 255.457 1.51072 -3.26658 0
M  V30 2676 C 255.065 0.563795 -4.44438 0
M  V30 2677 C 256.809 2.20134 -3.62962 0
M  V30 2678 C 254.716 1.25701 -5.77887 0
M  V30 2679 H 253.646 0.310328 -0.687177 0
M  V30 2680 H 256.297 0.0737134 -1.83352 0
M  V30 2681 H 254.679 2.30471 -3.22024 0
M  V30 2682 H 255.853 -0.197247 -4.60378 0
M  V30 2683 H 254.168 -0.0200638 -4.16395 0
M  V30 2684 H 256.765 2.72696 -4.59936 0
M  V30 2685 H 257.108 2.98107 -2.90582 0
M  V30 2686 H 257.641 1.47619 -3.69396 0
M  V30 2687 H 254.38 0.518493 -6.53446 0
M  V30 2688 H 253.9 1.98997 -5.65827 0
M  V30 2689 H 255.579 1.78915 -6.2177 0
M  V30 2690 N 255.711 1.52812 0.385517 0
M  V30 2691 C 256.957 1.68275 1.13188 0
M  V30 2692 C 257.29 0.423179 1.89533 0
M  V30 2693 O 256.565 -0.579113 1.85679 0
M  V30 2694 C 256.848 2.92001 2.1073 0
M  V30 2695 C 256.701 4.28067 1.38125 0
M  V30 2696 C 258.02 3.11283 3.11113 0
M  V30 2697 H 255.139 0.612352 0.410115 0
M  V30 2698 H 257.781 1.85415 0.414869 0
M  V30 2699 H 255.931 2.77519 2.71874 0
M  V30 2700 H 257.603 4.54324 0.799187 0
M  V30 2701 H 255.846 4.28388 0.683092 0
M  V30 2702 H 256.517 5.10733 2.09417 0
M  V30 2703 H 258.993 3.2482 2.6006 0
M  V30 2704 H 257.869 3.99325 3.76605 0
M  V30 2705 H 258.13 2.25656 3.80173 0
M  V30 2706 N 257.189 -0.644168 1.43834 0
M  V30 2707 C 258.121 -1.76955 1.45669 0
M  V30 2708 C 259.134 -1.58956 0.351666 0
M  V30 2709 O 260.323 -1.6751 0.616644 0
M  V30 2710 C 257.423 -3.14507 1.26248 0
M  V30 2711 C 256.596 -3.59083 2.49757 0
M  V30 2712 C 255.655 -4.75467 2.25427 0
M  V30 2713 O 254.681 -4.84444 2.98836 0
M  V30 2714 N 255.883 -5.66289 1.27661 0
M  V30 2715 H 258.648 -1.75856 2.42682 0
M  V30 2716 H 256.209 -0.828312 1.39106 0
M  V30 2717 H 258.201 -3.90067 1.0784 0
M  V30 2718 H 256.771 -3.10325 0.376478 0
M  V30 2719 H 255.991 -2.7387 2.8353 0
M  V30 2720 H 257.279 -3.85613 3.31934 0
M  V30 2721 H 256.677 -5.61718 0.670064 0
M  V30 2722 H 255.234 -6.41533 1.15234 0
M  V30 2723 N 258.668 -1.30515 -0.883378 0
M  V30 2724 C 259.898 -1.22182 -1.66599 0
M  V30 2725 C 260.306 0.217507 -1.87946 0
M  V30 2726 O 259.649 1.1554 -1.42815 0
M  V30 2727 C 259.711 -1.88146 -3.06335 0
M  V30 2728 C 259.375 -3.37476 -3.08154 0
M  V30 2729 C 260.372 -4.33443 -2.87094 0
M  V30 2730 C 258.057 -3.7895 -3.29701 0
M  V30 2731 C 260.051 -5.68858 -2.8754 0
M  V30 2732 C 257.738 -5.14482 -3.29776 0
M  V30 2733 C 258.736 -6.09246 -3.0872 0
M  V30 2734 O 258.424 -7.42302 -3.08615 0
M  V30 2735 H 258.156 -0.423898 -0.52658 0
M  V30 2736 H 260.71 -1.72703 -1.11188 0
M  V30 2737 H 258.94 -1.32157 -3.63416 0
M  V30 2738 H 260.629 -1.7391 -3.66756 0
M  V30 2739 H 261.395 -4.02733 -2.70243 0
M  V30 2740 H 257.274 -3.05631 -3.45124 0
M  V30 2741 H 260.818 -6.428 -2.71024 0
M  V30 2742 H 256.715 -5.44832 -3.46163 0
M  V30 2743 H 257.483 -7.5131 -3.24769 0
M  V30 2744 N 260.146 1.09593 -1.13257 0
M  V30 2745 C 261.371 1.8604 -0.916732 0
M  V30 2746 C 261.796 1.80504 0.529146 0
M  V30 2747 O 261.154 1.18127 1.37534 0
M  V30 2748 C 261.202 3.32017 -1.40703 0
M  V30 2749 O 260.306 4.08141 -0.591153 0
M  V30 2750 H 259.647 0.576943 -0.328683 0
M  V30 2751 H 262.177 1.38405 -1.50682 0
M  V30 2752 H 262.187 3.82865 -1.4099 0
M  V30 2753 H 260.862 3.35361 -2.45979 0
M  V30 2754 H 259.439 3.67084 -0.656005 0
M  V30 2755 N 261.624 0.925811 1.2754 0
M  V30 2756 C 263.035 0.610102 1.7645 0
M  V30 2757 C 263.386 -0.874723 1.75622 0
M  V30 2758 O 262.511 -1.68444 1.35851 0
M  V30 2759 C 263.106 1.10073 3.20421 0
M  V30 2760 C 261.665 0.835723 3.67005 0
M  V30 2761 C 260.812 1.26054 2.46993 0
M  V30 2762 H 263.763 1.10579 1.13833 0
M  V30 2763 H 263.784 0.447557 3.77859 0
M  V30 2764 H 263.296 2.18143 3.20991 0
M  V30 2765 H 261.397 -0.231249 3.71882 0
M  V30 2766 H 261.51 1.45193 4.56569 0
M  V30 2767 H 259.874 0.679111 2.45479 0
M  V30 2768 H 260.657 2.34984 2.50275 0
M  V30 2769 N 263.102 -1.41638 0.69111 0
M  V30 2770 C 264.052 -2.28 -0.000107832 0
M  V30 2771 C 265.036 -1.41964 -0.757304 0
M  V30 2772 O 266.228 -1.65274 -0.633532 0
M  V30 2773 C 263.357 -3.30209 -0.938983 0
M  V30 2774 C 262.443 -4.23725 -0.17827 0
M  V30 2775 N 262.834 -4.99017 0.825563 0
M  V30 2776 C 261.132 -4.44071 -0.414392 0
M  V30 2777 C 261.833 -5.67431 1.28052 0
M  V30 2778 N 260.809 -5.40197 0.607304 0
M  V30 2779 H 264.611 -2.83644 0.769617 0
M  V30 2780 H 262.125 -1.53797 0.521562 0
M  V30 2781 H 264.122 -3.90898 -1.44929 0
M  V30 2782 H 262.782 -2.76126 -1.70836 0
M  V30 2783 H 263.793 -5.03671 1.20566 0
M  V30 2784 H 260.47 -4.01004 -1.162 0
M  V30 2785 H 261.86 -6.37801 2.11327 0
M  V30 2786 N 264.58 -0.43555 -1.51462 0
M  V30 2787 C 265.82 0.130708 -2.03982 0
M  V30 2788 C 266.184 1.40117 -1.31268 0
M  V30 2789 O 267.385 2.04755 -1.74152 0
M  V30 2790 C 265.656 0.346102 -3.5572 0
M  V30 2791 S 267.215 0.876022 -4.29967 0
M  V30 2792 H 264.033 0.0326881 -0.710248 0
M  V30 2793 H 266.635 -0.594544 -1.8624 0
M  V30 2794 H 265.339 -0.584911 -4.0621 0
M  V30 2795 H 264.87 1.09849 -3.77752 0
M  V30 2796 H 266.885 2.15379 -4.47019 0
M  V30 2797 N 266.058 1.56714 -0.166846 0
M  V30 2798 C 267.005 2.17746 0.765193 0
M  V30 2799 C 267.975 1.11614 1.23011 0
M  V30 2800 O 269.16 1.39745 1.29908 0
M  V30 2801 C 266.3 2.81882 1.9909 0
M  V30 2802 C 265.413 4.02462 1.56997 0
M  V30 2803 C 264.548 4.54537 2.749 0
M  V30 2804 C 263.587 5.67538 2.29275 0
M  V30 2805 N 262.724 6.14142 3.40255 0
M  V30 2806 H 267.564 2.97048 0.237952 0
M  V30 2807 H 265.101 1.4672 0.105725 0
M  V30 2808 H 267.059 3.17221 2.70974 0
M  V30 2809 H 265.689 2.05191 2.49192 0
M  V30 2810 H 264.741 3.72973 0.748037 0
M  V30 2811 H 266.053 4.84273 1.19503 0
M  V30 2812 H 265.207 4.92035 3.54946 0
M  V30 2813 H 263.946 3.71774 3.1565 0
M  V30 2814 H 262.951 5.29597 1.47674 0
M  V30 2815 H 264.176 6.52099 1.89588 0
M  V30 2816 H 262.122 5.3431 3.8059 0
M  V30 2817 H 262.039 6.9093 3.06841 0
M  V30 2818 H 263.307 6.56289 4.206 0
M  V30 2819 N 267.536 -0.106894 1.57237 0
M  V30 2820 C 268.466 -1.13148 2.04254 0
M  V30 2821 C 269.447 -1.42476 0.929224 0
M  V30 2822 O 270.632 -1.52709 1.19973 0
M  V30 2823 C 267.762 -2.4545 2.45706 0
M  V30 2824 C 266.716 -2.30558 3.60592 0
M  V30 2825 C 266.042 -3.67931 3.87983 0
M  V30 2826 C 267.342 -1.75597 4.91897 0
M  V30 2827 H 269.036 -0.740374 2.90101 0
M  V30 2828 H 266.582 -0.354696 1.39563 0
M  V30 2829 H 268.535 -3.17389 2.77205 0
M  V30 2830 H 267.259 -2.86475 1.56843 0
M  V30 2831 H 265.918 -1.61067 3.29322 0
M  V30 2832 H 265.566 -4.06462 2.96306 0
M  V30 2833 H 265.266 -3.58817 4.65322 0
M  V30 2834 H 266.79 -4.41356 4.21945 0
M  V30 2835 H 268.204 -2.37364 5.21854 0
M  V30 2836 H 266.601 -1.77272 5.73319 0
M  V30 2837 H 267.671 -0.714451 4.79608 0
M  V30 2838 N 269.014 -1.53014 -0.377408 0
M  V30 2839 C 270.263 -1.67845 -1.11853 0
M  V30 2840 C 270.576 -0.430625 -1.90801 0
M  V30 2841 O 271.782 -0.459261 -2.67587 0
M  V30 2842 C 270.238 -2.96668 -2.03756 0
M  V30 2843 C 269.846 -4.28671 -1.30175 0
M  V30 2844 C 271.59 -3.20865 -2.77932 0
M  V30 2845 C 269.497 -5.48591 -2.20911 0
M  V30 2846 H 268.427 -0.625343 -0.421263 0
M  V30 2847 H 271.078 -1.79514 -0.380409 0
M  V30 2848 H 269.46 -2.78773 -2.8125 0
M  V30 2849 H 270.634 -4.57157 -0.578259 0
M  V30 2850 H 268.949 -4.10825 -0.679108 0
M  V30 2851 H 271.546 -4.07642 -3.46024 0
M  V30 2852 H 271.889 -2.36424 -3.4265 0
M  V30 2853 H 272.422 -3.39379 -2.07525 0
M  V30 2854 H 269.161 -6.35474 -1.6079 0
M  V30 2855 H 268.681 -5.244 -2.91144 0
M  V30 2856 H 270.36 -5.8292 -2.80736 0
M  V30 2857 N 270.492 0.636531 -1.44174 0
M  V30 2858 C 271.741 1.39213 -1.45954 0
M  V30 2859 C 272.054 1.95374 -0.0939119 0
M  V30 2860 O 273.26 2.71498 0.0107767 0
M  V30 2861 C 271.716 2.52025 -2.56927 0
M  V30 2862 C 271.324 2.024 -3.99673 0
M  V30 2863 C 273.068 3.29269 -2.67922 0
M  V30 2864 C 270.975 3.12521 -5.0208 0
M  V30 2865 H 269.905 0.523132 -0.542999 0
M  V30 2866 H 272.556 0.685349 -1.70221 0
M  V30 2867 H 270.938 3.25253 -2.25891 0
M  V30 2868 H 272.112 1.36073 -4.40251 0
M  V30 2869 H 270.427 1.37987 -3.92872 0
M  V30 2870 H 273.024 4.11352 -3.41605 0
M  V30 2871 H 273.367 3.78397 -1.73555 0
M  V30 2872 H 273.9 2.63129 -2.98342 0
M  V30 2873 H 270.639 2.68343 -5.98057 0
M  V30 2874 H 270.159 3.77507 -4.66099 0
M  V30 2875 H 271.838 3.77385 -5.25538 0
M  V30 2876 N 271.97 1.30982 0.876444 0
M  V30 2877 C 273.216 1.20474 1.63138 0
M  V30 2878 C 273.549 -0.238096 1.92735 0
M  V30 2879 O 272.824 -1.1692 1.55435 0
M  V30 2880 C 273.107 2.04244 2.96574 0
M  V30 2881 C 272.96 3.56793 2.73896 0
M  V30 2882 C 274.279 1.88684 3.97601 0
M  V30 2883 H 271.398 0.439001 0.591985 0
M  V30 2884 H 274.04 1.60704 1.01361 0
M  V30 2885 H 272.19 1.70063 3.493 0
M  V30 2886 H 273.862 4.01077 2.27892 0
M  V30 2887 H 272.105 3.80548 2.08245 0
M  V30 2888 H 272.776 4.10706 3.68815 0
M  V30 2889 H 275.252 2.18584 3.54062 0
M  V30 2890 H 274.128 2.4961 4.88862 0
M  V30 2891 H 274.389 0.848343 4.33884 0
M  V30 2892 N 273.449 -1.08991 1.13837 0
M  V30 2893 C 274.674 -1.85551 0.926585 0
M  V30 2894 C 275.099 -1.80782 -0.519566 0
M  V30 2895 O 274.457 -1.18855 -1.36906 0
M  V30 2896 C 274.505 -3.31266 1.42462 0
M  V30 2897 O 273.609 -4.07822 0.612789 0
M  V30 2898 H 272.95 -0.575192 0.331738 0
M  V30 2899 H 275.48 -1.37604 1.51414 0
M  V30 2900 H 275.49 -3.82112 1.43019 0
M  V30 2901 H 274.165 -3.34052 2.47754 0
M  V30 2902 H 272.742 -3.66731 0.675463 0
M  V30 2903 N 274.927 -0.932562 -1.27047 0
M  V30 2904 C 275.875 -0.42603 -2.28665 0
M  V30 2905 C 276.869 0.49219 -1.62092 0
M  V30 2906 O 278.075 0.371355 -1.76128 0
M  V30 2907 H 274.45 -0.119213 -0.742491 0
M  V30 2908 H 276.421 -1.29579 -2.68797 0
M  V30 2909 C 275.17 0.301426 -3.46391 0
M  V30 2910 H 274.493 -0.39595 -3.97834 0
M  V30 2911 H 275.933 0.6202 -4.1944 0
M  V30 2912 C 274.392 1.51616 -3.00856 0
M  V30 2913 O 274.922 2.61476 -3.04948 0
M  V30 2914 N 273.128 1.36969 -2.56296 0
M  V30 2915 H 272.675 0.475873 -2.53166 0
M  V30 2916 H 272.633 2.18368 -2.26192 0
M  V30 2917 N 276.405 1.4127 -0.698611 0
M  V30 2918 C 277.816 1.84187 -0.305289 0
M  V30 2919 C 278.167 1.58449 1.15708 0
M  V30 2920 O 277.292 1.05651 1.88856 0
M  V30 2921 C 277.887 3.3435 -0.547314 0
M  V30 2922 C 276.446 3.75826 -0.207878 0
M  V30 2923 C 275.593 2.64647 -0.828099 0
M  V30 2924 H 278.544 1.30778 -0.89904 0
M  V30 2925 H 278.565 3.8001 0.192998 0
M  V30 2926 H 278.077 3.53051 -1.61172 0
M  V30 2927 H 276.178 3.62725 0.852143 0
M  V30 2928 H 276.291 4.74462 -0.665021 0
M  V30 2929 H 274.655 2.53395 -0.257458 0
M  V30 2930 H 275.438 2.86165 -1.89643 0
M  V30 2931 N 277.883 0.443576 1.51229 0
M  V30 2932 C 279.129 -0.120975 2.02439 0
M  V30 2933 C 279.462 -1.41815 1.32674 0
M  V30 2934 O 278.737 -1.89373 0.443622 0
M  V30 2935 C 279.02 -0.333291 3.58554 0
M  V30 2936 C 278.873 0.982968 4.38928 0
M  V30 2937 C 280.192 -1.10028 4.26124 0
M  V30 2938 H 277.311 -0.0424923 0.735774 0
M  V30 2939 H 279.953 0.583794 1.80809 0
M  V30 2940 H 278.103 -0.933614 3.77115 0
M  V30 2941 H 279.775 1.61775 4.32003 0
M  V30 2942 H 278.018 1.58611 4.03763 0
M  V30 2943 H 278.689 0.788379 5.46341 0
M  V30 2944 H 281.165 -0.591711 4.11871 0
M  V30 2945 H 280.041 -1.21761 5.35225 0
M  V30 2946 H 280.302 -2.12996 3.87408 0
M  V30 2947 N 279.361 -1.56624 0.175154 0
M  V30 2948 C 280.638 -1.88688 -0.515373 0
M  V30 2949 C 281.018 -1.08564 -1.81044 0
M  V30 2950 O 280.366 -0.180703 -2.27784 0
M  V30 2951 C 280.576 -3.40768 -0.753552 0
M  V30 2952 C 281.924 -4.10587 -1.08184 0
M  V30 2953 O 282.948 -3.46106 -0.841961 0
M  V30 2954 O 281.807 -5.24512 -1.53459 0
M  V30 2955 H 278.901 -0.78301 -0.26613 0
M  V30 2956 H 281.447 -1.68347 0.213877 0
M  V30 2957 H 280.219 -3.90965 0.161829 0
M  V30 2958 H 279.842 -3.66733 -1.53598 0
M  V30 2959 N 280.839 0.0985539 -1.57292 0
M  V30 2960 C 282.088 0.801358 -1.85098 0
M  V30 2961 C 282.401 1.80066 -0.763902 0
M  V30 2962 O 283.607 2.55112 -0.928981 0
M  V30 2963 C 282.063 1.47599 -3.28242 0
M  V30 2964 C 281.671 0.516624 -4.45011 0
M  V30 2965 C 283.415 2.16272 -3.65276 0
M  V30 2966 C 281.322 1.19564 -5.79188 0
M  V30 2967 H 280.252 0.303022 -0.69043 0
M  V30 2968 H 282.903 0.0542623 -1.8342 0
M  V30 2969 H 281.285 2.27042 -3.2445 0
M  V30 2970 H 282.459 -0.246065 -4.60143 0
M  V30 2971 H 280.774 -0.064227 -4.1635 0
M  V30 2972 H 283.371 2.67802 -4.62803 0
M  V30 2973 H 283.714 2.95009 -2.93727 0
M  V30 2974 H 284.247 1.43693 -3.70941 0
M  V30 2975 H 280.986 0.449157 -6.53959 0
M  V30 2976 H 280.506 1.92984 -5.67906 0
M  V30 2977 H 282.185 1.7231 -6.23633 0
M  V30 2978 N 282.317 1.53212 0.369288 0
M  V30 2979 C 283.247 1.82365 1.45826 0
M  V30 2980 C 284.228 0.676907 1.56051 0
M  V30 2981 O 285.413 0.926401 1.70679 0
M  V30 2982 C 282.543 2.01023 2.83208 0
M  V30 2983 C 281.497 3.1678 2.8781 0
M  V30 2984 C 280.823 3.20724 4.27832 0
M  V30 2985 C 282.123 4.55447 2.55667 0
M  V30 2986 H 283.817 2.73559 1.21678 0
M  V30 2987 H 281.363 1.3163 0.583911 0
M  V30 2988 H 283.316 2.20001 3.59413 0
M  V30 2989 H 282.04 1.06536 3.08736 0
M  V30 2990 H 280.699 2.97616 2.14056 0
M  V30 2991 H 280.347 2.23882 4.50429 0
M  V30 2992 H 280.047 3.98496 4.31827 0
M  V30 2993 H 281.571 3.41881 5.05915 0
M  V30 2994 H 282.985 4.74611 3.21586 0
M  V30 2995 H 281.382 5.35432 2.70984 0
M  V30 2996 H 282.452 4.60812 1.5093 0
M  V30 2997 N 283.795 -0.628877 1.44509 0
M  V30 2998 C 285.023 -1.41554 1.50897 0
M  V30 2999 C 285.438 -1.8832 0.134564 0
M  V30 3000 O 284.795 -1.60969 -0.859965 0
M  V30 3001 C 284.846 -2.63435 2.47556 0
M  V30 3002 O 284.567 -2.18619 3.79654 0
M  V30 3003 C 286.068 -3.56537 2.63431 0
M  V30 3004 H 283.288 -0.434044 0.511709 0
M  V30 3005 H 285.832 -0.768895 1.89495 0
M  V30 3006 H 283.987 -3.24187 2.12089 0
M  V30 3007 H 284.401 -2.97652 4.31861 0
M  V30 3008 H 285.875 -4.38657 3.35088 0
M  V30 3009 H 286.352 -4.05493 1.68738 0
M  V30 3010 H 286.958 -3.01653 2.9981 0
M  V30 3011 N 285.273 -1.31445 -0.869486 0
M  V30 3012 C 286.503 -1.23942 -1.65294 0
M  V30 3013 C 286.911 0.197561 -1.88166 0
M  V30 3014 O 286.254 1.14019 -1.44033 0
M  V30 3015 C 286.316 -1.91385 -3.04322 0
M  V30 3016 C 285.98 -3.40726 -3.04557 0
M  V30 3017 C 286.977 -4.36464 -2.82481 0
M  V30 3018 C 284.662 -3.82425 -3.25663 0
M  V30 3019 C 286.656 -5.71876 -2.8149 0
M  V30 3020 C 284.343 -5.1795 -3.243 0
M  V30 3021 C 285.341 -6.12486 -3.02241 0
M  V30 3022 O 285.029 -7.45534 -3.00724 0
M  V30 3023 H 284.761 -0.429459 -0.522054 0
M  V30 3024 H 287.315 -1.73873 -1.0935 0
M  V30 3025 H 285.545 -1.36004 -3.61994 0
M  V30 3026 H 287.234 -1.77791 -3.64891 0
M  V30 3027 H 288 -4.05576 -2.65956 0
M  V30 3028 H 283.879 -3.09274 -3.41863 0
M  V30 3029 H 287.423 -6.45638 -2.64191 0
M  V30 3030 H 283.32 -5.48473 -3.40365 0
M  V30 3031 H 284.088 -7.54713 -3.16782 0
M  V30 3032 N 286.751 1.08385 -1.14413 0
M  V30 3033 C 287.997 1.81044 -0.913834 0
M  V30 3034 C 288.33 1.86004 0.558209 0
M  V30 3035 O 287.605 1.33606 1.4135 0
M  V30 3036 C 287.888 3.26648 -1.51569 0
M  V30 3037 C 287.741 3.29895 -3.0576 0
M  V30 3038 C 289.06 4.23629 -1.19273 0
M  V30 3039 H 286.179 0.65727 -0.333414 0
M  V30 3040 H 288.821 1.26896 -1.41412 0
M  V30 3041 H 286.971 3.72889 -1.09023 0
M  V30 3042 H 288.643 2.91977 -3.57137 0
M  V30 3043 H 286.886 2.69163 -3.40197 0
M  V30 3044 H 287.557 4.32516 -3.42977 0
M  V30 3045 H 290.033 3.85727 -1.56057 0
M  V30 3046 H 288.909 5.23822 -1.64017 0
M  V30 3047 H 289.17 4.41968 -0.108068 0
M  V30 3048 N 288.23 0.939286 1.26551 0
M  V30 3049 C 289.193 0.451987 2.24699 0
M  V30 3050 C 290.193 -0.435869 1.5478 0
M  V30 3051 O 291.383 -0.235314 1.72603 0
M  V30 3052 C 288.515 -0.348801 3.39111 0
M  V30 3053 H 289.708 1.3193 2.69322 0
M  V30 3054 H 287.261 0.721072 1.38673 0
M  V30 3055 H 287.996 -1.23444 2.99887 0
M  V30 3056 H 287.781 0.287945 3.91041 0
M  V30 3057 H 289.271 -0.679726 4.12031 0
M  V30 3058 N 289.708 -1.40897 0.706093 0
M  V30 3059 C 290.954 -2.01849 0.250681 0
M  V30 3060 C 291.309 -1.5496 -1.14041 0
M  V30 3061 O 290.602 -0.755566 -1.76073 0
M  V30 3062 C 290.796 -3.5646 0.259099 0
M  V30 3063 C 290.625 -4.18357 1.64947 0
M  V30 3064 C 289.395 -4.522 2.25485 0
M  V30 3065 C 291.593 -4.43856 2.598 0
M  V30 3066 N 289.575 -4.9944 3.56977 0
M  V30 3067 C 290.946 -4.92986 3.75985 0
M  V30 3068 C 293.001 -4.25882 2.57933 0
M  V30 3069 C 291.704 -5.2603 4.90597 0
M  V30 3070 C 293.73 -4.6002 3.71665 0
M  V30 3071 C 293.092 -5.09331 4.86581 0
M  V30 3072 H 289.191 -0.769843 0.137353 0
M  V30 3073 H 291.775 -1.71278 0.925845 0
M  V30 3074 H 289.946 -3.86481 -0.385592 0
M  V30 3075 H 291.678 -4.04144 -0.21213 0
M  V30 3076 H 288.433 -4.3901 1.77671 0
M  V30 3077 H 288.857 -5.27454 4.24407 0
M  V30 3078 H 293.499 -3.86986 1.70298 0
M  V30 3079 H 291.217 -5.63843 5.78884 0
M  V30 3080 H 294.803 -4.47762 3.71484 0
M  V30 3081 H 293.683 -5.35251 5.73129 0
M  V30 3082 N 291.186 -0.45159 -1.50991 0
M  V30 3083 C 292.133 0.352625 -2.2809 0
M  V30 3084 C 293.103 1.0044 -1.32291 0
M  V30 3085 O 294.288 1.02058 -1.6121 0
M  V30 3086 C 291.428 1.43983 -3.13629 0
M  V30 3087 C 290.541 0.804772 -4.24438 0
M  V30 3088 C 289.676 1.86822 -4.97263 0
M  V30 3089 C 288.715 1.21236 -5.99973 0
M  V30 3090 N 287.852 2.2178 -6.66152 0
M  V30 3091 H 292.692 -0.311186 -2.96371 0
M  V30 3092 H 290.229 -0.165308 -1.46168 0
M  V30 3093 H 292.187 2.08161 -3.61559 0
M  V30 3094 H 290.817 2.07307 -2.47434 0
M  V30 3095 H 289.869 0.0509129 -3.80366 0
M  V30 3096 H 291.181 0.286076 -4.97979 0
M  V30 3097 H 290.335 2.58628 -5.48813 0
M  V30 3098 H 289.074 2.42068 -4.23385 0
M  V30 3099 H 288.079 0.479828 -5.47702 0
M  V30 3100 H 289.304 0.667051 -6.75816 0
M  V30 3101 H 287.25 2.76079 -5.95077 0
M  V30 3102 H 287.167 1.74841 -7.35504 0
M  V30 3103 H 288.435 2.93026 -7.22327 0
M  V30 3104 N 292.664 1.56529 -0.183458 0
M  V30 3105 C 293.594 2.21549 0.737456 0
M  V30 3106 C 294.575 1.17489 1.23005 0
M  V30 3107 O 295.76 1.45959 1.281 0
M  V30 3108 C 292.89 2.86575 1.96194 0
M  V30 3109 C 291.844 3.96778 1.60473 0
M  V30 3110 C 291.17 4.48911 2.90487 0
M  V30 3111 C 292.47 5.15767 0.823497 0
M  V30 3112 H 294.164 2.98761 0.195453 0
M  V30 3113 H 291.71 1.43702 0.0925686 0
M  V30 3114 H 293.663 3.30739 2.61131 0
M  V30 3115 H 292.387 2.06749 2.52828 0
M  V30 3116 H 291.046 3.53286 0.978997 0
M  V30 3117 H 290.694 3.65862 3.45186 0
M  V30 3118 H 290.394 5.23265 2.67335 0
M  V30 3119 H 291.918 4.95771 3.56432 0
M  V30 3120 H 293.332 5.56549 1.37571 0
M  V30 3121 H 291.729 5.96114 0.690551 0
M  V30 3122 H 292.799 4.84574 -0.177782 0
M  V30 3123 N 294.142 -0.090211 1.57342 0
M  V30 3124 C 295.367 -0.810082 1.90925 0
M  V30 3125 C 295.792 -1.71248 0.778187 0
M  V30 3126 O 295.15 -1.79278 -0.269991 0
M  V30 3127 C 295.198 -1.59529 3.23393 0
M  V30 3128 O 294.302 -2.70461 3.11327 0
M  V30 3129 H 293.643 -0.222231 0.625707 0
M  V30 3130 H 296.173 -0.0639716 2.045 0
M  V30 3131 H 296.183 -1.97847 3.5682 0
M  V30 3132 H 294.858 -0.933055 4.05299 0
M  V30 3133 H 293.435 -2.35135 2.89423 0
M  V30 3134 N 295.62 -1.53406 -0.361157 0
M  V30 3135 C 296.583 -1.79479 -1.42548 0
M  V30 3136 C 297.583 -0.665327 -1.4639 0
M  V30 3137 O 298.773 -0.933549 -1.47073 0
M  V30 3138 C 295.905 -1.92087 -2.8163 0
M  V30 3139 H 297.098 -2.74538 -1.20701 0
M  V30 3140 H 294.651 -1.4455 -0.594546 0
M  V30 3141 H 295.386 -0.991099 -3.08784 0
M  V30 3142 H 295.171 -2.74241 -2.80239 0
M  V30 3143 H 296.661 -2.13836 -3.58697 0
M  V30 3144 N 297.098 0.621204 -1.44841 0
M  V30 3145 C 298.345 1.38055 -1.48145 0
M  V30 3146 C 298.673 1.94143 -0.117867 0
M  V30 3147 O 297.928 1.74713 0.881694 0
M  V30 3148 C 298.227 2.55675 -2.4973 0
M  V30 3149 C 297.893 2.17817 -3.94799 0
M  V30 3150 C 296.555 2.07205 -4.34303 0
M  V30 3151 C 298.907 1.88065 -4.86087 0
M  V30 3152 C 296.235 1.65045 -5.63007 0
M  V30 3153 C 298.587 1.47394 -6.15189 0
M  V30 3154 C 297.251 1.35331 -6.53637 0
M  V30 3155 H 296.521 0.505181 -0.542101 0
M  V30 3156 H 299.168 0.703477 -1.78111 0
M  V30 3157 H 297.473 3.2866 -2.13284 0
M  V30 3158 H 299.17 3.13904 -2.4953 0
M  V30 3159 H 295.76 2.26998 -3.63552 0
M  V30 3160 H 299.944 1.95168 -4.56315 0
M  V30 3161 H 295.2 1.54317 -5.91605 0
M  V30 3162 H 299.374 1.23415 -6.85377 0
M  V30 3163 H 297.001 1.02435 -7.53267 0
M  V30 3164 N 298.576 1.31904 0.862503 0
M  V30 3165 C 299.987 1.19803 1.43193 0
M  V30 3166 C 300.338 -0.192567 1.95253 0
M  V30 3167 O 299.463 -1.09081 1.86896 0
M  V30 3168 C 300.058 2.16883 2.60283 0
M  V30 3169 C 298.617 2.08692 3.13248 0
M  V30 3170 C 297.764 2.05691 1.85975 0
M  V30 3171 H 300.715 1.43846 0.670365 0
M  V30 3172 H 300.736 1.76278 3.37204 0
M  V30 3173 H 300.248 3.18083 2.22363 0
M  V30 3174 H 298.349 1.10713 3.55771 0
M  V30 3175 H 298.462 2.9815 3.75025 0
M  V30 3176 H 296.826 1.50814 2.05249 0
M  V30 3177 H 297.609 3.08659 1.50282 0
M  V30 3178 N 300.054 -1.07777 1.14986 0
M  V30 3179 C 301.001 -2.14867 0.842672 0
M  V30 3180 C 301.971 -1.6486 -0.202552 0
M  V30 3181 O 303.156 -1.90668 -0.0710568 0
M  V30 3182 C 300.296 -3.43486 0.333363 0
M  V30 3183 C 299.409 -4.07306 1.43965 0
M  V30 3184 C 298.544 -5.23744 0.886914 0
M  V30 3185 C 297.583 -5.79517 1.97043 0
M  V30 3186 N 296.72 -6.87291 1.4344 0
M  V30 3187 H 301.56 -2.40485 1.75986 0
M  V30 3188 H 299.097 -1.1801 0.878179 0
M  V30 3189 H 301.055 -4.17195 0.0198163 0
M  V30 3190 H 299.685 -3.18133 -0.546916 0
M  V30 3191 H 298.737 -3.31293 1.86946 0
M  V30 3192 H 300.049 -4.44771 2.25788 0
M  V30 3193 H 299.203 -6.04419 0.525651 0
M  V30 3194 H 297.942 -4.87685 0.0377957 0
M  V30 3195 H 296.947 -4.97491 2.34057 0
M  V30 3196 H 298.172 -6.17632 2.82325 0
M  V30 3197 H 296.118 -6.5318 0.607567 0
M  V30 3198 H 296.035 -7.23617 2.18895 0
M  V30 3199 H 297.303 -7.71682 1.10124 0
M  V30 3200 N 301.532 -0.945985 -1.26051 0
M  V30 3201 C 302.48 -0.450259 -2.282 0
M  V30 3202 C 303.474 0.47497 -1.62605 0
M  V30 3203 O 304.68 0.352653 -1.76512 0
M  V30 3204 H 301.055 -0.127081 -0.741184 0
M  V30 3205 H 303.026 -1.32422 -2.67408 0
M  V30 3206 C 301.775 0.26467 -3.46691 0
M  V30 3207 H 301.098 -0.438123 -3.97392 0
M  V30 3208 H 302.538 0.575678 -4.20074 0
M  V30 3209 C 300.997 1.48416 -3.02447 0
M  V30 3210 O 301.527 2.58227 -3.07704 0
M  V30 3211 N 299.733 1.34243 -2.57735 0
M  V30 3212 H 299.28 0.448994 -2.53657 0
M  V30 3213 H 299.238 2.15957 -2.28495 0
M  V30 3214 N 303.011 1.40521 -0.713556 0
M  V30 3215 C 304.427 1.54839 -0.386907 0
M  V30 3216 C 304.627 1.68532 1.1045 0
M  V30 3217 O 303.683 1.67377 1.89053 0
M  V30 3218 C 304.996 2.77792 -1.15118 0
M  V30 3219 C 306.544 2.91607 -1.13729 0
M  V30 3220 C 307.019 4.1747 -1.88368 0
M  V30 3221 N 308.51 4.24466 -1.85427 0
M  V30 3222 C 309.245 5.20755 -2.40004 0
M  V30 3223 N 308.741 6.22965 -3.03129 0
M  V30 3224 N 310.534 5.1282 -2.30158 0
M  V30 3225 H 302.685 1.29879 -1.68063 0
M  V30 3226 H 304.948 0.627896 -0.710247 0
M  V30 3227 H 304.654 2.73944 -2.20561 0
M  V30 3228 H 304.528 3.6984 -0.741477 0
M  V30 3229 H 306.915 2.94959 -0.0910608 0
M  V30 3230 H 306.996 2.00682 -1.5862 0
M  V30 3231 H 306.64 4.1488 -2.9298 0
M  V30 3232 H 306.57 5.074 -1.40898 0
M  V30 3233 H 309.061 3.51241 -1.3942 0
M  V30 3234 H 309.374 6.92859 -3.42295 0
M  V30 3235 H 307.719 6.23415 -3.07212 0
M  V30 3236 H 310.91 4.31899 -1.80501 0
M  V30 3237 H 311.083 5.87689 -2.72993 0
M  V30 3238 N 304.489 0.459591 1.5075 0
M  V30 3239 C 305.738 -0.100971 2.01447 0
M  V30 3240 C 306.051 -1.41816 1.34713 0
M  V30 3241 O 307.257 -2.06299 1.76502 0
M  V30 3242 C 305.713 -0.23047 3.59161 0
M  V30 3243 C 305.321 1.0776 4.34847 0
M  V30 3244 C 307.065 -0.743608 4.17936 0
M  V30 3245 C 304.972 0.91253 5.84317 0
M  V30 3246 H 303.902 -0.0415102 0.752856 0
M  V30 3247 H 306.553 0.592742 1.73663 0
M  V30 3248 H 304.935 -0.987703 3.83485 0
M  V30 3249 H 306.109 1.8449 4.22256 0
M  V30 3250 H 304.424 1.52097 3.87628 0
M  V30 3251 H 307.021 -0.883959 5.27343 0
M  V30 3252 H 307.364 -1.73196 3.78562 0
M  V30 3253 H 307.897 -0.04408 3.97776 0
M  V30 3254 H 304.636 1.87391 6.28144 0
M  V30 3255 H 304.156 0.185422 5.99513 0
M  V30 3256 H 305.835 0.574547 6.44444 0
M  V30 3257 N 305.967 -1.56429 0.191757 0
M  V30 3258 C 307.216 -1.9666 -0.448088 0
M  V30 3259 C 307.529 -1.08136 -1.62991 0
M  V30 3260 O 308.735 -1.38135 -2.33733 0
M  V30 3261 C 307.191 -3.49753 -0.848585 0
M  V30 3262 C 306.799 -4.46935 0.308764 0
M  V30 3263 C 308.543 -3.9876 -1.4557 0
M  V30 3264 C 306.45 -5.91293 -0.112506 0
M  V30 3265 H 305.38 -0.734312 -0.171179 0
M  V30 3266 H 308.031 -1.81301 0.283242 0
M  V30 3267 H 306.413 -3.60604 -1.63649 0
M  V30 3268 H 307.587 -4.47813 1.08627 0
M  V30 3269 H 305.902 -4.08102 0.827158 0
M  V30 3270 H 308.499 -5.04086 -1.78328 0
M  V30 3271 H 308.842 -3.42875 -2.36099 0
M  V30 3272 H 309.375 -3.9101 -0.731836 0
M  V30 3273 H 306.114 -6.51097 0.758514 0
M  V30 3274 H 305.634 -5.93676 -0.854941 0
M  V30 3275 H 307.313 -6.44663 -0.549448 0
M  V30 3276 N 307.445 0.0818655 -1.57387 0
M  V30 3277 C 308.693 0.781368 -1.86384 0
M  V30 3278 C 309.014 1.78618 -0.782342 0
M  V30 3279 O 308.284 1.94976 0.190061 0
M  V30 3280 H 306.864 0.291562 -0.687751 0
M  V30 3281 H 309.526 0.060348 -1.94807 0
M  V30 3282 H 308.622 1.3038 -2.83562 0
M  V30 3283 N 308.923 1.53595 0.353017 0
M  V30 3284 C 310.148 1.7462 1.11904 0
M  V30 3285 C 310.573 0.479721 1.8188 0
M  V30 3286 O 309.931 -0.567066 1.72204 0
M  V30 3287 C 309.979 2.92029 2.11545 0
M  V30 3288 O 309.083 2.61516 3.18878 0
M  V30 3289 H 308.424 0.579531 0.324099 0
M  V30 3290 H 310.954 2.00525 0.406301 0
M  V30 3291 H 310.964 3.18551 2.5493 0
M  V30 3292 H 309.639 3.83888 1.60008 0
M  V30 3293 H 308.216 2.45852 2.80377 0
M  V30 3294 N 310.401 -0.613514 1.45168 0
M  V30 3295 C 311.649 -1.36997 1.48581 0
M  V30 3296 C 311.97 -1.94589 0.126545 0
M  V30 3297 O 311.24 -1.76816 -0.843372 0
M  V30 3298 H 309.82 -0.508558 0.547154 0
M  V30 3299 H 312.482 -0.720853 1.81079 0
M  V30 3300 H 311.578 -2.1924 2.22127 0
M  V30 3301 N 311.879 -1.3236 -0.855495 0
M  V30 3302 C 313.119 -1.24187 -1.62348 0
M  V30 3303 C 313.483 0.193597 -1.91021 0
M  V30 3304 O 314.684 0.39904 -2.65822 0
M  V30 3305 C 312.955 -2.07661 -2.90881 0
M  V30 3306 S 314.514 -2.16505 -3.81669 0
M  V30 3307 H 311.332 -0.442076 -0.556857 0
M  V30 3308 H 313.934 -1.67198 -1.01317 0
M  V30 3309 H 312.638 -3.11018 -2.67761 0
M  V30 3310 H 312.169 -1.65425 -3.56929 0
M  V30 3311 H 314.184 -1.31394 -4.78487 0
M  V30 3312 N 313.357 1.07166 -1.15556 0
M  V30 3313 C 314.305 2.16517 -0.8499 0
M  V30 3314 C 315.299 1.68468 0.177454 0
M  V30 3315 O 316.505 1.79971 0.0323026 0
M  V30 3316 H 312.88 0.706652 -0.25719 0
M  V30 3317 H 314.851 2.39514 -1.77976 0
M  V30 3318 C 313.6 3.45855 -0.357682 0
M  V30 3319 H 312.923 3.83214 -1.13961 0
M  V30 3320 H 314.363 4.23607 -0.182489 0
M  V30 3321 C 312.822 3.24062 0.921152 0
M  V30 3322 O 313.352 3.48813 1.9923 0
M  V30 3323 N 311.558 2.77539 0.86141 0
M  V30 3324 H 311.105 2.57598 -0.0104408 0
M  V30 3325 H 311.063 2.63337 1.71758 0
M  V30 3326 N 314.835 0.952656 1.25548 0
M  V30 3327 C 315.765 0.489287 2.28316 0
M  V30 3328 C 316.746 -0.463359 1.63667 0
M  V30 3329 O 317.931 -0.36274 1.90782 0
M  V30 3330 C 315.061 -0.235603 3.465 0
M  V30 3331 C 314.015 0.631593 4.23314 0
M  V30 3332 C 313.341 -0.223923 5.34231 0
M  V30 3333 C 314.641 1.90871 4.86174 0
M  V30 3334 H 316.335 1.34822 2.67326 0
M  V30 3335 H 313.881 0.649728 1.28509 0
M  V30 3336 H 315.834 -0.570882 4.17515 0
M  V30 3337 H 314.558 -1.12877 3.06474 0
M  V30 3338 H 313.217 0.949929 3.54079 0
M  V30 3339 H 312.865 -1.11678 4.90446 0
M  V30 3340 H 312.565 0.35299 5.86539 0
M  V30 3341 H 314.089 -0.554214 6.0808 0
M  V30 3342 H 315.503 1.63997 5.49343 0
M  V30 3343 H 313.9 2.43112 5.4865 0
M  V30 3344 H 314.97 2.61304 4.08471 0
M  V30 3345 N 316.313 -1.40141 0.720998 0
M  V30 3346 C 317.59 -1.94677 0.189757 0
M  V30 3347 C 317.97 -1.65879 -1.30566 0
M  V30 3348 O 317.318 -0.979391 -2.06447 0
M  V30 3349 C 317.528 -3.45279 0.508304 0
M  V30 3350 C 318.876 -4.22209 0.449934 0
M  V30 3351 O 319.9 -3.53413 0.444677 0
M  V30 3352 O 318.759 -5.44788 0.432189 0
M  V30 3353 H 315.853 -0.826459 0.0299026 0
M  V30 3354 H 318.399 -1.49719 0.7989 0
M  V30 3355 H 317.171 -3.59619 1.54239 0
M  V30 3356 H 316.794 -3.97386 -0.130525 0
M  V30 3357 N 317.792 -0.46758 -1.50504 0
M  V30 3358 C 319.02 0.0864133 -2.06719 0
M  V30 3359 C 319.435 1.33819 -1.33184 0
M  V30 3360 O 318.792 1.78061 -0.400083 0
M  V30 3361 C 318.843 0.378079 -3.59517 0
M  V30 3362 O 318.564 -0.824044 -4.3028 0
M  V30 3363 C 320.065 0.979426 -4.32345 0
M  V30 3364 H 317.285 -0.00551697 -0.670977 0
M  V30 3365 H 319.829 -0.655354 -1.93715 0
M  V30 3366 H 317.984 1.06977 -3.72337 0
M  V30 3367 H 318.398 -0.566518 -5.21432 0
M  V30 3368 H 319.872 1.1333 -5.40241 0
M  V30 3369 H 320.349 1.9686 -3.9261 0
M  V30 3370 H 320.955 0.326216 -4.24047 0
M  V30 3371 N 319.27 1.56325 -0.20005 0
M  V30 3372 C 320.233 2.18084 0.705132 0
M  V30 3373 C 321.233 1.13666 1.1374 0
M  V30 3374 O 322.423 1.39023 1.04968 0
M  V30 3375 C 319.555 2.78689 1.96329 0
M  V30 3376 H 320.748 2.99435 0.167023 0
M  V30 3377 H 318.301 1.56221 0.0495725 0
M  V30 3378 H 319.036 2.0115 2.5438 0
M  V30 3379 H 318.821 3.55133 1.66202 0
M  V30 3380 H 320.311 3.26096 2.60866 0
M  V30 3381 N 320.748 -0.0735177 1.57428 0
M  V30 3382 C 322.164 -0.428264 1.53747 0
M  V30 3383 C 322.364 -1.79272 0.91998 0
M  V30 3384 O 321.42 -2.47051 0.521745 0
M  V30 3385 C 322.733 -0.370914 2.98404 0
M  V30 3386 C 324.281 -0.451224 3.0973 0
M  V30 3387 C 324.756 -0.4238 4.56035 0
M  V30 3388 N 326.247 -0.483925 4.60665 0
M  V30 3389 C 326.982 -0.484891 5.71346 0
M  V30 3390 N 326.478 -0.440775 6.91396 0
M  V30 3391 N 328.271 -0.531319 5.59583 0
M  V30 3392 H 320.422 0.819949 1.95935 0
M  V30 3393 H 322.685 0.307493 0.896745 0
M  V30 3394 H 322.391 0.564956 3.47133 0
M  V30 3395 H 322.265 -1.18176 3.5821 0
M  V30 3396 H 324.652 -1.37752 2.60976 0
M  V30 3397 H 324.733 0.388167 2.52838 0
M  V30 3398 H 324.377 0.498638 5.05446 0
M  V30 3399 H 324.307 -1.2807 5.10789 0
M  V30 3400 H 326.798 -0.522338 3.74273 0
M  V30 3401 H 327.111 -0.44539 7.71515 0
M  V30 3402 H 325.456 -0.40749 6.93804 0
M  V30 3403 H 328.647 -0.563464 4.64696 0
M  V30 3404 H 328.82 -0.528603 6.4584 0
M  V30 3405 N 322.226 -1.5378 -0.344866 0
M  V30 3406 C 323.473 -1.70963 -1.08526 0
M  V30 3407 C 323.801 -0.472126 -1.88683 0
M  V30 3408 O 323.056 0.546116 -1.87926 0
M  V30 3409 C 323.355 -2.92407 -2.05506 0
M  V30 3410 C 323.021 -4.28066 -1.41671 0
M  V30 3411 C 321.683 -4.64951 -1.2399 0
M  V30 3412 C 324.035 -5.12344 -0.956726 0
M  V30 3413 C 321.363 -5.83733 -0.589277 0
M  V30 3414 C 323.715 -6.3179 -0.320015 0
M  V30 3415 C 322.379 -6.67372 -0.130881 0
M  V30 3416 H 321.649 -0.625598 -0.397124 0
M  V30 3417 H 324.296 -1.87995 -0.36469 0
M  V30 3418 H 322.601 -2.69973 -2.8394 0
M  V30 3419 H 324.298 -3.02895 -2.62784 0
M  V30 3420 H 320.888 -3.99034 -1.56429 0
M  V30 3421 H 325.072 -4.8438 -1.08118 0
M  V30 3422 H 320.328 -6.09877 -0.431344 0
M  V30 3423 H 324.502 -6.96386 0.0445072 0
M  V30 3424 H 322.129 -7.59273 0.375318 0
M  V30 3425 N 323.704 0.605807 -1.45491 0
M  V30 3426 C 325.12 0.926751 -1.29936 0
M  V30 3427 C 325.32 1.99896 -0.253706 0
M  V30 3428 O 324.376 2.50038 0.351737 0
M  V30 3429 C 325.689 1.36599 -2.67883 0
M  V30 3430 C 327.237 1.4801 -2.75793 0
M  V30 3431 C 327.712 1.95309 -4.14268 0
M  V30 3432 N 329.203 2.0254 -4.16571 0
M  V30 3433 C 329.938 2.40363 -5.20589 0
M  V30 3434 N 329.434 2.77143 -6.34952 0
M  V30 3435 N 331.227 2.40718 -5.07948 0
M  V30 3436 H 323.378 -0.102862 -2.12151 0
M  V30 3437 H 325.641 0.016639 -0.947854 0
M  V30 3438 H 325.347 0.652306 -3.45598 0
M  V30 3439 H 325.221 2.33215 -2.96463 0
M  V30 3440 H 327.608 2.1847 -1.98381 0
M  V30 3441 H 327.689 0.497041 -2.50925 0
M  V30 3442 H 327.333 1.25436 -4.92167 0
M  V30 3443 H 327.263 2.94532 -4.3653 0
M  V30 3444 H 329.754 1.76699 -3.34045 0
M  V30 3445 H 330.067 3.0489 -7.10114 0
M  V30 3446 H 328.412 2.74834 -6.3835 0
M  V30 3447 H 331.603 2.11392 -4.1765 0
M  V30 3448 H 331.776 2.69869 -5.89131 0
M  V30 3449 N 325.182 1.32811 0.848464 0
M  V30 3450 C 326.429 1.23724 1.60308 0
M  V30 3451 C 326.757 -0.1994 1.93475 0
M  V30 3452 O 326.012 -1.15406 1.5805 0
M  V30 3453 C 326.311 2.04831 2.92881 0
M  V30 3454 C 325.977 3.54125 2.79117 0
M  V30 3455 C 324.639 3.94829 2.7507 0
M  V30 3456 C 326.991 4.49036 2.64606 0
M  V30 3457 C 324.319 5.28675 2.544 0
M  V30 3458 C 326.671 5.83033 2.4547 0
M  V30 3459 C 325.335 6.22931 2.39819 0
M  V30 3460 H 324.605 0.452737 0.586609 0
M  V30 3461 H 327.252 1.64301 0.983743 0
M  V30 3462 H 325.557 1.57001 3.58968 0
M  V30 3463 H 327.254 1.95164 3.50303 0
M  V30 3464 H 323.844 3.21801 2.83094 0
M  V30 3465 H 328.028 4.18505 2.66772 0
M  V30 3466 H 323.284 5.58637 2.48465 0
M  V30 3467 H 327.458 6.56186 2.33222 0
M  V30 3468 H 325.085 7.26584 2.23562 0
M  V30 3469 N 326.66 -1.06551 1.16123 0
M  V30 3470 C 327.59 -2.15935 0.88851 0
M  V30 3471 C 328.571 -1.69306 -0.164135 0
M  V30 3472 O 329.756 -1.94193 -0.0167857 0
M  V30 3473 C 326.886 -3.45149 0.385942 0
M  V30 3474 C 325.84 -4.05271 1.3762 0
M  V30 3475 C 325.166 -5.29664 0.732137 0
M  V30 3476 C 326.466 -4.44355 2.74493 0
M  V30 3477 H 328.16 -2.39006 1.80323 0
M  V30 3478 H 325.706 -1.14866 0.868435 0
M  V30 3479 H 327.659 -4.21004 0.182647 0
M  V30 3480 H 326.383 -3.21689 -0.564274 0
M  V30 3481 H 325.042 -3.3147 1.56599 0
M  V30 3482 H 324.69 -5.02499 -0.224483 0
M  V30 3483 H 324.39 -5.70848 1.39307 0
M  V30 3484 H 325.914 -6.08218 0.538802 0
M  V30 3485 H 327.328 -5.11303 2.59311 0
M  V30 3486 H 325.725 -4.96515 3.37035 0
M  V30 3487 H 326.795 -3.55339 3.29943 0
M  V30 3488 N 328.138 -0.959301 -1.25041 0
M  V30 3489 C 329.387 -0.612254 -1.92183 0
M  V30 3490 C 329.7 0.855347 -1.75907 0
M  V30 3491 O 330.906 1.31256 -2.37664 0
M  V30 3492 C 329.362 -1.04435 -3.44414 0
M  V30 3493 C 328.97 -2.53482 -3.69393 0
M  V30 3494 C 330.714 -0.770055 -4.17457 0
M  V30 3495 C 328.621 -2.90468 -5.15153 0
M  V30 3496 H 327.551 -0.225279 -0.719559 0
M  V30 3497 H 330.202 -1.16438 -1.41825 0
M  V30 3498 H 328.584 -0.4206 -3.9376 0
M  V30 3499 H 329.758 -3.20916 -3.30681 0
M  V30 3500 H 328.073 -2.78432 -3.0962 0
M  V30 3501 H 330.67 -1.02249 -5.24832 0
M  V30 3502 H 331.013 0.293611 -4.15263 0
M  V30 3503 H 331.546 -1.35437 -3.74034 0
M  V30 3504 H 328.285 -3.95871 -5.22462 0
M  V30 3505 H 327.805 -2.27711 -5.54894 0
M  V30 3506 H 329.484 -2.79914 -5.83315 0
M  V30 3507 N 329.616 1.39756 -0.72842 0
M  V30 3508 C 330.864 2.00248 -0.272946 0
M  V30 3509 C 331.185 1.58077 1.14178 0
M  V30 3510 O 330.455 0.826014 1.77634 0
M  V30 3511 H 329.035 0.740554 -0.0979247 0
M  V30 3512 H 331.697 1.70903 -0.936912 0
M  V30 3513 H 330.793 3.10495 -0.316142 0
M  V30 3514 N 331.094 0.475555 1.50254 0
M  V30 3515 C 332.026 -0.352649 2.26471 0
M  V30 3516 C 333.039 -0.953165 1.3198 0
M  V30 3517 O 334.228 -0.840815 1.57457 0
M  V30 3518 C 331.328 -1.50902 3.0345 0
M  V30 3519 C 330.501 -1.02047 4.25329 0
M  V30 3520 C 329.56 -2.05142 4.84565 0
M  V30 3521 O 328.586 -1.63023 5.45355 0
M  V30 3522 N 329.788 -3.37987 4.71959 0
M  V30 3523 H 332.553 0.300767 2.98187 0
M  V30 3524 H 330.114 0.306598 1.5897 0
M  V30 3525 H 332.106 -2.19572 3.39956 0
M  V30 3526 H 330.676 -2.06705 2.34504 0
M  V30 3527 H 329.896 -0.159507 3.93877 0
M  V30 3528 H 331.184 -0.672061 5.04342 0
M  V30 3529 H 330.582 -3.74913 4.23623 0
M  V30 3530 H 329.139 -4.02443 5.12721 0
M  V30 3531 N 332.573 -1.56217 0.208337 0
M  V30 3532 C 333.52 -2.19699 -0.707192 0
M  V30 3533 C 334.49 -1.14836 -1.20008 0
M  V30 3534 O 335.675 -1.4314 -1.26157 0
M  V30 3535 C 332.815 -2.87061 -1.91546 0
M  V30 3536 C 331.928 -4.06483 -1.46271 0
M  V30 3537 C 331.063 -4.61665 -2.62752 0
M  V30 3538 C 330.102 -5.73417 -2.14147 0
M  V30 3539 N 329.239 -6.22948 -3.23853 0
M  V30 3540 H 334.079 -2.97575 -0.159111 0
M  V30 3541 H 331.616 -1.46948 -0.0667874 0
M  V30 3542 H 333.574 -3.24294 -2.62468 0
M  V30 3543 H 332.204 -2.11725 -2.43664 0
M  V30 3544 H 331.256 -3.74825 -0.648886 0
M  V30 3545 H 332.568 -4.87271 -1.06622 0
M  V30 3546 H 331.722 -5.01272 -3.41776 0
M  V30 3547 H 330.461 -3.80013 -3.05682 0
M  V30 3548 H 329.466 -5.33326 -1.33581 0
M  V30 3549 H 330.691 -6.56897 -1.72232 0
M  V30 3550 H 328.637 -5.44213 -3.6629 0
M  V30 3551 H 328.554 -6.98823 -2.88414 0
M  V30 3552 H 329.822 -6.6721 -4.03052 0
M  V30 3553 N 334.051 0.0651679 -1.57465 0
M  V30 3554 C 334.981 1.07693 -2.07182 0
M  V30 3555 C 335.962 1.39962 -0.966673 0
M  V30 3556 O 337.147 1.49475 -1.2398 0
M  V30 3557 C 334.277 2.3885 -2.52127 0
M  V30 3558 C 333.231 2.20917 -3.66579 0
M  V30 3559 C 332.557 3.57515 -3.97601 0
M  V30 3560 C 333.857 1.62493 -4.9638 0
M  V30 3561 H 335.551 0.663199 -2.91962 0
M  V30 3562 H 333.097 0.317569 -1.40455 0
M  V30 3563 H 335.05 3.09928 -2.85522 0
M  V30 3564 H 333.774 2.82215 -1.64384 0
M  V30 3565 H 332.433 1.52279 -3.33477 0
M  V30 3566 H 332.081 3.98463 -3.06979 0
M  V30 3567 H 331.781 3.46353 -4.74672 0
M  V30 3568 H 333.305 4.30013 -4.33499 0
M  V30 3569 H 334.719 2.23445 -5.27963 0
M  V30 3570 H 333.116 1.62009 -5.77818 0
M  V30 3571 H 334.186 0.587041 -4.81333 0
M  V30 3572 N 335.529 1.53961 0.336706 0
M  V30 3573 C 336.777 1.71197 1.07405 0
M  V30 3574 C 337.098 0.481475 1.88962 0
M  V30 3575 O 336.368 -0.504585 1.8929 0
M  V30 3576 H 334.948 0.631185 0.399517 0
M  V30 3577 H 337.61 1.91232 0.376323 0
M  V30 3578 H 336.706 2.58587 1.74755 0
M  V30 3579 N 337.007 -0.598083 1.45811 0
M  V30 3580 C 338.256 -1.35295 1.49594 0
M  V30 3581 C 338.569 -1.95057 0.145679 0
M  V30 3582 O 339.775 -2.71431 0.0612099 0
M  V30 3583 C 338.231 -2.45124 2.63519 0
M  V30 3584 C 337.839 -1.91732 4.04899 0
M  V30 3585 C 339.583 -3.2205 2.76558 0
M  V30 3586 C 337.49 -2.991 5.1019 0
M  V30 3587 H 336.42 -0.508552 0.556679 0
M  V30 3588 H 339.071 -0.639977 1.71978 0
M  V30 3589 H 337.453 -3.19149 2.34435 0
M  V30 3590 H 338.627 -1.24352 4.43704 0
M  V30 3591 H 336.942 -1.27522 3.96393 0
M  V30 3592 H 339.539 -4.0215 3.52391 0
M  V30 3593 H 339.882 -3.73663 1.83526 0
M  V30 3594 H 340.415 -2.55127 3.05213 0
M  V30 3595 H 337.154 -2.52393 6.04961 0
M  V30 3596 H 336.674 -3.65017 4.75944 0
M  V30 3597 H 338.353 -3.63318 5.35359 0
M  V30 3598 N 338.485 -1.33259 -0.841409 0
M  V30 3599 C 339.435 -1.19872 -1.93945 0
M  V30 3600 C 340.419 -0.102269 -1.60575 0
M  V30 3601 O 341.611 -0.330114 -1.73894 0
M  V30 3602 C 338.74 -0.937517 -3.30251 0
M  V30 3603 C 337.826 -2.07629 -3.69799 0
M  V30 3604 N 338.217 -3.32604 -3.81062 0
M  V30 3605 C 336.515 -1.98242 -3.9952 0
M  V30 3606 C 337.216 -4.07275 -4.15333 0
M  V30 3607 N 336.192 -3.35691 -4.27566 0
M  V30 3608 H 339.994 -2.14604 -2.00805 0
M  V30 3609 H 337.508 -1.2523 -1.03398 0
M  V30 3610 H 339.505 -0.822545 -4.08705 0
M  V30 3611 H 338.165 0.00128798 -3.247 0
M  V30 3612 H 339.176 -3.67382 -3.65035 0
M  V30 3613 H 335.853 -1.12005 -4.02195 0
M  V30 3614 H 337.243 -5.1511 -4.31406 0
M  V30 3615 N 339.963 1.05934 -1.16686 0
M  V30 3616 C 341.188 1.83029 -0.975455 0
M  V30 3617 C 341.613 1.82096 0.471452 0
M  V30 3618 O 340.971 1.22443 1.33706 0
M  V30 3619 C 341.019 3.27372 -1.51195 0
M  V30 3620 O 340.123 4.06054 -0.720701 0
M  V30 3621 H 339.464 0.566194 -0.346872 0
M  V30 3622 H 341.994 1.33541 -1.55009 0
M  V30 3623 H 342.004 3.78186 -1.53099 0
M  V30 3624 H 340.679 3.27366 -2.56523 0
M  V30 3625 H 339.256 3.64812 -0.772458 0
M  V30 3626 N 341.441 0.965919 1.2453 0
M  V30 3627 C 342.351 0.502154 2.29163 0
M  V30 3628 C 343.367 -0.436017 1.68448 0
M  V30 3629 O 344.543 -0.309497 1.99008 0
M  V30 3630 C 341.608 -0.201956 3.46111 0
M  V30 3631 C 340.669 0.775821 4.22232 0
M  V30 3632 C 339.902 0.105217 5.33596 0
M  V30 3633 O 340.125 -1.10683 5.59558 0
M  V30 3634 O 339.059 0.796475 5.96607 0
M  V30 3635 H 342.885 1.37194 2.70946 0
M  V30 3636 H 340.47 0.732875 1.30189 0
M  V30 3637 H 342.352 -0.597564 4.17142 0
M  V30 3638 H 341.027 -1.04673 3.06309 0
M  V30 3639 H 339.934 1.22185 3.53584 0
M  V30 3640 H 341.267 1.58896 4.65846 0
M  V30 3641 N 342.919 -1.39368 0.735821 0
M  V30 3642 C 344.144 -2.05319 0.293052 0
M  V30 3643 C 344.569 -1.55115 -1.064 0
M  V30 3644 O 343.927 -0.695261 -1.67439 0
M  V30 3645 C 343.975 -3.59305 0.305323 0
M  V30 3646 O 343.079 -4.06299 -0.706761 0
M  V30 3647 H 342.42 -0.650529 0.13307 0
M  V30 3648 H 344.95 -1.78386 1.00197 0
M  V30 3649 H 344.96 -4.07724 0.149997 0
M  V30 3650 H 343.635 -3.95207 1.29553 0
M  V30 3651 H 342.212 -3.69292 -0.517504 0
M  V30 3652 N 344.397 -0.483516 -1.5 0
M  V30 3653 C 345.637 0.0657469 -2.04294 0
M  V30 3654 C 346.001 1.35869 -1.35659 0
M  V30 3655 O 347.202 1.99111 -1.80578 0
M  V30 3656 C 345.473 0.232758 -3.56641 0
M  V30 3657 S 347.032 0.738788 -4.32536 0
M  V30 3658 H 343.85 0.0100755 -0.710929 0
M  V30 3659 H 346.452 -0.653494 -1.84254 0
M  V30 3660 H 345.156 -0.713847 -4.04144 0
M  V30 3661 H 344.687 0.977751 -3.81056 0
M  V30 3662 H 346.702 2.01048 -4.53645 0
M  V30 3663 N 345.875 1.56104 -0.216619 0
M  V30 3664 C 346.825 2.16703 0.708798 0
M  V30 3665 C 347.809 1.11392 1.16106 0
M  V30 3666 O 349.001 1.37395 1.11587 0
M  V30 3667 C 346.13 2.84666 1.91886 0
M  V30 3668 C 345.216 3.97195 1.48651 0
M  V30 3669 N 345.607 4.99959 0.766434 0
M  V30 3670 C 343.905 4.09193 1.77418 0
M  V30 3671 C 344.606 5.79126 0.546659 0
M  V30 3672 N 343.582 5.32315 1.10188 0
M  V30 3673 H 347.384 2.93516 0.150162 0
M  V30 3674 H 344.898 1.6239 -0.0176768 0
M  V30 3675 H 346.895 3.26486 2.59253 0
M  V30 3676 H 345.555 2.09347 2.48202 0
M  V30 3677 H 346.566 5.16197 0.419634 0
M  V30 3678 H 343.243 3.45021 2.35088 0
M  V30 3679 H 344.633 6.71895 -0.026103 0
M  V30 3680 N 347.353 -0.0568162 1.57498 0
M  V30 3681 C 348.601 -0.751617 1.87604 0
M  V30 3682 C 348.922 -1.77351 0.81066 0
M  V30 3683 O 348.192 -1.95254 -0.159018 0
M  V30 3684 H 346.772 -0.280583 0.692302 0
M  V30 3685 H 349.434 -0.0293483 1.94878 0
M  V30 3686 H 348.53 -1.25852 2.856 0
M  V30 3687 N 348.832 -1.54138 -0.328536 0
M  V30 3688 C 350.078 -1.73297 -1.06488 0
M  V30 3689 C 350.433 -0.497958 -1.85844 0
M  V30 3690 O 349.726 0.509591 -1.84699 0
M  V30 3691 C 349.92 -2.9457 -2.02393 0
M  V30 3692 C 349.749 -4.29747 -1.32467 0
M  V30 3693 C 348.519 -4.93987 -1.06324 0
M  V30 3694 C 350.717 -5.08903 -0.743137 0
M  V30 3695 N 348.699 -6.13005 -0.331359 0
M  V30 3696 C 350.07 -6.19836 -0.142602 0
M  V30 3697 C 352.125 -4.93699 -0.64546 0
M  V30 3698 C 350.828 -7.17224 0.546125 0
M  V30 3699 C 352.854 -5.91393 0.0295558 0
M  V30 3700 C 352.216 -7.01674 0.619056 0
M  V30 3701 H 348.315 -0.687017 -0.373539 0
M  V30 3702 H 350.899 -1.91589 -0.346659 0
M  V30 3703 H 349.07 -2.77752 -2.71493 0
M  V30 3704 H 350.802 -3.0238 -2.68977 0
M  V30 3705 H 347.557 -4.53824 -1.35428 0
M  V30 3706 H 347.981 -6.76997 0.0202939 0
M  V30 3707 H 352.623 -4.08589 -1.08695 0
M  V30 3708 H 350.341 -8.01896 0.999459 0
M  V30 3709 H 353.927 -5.81706 0.104705 0
M  V30 3710 H 352.807 -7.75971 1.13309 0
M  V30 3711 N 350.31 0.590341 -1.46126 0
M  V30 3712 C 351.559 1.34499 -1.50309 0
M  V30 3713 C 351.872 1.94977 -0.156021 0
M  V30 3714 O 353.078 2.71395 -0.0756037 0
M  V30 3715 C 351.534 2.43723 -2.64815 0
M  V30 3716 C 351.142 1.89582 -4.0591 0
M  V30 3717 C 352.886 3.20579 -2.78262 0
M  V30 3718 C 350.793 2.9639 -5.11769 0
M  V30 3719 H 349.723 0.505593 -0.559368 0
M  V30 3720 H 352.374 0.630848 -1.72315 0
M  V30 3721 H 350.756 3.17902 -2.36124 0
M  V30 3722 H 351.93 1.21997 -4.44357 0
M  V30 3723 H 350.245 1.25418 -3.97063 0
M  V30 3724 H 352.842 4.00276 -3.54519 0
M  V30 3725 H 353.185 3.72684 -1.85505 0
M  V30 3726 H 353.718 2.53505 -3.06562 0
M  V30 3727 H 350.457 2.49181 -6.06291 0
M  V30 3728 H 349.977 3.62487 -4.77873 0
M  V30 3729 H 351.656 3.60474 -5.37278 0
M  V30 3730 N 351.788 1.33704 0.83433 0
M  V30 3731 C 352.718 1.26967 1.95963 0
M  V30 3732 C 353.699 0.149337 1.69443 0
M  V30 3733 O 354.884 0.339852 1.91203 0
M  V30 3734 C 352.014 1.01275 3.32206 0
M  V30 3735 C 350.968 2.09652 3.73136 0
M  V30 3736 C 350.294 1.69166 5.07235 0
M  V30 3737 C 351.594 3.51372 3.86439 0
M  V30 3738 H 353.288 2.2112 2.01857 0
M  V30 3739 H 350.834 1.06447 0.969793 0
M  V30 3740 H 352.787 0.952106 4.10503 0
M  V30 3741 H 351.511 0.0356203 3.26581 0
M  V30 3742 H 350.17 2.14766 2.97104 0
M  V30 3743 H 349.818 0.701437 4.98085 0
M  V30 3744 H 349.518 2.41694 5.35591 0
M  V30 3745 H 351.042 1.64576 5.88003 0
M  V30 3746 H 352.456 3.48734 4.55036 0
M  V30 3747 H 350.853 4.22425 4.26236 0
M  V30 3748 H 351.923 3.89546 2.88759 0
M  V30 3749 N 353.266 -1.05314 1.17247 0
M  V30 3750 C 354.514 -1.77941 0.958194 0
M  V30 3751 C 354.835 -1.88089 -0.514556 0
M  V30 3752 O 354.105 -1.39676 -1.37359 0
M  V30 3753 H 352.685 -0.659116 0.351533 0
M  V30 3754 H 355.347 -1.27166 1.47699 0
M  V30 3755 H 354.443 -2.79663 1.38546 0
M  V30 3756 N 354.744 -0.972509 -1.24016 0
M  V30 3757 C 355.654 -0.5143 -2.28893 0
M  V30 3758 C 356.67 0.427078 -1.68677 0
M  V30 3759 O 357.846 0.298939 -1.99169 0
M  V30 3760 C 354.911 0.183598 -3.46214 0
M  V30 3761 C 353.972 -0.798202 -4.21814 0
M  V30 3762 C 353.205 -0.133514 -5.33533 0
M  V30 3763 O 353.428 1.07714 -5.60137 0
M  V30 3764 O 352.362 -0.828103 -5.96176 0
M  V30 3765 H 356.188 -1.38629 -2.70214 0
M  V30 3766 H 353.773 -0.739769 -1.29799 0
M  V30 3767 H 355.655 0.575433 -4.17453 0
M  V30 3768 H 354.33 1.03048 -3.0686 0
M  V30 3769 H 353.237 -1.24059 -3.52931 0
M  V30 3770 H 354.57 -1.61364 -4.64997 0
M  V30 3771 N 356.222 1.38976 -0.743202 0
M  V30 3772 C 357.172 2.27843 -0.084513 0
M  V30 3773 C 358.156 1.44677 0.704094 0
M  V30 3774 O 359.348 1.67511 0.571755 0
M  V30 3775 C 356.477 3.33466 0.815781 0
M  V30 3776 C 355.563 4.24095 0.0208844 0
M  V30 3777 N 355.954 4.95609 -1.0102 0
M  V30 3778 C 354.252 4.45303 0.249293 0
M  V30 3779 C 354.953 5.62287 -1.49024 0
M  V30 3780 N 353.929 5.37571 -0.807377 0
M  V30 3781 H 357.731 2.80593 -0.87436 0
M  V30 3782 H 355.245 1.51755 -0.578283 0
M  V30 3783 H 357.242 3.96008 1.30321 0
M  V30 3784 H 355.902 2.82276 1.6047 0
M  V30 3785 H 356.913 4.98849 -1.39176 0
M  V30 3786 H 353.59 4.0504 1.01237 0
M  V30 3787 H 354.98 6.29519 -2.34853 0
M  V30 3788 N 357.7 0.491464 1.49741 0
M  V30 3789 C 358.948 -0.0563141 2.02022 0
M  V30 3790 C 359.269 -1.38363 1.37407 0
M  V30 3791 O 358.539 -1.88702 0.526166 0
M  V30 3792 H 357.119 -0.0238014 0.746621 0
M  V30 3793 H 359.781 0.646533 1.83864 0
M  V30 3794 H 358.877 -0.192967 3.11503 0
M  V30 3795 N 359.178 -1.55987 0.224894 0
M  V30 3796 C 360.455 -1.90232 -0.455083 0
M  V30 3797 C 360.835 -1.14269 -1.77499 0
M  V30 3798 O 360.183 -0.253079 -2.27094 0
M  V30 3799 C 360.393 -3.42993 -0.644758 0
M  V30 3800 C 361.741 -4.13821 -0.950669 0
M  V30 3801 O 362.765 -3.4861 -0.731423 0
M  V30 3802 O 361.624 -5.29128 -1.36695 0
M  V30 3803 H 358.718 -0.79108 -0.241084 0
M  V30 3804 H 361.264 -1.67581 0.267327 0
M  V30 3805 H 360.036 -3.90252 0.28613 0
M  V30 3806 H 359.659 -3.71434 -1.41853 0
M  V30 3807 N 360.656 0.0484629 -1.57525 0
M  V30 3808 C 361.881 0.759177 -1.93006 0
M  V30 3809 C 362.306 1.69125 -0.823317 0
M  V30 3810 O 361.664 1.79931 0.222364 0
M  V30 3811 C 361.712 1.50899 -3.27509 0
M  V30 3812 O 360.816 2.62112 -3.18388 0
M  V30 3813 H 360.157 0.205564 -0.631379 0
M  V30 3814 H 362.687 0.00972959 -2.04598 0
M  V30 3815 H 362.697 1.88317 -3.6194 0
M  V30 3816 H 361.372 0.825269 -4.0763 0
M  V30 3817 H 359.949 2.27379 -2.95556 0
M  V30 3818 N 362.134 1.5431 0.320358 0
M  V30 3819 C 363.359 1.76954 1.08175 0
M  V30 3820 C 363.784 0.518193 1.80821 0
M  V30 3821 O 363.142 -0.530411 1.73368 0
M  V30 3822 C 363.19 2.96451 2.05303 0
M  V30 3823 O 362.294 2.68221 3.13259 0
M  V30 3824 H 361.635 0.586275 0.311733 0
M  V30 3825 H 364.165 2.01342 0.363676 0
M  V30 3826 H 364.175 3.23887 2.48116 0
M  V30 3827 H 362.85 3.87196 1.51829 0
M  V30 3828 H 361.427 2.51744 2.75099 0
M  V30 3829 N 363.613 -0.582584 1.46437 0
M  V30 3830 C 364.859 -1.34278 1.51978 0
M  V30 3831 C 365.192 -1.93446 0.170973 0
M  V30 3832 O 364.467 -1.76481 -0.817608 0
M  V30 3833 C 364.75 -2.47203 2.61845 0
M  V30 3834 C 364.603 -1.93069 4.06257 0
M  V30 3835 C 365.922 -3.49247 2.67795 0
M  V30 3836 H 363.041 -0.486876 0.553282 0
M  V30 3837 H 365.683 -0.654437 1.78374 0
M  V30 3838 H 363.833 -3.0592 2.39469 0
M  V30 3839 H 365.505 -1.38808 4.3992 0
M  V30 3840 H 363.748 -1.23898 4.1573 0
M  V30 3841 H 364.419 -2.74586 4.7886 0
M  V30 3842 H 366.895 -3.00411 2.8791 0
M  V30 3843 H 365.771 -4.25719 3.46489 0
M  V30 3844 H 366.032 -4.06482 1.73852 0
M  V30 3845 N 365.091 -1.34144 -0.827227 0
M  V30 3846 C 366.502 -1.23557 -1.39966 0
M  V30 3847 C 366.853 0.140731 -1.95695 0
M  V30 3848 O 365.978 1.04087 -1.89723 0
M  V30 3849 C 366.573 -2.23708 -2.54441 0
M  V30 3850 C 365.132 -2.16924 -3.07605 0
M  V30 3851 C 364.279 -2.10549 -1.80456 0
M  V30 3852 H 367.23 -1.45573 -0.631991 0
M  V30 3853 H 367.251 -1.85157 -3.32411 0
M  V30 3854 H 366.763 -3.23866 -2.13851 0
M  V30 3855 H 364.864 -1.20107 -3.52711 0
M  V30 3856 H 364.977 -3.07988 -3.66988 0
M  V30 3857 H 363.341 -1.56203 -2.01178 0
M  V30 3858 H 364.124 -3.12535 -1.42046 0
M  V30 3859 N 366.569 1.04691 -1.17803 0
M  V30 3860 C 367.815 1.78045 -0.970969 0
M  V30 3861 C 368.148 1.87686 0.498751 0
M  V30 3862 O 367.423 1.38035 1.37027 0
M  V30 3863 C 367.706 3.2166 -1.61884 0
M  V30 3864 C 367.559 3.20001 -3.161 0
M  V30 3865 C 368.878 4.1962 -1.3269 0
M  V30 3866 H 365.997 0.64633 -0.354155 0
M  V30 3867 H 368.639 1.22333 -1.45378 0
M  V30 3868 H 366.789 3.69232 -1.20831 0
M  V30 3869 H 368.461 2.80467 -3.66246 0
M  V30 3870 H 366.704 2.58203 -3.48588 0
M  V30 3871 H 367.375 4.21386 -3.56564 0
M  V30 3872 H 369.851 3.80567 -1.68249 0
M  V30 3873 H 368.727 5.18339 -1.80599 0
M  V30 3874 H 368.988 4.414 -0.248622 0
M  V30 3875 N 368.047 0.979072 1.23499 0
M  V30 3876 C 369.293 0.6578 1.9247 0
M  V30 3877 C 369.648 -0.799746 1.74991 0
M  V30 3878 O 368.941 -1.56922 1.09937 0
M  V30 3879 C 369.135 0.981932 3.43646 0
M  V30 3880 C 368.964 2.46944 3.75831 0
M  V30 3881 C 367.734 3.13119 3.96591 0
M  V30 3882 C 369.932 3.45006 3.81412 0
M  V30 3883 N 367.914 4.51489 4.15969 0
M  V30 3884 C 369.285 4.68778 4.05768 0
M  V30 3885 C 371.34 3.39505 3.64198 0
M  V30 3886 C 370.043 5.87723 4.14697 0
M  V30 3887 C 372.069 4.57814 3.7438 0
M  V30 3888 C 371.431 5.80381 3.99171 0
M  V30 3889 H 367.53 0.291746 0.72554 0
M  V30 3890 H 370.114 1.25626 1.48749 0
M  V30 3891 H 368.285 0.412179 3.86207 0
M  V30 3892 H 370.017 0.618068 3.99953 0
M  V30 3893 H 366.772 2.63619 3.93449 0
M  V30 3894 H 367.196 5.23221 4.29615 0
M  V30 3895 H 371.838 2.45773 3.44029 0
M  V30 3896 H 369.556 6.81874 4.33675 0
M  V30 3897 H 373.142 4.55132 3.62417 0
M  V30 3898 H 372.022 6.70398 4.06861 0
M  V30 3899 N 369.525 -1.3858 0.750561 0
M  V30 3900 C 370.75 -2.04997 0.314812 0
M  V30 3901 C 371.175 -1.56235 -1.04749 0
M  V30 3902 O 370.533 -0.712981 -1.66692 0
M  V30 3903 C 370.581 -3.58961 0.343415 0
M  V30 3904 O 369.685 -4.07025 -0.663628 0
M  V30 3905 H 369.026 -0.649081 0.139962 0
M  V30 3906 H 371.556 -1.77313 1.02084 0
M  V30 3907 H 371.566 -4.07542 0.193233 0
M  V30 3908 H 370.241 -3.93811 1.33738 0
M  V30 3909 H 368.818 -3.6982 -0.478307 0
M  V30 3910 N 371.003 -0.499398 -1.49478 0
M  V30 3911 C 372.251 0.0455996 -2.02049 0
M  V30 3912 C 372.572 1.37633 -1.38138 0
M  V30 3913 O 371.842 1.8842 -0.536166 0
M  V30 3914 H 370.422 0.0198416 -0.746736 0
M  V30 3915 H 373.084 -0.656274 -1.83519 0
M  V30 3916 H 372.18 0.176445 -3.11601 0
M  V30 3917 N 372.481 1.55866 -0.233164 0
M  V30 3918 C 373.727 1.98897 0.395959 0
M  V30 3919 C 374.06 1.12091 1.58585 0
M  V30 3920 O 373.335 0.181182 1.93654 0
M  V30 3921 C 373.618 3.50658 0.819224 0
M  V30 3922 C 373.471 4.48233 -0.375109 0
M  V30 3923 C 374.79 4.07135 1.67121 0
M  V30 3924 H 371.909 0.723102 0.142451 0
M  V30 3925 H 374.551 1.87082 -0.331725 0
M  V30 3926 H 372.701 3.60857 1.43925 0
M  V30 3927 H 374.373 4.50031 -1.01341 0
M  V30 3928 H 372.616 4.21624 -1.02058 0
M  V30 3929 H 373.287 5.51988 -0.0358328 0
M  V30 3930 H 375.763 3.99952 1.14795 0
M  V30 3931 H 374.639 5.13615 1.93625 0
M  V30 3932 H 374.9 3.54736 2.63846 0
M  V30 3933 N 373.959 -0.0401083 1.57549 0
M  V30 3934 C 374.907 -1.06264 2.06908 0
M  V30 3935 C 375.901 -1.38132 0.980608 0
M  V30 3936 O 377.107 -1.37167 1.16556 0
M  V30 3937 H 373.482 -0.360166 0.660139 0
M  V30 3938 H 375.453 -0.620445 2.91878 0
M  V30 3939 C 374.202 -2.35846 2.55483 0
M  V30 3940 H 373.525 -2.12183 3.38849 0
M  V30 3941 H 374.965 -3.05765 2.93741 0
M  V30 3942 C 373.424 -3.0404 1.45126 0
M  V30 3943 O 373.954 -3.93424 0.811216 0
M  V30 3944 N 372.16 -2.65184 1.18852 0
M  V30 3945 H 371.707 -1.92584 1.71083 0
M  V30 3946 H 371.665 -3.1113 0.452244 0
M  V30 3947 N 375.437 -1.54477 -0.31217 0
M  V30 3948 C 376.686 -1.72438 -1.04633 0
M  V30 3949 C 376.999 -0.511163 -1.88803 0
M  V30 3950 O 378.205 -0.572341 -2.65399 0
M  V30 3951 C 376.661 -3.05043 -1.9099 0
M  V30 3952 C 376.269 -4.33806 -1.11877 0
M  V30 3953 C 378.013 -3.32364 -2.64073 0
M  V30 3954 C 375.92 -5.57467 -1.97445 0
M  V30 3955 H 374.85 -0.642647 -0.394361 0
M  V30 3956 H 377.501 -1.80966 -0.303929 0
M  V30 3957 H 375.883 -2.90451 -2.69173 0
M  V30 3958 H 377.057 -4.59199 -0.383843 0
M  V30 3959 H 375.372 -4.13336 -0.504252 0
M  V30 3960 H 377.969 -4.21951 -3.28423 0
M  V30 3961 H 378.312 -2.50745 -3.32314 0
M  V30 3962 H 378.845 -3.47875 -1.92944 0
M  V30 3963 H 375.584 -6.41722 -1.33692 0
M  V30 3964 H 375.104 -5.36277 -2.6864 0
M  V30 3965 H 376.783 -5.94303 -2.5576 0
M  V30 3966 N 376.915 0.57481 -1.46744 0
M  V30 3967 C 377.878 1.66533 -1.57478 0
M  V30 3968 C 378.878 1.54338 -0.451263 0
M  V30 3969 O 380.068 1.58814 -0.715813 0
M  V30 3970 C 377.2 3.05999 -1.50259 0
M  V30 3971 H 378.393 1.58372 -2.54673 0
M  V30 3972 H 375.946 0.793301 -1.34672 0
M  V30 3973 H 376.681 3.19709 -0.543725 0
M  V30 3974 H 376.466 3.16259 -2.31781 0
M  V30 3975 H 377.956 3.8537 -1.60872 0
M  V30 3976 N 378.394 1.34581 0.820102 0
M  V30 3977 C 379.642 1.26845 1.57336 0
M  V30 3978 C 379.963 -0.160667 1.94337 0
M  V30 3979 O 379.233 -1.09396 1.6251 0
M  V30 3980 H 377.813 0.466514 0.583415 0
M  V30 3981 H 380.475 1.68526 0.979027 0
M  V30 3982 H 379.571 1.87513 2.4949 0
M  V30 3983 N 379.872 -1.04064 1.18357 0
M  V30 3984 C 381.118 -1.77528 0.980397 0
M  V30 3985 C 381.451 -1.87948 -0.48879 0
M  V30 3986 O 380.726 -1.3876 -1.36293 0
M  V30 3987 C 381.009 -3.20797 1.63588 0
M  V30 3988 C 380.862 -3.1832 3.17793 0
M  V30 3989 C 382.181 -4.18911 1.34914 0
M  V30 3990 H 379.3 -0.644443 0.357578 0
M  V30 3991 H 381.942 -1.2156 1.46024 0
M  V30 3992 H 380.092 -3.68586 1.22788 0
M  V30 3993 H 381.764 -2.78521 3.67728 0
M  V30 3994 H 380.007 -2.56351 3.49952 0
M  V30 3995 H 380.678 -4.19489 3.58794 0
M  V30 3996 H 383.154 -3.7967 1.70265 0
M  V30 3997 H 382.03 -5.17374 1.83346 0
M  V30 3998 H 382.291 -4.41262 0.272027 0
M  V30 3999 N 381.35 -0.985608 -1.22978 0
M  V30 4000 C 382.761 -0.693593 -1.73338 0
M  V30 4001 C 383.112 0.789935 -1.79595 0
M  V30 4002 O 382.237 1.61771 -1.43733 0
M  V30 4003 C 382.832 -1.25235 -3.14804 0
M  V30 4004 C 381.391 -1.00987 -3.626 0
M  V30 4005 C 380.538 -1.37695 -2.40698 0
M  V30 4006 H 383.489 -1.15884 -1.08428 0
M  V30 4007 H 383.51 -0.627329 -3.75293 0
M  V30 4008 H 383.022 -2.33209 -3.10218 0
M  V30 4009 H 381.123 0.0535565 -3.72562 0
M  V30 4010 H 381.236 -1.66812 -4.49122 0
M  V30 4011 H 379.6 -0.795459 -2.4196 0
M  V30 4012 H 380.383 -2.46657 -2.38779 0
M  V30 4013 N 382.828 1.3818 -0.7579 0
M  V30 4014 C 383.758 2.33027 -0.148597 0
M  V30 4015 C 384.739 1.55085 0.69875 0
M  V30 4016 O 385.924 1.83384 0.639053 0
M  V30 4017 C 383.054 3.3928 0.742034 0
M  V30 4018 C 382.008 4.28 -0.00291946 0
M  V30 4019 C 381.334 5.25146 1.00625 0
M  V30 4020 C 382.634 5.08938 -1.17385 0
M  V30 4021 H 384.328 2.84231 -0.940909 0
M  V30 4022 H 381.874 1.36659 -0.453908 0
M  V30 4023 H 383.827 4.046 1.17799 0
M  V30 4024 H 382.551 2.86569 1.56671 0
M  V30 4025 H 381.21 3.64192 -0.419504 0
M  V30 4026 H 380.858 4.68721 1.8251 0
M  V30 4027 H 380.558 5.85361 0.512428 0
M  V30 4028 H 382.082 5.93342 1.44143 0
M  V30 4029 H 383.496 5.67474 -0.815224 0
M  V30 4030 H 381.893 5.7841 -1.59882 0
M  V30 4031 H 382.963 4.42424 -1.98468 0
M  V30 4032 N 384.306 0.507319 1.49211 0
M  V30 4033 C 385.253 -0.267728 2.29242 0
M  V30 4034 C 386.223 -0.954609 1.35928 0
M  V30 4035 O 387.408 -0.960046 1.64887 0
M  V30 4036 C 384.548 -1.32243 3.18756 0
M  V30 4037 C 383.661 -0.64669 4.27132 0
M  V30 4038 C 382.796 -1.68238 5.03855 0
M  V30 4039 C 381.835 -0.98885 6.0406 0
M  V30 4040 N 380.972 -1.96903 6.73924 0
M  V30 4041 H 385.812 0.420968 2.95012 0
M  V30 4042 H 383.349 0.219443 1.45454 0
M  V30 4043 H 385.307 -1.94599 3.69036 0
M  V30 4044 H 383.937 -1.97981 2.54958 0
M  V30 4045 H 382.989 0.0902926 3.80293 0
M  V30 4046 H 384.301 -0.101058 4.98698 0
M  V30 4047 H 383.455 -2.38081 5.58034 0
M  V30 4048 H 382.194 -2.26187 4.32077 0
M  V30 4049 H 381.199 -0.276222 5.49106 0
M  V30 4050 H 382.424 -0.415767 6.77826 0
M  V30 4051 H 380.37 -2.53803 6.04913 0
M  V30 4052 H 380.287 -1.47423 7.41487 0
M  V30 4053 H 381.555 -2.66015 7.32705 0
M  V30 4054 N 385.784 -1.5574 0.241426 0
M  V30 4055 C 387.061 -1.90704 -0.434881 0
M  V30 4056 C 387.441 -1.16145 -1.76277 0
M  V30 4057 O 386.789 -0.277152 -2.26813 0
M  V30 4058 C 386.999 -3.43657 -0.608343 0
M  V30 4059 C 388.347 -4.14806 -0.906725 0
M  V30 4060 O 389.371 -3.49366 -0.694408 0
M  V30 4061 O 388.23 -5.30548 -1.31075 0
M  V30 4062 H 385.324 -0.793592 -0.23268 0
M  V30 4063 H 387.87 -1.67288 0.285086 0
M  V30 4064 H 386.642 -3.89927 0.327505 0
M  V30 4065 H 386.265 -3.72918 -1.37906 0
M  V30 4066 N 387.262 0.0317525 -1.57568 0
M  V30 4067 C 388.192 1.03274 -2.0942 0
M  V30 4068 C 389.173 1.3788 -0.996143 0
M  V30 4069 O 390.358 1.46811 -1.27122 0
M  V30 4070 C 387.488 2.33448 -2.57137 0
M  V30 4071 C 386.442 2.13091 -3.71182 0
M  V30 4072 C 385.768 3.49001 -4.05095 0
M  V30 4073 C 387.068 1.51928 -4.99715 0
M  V30 4074 H 388.762 0.60112 -2.93303 0
M  V30 4075 H 386.308 0.287705 -1.41097 0
M  V30 4076 H 388.261 3.03802 -2.92032 0
M  V30 4077 H 386.985 2.78665 -1.70333 0
M  V30 4078 H 385.644 1.45171 -3.36632 0
M  V30 4079 H 385.292 3.91862 -3.15362 0
M  V30 4080 H 384.992 3.36207 -4.81911 0
M  V30 4081 H 386.516 4.20721 -4.42522 0
M  V30 4082 H 387.93 2.12196 -5.32584 0
M  V30 4083 H 386.327 1.49716 -5.81124 0
M  V30 4084 H 387.397 0.484811 -4.8247 0
M  V30 4085 N 388.74 1.54641 0.303973 0
M  V30 4086 C 389.688 1.86137 1.39484 0
M  V30 4087 C 390.682 0.734854 1.52631 0
M  V30 4088 O 391.888 0.918803 1.54784 0
M  V30 4089 H 388.263 0.590324 0.465856 0
M  V30 4090 H 390.234 2.77324 1.10154 0
M  V30 4091 C 388.983 2.12274 2.75382 0
M  V30 4092 H 388.306 2.98429 2.66046 0
M  V30 4093 H 389.746 2.38254 3.5073 0
M  V30 4094 C 388.205 0.920365 3.24085 0
M  V30 4095 O 388.735 0.139377 4.01458 0
M  V30 4096 N 386.941 0.726566 2.81371 0
M  V30 4097 H 386.488 1.36332 2.18567 0
M  V30 4098 H 386.446 -0.0763799 3.14307 0
M  V30 4099 N 390.218 -0.567019 1.47046 0
M  V30 4100 C 391.443 -1.3551 1.57009 0
M  V30 4101 C 391.868 -1.86841 0.217259 0
M  V30 4102 O 391.226 -1.62435 -0.805268 0
M  V30 4103 C 391.274 -2.50777 2.5912 0
M  V30 4104 O 390.378 -3.52706 2.13711 0
M  V30 4105 H 389.719 -0.402919 0.52778 0
M  V30 4106 H 392.249 -0.686241 1.92748 0
M  V30 4107 H 392.259 -2.97481 2.79229 0
M  V30 4108 H 390.934 -2.12771 3.57353 0
M  V30 4109 H 389.511 -3.12374 2.03659 0
M  V30 4110 N 391.696 -1.35014 -0.812953 0
M  V30 4111 C 392.973 -1.18502 -1.55617 0
M  V30 4112 C 393.353 0.238421 -2.09749 0
M  V30 4113 O 392.701 1.2411 -1.91857 0
M  V30 4114 C 392.911 -2.24783 -2.66971 0
M  V30 4115 C 394.259 -2.60268 -3.35478 0
M  V30 4116 O 395.283 -2.23648 -2.77236 0
M  V30 4117 O 394.142 -3.2321 -4.40678 0
M  V30 4118 H 391.236 -0.459984 -0.687272 0
M  V30 4119 H 393.782 -1.46677 -0.853464 0
M  V30 4120 H 392.554 -3.20284 -2.24798 0
M  V30 4121 H 392.177 -1.97841 -3.44884 0
M  V30 4122 N 393.175 1.03435 -1.18907 0
M  V30 4123 C 394.424 1.76143 -0.982669 0
M  V30 4124 C 394.737 1.89416 0.487953 0
M  V30 4125 O 395.943 2.59041 0.813036 0
M  V30 4126 C 394.399 3.16722 -1.70924 0
M  V30 4127 C 394.007 3.11522 -3.21959 0
M  V30 4128 C 395.751 3.93764 -1.58588 0
M  V30 4129 C 393.658 4.46999 -3.87228 0
M  V30 4130 H 392.588 0.660292 -0.364047 0
M  V30 4131 H 395.239 1.158 -1.42347 0
M  V30 4132 H 393.621 3.775 -1.19623 0
M  V30 4133 H 394.795 2.60158 -3.80335 0
M  V30 4134 H 393.11 2.47978 -3.34508 0
M  V30 4135 H 395.707 4.93963 -2.04707 0
M  V30 4136 H 396.05 4.12794 -0.539142 0
M  V30 4137 H 396.583 3.39576 -2.07203 0
M  V30 4138 H 393.322 4.33174 -4.91976 0
M  V30 4139 H 392.842 4.98441 -3.33642 0
M  V30 4140 H 394.521 5.15898 -3.90459 0
M  V30 4141 N 394.653 0.992116 1.22453 0
M  V30 4142 C 395.901 0.666215 1.90804 0
M  V30 4143 C 396.222 -0.804152 1.77647 0
M  V30 4144 O 395.492 -1.57629 1.16318 0
M  V30 4145 H 394.072 0.243423 0.706225 0
M  V30 4146 H 396.734 1.25845 1.48825 0
M  V30 4147 H 395.83 0.928069 2.97982 0
M  V30 4148 N 396.131 -1.37776 0.765217 0
M  V30 4149 C 397.359 -2.04124 0.337767 0
M  V30 4150 C 397.774 -1.57715 -1.03785 0
M  V30 4151 O 397.131 -0.755447 -1.6613 0
M  V30 4152 C 397.182 -3.59658 0.364442 0
M  V30 4153 O 396.903 -4.04367 1.68579 0
M  V30 4154 C 398.404 -4.43236 -0.0754221 0
M  V30 4155 H 395.624 -0.655696 0.142491 0
M  V30 4156 H 398.168 -1.76238 1.03732 0
M  V30 4157 H 396.323 -3.86339 -0.286471 0
M  V30 4158 H 396.737 -4.98857 1.61993 0
M  V30 4159 H 398.211 -5.52 -0.00560067 0
M  V30 4160 H 398.688 -4.2455 -1.12491 0
M  V30 4161 H 399.294 -4.21767 0.547055 0
M  V30 4162 N 397.609 -0.515225 -1.4894 0
M  V30 4163 C 398.886 0.0879088 -1.95402 0
M  V30 4164 C 399.266 1.52745 -1.45712 0
M  V30 4165 O 398.614 2.18238 -0.677093 0
M  V30 4166 C 398.824 -0.0141055 -3.48997 0
M  V30 4167 C 400.172 0.152646 -4.24326 0
M  V30 4168 O 401.196 0.0604025 -3.56149 0
M  V30 4169 O 400.055 0.34384 -5.45417 0
M  V30 4170 H 397.149 0.0874636 -0.822362 0
M  V30 4171 H 399.695 -0.578775 -1.59525 0
M  V30 4172 H 398.467 -1.01745 -3.77841 0
M  V30 4173 H 398.09 0.692091 -3.9153 0
M  V30 4174 N 399.087 1.5561 -0.249682 0
M  V30 4175 C 400.034 2.21496 0.648694 0
M  V30 4176 C 401.004 1.17977 1.16921 0
M  V30 4177 O 402.189 1.46434 1.22318 0
M  V30 4178 C 399.329 2.92039 1.83868 0
M  V30 4179 C 398.442 4.10219 1.35442 0
M  V30 4180 C 397.577 4.6847 2.50419 0
M  V30 4181 C 396.616 5.78893 1.98869 0
M  V30 4182 N 395.753 6.31315 3.07223 0
M  V30 4183 H 400.593 2.97892 0.0801582 0
M  V30 4184 H 398.13 1.47074 0.0278031 0
M  V30 4185 H 400.088 3.31138 2.53778 0
M  V30 4186 H 398.718 2.18111 2.37965 0
M  V30 4187 H 397.77 3.76413 0.54928 0
M  V30 4188 H 399.082 4.89927 0.936649 0
M  V30 4189 H 398.236 5.10158 3.28366 0
M  V30 4190 H 396.975 3.87984 2.95499 0
M  V30 4191 H 395.98 5.3668 1.19393 0
M  V30 4192 H 397.205 6.61232 1.54755 0
M  V30 4193 H 395.151 5.53733 3.51732 0
M  V30 4194 H 395.068 7.06224 2.69784 0
M  V30 4195 H 396.336 6.77662 3.8522 0
M  V30 4196 N 400.565 -0.0233959 1.57583 0
M  V30 4197 C 401.842 -0.748794 1.807 0
M  V30 4198 C 402.222 -1.9327 0.849106 0
M  V30 4199 O 401.57 -2.28247 -0.107468 0
M  V30 4200 C 401.78 -1.17651 3.28571 0
M  V30 4201 C 403.128 -1.59008 3.93702 0
M  V30 4202 O 404.152 -1.27094 3.32755 0
M  V30 4203 O 403.011 -2.18264 5.01022 0
M  V30 4204 H 400.105 -0.362578 0.743281 0
M  V30 4205 H 402.651 0.000261958 1.697 0
M  V30 4206 H 401.423 -0.331603 3.89892 0
M  V30 4207 H 401.046 -1.98541 3.44481 0
M  V30 4208 N 402.043 -1.548 -0.295768 0
M  V30 4209 C 403.454 -1.65274 -0.868411 0
M  V30 4210 C 403.805 -0.56481 -1.87894 0
M  V30 4211 O 402.93 0.29767 -2.14343 0
M  V30 4212 C 403.525 -2.99603 -1.58188 0
M  V30 4213 C 402.084 -3.12181 -2.10286 0
M  V30 4214 C 401.231 -2.6098 -0.93727 0
M  V30 4215 H 404.182 -1.58534 -0.0726422 0
M  V30 4216 H 404.203 -2.91319 -2.44772 0
M  V30 4217 H 403.715 -3.78764 -0.846151 0
M  V30 4218 H 401.816 -2.3775 -2.8689 0
M  V30 4219 H 401.929 -4.18415 -2.33379 0
M  V30 4220 H 400.293 -2.17564 -1.32431 0
M  V30 4221 H 401.076 -3.42623 -0.215414 0
M  V30 4222 N 403.521 0.559213 -1.47345 0
M  V30 4223 C 404.431 1.69388 -1.62311 0
M  V30 4224 C 405.447 1.6648 -0.505993 0
M  V30 4225 O 406.623 1.85964 -0.773262 0
M  V30 4226 C 403.688 3.05894 -1.63185 0
M  V30 4227 C 402.749 3.19885 -2.86307 0
M  V30 4228 C 401.982 4.49879 -2.87131 0
M  V30 4229 O 402.205 5.35217 -1.97229 0
M  V30 4230 O 401.139 4.67618 -3.78968 0
M  V30 4231 H 404.965 1.59706 -2.58317 0
M  V30 4232 H 402.55 0.728989 -1.30407 0
M  V30 4233 H 404.432 3.87133 -1.66451 0
M  V30 4234 H 403.107 3.15964 -0.70345 0
M  V30 4235 H 402.014 2.38052 -2.88587 0
M  V30 4236 H 403.347 3.14718 -3.78435 0
M  V30 4237 N 404.999 1.35443 0.805782 0
M  V30 4238 C 405.931 1.24285 1.92577 0
M  V30 4239 C 406.944 0.165962 1.61952 0
M  V30 4240 O 408.133 0.419303 1.73505 0
M  V30 4241 C 405.233 0.891272 3.2697 0
M  V30 4242 C 404.406 2.06669 3.85495 0
M  V30 4243 C 403.465 1.69077 4.98297 0
M  V30 4244 O 402.491 2.4096 5.15681 0
M  V30 4245 N 403.693 0.614869 5.77234 0
M  V30 4246 H 406.458 2.20777 2.02676 0
M  V30 4247 H 404.019 1.28623 0.983243 0
M  V30 4248 H 406.011 0.621256 3.99903 0
M  V30 4249 H 404.581 0.016004 3.12596 0
M  V30 4250 H 403.801 2.50046 3.04747 0
M  V30 4251 H 405.089 2.85237 4.21328 0
M  V30 4252 H 404.487 0.017648 5.65697 0
M  V30 4253 H 403.044 0.404636 6.50543 0
M  V30 4254 N 406.477 -1.02803 1.19454 0
M  V30 4255 C 407.723 -1.76598 1.0092 0
M  V30 4256 C 408.078 -1.86939 -0.455142 0
M  V30 4257 O 407.371 -1.37575 -1.33355 0
M  V30 4258 C 407.565 -3.18941 1.6128 0
M  V30 4259 C 407.394 -3.22476 3.13431 0
M  V30 4260 C 406.164 -3.30375 3.82336 0
M  V30 4261 C 408.362 -3.09451 4.10785 0
M  V30 4262 N 406.344 -3.23292 5.21877 0
M  V30 4263 C 407.715 -3.10012 5.36929 0
M  V30 4264 C 409.77 -2.93585 4.02135 0
M  V30 4265 C 408.473 -2.96334 6.55423 0
M  V30 4266 C 410.499 -2.81256 5.20239 0
M  V30 4267 C 409.861 -2.82472 6.45282 0
M  V30 4268 H 405.96 -0.657447 0.423424 0
M  V30 4269 H 408.544 -1.22369 1.5144 0
M  V30 4270 H 406.715 -3.71489 1.1336 0
M  V30 4271 H 408.447 -3.81102 1.36173 0
M  V30 4272 H 405.202 -3.3663 3.33132 0
M  V30 4273 H 405.626 -3.23156 5.94894 0
M  V30 4274 H 410.268 -2.91466 3.0628 0
M  V30 4275 H 407.986 -2.97203 7.51463 0
M  V30 4276 H 411.572 -2.70014 5.15348 0
M  V30 4277 H 410.452 -2.73036 7.35133 0
M  V30 4278 N 407.956 -0.998596 -1.21925 0
M  V30 4279 C 408.903 -0.553621 -2.24062 0
M  V30 4280 C 409.873 0.416999 -1.6078 0
M  V30 4281 O 411.058 0.320482 -1.88089 0
M  V30 4282 C 408.198 0.119959 -3.44891 0
M  V30 4283 C 407.311 -0.893077 -4.22668 0
M  V30 4284 C 406.446 -0.192424 -5.30851 0
M  V30 4285 C 405.485 -1.19344 -6.00353 0
M  V30 4286 N 404.622 -0.520707 -7.00166 0
M  V30 4287 H 409.462 -1.4293 -2.61486 0
M  V30 4288 H 406.999 -0.715838 -1.28507 0
M  V30 4289 H 408.957 0.527459 -4.13852 0
M  V30 4290 H 407.587 0.959389 -3.08214 0
M  V30 4291 H 406.639 -1.41886 -3.52948 0
M  V30 4292 H 407.951 -1.65512 -4.70539 0
M  V30 4293 H 407.105 0.271515 -6.06092 0
M  V30 4294 H 405.844 0.602075 -4.83969 0
M  V30 4295 H 404.849 -1.66795 -5.23889 0
M  V30 4296 H 406.074 -1.98891 -6.49322 0
M  V30 4297 H 404.02 0.254252 -6.55507 0
M  V30 4298 H 403.937 -1.2211 -7.46073 0
M  V30 4299 H 405.205 -0.0797596 -7.79459 0
M  V30 4300 N 409.434 1.37368 -0.772513 0
M  V30 4301 C 410.382 2.32134 -0.147111 0
M  V30 4302 C 411.376 1.54972 0.684106 0
M  V30 4303 O 412.582 1.70363 0.581083 0
M  V30 4304 H 408.957 0.751449 -0.028786 0
M  V30 4305 H 410.928 2.82464 -0.962112 0
M  V30 4306 C 409.677 3.40226 0.71703 0
M  V30 4307 H 409 3.99706 0.0867951 0
M  V30 4308 H 410.44 4.08897 1.12159 0
M  V30 4309 C 408.899 2.80372 1.86797 0
M  V30 4310 O 409.429 2.71183 2.96349 0
M  V30 4311 N 407.635 2.37904 1.66883 0
M  V30 4312 H 407.182 2.45578 0.777759 0
M  V30 4313 H 407.14 1.98202 2.44056 0
M  V30 4314 N 410.912 0.523116 1.48665 0
M  V30 4315 C 412.158 -0.0134963 2.02796 0
M  V30 4316 C 412.491 -1.34582 1.40004 0
M  V30 4317 O 411.766 -1.86756 0.543381 0
M  V30 4318 C 412.049 -0.14276 3.59817 0
M  V30 4319 C 411.902 1.21425 4.331 0
M  V30 4320 C 413.221 -0.872856 4.31357 0
M  V30 4321 H 410.34 -0.00343074 0.736992 0
M  V30 4322 H 412.982 0.678816 1.7746 0
M  V30 4323 H 411.132 -0.732401 3.81534 0
M  V30 4324 H 412.804 1.84447 4.2282 0
M  V30 4325 H 411.047 1.79791 3.94788 0
M  V30 4326 H 411.718 1.07687 5.41394 0
M  V30 4327 H 414.194 -0.372555 4.14429 0
M  V30 4328 H 413.07 -0.932185 5.40927 0
M  V30 4329 H 413.331 -1.92161 3.98154 0
M  V30 4330 N 412.39 -1.55475 0.257931 0
M  V30 4331 C 413.34 -2.18506 -0.651094 0
M  V30 4332 C 414.324 -1.14431 -1.13112 0
M  V30 4333 O 415.516 -1.40305 -1.07905 0
M  V30 4334 C 412.645 -2.89653 -1.84272 0
M  V30 4335 C 411.731 -4.00996 -1.38068 0
M  V30 4336 N 412.122 -5.01816 -0.633609 0
M  V30 4337 C 410.42 -4.13753 -1.66506 0
M  V30 4338 C 411.121 -5.80371 -0.392922 0
M  V30 4339 N 410.097 -5.3505 -0.960359 0
M  V30 4340 H 413.899 -2.93811 -0.0722883 0
M  V30 4341 H 411.413 -1.62286 0.0607256 0
M  V30 4342 H 413.41 -3.33245 -2.50506 0
M  V30 4343 H 412.07 -2.15854 -2.42564 0
M  V30 4344 H 413.081 -5.17128 -0.282626 0
M  V30 4345 H 409.758 -3.51133 -2.25858 0
M  V30 4346 H 411.148 -6.7159 0.204235 0
M  V30 4347 N 413.868 0.0150385 -1.57593 0
M  V30 4348 C 414.815 1.01126 -2.07466 0
M  V30 4349 C 415.785 1.35064 -0.966794 0
M  V30 4350 O 416.97 1.4516 -1.23827 0
M  V30 4351 C 414.11 2.30276 -2.57035 0
M  V30 4352 C 413.223 2.02373 -3.81666 0
M  V30 4353 C 412.358 3.25496 -4.19793 0
M  V30 4354 C 411.397 2.93211 -5.37303 0
M  V30 4355 N 410.534 4.08826 -5.70794 0
M  V30 4356 H 415.374 0.57901 -2.92321 0
M  V30 4357 H 412.911 0.27426 -1.44521 0
M  V30 4358 H 414.869 3.05757 -2.83846 0
M  V30 4359 H 413.499 2.71197 -1.75077 0
M  V30 4360 H 412.551 1.17327 -3.61854 0
M  V30 4361 H 413.863 1.74567 -4.67256 0
M  V30 4362 H 413.017 4.09333 -4.47807 0
M  V30 4363 H 411.756 3.56428 -3.32882 0
M  V30 4364 H 410.761 2.07777 -5.09027 0
M  V30 4365 H 411.986 2.63542 -6.25877 0
M  V30 4366 H 409.932 4.39682 -4.86842 0
M  V30 4367 H 409.849 3.84491 -6.50924 0
M  V30 4368 H 411.117 4.93496 -6.03392 0
M  V30 4369 N 415.346 1.54954 0.287554 0
M  V30 4370 C 416.256 1.8991 1.37736 0
M  V30 4371 C 417.272 0.794701 1.54792 0
M  V30 4372 O 418.448 1.09243 1.69198 0
M  V30 4373 C 415.513 2.15108 2.71899 0
M  V30 4374 C 414.574 3.38752 2.63715 0
M  V30 4375 C 413.807 3.62739 3.91479 0
M  V30 4376 O 414.03 2.89492 4.91478 0
M  V30 4377 O 412.964 4.56267 3.92561 0
M  V30 4378 H 416.79 2.82652 1.11092 0
M  V30 4379 H 414.375 1.41315 0.484807 0
M  V30 4380 H 416.257 2.32806 3.51254 0
M  V30 4381 H 414.932 1.25551 2.9836 0
M  V30 4382 H 413.839 3.26405 1.82786 0
M  V30 4383 H 415.172 4.28483 2.42205 0
M  V30 4384 N 416.824 -0.551391 1.4764 0
M  V30 4385 C 418.07 -1.31024 1.54792 0
M  V30 4386 C 418.403 -1.9304 0.211967 0
M  V30 4387 O 417.678 -1.78175 -0.77999 0
M  V30 4388 C 417.961 -2.41593 2.67029 0
M  V30 4389 C 417.814 -1.84408 4.10261 0
M  V30 4390 C 419.133 -3.43488 2.75143 0
M  V30 4391 H 416.252 -0.475031 0.563485 0
M  V30 4392 H 418.894 -0.616454 1.79722 0
M  V30 4393 H 417.044 -3.00772 2.45904 0
M  V30 4394 H 418.716 -1.29445 4.42766 0
M  V30 4395 H 416.959 -1.15051 4.18265 0
M  V30 4396 H 417.63 -2.64367 4.84576 0
M  V30 4397 H 420.106 -2.94236 2.94218 0
M  V30 4398 H 418.982 -4.18274 3.55441 0
M  V30 4399 H 419.243 -4.02703 1.82435 0
M  V30 4400 N 418.302 -1.35869 -0.798587 0
M  V30 4401 C 419.53 -1.32722 -1.58722 0
M  V30 4402 C 419.945 0.0935631 -1.88568 0
M  V30 4403 O 419.302 1.04784 -1.49421 0
M  V30 4404 C 419.353 -2.13974 -2.91371 0
M  V30 4405 O 419.074 -3.50514 -2.62815 0
M  V30 4406 C 420.575 -2.18504 -3.85708 0
M  V30 4407 H 417.795 -0.45562 -0.492596 0
M  V30 4408 H 420.339 -1.78837 -0.991843 0
M  V30 4409 H 418.494 -1.71438 -3.47402 0
M  V30 4410 H 418.908 -3.92806 -3.47568 0
M  V30 4411 H 420.382 -2.79732 -4.75872 0
M  V30 4412 H 420.859 -1.18597 -4.22885 0
M  V30 4413 H 421.465 -2.61236 -3.35612 0
M  V30 4414 N 419.78 1.02168 -1.19998 0
M  V30 4415 C 420.743 2.08765 -0.94604 0
M  V30 4416 C 421.743 1.60618 0.0763846 0
M  V30 4417 O 422.933 1.73472 -0.159135 0
M  V30 4418 C 420.065 3.38262 -0.423255 0
M  V30 4419 H 421.258 2.32726 -1.89153 0
M  V30 4420 H 418.811 1.1889 -1.01464 0
M  V30 4421 H 419.546 3.19974 0.527938 0
M  V30 4422 H 419.331 3.74532 -1.16053 0
M  V30 4423 H 420.821 4.16759 -0.264911 0
M  V30 4424 N 421.258 1.00505 1.21394 0
M  V30 4425 C 422.486 0.706609 1.9446 0
M  V30 4426 C 422.901 -0.73081 1.74082 0
M  V30 4427 O 422.258 -1.49446 1.04747 0
M  V30 4428 C 422.309 1.01824 3.46863 0
M  V30 4429 O 422.03 2.39919 3.66566 0
M  V30 4430 C 423.531 0.739216 4.37093 0
M  V30 4431 H 420.751 0.260394 0.618414 0
M  V30 4432 H 423.295 1.34311 1.54211 0
M  V30 4433 H 421.45 0.427343 3.85036 0
M  V30 4434 H 421.864 2.50784 4.6066 0
M  V30 4435 H 423.338 1.00744 5.42729 0
M  V30 4436 H 423.815 -0.326746 4.37983 0
M  V30 4437 H 424.421 1.31173 4.04566 0
M  V30 4438 N 422.737 -1.36956 0.779787 0
M  V30 4439 C 423.7 -2.2851 0.177662 0
M  V30 4440 C 424.7 -1.48393 -0.619377 0
M  V30 4441 O 425.89 -1.68505 -0.441785 0
M  V30 4442 C 423.022 -3.32428 -0.755279 0
M  V30 4443 H 424.215 -2.83269 0.984823 0
M  V30 4444 H 421.768 -1.46358 0.548544 0
M  V30 4445 H 422.503 -2.82808 -1.58714 0
M  V30 4446 H 422.288 -3.91659 -0.185817 0
M  V30 4447 H 423.778 -4.00824 -1.17174 0
M  V30 4448 N 424.215 -0.530993 -1.48385 0
M  V30 4449 C 425.445 -0.00133928 -2.066 0
M  V30 4450 C 425.853 1.28599 -1.38777 0
M  V30 4451 O 425.196 1.77599 -0.469495 0
M  V30 4452 C 425.258 0.292137 -3.58311 0
M  V30 4453 C 424.922 -0.901864 -4.48013 0
M  V30 4454 C 425.919 -1.80053 -4.87726 0
M  V30 4455 C 423.604 -1.10915 -4.89901 0
M  V30 4456 C 425.598 -2.89038 -5.68098 0
M  V30 4457 C 423.285 -2.20213 -5.70043 0
M  V30 4458 C 424.283 -3.09107 -6.0905 0
M  V30 4459 O 423.971 -4.16514 -6.87583 0
M  V30 4460 H 423.703 -0.0308475 -0.675296 0
M  V30 4461 H 426.257 -0.736335 -1.91748 0
M  V30 4462 H 424.487 1.08112 -3.7128 0
M  V30 4463 H 426.176 0.763994 -3.98645 0
M  V30 4464 H 426.942 -1.65234 -4.55986 0
M  V30 4465 H 422.821 -0.426498 -4.59023 0
M  V30 4466 H 426.365 -3.58451 -5.98464 0
M  V30 4467 H 422.262 -2.35016 -6.01197 0
M  V30 4468 H 423.03 -4.14237 -7.05939 0
M  V30 4469 N 425.693 1.55336 -0.266172 0
M  V30 4470 C 426.603 2.2583 0.635458 0
M  V30 4471 C 427.619 1.28106 1.17749 0
M  V30 4472 O 428.795 1.61024 1.20968 0
M  V30 4473 C 425.86 2.95879 1.80712 0
M  V30 4474 C 424.921 4.09059 1.30265 0
M  V30 4475 C 424.154 4.75759 2.41846 0
M  V30 4476 O 424.377 4.41622 3.61007 0
M  V30 4477 O 423.311 5.63888 2.1051 0
M  V30 4478 H 427.137 3.03631 0.0646693 0
M  V30 4479 H 424.722 1.49361 -0.0339177 0
M  V30 4480 H 426.604 3.39932 2.49047 0
M  V30 4481 H 425.279 2.21002 2.36516 0
M  V30 4482 H 424.186 3.69482 0.586019 0
M  V30 4483 H 425.519 4.85811 0.790458 0
M  V30 4484 N 427.171 -0.0066808 1.57599 0
M  V30 4485 C 428.42 -0.692078 1.89455 0
M  V30 4486 C 428.733 -1.75306 0.867586 0
M  V30 4487 O 429.939 -2.49262 1.07614 0
M  V30 4488 C 428.395 -1.2821 3.36289 0
M  V30 4489 C 428.003 -0.256291 4.47266 0
M  V30 4490 C 429.747 -1.94608 3.77264 0
M  V30 4491 C 427.654 -0.855927 5.85173 0
M  V30 4492 H 426.584 -0.262252 0.706923 0
M  V30 4493 H 429.235 0.052769 1.83424 0
M  V30 4494 H 427.617 -2.0774 3.37135 0
M  V30 4495 H 428.791 0.513923 4.57925 0
M  V30 4496 H 427.106 0.306862 4.15268 0
M  V30 4497 H 429.703 -2.40364 4.77629 0
M  V30 4498 H 430.046 -2.77382 3.10427 0
M  V30 4499 H 430.579 -1.21822 3.78688 0
M  V30 4500 H 427.318 -0.0671161 6.55466 0
M  V30 4501 H 426.838 -1.59546 5.78191 0
M  V30 4502 H 428.517 -1.35658 6.32618 0
M  V30 4503 N 428.649 -1.55105 -0.279332 0
M  V30 4504 C 429.898 -1.74618 -1.00952 0
M  V30 4505 C 430.211 -0.551096 -1.87676 0
M  V30 4506 O 431.417 -0.628507 -2.64125 0
M  V30 4507 C 429.873 -3.09025 -1.84476 0
M  V30 4508 C 429.481 -4.36081 -1.0265 0
M  V30 4509 C 431.225 -3.37891 -2.56963 0
M  V30 4510 C 429.132 -5.6153 -1.85576 0
M  V30 4511 H 428.062 -0.650868 -0.38064 0
M  V30 4512 H 430.713 -1.81569 -0.265475 0
M  V30 4513 H 429.095 -2.96095 -2.62952 0
M  V30 4514 H 430.269 -4.59909 -0.286354 0
M  V30 4515 H 428.584 -4.14312 -0.416464 0
M  V30 4516 H 431.181 -4.28822 -3.19399 0
M  V30 4517 H 431.524 -2.57737 -3.26921 0
M  V30 4518 H 432.057 -3.5189 -1.85522 0
M  V30 4519 H 428.796 -6.44413 -1.2005 0
M  V30 4520 H 428.316 -5.41854 -2.57204 0
M  V30 4521 H 429.995 -5.99594 -2.43096 0
M  V30 4522 N 430.127 0.543554 -1.4793 0
M  V30 4523 C 431.074 1.64942 -1.6144 0
M  V30 4524 C 432.044 1.59692 -0.456903 0
M  V30 4525 O 433.229 1.78321 -0.678688 0
M  V30 4526 C 430.369 3.03238 -1.64744 0
M  V30 4527 C 429.482 3.18823 -2.91506 0
M  V30 4528 C 428.617 4.47599 -2.86057 0
M  V30 4529 C 427.656 4.56664 -4.07584 0
M  V30 4530 N 426.793 5.76811 -4.00292 0
M  V30 4531 H 431.633 1.52733 -2.55884 0
M  V30 4532 H 429.17 0.7438 -1.2691 0
M  V30 4533 H 431.128 3.83339 -1.64641 0
M  V30 4534 H 429.758 3.1425 -0.738017 0
M  V30 4535 H 428.81 2.32064 -3.01414 0
M  V30 4536 H 430.122 3.21384 -3.81463 0
M  V30 4537 H 429.276 5.35975 -2.84281 0
M  V30 4538 H 428.015 4.47538 -1.93807 0
M  V30 4539 H 427.02 3.66697 -4.09651 0
M  V30 4540 H 428.245 4.58474 -5.00978 0
M  V30 4541 H 426.191 5.77673 -3.10853 0
M  V30 4542 H 426.108 5.80808 -4.8394 0
M  V30 4543 H 427.376 6.67512 -4.02553 0
M  V30 4544 N 431.605 1.3629 0.791371 0
M  V30 4545 C 432.538 1.24816 1.9104 0
M  V30 4546 C 433.516 0.132739 1.62057 0
M  V30 4547 O 434.7 0.303527 1.8604 0
M  V30 4548 C 431.827 0.925355 3.25814 0
M  V30 4549 C 430.873 2.05495 3.7373 0
M  V30 4550 S 431.706 3.67255 3.89723 0
M  V30 4551 C 432.862 3.37084 5.27376 0
M  V30 4552 H 433.095 2.19533 2.00481 0
M  V30 4553 H 430.628 1.21684 0.950393 0
M  V30 4554 H 432.586 0.745924 4.03666 0
M  V30 4555 H 431.247 -0.00400098 3.141 0
M  V30 4556 H 430.44 1.7836 4.71385 0
M  V30 4557 H 430.042 2.1935 3.02922 0
M  V30 4558 H 432.334 2.90856 6.1189 0
M  V30 4559 H 433.277 4.33995 5.59512 0
M  V30 4560 H 433.685 2.7248 4.94383 0
M  V30 4561 N 433.083 -1.0153 1.20538 0
M  V30 4562 C 434.03 -2.10098 0.955383 0
M  V30 4563 C 435 -1.65702 -0.114878 0
M  V30 4564 O 436.185 -1.90776 0.0301118 0
M  V30 4565 C 433.325 -3.41236 0.514969 0
M  V30 4566 C 432.438 -3.99102 1.65353 0
M  V30 4567 C 431.573 -5.18306 1.16329 0
M  V30 4568 C 430.612 -5.68258 2.27485 0
M  V30 4569 N 429.749 -6.78722 1.7967 0
M  V30 4570 H 434.589 -2.30818 1.88486 0
M  V30 4571 H 432.126 -1.13189 0.939499 0
M  V30 4572 H 434.084 -4.16504 0.240935 0
M  V30 4573 H 432.714 -3.20585 -0.377512 0
M  V30 4574 H 431.766 -3.20918 2.04245 0
M  V30 4575 H 433.078 -4.32177 2.49047 0
M  V30 4576 H 432.232 -6.00782 0.845302 0
M  V30 4577 H 430.971 -4.86799 0.296254 0
M  V30 4578 H 429.976 -4.84385 2.60099 0
M  V30 4579 H 431.201 -6.01798 3.14667 0
M  V30 4580 H 429.147 -6.49042 0.95295 0
M  V30 4581 H 429.064 -7.10996 2.56944 0
M  V30 4582 H 430.332 -7.64759 1.50875 0
M  V30 4583 N 434.561 -1.01147 -1.20859 0
M  V30 4584 C 435.809 -0.696486 -1.89719 0
M  V30 4585 C 436.13 0.775788 -1.78904 0
M  V30 4586 O 435.4 1.55759 -1.18811 0
M  V30 4587 H 433.98 -0.254628 -0.702263 0
M  V30 4588 H 436.642 -1.28197 -1.46804 0
M  V30 4589 H 435.738 -0.975357 -2.96468 0
M  V30 4590 N 436.039 1.36541 -0.78704 0
M  V30 4591 C 437.269 2.03266 -0.369662 0
M  V30 4592 C 437.677 1.59481 1.01796 0
M  V30 4593 O 437.02 0.778612 1.66383 0
M  V30 4594 C 437.082 3.57779 -0.351371 0
M  V30 4595 C 436.746 4.24756 -1.68617 0
M  V30 4596 C 437.743 4.47811 -2.64124 0
M  V30 4597 C 435.428 4.62277 -1.96481 0
M  V30 4598 C 437.422 5.07464 -3.85693 0
M  V30 4599 C 435.109 5.21649 -3.18317 0
M  V30 4600 C 436.107 5.44182 -4.12741 0
M  V30 4601 O 435.795 6.02307 -5.32429 0
M  V30 4602 H 435.527 0.658977 -0.150751 0
M  V30 4603 H 438.081 1.75548 -1.0664 0
M  V30 4604 H 436.311 3.84606 0.401847 0
M  V30 4605 H 438 4.05879 0.0410147 0
M  V30 4606 H 438.766 4.19221 -2.43883 0
M  V30 4607 H 434.645 4.44065 -1.23805 0
M  V30 4608 H 438.189 5.24968 -4.59407 0
M  V30 4609 H 434.086 5.49664 -3.38437 0
M  V30 4610 H 434.854 6.20775 -5.33461 0
M  V30 4611 N 437.518 0.538854 1.48102 0
M  V30 4612 C 438.746 0.0123136 2.06896 0
M  V30 4613 C 439.161 -1.27312 1.39417 0
M  V30 4614 O 438.518 -1.75949 0.484582 0
M  V30 4615 C 438.569 -0.206118 3.60912 0
M  V30 4616 O 438.29 1.0284 4.25859 0
M  V30 4617 C 439.791 -0.772033 4.36526 0
M  V30 4618 H 437.011 0.0375239 0.66995 0
M  V30 4619 H 439.555 0.747032 1.90367 0
M  V30 4620 H 437.71 -0.89091 3.77017 0
M  V30 4621 H 438.124 0.814654 5.18135 0
M  V30 4622 H 439.598 -0.874251 5.45033 0
M  V30 4623 H 440.075 -1.77904 4.01555 0
M  V30 4624 H 440.681 -0.123526 4.25121 0
M  V30 4625 N 438.996 -1.55193 0.274407 0
M  V30 4626 C 440.221 -2.04446 -0.348824 0
M  V30 4627 C 440.646 -1.15149 -1.48735 0
M  V30 4628 O 440.004 -0.149952 -1.80679 0
M  V30 4629 C 440.052 -3.51431 -0.808009 0
M  V30 4630 O 439.156 -3.65225 -1.91531 0
M  V30 4631 H 438.497 -0.66006 -0.0722276 0
M  V30 4632 H 441.027 -2.00481 0.408498 0
M  V30 4633 H 441.037 -3.92781 -1.10395 0
M  V30 4634 H 439.712 -4.15892 0.0249865 0
M  V30 4635 H 438.289 -3.35778 -1.62196 0
M  V30 4636 N 440.474 -0.00167713 -1.576 0
M  V30 4637 C 441.72 0.67819 -1.91761 0
M  V30 4638 C 442.075 1.71288 -0.876256 0
M  V30 4639 O 441.368 1.91276 0.111333 0
M  V30 4640 C 441.562 1.36189 -3.30435 0
M  V30 4641 C 441.391 0.394938 -4.47962 0
M  V30 4642 C 440.161 0.00472875 -5.053 0
M  V30 4643 C 442.359 -0.339521 -5.13178 0
M  V30 4644 N 440.341 -0.960257 -6.06343 0
M  V30 4645 C 441.712 -1.15914 -6.09068 0
M  V30 4646 C 443.767 -0.403177 -4.96265 0
M  V30 4647 C 442.47 -2.03661 -6.89866 0
M  V30 4648 C 444.496 -1.26788 -5.77649 0
M  V30 4649 C 443.858 -2.07535 -6.73134 0
M  V30 4650 H 439.957 0.221317 -0.750028 0
M  V30 4651 H 442.541 -0.0624182 -1.946 0
M  V30 4652 H 440.712 2.07278 -3.28467 0
M  V30 4653 H 442.444 1.99658 -3.52021 0
M  V30 4654 H 439.199 0.373452 -4.72125 0
M  V30 4655 H 439.623 -1.43817 -6.61548 0
M  V30 4656 H 444.265 0.206818 -4.22294 0
M  V30 4657 H 441.983 -2.65727 -7.63161 0
M  V30 4658 H 445.569 -1.32107 -5.66603 0
M  V30 4659 H 444.449 -2.73363 -7.35012 0
M  V30 4660 N 441.952 1.55251 0.271103 0
M  V30 4661 C 442.915 1.87484 1.31842 0
M  V30 4662 C 443.915 0.749545 1.42262 0
M  V30 4663 O 445.105 1.01771 1.4138 0
M  V30 4664 C 442.237 2.0818 2.69951 0
M  V30 4665 H 443.43 2.81108 1.0449 0
M  V30 4666 H 440.983 1.47771 0.509258 0
M  V30 4667 H 441.718 1.16944 3.02481 0
M  V30 4668 H 441.503 2.90114 2.63774 0
M  V30 4669 H 442.993 2.34385 3.4562 0
M  V30 4670 N 443.43 -0.535701 1.48216 0
M  V30 4671 C 444.679 -1.28828 1.55197 0
M  V30 4672 C 444.992 -1.94263 0.228278 0
M  V30 4673 O 446.198 -2.70927 0.176278 0
M  V30 4674 C 444.654 -2.33727 2.73678 0
M  V30 4675 C 444.262 -1.74386 4.12666 0
M  V30 4676 C 446.006 -3.1003 2.89968 0
M  V30 4677 C 443.913 -2.77192 5.22416 0
M  V30 4678 H 442.843 -0.484484 0.577747 0
M  V30 4679 H 445.494 -0.56646 1.74538 0
M  V30 4680 H 443.876 -3.08919 2.4776 0
M  V30 4681 H 445.05 -1.05421 4.48579 0
M  V30 4682 H 443.365 -1.10595 4.01445 0
M  V30 4683 H 445.962 -3.86842 3.6913 0
M  V30 4684 H 446.305 -3.65542 1.9921 0
M  V30 4685 H 446.838 -2.41952 3.15759 0
M  V30 4686 H 443.577 -2.26507 6.15122 0
M  V30 4687 H 443.097 -3.44502 4.90998 0
M  V30 4688 H 444.776 -3.40285 5.50286 0
M  V30 4689 N 444.908 -1.36708 -0.784132 0
M  V30 4690 C 446.156 -1.30972 -1.53918 0
M  V30 4691 C 446.477 0.109086 -1.94695 0
M  V30 4692 O 445.747 1.05048 -1.65353 0
M  V30 4693 H 444.327 -0.481819 -0.570841 0
M  V30 4694 H 446.989 -1.71063 -0.934002 0
M  V30 4695 H 446.085 -1.94061 -2.44431 0
M  V30 4696 N 446.386 1.0089 -1.21074 0
M  V30 4697 C 447.316 2.1145 -0.990523 0
M  V30 4698 C 448.297 1.69897 0.0831699 0
M  V30 4699 O 449.482 1.94052 -0.0758853 0
M  V30 4700 C 446.612 3.42914 -0.550177 0
M  V30 4701 C 445.566 3.98244 -1.56799 0
M  V30 4702 C 444.892 5.25568 -0.984013 0
M  V30 4703 C 446.192 4.30752 -2.95381 0
M  V30 4704 H 447.886 2.3013 -1.91521 0
M  V30 4705 H 445.432 1.10592 -0.92225 0
M  V30 4706 H 447.385 4.19653 -0.383305 0
M  V30 4707 H 446.109 3.24014 0.41015 0
M  V30 4708 H 444.768 3.23621 -1.72236 0
M  V30 4709 H 444.416 5.02998 -0.0155216 0
M  V30 4710 H 444.116 5.63551 -1.66384 0
M  V30 4711 H 445.64 6.04955 -0.828378 0
M  V30 4712 H 447.054 4.98349 -2.8341 0
M  V30 4713 H 445.451 4.79869 -3.60341 0
M  V30 4714 H 446.521 3.39192 -3.46521 0
M  V30 4715 N 447.864 1.01787 1.20321 0
M  V30 4716 C 449.089 0.727009 1.9424 0
M  V30 4717 C 449.514 -0.706179 1.74341 0
M  V30 4718 O 448.872 -1.48609 1.03852 0
M  V30 4719 C 448.92 1.06958 3.44372 0
M  V30 4720 O 448.024 0.181983 4.11998 0
M  V30 4721 H 447.365 0.269626 0.606793 0
M  V30 4722 H 449.895 1.36158 1.52716 0
M  V30 4723 H 449.905 1.02182 3.94997 0
M  V30 4724 H 448.58 2.11378 3.58179 0
M  V30 4725 H 447.157 0.287378 3.71791 0
M  V30 4726 N 449.342 -1.36122 0.79427 0
M  V30 4727 C 450.588 -1.99406 0.369452 0
M  V30 4728 C 450.921 -1.62886 -1.05743 0
M  V30 4729 O 450.196 -0.886053 -1.73145 0
M  V30 4730 C 450.479 -3.56046 0.538833 0
M  V30 4731 C 450.332 -4.02404 2.00976 0
M  V30 4732 C 451.651 -4.40079 -0.0431359 0
M  V30 4733 H 448.77 -0.724397 0.135712 0
M  V30 4734 H 451.412 -1.61461 1.00151 0
M  V30 4735 H 449.562 -3.885 0.000771004 0
M  V30 4736 H 451.234 -3.80415 2.60926 0
M  V30 4737 H 449.477 -3.53765 2.51063 0
M  V30 4738 H 450.148 -5.11344 2.07922 0
M  V30 4739 H 452.624 -4.14013 0.416228 0
M  V30 4740 H 451.5 -5.48799 0.105374 0
M  V30 4741 H 451.761 -4.27264 -1.13571 0
M  V30 4742 N 450.82 -0.546701 -1.47814 0
M  V30 4743 C 451.783 0.196287 -2.28358 0
M  V30 4744 C 452.783 0.852437 -1.36346 0
M  V30 4745 O 453.973 0.709913 -1.59078 0
M  V30 4746 C 451.105 1.28579 -3.15722 0
M  V30 4747 H 452.298 -0.511086 -2.95513 0
M  V30 4748 H 449.851 -0.303248 -1.5333 0
M  V30 4749 H 450.586 2.0259 -2.53235 0
M  V30 4750 H 450.371 0.820229 -3.83425 0
M  V30 4751 H 451.861 1.80793 -3.76435 0
M  V30 4752 N 452.299 1.55045 -0.282633 0
M  V30 4753 C 453.576 1.9179 0.384166 0
M  V30 4754 C 453.956 1.20778 1.73136 0
M  V30 4755 O 453.304 0.33719 2.25998 0
M  V30 4756 C 453.514 3.45149 0.517014 0
M  V30 4757 C 454.862 4.17064 0.796427 0
M  V30 4758 O 455.886 3.51084 0.601535 0
M  V30 4759 O 454.745 5.33837 1.16962 0
M  V30 4760 H 451.839 0.799483 0.211558 0
M  V30 4761 H 454.385 1.66474 -0.32934 0
M  V30 4762 H 453.157 3.88922 -0.430772 0
M  V30 4763 H 452.78 3.76443 1.2797 0
M  V30 4764 N 453.777 0.010035 1.57597 0
M  V30 4765 C 454.707 -0.976857 2.12084 0
M  V30 4766 C 455.688 -1.35191 1.03235 0
M  V30 4767 O 456.873 -1.43389 1.3097 0
M  V30 4768 C 454.003 -2.26548 2.63236 0
M  V30 4769 C 452.957 -2.03175 3.76701 0
M  V30 4770 C 452.283 -3.38138 4.14206 0
M  V30 4771 C 453.583 -1.38625 5.03568 0
M  V30 4772 H 455.277 -0.523145 2.94794 0
M  V30 4773 H 452.823 -0.250195 1.4181 0
M  V30 4774 H 454.776 -2.95952 2.99984 0
M  V30 4775 H 453.5 -2.74051 1.77661 0
M  V30 4776 H 452.159 -1.36195 3.40362 0
M  V30 4777 H 451.807 -3.83363 3.25641 0
M  V30 4778 H 451.507 -3.23312 4.90656 0
M  V30 4779 H 453.031 -4.08841 4.53521 0
M  V30 4780 H 454.445 -1.98 5.38023 0
M  V30 4781 H 452.842 -1.34256 5.84889 0
M  V30 4782 H 453.912 -0.356722 4.83586 0
M  V30 4783 N 455.255 -1.55392 -0.262866 0
M  V30 4784 C 456.483 -1.80513 -1.01108 0
M  V30 4785 C 456.898 -0.583533 -1.79556 0
M  V30 4786 O 456.255 0.447585 -1.76926 0
M  V30 4787 C 456.306 -3.03648 -1.96164 0
M  V30 4788 O 456.027 -4.2109 -1.20893 0
M  V30 4789 C 457.528 -3.41448 -2.82715 0
M  V30 4790 H 454.748 -0.601079 -0.298236 0
M  V30 4791 H 457.292 -2.02425 -0.290582 0
M  V30 4792 H 455.447 -2.83832 -2.63663 0
M  V30 4793 H 455.861 -4.90771 -1.85051 0
M  V30 4794 H 457.335 -4.30751 -3.45192 0
M  V30 4795 H 457.812 -2.61308 -3.53008 0
M  V30 4796 H 458.418 -3.63559 -2.20693 0
M  V30 4797 N 456.733 0.527833 -1.48498 0
M  V30 4798 C 457.643 1.65907 -1.65867 0
M  V30 4799 C 458.659 1.6537 -0.541192 0
M  V30 4800 O 459.835 1.84282 -0.812534 0
M  V30 4801 C 456.9 3.02364 -1.69637 0
M  V30 4802 C 455.961 3.1374 -2.93028 0
M  V30 4803 C 455.194 4.43688 -2.96609 0
M  V30 4804 O 455.417 5.30913 -2.08538 0
M  V30 4805 O 454.351 4.59475 -3.88802 0
M  V30 4806 H 458.177 1.5419 -2.61647 0
M  V30 4807 H 455.762 0.701163 -1.31924 0
M  V30 4808 H 457.644 3.83515 -1.74625 0
M  V30 4809 H 456.319 3.14401 -0.770312 0
M  V30 4810 H 455.226 2.31877 -2.93571 0
M  V30 4811 H 456.559 3.06621 -3.85026 0
M  V30 4812 N 458.211 1.37122 0.776871 0
M  V30 4813 C 459.436 1.354 1.57104 0
M  V30 4814 C 459.861 -0.0595562 1.88006 0
M  V30 4815 O 459.219 -1.03514 1.48844 0
M  V30 4816 C 459.267 2.19472 2.8612 0
M  V30 4817 O 458.371 1.59582 3.80273 0
M  V30 4818 H 457.712 0.462869 0.476076 0
M  V30 4819 H 460.242 1.80577 0.961932 0
M  V30 4820 H 460.252 2.32502 3.35271 0
M  V30 4821 H 458.927 3.22222 2.62956 0
M  V30 4822 H 457.504 1.55564 3.38902 0
M  V30 4823 N 459.689 -1.00246 1.21608 0
M  V30 4824 C 460.938 -1.73476 1.02902 0
M  V30 4825 C 461.251 -1.90643 -0.437561 0
M  V30 4826 O 462.457 -2.61105 -0.74407 0
M  V30 4827 C 460.913 -3.12079 1.79261 0
M  V30 4828 C 460.521 -3.02877 3.30106 0
M  V30 4829 C 462.265 -3.89421 1.68972 0
M  V30 4830 C 460.172 -4.36575 3.98944 0
M  V30 4831 H 459.102 -0.650408 0.381425 0
M  V30 4832 H 461.753 -1.11985 1.45367 0
M  V30 4833 H 460.135 -3.74196 1.2959 0
M  V30 4834 H 461.309 -2.49983 3.87098 0
M  V30 4835 H 459.624 -2.39022 3.40965 0
M  V30 4836 H 462.221 -4.88362 2.17731 0
M  V30 4837 H 462.564 -4.1122 0.648397 0
M  V30 4838 H 463.097 -3.33963 2.16133 0
M  V30 4839 H 459.836 -4.19978 5.03288 0
M  V30 4840 H 459.356 -4.8942 3.4674 0
M  V30 4841 H 461.035 -5.05364 4.04 0
M  V30 4842 N 461.167 -1.02423 -1.1978 0
M  V30 4843 C 462.097 -0.62157 -2.25075 0
M  V30 4844 C 463.078 0.367148 -1.6609 0
M  V30 4845 O 464.263 0.250892 -1.92573 0
M  V30 4846 C 461.393 0.0331826 -3.47284 0
M  V30 4847 C 460.347 -0.877323 -4.18912 0
M  V30 4848 C 459.673 -0.0879296 -5.34628 0
M  V30 4849 C 460.973 -2.18892 -4.74219 0
M  V30 4850 H 462.667 -1.50179 -2.59011 0
M  V30 4851 H 460.213 -0.723547 -1.24502 0
M  V30 4852 H 462.166 0.326488 -4.20133 0
M  V30 4853 H 460.89 0.948164 -3.12534 0
M  V30 4854 H 459.549 -1.15475 -3.47938 0
M  V30 4855 H 459.197 0.828941 -4.96123 0
M  V30 4856 H 458.897 -0.694359 -5.83483 0
M  V30 4857 H 460.421 0.198743 -6.10276 0
M  V30 4858 H 461.835 -1.95746 -5.38847 0
M  V30 4859 H 460.232 -2.74686 -5.33542 0
M  V30 4860 H 461.302 -2.84674 -3.92541 0
M  V30 4861 N 462.645 1.35699 -0.801477 0
M  V30 4862 C 463.592 2.29876 -0.206294 0
M  V30 4863 C 464.562 1.52565 0.656752 0
M  V30 4864 O 465.747 1.81024 0.602906 0
M  V30 4865 C 462.887 3.39052 0.643272 0
M  V30 4866 C 462 4.31335 -0.239644 0
M  V30 4867 C 461.135 5.27599 0.61744 0
M  V30 4868 C 460.174 6.11521 -0.26619 0
M  V30 4869 N 459.311 6.99938 0.550571 0
M  V30 4870 H 464.151 2.80187 -1.01484 0
M  V30 4871 H 461.688 1.37902 -0.511997 0
M  V30 4872 H 463.646 4.0101 1.15094 0
M  V30 4873 H 462.276 2.9003 1.41713 0
M  V30 4874 H 461.328 3.70426 -0.865381 0
M  V30 4875 H 462.64 4.90243 -0.919985 0
M  V30 4876 H 461.794 5.94906 1.19045 0
M  V30 4877 H 460.533 4.69176 1.33137 0
M  V30 4878 H 459.538 5.43166 -0.851507 0
M  V30 4879 H 460.763 6.72022 -0.9779 0
M  V30 4880 H 458.709 6.44008 1.24856 0
M  V30 4881 H 458.626 7.55966 -0.071832 0
M  V30 4882 H 459.894 7.71599 1.10702 0
M  V30 4883 N 464.123 0.554532 1.47522 0
M  V30 4884 C 465.071 -0.207765 2.3167 0
M  V30 4885 C 466.065 -0.911914 1.4276 0
M  V30 4886 O 467.271 -0.833504 1.59539 0
M  V30 4887 H 463.646 -0.0858726 0.747081 0
M  V30 4888 H 465.617 0.521178 2.93813 0
M  V30 4889 C 464.366 -1.2263 3.25357 0
M  V30 4890 H 463.689 -0.693887 3.93732 0
M  V30 4891 H 465.129 -1.73062 3.87073 0
M  V30 4892 C 463.588 -2.27278 2.4869 0
M  V30 4893 O 464.118 -3.34156 2.22941 0
M  V30 4894 N 462.324 -2.01134 2.09746 0
M  V30 4895 H 461.871 -1.14232 2.30887 0
M  V30 4896 H 461.829 -2.71369 1.58765 0
M  V30 4897 N 465.601 -1.54893 0.290851 0
M  V30 4898 C 466.531 -2.26103 -0.583084 0
M  V30 4899 C 467.512 -1.25684 -1.14619 0
M  V30 4900 O 468.697 -1.54436 -1.17741 0
M  V30 4901 C 465.827 -2.99409 -1.75987 0
M  V30 4902 C 464.781 -4.0689 -1.32758 0
M  V30 4903 C 464.107 -4.67856 -2.58872 0
M  V30 4904 C 465.407 -5.20215 -0.46624 0
M  V30 4905 H 467.101 -2.99398 0.0108214 0
M  V30 4906 H 464.647 -1.43998 0.00664468 0
M  V30 4907 H 466.6 -3.47943 -2.37727 0
M  V30 4908 H 465.324 -2.23675 -2.37985 0
M  V30 4909 H 463.983 -3.59191 -0.733299 0
M  V30 4910 H 463.631 -3.88772 -3.19163 0
M  V30 4911 H 463.331 -5.40438 -2.30653 0
M  V30 4912 H 464.855 -5.19147 -3.21433 0
M  V30 4913 H 466.269 -5.64704 -0.989047 0
M  V30 4914 H 464.666 -5.99455 -0.27826 0
M  V30 4915 H 465.736 -4.82198 0.511173 0
M  V30 4916 N 467.08 -0.0183926 -1.57589 0
M  V30 4917 C 468.496 0.337897 -1.55982 0
M  V30 4918 C 468.696 1.73604 -1.02294 0
M  V30 4919 O 467.752 2.43589 -0.664895 0
M  V30 4920 C 469.065 0.196305 -3.00059 0
M  V30 4921 C 470.613 0.269875 -3.11834 0
M  V30 4922 C 471.088 0.157197 -4.5773 0
M  V30 4923 N 472.579 0.214521 -4.62703 0
M  V30 4924 C 473.314 0.150955 -5.73201 0
M  V30 4925 N 472.81 0.0369212 -6.9279 0
M  V30 4926 N 474.603 0.204162 -5.61729 0
M  V30 4927 H 466.754 -0.93279 -1.90821 0
M  V30 4928 H 469.017 -0.359253 -0.877292 0
M  V30 4929 H 468.723 -0.766383 -3.43248 0
M  V30 4930 H 468.597 0.970908 -3.6449 0
M  V30 4931 H 470.984 1.22302 -2.68563 0
M  V30 4932 H 471.065 -0.534918 -2.50144 0
M  V30 4933 H 470.709 -0.792479 -5.01679 0
M  V30 4934 H 470.639 0.980717 -5.17387 0
M  V30 4935 H 473.13 0.303238 -3.76681 0
M  V30 4936 H 473.443 -0.00518321 -7.728 0
M  V30 4937 H 471.788 0.0022886 -6.95 0
M  V30 4938 H 474.979 0.291575 -4.67191 0
M  V30 4939 H 475.152 0.15116 -6.47824 0
M  V30 4940 N 468.558 1.5553 0.254621 0
M  V30 4941 C 469.974 1.4778 0.602753 0
M  V30 4942 C 470.174 0.707047 1.88688 0
M  V30 4943 O 469.23 0.233288 2.5142 0
M  V30 4944 C 470.543 2.92133 0.712648 0
M  V30 4945 C 472.091 3.02458 0.805488 0
M  V30 4946 C 472.566 4.48102 0.947009 0
M  V30 4947 N 474.057 4.52008 1.01207 0
M  V30 4948 C 474.792 5.61939 1.1407 0
M  V30 4949 N 474.288 6.81697 1.23536 0
M  V30 4950 N 476.081 5.49719 1.17325 0
M  V30 4951 H 468.232 2.04085 -0.588463 0
M  V30 4952 H 470.495 0.926229 -0.202001 0
M  V30 4953 H 470.201 3.51332 -0.160766 0
M  V30 4954 H 470.075 3.42187 1.58707 0
M  V30 4955 H 472.462 2.43344 1.66936 0
M  V30 4956 H 472.543 2.55627 -0.0939266 0
M  V30 4957 H 472.187 5.07824 0.087725 0
M  V30 4958 H 472.117 4.92607 1.86135 0
M  V30 4959 H 474.608 3.65749 0.950577 0
M  V30 4960 H 474.921 7.61228 1.33236 0
M  V30 4961 H 473.266 6.84473 1.20508 0
M  V30 4962 H 476.457 4.55095 1.09573 0
M  V30 4963 H 476.63 6.35432 1.27005 0
M  V30 4964 N 470.036 -0.519951 1.48776 0
M  V30 4965 C 471.285 -1.27175 1.56555 0
M  V30 4966 C 471.598 -1.9401 0.248869 0
M  V30 4967 O 472.804 -2.70725 0.205004 0
M  V30 4968 C 471.26 -2.30811 2.76142 0
M  V30 4969 C 470.868 -1.7 4.14493 0
M  V30 4970 C 472.612 -3.06937 2.9324 0
M  V30 4971 C 470.519 -2.71635 5.25327 0
M  V30 4972 H 469.449 -0.478329 0.582853 0
M  V30 4973 H 472.1 -0.547916 1.75129 0
M  V30 4974 H 470.482 -3.06274 2.51023 0
M  V30 4975 H 471.656 -1.00658 4.49672 0
M  V30 4976 H 469.971 -1.06331 4.02595 0
M  V30 4977 H 472.568 -3.82905 3.73213 0
M  V30 4978 H 472.911 -3.63409 2.03075 0
M  V30 4979 H 473.444 -2.38589 3.18308 0
M  V30 4980 H 470.183 -2.1997 6.1749 0
M  V30 4981 H 469.703 -3.39275 4.94624 0
M  V30 4982 H 471.382 -3.34429 5.53865 0
M  V30 4983 N 471.514 -1.37532 -0.769588 0
M  V30 4984 C 472.464 -1.29984 -1.87318 0
M  V30 4985 C 473.448 -0.187242 -1.59807 0
M  V30 4986 O 474.64 -0.421827 -1.719 0
M  V30 4987 C 471.769 -1.11126 -3.24817 0
M  V30 4988 C 470.855 -2.26939 -3.58273 0
M  V30 4989 N 471.246 -3.52336 -3.62895 0
M  V30 4990 C 469.544 -2.19141 -3.8845 0
M  V30 4991 C 470.245 -4.28719 -3.9316 0
M  V30 4992 N 469.221 -3.57884 -4.0917 0
M  V30 4993 H 473.023 -2.24946 -1.89147 0
M  V30 4994 H 470.537 -1.30535 -0.966143 0
M  V30 4995 H 472.534 -1.03803 -4.0377 0
M  V30 4996 H 471.194 -0.17083 -3.2425 0
M  V30 4997 H 472.205 -3.86216 -3.45048 0
M  V30 4998 H 468.882 -1.33167 -3.95693 0
M  V30 4999 H 470.272 -5.37254 -4.03494 0
M  V30 5000 N 472.992 0.995999 -1.22138 0
M  V30 5001 C 474.403 1.54961 -1.04135 0
M  V30 5002 C 474.754 1.92159 0.396147 0
M  V30 5003 O 473.879 1.74435 1.28069 0
M  V30 5004 C 474.474 2.81581 -1.88408 0
M  V30 5005 C 473.033 3.33396 -1.74712 0
M  V30 5006 C 472.18 2.06509 -1.85066 0
M  V30 5007 H 475.131 0.817436 -1.36028 0
M  V30 5008 H 475.152 3.53822 -1.39966 0
M  V30 5009 H 474.664 2.54476 -2.93025 0
M  V30 5010 H 472.765 3.65416 -0.728159 0
M  V30 5011 H 472.878 4.04208 -2.57202 0
M  V30 5012 H 471.242 2.19925 -1.28472 0
M  V30 5013 H 472.025 1.81804 -2.91208 0
M  V30 5014 N 474.47 1.03057 1.19235 0
M  V30 5015 C 475.716 0.729098 1.89241 0
M  V30 5016 C 476.049 -0.740573 1.79525 0
M  V30 5017 O 475.324 -1.53946 1.18874 0
M  V30 5018 C 475.607 1.18304 3.40112 0
M  V30 5019 C 475.46 2.71406 3.5869 0
M  V30 5020 C 476.779 0.765161 4.33397 0
M  V30 5021 H 473.898 0.266338 0.687192 0
M  V30 5022 H 476.54 1.28079 1.40341 0
M  V30 5023 H 474.69 0.713672 3.81889 0
M  V30 5024 H 476.362 3.26303 3.26074 0
M  V30 5025 H 474.605 3.11717 3.01687 0
M  V30 5026 H 475.276 2.98225 4.64506 0
M  V30 5027 H 477.752 1.16889 3.99345 0
M  V30 5028 H 476.628 1.11065 5.37546 0
M  V30 5029 H 476.889 -0.332372 4.40849 0
M  V30 5030 N 475.948 -1.35272 0.808662 0
M  V30 5031 C 477.173 -2.03477 0.401475 0
M  V30 5032 C 477.598 -1.60537 -0.980279 0
M  V30 5033 O 476.956 -0.78304 -1.63518 0
M  V30 5034 C 477.004 -3.57181 0.495354 0
M  V30 5035 O 476.108 -4.09474 -0.490397 0
M  V30 5036 H 475.449 -0.642561 0.167366 0
M  V30 5037 H 477.979 -1.72824 1.09512 0
M  V30 5038 H 477.989 -4.06356 0.365912 0
M  V30 5039 H 476.664 -3.87784 1.5032 0
M  V30 5040 H 475.241 -3.71516 -0.321023 0
M  V30 5041 N 477.426 -0.562348 -1.47226 0
M  V30 5042 C 478.654 -0.0452275 -2.06851 0
M  V30 5043 C 479.069 1.25078 -1.41424 0
M  V30 5044 O 478.426 1.75156 -0.512513 0
M  V30 5045 C 478.477 0.148674 -3.61194 0
M  V30 5046 O 478.198 -1.09602 -4.24169 0
M  V30 5047 C 479.699 0.702488 -4.37699 0
M  V30 5048 H 476.919 -0.0481775 -0.669268 0
M  V30 5049 H 479.463 -0.777223 -1.89155 0
M  V30 5050 H 477.618 0.830817 -3.78386 0
M  V30 5051 H 478.032 -0.896982 -5.16773 0
M  V30 5052 H 479.506 0.78743 -5.46355 0
M  V30 5053 H 479.983 1.71493 -4.04335 0
M  V30 5054 H 480.589 0.0558772 -4.25263 0
M  V30 5055 N 478.904 1.54736 -0.299062 0
M  V30 5056 C 480.153 1.99279 0.311549 0
M  V30 5057 C 480.466 1.19107 1.55154 0
M  V30 5058 O 481.672 1.53908 2.23662 0
M  V30 5059 C 480.128 3.54768 0.605632 0
M  V30 5060 C 479.736 4.43746 -0.615914 0
M  V30 5061 C 481.48 4.07841 1.17754 0
M  V30 5062 C 479.387 5.90663 -0.29509 0
M  V30 5063 H 478.317 0.744359 0.120187 0
M  V30 5064 H 480.968 1.78919 -0.407464 0
M  V30 5065 H 479.35 3.71021 1.38419 0
M  V30 5066 H 480.524 4.39267 -1.39218 0
M  V30 5067 H 478.839 4.01434 -1.10633 0
M  V30 5068 H 481.436 5.15174 1.43179 0
M  V30 5069 H 481.779 3.58324 2.11918 0
M  V30 5070 H 482.312 3.95123 0.460739 0
M  V30 5071 H 479.051 6.44325 -1.20524 0
M  V30 5072 H 478.571 5.98155 0.44394 0
M  V30 5073 H 480.25 6.46916 0.104048 0
M  V30 5074 N 480.382 0.0267497 1.57577 0
M  V30 5075 C 481.631 -0.651736 1.9088 0
M  V30 5076 C 481.944 -1.73427 0.904576 0
M  V30 5077 O 483.15 -2.46923 1.12877 0
M  V30 5078 C 481.606 -1.21048 3.38933 0
M  V30 5079 C 481.214 -0.161362 4.47709 0
M  V30 5080 C 482.958 -1.86562 3.81307 0
M  V30 5081 C 480.865 -0.731611 5.86857 0
M  V30 5082 H 479.795 -0.247198 0.712326 0
M  V30 5083 H 482.446 0.0916641 1.83271 0
M  V30 5084 H 480.828 -2.00542 3.41466 0
M  V30 5085 H 482.002 0.61094 4.56732 0
M  V30 5086 H 480.317 0.394877 4.14523 0
M  V30 5087 H 482.914 -2.30178 4.8262 0
M  V30 5088 H 483.257 -2.70735 3.16241 0
M  V30 5089 H 483.79 -1.13762 3.81186 0
M  V30 5090 H 480.529 0.0719329 6.55461 0
M  V30 5091 H 480.049 -1.47245 5.81445 0
M  V30 5092 H 481.728 -1.22208 6.35354 0
M  V30 5093 N 481.861 -1.55662 -0.24637 0
M  V30 5094 C 482.808 -1.90361 -1.30504 0
M  V30 5095 C 483.778 -0.757905 -1.47801 0
M  V30 5096 O 484.963 -1.01161 -1.61775 0
M  V30 5097 C 482.103 -2.2042 -2.65535 0
M  V30 5098 C 481.216 -3.47799 -2.56242 0
M  V30 5099 C 480.351 -3.67426 -3.8363 0
M  V30 5100 C 479.39 -4.88403 -3.68956 0
M  V30 5101 N 478.527 -5.04548 -4.88237 0
M  V30 5102 H 483.367 -2.80645 -1.00213 0
M  V30 5103 H 480.904 -1.38924 -0.483577 0
M  V30 5104 H 482.862 -2.35853 -3.44135 0
M  V30 5105 H 481.492 -1.3334 -2.93973 0
M  V30 5106 H 480.544 -3.40694 -1.69208 0
M  V30 5107 H 481.856 -4.36544 -2.4131 0
M  V30 5108 H 481.01 -3.82821 -4.70673 0
M  V30 5109 H 479.749 -2.76914 -4.01459 0
M  V30 5110 H 478.754 -4.72984 -2.80296 0
M  V30 5111 H 479.979 -5.80375 -3.52621 0
M  V30 5112 H 477.925 -4.16974 -5.06427 0
M  V30 5113 H 477.842 -5.87384 -4.75937 0
M  V30 5114 H 479.11 -5.24355 -5.76777 0
M  V30 5115 N 483.339 0.512053 -1.4905 0
M  V30 5116 C 484.587 1.26436 -1.57665 0
M  V30 5117 C 484.908 1.93255 -0.260293 0
M  V30 5118 O 484.178 1.82206 0.719564 0
M  V30 5119 H 482.758 0.469658 -0.580888 0
M  V30 5120 H 485.42 0.594398 -1.85615 0
M  V30 5121 H 484.516 2.03417 -2.36702 0
M  V30 5122 N 484.817 1.37938 0.762283 0
M  V30 5123 C 485.747 1.37176 1.88958 0
M  V30 5124 C 486.728 0.238945 1.68413 0
M  V30 5125 O 487.913 0.440726 1.89133 0
M  V30 5126 C 485.043 1.18742 3.2637 0
M  V30 5127 C 483.997 2.29136 3.61498 0
M  V30 5128 C 483.323 1.95816 4.97554 0
M  V30 5129 C 484.623 3.71363 3.6727 0
M  V30 5130 H 486.317 2.31509 1.89853 0
M  V30 5131 H 483.863 1.11438 0.912005 0
M  V30 5132 H 485.816 1.16837 4.04879 0
M  V30 5133 H 484.54 0.208683 3.25933 0
M  V30 5134 H 483.199 2.30213 2.85303 0
M  V30 5135 H 482.847 0.964475 4.93667 0
M  V30 5136 H 482.547 2.69745 5.22026 0
M  V30 5137 H 484.071 1.95513 5.78452 0
M  V30 5138 H 485.485 3.72364 4.35911 0
M  V30 5139 H 483.882 4.44425 4.03245 0
M  V30 5140 H 484.952 4.04305 2.67704 0
M  V30 5141 N 486.295 -0.989507 1.22664 0
M  V30 5142 C 487.525 -1.7624 1.0781 0
M  V30 5143 C 487.933 -1.85466 -0.374036 0
M  V30 5144 O 487.276 -1.32645 -1.27087 0
M  V30 5145 C 487.338 -3.21007 1.61849 0
M  V30 5146 C 487.002 -3.35316 3.10503 0
M  V30 5147 C 487.999 -3.22362 4.07896 0
M  V30 5148 C 485.684 -3.60258 3.50028 0
M  V30 5149 C 487.678 -3.34139 5.42798 0
M  V30 5150 C 485.365 -3.71676 4.85078 0
M  V30 5151 C 486.363 -3.58625 5.81272 0
M  V30 5152 O 486.051 -3.69655 7.1387 0
M  V30 5153 H 485.783 -0.560209 0.378341 0
M  V30 5154 H 488.337 -1.25252 1.62792 0
M  V30 5155 H 486.567 -3.73202 1.01279 0
M  V30 5156 H 488.256 -3.80024 1.42606 0
M  V30 5157 H 489.022 -3.03 3.78703 0
M  V30 5158 H 484.901 -3.69492 2.75675 0
M  V30 5159 H 488.445 -3.23869 6.17863 0
M  V30 5160 H 484.342 -3.90545 5.1395 0
M  V30 5161 H 485.11 -3.86507 7.21495 0
M  V30 5162 N 487.773 -1.03688 -1.18687 0
M  V30 5163 C 489.021 -0.736572 -1.88199 0
M  V30 5164 C 489.342 0.737665 -1.80509 0
M  V30 5165 O 488.612 1.53204 -1.22088 0
M  V30 5166 H 487.192 -0.269466 -0.696704 0
M  V30 5167 H 489.854 -1.31282 -1.44052 0
M  V30 5168 H 488.95 -1.03802 -2.94332 0
M  V30 5169 N 489.251 1.34841 -0.815825 0
M  V30 5170 C 490.5 1.97755 -0.396976 0
M  V30 5171 C 490.813 1.65422 1.04379 0
M  V30 5172 O 492.019 2.21771 1.5662 0
M  V30 5173 C 490.475 3.53818 -0.658869 0
M  V30 5174 C 490.083 3.95051 -2.11278 0
M  V30 5175 C 491.827 4.23397 -0.305834 0
M  V30 5176 C 489.734 5.43997 -2.31994 0
M  V30 5177 H 488.664 0.739985 -0.1447 0
M  V30 5178 H 491.315 1.53781 -1.00118 0
M  V30 5179 H 489.697 3.95997 0.0154112 0
M  V30 5180 H 490.871 3.63998 -2.82564 0
M  V30 5181 H 489.186 3.38388 -2.42657 0
M  V30 5182 H 491.783 5.32899 -0.43854 0
M  V30 5183 H 492.126 4.09508 0.748952 0
M  V30 5184 H 492.659 3.8667 -0.934403 0
M  V30 5185 H 489.398 5.62865 -3.35952 0
M  V30 5186 H 488.918 5.76589 -1.65244 0
M  V30 5187 H 490.597 6.10584 -2.14001 0
M  V30 5188 N 490.729 0.570148 1.46925 0
M  V30 5189 C 492.006 -0.0153259 1.95594 0
M  V30 5190 C 492.386 -1.47232 1.51281 0
M  V30 5191 O 491.734 -2.15574 0.757624 0
M  V30 5192 C 491.944 0.143624 3.48704 0
M  V30 5193 C 493.292 0.00494484 4.246 0
M  V30 5194 O 494.316 0.0718214 3.56128 0
M  V30 5195 O 493.175 -0.141175 5.46318 0
M  V30 5196 H 490.269 -0.0568819 0.825041 0
M  V30 5197 H 492.815 0.637583 1.57267 0
M  V30 5198 H 491.587 1.15699 3.73804 0
M  V30 5199 H 491.21 -0.5463 3.93829 0
M  V30 5200 N 492.207 -1.54576 0.307264 0
M  V30 5201 C 493.117 -2.27435 -0.57536 0
M  V30 5202 C 494.133 -1.31183 -1.14311 0
M  V30 5203 O 495.309 -1.64175 -1.16656 0
M  V30 5204 C 492.374 -3.00566 -1.72803 0
M  V30 5205 C 491.435 -4.12369 -1.19373 0
M  V30 5206 C 490.668 -4.82003 -2.29147 0
M  V30 5207 O 490.891 -4.51038 -3.49171 0
M  V30 5208 O 489.825 -5.69271 -1.95485 0
M  V30 5209 H 493.651 -3.03696 0.0158558 0
M  V30 5210 H 491.236 -1.49219 0.0735064 0
M  V30 5211 H 493.118 -3.46416 -2.39946 0
M  V30 5212 H 491.793 -2.27195 -2.30574 0
M  V30 5213 H 490.7 -3.70905 -0.487851 0
M  V30 5214 H 492.033 -4.87736 -0.661376 0
M  V30 5215 N 493.685 -0.035106 -1.57561 0
M  V30 5216 C 494.595 0.960295 -2.14046 0
M  V30 5217 C 495.611 1.3529 -1.0942 0
M  V30 5218 O 496.787 1.43309 -1.41508 0
M  V30 5219 C 493.852 2.22214 -2.66124 0
M  V30 5220 C 492.913 1.8894 -3.85487 0
M  V30 5221 C 492.146 3.09109 -4.35072 0
M  V30 5222 O 492.369 4.21963 -3.83802 0
M  V30 5223 O 491.303 2.91058 -5.26848 0
M  V30 5224 H 495.129 0.509983 -2.99387 0
M  V30 5225 H 492.714 0.185853 -1.48239 0
M  V30 5226 H 494.596 2.96279 -2.99661 0
M  V30 5227 H 493.271 2.66414 -1.83862 0
M  V30 5228 H 492.178 1.12241 -3.56865 0
M  V30 5229 H 493.511 1.49551 -4.6893 0
M  V30 5230 N 495.163 1.55791 0.238111 0
M  V30 5231 C 496.409 1.78297 0.966337 0
M  V30 5232 C 496.742 0.601903 1.84637 0
M  V30 5233 O 496.017 -0.399499 1.90353 0
M  V30 5234 C 496.3 3.10758 1.81939 0
M  V30 5235 C 496.153 4.39283 0.966958 0
M  V30 5236 C 497.472 3.39519 2.80027 0
M  V30 5237 H 494.591 0.648654 0.349882 0
M  V30 5238 H 497.233 1.88525 0.236253 0
M  V30 5239 H 495.383 3.02168 2.44185 0
M  V30 5240 H 497.055 4.59873 0.362514 0
M  V30 5241 H 495.298 4.32948 0.271669 0
M  V30 5242 H 495.969 5.28368 1.59784 0
M  V30 5243 H 498.445 3.48128 2.27917 0
M  V30 5244 H 497.321 4.33402 3.36829 0
M  V30 5245 H 497.582 2.60864 3.56934 0
M  V30 5246 N 496.642 -0.504142 1.49319 0
M  V30 5247 C 497.889 -1.25846 1.58647 0
M  V30 5248 C 498.217 -1.92592 0.27177 0
M  V30 5249 O 497.472 -1.81167 -0.74007 0
M  V30 5250 C 497.771 -2.35021 2.69258 0
M  V30 5251 C 497.437 -1.85755 4.1086 0
M  V30 5252 C 496.099 -1.72038 4.49395 0
M  V30 5253 C 498.451 -1.48844 4.99495 0
M  V30 5254 C 495.779 -1.19783 5.74342 0
M  V30 5255 C 498.131 -0.980422 6.24956 0
M  V30 5256 C 496.795 -0.829622 6.62324 0
M  V30 5257 H 496.065 -0.460505 0.580531 0
M  V30 5258 H 498.712 -0.559716 1.83138 0
M  V30 5259 H 497.017 -3.10672 2.38726 0
M  V30 5260 H 498.714 -2.93083 2.73685 0
M  V30 5261 H 495.304 -1.9739 3.80441 0
M  V30 5262 H 499.488 -1.5829 4.70381 0
M  V30 5263 H 494.744 -1.06817 6.01997 0
M  V30 5264 H 498.918 -0.685608 6.93017 0
M  V30 5265 H 496.545 -0.42253 7.59025 0
M  V30 5266 N 498.12 -1.38341 -0.754957 0
M  V30 5267 C 499.05 -1.38176 -1.88227 0
M  V30 5268 C 500.031 -0.247873 -1.68284 0
M  V30 5269 O 501.216 -0.45075 -1.88896 0
M  V30 5270 C 498.346 -1.20471 -3.25736 0
M  V30 5271 C 497.3 -2.3105 -3.60278 0
M  V30 5272 C 496.626 -1.98452 -4.96509 0
M  V30 5273 C 497.926 -3.73305 -3.65295 0
M  V30 5274 H 499.62 -2.32512 -1.88622 0
M  V30 5275 H 497.166 -1.1192 -0.906082 0
M  V30 5276 H 499.119 -1.18982 -4.04254 0
M  V30 5277 H 497.843 -0.225965 -3.25817 0
M  V30 5278 H 496.502 -2.31723 -2.84078 0
M  V30 5279 H 496.15 -0.990641 -4.93148 0
M  V30 5280 H 495.85 -2.7251 -5.20588 0
M  V30 5281 H 497.374 -1.98578 -5.77407 0
M  V30 5282 H 498.788 -3.7467 -4.3393 0
M  V30 5283 H 497.185 -4.46557 -4.00883 0
M  V30 5284 H 498.255 -4.05719 -2.65556 0
M  V30 5285 N 499.598 0.982988 -1.23187 0
M  V30 5286 C 500.823 1.76455 -1.08988 0
M  V30 5287 C 501.248 1.84726 0.354691 0
M  V30 5288 O 500.606 1.30699 1.25649 0
M  V30 5289 C 500.654 3.17094 -1.71708 0
M  V30 5290 O 499.758 4.00648 -0.977477 0
M  V30 5291 H 499.099 0.542988 -0.382177 0
M  V30 5292 H 501.629 1.23413 -1.63188 0
M  V30 5293 H 501.639 3.67684 -1.76841 0
M  V30 5294 H 500.314 3.10389 -2.76823 0
M  V30 5295 H 498.891 3.59161 -1.0029 0
M  V30 5296 N 501.076 1.04316 1.18135 0
M  V30 5297 C 502.325 0.74319 1.87509 0
M  V30 5298 C 502.638 -0.732136 1.81381 0
M  V30 5299 O 503.844 -1.14572 2.46141 0
M  V30 5300 C 502.3 1.27913 3.36402 0
M  V30 5301 C 501.908 2.78326 3.51053 0
M  V30 5302 C 503.652 1.0558 4.11161 0
M  V30 5303 C 501.559 3.25266 4.93919 0
M  V30 5304 H 500.489 0.274313 0.702331 0
M  V30 5305 H 503.14 1.25931 1.33467 0
M  V30 5306 H 501.522 0.690853 3.89927 0
M  V30 5307 H 502.696 3.42933 3.07788 0
M  V30 5308 H 501.011 2.991 2.89704 0
M  V30 5309 H 503.608 1.38161 5.16542 0
M  V30 5310 H 503.951 -0.00684729 4.16299 0
M  V30 5311 H 504.484 1.60882 3.63816 0
M  V30 5312 H 501.223 4.30922 4.9395 0
M  V30 5313 H 500.743 2.65396 5.3789 0
M  V30 5314 H 502.422 3.19433 5.62647 0
M  V30 5315 N 502.554 -1.34406 0.822964 0
M  V30 5316 C 503.965 -1.8069 0.469879 0
M  V30 5317 C 504.316 -1.68223 -1.00972 0
M  V30 5318 O 503.441 -1.22226 -1.78577 0
M  V30 5319 C 504.036 -3.28064 0.846118 0
M  V30 5320 C 502.595 -3.72428 0.545402 0
M  V30 5321 C 501.742 -2.56116 1.06301 0
M  V30 5322 H 504.693 -1.22153 1.01313 0
M  V30 5323 H 504.714 -3.80205 0.149922 0
M  V30 5324 H 504.226 -3.37107 1.92304 0
M  V30 5325 H 502.327 -3.68924 -0.522109 0
M  V30 5326 H 502.44 -4.66548 1.0895 0
M  V30 5327 H 500.804 -2.50048 0.484554 0
M  V30 5328 H 501.587 -2.67928 2.14638 0
M  V30 5329 N 504.032 -0.577932 -1.46621 0
M  V30 5330 C 505.272 -0.0643097 -2.04299 0
M  V30 5331 C 505.636 1.26967 -1.44026 0
M  V30 5332 O 506.837 1.87224 -1.92875 0
M  V30 5333 C 505.108 0.00547588 -3.574 0
M  V30 5334 S 506.667 0.462216 -4.36359 0
M  V30 5335 H 503.485 -0.0351573 -0.71013 0
M  V30 5336 H 506.087 -0.76935 -1.79725 0
M  V30 5337 H 504.791 -0.969423 -3.98786 0
M  V30 5338 H 504.322 0.733435 -3.86503 0
M  V30 5339 H 506.337 1.71791 -4.65513 0
M  V30 5340 N 505.51 1.54411 -0.315457 0
M  V30 5341 C 506.759 1.99599 0.290395 0
M  V30 5342 C 507.072 1.20746 1.53882 0
M  V30 5343 O 508.278 1.56272 2.22017 0
M  V30 5344 C 506.734 3.5539 0.56797 0
M  V30 5345 C 506.342 4.43068 -0.662945 0
M  V30 5346 C 508.086 4.09067 1.13422 0
M  V30 5347 C 505.993 5.90317 -0.357722 0
M  V30 5348 H 504.923 0.745592 0.112286 0
M  V30 5349 H 507.574 1.78477 -0.426418 0
M  V30 5350 H 505.956 3.72468 1.34476 0
M  V30 5351 H 507.13 4.37765 -1.43869 0
M  V30 5352 H 505.445 4.00238 -1.14884 0
M  V30 5353 H 508.042 5.16663 1.37707 0
M  V30 5354 H 508.385 3.60552 2.08106 0
M  V30 5355 H 508.918 3.95589 0.418805 0
M  V30 5356 H 505.657 6.4301 -1.27351 0
M  V30 5357 H 505.177 5.98592 0.380472 0
M  V30 5358 H 506.856 6.4699 0.0354284 0
M  V30 5359 N 506.988 0.0434614 1.5754 0
M  V30 5360 C 507.918 -0.931651 2.14109 0
M  V30 5361 C 508.899 -1.32971 1.06079 0
M  V30 5362 O 510.084 -1.40579 1.33982 0
M  V30 5363 C 507.214 -2.20914 2.67982 0
M  V30 5364 C 506.168 -1.95139 3.80926 0
M  V30 5365 C 505.494 -3.29276 4.21285 0
M  V30 5366 C 506.794 -1.27913 5.06395 0
M  V30 5367 H 508.488 -0.460497 2.95837 0
M  V30 5368 H 506.034 -0.220058 1.42309 0
M  V30 5369 H 507.987 -2.89522 3.06194 0
M  V30 5370 H 506.711 -2.70221 1.83434 0
M  V30 5371 H 505.37 -1.28945 3.43175 0
M  V30 5372 H 505.018 -3.76369 3.33699 0
M  V30 5373 H 504.718 -3.12831 4.97404 0
M  V30 5374 H 506.242 -3.99129 4.62091 0
M  V30 5375 H 507.656 -1.86544 5.42102 0
M  V30 5376 H 506.053 -1.2182 5.87605 0
M  V30 5377 H 507.123 -0.254066 4.84234 0
M  V30 5378 N 508.466 -1.55915 -0.229846 0
M  V30 5379 C 509.714 -1.7819 -0.953565 0
M  V30 5380 C 510.035 -0.610504 -1.85197 0
M  V30 5381 O 509.305 0.372988 -1.92316 0
M  V30 5382 H 507.885 -0.657208 -0.355087 0
M  V30 5383 H 510.547 -1.9337 -0.243693 0
M  V30 5384 H 509.643 -2.70011 -1.56527 0
M  V30 5385 N 509.944 0.496216 -1.49584 0
M  V30 5386 C 510.854 1.62352 -1.69349 0
M  V30 5387 C 511.87 1.64184 -0.576147 0
M  V30 5388 O 513.046 1.82517 -0.85144 0
M  V30 5389 C 510.111 2.98698 -1.76013 0
M  V30 5390 C 509.172 3.07454 -2.99617 0
M  V30 5391 C 508.405 4.37296 -3.05953 0
M  V30 5392 O 508.628 5.2637 -2.19752 0
M  V30 5393 O 507.562 4.51124 -3.9846 0
M  V30 5394 H 511.388 1.48606 -2.64859 0
M  V30 5395 H 508.973 0.673022 -1.33382 0
M  V30 5396 H 510.855 3.79725 -1.82721 0
M  V30 5397 H 509.53 3.12696 -0.836828 0
M  V30 5398 H 508.437 2.25597 -2.98424 0
M  V30 5399 H 509.77 2.98385 -3.91443 0
M  V30 5400 N 511.423 1.38739 0.74761 0
M  V30 5401 C 512.371 1.36573 1.88283 0
M  V30 5402 C 513.365 0.250712 1.67534 0
M  V30 5403 O 514.571 0.420073 1.7503 0
M  V30 5404 H 510.946 0.42619 0.619569 0
M  V30 5405 H 512.917 2.32356 1.87226 0
M  V30 5406 C 511.666 1.21361 3.25832 0
M  V30 5407 H 510.989 2.06424 3.42388 0
M  V30 5408 H 512.429 1.23901 4.05493 0
M  V30 5409 C 510.888 -0.0790099 3.36807 0
M  V30 5410 O 511.418 -1.05385 3.8763 0
M  V30 5411 N 509.624 -0.13785 2.90273 0
M  V30 5412 H 509.171 0.656128 2.49104 0
M  V30 5413 H 509.129 -1.00228 2.97996 0
M  V30 5414 N 512.901 -0.976442 1.23707 0
M  V30 5415 C 514.149 -1.71487 1.06942 0
M  V30 5416 C 514.47 -1.9098 -0.393897 0
M  V30 5417 O 513.74 -1.48128 -1.28198 0
M  V30 5418 H 512.32 -0.635425 0.392739 0
M  V30 5419 H 514.982 -1.17515 1.55487 0
M  V30 5420 H 514.078 -2.70286 1.56051 0
M  V30 5421 N 514.379 -1.04941 -1.1758 0
M  V30 5422 C 515.628 -0.753124 -1.87112 0
M  V30 5423 C 515.941 0.722507 -1.81767 0
M  V30 5424 O 517.147 1.13265 -2.46746 0
M  V30 5425 C 515.603 -1.29695 -3.35719 0
M  V30 5426 C 515.211 -2.80184 -3.49572 0
M  V30 5427 C 516.955 -1.07759 -4.10595 0
M  V30 5428 C 514.862 -3.2788 -4.92187 0
M  V30 5429 H 513.792 -0.278034 -0.700866 0
M  V30 5430 H 516.443 -1.26637 -1.32798 0
M  V30 5431 H 514.825 -0.711522 -3.89555 0
M  V30 5432 H 515.999 -3.44561 -3.05965 0
M  V30 5433 H 514.314 -3.00632 -2.88113 0
M  V30 5434 H 516.911 -1.40899 -5.15802 0
M  V30 5435 H 517.254 -0.0152302 -4.16297 0
M  V30 5436 H 517.787 -1.62809 -3.62957 0
M  V30 5437 H 514.526 -4.33535 -4.91658 0
M  V30 5438 H 514.046 -2.68245 -5.36475 0
M  V30 5439 H 515.725 -3.22412 -5.60945 0
M  V30 5440 N 515.857 1.33968 -0.830081 0
M  V30 5441 C 517.085 2.0228 -0.434773 0
M  V30 5442 C 517.5 1.62487 0.961419 0
M  V30 5443 O 516.857 0.833849 1.62337 0
M  V30 5444 C 516.908 3.5751 -0.535625 0
M  V30 5445 O 516.629 3.95864 -1.87679 0
M  V30 5446 C 518.13 4.43091 -0.136137 0
M  V30 5447 H 515.35 0.648151 -0.173613 0
M  V30 5448 H 517.894 1.71089 -1.12022 0
M  V30 5449 H 516.049 3.87266 0.101817 0
M  V30 5450 H 516.463 4.9056 -1.85609 0
M  V30 5451 H 517.937 5.51398 -0.257772 0
M  V30 5452 H 518.414 4.29433 0.921076 0
M  V30 5453 H 519.02 4.18677 -0.747662 0
M  V30 5454 N 517.335 0.585699 1.46312 0
M  V30 5455 C 518.283 -0.158577 2.32059 0
M  V30 5456 C 519.277 -0.881427 1.44662 0
M  V30 5457 O 520.483 -0.799476 1.61271 0
M  V30 5458 H 516.858 -0.0700066 0.748734 0
M  V30 5459 H 518.829 0.583383 2.92642 0
M  V30 5460 C 517.578 -1.15701 3.27885 0
M  V30 5461 H 516.901 -0.610215 3.95116 0
M  V30 5462 H 518.341 -1.64812 3.90657 0
M  V30 5463 C 516.8 -2.21951 2.53455 0
M  V30 5464 O 517.33 -3.29352 2.29978 0
M  V30 5465 N 515.536 -1.9664 2.13965 0
M  V30 5466 H 515.083 -1.09309 2.33258 0
M  V30 5467 H 515.041 -2.6794 1.64485 0
M  V30 5468 N 518.813 -1.54241 0.323641 0
M  V30 5469 C 519.743 -2.27289 -0.534993 0
M  V30 5470 C 520.724 -1.28087 -1.11927 0
M  V30 5471 O 521.909 -1.56899 -1.14439 0
M  V30 5472 C 519.039 -3.03075 -1.69596 0
M  V30 5473 C 517.993 -4.09614 -1.24098 0
M  V30 5474 C 517.319 -4.73242 -2.4889 0
M  V30 5475 C 518.619 -5.21087 -0.355789 0
M  V30 5476 H 520.313 -2.99308 0.0743257 0
M  V30 5477 H 517.859 -1.43952 0.0371874 0
M  V30 5478 H 519.812 -3.52907 -2.30293 0
M  V30 5479 H 518.536 -2.28673 -2.33187 0
M  V30 5480 H 517.195 -3.60666 -0.656945 0
M  V30 5481 H 516.843 -3.95455 -3.10845 0
M  V30 5482 H 516.543 -5.45209 -2.19138 0
M  V30 5483 H 518.067 -5.25848 -3.10348 0
M  V30 5484 H 519.481 -5.66675 -0.869042 0
M  V30 5485 H 517.878 -5.9991 -0.151045 0
M  V30 5486 H 518.948 -4.81005 0.613339 0
M  V30 5487 N 520.291 -0.0518155 -1.57515 0
M  V30 5488 C 521.54 0.621286 -1.91893 0
M  V30 5489 C 521.853 1.71966 -0.932052 0
M  V30 5490 O 523.059 2.45096 -1.16791 0
M  V30 5491 C 521.515 1.15641 -3.40816 0
M  V30 5492 C 521.123 0.0901146 -4.47909 0
M  V30 5493 C 522.867 1.80472 -3.84227 0
M  V30 5494 C 520.774 0.638154 -5.87947 0
M  V30 5495 H 519.704 0.235835 -0.716169 0
M  V30 5496 H 522.355 -0.120809 -1.83102 0
M  V30 5497 H 520.737 1.95084 -3.44613 0
M  V30 5498 H 521.911 -0.683525 -4.55702 0
M  V30 5499 H 520.226 -0.460774 -4.13843 0
M  V30 5500 H 522.823 2.22471 -4.86221 0
M  V30 5501 H 523.166 2.65669 -3.20508 0
M  V30 5502 H 523.699 1.07683 -3.82948 0
M  V30 5503 H 520.438 -0.176202 -6.55263 0
M  V30 5504 H 519.958 1.37976 -5.83714 0
M  V30 5505 H 521.637 1.12085 -6.37217 0
M  V30 5506 N 521.769 1.56035 0.221574 0
M  V30 5507 C 522.716 1.92413 1.27459 0
M  V30 5508 C 523.686 0.781323 1.46576 0
M  V30 5509 O 524.871 1.03721 1.60145 0
M  V30 5510 C 522.011 2.24617 2.61995 0
M  V30 5511 C 521.124 3.51831 2.50677 0
M  V30 5512 C 520.259 3.73482 3.77736 0
M  V30 5513 C 519.298 4.94211 3.6114 0
M  V30 5514 N 518.435 5.12252 4.80148 0
M  V30 5515 H 523.275 2.82203 0.957355 0
M  V30 5516 H 520.812 1.39676 0.461415 0
M  V30 5517 H 522.77 2.41298 3.40339 0
M  V30 5518 H 521.4 1.38 2.91815 0
M  V30 5519 H 520.452 3.43343 1.63767 0
M  V30 5520 H 521.764 4.40328 2.34334 0
M  V30 5521 H 520.918 3.9026 4.64523 0
M  V30 5522 H 519.657 2.83266 3.97003 0
M  V30 5523 H 518.662 4.77384 2.72736 0
M  V30 5524 H 519.887 5.85912 3.43343 0
M  V30 5525 H 517.833 4.24978 4.99729 0
M  V30 5526 H 517.75 5.94881 4.66532 0
M  V30 5527 H 519.018 5.33465 5.68362 0
M  V30 5528 N 523.247 -0.488276 1.49845 0
M  V30 5529 C 524.496 -1.23826 1.59217 0
M  V30 5530 C 524.809 -1.93439 0.289966 0
M  V30 5531 O 526.015 -2.70229 0.262382 0
M  V30 5532 C 524.471 -2.24902 2.80976 0
M  V30 5533 C 524.079 -1.6117 4.18005 0
M  V30 5534 C 525.823 -3.00648 2.99685 0
M  V30 5535 C 523.73 -2.60431 5.3097 0
M  V30 5536 H 522.66 -0.465858 0.592868 0
M  V30 5537 H 525.311 -0.510645 1.76252 0
M  V30 5538 H 523.693 -3.0088 2.57463 0
M  V30 5539 H 524.867 -0.910968 4.51706 0
M  V30 5540 H 523.182 -0.97767 4.0476 0
M  V30 5541 H 525.779 -3.74903 3.81251 0
M  V30 5542 H 526.122 -3.5902 2.10738 0
M  V30 5543 H 526.655 -2.31784 3.23297 0
M  V30 5544 H 523.394 -2.06823 6.22017 0
M  V30 5545 H 522.914 -3.28707 5.01709 0
M  V30 5546 H 524.593 -3.22606 5.60834 0
M  V30 5547 N 524.725 -1.39134 -0.740242 0
M  V30 5548 C 525.672 -1.37434 -1.8542 0
M  V30 5549 C 526.642 -0.234822 -1.64432 0
M  V30 5550 O 527.827 -0.429125 -1.85912 0
M  V30 5551 C 524.967 -1.21844 -3.22875 0
M  V30 5552 C 524.08 -2.45296 -3.55603 0
M  V30 5553 C 523.215 -2.22334 -4.82432 0
M  V30 5554 C 522.254 -3.41488 -5.07988 0
M  V30 5555 N 521.391 -3.17877 -6.26018 0
M  V30 5556 H 526.231 -2.3266 -1.86207 0
M  V30 5557 H 523.768 -1.15578 -0.909946 0
M  V30 5558 H 525.726 -1.10818 -4.02213 0
M  V30 5559 H 524.356 -0.3025 -3.21379 0
M  V30 5560 H 523.408 -2.66945 -2.71006 0
M  V30 5561 H 524.72 -3.34063 -3.7041 0
M  V30 5562 H 523.874 -2.0852 -5.69741 0
M  V30 5563 H 522.613 -1.30954 -4.6979 0
M  V30 5564 H 521.618 -3.55807 -4.19144 0
M  V30 5565 H 522.843 -4.33763 -5.22519 0
M  V30 5566 H 520.789 -2.29156 -6.14673 0
M  V30 5567 H 520.706 -4.00198 -6.41387 0
M  V30 5568 H 521.974 -3.07746 -7.16179 0
M  V30 5569 N 526.204 0.969867 -1.24223 0
M  V30 5570 C 527.134 2.08191 -1.05729 0
M  V30 5571 C 528.115 1.70075 0.0290765 0
M  V30 5572 O 529.3 1.93712 -0.137583 0
M  V30 5573 C 526.43 3.40991 -0.658995 0
M  V30 5574 C 525.384 3.93054 -1.69389 0
M  V30 5575 C 524.71 5.22171 -1.15072 0
M  V30 5576 C 526.01 4.21137 -3.08935 0
M  V30 5577 H 527.704 2.23921 -1.98746 0
M  V30 5578 H 525.25 1.07602 -0.956967 0
M  V30 5579 H 527.203 4.18221 -0.51662 0
M  V30 5580 H 525.927 3.25155 0.30686 0
M  V30 5581 H 524.586 3.17977 -1.82444 0
M  V30 5582 H 524.234 5.02694 -0.175539 0
M  V30 5583 H 523.934 5.57973 -1.84229 0
M  V30 5584 H 525.458 6.02013 -1.02042 0
M  V30 5585 H 526.872 4.8908 -2.99121 0
M  V30 5586 H 525.269 4.68163 -3.75425 0
M  V30 5587 H 526.339 3.27996 -3.57137 0
M  V30 5588 N 527.682 1.05563 1.17022 0
M  V30 5589 C 528.91 0.78845 1.91288 0
M  V30 5590 C 529.325 -0.656318 1.77025 0
M  V30 5591 O 528.682 -1.44869 1.10992 0
M  V30 5592 C 528.733 1.16444 3.42232 0
M  V30 5593 O 528.454 2.5525 3.5606 0
M  V30 5594 C 529.955 0.923937 4.33565 0
M  V30 5595 H 527.175 0.286389 0.606813 0
M  V30 5596 H 529.719 1.4073 1.48375 0
M  V30 5597 H 527.874 0.590266 3.82877 0
M  V30 5598 H 528.288 2.70097 4.49609 0
M  V30 5599 H 529.762 1.23672 5.37968 0
M  V30 5600 H 530.239 -0.140688 4.38975 0
M  V30 5601 H 530.845 1.48214 3.98639 0
M  V30 5602 N 529.16 -1.33526 0.837174 0
M  V30 5603 C 530.571 -1.80182 0.489017 0
M  V30 5604 C 530.922 -1.69285 -0.991826 0
M  V30 5605 O 530.047 -1.24113 -1.77271 0
M  V30 5606 C 530.642 -3.27149 0.880866 0
M  V30 5607 C 529.201 -3.71828 0.584872 0
M  V30 5608 C 528.348 -2.54974 1.09011 0
M  V30 5609 H 531.299 -1.21071 1.02603 0
M  V30 5610 H 531.32 -3.80024 0.190239 0
M  V30 5611 H 530.832 -3.35048 1.95869 0
M  V30 5612 H 528.933 -3.69457 -0.48295 0
M  V30 5613 H 529.046 -4.65366 1.13892 0
M  V30 5614 H 527.41 -2.4952 0.511047 0
M  V30 5615 H 528.193 -2.65637 2.17467 0
M  V30 5616 N 530.638 -0.59345 -1.46 0
M  V30 5617 C 531.548 0.135817 -2.34207 0
M  V30 5618 C 532.564 0.875008 -1.50398 0
M  V30 5619 O 533.74 0.835778 -1.83239 0
M  V30 5620 C 530.805 1.12977 -3.27776 0
M  V30 5621 C 529.866 0.394081 -4.27487 0
M  V30 5622 C 529.099 1.34068 -5.16586 0
M  V30 5623 O 529.322 2.5778 -5.08828 0
M  V30 5624 O 528.256 0.845426 -5.95933 0
M  V30 5625 H 532.082 -0.588691 -2.9794 0
M  V30 5626 H 529.667 -0.353784 -1.45151 0
M  V30 5627 H 531.549 1.70261 -3.85473 0
M  V30 5628 H 530.224 1.83556 -2.66625 0
M  V30 5629 H 529.131 -0.220869 -3.73447 0
M  V30 5630 H 530.464 -0.270939 -4.91454 0
M  V30 5631 N 532.116 1.54067 -0.331816 0
M  V30 5632 C 533.026 2.28322 0.539104 0
M  V30 5633 C 534.042 1.32985 1.1221 0
M  V30 5634 O 535.218 1.6601 1.1403 0
M  V30 5635 C 532.283 3.03277 1.68 0
M  V30 5636 C 531.344 4.14216 1.12798 0
M  V30 5637 C 530.577 4.85588 2.2145 0
M  V30 5638 O 530.8 4.56536 3.41952 0
M  V30 5639 O 529.734 5.72309 1.86404 0
M  V30 5640 H 533.56 3.03632 -0.0641692 0
M  V30 5641 H 531.145 1.49083 -0.0972365 0
M  V30 5642 H 533.027 3.50189 2.34405 0
M  V30 5643 H 531.702 2.30834 2.2693 0
M  V30 5644 H 530.609 3.71635 0.428782 0
M  V30 5645 H 531.942 4.88727 0.583698 0
M  V30 5646 N 533.594 0.0601682 1.57485 0
M  V30 5647 C 534.504 -0.926121 2.15546 0
M  V30 5648 C 535.52 -1.33532 1.11558 0
M  V30 5649 O 536.696 -1.4104 1.4377 0
M  V30 5650 C 533.761 -2.17952 2.69625 0
M  V30 5651 C 532.822 -1.82783 3.88444 0
M  V30 5652 C 532.055 -3.02148 4.39935 0
M  V30 5653 O 532.278 -4.15803 3.90466 0
M  V30 5654 O 531.212 -2.82639 5.31412 0
M  V30 5655 H 535.038 -0.462289 3.00161 0
M  V30 5656 H 532.623 -0.162246 1.48516 0
M  V30 5657 H 534.505 -2.91474 3.04337 0
M  V30 5658 H 533.18 -2.63456 1.88077 0
M  V30 5659 H 532.087 -1.06549 3.58606 0
M  V30 5660 H 533.42 -1.42072 4.7125 0
M  V30 5661 N 535.072 -1.5615 -0.213296 0
M  V30 5662 C 536.035 -1.92249 -1.24792 0
M  V30 5663 C 537.035 -0.801828 -1.39382 0
M  V30 5664 O 538.225 -1.06948 -1.37506 0
M  V30 5665 C 535.357 -2.18056 -2.62039 0
M  V30 5666 H 536.55 -2.84793 -0.939845 0
M  V30 5667 H 534.103 -1.49559 -0.454062 0
M  V30 5668 H 534.838 -1.2809 -2.97932 0
M  V30 5669 H 534.623 -2.99703 -2.52825 0
M  V30 5670 H 536.113 -2.47051 -3.36683 0
M  V30 5671 N 536.55 0.480323 -1.50102 0
M  V30 5672 C 537.5 1.57685 -1.6468 0
M  V30 5673 C 538.484 1.52878 -0.5017 0
M  V30 5674 O 539.676 1.60058 -0.755668 0
M  V30 5675 C 536.805 2.96185 -1.73578 0
M  V30 5676 C 535.891 3.0591 -2.93734 0
M  V30 5677 N 536.282 2.85471 -4.1754 0
M  V30 5678 C 534.58 3.37036 -2.92101 0
M  V30 5679 C 535.281 2.99921 -4.9842 0
M  V30 5680 N 534.257 3.29715 -4.32191 0
M  V30 5681 H 538.059 1.40568 -2.58104 0
M  V30 5682 H 535.573 0.686874 -1.47159 0
M  V30 5683 H 537.57 3.75015 -1.82124 0
M  V30 5684 H 536.23 3.14356 -0.813057 0
M  V30 5685 H 537.241 2.61235 -4.47188 0
M  V30 5686 H 533.918 3.61253 -2.09291 0
M  V30 5687 H 535.308 2.88436 -6.06839 0
M  V30 5688 N 538.028 1.39524 0.732853 0
M  V30 5689 C 538.958 1.41153 1.86005 0
M  V30 5690 C 539.939 0.274614 1.67869 0
M  V30 5691 O 541.124 0.480745 1.88155 0
M  V30 5692 C 538.254 1.25638 3.23778 0
M  V30 5693 C 537.208 2.36752 3.56556 0
M  V30 5694 C 536.534 2.06326 4.93289 0
M  V30 5695 C 537.834 3.79069 3.5931 0
M  V30 5696 H 539.528 2.35484 1.84899 0
M  V30 5697 H 537.074 1.13348 0.888162 0
M  V30 5698 H 539.027 1.25398 4.0231 0
M  V30 5699 H 537.751 0.277772 3.25417 0
M  V30 5700 H 536.41 2.36213 2.80355 0
M  V30 5701 H 536.058 1.06897 4.9151 0
M  V30 5702 H 535.758 2.80757 5.16187 0
M  V30 5703 H 537.282 2.07739 5.74175 0
M  V30 5704 H 538.696 3.81526 4.27914 0
M  V30 5705 H 537.093 4.52878 3.93728 0
M  V30 5706 H 538.163 4.09893 2.59068 0
M  V30 5707 N 539.506 -0.963266 1.24736 0
M  V30 5708 C 540.453 -2.05857 1.04363 0
M  V30 5709 C 541.423 -1.6604 -0.0444951 0
M  V30 5710 O 542.608 -1.90477 0.110999 0
M  V30 5711 C 539.748 -3.38745 0.659235 0
M  V30 5712 C 538.861 -3.9173 1.82131 0
M  V30 5713 C 537.996 -5.12906 1.38208 0
M  V30 5714 C 537.035 -5.58098 2.51382 0
M  V30 5715 N 536.172 -6.7049 2.08295 0
M  V30 5716 H 541.012 -2.22616 1.98107 0
M  V30 5717 H 538.549 -1.09103 0.986661 0
M  V30 5718 H 540.507 -4.15107 0.417371 0
M  V30 5719 H 539.137 -3.21898 -0.241201 0
M  V30 5720 H 538.189 -3.11966 2.17672 0
M  V30 5721 H 539.501 -4.21225 2.67153 0
M  V30 5722 H 538.655 -5.96657 1.09935 0
M  V30 5723 H 537.394 -4.85105 0.502456 0
M  V30 5724 H 536.399 -4.72917 2.80409 0
M  V30 5725 H 537.624 -5.87911 3.39909 0
M  V30 5726 H 535.57 -6.44416 1.22737 0
M  V30 5727 H 535.487 -6.99458 2.86869 0
M  V30 5728 H 536.755 -7.57672 1.83175 0
M  V30 5729 N 540.985 -1.06182 -1.16461 0
M  V30 5730 C 541.932 -0.671613 -2.20812 0
M  V30 5731 C 542.902 0.331186 -1.62765 0
M  V30 5732 O 544.087 0.22033 -1.89524 0
M  V30 5733 C 541.227 -0.063029 -3.45042 0
M  V30 5734 C 540.34 -1.11587 -4.1734 0
M  V30 5735 C 539.475 -0.473546 -5.29085 0
M  V30 5736 C 538.514 -1.51 -5.93182 0
M  V30 5737 N 537.651 -0.891118 -6.96422 0
M  V30 5738 H 542.491 -1.56589 -2.53542 0
M  V30 5739 H 540.028 -0.782951 -1.24532 0
M  V30 5740 H 541.986 0.307344 -4.16066 0
M  V30 5741 H 540.616 0.794663 -3.12866 0
M  V30 5742 H 539.668 -1.60396 -3.44931 0
M  V30 5743 H 540.98 -1.90221 -4.61104 0
M  V30 5744 H 540.134 -0.0501432 -6.06679 0
M  V30 5745 H 538.873 0.344687 -4.8648 0
M  V30 5746 H 537.878 -1.94331 -5.14311 0
M  V30 5747 H 539.103 -2.33031 -6.37866 0
M  V30 5748 H 537.049 -0.0935753 -6.55933 0
M  V30 5749 H 536.966 -1.61486 -7.38551 0
M  V30 5750 H 538.234 -0.492822 -7.77941 0
M  V30 5751 N 542.463 1.3308 -0.844243 0
M  V30 5752 C 543.688 2.02341 -0.455282 0
M  V30 5753 C 544.113 1.6308 0.93737 0
M  V30 5754 O 543.471 0.826118 1.61385 0
M  V30 5755 C 543.519 3.55743 -0.58988 0
M  V30 5756 O 542.623 4.1063 0.38166 0
M  V30 5757 H 541.964 0.637898 -0.184343 0
M  V30 5758 H 544.494 1.6986 -1.14056 0
M  V30 5759 H 544.504 4.05243 -0.473522 0
M  V30 5760 H 543.179 3.83662 -1.60549 0
M  V30 5761 H 541.756 3.72236 0.22241 0
M  V30 5762 N 543.941 0.601185 1.45683 0
M  V30 5763 C 544.904 -0.111398 2.28929 0
M  V30 5764 C 545.904 -0.801246 1.39416 0
M  V30 5765 O 547.094 -0.650383 1.61603 0
M  V30 5766 C 544.226 -1.16773 3.20276 0
M  V30 5767 H 545.419 0.620412 2.93413 0
M  V30 5768 H 542.972 0.359946 1.52099 0
M  V30 5769 H 543.707 -1.93051 2.60579 0
M  V30 5770 H 543.492 -0.677358 3.86205 0
M  V30 5771 H 544.982 -1.66698 3.82886 0
M  V30 5772 N 545.419 -1.53889 0.339982 0
M  V30 5773 C 546.366 -2.24902 -0.518452 0
M  V30 5774 C 547.336 -1.24593 -1.09844 0
M  V30 5775 O 548.521 -1.53317 -1.13572 0
M  V30 5776 C 545.661 -3.02262 -1.66529 0
M  V30 5777 C 544.774 -4.17418 -1.11295 0
M  V30 5778 C 543.909 -4.82273 -2.2268 0
M  V30 5779 C 542.948 -5.89503 -1.6478 0
M  V30 5780 N 542.085 -6.48153 -2.69893 0
M  V30 5781 H 546.925 -2.97853 0.0936579 0
M  V30 5782 H 544.462 -1.46986 0.0579924 0
M  V30 5783 H 546.42 -3.45371 -2.3404 0
M  V30 5784 H 545.05 -2.31614 -2.24844 0
M  V30 5785 H 544.102 -3.78976 -0.328886 0
M  V30 5786 H 545.414 -4.94554 -0.649414 0
M  V30 5787 H 544.568 -5.28435 -2.98063 0
M  V30 5788 H 543.307 -4.04552 -2.72376 0
M  V30 5789 H 542.312 -5.42728 -0.879004 0
M  V30 5790 H 543.537 -6.6913 -1.1594 0
M  V30 5791 H 541.483 -5.73298 -3.1885 0
M  V30 5792 H 541.4 -7.20752 -2.28151 0
M  V30 5793 H 542.668 -6.98968 -3.45056 0
M  V30 5794 N 546.897 -0.0685191 -1.57451 0
M  V30 5795 C 548.125 0.610462 -1.97689 0
M  V30 5796 C 548.54 1.63346 -0.946758 0
M  V30 5797 O 547.897 1.82377 0.0669868 0
M  V30 5798 C 547.948 1.28196 -3.38006 0
M  V30 5799 O 547.669 0.299906 -4.37072 0
M  V30 5800 C 549.17 2.04907 -3.931 0
M  V30 5801 H 546.39 0.165689 -0.650222 0
M  V30 5802 H 548.934 -0.139953 -2.04021 0
M  V30 5803 H 547.089 1.98348 -3.32771 0
M  V30 5804 H 547.503 0.78126 -5.18649 0
M  V30 5805 H 548.977 2.47287 -4.93511 0
M  V30 5806 H 549.454 2.9043 -3.29465 0
M  V30 5807 H 550.06 1.39629 -4.01726 0
M  V30 5808 N 548.375 1.56261 0.205012 0
M  V30 5809 C 549.305 1.96779 1.257 0
M  V30 5810 C 550.286 0.838309 1.48008 0
M  V30 5811 O 551.471 1.10189 1.59913 0
M  V30 5812 C 548.601 2.29876 2.60335 0
M  V30 5813 C 547.555 3.45469 2.52656 0
M  V30 5814 C 546.881 3.64215 3.91473 0
M  V30 5815 C 548.181 4.79954 2.06014 0
M  V30 5816 H 549.875 2.84904 0.920338 0
M  V30 5817 H 547.421 1.37072 0.441277 0
M  V30 5818 H 549.374 2.56814 3.34102 0
M  V30 5819 H 548.098 1.38622 2.95722 0
M  V30 5820 H 546.757 3.18605 1.81345 0
M  V30 5821 H 546.405 2.70309 4.24196 0
M  V30 5822 H 546.105 4.41973 3.87213 0
M  V30 5823 H 547.629 3.93519 4.66878 0
M  V30 5824 H 549.043 5.05989 2.69533 0
M  V30 5825 H 547.44 5.61111 2.12777 0
M  V30 5826 H 548.51 4.74201 1.01297 0
M  V30 5827 N 549.853 -0.472356 1.50355 0
M  V30 5828 C 551.099 -1.22348 1.62488 0
M  V30 5829 C 551.454 -1.89711 0.320574 0
M  V30 5830 O 550.747 -1.79074 -0.68141 0
M  V30 5831 C 550.941 -2.29257 2.74182 0
M  V30 5832 C 550.77 -1.72383 4.15348 0
M  V30 5833 C 549.54 -1.52411 4.81766 0
M  V30 5834 C 551.738 -1.21949 4.99633 0
M  V30 5835 N 549.72 -0.907669 6.07153 0
M  V30 5836 C 551.091 -0.726191 6.15732 0
M  V30 5837 C 553.146 -1.10792 4.85417 0
M  V30 5838 C 551.849 -0.132322 7.19178 0
M  V30 5839 C 553.875 -0.52799 5.89038 0
M  V30 5840 C 553.237 -0.0450604 7.04386 0
M  V30 5841 H 549.336 -0.436631 0.648751 0
M  V30 5842 H 551.92 -0.525698 1.87469 0
M  V30 5843 H 550.091 -2.96464 2.50926 0
M  V30 5844 H 551.823 -2.9628 2.75681 0
M  V30 5845 H 548.578 -1.776 4.39039 0
M  V30 5846 H 549.002 -0.617897 6.74174 0
M  V30 5847 H 553.644 -1.46722 3.96525 0
M  V30 5848 H 551.362 0.239187 8.07746 0
M  V30 5849 H 554.948 -0.444046 5.80103 0
M  V30 5850 H 553.828 0.396659 7.83196 0
M  V30 5851 N 551.331 -1.39911 -0.725443 0
M  V30 5852 C 552.241 -1.41688 -1.8698 0
M  V30 5853 C 553.257 -0.310579 -1.71206 0
M  V30 5854 O 554.433 -0.55359 -1.93642 0
M  V30 5855 C 551.498 -1.26811 -3.22676 0
M  V30 5856 C 550.559 -2.47497 -3.50776 0
M  V30 5857 C 549.792 -2.3332 -4.79997 0
M  V30 5858 O 550.015 -1.34175 -5.54394 0
M  V30 5859 O 548.949 -3.22498 -5.08211 0
M  V30 5860 H 552.775 -2.38171 -1.88436 0
M  V30 5861 H 550.36 -1.21128 -0.874548 0
M  V30 5862 H 552.242 -1.20684 -4.03749 0
M  V30 5863 H 550.917 -0.334289 -3.21969 0
M  V30 5864 H 549.824 -2.59201 -2.69751 0
M  V30 5865 H 551.157 -3.39606 -3.5627 0
M  V30 5866 N 552.809 0.956637 -1.25245 0
M  V30 5867 C 554.058 1.69537 -1.0927 0
M  V30 5868 C 554.371 1.92136 0.366503 0
M  V30 5869 O 555.577 2.63687 0.64665 0
M  V30 5870 C 554.033 3.05211 -1.9072 0
M  V30 5871 C 553.641 2.90416 -3.41119 0
M  V30 5872 C 555.385 3.82882 -1.83308 0
M  V30 5873 C 553.292 4.21468 -4.14872 0
M  V30 5874 H 552.222 0.635804 -0.405302 0
M  V30 5875 H 554.873 1.06513 -1.49423 0
M  V30 5876 H 553.255 3.69128 -1.43389 0
M  V30 5877 H 554.429 2.35444 -3.9611 0
M  V30 5878 H 552.744 2.26203 -3.49602 0
M  V30 5879 H 555.341 4.79944 -2.35706 0
M  V30 5880 H 555.684 4.0853 -0.800572 0
M  V30 5881 H 556.217 3.25711 -2.28379 0
M  V30 5882 H 552.956 4.01009 -5.18529 0
M  V30 5883 H 552.476 4.76213 -3.64665 0
M  V30 5884 H 554.155 4.90022 -4.22478 0
M  V30 5885 N 554.287 1.06798 1.15896 0
M  V30 5886 C 555.219 0.641263 2.20046 0
M  V30 5887 C 556.232 -0.303355 1.59949 0
M  V30 5888 O 557.421 -0.0935478 1.78255 0
M  V30 5889 C 554.521 -0.0794029 3.38807 0
M  V30 5890 C 553.694 0.879986 4.28457 0
M  V30 5891 C 552.753 0.197638 5.25829 0
M  V30 5892 O 551.779 0.836913 5.63014 0
M  V30 5893 N 552.981 -1.05886 5.70761 0
M  V30 5894 H 555.746 1.53718 2.57276 0
M  V30 5895 H 553.307 0.951951 1.30956 0
M  V30 5896 H 555.299 -0.546418 4.00994 0
M  V30 5897 H 553.869 -0.877193 3.0004 0
M  V30 5898 H 553.089 1.52625 3.63454 0
M  V30 5899 H 554.377 1.53065 4.8523 0
M  V30 5900 H 553.775 -1.59828 5.42652 0
M  V30 5901 H 552.332 -1.46965 6.35015 0
M  V30 5902 N 555.766 -1.3263 0.851289 0
M  V30 5903 C 556.714 -2.30882 0.282202 0
M  V30 5904 C 557.708 -1.58697 -0.592589 0
M  V30 5905 O 558.914 -1.73461 -0.480768 0
M  V30 5906 H 555.289 -0.748492 0.0725487 0
M  V30 5907 H 557.26 -2.76374 1.12516 0
M  V30 5908 C 556.009 -3.43828 -0.517449 0
M  V30 5909 H 555.332 -3.99532 0.146392 0
M  V30 5910 H 556.772 -4.1474 -0.88128 0
M  V30 5911 C 555.231 -2.90786 -1.70133 0
M  V30 5912 O 555.761 -2.88 -2.80034 0
M  V30 5913 N 553.967 -2.4723 -1.52728 0
M  V30 5914 H 553.514 -2.49695 -0.633257 0
M  V30 5915 H 553.472 -2.12094 -2.32085 0
M  V30 5916 N 557.244 -0.608902 -1.45362 0
M  V30 5917 C 558.191 0.109172 -2.30542 0
M  V30 5918 C 559.161 0.858704 -1.42181 0
M  V30 5919 O 560.346 0.844178 -1.71109 0
M  V30 5920 C 557.486 1.09971 -3.27109 0
M  V30 5921 C 556.599 0.350911 -4.30572 0
M  V30 5922 C 555.734 1.33129 -5.14247 0
M  V30 5923 C 554.773 0.570377 -6.09437 0
M  V30 5924 N 553.91 1.5001 -6.85887 0
M  V30 5925 H 558.75 -0.623195 -2.91411 0
M  V30 5926 H 556.287 -0.319122 -1.43597 0
M  V30 5927 H 558.245 1.68714 -3.81564 0
M  V30 5928 H 556.875 1.79947 -2.67991 0
M  V30 5929 H 555.927 -0.352054 -3.78767 0
M  V30 5930 H 557.239 -0.242725 -4.98209 0
M  V30 5931 H 556.393 1.99074 -5.73109 0
M  V30 5932 H 555.132 1.95885 -4.46632 0
M  V30 5933 H 554.137 -0.102702 -5.49704 0
M  V30 5934 H 555.362 -0.0521607 -6.7908 0
M  V30 5935 H 553.308 2.11529 -6.2096 0
M  V30 5936 H 553.225 0.959934 -7.49881 0
M  V30 5937 H 554.493 2.14909 -7.49289 0
M  V30 5938 N 558.722 1.53707 -0.348139 0
M  V30 5939 C 559.652 2.28111 0.498766 0
M  V30 5940 C 560.633 1.29851 1.09876 0
M  V30 5941 O 561.818 1.587 1.11928 0
M  V30 5942 C 558.948 3.05735 1.64753 0
M  V30 5943 C 557.902 4.11537 1.17565 0
M  V30 5944 C 557.228 4.77142 2.4133 0
M  V30 5945 C 558.528 5.21587 0.272844 0
M  V30 5946 H 560.222 2.99152 -0.121934 0
M  V30 5947 H 557.768 1.43875 -0.0600842 0
M  V30 5948 H 559.721 3.56526 2.24649 0
M  V30 5949 H 558.445 2.32354 2.2952 0
M  V30 5950 H 557.104 3.61665 0.599483 0
M  V30 5951 H 556.752 4.0035 3.04514 0
M  V30 5952 H 556.452 5.48626 2.10436 0
M  V30 5953 H 557.976 5.30719 3.01943 0
M  V30 5954 H 559.39 5.67986 0.778779 0
M  V30 5955 H 557.787 6.00074 0.0555849 0
M  V30 5956 H 558.857 4.79969 -0.689785 0
M  V30 5957 N 560.2 0.0768682 1.57412 0
M  V30 5958 C 561.147 -0.888577 2.13009 0
M  V30 5959 C 562.117 -1.29198 1.0439 0
M  V30 5960 O 563.302 -1.37694 1.3208 0
M  V30 5961 C 560.442 -2.14899 2.70023 0
M  V30 5962 C 559.555 -1.79777 3.92816 0
M  V30 5963 C 558.69 -3.00467 4.38056 0
M  V30 5964 C 557.729 -2.61385 5.53484 0
M  V30 5965 N 556.866 -3.74851 5.93659 0
M  V30 5966 H 561.706 -0.407593 2.95199 0
M  V30 5967 H 559.243 -0.189534 1.45874 0
M  V30 5968 H 561.201 -2.88688 3.0119 0
M  V30 5969 H 559.831 -2.60529 1.9059 0
M  V30 5970 H 558.883 -0.960301 3.68079 0
M  V30 5971 H 560.195 -1.47027 4.76639 0
M  V30 5972 H 559.349 -3.82529 4.7091 0
M  V30 5973 H 558.088 -3.36413 3.53097 0
M  V30 5974 H 557.093 -1.77746 5.20275 0
M  V30 5975 H 558.318 -2.26603 6.40178 0
M  V30 5976 H 556.264 -4.1055 5.11649 0
M  V30 5977 H 556.181 -3.45887 6.72234 0
M  V30 5978 H 557.449 -4.57477 6.31138 0
M  V30 5979 N 561.678 -1.56367 -0.196722 0
M  V30 5980 C 562.608 -1.97442 -1.24655 0
M  V30 5981 C 563.589 -0.846147 -1.47561 0
M  V30 5982 O 564.774 -1.11035 -1.59326 0
M  V30 5983 C 561.904 -2.31253 -2.59112 0
M  V30 5984 C 560.858 -3.46804 -2.50821 0
M  V30 5985 C 560.184 -3.66286 -3.89536 0
M  V30 5986 C 561.484 -4.8104 -2.03465 0
M  V30 5987 H 563.178 -2.85388 -0.905216 0
M  V30 5988 H 560.724 -1.37304 -0.434002 0
M  V30 5989 H 562.677 -2.58583 -3.32736 0
M  V30 5990 H 561.401 -1.40188 -2.94983 0
M  V30 5991 H 560.06 -3.19563 -1.79653 0
M  V30 5992 H 559.708 -2.72555 -4.22756 0
M  V30 5993 H 559.408 -4.4402 -3.84864 0
M  V30 5994 H 560.932 -3.9599 -4.64784 0
M  V30 5995 H 562.346 -5.07411 -2.66846 0
M  V30 5996 H 560.743 -5.62232 -2.09798 0
M  V30 5997 H 561.813 -4.74732 -0.98781 0
M  V30 5998 O 563.195 0.341958 -1.57838 0
M  V30 5999 H 563.886 0.991482 -1.66401 0
M  V30 END ATOM
M  V30 BEGIN BOND
M  V30 END BOND
M  V30 END CTAB
M  END
$$$$
