drugbank_target|Q9BYV1 Alanine--glyoxylate aminotransferase 2, mitochondrial (DB00114; DB00119; DB00145; DB00160)
 OpenBabel12092119243D

  0  0  0     0  0            999 V3000
M  V30 BEGIN CTAB
M  V30 COUNTS 8013 8113 0 0 0
M  V30 BEGIN ATOM
M  V30 1 H -0.908 1.98254 -0.117106 0
M  V30 2 N 0 1.576 0 0
M  V30 3 C 0.933 2.03868 1.02534 0
M  V30 4 C 1.911 0.928543 1.3348 0
M  V30 5 O 3.095 1.19667 1.45644 0
M  V30 6 C 0.222 2.43627 2.35294 0
M  V30 7 C -0.732 3.65373 2.2001 0
M  V30 8 S 0.101 5.13292 1.52614 0
M  V30 9 C 1.257 5.56322 2.86805 0
M  V30 10 H 1.49 2.90518 0.631377 0
M  V30 11 H -0.977 1.52953 0.210867 0
M  V30 12 H 0.981 2.67203 3.11629 0
M  V30 13 H -0.358 1.57376 2.7183 0
M  V30 14 H -1.165 3.90944 3.18086 0
M  V30 15 H -1.563 3.418 1.51819 0
M  V30 16 H 0.729 5.58782 3.83104 0
M  V30 17 H 1.672 6.56266 2.65933 0
M  V30 18 H 2.08 4.83886 2.90714 0
M  V30 19 N 1.4781 -0.272755 1.55222 0
M  V30 20 C 2.7061 -1.02255 1.79865 0
M  V30 21 C 3.1211 -1.79924 0.572088 0
M  V30 22 O 2.4781 -1.76638 -0.458842 0
M  V30 23 C 2.5291 -1.98094 3.02392 0
M  V30 24 O 2.2501 -1.23572 4.20311 0
M  V30 25 C 3.7511 -2.84884 3.39641 0
M  V30 26 H 0.9711 -0.302057 0.599168 0
M  V30 27 H 3.5151 -0.303465 2.02236 0
M  V30 28 H 1.6701 -2.65465 2.82147 0
M  V30 29 H 2.0841 -1.88172 4.89583 0
M  V30 30 H 3.5581 -3.47927 4.28545 0
M  V30 31 H 4.0351 -3.54665 2.59055 0
M  V30 32 H 4.6411 -2.23003 3.62146 0
M  V30 33 N 2.9562 -1.48159 -0.537278 0
M  V30 34 C 3.8862 -1.65029 -1.6519 0
M  V30 35 C 4.8672 -0.499281 -1.62607 0
M  V30 36 O 6.0522 -0.730972 -1.79918 0
M  V30 37 C 3.1822 -1.68303 -3.03795 0
M  V30 38 C 2.1362 -2.8283 -3.21234 0
M  V30 39 C 1.4622 -2.71189 -4.60826 0
M  V30 40 C 2.7622 -4.24211 -3.04701 0
M  V30 41 H 4.4562 -2.58341 -1.51328 0
M  V30 42 H 2.0022 -1.24325 -0.726585 0
M  V30 43 H 3.9552 -1.78693 -3.81637 0
M  V30 44 H 2.6792 -0.715635 -3.18663 0
M  V30 45 H 1.3382 -2.71983 -2.45807 0
M  V30 46 H 0.9862 -1.72435 -4.7252 0
M  V30 47 H 0.6862 -3.48035 -4.7344 0
M  V30 48 H 2.2102 -2.83537 -5.40777 0
M  V30 49 H 3.6242 -4.3593 -3.72341 0
M  V30 50 H 2.0212 -5.01998 -3.28813 0
M  V30 51 H 3.0912 -4.41184 -2.01209 0
M  V30 52 N 4.4343 0.785586 -1.36625 0
M  V30 53 C 5.6833 1.53883 -1.30396 0
M  V30 54 C 5.9963 1.95271 0.113452 0
M  V30 55 O 7.2023 2.69858 0.298142 0
M  V30 56 C 5.6583 2.77808 -2.28802 0
M  V30 57 C 5.2663 2.43574 -3.75999 0
M  V30 58 C 7.0103 3.55783 -2.31558 0
M  V30 59 C 4.9173 3.63919 -4.66173 0
M  V30 60 H 3.8473 0.577678 -0.484566 0
M  V30 61 H 6.4983 0.861705 -1.62009 0
M  V30 62 H 4.8803 3.47339 -1.90188 0
M  V30 63 H 6.0543 1.81916 -4.23371 0
M  V30 64 H 4.3693 1.78803 -3.76056 0
M  V30 65 H 6.9663 4.45205 -2.96137 0
M  V30 66 H 7.3093 3.94644 -1.3252 0
M  V30 67 H 7.8423 2.93235 -2.68809 0
M  V30 68 H 4.5813 3.3015 -5.66287 0
M  V30 69 H 4.1013 4.2473 -4.23515 0
M  V30 70 H 5.7803 4.30901 -4.82632 0
M  V30 71 N 5.9124 1.20967 1.01018 0
M  V30 72 C 7.1584 1.0353 1.7508 0
M  V30 73 C 7.5134 -0.42734 1.87594 0
M  V30 74 O 6.8064 -1.31298 1.3954 0
M  V30 75 C 7.0004 1.65997 3.16512 0
M  V30 76 C 6.8294 3.18184 3.17788 0
M  V30 77 C 5.5994 3.87198 3.24662 0
M  V30 78 C 7.7974 4.15334 3.03319 0
M  V30 79 N 5.7794 5.26618 3.15509 0
M  V30 80 C 7.1504 5.41472 3.02007 0
M  V30 81 C 9.2054 4.06449 2.87583 0
M  V30 82 C 7.9084 6.5975 2.86571 0
M  V30 83 C 9.9344 5.24357 2.73503 0
M  V30 84 C 9.2964 6.49404 2.72862 0
M  V30 85 H 5.3954 0.433137 0.651089 0
M  V30 86 H 7.9794 1.5324 1.20107 0
M  V30 87 H 6.1504 1.18863 3.69765 0
M  V30 88 H 7.8824 1.41816 3.79039 0
M  V30 89 H 4.6374 3.38093 3.31648 0
M  V30 90 H 5.0614 5.99626 3.14289 0
M  V30 91 H 9.7034 3.10573 2.86887 0
M  V30 92 H 7.4214 7.55792 2.86015 0
M  V30 93 H 11.0074 5.19299 2.62334 0
M  V30 94 H 9.8874 7.39105 2.62093 0
M  V30 95 N 7.3905 -1.2043 1.01659 0
M  V30 96 C 8.8065 -1.41852 0.731442 0
M  V30 97 C 9.0065 -1.89358 -0.688898 0
M  V30 98 O 8.0625 -2.06247 -1.45666 0
M  V30 99 C 9.3755 -2.44019 1.75714 0
M  V30 100 C 10.9235 -2.57785 1.77527 0
M  V30 101 C 11.3985 -3.63194 2.79023 0
M  V30 102 N 12.8895 -3.70678 2.77763 0
M  V30 103 C 13.6245 -4.51897 3.52954 0
M  V30 104 N 13.1205 -5.36921 4.37821 0
M  V30 105 N 14.9135 -4.4643 3.41551 0
M  V30 106 H 7.0645 -0.879093 1.93354 0
M  V30 107 H 9.3275 -0.448425 0.835236 0
M  V30 108 H 9.0335 -2.1611 2.77469 0
M  V30 109 H 8.9075 -3.43007 1.56927 0
M  V30 110 H 11.2945 -2.85023 0.764569 0
M  V30 111 H 11.3755 -1.58992 2.00387 0
M  V30 112 H 11.0195 -3.36699 3.80258 0
M  V30 113 H 10.9495 -4.61609 2.53425 0
M  V30 114 H 13.4405 -3.09944 2.16201 0
M  V30 115 H 13.7535 -5.95981 4.91962 0
M  V30 116 H 12.0985 -5.36424 4.41899 0
M  V30 117 H 15.2895 -3.79042 2.74672 0
M  V30 118 H 15.4625 -5.09491 4.00404 0
M  V30 119 N 8.8686 -0.792821 -1.36206 0
M  V30 120 C 9.8186 -0.166598 -2.27391 0
M  V30 121 C 10.8026 0.651479 -1.47121 0
M  V30 122 O 11.9946 0.510994 -1.69463 0
M  V30 123 C 9.1236 0.695033 -3.36191 0
M  V30 124 C 8.2096 -0.132019 -4.23894 0
M  V30 125 N 8.6006 -1.18822 -4.91645 0
M  V30 126 C 6.8986 0.0885952 -4.45912 0
M  V30 127 C 7.5996 -1.69198 -5.56549 0
M  V30 128 N 6.5756 -1.00065 -5.34311 0
M  V30 129 H 10.3776 -0.974947 -2.77258 0
M  V30 130 H 7.8916 -0.632616 -1.49572 0
M  V30 131 H 9.8886 1.1596 -4.00448 0
M  V30 132 H 8.5486 1.50189 -2.87877 0
M  V30 133 H 9.5596 -1.57069 -4.93507 0
M  V30 134 H 6.2366 0.865688 -4.08426 0
M  V30 135 H 7.6266 -2.57395 -6.20643 0
M  V30 136 N 10.3467 1.47872 -0.545128 0
M  V30 137 C 11.2767 2.32661 0.197793 0
M  V30 138 C 12.2577 1.43041 0.920504 0
M  V30 139 O 13.4427 1.71912 0.90333 0
M  V30 140 C 10.5727 3.24569 1.23582 0
M  V30 141 C 9.5267 4.23333 0.630323 0
M  V30 142 C 8.8527 5.0448 1.77211 0
M  V30 143 C 10.1527 5.20704 -0.407974 0
M  V30 144 H 11.8467 2.95024 -0.510045 0
M  V30 145 H 9.3927 1.4187 -0.246731 0
M  V30 146 H 11.3457 3.8272 1.76362 0
M  V30 147 H 10.0697 2.60236 1.97344 0
M  V30 148 H 8.7287 3.6639 0.123922 0
M  V30 149 H 8.3767 4.36561 2.49847 0
M  V30 150 H 8.0767 5.71339 1.37281 0
M  V30 151 H 9.6007 5.65487 2.3034 0
M  V30 152 H 11.0147 5.7329 0.033305 0
M  V30 153 H 9.4117 5.95699 -0.725486 0
M  V30 154 H 10.4817 4.66917 -1.30828 0
M  V30 155 N 11.8248 0.280983 1.55075 0
M  V30 156 C 12.7548 -0.597469 2.25727 0
M  V30 157 C 13.7358 -1.15417 1.24952 0
M  V30 158 O 14.9208 -1.18722 1.53684 0
M  V30 159 C 12.0508 -1.7789 2.98283 0
M  V30 160 C 11.0048 -1.35347 4.06036 0
M  V30 161 C 10.3308 -2.61846 4.66198 0
M  V30 162 C 11.6308 -0.499354 5.19907 0
M  V30 163 H 13.3248 -0.00824265 2.99399 0
M  V30 164 H 10.8708 -0.0025244 1.44 0
M  V30 165 H 12.8238 -2.39937 3.46422 0
M  V30 166 H 11.5478 -2.39405 2.22155 0
M  V30 167 H 10.2068 -0.756156 3.58717 0
M  V30 168 H 9.8548 -3.21632 3.86732 0
M  V30 169 H 9.5548 -2.3409 5.38958 0
M  V30 170 H 11.0788 -3.24732 5.1709 0
M  V30 171 H 12.4928 -1.02498 5.64063 0
M  V30 172 H 10.8898 -0.316424 5.99265 0
M  V30 173 H 11.9598 0.480459 4.82514 0
M  V30 174 N 13.3029 -1.57598 0.00835791 0
M  V30 175 C 14.7189 -1.55764 -0.347822 0
M  V30 176 C 14.9189 -1.01186 -1.74252 0
M  V30 177 O 13.9749 -0.649371 -2.44007 0
M  V30 178 C 15.2879 -2.99927 -0.215407 0
M  V30 179 C 16.8359 -3.11656 -0.289725 0
M  V30 180 C 17.3109 -4.57621 -0.18634 0
M  V30 181 N 18.8019 -4.62557 -0.243978 0
M  V30 182 C 19.5369 -5.73094 -0.18745 0
M  V30 183 N 19.0329 -6.92753 -0.0810331 0
M  V30 184 N 20.8259 -5.61588 -0.239925 0
M  V30 185 H 12.9769 -1.91411 0.92062 0
M  V30 186 H 15.2399 -0.879562 0.353659 0
M  V30 187 H 14.9459 -3.43729 0.744512 0
M  V30 188 H 14.8199 -3.63865 -0.994097 0
M  V30 189 H 17.2069 -2.67779 -1.24009 0
M  V30 190 H 17.2879 -2.5048 0.51898 0
M  V30 191 H 16.9319 -5.02174 0.760519 0
M  V30 192 H 16.8619 -5.16752 -1.01364 0
M  V30 193 H 19.3529 -3.76481 -0.327217 0
M  V30 194 H 19.6659 -7.72787 -0.0440241 0
M  V30 195 H 18.0109 -6.94984 -0.0465419 0
M  V30 196 H 21.2019 -4.66996 -0.321317 0
M  V30 197 H 21.3749 -6.47714 -0.192407 0
M  V30 198 N 14.781 0.264519 -1.55364 0
M  V30 199 C 16.192 0.834936 -1.6699 0
M  V30 200 C 16.543 1.86718 -0.602552 0
M  V30 201 O 15.668 2.14899 0.254425 0
M  V30 202 C 16.263 1.5212 -3.02729 0
M  V30 203 C 14.822 2.03954 -3.16354 0
M  V30 204 C 13.969 0.884498 -2.62815 0
M  V30 205 H 16.92 0.0406869 -1.58648 0
M  V30 206 H 16.941 2.38853 -2.96191 0
M  V30 207 H 16.453 0.769668 -3.80392 0
M  V30 208 H 14.554 2.82041 -2.43482 0
M  V30 209 H 14.667 2.24902 -4.23032 0
M  V30 210 H 13.031 1.2802 -2.20188 0
M  V30 211 H 13.814 0.14634 -3.42988 0
M  V30 212 N 16.2591 1.48442 0.529413 0
M  V30 213 C 17.1891 1.65902 1.64313 0
M  V30 214 C 18.1701 0.507897 1.6234 0
M  V30 215 O 19.3551 0.740503 1.79528 0
M  V30 216 C 16.4851 1.69911 3.02898 0
M  V30 217 C 15.4391 2.8453 3.19729 0
M  V30 218 C 14.7651 2.73629 4.59381 0
M  V30 219 C 16.0651 4.25821 3.02447 0
M  V30 220 H 17.7591 2.5914 1.49955 0
M  V30 221 H 15.3051 1.24709 0.719982 0
M  V30 222 H 17.2581 1.80715 3.80684 0
M  V30 223 H 15.9821 0.732524 3.18279 0
M  V30 224 H 14.6411 2.73283 2.44361 0
M  V30 225 H 14.2891 1.74938 4.71599 0
M  V30 226 H 13.9891 3.50541 4.71588 0
M  V30 227 H 15.5131 2.86401 5.39265 0
M  V30 228 H 16.9271 4.37898 3.70024 0
M  V30 229 H 15.3241 5.03735 3.26146 0
M  V30 230 H 16.3941 4.42244 1.98867 0
M  V30 231 N 17.7372 -0.778329 1.37039 0
M  V30 232 C 18.9772 -1.54973 1.33276 0
M  V30 233 C 19.3412 -1.91816 -0.0839376 0
M  V30 234 O 20.5422 -2.6767 -0.246228 0
M  V30 235 C 18.8132 -2.78517 2.23971 0
M  V30 236 S 20.3722 -3.6865 2.37997 0
M  V30 237 H 17.1902 -0.530639 0.473226 0
M  V30 238 H 19.7922 -0.915806 1.72723 0
M  V30 239 H 18.4962 -2.4952 3.25835 0
M  V30 240 H 18.0272 -3.46875 1.85584 0
M  V30 241 H 20.0422 -4.70182 1.58567 0
M  V30 242 N 19.2153 -1.21501 -1.00376 0
M  V30 243 C 20.1453 -0.999478 -2.11028 0
M  V30 244 C 21.1263 0.0759671 -1.6993 0
M  V30 245 O 22.3113 -0.0841106 -1.94018 0
M  V30 246 C 19.4413 -0.564709 -3.42678 0
M  V30 247 C 18.3953 -1.58486 -3.97576 0
M  V30 248 C 17.7213 -1.00628 -5.25146 0
M  V30 249 C 19.0213 -2.97204 -4.29496 0
M  V30 250 H 20.7153 -1.92495 -2.29317 0
M  V30 251 H 18.2613 -0.92693 -1.102 0
M  V30 252 H 20.2143 -0.401091 -4.19487 0
M  V30 253 H 18.9383 0.396411 -3.24185 0
M  V30 254 H 17.5973 -1.73606 -3.22888 0
M  V30 255 H 17.2453 -0.0368439 -5.02987 0
M  V30 256 H 16.9453 -1.68771 -5.62841 0
M  V30 257 H 18.4693 -0.854015 -6.04598 0
M  V30 258 H 19.8833 -2.8552 -4.97143 0
M  V30 259 H 18.2803 -3.62372 -4.78338 0
M  V30 260 H 19.3503 -3.47956 -3.3772 0
M  V30 261 N 20.6934 1.19889 -1.02296 0
M  V30 262 C 21.9394 1.89701 -0.717033 0
M  V30 263 C 22.2724 1.7905 0.751989 0
M  V30 264 O 21.5474 1.17891 1.547 0
M  V30 265 C 21.8304 3.40858 -1.16136 0
M  V30 266 C 21.6834 3.60411 -2.69117 0
M  V30 267 C 23.0024 4.33876 -0.737549 0
M  V30 268 H 20.1214 0.688874 -0.261957 0
M  V30 269 H 22.7634 1.41154 -1.27183 0
M  V30 270 H 20.9134 3.82335 -0.689342 0
M  V30 271 H 22.5854 3.28145 -3.2422 0
M  V30 272 H 20.8284 3.03665 -3.0979 0
M  V30 273 H 21.4994 4.66396 -2.95261 0
M  V30 274 H 23.9754 4.00081 -1.14344 0
M  V30 275 H 22.8514 5.38242 -1.0764 0
M  V30 276 H 23.1124 4.40628 0.360436 0
M  V30 277 N 22.1715 0.800033 1.35784 0
M  V30 278 C 23.3995 0.389606 2.03199 0
M  V30 279 C 23.8145 -0.997375 1.60306 0
M  V30 280 O 23.1715 -1.64154 0.797481 0
M  V30 281 C 23.2225 0.455855 3.58614 0
M  V30 282 O 22.9435 1.78815 3.99946 0
M  V30 283 C 24.4445 0.0374032 4.43284 0
M  V30 284 H 21.6645 0.159132 0.651857 0
M  V30 285 H 24.2085 1.08183 1.73541 0
M  V30 286 H 22.3635 -0.188057 3.86943 0
M  V30 287 H 22.7775 1.74636 4.94573 0
M  V30 288 H 24.2515 0.134882 5.51835 0
M  V30 289 H 24.7285 -1.01651 4.27275 0
M  V30 290 H 25.3345 0.654215 4.20238 0
M  V30 291 N 23.6496 -1.47581 0.552962 0
M  V30 292 C 24.8746 -2.07378 0.0300593 0
M  V30 293 C 25.2996 -1.40355 -1.25229 0
M  V30 294 O 24.6576 -0.477099 -1.7491 0
M  V30 295 C 24.7056 -3.60274 -0.153231 0
M  V30 296 O 23.8096 -3.94041 -1.21678 0
M  V30 297 H 23.1506 -0.662158 0.0494182 0
M  V30 298 H 25.6806 -1.89662 0.767434 0
M  V30 299 H 25.6906 -4.0633 -0.368761 0
M  V30 300 H 24.3656 -4.08455 0.783397 0
M  V30 301 H 22.9426 -3.59735 -0.982079 0
M  V30 302 N 25.1277 -0.289203 -1.54924 0
M  V30 303 C 26.0907 0.579144 -2.21762 0
M  V30 304 C 27.0907 1.07047 -1.1999 0
M  V30 305 O 28.2807 0.968384 -1.44803 0
M  V30 306 C 25.4127 1.80055 -2.8947 0
M  V30 307 H 26.6057 -0.00464908 -2.999 0
M  V30 308 H 24.1587 -0.0399306 -1.56249 0
M  V30 309 H 24.8937 2.42449 -2.15381 0
M  V30 310 H 24.6787 1.45602 -3.64064 0
M  V30 311 H 26.1687 2.41773 -3.40493 0
M  V30 312 N 26.6058 1.57591 -0.0167156 0
M  V30 313 C 28.0168 1.79201 0.523834 0
M  V30 314 C 28.3678 0.925796 1.72984 0
M  V30 315 O 27.4928 0.132792 2.15992 0
M  V30 316 C 28.0878 3.25 0.957091 0
M  V30 317 C 26.6468 3.47648 1.44283 0
M  V30 318 C 25.7938 2.74374 0.401757 0
M  V30 319 H 28.7448 1.56831 -0.242816 0
M  V30 320 H 28.7658 3.34031 1.82219 0
M  V30 321 H 28.2778 3.88019 0.0791415 0
M  V30 322 H 26.3788 2.89866 2.34113 0
M  V30 323 H 26.4918 4.56352 1.45877 0
M  V30 324 H 24.8558 2.39485 0.867121 0
M  V30 325 H 25.6388 3.40102 -0.467513 0
M  V30 326 N 28.0839 -0.256276 1.55502 0
M  V30 327 C 29.4999 -0.604325 1.47716 0
M  V30 328 C 29.6999 -1.88763 0.705039 0
M  V30 329 O 28.7559 -2.51445 0.230613 0
M  V30 330 C 30.0689 -0.715756 2.92057 0
M  V30 331 C 31.6169 -0.808706 3.02372 0
M  V30 332 C 32.0919 -0.951777 4.48001 0
M  V30 333 N 33.5829 -1.01688 4.519 0
M  V30 334 C 34.3179 -1.14668 5.61817 0
M  V30 335 N 33.8139 -1.24261 6.81565 0
M  V30 336 N 35.6069 -1.1791 5.49594 0
M  V30 337 H 27.7579 0.586291 2.04148 0
M  V30 338 H 30.0209 0.201015 0.926443 0
M  V30 339 H 29.7269 0.157027 3.51349 0
M  V30 340 H 29.6009 -1.59071 3.42018 0
M  V30 341 H 31.9879 -1.67195 2.43166 0
M  V30 342 H 32.0689 0.0912063 2.55637 0
M  V30 343 H 31.7129 -0.0931291 5.07815 0
M  V30 344 H 31.6429 -1.86659 4.92408 0
M  V30 345 H 34.1339 -0.954468 3.65648 0
M  V30 346 H 34.4469 -1.34046 7.61086 0
M  V30 347 H 32.7919 -1.21236 6.84344 0
M  V30 348 H 35.9829 -1.10057 4.54978 0
M  V30 349 H 36.1559 -1.27681 6.35296 0
M  V30 350 N 29.562 -1.4872 -0.521534 0
M  V30 351 C 30.811 -1.56419 -1.27341 0
M  V30 352 C 31.124 -0.246805 -1.94037 0
M  V30 353 O 32.33 -0.202122 -2.70747 0
M  V30 354 C 30.786 -2.75896 -2.31105 0
M  V30 355 C 30.394 -4.14311 -1.70441 0
M  V30 356 C 32.138 -2.92913 -3.07249 0
M  V30 357 C 30.045 -5.25038 -2.72194 0
M  V30 358 H 28.975 -0.582344 -0.478949 0
M  V30 359 H 31.626 -1.75071 -0.549779 0
M  V30 360 H 30.008 -2.50697 -3.06541 0
M  V30 361 H 31.182 -4.49564 -1.01136 0
M  V30 362 H 29.497 -4.02482 -1.06759 0
M  V30 363 H 32.094 -3.72805 -3.83302 0
M  V30 364 H 32.437 -2.02689 -3.63625 0
M  V30 365 H 32.97 -3.18054 -2.38928 0
M  V30 366 H 29.709 -6.17255 -2.20627 0
M  V30 367 H 29.229 -4.94263 -3.39801 0
M  V30 368 H 30.908 -5.53508 -3.35019 0
M  V30 369 N 31.0401 0.771051 -1.3745 0
M  V30 370 C 31.9701 1.89827 -1.3597 0
M  V30 371 C 32.9511 1.68562 -0.228216 0
M  V30 372 O 34.1361 1.8941 -0.428675 0
M  V30 373 C 31.2661 3.2712 -1.16662 0
M  V30 374 C 30.2201 3.6295 -2.2683 0
M  V30 375 C 29.5461 4.98791 -1.92644 0
M  V30 376 C 30.8461 3.69627 -3.69017 0
M  V30 377 H 32.5401 1.91323 -2.30295 0
M  V30 378 H 30.0861 0.919082 -1.10855 0
M  V30 379 H 32.0391 4.05615 -1.14256 0
M  V30 380 H 30.7631 3.26059 -0.187926 0
M  V30 381 H 29.4221 2.86763 -2.28392 0
M  V30 382 H 29.0701 4.94271 -0.933021 0
M  V30 383 H 28.7701 5.23733 -2.66416 0
M  V30 384 H 30.2941 5.79685 -1.91826 0
M  V30 385 H 31.7081 4.38273 -3.69581 0
M  V30 386 H 30.1051 4.06067 -4.41848 0
M  V30 387 H 31.1751 2.70273 -4.02592 0
M  V30 388 N 32.5182 1.22032 0.997298 0
M  V30 389 C 33.4282 1.00271 2.12092 0
M  V30 390 C 34.4442 -0.047621 1.73935 0
M  V30 391 O 35.6202 0.144136 2.00884 0
M  V30 392 C 32.6852 0.578449 3.4184 0
M  V30 393 C 31.7462 1.70189 3.94125 0
M  V30 394 C 30.9792 1.29778 5.17681 0
M  V30 395 O 31.2022 0.174676 5.70132 0
M  V30 396 O 30.1362 2.11261 5.63607 0
M  V30 397 H 33.9622 1.94398 2.3333 0
M  V30 398 H 31.5472 1.00587 1.10465 0
M  V30 399 H 33.4292 0.351998 4.19927 0
M  V30 400 H 32.1042 -0.334019 3.21972 0
M  V30 401 H 31.0112 1.98282 3.1723 0
M  V30 402 H 32.3442 2.59206 4.18417 0
M  V30 403 N 33.9963 -1.19345 1.0293 0
M  V30 404 C 34.9293 -2.21347 0.555029 0
M  V30 405 C 35.9073 -1.57492 -0.404351 0
M  V30 406 O 37.0913 -1.85741 -0.321352 0
M  V30 407 C 34.2183 -3.38163 -0.19064 0
M  V30 408 C 33.2643 -4.20375 0.720236 0
M  V30 409 S 34.0973 -4.88371 2.19668 0
M  V30 410 C 35.2533 -6.08597 1.46153 0
M  V30 411 H 35.4863 -2.61235 1.41929 0
M  V30 412 H 33.0193 -1.29598 0.839272 0
M  V30 413 H 34.9773 -4.05871 -0.614724 0
M  V30 414 H 33.6383 -2.9671 -1.03063 0
M  V30 415 H 32.8313 -5.03793 0.14455 0
M  V30 416 H 32.4333 -3.57987 1.08266 0
M  V30 417 H 34.7253 -6.73354 0.748357 0
M  V30 418 H 35.6683 -6.7065 2.27233 0
M  V30 419 H 36.0763 -5.56297 0.958842 0
M  V30 420 N 35.4744 -0.807222 -1.35358 0
M  V30 421 C 36.4244 -0.190706 -2.27201 0
M  V30 422 C 37.4084 0.635838 -1.47804 0
M  V30 423 O 38.6004 0.492991 -1.69996 0
M  V30 424 C 35.7294 0.659337 -3.36909 0
M  V30 425 C 34.8154 -0.176971 -4.23731 0
M  V30 426 N 35.2064 -1.24029 -4.90357 0
M  V30 427 C 33.5044 0.0412953 -4.45981 0
M  V30 428 C 34.2054 -1.75092 -5.54723 0
M  V30 429 N 33.1814 -1.05727 -5.33219 0
M  V30 430 H 36.9834 -1.0043 -2.76208 0
M  V30 431 H 34.4974 -0.648445 -1.48892 0
M  V30 432 H 36.4944 1.11706 -4.01656 0
M  V30 433 H 35.1544 1.47127 -2.89454 0
M  V30 434 H 36.1654 -1.62295 -4.91814 0
M  V30 435 H 32.8424 0.82232 -4.09322 0
M  V30 436 H 34.2324 -2.63963 -6.17878 0
M  V30 437 N 36.9525 1.47285 -0.560781 0
M  V30 438 C 38.3635 1.86258 -0.128343 0
M  V30 439 C 38.7145 1.46699 1.30284 0
M  V30 440 O 37.8395 0.871698 1.98067 0
M  V30 441 C 38.4345 3.38044 -0.22614 0
M  V30 442 C 36.9935 3.76096 0.151283 0
M  V30 443 C 36.1405 2.71335 -0.572084 0
M  V30 444 H 39.0915 1.38752 -0.770297 0
M  V30 445 H 39.1125 3.76441 0.554322 0
M  V30 446 H 38.6245 3.66806 -1.26788 0
M  V30 447 H 36.7255 3.52951 1.19399 0
M  V30 448 H 36.8385 4.78641 -0.209765 0
M  V30 449 H 35.2025 2.54696 -0.0147653 0
M  V30 450 H 35.9855 3.02938 -1.61504 0
M  V30 451 N 38.4306 0.297415 1.54768 0
M  V30 452 C 39.6776 -0.312913 2.00068 0
M  V30 453 C 40.0056 -1.54171 1.18582 0
M  V30 454 O 39.2606 -1.94108 0.249133 0
M  V30 455 C 39.5596 -0.717561 3.50123 0
M  V30 456 C 39.2256 0.409095 4.4904 0
M  V30 457 C 37.8876 0.718399 4.75807 0
M  V30 458 C 40.2396 1.16717 5.07963 0
M  V30 459 C 37.5676 1.78896 5.5876 0
M  V30 460 C 39.9196 2.22762 5.92081 0
M  V30 461 C 38.5836 2.54303 6.1716 0
M  V30 462 H 37.8536 -0.114503 0.7321 0
M  V30 463 H 40.5006 0.415767 1.86932 0
M  V30 464 H 38.8056 -1.52627 3.60849 0
M  V30 465 H 40.5026 -1.20091 3.82595 0
M  V30 466 H 37.0926 0.157918 4.28309 0
M  V30 467 H 41.2766 0.941466 4.87289 0
M  V30 468 H 36.5326 2.0381 5.7643 0
M  V30 469 H 40.7066 2.81962 6.36765 0
M  V30 470 H 38.3336 3.3739 6.81229 0
M  V30 471 N 39.9087 -1.5758 0.0250728 0
M  V30 472 C 40.8387 -2.13007 -0.956575 0
M  V30 473 C 41.8197 -1.0452 -1.342 0
M  V30 474 O 43.0047 -1.32332 -1.42133 0
M  V30 475 C 40.1347 -2.65386 -2.24026 0
M  V30 476 C 39.0887 -3.78623 -1.99571 0
M  V30 477 C 38.4147 -4.17414 -3.3417 0
M  V30 478 C 39.7147 -5.04867 -1.33814 0
M  V30 479 H 41.4087 -2.9528 -0.494991 0
M  V30 480 H 38.9547 -1.42042 -0.236651 0
M  V30 481 H 40.9077 -3.02794 -2.93076 0
M  V30 482 H 39.6317 -1.80268 -2.72343 0
M  V30 483 H 38.2907 -3.41646 -1.32941 0
M  V30 484 H 37.9387 -3.29284 -3.80238 0
M  V30 485 H 37.6387 -4.93719 -3.18615 0
M  V30 486 H 39.1627 -4.57402 -4.04495 0
M  V30 487 H 40.5767 -5.39888 -1.92857 0
M  V30 488 H 38.9737 -5.86144 -1.28669 0
M  V30 489 H 40.0437 -4.83904 -0.310561 0
M  V30 490 N 41.3868 0.248026 -1.55636 0
M  V30 491 C 42.6118 0.998028 -1.81808 0
M  V30 492 C 43.0368 1.78207 -0.601979 0
M  V30 493 O 42.3948 1.75653 0.448961 0
M  V30 494 C 42.4428 1.9125 -3.05705 0
M  V30 495 O 41.5468 3.00406 -2.82542 0
M  V30 496 H 40.8878 0.284045 -0.600179 0
M  V30 497 H 43.4178 0.269357 -2.02819 0
M  V30 498 H 43.4278 2.32737 -3.35108 0
M  V30 499 H 42.1028 1.33602 -3.93857 0
M  V30 500 H 40.6798 2.63056 -2.64303 0
M  V30 501 N 42.8649 1.48995 0.513639 0
M  V30 502 C 43.7949 1.67636 1.62544 0
M  V30 503 C 44.7759 0.525087 1.61793 0
M  V30 504 O 45.9609 0.759502 1.78732 0
M  V30 505 C 43.0909 1.73114 3.01079 0
M  V30 506 C 42.0449 2.87905 3.16693 0
M  V30 507 C 41.3709 2.78486 4.56453 0
M  V30 508 C 42.6709 4.29005 2.97913 0
M  V30 509 H 44.3649 2.60716 1.47198 0
M  V30 510 H 41.9109 1.25465 0.706714 0
M  V30 511 H 43.8639 1.84742 3.78746 0
M  V30 512 H 42.5879 0.766241 3.17484 0
M  V30 513 H 41.2469 2.75859 2.41448 0
M  V30 514 H 40.8949 1.7993 4.69717 0
M  V30 515 H 40.5949 3.55523 4.67843 0
M  V30 516 H 42.1189 2.92104 5.36197 0
M  V30 517 H 43.5329 4.41798 3.65359 0
M  V30 518 H 41.9299 5.07166 3.20785 0
M  V30 519 H 42.9999 4.44329 1.94165 0
M  V30 520 N 44.343 -0.763751 1.37857 0
M  V30 521 C 45.591 -1.51957 1.33243 0
M  V30 522 C 45.912 -1.94835 -0.0801709 0
M  V30 523 O 45.182 -1.66894 -1.02582 0
M  V30 524 H 43.762 -0.563626 0.49024 0
M  V30 525 H 46.424 -0.908504 1.7243 0
M  V30 526 H 45.52 -2.41523 1.97669 0
M  V30 527 N 45.8211 -1.22559 -0.990812 0
M  V30 528 C 47.0491 -1.07779 -1.76611 0
M  V30 529 C 47.4641 0.371513 -1.85109 0
M  V30 530 O 46.8211 1.25737 -1.32274 0
M  V30 531 C 46.8721 -1.68512 -3.19822 0
M  V30 532 O 46.5931 -3.07774 -3.1178 0
M  V30 533 C 48.0941 -1.59035 -4.13791 0
M  V30 534 H 45.3141 -0.377729 -0.554583 0
M  V30 535 H 47.8581 -1.62195 -1.24551 0
M  V30 536 H 46.0131 -1.18154 -3.68942 0
M  V30 537 H 46.4271 -3.37062 -4.01858 0
M  V30 538 H 47.9011 -2.0625 -5.1202 0
M  V30 539 H 48.3781 -0.547273 -4.35777 0
M  V30 540 H 48.9841 -2.08709 -3.70568 0
M  V30 541 N 47.2992 1.18797 -1.03562 0
M  V30 542 C 48.5242 1.9314 -0.755764 0
M  V30 543 C 48.9492 1.7537 0.68022 0
M  V30 544 O 48.3072 1.06046 1.47051 0
M  V30 545 C 48.3552 3.42747 -1.12058 0
M  V30 546 O 47.4592 4.11683 -0.243124 0
M  V30 547 H 46.8002 0.602724 -0.278604 0
M  V30 548 H 49.3302 1.50678 -1.3841 0
M  V30 549 H 49.3402 3.93437 -1.08035 0
M  V30 550 H 48.0152 3.55002 -2.16672 0
M  V30 551 H 46.5922 3.71323 -0.342539 0
M  V30 552 N 48.7773 0.814389 1.34928 0
M  V30 553 C 50.1933 0.499084 1.51596 0
M  V30 554 C 50.3933 -0.978319 1.76157 0
M  V30 555 O 49.4493 -1.76309 1.80752 0
M  V30 556 C 50.7623 1.35121 2.68631 0
M  V30 557 C 52.3103 1.34746 2.82511 0
M  V30 558 C 52.7853 2.18388 4.0258 0
M  V30 559 N 54.2763 2.15966 4.09772 0
M  V30 560 C 55.0113 2.77437 5.01813 0
M  V30 561 N 54.5073 3.47866 5.99134 0
M  V30 562 N 56.3003 2.67037 4.94619 0
M  V30 563 H 48.4513 1.7711 1.17243 0
M  V30 564 H 50.7143 0.754256 0.574284 0
M  V30 565 H 50.4203 2.40001 2.57085 0
M  V30 566 H 50.2943 1.00991 3.63429 0
M  V30 567 H 52.6813 0.30648 2.93504 0
M  V30 568 H 52.7623 1.72869 1.88547 0
M  V30 569 H 52.4063 3.2253 3.92347 0
M  V30 570 H 52.3363 1.77621 4.9574 0
M  V30 571 H 54.8273 1.64729 3.40107 0
M  V30 572 H 55.1403 3.92038 6.65977 0
M  V30 573 H 53.4853 3.51972 5.99284 0
M  V30 574 H 56.6763 2.11597 4.17546 0
M  V30 575 H 56.8493 3.15232 5.66156 0
M  V30 576 N 50.2554 -1.46986 0.568584 0
M  V30 577 C 51.4834 -2.0683 0.0539956 0
M  V30 578 C 51.8984 -1.41953 -1.24478 0
M  V30 579 O 51.2554 -0.519933 -1.74937 0
M  V30 580 C 51.3064 -3.61254 -0.133362 0
M  V30 581 O 51.0274 -4.237 1.11399 0
M  V30 582 C 52.5284 -4.37992 -0.683927 0
M  V30 583 H 49.7484 -0.669058 0.0510141 0
M  V30 584 H 52.2924 -1.88824 0.785234 0
M  V30 585 H 50.4474 -3.78735 -0.81477 0
M  V30 586 H 50.8614 -5.16388 0.91888 0
M  V30 587 H 52.3354 -5.46684 -0.764263 0
M  V30 588 H 52.8124 -4.05058 -1.69778 0
M  V30 589 H 53.4184 -4.25283 -0.0378494 0
M  V30 590 N 51.7335 -0.305618 -1.54608 0
M  V30 591 C 52.9585 0.307562 -2.05107 0
M  V30 592 C 53.3835 1.46385 -1.18123 0
M  V30 593 O 52.7415 1.8034 -0.186324 0
M  V30 594 C 52.7895 0.73704 -3.52987 0
M  V30 595 O 51.8935 1.84134 -3.6901 0
M  V30 596 H 51.2345 0.0589143 -0.661381 0
M  V30 597 H 53.7645 -0.448807 -1.99617 0
M  V30 598 H 53.7745 1.02459 -3.94925 0
M  V30 599 H 52.4495 -0.108773 -4.15758 0
M  V30 600 H 51.0265 1.55398 -3.38978 0
M  V30 601 N 53.2116 1.57565 -0.0334293 0
M  V30 602 C 54.4576 1.92262 0.645226 0
M  V30 603 C 54.7906 0.910543 1.71531 0
M  V30 604 O 54.0656 -0.066099 1.94388 0
M  V30 605 C 54.3486 3.37422 1.2577 0
M  V30 606 C 54.2016 4.49369 0.196891 0
M  V30 607 C 55.5206 3.82628 2.17449 0
M  V30 608 H 52.6396 0.699171 0.233085 0
M  V30 609 H 55.2816 1.89779 -0.0915694 0
M  V30 610 H 53.4316 3.39669 1.88566 0
M  V30 611 H 55.1036 4.59254 -0.433962 0
M  V30 612 H 53.3466 4.31168 -0.477137 0
M  V30 613 H 54.0176 5.47978 0.665124 0
M  V30 614 H 56.4936 3.82145 1.64634 0
M  V30 615 H 55.3696 4.84883 2.57254 0
M  V30 616 H 55.6306 3.18376 3.0674 0
M  V30 617 N 54.6897 -0.239769 1.55765 0
M  V30 618 C 55.9177 -0.98417 1.81994 0
M  V30 619 C 56.3327 -1.7867 0.610124 0
M  V30 620 O 55.6897 -1.77571 -0.421271 0
M  V30 621 C 55.7407 -1.91635 3.06526 0
M  V30 622 O 55.4617 -1.14629 4.22838 0
M  V30 623 C 56.9627 -2.77616 3.45607 0
M  V30 624 H 54.1827 -0.28928 0.605441 0
M  V30 625 H 56.7267 -0.260499 2.02834 0
M  V30 626 H 54.8817 -2.5942 2.87715 0
M  V30 627 H 55.2957 -1.77745 4.93464 0
M  V30 628 H 56.7697 -3.38759 4.35828 0
M  V30 629 H 57.2467 -3.4909 2.6652 0
M  V30 630 H 57.8527 -2.15271 3.66795 0
M  V30 631 N 56.1678 -1.49265 -0.50573 0
M  V30 632 C 57.1148 -1.65585 -1.6078 0
M  V30 633 C 58.0848 -0.497396 -1.58478 0
M  V30 634 O 59.2698 -0.72385 -1.76536 0
M  V30 635 C 56.4098 -1.72408 -2.98948 0
M  V30 636 C 55.5228 -2.99525 -3.11301 0
M  V30 637 C 54.6578 -2.97356 -4.40174 0
M  V30 638 C 53.6968 -4.19074 -4.46143 0
M  V30 639 N 52.8338 -4.14841 -5.66437 0
M  V30 640 H 57.6738 -2.59688 -1.46172 0
M  V30 641 H 55.2108 -1.28761 -0.711261 0
M  V30 642 H 57.1688 -1.74344 -3.79025 0
M  V30 643 H 55.7988 -0.817753 -3.1227 0
M  V30 644 H 54.8508 -3.07222 -2.24318 0
M  V30 645 H 56.1628 -3.89518 -3.11572 0
M  V30 646 H 55.3168 -2.97829 -5.28567 0
M  V30 647 H 54.0558 -2.05133 -4.42461 0
M  V30 648 H 53.0608 -4.1885 -3.56153 0
M  V30 649 H 54.2858 -5.12483 -4.45575 0
M  V30 650 H 52.2318 -3.25453 -5.69575 0
M  V30 651 H 52.1488 -4.98564 -5.68304 0
M  V30 652 H 53.4168 -4.1941 -6.57051 0
M  V30 653 N 57.6459 0.756429 -1.3826 0
M  V30 654 C 58.5759 1.88374 -1.37976 0
M  V30 655 C 59.5569 1.68311 -0.246082 0
M  V30 656 O 60.7419 1.88944 -0.44874 0
M  V30 657 C 57.8719 3.25864 -1.20125 0
M  V30 658 C 56.8259 3.60523 -2.30666 0
M  V30 659 C 56.1519 4.9672 -1.97923 0
M  V30 660 C 57.4519 3.65692 -3.72916 0
M  V30 661 H 59.1459 1.88869 -2.32312 0
M  V30 662 H 56.6919 0.907272 -1.11824 0
M  V30 663 H 58.6449 4.0438 -1.18552 0
M  V30 664 H 57.3689 3.25841 -0.222498 0
M  V30 665 H 56.0279 2.84324 -2.3142 0
M  V30 666 H 55.6759 4.93253 -0.985393 0
M  V30 667 H 55.3759 5.20878 -2.71955 0
M  V30 668 H 56.8999 5.77618 -1.97964 0
M  V30 669 H 58.3139 4.34328 -3.74208 0
M  V30 670 H 56.7109 4.01358 -4.4613 0
M  V30 671 H 57.7809 2.65987 -4.05436 0
M  V30 672 N 59.124 1.23083 0.984299 0
M  V30 673 C 60.349 1.088 1.76571 0
M  V30 674 C 60.774 -0.356657 1.84688 0
M  V30 675 O 60.132 -1.25788 1.30565 0
M  V30 676 C 60.18 1.71371 3.17277 0
M  V30 677 O 59.284 0.973213 4.00752 0
M  V30 678 H 58.625 0.381599 0.543395 0
M  V30 679 H 61.155 1.63057 1.23587 0
M  V30 680 H 61.165 1.76449 3.67872 0
M  V30 681 H 59.84 2.76493 3.10684 0
M  V30 682 H 58.417 0.999078 3.59267 0
M  V30 683 N 60.6021 -1.18246 1.0419 0
M  V30 684 C 61.5321 -2.24127 0.654914 0
M  V30 685 C 62.5131 -1.66617 -0.342451 0
M  V30 686 O 63.6981 -1.92924 -0.222277 0
M  V30 687 C 60.8281 -3.47295 0.0183757 0
M  V30 688 C 59.7821 -4.17563 0.939414 0
M  V30 689 C 59.1081 -5.34438 0.167286 0
M  V30 690 C 60.4081 -4.70917 2.25908 0
M  V30 691 H 62.1021 -2.56753 1.54007 0
M  V30 692 H 59.6481 -1.23414 0.74195 0
M  V30 693 H 61.6011 -4.20572 -0.264082 0
M  V30 694 H 60.3251 -3.13907 -0.901664 0
M  V30 695 H 58.9841 -3.46186 1.20628 0
M  V30 696 H 58.6321 -4.97298 -0.7552 0
M  V30 697 H 58.3321 -5.82388 0.780901 0
M  V30 698 H 59.8561 -6.10504 -0.108125 0
M  V30 699 H 61.2701 -5.35882 2.03724 0
M  V30 700 H 59.6671 -5.29406 2.82577 0
M  V30 701 H 60.7371 -3.88272 2.9047 0
M  V30 702 N 62.0802 -0.821533 -1.34494 0
M  V30 703 C 63.0302 -0.214793 -2.26986 0
M  V30 704 C 64.0142 0.620125 -1.4847 0
M  V30 705 O 65.2062 0.474933 -1.70509 0
M  V30 706 C 62.3352 0.623566 -3.37589 0
M  V30 707 C 61.4212 -0.221904 -4.23519 0
M  V30 708 N 61.8122 -1.29223 -4.89014 0
M  V30 709 C 60.1102 -0.00600922 -4.46 0
M  V30 710 C 60.8112 -1.80965 -5.52835 0
M  V30 711 N 59.7872 -1.11376 -5.32068 0
M  V30 712 H 63.5892 -1.03354 -2.75128 0
M  V30 713 H 61.1032 -0.6642 -1.48196 0
M  V30 714 H 63.1002 1.0744 -4.02818 0
M  V30 715 H 61.7602 1.44049 -2.90998 0
M  V30 716 H 62.7712 -1.67502 -4.90065 0
M  V30 717 H 59.4482 0.77886 -4.10171 0
M  V30 718 H 60.8382 -2.70502 -6.15043 0
M  V30 719 N 63.5583 1.46682 -0.576371 0
M  V30 720 C 64.7863 2.06798 -0.0649635 0
M  V30 721 C 65.2013 1.42612 1.23723 0
M  V30 722 O 64.5583 0.529203 1.74659 0
M  V30 723 C 64.6093 3.6132 0.114202 0
M  V30 724 O 64.3303 4.23104 -1.13644 0
M  V30 725 C 65.8313 4.38349 0.66069 0
M  V30 726 H 63.0513 0.668778 -0.0545616 0
M  V30 727 H 65.5953 1.88404 -0.795237 0
M  V30 728 H 63.7503 3.79162 0.794673 0
M  V30 729 H 64.1643 5.15894 -0.946253 0
M  V30 730 H 65.6383 5.47081 0.73526 0
M  V30 731 H 66.1153 4.05953 1.67627 0
M  V30 732 H 66.7213 4.25297 0.0152951 0
M  V30 733 N 65.0364 0.313813 1.54444 0
M  V30 734 C 65.9834 -0.55655 2.23989 0
M  V30 735 C 66.9534 -1.11943 1.22711 0
M  V30 736 O 68.1384 -1.16158 1.51367 0
M  V30 737 C 65.2784 -1.71635 2.99392 0
M  V30 738 C 64.3914 -1.18364 4.15468 0
M  V30 739 C 63.5264 -2.30834 4.78424 0
M  V30 740 C 62.5654 -1.74762 5.86622 0
M  V30 741 N 61.7024 -2.80855 6.43479 0
M  V30 742 H 66.5424 0.0430893 2.97969 0
M  V30 743 H 64.0794 0.0330359 1.47063 0
M  V30 744 H 66.0374 -2.39868 3.41349 0
M  V30 745 H 64.6674 -2.28742 2.27765 0
M  V30 746 H 63.7194 -0.393163 3.78363 0
M  V30 747 H 65.0314 -0.733262 4.93381 0
M  V30 748 H 64.1854 -3.0699 5.23299 0
M  V30 749 H 62.9244 -2.79204 3.99871 0
M  V30 750 H 61.9294 -0.970995 5.41158 0
M  V30 751 H 63.1544 -1.2728 6.67066 0
M  V30 752 H 61.1004 -3.28535 5.67804 0
M  V30 753 H 61.0174 -2.40351 7.16776 0
M  V30 754 H 62.2854 -3.5687 6.93011 0
M  V30 755 N 66.5145 -1.57545 0.0417849 0
M  V30 756 C 67.9255 -1.80011 -0.495259 0
M  V30 757 C 68.2765 -0.953199 -1.71489 0
M  V30 758 O 67.4015 -0.167138 -2.15754 0
M  V30 759 C 67.9965 -3.26482 -0.905265 0
M  V30 760 C 66.5555 -3.499 -1.38734 0
M  V30 761 C 65.7025 -2.74979 -0.358056 0
M  V30 762 H 68.6535 -1.56425 0.267736 0
M  V30 763 H 68.6745 -3.36887 -1.76882 0
M  V30 764 H 68.1865 -3.88096 -0.017401 0
M  V30 765 H 66.2875 -2.93553 -2.29471 0
M  V30 766 H 66.4005 -4.58615 -1.38598 0
M  V30 767 H 64.7645 -2.40834 -0.828912 0
M  V30 768 H 65.5475 -3.39315 0.521561 0
M  V30 769 N 67.9926 0.231505 -1.5589 0
M  V30 770 C 69.4086 0.580748 -1.48659 0
M  V30 771 C 69.6086 1.87617 -0.73498 0
M  V30 772 O 68.6646 2.51046 -0.270586 0
M  V30 773 C 69.9776 0.669202 -2.93159 0
M  V30 774 C 71.5256 0.760499 -3.03621 0
M  V30 775 C 72.0006 0.880383 -4.49459 0
M  V30 776 N 73.4916 0.944861 -4.53461 0
M  V30 777 C 74.2266 1.05716 -5.63571 0
M  V30 778 N 73.7226 1.13403 -6.83456 0
M  V30 779 N 75.5156 1.09152 -5.514 0
M  V30 780 H 67.6666 -0.618695 -2.03189 0
M  V30 781 H 69.9296 -0.215728 -0.923128 0
M  V30 782 H 69.6356 -0.212904 -3.51055 0
M  V30 783 H 69.5096 1.5361 -3.44505 0
M  V30 784 H 71.8966 1.63305 -2.45796 0
M  V30 785 H 71.9776 -0.131864 -2.5546 0
M  V30 786 H 71.6216 0.0123284 -5.07899 0
M  V30 787 H 71.5516 1.78802 -4.95316 0
M  V30 788 H 74.0426 0.896176 -3.6712 0
M  V30 789 H 74.3556 1.21921 -7.63122 0
M  V30 790 H 72.7006 1.10333 -6.86186 0
M  V30 791 H 75.8916 1.02805 -4.56671 0
M  V30 792 H 76.0646 1.17558 -6.37247 0
M  V30 793 N 69.4707 1.49531 0.497807 0
M  V30 794 C 70.4037 1.61043 1.6168 0
M  V30 795 C 71.3817 0.459386 1.55976 0
M  V30 796 O 72.5657 0.675358 1.75986 0
M  V30 797 C 69.6927 1.56833 3.00202 0
M  V30 798 C 68.7387 2.77173 3.24156 0
M  V30 799 S 69.5717 4.38808 3.06933 0
M  V30 800 C 70.7277 4.37248 4.47845 0
M  V30 801 H 70.9607 2.55702 1.51671 0
M  V30 802 H 68.4937 1.38462 0.683201 0
M  V30 803 H 70.4517 1.55089 3.80076 0
M  V30 804 H 69.1127 0.634561 3.07623 0
M  V30 805 H 68.3057 2.70456 4.25288 0
M  V30 806 H 67.9077 2.76346 2.5201 0
M  V30 807 H 70.1997 4.09164 5.39992 0
M  V30 808 H 71.1427 5.38668 4.59612 0
M  V30 809 H 71.5507 3.67286 4.28674 0
M  V30 810 N 70.9488 -0.749086 1.3866 0
M  V30 811 C 72.3598 -1.32664 1.31366 0
M  V30 812 C 72.7108 -1.96179 -0.028484 0
M  V30 813 O 71.8358 -1.9537 -0.93057 0
M  V30 814 C 72.4308 -2.41219 2.37905 0
M  V30 815 C 70.9898 -2.94684 2.34176 0
M  V30 816 C 70.1368 -1.68108 2.20533 0
M  V30 817 H 73.0878 -0.547628 1.48952 0
M  V30 818 H 73.1088 -3.21268 2.0388 0
M  V30 819 H 72.6208 -1.94962 3.35576 0
M  V30 820 H 70.7218 -3.45258 1.401 0
M  V30 821 H 70.8348 -3.48757 3.2849 0
M  V30 822 H 69.1988 -1.91907 1.67463 0
M  V30 823 H 69.9818 -1.23923 3.20153 0
M  V30 824 N 72.4269 -1.23603 -0.977757 0
M  V30 825 C 73.8379 -1.06424 -1.53398 0
M  V30 826 C 74.1889 0.367578 -1.92726 0
M  V30 827 O 73.3139 1.25465 -1.76316 0
M  V30 828 C 73.9089 -1.92568 -2.78753 0
M  V30 829 C 72.4679 -1.79642 -3.30765 0
M  V30 830 C 71.6149 -1.88111 -2.03739 0
M  V30 831 H 74.5659 -1.37227 -0.797152 0
M  V30 832 H 74.5869 -1.45203 -3.51705 0
M  V30 833 H 74.0989 -2.96771 -2.50098 0
M  V30 834 H 72.1999 -0.782325 -3.64294 0
M  V30 835 H 72.3129 -2.63174 -4.00345 0
M  V30 836 H 70.6769 -1.31723 -2.17994 0
M  V30 837 H 71.4599 -2.93875 -1.77461 0
M  V30 838 N 73.905 1.17692 -1.04816 0
M  V30 839 C 75.145 1.89545 -0.764979 0
M  V30 840 C 75.509 1.78979 0.695028 0
M  V30 841 O 76.71 2.45613 1.09215 0
M  V30 842 C 74.981 3.35659 -1.22751 0
M  V30 843 S 76.54 4.25526 -1.07112 0
M  V30 844 H 73.358 0.654432 -0.27792 0
M  V30 845 H 75.96 1.42163 -1.34201 0
M  V30 846 H 74.664 3.40882 -2.28533 0
M  V30 847 H 74.195 3.88083 -0.644594 0
M  V30 848 H 76.21 4.962 0.00697508 0
M  V30 849 N 75.3831 0.828654 1.34056 0
M  V30 850 C 76.6601 0.341809 1.9259 0
M  V30 851 C 77.0401 -1.17158 1.75605 0
M  V30 852 O 76.3881 -1.98132 1.13824 0
M  V30 853 C 76.5981 0.777453 3.4023 0
M  V30 854 C 77.9461 0.779579 4.17382 0
M  V30 855 O 78.9701 0.7204 3.48839 0
M  V30 856 O 77.8291 0.857996 5.39723 0
M  V30 857 H 74.9231 0.0946085 0.821571 0
M  V30 858 H 77.4691 0.913827 1.42994 0
M  V30 859 H 76.2411 1.8196 3.46419 0
M  V30 860 H 75.8641 0.181444 3.97186 0
M  V30 861 N 76.8612 -1.46375 0.584142 0
M  V30 862 C 78.1082 -2.02378 0.0702675 0
M  V30 863 C 78.4362 -1.45545 -1.29023 0
M  V30 864 O 77.6912 -0.610967 -1.85918 0
M  V30 865 C 77.9902 -3.57373 -0.0439342 0
M  V30 866 C 77.6562 -4.33252 1.24915 0
M  V30 867 C 76.3182 -4.53701 1.60341 0
M  V30 868 C 78.6702 -4.7681 2.1048 0
M  V30 869 C 75.9982 -5.1496 2.81128 0
M  V30 870 C 78.3502 -5.39404 3.30494 0
M  V30 871 C 77.0142 -5.5808 3.66201 0
M  V30 872 H 76.2842 -0.740554 0.0257127 0
M  V30 873 H 78.9312 -1.75727 0.761065 0
M  V30 874 H 77.2362 -3.83169 -0.817869 0
M  V30 875 H 78.9332 -3.98384 -0.457318 0
M  V30 876 H 75.5232 -4.17633 0.963364 0
M  V30 877 H 79.7072 -4.60766 1.84414 0
M  V30 878 H 74.9632 -5.27611 3.08928 0
M  V30 879 H 79.1372 -5.72114 3.97063 0
M  V30 880 H 76.7642 -6.05318 4.59885 0
M  V30 881 N 78.3393 -0.321999 -1.54275 0
M  V30 882 C 79.2723 0.58718 -2.20516 0
M  V30 883 C 80.2503 1.11693 -1.18167 0
M  V30 884 O 81.4343 1.18122 -1.46899 0
M  V30 885 C 78.5613 1.80554 -2.86562 0
M  V30 886 C 77.6073 1.40718 -4.02617 0
M  V30 887 S 78.4403 0.445218 -5.33646 0
M  V30 888 C 79.5963 1.6709 -6.03185 0
M  V30 889 H 79.8293 0.0244875 -2.9729 0
M  V30 890 H 77.3623 -0.106087 -1.54035 0
M  V30 891 H 79.3203 2.50462 -3.25237 0
M  V30 892 H 77.9813 2.33942 -2.09595 0
M  V30 893 H 77.1743 2.31501 -4.47687 0
M  V30 894 H 76.7763 0.78782 -3.65608 0
M  V30 895 H 79.0683 2.60856 -6.25268 0
M  V30 896 H 80.0113 1.26239 -6.96756 0
M  V30 897 H 80.4193 1.85716 -5.33076 0
M  V30 898 N 79.8174 1.5752 -0.0501392 0
M  V30 899 C 81.2284 1.80271 0.485705 0
M  V30 900 C 81.5794 0.96228 1.70981 0
M  V30 901 O 80.7044 0.178578 2.15662 0
M  V30 902 C 81.2994 3.26957 0.887938 0
M  V30 903 C 79.8584 3.5063 1.36877 0
M  V30 904 C 79.0054 2.75165 0.343468 0
M  V30 905 H 81.9564 1.56281 -0.276028 0
M  V30 906 H 81.9774 3.37821 1.75093 0
M  V30 907 H 81.4894 3.881 -0.0031809 0
M  V30 908 H 79.5904 2.94766 2.27911 0
M  V30 909 H 79.7034 4.59343 1.36164 0
M  V30 910 H 78.0674 2.4127 0.816128 0
M  V30 911 H 78.8504 3.39034 -0.539548 0
M  V30 912 N 81.2955 -0.223234 1.56011 0
M  V30 913 C 82.2055 -1.29766 1.95443 0
M  V30 914 C 83.2215 -1.51373 0.858028 0
M  V30 915 O 84.3975 -1.64536 1.16146 0
M  V30 916 C 81.4625 -2.62772 2.26167 0
M  V30 917 C 80.5235 -2.49482 3.49367 0
M  V30 918 C 79.7565 -3.76145 3.78616 0
M  V30 919 O 79.9795 -4.79087 3.09568 0
M  V30 920 O 78.9135 -3.73358 4.72109 0
M  V30 921 H 82.7395 -0.99309 2.87004 0
M  V30 922 H 80.3245 -0.425958 1.43199 0
M  V30 923 H 82.2065 -3.41327 2.47131 0
M  V30 924 H 80.8815 -2.92913 1.37781 0
M  V30 925 H 79.7885 -1.69133 3.33684 0
M  V30 926 H 81.1215 -2.2428 4.38131 0
M  V30 927 N 82.7736 -1.49793 -0.48987 0
M  V30 928 C 84.1896 -1.36803 -0.822022 0
M  V30 929 C 84.3896 -0.409652 -1.97292 0
M  V30 930 O 83.4456 0.154614 -2.52026 0
M  V30 931 C 84.7586 -2.77768 -1.15175 0
M  V30 932 C 86.3066 -2.86549 -1.25931 0
M  V30 933 C 86.7816 -4.28306 -1.62228 0
M  V30 934 N 88.2726 -4.31169 -1.69256 0
M  V30 935 C 89.0076 -5.37832 -1.98807 0
M  V30 936 N 88.5036 -6.54726 -2.26507 0
M  V30 937 N 90.2966 -5.25258 -2.00152 0
M  V30 938 H 82.4476 -2.10691 0.268881 0
M  V30 939 H 84.7106 -0.946241 0.057728 0
M  V30 940 H 84.4166 -3.49648 -0.379335 0
M  V30 941 H 84.2906 -3.13836 -2.09253 0
M  V30 942 H 86.6776 -2.14899 -2.02243 0
M  V30 943 H 86.7586 -2.54049 -0.298776 0
M  V30 944 H 86.4026 -5.00486 -0.864622 0
M  V30 945 H 86.3326 -4.58279 -2.594 0
M  V30 946 H 88.8236 -3.4687 -1.49965 0
M  V30 947 H 89.1366 -7.31833 -2.48276 0
M  V30 948 H 87.4816 -6.57933 -2.23939 0
M  V30 949 H 90.6726 -4.32938 -1.77996 0
M  V30 950 H 90.8456 -6.08476 -2.22848 0
M  V30 951 N 84.2517 0.741722 -1.39055 0
M  V30 952 C 85.4817 1.52876 -1.3897 0
M  V30 953 C 85.8897 1.8919 0.0193266 0
M  V30 954 O 85.2327 1.54138 0.999356 0
M  V30 955 C 85.2947 2.84929 -2.19216 0
M  V30 956 C 84.9587 2.71086 -3.67915 0
M  V30 957 C 85.9557 2.40084 -4.61146 0
M  V30 958 C 83.6407 2.88168 -4.11418 0
M  V30 959 C 85.6347 2.26335 -5.95862 0
M  V30 960 C 83.3217 2.74037 -5.46211 0
M  V30 961 C 84.3197 2.43166 -6.38247 0
M  V30 962 O 84.0077 2.29115 -7.70559 0
M  V30 963 H 83.7397 0.479252 -0.476753 0
M  V30 964 H 86.2937 0.924751 -1.83405 0
M  V30 965 H 84.5237 3.47564 -1.69518 0
M  V30 966 H 86.2127 3.46509 -2.11392 0
M  V30 967 H 86.9787 2.26545 -4.28838 0
M  V30 968 H 82.8577 3.11191 -3.40119 0
M  V30 969 H 86.4017 2.0216 -6.67665 0
M  V30 970 H 82.2987 2.87153 -5.78112 0
M  V30 971 H 83.0667 2.44237 -7.81211 0
M  V30 972 N 85.7298 1.2412 0.971189 0
M  V30 973 C 86.6618 0.988349 2.06795 0
M  V30 974 C 87.6748 -0.0409541 1.62748 0
M  V30 975 O 88.8638 0.195673 1.77424 0
M  V30 976 C 85.9638 0.469023 3.35639 0
M  V30 977 C 85.1368 1.56065 4.08611 0
M  V30 978 C 84.1958 1.04458 5.15728 0
M  V30 979 O 83.2218 1.73553 5.42096 0
M  V30 980 N 84.4238 -0.122817 5.8037 0
M  V30 981 H 87.1888 1.93265 2.29061 0
M  V30 982 H 84.7498 1.15102 1.13856 0
M  V30 983 H 86.7418 0.108613 4.04554 0
M  V30 984 H 85.3118 -0.380919 3.1027 0
M  V30 985 H 84.5318 2.09341 3.34021 0
M  V30 986 H 85.8198 2.29449 4.54126 0
M  V30 987 H 85.2178 -0.700563 5.61345 0
M  V30 988 H 83.7748 -0.424404 6.50417 0
M  V30 989 N 87.2079 -1.17134 1.05439 0
M  V30 990 C 88.4329 -1.91913 0.786396 0
M  V30 991 C 88.8579 -1.7643 -0.652234 0
M  V30 992 O 88.2159 -1.08372 -1.45345 0
M  V30 993 C 88.2639 -3.40921 1.17497 0
M  V30 994 O 87.3679 -4.11244 0.308589 0
M  V30 995 H 86.7089 -0.598215 0.288158 0
M  V30 996 H 89.2389 -1.48457 1.4079 0
M  V30 997 H 89.2489 -3.91668 1.14281 0
M  V30 998 H 87.9239 -3.5151 2.22292 0
M  V30 999 H 86.5009 -3.70731 0.40157 0
M  V30 1000 N 88.686 -0.835752 -1.33615 0
M  V30 1001 C 89.616 -0.281739 -2.31794 0
M  V30 1002 C 90.597 0.608833 -1.58831 0
M  V30 1003 O 91.782 0.533035 -1.86741 0
M  V30 1004 C 88.912 0.546612 -3.42971 0
M  V30 1005 C 87.866 -0.247904 -4.27281 0
M  V30 1006 C 87.192 0.704001 -5.30045 0
M  V30 1007 C 88.492 -1.46324 -5.01385 0
M  V30 1008 H 90.186 -1.10206 -2.78379 0
M  V30 1009 H 87.732 -0.531388 -1.33837 0
M  V30 1010 H 89.685 0.944467 -4.1068 0
M  V30 1011 H 88.409 1.40011 -2.95067 0
M  V30 1012 H 87.068 -0.627281 -3.61194 0
M  V30 1013 H 86.716 1.55381 -4.78399 0
M  V30 1014 H 86.416 0.176524 -5.87335 0
M  V30 1015 H 87.94 1.09944 -6.0062 0
M  V30 1016 H 89.354 -1.13871 -5.61877 0
M  V30 1017 H 87.751 -1.92728 -5.6831 0
M  V30 1018 H 88.821 -2.23467 -4.30338 0
M  V30 1019 N 90.1641 1.46063 -0.591896 0
M  V30 1020 C 91.4121 2.01938 -0.0808391 0
M  V30 1021 C 91.7331 1.46475 1.28725 0
M  V30 1022 O 91.0031 0.652944 1.84698 0
M  V30 1023 H 89.5831 0.746516 -0.0268938 0
M  V30 1024 H 92.2451 1.79055 -0.769752 0
M  V30 1025 H 91.3411 3.12094 -0.0187578 0
M  V30 1026 N 91.6422 0.330177 1.54103 0
M  V30 1027 C 92.8722 -0.271784 2.04805 0
M  V30 1028 C 93.2802 -1.45816 1.20559 0
M  V30 1029 O 92.6232 -1.82247 0.2306 0
M  V30 1030 C 92.6852 -0.763238 3.51305 0
M  V30 1031 C 92.3492 0.301705 4.56003 0
M  V30 1032 C 93.3462 1.13999 5.07248 0
M  V30 1033 C 91.0312 0.451793 5.00264 0
M  V30 1034 C 93.0252 2.11402 6.01322 0
M  V30 1035 C 90.7122 1.42924 5.94151 0
M  V30 1036 C 91.7102 2.25882 6.44567 0
M  V30 1037 O 91.3982 3.21965 7.3661 0
M  V30 1038 H 91.1302 -0.058693 0.673447 0
M  V30 1039 H 93.6842 0.476395 1.99799 0
M  V30 1040 H 91.9142 -1.56244 3.5373 0
M  V30 1041 H 93.6032 -1.28427 3.85047 0
M  V30 1042 H 94.3692 1.03505 4.73827 0
M  V30 1043 H 90.2482 -0.184044 4.60632 0
M  V30 1044 H 93.7922 2.76192 6.40596 0
M  V30 1045 H 89.6892 1.53479 6.26988 0
M  V30 1046 H 90.4572 3.17281 7.54503 0
M  V30 1047 N 93.1203 -1.57491 0.0584922 0
M  V30 1048 C 94.0683 -2.13148 -0.931168 0
M  V30 1049 C 95.0623 -1.06507 -1.31729 0
M  V30 1050 O 96.2683 -1.24906 -1.29609 0
M  V30 1051 H 92.6433 -0.68137 -0.31818 0
M  V30 1052 H 94.6143 -2.95187 -0.436707 0
M  V30 1053 C 93.3633 -2.69732 -2.19408 0
M  V30 1054 H 92.6863 -3.51454 -1.90578 0
M  V30 1055 H 94.1263 -3.12287 -2.86798 0
M  V30 1056 C 92.5853 -1.63855 -2.94369 0
M  V30 1057 O 93.1153 -1.05565 -3.87581 0
M  V30 1058 N 91.3213 -1.35202 -2.57233 0
M  V30 1059 H 90.8683 -1.82791 -1.81508 0
M  V30 1060 H 90.8263 -0.645922 -3.07693 0
M  V30 1061 N 94.5984 0.214957 -1.56127 0
M  V30 1062 C 96.0144 0.564948 -1.49267 0
M  V30 1063 C 96.2144 1.86827 -0.754838 0
M  V30 1064 O 95.2704 2.50745 -0.297198 0
M  V30 1065 C 96.5834 0.638071 -2.93852 0
M  V30 1066 C 98.1314 0.728253 -3.0441 0
M  V30 1067 C 98.6064 0.832663 -4.50367 0
M  V30 1068 N 100.097 0.896712 -4.54437 0
M  V30 1069 C 100.832 0.997324 -5.6466 0
M  V30 1070 N 100.328 1.06147 -6.8462 0
M  V30 1071 N 102.121 1.03297 -5.52527 0
M  V30 1072 H 94.2724 -0.640211 -2.02522 0
M  V30 1073 H 96.5354 -0.225507 -0.920788 0
M  V30 1074 H 96.2414 -0.250126 -3.50809 0
M  V30 1075 H 96.1154 1.49947 -3.46115 0
M  V30 1076 H 98.5024 1.60689 -2.47514 0
M  V30 1077 H 98.5834 -0.158952 -2.55306 0
M  V30 1078 H 98.2274 -0.0415417 -5.07883 0
M  V30 1079 H 98.1574 1.73538 -4.97184 0
M  V30 1080 H 100.648 0.857188 -3.6805 0
M  V30 1081 H 100.961 1.1382 -7.64372 0
M  V30 1082 H 99.3064 1.03049 -6.87318 0
M  V30 1083 H 102.497 0.979558 -4.57736 0
M  V30 1084 H 102.67 1.10793 -6.38458 0
M  V30 1085 N 96.0765 1.50051 0.48192 0
M  V30 1086 C 97.3225 1.60736 1.2366 0
M  V30 1087 C 97.6555 0.301786 1.91841 0
M  V30 1088 O 96.9305 -0.696025 1.8162 0
M  V30 1089 C 97.2135 2.78009 2.28874 0
M  V30 1090 C 97.0665 4.18416 1.65069 0
M  V30 1091 C 98.3855 2.90867 3.30279 0
M  V30 1092 H 95.5045 0.585031 0.448228 0
M  V30 1093 H 98.1465 1.82402 0.531946 0
M  V30 1094 H 96.2965 2.59667 2.88973 0
M  V30 1095 H 97.9685 4.48322 1.0865 0
M  V30 1096 H 96.2115 4.23177 0.954148 0
M  V30 1097 H 96.8825 4.96381 2.41474 0
M  V30 1098 H 99.3585 3.07623 2.80191 0
M  V30 1099 H 98.2345 3.74566 4.01238 0
M  V30 1100 H 98.4955 2.01021 3.93755 0
M  V30 1101 N 97.5546 -0.734337 1.39446 0
M  V30 1102 C 98.4846 -1.86155 1.40955 0
M  V30 1103 C 99.4656 -1.67898 0.272827 0
M  V30 1104 O 100.651 -1.88207 0.478743 0
M  V30 1105 C 97.7806 -3.23912 1.25294 0
M  V30 1106 C 96.7346 -3.56808 2.36373 0
M  V30 1107 C 96.0606 -4.93508 2.058 0
M  V30 1108 C 97.3606 -3.59713 3.78687 0
M  V30 1109 H 99.0546 -1.8515 2.35287 0
M  V30 1110 H 96.6006 -0.889367 1.13253 0
M  V30 1111 H 98.5536 -4.02443 1.2497 0
M  V30 1112 H 97.2776 -3.25446 0.274308 0
M  V30 1113 H 95.9366 -2.80606 2.35914 0
M  V30 1114 H 95.5846 -4.91623 1.06374 0
M  V30 1115 H 95.2846 -5.16486 2.80208 0
M  V30 1116 H 96.8086 -5.74396 2.07128 0
M  V30 1117 H 98.2226 -4.2832 3.81071 0
M  V30 1118 H 96.6196 -3.94209 4.52459 0
M  V30 1119 H 97.6896 -2.59504 4.09617 0
M  V30 1120 N 99.0327 -1.24633 -0.964593 0
M  V30 1121 C 99.9427 -1.05859 -2.09359 0
M  V30 1122 C 100.959 0.00148855 -1.74 0
M  V30 1123 O 102.135 -0.197346 -2.00431 0
M  V30 1124 C 99.1997 -0.668879 -3.40187 0
M  V30 1125 C 98.2607 -1.80578 -3.89474 0
M  V30 1126 C 97.4937 -1.43457 -5.14058 0
M  V30 1127 O 97.7167 -0.325775 -5.69469 0
M  V30 1128 O 96.6507 -2.2613 -5.57807 0
M  V30 1129 H 100.477 -2.00516 -2.28094 0
M  V30 1130 H 98.0617 -1.03481 -1.0776 0
M  V30 1131 H 99.9437 -0.463211 -4.18846 0
M  V30 1132 H 98.6187 0.248536 -3.22744 0
M  V30 1133 H 97.5257 -2.06623 -3.11862 0
M  V30 1134 H 98.8587 -2.70208 -4.11398 0
M  V30 1135 N 100.511 1.16574 -1.06058 0
M  V30 1136 C 101.76 1.86385 -0.770944 0
M  V30 1137 C 102.073 1.82448 0.705129 0
M  V30 1138 O 103.279 2.47815 1.10905 0
M  V30 1139 C 101.735 3.34466 -1.32893 0
M  V30 1140 C 101.343 3.46883 -2.83507 0
M  V30 1141 C 103.087 4.09548 -1.11672 0
M  V30 1142 C 100.994 4.89036 -3.32562 0
M  V30 1143 H 99.9238 0.698181 -0.284709 0
M  V30 1144 H 102.575 1.31583 -1.27899 0
M  V30 1145 H 100.957 3.88859 -0.748662 0
M  V30 1146 H 102.131 3.02663 -3.47465 0
M  V30 1147 H 100.446 2.85232 -3.03368 0
M  V30 1148 H 103.043 5.14434 -1.45814 0
M  V30 1149 H 103.386 4.16264 -0.0549535 0
M  V30 1150 H 103.919 3.61387 -1.66265 0
M  V30 1151 H 100.658 4.87499 -4.38207 0
M  V30 1152 H 100.178 5.3389 -2.73351 0
M  V30 1153 H 101.857 5.57843 -3.2775 0
M  V30 1154 N 101.989 0.842826 1.3317 0
M  V30 1155 C 102.939 0.250877 2.26616 0
M  V30 1156 C 103.923 -0.596427 1.49437 0
M  V30 1157 O 105.115 -0.447747 1.71243 0
M  V30 1158 C 102.244 -0.569779 3.38539 0
M  V30 1159 C 101.33 0.289254 4.23112 0
M  V30 1160 N 101.721 1.36987 4.86897 0
M  V30 1161 C 100.019 0.0769631 4.45934 0
M  V30 1162 C 100.72 1.89737 5.49886 0
M  V30 1163 N 99.6959 1.19827 5.30229 0
M  V30 1164 H 103.498 1.07718 2.73448 0
M  V30 1165 H 101.012 0.687693 1.47121 0
M  V30 1166 H 103.009 -1.01018 4.04476 0
M  V30 1167 H 101.669 -1.39401 2.93253 0
M  V30 1168 H 102.68 1.75277 4.87338 0
M  V30 1169 H 99.3569 -0.713507 4.11358 0
M  V30 1170 H 100.747 2.80253 6.10662 0
M  V30 1171 N 103.467 -1.45747 0.599634 0
M  V30 1172 C 104.414 -2.30467 -0.123849 0
M  V30 1173 C 105.384 -1.41632 -0.86774 0
M  V30 1174 O 106.569 -1.70568 -0.855056 0
M  V30 1175 C 103.709 -3.26402 -1.12051 0
M  V30 1176 C 102.822 -4.3034 -0.37832 0
M  V30 1177 C 101.957 -5.13389 -1.364 0
M  V30 1178 C 100.996 -6.09061 -0.609171 0
M  V30 1179 N 100.133 -6.84918 -1.54374 0
M  V30 1180 H 104.973 -2.91802 0.604627 0
M  V30 1181 H 102.51 -1.43797 0.309972 0
M  V30 1182 H 104.468 -3.80482 -1.7114 0
M  V30 1183 H 103.098 -2.66839 -1.8165 0
M  V30 1184 H 102.15 -3.78984 0.327929 0
M  V30 1185 H 103.462 -4.98354 0.210997 0
M  V30 1186 H 102.616 -5.7183 -2.02719 0
M  V30 1187 H 101.355 -4.45376 -1.98725 0
M  V30 1188 H 100.36 -5.49758 0.0676979 0
M  V30 1189 H 101.585 -6.79099 0.00891991 0
M  V30 1190 H 99.531 -6.19601 -2.15478 0
M  V30 1191 H 99.448 -7.49254 -1.00766 0
M  V30 1192 H 100.716 -7.47906 -2.19676 0
M  V30 1193 N 104.945 -0.338344 -1.53925 0
M  V30 1194 C 105.855 0.529421 -2.28548 0
M  V30 1195 C 106.871 1.11645 -1.3346 0
M  V30 1196 O 108.047 1.13325 -1.66492 0
M  V30 1197 C 105.112 1.66713 -3.03987 0
M  V30 1198 C 104.173 1.11041 -4.14691 0
M  V30 1199 C 103.406 2.19389 -4.86522 0
M  V30 1200 O 103.629 3.40013 -4.57982 0
M  V30 1201 O 102.563 1.83976 -5.73094 0
M  V30 1202 H 106.389 -0.0770399 -3.03602 0
M  V30 1203 H 103.974 -0.103555 -1.49041 0
M  V30 1204 H 105.856 2.32918 -3.5118 0
M  V30 1205 H 104.531 2.25949 -2.31794 0
M  V30 1206 H 103.438 0.413024 -3.71813 0
M  V30 1207 H 104.771 0.562975 -4.8897 0
M  V30 1208 N 106.423 1.57458 -0.0668435 0
M  V30 1209 C 107.373 2.0896 0.912119 0
M  V30 1210 C 108.357 0.998186 1.26195 0
M  V30 1211 O 109.549 1.26133 1.24175 0
M  V30 1212 C 106.678 2.6508 2.18145 0
M  V30 1213 C 105.764 3.81218 1.85832 0
M  V30 1214 N 106.155 4.90378 1.23948 0
M  V30 1215 C 104.453 3.9042 2.15612 0
M  V30 1216 C 105.154 5.71279 1.09616 0
M  V30 1217 N 104.13 5.19389 1.60423 0
M  V30 1218 H 107.932 2.90749 0.42924 0
M  V30 1219 H 105.446 1.6182 0.137184 0
M  V30 1220 H 107.443 3.0029 2.89192 0
M  V30 1221 H 106.103 1.84736 2.67025 0
M  V30 1222 H 107.114 5.09847 0.909731 0
M  V30 1223 H 103.791 3.21043 2.66903 0
M  V30 1224 H 105.181 6.69085 0.614425 0
M  V30 1225 N 107.901 -0.206675 1.56239 0
M  V30 1226 C 108.831 -1.25909 1.96645 0
M  V30 1227 C 109.812 -1.48097 0.836734 0
M  V30 1228 O 110.997 -1.6003 1.10019 0
M  V30 1229 C 108.127 -2.6058 2.29599 0
M  V30 1230 C 107.081 -2.53024 3.452 0
M  V30 1231 C 106.407 -3.91861 3.63798 0
M  V30 1232 C 107.707 -2.06524 4.79734 0
M  V30 1233 H 109.401 -0.923369 2.84806 0
M  V30 1234 H 106.947 -0.442735 1.37025 0
M  V30 1235 H 108.9 -3.34375 2.56459 0
M  V30 1236 H 107.624 -2.95869 1.38307 0
M  V30 1237 H 106.283 -1.81684 3.18412 0
M  V30 1238 H 105.931 -4.24483 2.69857 0
M  V30 1239 H 105.631 -3.87683 4.4156 0
M  V30 1240 H 107.155 -4.67296 3.93022 0
M  V30 1241 H 108.569 -2.70072 5.05702 0
M  V30 1242 H 106.966 -2.13374 5.60885 0
M  V30 1243 H 108.036 -1.01802 4.74093 0
M  V30 1244 N 109.379 -1.50304 -0.473955 0
M  V30 1245 C 110.604 -1.65175 -1.25427 0
M  V30 1246 C 111.029 -0.333673 -1.85117 0
M  V30 1247 O 110.387 0.702114 -1.67153 0
M  V30 1248 C 110.435 -2.74295 -2.34082 0
M  V30 1249 O 109.539 -2.35349 -3.38651 0
M  V30 1250 H 108.88 -0.551944 -0.369126 0
M  V30 1251 H 111.41 -1.96662 -0.564364 0
M  V30 1252 H 111.42 -2.97285 -2.79438 0
M  V30 1253 H 110.095 -3.69959 -1.90008 0
M  V30 1254 H 108.672 -2.22794 -2.99027 0
M  V30 1255 N 110.857 0.726932 -1.39834 0
M  V30 1256 C 112.268 1.30558 -1.3346 0
M  V30 1257 C 112.619 1.962 -0.00273003 0
M  V30 1258 O 111.744 1.96826 0.899371 0
M  V30 1259 C 112.339 2.37404 -2.41713 0
M  V30 1260 C 110.898 2.90921 -2.38835 0
M  V30 1261 C 110.045 1.64578 -2.2318 0
M  V30 1262 H 112.996 0.523862 -1.49804 0
M  V30 1263 H 113.017 3.17984 -2.08966 0
M  V30 1264 H 112.529 1.89599 -3.38635 0
M  V30 1265 H 110.63 3.42985 -1.45575 0
M  V30 1266 H 110.743 3.43487 -3.33997 0
M  V30 1267 H 109.107 1.89219 -1.70494 0
M  V30 1268 H 109.89 1.18814 -3.22084 0
M  V30 1269 N 112.336 1.25143 0.95797 0
M  V30 1270 C 113.582 1.09855 1.70469 0
M  V30 1271 C 113.915 -0.360187 1.90831 0
M  V30 1272 O 113.19 -1.26568 1.47685 0
M  V30 1273 C 113.473 1.8497 3.08963 0
M  V30 1274 C 113.326 3.38652 2.96032 0
M  V30 1275 C 114.645 1.63016 4.08795 0
M  V30 1276 H 111.764 0.400465 0.618706 0
M  V30 1277 H 114.406 1.53933 1.11376 0
M  V30 1278 H 112.556 1.47505 3.59409 0
M  V30 1279 H 114.228 3.85772 2.52938 0
M  V30 1280 H 112.471 3.66534 2.32025 0
M  V30 1281 H 113.142 3.8642 3.94187 0
M  V30 1282 H 115.618 1.95625 3.67247 0
M  V30 1283 H 114.494 2.18015 5.03747 0
M  V30 1284 H 114.755 0.570692 4.38401 0
M  V30 1285 N 113.814 -1.1601 1.06675 0
M  V30 1286 C 115.06 -1.86909 0.786945 0
M  V30 1287 C 115.393 -1.81717 -0.685018 0
M  V30 1288 O 114.668 -1.23551 -1.50218 0
M  V30 1289 C 114.951 -3.36313 1.28707 0
M  V30 1290 C 114.804 -3.50175 2.82308 0
M  V30 1291 C 116.123 -4.3084 0.898071 0
M  V30 1292 H 113.242 -0.678677 0.287343 0
M  V30 1293 H 115.884 -1.36336 1.32334 0
M  V30 1294 H 114.034 -3.79513 0.830768 0
M  V30 1295 H 115.706 -3.15886 3.36175 0
M  V30 1296 H 113.949 -2.91959 3.20847 0
M  V30 1297 H 114.62 -4.55116 3.12368 0
M  V30 1298 H 117.096 -3.95561 1.29114 0
M  V30 1299 H 115.972 -5.33876 1.27543 0
M  V30 1300 H 116.233 -4.41662 -0.196651 0
M  V30 1301 N 115.292 -0.849877 -1.32721 0
M  V30 1302 C 116.52 -0.464754 -2.01613 0
M  V30 1303 C 116.935 0.937191 -1.63897 0
M  V30 1304 O 116.292 1.61081 -0.857856 0
M  V30 1305 C 116.343 -0.588638 -3.56675 0
M  V30 1306 O 116.064 -1.93535 -3.93034 0
M  V30 1307 C 117.565 -0.2019 -4.4284 0
M  V30 1308 H 114.785 -0.183215 -0.645502 0
M  V30 1309 H 117.329 -1.1455 -1.69407 0
M  V30 1310 H 115.484 0.0443159 -3.87375 0
M  V30 1311 H 115.898 -1.92871 -4.87751 0
M  V30 1312 H 117.372 -0.339599 -5.50954 0
M  V30 1313 H 117.849 0.857224 -4.30753 0
M  V30 1314 H 118.455 -0.809733 -4.17521 0
M  V30 1315 N 116.77 1.45427 -0.607355 0
M  V30 1316 C 117.733 2.28974 0.101693 0
M  V30 1317 C 118.733 1.39754 0.795329 0
M  V30 1318 O 119.923 1.61878 0.643527 0
M  V30 1319 C 117.055 3.20768 1.15414 0
M  V30 1320 H 118.248 2.93147 -0.632844 0
M  V30 1321 H 115.801 1.51945 -0.366391 0
M  V30 1322 H 116.536 2.61395 1.91945 0
M  V30 1323 H 116.321 3.86489 0.66098 0
M  V30 1324 H 117.811 3.83589 1.65073 0
M  V30 1325 N 118.248 0.346503 1.53744 0
M  V30 1326 C 119.478 -0.250047 2.05081 0
M  V30 1327 C 119.886 -1.44529 1.22098 0
M  V30 1328 O 119.229 -1.81992 0.249917 0
M  V30 1329 C 119.291 -0.725934 3.52094 0
M  V30 1330 C 118.955 0.350053 4.55657 0
M  V30 1331 C 119.952 1.19372 5.0601 0
M  V30 1332 C 117.637 0.504827 4.99757 0
M  V30 1333 C 119.631 2.17768 5.99046 0
M  V30 1334 C 117.318 1.49218 5.92602 0
M  V30 1335 C 118.316 2.32706 6.42135 0
M  V30 1336 O 118.004 3.2976 7.33153 0
M  V30 1337 H 117.736 -0.0515469 0.674032 0
M  V30 1338 H 120.29 0.497559 1.99282 0
M  V30 1339 H 118.52 -1.52483 3.55367 0
M  V30 1340 H 120.209 -1.24336 3.86388 0
M  V30 1341 H 120.975 1.08525 4.72702 0
M  V30 1342 H 116.854 -0.135178 4.60802 0
M  V30 1343 H 120.398 2.82971 6.37631 0
M  V30 1344 H 116.295 1.6012 6.25325 0
M  V30 1345 H 117.063 3.25265 7.51096 0
M  V30 1346 N 119.726 -1.57421 0.075193 0
M  V30 1347 C 120.973 -1.93618 -0.593146 0
M  V30 1348 C 121.301 -0.955484 -1.69413 0
M  V30 1349 O 120.556 0.0283251 -1.9568 0
M  V30 1350 C 120.855 -3.36428 -1.20626 0
M  V30 1351 C 120.521 -4.50307 -0.231078 0
M  V30 1352 C 119.183 -4.81186 0.0371936 0
M  V30 1353 C 121.535 -5.19374 0.435888 0
M  V30 1354 C 118.863 -5.78466 0.979461 0
M  V30 1355 C 121.215 -6.17665 1.3665 0
M  V30 1356 C 119.879 -6.46958 1.6432 0
M  V30 1357 H 119.149 -0.708499 -0.217047 0
M  V30 1358 H 121.796 -1.90937 0.146793 0
M  V30 1359 H 120.101 -3.35592 -2.02201 0
M  V30 1360 H 121.798 -3.61727 -1.73073 0
M  V30 1361 H 118.388 -4.26227 -0.450357 0
M  V30 1362 H 122.572 -4.95711 0.241748 0
M  V30 1363 H 117.828 -5.99487 1.20106 0
M  V30 1364 H 122.002 -6.70284 1.88924 0
M  V30 1365 H 119.629 -7.2215 2.37494 0
M  V30 1366 N 121.204 0.198386 -1.56346 0
M  V30 1367 C 122.136 1.26987 -1.90806 0
M  V30 1368 C 123.149 1.41877 -0.798419 0
M  V30 1369 O 124.338 1.42362 -1.07682 0
M  V30 1370 C 121.438 2.64246 -2.12196 0
M  V30 1371 C 120.611 2.71007 -3.43328 0
M  V30 1372 C 119.67 3.89439 -3.5387 0
M  V30 1373 O 118.696 3.76695 -4.26719 0
M  V30 1374 N 119.898 5.04752 -2.86715 0
M  V30 1375 H 122.663 0.977433 -2.83313 0
M  V30 1376 H 120.224 0.388322 -1.57174 0
M  V30 1377 H 122.216 3.41896 -2.1654 0
M  V30 1378 H 120.786 2.85992 -1.26204 0
M  V30 1379 H 120.006 1.79657 -3.50881 0
M  V30 1380 H 121.294 2.72512 -4.29668 0
M  V30 1381 H 120.692 5.18004 -2.2735 0
M  V30 1382 H 119.249 5.8036 -2.96691 0
M  V30 1383 N 122.682 1.50554 0.465978 0
M  V30 1384 C 123.629 1.6979 1.56333 0
M  V30 1385 C 124.599 0.539239 1.57103 0
M  V30 1386 O 125.784 0.770401 1.74555 0
M  V30 1387 C 122.924 1.80273 2.94271 0
M  V30 1388 C 122.037 3.07674 3.0325 0
M  V30 1389 C 121.172 3.08922 4.32135 0
M  V30 1390 C 120.211 4.30755 4.34875 0
M  V30 1391 N 119.348 4.29714 5.55239 0
M  V30 1392 H 124.188 2.63472 1.39235 0
M  V30 1393 H 121.725 1.30602 0.676873 0
M  V30 1394 H 123.683 1.84332 3.74269 0
M  V30 1395 H 122.313 0.900258 3.09992 0
M  V30 1396 H 121.365 3.13062 2.16094 0
M  V30 1397 H 122.677 3.97642 3.01135 0
M  V30 1398 H 121.831 3.11738 5.20485 0
M  V30 1399 H 120.57 2.16792 4.36866 0
M  V30 1400 H 119.575 4.28146 3.44922 0
M  V30 1401 H 120.8 5.24117 4.31831 0
M  V30 1402 H 118.746 3.4044 5.60746 0
M  V30 1403 H 118.663 5.13456 5.54886 0
M  V30 1404 H 119.931 4.36683 6.457 0
M  V30 1405 N 124.16 -0.719506 1.40217 0
M  V30 1406 C 125.571 -1.29848 1.34151 0
M  V30 1407 C 125.922 -1.96196 0.0131349 0
M  V30 1408 O 125.047 -1.973 -0.88892 0
M  V30 1409 C 125.642 -2.36118 2.42968 0
M  V30 1410 C 124.201 -2.8965 2.40374 0
M  V30 1411 C 123.348 -1.63393 2.24049 0
M  V30 1412 H 126.299 -0.51591 1.5008 0
M  V30 1413 H 126.32 -3.16871 2.10649 0
M  V30 1414 H 125.832 -1.878 3.39636 0
M  V30 1415 H 123.933 -3.42208 1.47392 0
M  V30 1416 H 124.046 -3.4171 3.35814 0
M  V30 1417 H 122.41 -1.88312 1.71495 0
M  V30 1418 H 123.193 -1.17104 3.2271 0
M  V30 1419 N 125.638 -1.25649 -0.95132 0
M  V30 1420 C 126.568 -1.08808 -2.06599 0
M  V30 1421 C 127.549 0.00382547 -1.701 0
M  V30 1422 O 128.734 -0.166325 -1.93486 0
M  V30 1423 C 125.864 -0.709542 -3.39975 0
M  V30 1424 C 124.818 -1.75206 -3.90496 0
M  V30 1425 C 124.144 -1.22811 -5.20405 0
M  V30 1426 C 125.444 -3.15153 -4.16504 0
M  V30 1427 H 127.138 -2.02048 -2.20946 0
M  V30 1428 H 124.684 -0.972835 -1.06169 0
M  V30 1429 H 126.637 -0.578649 -4.17408 0
M  V30 1430 H 125.361 0.258556 -3.25575 0
M  V30 1431 H 124.02 -1.87145 -3.15234 0
M  V30 1432 H 123.668 -0.250145 -5.02378 0
M  V30 1433 H 123.368 -1.92492 -5.55176 0
M  V30 1434 H 124.892 -1.10968 -6.00432 0
M  V30 1435 H 126.306 -3.06349 -4.84586 0
M  V30 1436 H 124.703 -3.82333 -4.62538 0
M  V30 1437 H 125.773 -3.61966 -3.22658 0
M  V30 1438 N 127.117 1.15442 -1.07289 0
M  V30 1439 C 128.047 2.22312 -0.714107 0
M  V30 1440 C 129.028 1.67467 0.298155 0
M  V30 1441 O 130.213 1.93445 0.171048 0
M  V30 1442 C 127.343 3.47124 -0.110448 0
M  V30 1443 C 126.297 4.14926 -1.04979 0
M  V30 1444 C 125.623 5.33807 -0.308924 0
M  V30 1445 C 126.923 4.64762 -2.38314 0
M  V30 1446 H 128.617 2.5258 -1.6076 0
M  V30 1447 H 126.163 1.21404 -0.77441 0
M  V30 1448 H 128.116 4.21124 0.152482 0
M  V30 1449 H 126.84 3.16187 0.81812 0
M  V30 1450 H 125.499 3.42866 -1.29764 0
M  V30 1451 H 125.147 4.99126 0.623084 0
M  V30 1452 H 124.847 5.80113 -0.935036 0
M  V30 1453 H 126.371 6.10576 -0.0537771 0
M  V30 1454 H 127.785 5.30292 -2.1786 0
M  V30 1455 H 126.182 5.21728 -2.96514 0
M  V30 1456 H 127.252 3.80434 -3.00663 0
M  V30 1457 N 128.595 0.856903 1.32268 0
M  V30 1458 C 129.525 0.31858 2.31316 0
M  V30 1459 C 130.506 -0.583487 1.59779 0
M  V30 1460 O 131.691 -0.503259 1.87566 0
M  V30 1461 C 128.821 -0.491979 3.43798 0
M  V30 1462 C 127.775 0.315849 4.26833 0
M  V30 1463 C 127.101 -0.619586 5.31098 0
M  V30 1464 C 128.401 1.54282 4.98993 0
M  V30 1465 H 130.095 1.14621 2.76591 0
M  V30 1466 H 127.641 0.552613 1.32974 0
M  V30 1467 H 129.594 -0.879012 4.1213 0
M  V30 1468 H 128.318 -1.35299 2.97257 0
M  V30 1469 H 126.977 0.684664 3.6015 0
M  V30 1470 H 126.625 -1.47751 4.8081 0
M  V30 1471 H 126.325 -0.0830621 5.87541 0
M  V30 1472 H 127.849 -1.00375 6.02293 0
M  V30 1473 H 129.263 1.22796 5.59995 0
M  V30 1474 H 127.66 2.01745 5.65172 0
M  V30 1475 H 128.73 2.30285 4.26728 0
M  V30 1476 N 130.073 -1.45103 0.615059 0
M  V30 1477 C 131.023 -2.27679 -0.120966 0
M  V30 1478 C 132.007 -1.3775 -0.831491 0
M  V30 1479 O 133.199 -1.61683 -0.720249 0
M  V30 1480 C 130.328 -3.24767 -1.1127 0
M  V30 1481 C 129.414 -4.22184 -0.402627 0
M  V30 1482 N 129.805 -5.02692 0.559884 0
M  V30 1483 C 128.103 -4.4125 -0.649202 0
M  V30 1484 C 128.804 -5.73421 0.977942 0
M  V30 1485 N 127.78 -5.42657 0.320104 0
M  V30 1486 H 131.582 -2.87325 0.618181 0
M  V30 1487 H 129.096 -1.56345 0.439304 0
M  V30 1488 H 131.093 -3.82666 -1.65446 0
M  V30 1489 H 129.753 -2.66682 -1.85232 0
M  V30 1490 H 130.764 -5.09354 0.936976 0
M  V30 1491 H 127.441 -3.9428 -1.37293 0
M  V30 1492 H 128.831 -6.48107 1.77222 0
M  V30 1493 N 131.551 -0.354651 -1.53558 0
M  V30 1494 C 132.483 0.5315 -2.22952 0
M  V30 1495 C 133.496 1.05503 -1.23988 0
M  V30 1496 O 134.685 0.963279 -1.50277 0
M  V30 1497 C 131.785 1.74538 -2.90499 0
M  V30 1498 C 130.958 1.35524 -4.15875 0
M  V30 1499 C 130.017 2.42999 -4.66731 0
M  V30 1500 O 129.043 2.05844 -5.30676 0
M  V30 1501 N 130.245 3.74423 -4.43608 0
M  V30 1502 H 133.01 -0.0628615 -2.99634 0
M  V30 1503 H 130.571 -0.179302 -1.60904 0
M  V30 1504 H 132.563 2.45892 -3.21433 0
M  V30 1505 H 131.133 2.24686 -2.17336 0
M  V30 1506 H 130.353 0.471998 -3.91364 0
M  V30 1507 H 131.641 1.07071 -4.97406 0
M  V30 1508 H 131.039 4.07391 -3.92491 0
M  V30 1509 H 129.596 4.41913 -4.7912 0
M  V30 1510 N 133.029 1.57378 -0.0835403 0
M  V30 1511 C 134.277 1.93547 0.581718 0
M  V30 1512 C 134.598 0.96524 1.69435 0
M  V30 1513 O 133.868 0.0153369 1.95894 0
M  V30 1514 H 132.448 0.714521 0.217874 0
M  V30 1515 H 135.11 1.94366 -0.144158 0
M  V30 1516 H 134.206 2.95665 0.999423 0
M  V30 1517 N 134.507 -0.190092 1.56449 0
M  V30 1518 C 135.457 -1.23977 1.91347 0
M  V30 1519 C 136.441 -1.40747 0.779693 0
M  V30 1520 O 137.633 -1.43033 1.04262 0
M  V30 1521 C 134.762 -2.58347 2.26079 0
M  V30 1522 C 133.848 -2.4535 3.45925 0
M  V30 1523 N 134.239 -2.02039 4.63696 0
M  V30 1524 C 132.537 -2.76229 3.50162 0
M  V30 1525 C 133.238 -2.01053 5.4585 0
M  V30 1526 N 132.214 -2.42747 4.8639 0
M  V30 1527 H 136.016 -0.896318 2.79899 0
M  V30 1528 H 133.53 -0.398496 1.57435 0
M  V30 1529 H 135.527 -3.34173 2.49267 0
M  V30 1530 H 134.187 -2.93512 1.38856 0
M  V30 1531 H 135.198 -1.7267 4.88268 0
M  V30 1532 H 131.875 -3.15556 2.73369 0
M  V30 1533 H 133.265 -1.69426 6.50188 0
M  V30 1534 N 135.985 -1.50799 -0.457987 0
M  V30 1535 C 136.918 -1.65273 -1.57353 0
M  V30 1536 C 137.896 -0.500578 -1.54703 0
M  V30 1537 O 139.08 -0.721781 -1.74134 0
M  V30 1538 C 136.207 -1.64737 -2.95938 0
M  V30 1539 C 135.253 -2.8567 -3.16693 0
M  V30 1540 S 136.086 -4.46791 -2.95191 0
M  V30 1541 C 137.242 -4.48968 -4.36095 0
M  V30 1542 H 137.475 -2.59633 -1.44838 0
M  V30 1543 H 135.008 -1.40225 -0.64625 0
M  V30 1544 H 136.966 -1.65112 -3.7583 0
M  V30 1545 H 135.627 -0.715899 -3.05833 0
M  V30 1546 H 134.82 -2.81637 -4.17967 0
M  V30 1547 H 134.422 -2.8293 -2.44594 0
M  V30 1548 H 136.714 -4.23337 -5.28954 0
M  V30 1549 H 137.657 -5.50664 -4.45168 0
M  V30 1550 H 138.065 -3.78522 -4.18786 0
M  V30 1551 N 137.463 0.71206 -1.40597 0
M  V30 1552 C 138.373 1.8562 -1.43466 0
M  V30 1553 C 139.389 1.70902 -0.326902 0
M  V30 1554 O 140.565 1.93105 -0.572043 0
M  V30 1555 C 137.63 3.21451 -1.29884 0
M  V30 1556 C 136.691 3.48398 -2.50833 0
M  V30 1557 C 135.924 4.77749 -2.3789 0
M  V30 1558 O 136.147 5.53089 -1.39459 0
M  V30 1559 O 135.081 5.05111 -3.27333 0
M  V30 1560 H 138.907 1.86155 -2.39958 0
M  V30 1561 H 136.492 0.86295 -1.21957 0
M  V30 1562 H 138.374 4.02579 -1.24531 0
M  V30 1563 H 137.049 3.21636 -0.364997 0
M  V30 1564 H 135.956 2.67265 -2.61763 0
M  V30 1565 H 137.289 3.53014 -3.4299 0
M  V30 1566 N 138.941 1.26152 0.944643 0
M  V30 1567 C 140.187 1.12665 1.69346 0
M  V30 1568 C 140.542 -0.3273 1.89596 0
M  V30 1569 O 139.835 -1.23717 1.46303 0
M  V30 1570 C 140.029 1.82541 3.07268 0
M  V30 1571 C 139.858 3.34582 3.00475 0
M  V30 1572 C 138.628 4.03863 3.03681 0
M  V30 1573 C 140.826 4.30828 2.80877 0
M  V30 1574 N 138.808 5.42603 2.87151 0
M  V30 1575 C 140.179 5.5672 2.7288 0
M  V30 1576 C 142.234 4.21122 2.65633 0
M  V30 1577 C 140.937 6.74013 2.51196 0
M  V30 1578 C 142.963 5.38118 2.45323 0
M  V30 1579 C 142.325 6.62955 2.38055 0
M  V30 1580 H 138.424 0.467041 0.627214 0
M  V30 1581 H 141.008 1.59391 1.11815 0
M  V30 1582 H 139.179 1.38296 3.62945 0
M  V30 1583 H 140.911 1.61708 3.70989 0
M  V30 1584 H 137.666 3.55198 3.1326 0
M  V30 1585 H 138.09 6.15443 2.82063 0
M  V30 1586 H 142.732 3.25344 2.70021 0
M  V30 1587 H 140.45 7.6989 2.4555 0
M  V30 1588 H 144.036 5.32475 2.34439 0
M  V30 1589 H 142.916 7.51959 2.22546 0
M  V30 1590 N 140.419 -1.14872 1.07899 0
M  V30 1591 C 141.349 -2.2193 0.725887 0
M  V30 1592 C 142.33 -1.67622 -0.28927 0
M  V30 1593 O 143.515 -1.93533 -0.160787 0
M  V30 1594 C 140.645 -3.47061 0.128856 0
M  V30 1595 C 139.599 -4.14363 1.07178 0
M  V30 1596 C 138.925 -5.33636 0.337229 0
M  V30 1597 C 140.225 -4.63492 2.40775 0
M  V30 1598 H 141.919 -2.51724 1.62097 0
M  V30 1599 H 139.465 -1.20991 0.780838 0
M  V30 1600 H 141.418 -4.21199 -0.130147 0
M  V30 1601 H 140.142 -3.16617 -0.80134 0
M  V30 1602 H 138.801 -3.42173 1.3158 0
M  V30 1603 H 138.449 -4.99449 -0.596606 0
M  V30 1604 H 138.149 -5.79609 0.965788 0
M  V30 1605 H 139.673 -6.10539 0.0861567 0
M  V30 1606 H 141.087 -5.2913 2.20669 0
M  V30 1607 H 139.484 -5.20148 2.99276 0
M  V30 1608 H 140.554 -3.78834 3.02676 0
M  V30 1609 N 141.898 -0.863906 -1.31812 0
M  V30 1610 C 143.145 -0.471836 -1.96926 0
M  V30 1611 C 143.473 0.974578 -1.68322 0
M  V30 1612 O 142.728 1.7003 -0.968933 0
M  V30 1613 C 143.027 -0.668547 -3.51091 0
M  V30 1614 C 142.693 -2.08683 -3.99703 0
M  V30 1615 C 141.355 -2.47471 -4.12688 0
M  V30 1616 C 143.707 -3.01207 -4.25351 0
M  V30 1617 C 141.035 -3.78037 -4.4867 0
M  V30 1618 C 143.387 -4.31282 -4.62794 0
M  V30 1619 C 142.051 -4.69992 -4.73987 0
M  V30 1620 H 141.321 -0.172657 -0.720604 0
M  V30 1621 H 143.968 -1.09573 -1.57054 0
M  V30 1622 H 142.273 0.0385252 -3.91781 0
M  V30 1623 H 143.97 -0.345102 -3.99512 0
M  V30 1624 H 140.56 -1.77566 -3.90087 0
M  V30 1625 H 144.744 -2.72469 -4.14819 0
M  V30 1626 H 140 -4.078 -4.55532 0
M  V30 1627 H 144.174 -5.03031 -4.81594 0
M  V30 1628 H 141.801 -5.71207 -5.01624 0
M  V30 1629 N 143.376 1.44774 -0.622745 0
M  V30 1630 C 144.653 1.95522 -0.0551974 0
M  V30 1631 C 145.033 1.5649 1.41683 0
M  V30 1632 O 144.381 0.834848 2.12703 0
M  V30 1633 C 144.591 3.4796 -0.269242 0
M  V30 1634 C 145.939 4.24306 -0.158014 0
M  V30 1635 O 146.963 3.55637 -0.200162 0
M  V30 1636 O 145.822 5.46471 -0.0558693 0
M  V30 1637 H 142.916 0.826556 0.0271015 0
M  V30 1638 H 145.462 1.54866 -0.693864 0
M  V30 1639 H 144.234 3.6939 -1.29099 0
M  V30 1640 H 143.857 3.95543 0.403966 0
M  V30 1641 N 144.854 0.36279 1.53368 0
M  V30 1642 C 145.817 -0.472679 2.24273 0
M  V30 1643 C 146.817 -1.012 1.24961 0
M  V30 1644 O 148.007 -0.898194 1.49259 0
M  V30 1645 C 145.139 -1.66039 2.97731 0
M  V30 1646 H 146.332 0.14773 2.99536 0
M  V30 1647 H 143.885 0.114434 1.55881 0
M  V30 1648 H 144.62 -2.31896 2.26704 0
M  V30 1649 H 144.405 -1.28066 3.70596 0
M  V30 1650 H 145.895 -2.25252 3.51641 0
M  V30 1651 N 146.332 -1.57332 0.0918853 0
M  V30 1652 C 147.242 -2.17368 -0.882505 0
M  V30 1653 C 148.258 -1.14226 -1.31257 0
M  V30 1654 O 149.434 -1.46582 -1.38115 0
M  V30 1655 C 146.499 -2.73962 -2.12476 0
M  V30 1656 C 145.56 -3.92048 -1.7492 0
M  V30 1657 C 144.793 -4.45933 -2.93223 0
M  V30 1658 O 145.016 -3.98764 -4.07852 0
M  V30 1659 O 143.95 -5.36999 -2.71875 0
M  V30 1660 H 147.776 -3.01031 -0.40172 0
M  V30 1661 H 145.361 -1.48813 -0.132291 0
M  V30 1662 H 147.243 -3.10147 -2.85283 0
M  V30 1663 H 145.918 -1.93347 -2.59613 0
M  V30 1664 H 144.825 -3.6068 -0.993025 0
M  V30 1665 H 146.158 -4.74017 -1.32548 0
M  V30 1666 N 147.81 0.181792 -1.56548 0
M  V30 1667 C 149.058 0.89832 -1.81038 0
M  V30 1668 C 149.379 1.83232 -0.667164 0
M  V30 1669 O 148.649 1.93372 0.313673 0
M  V30 1670 H 147.229 0.33471 -0.667816 0
M  V30 1671 H 149.891 0.184116 -1.94028 0
M  V30 1672 H 148.987 1.4815 -2.74696 0
M  V30 1673 N 149.288 1.51039 0.449983 0
M  V30 1674 C 150.513 1.6715 1.22783 0
M  V30 1675 C 150.938 0.363081 1.84563 0
M  V30 1676 O 150.296 -0.675433 1.68249 0
M  V30 1677 C 150.344 2.77985 2.29689 0
M  V30 1678 O 149.448 2.40707 3.34864 0
M  V30 1679 H 148.789 0.557746 0.360299 0
M  V30 1680 H 151.319 1.97535 0.533005 0
M  V30 1681 H 151.329 3.01693 2.74673 0
M  V30 1682 H 150.004 3.72935 1.84098 0
M  V30 1683 H 148.581 2.27523 2.95445 0
M  V30 1684 N 150.766 -0.704594 1.40972 0
M  V30 1685 C 152.182 -1.01406 1.23244 0
M  V30 1686 C 152.382 -2.01169 0.115399 0
M  V30 1687 O 151.438 -2.47021 -0.523147 0
M  V30 1688 C 152.751 -1.54728 2.57836 0
M  V30 1689 C 154.299 -1.66658 2.64942 0
M  V30 1690 C 154.774 -2.23383 3.9983 0
M  V30 1691 N 156.265 -2.30756 4.01629 0
M  V30 1692 C 157 -2.75655 5.02794 0
M  V30 1693 N 156.496 -3.20225 6.14352 0
M  V30 1694 N 158.289 -2.75138 4.90159 0
M  V30 1695 H 150.44 -0.0435285 2.12355 0
M  V30 1696 H 152.703 -0.0818951 0.944456 0
M  V30 1697 H 152.409 -0.888832 3.40283 0
M  V30 1698 H 152.283 -2.53084 2.79693 0
M  V30 1699 H 154.67 -2.31617 1.8286 0
M  V30 1700 H 154.751 -0.668717 2.46904 0
M  V30 1701 H 154.395 -1.59043 4.82357 0
M  V30 1702 H 154.325 -3.23904 4.15203 0
M  V30 1703 H 156.816 -1.99291 3.21079 0
M  V30 1704 H 157.129 -3.53084 6.87424 0
M  V30 1705 H 155.474 -3.18156 6.17901 0
M  V30 1706 H 158.665 -2.39661 4.02095 0
M  V30 1707 H 158.838 -3.09812 5.6914 0
M  V30 1708 N 152.244 -1.26651 -0.937939 0
M  V30 1709 C 153.474 -1.15006 -1.71631 0
M  V30 1710 C 153.882 0.297026 -1.86854 0
M  V30 1711 O 153.225 1.21493 -1.37786 0
M  V30 1712 C 153.287 -1.74984 -3.14039 0
M  V30 1713 C 152.951 -3.24103 -3.2219 0
M  V30 1714 C 153.948 -4.20877 -3.05219 0
M  V30 1715 C 151.633 -3.64625 -3.45476 0
M  V30 1716 C 153.627 -5.56151 -3.11408 0
M  V30 1717 C 151.314 -5.00032 -3.513 0
M  V30 1718 C 152.312 -5.95604 -3.34282 0
M  V30 1719 O 152 -7.28545 -3.3982 0
M  V30 1720 H 151.732 -0.401183 -0.544085 0
M  V30 1721 H 154.286 -1.67832 -1.18413 0
M  V30 1722 H 152.516 -1.16624 -3.68695 0
M  V30 1723 H 154.205 -1.58199 -3.73802 0
M  V30 1724 H 154.971 -3.90908 -2.87081 0
M  V30 1725 H 150.85 -2.90718 -3.57777 0
M  V30 1726 H 154.394 -6.30727 -2.98043 0
M  V30 1727 H 150.291 -5.29659 -3.68959 0
M  V30 1728 H 151.059 -7.3686 -3.56343 0
M  V30 1729 N 153.722 1.14298 -1.08507 0
M  V30 1730 C 154.652 2.21542 -0.737646 0
M  V30 1731 C 155.633 1.67773 0.280377 0
M  V30 1732 O 156.818 1.93616 0.150521 0
M  V30 1733 C 153.948 3.46988 -0.147259 0
M  V30 1734 C 152.902 4.13789 -1.09374 0
M  V30 1735 C 152.228 5.33449 -0.365524 0
M  V30 1736 C 153.528 4.62208 -2.4323 0
M  V30 1737 H 155.222 2.5086 -1.6343 0
M  V30 1738 H 152.768 1.20576 -0.787243 0
M  V30 1739 H 154.721 4.21262 0.107808 0
M  V30 1740 H 153.445 3.17037 0.784538 0
M  V30 1741 H 152.104 3.4147 -1.33393 0
M  V30 1742 H 151.752 4.99759 0.57011 0
M  V30 1743 H 151.452 5.79088 -0.996512 0
M  V30 1744 H 152.976 6.10485 -0.118534 0
M  V30 1745 H 154.39 5.27952 -2.23472 0
M  V30 1746 H 152.787 5.18553 -3.02031 0
M  V30 1747 H 153.857 3.77224 -3.04681 0
M  V30 1748 N 155.201 0.870884 1.31352 0
M  V30 1749 C 156.478 0.402907 1.91405 0
M  V30 1750 C 156.858 -1.11512 1.79244 0
M  V30 1751 O 156.206 -1.94411 1.2007 0
M  V30 1752 C 156.416 0.885301 3.37585 0
M  V30 1753 C 157.764 0.911971 4.14691 0
M  V30 1754 O 158.788 0.831016 3.46371 0
M  V30 1755 O 157.647 1.02927 5.3672 0
M  V30 1756 H 154.741 0.120698 0.818145 0
M  V30 1757 H 157.287 0.958857 1.40014 0
M  V30 1758 H 156.059 1.92889 3.40455 0
M  V30 1759 H 155.682 0.307714 3.96407 0
M  V30 1760 N 156.679 -1.44442 0.630414 0
M  V30 1761 C 157.926 -2.02052 0.134617 0
M  V30 1762 C 158.254 -1.49576 -1.24327 0
M  V30 1763 O 157.509 -0.669806 -1.83881 0
M  V30 1764 C 157.808 -3.57332 0.0697835 0
M  V30 1765 C 157.474 -4.29058 1.38635 0
M  V30 1766 C 156.136 -4.4837 1.74694 0
M  V30 1767 C 158.488 -4.69872 2.25543 0
M  V30 1768 C 155.816 -5.05756 2.97369 0
M  V30 1769 C 158.168 -5.28616 3.47487 0
M  V30 1770 C 156.832 -5.46147 3.8377 0
M  V30 1771 H 156.102 -0.739361 0.0492598 0
M  V30 1772 H 158.749 -1.73217 0.816586 0
M  V30 1773 H 157.054 -3.85577 -0.695553 0
M  V30 1774 H 158.751 -3.99637 -0.330344 0
M  V30 1775 H 155.341 -4.14357 1.09574 0
M  V30 1776 H 159.525 -4.54666 1.98979 0
M  V30 1777 H 154.781 -5.17515 3.25558 0
M  V30 1778 H 158.955 -5.59192 4.15063 0
M  V30 1779 H 156.582 -5.9038 4.7891 0
M  V30 1780 N 158.157 -0.370918 -1.53173 0
M  V30 1781 C 159.404 0.217102 -2.01333 0
M  V30 1782 C 159.732 1.48338 -1.25802 0
M  V30 1783 O 158.987 1.92698 -0.34146 0
M  V30 1784 C 159.286 0.549696 -3.53147 0
M  V30 1785 C 158.952 -0.622872 -4.46577 0
M  V30 1786 C 157.614 -0.944595 -4.71838 0
M  V30 1787 C 159.966 -1.40819 -5.01816 0
M  V30 1788 C 157.294 -2.05351 -5.49589 0
M  V30 1789 C 159.646 -2.50757 -5.80778 0
M  V30 1790 C 158.31 -2.83458 -6.04324 0
M  V30 1791 H 157.58 0.0794431 -0.736729 0
M  V30 1792 H 160.227 -0.504481 -1.84736 0
M  V30 1793 H 158.532 1.35237 -3.6772 0
M  V30 1794 H 160.229 1.017 -3.87889 0
M  V30 1795 H 156.819 -0.36209 -4.27068 0
M  V30 1796 H 161.003 -1.17289 -4.82242 0
M  V30 1797 H 156.259 -2.3108 -5.6605 0
M  V30 1798 H 160.433 -3.12022 -6.22588 0
M  V30 1799 H 158.06 -3.69508 -6.64355 0
M  V30 1800 N 159.635 1.57281 -0.100228 0
M  V30 1801 C 160.86 1.99302 0.573881 0
M  V30 1802 C 161.285 0.979059 1.60611 0
M  V30 1803 O 160.643 -0.0517803 1.81226 0
M  V30 1804 C 160.691 3.40274 1.19358 0
M  V30 1805 O 159.795 3.41676 2.30935 0
M  V30 1806 H 159.136 0.647944 0.145138 0
M  V30 1807 H 161.666 2.03779 -0.183156 0
M  V30 1808 H 161.676 3.78078 1.53365 0
M  V30 1809 H 160.351 4.13594 0.437385 0
M  V30 1810 H 158.928 3.15672 1.98509 0
M  V30 1811 N 161.113 -0.173488 1.56642 0
M  V30 1812 C 162.361 -0.888706 1.81512 0
M  V30 1813 C 162.682 -1.82875 0.676872 0
M  V30 1814 O 161.952 -1.93536 -0.303414 0
M  V30 1815 H 160.532 -0.331164 0.669582 0
M  V30 1816 H 163.194 -0.173823 1.94123 0
M  V30 1817 H 162.29 -1.46691 2.75478 0
M  V30 1818 N 162.591 -1.51276 -0.441967 0
M  V30 1819 C 163.84 -1.6295 -1.18871 0
M  V30 1820 C 164.153 -0.349312 -1.92456 0
M  V30 1821 O 165.359 -0.345355 -2.69295 0
M  V30 1822 C 163.815 -2.87759 -2.16155 0
M  V30 1823 C 163.423 -4.22764 -1.48239 0
M  V30 1824 C 165.167 -3.08788 -2.91291 0
M  V30 1825 C 163.074 -5.38728 -2.4398 0
M  V30 1826 H 162.004 -0.606913 -0.447406 0
M  V30 1827 H 164.655 -1.77739 -0.456205 0
M  V30 1828 H 163.037 -2.66593 -2.92821 0
M  V30 1829 H 164.211 -4.54293 -0.771635 0
M  V30 1830 H 162.526 -4.07575 -0.852741 0
M  V30 1831 H 165.123 -3.92599 -3.63002 0
M  V30 1832 H 165.466 -2.21679 -3.5237 0
M  V30 1833 H 165.999 -3.30272 -2.21733 0
M  V30 1834 H 162.738 -6.28082 -1.87598 0
M  V30 1835 H 162.258 -5.1158 -3.13123 0
M  V30 1836 H 163.937 -5.70489 -3.05207 0
M  V30 1837 N 164.069 0.697108 -1.41344 0
M  V30 1838 C 165.315 1.4593 -1.40827 0
M  V30 1839 C 165.648 1.94193 -0.0167098 0
M  V30 1840 O 164.923 1.69425 0.955263 0
M  V30 1841 C 165.206 2.67229 -2.41373 0
M  V30 1842 C 165.059 2.24741 -3.8963 0
M  V30 1843 C 166.378 3.69423 -2.39196 0
M  V30 1844 H 163.497 0.529303 -0.512842 0
M  V30 1845 H 166.139 0.794112 -1.72609 0
M  V30 1846 H 164.289 3.23982 -2.14401 0
M  V30 1847 H 165.961 1.73327 -4.27499 0
M  V30 1848 H 164.204 1.56542 -4.0457 0
M  V30 1849 H 164.875 3.1177 -4.55525 0
M  V30 1850 H 167.351 3.2234 -2.63128 0
M  V30 1851 H 166.227 4.51907 -3.11563 0
M  V30 1852 H 166.488 4.19012 -1.41001 0
M  V30 1853 N 165.547 1.27147 0.931209 0
M  V30 1854 C 166.775 1.16082 1.71267 0
M  V30 1855 C 167.19 -0.282772 1.8667 0
M  V30 1856 O 166.547 -1.19283 1.38122 0
M  V30 1857 C 166.598 1.8358 3.11417 0
M  V30 1858 O 166.319 3.22299 2.96741 0
M  V30 1859 C 167.82 1.78597 4.05732 0
M  V30 1860 H 165.04 0.403758 0.535929 0
M  V30 1861 H 167.584 1.67953 1.16671 0
M  V30 1862 H 165.739 1.35623 3.62885 0
M  V30 1863 H 166.153 3.55851 3.85319 0
M  V30 1864 H 167.627 2.30444 5.01597 0
M  V30 1865 H 168.104 0.754564 4.3267 0
M  V30 1866 H 168.71 2.26152 3.60188 0
M  V30 1867 N 167.025 -1.13721 1.09112 0
M  V30 1868 C 168.271 -1.85198 0.826414 0
M  V30 1869 C 168.604 -1.83129 -0.646319 0
M  V30 1870 O 167.879 -1.2671 -1.47563 0
M  V30 1871 C 168.162 -3.33507 1.35812 0
M  V30 1872 C 168.015 -3.44108 2.89672 0
M  V30 1873 C 169.334 -4.28838 0.989256 0
M  V30 1874 H 166.453 -0.67243 0.301675 0
M  V30 1875 H 169.095 -1.33499 1.35197 0
M  V30 1876 H 167.245 -3.77666 0.911082 0
M  V30 1877 H 168.917 -3.08684 3.428 0
M  V30 1878 H 167.16 -2.85087 3.26967 0
M  V30 1879 H 167.831 -4.48388 3.21951 0
M  V30 1880 H 170.307 -3.92734 1.37475 0
M  V30 1881 H 169.183 -5.31051 1.38838 0
M  V30 1882 H 169.444 -4.4198 -0.102924 0
M  V30 1883 N 168.503 -0.877838 -1.30888 0
M  V30 1884 C 169.728 -0.506629 -2.01117 0
M  V30 1885 C 170.153 0.895564 -1.65412 0
M  V30 1886 O 169.511 1.5923 -0.866922 0
M  V30 1887 C 169.559 -0.680223 -3.54126 0
M  V30 1888 O 168.663 0.277033 -4.11468 0
M  V30 1889 H 168.004 -0.200518 -0.633 0
M  V30 1890 H 170.534 -1.18342 -1.66902 0
M  V30 1891 H 170.544 -0.5765 -4.03907 0
M  V30 1892 H 169.219 -1.70261 -3.79452 0
M  V30 1893 H 167.796 0.127606 -3.72682 0
M  V30 1894 N 169.982 1.44106 -0.638065 0
M  V30 1895 C 171.228 2.02277 -0.145546 0
M  V30 1896 C 171.561 1.50125 1.23191 0
M  V30 1897 O 170.836 0.688133 1.8192 0
M  V30 1898 C 171.119 3.59829 -0.139791 0
M  V30 1899 C 170.972 4.22247 -1.55008 0
M  V30 1900 C 172.291 4.36873 0.531966 0
M  V30 1901 H 169.41 0.734992 -0.0543632 0
M  V30 1902 H 172.052 1.71592 -0.815863 0
M  V30 1903 H 170.202 3.86102 0.431007 0
M  V30 1904 H 171.874 4.07057 -2.1703 0
M  V30 1905 H 170.117 3.79476 -2.10191 0
M  V30 1906 H 170.788 5.31284 -1.49804 0
M  V30 1907 H 173.264 4.16074 0.0464781 0
M  V30 1908 H 172.14 5.4657 0.505206 0
M  V30 1909 H 172.401 4.11995 1.60352 0
M  V30 1910 N 171.46 0.379036 1.52974 0
M  V30 1911 C 172.708 -0.206014 2.01047 0
M  V30 1912 C 173.029 -1.48175 1.26765 0
M  V30 1913 O 172.299 -1.92085 0.384743 0
M  V30 1914 H 170.879 -0.0791184 0.742798 0
M  V30 1915 H 173.541 0.508366 1.88153 0
M  V30 1916 H 172.637 -0.423501 3.09213 0
M  V30 1917 N 172.938 -1.57226 0.108567 0
M  V30 1918 C 173.888 -2.11305 -0.856396 0
M  V30 1919 C 174.872 -1.03129 -1.23504 0
M  V30 1920 O 176.064 -1.29381 -1.20787 0
M  V30 1921 C 173.193 -2.70771 -2.11041 0
M  V30 1922 C 172.279 -3.86011 -1.7566 0
M  V30 1923 N 172.67 -4.93492 -1.10902 0
M  V30 1924 C 170.968 -3.95999 -2.05185 0
M  V30 1925 C 171.669 -5.73984 -0.944308 0
M  V30 1926 N 170.645 -5.2346 -1.46596 0
M  V30 1927 H 174.447 -2.91784 -0.352002 0
M  V30 1928 H 171.961 -1.62126 -0.0942324 0
M  V30 1929 H 173.958 -3.07851 -2.81128 0
M  V30 1930 H 172.618 -1.91751 -2.62034 0
M  V30 1931 H 173.629 -5.1208 -0.774235 0
M  V30 1932 H 170.306 -3.28007 -2.58298 0
M  V30 1933 H 171.696 -6.70479 -0.436813 0
M  V30 1934 N 174.416 0.165178 -1.56732 0
M  V30 1935 C 175.656 0.887231 -1.8414 0
M  V30 1936 C 176.02 1.79159 -0.690353 0
M  V30 1937 O 177.221 2.55172 -0.845032 0
M  V30 1938 C 175.492 1.65674 -3.16681 0
M  V30 1939 S 177.051 2.42671 -3.6559 0
M  V30 1940 H 173.869 0.297042 -0.645978 0
M  V30 1941 H 176.471 0.148439 -1.94936 0
M  V30 1942 H 175.175 0.983507 -3.98441 0
M  V30 1943 H 174.706 2.43679 -3.08843 0
M  V30 1944 H 176.721 3.67499 -3.33406 0
M  V30 1945 N 175.894 1.51508 0.433938 0
M  V30 1946 C 176.844 1.69451 1.52546 0
M  V30 1947 C 177.828 0.548474 1.51263 0
M  V30 1948 O 179.02 0.804529 1.57659 0
M  V30 1949 C 176.149 1.82604 2.90707 0
M  V30 1950 C 175.235 3.03002 2.96733 0
M  V30 1951 N 175.626 4.26121 2.72496 0
M  V30 1952 C 173.924 3.02327 3.27894 0
M  V30 1953 C 174.625 5.07407 2.84452 0
M  V30 1954 N 173.601 4.42126 3.16269 0
M  V30 1955 H 177.403 2.62305 1.32564 0
M  V30 1956 H 174.917 1.49202 0.641297 0
M  V30 1957 H 176.914 1.93569 3.69238 0
M  V30 1958 H 175.574 0.909339 3.11707 0
M  V30 1959 H 176.585 4.55009 2.4736 0
M  V30 1960 H 173.262 2.20301 3.54646 0
M  V30 1961 H 174.652 6.15422 2.69639 0
M  V30 1962 N 177.372 -0.689602 1.41712 0
M  V30 1963 C 178.783 -1.26973 1.36875 0
M  V30 1964 C 179.134 -1.96124 0.054748 0
M  V30 1965 O 178.259 -1.99141 -0.84687 0
M  V30 1966 C 178.854 -2.30912 2.47922 0
M  V30 1967 C 177.413 -2.84486 2.46464 0
M  V30 1968 C 176.56 -1.58603 2.27465 0
M  V30 1969 H 179.511 -0.48396 1.51141 0
M  V30 1970 H 179.532 -3.12331 2.17323 0
M  V30 1971 H 179.044 -1.80554 3.43543 0
M  V30 1972 H 177.145 -3.39005 1.54617 0
M  V30 1973 H 177.258 -3.34511 3.42986 0
M  V30 1974 H 175.622 -1.84632 1.75451 0
M  V30 1975 H 176.405 -1.10233 3.25121 0
M  V30 1976 N 178.85 -1.27639 -0.924453 0
M  V30 1977 C 179.797 -1.10644 -2.0255 0
M  V30 1978 C 180.767 -0.00658438 -1.66099 0
M  V30 1979 O 181.952 -0.16952 -1.90045 0
M  V30 1980 C 179.092 -0.76309 -3.36557 0
M  V30 1981 C 178.205 -1.94091 -3.85944 0
M  V30 1982 C 177.34 -1.53914 -5.08413 0
M  V30 1983 C 176.379 -2.68425 -5.50104 0
M  V30 1984 N 175.516 -2.28815 -6.63768 0
M  V30 1985 H 180.356 -2.04858 -2.16419 0
M  V30 1986 H 177.893 -1.01974 -1.06017 0
M  V30 1987 H 179.851 -0.544822 -4.13627 0
M  V30 1988 H 178.481 0.142102 -3.22487 0
M  V30 1989 H 177.533 -2.27162 -3.05125 0
M  V30 1990 H 178.845 -2.7998 -4.12811 0
M  V30 1991 H 177.999 -1.28231 -5.92994 0
M  V30 1992 H 176.738 -0.651391 -4.8333 0
M  V30 1993 H 175.743 -2.94819 -4.64071 0
M  V30 1994 H 176.968 -3.57826 -5.7718 0
M  V30 1995 H 174.914 -1.42495 -6.40337 0
M  V30 1996 H 174.831 -3.08242 -6.90306 0
M  V30 1997 H 176.099 -2.06387 -7.51681 0
M  V30 1998 N 180.328 1.1314 -1.09713 0
M  V30 1999 C 181.574 1.84757 -0.836224 0
M  V30 2000 C 181.907 1.8347 0.636598 0
M  V30 2001 O 181.182 1.27491 1.46889 0
M  V30 2002 C 181.465 3.32782 -1.37578 0
M  V30 2003 C 181.318 3.42567 -2.91493 0
M  V30 2004 C 182.637 4.28307 -1.01198 0
M  V30 2005 H 179.756 0.67082 -0.305236 0
M  V30 2006 H 182.398 1.3278 -1.35903 0
M  V30 2007 H 180.548 3.77177 -0.931097 0
M  V30 2008 H 182.22 3.06862 -3.44432 0
M  V30 2009 H 180.463 2.83349 -3.28475 0
M  V30 2010 H 181.134 4.46674 -3.24324 0
M  V30 2011 H 183.61 3.91999 -1.39556 0
M  V30 2012 H 182.486 5.30307 -1.41653 0
M  V30 2013 H 182.747 4.42029 0.0794833 0
M  V30 2014 N 181.806 0.884767 1.30421 0
M  V30 2015 C 182.754 0.340869 2.30089 0
M  V30 2016 C 183.748 -0.55201 1.60154 0
M  V30 2017 O 184.954 -0.436467 1.74628 0
M  V30 2018 H 181.329 0.0915739 0.746404 0
M  V30 2019 H 183.3 1.19513 2.73421 0
M  V30 2020 C 182.049 -0.429779 3.45034 0
M  V30 2021 H 181.372 0.248024 3.9903 0
M  V30 2022 H 182.812 -0.775445 4.16849 0
M  V30 2023 C 181.271 -1.62677 2.95022 0
M  V30 2024 O 181.801 -2.72614 2.95033 0
M  V30 2025 N 180.007 -1.46387 2.51036 0
M  V30 2026 H 179.554 -0.569506 2.51226 0
M  V30 2027 H 179.512 -2.26612 2.17932 0
M  V30 2028 N 183.284 -1.43765 0.645699 0
M  V30 2029 C 184.247 -2.29163 -0.0409488 0
M  V30 2030 C 185.247 -1.41813 -0.757996 0
M  V30 2031 O 186.437 -1.63527 -0.600382 0
M  V30 2032 C 183.569 -3.23716 -1.06869 0
M  V30 2033 H 184.762 -2.91366 0.710345 0
M  V30 2034 H 182.315 -1.5092 0.406547 0
M  V30 2035 H 183.05 -2.66393 -1.84947 0
M  V30 2036 H 182.835 -3.88105 -0.558277 0
M  V30 2037 H 184.325 -3.87831 -1.54845 0
M  V30 2038 N 184.763 -0.387143 -1.52771 0
M  V30 2039 C 186.009 0.196025 -2.0185 0
M  V30 2040 C 186.342 1.46641 -1.27319 0
M  V30 2041 O 185.617 1.90889 -0.373032 0
M  V30 2042 C 185.9 0.466136 -3.5707 0
M  V30 2043 C 185.753 -0.819385 -4.42274 0
M  V30 2044 C 187.072 1.25768 -4.21747 0
M  V30 2045 H 184.191 0.0697708 -0.73369 0
M  V30 2046 H 186.833 -0.516286 -1.82851 0
M  V30 2047 H 184.983 1.07293 -3.7339 0
M  V30 2048 H 186.655 -1.4563 -4.37709 0
M  V30 2049 H 184.898 -1.43517 -4.09372 0
M  V30 2050 H 185.569 -0.585065 -5.48891 0
M  V30 2051 H 188.045 0.744167 -4.09391 0
M  V30 2052 H 186.921 1.41541 -5.30337 0
M  V30 2053 H 187.182 2.27228 -3.79236 0
M  V30 2054 N 186.241 1.57166 -0.116904 0
M  V30 2055 C 187.204 2.14039 0.819742 0
M  V30 2056 C 188.204 1.07477 1.19605 0
M  V30 2057 O 189.394 1.33263 1.1219 0
M  V30 2058 C 186.526 2.67891 2.10826 0
M  V30 2059 H 187.719 2.98128 0.325511 0
M  V30 2060 H 185.272 1.55739 0.132312 0
M  V30 2061 H 186.007 1.87384 2.64685 0
M  V30 2062 H 185.792 3.45823 1.84793 0
M  V30 2063 H 187.282 3.11809 2.77785 0
M  V30 2064 N 187.719 -0.156864 1.56817 0
M  V30 2065 C 188.651 -1.21883 1.94106 0
M  V30 2066 C 189.664 -1.3971 0.835754 0
M  V30 2067 O 190.853 -1.39457 1.11418 0
M  V30 2068 C 187.953 -2.58527 2.19127 0
M  V30 2069 C 187.126 -2.61809 3.50393 0
M  V30 2070 C 186.185 -3.7992 3.64071 0
M  V30 2071 O 185.211 -3.65249 4.36557 0
M  V30 2072 N 186.413 -4.96973 2.99997 0
M  V30 2073 H 189.178 -0.901974 2.85805 0
M  V30 2074 H 186.739 -0.346513 1.58148 0
M  V30 2075 H 188.731 -3.36034 2.25529 0
M  V30 2076 H 187.301 -2.82545 1.33742 0
M  V30 2077 H 186.521 -1.7029 3.5552 0
M  V30 2078 H 187.809 -2.61024 4.36742 0
M  V30 2079 H 187.207 -5.11794 2.41004 0
M  V30 2080 H 185.764 -5.7229 3.11974 0
M  V30 2081 N 189.197 -1.51736 -0.425897 0
M  V30 2082 C 190.144 -1.73875 -1.51776 0
M  V30 2083 C 191.114 -0.580702 -1.55618 0
M  V30 2084 O 192.299 -0.81641 -1.72451 0
M  V30 2085 C 189.439 -1.88012 -2.89388 0
M  V30 2086 C 188.552 -3.15606 -2.94986 0
M  V30 2087 C 187.687 -3.20271 -4.23793 0
M  V30 2088 C 186.726 -4.42134 -4.23302 0
M  V30 2089 N 185.863 -4.44284 -5.43651 0
M  V30 2090 H 190.703 -2.67071 -1.32201 0
M  V30 2091 H 188.24 -1.32351 -0.642008 0
M  V30 2092 H 190.198 -1.9419 -3.69251 0
M  V30 2093 H 188.828 -0.98213 -3.07496 0
M  V30 2094 H 187.88 -3.18681 -2.07717 0
M  V30 2095 H 189.192 -4.05486 -2.90486 0
M  V30 2096 H 188.346 -3.25428 -5.12036 0
M  V30 2097 H 187.085 -2.28299 -4.30965 0
M  V30 2098 H 186.09 -4.3714 -3.3345 0
M  V30 2099 H 187.315 -5.35382 -4.17783 0
M  V30 2100 H 185.261 -3.55188 -5.51523 0
M  V30 2101 H 185.178 -5.27988 -5.41078 0
M  V30 2102 H 186.446 -4.53649 -6.33895 0
M  V30 2103 N 190.675 0.682077 -1.42076 0
M  V30 2104 C 191.607 1.80755 -1.40926 0
M  V30 2105 C 192.62 1.59833 -0.309398 0
M  V30 2106 O 193.809 1.69087 -0.572014 0
M  V30 2107 C 190.909 3.17744 -1.17865 0
M  V30 2108 C 190.082 3.65578 -2.40149 0
M  V30 2109 C 189.141 4.81277 -2.12742 0
M  V30 2110 O 188.167 4.92197 -2.85887 0
M  V30 2111 N 189.369 5.69474 -1.12602 0
M  V30 2112 H 192.134 1.82229 -2.37935 0
M  V30 2113 H 189.695 0.864903 -1.36861 0
M  V30 2114 H 191.687 3.9279 -0.9746 0
M  V30 2115 H 190.257 3.11214 -0.294068 0
M  V30 2116 H 189.477 2.81291 -2.76169 0
M  V30 2117 H 190.765 3.94278 -3.21593 0
M  V30 2118 H 190.163 5.63297 -0.520899 0
M  V30 2119 H 188.72 6.44363 -0.981842 0
M  V30 2120 N 192.153 1.28127 0.917671 0
M  V30 2121 C 193.083 1.14248 2.03641 0
M  V30 2122 C 194.064 0.0412748 1.7005 0
M  V30 2123 O 195.249 0.217566 1.92977 0
M  V30 2124 C 192.379 0.799431 3.37974 0
M  V30 2125 C 191.333 1.85497 3.85713 0
M  V30 2126 C 190.659 1.36565 5.16966 0
M  V30 2127 C 191.959 3.26085 4.08002 0
M  V30 2128 H 193.653 2.07835 2.15511 0
M  V30 2129 H 191.199 1.00064 1.03553 0
M  V30 2130 H 193.152 0.689114 4.15727 0
M  V30 2131 H 191.876 -0.172145 3.26146 0
M  V30 2132 H 190.535 1.95437 3.10161 0
M  V30 2133 H 190.183 0.383253 5.01538 0
M  V30 2134 H 189.883 2.07143 5.49878 0
M  V30 2135 H 191.407 1.26848 5.97279 0
M  V30 2136 H 192.821 3.19089 4.76293 0
M  V30 2137 H 191.218 3.94462 4.52238 0
M  V30 2138 H 192.288 3.70394 3.12948 0
M  V30 2139 N 193.631 -1.12557 1.10312 0
M  V30 2140 C 194.879 -1.83675 0.843091 0
M  V30 2141 C 195.2 -1.84435 -0.633131 0
M  V30 2142 O 194.47 -1.30657 -1.45964 0
M  V30 2143 H 193.05 -0.680138 0.308904 0
M  V30 2144 H 195.712 -1.36301 1.39313 0
M  V30 2145 H 194.808 -2.87908 1.2048 0
M  V30 2146 N 195.109 -0.891671 -1.2995 0
M  V30 2147 C 196.525 -0.58662 -1.48428 0
M  V30 2148 C 196.725 0.873951 -1.81561 0
M  V30 2149 O 195.781 1.65471 -1.90724 0
M  V30 2150 C 197.094 -1.50553 -2.60296 0
M  V30 2151 C 198.642 -1.50988 -2.74175 0
M  V30 2152 C 199.117 -2.41488 -3.89163 0
M  V30 2153 N 200.608 -2.39489 -3.96483 0
M  V30 2154 C 201.343 -3.06223 -4.84784 0
M  V30 2155 N 200.839 -3.82206 -5.77833 0
M  V30 2156 N 202.632 -2.95421 -4.78208 0
M  V30 2157 H 194.783 -1.83644 -1.06718 0
M  V30 2158 H 197.046 -0.786455 -0.529332 0
M  V30 2159 H 196.752 -2.54581 -2.42654 0
M  V30 2160 H 196.626 -1.22008 -3.56923 0
M  V30 2161 H 199.013 -0.47708 -2.91218 0
M  V30 2162 H 199.094 -1.83567 -1.78148 0
M  V30 2163 H 198.738 -3.44857 -3.72876 0
M  V30 2164 H 198.668 -2.06222 -4.84541 0
M  V30 2165 H 201.159 -1.84278 -3.29924 0
M  V30 2166 H 201.472 -4.302 -6.41988 0
M  V30 2167 H 199.817 -3.86313 -5.77743 0
M  V30 2168 H 203.008 -2.35581 -4.04499 0
M  V30 2169 H 203.181 -3.47704 -5.46814 0
M  V30 2170 N 196.587 1.43421 -0.653314 0
M  V30 2171 C 197.517 2.33487 0.0246656 0
M  V30 2172 C 198.498 1.49475 0.811863 0
M  V30 2173 O 199.683 1.78139 0.773322 0
M  V30 2174 C 196.813 3.32841 0.99166 0
M  V30 2175 C 195.767 4.26842 0.314568 0
M  V30 2176 C 195.093 5.16236 1.39302 0
M  V30 2177 C 196.393 5.16243 -0.793095 0
M  V30 2178 H 198.087 2.90427 -0.727481 0
M  V30 2179 H 195.633 1.39649 -0.351287 0
M  V30 2180 H 197.586 3.94747 1.47487 0
M  V30 2181 H 196.31 2.74158 1.77497 0
M  V30 2182 H 194.969 3.663 -0.148199 0
M  V30 2183 H 194.617 4.53891 2.16776 0
M  V30 2184 H 194.317 5.79948 0.945223 0
M  V30 2185 H 195.841 5.81015 1.87759 0
M  V30 2186 H 197.255 5.71958 -0.392039 0
M  V30 2187 H 195.652 5.88676 -1.16536 0
M  V30 2188 H 196.722 4.55927 -1.65103 0
M  V30 2189 N 198.065 0.39524 1.52563 0
M  V30 2190 C 199.311 -0.177763 2.02622 0
M  V30 2191 C 199.666 -1.43974 1.27629 0
M  V30 2192 O 198.959 -1.87995 0.36992 0
M  V30 2193 C 199.153 -0.493444 3.53977 0
M  V30 2194 C 198.982 0.736392 4.4363 0
M  V30 2195 C 197.752 1.25744 4.89404 0
M  V30 2196 C 199.95 1.61046 4.88435 0
M  V30 2197 N 197.932 2.44421 5.63145 0
M  V30 2198 C 199.303 2.64359 5.60816 0
M  V30 2199 C 201.358 1.62985 4.70468 0
M  V30 2200 C 200.061 3.69505 6.17137 0
M  V30 2201 C 202.087 2.67042 5.27677 0
M  V30 2202 C 201.449 3.69077 5.99968 0
M  V30 2203 H 197.548 -0.0269794 0.781534 0
M  V30 2204 H 200.132 0.546466 1.86874 0
M  V30 2205 H 198.303 -1.18672 3.69826 0
M  V30 2206 H 200.035 -1.05412 3.90731 0
M  V30 2207 H 196.79 0.817546 4.6649 0
M  V30 2208 H 197.214 3.04485 6.04663 0
M  V30 2209 H 201.856 0.854442 4.14076 0
M  V30 2210 H 199.574 4.4791 6.72608 0
M  V30 2211 H 203.16 2.69433 5.15652 0
M  V30 2212 H 202.04 4.48273 6.43444 0
M  V30 2213 N 199.544 -1.57102 0.125237 0
M  V30 2214 C 200.494 -2.12202 -0.833936 0
M  V30 2215 C 201.478 -1.04433 -1.22403 0
M  V30 2216 O 202.67 -1.30655 -1.19408 0
M  V30 2217 C 199.799 -2.72994 -2.08157 0
M  V30 2218 C 198.885 -3.87852 -1.71556 0
M  V30 2219 N 199.276 -4.9464 -1.05662 0
M  V30 2220 C 197.574 -3.98153 -2.00973 0
M  V30 2221 C 198.275 -5.74953 -0.883376 0
M  V30 2222 N 197.251 -5.24985 -1.41036 0
M  V30 2223 H 201.053 -2.92141 -0.321035 0
M  V30 2224 H 198.567 -1.62217 -0.0770315 0
M  V30 2225 H 200.564 -3.10816 -2.77847 0
M  V30 2226 H 199.224 -1.9452 -2.59985 0
M  V30 2227 H 200.235 -5.12872 -0.719878 0
M  V30 2228 H 196.912 -3.30728 -2.54804 0
M  V30 2229 H 198.302 -6.70904 -0.365675 0
M  V30 2230 N 201.022 0.148545 -1.56898 0
M  V30 2231 C 202.25 0.876389 -1.87422 0
M  V30 2232 C 202.665 1.74809 -0.713256 0
M  V30 2233 O 202.022 1.79725 0.317025 0
M  V30 2234 C 202.073 1.73438 -3.17178 0
M  V30 2235 O 201.794 0.897809 -4.28802 0
M  V30 2236 C 203.295 2.56993 -3.61205 0
M  V30 2237 H 200.515 0.253489 -0.621277 0
M  V30 2238 H 203.059 0.141798 -2.04008 0
M  V30 2239 H 201.214 2.42205 -3.0235 0
M  V30 2240 H 201.628 1.48672 -5.02988 0
M  V30 2241 H 203.102 3.12773 -4.54838 0
M  V30 2242 H 203.579 3.32958 -2.86419 0
M  V30 2243 H 204.185 1.9352 -3.78722 0
M  V30 2244 N 202.5 1.5196 0.417844 0
M  V30 2245 C 203.725 1.69717 1.1921 0
M  V30 2246 C 204.15 0.402148 1.83751 0
M  V30 2247 O 203.508 -0.639593 1.69643 0
M  V30 2248 C 203.556 2.82794 2.2374 0
M  V30 2249 O 202.66 2.47756 3.29683 0
M  V30 2250 H 202.001 0.565263 0.348387 0
M  V30 2251 H 204.531 1.98621 0.490985 0
M  V30 2252 H 204.541 3.07452 2.68212 0
M  V30 2253 H 203.216 3.76756 1.76146 0
M  V30 2254 H 201.793 2.33739 2.90552 0
M  V30 2255 N 203.978 -0.674533 1.42435 0
M  V30 2256 C 205.206 -1.46283 1.46317 0
M  V30 2257 C 205.621 -1.88653 0.0745836 0
M  V30 2258 O 204.978 -1.58151 -0.91074 0
M  V30 2259 C 205.029 -2.71178 2.3905 0
M  V30 2260 O 204.75 -2.30586 3.72507 0
M  V30 2261 C 206.251 -3.64738 2.51955 0
M  V30 2262 H 203.471 -0.450104 0.497642 0
M  V30 2263 H 206.015 -0.828792 1.86953 0
M  V30 2264 H 204.17 -3.3077 2.01667 0
M  V30 2265 H 204.584 -3.11241 4.22172 0
M  V30 2266 H 206.058 -4.49096 3.20962 0
M  V30 2267 H 206.535 -4.10656 1.55752 0
M  V30 2268 H 207.141 -3.11038 2.90061 0
M  V30 2269 N 205.456 -1.28612 -0.910864 0
M  V30 2270 C 206.702 -1.16106 -1.66274 0
M  V30 2271 C 207.035 0.289113 -1.92036 0
M  V30 2272 O 206.31 1.21 -1.52281 0
M  V30 2273 C 206.593 -1.96309 -3.01885 0
M  V30 2274 C 206.446 -3.49405 -2.8326 0
M  V30 2275 C 207.765 -1.78076 -4.02463 0
M  V30 2276 H 204.884 -0.423152 -0.603417 0
M  V30 2277 H 207.526 -1.57961 -1.05586 0
M  V30 2278 H 205.676 -1.60742 -3.53687 0
M  V30 2279 H 207.348 -3.94894 -2.38446 0
M  V30 2280 H 205.591 -3.74893 -2.18261 0
M  V30 2281 H 206.262 -4.00784 -3.79574 0
M  V30 2282 H 208.738 -2.0912 -3.59733 0
M  V30 2283 H 207.614 -2.36561 -4.95308 0
M  V30 2284 H 207.875 -0.733008 -4.35981 0
M  V30 2285 N 206.934 1.1197 -1.10907 0
M  V30 2286 C 208.181 1.83588 -0.854507 0
M  V30 2287 C 208.509 1.84357 0.6199 0
M  V30 2288 O 207.764 1.28809 1.47332 0
M  V30 2289 C 208.063 3.30749 -1.35425 0
M  V30 2290 C 207.729 3.50146 -2.84093 0
M  V30 2291 C 206.391 3.55148 -3.2469 0
M  V30 2292 C 208.743 3.56857 -3.79872 0
M  V30 2293 C 206.071 3.6441 -4.59806 0
M  V30 2294 C 208.423 3.6765 -5.14797 0
M  V30 2295 C 207.087 3.7091 -5.54961 0
M  V30 2296 H 206.357 0.671795 -0.312686 0
M  V30 2297 H 209.004 1.32091 -1.38652 0
M  V30 2298 H 207.309 3.84703 -0.742361 0
M  V30 2299 H 209.006 3.8464 -1.1337 0
M  V30 2300 H 205.596 3.46919 -2.51685 0
M  V30 2301 H 209.78 3.52258 -3.49611 0
M  V30 2302 H 205.036 3.65208 -4.9034 0
M  V30 2303 H 209.21 3.71786 -5.88853 0
M  V30 2304 H 206.837 3.7784 -6.59652 0
M  V30 2305 N 208.412 0.89855 1.29475 0
M  V30 2306 C 209.659 0.523882 1.95606 0
M  V30 2307 C 209.987 -0.929608 1.70847 0
M  V30 2308 O 209.242 -1.67401 1.01367 0
M  V30 2309 C 209.541 0.761398 3.49195 0
M  V30 2310 C 209.207 2.19207 3.94029 0
M  V30 2311 C 207.869 2.58326 4.05982 0
M  V30 2312 C 210.221 3.12379 4.17216 0
M  V30 2313 C 207.549 3.898 4.38489 0
M  V30 2314 C 209.901 4.43401 4.51197 0
M  V30 2315 C 208.565 4.82394 4.61359 0
M  V30 2316 H 207.835 0.191702 0.715773 0
M  V30 2317 H 210.482 1.13699 1.54094 0
M  V30 2318 H 208.787 0.0653622 3.91745 0
M  V30 2319 H 210.484 0.450904 3.98457 0
M  V30 2320 H 207.074 1.87846 3.85242 0
M  V30 2321 H 211.258 2.83371 4.07449 0
M  V30 2322 H 206.514 4.19734 4.44559 0
M  V30 2323 H 210.688 5.15623 4.68087 0
M  V30 2324 H 208.315 5.84306 4.86303 0
M  V30 2325 N 209.89 -1.43072 0.660911 0
M  V30 2326 C 210.84 -2.27948 -0.04847 0
M  V30 2327 C 211.824 -1.40325 -0.787246 0
M  V30 2328 O 213.016 -1.63893 -0.668446 0
M  V30 2329 C 210.145 -3.28143 -1.00881 0
M  V30 2330 C 209.231 -4.23252 -0.268108 0
M  V30 2331 N 209.622 -5.00656 0.719528 0
M  V30 2332 C 207.92 -4.43092 -0.508493 0
M  V30 2333 C 208.621 -5.70019 1.15988 0
M  V30 2334 N 207.597 -5.41364 0.492584 0
M  V30 2335 H 211.399 -2.85213 0.709279 0
M  V30 2336 H 208.913 -1.54869 0.488822 0
M  V30 2337 H 210.91 -3.87736 -1.53188 0
M  V30 2338 H 209.57 -2.7244 -1.76654 0
M  V30 2339 H 210.581 -5.06115 1.09855 0
M  V30 2340 H 207.258 -3.98449 -1.24679 0
M  V30 2341 H 208.648 -6.4214 1.97751 0
M  V30 2342 N 211.368 -0.403325 -1.52352 0
M  V30 2343 C 212.779 0.0675782 -1.86578 0
M  V30 2344 C 213.13 1.44941 -1.32236 0
M  V30 2345 O 212.255 2.06112 -0.659307 0
M  V30 2346 C 212.85 0.129404 -3.38553 0
M  V30 2347 C 211.409 0.544629 -3.72439 0
M  V30 2348 C 210.556 -0.284551 -2.75836 0
M  V30 2349 H 213.507 -0.620631 -1.46061 0
M  V30 2350 H 213.528 0.94581 -3.68558 0
M  V30 2351 H 213.04 -0.87645 -3.78074 0
M  V30 2352 H 211.141 1.55734 -3.38493 0
M  V30 2353 H 211.254 0.293046 -4.78203 0
M  V30 2354 H 209.618 0.252258 -2.53448 0
M  V30 2355 H 210.401 -1.28865 -3.18196 0
M  V30 2356 N 212.846 1.57033 -0.133567 0
M  V30 2357 C 214.257 1.82593 0.389464 0
M  V30 2358 C 214.608 1.05156 1.6564 0
M  V30 2359 O 213.733 0.292644 2.14412 0
M  V30 2360 C 214.328 3.31204 0.713377 0
M  V30 2361 C 212.887 3.57393 1.18098 0
M  V30 2362 C 212.034 2.76598 0.197126 0
M  V30 2363 H 214.985 1.54598 -0.358481 0
M  V30 2364 H 215.006 3.46627 1.56939 0
M  V30 2365 H 214.518 3.87537 -0.2089 0
M  V30 2366 H 212.619 3.06433 2.11966 0
M  V30 2367 H 212.732 4.65915 1.11624 0
M  V30 2368 H 211.096 2.45257 0.687088 0
M  V30 2369 H 211.879 3.35697 -0.718504 0
M  V30 2370 N 214.325 -0.140222 1.56975 0
M  V30 2371 C 215.258 -1.20266 1.93936 0
M  V30 2372 C 216.236 -1.41212 0.806099 0
M  V30 2373 O 217.42 -1.55713 1.06234 0
M  V30 2374 C 214.547 -2.56037 2.21726 0
M  V30 2375 C 213.593 -2.51646 3.44349 0
M  V30 2376 S 214.426 -1.97678 4.97678 0
M  V30 2377 C 215.582 -3.35165 5.28597 0
M  V30 2378 H 215.815 -0.887358 2.83749 0
M  V30 2379 H 213.348 -0.346119 1.50471 0
M  V30 2380 H 215.306 -3.34167 2.38416 0
M  V30 2381 H 213.967 -2.84755 1.32566 0
M  V30 2382 H 213.16 -3.51608 3.61092 0
M  V30 2383 H 212.762 -1.81628 3.26936 0
M  V30 2384 H 215.054 -4.31302 5.2248 0
M  V30 2385 H 215.997 -3.23269 6.30002 0
M  V30 2386 H 216.405 -3.32614 4.56101 0
M  V30 2387 N 215.803 -1.52179 -0.40978 0
M  V30 2388 C 216.753 -1.71857 -1.49831 0
M  V30 2389 C 217.737 -0.572469 -1.50372 0
M  V30 2390 O 218.929 -0.829509 -1.56359 0
M  V30 2391 C 216.058 -1.87206 -2.87765 0
M  V30 2392 C 215.144 -3.07685 -2.91875 0
M  V30 2393 N 215.535 -4.30403 -2.65683 0
M  V30 2394 C 213.833 -3.07505 -3.23043 0
M  V30 2395 C 214.534 -5.11868 -2.76344 0
M  V30 2396 N 213.51 -4.47101 -3.09195 0
M  V30 2397 H 217.312 -2.64381 -1.28375 0
M  V30 2398 H 214.826 -1.50203 -0.617479 0
M  V30 2399 H 216.823 -1.99419 -3.66111 0
M  V30 2400 H 215.483 -0.958814 -3.10221 0
M  V30 2401 H 216.494 -4.58887 -2.4009 0
M  V30 2402 H 213.171 -2.25915 -3.51096 0
M  V30 2403 H 214.561 -6.19634 -2.59814 0
M  V30 2404 N 217.281 0.66697 -1.42791 0
M  V30 2405 C 218.191 1.80962 -1.49299 0
M  V30 2406 C 219.207 1.69775 -0.381108 0
M  V30 2407 O 220.383 1.91188 -0.633188 0
M  V30 2408 C 217.448 3.17156 -1.40045 0
M  V30 2409 C 216.509 3.40242 -2.6179 0
M  V30 2410 C 215.742 4.69939 -2.52969 0
M  V30 2411 O 215.965 5.48372 -1.56985 0
M  V30 2412 O 214.899 4.94441 -3.43237 0
M  V30 2413 H 218.725 1.78427 -2.45759 0
M  V30 2414 H 216.31 0.823713 -1.24641 0
M  V30 2415 H 218.192 3.98413 -1.37276 0
M  V30 2416 H 216.867 3.20312 -0.467138 0
M  V30 2417 H 215.774 2.58802 -2.70134 0
M  V30 2418 H 217.107 3.41923 -3.54047 0
M  V30 2419 N 218.759 1.29093 0.90403 0
M  V30 2420 C 219.989 1.19516 1.68522 0
M  V30 2421 C 220.397 -0.24738 1.87576 0
M  V30 2422 O 219.74 -1.17798 1.40959 0
M  V30 2423 C 219.802 1.83249 3.0929 0
M  V30 2424 C 219.466 3.32531 3.13484 0
M  V30 2425 C 220.463 4.28821 2.93953 0
M  V30 2426 C 218.148 3.73656 3.35688 0
M  V30 2427 C 220.142 5.64212 2.96553 0
M  V30 2428 C 217.829 5.0917 3.37919 0
M  V30 2429 C 218.827 6.04258 3.18373 0
M  V30 2430 O 218.515 7.37298 3.20385 0
M  V30 2431 H 218.247 0.415467 0.533257 0
M  V30 2432 H 220.801 1.70912 1.13922 0
M  V30 2433 H 219.031 1.26358 3.65473 0
M  V30 2434 H 220.72 1.68054 3.69476 0
M  V30 2435 H 221.486 3.98382 2.76616 0
M  V30 2436 H 217.365 3.00101 3.49943 0
M  V30 2437 H 220.909 6.38407 2.81216 0
M  V30 2438 H 216.806 5.39256 3.54787 0
M  V30 2439 H 217.574 7.46048 3.36681 0
M  V30 2440 N 220.237 -1.11381 1.11499 0
M  V30 2441 C 221.2 -2.15622 0.777153 0
M  V30 2442 C 222.2 -1.59504 -0.203779 0
M  V30 2443 O 223.39 -1.74188 0.020782 0
M  V30 2444 C 220.522 -3.40556 0.153116 0
M  V30 2445 H 221.715 -2.47021 1.70061 0
M  V30 2446 H 219.268 -1.26577 0.916952 0
M  V30 2447 H 220.003 -3.14767 -0.780536 0
M  V30 2448 H 219.788 -3.8257 0.859238 0
M  V30 2449 H 221.278 -4.17546 -0.0671044 0
M  V30 2450 N 221.715 -0.905404 -1.28997 0
M  V30 2451 C 222.625 -0.392246 -2.31298 0
M  V30 2452 C 223.641 0.515889 -1.66176 0
M  V30 2453 O 224.817 0.404093 -1.97304 0
M  V30 2454 C 221.882 0.36686 -3.44754 0
M  V30 2455 C 220.943 -0.573485 -4.25452 0
M  V30 2456 C 220.176 0.149488 -5.33491 0
M  V30 2457 O 220.399 1.37255 -5.5364 0
M  V30 2458 O 219.333 -0.510919 -5.99728 0
M  V30 2459 H 223.159 -1.2411 -2.77183 0
M  V30 2460 H 220.744 -0.669926 -1.33538 0
M  V30 2461 H 222.626 0.795907 -4.13816 0
M  V30 2462 H 221.301 1.19169 -3.00966 0
M  V30 2463 H 220.208 -1.05176 -3.59011 0
M  V30 2464 H 221.541 -1.36489 -4.72897 0
M  V30 2465 N 223.193 1.4272 -0.668489 0
M  V30 2466 C 224.14 2.30796 0.0137489 0
M  V30 2467 C 225.11 1.4561 0.799177 0
M  V30 2468 O 226.295 1.74453 0.772702 0
M  V30 2469 C 223.435 3.31377 0.963507 0
M  V30 2470 C 222.548 4.31655 0.172569 0
M  V30 2471 C 221.683 5.19312 1.1175 0
M  V30 2472 C 220.722 6.11274 0.317886 0
M  V30 2473 N 219.859 6.91504 1.2152 0
M  V30 2474 H 224.699 2.88585 -0.743161 0
M  V30 2475 H 222.236 1.42154 -0.378226 0
M  V30 2476 H 224.194 3.88214 1.52792 0
M  V30 2477 H 222.824 2.75202 1.68712 0
M  V30 2478 H 221.876 3.76988 -0.508374 0
M  V30 2479 H 223.188 4.96779 -0.448527 0
M  V30 2480 H 222.342 5.80851 1.75206 0
M  V30 2481 H 221.081 4.5435 1.77249 0
M  V30 2482 H 220.086 5.48809 -0.329918 0
M  V30 2483 H 221.311 6.78283 -0.332917 0
M  V30 2484 H 219.257 6.29176 1.85671 0
M  V30 2485 H 219.174 7.53209 0.649036 0
M  V30 2486 H 220.442 7.57535 1.83742 0
M  V30 2487 N 224.671 0.411399 1.52136 0
M  V30 2488 C 225.601 -0.404015 2.29978 0
M  V30 2489 C 226.582 -1.04412 1.34284 0
M  V30 2490 O 227.767 -1.0527 1.63192 0
M  V30 2491 C 224.897 -1.5197 3.12286 0
M  V30 2492 C 223.851 -1.00448 4.16046 0
M  V30 2493 C 223.177 -2.21393 4.86712 0
M  V30 2494 C 224.477 -0.0569336 5.22269 0
M  V30 2495 H 226.171 0.245529 2.98392 0
M  V30 2496 H 223.717 0.119525 1.43503 0
M  V30 2497 H 225.67 -2.09715 3.6551 0
M  V30 2498 H 224.394 -2.19716 2.41646 0
M  V30 2499 H 223.053 -0.449421 3.63835 0
M  V30 2500 H 222.701 -2.87699 4.12599 0
M  V30 2501 H 222.401 -1.87571 5.56858 0
M  V30 2502 H 223.925 -2.7974 5.4275 0
M  V30 2503 H 225.339 -0.54325 5.7072 0
M  V30 2504 H 223.736 0.192594 5.99791 0
M  V30 2505 H 224.806 0.887663 4.76706 0
M  V30 2506 N 226.149 -1.5696 0.141893 0
M  V30 2507 C 227.112 -2.15316 -0.785587 0
M  V30 2508 C 228.112 -1.09366 -1.1788 0
M  V30 2509 O 229.302 -1.35031 -1.10056 0
M  V30 2510 C 226.434 -2.71211 -2.06537 0
M  V30 2511 H 227.627 -2.98608 -0.278041 0
M  V30 2512 H 225.18 -1.5593 -0.107519 0
M  V30 2513 H 225.915 -1.91571 -2.6167 0
M  V30 2514 H 225.7 -3.4872 -1.79268 0
M  V30 2515 H 227.19 -3.16189 -2.72789 0
M  V30 2516 N 227.627 0.131896 -1.57047 0
M  V30 2517 C 228.59 1.14638 -1.98471 0
M  V30 2518 C 229.59 1.35029 -0.873148 0
M  V30 2519 O 230.78 1.31764 -1.13946 0
M  V30 2520 C 227.912 2.50358 -2.31373 0
M  V30 2521 H 229.105 0.79064 -2.8929 0
M  V30 2522 H 226.658 0.375761 -1.51716 0
M  V30 2523 H 227.393 2.90876 -1.43393 0
M  V30 2524 H 227.178 2.36915 -3.12432 0
M  V30 2525 H 228.668 3.23395 -2.64207 0
M  V30 2526 N 229.106 1.52395 0.401703 0
M  V30 2527 C 230.036 1.79231 1.49661 0
M  V30 2528 C 231.017 0.643654 1.57452 0
M  V30 2529 O 232.202 0.889989 1.72606 0
M  V30 2530 C 229.332 1.94971 2.87409 0
M  V30 2531 C 228.286 3.10604 2.94465 0
M  V30 2532 C 227.612 3.11577 4.34538 0
M  V30 2533 C 228.912 4.49921 2.6527 0
M  V30 2534 H 230.606 2.70917 1.27454 0
M  V30 2535 H 228.152 1.30362 0.6117 0
M  V30 2536 H 230.105 2.12328 3.63999 0
M  V30 2537 H 228.829 0.999632 3.10926 0
M  V30 2538 H 227.488 2.93009 2.20321 0
M  V30 2539 H 227.136 2.14277 4.55076 0
M  V30 2540 H 226.836 3.89247 4.40183 0
M  V30 2541 H 228.36 3.31073 5.13053 0
M  V30 2542 H 229.774 4.67683 3.31581 0
M  V30 2543 H 228.171 5.29564 2.82281 0
M  V30 2544 H 229.241 4.57507 1.60671 0
M  V30 2545 N 230.584 -0.659388 1.43143 0
M  V30 2546 C 231.514 -1.78422 1.50625 0
M  V30 2547 C 232.495 -1.66216 0.361443 0
M  V30 2548 O 233.68 -1.85404 0.577834 0
M  V30 2549 C 230.81 -3.16815 1.42287 0
M  V30 2550 C 229.764 -3.43777 2.54954 0
M  V30 2551 C 229.09 -4.81905 2.31671 0
M  V30 2552 C 230.39 -3.39134 3.97222 0
M  V30 2553 H 232.084 -1.72417 2.44771 0
M  V30 2554 H 229.63 -0.828084 1.17808 0
M  V30 2555 H 231.583 -3.95253 1.46127 0
M  V30 2556 H 230.307 -3.23534 0.446435 0
M  V30 2557 H 228.966 -2.67707 2.50457 0
M  V30 2558 H 228.614 -4.85294 1.32284 0
M  V30 2559 H 228.314 -5.00906 3.07192 0
M  V30 2560 H 229.838 -5.62609 2.37284 0
M  V30 2561 H 231.252 -4.07518 4.03239 0
M  V30 2562 H 229.649 -3.69671 4.72719 0
M  V30 2563 H 230.719 -2.37426 4.22797 0
M  V30 2564 N 232.062 -1.29571 -0.897171 0
M  V30 2565 C 233.473 -1.15964 -1.46319 0
M  V30 2566 C 233.824 0.244267 -1.94674 0
M  V30 2567 O 232.949 1.13998 -1.83939 0
M  V30 2568 C 233.544 -2.09906 -2.65942 0
M  V30 2569 C 232.103 -2.00314 -3.18671 0
M  V30 2570 C 231.25 -2.00687 -1.91363 0
M  V30 2571 H 234.201 -1.42019 -0.708268 0
M  V30 2572 H 234.222 -1.67276 -3.41759 0
M  V30 2573 H 233.734 -3.12075 -2.30718 0
M  V30 2574 H 231.835 -1.01242 -3.58582 0
M  V30 2575 H 231.948 -2.88102 -3.82798 0
M  V30 2576 H 230.312 -1.45319 -2.09175 0
M  V30 2577 H 231.095 -3.04566 -1.58413 0
M  V30 2578 N 233.54 1.10788 -1.12088 0
M  V30 2579 C 234.45 2.20599 -0.798338 0
M  V30 2580 C 235.466 1.72712 0.21135 0
M  V30 2581 O 236.642 2.01348 0.0458477 0
M  V30 2582 C 233.707 3.45771 -0.253674 0
M  V30 2583 C 232.768 4.08411 -1.32283 0
M  V30 2584 C 232.001 5.27608 -0.80406 0
M  V30 2585 O 232.224 5.69241 0.363478 0
M  V30 2586 O 231.158 5.8101 -1.57198 0
M  V30 2587 H 234.984 2.50614 -1.7154 0
M  V30 2588 H 232.569 1.19454 -0.897275 0
M  V30 2589 H 234.451 4.21376 0.0453691 0
M  V30 2590 H 233.126 3.1739 0.636005 0
M  V30 2591 H 232.033 3.34507 -1.67499 0
M  V30 2592 H 233.366 4.40986 -2.18614 0
M  V30 2593 N 235.018 0.912232 1.28515 0
M  V30 2594 C 236.429 0.591352 1.77087 0
M  V30 2595 C 236.78 -0.8933 1.74684 0
M  V30 2596 O 235.905 -1.69876 1.34056 0
M  V30 2597 C 236.5 1.06668 3.2157 0
M  V30 2598 C 235.059 0.79675 3.67871 0
M  V30 2599 C 234.206 1.23427 2.48316 0
M  V30 2600 H 237.157 1.09365 1.15 0
M  V30 2601 H 237.178 0.407455 3.78312 0
M  V30 2602 H 236.69 2.14726 3.23287 0
M  V30 2603 H 234.791 -0.270679 3.71616 0
M  V30 2604 H 234.904 1.40343 4.58084 0
M  V30 2605 H 233.268 0.653036 2.46186 0
M  V30 2606 H 234.051 2.32316 2.52753 0
M  V30 2607 N 236.496 -1.42363 0.676048 0
M  V30 2608 C 237.426 -2.33497 0.0124832 0
M  V30 2609 C 238.407 -1.50748 -0.787981 0
M  V30 2610 O 239.592 -1.79346 -0.744884 0
M  V30 2611 C 236.722 -3.34377 -0.938582 0
M  V30 2612 C 235.676 -4.27289 -0.246622 0
M  V30 2613 C 235.002 -5.18386 -1.31071 0
M  V30 2614 C 236.302 -5.14916 0.875125 0
M  V30 2615 H 237.996 -2.89233 0.773593 0
M  V30 2616 H 235.542 -1.39073 0.37346 0
M  V30 2617 H 237.495 -3.97044 -1.41188 0
M  V30 2618 H 236.219 -2.76947 -1.73113 0
M  V30 2619 H 234.878 -3.66018 0.206456 0
M  V30 2620 H 234.526 -4.57282 -2.09528 0
M  V30 2621 H 234.226 -5.81378 -0.852839 0
M  V30 2622 H 235.75 -5.83929 -1.78492 0
M  V30 2623 H 237.164 -5.71262 0.482983 0
M  V30 2624 H 235.561 -5.86747 1.25887 0
M  V30 2625 H 236.631 -4.53242 1.72335 0
M  V30 2626 N 237.974 -0.419461 -1.51915 0
M  V30 2627 C 238.921 0.400927 -2.27291 0
M  V30 2628 C 239.891 1.03224 -1.30131 0
M  V30 2629 O 241.076 1.05455 -1.59009 0
M  V30 2630 C 238.216 1.50603 -3.10504 0
M  V30 2631 C 237.329 0.89462 -4.22635 0
M  V30 2632 C 236.464 1.97328 -4.93189 0
M  V30 2633 C 235.503 1.33935 -5.97267 0
M  V30 2634 N 234.64 2.3586 -6.61298 0
M  V30 2635 H 239.48 -0.248251 -2.96964 0
M  V30 2636 H 237.017 -0.134266 -1.46486 0
M  V30 2637 H 238.975 2.15783 -3.57062 0
M  V30 2638 H 237.605 2.12509 -2.42981 0
M  V30 2639 H 236.657 0.131583 -3.80172 0
M  V30 2640 H 237.969 0.391641 -4.9726 0
M  V30 2641 H 237.123 2.70211 -5.43204 0
M  V30 2642 H 235.862 2.50994 -4.18155 0
M  V30 2643 H 234.867 0.595896 -5.46561 0
M  V30 2644 H 236.092 0.810252 -6.74249 0
M  V30 2645 H 234.038 2.88639 -5.89087 0
M  V30 2646 H 233.955 1.90403 -7.3163 0
M  V30 2647 H 235.223 3.08282 -7.15949 0
M  V30 2648 N 239.452 1.56882 -0.150215 0
M  V30 2649 C 240.698 1.96518 0.500834 0
M  V30 2650 C 241.031 1.03527 1.64304 0
M  V30 2651 O 240.306 0.0782751 1.94342 0
M  V30 2652 C 240.589 3.45822 1.00395 0
M  V30 2653 C 240.442 4.49591 -0.136983 0
M  V30 2654 C 241.761 3.97704 1.88467 0
M  V30 2655 H 238.88 0.714535 0.18058 0
M  V30 2656 H 241.522 1.88577 -0.232091 0
M  V30 2657 H 239.672 3.5272 1.62851 0
M  V30 2658 H 241.344 4.5477 -0.77343 0
M  V30 2659 H 239.587 4.26441 -0.795652 0
M  V30 2660 H 240.258 5.51402 0.256815 0
M  V30 2661 H 242.734 3.93304 1.35834 0
M  V30 2662 H 241.61 5.0263 2.20578 0
M  V30 2663 H 241.871 3.40252 2.82279 0
M  V30 2664 N 240.93 -0.123565 1.57115 0
M  V30 2665 C 242.179 -0.830704 1.83799 0
M  V30 2666 C 242.492 -1.81259 0.735158 0
M  V30 2667 O 243.698 -2.56558 0.888278 0
M  V30 2668 C 242.154 -1.52802 3.25852 0
M  V30 2669 C 241.762 -0.587356 4.44133 0
M  V30 2670 C 243.506 -2.22056 3.61789 0
M  V30 2671 C 241.413 -1.28764 5.77212 0
M  V30 2672 H 240.343 -0.313967 0.685522 0
M  V30 2673 H 242.994 -0.0834359 1.8331 0
M  V30 2674 H 241.376 -2.32175 3.20797 0
M  V30 2675 H 242.55 0.172829 4.60476 0
M  V30 2676 H 240.865 -0.00201892 4.164 0
M  V30 2677 H 243.462 -2.75131 4.58483 0
M  V30 2678 H 243.805 -2.99644 2.88997 0
M  V30 2679 H 244.338 -1.49576 3.68608 0
M  V30 2680 H 241.077 -0.55314 6.53162 0
M  V30 2681 H 240.597 -2.01995 5.64764 0
M  V30 2682 H 242.276 -1.8221 6.20813 0
M  V30 2683 N 242.408 -1.52605 -0.393616 0
M  V30 2684 C 243.655 -1.67424 -1.1391 0
M  V30 2685 C 243.983 -0.411859 -1.90089 0
M  V30 2686 O 243.238 0.605626 -1.86093 0
M  V30 2687 C 243.537 -2.85721 -2.14705 0
M  V30 2688 C 243.203 -4.23342 -1.55218 0
M  V30 2689 C 241.865 -4.60771 -1.3872 0
M  V30 2690 C 244.217 -5.09041 -1.11924 0
M  V30 2691 C 241.545 -5.81563 -0.774689 0
M  V30 2692 C 243.897 -6.30452 -0.520853 0
M  V30 2693 C 242.561 -6.66617 -0.343134 0
M  V30 2694 H 241.831 -0.612648 -0.416826 0
M  V30 2695 H 244.478 -1.8674 -0.424315 0
M  V30 2696 H 242.783 -2.60803 -2.92385 0
M  V30 2697 H 244.48 -2.94382 -2.72288 0
M  V30 2698 H 241.07 -3.93855 -1.69045 0
M  V30 2699 H 245.254 -4.80695 -1.23473 0
M  V30 2700 H 240.51 -6.08196 -0.625154 0
M  V30 2701 H 244.684 -6.96175 -0.177065 0
M  V30 2702 H 242.311 -7.60083 0.133571 0
M  V30 2703 N 243.887 0.651787 -1.4349 0
M  V30 2704 C 244.817 1.77621 -1.51569 0
M  V30 2705 C 245.798 1.66022 -0.370253 0
M  V30 2706 O 246.983 1.85095 -0.587658 0
M  V30 2707 C 244.113 3.16056 -1.43966 0
M  V30 2708 C 243.067 3.4242 -2.56774 0
M  V30 2709 C 242.393 4.8067 -2.34223 0
M  V30 2710 C 243.693 3.37023 -3.99015 0
M  V30 2711 H 245.387 1.71117 -2.45681 0
M  V30 2712 H 242.933 0.821825 -1.18246 0
M  V30 2713 H 244.886 3.94472 -1.48221 0
M  V30 2714 H 243.61 3.23293 -0.463586 0
M  V30 2715 H 242.269 2.66375 -2.51873 0
M  V30 2716 H 241.917 4.84585 -1.34856 0
M  V30 2717 H 241.617 4.9927 -3.09844 0
M  V30 2718 H 243.141 5.61342 -2.40265 0
M  V30 2719 H 244.555 4.05374 -4.05395 0
M  V30 2720 H 242.952 3.67159 -4.74673 0
M  V30 2721 H 244.022 2.3518 -4.2405 0
M  V30 2722 N 245.365 1.30045 0.890287 0
M  V30 2723 C 246.611 1.18737 1.64406 0
M  V30 2724 C 246.944 -0.258525 1.92472 0
M  V30 2725 O 246.219 -1.18562 1.54186 0
M  V30 2726 C 246.502 2.01087 2.98724 0
M  V30 2727 C 246.355 3.53867 2.77665 0
M  V30 2728 C 247.674 1.84457 3.9958 0
M  V30 2729 H 244.793 0.432698 0.596608 0
M  V30 2730 H 247.435 1.5962 1.0306 0
M  V30 2731 H 245.585 1.66349 3.51084 0
M  V30 2732 H 247.257 3.98637 2.32133 0
M  V30 2733 H 245.5 3.78318 2.12269 0
M  V30 2734 H 246.171 4.06772 3.7315 0
M  V30 2735 H 248.647 2.14817 3.56361 0
M  V30 2736 H 247.523 2.44411 4.91482 0
M  V30 2737 H 247.784 0.802276 4.3476 0
M  V30 2738 N 246.843 -1.10192 1.12674 0
M  V30 2739 C 247.791 -2.18694 0.792196 0
M  V30 2740 C 248.785 -1.67938 -0.222058 0
M  V30 2741 O 249.991 -1.79822 -0.0800074 0
M  V30 2742 H 246.366 -0.713223 0.238364 0
M  V30 2743 H 248.337 -2.44149 1.71564 0
M  V30 2744 C 247.086 -3.46682 0.265859 0
M  V30 2745 H 246.409 -3.86101 1.03761 0
M  V30 2746 H 247.849 -4.23942 0.0701128 0
M  V30 2747 C 246.308 -3.21506 -1.00675 0
M  V30 2748 O 246.838 -3.43408 -2.08408 0
M  V30 2749 N 245.044 -2.75158 -0.934692 0
M  V30 2750 H 244.591 -2.57535 -0.0578604 0
M  V30 2751 H 244.549 -2.58691 -1.7868 0
M  V30 2752 N 248.321 -0.919034 -1.28029 0
M  V30 2753 C 249.546 -0.570357 -1.99403 0
M  V30 2754 C 249.971 0.842486 -1.68178 0
M  V30 2755 O 249.329 1.56391 -0.917141 0
M  V30 2756 C 249.377 -0.792541 -3.51783 0
M  V30 2757 O 248.481 0.145988 -4.12142 0
M  V30 2758 H 247.822 -0.220555 -0.6263 0
M  V30 2759 H 250.352 -1.23592 -1.63053 0
M  V30 2760 H 250.362 -0.704708 -4.01868 0
M  V30 2761 H 249.037 -1.82247 -3.73844 0
M  V30 2762 H 247.614 0.00897528 -3.72899 0
M  V30 2763 N 249.799 1.42003 -0.683588 0
M  V30 2764 C 251.047 2.01015 -0.209101 0
M  V30 2765 C 251.368 1.54365 1.19149 0
M  V30 2766 O 250.638 0.769083 1.80172 0
M  V30 2767 H 249.218 0.743294 -0.074315 0
M  V30 2768 H 251.88 1.73798 -0.882066 0
M  V30 2769 H 250.976 3.11343 -0.2172 0
M  V30 2770 N 251.277 0.427512 1.51691 0
M  V30 2771 C 252.502 -0.143601 2.06902 0
M  V30 2772 C 252.927 -1.36536 1.29382 0
M  V30 2773 O 252.285 -1.78289 0.329043 0
M  V30 2774 C 252.333 -0.454207 3.57728 0
M  V30 2775 O 251.437 -1.54228 3.82475 0
M  V30 2776 H 250.778 -0.00617128 0.663971 0
M  V30 2777 H 253.308 0.606014 1.95419 0
M  V30 2778 H 253.318 -0.707525 4.01818 0
M  V30 2779 H 251.993 0.438812 4.13579 0
M  V30 2780 H 250.57 -1.2797 3.50254 0
M  V30 2781 N 252.755 -1.56801 0.158532 0
M  V30 2782 C 253.665 -2.20916 -0.789518 0
M  V30 2783 C 254.681 -1.1969 -1.26294 0
M  V30 2784 O 255.857 -1.52308 -1.31773 0
M  V30 2785 C 252.922 -2.82727 -2.00665 0
M  V30 2786 C 251.983 -3.99114 -1.58134 0
M  V30 2787 C 251.216 -4.57968 -2.74045 0
M  V30 2788 O 251.439 -4.15704 -3.90572 0
M  V30 2789 O 250.373 -5.48047 -2.48855 0
M  V30 2790 H 254.199 -3.02464 -0.273681 0
M  V30 2791 H 251.784 -1.4924 -0.0690548 0
M  V30 2792 H 253.666 -3.21968 -2.71872 0
M  V30 2793 H 252.341 -2.04184 -2.51179 0
M  V30 2794 H 251.248 -3.64567 -0.839155 0
M  V30 2795 H 252.581 -4.79212 -1.12325 0
M  V30 2796 N 254.233 0.115231 -1.57178 0
M  V30 2797 C 255.196 1.12526 -1.99676 0
M  V30 2798 C 256.196 1.34095 -0.88742 0
M  V30 2799 O 257.386 1.30548 -1.15337 0
M  V30 2800 C 254.518 2.4789 -2.34015 0
M  V30 2801 H 255.711 0.759912 -2.90113 0
M  V30 2802 H 253.264 0.359648 -1.52106 0
M  V30 2803 H 253.999 2.89339 -1.4647 0
M  V30 2804 H 253.784 2.33588 -3.14927 0
M  V30 2805 H 255.274 3.20575 -2.67622 0
M  V30 2806 N 255.711 1.52812 0.385517 0
M  V30 2807 C 256.659 1.78482 1.49155 0
M  V30 2808 C 257.653 0.652914 1.56312 0
M  V30 2809 O 258.859 0.835464 1.59436 0
M  V30 2810 H 255.234 0.5648 0.496493 0
M  V30 2811 H 257.205 2.71095 1.24699 0
M  V30 2812 C 255.954 1.97378 2.86247 0
M  V30 2813 H 255.277 2.83907 2.81491 0
M  V30 2814 H 256.717 2.19327 3.62866 0
M  V30 2815 C 255.176 0.74728 3.28508 0
M  V30 2816 O 255.706 -0.0736232 4.01633 0
M  V30 2817 N 253.912 0.576396 2.84826 0
M  V30 2818 H 253.459 1.24555 2.25486 0
M  V30 2819 H 253.417 -0.24288 3.1346 0
M  V30 2820 N 257.189 -0.644168 1.43834 0
M  V30 2821 C 258.099 -1.78563 1.52159 0
M  V30 2822 C 259.115 -1.69147 0.408069 0
M  V30 2823 O 260.291 -1.90156 0.663524 0
M  V30 2824 C 257.356 -3.14888 1.45073 0
M  V30 2825 C 256.417 -3.36034 2.6717 0
M  V30 2826 C 255.65 -4.65855 2.60413 0
M  V30 2827 O 255.873 -5.45805 1.65689 0
M  V30 2828 O 254.807 -4.88918 3.5106 0
M  V30 2829 H 258.633 -1.74494 2.48567 0
M  V30 2830 H 256.218 -0.80378 1.25935 0
M  V30 2831 H 258.1 -3.96179 1.43597 0
M  V30 2832 H 256.775 -3.19528 0.518037 0
M  V30 2833 H 255.682 -2.54472 2.74217 0
M  V30 2834 H 257.015 -3.36247 3.59442 0
M  V30 2835 N 258.668 -1.30515 -0.883378 0
M  V30 2836 C 259.598 -1.19607 -2.00541 0
M  V30 2837 C 260.579 -0.086346 -1.69881 0
M  V30 2838 O 261.764 -0.268654 -1.92333 0
M  V30 2839 C 258.894 -0.888758 -3.35736 0
M  V30 2840 C 257.848 -1.95659 -3.8066 0
M  V30 2841 C 257.174 -1.50224 -5.13164 0
M  V30 2842 C 258.474 -3.36788 -3.99213 0
M  V30 2843 H 260.168 -2.13476 -2.09925 0
M  V30 2844 H 257.714 -1.02775 -1.00863 0
M  V30 2845 H 259.667 -0.799094 -4.13754 0
M  V30 2846 H 258.391 0.0856125 -3.26488 0
M  V30 2847 H 257.05 -2.03591 -3.04871 0
M  V30 2848 H 256.698 -0.516092 -5.00345 0
M  V30 2849 H 256.398 -2.2165 -5.44192 0
M  V30 2850 H 257.922 -1.42639 -5.93706 0
M  V30 2851 H 259.336 -3.31605 -4.67665 0
M  V30 2852 H 257.733 -4.06314 -4.41621 0
M  V30 2853 H 258.803 -3.78561 -3.03017 0
M  V30 2854 N 260.146 1.09593 -1.13257 0
M  V30 2855 C 261.109 2.14359 -0.811358 0
M  V30 2856 C 262.109 1.59808 0.178377 0
M  V30 2857 O 263.299 1.74132 -0.0484911 0
M  V30 2858 C 260.431 3.40269 -0.207276 0
M  V30 2859 H 261.624 2.44284 -1.73969 0
M  V30 2860 H 259.177 1.25102 -0.936973 0
M  V30 2861 H 259.912 3.15969 0.73036 0
M  V30 2862 H 259.697 3.81154 -0.919992 0
M  V30 2863 H 261.187 4.176 0.000667944 0
M  V30 2864 N 261.624 0.925811 1.2754 0
M  V30 2865 C 262.557 0.367836 2.25216 0
M  V30 2866 C 263.535 -0.534738 1.53556 0
M  V30 2867 O 264.719 -0.475672 1.824 0
M  V30 2868 C 261.846 -0.47298 3.35381 0
M  V30 2869 C 260.892 0.365898 4.24928 0
M  V30 2870 S 261.725 1.78025 5.05042 0
M  V30 2871 C 262.881 0.947068 6.18693 0
M  V30 2872 H 263.114 1.19568 2.72196 0
M  V30 2873 H 260.647 0.727867 1.36167 0
M  V30 2874 H 262.605 -0.952242 3.99303 0
M  V30 2875 H 261.266 -1.27533 2.87044 0
M  V30 2876 H 260.459 -0.277582 5.03235 0
M  V30 2877 H 260.061 0.779261 3.65792 0
M  V30 2878 H 262.353 0.182201 6.77255 0
M  V30 2879 H 263.296 1.70309 6.87314 0
M  V30 2880 H 263.704 0.489913 5.6237 0
M  V30 2881 N 263.102 -1.41638 0.69111 0
M  V30 2882 C 264.032 -2.3347 0.037248 0
M  V30 2883 C 265.013 -1.51575 -0.771947 0
M  V30 2884 O 266.198 -1.80126 -0.72582 0
M  V30 2885 C 263.328 -3.35354 -0.903064 0
M  V30 2886 C 262.282 -4.27526 -0.201288 0
M  V30 2887 C 261.608 -5.19747 -1.25565 0
M  V30 2888 C 262.908 -5.13959 0.929689 0
M  V30 2889 H 264.602 -2.88397 0.804227 0
M  V30 2890 H 262.148 -1.38669 0.388189 0
M  V30 2891 H 264.101 -3.98519 -1.36969 0
M  V30 2892 H 262.825 -2.78767 -1.70166 0
M  V30 2893 H 261.484 -3.65779 0.245265 0
M  V30 2894 H 261.132 -4.59479 -2.04666 0
M  V30 2895 H 260.832 -5.8225 -0.791128 0
M  V30 2896 H 262.356 -5.85789 -1.72288 0
M  V30 2897 H 263.77 -5.70718 0.543546 0
M  V30 2898 H 262.167 -5.85379 1.32103 0
M  V30 2899 H 263.237 -4.51389 1.77133 0
M  V30 2900 N 264.58 -0.43555 -1.51462 0
M  V30 2901 C 265.513 0.421989 -2.24264 0
M  V30 2902 C 266.491 1.02619 -1.26127 0
M  V30 2903 O 267.675 1.069 -1.55257 0
M  V30 2904 C 264.802 1.588 -2.99166 0
M  V30 2905 C 263.848 1.10465 -4.11946 0
M  V30 2906 S 264.681 0.048146 -5.35478 0
M  V30 2907 C 265.837 1.21887 -6.13917 0
M  V30 2908 H 266.07 -0.196102 -2.96653 0
M  V30 2909 H 263.603 -0.220054 -1.52824 0
M  V30 2910 H 265.561 2.25647 -3.42919 0
M  V30 2911 H 264.222 2.1775 -2.26371 0
M  V30 2912 H 263.415 1.97654 -4.63626 0
M  V30 2913 H 263.017 0.51445 -3.70445 0
M  V30 2914 H 265.309 2.13756 -6.42895 0
M  V30 2915 H 266.252 0.742076 -7.04201 0
M  V30 2916 H 266.66 1.45663 -5.45383 0
M  V30 2917 N 266.058 1.56714 -0.166846 0
M  V30 2918 C 267.021 2.16539 0.751232 0
M  V30 2919 C 268.021 1.11228 1.16125 0
M  V30 2920 O 269.211 1.36765 1.07894 0
M  V30 2921 C 266.343 2.74462 2.02196 0
M  V30 2922 H 267.536 2.99013 0.230499 0
M  V30 2923 H 265.089 1.56081 0.0826982 0
M  V30 2924 H 265.824 1.95709 2.58589 0
M  V30 2925 H 265.609 3.51527 1.73698 0
M  V30 2926 H 267.099 3.20489 2.67725 0
M  V30 2927 N 267.536 -0.106894 1.57237 0
M  V30 2928 C 268.952 -0.46078 1.52804 0
M  V30 2929 C 269.152 -1.81184 0.881746 0
M  V30 2930 O 268.208 -2.48102 0.469224 0
M  V30 2931 C 269.521 -0.434127 2.9755 0
M  V30 2932 C 271.069 -0.516821 3.08704 0
M  V30 2933 C 271.544 -0.520436 4.55033 0
M  V30 2934 N 273.035 -0.58153 4.59535 0
M  V30 2935 C 273.77 -0.605973 5.70189 0
M  V30 2936 N 273.266 -0.587331 6.90306 0
M  V30 2937 N 275.059 -0.649895 5.5833 0
M  V30 2938 H 267.21 0.778203 1.9763 0
M  V30 2939 H 269.473 0.288403 0.903066 0
M  V30 2940 H 269.179 0.491197 3.48253 0
M  V30 2941 H 269.053 -1.25748 3.55622 0
M  V30 2942 H 271.44 -1.43256 2.57995 0
M  V30 2943 H 271.521 0.334449 2.53604 0
M  V30 2944 H 271.165 0.391313 5.0639 0
M  V30 2945 H 271.095 -1.38876 5.07958 0
M  V30 2946 H 273.586 -0.60161 3.73081 0
M  V30 2947 H 273.899 -0.60894 7.70397 0
M  V30 2948 H 272.244 -0.554564 6.92784 0
M  V30 2949 H 275.435 -0.661907 4.63397 0
M  V30 2950 H 275.608 -0.665476 6.44574 0
M  V30 2951 N 269.014 -1.53014 -0.377408 0
M  V30 2952 C 269.977 -1.77957 -1.44444 0
M  V30 2953 C 270.977 -0.649763 -1.47087 0
M  V30 2954 O 272.167 -0.917897 -1.48055 0
M  V30 2955 C 269.299 -1.89089 -2.83651 0
M  V30 2956 H 270.492 -2.73243 -1.23606 0
M  V30 2957 H 268.045 -1.43912 -0.609844 0
M  V30 2958 H 268.78 -0.958293 -3.09818 0
M  V30 2959 H 268.565 -2.71254 -2.83132 0
M  V30 2960 H 270.055 -2.1002 -3.60945 0
M  V30 2961 N 270.492 0.636531 -1.44174 0
M  V30 2962 C 271.442 1.74233 -1.47061 0
M  V30 2963 C 272.426 1.57331 -0.337034 0
M  V30 2964 O 273.618 1.67159 -0.581973 0
M  V30 2965 C 270.747 3.12897 -1.41246 0
M  V30 2966 C 269.833 3.35288 -2.59698 0
M  V30 2967 N 270.224 3.2807 -3.84972 0
M  V30 2968 C 268.522 3.66065 -2.54778 0
M  V30 2969 C 269.223 3.51001 -4.63867 0
M  V30 2970 N 268.199 3.73616 -3.94857 0
M  V30 2971 H 272.001 1.67103 -2.41773 0
M  V30 2972 H 269.515 0.838806 -1.3906 0
M  V30 2973 H 271.512 3.92189 -1.41398 0
M  V30 2974 H 270.172 3.21197 -0.47569 0
M  V30 2975 H 271.183 3.07109 -4.17019 0
M  V30 2976 H 267.86 3.81379 -1.6987 0
M  V30 2977 H 269.25 3.51059 -5.72894 0
M  V30 2978 N 271.97 1.30982 0.876444 0
M  V30 2979 C 273.195 1.23373 1.66715 0
M  V30 2980 C 273.62 -0.19885 1.87046 0
M  V30 2981 O 272.978 -1.1427 1.40756 0
M  V30 2982 C 273.026 1.97644 3.01611 0
M  V30 2983 O 272.13 1.30935 3.91062 0
M  V30 2984 H 271.471 0.426279 0.509099 0
M  V30 2985 H 274.001 1.72944 1.09323 0
M  V30 2986 H 274.011 2.06992 3.51594 0
M  V30 2987 H 272.686 3.01829 2.86133 0
M  V30 2988 H 271.263 1.29996 3.49507 0
M  V30 2989 N 273.449 -1.08991 1.13837 0
M  V30 2990 C 274.397 -2.17841 0.815347 0
M  V30 2991 C 275.391 -1.68164 -0.204233 0
M  V30 2992 O 276.597 -1.79897 -0.0609304 0
M  V30 2993 H 272.972 -0.710654 0.245915 0
M  V30 2994 H 274.943 -2.42315 1.74143 0
M  V30 2995 C 273.692 -3.46381 0.302614 0
M  V30 2996 H 273.015 -3.84979 1.0785 0
M  V30 2997 H 274.455 -4.23844 0.115074 0
M  V30 2998 C 272.914 -3.22556 -0.972591 0
M  V30 2999 O 273.444 -3.45599 -2.04754 0
M  V30 3000 N 271.65 -2.76134 -0.905455 0
M  V30 3001 H 271.197 -2.57582 -0.0305421 0
M  V30 3002 H 271.155 -2.60571 -1.75926 0
M  V30 3003 N 274.927 -0.932562 -1.27047 0
M  V30 3004 C 275.875 -0.42603 -2.28665 0
M  V30 3005 C 276.869 0.49219 -1.62092 0
M  V30 3006 O 278.075 0.371355 -1.76128 0
M  V30 3007 H 274.45 -0.119213 -0.742491 0
M  V30 3008 H 276.421 -1.29579 -2.68797 0
M  V30 3009 C 275.17 0.301426 -3.46391 0
M  V30 3010 H 274.493 -0.39595 -3.97834 0
M  V30 3011 H 275.933 0.6202 -4.1944 0
M  V30 3012 C 274.392 1.51616 -3.00856 0
M  V30 3013 O 274.922 2.61476 -3.04948 0
M  V30 3014 N 273.128 1.36969 -2.56296 0
M  V30 3015 H 272.675 0.475873 -2.53166 0
M  V30 3016 H 272.633 2.18368 -2.26192 0
M  V30 3017 N 276.405 1.4127 -0.698611 0
M  V30 3018 C 277.654 2.00408 -0.227949 0
M  V30 3019 C 277.967 1.55981 1.18023 0
M  V30 3020 O 279.173 2.07699 1.74852 0
M  V30 3021 C 277.629 3.58129 -0.356636 0
M  V30 3022 C 277.237 4.11536 -1.77037 0
M  V30 3023 C 278.981 4.24466 0.0540969 0
M  V30 3024 C 276.888 5.61701 -1.85055 0
M  V30 3025 H 275.818 0.749586 -0.0814657 0
M  V30 3026 H 278.469 1.61713 -0.867249 0
M  V30 3027 H 276.851 3.94442 0.350965 0
M  V30 3028 H 278.025 3.86636 -2.50698 0
M  V30 3029 H 276.34 3.57736 -2.13105 0
M  V30 3030 H 278.937 5.34698 0.0146723 0
M  V30 3031 H 279.28 4.01687 1.09332 0
M  V30 3032 H 279.813 3.93198 -0.603337 0
M  V30 3033 H 276.552 5.89312 -2.8704 0
M  V30 3034 H 276.072 5.88519 -1.15783 0
M  V30 3035 H 277.751 6.26524 -1.61484 0
M  V30 3036 N 277.883 0.443576 1.51229 0
M  V30 3037 C 279.16 -0.181038 1.9476 0
M  V30 3038 C 279.54 -1.59523 1.38259 0
M  V30 3039 O 278.888 -2.2122 0.572198 0
M  V30 3040 C 279.098 -0.152422 3.48667 0
M  V30 3041 C 280.446 -0.354923 4.23114 0
M  V30 3042 O 281.47 -0.230257 3.55455 0
M  V30 3043 O 280.329 -0.603674 5.43156 0
M  V30 3044 H 277.423 -0.1266 0.817252 0
M  V30 3045 H 279.969 0.502004 1.62105 0
M  V30 3046 H 278.741 0.836022 3.82265 0
M  V30 3047 H 278.364 -0.878107 3.87782 0
M  V30 3048 N 279.361 -1.56624 0.175154 0
M  V30 3049 C 280.61 -1.96173 -0.468921 0
M  V30 3050 C 280.923 -1.06401 -1.64128 0
M  V30 3051 O 282.129 -1.35648 -2.35185 0
M  V30 3052 C 280.585 -3.48833 -0.885633 0
M  V30 3053 C 280.193 -4.47237 0.261343 0
M  V30 3054 C 281.937 -3.97194 -1.49791 0
M  V30 3055 C 279.844 -5.9114 -0.175214 0
M  V30 3056 H 278.774 -0.732455 -0.178958 0
M  V30 3057 H 281.425 -1.81591 0.263997 0
M  V30 3058 H 279.807 -3.58848 -1.67464 0
M  V30 3059 H 280.981 -4.4894 1.03871 0
M  V30 3060 H 279.296 -4.08956 0.783827 0
M  V30 3061 H 281.893 -5.02167 -1.83665 0
M  V30 3062 H 282.236 -3.40351 -2.39722 0
M  V30 3063 H 282.769 -3.90212 -0.773267 0
M  V30 3064 H 279.508 -6.51865 0.689414 0
M  V30 3065 H 279.028 -5.92735 -0.91786 0
M  V30 3066 H 280.707 -6.44044 -0.617792 0
M  V30 3067 N 280.839 0.0985539 -1.57292 0
M  V30 3068 C 282.088 0.801358 -1.85098 0
M  V30 3069 C 282.401 1.80066 -0.763902 0
M  V30 3070 O 283.607 2.55112 -0.928981 0
M  V30 3071 C 282.063 1.47599 -3.28242 0
M  V30 3072 C 281.671 0.516624 -4.45011 0
M  V30 3073 C 283.415 2.16272 -3.65276 0
M  V30 3074 C 281.322 1.19564 -5.79188 0
M  V30 3075 H 280.252 0.303022 -0.69043 0
M  V30 3076 H 282.903 0.0542623 -1.8342 0
M  V30 3077 H 281.285 2.27042 -3.2445 0
M  V30 3078 H 282.459 -0.246065 -4.60143 0
M  V30 3079 H 280.774 -0.064227 -4.1635 0
M  V30 3080 H 283.371 2.67802 -4.62803 0
M  V30 3081 H 283.714 2.95009 -2.93727 0
M  V30 3082 H 284.247 1.43693 -3.70941 0
M  V30 3083 H 280.986 0.449157 -6.53959 0
M  V30 3084 H 280.506 1.92984 -5.67906 0
M  V30 3085 H 282.185 1.7231 -6.23633 0
M  V30 3086 N 282.317 1.53212 0.369288 0
M  V30 3087 C 283.542 1.73423 1.1375 0
M  V30 3088 C 283.967 0.460404 1.82378 0
M  V30 3089 O 283.325 -0.585298 1.71592 0
M  V30 3090 C 283.373 2.89769 2.1463 0
M  V30 3091 O 282.477 2.58119 3.21634 0
M  V30 3092 H 281.818 0.576061 0.330227 0
M  V30 3093 H 284.348 2.00083 0.427547 0
M  V30 3094 H 284.358 3.15829 2.58294 0
M  V30 3095 H 283.033 3.8217 1.64071 0
M  V30 3096 H 281.61 2.42864 2.82969 0
M  V30 3097 N 283.795 -0.628877 1.44509 0
M  V30 3098 C 285.042 -1.38839 1.47411 0
M  V30 3099 C 285.37 -1.94202 0.10757 0
M  V30 3100 O 284.625 -1.74243 -0.890947 0
M  V30 3101 C 284.924 -2.56995 2.48371 0
M  V30 3102 C 284.59 -2.19908 3.93639 0
M  V30 3103 C 283.252 -2.09506 4.33198 0
M  V30 3104 C 285.604 -1.9064 4.85083 0
M  V30 3105 C 282.932 -1.68028 5.62124 0
M  V30 3106 C 285.284 -1.50655 6.14399 0
M  V30 3107 C 283.948 -1.38796 6.5291 0
M  V30 3108 H 283.218 -0.508048 0.539414 0
M  V30 3109 H 285.865 -0.712913 1.77735 0
M  V30 3110 H 284.17 -3.29786 2.11538 0
M  V30 3111 H 285.867 -3.15223 2.47861 0
M  V30 3112 H 282.457 -2.28922 3.62343 0
M  V30 3113 H 286.641 -1.97585 4.55273 0
M  V30 3114 H 281.897 -1.57452 5.90778 0
M  V30 3115 H 286.071 -1.27048 6.84713 0
M  V30 3116 H 283.698 -1.06429 7.52713 0
M  V30 3117 N 285.273 -1.31445 -0.869486 0
M  V30 3118 C 286.689 -1.10113 -1.15531 0
M  V30 3119 C 286.889 0.128087 -2.01092 0
M  V30 3120 O 285.945 0.817276 -2.38908 0
M  V30 3121 C 287.258 -2.37291 -1.84698 0
M  V30 3122 C 288.806 -2.42906 -1.97397 0
M  V30 3123 C 289.281 -3.69967 -2.69979 0
M  V30 3124 N 290.772 -3.70864 -2.77514 0
M  V30 3125 C 291.507 -4.65875 -3.34287 0
M  V30 3126 N 291.003 -5.71242 -3.91988 0
M  V30 3127 N 292.796 -4.53394 -3.3225 0
M  V30 3128 H 284.947 -2.1028 -0.299347 0
M  V30 3129 H 287.21 -0.927683 -0.195214 0
M  V30 3130 H 286.916 -3.27078 -1.29278 0
M  V30 3131 H 286.79 -2.47125 -2.84972 0
M  V30 3132 H 289.177 -1.53588 -2.51982 0
M  V30 3133 H 289.258 -2.37036 -0.961643 0
M  V30 3134 H 288.902 -4.59652 -2.16062 0
M  V30 3135 H 288.832 -3.73103 -3.7162 0
M  V30 3136 H 291.323 -2.94697 -2.36563 0
M  V30 3137 H 291.636 -6.39817 -4.33421 0
M  V30 3138 H 289.981 -5.75015 -3.90362 0
M  V30 3139 H 293.172 -3.70252 -2.8641 0
M  V30 3140 H 293.345 -5.27617 -3.76197 0
M  V30 3141 N 286.751 1.08385 -1.14413 0
M  V30 3142 C 287.999 1.80419 -0.910679 0
M  V30 3143 C 288.32 1.86658 0.564243 0
M  V30 3144 O 287.59 1.35985 1.41014 0
M  V30 3145 H 286.17 0.668204 -0.333934 0
M  V30 3146 H 288.832 1.31037 -1.44275 0
M  V30 3147 H 287.928 2.83238 -1.31082 0
M  V30 3148 N 288.23 0.939286 1.26551 0
M  V30 3149 C 289.193 0.451987 2.24699 0
M  V30 3150 C 290.193 -0.435869 1.5478 0
M  V30 3151 O 291.383 -0.235314 1.72603 0
M  V30 3152 C 288.515 -0.348801 3.39111 0
M  V30 3153 H 289.708 1.3193 2.69322 0
M  V30 3154 H 287.261 0.721072 1.38673 0
M  V30 3155 H 287.996 -1.23444 2.99887 0
M  V30 3156 H 287.781 0.287945 3.91041 0
M  V30 3157 H 289.271 -0.679726 4.12031 0
M  V30 3158 N 289.708 -1.40897 0.706093 0
M  V30 3159 C 290.938 -2.05075 0.250523 0
M  V30 3160 C 291.346 -1.53275 -1.10921 0
M  V30 3161 O 290.689 -0.680281 -1.7064 0
M  V30 3162 C 290.751 -3.59219 0.142178 0
M  V30 3163 C 290.415 -4.33864 1.43566 0
M  V30 3164 C 291.412 -4.62448 2.37566 0
M  V30 3165 C 289.097 -4.72946 1.69195 0
M  V30 3166 C 291.091 -5.29088 3.5545 0
M  V30 3167 C 288.778 -5.3932 2.87362 0
M  V30 3168 C 289.776 -5.6732 3.80312 0
M  V30 3169 O 289.464 -6.32325 4.96408 0
M  V30 3170 H 289.196 -0.666645 0.112074 0
M  V30 3171 H 291.75 -1.81467 0.962239 0
M  V30 3172 H 289.98 -3.81609 -0.6254 0
M  V30 3173 H 291.669 -4.0495 -0.277584 0
M  V30 3174 H 292.435 -4.32727 2.19027 0
M  V30 3175 H 288.314 -4.50527 0.977042 0
M  V30 3176 H 291.858 -5.50859 4.28018 0
M  V30 3177 H 287.755 -5.68461 3.05814 0
M  V30 3178 H 288.523 -6.50821 4.9636 0
M  V30 3179 N 291.186 -0.45159 -1.50991 0
M  V30 3180 C 292.136 0.370861 -2.24964 0
M  V30 3181 C 293.12 0.978074 -1.2776 0
M  V30 3182 O 294.312 0.893854 -1.52772 0
M  V30 3183 C 291.441 1.46344 -3.10545 0
M  V30 3184 C 290.527 0.864924 -4.15187 0
M  V30 3185 N 290.918 -0.00311354 -5.058 0
M  V30 3186 C 289.216 1.13099 -4.31422 0
M  V30 3187 C 289.917 -0.340772 -5.80701 0
M  V30 3188 N 288.893 0.279203 -5.42883 0
M  V30 3189 H 292.695 -0.298134 -2.92384 0
M  V30 3190 H 290.209 -0.264528 -1.60231 0
M  V30 3191 H 292.206 2.06565 -3.62128 0
M  V30 3192 H 290.866 2.13463 -2.4467 0
M  V30 3193 H 291.877 -0.37058 -5.16572 0
M  V30 3194 H 288.554 1.79861 -3.76771 0
M  V30 3195 H 289.944 -1.048 -6.63677 0
M  V30 3196 N 292.664 1.56529 -0.183458 0
M  V30 3197 C 293.912 1.96855 0.457452 0
M  V30 3198 C 294.233 1.07104 1.62953 0
M  V30 3199 O 293.503 0.139887 1.954 0
M  V30 3200 H 292.083 0.72693 0.171992 0
M  V30 3201 H 294.745 1.93056 -0.267476 0
M  V30 3202 H 293.841 3.01423 0.809368 0
M  V30 3203 N 294.142 -0.090211 1.57342 0
M  V30 3204 C 295.382 -0.798365 1.88163 0
M  V30 3205 C 295.746 -1.75662 0.775046 0
M  V30 3206 O 296.947 -2.50849 0.965816 0
M  V30 3207 C 295.218 -1.50376 3.24225 0
M  V30 3208 S 296.777 -2.24952 3.76752 0
M  V30 3209 H 293.595 -0.265883 0.659414 0
M  V30 3210 H 296.197 -0.055264 1.95422 0
M  V30 3211 H 294.901 -0.792286 4.0268 0
M  V30 3212 H 294.432 -2.28666 3.20118 0
M  V30 3213 H 296.447 -3.51173 3.5056 0
M  V30 3214 N 295.62 -1.53406 -0.361157 0
M  V30 3215 C 296.845 -1.74024 -1.12829 0
M  V30 3216 C 297.27 -0.470069 -1.82132 0
M  V30 3217 O 296.628 0.57619 -1.719 0
M  V30 3218 C 296.676 -2.90903 -2.13091 0
M  V30 3219 O 295.78 -2.59821 -3.20261 0
M  V30 3220 H 295.121 -0.577804 -0.327168 0
M  V30 3221 H 297.651 -2.00307 -0.41693 0
M  V30 3222 H 297.661 -3.17194 -2.56616 0
M  V30 3223 H 296.336 -3.83034 -1.62042 0
M  V30 3224 H 294.913 -2.44362 -2.81677 0
M  V30 3225 N 297.098 0.621204 -1.44841 0
M  V30 3226 C 298.509 1.20298 -1.42777 0
M  V30 3227 C 298.86 1.95639 -0.148259 0
M  V30 3228 O 297.985 2.02955 0.750892 0
M  V30 3229 C 298.58 2.1882 -2.58657 0
M  V30 3230 C 297.139 2.72403 -2.59756 0
M  V30 3231 C 296.286 1.4757 -2.34773 0
M  V30 3232 H 299.237 0.411297 -1.53278 0
M  V30 3233 H 299.258 3.01607 -2.31977 0
M  V30 3234 H 298.77 1.63957 -3.51766 0
M  V30 3235 H 296.871 3.31242 -1.70615 0
M  V30 3236 H 296.984 3.17765 -3.58556 0
M  V30 3237 H 295.348 1.76051 -1.8406 0
M  V30 3238 H 296.131 0.945954 -3.3001 0
M  V30 3239 N 298.576 1.31904 0.862503 0
M  V30 3240 C 299.806 1.24817 1.64634 0
M  V30 3241 C 300.214 -0.187579 1.88268 0
M  V30 3242 O 299.557 -1.13253 1.44635 0
M  V30 3243 C 299.619 1.92996 3.03303 0
M  V30 3244 C 299.283 3.42336 3.02746 0
M  V30 3245 C 300.28 4.37956 2.80162 0
M  V30 3246 C 297.965 3.84147 3.2363 0
M  V30 3247 C 299.959 5.73361 2.78453 0
M  V30 3248 C 297.646 5.19663 3.21549 0
M  V30 3249 C 298.644 6.14081 2.98988 0
M  V30 3250 O 298.332 7.47118 2.96766 0
M  V30 3251 H 298.064 0.432222 0.519769 0
M  V30 3252 H 300.618 1.7445 1.08427 0
M  V30 3253 H 298.848 1.37922 3.61268 0
M  V30 3254 H 300.537 1.79723 3.63943 0
M  V30 3255 H 301.303 4.06981 2.63802 0
M  V30 3256 H 297.182 3.11083 3.40218 0
M  V30 3257 H 300.726 6.4703 2.60763 0
M  V30 3258 H 296.623 5.5027 3.37451 0
M  V30 3259 H 297.391 7.56382 3.12775 0
M  V30 3260 N 300.054 -1.07777 1.14986 0
M  V30 3261 C 301.282 -1.84018 0.945773 0
M  V30 3262 C 301.697 -1.81897 -0.505863 0
M  V30 3263 O 301.054 -1.22726 -1.35072 0
M  V30 3264 C 301.105 -3.31287 1.44677 0
M  V30 3265 O 300.826 -3.33449 2.84154 0
M  V30 3266 C 302.327 -4.24311 1.28355 0
M  V30 3267 H 299.547 -0.580716 0.336169 0
M  V30 3268 H 302.091 -1.36077 1.52654 0
M  V30 3269 H 300.246 -3.76594 0.908625 0
M  V30 3270 H 300.66 -4.25427 3.06777 0
M  V30 3271 H 302.134 -5.2573 1.68261 0
M  V30 3272 H 302.611 -4.38612 0.227184 0
M  V30 3273 H 303.217 -3.84836 1.81056 0
M  V30 3274 N 301.532 -0.945985 -1.26051 0
M  V30 3275 C 302.462 -0.477172 -2.28572 0
M  V30 3276 C 303.443 0.472032 -1.63419 0
M  V30 3277 O 304.628 0.372853 -1.90587 0
M  V30 3278 C 301.758 0.253975 -3.4637 0
M  V30 3279 C 300.712 -0.609135 -4.23643 0
M  V30 3280 C 300.038 0.252252 -5.34105 0
M  V30 3281 C 301.338 -1.8829 -4.8718 0
M  V30 3282 H 303.032 -1.33402 -2.68038 0
M  V30 3283 H 300.578 -0.642904 -1.28852 0
M  V30 3284 H 302.531 0.593016 -4.17207 0
M  V30 3285 H 301.255 1.145 -3.05871 0
M  V30 3286 H 299.914 -0.931138 -3.54578 0
M  V30 3287 H 299.562 1.14278 -4.89846 0
M  V30 3288 H 299.262 -0.32188 -5.86718 0
M  V30 3289 H 300.786 0.586454 -6.07777 0
M  V30 3290 H 302.2 -1.61081 -5.50205 0
M  V30 3291 H 300.597 -2.40199 -5.49931 0
M  V30 3292 H 301.667 -2.59134 -4.09851 0
M  V30 3293 N 303.011 1.40521 -0.713556 0
M  V30 3294 C 304.259 2.00527 -0.251692 0
M  V30 3295 C 304.58 1.56857 1.15848 0
M  V30 3296 O 303.85 0.807127 1.785 0
M  V30 3297 H 302.43 0.741551 -0.0900646 0
M  V30 3298 H 305.092 1.71887 -0.918733 0
M  V30 3299 H 304.188 3.10813 -0.283192 0
M  V30 3300 N 304.489 0.459591 1.5075 0
M  V30 3301 C 305.419 -0.330644 2.31147 0
M  V30 3302 C 306.4 -1.00087 1.37538 0
M  V30 3303 O 307.585 -1.00025 1.66459 0
M  V30 3304 C 304.715 -1.41958 3.16962 0
M  V30 3305 C 303.669 -0.871608 4.19031 0
M  V30 3306 C 302.995 -2.05797 4.9351 0
M  V30 3307 C 304.295 0.109251 5.22186 0
M  V30 3308 H 305.989 0.340336 2.97459 0
M  V30 3309 H 303.535 0.165119 1.4305 0
M  V30 3310 H 305.488 -1.9798 3.71997 0
M  V30 3311 H 304.212 -2.11917 2.48513 0
M  V30 3312 H 302.871 -0.333442 3.6508 0
M  V30 3313 H 302.519 -2.74427 4.21544 0
M  V30 3314 H 302.219 -1.6976 5.62544 0
M  V30 3315 H 303.743 -2.62331 5.51375 0
M  V30 3316 H 305.157 -0.361405 5.7216 0
M  V30 3317 H 303.554 0.383316 5.98875 0
M  V30 3318 H 304.624 1.03887 4.73641 0
M  V30 3319 N 305.967 -1.56429 0.191757 0
M  V30 3320 C 307.195 -2.01867 -0.453586 0
M  V30 3321 C 307.61 -1.07191 -1.5542 0
M  V30 3322 O 306.967 -0.0762108 -1.82341 0
M  V30 3323 C 307.018 -3.47017 -1.013 0
M  V30 3324 O 306.739 -4.38078 0.0437005 0
M  V30 3325 C 308.24 -4.07956 -1.73456 0
M  V30 3326 H 305.46 -0.661211 -0.114199 0
M  V30 3327 H 308.004 -2.02295 0.299483 0
M  V30 3328 H 306.159 -3.47298 -1.71647 0
M  V30 3329 H 306.573 -5.23178 -0.372212 0
M  V30 3330 H 308.047 -5.1138 -2.07833 0
M  V30 3331 H 308.524 -3.51222 -2.63704 0
M  V30 3332 H 309.13 -4.11437 -1.07702 0
M  V30 3333 N 307.445 0.0818655 -1.57387 0
M  V30 3334 C 308.393 1.11712 -2.04018 0
M  V30 3335 C 309.387 1.40683 -0.94364 0
M  V30 3336 O 310.593 1.40209 -1.12878 0
M  V30 3337 H 306.968 0.377542 -0.650358 0
M  V30 3338 H 308.939 0.697614 -2.90131 0
M  V30 3339 C 307.688 2.42537 -2.49141 0
M  V30 3340 H 307.011 2.21092 -3.33104 0
M  V30 3341 H 308.451 3.13446 -2.85531 0
M  V30 3342 C 306.91 3.0778 -1.37014 0
M  V30 3343 O 307.44 3.95436 -0.706621 0
M  V30 3344 N 305.646 2.68242 -1.11779 0
M  V30 3345 H 305.193 1.97052 -1.65917 0
M  V30 3346 H 305.151 3.1222 -0.369594 0
M  V30 3347 N 308.923 1.53595 0.353017 0
M  V30 3348 C 310.169 1.70638 1.09593 0
M  V30 3349 C 310.502 0.463286 1.88593 0
M  V30 3350 O 309.777 -0.539597 1.86865 0
M  V30 3351 C 310.06 2.96406 2.04489 0
M  V30 3352 C 309.913 4.30901 1.29014 0
M  V30 3353 C 311.232 3.17812 3.0444 0
M  V30 3354 H 308.351 0.620913 0.397034 0
M  V30 3355 H 310.993 1.86254 0.375446 0
M  V30 3356 H 309.143 2.83223 2.65927 0
M  V30 3357 H 310.815 4.55917 0.702638 0
M  V30 3358 H 309.058 4.29741 0.592071 0
M  V30 3359 H 309.729 5.1506 1.98537 0
M  V30 3360 H 312.205 3.30263 2.53112 0
M  V30 3361 H 311.081 4.07223 3.6805 0
M  V30 3362 H 311.342 2.33669 3.75301 0
M  V30 3363 N 310.401 -0.613514 1.45168 0
M  V30 3364 C 311.649 -1.36997 1.48581 0
M  V30 3365 C 311.97 -1.94589 0.126545 0
M  V30 3366 O 311.24 -1.76816 -0.843372 0
M  V30 3367 H 309.82 -0.508558 0.547154 0
M  V30 3368 H 312.482 -0.720853 1.81079 0
M  V30 3369 H 311.578 -2.1924 2.22127 0
M  V30 3370 N 311.879 -1.3236 -0.855495 0
M  V30 3371 C 313.107 -1.2587 -1.64208 0
M  V30 3372 C 313.522 0.173457 -1.88002 0
M  V30 3373 O 312.879 1.11027 -1.44842 0
M  V30 3374 C 312.93 -2.01424 -3.00184 0
M  V30 3375 O 312.651 -3.39051 -2.77445 0
M  V30 3376 C 314.152 -2.01948 -3.94629 0
M  V30 3377 H 311.372 -0.434318 -0.511477 0
M  V30 3378 H 313.916 -1.74469 -1.0668 0
M  V30 3379 H 312.071 -1.56549 -3.5436 0
M  V30 3380 H 312.485 -3.77711 -3.63916 0
M  V30 3381 H 313.959 -2.59297 -4.87308 0
M  V30 3382 H 314.436 -1.00554 -4.27534 0
M  V30 3383 H 315.042 -2.46767 -3.4639 0
M  V30 3384 N 313.357 1.07166 -1.15556 0
M  V30 3385 C 314.587 1.83248 -0.954133 0
M  V30 3386 C 314.995 1.82449 0.500911 0
M  V30 3387 O 314.338 1.23575 1.35923 0
M  V30 3388 C 314.4 3.31393 -1.39351 0
M  V30 3389 C 314.064 3.5591 -2.86666 0
M  V30 3390 C 315.061 3.49695 -3.8472 0
M  V30 3391 C 312.746 3.83515 -3.24379 0
M  V30 3392 C 314.74 3.70737 -5.18491 0
M  V30 3393 C 312.427 4.04209 -4.58321 0
M  V30 3394 C 313.425 3.97815 -5.55186 0
M  V30 3395 O 313.113 4.17954 -6.86709 0
M  V30 3396 H 312.845 0.584941 -0.338851 0
M  V30 3397 H 315.399 1.36169 -1.53777 0
M  V30 3398 H 313.629 3.79292 -0.75329 0
M  V30 3399 H 315.318 3.88945 -1.16089 0
M  V30 3400 H 316.084 3.28368 -3.56931 0
M  V30 3401 H 311.963 3.87605 -2.49567 0
M  V30 3402 H 315.507 3.65663 -5.94085 0
M  V30 3403 H 311.404 4.25023 -4.85825 0
M  V30 3404 H 312.172 4.35291 -6.93155 0
M  V30 3405 N 314.835 0.952656 1.25548 0
M  V30 3406 C 315.782 0.47008 2.25962 0
M  V30 3407 C 316.752 -0.476384 1.59122 0
M  V30 3408 O 317.937 -0.39007 1.8677 0
M  V30 3409 C 315.077 -0.247881 3.44209 0
M  V30 3410 C 314.19 0.735591 4.25691 0
M  V30 3411 C 313.325 -0.0047306 5.312 0
M  V30 3412 C 312.364 0.969805 6.04368 0
M  V30 3413 N 311.501 0.260486 7.01617 0
M  V30 3414 H 316.341 1.33126 2.66611 0
M  V30 3415 H 313.878 0.66765 1.31076 0
M  V30 3416 H 315.836 -0.680695 4.1161 0
M  V30 3417 H 314.466 -1.07312 3.0444 0
M  V30 3418 H 313.518 1.28689 3.57971 0
M  V30 3419 H 314.83 1.47934 4.76358 0
M  V30 3420 H 313.984 -0.496275 6.04667 0
M  V30 3421 H 312.723 -0.781282 4.81401 0
M  V30 3422 H 311.728 1.47237 5.29718 0
M  V30 3423 H 312.953 1.74655 6.56256 0
M  V30 3424 H 310.899 -0.497364 6.54112 0
M  V30 3425 H 310.816 0.943362 7.50091 0
M  V30 3426 H 312.084 -0.209587 7.79218 0
M  V30 3427 N 316.313 -1.40141 0.720998 0
M  V30 3428 C 317.246 -2.2819 0.020916 0
M  V30 3429 C 318.224 -1.43633 -0.762129 0
M  V30 3430 O 319.408 -1.7304 -0.747633 0
M  V30 3431 C 316.535 -3.24281 -0.977715 0
M  V30 3432 C 315.581 -4.25548 -0.284836 0
M  V30 3433 S 316.414 -5.26247 0.991169 0
M  V30 3434 C 317.57 -6.259 -0.0052214 0
M  V30 3435 H 317.803 -2.87218 0.767649 0
M  V30 3436 H 315.336 -1.45656 0.512233 0
M  V30 3437 H 317.294 -3.80167 -1.54865 0
M  V30 3438 H 315.955 -2.643 -1.69719 0
M  V30 3439 H 315.148 -4.93154 -1.03996 0
M  V30 3440 H 314.75 -3.73389 0.213684 0
M  V30 3441 H 317.042 -6.72143 -0.850279 0
M  V30 3442 H 317.985 -7.05224 0.637599 0
M  V30 3443 H 318.393 -5.63277 -0.371366 0
M  V30 3444 N 317.792 -0.46758 -1.50504 0
M  V30 3445 C 318.702 0.33382 -2.32213 0
M  V30 3446 C 319.718 0.999323 -1.42441 0
M  V30 3447 O 320.894 0.988068 -1.75497 0
M  V30 3448 C 317.959 1.4035 -3.17022 0
M  V30 3449 C 317.02 0.754961 -4.2261 0
M  V30 3450 C 316.253 1.77367 -5.03365 0
M  V30 3451 O 316.476 2.99976 -4.8515 0
M  V30 3452 O 315.41 1.34744 -5.86624 0
M  V30 3453 H 319.236 -0.334067 -3.01857 0
M  V30 3454 H 316.821 -0.229496 -1.47627 0
M  V30 3455 H 318.703 2.02318 -3.69656 0
M  V30 3456 H 317.378 2.05492 -2.5011 0
M  V30 3457 H 316.285 0.0964244 -3.73976 0
M  V30 3458 H 317.618 0.146545 -4.91982 0
M  V30 3459 N 319.27 1.56325 -0.20005 0
M  V30 3460 C 320.2 2.22318 0.713916 0
M  V30 3461 C 321.181 1.18788 1.21752 0
M  V30 3462 O 322.366 1.47309 1.26545 0
M  V30 3463 C 319.496 2.88639 1.93144 0
M  V30 3464 C 318.45 3.98457 1.56255 0
M  V30 3465 C 317.776 4.51967 2.85709 0
M  V30 3466 C 319.076 5.16612 0.768747 0
M  V30 3467 H 320.77 2.98952 0.163755 0
M  V30 3468 H 318.316 1.43792 0.0773219 0
M  V30 3469 H 320.269 3.33491 2.57608 0
M  V30 3470 H 318.993 2.09419 2.50621 0
M  V30 3471 H 317.652 3.54305 0.941471 0
M  V30 3472 H 317.3 3.69503 3.41287 0
M  V30 3473 H 317 5.26071 2.6177 0
M  V30 3474 H 318.524 4.99523 3.51154 0
M  V30 3475 H 319.938 5.57977 1.3166 0
M  V30 3476 H 318.335 5.96812 0.627286 0
M  V30 3477 H 319.405 4.84358 -0.229168 0
M  V30 3478 N 320.748 -0.0735177 1.57428 0
M  V30 3479 C 322.159 -0.625551 1.75908 0
M  V30 3480 C 322.51 -1.78 0.825261 0
M  V30 3481 O 321.635 -2.16398 0.00893964 0
M  V30 3482 C 322.23 -1.14155 3.18989 0
M  V30 3483 C 320.789 -1.63946 3.38819 0
M  V30 3484 C 319.936 -0.558151 2.71625 0
M  V30 3485 H 322.887 0.152647 1.57964 0
M  V30 3486 H 322.908 -2.0104 3.23053 0
M  V30 3487 H 322.42 -0.301116 3.8693 0
M  V30 3488 H 320.521 -2.50321 2.7599 0
M  V30 3489 H 320.634 -1.71759 4.47253 0
M  V30 3490 H 318.998 -1.00278 2.34129 0
M  V30 3491 H 319.781 0.272071 3.4222 0
M  V30 3492 N 322.226 -1.5378 -0.344866 0
M  V30 3493 C 323.474 -1.70625 -1.08311 0
M  V30 3494 C 323.795 -0.471447 -1.89215 0
M  V30 3495 O 323.065 0.514616 -1.8902 0
M  V30 3496 H 321.645 -0.629058 -0.402859 0
M  V30 3497 H 324.307 -1.9103 -0.386459 0
M  V30 3498 H 323.403 -2.57656 -1.76124 0
M  V30 3499 N 323.704 0.605807 -1.45491 0
M  V30 3500 C 324.952 1.36207 -1.49305 0
M  V30 3501 C 325.273 1.94519 -0.136863 0
M  V30 3502 O 324.543 1.77261 0.833983 0
M  V30 3503 H 323.123 0.50565 -0.549843 0
M  V30 3504 H 325.785 0.711239 -1.81459 0
M  V30 3505 H 324.881 2.18058 -2.23287 0
M  V30 3506 N 325.182 1.32811 0.848464 0
M  V30 3507 C 326.41 1.26739 1.63538 0
M  V30 3508 C 326.825 -0.163484 1.88091 0
M  V30 3509 O 326.182 -1.10258 1.45429 0
M  V30 3510 C 326.233 2.03013 2.99112 0
M  V30 3511 O 325.954 3.40518 2.75643 0
M  V30 3512 C 327.455 2.04038 3.93552 0
M  V30 3513 H 324.675 0.437024 0.509167 0
M  V30 3514 H 327.219 1.75033 1.05753 0
M  V30 3515 H 325.374 1.58426 3.53525 0
M  V30 3516 H 325.788 3.79635 3.61908 0
M  V30 3517 H 327.262 2.61877 4.85926 0
M  V30 3518 H 327.739 1.0282 4.26995 0
M  V30 3519 H 328.345 2.486 3.45077 0
M  V30 3520 N 326.66 -1.06551 1.16123 0
M  V30 3521 C 327.908 -1.78947 0.939267 0
M  V30 3522 C 328.229 -1.87532 -0.534476 0
M  V30 3523 O 327.499 -1.38211 -1.38833 0
M  V30 3524 H 326.079 -0.662807 0.344523 0
M  V30 3525 H 328.741 -1.28725 1.46342 0
M  V30 3526 H 327.837 -2.81117 1.35572 0
M  V30 3527 N 328.138 -0.959301 -1.25041 0
M  V30 3528 C 329.378 -0.624343 -1.94631 0
M  V30 3529 C 329.742 0.82403 -1.73418 0
M  V30 3530 O 330.943 1.26881 -2.3697 0
M  V30 3531 C 329.214 -0.978805 -3.43736 0
M  V30 3532 S 330.773 -0.757127 -4.32219 0
M  V30 3533 H 327.591 -0.229327 -0.673001 0
M  V30 3534 H 330.193 -1.23447 -1.51595 0
M  V30 3535 H 328.897 -2.02997 -3.56679 0
M  V30 3536 H 328.428 -0.359117 -3.91757 0
M  V30 3537 H 330.443 0.369759 -4.9482 0
M  V30 3538 N 329.616 1.39756 -0.72842 0
M  V30 3539 C 330.548 2.29157 -0.0446202 0
M  V30 3540 C 331.561 1.46484 0.710367 0
M  V30 3541 O 332.75 1.69632 0.55562 0
M  V30 3542 C 329.85 3.24987 0.961071 0
M  V30 3543 C 329.023 4.36572 0.268967 0
M  V30 3544 C 328.082 5.12756 1.18184 0
M  V30 3545 O 327.108 5.6534 0.661794 0
M  V30 3546 N 328.31 5.23331 2.51206 0
M  V30 3547 H 331.075 2.88482 -0.812295 0
M  V30 3548 H 328.636 1.51265 -0.577098 0
M  V30 3549 H 330.628 3.72827 1.57423 0
M  V30 3550 H 329.198 2.66739 1.63 0
M  V30 3551 H 328.418 3.90694 -0.524574 0
M  V30 3552 H 329.706 5.08363 -0.210934 0
M  V30 3553 H 329.104 4.82116 2.9594 0
M  V30 3554 H 327.661 5.74634 3.07634 0
M  V30 3555 N 331.094 0.475555 1.50254 0
M  V30 3556 C 332.505 0.0215174 1.86688 0
M  V30 3557 C 332.856 -1.38467 1.39001 0
M  V30 3558 O 331.981 -2.02732 0.756894 0
M  V30 3559 C 332.576 0.0322715 3.38785 0
M  V30 3560 C 331.135 -0.366314 3.74613 0
M  V30 3561 C 330.282 0.415832 2.74164 0
M  V30 3562 H 333.233 0.689612 1.42934 0
M  V30 3563 H 333.254 -0.76889 3.7265 0
M  V30 3564 H 332.766 1.05584 3.73462 0
M  V30 3565 H 330.867 -1.39406 3.45538 0
M  V30 3566 H 330.98 -0.064555 4.79057 0
M  V30 3567 H 329.344 -0.131048 2.54363 0
M  V30 3568 H 330.127 1.43899 3.11686 0
M  V30 3569 N 332.573 -1.56217 0.208337 0
M  V30 3570 C 333.801 -2.02337 -0.43215 0
M  V30 3571 C 334.216 -1.08834 -1.54275 0
M  V30 3572 O 333.573 -0.0955462 -1.8225 0
M  V30 3573 C 333.624 -3.48072 -0.976138 0
M  V30 3574 O 333.345 -4.38007 0.0901621 0
M  V30 3575 C 334.846 -4.09773 -1.69119 0
M  V30 3576 H 332.066 -0.662385 -0.10718 0
M  V30 3577 H 334.61 -2.01966 0.320923 0
M  V30 3578 H 332.765 -3.49099 -1.67954 0
M  V30 3579 H 333.179 -5.23543 -0.316701 0
M  V30 3580 H 334.653 -5.13556 -2.02397 0
M  V30 3581 H 335.13 -3.53999 -2.59964 0
M  V30 3582 H 335.736 -4.12556 -1.03332 0
M  V30 3583 N 334.051 0.0651679 -1.57465 0
M  V30 3584 C 334.984 1.10876 -1.99453 0
M  V30 3585 C 335.962 1.37205 -0.872555 0
M  V30 3586 O 337.146 1.50468 -1.13542 0
M  V30 3587 C 334.273 2.45167 -2.3369 0
M  V30 3588 C 333.319 2.3493 -3.55964 0
M  V30 3589 S 334.152 1.73708 -5.06543 0
M  V30 3590 C 335.308 3.09563 -5.43987 0
M  V30 3591 H 335.541 0.750967 -2.87659 0
M  V30 3592 H 333.074 0.273933 -1.51951 0
M  V30 3593 H 335.032 3.22412 -2.54088 0
M  V30 3594 H 333.693 2.78105 -1.46001 0
M  V30 3595 H 332.886 3.3398 -3.77457 0
M  V30 3596 H 332.488 1.65823 -3.3523 0
M  V30 3597 H 334.78 4.05882 -5.42463 0
M  V30 3598 H 335.723 2.92843 -6.44708 0
M  V30 3599 H 336.131 3.10474 -4.71451 0
M  V30 3600 N 335.529 1.53961 0.336706 0
M  V30 3601 C 336.769 1.73254 1.08454 0
M  V30 3602 C 337.133 0.488937 1.8567 0
M  V30 3603 O 338.334 0.559001 2.62923 0
M  V30 3604 C 336.605 2.96519 1.99528 0
M  V30 3605 S 338.164 3.36655 2.81441 0
M  V30 3606 H 334.982 0.609353 0.366347 0
M  V30 3607 H 337.584 1.92117 0.362124 0
M  V30 3608 H 336.288 3.85193 1.41614 0
M  V30 3609 H 335.819 2.80142 2.76196 0
M  V30 3610 H 337.834 2.90925 4.01967 0
M  V30 3611 N 337.007 -0.598083 1.45811 0
M  V30 3612 C 338.418 -1.18011 1.44673 0
M  V30 3613 C 338.769 -1.95378 0.179364 0
M  V30 3614 O 337.894 -2.04124 -0.718509 0
M  V30 3615 C 338.489 -2.14677 2.62105 0
M  V30 3616 C 337.048 -2.68236 2.64057 0
M  V30 3617 C 336.195 -1.43816 2.37091 0
M  V30 3618 H 339.146 -0.38686 1.53913 0
M  V30 3619 H 339.167 -2.97878 2.36746 0
M  V30 3620 H 338.679 -1.5834 3.5433 0
M  V30 3621 H 336.78 -3.28486 1.75864 0
M  V30 3622 H 336.893 -3.12021 3.63566 0
M  V30 3623 H 335.257 -1.731 1.86838 0
M  V30 3624 H 336.04 -0.893333 3.31473 0
M  V30 3625 N 338.485 -1.33259 -0.841409 0
M  V30 3626 C 339.762 -1.15174 -1.58096 0
M  V30 3627 C 340.142 0.282858 -2.09196 0
M  V30 3628 O 339.49 1.28151 -1.89181 0
M  V30 3629 C 339.7 -2.1907 -2.71679 0
M  V30 3630 C 341.048 -2.53093 -3.40924 0
M  V30 3631 O 342.072 -2.17717 -2.81918 0
M  V30 3632 O 340.931 -3.1379 -4.47435 0
M  V30 3633 H 338.025 -0.445303 -0.696875 0
M  V30 3634 H 340.571 -1.44833 -0.884385 0
M  V30 3635 H 339.343 -3.15443 -2.31541 0
M  V30 3636 H 338.966 -1.90481 -3.49002 0
M  V30 3637 N 339.963 1.05934 -1.16686 0
M  V30 3638 C 341.209 1.79065 -0.95203 0
M  V30 3639 C 341.542 1.87147 0.518629 0
M  V30 3640 O 340.817 1.36574 1.38484 0
M  V30 3641 C 341.1 3.23359 -1.58464 0
M  V30 3642 C 340.953 3.23336 -3.12689 0
M  V30 3643 C 342.272 4.21004 -1.28232 0
M  V30 3644 H 339.391 0.65005 -0.34728 0
M  V30 3645 H 342.033 1.23868 -1.44072 0
M  V30 3646 H 340.183 3.70493 -1.16908 0
M  V30 3647 H 341.855 2.84336 -3.6325 0
M  V30 3648 H 340.098 2.61886 -3.4583 0
M  V30 3649 H 340.769 4.25144 -3.52075 0
M  V30 3650 H 343.245 3.8233 -1.64203 0
M  V30 3651 H 342.121 5.20225 -1.75092 0
M  V30 3652 H 342.382 4.41639 -0.201791 0
M  V30 3653 N 341.441 0.965919 1.2453 0
M  V30 3654 C 342.688 0.626831 1.92554 0
M  V30 3655 C 343.016 -0.837739 1.75534 0
M  V30 3656 O 342.271 -1.61793 1.10098 0
M  V30 3657 C 342.57 0.945428 3.44669 0
M  V30 3658 C 342.236 2.39785 3.81856 0
M  V30 3659 C 340.898 2.79483 3.91718 0
M  V30 3660 C 343.25 3.34055 4.00071 0
M  V30 3661 C 340.578 4.12496 4.1721 0
M  V30 3662 C 342.93 4.66694 4.27059 0
M  V30 3663 C 341.594 5.06172 4.3514 0
M  V30 3664 H 340.864 0.229374 0.704605 0
M  V30 3665 H 343.511 1.21707 1.4785 0
M  V30 3666 H 341.816 0.272926 3.90848 0
M  V30 3667 H 343.513 0.661484 3.95507 0
M  V30 3668 H 340.103 2.08003 3.74743 0
M  V30 3669 H 344.287 3.04571 3.91855 0
M  V30 3670 H 339.543 4.42709 4.21685 0
M  V30 3671 H 343.717 5.3971 4.40097 0
M  V30 3672 H 341.344 6.09262 4.54646 0
M  V30 3673 N 342.919 -1.39368 0.735821 0
M  V30 3674 C 344.335 -1.54204 0.411492 0
M  V30 3675 C 344.535 -1.70268 -1.07755 0
M  V30 3676 O 343.591 -1.70364 -1.86366 0
M  V30 3677 C 344.904 -2.75925 1.19523 0
M  V30 3678 C 346.452 -2.89761 1.18354 0
M  V30 3679 C 346.927 -4.14421 1.94986 0
M  V30 3680 N 348.418 -4.21462 1.92156 0
M  V30 3681 C 349.153 -5.16871 2.48258 0
M  V30 3682 N 348.649 -6.18063 3.13001 0
M  V30 3683 N 350.442 -5.09093 2.38287 0
M  V30 3684 H 342.593 -1.27189 1.70108 0
M  V30 3685 H 344.856 -0.616517 0.720147 0
M  V30 3686 H 344.562 -2.70401 2.24892 0
M  V30 3687 H 344.436 -3.68614 0.800222 0
M  V30 3688 H 346.823 -2.94777 0.137975 0
M  V30 3689 H 346.904 -1.98133 1.61793 0
M  V30 3690 H 346.548 -4.10166 2.99543 0
M  V30 3691 H 346.478 -5.05095 1.48953 0
M  V30 3692 H 348.969 -3.48979 1.44991 0
M  V30 3693 H 349.282 -6.87326 3.53275 0
M  V30 3694 H 347.627 -6.18448 3.17091 0
M  V30 3695 H 350.818 -4.28973 1.8735 0
M  V30 3696 H 350.991 -5.83272 2.82308 0
M  V30 3697 N 344.397 -0.483516 -1.5 0
M  V30 3698 C 345.645 0.067027 -2.01989 0
M  V30 3699 C 345.966 1.3909 -1.36671 0
M  V30 3700 O 345.236 1.88978 -0.516152 0
M  V30 3701 H 343.816 0.0277606 -0.746484 0
M  V30 3702 H 346.478 -0.636773 -1.84204 0
M  V30 3703 H 345.574 0.209484 -3.11396 0
M  V30 3704 N 345.875 1.56104 -0.216619 0
M  V30 3705 C 347.286 1.844 0.292128 0
M  V30 3706 C 347.637 1.13788 1.59833 0
M  V30 3707 O 346.762 0.405888 2.12559 0
M  V30 3708 C 347.357 3.3452 0.53681 0
M  V30 3709 C 345.916 3.63151 0.989876 0
M  V30 3710 C 345.063 2.77255 0.0502302 0
M  V30 3711 H 348.014 1.52481 -0.439926 0
M  V30 3712 H 348.035 3.54459 1.38345 0
M  V30 3713 H 347.547 3.85885 -0.414031 0
M  V30 3714 H 345.648 3.17238 1.95425 0
M  V30 3715 H 345.761 4.71177 0.867698 0
M  V30 3716 H 344.125 2.48555 0.556117 0
M  V30 3717 H 344.908 3.31416 -0.89544 0
M  V30 3718 N 347.353 -0.0568162 1.57498 0
M  V30 3719 C 348.599 -0.748893 1.89111 0
M  V30 3720 C 348.954 -1.74422 0.81208 0
M  V30 3721 O 348.247 -1.90731 -0.182247 0
M  V30 3722 C 348.441 -1.48359 3.25153 0
M  V30 3723 C 348.27 -0.560924 4.46188 0
M  V30 3724 C 347.04 -0.192264 5.04934 0
M  V30 3725 C 349.238 0.148824 5.14085 0
M  V30 3726 N 347.22 0.734555 6.0949 0
M  V30 3727 C 348.591 0.932286 6.12951 0
M  V30 3728 C 350.646 0.218713 4.97419 0
M  V30 3729 C 349.349 1.77917 6.96949 0
M  V30 3730 C 351.375 1.05262 5.81957 0
M  V30 3731 C 350.737 1.82409 6.80372 0
M  V30 3732 H 346.836 -0.249002 0.741298 0
M  V30 3733 H 349.42 -0.00984926 1.94698 0
M  V30 3734 H 347.591 -2.19326 3.20547 0
M  V30 3735 H 349.323 -2.12586 3.44368 0
M  V30 3736 H 346.078 -0.548421 4.70414 0
M  V30 3737 H 346.502 1.19165 6.6643 0
M  V30 3738 H 351.144 -0.363407 4.21235 0
M  V30 3739 H 348.862 2.3722 7.72497 0
M  V30 3740 H 352.448 1.10987 5.71116 0
M  V30 3741 H 351.328 2.45895 7.44651 0
M  V30 3742 N 348.832 -1.54138 -0.328536 0
M  V30 3743 C 350.08 -1.71765 -1.06496 0
M  V30 3744 C 350.401 -0.49149 -1.88704 0
M  V30 3745 O 349.671 0.494539 -1.89555 0
M  V30 3746 H 348.251 -0.633295 -0.396164 0
M  V30 3747 H 350.913 -1.91429 -0.366176 0
M  V30 3748 H 350.009 -2.5951 -1.73381 0
M  V30 3749 N 350.31 0.590341 -1.46126 0
M  V30 3750 C 351.558 1.34616 -1.50742 0
M  V30 3751 C 351.879 1.94363 -0.157486 0
M  V30 3752 O 351.149 1.78136 0.815136 0
M  V30 3753 H 349.729 0.499789 -0.555175 0
M  V30 3754 H 352.391 0.691953 -1.82203 0
M  V30 3755 H 351.487 2.15678 -2.25587 0
M  V30 3756 N 351.788 1.33704 0.83433 0
M  V30 3757 C 353.013 1.28615 1.62705 0
M  V30 3758 C 353.438 -0.139242 1.87584 0
M  V30 3759 O 352.796 -1.09734 1.4432 0
M  V30 3760 C 352.844 2.07139 2.95171 0
M  V30 3761 O 351.948 1.4331 3.86699 0
M  V30 3762 H 351.289 0.44226 0.49528 0
M  V30 3763 H 353.819 1.76335 1.03766 0
M  V30 3764 H 353.829 2.18073 3.44831 0
M  V30 3765 H 352.504 3.10779 2.76386 0
M  V30 3766 H 351.081 1.4105 3.45195 0
M  V30 3767 N 353.266 -1.05314 1.17247 0
M  V30 3768 C 354.216 -2.11313 0.856196 0
M  V30 3769 C 355.2 -1.60013 -0.168694 0
M  V30 3770 O 356.392 -1.76968 0.0335624 0
M  V30 3771 C 353.521 -3.41301 0.369917 0
M  V30 3772 C 352.607 -3.99401 1.42616 0
M  V30 3773 N 352.998 -4.31481 2.63928 0
M  V30 3774 C 351.296 -4.27126 1.28373 0
M  V30 3775 C 351.997 -4.77799 3.31787 0
M  V30 3776 N 350.973 -4.77843 2.59166 0
M  V30 3777 H 354.775 -2.33976 1.77856 0
M  V30 3778 H 352.289 -1.2295 1.06099 0
M  V30 3779 H 354.286 -4.16713 0.124897 0
M  V30 3780 H 352.946 -3.20072 -0.546253 0
M  V30 3781 H 353.957 -4.21519 3.00902 0
M  V30 3782 H 350.634 -4.15289 0.429111 0
M  V30 3783 H 352.024 -5.11743 4.35395 0
M  V30 3784 N 354.744 -0.972509 -1.24016 0
M  V30 3785 C 355.984 -0.644951 -1.93958 0
M  V30 3786 C 356.348 0.80559 -1.74282 0
M  V30 3787 O 357.549 1.2436 -2.38302 0
M  V30 3788 C 355.82 -1.01521 -3.42678 0
M  V30 3789 S 357.379 -0.802927 -4.31391 0
M  V30 3790 H 354.197 -0.236452 -0.670531 0
M  V30 3791 H 356.799 -1.25048 -1.50277 0
M  V30 3792 H 355.503 -2.06769 -3.54506 0
M  V30 3793 H 355.034 -0.400648 -3.91355 0
M  V30 3794 H 357.049 0.317256 -4.95185 0
M  V30 3795 N 356.222 1.38976 -0.743202 0
M  V30 3796 C 357.638 1.53984 -0.419664 0
M  V30 3797 C 357.838 1.70837 1.0685 0
M  V30 3798 O 356.894 1.7135 1.8546 0
M  V30 3799 C 358.207 2.75287 -1.20985 0
M  V30 3800 C 359.755 2.89129 -1.19889 0
M  V30 3801 C 360.23 4.13381 -1.97181 0
M  V30 3802 N 361.721 4.20437 -1.94389 0
M  V30 3803 C 362.456 5.15547 -2.50996 0
M  V30 3804 N 361.952 6.16395 -3.16274 0
M  V30 3805 N 363.745 5.07822 -2.40984 0
M  V30 3806 H 355.896 1.26285 -1.7078 0
M  V30 3807 H 358.159 0.612689 -0.723406 0
M  V30 3808 H 357.865 2.69204 -2.26323 0
M  V30 3809 H 357.739 3.68184 -0.819759 0
M  V30 3810 H 360.126 2.947 -0.153606 0
M  V30 3811 H 360.207 1.97272 -1.62841 0
M  V30 3812 H 359.851 4.08572 -3.01714 0
M  V30 3813 H 359.781 5.04298 -1.51629 0
M  V30 3814 H 362.272 3.48205 -1.46839 0
M  V30 3815 H 362.585 6.85443 -3.56915 0
M  V30 3816 H 360.93 6.16758 -3.20367 0
M  V30 3817 H 364.121 4.27973 -1.89622 0
M  V30 3818 H 364.294 5.81767 -2.85397 0
M  V30 3819 N 357.7 0.491464 1.49741 0
M  V30 3820 C 358.977 -0.118984 1.95238 0
M  V30 3821 C 359.357 -1.55044 1.43264 0
M  V30 3822 O 358.705 -2.19287 0.642287 0
M  V30 3823 C 358.915 -0.0414187 3.48975 0
M  V30 3824 C 360.263 -0.220133 4.24029 0
M  V30 3825 O 361.287 -0.117055 3.56008 0
M  V30 3826 O 360.146 -0.430567 5.44801 0
M  V30 3827 H 357.24 -0.100536 0.820866 0
M  V30 3828 H 359.786 0.553322 1.60426 0
M  V30 3829 H 358.558 0.957214 3.79412 0
M  V30 3830 H 358.181 -0.754292 3.9038 0
M  V30 3831 N 359.178 -1.55987 0.224894 0
M  V30 3832 C 360.403 -2.03232 -0.41369 0
M  V30 3833 C 360.828 -1.10359 -1.52323 0
M  V30 3834 O 360.186 -0.092395 -1.81064 0
M  V30 3835 C 360.234 -3.48682 -0.919405 0
M  V30 3836 O 359.338 -3.58947 -2.03054 0
M  V30 3837 H 358.679 -0.657428 -0.0931903 0
M  V30 3838 H 361.209 -2.01679 0.34451 0
M  V30 3839 H 361.219 -3.8907 -1.22835 0
M  V30 3840 H 359.894 -4.15761 -0.107339 0
M  V30 3841 H 358.471 -3.30448 -1.72796 0
M  V30 3842 N 360.656 0.0484629 -1.57525 0
M  V30 3843 C 362.067 0.597486 -1.76881 0
M  V30 3844 C 362.418 1.76664 -0.853475 0
M  V30 3845 O 361.543 2.16357 -0.0433656 0
M  V30 3846 C 362.138 1.09066 -3.20765 0
M  V30 3847 C 360.697 1.58535 -3.41385 0
M  V30 3848 C 359.844 0.514868 -2.72478 0
M  V30 3849 H 362.795 -0.177758 -1.57701 0
M  V30 3850 H 362.816 1.95875 -3.2621 0
M  V30 3851 H 362.328 0.239521 -3.8736 0
M  V30 3852 H 360.429 2.45898 -2.79937 0
M  V30 3853 H 360.542 1.64622 -4.49929 0
M  V30 3854 H 358.906 0.965407 -2.35695 0
M  V30 3855 H 359.689 -0.32648 -3.41744 0
M  V30 3856 N 362.134 1.5431 0.320358 0
M  V30 3857 C 363.38 1.72924 1.05949 0
M  V30 3858 C 363.713 0.503185 1.87568 0
M  V30 3859 O 362.988 -0.499839 1.87968 0
M  V30 3860 C 363.271 3.00676 1.98156 0
M  V30 3861 C 363.124 4.3354 1.19845 0
M  V30 3862 C 364.443 3.24198 2.9763 0
M  V30 3863 H 361.562 0.629195 0.383774 0
M  V30 3864 H 364.204 1.87008 0.335854 0
M  V30 3865 H 362.354 2.888 2.59859 0
M  V30 3866 H 364.026 4.57305 0.605773 0
M  V30 3867 H 362.269 4.309 0.500784 0
M  V30 3868 H 362.94 5.19156 1.87567 0
M  V30 3869 H 365.416 3.35557 2.4605 0
M  V30 3870 H 364.292 4.14938 3.59329 0
M  V30 3871 H 364.553 2.41577 3.7026 0
M  V30 3872 N 363.613 -0.582584 1.46437 0
M  V30 3873 C 364.545 -1.70618 1.53043 0
M  V30 3874 C 365.558 -1.57322 0.418769 0
M  V30 3875 O 366.747 -1.64744 0.687136 0
M  V30 3876 C 363.847 -3.08869 1.39474 0
M  V30 3877 C 363.02 -3.48166 2.64762 0
M  V30 3878 C 362.079 -4.65478 2.4539 0
M  V30 3879 O 361.105 -4.71333 3.19114 0
M  V30 3880 N 362.307 -5.60365 1.51564 0
M  V30 3881 H 365.072 -1.65405 2.49923 0
M  V30 3882 H 362.633 -0.768567 1.42494 0
M  V30 3883 H 364.625 -3.85143 1.24287 0
M  V30 3884 H 363.195 -3.08449 0.507758 0
M  V30 3885 H 362.415 -2.61598 2.9489 0
M  V30 3886 H 363.703 -3.71188 3.4799 0
M  V30 3887 H 363.101 -5.5837 0.907705 0
M  V30 3888 H 361.658 -6.36068 1.4234 0
M  V30 3889 N 365.091 -1.34144 -0.827227 0
M  V30 3890 C 366.319 -1.29325 -1.61501 0
M  V30 3891 C 366.734 0.13354 -1.88327 0
M  V30 3892 O 366.091 1.0793 -1.47164 0
M  V30 3893 C 366.142 -2.07746 -2.95844 0
M  V30 3894 O 365.863 -3.4486 -2.70191 0
M  V30 3895 C 367.364 -2.10273 -3.90256 0
M  V30 3896 H 364.584 -0.445069 -0.50215 0
M  V30 3897 H 367.128 -1.76693 -1.02955 0
M  V30 3898 H 365.283 -1.6403 -3.5096 0
M  V30 3899 H 365.697 -3.85345 -3.55822 0
M  V30 3900 H 367.171 -2.69575 -4.81698 0
M  V30 3901 H 367.648 -1.096 -4.25305 0
M  V30 3902 H 368.254 -2.54059 -3.41078 0
M  V30 3903 N 366.569 1.04691 -1.17803 0
M  V30 3904 C 367.818 1.77176 -0.963931 0
M  V30 3905 C 368.131 1.88888 0.508015 0
M  V30 3906 O 369.337 2.58164 0.840465 0
M  V30 3907 C 367.793 3.18518 -1.67555 0
M  V30 3908 C 367.401 3.14919 -3.18637 0
M  V30 3909 C 369.145 3.95424 -1.54402 0
M  V30 3910 C 367.052 4.51081 -3.82466 0
M  V30 3911 H 365.982 0.664116 -0.357023 0
M  V30 3912 H 368.633 1.17303 -1.4111 0
M  V30 3913 H 367.015 3.78748 -1.15613 0
M  V30 3914 H 368.189 2.64178 -3.77554 0
M  V30 3915 H 366.504 2.51512 -3.31859 0
M  V30 3916 H 369.101 4.96106 -1.99456 0
M  V30 3917 H 369.444 4.13343 -0.495329 0
M  V30 3918 H 369.977 3.41754 -2.0359 0
M  V30 3919 H 366.716 4.38368 -4.87354 0
M  V30 3920 H 366.236 5.01951 -3.28337 0
M  V30 3921 H 367.915 5.2001 -3.84965 0
M  V30 3922 N 368.047 0.979072 1.23499 0
M  V30 3923 C 369.463 0.687475 1.44034 0
M  V30 3924 C 369.663 -0.746801 1.8715 0
M  V30 3925 O 368.719 -1.51939 2.0167 0
M  V30 3926 C 370.032 1.68127 2.49307 0
M  V30 3927 C 371.58 1.69516 2.63122 0
M  V30 3928 C 372.055 2.67723 3.71603 0
M  V30 3929 N 373.546 2.66233 3.79044 0
M  V30 3930 C 374.281 3.38891 4.62537 0
M  V30 3931 N 373.777 4.21103 5.50131 0
M  V30 3932 N 375.57 3.27661 4.56721 0
M  V30 3933 H 367.721 1.90559 0.938135 0
M  V30 3934 H 369.984 0.821051 0.473897 0
M  V30 3935 H 369.69 2.70693 2.2454 0
M  V30 3936 H 369.564 1.46306 3.4767 0
M  V30 3937 H 371.951 0.676561 2.8724 0
M  V30 3938 H 372.032 1.95404 1.65079 0
M  V30 3939 H 371.676 3.69724 3.48233 0
M  V30 3940 H 371.606 2.39111 4.69184 0
M  V30 3941 H 374.097 2.06568 3.16446 0
M  V30 3942 H 374.41 4.73403 6.10827 0
M  V30 3943 H 372.755 4.25195 5.49759 0
M  V30 3944 H 375.946 2.62887 3.87309 0
M  V30 3945 H 376.119 3.84547 5.21562 0
M  V30 3946 N 369.525 -1.3858 0.750561 0
M  V30 3947 C 370.472 -2.30483 0.120835 0
M  V30 3948 C 371.442 -1.50022 -0.712923 0
M  V30 3949 O 372.627 -1.78662 -0.669676 0
M  V30 3950 C 369.767 -3.36431 -0.768666 0
M  V30 3951 C 368.88 -4.31927 0.0793922 0
M  V30 3952 C 368.015 -5.24944 -0.81283 0
M  V30 3953 C 367.054 -6.12088 0.0390447 0
M  V30 3954 N 366.191 -6.97412 -0.809969 0
M  V30 3955 H 371.031 -2.83761 0.91015 0
M  V30 3956 H 368.568 -1.39707 0.460463 0
M  V30 3957 H 370.526 -3.96462 -1.29898 0
M  V30 3958 H 369.156 -2.8457 -1.5238 0
M  V30 3959 H 368.208 -3.73382 0.727303 0
M  V30 3960 H 369.52 -4.93319 0.737401 0
M  V30 3961 H 368.674 -5.90078 -1.41042 0
M  V30 3962 H 367.413 -4.63911 -1.50458 0
M  V30 3963 H 366.418 -5.45952 0.649328 0
M  V30 3964 H 367.643 -6.75189 0.727809 0
M  V30 3965 H 365.589 -6.38931 -1.48672 0
M  V30 3966 H 365.506 -7.55712 -0.208789 0
M  V30 3967 H 366.774 -7.66959 -1.39263 0
M  V30 3968 N 371.003 -0.499398 -1.49478 0
M  V30 3969 C 372.243 0.0440751 -2.04352 0
M  V30 3970 C 372.607 1.34423 -1.37093 0
M  V30 3971 O 373.808 1.97184 -1.82679 0
M  V30 3972 C 372.079 0.194918 -3.56868 0
M  V30 3973 S 373.638 0.69287 -4.33295 0
M  V30 3974 H 370.456 0.00253458 -0.710995 0
M  V30 3975 H 373.058 -0.673 -1.83551 0
M  V30 3976 H 371.762 -0.756672 -4.03364 0
M  V30 3977 H 371.293 0.93728 -3.82071 0
M  V30 3978 H 373.308 1.96226 -4.55752 0
M  V30 3979 N 372.481 1.55866 -0.233164 0
M  V30 3980 C 373.706 2.03449 0.402906 0
M  V30 3981 C 374.131 1.11166 1.51736 0
M  V30 3982 O 373.489 0.101996 1.81013 0
M  V30 3983 C 373.537 3.49165 0.9009 0
M  V30 3984 O 372.641 3.60019 2.01147 0
M  V30 3985 H 371.982 0.657913 0.0897025 0
M  V30 3986 H 374.512 2.01493 -0.355201 0
M  V30 3987 H 374.522 3.89716 1.2077 0
M  V30 3988 H 373.197 4.15813 0.0852889 0
M  V30 3989 H 371.774 3.3136 1.71042 0
M  V30 3990 N 373.959 -0.0401083 1.57549 0
M  V30 3991 C 375.199 -0.738098 1.90608 0
M  V30 3992 C 375.563 -1.73107 0.830539 0
M  V30 3993 O 376.764 -2.4765 1.04513 0
M  V30 3994 C 375.035 -1.39985 3.28845 0
M  V30 3995 S 376.594 -2.12852 3.83718 0
M  V30 3996 H 373.412 -0.24477 0.667539 0
M  V30 3997 H 376.014 0.00693599 1.95499 0
M  V30 3998 H 374.718 -0.663775 4.04997 0
M  V30 3999 H 374.249 -2.18366 3.2723 0
M  V30 4000 H 376.264 -3.39842 3.61555 0
M  V30 4001 N 375.437 -1.54477 -0.31217 0
M  V30 4002 C 376.4 -1.83923 -1.36766 0
M  V30 4003 C 377.4 -0.711563 -1.44199 0
M  V30 4004 O 378.59 -0.979866 -1.44029 0
M  V30 4005 C 375.722 -2.0095 -2.75376 0
M  V30 4006 H 376.915 -2.78239 -1.11906 0
M  V30 4007 H 374.468 -1.46369 -0.548257 0
M  V30 4008 H 375.203 -1.08883 -3.05475 0
M  V30 4009 H 374.988 -2.83018 -2.71373 0
M  V30 4010 H 376.478 -2.2514 -3.51713 0
M  V30 4011 N 376.915 0.57481 -1.46744 0
M  V30 4012 C 378.326 1.15695 -1.46532 0
M  V30 4013 C 378.677 1.95068 -0.210425 0
M  V30 4014 O 377.802 2.05241 0.685944 0
M  V30 4015 C 378.397 2.1048 -2.65487 0
M  V30 4016 C 376.956 2.64002 -2.68291 0
M  V30 4017 C 376.103 1.40026 -2.39349 0
M  V30 4018 H 379.054 0.362325 -1.54509 0
M  V30 4019 H 379.075 2.94074 -2.41455 0
M  V30 4020 H 378.587 1.52683 -3.56805 0
M  V30 4021 H 376.688 3.25646 -1.81067 0
M  V30 4022 H 376.801 3.06197 -3.68483 0
M  V30 4023 H 375.165 1.70106 -1.89568 0
M  V30 4024 H 375.948 0.840485 -3.32852 0
M  V30 4025 N 378.394 1.34581 0.820102 0
M  V30 4026 C 379.671 1.17675 1.56244 0
M  V30 4027 C 380.051 -0.249541 2.0962 0
M  V30 4028 O 379.399 -1.25125 1.91196 0
M  V30 4029 C 379.609 2.23364 2.6816 0
M  V30 4030 C 380.957 2.58485 3.36854 0
M  V30 4031 O 381.981 2.22175 2.78418 0
M  V30 4032 O 380.84 3.20868 4.42386 0
M  V30 4033 H 377.934 0.456333 0.689702 0
M  V30 4034 H 380.48 1.46222 0.861231 0
M  V30 4035 H 379.252 3.19087 2.26493 0
M  V30 4036 H 378.875 1.96009 3.45928 0
M  V30 4037 N 379.872 -1.04064 1.18357 0
M  V30 4038 C 381.112 -1.78829 0.989921 0
M  V30 4039 C 381.476 -1.86106 -0.472095 0
M  V30 4040 O 382.677 -2.57076 -0.785187 0
M  V30 4041 C 380.948 -3.1823 1.6268 0
M  V30 4042 S 382.507 -4.09332 1.58091 0
M  V30 4043 H 379.325 -0.615754 0.355482 0
M  V30 4044 H 381.927 -1.24778 1.50501 0
M  V30 4045 H 380.631 -3.10543 2.68311 0
M  V30 4046 H 380.162 -3.77357 1.112 0
M  V30 4047 H 382.177 -4.92598 0.596817 0
M  V30 4048 N 381.35 -0.985608 -1.22978 0
M  V30 4049 C 382.59 -0.665487 -1.93263 0
M  V30 4050 C 382.954 0.78706 -1.75127 0
M  V30 4051 O 384.155 1.21826 -2.39608 0
M  V30 4052 C 382.426 -1.0515 -3.41582 0
M  V30 4053 S 383.985 -0.848637 -4.30516 0
M  V30 4054 H 380.803 -0.24355 -0.667985 0
M  V30 4055 H 383.405 -1.26635 -1.48942 0
M  V30 4056 H 382.109 -2.10517 -3.52293 0
M  V30 4057 H 381.64 -0.442134 -3.90908 0
M  V30 4058 H 383.655 0.264717 -4.95493 0
M  V30 4059 N 382.828 1.3818 -0.7579 0
M  V30 4060 C 383.76 2.2901 -0.0932177 0
M  V30 4061 C 384.773 1.47958 0.679136 0
M  V30 4062 O 385.962 1.70773 0.519514 0
M  V30 4063 C 383.062 3.26953 0.89192 0
M  V30 4064 C 382.235 4.37045 0.176303 0
M  V30 4065 C 381.294 5.15148 1.07281 0
M  V30 4066 O 380.32 5.66616 0.541728 0
M  V30 4067 N 381.522 5.28542 2.40049 0
M  V30 4068 H 384.287 2.86694 -0.873303 0
M  V30 4069 H 381.848 1.50007 -0.609054 0
M  V30 4070 H 383.84 3.76083 1.49479 0
M  V30 4071 H 382.41 2.70136 1.57306 0
M  V30 4072 H 381.63 3.89493 -0.607328 0
M  V30 4073 H 382.918 5.07801 -0.318718 0
M  V30 4074 H 382.316 4.88285 2.85647 0
M  V30 4075 H 380.873 5.8103 2.95376 0
M  V30 4076 N 384.306 0.507319 1.49211 0
M  V30 4077 C 385.269 -0.256763 2.27757 0
M  V30 4078 C 386.269 -0.888287 1.34038 0
M  V30 4079 O 387.459 -0.751841 1.5714 0
M  V30 4080 C 384.591 -1.36905 3.12202 0
M  V30 4081 H 385.784 0.432557 2.96764 0
M  V30 4082 H 383.337 0.262488 1.5408 0
M  V30 4083 H 384.072 -2.09233 2.47775 0
M  V30 4084 H 383.857 -0.921599 3.81115 0
M  V30 4085 H 385.347 -1.9071 3.7151 0
M  V30 4086 N 385.784 -1.5574 0.241426 0
M  V30 4087 C 386.731 -2.21149 -0.660432 0
M  V30 4088 C 387.701 -1.17356 -1.17545 0
M  V30 4089 O 388.886 -1.45784 -1.23093 0
M  V30 4090 C 386.026 -2.91059 -1.85414 0
M  V30 4091 C 385.139 -4.09495 -1.37616 0
M  V30 4092 C 384.274 -4.67135 -2.529 0
M  V30 4093 C 383.313 -5.77831 -2.01936 0
M  V30 4094 N 382.45 -6.29677 -3.10566 0
M  V30 4095 H 387.29 -2.97845 -0.095955 0
M  V30 4096 H 384.827 -1.47057 -0.0356024 0
M  V30 4097 H 386.785 -3.29788 -2.5553 0
M  V30 4098 H 385.415 -2.16846 -2.39118 0
M  V30 4099 H 384.467 -3.76117 -0.569235 0
M  V30 4100 H 385.779 -4.89423 -0.962618 0
M  V30 4101 H 384.933 -5.08409 -3.31067 0
M  V30 4102 H 383.672 -3.86411 -2.97553 0
M  V30 4103 H 382.677 -5.36039 -1.22238 0
M  V30 4104 H 383.902 -6.60402 -1.58259 0
M  V30 4105 H 381.848 -5.5186 -3.54664 0
M  V30 4106 H 381.765 -7.04783 -2.73526 0
M  V30 4107 H 383.033 -6.75609 -3.88809 0
M  V30 4108 N 387.262 0.0317525 -1.57568 0
M  V30 4109 C 388.539 0.758366 -1.803 0
M  V30 4110 C 388.919 1.93718 -0.838845 0
M  V30 4111 O 388.267 2.28187 0.119571 0
M  V30 4112 C 388.477 1.19392 -3.27943 0
M  V30 4113 C 389.825 1.61094 -3.92854 0
M  V30 4114 O 390.849 1.28857 -3.32076 0
M  V30 4115 O 389.708 2.20918 -4.99858 0
M  V30 4116 H 386.802 0.366514 -0.741348 0
M  V30 4117 H 389.348 0.00873765 -1.69698 0
M  V30 4118 H 388.12 0.352275 -3.89711 0
M  V30 4119 H 387.743 2.00365 -3.43424 0
M  V30 4120 N 388.74 1.54641 0.303973 0
M  V30 4121 C 389.672 1.81754 1.39636 0
M  V30 4122 C 390.685 0.70035 1.46966 0
M  V30 4123 O 391.874 0.97778 1.49338 0
M  V30 4124 C 388.974 1.93785 2.7803 0
M  V30 4125 C 388.147 3.24156 2.93669 0
M  V30 4126 C 387.206 3.26641 4.12544 0
M  V30 4127 O 386.232 4.00187 4.04771 0
M  V30 4128 N 387.434 2.5182 5.23036 0
M  V30 4129 H 390.199 2.76031 1.16734 0
M  V30 4130 H 387.76 1.54178 0.494033 0
M  V30 4131 H 389.752 1.92852 3.55795 0
M  V30 4132 H 388.322 1.06515 2.93893 0
M  V30 4133 H 387.542 3.37887 2.03042 0
M  V30 4134 H 388.83 4.10195 3.01027 0
M  V30 4135 H 388.228 1.91692 5.32232 0
M  V30 4136 H 386.785 2.56644 5.99147 0
M  V30 4137 N 390.218 -0.567019 1.47046 0
M  V30 4138 C 391.448 -1.34831 1.56538 0
M  V30 4139 C 391.856 -1.8802 0.21101 0
M  V30 4140 O 391.199 -1.65152 -0.804387 0
M  V30 4141 C 391.261 -2.56139 2.52256 0
M  V30 4142 C 390.925 -2.24307 3.98165 0
M  V30 4143 C 391.922 -1.82192 4.86931 0
M  V30 4144 C 389.607 -2.35968 4.43423 0
M  V30 4145 C 391.601 -1.52153 6.18973 0
M  V30 4146 C 389.288 -2.05542 5.75496 0
M  V30 4147 C 390.286 -1.63701 6.63092 0
M  V30 4148 O 389.974 -1.33657 7.92711 0
M  V30 4149 H 389.706 -0.417683 0.531523 0
M  V30 4150 H 392.26 -0.694726 1.93294 0
M  V30 4151 H 390.49 -3.24356 2.10548 0
M  V30 4152 H 392.179 -3.18214 2.51982 0
M  V30 4153 H 392.945 -1.72684 4.53217 0
M  V30 4154 H 388.824 -2.67495 3.75456 0
M  V30 4155 H 392.368 -1.19421 6.87302 0
M  V30 4156 H 388.265 -2.14679 6.08755 0
M  V30 4157 H 389.033 -1.4737 8.05124 0
M  V30 4158 N 391.696 -1.35014 -0.812953 0
M  V30 4159 C 392.945 -1.27269 -1.56479 0
M  V30 4160 C 393.258 0.152771 -1.95002 0
M  V30 4161 O 394.464 0.352451 -2.69203 0
M  V30 4162 C 392.92 -2.23159 -2.82362 0
M  V30 4163 C 392.528 -3.71016 -2.511 0
M  V30 4164 C 394.272 -2.24342 -3.60376 0
M  V30 4165 C 392.179 -4.58746 -3.73237 0
M  V30 4166 H 391.109 -0.472829 -0.587324 0
M  V30 4167 H 393.76 -1.6024 -0.894171 0
M  V30 4168 H 392.142 -1.83151 -3.51101 0
M  V30 4169 H 393.316 -4.1962 -1.90409 0
M  V30 4170 H 391.631 -3.72378 -1.86343 0
M  V30 4171 H 394.228 -2.87107 -4.51081 0
M  V30 4172 H 394.571 -1.24542 -3.97234 0
M  V30 4173 H 395.104 -2.62846 -2.98591 0
M  V30 4174 H 391.843 -5.59521 -3.41492 0
M  V30 4175 H 391.363 -4.14871 -4.33176 0
M  V30 4176 H 393.042 -4.73852 -4.40537 0
M  V30 4177 N 393.175 1.03435 -1.18907 0
M  V30 4178 C 394.085 2.15075 -0.937015 0
M  V30 4179 C 395.101 1.73706 0.101085 0
M  V30 4180 O 396.277 2.01232 -0.0822948 0
M  V30 4181 C 393.342 3.43458 -0.473057 0
M  V30 4182 C 392.403 3.99172 -1.57989 0
M  V30 4183 C 391.636 5.21427 -1.13797 0
M  V30 4184 O 391.859 5.704 0.000725941 0
M  V30 4185 O 390.793 5.69837 -1.9383 0
M  V30 4186 H 394.619 2.39198 -1.87131 0
M  V30 4187 H 392.204 1.13506 -0.971427 0
M  V30 4188 H 394.086 4.20811 -0.222702 0
M  V30 4189 H 392.761 3.20793 0.432869 0
M  V30 4190 H 391.668 3.23178 -1.88433 0
M  V30 4191 H 393.001 4.2619 -2.46217 0
M  V30 4192 N 394.653 0.992116 1.22453 0
M  V30 4193 C 395.585 0.500024 2.23679 0
M  V30 4194 C 396.598 -0.404463 1.57696 0
M  V30 4195 O 397.787 -0.206722 1.77299 0
M  V30 4196 C 394.887 -0.294711 3.37616 0
M  V30 4197 C 394.06 0.605723 4.33186 0
M  V30 4198 C 393.119 -0.13717 5.26021 0
M  V30 4199 O 392.145 0.477164 5.67196 0
M  V30 4200 N 393.347 -1.4197 5.62872 0
M  V30 4201 H 396.112 1.37045 2.66531 0
M  V30 4202 H 393.673 0.866741 1.36745 0
M  V30 4203 H 395.665 -0.800329 3.96707 0
M  V30 4204 H 394.235 -1.06623 2.93854 0
M  V30 4205 H 393.455 1.29202 3.72425 0
M  V30 4206 H 394.743 1.21896 4.93983 0
M  V30 4207 H 394.141 -1.94015 5.31389 0
M  V30 4208 H 392.698 -1.87052 6.24383 0
M  V30 4209 N 396.131 -1.37776 0.765217 0
M  V30 4210 C 397.378 -1.99849 0.326588 0
M  V30 4211 C 397.706 -1.60746 -1.09504 0
M  V30 4212 O 396.961 -0.84202 -1.76659 0
M  V30 4213 C 397.26 -3.5504 0.410053 0
M  V30 4214 C 396.926 -4.13891 1.78899 0
M  V30 4215 C 395.588 -4.29678 2.16635 0
M  V30 4216 C 397.94 -4.46236 2.69301 0
M  V30 4217 C 395.268 -4.7511 3.44221 0
M  V30 4218 C 397.62 -4.93089 3.9629 0
M  V30 4219 C 396.284 -5.07082 4.34078 0
M  V30 4220 H 395.554 -0.7313 0.119507 0
M  V30 4221 H 398.201 -1.64645 0.977968 0
M  V30 4222 H 396.506 -3.90451 -0.324878 0
M  V30 4223 H 398.203 -4.00966 0.0520699 0
M  V30 4224 H 394.793 -4.02026 1.48569 0
M  V30 4225 H 398.977 -4.3363 2.41409 0
M  V30 4226 H 394.233 -4.84129 3.73402 0
M  V30 4227 H 398.407 -5.17084 4.66472 0
M  V30 4228 H 396.034 -5.42046 5.33001 0
M  V30 4229 N 397.609 -0.515225 -1.4894 0
M  V30 4230 C 398.556 0.255567 -2.29381 0
M  V30 4231 C 399.526 0.947387 -1.36432 0
M  V30 4232 O 400.711 0.951288 -1.65394 0
M  V30 4233 C 397.851 1.30551 -3.19453 0
M  V30 4234 C 396.964 0.624029 -4.27469 0
M  V30 4235 C 396.099 1.65563 -5.0474 0
M  V30 4236 C 395.138 0.956802 -6.04576 0
M  V30 4237 N 394.275 1.93326 -6.74959 0
M  V30 4238 H 399.115 -0.436607 -2.94784 0
M  V30 4239 H 396.652 -0.227154 -1.45336 0
M  V30 4240 H 398.61 1.92639 -3.70062 0
M  V30 4241 H 397.24 1.96626 -2.56004 0
M  V30 4242 H 396.292 -0.110459 -3.8024 0
M  V30 4243 H 397.604 0.0746092 -4.98744 0
M  V30 4244 H 396.758 2.35119 -5.59289 0
M  V30 4245 H 395.497 2.23893 -4.3327 0
M  V30 4246 H 394.502 0.247097 -5.49244 0
M  V30 4247 H 395.727 0.379814 -6.78037 0
M  V30 4248 H 393.673 2.50591 -6.06251 0
M  V30 4249 H 393.59 1.43489 -7.42258 0
M  V30 4250 H 394.858 2.62126 -7.34105 0
M  V30 4251 N 399.087 1.5561 -0.249682 0
M  V30 4252 C 400.364 1.90932 0.424761 0
M  V30 4253 C 400.744 1.17078 1.75658 0
M  V30 4254 O 400.092 0.289176 2.26663 0
M  V30 4255 C 400.302 3.43975 0.590109 0
M  V30 4256 C 401.65 4.15281 0.884714 0
M  V30 4257 O 402.674 3.49729 0.67587 0
M  V30 4258 O 401.533 5.31236 1.28259 0
M  V30 4259 H 398.627 0.794815 0.228468 0
M  V30 4260 H 401.173 1.67135 -0.293954 0
M  V30 4261 H 399.945 3.89748 -0.34818 0
M  V30 4262 H 399.568 3.73644 1.35926 0
M  V30 4263 N 400.565 -0.0233959 1.57583 0
M  V30 4264 C 401.793 -0.724682 1.93794 0
M  V30 4265 C 402.208 -1.68588 0.849912 0
M  V30 4266 O 401.565 -1.81676 -0.173204 0
M  V30 4267 C 401.616 -1.47684 3.29957 0
M  V30 4268 O 401.337 -0.554222 4.3458 0
M  V30 4269 C 402.838 -2.27477 3.80485 0
M  V30 4270 H 400.058 -0.203317 0.639455 0
M  V30 4271 H 402.602 0.0207653 2.04489 0
M  V30 4272 H 400.757 -2.17412 3.20641 0
M  V30 4273 H 401.171 -1.08232 5.13212 0
M  V30 4274 H 402.645 -2.7564 4.78254 0
M  V30 4275 H 403.122 -3.09144 3.11972 0
M  V30 4276 H 403.728 -1.62813 3.92902 0
M  V30 4277 N 402.043 -1.548 -0.295768 0
M  V30 4278 C 402.973 -1.89115 -1.36959 0
M  V30 4279 C 403.954 -0.75059 -1.52644 0
M  V30 4280 O 405.139 -1.00678 -1.66065 0
M  V30 4281 C 402.269 -2.14307 -2.73295 0
M  V30 4282 C 401.223 -3.30151 -2.72368 0
M  V30 4283 C 400.549 -3.40772 -4.12042 0
M  V30 4284 C 401.849 -4.67126 -2.33646 0
M  V30 4285 H 403.543 -2.79053 -1.08488 0
M  V30 4286 H 401.089 -1.34266 -0.520443 0
M  V30 4287 H 403.042 -2.36898 -3.48507 0
M  V30 4288 H 401.766 -1.21145 -3.03301 0
M  V30 4289 H 400.425 -3.0749 -1.99613 0
M  V30 4290 H 400.073 -2.45117 -4.39234 0
M  V30 4291 H 399.773 -4.18645 -4.12322 0
M  V30 4292 H 401.297 -3.6563 -4.89027 0
M  V30 4293 H 402.711 -4.89414 -2.98575 0
M  V30 4294 H 401.108 -5.47751 -2.45129 0
M  V30 4295 H 402.178 -4.67489 -1.28772 0
M  V30 4296 N 403.521 0.559213 -1.47345 0
M  V30 4297 C 404.746 1.34676 -1.57725 0
M  V30 4298 C 405.171 1.86723 -0.227164 0
M  V30 4299 O 404.529 1.6286 0.796642 0
M  V30 4300 C 404.577 2.49399 -2.60447 0
M  V30 4301 O 403.681 3.51567 -2.15578 0
M  V30 4302 H 403.022 0.400115 -0.52991 0
M  V30 4303 H 405.552 0.676009 -1.93109 0
M  V30 4304 H 405.562 2.95996 -2.80803 0
M  V30 4305 H 404.237 2.10873 -3.58477 0
M  V30 4306 H 402.814 3.11289 -2.05313 0
M  V30 4307 N 404.999 1.35443 0.805782 0
M  V30 4308 C 406.227 1.31878 1.59423 0
M  V30 4309 C 406.642 -0.103562 1.88516 0
M  V30 4310 O 405.999 -1.05575 1.48863 0
M  V30 4311 C 406.05 2.12426 2.92502 0
M  V30 4312 O 405.771 3.49115 2.6467 0
M  V30 4313 C 407.272 2.16455 3.86862 0
M  V30 4314 H 404.492 0.453002 0.495005 0
M  V30 4315 H 407.036 1.78309 1.00131 0
M  V30 4316 H 405.191 1.69593 3.48306 0
M  V30 4317 H 405.605 3.90957 3.49647 0
M  V30 4318 H 407.079 2.77204 4.77349 0
M  V30 4319 H 407.556 1.16352 4.23508 0
M  V30 4320 H 408.162 2.59453 3.36993 0
M  V30 4321 N 406.477 -1.02803 1.19454 0
M  V30 4322 C 407.702 -1.80378 1.02364 0
M  V30 4323 C 408.127 -1.83282 -0.423007 0
M  V30 4324 O 407.485 -1.25945 -1.30413 0
M  V30 4325 C 407.533 -3.23248 1.59821 0
M  V30 4326 O 406.637 -4.04 0.828105 0
M  V30 4327 H 405.978 -0.556799 0.361761 0
M  V30 4328 H 408.508 -1.29385 1.58495 0
M  V30 4329 H 408.518 -3.73994 1.63073 0
M  V30 4330 H 407.193 -3.2045 2.65113 0
M  V30 4331 H 405.77 -3.62635 0.86891 0
M  V30 4332 N 407.956 -0.998596 -1.21925 0
M  V30 4333 C 409.202 -0.678667 -1.91107 0
M  V30 4334 C 409.535 0.78791 -1.77498 0
M  V30 4335 O 408.81 1.57043 -1.1475 0
M  V30 4336 C 409.093 -1.09245 -3.43129 0
M  V30 4337 C 408.946 -2.61801 -3.6576 0
M  V30 4338 C 410.265 -0.649984 -4.35274 0
M  V30 4339 H 407.384 -0.248025 -0.694012 0
M  V30 4340 H 410.026 -1.24314 -1.43688 0
M  V30 4341 H 408.176 -0.612171 -3.83647 0
M  V30 4342 H 409.848 -3.17543 -3.34611 0
M  V30 4343 H 408.091 -3.03609 -3.09845 0
M  V30 4344 H 408.762 -2.85804 -4.7225 0
M  V30 4345 H 411.238 -1.0626 -4.02303 0
M  V30 4346 H 410.114 -0.967743 -5.40302 0
M  V30 4347 H 410.375 0.449139 -4.39813 0
M  V30 4348 N 409.434 1.37368 -0.772513 0
M  V30 4349 C 410.397 2.28601 -0.165541 0
M  V30 4350 C 411.397 1.48062 0.627238 0
M  V30 4351 O 412.587 1.68268 0.450715 0
M  V30 4352 C 409.719 3.32023 0.772897 0
M  V30 4353 H 410.912 2.83787 -0.969787 0
M  V30 4354 H 408.465 1.46647 -0.540775 0
M  V30 4355 H 409.2 2.81962 1.60212 0
M  V30 4356 H 408.985 3.91555 0.206585 0
M  V30 4357 H 410.475 4.00197 1.19298 0
M  V30 4358 N 410.912 0.523116 1.48665 0
M  V30 4359 C 411.859 -0.243398 2.29513 0
M  V30 4360 C 412.829 -0.940139 1.36933 0
M  V30 4361 O 414.014 -0.942503 1.65896 0
M  V30 4362 C 411.154 -1.28855 3.20141 0
M  V30 4363 C 410.267 -0.60135 4.27794 0
M  V30 4364 C 409.402 -1.62884 5.05611 0
M  V30 4365 C 408.441 -0.924726 6.05075 0
M  V30 4366 N 407.578 -1.89744 6.75975 0
M  V30 4367 H 412.418 0.452234 2.94549 0
M  V30 4368 H 409.955 0.234858 1.45213 0
M  V30 4369 H 411.913 -1.90674 3.71079 0
M  V30 4370 H 410.543 -1.95266 2.57043 0
M  V30 4371 H 409.595 0.130623 3.80176 0
M  V30 4372 H 410.907 -0.0481585 4.98777 0
M  V30 4373 H 410.061 -2.32149 5.60528 0
M  V30 4374 H 408.8 -2.21592 4.34452 0
M  V30 4375 H 407.805 -0.217966 5.49368 0
M  V30 4376 H 409.03 -0.343851 6.78229 0
M  V30 4377 H 406.976 -2.47373 6.07571 0
M  V30 4378 H 406.893 -1.3955 7.43009 0
M  V30 4379 H 408.161 -2.58229 7.35485 0
M  V30 4380 N 412.39 -1.55475 0.257931 0
M  V30 4381 C 413.615 -2.04064 -0.370488 0
M  V30 4382 C 414.04 -1.13565 -1.49948 0
M  V30 4383 O 413.398 -0.130781 -1.80828 0
M  V30 4384 C 413.446 -3.50554 -0.845237 0
M  V30 4385 O 412.55 -3.63173 -1.95394 0
M  V30 4386 H 411.891 -0.659257 -0.0792243 0
M  V30 4387 H 414.421 -2.00903 0.387212 0
M  V30 4388 H 414.431 -3.91588 -1.14555 0
M  V30 4389 H 413.106 -4.15896 -0.0191259 0
M  V30 4390 H 411.683 -3.34039 -1.65748 0
M  V30 4391 N 413.868 0.0150385 -1.57593 0
M  V30 4392 C 415.117 0.702115 -1.89085 0
M  V30 4393 C 415.43 1.75764 -0.858277 0
M  V30 4394 O 416.636 2.49829 -1.0629 0
M  V30 4395 C 415.092 1.29992 -3.35604 0
M  V30 4396 C 414.7 0.280007 -4.47124 0
M  V30 4397 C 416.444 1.96606 -3.76227 0
M  V30 4398 C 414.351 0.886949 -5.84711 0
M  V30 4399 H 413.281 0.265997 -0.705522 0
M  V30 4400 H 415.932 -0.0430408 -1.8345 0
M  V30 4401 H 414.314 2.09525 -3.36029 0
M  V30 4402 H 415.488 -0.489631 -4.58191 0
M  V30 4403 H 413.803 -0.284835 -4.15425 0
M  V30 4404 H 416.4 2.42893 -4.76347 0
M  V30 4405 H 416.743 2.79024 -3.08952 0
M  V30 4406 H 417.276 1.23828 -3.78036 0
M  V30 4407 H 414.015 0.101876 -6.55421 0
M  V30 4408 H 413.535 1.6261 -5.77337 0
M  V30 4409 H 415.214 1.39011 -6.3189 0
M  V30 4410 N 415.346 1.54954 0.287554 0
M  V30 4411 C 416.309 1.86076 1.33823 0
M  V30 4412 C 417.309 0.734414 1.43049 0
M  V30 4413 O 418.499 1.00266 1.42452 0
M  V30 4414 C 415.631 2.05305 2.72144 0
M  V30 4415 H 416.824 2.79984 1.07465 0
M  V30 4416 H 414.377 1.47223 0.524902 0
M  V30 4417 H 415.112 1.1373 3.03704 0
M  V30 4418 H 414.897 2.873 2.66836 0
M  V30 4419 H 416.387 2.30706 3.48087 0
M  V30 4420 N 416.824 -0.551391 1.4764 0
M  V30 4421 C 418.072 -1.30572 1.54258 0
M  V30 4422 C 418.393 -1.93877 0.208963 0
M  V30 4423 O 417.663 -1.80234 -0.767619 0
M  V30 4424 H 416.243 -0.484894 0.568231 0
M  V30 4425 H 418.905 -0.643402 1.83974 0
M  V30 4426 H 418.001 -2.09621 2.31226 0
M  V30 4427 N 418.302 -1.35869 -0.798587 0
M  V30 4428 C 419.549 -1.29588 -1.55606 0
M  V30 4429 C 419.877 0.127456 -1.94082 0
M  V30 4430 O 419.132 1.09461 -1.62225 0
M  V30 4431 C 419.431 -2.1556 -2.85077 0
M  V30 4432 C 419.097 -3.6424 -2.65781 0
M  V30 4433 C 417.759 -4.04766 -2.60227 0
M  V30 4434 C 420.111 -4.58547 -2.47758 0
M  V30 4435 C 417.439 -5.37753 -2.34603 0
M  V30 4436 C 419.791 -5.91742 -2.23662 0
M  V30 4437 C 418.455 -6.31402 -2.16534 0
M  V30 4438 H 417.725 -0.474197 -0.569402 0
M  V30 4439 H 420.372 -1.67839 -0.922086 0
M  V30 4440 H 418.677 -1.70216 -3.52893 0
M  V30 4441 H 420.374 -2.08031 -3.42818 0
M  V30 4442 H 416.964 -3.32086 -2.70956 0
M  V30 4443 H 421.148 -4.28117 -2.51056 0
M  V30 4444 H 416.404 -5.67474 -2.2756 0
M  V30 4445 H 420.578 -6.6439 -2.08708 0
M  V30 4446 H 418.205 -7.34381 -1.96441 0
M  V30 4447 N 419.78 1.02168 -1.19998 0
M  V30 4448 C 421.027 1.75685 -1.00702 0
M  V30 4449 C 421.355 1.88947 0.461426 0
M  V30 4450 O 420.61 1.40832 1.35885 0
M  V30 4451 C 420.909 3.18081 -1.62969 0
M  V30 4452 C 420.575 3.24809 -3.12746 0
M  V30 4453 C 419.237 3.26352 -3.53621 0
M  V30 4454 C 421.589 3.23379 -4.08749 0
M  V30 4455 C 418.917 3.2413 -4.89036 0
M  V30 4456 C 421.269 3.22698 -5.44104 0
M  V30 4457 C 419.933 3.22542 -5.84399 0
M  V30 4458 H 419.203 0.642877 -0.368496 0
M  V30 4459 H 421.85 1.19865 -1.49348 0
M  V30 4460 H 420.155 3.77027 -1.06573 0
M  V30 4461 H 421.852 3.73648 -1.45561 0
M  V30 4462 H 418.442 3.2434 -2.80181 0
M  V30 4463 H 422.626 3.21361 -3.78207 0
M  V30 4464 H 417.882 3.22338 -5.19527 0
M  V30 4465 H 422.056 3.20543 -6.18244 0
M  V30 4466 H 419.683 3.20575 -6.89301 0
M  V30 4467 N 421.258 1.00505 1.21394 0
M  V30 4468 C 422.221 0.570459 2.21987 0
M  V30 4469 C 423.221 -0.353211 1.56873 0
M  V30 4470 O 424.411 -0.14349 1.73608 0
M  V30 4471 C 421.543 -0.168555 3.40483 0
M  V30 4472 H 422.736 1.46021 2.6195 0
M  V30 4473 H 420.289 0.793565 1.34656 0
M  V30 4474 H 421.024 -1.07374 3.06009 0
M  V30 4475 H 420.809 0.494823 3.88965 0
M  V30 4476 H 422.299 -0.460362 4.15055 0
M  V30 4477 N 422.737 -1.36956 0.779787 0
M  V30 4478 C 423.647 -2.33965 0.172491 0
M  V30 4479 C 424.663 -1.60574 -0.670222 0
M  V30 4480 O 425.839 -1.92617 -0.588263 0
M  V30 4481 C 422.904 -3.39761 -0.690173 0
M  V30 4482 C 421.965 -4.28964 0.169924 0
M  V30 4483 C 421.198 -5.29707 -0.651662 0
M  V30 4484 O 421.421 -5.38238 -1.88827 0
M  V30 4485 O 420.355 -6.01873 -0.0566264 0
M  V30 4486 H 424.181 -2.87647 0.974321 0
M  V30 4487 H 421.766 -1.39258 0.541078 0
M  V30 4488 H 423.648 -4.04471 -1.1824 0
M  V30 4489 H 422.323 -2.88394 -1.47006 0
M  V30 4490 H 421.23 -3.67326 0.708696 0
M  V30 4491 H 422.563 -4.83656 0.913085 0
M  V30 4492 N 424.215 -0.530993 -1.48385 0
M  V30 4493 C 425.626 -0.0907905 -1.86479 0
M  V30 4494 C 425.977 1.33213 -1.44044 0
M  V30 4495 O 425.102 1.99783 -0.831615 0
M  V30 4496 C 425.697 -0.157987 -3.38431 0
M  V30 4497 C 424.256 0.227026 -3.75715 0
M  V30 4498 C 423.403 -0.5173 -2.72432 0
M  V30 4499 H 426.354 -0.742186 -1.40276 0
M  V30 4500 H 426.375 0.630053 -3.75247 0
M  V30 4501 H 425.887 -1.19372 -3.69286 0
M  V30 4502 H 423.988 1.26486 -3.50474 0
M  V30 4503 H 424.101 -0.113288 -4.78966 0
M  V30 4504 H 422.465 0.0365527 -2.54674 0
M  V30 4505 H 423.248 -1.55368 -3.0613 0
M  V30 4506 N 425.693 1.55336 -0.266172 0
M  V30 4507 C 426.942 1.98574 0.353749 0
M  V30 4508 C 427.255 1.15789 1.57646 0
M  V30 4509 O 428.461 1.49129 2.26876 0
M  V30 4510 C 426.917 3.53403 0.680747 0
M  V30 4511 C 426.525 4.44953 -0.52165 0
M  V30 4512 C 428.269 4.05251 1.26379 0
M  V30 4513 C 426.176 5.91156 -0.169736 0
M  V30 4514 H 425.106 0.741643 0.135949 0
M  V30 4515 H 427.757 1.79743 -0.369421 0
M  V30 4516 H 426.139 3.68001 1.46257 0
M  V30 4517 H 427.313 4.42121 -1.29869 0
M  V30 4518 H 425.628 4.03691 -1.02093 0
M  V30 4519 H 428.225 5.12021 1.54074 0
M  V30 4520 H 428.568 3.53749 2.19471 0
M  V30 4521 H 429.101 3.94057 0.544447 0
M  V30 4522 H 425.84 6.46736 -1.0683 0
M  V30 4523 H 425.36 5.97079 0.570717 0
M  V30 4524 H 427.039 6.4655 0.241245 0
M  V30 4525 N 427.171 -0.0066808 1.57599 0
M  V30 4526 C 428.103 -1.02827 2.04839 0
M  V30 4527 C 429.116 -1.31108 0.965113 0
M  V30 4528 O 430.305 -1.28202 1.24203 0
M  V30 4529 C 427.405 -2.36464 2.42771 0
M  V30 4530 C 426.578 -2.27219 3.73751 0
M  V30 4531 C 425.637 -3.43489 3.98625 0
M  V30 4532 O 424.663 -3.21976 4.69382 0
M  V30 4533 N 425.865 -4.66116 3.46 0
M  V30 4534 H 428.63 -0.625455 2.93101 0
M  V30 4535 H 426.191 -0.194198 1.60731 0
M  V30 4536 H 428.183 -3.13008 2.56531 0
M  V30 4537 H 426.753 -2.68512 1.60063 0
M  V30 4538 H 425.973 -1.35629 3.70133 0
M  V30 4539 H 427.261 -2.18208 4.59633 0
M  V30 4540 H 426.659 -4.86493 2.88688 0
M  V30 4541 H 425.216 -5.39949 3.65101 0
M  V30 4542 N 428.649 -1.55105 -0.279332 0
M  V30 4543 C 429.897 -1.75066 -1.00977 0
M  V30 4544 C 430.218 -0.551276 -1.87045 0
M  V30 4545 O 429.488 0.433984 -1.91032 0
M  V30 4546 H 428.068 -0.645578 -0.375816 0
M  V30 4547 H 430.73 -1.92497 -0.305089 0
M  V30 4548 H 429.826 -2.64894 -1.65038 0
M  V30 4549 N 430.127 0.543554 -1.4793 0
M  V30 4550 C 431.373 1.30201 -1.55485 0
M  V30 4551 C 431.706 1.92925 -0.222201 0
M  V30 4552 O 430.981 1.78586 0.77053 0
M  V30 4553 C 431.264 2.40174 -2.68307 0
M  V30 4554 C 431.117 1.8223 -4.11233 0
M  V30 4555 C 432.436 3.42024 -2.76961 0
M  V30 4556 H 429.555 0.472036 -0.565996 0
M  V30 4557 H 432.197 0.606914 -1.80046 0
M  V30 4558 H 430.347 2.99463 -2.47495 0
M  V30 4559 H 432.019 1.27096 -4.43446 0
M  V30 4560 H 430.262 1.12832 -4.18869 0
M  V30 4561 H 430.933 2.61793 -4.85972 0
M  V30 4562 H 433.409 2.92672 -2.95774 0
M  V30 4563 H 432.285 4.16383 -3.57654 0
M  V30 4564 H 432.546 4.0173 -1.84568 0
M  V30 4565 N 431.605 1.3629 0.791371 0
M  V30 4566 C 432.553 1.30514 1.92533 0
M  V30 4567 C 433.547 0.197285 1.68247 0
M  V30 4568 O 434.753 0.364176 1.76278 0
M  V30 4569 H 431.128 0.406263 0.632815 0
M  V30 4570 H 433.099 2.26282 1.94523 0
M  V30 4571 C 431.848 1.10933 3.29529 0
M  V30 4572 H 431.171 1.95427 3.48781 0
M  V30 4573 H 432.611 1.10937 4.0923 0
M  V30 4574 C 431.07 -0.186123 3.36385 0
M  V30 4575 O 431.6 -1.17664 3.84081 0
M  V30 4576 N 429.806 -0.230128 2.89687 0
M  V30 4577 H 429.353 0.576545 2.51065 0
M  V30 4578 H 429.311 -1.09658 2.94657 0
M  V30 4579 N 433.083 -1.0153 1.20538 0
M  V30 4580 C 434.331 -1.74803 1.01432 0
M  V30 4581 C 434.652 -1.8963 -0.454456 0
M  V30 4582 O 433.922 -1.43975 -1.32846 0
M  V30 4583 H 432.502 -0.647598 0.372324 0
M  V30 4584 H 435.164 -1.22402 1.5167 0
M  V30 4585 H 434.26 -2.75114 1.47373 0
M  V30 4586 N 434.561 -1.01147 -1.20859 0
M  V30 4587 C 435.807 -0.698899 -1.90377 0
M  V30 4588 C 436.14 0.76904 -1.78324 0
M  V30 4589 O 435.415 1.55817 -1.16409 0
M  V30 4590 C 435.698 -1.12878 -3.41951 0
M  V30 4591 C 435.551 -2.65665 -3.62963 0
M  V30 4592 C 436.87 -0.696114 -4.3456 0
M  V30 4593 H 433.989 -0.255372 -0.691342 0
M  V30 4594 H 436.631 -1.25831 -1.42361 0
M  V30 4595 H 434.781 -0.652827 -3.82976 0
M  V30 4596 H 436.453 -3.21074 -3.31224 0
M  V30 4597 H 434.696 -3.06878 -3.06608 0
M  V30 4598 H 435.367 -2.90797 -4.69192 0
M  V30 4599 H 437.843 -1.10521 -4.01154 0
M  V30 4600 H 436.719 -1.025 -5.39245 0
M  V30 4601 H 436.98 0.402465 -4.40264 0
M  V30 4602 N 436.039 1.36541 -0.78704 0
M  V30 4603 C 437.285 1.99599 -0.358872 0
M  V30 4604 C 437.618 1.62323 1.06606 0
M  V30 4605 O 436.893 0.876858 1.73613 0
M  V30 4606 C 437.176 3.56327 -0.519944 0
M  V30 4607 C 437.029 4.03464 -1.98839 0
M  V30 4608 C 438.348 4.4005 0.0664737 0
M  V30 4609 H 435.467 0.725107 -0.131869 0
M  V30 4610 H 438.109 1.6199 -0.992936 0
M  V30 4611 H 436.259 3.88495 0.0198321 0
M  V30 4612 H 437.931 3.81793 -2.58905 0
M  V30 4613 H 436.174 3.55092 -2.49183 0
M  V30 4614 H 436.845 5.12439 -2.05207 0
M  V30 4615 H 439.321 4.14228 -0.394267 0
M  V30 4616 H 438.197 5.48847 -0.0762682 0
M  V30 4617 H 438.458 4.26655 1.15835 0
M  V30 4618 N 437.518 0.538854 1.48102 0
M  V30 4619 C 438.45 -0.256278 2.27763 0
M  V30 4620 C 439.463 -0.89633 1.35904 0
M  V30 4621 O 440.652 -0.773275 1.60881 0
M  V30 4622 C 437.752 -1.37896 3.09577 0
M  V30 4623 C 436.925 -0.839159 4.29275 0
M  V30 4624 C 435.984 -1.84405 4.9283 0
M  V30 4625 O 435.01 -1.39746 5.51779 0
M  V30 4626 N 436.212 -3.17666 4.85869 0
M  V30 4627 H 438.977 0.426968 2.96643 0
M  V30 4628 H 436.538 0.373747 1.57527 0
M  V30 4629 H 438.53 -2.04955 3.48963 0
M  V30 4630 H 437.1 -1.96572 2.4306 0
M  V30 4631 H 436.32 0.00769287 3.94199 0
M  V30 4632 H 437.608 -0.457548 5.06739 0
M  V30 4633 H 437.006 -3.56609 4.39143 0
M  V30 4634 H 435.563 -3.80334 5.29329 0
M  V30 4635 N 438.996 -1.55193 0.274407 0
M  V30 4636 C 440.226 -2.03692 -0.345442 0
M  V30 4637 C 440.634 -1.15224 -1.50067 0
M  V30 4638 O 439.977 -0.164749 -1.8296 0
M  V30 4639 C 440.039 -3.48325 -0.88939 0
M  V30 4640 C 439.703 -4.56794 0.137115 0
M  V30 4641 C 440.7 -5.11028 0.956378 0
M  V30 4642 C 438.385 -5.01568 0.27115 0
M  V30 4643 C 440.379 -6.08552 1.89587 0
M  V30 4644 C 438.066 -5.98918 1.21412 0
M  V30 4645 C 439.064 -6.52291 2.02498 0
M  V30 4646 O 438.752 -7.47738 2.952 0
M  V30 4647 H 438.484 -0.670893 -0.0829332 0
M  V30 4648 H 441.038 -2.01387 0.404056 0
M  V30 4649 H 439.268 -3.47867 -1.68895 0
M  V30 4650 H 440.957 -3.80167 -1.42225 0
M  V30 4651 H 441.723 -4.7725 0.863559 0
M  V30 4652 H 437.602 -4.5967 -0.349987 0
M  V30 4653 H 441.146 -6.50137 2.52918 0
M  V30 4654 H 437.043 -6.32114 1.30776 0
M  V30 4655 H 437.811 -7.65451 2.89874 0
M  V30 4656 N 440.474 -0.00167713 -1.576 0
M  V30 4657 C 441.885 0.54091 -1.78693 0
M  V30 4658 C 442.236 1.7386 -0.909247 0
M  V30 4659 O 441.361 2.16109 -0.112176 0
M  V30 4660 C 441.956 0.98806 -3.24072 0
M  V30 4661 C 440.515 1.47594 -3.46256 0
M  V30 4662 C 439.662 0.42792 -2.73978 0
M  V30 4663 H 442.613 -0.22784 -1.57056 0
M  V30 4664 H 442.634 1.85398 -3.32277 0
M  V30 4665 H 442.146 0.116164 -3.87926 0
M  V30 4666 H 440.247 2.36868 -2.87618 0
M  V30 4667 H 440.36 1.50225 -4.54939 0
M  V30 4668 H 438.724 0.889934 -2.38647 0
M  V30 4669 H 439.507 -0.435038 -3.40532 0
M  V30 4670 N 441.952 1.55251 0.271103 0
M  V30 4671 C 442.899 1.88261 1.33516 0
M  V30 4672 C 443.869 0.734296 1.48988 0
M  V30 4673 O 445.054 0.985741 1.63364 0
M  V30 4674 C 442.194 2.16168 2.69008 0
M  V30 4675 C 441.307 3.43678 2.61743 0
M  V30 4676 C 440.442 3.61276 3.89427 0
M  V30 4677 C 439.481 4.82472 3.7668 0
M  V30 4678 N 438.618 4.96717 4.96202 0
M  V30 4679 H 443.458 2.79015 1.04665 0
M  V30 4680 H 440.995 1.38137 0.505618 0
M  V30 4681 H 442.953 2.30349 3.47844 0
M  V30 4682 H 441.583 1.28646 2.96057 0
M  V30 4683 H 440.635 3.37959 1.74607 0
M  V30 4684 H 441.947 4.3265 2.48224 0
M  V30 4685 H 441.101 3.75284 4.76704 0
M  V30 4686 H 439.84 2.70492 4.05814 0
M  V30 4687 H 438.845 4.68465 2.87786 0
M  V30 4688 H 440.07 5.74692 3.61809 0
M  V30 4689 H 438.016 4.08865 5.12997 0
M  V30 4690 H 437.933 5.79738 4.85222 0
M  V30 4691 H 439.201 5.15113 5.85046 0
M  V30 4692 N 443.43 -0.535701 1.48216 0
M  V30 4693 C 444.678 -1.28928 1.55634 0
M  V30 4694 C 444.999 -1.93645 0.229514 0
M  V30 4695 O 444.269 -1.81038 -0.74846 0
M  V30 4696 H 442.849 -0.47884 0.573342 0
M  V30 4697 H 445.511 -0.623853 1.84646 0
M  V30 4698 H 444.607 -2.07157 2.33436 0
M  V30 4699 N 444.908 -1.36708 -0.784132 0
M  V30 4700 C 446.155 -1.31231 -1.54222 0
M  V30 4701 C 446.483 0.106864 -1.94206 0
M  V30 4702 O 445.738 1.07734 -1.63376 0
M  V30 4703 C 446.037 -2.18571 -2.82774 0
M  V30 4704 C 445.703 -3.67039 -2.61903 0
M  V30 4705 C 444.365 -4.07503 -2.55919 0
M  V30 4706 C 446.717 -4.61149 -2.4288 0
M  V30 4707 C 444.045 -5.40211 -2.28886 0
M  V30 4708 C 446.397 -5.94081 -2.17373 0
M  V30 4709 C 445.061 -6.33664 -2.09825 0
M  V30 4710 H 444.331 -0.48021 -0.56434 0
M  V30 4711 H 446.978 -1.68807 -0.904233 0
M  V30 4712 H 445.283 -1.73949 -3.51068 0
M  V30 4713 H 446.98 -2.11655 -3.40592 0
M  V30 4714 H 443.57 -3.34941 -2.67418 0
M  V30 4715 H 447.754 -4.30756 -2.46501 0
M  V30 4716 H 443.01 -5.69855 -2.21529 0
M  V30 4717 H 447.184 -6.66566 -2.01649 0
M  V30 4718 H 444.811 -7.36423 -1.88641 0
M  V30 4719 N 446.386 1.0089 -1.21074 0
M  V30 4720 C 447.316 2.1145 -0.990523 0
M  V30 4721 C 448.297 1.69897 0.0831699 0
M  V30 4722 O 449.482 1.94052 -0.0758853 0
M  V30 4723 C 446.612 3.42914 -0.550177 0
M  V30 4724 C 445.566 3.98244 -1.56799 0
M  V30 4725 C 444.892 5.25568 -0.984013 0
M  V30 4726 C 446.192 4.30752 -2.95381 0
M  V30 4727 H 447.886 2.3013 -1.91521 0
M  V30 4728 H 445.432 1.10592 -0.92225 0
M  V30 4729 H 447.385 4.19653 -0.383305 0
M  V30 4730 H 446.109 3.24014 0.41015 0
M  V30 4731 H 444.768 3.23621 -1.72236 0
M  V30 4732 H 444.416 5.02998 -0.0155216 0
M  V30 4733 H 444.116 5.63551 -1.66384 0
M  V30 4734 H 445.64 6.04955 -0.828378 0
M  V30 4735 H 447.054 4.98349 -2.8341 0
M  V30 4736 H 445.451 4.79869 -3.60341 0
M  V30 4737 H 446.521 3.39192 -3.46521 0
M  V30 4738 N 447.864 1.01787 1.20321 0
M  V30 4739 C 448.811 0.589197 2.23153 0
M  V30 4740 C 449.781 -0.391367 1.61423 0
M  V30 4741 O 450.966 -0.290518 1.88575 0
M  V30 4742 C 448.106 -0.0650747 3.45039 0
M  V30 4743 C 447.219 0.960207 4.21194 0
M  V30 4744 C 446.354 0.276854 5.30478 0
M  V30 4745 C 445.393 1.2888 5.98378 0
M  V30 4746 N 444.53 0.632031 6.99249 0
M  V30 4747 H 449.37 1.47071 2.59179 0
M  V30 4748 H 446.907 0.736192 1.27352 0
M  V30 4749 H 448.865 -0.461552 4.14639 0
M  V30 4750 H 447.495 -0.910233 3.09701 0
M  V30 4751 H 446.547 1.47484 3.50646 0
M  V30 4752 H 447.859 1.72977 4.67847 0
M  V30 4753 H 447.013 -0.175056 6.06447 0
M  V30 4754 H 445.752 -0.525004 4.84866 0
M  V30 4755 H 444.757 1.75109 5.21169 0
M  V30 4756 H 445.982 2.09196 6.46076 0
M  V30 4757 H 443.928 -0.149935 6.55829 0
M  V30 4758 H 443.845 1.33964 7.44036 0
M  V30 4759 H 445.113 0.203755 7.79234 0
M  V30 4760 N 449.342 -1.36122 0.79427 0
M  V30 4761 C 450.252 -2.33769 0.197296 0
M  V30 4762 C 451.268 -1.61276 -0.653153 0
M  V30 4763 O 452.444 -1.9323 -0.5678 0
M  V30 4764 C 449.509 -3.40474 -0.654098 0
M  V30 4765 C 448.57 -4.28759 0.215411 0
M  V30 4766 C 447.803 -5.30368 -0.595443 0
M  V30 4767 O 448.026 -5.40211 -1.83107 0
M  V30 4768 O 446.96 -6.019 0.00721351 0
M  V30 4769 H 450.786 -2.86597 1.00478 0
M  V30 4770 H 448.371 -1.38676 0.555818 0
M  V30 4771 H 450.253 -4.05703 -1.13944 0
M  V30 4772 H 448.928 -2.89937 -1.43938 0
M  V30 4773 H 447.835 -3.66554 0.747615 0
M  V30 4774 H 449.168 -4.82661 0.964332 0
M  V30 4775 N 450.82 -0.546701 -1.47814 0
M  V30 4776 C 451.783 0.196287 -2.28358 0
M  V30 4777 C 452.783 0.852437 -1.36346 0
M  V30 4778 O 453.973 0.709913 -1.59078 0
M  V30 4779 C 451.105 1.28579 -3.15722 0
M  V30 4780 H 452.298 -0.511086 -2.95513 0
M  V30 4781 H 449.851 -0.303248 -1.5333 0
M  V30 4782 H 450.586 2.0259 -2.53235 0
M  V30 4783 H 450.371 0.820229 -3.83425 0
M  V30 4784 H 451.861 1.80793 -3.76435 0
M  V30 4785 N 452.299 1.55045 -0.282633 0
M  V30 4786 C 453.546 1.9976 0.33199 0
M  V30 4787 C 453.874 1.17105 1.55295 0
M  V30 4788 O 453.129 0.230599 1.94337 0
M  V30 4789 C 453.428 3.49422 0.750938 0
M  V30 4790 C 453.094 4.4941 -0.366228 0
M  V30 4791 C 451.756 4.76471 -0.672964 0
M  V30 4792 C 454.108 5.09054 -1.11864 0
M  V30 4793 C 451.436 5.60442 -1.73556 0
M  V30 4794 C 453.788 5.9418 -2.17102 0
M  V30 4795 C 452.452 6.19558 -2.48402 0
M  V30 4796 H 451.722 0.730974 0.121484 0
M  V30 4797 H 454.369 1.8732 -0.39791 0
M  V30 4798 H 452.674 3.59377 1.56063 0
M  V30 4799 H 454.371 3.81432 1.23736 0
M  V30 4800 H 450.961 4.2844 -0.117041 0
M  V30 4801 H 455.145 4.88165 -0.894925 0
M  V30 4802 H 450.401 5.78349 -1.983 0
M  V30 4803 H 454.575 6.39427 -2.75873 0
M  V30 4804 H 452.202 6.84417 -3.30874 0
M  V30 4805 N 453.777 0.010035 1.57597 0
M  V30 4806 C 454.687 -0.994226 2.12491 0
M  V30 4807 C 455.703 -1.37013 1.07254 0
M  V30 4808 O 456.879 -1.45542 1.3921 0
M  V30 4809 C 453.944 -2.2642 2.62555 0
M  V30 4810 C 453.005 -1.95049 3.82432 0
M  V30 4811 C 452.238 -3.15991 4.30099 0
M  V30 4812 O 452.461 -4.28015 3.7704 0
M  V30 4813 O 451.395 -2.99403 5.22151 0
M  V30 4814 H 455.221 -0.557549 2.98538 0
M  V30 4815 H 452.806 -0.209413 1.47925 0
M  V30 4816 H 454.688 -3.01009 2.9491 0
M  V30 4817 H 453.363 -2.69306 1.796 0
M  V30 4818 H 452.27 -1.17904 3.55034 0
M  V30 4819 H 453.603 -1.56992 4.66491 0
M  V30 4820 N 455.255 -1.55392 -0.262866 0
M  V30 4821 C 456.185 -1.91978 -1.32917 0
M  V30 4822 C 457.166 -0.7828 -1.51017 0
M  V30 4823 O 458.351 -1.04178 -1.63892 0
M  V30 4824 C 455.481 -2.20055 -2.68687 0
M  V30 4825 C 454.435 -3.35854 -2.65304 0
M  V30 4826 C 453.761 -3.49435 -4.04721 0
M  V30 4827 C 455.061 -4.71977 -2.23685 0
M  V30 4828 H 456.755 -2.81292 -1.02544 0
M  V30 4829 H 454.301 -1.3534 -0.491846 0
M  V30 4830 H 456.254 -2.44237 -3.43404 0
M  V30 4831 H 454.978 -1.27551 -3.00663 0
M  V30 4832 H 453.637 -3.11655 -1.93045 0
M  V30 4833 H 453.285 -2.54379 -4.33936 0
M  V30 4834 H 452.985 -4.27297 -4.0335 0
M  V30 4835 H 454.509 -3.7592 -4.81161 0
M  V30 4836 H 455.923 -4.95637 -2.88127 0
M  V30 4837 H 454.32 -5.52828 -2.33456 0
M  V30 4838 H 455.39 -4.70115 -1.18827 0
M  V30 4839 N 456.733 0.527833 -1.48498 0
M  V30 4840 C 457.979 1.28545 -1.56857 0
M  V30 4841 C 458.312 1.92678 -0.242651 0
M  V30 4842 O 457.587 1.79394 0.751545 0
M  V30 4843 C 457.87 2.37314 -2.70839 0
M  V30 4844 C 457.723 1.77858 -4.13142 0
M  V30 4845 C 459.042 3.39068 -2.80573 0
M  V30 4846 H 456.161 0.466006 -0.570971 0
M  V30 4847 H 458.803 0.587784 -1.8068 0
M  V30 4848 H 456.953 2.96821 -2.50658 0
M  V30 4849 H 458.625 1.22385 -4.44769 0
M  V30 4850 H 456.868 1.08383 -4.20042 0
M  V30 4851 H 457.539 2.56624 -4.88721 0
M  V30 4852 H 460.015 2.89518 -2.98862 0
M  V30 4853 H 458.891 4.12566 -3.6205 0
M  V30 4854 H 459.152 3.9975 -1.88818 0
M  V30 4855 N 458.211 1.37122 0.776871 0
M  V30 4856 C 459.627 1.1781 1.07671 0
M  V30 4857 C 459.827 0.0107454 2.01497 0
M  V30 4858 O 458.883 -0.650756 2.4397 0
M  V30 4859 C 460.196 2.49451 1.67913 0
M  V30 4860 C 461.744 2.55927 1.80195 0
M  V30 4861 C 462.219 3.87686 2.43851 0
M  V30 4862 N 463.71 3.891 2.51307 0
M  V30 4863 C 464.445 4.87797 3.014 0
M  V30 4864 N 463.941 5.96888 3.51705 0
M  V30 4865 N 465.734 4.75205 3.00227 0
M  V30 4866 H 457.885 2.11843 0.153778 0
M  V30 4867 H 460.148 0.938927 0.130844 0
M  V30 4868 H 459.854 3.35207 1.06439 0
M  V30 4869 H 459.728 2.66169 2.67271 0
M  V30 4870 H 462.115 1.70582 2.40803 0
M  V30 4871 H 462.196 2.43097 0.796069 0
M  V30 4872 H 461.84 4.73444 1.83884 0
M  V30 4873 H 461.77 3.97817 3.45035 0
M  V30 4874 H 464.261 3.10293 2.157 0
M  V30 4875 H 464.574 6.68155 3.88316 0
M  V30 4876 H 462.919 6.0054 3.49824 0
M  V30 4877 H 466.11 3.89103 2.60224 0
M  V30 4878 H 466.283 5.52279 3.38957 0
M  V30 4879 N 459.689 -1.00246 1.21608 0
M  V30 4880 C 460.652 -2.07233 0.979133 0
M  V30 4881 C 461.652 -1.6072 -0.0508219 0
M  V30 4882 O 462.842 -1.73196 0.186712 0
M  V30 4883 C 459.974 -3.37546 0.477016 0
M  V30 4884 H 461.167 -2.29687 1.92831 0
M  V30 4885 H 458.72 -1.17261 1.03342 0
M  V30 4886 H 459.455 -3.20773 -0.476966 0
M  V30 4887 H 459.24 -3.72638 1.21997 0
M  V30 4888 H 460.73 -4.16285 0.331181 0
M  V30 4889 N 461.167 -1.02423 -1.1978 0
M  V30 4890 C 462.583 -0.740459 -1.41384 0
M  V30 4891 C 462.783 0.676827 -1.89793 0
M  V30 4892 O 461.839 1.4435 -2.0717 0
M  V30 4893 C 463.152 -1.77264 -2.42895 0
M  V30 4894 C 464.7 -1.79165 -2.56649 0
M  V30 4895 C 465.175 -2.8133 -3.6141 0
M  V30 4896 N 466.666 -2.80118 -3.68901 0
M  V30 4897 C 467.401 -3.55824 -4.49641 0
M  V30 4898 N 466.897 -4.41231 -5.34123 0
M  V30 4899 N 468.69 -3.44387 -4.44246 0
M  V30 4900 H 460.841 -1.9391 -0.866764 0
M  V30 4901 H 463.104 -0.838074 -0.443098 0
M  V30 4902 H 462.81 -2.7884 -2.14339 0
M  V30 4903 H 462.684 -1.59108 -3.42001 0
M  V30 4904 H 465.071 -0.782702 -2.84531 0
M  V30 4905 H 465.152 -2.01396 -1.57713 0
M  V30 4906 H 464.796 -3.82394 -3.34271 0
M  V30 4907 H 464.726 -2.56359 -4.59986 0
M  V30 4908 H 467.217 -2.1817 -3.08562 0
M  V30 4909 H 467.53 -4.95747 -5.92836 0
M  V30 4910 H 465.875 -4.45306 -5.33599 0
M  V30 4911 H 469.066 -2.7708 -3.77285 0
M  V30 4912 H 469.239 -4.0364 -5.06931 0
M  V30 4913 N 462.645 1.35699 -0.801477 0
M  V30 4914 C 463.893 1.9852 -0.37871 0
M  V30 4915 C 464.214 1.63907 1.05638 0
M  V30 4916 O 463.484 0.919013 1.73006 0
M  V30 4917 H 462.064 0.734322 -0.137042 0
M  V30 4918 H 464.726 1.65697 -1.02619 0
M  V30 4919 H 463.822 3.08382 -0.480284 0
M  V30 4920 N 464.123 0.554532 1.47522 0
M  V30 4921 C 465.371 0.0294208 2.02079 0
M  V30 4922 C 465.692 -1.32411 1.43151 0
M  V30 4923 O 464.962 -1.863 0.605728 0
M  V30 4924 H 463.542 0.00788672 0.746958 0
M  V30 4925 H 466.204 0.723934 1.80956 0
M  V30 4926 H 465.3 -0.0606745 3.12041 0
M  V30 4927 N 465.601 -1.54893 0.290851 0
M  V30 4928 C 466.847 -2.0023 -0.321867 0
M  V30 4929 C 467.18 -1.179 -1.54316 0
M  V30 4930 O 466.455 -0.25293 -1.92848 0
M  V30 4931 C 466.738 -3.53456 -0.688515 0
M  V30 4932 C 466.591 -4.46532 0.541209 0
M  V30 4933 C 467.91 -4.13057 -1.51895 0
M  V30 4934 H 465.029 -0.727891 -0.115515 0
M  V30 4935 H 467.671 -1.85722 0.400931 0
M  V30 4936 H 465.821 -3.6595 -1.30433 0
M  V30 4937 H 467.493 -4.4596 1.17973 0
M  V30 4938 H 465.736 -4.17545 1.17636 0
M  V30 4939 H 466.407 -5.51475 0.240675 0
M  V30 4940 H 468.883 -4.03937 -0.99872 0
M  V30 4941 H 467.759 -5.20448 -1.74429 0
M  V30 4942 H 468.02 -3.64284 -2.50498 0
M  V30 4943 N 467.08 -0.0183926 -1.57589 0
M  V30 4944 C 468.32 0.666846 -1.93216 0
M  V30 4945 C 468.684 1.69905 -0.894215 0
M  V30 4946 O 469.885 2.436 -1.13633 0
M  V30 4947 C 468.156 1.27684 -3.33814 0
M  V30 4948 S 469.715 1.98464 -3.91353 0
M  V30 4949 H 466.533 0.219826 -0.676164 0
M  V30 4950 H 469.135 -0.0794893 -1.95338 0
M  V30 4951 H 467.839 0.513006 -4.07181 0
M  V30 4952 H 467.37 2.06071 -3.3511 0
M  V30 4953 H 469.385 3.26189 -3.73918 0
M  V30 4954 N 468.558 1.5553 0.254621 0
M  V30 4955 C 469.807 1.76202 0.981612 0
M  V30 4956 C 470.12 0.580883 1.86776 0
M  V30 4957 O 471.326 0.670448 2.63092 0
M  V30 4958 C 469.782 3.11921 1.79537 0
M  V30 4959 C 469.39 4.37659 0.956991 0
M  V30 4960 C 471.134 3.41936 2.51555 0
M  V30 4961 C 469.041 5.64411 1.76619 0
M  V30 4962 H 467.971 0.656841 0.370237 0
M  V30 4963 H 470.622 1.81969 0.236556 0
M  V30 4964 H 469.004 3.00241 2.58208 0
M  V30 4965 H 470.178 4.60307 0.21315 0
M  V30 4966 H 468.493 4.14922 0.350497 0
M  V30 4967 H 471.09 4.33849 3.12536 0
M  V30 4968 H 471.433 2.62905 3.22779 0
M  V30 4969 H 471.966 3.54797 1.799 0
M  V30 4970 H 468.705 6.46241 1.09783 0
M  V30 4971 H 468.225 5.45877 2.48551 0
M  V30 4972 H 469.904 6.03386 2.33527 0
M  V30 4973 N 470.036 -0.519951 1.48776 0
M  V30 4974 C 470.999 -1.60574 1.6355 0
M  V30 4975 C 471.999 -1.52557 0.508234 0
M  V30 4976 O 473.189 -1.56047 0.774262 0
M  V30 4977 C 470.321 -3.00211 1.61512 0
M  V30 4978 H 471.514 -1.4881 2.60376 0
M  V30 4979 H 469.067 -0.742772 1.37523 0
M  V30 4980 H 469.802 -3.17471 0.662009 0
M  V30 4981 H 469.587 -3.07439 2.43359 0
M  V30 4982 H 471.077 -3.79134 1.75064 0
M  V30 4983 N 471.514 -1.37532 -0.769588 0
M  V30 4984 C 472.791 -1.23392 -1.51768 0
M  V30 4985 C 473.171 0.17157 -2.10402 0
M  V30 4986 O 472.519 1.17943 -1.95708 0
M  V30 4987 C 472.729 -2.33163 -2.59685 0
M  V30 4988 C 474.077 -2.70809 -3.27028 0
M  V30 4989 O 475.101 -2.32355 -2.69981 0
M  V30 4990 O 473.96 -3.37066 -4.30173 0
M  V30 4991 H 471.054 -0.481617 -0.67229 0
M  V30 4992 H 473.6 -1.49318 -0.806368 0
M  V30 4993 H 472.372 -3.27273 -2.14494 0
M  V30 4994 H 471.995 -2.08713 -3.38415 0
M  V30 4995 N 472.992 0.995999 -1.22138 0
M  V30 4996 C 473.902 2.11985 -1.00496 0
M  V30 4997 C 474.918 1.7394 0.0457701 0
M  V30 4998 O 476.094 2.00868 -0.146273 0
M  V30 4999 C 473.159 3.41779 -0.582086 0
M  V30 5000 C 472.22 3.93943 -1.70608 0
M  V30 5001 C 471.453 5.17542 -1.30328 0
M  V30 5002 O 471.676 5.70114 -0.180743 0
M  V30 5003 O 470.61 5.63382 -2.11861 0
M  V30 5004 H 474.436 2.33123 -1.94647 0
M  V30 5005 H 472.021 1.10358 -1.00705 0
M  V30 5006 H 473.903 4.1989 -0.356467 0
M  V30 5007 H 472.578 3.22007 0.330592 0
M  V30 5008 H 471.485 3.17019 -1.98619 0
M  V30 5009 H 472.818 4.18141 -2.59651 0
M  V30 5010 N 474.47 1.03057 1.19235 0
M  V30 5011 C 475.716 0.729098 1.89241 0
M  V30 5012 C 476.049 -0.740573 1.79525 0
M  V30 5013 O 475.324 -1.53946 1.18874 0
M  V30 5014 C 475.607 1.18304 3.40112 0
M  V30 5015 C 475.46 2.71406 3.5869 0
M  V30 5016 C 476.779 0.765161 4.33397 0
M  V30 5017 H 473.898 0.266338 0.687192 0
M  V30 5018 H 476.54 1.28079 1.40341 0
M  V30 5019 H 474.69 0.713672 3.81889 0
M  V30 5020 H 476.362 3.26303 3.26074 0
M  V30 5021 H 474.605 3.11717 3.01687 0
M  V30 5022 H 475.276 2.98225 4.64506 0
M  V30 5023 H 477.752 1.16889 3.99345 0
M  V30 5024 H 476.628 1.11065 5.37546 0
M  V30 5025 H 476.889 -0.332372 4.40849 0
M  V30 5026 N 475.948 -1.35272 0.808662 0
M  V30 5027 C 476.88 -2.28507 0.178149 0
M  V30 5028 C 477.893 -1.50377 -0.623754 0
M  V30 5029 O 479.082 -1.72583 -0.455774 0
M  V30 5030 C 476.182 -3.30038 -0.769959 0
M  V30 5031 C 475.355 -4.37398 -0.0139749 0
M  V30 5032 C 474.414 -5.18775 -0.880875 0
M  V30 5033 O 473.44 -5.68236 -0.331059 0
M  V30 5034 N 474.642 -5.37087 -2.20267 0
M  V30 5035 H 477.407 -2.83255 0.979106 0
M  V30 5036 H 474.968 -1.47643 0.664308 0
M  V30 5037 H 476.96 -3.81371 -1.35418 0
M  V30 5038 H 475.53 -2.75789 -1.47171 0
M  V30 5039 H 474.75 -3.86971 0.751468 0
M  V30 5040 H 476.038 -5.06268 0.506965 0
M  V30 5041 H 475.436 -4.9855 -2.67328 0
M  V30 5042 H 473.993 -5.91593 -2.73608 0
M  V30 5043 N 477.426 -0.562348 -1.47226 0
M  V30 5044 C 478.654 -0.0452275 -2.06851 0
M  V30 5045 C 479.069 1.25078 -1.41424 0
M  V30 5046 O 478.426 1.75156 -0.512513 0
M  V30 5047 C 478.477 0.148674 -3.61194 0
M  V30 5048 O 478.198 -1.09602 -4.24169 0
M  V30 5049 C 479.699 0.702488 -4.37699 0
M  V30 5050 H 476.919 -0.0481775 -0.669268 0
M  V30 5051 H 479.463 -0.777223 -1.89155 0
M  V30 5052 H 477.618 0.830817 -3.78386 0
M  V30 5053 H 478.032 -0.896982 -5.16773 0
M  V30 5054 H 479.506 0.78743 -5.46355 0
M  V30 5055 H 479.983 1.71493 -4.04335 0
M  V30 5056 H 480.589 0.0558772 -4.25263 0
M  V30 5057 N 478.904 1.54736 -0.299062 0
M  V30 5058 C 480.152 1.99706 0.31017 0
M  V30 5059 C 480.473 1.18896 1.54559 0
M  V30 5060 O 479.743 0.284445 1.93824 0
M  V30 5061 H 478.323 0.737686 0.117596 0
M  V30 5062 H 480.985 1.9054 -0.409943 0
M  V30 5063 H 480.081 3.06596 0.58355 0
M  V30 5064 N 480.382 0.0267497 1.57577 0
M  V30 5065 C 481.629 -0.652404 1.91703 0
M  V30 5066 C 481.957 -1.72271 0.902936 0
M  V30 5067 O 481.212 -1.955 -0.0884843 0
M  V30 5068 C 481.511 -1.30914 3.3256 0
M  V30 5069 C 481.177 -0.369441 4.49384 0
M  V30 5070 C 479.839 -0.110791 4.81072 0
M  V30 5071 C 482.191 0.275971 5.20469 0
M  V30 5072 C 479.519 0.801116 5.81205 0
M  V30 5073 C 481.871 1.17592 6.21575 0
M  V30 5074 C 480.535 1.44348 6.51705 0
M  V30 5075 H 479.805 -0.238732 0.70149 0
M  V30 5076 H 482.452 0.0880091 1.91298 0
M  V30 5077 H 480.757 -2.12425 3.29216 0
M  V30 5078 H 482.454 -1.84115 3.56234 0
M  V30 5079 H 479.044 -0.581211 4.24641 0
M  V30 5080 H 483.228 0.0892 4.9622 0
M  V30 5081 H 478.484 1.01614 6.02897 0
M  V30 5082 H 482.658 1.68223 6.75777 0
M  V30 5083 H 480.285 2.15176 7.29111 0
M  V30 5084 N 481.861 -1.55662 -0.24637 0
M  V30 5085 C 483.109 -1.77168 -0.972411 0
M  V30 5086 C 483.43 -0.590827 -1.85834 0
M  V30 5087 O 482.7 0.393365 -1.9191 0
M  V30 5088 H 481.28 -0.653405 -0.362038 0
M  V30 5089 H 483.942 -1.93101 -0.264189 0
M  V30 5090 H 483.038 -2.68335 -1.59382 0
M  V30 5091 N 483.339 0.512053 -1.4905 0
M  V30 5092 C 484.755 0.84224 -1.35567 0
M  V30 5093 C 484.955 1.97878 -0.380319 0
M  V30 5094 O 484.011 2.51769 0.19201 0
M  V30 5095 C 485.324 1.19286 -2.76028 0
M  V30 5096 C 486.872 1.30171 -2.84648 0
M  V30 5097 C 487.347 1.68568 -4.25851 0
M  V30 5098 N 488.838 1.75638 -4.28609 0
M  V30 5099 C 489.573 2.06769 -5.34821 0
M  V30 5100 N 489.069 2.36201 -6.51292 0
M  V30 5101 N 490.862 2.07927 -5.22229 0
M  V30 5102 H 483.013 -0.237574 -2.11067 0
M  V30 5103 H 485.276 -0.0436747 -0.946993 0
M  V30 5104 H 484.982 0.431199 -3.49047 0
M  V30 5105 H 484.856 2.13889 -3.10695 0
M  V30 5106 H 487.243 2.05411 -2.11873 0
M  V30 5107 H 487.324 0.336457 -2.53578 0
M  V30 5108 H 486.968 0.938824 -4.99148 0
M  V30 5109 H 486.898 2.66174 -4.54377 0
M  V30 5110 H 489.389 1.55097 -3.44606 0
M  V30 5111 H 489.702 2.59112 -7.28066 0
M  V30 5112 H 488.047 2.33681 -6.54536 0
M  V30 5113 H 491.238 1.84403 -4.30248 0
M  V30 5114 H 491.411 2.31856 -6.05101 0
M  V30 5115 N 484.817 1.37938 0.762283 0
M  V30 5116 C 485.747 1.37176 1.88958 0
M  V30 5117 C 486.728 0.238945 1.68413 0
M  V30 5118 O 487.913 0.440726 1.89133 0
M  V30 5119 C 485.043 1.18742 3.2637 0
M  V30 5120 C 483.997 2.29136 3.61498 0
M  V30 5121 C 483.323 1.95816 4.97554 0
M  V30 5122 C 484.623 3.71363 3.6727 0
M  V30 5123 H 486.317 2.31509 1.89853 0
M  V30 5124 H 483.863 1.11438 0.912005 0
M  V30 5125 H 485.816 1.16837 4.04879 0
M  V30 5126 H 484.54 0.208683 3.25933 0
M  V30 5127 H 483.199 2.30213 2.85303 0
M  V30 5128 H 482.847 0.964475 4.93667 0
M  V30 5129 H 482.547 2.69745 5.22026 0
M  V30 5130 H 484.071 1.95513 5.78452 0
M  V30 5131 H 485.485 3.72364 4.35911 0
M  V30 5132 H 483.882 4.44425 4.03245 0
M  V30 5133 H 484.952 4.04305 2.67704 0
M  V30 5134 N 486.295 -0.989507 1.22664 0
M  V30 5135 C 487.543 -1.72612 1.05117 0
M  V30 5136 C 487.864 -1.90552 -0.414131 0
M  V30 5137 O 487.134 -1.4676 -1.29762 0
M  V30 5138 H 485.714 -0.639555 0.385977 0
M  V30 5139 H 488.376 -1.19158 1.54232 0
M  V30 5140 H 487.472 -2.71926 1.53175 0
M  V30 5141 N 487.773 -1.03688 -1.18687 0
M  V30 5142 C 488.998 -0.757819 -1.93059 0
M  V30 5143 C 489.423 0.678353 -1.75442 0
M  V30 5144 O 488.781 1.46938 -1.06203 0
M  V30 5145 C 488.829 -1.12423 -3.42627 0
M  V30 5146 O 487.933 -0.247505 -4.11657 0
M  V30 5147 H 487.274 -0.279245 -0.602427 0
M  V30 5148 H 489.804 -1.3857 -1.5053 0
M  V30 5149 H 489.814 -1.08454 -3.93322 0
M  V30 5150 H 488.489 -2.17049 -3.54771 0
M  V30 5151 H 487.066 -0.34649 -3.71287 0
M  V30 5152 N 489.251 1.34841 -0.815825 0
M  V30 5153 C 490.201 2.27075 -0.205169 0
M  V30 5154 C 491.185 1.48205 0.626414 0
M  V30 5155 O 492.377 1.70306 0.482157 0
M  V30 5156 C 489.506 3.37322 0.637871 0
M  V30 5157 C 488.592 4.23609 -0.203948 0
M  V30 5158 N 488.983 4.89558 -1.27149 0
M  V30 5159 C 487.281 4.45998 0.0128971 0
M  V30 5160 C 487.982 5.53597 -1.7862 0
M  V30 5161 N 486.958 5.32535 -1.0912 0
M  V30 5162 H 490.76 2.75563 -1.02187 0
M  V30 5163 H 488.274 1.48477 -0.657912 0
M  V30 5164 H 490.271 4.02359 1.09146 0
M  V30 5165 H 488.931 2.90385 1.45281 0
M  V30 5166 H 489.942 4.9077 -1.65423 0
M  V30 5167 H 486.619 4.09837 0.79624 0
M  V30 5168 H 488.009 6.16184 -2.67892 0
M  V30 5169 N 490.729 0.570148 1.46925 0
M  V30 5170 C 491.976 0.0509529 2.02436 0
M  V30 5171 C 492.304 -1.30405 1.44308 0
M  V30 5172 O 491.559 -1.86493 0.593198 0
M  V30 5173 C 491.858 -0.0780336 3.57315 0
M  V30 5174 C 491.524 1.20775 4.34424 0
M  V30 5175 C 490.186 1.56004 4.5521 0
M  V30 5176 C 492.538 2.0592 4.78797 0
M  V30 5177 C 489.866 2.76201 5.17619 0
M  V30 5178 C 492.218 3.25332 5.42533 0
M  V30 5179 C 490.882 3.60859 5.61549 0
M  V30 5180 H 490.152 0.018645 0.740765 0
M  V30 5181 H 492.799 0.744262 1.76445 0
M  V30 5182 H 491.104 -0.854394 3.82371 0
M  V30 5183 H 492.801 -0.495312 3.97929 0
M  V30 5184 H 489.391 0.923469 4.18533 0
M  V30 5185 H 493.575 1.80008 4.62505 0
M  V30 5186 H 488.831 3.0388 5.30535 0
M  V30 5187 H 493.005 3.91586 5.75876 0
M  V30 5188 H 490.632 4.54088 6.09678 0
M  V30 5189 N 492.207 -1.54576 0.307264 0
M  V30 5190 C 493.453 -2.01272 -0.293453 0
M  V30 5191 C 493.808 -1.19178 -1.51044 0
M  V30 5192 O 493.101 -0.261704 -1.89804 0
M  V30 5193 C 493.295 -3.50572 -0.695253 0
M  V30 5194 C 493.124 -4.47118 0.481249 0
M  V30 5195 C 491.894 -4.958 0.97524 0
M  V30 5196 C 494.092 -4.96853 1.32823 0
M  V30 5197 N 492.074 -5.76212 2.11785 0
M  V30 5198 C 493.445 -5.75028 2.31824 0
M  V30 5199 C 495.5 -4.79026 1.35788 0
M  V30 5200 C 494.203 -6.37276 3.33574 0
M  V30 5201 C 496.229 -5.42097 2.364 0
M  V30 5202 C 495.591 -6.2011 3.34129 0
M  V30 5203 H 491.69 -0.778709 -0.0716705 0
M  V30 5204 H 494.274 -1.89695 0.438602 0
M  V30 5205 H 492.445 -3.62427 -1.39647 0
M  V30 5206 H 494.177 -3.84056 -1.27604 0
M  V30 5207 H 490.932 -4.70405 0.549184 0
M  V30 5208 H 491.356 -6.21101 2.69375 0
M  V30 5209 H 495.998 -4.18288 0.616021 0
M  V30 5210 H 493.716 -6.97144 4.08676 0
M  V30 5211 H 497.302 -5.30229 2.39475 0
M  V30 5212 H 496.182 -6.68049 4.10707 0
M  V30 5213 N 493.685 -0.035106 -1.57561 0
M  V30 5214 C 494.933 0.64096 -1.91667 0
M  V30 5215 C 495.254 1.72323 -0.912681 0
M  V30 5216 O 494.524 1.95849 0.0449089 0
M  V30 5217 H 493.104 0.239743 -0.707483 0
M  V30 5218 H 495.766 -0.084321 -1.94718 0
M  V30 5219 H 494.862 1.08987 -2.92452 0
M  V30 5220 N 495.163 1.55791 0.238111 0
M  V30 5221 C 496.41 1.78033 0.964907 0
M  V30 5222 C 496.738 0.600984 1.84982 0
M  V30 5223 O 495.993 -0.41536 1.91241 0
M  V30 5224 C 496.292 3.05869 1.84875 0
M  V30 5225 C 495.958 4.36808 1.11846 0
M  V30 5226 C 494.62 4.72388 0.916662 0
M  V30 5227 C 496.972 5.17717 0.60151 0
M  V30 5228 C 494.3 5.86406 0.185756 0
M  V30 5229 C 496.652 6.32494 -0.115972 0
M  V30 5230 C 495.316 6.66688 -0.329168 0
M  V30 5231 H 494.586 0.651469 0.353085 0
M  V30 5232 H 497.233 1.90061 0.234318 0
M  V30 5233 H 495.538 2.88891 2.64668 0
M  V30 5234 H 497.235 3.20278 2.41294 0
M  V30 5235 H 493.825 4.08862 1.28569 0
M  V30 5236 H 498.009 4.90678 0.744932 0
M  V30 5237 H 493.265 6.11399 0.0101886 0
M  V30 5238 H 497.439 6.94425 -0.524127 0
M  V30 5239 H 495.066 7.54884 -0.897474 0
M  V30 5240 N 496.642 -0.504142 1.49319 0
M  V30 5241 C 497.574 -1.62265 1.61872 0
M  V30 5242 C 498.587 -1.54881 0.501573 0
M  V30 5243 O 499.776 -1.6087 0.773497 0
M  V30 5244 C 496.876 -3.01042 1.55651 0
M  V30 5245 C 496.049 -3.33642 2.82845 0
M  V30 5246 C 495.108 -4.51816 2.69719 0
M  V30 5247 O 494.134 -4.53755 3.4365 0
M  V30 5248 N 495.336 -5.51543 1.81055 0
M  V30 5249 H 498.101 -1.51924 2.58339 0
M  V30 5250 H 495.662 -0.691954 1.46368 0
M  V30 5251 H 497.654 -3.78013 1.44528 0
M  V30 5252 H 496.224 -3.05323 0.670546 0
M  V30 5253 H 495.444 -2.45598 3.08343 0
M  V30 5254 H 496.732 -3.5222 3.67177 0
M  V30 5255 H 496.13 -5.52774 1.20241 0
M  V30 5256 H 494.687 -6.27629 1.75856 0
M  V30 5257 N 498.12 -1.38341 -0.754957 0
M  V30 5258 C 499.348 -1.37704 -1.54419 0
M  V30 5259 C 499.763 0.0335243 -1.8877 0
M  V30 5260 O 499.12 0.999773 -1.52679 0
M  V30 5261 C 499.171 -2.23136 -2.84416 0
M  V30 5262 O 498.892 -3.58697 -2.51531 0
M  V30 5263 C 500.393 -2.30664 -3.78562 0
M  V30 5264 H 497.613 -0.471061 -0.477852 0
M  V30 5265 H 500.157 -1.81902 -0.934446 0
M  V30 5266 H 498.312 -1.82403 -3.41772 0
M  V30 5267 H 498.726 -4.03665 -3.34896 0
M  V30 5268 H 500.2 -2.9473 -4.66732 0
M  V30 5269 H 500.677 -1.3199 -4.18898 0
M  V30 5270 H 501.283 -2.71781 -3.27131 0
M  V30 5271 N 499.598 0.982988 -1.23187 0
M  V30 5272 C 500.548 2.05962 -0.977942 0
M  V30 5273 C 501.532 1.60725 0.0751148 0
M  V30 5274 O 502.724 1.76471 -0.136683 0
M  V30 5275 C 499.853 3.38564 -0.568276 0
M  V30 5276 C 498.939 3.90407 -1.6566 0
M  V30 5277 N 499.33 4.15359 -2.88635 0
M  V30 5278 C 497.628 4.18915 -1.53058 0
M  V30 5279 C 498.329 4.57642 -3.5908 0
M  V30 5280 N 497.305 4.6192 -2.86584 0
M  V30 5281 H 501.107 2.23208 -1.91195 0
M  V30 5282 H 498.621 1.16555 -1.13087 0
M  V30 5283 H 500.618 4.15276 -0.36764 0
M  V30 5284 H 499.278 3.22712 0.358713 0
M  V30 5285 H 500.289 4.03258 -3.24966 0
M  V30 5286 H 496.966 4.12081 -0.670506 0
M  V30 5287 H 498.356 4.85488 -4.6449 0
M  V30 5288 N 501.076 1.04316 1.18135 0
M  V30 5289 C 502.353 0.662166 1.84051 0
M  V30 5290 C 502.733 -0.858169 1.9287 0
M  V30 5291 O 502.081 -1.76062 1.45652 0
M  V30 5292 C 502.291 1.3409 3.22212 0
M  V30 5293 C 503.639 1.4733 3.9822 0
M  V30 5294 O 504.663 1.29921 3.31661 0
M  V30 5295 O 503.522 1.75722 5.17479 0
M  V30 5296 H 500.616 0.232005 0.79379 0
M  V30 5297 H 503.162 1.1422 1.25506 0
M  V30 5298 H 501.934 2.37853 3.10711 0
M  V30 5299 H 501.557 0.849649 3.88416 0
M  V30 5300 N 502.554 -1.34406 0.822964 0
M  V30 5301 C 503.8 -1.98578 0.411666 0
M  V30 5302 C 504.133 -1.65093 -1.02264 0
M  V30 5303 O 503.408 -0.92258 -1.71227 0
M  V30 5304 C 503.691 -3.54823 0.614235 0
M  V30 5305 C 503.544 -3.9805 2.09466 0
M  V30 5306 C 504.863 -4.40071 0.050221 0
M  V30 5307 H 501.982 -0.721355 0.151047 0
M  V30 5308 H 504.624 -1.59301 1.03554 0
M  V30 5309 H 502.774 -3.88411 0.0831774 0
M  V30 5310 H 504.446 -3.74795 2.68936 0
M  V30 5311 H 502.689 -3.4836 2.5851 0
M  V30 5312 H 503.36 -5.06819 2.18721 0
M  V30 5313 H 505.836 -4.13037 0.503953 0
M  V30 5314 H 504.712 -5.48452 0.221759 0
M  V30 5315 H 504.973 -4.29576 -1.04482 0
M  V30 5316 N 504.032 -0.577932 -1.46621 0
M  V30 5317 C 504.962 0.145917 -2.33044 0
M  V30 5318 C 505.943 0.888412 -1.45056 0
M  V30 5319 O 507.128 0.864812 -1.73881 0
M  V30 5320 C 504.258 1.16322 -3.27241 0
M  V30 5321 C 503.212 0.535868 -4.24632 0
M  V30 5322 C 502.538 1.65929 -5.08303 0
M  V30 5323 C 503.838 -0.523861 -5.19666 0
M  V30 5324 H 505.532 -0.575636 -2.93814 0
M  V30 5325 H 503.078 -0.278272 -1.41286 0
M  V30 5326 H 505.031 1.67793 -3.86553 0
M  V30 5327 H 503.755 1.91498 -2.64567 0
M  V30 5328 H 502.414 0.0422759 -3.66576 0
M  V30 5329 H 502.062 2.40061 -4.42018 0
M  V30 5330 H 501.762 1.2452 -5.74255 0
M  V30 5331 H 503.286 2.17686 -5.70478 0
M  V30 5332 H 504.7 -0.0944059 -5.73222 0
M  V30 5333 H 503.097 -0.858 -5.93935 0
M  V30 5334 H 504.167 -1.41197 -4.63887 0
M  V30 5335 N 505.51 1.54411 -0.315457 0
M  V30 5336 C 506.921 1.85885 0.174265 0
M  V30 5337 C 507.272 1.23723 1.52273 0
M  V30 5338 O 506.397 0.540246 2.09548 0
M  V30 5339 C 506.992 3.37257 0.322981 0
M  V30 5340 C 505.551 3.68711 0.756922 0
M  V30 5341 C 504.698 2.77013 -0.126195 0
M  V30 5342 H 507.649 1.49374 -0.536007 0
M  V30 5343 H 507.67 3.62539 1.15522 0
M  V30 5344 H 507.182 3.82471 -0.658602 0
M  V30 5345 H 505.283 3.29024 1.74854 0
M  V30 5346 H 505.396 4.75741 0.566291 0
M  V30 5347 H 503.76 2.51588 0.39692 0
M  V30 5348 H 504.543 3.25051 -1.1044 0
M  V30 5349 N 506.988 0.0434614 1.5754 0
M  V30 5350 C 508.265 -0.671479 1.83713 0
M  V30 5351 C 508.645 -1.89495 0.930315 0
M  V30 5352 O 507.993 -2.28498 -0.0105639 0
M  V30 5353 C 508.203 -1.0361 3.33266 0
M  V30 5354 C 509.551 -1.42167 4.00092 0
M  V30 5355 O 510.575 -1.12866 3.37846 0
M  V30 5356 O 509.434 -1.96817 5.09829 0
M  V30 5357 H 506.528 -0.330726 0.75799 0
M  V30 5358 H 509.074 0.0722373 1.69546 0
M  V30 5359 H 507.846 -0.165938 3.90948 0
M  V30 5360 H 507.469 -1.83751 3.52592 0
M  V30 5361 N 508.466 -1.55915 -0.229846 0
M  V30 5362 C 509.715 -1.77742 -0.953455 0
M  V30 5363 C 510.028 -0.610524 -1.85828 0
M  V30 5364 O 511.234 -0.712219 -2.61992 0
M  V30 5365 C 509.69 -3.14738 -1.74551 0
M  V30 5366 C 509.298 -4.39126 -0.887242 0
M  V30 5367 C 511.042 -3.45895 -2.46084 0
M  V30 5368 C 508.949 -5.67149 -1.67617 0
M  V30 5369 H 507.879 -0.662648 -0.359741 0
M  V30 5370 H 510.53 -1.82322 -0.207576 0
M  V30 5371 H 508.912 -3.04311 -2.53399 0
M  V30 5372 H 510.086 -4.60588 -0.139892 0
M  V30 5373 H 508.401 -4.15427 -0.284443 0
M  V30 5374 H 510.998 -4.38767 -3.05594 0
M  V30 5375 H 511.341 -2.68007 -3.18556 0
M  V30 5376 H 511.874 -3.57614 -1.74233 0
M  V30 5377 H 508.613 -6.47906 -0.994881 0
M  V30 5378 H 508.133 -5.49763 -2.39836 0
M  V30 5379 H 509.812 -6.07025 -2.23898 0
M  V30 5380 N 509.944 0.496216 -1.49584 0
M  V30 5381 C 511.19 1.25189 -1.59548 0
M  V30 5382 C 511.523 1.9212 -0.283466 0
M  V30 5383 O 510.798 1.80947 0.713324 0
M  V30 5384 C 511.081 2.31516 -2.75812 0
M  V30 5385 C 510.934 1.69054 -4.16822 0
M  V30 5386 C 512.253 3.3304 -2.87702 0
M  V30 5387 H 509.372 0.45379 -0.580727 0
M  V30 5388 H 512.014 0.549327 -1.81886 0
M  V30 5389 H 510.164 2.91438 -2.56897 0
M  V30 5390 H 511.836 1.12923 -4.47265 0
M  V30 5391 H 510.079 0.994485 -4.22247 0
M  V30 5392 H 510.75 2.462 -4.94054 0
M  V30 5393 H 513.226 2.83114 -3.04936 0
M  V30 5394 H 512.102 4.04794 -3.7072 0
M  V30 5395 H 512.363 3.95655 -1.97255 0
M  V30 5396 N 511.423 1.38739 0.74761 0
M  V30 5397 C 512.651 1.38521 1.53686 0
M  V30 5398 C 513.066 -0.0235129 1.88785 0
M  V30 5399 O 512.423 -0.991662 1.53207 0
M  V30 5400 C 512.474 2.24641 2.83229 0
M  V30 5401 O 512.195 3.60026 2.49625 0
M  V30 5402 C 513.696 2.32669 3.77333 0
M  V30 5403 H 510.916 0.473589 0.475347 0
M  V30 5404 H 513.46 1.82395 0.924786 0
M  V30 5405 H 511.615 1.84213 3.40799 0
M  V30 5406 H 512.029 4.05435 3.3275 0
M  V30 5407 H 513.503 2.97201 4.65162 0
M  V30 5408 H 513.98 1.3421 4.18192 0
M  V30 5409 H 514.586 2.73512 3.25685 0
M  V30 5410 N 512.901 -0.976442 1.23707 0
M  V30 5411 C 513.834 -2.06793 0.964973 0
M  V30 5412 C 514.812 -1.62304 -0.0981472 0
M  V30 5413 O 515.996 -1.88464 0.0369477 0
M  V30 5414 C 513.123 -3.35636 0.454522 0
M  V30 5415 C 512.169 -3.99069 1.50485 0
M  V30 5416 S 513.002 -4.37814 3.0835 0
M  V30 5417 C 514.158 -5.69805 2.58985 0
M  V30 5418 H 514.391 -2.29556 1.88922 0
M  V30 5419 H 511.924 -1.11317 1.06995 0
M  V30 5420 H 513.882 -4.10162 0.166626 0
M  V30 5421 H 512.543 -3.10876 -0.448871 0
M  V30 5422 H 511.736 -4.91896 1.09792 0
M  V30 5423 H 511.338 -3.30938 1.7423 0
M  V30 5424 H 513.63 -6.46919 2.01252 0
M  V30 5425 H 514.573 -6.15345 3.50366 0
M  V30 5426 H 514.981 -5.27994 1.99705 0
M  V30 5427 N 514.379 -1.04941 -1.1758 0
M  V30 5428 C 515.342 -0.652456 -2.19717 0
M  V30 5429 C 516.342 0.294745 -1.58076 0
M  V30 5430 O 517.532 0.0789579 -1.74021 0
M  V30 5431 C 514.664 0.0420712 -3.40874 0
M  V30 5432 H 515.857 -1.55642 -2.5635 0
M  V30 5433 H 513.41 -0.842995 -1.31618 0
M  V30 5434 H 514.145 0.95943 -3.09783 0
M  V30 5435 H 513.93 -0.638844 -3.86861 0
M  V30 5436 H 515.42 0.306 -4.16477 0
M  V30 5437 N 515.857 1.33968 -0.830081 0
M  V30 5438 C 516.804 2.29387 -0.255008 0
M  V30 5439 C 517.774 1.53923 0.624243 0
M  V30 5440 O 518.959 1.82262 0.564372 0
M  V30 5441 C 516.099 3.4034 0.571209 0
M  V30 5442 C 515.212 4.30729 -0.331083 0
M  V30 5443 C 514.347 5.2879 0.505389 0
M  V30 5444 C 513.386 6.10819 -0.395843 0
M  V30 5445 N 512.523 7.00948 0.401979 0
M  V30 5446 H 517.363 2.77972 -1.07404 0
M  V30 5447 H 514.9 1.36785 -0.541133 0
M  V30 5448 H 516.858 4.03361 1.06562 0
M  V30 5449 H 515.488 2.9297 1.35529 0
M  V30 5450 H 514.54 3.68507 -0.943759 0
M  V30 5451 H 515.852 4.88181 -1.02377 0
M  V30 5452 H 515.006 5.97297 1.06399 0
M  V30 5453 H 513.745 4.71894 1.23155 0
M  V30 5454 H 512.75 5.41238 -0.966529 0
M  V30 5455 H 513.975 6.69797 -1.12023 0
M  V30 5456 H 511.921 6.46512 1.11168 0
M  V30 5457 H 511.838 7.55643 -0.232167 0
M  V30 5458 H 513.106 7.73774 0.943102 0
M  V30 5459 N 517.335 0.585699 1.46312 0
M  V30 5460 C 518.583 0.072278 2.01971 0
M  V30 5461 C 518.904 -1.29345 1.45928 0
M  V30 5462 O 518.174 -1.84973 0.645109 0
M  V30 5463 H 516.754 0.023729 0.746623 0
M  V30 5464 H 519.416 0.762155 1.7938 0
M  V30 5465 H 518.512 0.00552767 3.121 0
M  V30 5466 N 518.813 -1.54241 0.323641 0
M  V30 5467 C 520.062 -1.9975 -0.279806 0
M  V30 5468 C 520.375 -1.2156 -1.5324 0
M  V30 5469 O 521.581 -1.57447 -2.21185 0
M  V30 5470 C 520.037 -3.55686 -0.549115 0
M  V30 5471 C 519.645 -4.4271 0.686432 0
M  V30 5472 C 521.389 -4.09663 -1.11251 0
M  V30 5473 C 519.296 -5.90119 0.389022 0
M  V30 5474 H 518.226 -0.746177 -0.10833 0
M  V30 5475 H 520.877 -1.78248 0.435877 0
M  V30 5476 H 519.259 -3.73176 -1.32499 0
M  V30 5477 H 520.433 -4.36996 1.46188 0
M  V30 5478 H 518.748 -3.99623 1.17005 0
M  V30 5479 H 521.345 -5.17386 -1.34965 0
M  V30 5480 H 521.688 -3.61651 -2.06191 0
M  V30 5481 H 522.221 -3.95806 -0.39782 0
M  V30 5482 H 518.96 -6.42326 1.30759 0
M  V30 5483 H 518.48 -5.98785 -0.348722 0
M  V30 5484 H 520.159 -6.47 -0.0011164 0
M  V30 5485 N 520.291 -0.0518155 -1.57515 0
M  V30 5486 C 521.539 0.620595 -1.92336 0
M  V30 5487 C 521.86 1.71345 -0.930907 0
M  V30 5488 O 521.13 1.95885 0.0241341 0
M  V30 5489 H 519.71 0.232226 -0.709986 0
M  V30 5490 H 522.372 -0.104969 -1.94617 0
M  V30 5491 H 521.468 1.05879 -2.93592 0
M  V30 5492 N 521.769 1.56035 0.221574 0
M  V30 5493 C 522.717 1.93269 1.29421 0
M  V30 5494 C 523.711 0.814727 1.48521 0
M  V30 5495 O 524.917 0.999559 1.49696 0
M  V30 5496 H 521.292 0.614188 0.43391 0
M  V30 5497 H 523.263 2.82773 0.952987 0
M  V30 5498 C 522.012 2.26573 2.63742 0
M  V30 5499 H 521.335 3.12112 2.49853 0
M  V30 5500 H 522.775 2.5651 3.37607 0
M  V30 5501 C 521.234 1.09086 3.1875 0
M  V30 5502 O 521.764 0.351985 4.00155 0
M  V30 5503 N 519.97 0.874693 2.77124 0
M  V30 5504 H 519.517 1.47726 2.11033 0
M  V30 5505 H 519.475 0.0903349 3.1427 0
M  V30 5506 N 523.247 -0.488276 1.49845 0
M  V30 5507 C 524.495 -1.23911 1.59657 0
M  V30 5508 C 524.816 -1.92816 0.291005 0
M  V30 5509 O 524.086 -1.83328 -0.690485 0
M  V30 5510 H 522.666 -0.460357 0.588286 0
M  V30 5511 H 525.328 -0.564794 1.86537 0
M  V30 5512 H 524.424 -1.99625 2.39909 0
M  V30 5513 N 524.725 -1.39134 -0.740242 0
M  V30 5514 C 525.972 -1.36071 -1.49969 0
M  V30 5515 C 526.3 0.0450245 -1.94448 0
M  V30 5516 O 525.555 1.02482 -1.66721 0
M  V30 5517 C 525.854 -2.27457 -2.75678 0
M  V30 5518 C 525.52 -3.75185 -2.50094 0
M  V30 5519 C 524.182 -4.15439 -2.42825 0
M  V30 5520 C 526.534 -4.68643 -2.28086 0
M  V30 5521 C 523.862 -5.4722 -2.11584 0
M  V30 5522 C 526.214 -6.00695 -1.98363 0
M  V30 5523 C 524.878 -6.40018 -1.8956 0
M  V30 5524 H 524.148 -0.497921 -0.548777 0
M  V30 5525 H 526.795 -1.71599 -0.85007 0
M  V30 5526 H 525.1 -1.8503 -3.45356 0
M  V30 5527 H 526.797 -2.22384 -3.33686 0
M  V30 5528 H 523.387 -3.43279 -2.56627 0
M  V30 5529 H 527.571 -4.3838 -2.32672 0
M  V30 5530 H 522.827 -5.76615 -2.03287 0
M  V30 5531 H 527.001 -6.72644 -1.80341 0
M  V30 5532 H 524.628 -7.42051 -1.65117 0
M  V30 5533 N 526.204 0.969867 -1.24223 0
M  V30 5534 C 527.615 1.52717 -1.07399 0
M  V30 5535 C 527.966 1.92956 0.355298 0
M  V30 5536 O 527.091 1.77112 1.2434 0
M  V30 5537 C 527.686 2.77521 -1.94339 0
M  V30 5538 C 526.245 3.29615 -1.81744 0
M  V30 5539 C 525.392 2.02537 -1.89405 0
M  V30 5540 H 528.343 0.788399 -1.37732 0
M  V30 5541 H 528.364 3.50773 -1.47439 0
M  V30 5542 H 527.876 2.48203 -2.98357 0
M  V30 5543 H 525.977 3.63789 -0.805505 0
M  V30 5544 H 526.09 3.98661 -2.65718 0
M  V30 5545 H 524.454 2.17151 -1.33108 0
M  V30 5546 H 525.237 1.75587 -2.94999 0
M  V30 5547 N 527.682 1.05563 1.17022 0
M  V30 5548 C 528.615 0.604197 2.20056 0
M  V30 5549 C 529.593 -0.369169 1.58354 0
M  V30 5550 O 530.777 -0.279898 1.8641 0
M  V30 5551 C 527.904 -0.115265 3.38504 0
M  V30 5552 C 526.95 0.813698 4.18666 0
M  V30 5553 S 527.783 2.30492 4.83357 0
M  V30 5554 C 528.939 1.59674 6.0519 0
M  V30 5555 H 529.172 1.47713 2.58008 0
M  V30 5556 H 526.705 0.867932 1.27696 0
M  V30 5557 H 528.663 -0.524162 4.0714 0
M  V30 5558 H 527.324 -0.964284 2.98932 0
M  V30 5559 H 526.517 0.256736 5.03346 0
M  V30 5560 H 526.119 1.16213 3.55486 0
M  V30 5561 H 528.411 0.898164 6.7152 0
M  V30 5562 H 529.354 2.42115 6.65422 0
M  V30 5563 H 529.762 1.08252 5.54023 0
M  V30 5564 N 529.16 -1.33526 0.837174 0
M  V30 5565 C 530.123 -2.27551 0.274421 0
M  V30 5566 C 531.123 -1.50886 -0.555881 0
M  V30 5567 O 532.313 -1.70227 -0.369918 0
M  V30 5568 C 529.445 -3.35332 -0.613605 0
M  V30 5569 H 530.638 -2.78837 1.10408 0
M  V30 5570 H 528.191 -1.439 0.610126 0
M  V30 5571 H 528.926 -2.89285 -1.46577 0
M  V30 5572 H 528.711 -3.92095 -0.0195341 0
M  V30 5573 H 530.201 -4.05433 -1.00068 0
M  V30 5574 N 530.638 -0.59345 -1.46 0
M  V30 5575 C 531.601 0.123538 -2.28867 0
M  V30 5576 C 532.601 0.808628 -1.38989 0
M  V30 5577 O 533.791 0.658945 -1.61256 0
M  V30 5578 C 530.923 1.1847 -3.19653 0
M  V30 5579 H 532.116 -0.604843 -2.93737 0
M  V30 5580 H 529.669 -0.351875 -1.52288 0
M  V30 5581 H 530.404 1.94431 -2.59552 0
M  V30 5582 H 530.189 0.69783 -3.8584 0
M  V30 5583 H 531.679 1.68726 -3.81997 0
M  V30 5584 N 532.116 1.54067 -0.331816 0
M  V30 5585 C 533.362 2.01012 0.268667 0
M  V30 5586 C 533.695 1.2195 1.51136 0
M  V30 5587 O 532.97 0.303972 1.9211 0
M  V30 5588 C 533.253 3.55158 0.59456 0
M  V30 5589 C 533.106 4.4494 -0.659409 0
M  V30 5590 C 534.425 4.16939 1.4089 0
M  V30 5591 H 531.544 0.730698 0.0961756 0
M  V30 5592 H 534.186 1.84593 -0.450031 0
M  V30 5593 H 532.336 3.6928 1.20685 0
M  V30 5594 H 534.008 4.42675 -1.29756 0
M  V30 5595 H 532.251 4.1428 -1.28665 0
M  V30 5596 H 532.922 5.50643 -0.386804 0
M  V30 5597 H 535.398 4.06443 0.891272 0
M  V30 5598 H 534.274 5.24889 1.60569 0
M  V30 5599 H 534.535 3.70798 2.40752 0
M  V30 5600 N 533.594 0.0601682 1.57485 0
M  V30 5601 C 534.843 -0.611101 1.9222 0
M  V30 5602 C 535.156 -1.71469 0.941159 0
M  V30 5603 O 536.362 -2.44473 1.18089 0
M  V30 5604 C 534.818 -1.13832 3.41424 0
M  V30 5605 C 534.426 -0.0663596 4.47951 0
M  V30 5606 C 536.17 -1.78432 3.85178 0
M  V30 5607 C 534.077 -0.606965 5.88277 0
M  V30 5608 H 533.007 -0.232033 0.71741 0
M  V30 5609 H 535.658 0.130518 1.83035 0
M  V30 5610 H 534.04 -1.93254 3.45643 0
M  V30 5611 H 535.214 0.707682 4.55333 0
M  V30 5612 H 533.529 0.482715 4.13593 0
M  V30 5613 H 536.126 -2.1989 4.87394 0
M  V30 5614 H 536.469 -2.63966 3.21913 0
M  V30 5615 H 537.002 -1.05651 3.83514 0
M  V30 5616 H 533.741 0.21095 6.5516 0
M  V30 5617 H 533.261 -1.34879 5.84438 0
M  V30 5618 H 534.94 -1.08704 6.37803 0
M  V30 5619 N 535.072 -1.5615 -0.213296 0
M  V30 5620 C 536.3 -1.83638 -0.953139 0
M  V30 5621 C 536.715 -0.640362 -1.77609 0
M  V30 5622 O 536.072 0.391071 -1.78261 0
M  V30 5623 C 536.123 -3.09735 -1.86405 0
M  V30 5624 O 535.844 -4.24723 -1.07435 0
M  V30 5625 C 537.345 -3.5027 -2.71709 0
M  V30 5626 H 534.565 -0.610263 -0.278962 0
M  V30 5627 H 537.109 -2.03247 -0.226035 0
M  V30 5628 H 535.264 -2.92077 -2.545 0
M  V30 5629 H 535.678 -4.9641 -1.69343 0
M  V30 5630 H 537.152 -4.41515 -3.31313 0
M  V30 5631 H 537.629 -2.72406 -3.44516 0
M  V30 5632 H 538.235 -3.70396 -2.09015 0
M  V30 5633 N 536.55 0.480323 -1.50102 0
M  V30 5634 C 537.778 1.25657 -1.64371 0
M  V30 5635 C 538.193 1.86011 -0.323316 0
M  V30 5636 O 537.55 1.68803 0.693682 0
M  V30 5637 C 537.601 2.37197 -2.728 0
M  V30 5638 O 537.322 1.7932 -3.9972 0
M  V30 5639 C 538.823 3.2823 -2.9796 0
M  V30 5640 H 536.043 0.380369 -0.552775 0
M  V30 5641 H 538.587 0.574379 -1.96268 0
M  V30 5642 H 536.742 3.01208 -2.43623 0
M  V30 5643 H 537.156 2.52701 -4.59611 0
M  V30 5644 H 538.63 4.02725 -3.77513 0
M  V30 5645 H 539.107 3.86462 -2.08671 0
M  V30 5646 H 539.713 2.69964 -3.28633 0
M  V30 5647 N 538.028 1.39524 0.732853 0
M  V30 5648 C 539.439 1.32905 1.31122 0
M  V30 5649 C 539.79 -0.00558708 1.96199 0
M  V30 5650 O 538.915 -0.907706 1.96443 0
M  V30 5651 C 539.51 2.40704 2.38426 0
M  V30 5652 C 538.069 2.37599 2.91931 0
M  V30 5653 C 537.216 2.2248 1.65523 0
M  V30 5654 H 540.167 1.49581 0.530207 0
M  V30 5655 H 540.188 2.07616 3.18867 0
M  V30 5656 H 539.7 3.37829 1.91033 0
M  V30 5657 H 537.801 1.44119 3.43599 0
M  V30 5658 H 537.914 3.32538 3.44899 0
M  V30 5659 H 536.278 1.69691 1.8994 0
M  V30 5660 H 537.061 3.21577 1.20178 0
M  V30 5661 N 539.506 -0.963266 1.24736 0
M  V30 5662 C 540.416 -2.09246 1.06082 0
M  V30 5663 C 541.432 -1.74 0.000363101 0
M  V30 5664 O 542.608 -2.0041 0.199479 0
M  V30 5665 C 539.673 -3.40115 0.672498 0
M  V30 5666 C 538.734 -3.89282 1.80993 0
M  V30 5667 C 537.967 -5.13905 1.44004 0
M  V30 5668 O 538.19 -5.69434 0.331835 0
M  V30 5669 O 537.124 -5.57566 2.26723 0
M  V30 5670 H 540.95 -2.27881 2.00759 0
M  V30 5671 H 538.535 -1.07649 1.03595 0
M  V30 5672 H 540.417 -4.18797 0.467668 0
M  V30 5673 H 539.092 -3.22771 -0.245102 0
M  V30 5674 H 537.999 -3.11642 2.06955 0
M  V30 5675 H 539.332 -4.1111 2.70646 0
M  V30 5676 N 540.985 -1.06182 -1.16461 0
M  V30 5677 C 542.234 -0.772927 -1.86303 0
M  V30 5678 C 542.547 0.703187 -1.82523 0
M  V30 5679 O 543.753 1.10641 -2.47933 0
M  V30 5680 C 542.209 -1.33249 -3.34324 0
M  V30 5681 C 541.817 -2.83876 -3.46581 0
M  V30 5682 C 543.561 -1.12108 -4.09429 0
M  V30 5683 C 541.468 -3.33082 -4.88682 0
M  V30 5684 H 540.398 -0.285452 -0.697878 0
M  V30 5685 H 543.049 -1.28039 -1.31447 0
M  V30 5686 H 541.431 -0.7528 -3.88779 0
M  V30 5687 H 542.605 -3.47786 -3.02293 0
M  V30 5688 H 540.92 -3.03671 -2.84909 0
M  V30 5689 H 543.517 -1.46361 -5.14279 0
M  V30 5690 H 543.86 -0.0593832 -4.16258 0
M  V30 5691 H 544.393 -1.6665 -3.6121 0
M  V30 5692 H 541.132 -4.38726 -4.87032 0
M  V30 5693 H 540.652 -2.73919 -5.33599 0
M  V30 5694 H 542.331 -3.28344 -5.57494 0
M  V30 5695 N 542.463 1.3308 -0.844243 0
M  V30 5696 C 543.426 2.27403 -0.286485 0
M  V30 5697 C 544.426 1.51179 0.547872 0
M  V30 5698 O 545.616 1.70421 0.360886 0
M  V30 5699 C 542.748 3.35653 0.595813 0
M  V30 5700 H 543.941 2.78248 -1.11885 0
M  V30 5701 H 541.494 1.43574 -0.617749 0
M  V30 5702 H 542.229 2.90058 1.4504 0
M  V30 5703 H 542.014 3.921 -0.00125994 0
M  V30 5704 H 543.504 4.05958 0.979168 0
M  V30 5705 N 543.941 0.601185 1.45683 0
M  V30 5706 C 544.888 -0.121396 2.30481 0
M  V30 5707 C 545.858 -0.866232 1.41724 0
M  V30 5708 O 547.043 -0.85324 1.70659 0
M  V30 5709 C 544.183 -1.11704 3.26521 0
M  V30 5710 C 543.296 -0.373741 4.3038 0
M  V30 5711 C 542.431 -1.35854 5.13534 0
M  V30 5712 C 541.47 -0.602689 6.09126 0
M  V30 5713 N 540.607 -1.53645 6.85082 0
M  V30 5714 H 545.447 0.607732 2.91737 0
M  V30 5715 H 542.984 0.311502 1.43764 0
M  V30 5716 H 544.942 -1.70735 3.80664 0
M  V30 5717 H 543.572 -1.81366 2.67032 0
M  V30 5718 H 542.624 0.331962 3.78949 0
M  V30 5719 H 543.936 0.2163 4.98331 0
M  V30 5720 H 543.09 -2.02111 5.72046 0
M  V30 5721 H 541.829 -1.98251 4.45587 0
M  V30 5722 H 540.834 0.0735482 5.49751 0
M  V30 5723 H 542.059 0.0161467 6.79098 0
M  V30 5724 H 540.005 -2.14819 6.1983 0
M  V30 5725 H 539.922 -0.999688 7.49361 0
M  V30 5726 H 541.19 -2.1888 7.48139 0
M  V30 5727 N 545.419 -1.53889 0.339982 0
M  V30 5728 C 546.644 -2.05741 -0.261798 0
M  V30 5729 C 547.069 -1.21354 -1.43718 0
M  V30 5730 O 546.427 -0.22645 -1.7988 0
M  V30 5731 C 546.475 -3.54542 -0.658228 0
M  V30 5732 O 545.579 -3.7302 -1.75869 0
M  V30 5733 H 544.92 -0.662529 -0.0441672 0
M  V30 5734 H 547.45 -1.98568 0.493161 0
M  V30 5735 H 547.46 -3.9711 -0.936368 0
M  V30 5736 H 546.135 -4.15412 0.201358 0
M  V30 5737 H 544.712 -3.42355 -1.47809 0
M  V30 5738 N 546.897 -0.0685191 -1.57451 0
M  V30 5739 C 547.827 0.89747 -2.15564 0
M  V30 5740 C 548.808 1.31266 -1.08181 0
M  V30 5741 O 549.993 1.38429 -1.36202 0
M  V30 5742 C 547.123 2.16623 -2.71463 0
M  V30 5743 C 546.077 1.89054 -3.83982 0
M  V30 5744 C 545.403 3.22532 -4.26471 0
M  V30 5745 C 546.703 1.1984 -5.08366 0
M  V30 5746 H 548.397 0.413373 -2.96533 0
M  V30 5747 H 545.943 0.197391 -1.42641 0
M  V30 5748 H 547.896 2.84614 -3.10761 0
M  V30 5749 H 546.62 2.67269 -1.8771 0
M  V30 5750 H 545.279 1.23469 -3.45183 0
M  V30 5751 H 544.927 3.71013 -3.39644 0
M  V30 5752 H 544.627 3.04879 -5.02317 0
M  V30 5753 H 546.151 3.91727 -4.68383 0
M  V30 5754 H 547.565 1.77896 -5.45001 0
M  V30 5755 H 545.962 1.12456 -5.89469 0
M  V30 5756 H 547.032 0.176996 -4.84577 0
M  V30 5757 N 548.375 1.56261 0.205012 0
M  V30 5758 C 549.338 1.92908 1.23771 0
M  V30 5759 C 550.338 0.809208 1.38955 0
M  V30 5760 O 551.528 1.07676 1.36936 0
M  V30 5761 C 548.66 2.19442 2.60879 0
M  V30 5762 H 549.853 2.85287 0.924728 0
M  V30 5763 H 547.406 1.49798 0.446125 0
M  V30 5764 H 548.141 1.29668 2.97248 0
M  V30 5765 H 547.926 3.0104 2.51232 0
M  V30 5766 H 549.416 2.48833 3.35368 0
M  V30 5767 N 549.853 -0.472356 1.50355 0
M  V30 5768 C 550.8 -1.57051 1.69126 0
M  V30 5769 C 551.77 -1.5733 0.532574 0
M  V30 5770 O 552.955 -1.7488 0.762994 0
M  V30 5771 C 550.095 -2.95033 1.79024 0
M  V30 5772 C 549.208 -3.04552 3.06386 0
M  V30 5773 C 548.343 -4.33441 3.07087 0
M  V30 5774 C 547.382 -4.36697 4.28908 0
M  V30 5775 N 546.519 -5.57056 4.27356 0
M  V30 5776 H 551.359 -1.40351 2.62879 0
M  V30 5777 H 548.896 -0.682403 1.30314 0
M  V30 5778 H 550.854 -3.75048 1.82744 0
M  V30 5779 H 549.484 -3.10371 0.887109 0
M  V30 5780 H 548.536 -2.17419 3.12143 0
M  V30 5781 H 549.848 -3.02818 3.96362 0
M  V30 5782 H 549.002 -5.21801 3.09529 0
M  V30 5783 H 547.741 -4.37782 2.14939 0
M  V30 5784 H 546.746 -3.46734 4.2668 0
M  V30 5785 H 547.971 -4.34049 5.22282 0
M  V30 5786 H 545.917 -5.62184 3.3806 0
M  V30 5787 H 545.834 -5.57058 5.111 0
M  V30 5788 H 547.102 -6.47545 4.33942 0
M  V30 5789 N 551.331 -1.39911 -0.725443 0
M  V30 5790 C 552.571 -1.39096 -1.49772 0
M  V30 5791 C 552.935 0.0106452 -1.91997 0
M  V30 5792 O 554.136 0.143859 -2.68415 0
M  V30 5793 C 552.407 -2.34441 -2.69764 0
M  V30 5794 S 553.966 -2.51898 -3.59295 0
M  V30 5795 H 550.784 -0.49314 -0.512186 0
M  V30 5796 H 553.386 -1.76093 -0.849197 0
M  V30 5797 H 552.09 -3.35123 -2.36898 0
M  V30 5798 H 551.621 -1.98692 -3.39537 0
M  V30 5799 H 553.636 -1.76402 -4.63785 0
M  V30 5800 N 552.809 0.956637 -1.25245 0
M  V30 5801 C 553.739 2.07058 -1.07931 0
M  V30 5802 C 554.72 1.70096 0.0110361 0
M  V30 5803 O 555.905 1.93555 -0.158121 0
M  V30 5804 C 553.035 3.40272 -0.695124 0
M  V30 5805 C 551.989 3.91235 -1.73549 0
M  V30 5806 C 551.315 5.20921 -1.20604 0
M  V30 5807 C 552.615 4.17837 -3.13385 0
M  V30 5808 H 554.309 2.218 -2.01109 0
M  V30 5809 H 551.855 1.06581 -0.968326 0
M  V30 5810 H 553.808 4.1765 -0.560949 0
M  V30 5811 H 552.532 3.25462 0.272355 0
M  V30 5812 H 551.191 3.16025 -1.85807 0
M  V30 5813 H 550.839 5.02479 -0.228846 0
M  V30 5814 H 550.539 5.55987 -1.90136 0
M  V30 5815 H 552.063 6.00897 -1.08421 0
M  V30 5816 H 553.477 4.8588 -3.04292 0
M  V30 5817 H 551.874 4.64154 -3.80369 0
M  V30 5818 H 552.944 3.2419 -3.60595 0
M  V30 5819 N 554.287 1.06798 1.15896 0
M  V30 5820 C 555.219 0.641263 2.20046 0
M  V30 5821 C 556.232 -0.303355 1.59949 0
M  V30 5822 O 557.421 -0.0935478 1.78255 0
M  V30 5823 C 554.521 -0.0794029 3.38807 0
M  V30 5824 C 553.694 0.879986 4.28457 0
M  V30 5825 C 552.753 0.197638 5.25829 0
M  V30 5826 O 551.779 0.836913 5.63014 0
M  V30 5827 N 552.981 -1.05886 5.70761 0
M  V30 5828 H 555.746 1.53718 2.57276 0
M  V30 5829 H 553.307 0.951951 1.30956 0
M  V30 5830 H 555.299 -0.546418 4.00994 0
M  V30 5831 H 553.869 -0.877193 3.0004 0
M  V30 5832 H 553.089 1.52625 3.63454 0
M  V30 5833 H 554.377 1.53065 4.8523 0
M  V30 5834 H 553.775 -1.59828 5.42652 0
M  V30 5835 H 552.332 -1.46965 6.35015 0
M  V30 5836 N 555.766 -1.3263 0.851289 0
M  V30 5837 C 556.716 -2.26451 0.265302 0
M  V30 5838 C 557.7 -1.49814 -0.586899 0
M  V30 5839 O 558.892 -1.71525 -0.436834 0
M  V30 5840 C 556.021 -3.38895 -0.548212 0
M  V30 5841 C 555.107 -4.2292 0.316189 0
M  V30 5842 N 555.498 -4.86014 1.40084 0
M  V30 5843 C 553.796 -4.45876 0.105356 0
M  V30 5844 C 554.497 -5.48667 1.93235 0
M  V30 5845 N 553.473 -5.29455 1.232 0
M  V30 5846 H 557.275 -2.72757 1.09457 0
M  V30 5847 H 554.789 -1.4668 0.697047 0
M  V30 5848 H 556.786 -4.05111 -0.984402 0
M  V30 5849 H 555.446 -2.94135 -1.37531 0
M  V30 5850 H 556.457 -4.86212 1.78377 0
M  V30 5851 H 553.134 -4.11804 -0.687299 0
M  V30 5852 H 554.524 -6.08865 2.84135 0
M  V30 5853 N 557.244 -0.608902 -1.45362 0
M  V30 5854 C 558.491 -0.104607 -2.0223 0
M  V30 5855 C 558.819 1.26534 -1.47714 0
M  V30 5856 O 558.074 1.84855 -0.642435 0
M  V30 5857 C 558.373 -0.0167296 -3.57396 0
M  V30 5858 C 558.039 -1.32251 -4.31069 0
M  V30 5859 C 556.701 -1.68019 -4.50914 0
M  V30 5860 C 559.053 -2.18542 -4.73169 0
M  V30 5861 C 556.381 -2.89828 -5.10114 0
M  V30 5862 C 558.733 -3.39602 -5.33717 0
M  V30 5863 C 557.397 -3.7562 -5.51784 0
M  V30 5864 H 556.667 -0.0382785 -0.740011 0
M  V30 5865 H 559.314 -0.790782 -1.7441 0
M  V30 5866 H 557.619 0.752715 -3.84502 0
M  V30 5867 H 559.316 0.389634 -3.99103 0
M  V30 5868 H 555.906 -1.03411 -4.15938 0
M  V30 5869 H 560.09 -1.92208 -4.5757 0
M  V30 5870 H 555.346 -3.17839 -5.22291 0
M  V30 5871 H 559.52 -4.06716 -5.65292 0
M  V30 5872 H 557.147 -4.70093 -5.97425 0
M  V30 5873 N 558.722 1.53707 -0.348139 0
M  V30 5874 C 559.67 2.26671 0.521808 0
M  V30 5875 C 560.664 1.28988 1.09811 0
M  V30 5876 O 561.87 1.4668 1.04332 0
M  V30 5877 H 558.245 0.728387 0.186968 0
M  V30 5878 H 560.216 2.98176 -0.115563 0
M  V30 5879 C 558.965 3.05591 1.6586 0
M  V30 5880 H 558.288 3.80589 1.22443 0
M  V30 5881 H 559.728 3.59851 2.24239 0
M  V30 5882 C 558.187 2.15366 2.59073 0
M  V30 5883 O 558.717 1.7528 3.61441 0
M  V30 5884 N 556.923 1.80352 2.27863 0
M  V30 5885 H 556.47 2.13149 1.44656 0
M  V30 5886 H 556.428 1.20268 2.90488 0
M  V30 5887 N 560.2 0.0768682 1.57412 0
M  V30 5888 C 561.428 -0.59997 1.9801 0
M  V30 5889 C 561.843 -1.62842 0.955408 0
M  V30 5890 O 561.2 -1.8241 -0.057314 0
M  V30 5891 C 561.251 -1.26401 3.38681 0
M  V30 5892 O 560.972 -0.276723 4.37225 0
M  V30 5893 C 562.473 -2.0282 3.94182 0
M  V30 5894 H 559.693 -0.162239 0.651091 0
M  V30 5895 H 562.237 0.150771 2.03943 0
M  V30 5896 H 560.392 -1.96581 3.33819 0
M  V30 5897 H 560.806 -0.753744 5.19056 0
M  V30 5898 H 562.28 -2.44667 4.94815 0
M  V30 5899 H 562.757 -2.88678 3.31001 0
M  V30 5900 H 563.363 -1.37496 4.02461 0
M  V30 5901 N 561.678 -1.56367 -0.196722 0
M  V30 5902 C 562.925 -1.80529 -0.917366 0
M  V30 5903 C 563.253 -0.649817 -1.83324 0
M  V30 5904 O 562.508 0.36451 -1.92275 0
M  V30 5905 C 562.807 -3.10663 -1.767 0
M  V30 5906 C 562.473 -4.3962 -1.00225 0
M  V30 5907 C 561.135 -4.74653 -0.791095 0
M  V30 5908 C 563.487 -5.1913 -0.464035 0
M  V30 5909 C 560.815 -5.86692 -0.0302155 0
M  V30 5910 C 563.167 -6.31964 0.283625 0
M  V30 5911 C 561.831 -6.65581 0.505813 0
M  V30 5912 H 561.101 -0.660602 -0.335688 0
M  V30 5913 H 563.748 -1.90615 -0.183844 0
M  V30 5914 H 562.053 -2.95807 -2.56915 0
M  V30 5915 H 563.75 -3.26563 -2.32718 0
M  V30 5916 H 560.34 -4.12127 -1.17684 0
M  V30 5917 H 564.524 -4.9248 -0.614575 0
M  V30 5918 H 559.78 -6.11211 0.151917 0
M  V30 5919 H 563.954 -6.92791 0.708057 0
M  V30 5920 H 561.581 -7.52239 1.0973 0
M  V30 5921 N 563.156 0.464375 -1.50603 0
M  V30 5922 C 564.404 1.21356 -1.61608 0
M  V30 5923 C 564.725 1.92329 -0.321643 0
M  V30 5924 O 563.995 1.84403 0.661232 0
M  V30 5925 H 562.575 0.45094 -0.595535 0
M  V30 5926 H 565.237 0.535046 -1.87412 0
M  V30 5927 H 564.333 1.95783 -2.43054 0
M  V30 5928 N 564.634 1.40294 0.718013 0
M  V30 5929 C 565.882 1.38167 1.47494 0
M  V30 5930 C 566.203 -0.01607 1.94993 0
M  V30 5931 O 565.473 -0.970396 1.70177 0
M  V30 5932 H 564.053 0.508505 0.547203 0
M  V30 5933 H 566.715 1.75324 0.851322 0
M  V30 5934 H 565.811 2.05503 2.34894 0
M  V30 5935 N 566.112 -0.949982 1.2575 0
M  V30 5936 C 567.06 -2.06869 1.06339 0
M  V30 5937 C 568.054 -1.69399 -0.00708901 0
M  V30 5938 O 569.26 -1.79383 0.148897 0
M  V30 5939 H 565.635 -0.677197 0.326969 0
M  V30 5940 H 567.606 -2.20396 2.01167 0
M  V30 5941 C 566.355 -3.40503 0.703769 0
M  V30 5942 H 565.678 -3.69807 1.51931 0
M  V30 5943 H 567.118 -4.19623 0.607677 0
M  V30 5944 C 565.577 -3.31685 -0.5905 0
M  V30 5945 O 566.107 -3.67085 -1.63131 0
M  V30 5946 N 564.313 -2.84797 -0.577859 0
M  V30 5947 H 563.86 -2.56186 0.26951 0
M  V30 5948 H 563.818 -2.79279 -1.44398 0
M  V30 5949 N 567.59 -1.07411 -1.15328 0
M  V30 5950 C 569.001 -0.820261 -1.67716 0
M  V30 5951 C 569.352 0.654539 -1.8496 0
M  V30 5952 O 568.477 1.50664 -1.55337 0
M  V30 5953 C 569.072 -1.48242 -3.04647 0
M  V30 5954 C 567.631 -1.27606 -3.5411 0
M  V30 5955 C 566.778 -1.5517 -2.29821 0
M  V30 5956 H 569.729 -1.23608 -0.995332 0
M  V30 5957 H 569.75 -0.903984 -3.69606 0
M  V30 5958 H 569.262 -2.55578 -2.92064 0
M  V30 5959 H 567.363 -0.222948 -3.71932 0
M  V30 5960 H 567.476 -1.99667 -4.35511 0
M  V30 5961 H 565.84 -0.972747 -2.35393 0
M  V30 5962 H 566.623 -2.63689 -2.19824 0
M  V30 5963 N 569.068 1.32177 -0.85831 0
M  V30 5964 C 570.001 2.26823 -0.25035 0
M  V30 5965 C 570.979 1.50571 0.61378 0
M  V30 5966 O 572.163 1.79682 0.569777 0
M  V30 5967 C 569.29 3.32472 0.646556 0
M  V30 5968 C 568.336 4.26255 -0.144675 0
M  V30 5969 S 569.169 5.13608 -1.5155 0
M  V30 5970 C 570.325 6.22778 -0.624408 0
M  V30 5971 H 570.558 2.7804 -1.05267 0
M  V30 5972 H 568.091 1.39764 -0.656152 0
M  V30 5973 H 570.049 3.93817 1.15837 0
M  V30 5974 H 568.71 2.80031 1.42272 0
M  V30 5975 H 567.903 5.01114 0.538613 0
M  V30 5976 H 567.505 3.69346 -0.588198 0
M  V30 5977 H 569.797 6.77287 0.169846 0
M  V30 5978 H 570.74 6.95233 -1.34376 0
M  V30 5979 H 571.148 5.64156 -0.197128 0
M  V30 5980 N 570.547 0.616602 1.45037 0
M  V30 5981 C 571.51 -0.0871112 2.29034 0
M  V30 5982 C 572.51 -0.786414 1.40258 0
M  V30 5983 O 573.7 -0.633207 1.62284 0
M  V30 5984 C 570.832 -1.13369 3.21497 0
M  V30 5985 H 572.025 0.651497 2.92738 0
M  V30 5986 H 569.578 0.376058 1.51709 0
M  V30 5987 H 570.313 -1.90277 2.62612 0
M  V30 5988 H 570.098 -0.636358 3.86902 0
M  V30 5989 H 571.588 -1.62627 3.84633 0
M  V30 5990 N 572.025 -1.5352 0.356285 0
M  V30 5991 C 573.265 -2.03027 -0.23649 0
M  V30 5992 C 573.629 -1.23813 -1.46746 0
M  V30 5993 O 574.83 -1.63281 -2.13525 0
M  V30 5994 C 573.101 -3.53442 -0.530415 0
M  V30 5995 S 574.66 -4.24836 -1.09819 0
M  V30 5996 H 571.478 -0.707591 -0.0695378 0
M  V30 5997 H 574.08 -1.89077 0.496999 0
M  V30 5998 H 572.784 -4.087 0.373114 0
M  V30 5999 H 572.315 -3.71536 -1.29323 0
M  V30 6000 H 574.33 -4.35228 -2.38309 0
M  V30 6001 N 573.503 -0.0852151 -1.57369 0
M  V30 6002 C 574.466 0.8627 -2.12344 0
M  V30 6003 C 575.466 1.21746 -1.05046 0
M  V30 6004 O 576.656 1.14852 -1.30976 0
M  V30 6005 C 573.788 2.1618 -2.63589 0
M  V30 6006 H 574.981 0.385511 -2.97412 0
M  V30 6007 H 572.534 0.163663 -1.55441 0
M  V30 6008 H 573.269 2.68406 -1.82013 0
M  V30 6009 H 573.054 1.91723 -3.4203 0
M  V30 6010 H 574.544 2.84011 -3.06149 0
M  V30 6011 N 574.981 1.5647 0.188427 0
M  V30 6012 C 576.23 1.80207 0.905995 0
M  V30 6013 C 576.543 0.659579 1.84144 0
M  V30 6014 O 577.749 0.781431 2.60011 0
M  V30 6015 C 576.205 3.19255 1.66145 0
M  V30 6016 C 575.813 4.41324 0.770504 0
M  V30 6017 C 577.557 3.52298 2.36826 0
M  V30 6018 C 575.464 5.71394 1.52521 0
M  V30 6019 H 574.394 0.671953 0.342045 0
M  V30 6020 H 577.045 1.82808 0.159164 0
M  V30 6021 H 575.427 3.10922 2.45242 0
M  V30 6022 H 576.601 4.60797 0.0177261 0
M  V30 6023 H 574.916 4.16035 0.174199 0
M  V30 6024 H 577.513 4.46715 2.93854 0
M  V30 6025 H 577.856 2.76359 3.11338 0
M  V30 6026 H 578.389 3.62108 1.6469 0
M  V30 6027 H 575.128 6.50316 0.82275 0
M  V30 6028 H 574.648 5.55928 2.25175 0
M  V30 6029 H 576.327 6.12747 2.07725 0
M  V30 6030 N 576.459 -0.456382 1.50847 0
M  V30 6031 C 577.707 -1.20497 1.62249 0
M  V30 6032 C 578.028 -1.92156 0.331839 0
M  V30 6033 O 577.298 -1.84751 -0.651443 0
M  V30 6034 H 575.878 -0.447775 0.597918 0
M  V30 6035 H 578.54 -0.525099 1.87693 0
M  V30 6036 H 577.636 -1.94492 2.44089 0
M  V30 6037 N 577.937 -1.40673 -0.710563 0
M  V30 6038 C 579.162 -1.42741 -1.50465 0
M  V30 6039 C 579.587 -0.0302116 -1.88076 0
M  V30 6040 O 578.945 0.962945 -1.53613 0
M  V30 6041 C 578.993 -2.32873 -2.75322 0
M  V30 6042 O 578.097 -1.77544 -3.72226 0
M  V30 6043 H 577.438 -0.485056 -0.45345 0
M  V30 6044 H 579.968 -1.84961 -0.874681 0
M  V30 6045 H 579.978 -2.48233 -3.23797 0
M  V30 6046 H 578.653 -3.34401 -2.47283 0
M  V30 6047 H 577.23 -1.71556 -3.31093 0
M  V30 6048 N 579.415 0.9433 -1.26252 0
M  V30 6049 C 580.378 2.02326 -1.07689 0
M  V30 6050 C 581.378 1.60779 -0.0259174 0
M  V30 6051 O 582.568 1.72108 -0.269134 0
M  V30 6052 C 579.7 3.34886 -0.63752 0
M  V30 6053 H 580.893 2.20225 -2.0357 0
M  V30 6054 H 578.446 1.12197 -1.08819 0
M  V30 6055 H 579.181 3.22684 0.323377 0
M  V30 6056 H 578.966 3.66393 -1.39637 0
M  V30 6057 H 580.456 4.14231 -0.529418 0
M  V30 6058 N 580.893 1.08022 1.14757 0
M  V30 6059 C 582.139 0.808705 1.85978 0
M  V30 6060 C 582.472 -0.663764 1.82504 0
M  V30 6061 O 581.747 -1.48765 1.25296 0
M  V30 6062 C 582.03 1.32623 3.34788 0
M  V30 6063 C 581.883 2.86375 3.46856 0
M  V30 6064 C 583.202 0.948291 4.29762 0
M  V30 6065 H 580.321 0.295244 0.675278 0
M  V30 6066 H 582.963 1.33917 1.34783 0
M  V30 6067 H 581.113 0.875002 3.78518 0
M  V30 6068 H 582.785 3.39839 3.11941 0
M  V30 6069 H 581.028 3.24232 2.88194 0
M  V30 6070 H 581.699 3.17658 4.51439 0
M  V30 6071 H 584.175 1.33722 3.94028 0
M  V30 6072 H 583.051 1.33765 5.32352 0
M  V30 6073 H 583.312 -0.145094 4.41862 0
M  V30 6074 N 582.371 -1.3172 0.865308 0
M  V30 6075 C 583.301 -2.31109 0.333302 0
M  V30 6076 C 584.282 -1.60148 -0.573301 0
M  V30 6077 O 585.467 -1.87882 -0.491305 0
M  V30 6078 C 582.597 -3.44104 -0.470078 0
M  V30 6079 C 581.551 -4.26623 0.343021 0
M  V30 6080 C 580.877 -5.31482 -0.585756 0
M  V30 6081 C 582.177 -4.98001 1.57456 0
M  V30 6082 H 583.871 -2.75855 1.1638 0
M  V30 6083 H 581.417 -1.3262 0.561069 0
M  V30 6084 H 583.37 -4.12682 -0.852752 0
M  V30 6085 H 582.094 -2.98112 -1.33404 0
M  V30 6086 H 580.753 -3.59707 0.707583 0
M  V30 6087 H 580.401 -4.81741 -1.44686 0
M  V30 6088 H 580.101 -5.87582 -0.0456494 0
M  V30 6089 H 581.625 -6.0292 -0.965375 0
M  V30 6090 H 583.039 -5.59201 1.26359 0
M  V30 6091 H 581.436 -5.63876 2.05339 0
M  V30 6092 H 582.506 -4.25253 2.32997 0
M  V30 6093 N 583.85 -0.624285 -1.44708 0
M  V30 6094 C 584.76 0.0861083 -2.34442 0
M  V30 6095 C 585.776 0.84291 -1.5222 0
M  V30 6096 O 586.952 0.796723 -1.84971 0
M  V30 6097 C 584.017 1.05999 -3.30099 0
M  V30 6098 C 583.077 0.303316 -4.28227 0
M  V30 6099 C 582.311 1.23081 -5.19314 0
M  V30 6100 O 582.534 2.46929 -5.14181 0
M  V30 6101 O 581.468 0.71883 -5.97592 0
M  V30 6102 H 585.293 -0.651756 -2.96624 0
M  V30 6103 H 582.879 -0.384493 -1.44368 0
M  V30 6104 H 584.76 1.62046 -3.88997 0
M  V30 6105 H 583.436 1.77859 -2.70459 0
M  V30 6106 H 582.343 -0.300033 -3.72895 0
M  V30 6107 H 583.676 -0.375123 -4.90768 0
M  V30 6108 N 585.328 1.53329 -0.364422 0
M  V30 6109 C 586.574 2.01537 0.225969 0
M  V30 6110 C 586.907 1.25128 1.48515 0
M  V30 6111 O 586.182 0.344653 1.91422 0
M  V30 6112 C 586.465 3.56339 0.519092 0
M  V30 6113 C 586.318 4.43441 -0.753639 0
M  V30 6114 C 587.637 4.19833 1.32015 0
M  V30 6115 H 584.756 0.732573 0.0806548 0
M  V30 6116 H 587.398 1.83597 -0.489084 0
M  V30 6117 H 585.548 3.71756 1.12825 0
M  V30 6118 H 587.22 4.39823 -1.39116 0
M  V30 6119 H 585.463 4.11457 -1.37424 0
M  V30 6120 H 586.134 5.49699 -0.503517 0
M  V30 6121 H 588.61 4.08242 0.804859 0
M  V30 6122 H 587.486 5.28177 1.49399 0
M  V30 6123 H 587.747 3.75821 2.32832 0
M  V30 6124 N 586.806 0.0935595 1.57322 0
M  V30 6125 C 588.055 -0.570191 1.93473 0
M  V30 6126 C 588.368 -1.69434 0.977318 0
M  V30 6127 O 589.574 -2.41914 1.23248 0
M  V30 6128 C 588.03 -1.06564 3.43762 0
M  V30 6129 C 587.638 0.0286723 4.47991 0
M  V30 6130 C 589.382 -1.70221 3.88877 0
M  V30 6131 C 587.289 -0.482046 5.89432 0
M  V30 6132 H 586.219 -0.216764 0.72217 0
M  V30 6133 H 588.87 0.169313 1.82717 0
M  V30 6134 H 587.252 -1.85878 3.49664 0
M  V30 6135 H 588.426 0.804106 4.5373 0
M  V30 6136 H 586.741 0.570336 4.12476 0
M  V30 6137 H 589.338 -2.09502 4.91948 0
M  V30 6138 H 589.681 -2.57078 3.27439 0
M  V30 6139 H 590.214 -0.974919 3.85668 0
M  V30 6140 H 586.953 0.349871 6.54566 0
M  V30 6141 H 586.473 -1.22452 5.87167 0
M  V30 6142 H 588.152 -0.951508 6.39965 0
M  V30 6143 N 588.284 -1.56567 -0.180126 0
M  V30 6144 C 589.231 -1.95725 -1.22313 0
M  V30 6145 C 590.201 -0.819911 -1.44453 0
M  V30 6146 O 591.386 -1.07931 -1.57339 0
M  V30 6147 C 588.526 -2.31484 -2.55947 0
M  V30 6148 C 587.639 -3.58354 -2.4126 0
M  V30 6149 C 586.774 -3.83366 -3.67701 0
M  V30 6150 C 585.813 -5.03612 -3.47909 0
M  V30 6151 N 584.95 -5.24802 -4.66398 0
M  V30 6152 H 589.79 -2.84642 -0.882198 0
M  V30 6153 H 587.327 -1.4085 -0.42422 0
M  V30 6154 H 589.285 -2.50237 -3.33822 0
M  V30 6155 H 587.915 -1.45689 -2.88053 0
M  V30 6156 H 586.967 -3.47565 -1.54606 0
M  V30 6157 H 588.279 -4.46386 -2.22577 0
M  V30 6158 H 587.433 -4.02439 -4.54013 0
M  V30 6159 H 586.172 -2.93692 -3.89353 0
M  V30 6160 H 585.177 -4.84447 -2.59983 0
M  V30 6161 H 586.402 -5.94809 -3.27688 0
M  V30 6162 H 584.348 -4.38079 -4.88286 0
M  V30 6163 H 584.265 -6.07041 -4.50596 0
M  V30 6164 H 585.533 -5.48346 -5.54019 0
M  V30 6165 N 589.762 0.448376 -1.51087 0
M  V30 6166 C 590.672 1.56882 -1.74428 0
M  V30 6167 C 591.688 1.62268 -0.62809 0
M  V30 6168 O 592.864 1.79716 -0.909075 0
M  V30 6169 C 589.929 2.92947 -1.85426 0
M  V30 6170 C 588.99 2.97766 -3.09247 0
M  V30 6171 C 588.223 4.27341 -3.19711 0
M  V30 6172 O 588.446 5.19112 -2.36387 0
M  V30 6173 O 587.38 4.38219 -4.12611 0
M  V30 6174 H 591.206 1.40104 -2.69452 0
M  V30 6175 H 588.791 0.630247 -1.35456 0
M  V30 6176 H 590.673 3.73719 -1.94709 0
M  V30 6177 H 589.348 3.09876 -0.935887 0
M  V30 6178 H 588.255 2.15989 -3.0545 0
M  V30 6179 H 589.588 2.8578 -4.00738 0
M  V30 6180 N 591.24 1.41047 0.703093 0
M  V30 6181 C 592.15 1.44645 1.84703 0
M  V30 6182 C 593.166 0.337778 1.7069 0
M  V30 6183 O 594.342 0.584327 1.92737 0
M  V30 6184 C 591.407 1.31928 3.20618 0
M  V30 6185 C 590.468 2.53047 3.46794 0
M  V30 6186 C 589.701 2.40927 4.76224 0
M  V30 6187 O 589.924 1.42978 5.5219 0
M  V30 6188 O 588.858 3.30543 5.03016 0
M  V30 6189 H 592.684 2.41139 1.84624 0
M  V30 6190 H 590.269 1.22504 0.855167 0
M  V30 6191 H 592.151 1.27092 4.01778 0
M  V30 6192 H 590.826 0.385469 3.21397 0
M  V30 6193 H 589.733 2.6346 2.65593 0
M  V30 6194 H 591.066 3.45231 3.50822 0
M  V30 6195 N 592.718 -0.936591 1.26751 0
M  V30 6196 C 593.666 -2.0573 1.08527 0
M  V30 6197 C 594.66 -1.69397 0.0108784 0
M  V30 6198 O 595.866 -1.79215 0.167915 0
M  V30 6199 H 592.241 -0.673691 0.334133 0
M  V30 6200 H 594.212 -2.1825 2.03493 0
M  V30 6201 C 592.961 -3.39738 0.739845 0
M  V30 6202 H 592.284 -3.68174 1.55845 0
M  V30 6203 H 593.724 -4.18955 0.652149 0
M  V30 6204 C 592.183 -3.32292 -0.555288 0
M  V30 6205 O 592.713 -3.68794 -1.59229 0
M  V30 6206 N 590.919 -2.85394 -0.54762 0
M  V30 6207 H 590.466 -2.55886 0.296667 0
M  V30 6208 H 590.424 -2.80795 -1.41427 0
M  V30 6209 N 594.196 -1.08629 -1.14182 0
M  V30 6210 C 595.126 -0.740003 -2.21464 0
M  V30 6211 C 596.107 0.278591 -1.67803 0
M  V30 6212 O 597.292 0.148461 -1.93632 0
M  V30 6213 C 594.422 -0.150952 -3.46972 0
M  V30 6214 C 593.376 -1.09815 -4.13672 0
M  V30 6215 C 592.702 -0.3712 -5.3341 0
M  V30 6216 C 594.002 -2.43722 -4.61949 0
M  V30 6217 H 595.696 -1.63697 -2.50686 0
M  V30 6218 H 593.242 -0.788526 -1.20492 0
M  V30 6219 H 595.195 0.103325 -4.21273 0
M  V30 6220 H 593.919 0.781164 -3.1712 0
M  V30 6221 H 592.578 -1.33756 -3.41328 0
M  V30 6222 H 592.226 0.564792 -4.99819 0
M  V30 6223 H 591.926 -1.00267 -5.78982 0
M  V30 6224 H 593.45 -0.12503 -6.10472 0
M  V30 6225 H 594.864 -2.24034 -5.27714 0
M  V30 6226 H 593.261 -3.02582 -5.18232 0
M  V30 6227 H 594.331 -3.05082 -3.76899 0
M  V30 6228 N 595.674 1.31259 -0.872281 0
M  V30 6229 C 596.606 2.27396 -0.28697 0
M  V30 6230 C 597.619 1.53181 0.551297 0
M  V30 6231 O 598.808 1.74561 0.372914 0
M  V30 6232 C 595.908 3.33335 0.611617 0
M  V30 6233 C 595.081 4.36966 -0.194729 0
M  V30 6234 C 594.14 5.22387 0.632358 0
M  V30 6235 O 593.166 5.69169 0.0595691 0
M  V30 6236 N 594.368 5.46985 1.94391 0
M  V30 6237 H 597.133 2.78261 -1.11314 0
M  V30 6238 H 594.694 1.44306 -0.733994 0
M  V30 6239 H 596.686 3.87398 1.17068 0
M  V30 6240 H 595.256 2.82496 1.33846 0
M  V30 6241 H 594.476 3.82945 -0.935241 0
M  V30 6242 H 595.764 5.03273 -0.747935 0
M  V30 6243 H 595.162 5.10737 2.43237 0
M  V30 6244 H 593.719 6.03973 2.45071 0
M  V30 6245 N 597.152 0.631951 1.44375 0
M  V30 6246 C 598.062 -0.073674 2.34484 0
M  V30 6247 C 599.078 -0.834825 1.52665 0
M  V30 6248 O 600.254 -0.786902 1.85391 0
M  V30 6249 C 597.319 -1.04247 3.30656 0
M  V30 6250 C 596.38 -0.280602 4.28382 0
M  V30 6251 C 595.613 -1.20325 5.19959 0
M  V30 6252 O 595.836 -2.44199 5.15484 0
M  V30 6253 O 594.77 -0.687128 5.97965 0
M  V30 6254 H 598.596 0.667477 2.96274 0
M  V30 6255 H 596.181 0.392144 1.44162 0
M  V30 6256 H 598.063 -1.59981 3.89851 0
M  V30 6257 H 596.738 -1.76422 2.71398 0
M  V30 6258 H 595.645 0.319804 3.72731 0
M  V30 6259 H 596.978 0.401144 4.90563 0
M  V30 6260 N 598.631 -1.53133 0.372548 0
M  V30 6261 C 599.579 -2.27473 -0.485681 0
M  V30 6262 C 600.573 -1.30719 -1.07745 0
M  V30 6263 O 601.779 -1.48321 -1.01985 0
M  V30 6264 H 598.154 -0.731269 -0.175356 0
M  V30 6265 H 600.125 -2.97955 0.162986 0
M  V30 6266 C 598.874 -3.08191 -1.60978 0
M  V30 6267 H 598.197 -3.82488 -1.16373 0
M  V30 6268 H 599.637 -3.63373 -2.18485 0
M  V30 6269 C 598.096 -2.19461 -2.55614 0
M  V30 6270 O 598.626 -1.81008 -3.58607 0
M  V30 6271 N 596.832 -1.83955 -2.24965 0
M  V30 6272 H 596.379 -2.15423 -1.41247 0
M  V30 6273 H 596.337 -1.24874 -2.88538 0
M  V30 6274 N 600.109 -0.101901 -1.5727 0
M  V30 6275 C 601.334 0.571759 -1.99363 0
M  V30 6276 C 601.759 1.60507 -0.980768 0
M  V30 6277 O 601.117 1.81231 0.0498517 0
M  V30 6278 C 601.165 1.18996 -3.404 0
M  V30 6279 O 600.269 2.30572 -3.41922 0
M  V30 6280 H 599.61 0.144449 -0.648098 0
M  V30 6281 H 602.14 -0.185325 -2.03759 0
M  V30 6282 H 602.15 1.52962 -3.78241 0
M  V30 6283 H 600.825 0.432984 -4.1364 0
M  V30 6284 H 599.402 1.98173 -3.15883 0
M  V30 6285 N 601.587 1.56661 0.17182 0
M  V30 6286 C 602.519 1.92934 1.2373 0
M  V30 6287 C 603.532 0.822385 1.40502 0
M  V30 6288 O 604.721 1.10083 1.40514 0
M  V30 6289 C 601.821 2.16651 2.60607 0
M  V30 6290 C 600.994 3.47878 2.6514 0
M  V30 6291 C 600.053 3.60429 3.83377 0
M  V30 6292 O 599.079 4.33051 3.69398 0
M  V30 6293 N 600.281 2.95241 4.99813 0
M  V30 6294 H 603.046 2.84931 0.929205 0
M  V30 6295 H 600.607 1.5781 0.361588 0
M  V30 6296 H 602.599 2.22312 3.38171 0
M  V30 6297 H 601.169 1.3104 2.83809 0
M  V30 6298 H 600.389 3.53879 1.73675 0
M  V30 6299 H 601.677 4.34232 2.6518 0
M  V30 6300 H 601.075 2.3611 5.14071 0
M  V30 6301 H 599.632 3.06499 5.75241 0
M  V30 6302 N 603.065 -0.440357 1.51323 0
M  V30 6303 C 603.975 -1.55955 1.75258 0
M  V30 6304 C 604.991 -1.61933 0.636687 0
M  V30 6305 O 606.167 -1.79231 0.918593 0
M  V30 6306 C 603.232 -2.9196 1.86977 0
M  V30 6307 C 602.293 -2.96122 3.10822 0
M  V30 6308 C 601.526 -4.2564 3.21973 0
M  V30 6309 O 601.749 -5.17851 2.39137 0
M  V30 6310 O 600.683 -4.36025 4.14929 0
M  V30 6311 H 604.509 -1.38673 2.70191 0
M  V30 6312 H 602.094 -0.623055 1.35788 0
M  V30 6313 H 603.976 -3.72682 1.96688 0
M  V30 6314 H 602.651 -3.09375 0.952307 0
M  V30 6315 H 601.558 -2.14366 3.06591 0
M  V30 6316 H 602.891 -2.83651 4.02247 0
M  V30 6317 N 604.543 -1.41418 -0.695603 0
M  V30 6318 C 605.789 -1.40982 -1.4578 0
M  V30 6319 C 606.122 -0.0187763 -1.94191 0
M  V30 6320 O 605.397 0.95346 -1.69527 0
M  V30 6321 C 605.68 -2.41657 -2.66972 0
M  V30 6322 C 605.533 -3.89869 -2.24327 0
M  V30 6323 C 606.852 -2.39589 -3.69168 0
M  V30 6324 H 603.971 -0.513405 -0.528757 0
M  V30 6325 H 606.613 -1.72693 -0.792275 0
M  V30 6326 H 604.763 -2.14746 -3.23754 0
M  V30 6327 H 606.435 -4.27683 -1.72872 0
M  V30 6328 H 604.678 -4.04737 -1.56111 0
M  V30 6329 H 605.349 -4.55857 -3.11285 0
M  V30 6330 H 607.825 -2.63471 -3.2206 0
M  V30 6331 H 606.701 -3.12044 -4.51575 0
M  V30 6332 H 606.962 -1.41447 -4.18862 0
M  V30 6333 N 606.021 0.929856 -1.27246 0
M  V30 6334 C 607.269 1.674 -1.13233 0
M  V30 6335 C 607.59 1.92311 0.322744 0
M  V30 6336 O 606.86 1.52784 1.22612 0
M  V30 6337 H 605.44 0.620411 -0.416052 0
M  V30 6338 H 608.102 1.11663 -1.59741 0
M  V30 6339 H 607.198 2.64308 -1.65975 0
M  V30 6340 N 607.499 1.09233 1.13605 0
M  V30 6341 C 608.727 0.848908 1.88683 0
M  V30 6342 C 609.142 -0.599667 1.79024 0
M  V30 6343 O 608.499 -1.41265 1.15544 0
M  V30 6344 C 608.55 1.27273 3.38355 0
M  V30 6345 O 608.271 2.66449 3.47759 0
M  V30 6346 C 609.772 1.0614 4.30406 0
M  V30 6347 H 606.992 0.305549 0.597395 0
M  V30 6348 H 609.536 1.4538 1.43823 0
M  V30 6349 H 607.691 0.711776 3.80805 0
M  V30 6350 H 608.105 2.84264 4.40788 0
M  V30 6351 H 609.579 1.40725 5.33761 0
M  V30 6352 H 610.056 -0.000960332 4.392 0
M  V30 6353 H 610.662 1.60821 3.93722 0
M  V30 6354 N 608.977 -1.30795 0.87923 0
M  V30 6355 C 610.207 -2.00237 0.50881 0
M  V30 6356 C 610.615 -1.66115 -0.905682 0
M  V30 6357 O 609.958 -0.89138 -1.60624 0
M  V30 6358 C 610.02 -3.54508 0.597003 0
M  V30 6359 C 609.684 -4.12131 1.97477 0
M  V30 6360 C 610.681 -4.28552 2.94346 0
M  V30 6361 C 608.366 -4.47644 2.2786 0
M  V30 6362 C 610.36 -4.79689 4.19735 0
M  V30 6363 C 608.047 -4.98481 3.53496 0
M  V30 6364 C 609.045 -5.14456 4.49248 0
M  V30 6365 O 608.733 -5.64199 5.72656 0
M  V30 6366 H 608.465 -0.647026 0.195788 0
M  V30 6367 H 611.019 -1.67785 1.1848 0
M  V30 6368 H 609.249 -3.86461 -0.135945 0
M  V30 6369 H 610.938 -4.05198 0.238684 0
M  V30 6370 H 611.704 -4.01424 2.72183 0
M  V30 6371 H 607.583 -4.34481 1.54102 0
M  V30 6372 H 611.127 -4.92073 4.9448 0
M  V30 6373 H 607.024 -5.25044 3.75498 0
M  V30 6374 H 607.792 -5.82551 5.74957 0
M  V30 6375 N 610.455 -0.639598 -1.44038 0
M  V30 6376 C 611.388 0.109736 -2.27936 0
M  V30 6377 C 612.366 0.843095 -1.39035 0
M  V30 6378 O 613.55 0.845456 -1.68476 0
M  V30 6379 C 610.677 1.16173 -3.18153 0
M  V30 6380 C 609.723 0.527954 -4.2322 0
M  V30 6381 S 610.556 -0.688318 -5.31058 0
M  V30 6382 C 611.712 0.363481 -6.24844 0
M  V30 6383 H 611.945 -0.601986 -2.91142 0
M  V30 6384 H 609.478 -0.42802 -1.48349 0
M  V30 6385 H 611.436 1.76372 -3.7068 0
M  V30 6386 H 610.097 1.84569 -2.54151 0
M  V30 6387 H 609.29 1.32054 -4.86393 0
M  V30 6388 H 608.892 0.000396444 -3.74 0
M  V30 6389 H 611.184 1.23362 -6.66174 0
M  V30 6390 H 612.127 -0.23288 -7.07717 0
M  V30 6391 H 612.535 0.693179 -5.60228 0
M  V30 6392 N 611.933 1.52934 -0.380664 0
M  V30 6393 C 612.863 2.29118 0.450268 0
M  V30 6394 C 613.844 1.32153 1.07096 0
M  V30 6395 O 615.029 1.61038 1.08537 0
M  V30 6396 C 612.159 3.09161 1.58231 0
M  V30 6397 C 611.113 4.13938 1.0881 0
M  V30 6398 C 610.439 4.82153 2.31155 0
M  V30 6399 C 611.739 5.22048 0.162146 0
M  V30 6400 H 613.433 2.98826 -0.185361 0
M  V30 6401 H 610.979 1.43715 -0.0905886 0
M  V30 6402 H 612.932 3.61211 2.17036 0
M  V30 6403 H 611.656 2.3717 2.2454 0
M  V30 6404 H 610.315 3.62855 0.522633 0
M  V30 6405 H 609.963 4.06719 2.95953 0
M  V30 6406 H 609.663 5.52966 1.98752 0
M  V30 6407 H 611.187 5.37004 2.90618 0
M  V30 6408 H 612.601 5.6951 0.658126 0
M  V30 6409 H 610.998 6.00057 -0.0717122 0
M  V30 6410 H 612.068 4.78398 -0.791438 0
M  V30 6411 N 613.412 0.11024 1.57214 0
M  V30 6412 C 614.342 -0.840002 2.17867 0
M  V30 6413 C 615.323 -1.28352 1.11624 0
M  V30 6414 O 616.508 -1.3477 1.39824 0
M  V30 6415 C 613.638 -2.09349 2.77111 0
M  V30 6416 C 612.592 -1.78807 3.8886 0
M  V30 6417 C 611.918 -3.11112 4.34872 0
M  V30 6418 C 613.218 -1.0632 5.11364 0
M  V30 6419 H 614.912 -0.334608 2.97524 0
M  V30 6420 H 612.458 -0.159502 1.43114 0
M  V30 6421 H 614.411 -2.76275 3.18198 0
M  V30 6422 H 613.135 -2.62198 1.9473 0
M  V30 6423 H 611.794 -1.14273 3.48335 0
M  V30 6424 H 611.442 -3.61877 3.49362 0
M  V30 6425 H 611.142 -2.91453 5.10224 0
M  V30 6426 H 612.666 -3.79171 4.78604 0
M  V30 6427 H 614.08 -1.63383 5.49526 0
M  V30 6428 H 612.477 -0.967876 5.92243 0
M  V30 6429 H 613.547 -0.0484569 4.84876 0
M  V30 6430 N 614.89 -1.56749 -0.16351 0
M  V30 6431 C 615.837 -1.97011 -1.2023 0
M  V30 6432 C 616.807 -0.835186 -1.43575 0
M  V30 6433 O 617.992 -1.09594 -1.56185 0
M  V30 6434 C 615.132 -2.34186 -2.53478 0
M  V30 6435 C 614.245 -3.60893 -2.37446 0
M  V30 6436 C 613.38 -3.87245 -3.63614 0
M  V30 6437 C 612.419 -5.07274 -3.42548 0
M  V30 6438 N 611.556 -5.29719 -4.60806 0
M  V30 6439 H 616.396 -2.85562 -0.851958 0
M  V30 6440 H 613.933 -1.41292 -0.409257 0
M  V30 6441 H 615.891 -2.53764 -3.31149 0
M  V30 6442 H 614.521 -1.48736 -2.86492 0
M  V30 6443 H 613.573 -3.49185 -1.50911 0
M  V30 6444 H 614.885 -4.48722 -2.1783 0
M  V30 6445 H 614.039 -4.07232 -4.49719 0
M  V30 6446 H 612.778 -2.97806 -3.86216 0
M  V30 6447 H 611.783 -4.87177 -2.5483 0
M  V30 6448 H 613.008 -5.98251 -3.2136 0
M  V30 6449 H 610.954 -4.43233 -4.83612 0
M  V30 6450 H 610.871 -6.11786 -4.44132 0
M  V30 6451 H 612.139 -5.54192 -5.48171 0
M  V30 6452 N 616.368 0.432326 -1.51554 0
M  V30 6453 C 617.615 1.18134 -1.64471 0
M  V30 6454 C 617.943 1.91076 -0.363349 0
M  V30 6455 O 617.198 1.84492 0.65279 0
M  V30 6456 C 617.497 2.21907 -2.80164 0
M  V30 6457 C 617.163 1.65941 -4.19255 0
M  V30 6458 C 615.825 1.50401 -4.57092 0
M  V30 6459 C 618.177 1.24843 -5.06027 0
M  V30 6460 C 615.505 0.922443 -5.79403 0
M  V30 6461 C 617.857 0.68113 -6.28922 0
M  V30 6462 C 616.521 0.512673 -6.65528 0
M  V30 6463 H 615.791 0.432283 -0.601841 0
M  V30 6464 H 618.438 0.471701 -1.856 0
M  V30 6465 H 616.743 2.98928 -2.53277 0
M  V30 6466 H 618.44 2.79691 -2.87357 0
M  V30 6467 H 615.03 1.79014 -3.89425 0
M  V30 6468 H 619.214 1.35667 -4.77397 0
M  V30 6469 H 614.47 0.779733 -6.06408 0
M  V30 6470 H 618.644 0.35418 -6.95499 0
M  V30 6471 H 616.271 0.0599084 -7.60176 0
M  V30 6472 N 617.846 1.41785 0.688094 0
M  V30 6473 C 618.809 1.43936 1.78368 0
M  V30 6474 C 619.809 0.328866 1.57401 0
M  V30 6475 O 620.999 0.589093 1.63937 0
M  V30 6476 C 618.131 1.25804 3.16838 0
M  V30 6477 H 619.324 2.41472 1.77852 0
M  V30 6478 H 616.877 1.28037 0.896448 0
M  V30 6479 H 617.612 0.291386 3.22988 0
M  V30 6480 H 617.397 2.06272 3.33458 0
M  V30 6481 H 618.887 1.30162 3.96797 0
M  V30 6482 N 619.324 -0.923095 1.27737 0
M  V30 6483 C 620.271 -2.02432 1.1086 0
M  V30 6484 C 621.241 -1.66098 0.00835195 0
M  V30 6485 O 622.426 -1.90027 0.171542 0
M  V30 6486 C 619.566 -3.36476 0.766671 0
M  V30 6487 C 618.679 -3.85737 1.94501 0
M  V30 6488 C 617.814 -5.08249 1.54455 0
M  V30 6489 C 616.853 -5.49818 2.6901 0
M  V30 6490 N 615.99 -6.63524 2.29521 0
M  V30 6491 H 620.83 -2.16201 2.05089 0
M  V30 6492 H 618.367 -1.05909 1.02087 0
M  V30 6493 H 620.325 -4.13569 0.549223 0
M  V30 6494 H 618.955 -3.22502 -0.13867 0
M  V30 6495 H 618.007 -3.04883 2.27487 0
M  V30 6496 H 619.319 -4.12513 2.80419 0
M  V30 6497 H 618.473 -5.92857 1.28862 0
M  V30 6498 H 617.212 -4.83261 0.656534 0
M  V30 6499 H 616.217 -4.63757 2.95313 0
M  V30 6500 H 617.442 -5.76799 3.5844 0
M  V30 6501 H 615.388 -6.40185 1.43177 0
M  V30 6502 H 615.305 -6.89978 3.08977 0
M  V30 6503 H 616.573 -7.51461 2.07187 0
M  V30 6504 N 620.802 -1.09834 -1.13024 0
M  V30 6505 C 621.732 -0.763451 -2.20666 0
M  V30 6506 C 622.713 0.260778 -1.68089 0
M  V30 6507 O 623.898 0.127915 -1.93778 0
M  V30 6508 C 621.028 -0.187744 -3.46792 0
M  V30 6509 C 619.982 -1.14196 -4.12484 0
M  V30 6510 C 619.308 -0.427755 -5.32986 0
M  V30 6511 C 620.608 -2.48607 -4.59338 0
M  V30 6512 H 622.302 -1.66347 -2.48936 0
M  V30 6513 H 619.848 -0.801261 -1.19649 0
M  V30 6514 H 621.801 0.0586375 -4.21359 0
M  V30 6515 H 620.525 0.747485 -3.17931 0
M  V30 6516 H 619.184 -1.37369 -3.3989 0
M  V30 6517 H 618.832 0.511747 -5.0039 0
M  V30 6518 H 618.532 -1.06403 -5.77886 0
M  V30 6519 H 620.056 -0.189772 -6.10305 0
M  V30 6520 H 621.47 -2.29618 -5.25308 0
M  V30 6521 H 619.867 -3.08062 -5.14993 0
M  V30 6522 H 620.937 -3.09062 -3.73642 0
M  V30 6523 N 622.28 1.30327 -0.886154 0
M  V30 6524 C 623.696 1.48676 -0.580323 0
M  V30 6525 C 623.896 1.81189 0.881639 0
M  V30 6526 O 622.952 1.90021 1.66278 0
M  V30 6527 C 624.265 2.60932 -1.49449 0
M  V30 6528 C 625.813 2.74812 -1.49824 0
M  V30 6529 C 626.288 3.90183 -2.39836 0
M  V30 6530 N 627.779 3.97495 -2.37806 0
M  V30 6531 C 628.514 4.86078 -3.04165 0
M  V30 6532 N 628.01 5.79448 -3.79753 0
M  V30 6533 N 629.803 4.79456 -2.93391 0
M  V30 6534 H 621.954 1.07495 -1.8319 0
M  V30 6535 H 624.217 0.532661 -0.784204 0
M  V30 6536 H 623.923 2.43731 -2.5355 0
M  V30 6537 H 623.797 3.57437 -1.20494 0
M  V30 6538 H 626.184 2.91418 -0.464731 0
M  V30 6539 H 626.265 1.78924 -1.82811 0
M  V30 6540 H 625.909 3.74334 -3.43273 0
M  V30 6541 H 625.839 4.85411 -2.04166 0
M  V30 6542 H 628.33 3.30703 -1.82877 0
M  V30 6543 H 628.643 6.43805 -4.27475 0
M  V30 6544 H 626.988 5.79376 -3.8386 0
M  V30 6545 H 630.179 4.05494 -2.33864 0
M  V30 6546 H 630.352 5.48283 -3.45383 0
M  V30 6547 N 623.758 0.647228 1.43697 0
M  V30 6548 C 625.035 0.0883758 1.954 0
M  V30 6549 C 625.415 -1.39006 1.58873 0
M  V30 6550 O 624.763 -2.11255 0.87083 0
M  V30 6551 C 624.973 0.328263 3.47453 0
M  V30 6552 C 626.321 0.230009 4.23977 0
M  V30 6553 O 627.345 0.260496 3.55246 0
M  V30 6554 O 626.204 0.148615 5.46298 0
M  V30 6555 H 623.298 -0.0130683 0.826897 0
M  V30 6556 H 625.844 0.72005 1.53666 0
M  V30 6557 H 624.616 1.3535 3.67146 0
M  V30 6558 H 624.239 -0.336772 3.96171 0
M  V30 6559 N 625.236 -1.5273 0.388769 0
M  V30 6560 C 626.146 -2.30165 -0.453993 0
M  V30 6561 C 627.162 -1.37058 -1.07197 0
M  V30 6562 O 628.338 -1.70127 -1.0779 0
M  V30 6563 C 625.403 -3.09303 -1.56628 0
M  V30 6564 C 624.464 -4.18117 -0.973467 0
M  V30 6565 C 623.697 -4.93472 -2.03275 0
M  V30 6566 O 623.92 -4.68913 -3.24772 0
M  V30 6567 O 622.854 -5.78833 -1.65034 0
M  V30 6568 H 626.68 -3.03185 0.176816 0
M  V30 6569 H 624.265 -1.4862 0.152501 0
M  V30 6570 H 626.147 -3.58648 -2.21246 0
M  V30 6571 H 624.822 -2.39098 -2.18206 0
M  V30 6572 H 623.729 -3.7297 -0.290556 0
M  V30 6573 H 625.062 -4.90556 -0.401908 0
M  V30 6574 N 626.714 -0.118576 -1.57153 0
M  V30 6575 C 627.961 0.539526 -1.9518 0
M  V30 6576 C 628.289 1.66714 -1.00184 0
M  V30 6577 O 627.544 1.95683 -0.0256482 0
M  V30 6578 C 627.843 1.11303 -3.39627 0
M  V30 6579 C 627.509 0.106809 -4.50773 0
M  V30 6580 C 626.171 -0.169876 -4.809 0
M  V30 6581 C 628.523 -0.57895 -5.17975 0
M  V30 6582 C 625.851 -1.13861 -5.75545 0
M  V30 6583 C 628.203 -1.53631 -6.13661 0
M  V30 6584 C 626.867 -1.82099 -6.42181 0
M  V30 6585 H 626.137 0.197427 -0.714215 0
M  V30 6586 H 628.784 -0.199391 -1.90459 0
M  V30 6587 H 627.089 1.92869 -3.4104 0
M  V30 6588 H 628.786 1.63032 -3.66363 0
M  V30 6589 H 625.376 0.332645 -4.27307 0
M  V30 6590 H 629.56 -0.378359 -4.94856 0
M  V30 6591 H 624.816 -1.36592 -5.95947 0
M  V30 6592 H 628.99 -2.07337 -6.64819 0
M  V30 6593 H 626.617 -2.57319 -7.15326 0
M  V30 6594 N 628.193 1.56834 0.155195 0
M  V30 6595 C 629.103 2.009 1.21146 0
M  V30 6596 C 630.119 0.923029 1.475 0
M  V30 6597 O 631.295 1.23189 1.59331 0
M  V30 6598 C 628.36 2.37378 2.52691 0
M  V30 6599 C 627.421 3.59883 2.34057 0
M  V30 6600 C 626.654 3.94612 3.59329 0
M  V30 6601 O 626.877 3.30104 4.65175 0
M  V30 6602 O 625.811 4.87895 3.52479 0
M  V30 6603 H 629.637 2.9105 0.867371 0
M  V30 6604 H 627.222 1.44916 0.363298 0
M  V30 6605 H 629.104 2.61737 3.3026 0
M  V30 6606 H 627.779 1.50385 2.86646 0
M  V30 6607 H 626.686 3.40722 1.54465 0
M  V30 6608 H 628.019 4.47468 2.0502 0
M  V30 6609 N 629.671 -0.424282 1.51781 0
M  V30 6610 C 630.92 -1.16961 1.64326 0
M  V30 6611 C 631.233 -1.92035 0.371749 0
M  V30 6612 O 632.439 -2.68873 0.37676 0
M  V30 6613 C 630.895 -2.12782 2.90262 0
M  V30 6614 C 630.503 -1.43295 4.24465 0
M  V30 6615 C 632.247 -2.87667 3.12166 0
M  V30 6616 C 630.154 -2.37676 5.41538 0
M  V30 6617 H 629.084 -0.440293 0.612093 0
M  V30 6618 H 631.735 -0.435431 1.78259 0
M  V30 6619 H 630.117 -2.8969 2.69992 0
M  V30 6620 H 631.291 -0.718564 4.55163 0
M  V30 6621 H 629.606 -0.805118 4.08542 0
M  V30 6622 H 632.203 -3.58395 3.96808 0
M  V30 6623 H 632.546 -3.49758 2.25776 0
M  V30 6624 H 633.079 -2.17863 3.32837 0
M  V30 6625 H 629.818 -1.80255 6.30229 0
M  V30 6626 H 629.338 -3.07132 5.15199 0
M  V30 6627 H 631.017 -2.98529 5.74012 0
M  V30 6628 N 631.149 -1.42148 -0.680565 0
M  V30 6629 C 632.395 -1.42521 -1.44277 0
M  V30 6630 C 632.728 -0.0393718 -1.9416 0
M  V30 6631 O 632.003 0.935425 -1.70529 0
M  V30 6632 C 632.286 -2.44475 -2.64394 0
M  V30 6633 C 632.139 -3.92226 -2.20179 0
M  V30 6634 C 633.458 -2.43491 -3.66606 0
M  V30 6635 H 630.577 -0.518985 -0.523282 0
M  V30 6636 H 633.219 -1.73524 -0.773914 0
M  V30 6637 H 631.369 -2.18168 -3.21458 0
M  V30 6638 H 633.041 -4.29493 -1.68327 0
M  V30 6639 H 631.284 -4.0637 -1.5181 0
M  V30 6640 H 631.955 -4.59133 -3.06433 0
M  V30 6641 H 634.431 -2.66872 -3.19247 0
M  V30 6642 H 633.307 -3.16816 -4.4824 0
M  V30 6643 H 633.568 -1.45881 -4.17338 0
M  V30 6644 N 632.627 0.916307 -1.28225 0
M  V30 6645 C 633.875 1.6619 -1.15002 0
M  V30 6646 C 634.196 1.92642 0.302329 0
M  V30 6647 O 633.466 1.54076 1.20985 0
M  V30 6648 H 632.046 0.615964 -0.422608 0
M  V30 6649 H 634.708 1.09963 -1.60917 0
M  V30 6650 H 633.804 2.62533 -1.68769 0
M  V30 6651 N 634.105 1.10431 1.1244 0
M  V30 6652 C 635.382 0.758797 1.80282 0
M  V30 6653 C 635.762 -0.754727 1.97147 0
M  V30 6654 O 635.11 -1.68094 1.54779 0
M  V30 6655 C 635.32 1.50982 3.14651 0
M  V30 6656 C 636.668 1.68232 3.8985 0
M  V30 6657 O 637.692 1.47319 3.24308 0
M  V30 6658 O 636.551 2.02905 5.07437 0
M  V30 6659 H 633.645 0.273756 0.780376 0
M  V30 6660 H 636.191 1.20713 1.19275 0
M  V30 6661 H 634.963 2.53989 2.97666 0
M  V30 6662 H 634.586 1.05435 3.83366 0
M  V30 6663 N 635.583 -1.29855 0.893053 0
M  V30 6664 C 636.829 -1.96116 0.516349 0
M  V30 6665 C 637.162 -1.70281 -0.933695 0
M  V30 6666 O 636.437 -1.01205 -1.66096 0
M  V30 6667 C 636.72 -3.51068 0.801455 0
M  V30 6668 C 636.573 -3.86387 2.30272 0
M  V30 6669 C 637.892 -4.39186 0.283423 0
M  V30 6670 H 635.011 -0.712335 0.189072 0
M  V30 6671 H 637.653 -1.53587 1.11852 0
M  V30 6672 H 635.803 -3.87424 0.288949 0
M  V30 6673 H 637.475 -3.60012 2.88425 0
M  V30 6674 H 635.718 -3.34167 2.76613 0
M  V30 6675 H 636.389 -4.94512 2.45279 0
M  V30 6676 H 638.865 -4.09785 0.722187 0
M  V30 6677 H 637.741 -5.46505 0.512169 0
M  V30 6678 H 638.002 -4.34511 -0.815643 0
M  V30 6679 N 637.061 -0.65484 -1.43351 0
M  V30 6680 C 638.477 -0.32255 -1.56307 0
M  V30 6681 C 638.677 1.17324 -1.63821 0
M  V30 6682 O 637.733 1.95813 -1.59417 0
M  V30 6683 C 639.046 -1.03533 -2.82314 0
M  V30 6684 C 640.594 -1.01574 -2.9606 0
M  V30 6685 C 641.069 -1.70945 -4.24902 0
M  V30 6686 N 642.56 -1.67716 -4.3177 0
M  V30 6687 C 643.295 -2.18265 -5.30234 0
M  V30 6688 N 642.791 -2.7711 -6.34966 0
M  V30 6689 N 644.584 -2.08756 -5.21898 0
M  V30 6690 H 636.735 -1.62549 -1.36717 0
M  V30 6691 H 638.998 -0.683676 -0.656727 0
M  V30 6692 H 638.704 -2.09045 -2.8283 0
M  V30 6693 H 638.578 -0.587913 -3.7259 0
M  V30 6694 H 640.965 0.0309834 -2.95084 0
M  V30 6695 H 641.046 -1.50186 -2.07069 0
M  V30 6696 H 640.69 -2.75574 -4.26639 0
M  V30 6697 H 640.62 -1.19797 -5.12793 0
M  V30 6698 H 643.111 -1.24777 -3.56706 0
M  V30 6699 H 643.424 -3.13353 -7.06421 0
M  V30 6700 H 641.769 -2.81171 -6.35585 0
M  V30 6701 H 644.96 -1.62488 -4.38994 0
M  V30 6702 H 645.133 -2.48459 -5.98475 0
M  V30 6703 N 638.539 1.52521 -0.396863 0
M  V30 6704 C 639.787 2.01274 0.182536 0
M  V30 6705 C 640.108 1.28485 1.46685 0
M  V30 6706 O 639.378 0.407134 1.91623 0
M  V30 6707 H 637.958 0.743671 0.0704442 0
M  V30 6708 H 640.62 1.87547 -0.530289 0
M  V30 6709 H 639.716 3.09687 0.387385 0
M  V30 6710 N 640.017 0.126909 1.57088 0
M  V30 6711 C 640.964 -0.82036 2.15728 0
M  V30 6712 C 641.934 -1.25811 1.08447 0
M  V30 6713 O 643.119 -1.33422 1.36393 0
M  V30 6714 C 640.259 -2.06199 2.76724 0
M  V30 6715 C 639.372 -1.67188 3.98337 0
M  V30 6716 C 638.507 -2.86378 4.47393 0
M  V30 6717 C 637.546 -2.43644 5.61519 0
M  V30 6718 N 636.683 -3.55775 6.05284 0
M  V30 6719 H 641.523 -0.313472 2.96347 0
M  V30 6720 H 639.06 -0.14303 1.46403 0
M  V30 6721 H 641.018 -2.78959 3.10222 0
M  V30 6722 H 639.648 -2.54333 1.98782 0
M  V30 6723 H 638.7 -0.842714 3.70948 0
M  V30 6724 H 640.012 -1.31789 4.81075 0
M  V30 6725 H 639.166 -3.67353 4.82842 0
M  V30 6726 H 637.905 -3.25009 3.63621 0
M  V30 6727 H 636.91 -1.61104 5.25667 0
M  V30 6728 H 638.135 -2.06122 6.47063 0
M  V30 6729 H 636.081 -3.94065 5.24451 0
M  V30 6730 H 635.998 -3.24325 6.82898 0
M  V30 6731 H 637.266 -4.37166 6.45373 0
M  V30 6732 N 641.495 -1.56914 -0.146875 0
M  V30 6733 C 642.743 -1.82994 -0.85777 0
M  V30 6734 C 643.064 -0.707814 -1.817 0
M  V30 6735 O 642.334 0.270521 -1.94023 0
M  V30 6736 H 640.914 -0.675106 -0.319751 0
M  V30 6737 H 643.576 -1.9439 -0.140849 0
M  V30 6738 H 642.672 -2.77928 -1.41994 0
M  V30 6739 N 642.974 0.416227 -1.52004 0
M  V30 6740 C 643.904 1.51365 -1.77795 0
M  V30 6741 C 644.885 1.58059 -0.628601 0
M  V30 6742 O 646.07 1.73447 -0.873478 0
M  V30 6743 C 643.2 2.89256 -1.92219 0
M  V30 6744 C 642.154 2.97415 -3.0778 0
M  V30 6745 C 641.48 4.37492 -3.07417 0
M  V30 6746 C 642.78 2.69551 -4.47369 0
M  V30 6747 H 644.474 1.30033 -2.69688 0
M  V30 6748 H 642.02 0.624112 -1.29772 0
M  V30 6749 H 643.973 3.66008 -2.08845 0
M  V30 6750 H 642.697 3.11866 -0.969917 0
M  V30 6751 H 641.356 2.23107 -2.90893 0
M  V30 6752 H 641.004 4.571 -2.09925 0
M  V30 6753 H 640.704 4.43877 -3.85029 0
M  V30 6754 H 642.228 5.16188 -3.26162 0
M  V30 6755 H 643.642 3.36028 -4.64497 0
M  V30 6756 H 642.039 2.87321 -5.26846 0
M  V30 6757 H 643.109 1.65029 -4.55953 0
M  V30 6758 N 644.452 1.42507 0.673017 0
M  V30 6759 C 645.385 1.40557 1.79774 0
M  V30 6760 C 646.363 0.269606 1.60349 0
M  V30 6761 O 647.547 0.460105 1.82798 0
M  V30 6762 C 644.674 1.19815 3.168 0
M  V30 6763 C 643.72 2.36429 3.5497 0
M  V30 6764 S 644.553 3.98963 3.57196 0
M  V30 6765 C 645.709 3.80567 4.9691 0
M  V30 6766 H 645.942 2.35734 1.81154 0
M  V30 6767 H 643.475 1.293 0.843846 0
M  V30 6768 H 645.433 1.08535 3.95892 0
M  V30 6769 H 644.094 0.262215 3.13004 0
M  V30 6770 H 643.287 2.17669 4.54573 0
M  V30 6771 H 642.889 2.44233 2.83242 0
M  V30 6772 H 645.181 3.41668 5.85038 0
M  V30 6773 H 646.124 4.79852 5.20718 0
M  V30 6774 H 646.532 3.13399 4.69512 0
M  V30 6775 N 645.93 -0.909495 1.28709 0
M  V30 6776 C 647.179 -1.65365 1.15487 0
M  V30 6777 C 647.492 -1.93364 -0.294941 0
M  V30 6778 O 648.698 -2.65905 -0.548338 0
M  V30 6779 C 647.154 -2.97923 2.01916 0
M  V30 6780 C 646.762 -2.77556 3.51663 0
M  V30 6781 C 648.506 -3.75814 1.97393 0
M  V30 6782 C 646.413 -4.0578 4.30229 0
M  V30 6783 H 645.343 -0.620323 0.42862 0
M  V30 6784 H 647.994 -1.00894 1.53273 0
M  V30 6785 H 646.376 -3.63552 1.5699 0
M  V30 6786 H 647.55 -2.2058 4.04575 0
M  V30 6787 H 645.865 -2.13072 3.57756 0
M  V30 6788 H 648.462 -4.70866 2.53357 0
M  V30 6789 H 648.805 -4.05277 0.951643 0
M  V30 6790 H 649.338 -3.1701 2.40311 0
M  V30 6791 H 646.077 -3.81488 5.33055 0
M  V30 6792 H 645.597 -4.62351 3.82089 0
M  V30 6793 H 647.276 -4.74004 4.40374 0
M  V30 6794 N 647.408 -1.11026 -1.11852 0
M  V30 6795 C 648.656 -0.854769 -1.83134 0
M  V30 6796 C 648.977 0.621375 -1.84835 0
M  V30 6797 O 648.247 1.45129 -1.31584 0
M  V30 6798 H 646.827 -0.313229 -0.678157 0
M  V30 6799 H 649.489 -1.40178 -1.35411 0
M  V30 6800 H 648.585 -1.22311 -2.87135 0
M  V30 6801 N 648.886 1.2938 -0.899927 0
M  V30 6802 C 650.135 1.9483 -0.521937 0
M  V30 6803 C 650.448 1.71725 0.936473 0
M  V30 6804 O 651.654 2.31282 1.42199 0
M  V30 6805 C 650.11 3.48911 -0.88255 0
M  V30 6806 C 649.718 3.80815 -2.35974 0
M  V30 6807 C 651.462 4.20595 -0.57448 0
M  V30 6808 C 649.369 5.28142 -2.66121 0
M  V30 6809 H 648.299 0.729285 -0.191468 0
M  V30 6810 H 650.95 1.47103 -1.09695 0
M  V30 6811 H 649.332 3.95293 -0.236459 0
M  V30 6812 H 650.506 3.45291 -3.05141 0
M  V30 6813 H 648.821 3.22271 -2.63686 0
M  V30 6814 H 651.418 5.29031 -0.776556 0
M  V30 6815 H 651.761 4.13442 0.487005 0
M  V30 6816 H 652.294 3.79945 -1.17842 0
M  V30 6817 H 649.033 5.4036 -3.71068 0
M  V30 6818 H 648.553 5.64913 -2.01578 0
M  V30 6819 H 650.232 5.95738 -2.52399 0
M  V30 6820 N 650.364 0.662433 1.43002 0
M  V30 6821 C 651.274 -0.0239199 2.34588 0
M  V30 6822 C 652.29 -0.802255 1.54402 0
M  V30 6823 O 653.466 -0.747401 1.87018 0
M  V30 6824 C 650.531 -0.972098 3.32793 0
M  V30 6825 C 649.592 -0.189673 4.28881 0
M  V30 6826 C 648.825 -1.09269 5.22395 0
M  V30 6827 O 649.048 -2.33209 5.20547 0
M  V30 6828 O 647.982 -0.560136 5.99288 0
M  V30 6829 H 651.808 0.730171 2.94792 0
M  V30 6830 H 649.393 0.422635 1.43297 0
M  V30 6831 H 651.275 -1.51676 3.93157 0
M  V30 6832 H 649.95 -1.70626 2.75079 0
M  V30 6833 H 648.857 0.398794 3.71968 0
M  V30 6834 H 650.19 0.50511 4.89601 0
M  V30 6835 N 651.842 -1.52309 0.404946 0
M  V30 6836 C 652.775 -2.23369 -0.467087 0
M  V30 6837 C 653.753 -1.24034 -1.0514 0
M  V30 6838 O 654.937 -1.53071 -1.10006 0
M  V30 6839 C 652.064 -2.95906 -1.64795 0
M  V30 6840 C 651.11 -4.09637 -1.18743 0
M  V30 6841 S 651.943 -5.35273 -0.156022 0
M  V30 6842 C 653.099 -6.11337 -1.34231 0
M  V30 6843 H 653.332 -2.96987 0.136294 0
M  V30 6844 H 650.865 -1.53236 0.189219 0
M  V30 6845 H 652.823 -3.38304 -2.3251 0
M  V30 6846 H 651.484 -2.21937 -2.22267 0
M  V30 6847 H 650.677 -4.59549 -2.06955 0
M  V30 6848 H 650.279 -3.69333 -0.588981 0
M  V30 6849 H 652.571 -6.38458 -2.26665 0
M  V30 6850 H 653.514 -7.02563 -0.883804 0
M  V30 6851 H 653.922 -5.42338 -1.56621 0
M  V30 6852 N 653.32 -0.135238 -1.57019 0
M  V30 6853 C 654.566 0.519563 -1.96032 0
M  V30 6854 C 654.899 1.65284 -1.01955 0
M  V30 6855 O 654.174 1.94408 -0.059727 0
M  V30 6856 C 654.457 1.0369 -3.44848 0
M  V30 6857 C 654.31 -0.0940754 -4.49702 0
M  V30 6858 C 655.629 1.92254 -3.95887 0
M  V30 6859 H 652.748 0.18739 -0.712779 0
M  V30 6860 H 655.39 -0.214086 -1.8879 0
M  V30 6861 H 653.54 1.66209 -3.5115 0
M  V30 6862 H 655.212 -0.73 -4.55487 0
M  V30 6863 H 653.455 -0.754924 -4.27181 0
M  V30 6864 H 654.126 0.309419 -5.51132 0
M  V30 6865 H 656.602 1.39581 -3.9199 0
M  V30 6866 H 655.478 2.25364 -5.00502 0
M  V30 6867 H 655.739 2.85513 -3.37543 0
M  V30 6868 N 654.798 1.5699 0.138552 0
M  V30 6869 C 655.73 1.95515 1.1961 0
M  V30 6870 C 656.743 0.852002 1.38726 0
M  V30 6871 O 657.932 1.13038 1.38147 0
M  V30 6872 C 655.032 2.2213 2.55952 0
M  V30 6873 C 654.205 3.53424 2.57702 0
M  V30 6874 C 653.264 3.6848 3.75645 0
M  V30 6875 O 652.29 4.4079 3.60129 0
M  V30 6876 N 653.492 3.05777 4.93438 0
M  V30 6877 H 656.257 2.86838 0.868557 0
M  V30 6878 H 653.818 1.58542 0.328033 0
M  V30 6879 H 655.81 2.29435 3.33379 0
M  V30 6880 H 654.38 1.3703 2.80965 0
M  V30 6881 H 653.6 3.57484 1.6613 0
M  V30 6882 H 654.888 4.39759 2.55909 0
M  V30 6883 H 654.286 2.46961 5.08947 0
M  V30 6884 H 652.843 3.18631 5.6861 0
M  V30 6885 N 656.276 -0.40816 1.52223 0
M  V30 6886 C 657.553 -1.16807 1.56893 0
M  V30 6887 C 657.933 -2.08169 0.350537 0
M  V30 6888 O 657.281 -2.18684 -0.662536 0
M  V30 6889 C 657.491 -1.94451 2.8981 0
M  V30 6890 C 658.839 -2.50484 3.42845 0
M  V30 6891 O 659.863 -2.0463 2.91556 0
M  V30 6892 O 658.722 -3.34192 4.3241 0
M  V30 6893 H 655.816 -0.533382 0.632007 0
M  V30 6894 H 658.362 -0.414862 1.64551 0
M  V30 6895 H 657.134 -1.27527 3.69936 0
M  V30 6896 H 656.757 -2.76775 2.85449 0
M  V30 6897 N 657.755 -1.42862 -0.66545 0
M  V30 6898 C 658.702 -1.4707 -1.77874 0
M  V30 6899 C 659.672 -0.321654 -1.62956 0
M  V30 6900 O 660.857 -0.52707 -1.83376 0
M  V30 6901 C 657.997 -1.38788 -3.15962 0
M  V30 6902 C 657.11 -2.63801 -3.42101 0
M  V30 6903 C 656.245 -2.47594 -4.69969 0
M  V30 6904 C 655.284 -3.67936 -4.89172 0
M  V30 6905 N 654.421 -3.50614 -6.08288 0
M  V30 6906 H 659.261 -2.42204 -1.73613 0
M  V30 6907 H 656.798 -1.20239 -0.847401 0
M  V30 6908 H 658.756 -1.31982 -3.95773 0
M  V30 6909 H 657.386 -0.472431 -3.19324 0
M  V30 6910 H 656.438 -2.80935 -2.56475 0
M  V30 6911 H 657.75 -3.53228 -3.52181 0
M  V30 6912 H 656.904 -2.38427 -5.57886 0
M  V30 6913 H 655.643 -1.55672 -4.62188 0
M  V30 6914 H 654.648 -3.77525 -3.99694 0
M  V30 6915 H 655.873 -4.60851 -4.98792 0
M  V30 6916 H 653.819 -2.61417 -6.01662 0
M  V30 6917 H 653.736 -4.33634 -6.19272 0
M  V30 6918 H 655.004 -3.45276 -6.98859 0
M  V30 6919 N 659.233 0.902656 -1.29189 0
M  V30 6920 C 660.482 1.6475 -1.16362 0
M  V30 6921 C 660.795 1.93517 0.284682 0
M  V30 6922 O 662.001 2.66192 0.534229 0
M  V30 6923 C 660.457 2.96848 -2.03493 0
M  V30 6924 C 660.065 2.75687 -3.5313 0
M  V30 6925 C 661.809 3.74762 -1.99383 0
M  V30 6926 C 659.716 4.03492 -4.32375 0
M  V30 6927 H 658.646 0.618041 -0.431904 0
M  V30 6928 H 661.297 1.0008 -1.53806 0
M  V30 6929 H 659.679 3.62715 -1.58916 0
M  V30 6930 H 660.853 2.18431 -4.05739 0
M  V30 6931 H 659.168 2.11171 -3.58881 0
M  V30 6932 H 661.765 4.69515 -2.5585 0
M  V30 6933 H 662.108 4.04767 -0.973123 0
M  V30 6934 H 662.641 3.15732 -2.41988 0
M  V30 6935 H 659.38 3.78656 -5.3507 0
M  V30 6936 H 658.9 4.60318 -3.84535 0
M  V30 6937 H 660.579 4.71662 -4.42881 0
M  V30 6938 N 660.711 1.11618 1.11262 0
M  V30 6939 C 661.936 0.889013 1.8738 0
M  V30 6940 C 662.361 -0.555884 1.79698 0
M  V30 6941 O 661.719 -1.39272 1.16073 0
M  V30 6942 C 661.767 1.35759 3.34069 0
M  V30 6943 O 660.871 0.530499 4.08974 0
M  V30 6944 H 660.212 0.320082 0.581759 0
M  V30 6945 H 662.742 1.48611 1.40627 0
M  V30 6946 H 662.752 1.35291 3.84916 0
M  V30 6947 H 661.427 2.40973 3.38976 0
M  V30 6948 H 660.004 0.601439 3.68018 0
M  V30 6949 N 662.189 -1.289 0.906776 0
M  V30 6950 C 663.429 -1.97046 0.543329 0
M  V30 6951 C 663.793 -1.69862 -0.895034 0
M  V30 6952 O 664.994 -2.31521 -1.36571 0
M  V30 6953 C 663.265 -3.47489 0.835833 0
M  V30 6954 S 664.824 -4.3498 0.577756 0
M  V30 6955 H 661.642 -0.681908 0.201302 0
M  V30 6956 H 664.244 -1.5657 1.17073 0
M  V30 6957 H 662.948 -3.64768 1.88075 0
M  V30 6958 H 662.479 -3.92907 0.196817 0
M  V30 6959 H 664.494 -4.92868 -0.574052 0
M  V30 6960 N 663.667 -0.670007 -1.42649 0
M  V30 6961 C 665.083 -0.33911 -1.55956 0
M  V30 6962 C 665.283 1.1558 -1.65056 0
M  V30 6963 O 664.339 1.94111 -1.61485 0
M  V30 6964 C 665.652 -1.06522 -2.812 0
M  V30 6965 C 667.2 -1.04708 -2.94966 0
M  V30 6966 C 667.675 -1.75442 -4.23065 0
M  V30 6967 N 669.166 -1.72286 -4.29967 0
M  V30 6968 C 669.901 -2.23877 -5.27889 0
M  V30 6969 N 669.397 -2.83829 -6.31991 0
M  V30 6970 N 671.19 -2.14279 -5.19654 0
M  V30 6971 H 663.341 -1.6399 -1.34986 0
M  V30 6972 H 665.604 -0.690603 -0.649439 0
M  V30 6973 H 665.31 -2.12033 -2.80597 0
M  V30 6974 H 665.184 -0.627398 -3.71946 0
M  V30 6975 H 667.571 -0.000315966 -2.951 0
M  V30 6976 H 667.652 -1.52374 -2.05465 0
M  V30 6977 H 667.296 -2.80084 -4.23693 0
M  V30 6978 H 667.226 -1.25229 -5.11493 0
M  V30 6979 H 669.717 -1.28554 -3.55362 0
M  V30 6980 H 670.03 -3.20827 -7.03057 0
M  V30 6981 H 668.375 -2.87896 -6.32567 0
M  V30 6982 H 671.566 -1.67135 -4.37245 0
M  V30 6983 H 671.739 -2.54792 -5.95806 0
M  V30 6984 N 665.145 1.52092 -0.413018 0
M  V30 6985 C 666.556 1.86617 0.0556967 0
M  V30 6986 C 666.907 1.33156 1.44097 0
M  V30 6987 O 666.032 0.672417 2.05688 0
M  V30 6988 C 666.627 3.38628 0.107844 0
M  V30 6989 C 665.186 3.72778 0.520904 0
M  V30 6990 C 664.333 2.75649 -0.302109 0
M  V30 6991 H 667.284 1.45663 -0.629919 0
M  V30 6992 H 667.305 3.69152 0.922324 0
M  V30 6993 H 666.817 3.77508 -0.900506 0
M  V30 6994 H 664.918 3.39478 1.53575 0
M  V30 6995 H 665.031 4.7838 0.262591 0
M  V30 6996 H 663.395 2.53603 0.236115 0
M  V30 6997 H 664.178 3.17369 -1.30888 0
M  V30 6998 N 666.623 0.143563 1.56945 0
M  V30 6999 C 667.553 -0.7936 2.196 0
M  V30 7000 C 668.534 -1.25955 1.14321 0
M  V30 7001 O 669.719 -1.31773 1.42651 0
M  V30 7002 C 666.849 -2.03424 2.81489 0
M  V30 7003 C 665.803 -1.70519 3.92565 0
M  V30 7004 C 665.129 -3.01817 4.41373 0
M  V30 7005 C 666.429 -0.95449 5.13504 0
M  V30 7006 H 668.123 -0.271423 2.98167 0
M  V30 7007 H 665.669 -0.12911 1.4342 0
M  V30 7008 H 667.622 -2.69463 3.23987 0
M  V30 7009 H 666.346 -2.58008 2.00248 0
M  V30 7010 H 665.005 -1.06859 3.5068 0
M  V30 7011 H 664.653 -3.54386 3.56959 0
M  V30 7012 H 664.353 -2.80565 5.16292 0
M  V30 7013 H 665.877 -3.68934 4.86539 0
M  V30 7014 H 667.291 -1.5169 5.52868 0
M  V30 7015 H 665.688 -0.842035 5.94163 0
M  V30 7016 H 666.758 0.0544033 4.84869 0
M  V30 7017 N 668.101 -1.57061 -0.130224 0
M  V30 7018 C 669.512 -1.73539 -0.68856 0
M  V30 7019 C 669.863 -0.760554 -1.80859 0
M  V30 7020 O 668.988 0.0690796 -2.1629 0
M  V30 7021 C 669.583 -3.14666 -1.25581 0
M  V30 7022 C 668.142 -3.32689 -1.76055 0
M  V30 7023 C 667.289 -2.69436 -0.655712 0
M  V30 7024 H 670.24 -1.58412 0.0956002 0
M  V30 7025 H 670.261 -3.15595 -2.12556 0
M  V30 7026 H 669.773 -3.85593 -0.440412 0
M  V30 7027 H 667.874 -2.66786 -2.60108 0
M  V30 7028 H 667.987 -4.4077 -1.87772 0
M  V30 7029 H 666.351 -2.30362 -1.08654 0
M  V30 7030 H 667.134 -3.42979 0.14852 0
M  V30 7031 N 669.579 0.400081 -1.52437 0
M  V30 7032 C 670.995 0.739359 -1.41441 0
M  V30 7033 C 671.195 1.94512 -0.526053 0
M  V30 7034 O 670.251 2.525 0.00472502 0
M  V30 7035 C 671.564 0.984824 -2.84116 0
M  V30 7036 C 673.112 1.08698 -2.93519 0
M  V30 7037 C 673.587 1.36515 -4.37181 0
M  V30 7038 N 675.078 1.43361 -4.40457 0
M  V30 7039 C 675.813 1.66528 -5.48686 0
M  V30 7040 N 675.309 1.87239 -6.67018 0
M  V30 7041 N 677.102 1.68617 -5.36213 0
M  V30 7042 H 669.253 -0.393484 -2.08723 0
M  V30 7043 H 671.516 -0.1138 -0.941145 0
M  V30 7044 H 671.222 0.171096 -3.51284 0
M  V30 7045 H 671.096 1.90253 -3.25705 0
M  V30 7046 H 673.483 1.89129 -2.26526 0
M  V30 7047 H 673.564 0.147432 -2.55375 0
M  V30 7048 H 673.208 0.565982 -5.04737 0
M  V30 7049 H 673.138 2.31737 -4.7287 0
M  V30 7050 H 675.629 1.29108 -3.55161 0
M  V30 7051 H 675.942 2.04392 -7.45281 0
M  V30 7052 H 674.287 1.84486 -6.70067 0
M  V30 7053 H 677.478 1.5198 -4.42741 0
M  V30 7054 H 677.651 1.86332 -6.20632 0
M  V30 7055 N 671.057 1.43213 0.657864 0
M  V30 7056 C 671.967 1.50448 1.80007 0
M  V30 7057 C 672.983 0.39191 1.69529 0
M  V30 7058 O 674.159 0.645349 1.90781 0
M  V30 7059 C 671.224 1.42062 3.16258 0
M  V30 7060 C 670.285 2.63951 3.38568 0
M  V30 7061 C 669.518 2.55956 4.68318 0
M  V30 7062 O 669.741 1.60473 5.47361 0
M  V30 7063 O 668.675 3.46378 4.92245 0
M  V30 7064 H 672.501 2.4689 1.76858 0
M  V30 7065 H 670.086 1.25163 0.81576 0
M  V30 7066 H 671.968 1.3981 3.97531 0
M  V30 7067 H 670.643 0.487524 3.20008 0
M  V30 7068 H 669.55 2.71776 2.57077 0
M  V30 7069 H 670.883 3.56217 3.39662 0
M  V30 7070 N 672.536 -0.895792 1.29666 0
M  V30 7071 C 673.446 -2.03329 1.17024 0
M  V30 7072 C 674.462 -1.73753 0.0925962 0
M  V30 7073 O 675.638 -1.99071 0.305431 0
M  V30 7074 C 672.703 -3.36072 0.851841 0
M  V30 7075 C 671.764 -3.7914 2.01373 0
M  V30 7076 C 670.997 -5.05549 1.71043 0
M  V30 7077 O 671.22 -5.66874 0.633213 0
M  V30 7078 O 670.154 -5.44764 2.5596 0
M  V30 7079 H 673.98 -2.16918 2.12556 0
M  V30 7080 H 671.565 -1.02007 1.09156 0
M  V30 7081 H 673.447 -4.15729 0.689006 0
M  V30 7082 H 672.122 -3.23616 -0.0736634 0
M  V30 7083 H 671.029 -3.00233 2.23183 0
M  V30 7084 H 672.362 -3.96186 2.92058 0
M  V30 7085 N 674.014 -1.12206 -1.10668 0
M  V30 7086 C 675.26 -0.877172 -1.82848 0
M  V30 7087 C 675.593 0.595571 -1.84842 0
M  V30 7088 O 674.868 1.44013 -1.30731 0
M  V30 7089 C 675.151 -1.44957 -3.29635 0
M  V30 7090 C 675.004 -2.99051 -3.35989 0
M  V30 7091 C 676.323 -1.10714 -4.25946 0
M  V30 7092 H 673.442 -0.320103 -0.663854 0
M  V30 7093 H 676.084 -1.38827 -1.2972 0
M  V30 7094 H 674.234 -1.01488 -3.7501 0
M  V30 7095 H 675.906 -3.51182 -2.99113 0
M  V30 7096 H 674.149 -3.34705 -2.75962 0
M  V30 7097 H 674.82 -3.34194 -4.39339 0
M  V30 7098 H 677.296 -1.48254 -3.88793 0
M  V30 7099 H 676.172 -1.5343 -5.2702 0
M  V30 7100 H 676.433 -0.019 -4.42096 0
M  V30 7101 N 675.492 1.28418 -0.913599 0
M  V30 7102 C 676.44 2.29272 -0.392037 0
M  V30 7103 C 677.434 1.61344 0.516198 0
M  V30 7104 O 678.64 1.75557 0.39746 0
M  V30 7105 H 675.015 0.744178 -0.108178 0
M  V30 7106 H 676.986 2.70691 -1.25574 0
M  V30 7107 C 675.735 3.45905 0.352815 0
M  V30 7108 H 675.058 3.98378 -0.336848 0
M  V30 7109 H 676.498 4.18473 0.682398 0
M  V30 7110 C 674.957 2.98572 1.56065 0
M  V30 7111 O 675.487 3.01033 2.65974 0
M  V30 7112 N 673.693 2.54235 1.40759 0
M  V30 7113 H 673.24 2.52432 0.513403 0
M  V30 7114 H 673.198 2.22925 2.21702 0
M  V30 7115 N 676.97 0.677563 1.42291 0
M  V30 7116 C 677.902 -0.0380218 2.29168 0
M  V30 7117 C 678.915 -0.762714 1.43828 0
M  V30 7118 O 680.104 -0.616413 1.67519 0
M  V30 7119 C 677.204 -1.07761 3.21311 0
M  V30 7120 C 676.377 -0.42618 4.35319 0
M  V30 7121 C 675.436 -1.36592 5.08162 0
M  V30 7122 O 674.462 -0.865174 5.62586 0
M  V30 7123 N 675.664 -2.69909 5.13935 0
M  V30 7124 H 678.429 0.707766 2.91223 0
M  V30 7125 H 675.99 0.52219 1.53247 0
M  V30 7126 H 677.982 -1.70761 3.6691 0
M  V30 7127 H 676.552 -1.72511 2.60689 0
M  V30 7128 H 675.772 0.383385 3.92331 0
M  V30 7129 H 677.06 0.0275277 5.08793 0
M  V30 7130 H 676.458 -3.13129 4.71134 0
M  V30 7131 H 675.015 -3.2815 5.6317 0
M  V30 7132 N 678.448 -1.51871 0.421078 0
M  V30 7133 C 679.697 -2.01125 -0.152206 0
M  V30 7134 C 680.01 -1.3106 -1.45199 0
M  V30 7135 O 681.216 -1.71195 -2.10724 0
M  V30 7136 C 679.672 -3.58458 -0.3218 0
M  V30 7137 C 679.28 -4.37448 0.96659 0
M  V30 7138 C 681.024 -4.15908 -0.84973 0
M  V30 7139 C 678.931 -5.86451 0.763529 0
M  V30 7140 H 677.861 -0.751556 -0.0606565 0
M  V30 7141 H 680.512 -1.75115 0.548354 0
M  V30 7142 H 678.894 -3.80847 -1.08498 0
M  V30 7143 H 680.068 -4.26814 1.73684 0
M  V30 7144 H 678.383 -3.91373 1.42183 0
M  V30 7145 H 680.98 -5.24922 -1.01788 0
M  V30 7146 H 681.323 -3.74031 -1.82774 0
M  V30 7147 H 681.856 -3.97535 -0.145297 0
M  V30 7148 H 678.595 -6.3271 1.71344 0
M  V30 7149 H 678.115 -5.99791 0.0327889 0
M  V30 7150 H 679.794 -6.45697 0.410354 0
M  V30 7151 N 679.926 -0.151884 -1.56866 0
M  V30 7152 C 680.876 0.797799 -2.13586 0
M  V30 7153 C 681.86 1.20613 -1.06496 0
M  V30 7154 O 683.052 1.17173 -1.32663 0
M  V30 7155 C 680.181 2.03493 -2.76488 0
M  V30 7156 C 679.267 1.64948 -3.90708 0
M  V30 7157 N 679.658 0.972513 -4.96363 0
M  V30 7158 C 677.956 1.94186 -4.01507 0
M  V30 7159 C 678.657 0.785661 -5.7637 0
M  V30 7160 N 677.633 1.32105 -5.27304 0
M  V30 7161 H 681.435 0.271403 -2.92644 0
M  V30 7162 H 678.949 0.049487 -1.62325 0
M  V30 7163 H 680.946 2.72532 -3.15487 0
M  V30 7164 H 679.606 2.56646 -1.98904 0
M  V30 7165 H 680.617 0.632724 -5.1402 0
M  V30 7166 H 677.294 2.49154 -3.35005 0
M  V30 7167 H 678.684 0.251749 -6.71428 0
M  V30 7168 N 681.404 1.57128 0.121893 0
M  V30 7169 C 682.314 2.03425 1.16857 0
M  V30 7170 C 683.33 0.954108 1.45509 0
M  V30 7171 O 684.506 1.26541 1.56682 0
M  V30 7172 C 681.571 2.42685 2.47599 0
M  V30 7173 C 680.632 3.64767 2.2637 0
M  V30 7174 C 679.865 4.02145 3.50878 0
M  V30 7175 O 680.088 3.39897 4.58068 0
M  V30 7176 O 679.022 4.95262 3.42051 0
M  V30 7177 H 682.848 2.92825 0.80544 0
M  V30 7178 H 680.433 1.45654 0.332477 0
M  V30 7179 H 682.315 2.68684 3.24634 0
M  V30 7180 H 680.99 1.56432 2.83392 0
M  V30 7181 H 679.897 3.43922 1.47203 0
M  V30 7182 H 681.23 4.51716 1.95482 0
M  V30 7183 N 682.882 -0.391992 1.52647 0
M  V30 7184 C 684.159 -1.15136 1.58123 0
M  V30 7185 C 684.539 -2.07786 0.372597 0
M  V30 7186 O 683.887 -2.19374 -0.639304 0
M  V30 7187 C 684.097 -1.91367 2.91856 0
M  V30 7188 C 685.445 -2.46833 3.45483 0
M  V30 7189 O 686.469 -2.01527 2.9371 0
M  V30 7190 O 685.328 -3.29587 4.3593 0
M  V30 7191 H 682.422 -0.526649 0.637629 0
M  V30 7192 H 684.968 -0.397386 1.64982 0
M  V30 7193 H 683.74 -1.23597 3.71268 0
M  V30 7194 H 683.363 -2.73732 2.88369 0
M  V30 7195 N 684.36 -1.4356 -0.65026 0
M  V30 7196 C 685.6 -1.46839 -1.42188 0
M  V30 7197 C 685.964 -0.0911433 -1.91784 0
M  V30 7198 O 687.165 0.00137545 -2.688 0
M  V30 7199 C 685.436 -2.48411 -2.56957 0
M  V30 7200 S 686.995 -2.70589 -3.45438 0
M  V30 7201 H 683.813 -0.519596 -0.485325 0
M  V30 7202 H 686.415 -1.80347 -0.75466 0
M  V30 7203 H 685.119 -3.47209 -2.18801 0
M  V30 7204 H 684.65 -2.16411 -3.28527 0
M  V30 7205 H 686.665 -2.00738 -4.53782 0
M  V30 7206 N 685.838 0.888903 -1.30139 0
M  V30 7207 C 686.785 1.99422 -1.16188 0
M  V30 7208 C 687.755 1.66017 -0.0523869 0
M  V30 7209 O 688.94 1.89506 -0.221864 0
M  V30 7210 C 686.08 3.34325 -0.855612 0
M  V30 7211 C 685.193 3.80445 -2.0466 0
M  V30 7212 C 684.328 5.03975 -1.67876 0
M  V30 7213 C 683.367 5.42492 -2.83493 0
M  V30 7214 N 682.504 6.57206 -2.47032 0
M  V30 7215 H 687.344 2.10687 -2.10749 0
M  V30 7216 H 684.881 1.03165 -1.04859 0
M  V30 7217 H 686.839 4.11968 -0.658681 0
M  V30 7218 H 685.469 3.22756 0.0531155 0
M  V30 7219 H 684.521 2.98745 -2.3549 0
M  V30 7220 H 685.833 4.04933 -2.91257 0
M  V30 7221 H 684.987 5.89232 -1.44535 0
M  V30 7222 H 683.726 4.8135 -0.784431 0
M  V30 7223 H 682.731 4.55764 -3.07505 0
M  V30 7224 H 683.956 5.67093 -3.73607 0
M  V30 7225 H 681.902 6.36164 -1.601 0
M  V30 7226 H 681.819 6.81543 -3.27161 0
M  V30 7227 H 683.087 7.45704 -2.27038 0
M  V30 7228 N 687.317 1.12792 1.10072 0
M  V30 7229 C 688.267 0.768086 2.14673 0
M  V30 7230 C 689.251 -0.234716 1.59179 0
M  V30 7231 O 690.443 -0.039643 1.76956 0
M  V30 7232 C 687.572 0.228472 3.42539 0
M  V30 7233 C 686.658 1.25979 4.04957 0
M  V30 7234 N 687.049 2.4586 4.42025 0
M  V30 7235 C 685.347 1.10602 4.32069 0
M  V30 7236 C 686.048 3.11747 4.9111 0
M  V30 7237 N 685.024 2.39185 4.88151 0
M  V30 7238 H 688.826 1.68029 2.4113 0
M  V30 7239 H 686.34 1.00925 1.27232 0
M  V30 7240 H 688.337 -0.0475216 4.16873 0
M  V30 7241 H 686.997 -0.678136 3.1754 0
M  V30 7242 H 688.008 2.83215 4.33601 0
M  V30 7243 H 684.685 0.257021 4.16708 0
M  V30 7244 H 686.075 4.13862 5.29309 0
M  V30 7245 N 688.795 -1.27931 0.920396 0
M  V30 7246 C 689.728 -2.2537 0.358285 0
M  V30 7247 C 690.706 -1.53328 -0.541242 0
M  V30 7248 O 691.89 -1.82196 -0.483399 0
M  V30 7249 C 689.017 -3.35178 -0.487193 0
M  V30 7250 C 688.063 -4.25079 0.347881 0
M  V30 7251 S 688.896 -5.05792 1.75883 0
M  V30 7252 C 690.052 -6.19089 0.920832 0
M  V30 7253 H 690.285 -2.72701 1.18413 0
M  V30 7254 H 687.818 -1.36474 0.722088 0
M  V30 7255 H 689.776 -3.98895 -0.96916 0
M  V30 7256 H 688.437 -2.865 -1.28749 0
M  V30 7257 H 687.63 -5.03113 -0.298912 0
M  V30 7258 H 687.232 -3.66119 0.763748 0
M  V30 7259 H 689.524 -6.77326 0.15349 0
M  V30 7260 H 690.467 -6.8803 1.67394 0
M  V30 7261 H 690.875 -5.62573 0.466069 0
M  V30 7262 N 690.273 -0.685099 -1.4193 0
M  V30 7263 C 691.521 -0.21124 -2.00993 0
M  V30 7264 C 691.842 1.18985 -1.54491 0
M  V30 7265 O 691.112 1.8009 -0.771 0
M  V30 7266 H 689.692 -0.0751059 -0.743215 0
M  V30 7267 H 692.354 -0.883915 -1.73704 0
M  V30 7268 H 691.45 -0.220513 -3.1132 0
M  V30 7269 N 691.751 1.51645 -0.429126 0
M  V30 7270 C 692.681 2.30434 0.377148 0
M  V30 7271 C 693.662 1.35493 1.02838 0
M  V30 7272 O 694.847 1.6441 1.03359 0
M  V30 7273 C 691.977 3.14038 1.48315 0
M  V30 7274 C 690.931 4.1719 0.955855 0
M  V30 7275 C 690.257 4.89263 2.15698 0
M  V30 7276 C 691.557 5.223 -0.00402136 0
M  V30 7277 H 693.251 2.98085 -0.280336 0
M  V30 7278 H 690.797 1.43354 -0.136265 0
M  V30 7279 H 692.75 3.67933 2.05435 0
M  V30 7280 H 691.474 2.44193 2.16881 0
M  V30 7281 H 690.133 3.64335 0.406929 0
M  V30 7282 H 689.781 4.15929 2.82864 0
M  V30 7283 H 689.481 5.59009 1.81059 0
M  V30 7284 H 691.005 5.45978 2.73387 0
M  V30 7285 H 692.419 5.71315 0.476607 0
M  V30 7286 H 690.816 5.99525 -0.26258 0
M  V30 7287 H 691.886 4.75638 -0.943236 0
M  V30 7288 N 693.229 0.160201 1.56784 0
M  V30 7289 C 694.159 -0.770264 2.2043 0
M  V30 7290 C 695.14 -1.24736 1.15651 0
M  V30 7291 O 696.325 -1.30253 1.44041 0
M  V30 7292 C 693.455 -2.00427 2.83631 0
M  V30 7293 C 692.409 -1.66345 3.94352 0
M  V30 7294 C 691.735 -2.97119 4.4455 0
M  V30 7295 C 693.035 -0.899972 5.14488 0
M  V30 7296 H 694.729 -0.239783 2.98438 0
M  V30 7297 H 692.275 -0.113891 1.43549 0
M  V30 7298 H 694.228 -2.66012 3.26827 0
M  V30 7299 H 692.952 -2.5587 2.02973 0
M  V30 7300 H 691.611 -1.03133 3.51794 0
M  V30 7301 H 691.259 -3.5058 3.60698 0
M  V30 7302 H 690.959 -2.75073 5.19238 0
M  V30 7303 H 692.483 -3.63753 4.90425 0
M  V30 7304 H 693.897 -1.45818 5.54446 0
M  V30 7305 H 692.294 -0.778968 5.95023 0
M  V30 7306 H 693.364 0.105827 4.84785 0
M  V30 7307 N 694.707 -1.5719 -0.113559 0
M  V30 7308 C 695.953 -1.85412 -0.821597 0
M  V30 7309 C 696.286 -0.746722 -1.7927 0
M  V30 7310 O 695.561 0.246971 -1.92926 0
M  V30 7311 C 695.844 -3.24233 -1.56669 0
M  V30 7312 C 695.697 -4.45578 -0.614823 0
M  V30 7313 C 697.016 -3.60697 -2.52161 0
M  V30 7314 H 694.135 -0.674406 -0.29723 0
M  V30 7315 H 696.777 -1.89807 -0.085694 0
M  V30 7316 H 694.927 -3.20617 -2.19401 0
M  V30 7317 H 696.599 -4.613 0.00407137 0
M  V30 7318 H 694.842 -4.33738 0.0732332 0
M  V30 7319 H 695.513 -5.39395 -1.17292 0
M  V30 7320 H 697.989 -3.65139 -1.99532 0
M  V30 7321 H 696.865 -4.58798 -3.01323 0
M  V30 7322 H 697.126 -2.88403 -3.35076 0
M  V30 7323 N 696.185 0.383891 -1.52853 0
M  V30 7324 C 697.433 1.12619 -1.67814 0
M  V30 7325 C 697.754 1.90354 -0.423141 0
M  V30 7326 O 697.024 1.87649 0.562554 0
M  V30 7327 H 695.604 0.418738 -0.618601 0
M  V30 7328 H 698.266 0.43495 -1.89985 0
M  V30 7329 H 697.362 1.82624 -2.5309 0
M  V30 7330 N 697.663 1.43903 0.642637 0
M  V30 7331 C 699.079 1.27536 0.959519 0
M  V30 7332 C 699.279 0.202751 2.00477 0
M  V30 7333 O 698.335 -0.415256 2.49062 0
M  V30 7334 C 699.648 2.6432 1.43372 0
M  V30 7335 C 701.196 2.71937 1.54981 0
M  V30 7336 C 701.671 4.09164 2.05789 0
M  V30 7337 N 703.162 4.11282 2.13076 0
M  V30 7338 C 703.897 5.14303 2.53534 0
M  V30 7339 N 703.393 6.27693 2.93212 0
M  V30 7340 N 705.186 5.01657 2.53567 0
M  V30 7341 H 697.337 2.12344 -0.0488376 0
M  V30 7342 H 699.6 0.947124 0.0407559 0
M  V30 7343 H 699.306 3.43826 0.740048 0
M  V30 7344 H 699.18 2.90432 2.40685 0
M  V30 7345 H 701.567 1.92757 2.23448 0
M  V30 7346 H 701.648 2.49578 0.560739 0
M  V30 7347 H 701.292 4.88815 1.37921 0
M  V30 7348 H 701.222 4.28893 3.05546 0
M  V30 7349 H 703.713 3.2944 1.85143 0
M  V30 7350 H 704.026 7.02125 3.22863 0
M  V30 7351 H 702.371 6.31149 2.90991 0
M  V30 7352 H 705.562 4.12134 2.21952 0
M  V30 7353 H 705.735 5.82072 2.84774 0
M  V30 7354 N 699.141 -0.881989 1.30609 0
M  V30 7355 C 700.389 -1.63082 1.19368 0
M  V30 7356 C 700.71 -1.93376 -0.251147 0
M  V30 7357 O 699.98 -1.5723 -1.16857 0
M  V30 7358 H 698.56 -0.604542 0.438791 0
M  V30 7359 H 701.222 -1.05658 1.63776 0
M  V30 7360 H 700.318 -2.57966 1.7567 0
M  V30 7361 N 700.619 -1.13374 -1.09472 0
M  V30 7362 C 701.844 -0.918711 -1.85942 0
M  V30 7363 C 702.269 0.527225 -1.8056 0
M  V30 7364 O 701.627 1.37408 -1.18274 0
M  V30 7365 C 701.675 -1.41056 -3.31867 0
M  V30 7366 O 700.779 -0.595496 -4.08078 0
M  V30 7367 H 700.12 -0.329297 -0.576593 0
M  V30 7368 H 702.65 -1.50829 -1.38245 0
M  V30 7369 H 702.66 -1.41398 -3.82715 0
M  V30 7370 H 701.335 -2.46335 -3.35099 0
M  V30 7371 H 699.912 -0.659911 -3.67014 0
M  V30 7372 N 702.098 1.27442 -0.927168 0
M  V30 7373 C 703.347 1.93679 -0.563146 0
M  V30 7374 C 703.66 1.73673 0.899837 0
M  V30 7375 O 704.866 2.34247 1.37262 0
M  V30 7376 C 703.322 3.46961 -0.95636 0
M  V30 7377 C 702.93 3.75724 -2.43999 0
M  V30 7378 C 704.674 4.19282 -0.663565 0
M  V30 7379 C 702.581 5.22378 -2.77263 0
M  V30 7380 H 701.511 0.725059 -0.206894 0
M  V30 7381 H 704.162 1.44743 -1.12791 0
M  V30 7382 H 702.544 3.94703 -0.320254 0
M  V30 7383 H 703.718 3.38741 -3.12396 0
M  V30 7384 H 702.033 3.16605 -2.70463 0
M  V30 7385 H 704.63 5.27265 -0.888596 0
M  V30 7386 H 704.973 4.14382 0.399198 0
M  V30 7387 H 705.506 3.7736 -1.25875 0
M  V30 7388 H 702.245 5.32367 -3.82446 0
M  V30 7389 H 701.765 5.6051 -2.13516 0
M  V30 7390 H 703.444 5.9025 -2.64979 0
M  V30 7391 N 703.576 0.692616 1.41565 0
M  V30 7392 C 704.823 0.222335 2.01276 0
M  V30 7393 C 705.151 -1.17706 1.5484 0
M  V30 7394 O 704.406 -1.80795 0.749118 0
M  V30 7395 C 704.705 0.225073 3.56691 0
M  V30 7396 C 704.371 1.57158 4.22625 0
M  V30 7397 C 703.033 1.94022 4.40351 0
M  V30 7398 C 705.385 2.45758 4.59622 0
M  V30 7399 C 702.713 3.19076 4.92349 0
M  V30 7400 C 705.065 3.70141 5.13009 0
M  V30 7401 C 703.729 4.07152 5.28946 0
M  V30 7402 H 702.999 0.0813581 0.73652 0
M  V30 7403 H 705.646 0.891123 1.69503 0
M  V30 7404 H 703.951 -0.527259 3.88236 0
M  V30 7405 H 705.648 -0.156283 4.00695 0
M  V30 7406 H 702.238 1.27486 4.09201 0
M  V30 7407 H 706.422 2.18558 4.45585 0
M  V30 7408 H 701.678 3.4775 5.02872 0
M  V30 7409 H 705.852 4.38983 5.40617 0
M  V30 7410 H 703.479 5.04125 5.69001 0
M  V30 7411 N 705.054 -1.51416 0.437162 0
M  V30 7412 C 706.279 -2.0699 -0.130424 0
M  V30 7413 C 706.704 -1.30249 -1.35709 0
M  V30 7414 O 706.062 -0.340388 -1.78076 0
M  V30 7415 C 706.11 -3.5801 -0.43142 0
M  V30 7416 O 705.214 -3.8345 -1.5179 0
M  V30 7417 H 704.555 -0.663997 -0.00194339 0
M  V30 7418 H 707.085 -1.95029 0.618445 0
M  V30 7419 H 707.095 -4.02261 -0.681926 0
M  V30 7420 H 705.77 -4.13291 0.465137 0
M  V30 7421 H 704.347 -3.51062 -1.25737 0
M  V30 7422 N 706.532 -0.168513 -1.56696 0
M  V30 7423 C 707.464 0.794249 -2.14998 0
M  V30 7424 C 708.477 1.1957 -1.10485 0
M  V30 7425 O 709.666 1.13604 -1.37682 0
M  V30 7426 C 706.766 2.08018 -2.67547 0
M  V30 7427 C 705.939 1.84274 -3.96689 0
M  V30 7428 C 704.998 2.97059 -4.3433 0
M  V30 7429 O 704.024 2.67815 -5.02259 0
M  V30 7430 N 705.226 4.24775 -3.9566 0
M  V30 7431 H 707.991 0.295832 -2.98236 0
M  V30 7432 H 705.552 0.0143611 -1.61894 0
M  V30 7433 H 707.544 2.82559 -2.89729 0
M  V30 7434 H 706.114 2.49059 -1.88914 0
M  V30 7435 H 705.334 0.936528 -3.82914 0
M  V30 7436 H 706.622 1.65773 -4.81037 0
M  V30 7437 H 706.02 4.51395 -3.40968 0
M  V30 7438 H 704.577 4.96027 -4.22848 0
M  V30 7439 N 708.01 1.57248 0.105221 0
M  V30 7440 C 709.238 1.89768 0.82437 0
M  V30 7441 C 709.653 0.761192 1.72775 0
M  V30 7442 O 709.01 -0.267342 1.80531 0
M  V30 7443 C 709.061 3.2184 1.64625 0
M  V30 7444 O 708.782 4.31115 0.779217 0
M  V30 7445 C 710.283 3.68155 2.46935 0
M  V30 7446 H 707.503 0.628031 0.236259 0
M  V30 7447 H 710.047 2.04321 0.085485 0
M  V30 7448 H 708.202 3.08915 2.33775 0
M  V30 7449 H 708.616 5.06897 1.34745 0
M  V30 7450 H 710.09 4.6329 3.00111 0
M  V30 7451 H 710.567 2.95492 3.24932 0
M  V30 7452 H 711.173 3.83914 1.83002 0
M  V30 7453 N 709.488 -0.375779 1.53054 0
M  V30 7454 C 710.735 -1.11948 1.68742 0
M  V30 7455 C 711.063 -1.89596 0.434015 0
M  V30 7456 O 710.318 -1.86787 -0.583867 0
M  V30 7457 C 710.617 -2.11356 2.88207 0
M  V30 7458 C 710.283 -1.50266 4.25124 0
M  V30 7459 C 708.945 -1.33333 4.62359 0
M  V30 7460 C 711.297 -1.05976 5.10312 0
M  V30 7461 C 708.625 -0.706765 5.82427 0
M  V30 7462 C 710.977 -0.447241 6.31017 0
M  V30 7463 C 709.641 -0.265314 6.66973 0
M  V30 7464 H 708.911 -0.409648 0.61747 0
M  V30 7465 H 711.558 -0.402492 1.87222 0
M  V30 7466 H 709.863 -2.89322 2.64197 0
M  V30 7467 H 711.56 -2.68833 2.97539 0
M  V30 7468 H 708.15 -1.64437 3.95801 0
M  V30 7469 H 712.334 -1.17855 4.82104 0
M  V30 7470 H 707.59 -0.554132 6.08884 0
M  V30 7471 H 711.764 -0.0958064 6.96334 0
M  V30 7472 H 709.391 0.222267 7.59875 0
M  V30 7473 N 710.966 -1.44241 -0.634997 0
M  V30 7474 C 712.382 -1.28043 -0.952742 0
M  V30 7475 C 712.582 -0.21338 -2.00367 0
M  V30 7476 O 711.638 0.402042 -2.49279 0
M  V30 7477 C 712.951 -2.65076 -1.41968 0
M  V30 7478 C 714.499 -2.72755 -1.53537 0
M  V30 7479 C 714.974 -4.10249 -2.03616 0
M  V30 7480 N 716.465 -4.12406 -2.10892 0
M  V30 7481 C 717.2 -5.15641 -2.50803 0
M  V30 7482 N 716.696 -6.29239 -2.89879 0
M  V30 7483 N 718.489 -5.02995 -2.50903 0
M  V30 7484 H 710.64 -2.12315 0.060098 0
M  V30 7485 H 712.903 -0.947326 -0.0357325 0
M  V30 7486 H 712.609 -3.44213 -0.721804 0
M  V30 7487 H 712.483 -2.91704 -2.39141 0
M  V30 7488 H 714.87 -1.93939 -2.22422 0
M  V30 7489 H 714.951 -2.49872 -0.547496 0
M  V30 7490 H 714.595 -4.8954 -1.35327 0
M  V30 7491 H 714.525 -4.30507 -3.03268 0
M  V30 7492 H 717.016 -3.30417 -1.83393 0
M  V30 7493 H 717.329 -7.03827 -3.19135 0
M  V30 7494 H 715.674 -6.32683 -2.8764 0
M  V30 7495 H 718.865 -4.13306 -2.19763 0
M  V30 7496 H 719.038 -5.83574 -2.81683 0
M  V30 7497 N 712.444 0.87505 -1.31075 0
M  V30 7498 C 713.693 1.62245 -1.19831 0
M  V30 7499 C 714.006 1.94078 0.24357 0
M  V30 7500 O 715.212 2.67265 0.477646 0
M  V30 7501 C 713.668 2.92464 -2.09744 0
M  V30 7502 C 713.276 2.68134 -3.58898 0
M  V30 7503 C 715.02 3.70449 -2.07287 0
M  V30 7504 C 712.927 3.9423 -4.40836 0
M  V30 7505 H 711.857 0.608741 -0.444916 0
M  V30 7506 H 714.508 0.967947 -1.55894 0
M  V30 7507 H 712.89 3.59262 -1.66574 0
M  V30 7508 H 714.064 2.09776 -4.10281 0
M  V30 7509 H 712.379 2.03511 -3.6328 0
M  V30 7510 H 714.976 4.63983 -2.65752 0
M  V30 7511 H 715.319 4.02611 -1.05876 0
M  V30 7512 H 715.852 3.10528 -2.48631 0
M  V30 7513 H 712.591 3.67221 -5.42982 0
M  V30 7514 H 712.111 4.52058 -3.94213 0
M  V30 7515 H 713.79 4.62162 -4.52786 0
M  V30 7516 N 713.922 1.13953 1.08869 0
M  V30 7517 C 714.885 0.824991 2.13838 0
M  V30 7518 C 715.885 -0.168198 1.59918 0
M  V30 7519 O 717.075 0.0595778 1.74098 0
M  V30 7520 C 714.207 0.228938 3.4013 0
M  V30 7521 H 715.4 1.75521 2.43171 0
M  V30 7522 H 712.953 0.94492 1.24503 0
M  V30 7523 H 713.688 -0.710227 3.16427 0
M  V30 7524 H 713.473 0.944243 3.80561 0
M  V30 7525 H 714.963 0.0259223 4.17592 0
M  V30 7526 N 715.4 -1.26948 0.933913 0
M  V30 7527 C 716.811 -1.76058 0.621324 0
M  V30 7528 C 717.162 -1.76175 -0.863522 0
M  V30 7529 O 716.287 -1.36921 -1.67576 0
M  V30 7530 C 716.882 -3.19713 1.12111 0
M  V30 7531 C 715.441 -3.66465 0.859074 0
M  V30 7532 C 714.588 -2.46186 1.27624 0
M  V30 7533 H 717.539 -1.13127 1.11301 0
M  V30 7534 H 717.56 -3.77566 0.471608 0
M  V30 7535 H 717.072 -3.19596 2.20182 0
M  V30 7536 H 715.173 -3.72021 -0.207566 0
M  V30 7537 H 715.286 -4.55636 1.48098 0
M  V30 7538 H 713.65 -2.45042 0.694727 0
M  V30 7539 H 714.433 -2.48774 2.36572 0
M  V30 7540 N 716.879 -0.700114 -1.41195 0
M  V30 7541 C 718.104 -0.240704 -2.05998 0
M  V30 7542 C 718.529 1.10313 -1.52357 0
M  V30 7543 O 717.887 1.69154 -0.652424 0
M  V30 7544 C 717.935 -0.213783 -3.59966 0
M  V30 7545 O 717.039 0.809933 -4.04368 0
M  V30 7546 H 716.38 -0.116471 -0.653705 0
M  V30 7547 H 718.91 -0.956251 -1.80878 0
M  V30 7548 H 718.92 -0.0461852 -4.07974 0
M  V30 7549 H 717.595 -1.19454 -3.98376 0
M  V30 7550 H 716.172 0.611319 -3.67855 0
M  V30 7551 N 718.357 1.51182 -0.445186 0
M  V30 7552 C 719.29 2.24528 0.4077 0
M  V30 7553 C 720.268 1.26778 1.01814 0
M  V30 7554 O 721.452 1.55934 1.05909 0
M  V30 7555 C 718.579 3.00171 1.56892 0
M  V30 7556 C 717.625 4.12641 1.0784 0
M  V30 7557 S 718.458 5.35498 0.014049 0
M  V30 7558 C 719.614 6.14681 1.17975 0
M  V30 7559 H 719.847 2.96522 -0.214987 0
M  V30 7560 H 717.38 1.52681 -0.229781 0
M  V30 7561 H 719.338 3.44349 2.23459 0
M  V30 7562 H 717.999 2.27752 2.16304 0
M  V30 7563 H 717.192 4.64875 1.94698 0
M  V30 7564 H 716.794 3.70765 0.490852 0
M  V30 7565 H 719.086 6.44244 2.09658 0
M  V30 7566 H 720.029 7.04659 0.697222 0
M  V30 7567 H 720.437 5.46299 1.42187 0
M  V30 7568 N 719.835 0.176821 1.56605 0
M  V30 7569 C 721.075 -0.469104 1.98944 0
M  V30 7570 C 721.439 -1.60048 1.06059 0
M  V30 7571 O 722.64 -2.30934 1.3756 0
M  V30 7572 C 720.911 -0.934571 3.44965 0
M  V30 7573 S 722.47 -1.58091 4.09332 0
M  V30 7574 H 719.288 -0.150695 0.694847 0
M  V30 7575 H 721.89 0.27558 1.93548 0
M  V30 7576 H 720.594 -0.100814 4.10276 0
M  V30 7577 H 720.125 -1.71316 3.54139 0
M  V30 7578 H 722.14 -2.86922 4.04834 0
M  V30 7579 N 721.313 -1.57302 -0.09688 0
M  V30 7580 C 722.562 -1.85183 -0.799388 0
M  V30 7581 C 722.875 -0.765818 -1.79985 0
M  V30 7582 O 724.081 -0.931696 -2.55013 0
M  V30 7583 C 722.537 -3.28399 -1.47249 0
M  V30 7584 C 722.145 -4.45066 -0.511888 0
M  V30 7585 C 723.889 -3.65506 -2.15883 0
M  V30 7586 C 721.796 -5.79315 -1.18948 0
M  V30 7587 H 720.726 -0.690752 -0.302287 0
M  V30 7588 H 723.377 -1.83425 -0.0523104 0
M  V30 7589 H 721.759 -3.24692 -2.26697 0
M  V30 7590 H 722.933 -4.60116 0.250962 0
M  V30 7591 H 721.248 -4.16343 0.0686576 0
M  V30 7592 H 723.845 -4.63087 -2.67309 0
M  V30 7593 H 724.188 -2.94041 -2.94696 0
M  V30 7594 H 724.721 -3.71094 -1.43298 0
M  V30 7595 H 721.46 -6.54007 -0.442198 0
M  V30 7596 H 720.98 -5.68111 -1.9238 0
M  V30 7597 H 722.659 -6.23816 -1.71646 0
M  V30 7598 N 722.791 0.367657 -1.53252 0
M  V30 7599 C 724.019 1.13119 -1.73239 0
M  V30 7600 C 724.434 1.831 -0.460404 0
M  V30 7601 O 723.791 1.73483 0.566557 0
M  V30 7602 C 723.842 2.16308 -2.89643 0
M  V30 7603 O 723.563 1.49175 -4.1192 0
M  V30 7604 C 725.064 3.05224 -3.21486 0
M  V30 7605 H 722.284 0.338318 -0.579467 0
M  V30 7606 H 724.828 0.42721 -1.99988 0
M  V30 7607 H 722.983 2.82307 -2.65295 0
M  V30 7608 H 723.397 2.17912 -4.7709 0
M  V30 7609 H 724.871 3.73613 -4.06346 0
M  V30 7610 H 725.348 3.69919 -2.36763 0
M  V30 7611 H 725.954 2.44843 -3.47753 0
M  V30 7612 N 724.269 1.44576 0.627338 0
M  V30 7613 C 725.216 1.51734 1.73912 0
M  V30 7614 C 726.186 0.364745 1.62046 0
M  V30 7615 O 727.371 0.575503 1.81914 0
M  V30 7616 C 724.511 1.47116 3.12171 0
M  V30 7617 C 723.624 2.72778 3.34986 0
M  V30 7618 C 722.759 2.59968 4.63239 0
M  V30 7619 C 721.798 3.80776 4.79245 0
M  V30 7620 N 720.935 3.66618 5.98778 0
M  V30 7621 H 725.775 2.46722 1.6713 0
M  V30 7622 H 723.312 1.22444 0.815224 0
M  V30 7623 H 725.27 1.42429 3.92135 0
M  V30 7624 H 723.9 0.556928 3.17959 0
M  V30 7625 H 722.952 2.87637 2.48936 0
M  V30 7626 H 724.264 3.62441 3.42692 0
M  V30 7627 H 723.418 2.53135 5.51369 0
M  V30 7628 H 722.157 1.67872 4.57898 0
M  V30 7629 H 721.162 3.87989 3.89544 0
M  V30 7630 H 722.387 4.73913 4.86398 0
M  V30 7631 H 720.333 2.77277 5.9452 0
M  V30 7632 H 720.25 4.499 6.07557 0
M  V30 7633 H 721.518 3.63684 6.89459 0
M  V30 7634 N 725.747 -0.868086 1.31537 0
M  V30 7635 C 727.158 -1.437 1.19195 0
M  V30 7636 C 727.509 -1.95169 -0.200842 0
M  V30 7637 O 726.634 -1.86432 -1.09872 0
M  V30 7638 C 727.229 -2.612 2.15778 0
M  V30 7639 C 725.788 -3.1413 2.07363 0
M  V30 7640 C 724.935 -1.86845 2.049 0
M  V30 7641 H 727.886 -0.676457 1.43561 0
M  V30 7642 H 727.907 -3.37948 1.74847 0
M  V30 7643 H 727.419 -2.23709 3.17137 0
M  V30 7644 H 725.52 -3.56238 1.09204 0
M  V30 7645 H 725.633 -3.76285 2.96557 0
M  V30 7646 H 723.997 -2.05886 1.49943 0
M  V30 7647 H 724.78 -1.51589 3.08019 0
M  V30 7648 N 727.225 -1.14528 -1.08264 0
M  V30 7649 C 728.135 -0.84728 -2.18765 0
M  V30 7650 C 729.151 0.172826 -1.7314 0
M  V30 7651 O 730.327 0.000985336 -2.014 0
M  V30 7652 C 727.392 -0.330633 -3.4512 0
M  V30 7653 C 726.453 -1.41348 -4.05363 0
M  V30 7654 C 725.686 -0.921387 -5.25686 0
M  V30 7655 O 725.909 0.236587 -5.69909 0
M  V30 7656 O 724.843 -1.70101 -5.77364 0
M  V30 7657 H 728.669 -1.7708 -2.46731 0
M  V30 7658 H 726.254 -0.923661 -1.17426 0
M  V30 7659 H 728.136 -0.0485053 -4.21372 0
M  V30 7660 H 726.811 0.565147 -3.18728 0
M  V30 7661 H 725.718 -1.74908 -3.30693 0
M  V30 7662 H 727.051 -2.28383 -4.36007 0
M  V30 7663 N 728.703 1.26451 -0.940633 0
M  V30 7664 C 729.949 1.94065 -0.58878 0
M  V30 7665 C 730.282 1.7363 0.869853 0
M  V30 7666 O 729.557 1.073 1.62225 0
M  V30 7667 C 729.84 3.47852 -0.931199 0
M  V30 7668 C 729.693 3.77575 -2.44453 0
M  V30 7669 C 731.012 4.37832 -0.446229 0
M  V30 7670 H 728.131 0.704827 -0.21538 0
M  V30 7671 H 730.773 1.4933 -1.17475 0
M  V30 7672 H 728.923 3.86085 -0.432539 0
M  V30 7673 H 730.595 3.49059 -3.01588 0
M  V30 7674 H 728.838 3.23671 -2.88825 0
M  V30 7675 H 729.509 4.85068 -2.63464 0
M  V30 7676 H 731.985 4.06822 -0.873778 0
M  V30 7677 H 730.861 5.44228 -0.714648 0
M  V30 7678 H 731.122 4.37239 0.653815 0
M  V30 7679 N 730.181 0.707592 1.40822 0
M  V30 7680 C 731.458 0.171172 1.9485 0
M  V30 7681 C 731.838 -1.32143 1.64625 0
M  V30 7682 O 731.186 -2.07372 0.959647 0
M  V30 7683 C 731.396 0.475334 3.45748 0
M  V30 7684 C 732.744 0.409625 4.22619 0
M  V30 7685 O 733.768 0.410934 3.53822 0
M  V30 7686 O 732.627 0.380185 5.45176 0
M  V30 7687 H 729.721 0.022015 0.826707 0
M  V30 7688 H 732.267 0.784577 1.50474 0
M  V30 7689 H 731.039 1.50801 3.61075 0
M  V30 7690 H 730.662 -0.168439 3.97243 0
M  V30 7691 N 731.66 -1.50943 0.453197 0
M  V30 7692 C 732.907 -2.02212 -0.107922 0
M  V30 7693 C 733.235 -1.33639 -1.41318 0
M  V30 7694 O 732.49 -0.445154 -1.9057 0
M  V30 7695 C 732.789 -3.55603 -0.357944 0
M  V30 7696 C 732.455 -4.42556 0.863427 0
M  V30 7697 C 731.117 -4.6604 1.19834 0
M  V30 7698 C 733.469 -4.93468 1.67747 0
M  V30 7699 C 730.797 -5.37681 2.34768 0
M  V30 7700 C 733.149 -5.6637 2.81793 0
M  V30 7701 C 731.813 -5.88113 3.1572 0
M  V30 7702 H 731.083 -0.739947 -0.0394916 0
M  V30 7703 H 733.73 -1.81738 0.60363 0
M  V30 7704 H 732.035 -3.74495 -1.15156 0
M  V30 7705 H 733.732 -3.92821 -0.805781 0
M  V30 7706 H 730.322 -4.24485 0.592478 0
M  V30 7707 H 734.506 -4.75194 1.43192 0
M  V30 7708 H 729.762 -5.52727 2.61348 0
M  V30 7709 H 733.936 -6.04806 3.45229 0
M  V30 7710 H 731.563 -6.43404 4.04889 0
M  V30 7711 N 733.138 -0.185124 -1.56509 0
M  V30 7712 C 734.101 0.72591 -2.17401 0
M  V30 7713 C 735.101 1.14819 -1.12575 0
M  V30 7714 O 736.291 1.0629 -1.38015 0
M  V30 7715 C 733.423 1.98979 -2.76803 0
M  V30 7716 H 734.616 0.195588 -2.99262 0
M  V30 7717 H 732.169 0.0644772 -1.56167 0
M  V30 7718 H 732.904 2.56287 -1.98714 0
M  V30 7719 H 732.689 1.69583 -3.53531 0
M  V30 7720 H 734.179 2.63966 -3.23592 0
M  V30 7721 N 734.616 1.57351 0.0885366 0
M  V30 7722 C 735.862 1.86696 0.791996 0
M  V30 7723 C 736.195 0.775148 1.78059 0
M  V30 7724 O 735.47 -0.216247 1.93294 0
M  V30 7725 C 735.753 3.26684 1.51491 0
M  V30 7726 C 735.606 4.465 0.543858 0
M  V30 7727 C 736.925 3.64664 2.46391 0
M  V30 7728 H 734.044 0.679049 0.286463 0
M  V30 7729 H 736.686 1.89919 0.0554866 0
M  V30 7730 H 734.836 3.24067 2.14273 0
M  V30 7731 H 736.508 4.61235 -0.0774597 0
M  V30 7732 H 734.751 4.33567 -0.142228 0
M  V30 7733 H 735.422 5.41192 1.08696 0
M  V30 7734 H 737.898 3.68267 1.93698 0
M  V30 7735 H 736.774 4.63534 2.93986 0
M  V30 7736 H 737.035 2.93698 3.30445 0
M  V30 7737 N 736.094 -0.359525 1.53444 0
M  V30 7738 C 737.004 -1.46445 1.83278 0
M  V30 7739 C 738.02 -1.5833 0.721629 0
M  V30 7740 O 739.196 -1.7411 1.01231 0
M  V30 7741 C 736.261 -2.81638 2.02191 0
M  V30 7742 C 735.322 -2.7923 3.26082 0
M  V30 7743 C 734.555 -4.07974 3.44082 0
M  V30 7744 O 734.778 -5.04447 2.66251 0
M  V30 7745 O 733.712 -4.13417 4.37458 0
M  V30 7746 H 737.538 -1.24156 2.77162 0
M  V30 7747 H 735.123 -0.550201 1.389 0
M  V30 7748 H 737.005 -3.61732 2.16167 0
M  V30 7749 H 735.68 -3.03892 1.11496 0
M  V30 7750 H 734.587 -1.97813 3.17523 0
M  V30 7751 H 735.92 -2.6193 4.16718 0
M  V30 7752 N 737.572 -1.44907 -0.619662 0
M  V30 7753 C 738.818 -1.48512 -1.38102 0
M  V30 7754 C 739.151 -0.121686 -1.93818 0
M  V30 7755 O 738.426 0.862256 -1.74343 0
M  V30 7756 C 738.709 -2.55469 -2.53787 0
M  V30 7757 C 738.562 -4.01212 -2.03345 0
M  V30 7758 C 739.881 -2.58821 -3.55949 0
M  V30 7759 H 737 -0.540712 -0.500799 0
M  V30 7760 H 739.642 -1.7665 -0.69962 0
M  V30 7761 H 737.792 -2.31606 -3.11915 0
M  V30 7762 H 739.464 -4.36245 -1.49959 0
M  V30 7763 H 737.707 -4.12443 -1.34438 0
M  V30 7764 H 738.378 -4.71717 -2.86683 0
M  V30 7765 H 740.854 -2.80172 -3.07641 0
M  V30 7766 H 739.73 -3.35542 -4.34399 0
M  V30 7767 H 739.991 -1.63451 -4.10775 0
M  V30 7768 N 739.05 0.861098 -1.31996 0
M  V30 7769 C 740.297 1.61481 -1.22188 0
M  V30 7770 C 740.625 1.93276 0.217853 0
M  V30 7771 O 739.88 1.56942 1.16909 0
M  V30 7772 C 740.179 2.94822 -2.02027 0
M  V30 7773 C 739.845 2.82483 -3.51446 0
M  V30 7774 C 738.507 2.78825 -3.92186 0
M  V30 7775 C 740.859 2.68878 -4.46491 0
M  V30 7776 C 738.187 2.59433 -5.26224 0
M  V30 7777 C 740.539 2.51022 -5.80664 0
M  V30 7778 C 739.203 2.45753 -6.20614 0
M  V30 7779 H 738.473 0.590902 -0.447119 0
M  V30 7780 H 741.12 0.999376 -1.63355 0
M  V30 7781 H 739.425 3.6045 -1.53569 0
M  V30 7782 H 741.122 3.52149 -1.91812 0
M  V30 7783 H 737.712 2.86152 -3.19085 0
M  V30 7784 H 741.896 2.70754 -4.1594 0
M  V30 7785 H 737.152 2.53784 -5.5624 0
M  V30 7786 H 741.326 2.39473 -6.53931 0
M  V30 7787 H 738.953 2.30485 -7.24417 0
M  V30 7788 N 740.528 1.15101 1.07655 0
M  V30 7789 C 741.944 0.893004 1.32279 0
M  V30 7790 C 742.144 -0.461701 1.96139 0
M  V30 7791 O 741.2 -1.20431 2.21929 0
M  V30 7792 C 742.513 2.03161 2.21689 0
M  V30 7793 C 744.061 2.06579 2.35147 0
M  V30 7794 C 744.536 3.19754 3.27905 0
M  V30 7795 N 746.027 3.19382 3.35484 0
M  V30 7796 C 746.762 4.03592 4.07309 0
M  V30 7797 N 746.258 4.97859 4.81776 0
M  V30 7798 N 748.051 3.91626 4.03219 0
M  V30 7799 H 740.202 2.02341 0.645886 0
M  V30 7800 H 742.465 0.882127 0.347211 0
M  V30 7801 H 742.171 3.00934 1.82021 0
M  V30 7802 H 742.045 1.96132 3.22199 0
M  V30 7803 H 744.432 1.09408 2.74069 0
M  V30 7804 H 744.513 2.17676 1.34353 0
M  V30 7805 H 744.157 4.17175 2.89702 0
M  V30 7806 H 744.087 3.05893 4.28645 0
M  V30 7807 H 746.578 2.51112 2.82403 0
M  V30 7808 H 746.891 5.58563 5.34067 0
M  V30 7809 H 745.236 5.0185 4.80803 0
M  V30 7810 H 748.427 3.17295 3.44154 0
M  V30 7811 H 748.6 4.57479 4.5893 0
M  V30 7812 N 742.006 -1.2595 0.947325 0
M  V30 7813 C 743.231 -1.98083 0.614633 0
M  V30 7814 C 743.656 -1.70013 -0.804815 0
M  V30 7815 O 743.014 -0.95175 -1.54309 0
M  V30 7816 C 743.062 -3.4993 0.870706 0
M  V30 7817 O 742.166 -4.12364 -0.0541451 0
M  V30 7818 H 741.507 -0.621232 0.234451 0
M  V30 7819 H 744.037 -1.60259 1.27193 0
M  V30 7820 H 744.047 -4.00198 0.794051 0
M  V30 7821 H 742.722 -3.69691 1.90529 0
M  V30 7822 H 741.299 -3.72826 0.0740917 0
M  V30 7823 N 743.484 -0.715051 -1.40445 0
M  V30 7824 C 744.447 -0.0708726 -2.2909 0
M  V30 7825 C 745.447 0.687926 -1.45342 0
M  V30 7826 O 746.637 0.519908 -1.66261 0
M  V30 7827 C 743.769 0.909528 -3.28543 0
M  V30 7828 H 744.962 -0.851611 -2.87555 0
M  V30 7829 H 742.515 -0.479674 -1.48758 0
M  V30 7830 H 743.25 1.71734 -2.75096 0
M  V30 7831 H 743.035 0.368318 -3.90366 0
M  V30 7832 H 744.525 1.35744 -3.94922 0
M  V30 7833 N 744.962 1.50701 -0.461195 0
M  V30 7834 C 745.892 2.31182 0.328184 0
M  V30 7835 C 746.873 1.37644 0.999408 0
M  V30 7836 O 748.058 1.66565 0.99848 0
M  V30 7837 C 745.188 3.17113 1.41621 0
M  V30 7838 C 744.142 4.19124 0.867148 0
M  V30 7839 C 743.468 4.93728 2.05272 0
M  V30 7840 C 744.768 5.22174 -0.114808 0
M  V30 7841 H 746.462 2.97423 -0.343501 0
M  V30 7842 H 744.008 1.43033 -0.166641 0
M  V30 7843 H 745.961 3.72208 1.97584 0
M  V30 7844 H 744.685 2.48739 2.11652 0
M  V30 7845 H 743.344 3.65116 0.329557 0
M  V30 7846 H 742.992 4.21835 2.73978 0
M  V30 7847 H 742.692 5.62724 1.69161 0
M  V30 7848 H 744.216 5.51654 2.61744 0
M  V30 7849 H 745.63 5.72198 0.355316 0
M  V30 7850 H 744.027 5.98833 -0.389689 0
M  V30 7851 H 745.097 4.7353 -1.04391 0
M  V30 7852 N 746.441 0.193421 1.56409 0
M  V30 7853 C 747.669 -0.451438 2.01915 0
M  V30 7854 C 748.084 -1.55306 1.07357 0
M  V30 7855 O 747.441 -1.82333 0.0781512 0
M  V30 7856 C 747.492 -1.00931 3.47124 0
M  V30 7857 O 747.213 0.0483623 4.38073 0
M  V30 7858 C 748.714 -1.73021 4.0814 0
M  V30 7859 H 745.934 -0.113495 0.661332 0
M  V30 7860 H 748.478 0.301636 2.02263 0
M  V30 7861 H 746.633 -1.71277 3.47481 0
M  V30 7862 H 747.047 -0.366644 5.23217 0
M  V30 7863 H 748.521 -2.07289 5.11601 0
M  V30 7864 H 748.998 -2.6333 3.51502 0
M  V30 7865 H 749.604 -1.07264 4.11551 0
M  V30 7866 N 747.919 -1.57396 -0.0801906 0
M  V30 7867 C 748.851 -1.9982 -1.12271 0
M  V30 7868 C 749.864 -0.902902 -1.35468 0
M  V30 7869 O 751.053 -1.18088 -1.33856 0
M  V30 7870 C 748.153 -2.31476 -2.47532 0
M  V30 7871 C 747.326 -3.62745 -2.44407 0
M  V30 7872 C 746.385 -3.82168 -3.6171 0
M  V30 7873 O 745.411 -4.53852 -3.43522 0
M  V30 7874 N 746.613 -3.2388 -4.81749 0
M  V30 7875 H 749.378 -2.89864 -0.761501 0
M  V30 7876 H 746.939 -1.5965 -0.268965 0
M  V30 7877 H 748.931 -2.4165 -3.24634 0
M  V30 7878 H 747.501 -1.47364 -2.75686 0
M  V30 7879 H 746.721 -3.63403 -1.52747 0
M  V30 7880 H 748.009 -4.48954 -2.39412 0
M  V30 7881 H 747.407 -2.6568 -4.9943 0
M  V30 7882 H 745.964 -3.39515 -5.56392 0
M  V30 7883 N 749.397 0.351382 -1.53633 0
M  V30 7884 C 750.347 1.4316 -1.77452 0
M  V30 7885 C 751.331 1.48076 -0.62946 0
M  V30 7886 O 752.523 1.53078 -0.888599 0
M  V30 7887 C 749.652 2.80409 -1.98055 0
M  V30 7888 C 748.738 2.79915 -3.18604 0
M  V30 7889 N 749.129 2.49057 -4.40232 0
M  V30 7890 C 747.427 3.11067 -3.19614 0
M  V30 7891 C 748.128 2.566 -5.22045 0
M  V30 7892 N 747.104 2.919 -4.5858 0
M  V30 7893 H 750.906 1.18188 -2.69089 0
M  V30 7894 H 748.42 0.559684 -1.52451 0
M  V30 7895 H 750.417 3.58231 -2.13251 0
M  V30 7896 H 749.077 3.06334 -1.07655 0
M  V30 7897 H 750.088 2.22395 -4.67719 0
M  V30 7898 H 746.765 3.42215 -2.39154 0
M  V30 7899 H 748.155 2.35968 -6.29101 0
M  V30 7900 N 750.875 1.45233 0.611969 0
M  V30 7901 C 751.808 1.48056 1.73651 0
M  V30 7902 C 752.786 0.337373 1.59061 0
M  V30 7903 O 753.97 0.537222 1.80683 0
M  V30 7904 C 751.097 1.33144 3.11433 0
M  V30 7905 C 750.143 2.51272 3.44623 0
M  V30 7906 S 750.976 4.13754 3.39953 0
M  V30 7907 C 752.132 4.013 4.80322 0
M  V30 7908 H 752.365 2.43205 1.70993 0
M  V30 7909 H 749.898 1.32763 0.788246 0
M  V30 7910 H 751.856 1.25228 3.90932 0
M  V30 7911 H 750.517 0.394734 3.1161 0
M  V30 7912 H 749.71 2.36753 4.44932 0
M  V30 7913 H 749.312 2.56027 2.72629 0
M  V30 7914 H 751.604 3.66174 5.7002 0
M  V30 7915 H 752.547 5.01506 4.99897 0
M  V30 7916 H 752.955 3.3303 4.55797 0
M  V30 7917 N 752.353 -0.854086 1.3245 0
M  V30 7918 C 753.263 -1.99503 1.23434 0
M  V30 7919 C 754.279 -1.73371 0.147828 0
M  V30 7920 O 755.455 -1.97998 0.368609 0
M  V30 7921 C 752.52 -3.33192 0.958328 0
M  V30 7922 C 751.581 -3.72542 2.13333 0
M  V30 7923 C 750.814 -4.99852 1.8704 0
M  V30 7924 O 751.037 -5.64573 0.813239 0
M  V30 7925 O 749.971 -5.36345 2.73161 0
M  V30 7926 H 753.797 -2.10046 2.1935 0
M  V30 7927 H 751.382 -0.984823 1.12346 0
M  V30 7928 H 753.264 -4.13327 0.820918 0
M  V30 7929 H 751.939 -3.23687 0.0293299 0
M  V30 7930 H 750.846 -2.92981 2.32622 0
M  V30 7931 H 752.179 -3.86694 3.04514 0
M  V30 7932 N 753.831 -1.1567 -1.07043 0
M  V30 7933 C 755.247 -0.900006 -1.31803 0
M  V30 7934 C 755.447 0.451293 -1.96381 0
M  V30 7935 O 754.503 1.19252 -2.22565 0
M  V30 7936 C 755.816 -2.04334 -2.20609 0
M  V30 7937 C 757.364 -2.07823 -2.34048 0
M  V30 7938 C 757.839 -3.21488 -3.26204 0
M  V30 7939 N 759.33 -3.21156 -3.33786 0
M  V30 7940 C 760.065 -4.05746 -4.05163 0
M  V30 7941 N 759.561 -5.00407 -4.79129 0
M  V30 7942 N 761.354 -3.93759 -4.01136 0
M  V30 7943 H 753.505 -2.02681 -0.635146 0
M  V30 7944 H 755.768 -0.883956 -0.342528 0
M  V30 7945 H 755.474 -3.01895 -1.80423 0
M  V30 7946 H 755.348 -1.97838 -3.21154 0
M  V30 7947 H 757.735 -1.1086 -2.73485 0
M  V30 7948 H 757.816 -2.18386 -1.33197 0
M  V30 7949 H 757.46 -4.18706 -2.87485 0
M  V30 7950 H 757.39 -3.08162 -4.27017 0
M  V30 7951 H 759.881 -2.52606 -2.81067 0
M  V30 7952 H 760.194 -5.61387 -5.31097 0
M  V30 7953 H 758.539 -5.04393 -4.78135 0
M  V30 7954 H 761.73 -3.19115 -3.42466 0
M  V30 7955 H 761.903 -4.59906 -4.56498 0
M  V30 7956 N 755.309 1.25446 -0.953992 0
M  V30 7957 C 756.725 1.4539 -0.658316 0
M  V30 7958 C 756.925 1.85607 0.784356 0
M  V30 7959 O 755.981 1.98568 1.55972 0
M  V30 7960 C 757.294 2.52643 -1.6307 0
M  V30 7961 C 758.842 2.66484 -1.64181 0
M  V30 7962 C 759.317 3.76921 -2.60182 0
M  V30 7963 N 760.808 3.84331 -2.58542 0
M  V30 7964 C 761.543 4.69271 -3.29503 0
M  V30 7965 N 761.039 5.58503 -4.09934 0
M  V30 7966 N 762.832 4.6323 -3.18393 0
M  V30 7967 H 754.983 0.976337 -1.8863 0
M  V30 7968 H 757.246 0.490343 -0.811337 0
M  V30 7969 H 756.952 2.29949 -2.66114 0
M  V30 7970 H 756.826 3.50547 -1.39271 0
M  V30 7971 H 759.213 2.88545 -0.618552 0
M  V30 7972 H 759.294 1.68982 -1.92038 0
M  V30 7973 H 758.938 3.55612 -3.62633 0
M  V30 7974 H 758.868 4.73906 -2.29609 0
M  V30 7975 H 761.359 3.20544 -2.0015 0
M  V30 7976 H 761.672 6.20241 -4.61 0
M  V30 7977 H 760.017 5.58214 -4.14032 0
M  V30 7978 H 763.208 3.92527 -2.5503 0
M  V30 7979 H 763.381 5.29204 -3.73961 0
M  V30 7980 N 756.787 0.722489 1.40064 0
M  V30 7981 C 757.75 0.0830209 2.2905 0
M  V30 7982 C 758.75 -0.680208 1.45705 0
M  V30 7983 O 759.94 -0.511084 1.66534 0
M  V30 7984 C 757.072 -0.892092 3.29021 0
M  V30 7985 H 758.265 0.866848 2.87099 0
M  V30 7986 H 755.818 0.487556 1.48501 0
M  V30 7987 H 756.553 -1.70273 2.76003 0
M  V30 7988 H 756.338 -0.34761 3.90556 0
M  V30 7989 H 757.828 -1.33648 3.95636 0
M  V30 7990 N 758.265 -1.50454 0.469181 0
M  V30 7991 C 759.212 -2.28486 -0.325982 0
M  V30 7992 C 760.182 -1.33455 -0.988893 0
M  V30 7993 O 761.367 -1.6239 -1.0017 0
M  V30 7994 C 758.507 -3.15288 -1.40313 0
M  V30 7995 C 757.62 -4.25348 -0.755183 0
M  V30 7996 C 756.755 -4.9941 -1.81006 0
M  V30 7997 C 755.794 -6.01348 -1.14226 0
M  V30 7998 N 754.931 -6.68695 -2.1399 0
M  V30 7999 H 759.771 -2.95987 0.345753 0
M  V30 8000 H 757.308 -1.45965 0.182355 0
M  V30 8001 H 759.266 -3.63964 -2.03927 0
M  V30 8002 H 757.896 -2.49837 -2.04405 0
M  V30 8003 H 756.948 -3.80399 -0.00651901 0
M  V30 8004 H 758.26 -4.98279 -0.227941 0
M  V30 8005 H 757.414 -5.51794 -2.52206 0
M  V30 8006 H 756.153 -4.26181 -2.3711 0
M  V30 8007 H 755.158 -5.48225 -0.415876 0
M  V30 8008 H 756.383 -6.76548 -0.588135 0
M  V30 8009 H 754.329 -5.98258 -2.69115 0
M  V30 8010 H 754.246 -7.37495 -1.66246 0
M  V30 8011 H 755.514 -7.25697 -2.84576 0
M  V30 8012 O 759.782 -0.343108 -1.57813 0
M  V30 8013 H 760.473 0.212482 -1.92531 0
M  V30 END ATOM
M  V30 BEGIN BOND
M  V30 END BOND
M  V30 END CTAB
M  END
$$$$
