drugbank_target|Q9BZV3 Interphotoreceptor matrix proteoglycan 2 (DB08818)
 OpenBabel12092121013D

  0  0  0     0  0            999 V3000
M  V30 BEGIN CTAB
M  V30 COUNTS 19155 19376 0 0 0
M  V30 BEGIN ATOM
M  V30 1 H -0.908 1.98254 -0.117106 0
M  V30 2 N 0 1.576 0 0
M  V30 3 C 0.933 2.03868 1.02534 0
M  V30 4 C 1.911 0.928543 1.3348 0
M  V30 5 O 3.095 1.19667 1.45644 0
M  V30 6 C 0.222 2.43627 2.35294 0
M  V30 7 C -0.732 3.65373 2.2001 0
M  V30 8 S 0.101 5.13292 1.52614 0
M  V30 9 C 1.257 5.56322 2.86805 0
M  V30 10 H 1.49 2.90518 0.631377 0
M  V30 11 H -0.977 1.52953 0.210867 0
M  V30 12 H 0.981 2.67203 3.11629 0
M  V30 13 H -0.358 1.57376 2.7183 0
M  V30 14 H -1.165 3.90944 3.18086 0
M  V30 15 H -1.563 3.418 1.51819 0
M  V30 16 H 0.729 5.58782 3.83104 0
M  V30 17 H 1.672 6.56266 2.65933 0
M  V30 18 H 2.08 4.83886 2.90714 0
M  V30 19 N 1.4781 -0.272755 1.55222 0
M  V30 20 C 2.7271 -1.00211 1.75045 0
M  V30 21 C 3.0401 -1.87441 0.559046 0
M  V30 22 O 4.2461 -2.63856 0.639698 0
M  V30 23 C 2.7021 -1.83165 3.09804 0
M  V30 24 C 2.3101 -1.008 4.36513 0
M  V30 25 C 4.0541 -2.55529 3.38977 0
M  V30 26 C 1.9611 -1.83194 5.62311 0
M  V30 27 H 0.8911 -0.377878 0.652476 0
M  V30 28 H 3.5421 -0.257776 1.8168 0
M  V30 29 H 1.9241 -2.61694 2.97207 0
M  V30 30 H 3.0981 -0.266855 4.60027 0
M  V30 31 H 1.4131 -0.398897 4.14485 0
M  V30 32 H 4.0101 -3.17578 4.30172 0
M  V30 33 H 4.3531 -3.25825 2.59121 0
M  V30 34 H 4.8861 -1.84029 3.52673 0
M  V30 35 H 1.6251 -1.17318 6.44916 0
M  V30 36 H 1.1451 -2.54905 5.4294 0
M  V30 37 H 2.8241 -2.40552 6.00619 0
M  V30 38 N 2.9562 -1.48159 -0.537278 0
M  V30 39 C 3.8892 -1.567 -1.65893 0
M  V30 40 C 4.8672 -0.41787 -1.57139 0
M  V30 41 O 6.0512 -0.628461 -1.77715 0
M  V30 42 C 3.1782 -1.48818 -3.04255 0
M  V30 43 C 2.2242 -2.68482 -3.31391 0
M  V30 44 S 3.0572 -4.30516 -3.1846 0
M  V30 45 C 4.2132 -4.2522 -4.59281 0
M  V30 46 H 4.4462 -2.5159 -1.58397 0
M  V30 47 H 1.9792 -1.36602 -0.719672 0
M  V30 48 H 3.9372 -1.44958 -3.84054 0
M  V30 49 H 2.5982 -0.552777 -3.09198 0
M  V30 50 H 1.7912 -2.59085 -4.32309 0
M  V30 51 H 1.3932 -2.69567 -2.59248 0
M  V30 52 H 3.6852 -3.94703 -5.5065 0
M  V30 53 H 4.6282 -5.26292 -4.73732 0
M  V30 54 H 5.0362 -3.55791 -4.38261 0
M  V30 55 N 4.4343 0.785586 -1.36625 0
M  V30 56 C 5.6813 1.54362 -1.31067 0
M  V30 57 C 6.0093 1.94195 0.10893 0
M  V30 58 O 5.2643 1.63262 1.07908 0
M  V30 59 C 5.5633 2.83007 -2.1827 0
M  V30 60 C 5.2293 2.62294 -3.6676 0
M  V30 61 C 3.8913 2.56353 -4.0723 0
M  V30 62 C 6.2433 2.43371 -4.6089 0
M  V30 63 C 3.5713 2.29461 -5.39967 0
M  V30 64 C 5.9233 2.18005 -5.93849 0
M  V30 65 C 4.5873 2.105 -6.3344 0
M  V30 66 H 3.8573 0.564851 -0.479609 0
M  V30 67 H 6.5043 0.906028 -1.68711 0
M  V30 68 H 4.8093 3.51253 -1.73576 0
M  V30 69 H 6.5063 3.40817 -2.11292 0
M  V30 70 H 3.0963 2.67774 -3.34656 0
M  V30 71 H 7.2803 2.46959 -4.30494 0
M  V30 72 H 2.5363 2.22135 -5.69619 0
M  V30 73 H 6.7103 2.02359 -6.66351 0
M  V30 74 H 4.3373 1.89425 -7.36222 0
M  V30 75 N 5.9124 1.20967 1.01018 0
M  V30 76 C 7.3234 1.02319 1.56165 0
M  V30 77 C 7.6744 -0.418546 1.91684 0
M  V30 78 O 6.7994 -1.30096 1.72928 0
M  V30 79 C 7.3944 1.85109 2.8376 0
M  V30 80 C 5.9534 1.70809 3.35412 0
M  V30 81 C 5.1004 1.82643 2.08655 0
M  V30 82 H 8.0514 1.35065 0.833255 0
M  V30 83 H 8.0724 1.35827 3.55431 0
M  V30 84 H 7.5844 2.90035 2.57878 0
M  V30 85 H 5.6854 0.685464 3.66241 0
M  V30 86 H 5.7984 2.52467 4.07182 0
M  V30 87 H 4.1624 1.25896 2.21409 0
M  V30 88 H 4.9454 2.89066 1.85191 0
M  V30 89 N 7.3905 -1.2043 1.01659 0
M  V30 90 C 8.3205 -2.25466 0.607226 0
M  V30 91 C 9.3015 -1.65853 -0.377716 0
M  V30 92 O 10.4865 -1.92409 -0.263149 0
M  V30 93 C 7.6165 -3.47256 -0.0552949 0
M  V30 94 C 6.5705 -4.19462 0.850632 0
M  V30 95 C 5.8965 -5.34673 0.0538859 0
M  V30 96 C 7.1965 -4.75603 2.15868 0
M  V30 97 H 8.8905 -2.59962 1.48526 0
M  V30 98 H 6.4365 -1.2496 0.715605 0
M  V30 99 H 8.3895 -4.19917 -0.353233 0
M  V30 100 H 7.1135 -3.11924 -0.968045 0
M  V30 101 H 5.7725 -3.48667 1.13257 0
M  V30 102 H 5.4205 -4.95585 -0.860514 0
M  V30 103 H 5.1205 -5.83913 0.657192 0
M  V30 104 H 6.6445 -6.10138 -0.237598 0
M  V30 105 H 8.0585 -5.40083 1.92311 0
M  V30 106 H 6.4555 -5.3528 2.71284 0
M  V30 107 H 7.5255 -3.94346 2.82169 0
M  V30 108 N 8.8686 -0.792821 -1.36206 0
M  V30 109 C 10.1156 -0.366786 -1.99151 0
M  V30 110 C 10.4436 1.06243 -1.62919 0
M  V30 111 O 9.6986 1.74927 -0.877442 0
M  V30 112 C 9.9976 -0.481501 -3.54142 0
M  V30 113 C 9.6636 -1.87202 -4.10203 0
M  V30 114 C 8.3256 -2.25248 -4.25226 0
M  V30 115 C 10.6776 -2.78237 -4.40719 0
M  V30 116 C 8.0056 -3.53723 -4.68078 0
M  V30 117 C 10.3576 -4.06144 -4.85005 0
M  V30 118 C 9.0216 -4.44207 -4.98234 0
M  V30 119 H 8.2916 -0.134217 -0.728743 0
M  V30 120 H 10.9386 -1.01094 -1.62641 0
M  V30 121 H 9.2436 0.246146 -3.91026 0
M  V30 122 H 10.9406 -0.132844 -4.0078 0
M  V30 123 H 7.5306 -1.56639 -3.98951 0
M  V30 124 H 11.7146 -2.50097 -4.28679 0
M  V30 125 H 6.9706 -3.8308 -4.76508 0
M  V30 126 H 11.1446 -4.76796 -5.07581 0
M  V30 127 H 8.7716 -5.43814 -5.31197 0
M  V30 128 N 10.3467 1.47872 -0.545128 0
M  V30 129 C 11.5947 2.02093 -0.016553 0
M  V30 130 C 11.9157 1.42305 1.3332 0
M  V30 131 O 11.1857 0.593853 1.86682 0
M  V30 132 H 9.7657 0.746993 -0.00313038 0
M  V30 133 H 12.4277 1.81414 -0.712397 0
M  V30 134 H 11.5237 3.11996 0.0805422 0
M  V30 135 N 11.8248 0.280983 1.55075 0
M  V30 136 C 12.7718 -0.603937 2.22758 0
M  V30 137 C 13.7418 -1.1452 1.20309 0
M  V30 138 O 14.9268 -1.19343 1.48869 0
M  V30 139 C 12.0668 -1.77947 2.95684 0
M  V30 140 C 11.1798 -1.2715 4.12864 0
M  V30 141 C 10.3148 -2.4093 4.7342 0
M  V30 142 C 9.3538 -1.87165 5.82783 0
M  V30 143 N 8.4908 -2.94441 6.37377 0
M  V30 144 H 13.3308 -0.020124 2.97993 0
M  V30 145 H 10.8678 0.00183425 1.471 0
M  V30 146 H 12.8258 -2.47055 3.36184 0
M  V30 147 H 11.4558 -2.33522 2.22861 0
M  V30 148 H 10.5078 -0.473331 3.77444 0
M  V30 149 H 11.8198 -0.837751 4.91715 0
M  V30 150 H 10.9738 -3.18021 5.1667 0
M  V30 151 H 9.7128 -2.87623 3.93859 0
M  V30 152 H 8.7178 -1.08556 5.38976 0
M  V30 153 H 9.9428 -1.41401 6.64216 0
M  V30 154 H 7.8888 -3.40505 5.60707 0
M  V30 155 H 7.8058 -2.55501 7.11516 0
M  V30 156 H 9.0738 -3.71489 6.85285 0
M  V30 157 N 13.3029 -1.57598 0.00835791 0
M  V30 158 C 14.5519 -1.90107 -0.673968 0
M  V30 159 C 14.8649 -0.884275 -1.7447 0
M  V30 160 O 16.0709 -1.09987 -2.48224 0
M  V30 161 C 14.5269 -3.37497 -1.24995 0
M  V30 162 C 14.1349 -4.47491 -0.2136 0
M  V30 163 C 15.8789 -3.79104 -1.90999 0
M  V30 164 C 13.7859 -5.85963 -0.80005 0
M  V30 165 H 12.7159 -0.709393 -0.255495 0
M  V30 166 H 15.3669 -1.83365 0.0702693 0
M  V30 167 H 13.7489 -3.39102 -2.04513 0
M  V30 168 H 14.9229 -4.57414 0.557596 0
M  V30 169 H 13.2379 -4.14956 0.346474 0
M  V30 170 H 15.8349 -4.79901 -2.35795 0
M  V30 171 H 16.1779 -3.1306 -2.74407 0
M  V30 172 H 16.7109 -3.79833 -1.18203 0
M  V30 173 H 13.4499 -6.555 -0.00456708 0
M  V30 174 H 12.9699 -5.79687 -1.54021 0
M  V30 175 H 14.6489 -6.33884 -1.29615 0
M  V30 176 N 14.781 0.264519 -1.55364 0
M  V30 177 C 16.006 1.01726 -1.80739 0
M  V30 178 C 16.431 1.78836 -0.583044 0
M  V30 179 O 15.789 1.75167 0.467566 0
M  V30 180 C 15.837 1.94482 -3.03659 0
M  V30 181 O 14.941 3.03386 -2.7934 0
M  V30 182 H 14.282 0.290395 -0.597132 0
M  V30 183 H 16.812 0.290854 -2.02522 0
M  V30 184 H 16.822 2.36278 -3.32621 0
M  V30 185 H 15.497 1.37772 -3.92418 0
M  V30 186 H 14.074 2.65844 -2.61498 0
M  V30 187 N 16.2591 1.48442 0.529413 0
M  V30 188 C 17.1891 1.65902 1.64313 0
M  V30 189 C 18.1701 0.507897 1.6234 0
M  V30 190 O 19.3551 0.740503 1.79528 0
M  V30 191 C 16.4851 1.69911 3.02898 0
M  V30 192 C 15.4391 2.8453 3.19729 0
M  V30 193 C 14.7651 2.73629 4.59381 0
M  V30 194 C 16.0651 4.25821 3.02447 0
M  V30 195 H 17.7591 2.5914 1.49955 0
M  V30 196 H 15.3051 1.24709 0.719982 0
M  V30 197 H 17.2581 1.80715 3.80684 0
M  V30 198 H 15.9821 0.732524 3.18279 0
M  V30 199 H 14.6411 2.73283 2.44361 0
M  V30 200 H 14.2891 1.74938 4.71599 0
M  V30 201 H 13.9891 3.50541 4.71588 0
M  V30 202 H 15.5131 2.86401 5.39265 0
M  V30 203 H 16.9271 4.37898 3.70024 0
M  V30 204 H 15.3241 5.03735 3.26146 0
M  V30 205 H 16.3941 4.42244 1.98867 0
M  V30 206 N 17.7372 -0.778329 1.37039 0
M  V30 207 C 18.9852 -1.53361 1.31623 0
M  V30 208 C 19.3062 -1.94739 -0.100831 0
M  V30 209 O 18.5762 -1.65797 -1.04347 0
M  V30 210 H 17.1562 -0.568794 0.484234 0
M  V30 211 H 19.8182 -0.926742 1.71457 0
M  V30 212 H 18.9142 -2.43606 1.95096 0
M  V30 213 N 19.2153 -1.21501 -1.00376 0
M  V30 214 C 20.4643 -1.02718 -1.73586 0
M  V30 215 C 20.7773 0.439589 -1.90596 0
M  V30 216 O 21.9833 0.746848 -2.61026 0
M  V30 217 C 20.4393 -1.78929 -3.1227 0
M  V30 218 C 20.0473 -3.29783 -3.03228 0
M  V30 219 C 21.7913 -1.68557 -3.89601 0
M  V30 220 C 19.6983 -3.98479 -4.36999 0
M  V30 221 H 18.6283 -0.380733 -0.650814 0
M  V30 222 H 21.2793 -1.45248 -1.1214 0
M  V30 223 H 19.6613 -1.29192 -3.74333 0
M  V30 224 H 20.8353 -3.86832 -2.50395 0
M  V30 225 H 19.1503 -3.40711 -2.39385 0
M  V30 226 H 21.7473 -2.17211 -4.88593 0
M  V30 227 H 22.0903 -0.644021 -4.11288 0
M  V30 228 H 22.6233 -2.15778 -3.34193 0
M  V30 229 H 19.3623 -5.02841 -4.20513 0
M  V30 230 H 18.8823 -3.46219 -4.89788 0
M  V30 231 H 20.5613 -4.03462 -5.05794 0
M  V30 232 N 20.6934 1.19889 -1.02296 0
M  V30 233 C 21.6234 2.25141 -0.619174 0
M  V30 234 C 22.6044 1.66051 0.368915 0
M  V30 235 O 23.7894 1.92546 0.252941 0
M  V30 236 C 20.9194 3.4728 0.0368783 0
M  V30 237 C 19.8734 4.19005 -0.872865 0
M  V30 238 C 19.1994 5.34637 -0.0822402 0
M  V30 239 C 20.4994 4.74452 -2.18387 0
M  V30 240 H 22.1934 2.59171 -1.49903 0
M  V30 241 H 19.7394 1.24579 -0.722222 0
M  V30 242 H 21.6924 4.20098 0.330958 0
M  V30 243 H 20.4164 3.12433 0.95149 0
M  V30 244 H 19.0754 3.48061 -1.15105 0
M  V30 245 H 18.7234 4.96034 0.83422 0
M  V30 246 H 18.4234 5.83557 -0.688149 0
M  V30 247 H 19.9474 6.10255 0.205238 0
M  V30 248 H 21.3614 5.39055 -1.95172 0
M  V30 249 H 19.7584 5.33834 -2.74119 0
M  V30 250 H 20.8284 3.92844 -2.84257 0
M  V30 251 N 22.1715 0.800033 1.35784 0
M  V30 252 C 23.4205 0.37387 1.98205 0
M  V30 253 C 23.7335 -1.06302 1.64193 0
M  V30 254 O 24.9395 -1.59198 2.19928 0
M  V30 255 C 23.3955 0.617532 3.54562 0
M  V30 256 C 23.0035 2.06654 3.9749 0
M  V30 257 C 24.7475 0.256401 4.23725 0
M  V30 258 C 22.6545 2.2563 5.46667 0
M  V30 259 H 21.5845 0.136055 0.741623 0
M  V30 260 H 24.2355 0.983166 1.54939 0
M  V30 261 H 22.6175 -0.0616248 3.95952 0
M  V30 262 H 23.7915 2.78296 3.67271 0
M  V30 263 H 22.1065 2.38691 3.41197 0
M  V30 264 H 24.7035 0.376318 5.33374 0
M  V30 265 H 25.0465 -0.796692 4.08606 0
M  V30 266 H 25.5795 0.889214 3.87734 0
M  V30 267 H 22.3185 3.2936 5.66747 0
M  V30 268 H 21.8385 1.58504 5.78478 0
M  V30 269 H 23.5175 2.06861 6.1304 0
M  V30 270 N 23.6496 -1.47581 0.552962 0
M  V30 271 C 24.8966 -2.02482 0.0273243 0
M  V30 272 C 25.2246 -1.42776 -1.32081 0
M  V30 273 O 24.4796 -0.571393 -1.87173 0
M  V30 274 C 24.7786 -3.57199 -0.119728 0
M  V30 275 C 24.4446 -4.35804 1.15697 0
M  V30 276 C 23.1066 -4.57 1.50681 0
M  V30 277 C 25.4586 -4.81167 2.00319 0
M  V30 278 C 22.7866 -5.20807 2.70142 0
M  V30 279 C 25.1386 -5.46293 3.18978 0
M  V30 280 C 23.8026 -5.65722 3.54281 0
M  V30 281 H 23.0726 -0.740933 0.00999866 0
M  V30 282 H 25.7196 -1.77302 0.72362 0
M  V30 283 H 24.0246 -3.81348 -0.89896 0
M  V30 284 H 25.7216 -3.97324 -0.541718 0
M  V30 285 H 22.3116 -4.19582 0.874561 0
M  V30 286 H 26.4956 -4.64574 1.74599 0
M  V30 287 H 21.7516 -5.34045 2.97668 0
M  V30 288 H 25.9256 -5.80407 3.84838 0
M  V30 289 H 23.5526 -6.14936 4.46942 0
M  V30 290 N 25.1277 -0.289203 -1.54924 0
M  V30 291 C 26.3737 0.323998 -2.00195 0
M  V30 292 C 26.7067 1.54441 -1.17735 0
M  V30 293 O 25.9817 1.92875 -0.250878 0
M  V30 294 C 26.2647 0.692276 -3.53383 0
M  V30 295 C 26.1177 -0.536457 -4.46589 0
M  V30 296 C 27.4367 1.52335 -4.12895 0
M  V30 297 H 24.5557 0.116289 -0.727768 0
M  V30 298 H 27.1977 -0.398954 -1.85764 0
M  V30 299 H 25.3477 1.30822 -3.65811 0
M  V30 300 H 27.0197 -1.17499 -4.46085 0
M  V30 301 H 25.2627 -1.17192 -4.1767 0
M  V30 302 H 25.9337 -0.234806 -5.515 0
M  V30 303 H 28.4097 1.00302 -4.0383 0
M  V30 304 H 27.2857 1.74982 -5.20262 0
M  V30 305 H 27.5467 2.50886 -3.64018 0
M  V30 306 N 26.6058 1.57591 -0.0167156 0
M  V30 307 C 27.5358 2.12496 0.967858 0
M  V30 308 C 28.5168 1.03807 1.34752 0
M  V30 309 O 29.7018 1.31577 1.42833 0
M  V30 310 C 26.8318 2.64194 2.25431 0
M  V30 311 C 25.7858 3.77559 2.01576 0
M  V30 312 C 25.1118 4.15636 3.36379 0
M  V30 313 C 26.4118 5.04151 1.36489 0
M  V30 314 H 28.1058 2.95013 0.510643 0
M  V30 315 H 25.6518 1.41915 0.244181 0
M  V30 316 H 27.6048 3.01236 2.94678 0
M  V30 317 H 26.3288 1.78821 2.73296 0
M  V30 318 H 24.9878 3.40937 1.34751 0
M  V30 319 H 24.6358 3.27263 3.81979 0
M  V30 320 H 24.3358 4.92022 3.21229 0
M  V30 321 H 25.8598 4.5525 4.06915 0
M  V30 322 H 27.2738 5.38857 1.95718 0
M  V30 323 H 25.6708 5.85453 1.31776 0
M  V30 324 H 26.7408 4.83733 0.336219 0
M  V30 325 N 28.0839 -0.256276 1.55502 0
M  V30 326 C 29.3329 -0.983486 1.76098 0
M  V30 327 C 29.6459 -1.86837 0.578896 0
M  V30 328 O 30.8519 -2.63163 0.667648 0
M  V30 329 C 29.3079 -1.79868 3.1173 0
M  V30 330 C 28.9159 -0.961648 4.37557 0
M  V30 331 C 30.6599 -2.51919 3.41668 0
M  V30 332 C 28.5669 -1.77219 5.64223 0
M  V30 333 H 27.4969 -0.370936 0.656447 0
M  V30 334 H 30.1479 -0.238492 1.81944 0
M  V30 335 H 28.5299 -2.58527 2.99966 0
M  V30 336 H 29.7039 -0.218048 4.60284 0
M  V30 337 H 28.0189 -0.354913 4.14885 0
M  V30 338 H 30.6159 -3.12998 4.33516 0
M  V30 339 H 30.9589 -3.23059 2.62562 0
M  V30 340 H 31.4919 -1.80278 3.54605 0
M  V30 341 H 28.2309 -1.10471 6.46124 0
M  V30 342 H 27.7509 -2.49132 5.45613 0
M  V30 343 H 29.4299 -2.34169 6.03137 0
M  V30 344 N 29.562 -1.4872 -0.521534 0
M  V30 345 C 30.472 -1.66569 -1.65203 0
M  V30 346 C 31.488 -0.548197 -1.65139 0
M  V30 347 O 32.664 -0.820339 -1.83936 0
M  V30 348 C 29.729 -1.70917 -3.01642 0
M  V30 349 C 28.79 -2.94356 -3.12495 0
M  V30 350 C 28.023 -2.98487 -4.42426 0
M  V30 351 O 28.246 -2.10786 -5.30024 0
M  V30 352 O 27.18 -3.90746 -4.57822 0
M  V30 353 H 31.006 -2.62298 -1.5308 0
M  V30 354 H 28.591 -1.3222 -0.695565 0
M  V30 355 H 30.473 -1.7625 -3.82771 0
M  V30 356 H 29.148 -0.783633 -3.14071 0
M  V30 357 H 28.055 -2.94552 -2.3063 0
M  V30 358 H 29.388 -3.86322 -3.04986 0
M  V30 359 N 31.0401 0.771051 -1.3745 0
M  V30 360 C 32.2881 1.52661 -1.32435 0
M  V30 361 C 32.6091 1.9479 0.0905024 0
M  V30 362 O 31.8791 1.66348 1.03466 0
M  V30 363 H 30.4591 0.566218 -0.487244 0
M  V30 364 H 33.1211 0.917636 -1.71946 0
M  V30 365 H 32.2171 2.42568 -1.96385 0
M  V30 366 N 32.5182 1.22032 0.997298 0
M  V30 367 C 33.7952 0.950823 1.70935 0
M  V30 368 C 34.1752 -0.535292 2.042 0
M  V30 369 O 33.5232 -1.50217 1.72183 0
M  V30 370 C 33.7332 1.84386 2.96315 0
M  V30 371 C 35.0812 2.09732 3.69185 0
M  V30 372 O 36.1052 1.81798 3.06314 0
M  V30 373 O 34.9642 2.57018 4.82291 0
M  V30 374 H 32.0582 0.357204 0.745878 0
M  V30 375 H 34.6042 1.32997 1.05404 0
M  V30 376 H 33.3762 2.84928 2.68201 0
M  V30 377 H 32.9992 1.46602 3.69586 0
M  V30 378 N 33.9963 -1.19345 1.0293 0
M  V30 379 C 35.2433 -1.89038 0.726008 0
M  V30 380 C 35.5713 -1.79649 -0.745427 0
M  V30 381 O 34.8263 -1.18354 -1.55855 0
M  V30 382 C 35.1253 -3.39292 1.12319 0
M  V30 383 C 34.7913 -3.68885 2.59297 0
M  V30 384 C 33.4533 -3.76671 2.99453 0
M  V30 385 C 35.8053 -3.82178 3.54386 0
M  V30 386 C 33.1333 -3.9522 4.33611 0
M  V30 387 C 35.4853 -4.0224 4.88248 0
M  V30 388 C 34.1493 -4.08259 5.28092 0
M  V30 389 H 33.4193 -0.691739 0.265665 0
M  V30 390 H 36.0663 -1.41328 1.29223 0
M  V30 391 H 34.3713 -3.88903 0.475584 0
M  V30 392 H 36.0683 -3.91536 0.866037 0
M  V30 393 H 32.6583 -3.63433 2.27189 0
M  V30 394 H 36.8423 -3.75505 3.24514 0
M  V30 395 H 32.0983 -3.98119 4.64016 0
M  V30 396 H 36.2723 -4.11468 5.61843 0
M  V30 397 H 33.8993 -4.22384 6.32057 0
M  V30 398 N 35.4744 -0.807222 -1.35358 0
M  V30 399 C 36.8854 -0.44876 -1.81226 0
M  V30 400 C 37.2364 1.02929 -1.67033 0
M  V30 401 O 36.3614 1.79991 -1.20133 0
M  V30 402 C 36.9564 -0.807774 -3.2903 0
M  V30 403 C 35.5154 -0.501901 -3.73039 0
M  V30 404 C 34.6624 -1.03304 -2.57339 0
M  V30 405 H 37.6134 -0.998808 -1.23327 0
M  V30 406 H 37.6344 -0.10554 -3.80354 0
M  V30 407 H 37.1464 -1.88357 -3.39328 0
M  V30 408 H 35.2474 0.565128 -3.68289 0
M  V30 409 H 35.3604 -1.03497 -4.67787 0
M  V30 410 H 33.7244 -0.455339 -2.50597 0
M  V30 411 H 34.5074 -2.11496 -2.70415 0
M  V30 412 N 36.9525 1.47285 -0.560781 0
M  V30 413 C 38.1775 2.07359 -0.0410566 0
M  V30 414 C 38.6025 1.41017 1.24483 0
M  V30 415 O 37.9605 0.486368 1.74654 0
M  V30 416 C 38.0085 3.6035 0.134123 0
M  V30 417 O 37.1125 3.94681 1.19587 0
M  V30 418 H 36.4535 0.661887 -0.0529291 0
M  V30 419 H 38.9835 1.89252 -0.777482 0
M  V30 420 H 38.9935 4.0652 0.347207 0
M  V30 421 H 37.6685 4.08034 -0.805047 0
M  V30 422 H 36.2455 3.60251 0.962987 0
M  V30 423 N 38.4306 0.297415 1.54768 0
M  V30 424 C 39.3606 -0.573494 2.26348 0
M  V30 425 C 40.3416 -1.14085 1.26169 0
M  V30 426 O 41.5266 -1.17086 1.54934 0
M  V30 427 C 38.6566 -1.74716 3.00153 0
M  V30 428 C 37.6106 -1.31032 4.07449 0
M  V30 429 C 36.9366 -2.56887 4.68949 0
M  V30 430 C 38.2366 -0.444183 5.20408 0
M  V30 431 H 39.9306 0.0235131 2.99391 0
M  V30 432 H 37.4766 0.0127488 1.43994 0
M  V30 433 H 39.4296 -2.3625 3.48947 0
M  V30 434 H 38.1536 -2.37035 2.24682 0
M  V30 435 H 36.8126 -0.718066 3.59499 0
M  V30 436 H 36.4606 -3.17512 3.90122 0
M  V30 437 H 36.1606 -2.2836 5.41411 0
M  V30 438 H 37.6846 -3.19229 5.20505 0
M  V30 439 H 39.0986 -0.9651 5.65118 0
M  V30 440 H 37.4956 -0.252846 5.99567 0
M  V30 441 H 38.5656 0.531609 4.81977 0
M  V30 442 N 39.9087 -1.5758 0.0250728 0
M  V30 443 C 41.1367 -1.9593 -0.664747 0
M  V30 444 C 41.5517 -0.901352 -1.65895 0
M  V30 445 O 40.9087 0.117255 -1.82123 0
M  V30 446 C 40.9597 -3.34342 -1.37468 0
M  V30 447 O 40.6807 -4.36079 -0.420324 0
M  V30 448 C 42.1817 -3.873 -2.1567 0
M  V30 449 H 39.4017 -0.645405 -0.183557 0
M  V30 450 H 41.9457 -2.04329 0.0836372 0
M  V30 451 H 40.1007 -3.27175 -2.0745 0
M  V30 452 H 40.5147 -5.16297 -0.923991 0
M  V30 453 H 41.9887 -4.86504 -2.60803 0
M  V30 454 H 42.4657 -3.21331 -2.99405 0
M  V30 455 H 43.0717 -3.97723 -1.50654 0
M  V30 456 N 41.3868 0.248026 -1.55636 0
M  V30 457 C 42.3498 1.29044 -1.89421 0
M  V30 458 C 43.3498 1.41134 -0.770581 0
M  V30 459 O 44.5398 1.39854 -1.03858 0
M  V30 460 C 41.6718 2.66831 -2.12165 0
M  V30 461 H 42.8648 1.00305 -2.82629 0
M  V30 462 H 40.4178 0.487265 -1.48511 0
M  V30 463 H 41.1528 3.00711 -1.21422 0
M  V30 464 H 40.9378 2.59438 -2.93997 0
M  V30 465 H 42.4278 3.42103 -2.3949 0
M  V30 466 N 42.8649 1.48995 0.513639 0
M  V30 467 C 43.7969 1.60836 1.63293 0
M  V30 468 C 44.8099 0.491701 1.55197 0
M  V30 469 O 45.9989 0.763238 1.6136 0
M  V30 470 C 43.0989 1.53731 3.02027 0
M  V30 471 C 42.2719 2.80715 3.35437 0
M  V30 472 C 41.3309 2.66837 4.53525 0
M  V30 473 O 40.3569 3.40753 4.55934 0
M  V30 474 N 41.5589 1.77539 5.52684 0
M  V30 475 H 44.3239 2.57366 1.53566 0
M  V30 476 H 41.8849 1.45925 0.701259 0
M  V30 477 H 43.8769 1.42118 3.78926 0
M  V30 478 H 42.4469 0.651092 3.05744 0
M  V30 479 H 41.6669 3.06772 2.47557 0
M  V30 480 H 42.9549 3.64927 3.54551 0
M  V30 481 H 42.3529 1.16719 5.53528 0
M  V30 482 H 40.9099 1.71856 6.28736 0
M  V30 483 N 44.343 -0.763751 1.37857 0
M  V30 484 C 45.571 -1.55293 1.36718 0
M  V30 485 C 45.986 -1.88745 -0.0455434 0
M  V30 486 O 45.343 -1.52039 -1.00947 0
M  V30 487 C 45.394 -2.85831 2.2132 0
M  V30 488 O 45.115 -2.5381 3.57089 0
M  V30 489 C 46.616 -3.80023 2.28249 0
M  V30 490 H 43.836 -0.480841 0.468009 0
M  V30 491 H 46.38 -0.946009 1.81303 0
M  V30 492 H 44.535 -3.42926 1.80223 0
M  V30 493 H 44.949 -3.37459 4.01524 0
M  V30 494 H 46.423 -4.68599 2.91752 0
M  V30 495 H 46.9 -4.1973 1.2932 0
M  V30 496 H 47.506 -3.28855 2.69693 0
M  V30 497 N 45.8211 -1.22559 -0.990812 0
M  V30 498 C 47.0511 -1.07623 -1.76355 0
M  V30 499 C 47.4591 0.37601 -1.85426 0
M  V30 500 O 46.8021 1.27228 -1.32509 0
M  V30 501 C 46.8641 -1.61507 -3.21179 0
M  V30 502 C 46.5281 -3.10146 -3.35646 0
M  V30 503 C 47.5251 -4.07553 -3.22796 0
M  V30 504 C 45.2101 -3.49644 -3.60631 0
M  V30 505 C 47.2041 -5.42442 -3.34716 0
M  V30 506 C 44.8911 -4.84682 -3.72192 0
M  V30 507 C 45.8891 -5.8089 -3.59243 0
M  V30 508 O 45.5771 -7.13476 -3.70415 0
M  V30 509 H 45.3091 -0.377745 -0.560611 0
M  V30 510 H 47.8631 -1.62658 -1.25425 0
M  V30 511 H 46.0931 -1.00881 -3.73309 0
M  V30 512 H 47.7821 -1.42202 -3.80175 0
M  V30 513 H 48.5481 -3.78381 -3.03403 0
M  V30 514 H 44.4271 -2.75282 -3.69785 0
M  V30 515 H 47.9711 -6.17518 -3.24526 0
M  V30 516 H 43.8681 -5.13534 -3.91092 0
M  V30 517 H 44.6361 -7.21083 -3.87275 0
M  V30 518 N 47.2992 1.18797 -1.03562 0
M  V30 519 C 48.2292 2.24472 -0.643019 0
M  V30 520 C 49.2102 1.66433 0.351283 0
M  V30 521 O 50.3952 1.92803 0.232505 0
M  V30 522 C 47.5252 3.473 4.24935e-05 0
M  V30 523 C 46.4792 4.18055 -0.917257 0
M  V30 524 C 45.8052 5.34519 -0.138941 0
M  V30 525 C 47.1052 4.72109 -2.23407 0
M  V30 526 H 48.7992 2.57566 -1.52643 0
M  V30 527 H 46.3452 1.23806 -0.735394 0
M  V30 528 H 48.2982 4.20426 0.286383 0
M  V30 529 H 47.0222 3.13424 0.918299 0
M  V30 530 H 45.6812 3.46821 -1.1879 0
M  V30 531 H 45.3292 4.96891 0.781562 0
M  V30 532 H 45.0292 5.82794 -0.750005 0
M  V30 533 H 46.5532 6.10438 0.1405 0
M  V30 534 H 47.9672 5.36955 -2.00879 0
M  V30 535 H 46.3642 5.30897 -2.79765 0
M  V30 536 H 47.4342 3.89807 -2.88407 0
M  V30 537 N 48.7773 0.814389 1.34928 0
M  V30 538 C 50.0023 0.410097 2.03305 0
M  V30 539 C 50.4273 -0.973464 1.60951 0
M  V30 540 O 49.7853 -1.63185 0.789964 0
M  V30 541 C 49.8333 0.51049 3.56968 0
M  V30 542 O 48.9373 -0.473035 4.09678 0
M  V30 543 H 48.2783 0.170088 0.641846 0
M  V30 544 H 50.8083 1.10244 1.72358 0
M  V30 545 H 50.8183 0.383135 4.06197 0
M  V30 546 H 49.4933 1.51963 3.87144 0
M  V30 547 H 48.0703 -0.305272 3.71648 0
M  V30 548 N 50.2554 -1.46986 0.568584 0
M  V30 549 C 51.5044 -2.01646 0.0465894 0
M  V30 550 C 51.8174 -1.44721 -1.31587 0
M  V30 551 O 53.0234 -1.91113 -1.92842 0
M  V30 552 C 51.4794 -3.59885 0.032752 0
M  V30 553 C 51.0874 -4.25804 1.39266 0
M  V30 554 C 52.8314 -4.22255 -0.436038 0
M  V30 555 C 50.7384 -5.76081 1.33732 0
M  V30 556 H 49.6684 -0.753876 0.013647 0
M  V30 557 H 52.3194 -1.68864 0.718131 0
M  V30 558 H 50.7014 -3.8968 -0.704669 0
M  V30 559 H 51.8754 -4.07637 2.1487 0
M  V30 560 H 50.1904 -3.7547 1.80032 0
M  V30 561 H 52.7874 -5.32394 -0.49602 0
M  V30 562 H 53.1304 -3.90212 -1.45053 0
M  V30 563 H 53.6634 -3.97033 0.246877 0
M  V30 564 H 50.4024 -6.12761 2.32817 0
M  V30 565 H 49.9224 -5.96553 0.623267 0
M  V30 566 H 51.6014 -6.38518 1.0442 0
M  V30 567 N 51.7335 -0.305618 -1.54608 0
M  V30 568 C 52.6435 0.57778 -2.27374 0
M  V30 569 C 53.6595 1.14451 -1.31061 0
M  V30 570 O 54.8355 1.16831 -1.6405 0
M  V30 571 C 51.9005 1.73123 -3.00382 0
M  V30 572 C 50.9615 1.19812 -4.12242 0
M  V30 573 C 50.1945 2.2966 -4.81759 0
M  V30 574 O 50.4175 3.49651 -4.50666 0
M  V30 575 O 49.3515 1.96091 -5.69062 0
M  V30 576 H 53.1775 -0.012624 -3.03697 0
M  V30 577 H 50.7625 -0.0719184 -1.49227 0
M  V30 578 H 52.6445 2.40315 -3.4616 0
M  V30 579 H 51.3195 2.30815 -2.26949 0
M  V30 580 H 50.2265 0.491798 -3.70853 0
M  V30 581 H 51.5595 0.666566 -4.87666 0
M  V30 582 N 53.2116 1.57565 -0.0334293 0
M  V30 583 C 54.1216 2.13943 0.962572 0
M  V30 584 C 55.1376 1.09276 1.35406 0
M  V30 585 O 56.3136 1.41355 1.4346 0
M  V30 586 C 53.3786 2.65887 2.22497 0
M  V30 587 C 52.4396 3.85286 1.8935 0
M  V30 588 C 51.6726 4.34743 3.09571 0
M  V30 589 O 51.8956 3.83352 4.22371 0
M  V30 590 O 50.8296 5.26538 2.91618 0
M  V30 591 H 54.6556 2.99333 0.513169 0
M  V30 592 H 52.2406 1.4822 0.18743 0
M  V30 593 H 54.1226 2.99346 2.96598 0
M  V30 594 H 52.7976 1.83578 2.6661 0
M  V30 595 H 51.7046 3.56746 1.1262 0
M  V30 596 H 53.0376 4.68771 1.5005 0
M  V30 597 N 54.6897 -0.239769 1.55765 0
M  V30 598 C 55.9387 -0.964754 1.77131 0
M  V30 599 C 56.2517 -1.86213 0.59868 0
M  V30 600 O 57.4577 -2.6244 0.695522 0
M  V30 601 C 55.9137 -1.76552 3.1362 0
M  V30 602 C 55.5217 -0.915185 4.38553 0
M  V30 603 C 57.2657 -2.48281 3.44321 0
M  V30 604 C 55.1727 -1.71225 5.66071 0
M  V30 605 H 54.1027 -0.363953 0.660344 0
M  V30 606 H 56.7537 -0.219181 1.82186 0
M  V30 607 H 55.1357 -2.55331 3.02691 0
M  V30 608 H 56.3097 -0.169217 4.60489 0
M  V30 609 H 54.6247 -0.310889 4.15238 0
M  V30 610 H 57.2217 -3.08382 4.36812 0
M  V30 611 H 57.5647 -3.20256 2.65973 0
M  V30 612 H 58.0977 -1.76507 3.56497 0
M  V30 613 H 54.8367 -1.03612 6.4726 0
M  V30 614 H 54.3567 -2.43331 5.48224 0
M  V30 615 H 56.0357 -2.27758 6.05587 0
M  V30 616 N 56.1678 -1.49265 -0.50573 0
M  V30 617 C 57.0998 -1.617 -1.62437 0
M  V30 618 C 58.1128 -0.499924 -1.54934 0
M  V30 619 O 59.3018 -0.771785 -1.60953 0
M  V30 620 C 56.4018 -1.5533 -3.01207 0
M  V30 621 C 55.5748 -2.8249 -3.33943 0
M  V30 622 C 54.6338 -2.69238 -4.52103 0
M  V30 623 O 53.6598 -3.43167 -4.5412 0
M  V30 624 N 54.8618 -1.80468 -5.51735 0
M  V30 625 H 57.6268 -2.58177 -1.52199 0
M  V30 626 H 55.1878 -1.46294 -0.693511 0
M  V30 627 H 57.1798 -1.44125 -3.78167 0
M  V30 628 H 55.7498 -0.667297 -3.05395 0
M  V30 629 H 54.9698 -3.08081 -2.45926 0
M  V30 630 H 56.2578 -3.66802 -3.5261 0
M  V30 631 H 55.6558 -1.19653 -5.52901 0
M  V30 632 H 54.2128 -1.75188 -6.27816 0
M  V30 633 N 57.6459 0.756429 -1.3826 0
M  V30 634 C 58.5559 1.9009 -1.37488 0
M  V30 635 C 59.5719 1.71855 -0.272366 0
M  V30 636 O 60.7479 1.94827 -0.510318 0
M  V30 637 C 57.8129 3.25421 -1.19592 0
M  V30 638 C 56.8739 3.56202 -2.39622 0
M  V30 639 C 56.1069 4.85075 -2.2257 0
M  V30 640 O 56.3299 5.57246 -1.21793 0
M  V30 641 O 55.2639 5.15269 -3.11098 0
M  V30 642 H 59.0899 1.93695 -2.33914 0
M  V30 643 H 56.6749 0.901313 -1.1915 0
M  V30 644 H 58.5569 4.06337 -1.11661 0
M  V30 645 H 57.2319 3.22634 -0.262486 0
M  V30 646 H 56.1389 2.75458 -2.53128 0
M  V30 647 H 57.4719 3.63747 -3.31586 0
M  V30 648 N 59.124 1.23083 0.984299 0
M  V30 649 C 60.535 1.05609 1.5396 0
M  V30 650 C 60.886 -0.377793 1.92528 0
M  V30 651 O 60.011 -1.26398 1.75649 0
M  V30 652 C 60.606 1.91087 2.7977 0
M  V30 653 C 59.165 1.77885 3.31713 0
M  V30 654 C 58.312 1.87028 2.04733 0
M  V30 655 H 61.263 1.36802 0.804419 0
M  V30 656 H 61.284 1.43336 3.5247 0
M  V30 657 H 60.796 2.9544 2.51668 0
M  V30 658 H 58.897 0.762995 3.64704 0
M  V30 659 H 59.01 2.61047 4.01735 0
M  V30 660 H 57.374 1.30565 2.18689 0
M  V30 661 H 58.157 2.92929 1.79017 0
M  V30 662 N 60.6021 -1.18246 1.0419 0
M  V30 663 C 61.5491 -2.2192 0.634037 0
M  V30 664 C 62.5191 -1.62179 -0.358765 0
M  V30 665 O 63.7041 -1.89122 -0.252466 0
M  V30 666 C 60.8441 -3.451 0.00445535 0
M  V30 667 C 59.9571 -4.19174 1.04487 0
M  V30 668 C 59.0921 -5.29813 0.383676 0
M  V30 669 C 58.1311 -5.9566 1.4091 0
M  V30 670 N 57.2681 -6.97834 0.772784 0
M  V30 671 H 62.1081 -2.56164 1.52263 0
M  V30 672 H 59.6451 -1.25843 0.761701 0
M  V30 673 H 61.6031 -4.15485 -0.377919 0
M  V30 674 H 60.2331 -3.11472 -0.847652 0
M  V30 675 H 59.2851 -3.47604 1.54518 0
M  V30 676 H 60.5971 -4.64267 1.82368 0
M  V30 677 H 59.7511 -6.06677 -0.0528366 0
M  V30 678 H 58.4901 -4.85825 -0.427208 0
M  V30 679 H 57.4951 -5.17535 1.85574 0
M  V30 680 H 58.7201 -6.4173 2.22171 0
M  V30 681 H 56.6661 -6.55998 -0.0177708 0
M  V30 682 H 56.5831 -7.41186 1.48928 0
M  V30 683 H 57.8511 -7.78665 0.36071 0
M  V30 684 N 62.0802 -0.821533 -1.34494 0
M  V30 685 C 63.3052 -0.420873 -2.03085 0
M  V30 686 C 63.7302 0.964915 -1.61465 0
M  V30 687 O 63.0882 1.62763 -0.798607 0
M  V30 688 C 63.1362 -0.529414 -3.56693 0
M  V30 689 O 62.2402 0.451302 -4.09923 0
M  V30 690 H 61.5812 -0.173489 -0.640935 0
M  V30 691 H 64.1112 -1.11157 -1.71771 0
M  V30 692 H 64.1212 -0.404671 -4.05988 0
M  V30 693 H 62.7962 -1.54014 -3.86332 0
M  V30 694 H 61.3732 0.285558 -3.71805 0
M  V30 695 N 63.5583 1.46682 -0.576371 0
M  V30 696 C 64.5213 2.28707 0.150239 0
M  V30 697 C 65.5213 1.38035 0.824794 0
M  V30 698 O 66.7113 1.60476 0.677719 0
M  V30 699 C 63.8433 3.18248 1.22192 0
M  V30 700 H 65.0363 2.94423 -0.570521 0
M  V30 701 H 62.5893 1.52688 -0.334078 0
M  V30 702 H 63.3243 2.57265 1.97447 0
M  V30 703 H 63.1093 3.85 0.742812 0
M  V30 704 H 64.5993 3.80001 1.73172 0
M  V30 705 N 65.0364 0.313813 1.54444 0
M  V30 706 C 66.2824 -0.292108 2.00685 0
M  V30 707 C 66.6154 -1.52548 1.20177 0
M  V30 708 O 65.8904 -1.92452 0.281531 0
M  V30 709 C 66.1734 -0.635968 3.5444 0
M  V30 710 C 66.0264 0.607437 4.4568 0
M  V30 711 C 67.3454 -1.45747 4.15266 0
M  V30 712 H 64.4644 -0.104697 0.729526 0
M  V30 713 H 67.1064 0.428457 1.85106 0
M  V30 714 H 65.2564 -1.24986 3.67846 0
M  V30 715 H 66.9284 1.24581 4.44159 0
M  V30 716 H 65.1714 1.23822 4.15753 0
M  V30 717 H 65.8424 0.322515 5.51057 0
M  V30 718 H 68.3184 -0.938645 4.05375 0
M  V30 719 H 67.1944 -1.66683 5.2298 0
M  V30 720 H 67.4554 -2.45063 3.67963 0
M  V30 721 N 66.5145 -1.57545 0.0417849 0
M  V30 722 C 67.7395 -1.97035 -0.647455 0
M  V30 723 C 68.1645 -0.918775 -1.64135 0
M  V30 724 O 67.5225 0.119006 -1.80909 0
M  V30 725 C 67.5705 -3.35609 -1.31905 0
M  V30 726 O 66.6745 -3.3287 -2.43457 0
M  V30 727 H 66.0155 -0.64211 -0.169086 0
M  V30 728 H 68.5455 -2.04318 0.107399 0
M  V30 729 H 68.5555 -3.72126 -1.67291 0
M  V30 730 H 67.2305 -4.11685 -0.590586 0
M  V30 731 H 65.8075 -3.08087 -2.10088 0
M  V30 732 N 67.9926 0.231505 -1.5589 0
M  V30 733 C 69.2396 0.957352 -1.78441 0
M  V30 734 C 69.5676 1.84726 -0.60882 0
M  V30 735 O 68.8226 1.91416 0.40725 0
M  V30 736 C 69.1216 1.83577 -3.0665 0
M  V30 737 C 68.7876 1.09993 -4.37278 0
M  V30 738 C 67.4496 0.896629 -4.72773 0
M  V30 739 C 69.8016 0.579558 -5.17968 0
M  V30 740 C 67.1296 0.160896 -5.86479 0
M  V30 741 C 69.4816 -0.142783 -6.32439 0
M  V30 742 C 68.1456 -0.357427 -6.66542 0
M  V30 743 H 67.4156 0.35032 -0.65296 0
M  V30 744 H 70.0626 0.226259 -1.90159 0
M  V30 745 H 68.3676 2.63441 -2.90011 0
M  V30 746 H 70.0646 2.39934 -3.21298 0
M  V30 747 H 66.6546 1.26835 -4.09403 0
M  V30 748 H 70.8386 0.724125 -4.90989 0
M  V30 749 H 66.0946 -0.0157293 -6.11398 0
M  V30 750 H 70.2686 -0.553559 -6.94196 0
M  V30 751 H 67.8956 -0.929466 -7.54497 0
M  V30 752 N 69.4707 1.49531 0.497807 0
M  V30 753 C 70.4007 1.6935 1.60757 0
M  V30 754 C 71.3817 0.542218 1.61227 0
M  V30 755 O 72.5667 0.778417 1.77917 0
M  V30 756 C 69.6967 1.76298 2.99226 0
M  V30 757 C 68.6507 2.91248 3.13622 0
M  V30 758 C 67.9767 2.83312 4.53474 0
M  V30 759 C 69.2767 4.3214 2.93346 0
M  V30 760 H 70.9707 2.62263 1.44425 0
M  V30 761 H 68.5167 1.26208 0.693367 0
M  V30 762 H 70.4697 1.88749 3.76765 0
M  V30 763 H 69.1937 0.799871 3.16654 0
M  V30 764 H 67.8527 2.78404 2.38509 0
M  V30 765 H 67.5007 1.84902 4.67782 0
M  V30 766 H 67.2007 3.60465 4.64046 0
M  V30 767 H 68.7247 2.97775 5.33069 0
M  V30 768 H 70.1387 4.45649 3.60652 0
M  V30 769 H 68.5357 5.1054 3.15387 0
M  V30 770 H 69.6057 4.46363 1.89441 0
M  V30 771 N 70.9488 -0.749086 1.3866 0
M  V30 772 C 71.8788 -1.8764 1.38973 0
M  V30 773 C 72.8598 -1.68178 0.255004 0
M  V30 774 O 74.0448 -1.88704 0.458754 0
M  V30 775 C 71.1748 -3.25222 1.21851 0
M  V30 776 C 70.1288 -3.59295 2.32575 0
M  V30 777 C 69.4548 -4.95663 2.00555 0
M  V30 778 C 70.7548 -3.63709 3.7485 0
M  V30 779 H 72.4488 -1.87635 2.3331 0
M  V30 780 H 69.9948 -0.901329 1.12303 0
M  V30 781 H 71.9478 -4.03746 1.20695 0
M  V30 782 H 70.6718 -3.25719 0.239775 0
M  V30 783 H 69.3308 -2.83093 2.32925 0
M  V30 784 H 68.9788 -4.92724 1.01154 0
M  V30 785 H 68.6788 -5.19429 2.74714 0
M  V30 786 H 70.2028 -5.7656 2.01024 0
M  V30 787 H 71.6168 -4.32338 3.76506 0
M  V30 788 H 70.0138 -3.98986 4.48252 0
M  V30 789 H 71.0838 -2.63834 4.06841 0
M  V30 790 N 72.4269 -1.23603 -0.977757 0
M  V30 791 C 73.8379 -1.06424 -1.53398 0
M  V30 792 C 74.1889 0.367578 -1.92726 0
M  V30 793 O 73.3139 1.25465 -1.76316 0
M  V30 794 C 73.9089 -1.92568 -2.78753 0
M  V30 795 C 72.4679 -1.79642 -3.30765 0
M  V30 796 C 71.6149 -1.88111 -2.03739 0
M  V30 797 H 74.5659 -1.37227 -0.797152 0
M  V30 798 H 74.5869 -1.45203 -3.51705 0
M  V30 799 H 74.0989 -2.96771 -2.50098 0
M  V30 800 H 72.1999 -0.782325 -3.64294 0
M  V30 801 H 72.3129 -2.63174 -4.00345 0
M  V30 802 H 70.6769 -1.31723 -2.17994 0
M  V30 803 H 71.4599 -2.93875 -1.77461 0
M  V30 804 N 73.905 1.17692 -1.04816 0
M  V30 805 C 74.815 2.25229 -0.65643 0
M  V30 806 C 75.831 1.71018 0.320761 0
M  V30 807 O 77.007 2.00649 0.173805 0
M  V30 808 C 74.072 3.46684 -0.0332629 0
M  V30 809 C 73.133 4.15997 -1.06042 0
M  V30 810 C 72.366 5.31654 -0.466893 0
M  V30 811 O 72.589 5.65777 0.724758 0
M  V30 812 O 71.523 5.89831 -1.1993 0
M  V30 813 H 75.349 2.61016 -1.55255 0
M  V30 814 H 72.934 1.24919 -0.81949 0
M  V30 815 H 74.816 4.20234 0.313256 0
M  V30 816 H 73.491 3.12703 0.836566 0
M  V30 817 H 72.398 3.44482 -1.45886 0
M  V30 818 H 73.731 4.53996 -1.90127 0
M  V30 819 N 75.3831 0.828654 1.34056 0
M  V30 820 C 76.2931 0.256725 2.33191 0
M  V30 821 C 77.3091 -0.611898 1.62886 0
M  V30 822 O 78.4851 -0.51844 1.94613 0
M  V30 823 C 75.5501 -0.567238 3.42028 0
M  V30 824 C 74.6111 0.324458 4.28072 0
M  V30 825 C 73.8441 -0.460274 5.31712 0
M  V30 826 O 74.0671 -1.693 5.44696 0
M  V30 827 O 73.0011 0.160391 6.01686 0
M  V30 828 H 76.8271 1.07739 2.83947 0
M  V30 829 H 74.4121 0.59093 1.37217 0
M  V30 830 H 76.2941 -1.03582 4.08471 0
M  V30 831 H 74.9691 -1.36513 2.93506 0
M  V30 832 H 73.8761 0.840659 3.64532 0
M  V30 833 H 75.2091 1.08685 4.8005 0
M  V30 834 N 76.8612 -1.46375 0.584142 0
M  V30 835 C 78.0862 -2.07268 0.0740405 0
M  V30 836 C 78.5112 -1.42979 -1.22223 0
M  V30 837 O 77.8692 -0.514092 -1.73859 0
M  V30 838 C 77.9172 -3.60518 -0.0767769 0
M  V30 839 O 77.0212 -3.96533 -1.13292 0
M  V30 840 H 76.3622 -0.660961 0.0634524 0
M  V30 841 H 78.8922 -1.87991 0.807492 0
M  V30 842 H 78.9022 -4.07021 -0.282489 0
M  V30 843 H 77.5772 -4.06702 0.86986 0
M  V30 844 H 76.1542 -3.61738 -0.905553 0
M  V30 845 N 78.3393 -0.321999 -1.54275 0
M  V30 846 C 79.5673 0.283052 -2.04955 0
M  V30 847 C 79.9823 1.45904 -1.19823 0
M  V30 848 O 79.3393 1.81063 -0.228545 0
M  V30 849 C 79.3903 0.719028 -3.54277 0
M  V30 850 O 79.1113 -0.410175 -4.36176 0
M  V30 851 C 80.6123 1.38705 -4.21041 0
M  V30 852 H 77.8323 0.0584616 -0.668448 0
M  V30 853 H 80.3763 -0.467734 -1.99079 0
M  V30 854 H 78.5313 1.41979 -3.60445 0
M  V30 855 H 78.9453 -0.0669416 -5.24457 0
M  V30 856 H 80.4193 1.64306 -5.2698 0
M  V30 857 H 80.8963 2.33385 -3.72059 0
M  V30 858 H 81.5023 0.728906 -4.19007 0
M  V30 859 N 79.8174 1.5752 -0.0501392 0
M  V30 860 C 81.0944 1.83996 0.663685 0
M  V30 861 C 81.4744 0.938339 1.89099 0
M  V30 862 O 80.8224 -0.00087759 2.285 0
M  V30 863 C 81.0324 3.33702 1.02196 0
M  V30 864 C 82.3804 4.00691 1.40469 0
M  V30 865 O 83.4044 3.38321 1.11433 0
M  V30 866 O 82.2634 5.10658 1.94654 0
M  V30 867 H 79.3574 0.759385 0.32751 0
M  V30 868 H 81.9034 1.69514 -0.0794238 0
M  V30 869 H 80.6754 3.91015 0.149364 0
M  V30 870 H 80.2984 3.53368 1.82255 0
M  V30 871 N 81.2955 -0.223234 1.56011 0
M  V30 872 C 82.2255 -1.27988 1.95298 0
M  V30 873 C 83.2065 -1.48976 0.820979 0
M  V30 874 O 84.3915 -1.61188 1.08315 0
M  V30 875 C 81.5215 -2.63 2.26822 0
M  V30 876 C 80.4755 -2.56671 3.42497 0
M  V30 877 C 79.8015 -3.95697 3.59622 0
M  V30 878 C 81.1015 -2.11601 4.77517 0
M  V30 879 H 82.7955 -0.953525 2.8381 0
M  V30 880 H 80.3415 -0.457244 1.36548 0
M  V30 881 H 82.2945 -3.37077 2.52898 0
M  V30 882 H 81.0185 -2.9732 1.35161 0
M  V30 883 H 79.6775 -1.85051 3.16467 0
M  V30 884 H 79.3255 -4.27322 2.6534 0
M  V30 885 H 79.0255 -3.92345 4.37424 0
M  V30 886 H 80.5495 -4.71438 3.88044 0
M  V30 887 H 81.9635 -2.7542 5.02809 0
M  V30 888 H 80.3605 -2.19311 5.5859 0
M  V30 889 H 81.4305 -1.06824 4.72987 0
M  V30 890 N 82.7736 -1.49793 -0.48987 0
M  V30 891 C 83.9986 -1.63836 -1.27172 0
M  V30 892 C 84.4236 -0.31402 -1.8546 0
M  V30 893 O 83.7816 0.719803 -1.66399 0
M  V30 894 C 83.8296 -2.71797 -2.36978 0
M  V30 895 O 82.9336 -2.31744 -3.41128 0
M  V30 896 H 82.2746 -0.547997 -0.37496 0
M  V30 897 H 84.8046 -1.96053 -0.585191 0
M  V30 898 H 84.8146 -2.94305 -2.82575 0
M  V30 899 H 83.4896 -3.67923 -1.93921 0
M  V30 900 H 82.0666 -2.1961 -3.01373 0
M  V30 901 N 84.2517 0.741722 -1.39055 0
M  V30 902 C 85.1817 1.869 -1.39966 0
M  V30 903 C 86.1627 1.6804 -0.26392 0
M  V30 904 O 87.3477 1.88458 -0.468755 0
M  V30 905 C 84.4777 3.24572 -1.23574 0
M  V30 906 C 83.4317 3.58056 -2.34477 0
M  V30 907 C 82.7577 4.94593 -2.0318 0
M  V30 908 C 84.0577 3.61716 -3.76774 0
M  V30 909 H 85.7517 1.86395 -2.34302 0
M  V30 910 H 83.2977 0.895361 -1.1278 0
M  V30 911 H 85.2507 4.031 -1.22834 0
M  V30 912 H 83.9747 3.25587 -0.257045 0
M  V30 913 H 82.6337 2.81854 -2.34423 0
M  V30 914 H 82.2817 4.92181 -1.03765 0
M  V30 915 H 81.9817 5.17964 -2.77465 0
M  V30 916 H 83.5057 5.75486 -2.04079 0
M  V30 917 H 84.9197 4.30335 -3.78794 0
M  V30 918 H 83.3167 3.96603 -4.50362 0
M  V30 919 H 84.3867 2.61672 -4.08235 0
M  V30 920 N 85.7298 1.2412 0.971189 0
M  V30 921 C 86.6928 1.03156 2.04674 0
M  V30 922 C 87.6928 -0.00990322 1.60797 0
M  V30 923 O 88.8828 0.230729 1.72665 0
M  V30 924 C 86.0148 0.562765 3.36223 0
M  V30 925 H 87.2078 1.98614 2.24705 0
M  V30 926 H 84.7608 1.06293 1.14593 0
M  V30 927 H 85.4958 -0.395176 3.21883 0
M  V30 928 H 85.2808 1.31441 3.69413 0
M  V30 929 H 86.7708 0.437015 4.15307 0
M  V30 930 N 87.2079 -1.17134 1.05439 0
M  V30 931 C 88.4359 -1.91372 0.786414 0
M  V30 932 C 88.8509 -1.76955 -0.658202 0
M  V30 933 O 88.2079 -1.10838 -1.44987 0
M  V30 934 C 88.2589 -3.42356 1.1608 0
M  V30 935 O 87.9799 -3.56332 2.54871 0
M  V30 936 C 89.4809 -4.33663 0.919322 0
M  V30 937 H 86.7009 -0.607118 0.285743 0
M  V30 938 H 89.2449 -1.48525 1.40572 0
M  V30 939 H 87.3999 -3.82939 0.586191 0
M  V30 940 H 87.8139 -4.49896 2.69618 0
M  V30 941 H 89.2879 -5.38099 1.231 0
M  V30 942 H 89.7649 -4.38959 -0.145359 0
M  V30 943 H 90.3709 -3.98796 1.47789 0
M  V30 944 N 88.686 -0.835752 -1.33615 0
M  V30 945 C 89.633 -0.26473 -2.29277 0
M  V30 946 C 90.603 0.617712 -1.54187 0
M  V30 947 O 91.788 0.556641 -1.825 0
M  V30 948 C 88.928 0.556777 -3.40579 0
M  V30 949 C 88.041 -0.349339 -4.30585 0
M  V30 950 C 87.176 0.482969 -5.29 0
M  V30 951 C 86.215 -0.421732 -6.10645 0
M  V30 952 N 85.352 0.372262 -7.01112 0
M  V30 953 H 90.192 -1.08582 -2.77514 0
M  V30 954 H 87.729 -0.546927 -1.36554 0
M  V30 955 H 89.687 1.04852 -4.03809 0
M  V30 956 H 88.317 1.34286 -2.93542 0
M  V30 957 H 87.369 -0.959372 -3.68104 0
M  V30 958 H 88.681 -1.04445 -4.87742 0
M  V30 959 H 87.835 1.03866 -5.97743 0
M  V30 960 H 86.574 1.21153 -4.72412 0
M  V30 961 H 85.579 -0.989464 -5.40823 0
M  V30 962 H 86.804 -1.14861 -6.69316 0
M  V30 963 H 84.75 1.08426 -6.46977 0
M  V30 964 H 84.667 -0.264198 -7.55538 0
M  V30 965 H 85.935 0.910293 -7.74167 0
M  V30 966 N 90.1641 1.46063 -0.591896 0
M  V30 967 C 91.1111 2.30399 0.136069 0
M  V30 968 C 92.0811 1.41169 0.875238 0
M  V30 969 O 93.2661 1.70112 0.86409 0
M  V30 970 C 90.4061 3.25804 1.13781 0
M  V30 971 C 89.5191 4.30134 0.401137 0
M  V30 972 C 88.6541 5.12659 1.39121 0
M  V30 973 C 87.6931 6.0873 0.641462 0
M  V30 974 N 86.8301 6.8409 1.58004 0
M  V30 975 H 91.6701 2.92118 -0.589144 0
M  V30 976 H 89.2071 1.43959 -0.302342 0
M  V30 977 H 91.1651 3.79569 1.73156 0
M  V30 978 H 89.7951 2.65872 1.83062 0
M  V30 979 H 88.8471 3.79152 -0.307826 0
M  V30 980 H 90.1591 4.98458 -0.184565 0
M  V30 981 H 89.3131 5.70747 2.05749 0
M  V30 982 H 88.0521 4.44316 2.01084 0
M  V30 983 H 87.0571 5.49786 -0.0385419 0
M  V30 984 H 88.2821 6.79095 0.0270945 0
M  V30 985 H 86.2281 6.18449 2.18761 0
M  V30 986 H 86.1451 7.48709 1.04738 0
M  V30 987 H 87.4131 7.4673 2.23639 0
M  V30 988 N 91.6422 0.330177 1.54103 0
M  V30 989 C 92.5892 -0.532762 2.24567 0
M  V30 990 C 93.5592 -1.10635 1.23892 0
M  V30 991 O 94.7442 -1.14546 1.5259 0
M  V30 992 C 91.8842 -1.6845 3.01195 0
M  V30 993 C 90.9972 -1.13951 4.167 0
M  V30 994 C 90.1322 -2.25746 4.80845 0
M  V30 995 C 89.1712 -1.6853 5.88442 0
M  V30 996 N 88.3082 -2.74014 6.46421 0
M  V30 997 H 93.1482 0.0746905 2.97906 0
M  V30 998 H 90.6852 0.048632 1.4702 0
M  V30 999 H 92.6432 -2.36234 3.43874 0
M  V30 1000 H 91.2732 -2.26314 2.30178 0
M  V30 1001 H 90.3252 -0.35301 3.78758 0
M  V30 1002 H 91.6372 -0.680892 4.94131 0
M  V30 1003 H 90.7912 -3.01422 5.26526 0
M  V30 1004 H 89.5302 -2.74947 4.0281 0
M  V30 1005 H 88.5352 -0.913543 5.42157 0
M  V30 1006 H 89.7602 -1.20198 6.68378 0
M  V30 1007 H 87.7062 -3.22494 5.71256 0
M  V30 1008 H 87.6232 -2.32735 7.19285 0
M  V30 1009 H 88.8912 -3.49499 6.96757 0
M  V30 1010 N 93.1203 -1.57491 0.0584922 0
M  V30 1011 C 94.0523 -2.08916 -0.942694 0
M  V30 1012 C 95.0653 -1.0185 -1.27006 0
M  V30 1013 O 96.2543 -1.29398 -1.22957 0
M  V30 1014 C 93.3543 -2.52341 -2.26224 0
M  V30 1015 C 92.5273 -3.82827 -2.1157 0
M  V30 1016 C 91.5863 -4.12487 -3.26712 0
M  V30 1017 O 90.6123 -4.82295 -3.02292 0
M  V30 1018 N 91.8143 -3.64978 -4.5141 0
M  V30 1019 H 94.5793 -2.95437 -0.503722 0
M  V30 1020 H 92.1403 -1.61397 -0.12757 0
M  V30 1021 H 94.1323 -2.69254 -3.02133 0
M  V30 1022 H 92.7023 -1.7103 -2.61663 0
M  V30 1023 H 91.9223 -3.75425 -1.20208 0
M  V30 1024 H 93.2103 -4.68263 -1.99015 0
M  V30 1025 H 92.6083 -3.08558 -4.7414 0
M  V30 1026 H 91.1653 -3.87115 -5.2439 0
M  V30 1027 N 94.5984 0.214957 -1.56127 0
M  V30 1028 C 96.0094 0.781386 -1.69562 0
M  V30 1029 C 96.3604 1.84707 -0.66165 0
M  V30 1030 O 95.4854 2.156 0.185927 0
M  V30 1031 C 96.0804 1.42411 -3.07416 0
M  V30 1032 C 94.6394 1.93786 -3.22683 0
M  V30 1033 C 93.7864 0.800438 -2.65496 0
M  V30 1034 H 96.7374 -0.00980633 -1.58697 0
M  V30 1035 H 96.7584 2.29309 -3.0364 0
M  V30 1036 H 96.2704 0.64826 -3.82648 0
M  V30 1037 H 94.3714 2.74152 -2.52332 0
M  V30 1038 H 94.4844 2.1133 -4.29973 0
M  V30 1039 H 92.8484 1.2095 -2.2415 0
M  V30 1040 H 93.6314 0.0371471 -3.4328 0
M  V30 1041 N 96.0765 1.50051 0.48192 0
M  V30 1042 C 97.0065 1.71046 1.58951 0
M  V30 1043 C 97.9875 0.559288 1.60642 0
M  V30 1044 O 99.1725 0.797243 1.77081 0
M  V30 1045 C 96.3025 1.79462 2.97339 0
M  V30 1046 C 95.2565 2.94558 3.10515 0
M  V30 1047 C 94.5825 2.88105 4.50444 0
M  V30 1048 C 95.8825 4.35227 2.88747 0
M  V30 1049 H 97.5765 2.6378 1.41635 0
M  V30 1050 H 95.1225 1.26936 0.679942 0
M  V30 1051 H 97.0755 1.92734 3.74742 0
M  V30 1052 H 95.7995 0.833412 3.15788 0
M  V30 1053 H 94.4585 2.80918 2.35543 0
M  V30 1054 H 94.1065 1.89853 4.65795 0
M  V30 1055 H 93.8065 3.65366 4.60197 0
M  V30 1056 H 95.3305 3.03412 5.29881 0
M  V30 1057 H 96.7445 4.49449 3.55905 0
M  V30 1058 H 95.1415 5.13856 3.09955 0
M  V30 1059 H 96.2115 4.48347 1.84696 0
M  V30 1060 N 97.5546 -0.734337 1.39446 0
M  V30 1061 C 98.8316 -1.48579 1.27215 0
M  V30 1062 C 99.2116 -2.1077 -0.117968 0
M  V30 1063 O 98.5596 -1.98646 -1.12924 0
M  V30 1064 C 98.7696 -2.53667 2.39696 0
M  V30 1065 C 100.118 -3.20031 2.79044 0
M  V30 1066 O 101.142 -2.6398 2.39151 0
M  V30 1067 O 100.001 -4.21455 3.47905 0
M  V30 1068 H 97.0946 -0.659816 0.49857 0
M  V30 1069 H 99.6406 -0.768106 1.51322 0
M  V30 1070 H 98.4126 -2.06096 3.32626 0
M  V30 1071 H 98.0356 -3.32994 2.17258 0
M  V30 1072 N 99.0327 -1.24633 -0.964593 0
M  V30 1073 C 100.449 -1.01239 -1.2338 0
M  V30 1074 C 100.649 0.2769 -1.99588 0
M  V30 1075 O 99.7047 0.992241 -2.32187 0
M  V30 1076 C 101.018 -2.22937 -2.01791 0
M  V30 1077 C 102.566 -2.27594 -2.14872 0
M  V30 1078 C 103.041 -3.48921 -2.96678 0
M  V30 1079 N 104.532 -3.49257 -3.04259 0
M  V30 1080 C 105.267 -4.39795 -3.67924 0
M  V30 1081 N 104.763 -5.40591 -4.33281 0
M  V30 1082 N 106.556 -4.275 -3.64966 0
M  V30 1083 H 98.7067 -2.0748 -0.454502 0
M  V30 1084 H 100.97 -0.910647 -0.26349 0
M  V30 1085 H 100.676 -3.16587 -1.53184 0
M  V30 1086 H 100.55 -2.25306 -3.02518 0
M  V30 1087 H 102.937 -1.34473 -2.6268 0
M  V30 1088 H 103.018 -2.2925 -1.13482 0
M  V30 1089 H 102.662 -4.42359 -2.49562 0
M  V30 1090 H 102.592 -3.4451 -3.98272 0
M  V30 1091 H 105.083 -2.76337 -2.57771 0
M  V30 1092 H 105.396 -6.05904 -4.79687 0
M  V30 1093 H 103.741 -5.44475 -4.3194 0
M  V30 1094 H 106.932 -3.47987 -3.13086 0
M  V30 1095 H 107.105 -4.98258 -4.14298 0
M  V30 1096 N 100.511 1.16574 -1.06058 0
M  V30 1097 C 101.927 1.3904 -0.783585 0
M  V30 1098 C 102.127 1.91784 0.618145 0
M  V30 1099 O 101.183 2.11511 1.37911 0
M  V30 1100 C 102.496 2.37329 -1.84649 0
M  V30 1101 C 104.044 2.51018 -1.86973 0
M  V30 1102 C 104.519 3.52588 -2.92311 0
M  V30 1103 N 106.01 3.60113 -2.91329 0
M  V30 1104 C 106.745 4.38486 -3.69482 0
M  V30 1105 N 106.241 5.20302 -4.57447 0
M  V30 1106 N 108.034 4.33446 -3.57885 0
M  V30 1107 H 100.185 0.806725 -1.96483 0
M  V30 1108 H 102.448 0.417117 -0.851303 0
M  V30 1109 H 102.154 2.05663 -2.85299 0
M  V30 1110 H 102.028 3.36946 -1.6955 0
M  V30 1111 H 104.415 2.81989 -0.869827 0
M  V30 1112 H 104.496 1.51445 -2.0615 0
M  V30 1113 H 104.14 3.22354 -3.92492 0
M  V30 1114 H 104.07 4.51886 -2.70383 0
M  V30 1115 H 106.561 3.01707 -2.27555 0
M  V30 1116 H 106.874 5.77311 -5.13743 0
M  V30 1117 H 105.219 5.19653 -4.61503 0
M  V30 1118 H 108.41 3.68586 -2.88551 0
M  V30 1119 H 108.583 4.94279 -4.19037 0
M  V30 1120 N 101.989 0.842826 1.3317 0
M  V30 1121 C 102.899 0.281444 2.32906 0
M  V30 1122 C 103.915 -0.594587 1.63526 0
M  V30 1123 O 105.091 -0.49777 1.95152 0
M  V30 1124 C 102.156 -0.530929 3.42611 0
M  V30 1125 C 101.217 0.369843 4.27704 0
M  V30 1126 C 100.45 -0.403853 5.3217 0
M  V30 1127 O 100.673 -1.63513 5.46461 0
M  V30 1128 O 99.6069 0.224199 6.01482 0
M  V30 1129 H 103.433 1.10744 2.82789 0
M  V30 1130 H 101.018 0.60545 1.36582 0
M  V30 1131 H 102.9 -0.992437 4.09547 0
M  V30 1132 H 101.575 -1.33392 2.94938 0
M  V30 1133 H 100.482 0.879275 3.6362 0
M  V30 1134 H 101.815 1.13771 4.78871 0
M  V30 1135 N 103.467 -1.45747 0.599634 0
M  V30 1136 C 104.695 -2.06668 0.0978551 0
M  V30 1137 C 105.11 -1.44562 -1.21439 0
M  V30 1138 O 104.467 -0.556923 -1.73795 0
M  V30 1139 C 104.518 -3.61456 -0.0567044 0
M  V30 1140 O 104.239 -4.21242 1.20361 0
M  V30 1141 C 105.74 -4.39345 -0.590869 0
M  V30 1142 H 102.96 -0.667825 0.0651943 0
M  V30 1143 H 105.504 -1.87115 0.82511 0
M  V30 1144 H 103.659 -3.80378 -0.734251 0
M  V30 1145 H 104.073 -5.14323 1.02821 0
M  V30 1146 H 105.547 -5.48182 -0.648131 0
M  V30 1147 H 106.024 -4.08568 -1.61147 0
M  V30 1148 H 106.63 -4.25268 0.0523679 0
M  V30 1149 N 104.945 -0.338344 -1.53925 0
M  V30 1150 C 105.855 0.529421 -2.28548 0
M  V30 1151 C 106.871 1.11645 -1.3346 0
M  V30 1152 O 108.047 1.13325 -1.66492 0
M  V30 1153 C 105.112 1.66713 -3.03987 0
M  V30 1154 C 104.173 1.11041 -4.14691 0
M  V30 1155 C 103.406 2.19389 -4.86522 0
M  V30 1156 O 103.629 3.40013 -4.57982 0
M  V30 1157 O 102.563 1.83976 -5.73094 0
M  V30 1158 H 106.389 -0.0770399 -3.03602 0
M  V30 1159 H 103.974 -0.103555 -1.49041 0
M  V30 1160 H 105.856 2.32918 -3.5118 0
M  V30 1161 H 104.531 2.25949 -2.31794 0
M  V30 1162 H 103.438 0.413024 -3.71813 0
M  V30 1163 H 104.771 0.562975 -4.8897 0
M  V30 1164 N 106.423 1.57458 -0.0668435 0
M  V30 1165 C 107.839 1.56947 0.289772 0
M  V30 1166 C 108.039 1.07584 1.70376 0
M  V30 1167 O 107.095 0.739486 2.41429 0
M  V30 1168 C 108.408 3.0052 0.103943 0
M  V30 1169 C 109.956 3.12517 0.173857 0
M  V30 1170 C 110.431 4.57997 0.0163682 0
M  V30 1171 N 111.922 4.63144 0.0721352 0
M  V30 1172 C 112.657 5.73394 -0.0253794 0
M  V30 1173 N 112.153 6.92576 -0.176133 0
M  V30 1174 N 113.946 5.62091 0.0313305 0
M  V30 1175 H 106.097 1.87863 -0.991027 0
M  V30 1176 H 108.36 0.86583 -0.38606 0
M  V30 1177 H 108.066 3.40729 -0.871572 0
M  V30 1178 H 107.94 3.67304 0.858366 0
M  V30 1179 H 110.327 2.72197 1.13985 0
M  V30 1180 H 110.408 2.48381 -0.611586 0
M  V30 1181 H 110.052 4.99005 -0.946374 0
M  V30 1182 H 109.982 5.20158 0.821153 0
M  V30 1183 H 112.473 3.77436 0.187263 0
M  V30 1184 H 112.786 7.72418 -0.242821 0
M  V30 1185 H 111.131 6.94678 -0.211429 0
M  V30 1186 H 114.322 4.67867 0.147773 0
M  V30 1187 H 114.495 6.47982 -0.048121 0
M  V30 1188 N 107.901 -0.206675 1.56239 0
M  V30 1189 C 108.833 -1.27997 1.9013 0
M  V30 1190 C 109.846 -1.42299 0.790883 0
M  V30 1191 O 111.035 -1.42931 1.06925 0
M  V30 1192 C 108.135 -2.65368 2.10792 0
M  V30 1193 C 107.308 -2.72824 3.41886 0
M  V30 1194 C 106.367 -3.9131 3.51799 0
M  V30 1195 O 105.393 -3.78953 4.24716 0
M  V30 1196 N 106.595 -5.06265 2.84035 0
M  V30 1197 H 109.36 -0.992444 2.82791 0
M  V30 1198 H 106.921 -0.396652 1.56966 0
M  V30 1199 H 108.913 -3.43039 2.14724 0
M  V30 1200 H 107.483 -2.86657 1.24685 0
M  V30 1201 H 106.703 -1.81515 3.49923 0
M  V30 1202 H 107.991 -2.74786 4.28217 0
M  V30 1203 H 107.389 -5.19203 2.246 0
M  V30 1204 H 105.946 -5.81925 2.93609 0
M  V30 1205 N 109.379 -1.50304 -0.473955 0
M  V30 1206 C 110.625 -1.62358 -1.22521 0
M  V30 1207 C 110.98 -0.318555 -1.89745 0
M  V30 1208 O 110.273 0.683315 -1.79001 0
M  V30 1209 C 110.467 -2.73938 -2.29549 0
M  V30 1210 C 110.296 -4.15165 -1.72825 0
M  V30 1211 C 109.066 -4.81604 -1.52924 0
M  V30 1212 C 111.264 -4.99503 -1.22481 0
M  V30 1213 N 109.246 -6.07056 -0.91413 0
M  V30 1214 C 110.617 -6.15655 -0.732743 0
M  V30 1215 C 112.672 -4.85299 -1.11308 0
M  V30 1216 C 111.375 -7.19164 -0.139976 0
M  V30 1217 C 113.401 -5.88982 -0.534258 0
M  V30 1218 C 112.763 -7.0438 -0.0525562 0
M  V30 1219 H 108.862 -0.648286 -0.437321 0
M  V30 1220 H 111.446 -1.87413 -0.527692 0
M  V30 1221 H 109.617 -2.50611 -2.9673 0
M  V30 1222 H 111.349 -2.75366 -2.96573 0
M  V30 1223 H 108.104 -4.3885 -1.78067 0
M  V30 1224 H 108.528 -6.74108 -0.625071 0
M  V30 1225 H 113.17 -3.96369 -1.47144 0
M  V30 1226 H 110.888 -8.07771 0.230591 0
M  V30 1227 H 114.474 -5.80055 -0.450219 0
M  V30 1228 H 113.354 -7.83238 0.388324 0
M  V30 1229 N 110.857 0.726932 -1.39834 0
M  V30 1230 C 111.787 1.85405 -1.41941 0
M  V30 1231 C 112.768 1.67751 -0.281728 0
M  V30 1232 O 113.953 1.8795 -0.488717 0
M  V30 1233 C 111.083 3.23243 -1.2701 0
M  V30 1234 C 110.037 3.55549 -2.38262 0
M  V30 1235 C 109.363 4.9241 -2.08415 0
M  V30 1236 C 110.663 3.577 -3.80589 0
M  V30 1237 H 112.357 1.83899 -2.36266 0
M  V30 1238 H 109.903 0.883349 -1.13723 0
M  V30 1239 H 111.856 4.01775 -1.27103 0
M  V30 1240 H 110.58 3.25296 -0.291564 0
M  V30 1241 H 109.239 2.79351 -2.37399 0
M  V30 1242 H 108.887 4.91052 -1.0898 0
M  V30 1243 H 108.587 5.14992 -2.82943 0
M  V30 1244 H 110.111 5.73289 -2.10171 0
M  V30 1245 H 111.525 4.26293 -3.83337 0
M  V30 1246 H 109.922 3.91804 -4.54543 0
M  V30 1247 H 110.992 2.57328 -4.10987 0
M  V30 1248 N 112.336 1.25143 0.95797 0
M  V30 1249 C 113.585 1.0909 1.69654 0
M  V30 1250 C 113.898 -0.368548 1.92097 0
M  V30 1251 O 115.104 -0.649455 2.63618 0
M  V30 1252 C 113.56 1.90395 3.05414 0
M  V30 1253 C 113.168 3.4081 2.90779 0
M  V30 1254 C 114.912 1.82901 3.83076 0
M  V30 1255 C 112.819 4.14423 4.21909 0
M  V30 1256 H 111.749 0.404625 0.636235 0
M  V30 1257 H 114.4 1.4931 1.06672 0
M  V30 1258 H 112.782 1.42996 3.69281 0
M  V30 1259 H 113.956 3.95859 2.35865 0
M  V30 1260 H 112.271 3.49361 2.26575 0
M  V30 1261 H 114.868 2.35196 4.80195 0
M  V30 1262 H 115.211 0.796224 4.08615 0
M  V30 1263 H 115.744 2.28033 3.25954 0
M  V30 1264 H 112.483 5.18102 4.01561 0
M  V30 1265 H 112.003 3.64159 4.76601 0
M  V30 1266 H 113.682 4.21956 4.90471 0
M  V30 1267 N 113.814 -1.1601 1.06675 0
M  V30 1268 C 115.23 -1.38622 0.790948 0
M  V30 1269 C 115.43 -1.92109 -0.607965 0
M  V30 1270 O 114.486 -2.12239 -1.36787 0
M  V30 1271 C 115.799 -2.36347 1.85905 0
M  V30 1272 C 117.347 -2.50023 1.88301 0
M  V30 1273 C 117.822 -3.51033 2.94176 0
M  V30 1274 N 119.313 -3.58563 2.93235 0
M  V30 1275 C 120.048 -4.36521 3.71803 0
M  V30 1276 N 119.544 -5.17869 4.602 0
M  V30 1277 N 121.337 -4.31541 3.60178 0
M  V30 1278 H 113.488 -0.796294 1.96908 0
M  V30 1279 H 115.751 -0.412597 0.853503 0
M  V30 1280 H 115.457 -2.04147 2.86386 0
M  V30 1281 H 115.331 -3.36042 1.71334 0
M  V30 1282 H 117.718 -2.81524 0.884769 0
M  V30 1283 H 117.799 -1.5035 2.06951 0
M  V30 1284 H 117.443 -3.20268 3.94196 0
M  V30 1285 H 117.373 -4.50445 2.72776 0
M  V30 1286 H 119.864 -3.00496 2.29152 0
M  V30 1287 H 120.177 -5.74578 5.16797 0
M  V30 1288 H 118.522 -5.17199 4.64253 0
M  V30 1289 H 121.713 -3.67051 2.90502 0
M  V30 1290 H 121.886 -4.9205 4.21653 0
M  V30 1291 N 115.292 -0.849877 -1.32721 0
M  V30 1292 C 116.708 -0.539102 -1.50219 0
M  V30 1293 C 116.908 0.931271 -1.78689 0
M  V30 1294 O 115.964 1.71455 -1.85363 0
M  V30 1295 C 117.277 -1.42196 -2.64954 0
M  V30 1296 C 118.825 -1.42189 -2.78839 0
M  V30 1297 C 119.3 -2.28985 -3.96648 0
M  V30 1298 N 120.791 -2.26754 -4.03902 0
M  V30 1299 C 121.526 -2.90644 -4.94281 0
M  V30 1300 N 121.022 -3.63629 -5.897 0
M  V30 1301 N 122.815 -2.80057 -4.87365 0
M  V30 1302 H 114.966 -1.80156 -1.12506 0
M  V30 1303 H 117.229 -0.769217 -0.554085 0
M  V30 1304 H 116.935 -2.46733 -2.50631 0
M  V30 1305 H 116.809 -1.10591 -3.60624 0
M  V30 1306 H 119.196 -0.38419 -2.92588 0
M  V30 1307 H 119.277 -1.77807 -1.83898 0
M  V30 1308 H 118.921 -3.32819 -3.83658 0
M  V30 1309 H 118.851 -1.90702 -4.90857 0
M  V30 1310 H 121.342 -1.73688 -3.3562 0
M  V30 1311 H 121.655 -4.09558 -6.55349 0
M  V30 1312 H 120 -3.67737 -5.89741 0
M  V30 1313 H 123.191 -2.22593 -4.11789 0
M  V30 1314 H 123.364 -3.30132 -5.57599 0
M  V30 1315 N 116.77 1.45427 -0.607355 0
M  V30 1316 C 118.186 1.57283 -0.270985 0
M  V30 1317 C 118.386 1.59875 1.22647 0
M  V30 1318 O 117.442 1.52893 2.00948 0
M  V30 1319 C 118.755 2.85566 -0.941952 0
M  V30 1320 C 120.303 2.9924 -0.917849 0
M  V30 1321 C 120.778 4.30293 -1.56882 0
M  V30 1322 N 122.269 4.37051 -1.5343 0
M  V30 1323 C 123.004 5.37123 -2.00715 0
M  V30 1324 N 122.5 6.43734 -2.56084 0
M  V30 1325 N 124.293 5.28479 -1.91484 0
M  V30 1326 H 116.444 1.41988 -1.57966 0
M  V30 1327 H 118.707 0.67885 -0.661715 0
M  V30 1328 H 118.413 2.8955 -1.99633 0
M  V30 1329 H 118.287 3.74322 -0.465096 0
M  V30 1330 H 120.674 2.94822 0.127984 0
M  V30 1331 H 120.755 2.11895 -1.43297 0
M  V30 1332 H 120.399 4.35469 -2.61398 0
M  V30 1333 H 120.329 5.16454 -1.02873 0
M  V30 1334 H 122.82 3.60615 -1.12982 0
M  V30 1335 H 123.133 7.16341 -2.89958 0
M  V30 1336 H 121.478 6.44485 -2.60122 0
M  V30 1337 H 124.669 4.44098 -1.47967 0
M  V30 1338 H 124.842 6.0632 -2.28648 0
M  V30 1339 N 118.248 0.346503 1.53744 0
M  V30 1340 C 119.664 -0.00530975 1.59599 0
M  V30 1341 C 119.864 -1.48465 1.36236 0
M  V30 1342 O 118.92 -2.24376 1.15808 0
M  V30 1343 C 120.233 0.433516 2.97559 0
M  V30 1344 C 121.781 0.386111 3.10609 0
M  V30 1345 C 122.256 0.800451 4.50951 0
M  V30 1346 N 123.747 0.754753 4.5701 0
M  V30 1347 C 124.482 1.04727 5.63755 0
M  V30 1348 N 123.978 1.4081 6.7834 0
M  V30 1349 N 125.771 0.971316 5.53644 0
M  V30 1350 H 117.922 1.31009 1.67184 0
M  V30 1351 H 120.185 0.534242 0.783128 0
M  V30 1352 H 119.891 1.46509 3.19731 0
M  V30 1353 H 119.765 -0.189753 3.76722 0
M  V30 1354 H 122.152 -0.636295 2.88158 0
M  V30 1355 H 122.233 1.04462 2.33498 0
M  V30 1356 H 121.877 1.82088 4.74137 0
M  V30 1357 H 121.807 0.119386 5.26465 0
M  V30 1358 H 124.298 0.488662 3.74727 0
M  V30 1359 H 124.611 1.61607 7.55714 0
M  V30 1360 H 122.956 1.44657 6.79779 0
M  V30 1361 H 126.147 0.688748 4.63005 0
M  V30 1362 H 126.32 1.20263 6.36742 0
M  V30 1363 N 119.726 -1.57421 0.075193 0
M  V30 1364 C 120.951 -1.98364 -0.605515 0
M  V30 1365 C 121.376 -0.953383 -1.62149 0
M  V30 1366 O 120.734 0.0806053 -1.81121 0
M  V30 1367 C 120.782 -3.38332 -1.24756 0
M  V30 1368 O 119.886 -3.37959 -2.36342 0
M  V30 1369 H 119.227 -0.645553 -0.155428 0
M  V30 1370 H 121.757 -2.04044 0.150714 0
M  V30 1371 H 121.767 -3.75591 -1.5936 0
M  V30 1372 H 120.442 -4.12846 -0.503129 0
M  V30 1373 H 119.019 -3.12474 -2.03506 0
M  V30 1374 N 121.204 0.198386 -1.56346 0
M  V30 1375 C 122.453 0.917451 -1.79627 0
M  V30 1376 C 122.766 1.8456 -0.64784 0
M  V30 1377 O 123.972 2.60504 -0.764859 0
M  V30 1378 C 122.428 1.68175 -3.18191 0
M  V30 1379 C 122.036 0.798589 -4.40825 0
M  V30 1380 C 123.78 2.39065 -3.50782 0
M  V30 1381 C 121.687 1.56157 -5.70411 0
M  V30 1382 H 120.617 0.346317 -0.669762 0
M  V30 1383 H 123.268 0.170801 -1.82703 0
M  V30 1384 H 121.65 2.47216 -3.09354 0
M  V30 1385 H 122.824 0.0470665 -4.60776 0
M  V30 1386 H 121.139 0.200686 -4.15916 0
M  V30 1387 H 123.736 2.96692 -4.44835 0
M  V30 1388 H 124.079 3.13091 -2.74371 0
M  V30 1389 H 124.612 1.66993 -3.61052 0
M  V30 1390 H 121.351 0.864142 -6.49779 0
M  V30 1391 H 120.871 2.2871 -5.54483 0
M  V30 1392 H 122.55 2.11622 -6.11412 0
M  V30 1393 N 122.682 1.50554 0.465978 0
M  V30 1394 C 123.612 1.72722 1.57128 0
M  V30 1395 C 124.593 0.576294 1.6004 0
M  V30 1396 O 125.778 0.81598 1.76225 0
M  V30 1397 C 122.908 1.82605 2.95419 0
M  V30 1398 C 121.862 2.97835 3.07373 0
M  V30 1399 C 121.188 2.92867 4.47363 0
M  V30 1400 C 122.488 4.38265 2.84114 0
M  V30 1401 H 124.182 2.65267 1.38829 0
M  V30 1402 H 121.728 1.2765 0.666441 0
M  V30 1403 H 123.681 1.96698 3.72677 0
M  V30 1404 H 122.405 0.866858 3.14886 0
M  V30 1405 H 121.064 2.83401 2.3255 0
M  V30 1406 H 120.712 1.94783 4.63755 0
M  V30 1407 H 120.412 3.70227 4.56296 0
M  V30 1408 H 121.936 3.09015 5.26633 0
M  V30 1409 H 123.35 4.53198 3.51118 0
M  V30 1410 H 121.747 5.17115 3.04487 0
M  V30 1411 H 122.817 4.50281 1.7993 0
M  V30 1412 N 124.16 -0.719506 1.40217 0
M  V30 1413 C 125.407 -1.47933 1.38283 0
M  V30 1414 C 125.735 -1.94493 -0.0161536 0
M  V30 1415 O 124.99 -1.68224 -0.999956 0
M  V30 1416 C 125.289 -2.72271 2.31524 0
M  V30 1417 C 124.955 -2.44496 3.78857 0
M  V30 1418 C 123.617 -2.36631 4.18998 0
M  V30 1419 C 125.969 -2.21104 4.71977 0
M  V30 1420 C 123.297 -2.03437 5.503 0
M  V30 1421 C 125.649 -1.89423 6.03574 0
M  V30 1422 C 124.313 -1.80038 6.42762 0
M  V30 1423 H 123.583 -0.541325 0.506012 0
M  V30 1424 H 126.23 -0.824502 1.72842 0
M  V30 1425 H 124.535 -3.42572 1.90137 0
M  V30 1426 H 126.232 -3.30348 2.27313 0
M  V30 1427 H 122.822 -2.51503 3.47051 0
M  V30 1428 H 127.006 -2.26139 4.41786 0
M  V30 1429 H 122.262 -1.94705 5.79569 0
M  V30 1430 H 126.436 -1.70336 6.75247 0
M  V30 1431 H 124.063 -1.54083 7.44421 0
M  V30 1432 N 125.638 -1.25649 -0.95132 0
M  V30 1433 C 127.049 -1.09654 -1.51106 0
M  V30 1434 C 127.4 0.326615 -1.93462 0
M  V30 1435 O 126.525 1.21697 -1.78938 0
M  V30 1436 C 127.12 -1.98437 -2.74605 0
M  V30 1437 C 125.679 -1.86618 -3.2688 0
M  V30 1438 C 124.826 -1.9239 -1.99703 0
M  V30 1439 H 127.777 -1.38887 -0.767865 0
M  V30 1440 H 127.798 -1.5263 -3.48546 0
M  V30 1441 H 127.31 -3.02009 -2.43746 0
M  V30 1442 H 125.411 -0.859421 -3.62553 0
M  V30 1443 H 125.524 -2.71607 -3.94673 0
M  V30 1444 H 123.888 -1.36317 -2.15151 0
M  V30 1445 H 124.671 -2.97573 -1.71188 0
M  V30 1446 N 127.117 1.15442 -1.07289 0
M  V30 1447 C 128.065 2.22225 -0.686952 0
M  V30 1448 C 129.059 1.66688 0.30193 0
M  V30 1449 O 130.265 1.79236 0.165712 0
M  V30 1450 H 126.64 0.723783 -0.204064 0
M  V30 1451 H 128.611 2.52056 -1.5972 0
M  V30 1452 C 127.36 3.47556 -0.100149 0
M  V30 1453 H 126.683 3.90612 -0.852211 0
M  V30 1454 H 128.123 4.23794 0.132235 0
M  V30 1455 C 126.582 3.16337 1.159 0
M  V30 1456 O 127.112 3.33074 2.24555 0
M  V30 1457 N 125.318 2.70385 1.06491 0
M  V30 1458 H 124.865 2.56966 0.180668 0
M  V30 1459 H 124.823 2.49871 1.90819 0
M  V30 1460 N 128.595 0.856903 1.32268 0
M  V30 1461 C 129.843 0.460474 1.96784 0
M  V30 1462 C 130.164 -0.987701 1.68135 0
M  V30 1463 O 129.434 -1.69058 0.989765 0
M  V30 1464 H 128.014 0.167289 0.728027 0
M  V30 1465 H 130.676 1.09383 1.61312 0
M  V30 1466 H 129.772 0.60739 3.06133 0
M  V30 1467 N 130.073 -1.45103 0.615059 0
M  V30 1468 C 131.319 -2.02483 0.113347 0
M  V30 1469 C 131.652 -1.48146 -1.25564 0
M  V30 1470 O 130.927 -0.659104 -1.82992 0
M  V30 1471 C 131.21 -3.60005 0.0825278 0
M  V30 1472 C 131.063 -4.2466 1.48271 0
M  V30 1473 C 132.382 -4.35972 -0.601401 0
M  V30 1474 H 129.501 -0.735764 0.0426632 0
M  V30 1475 H 132.143 -1.72868 0.788461 0
M  V30 1476 H 130.293 -3.85367 -0.492378 0
M  V30 1477 H 131.965 -4.10458 2.10527 0
M  V30 1478 H 130.208 -3.82772 2.04127 0
M  V30 1479 H 130.879 -5.336 1.41332 0
M  V30 1480 H 133.355 -4.15947 -0.112666 0
M  V30 1481 H 132.231 -5.45697 -0.592097 0
M  V30 1482 H 132.492 -4.09391 -1.66887 0
M  V30 1483 N 131.551 -0.354651 -1.53558 0
M  V30 1484 C 132.498 0.496968 -2.25386 0
M  V30 1485 C 133.468 1.0865 -1.25636 0
M  V30 1486 O 134.653 1.12104 -1.54394 0
M  V30 1487 C 131.793 1.63637 -3.03837 0
M  V30 1488 C 130.906 1.07307 -4.18461 0
M  V30 1489 C 130.041 2.18068 -4.84376 0
M  V30 1490 C 129.08 1.59147 -5.91049 0
M  V30 1491 N 128.217 2.63695 -6.50699 0
M  V30 1492 H 133.057 -0.122075 -2.9775 0
M  V30 1493 H 130.594 -0.0720154 -1.46924 0
M  V30 1494 H 132.552 2.30734 -3.47589 0
M  V30 1495 H 131.182 2.22623 -2.33749 0
M  V30 1496 H 130.234 0.292708 -3.79272 0
M  V30 1497 H 131.546 0.602193 -4.95152 0
M  V30 1498 H 130.7 2.93007 -5.31255 0
M  V30 1499 H 129.439 2.68504 -4.07133 0
M  V30 1500 H 128.444 0.827175 -5.43542 0
M  V30 1501 H 129.669 1.09549 -6.70206 0
M  V30 1502 H 127.615 3.13365 -5.76315 0
M  V30 1503 H 127.532 2.21263 -7.22896 0
M  V30 1504 H 128.8 3.3837 -7.02229 0
M  V30 1505 N 133.029 1.57378 -0.0835403 0
M  V30 1506 C 134.278 1.93106 0.582498 0
M  V30 1507 C 134.591 0.96651 1.70053 0
M  V30 1508 O 135.797 1.21705 2.42693 0
M  V30 1509 C 134.253 3.43076 1.08751 0
M  V30 1510 C 133.861 4.48 -0.000146404 0
M  V30 1511 C 135.605 3.87785 1.72694 0
M  V30 1512 C 133.512 5.89113 0.519568 0
M  V30 1513 H 132.442 0.720775 0.221358 0
M  V30 1514 H 135.093 1.82821 -0.157675 0
M  V30 1515 H 133.475 3.48474 1.88101 0
M  V30 1516 H 134.649 4.54233 -0.775199 0
M  V30 1517 H 132.964 4.1283 -0.54406 0
M  V30 1518 H 135.561 4.90604 2.1263 0
M  V30 1519 H 135.904 3.25796 2.59158 0
M  V30 1520 H 136.437 3.8504 0.999457 0
M  V30 1521 H 133.176 6.54775 -0.308186 0
M  V30 1522 H 132.696 5.86376 1.26188 0
M  V30 1523 H 134.375 6.39346 0.992237 0
M  V30 1524 N 134.507 -0.190092 1.56449 0
M  V30 1525 C 135.747 -0.916414 1.82705 0
M  V30 1526 C 136.111 -1.80235 0.661763 0
M  V30 1527 O 137.312 -2.56484 0.80433 0
M  V30 1528 C 135.583 -1.70691 3.14005 0
M  V30 1529 S 137.142 -2.48457 3.61683 0
M  V30 1530 H 133.96 -0.307281 0.64117 0
M  V30 1531 H 136.562 -0.179433 1.94675 0
M  V30 1532 H 135.266 -1.04677 3.96826 0
M  V30 1533 H 134.797 -2.48562 3.04927 0
M  V30 1534 H 136.812 -3.72756 3.27517 0
M  V30 1535 N 135.985 -1.50799 -0.457987 0
M  V30 1536 C 137.396 -1.55152 -1.0385 0
M  V30 1537 C 137.747 -0.362719 -1.92818 0
M  V30 1538 O 136.872 0.522915 -2.09987 0
M  V30 1539 C 137.467 -2.81173 -1.89017 0
M  V30 1540 C 136.026 -2.88164 -2.42154 0
M  V30 1541 C 135.173 -2.49591 -1.20829 0
M  V30 1542 H 138.124 -1.56874 -0.240068 0
M  V30 1543 H 138.145 -2.63769 -2.74238 0
M  V30 1544 H 137.657 -3.67677 -1.24238 0
M  V30 1545 H 135.758 -2.06042 -3.10447 0
M  V30 1546 H 135.871 -3.91356 -2.76364 0
M  V30 1547 H 134.235 -2.02322 -1.54719 0
M  V30 1548 H 135.018 -3.38418 -0.576927 0
M  V30 1549 N 137.463 0.71206 -1.40597 0
M  V30 1550 C 138.74 1.46536 -1.29563 0
M  V30 1551 C 139.12 2.10931 0.0844217 0
M  V30 1552 O 138.468 2.00418 1.0975 0
M  V30 1553 C 138.678 2.49821 -2.43701 0
M  V30 1554 C 140.026 3.15551 -2.841 0
M  V30 1555 O 141.05 2.60142 -2.4332 0
M  V30 1556 O 139.909 4.15867 -3.54566 0
M  V30 1557 H 137.003 0.651801 -0.509004 0
M  V30 1558 H 139.549 0.743935 -1.52524 0
M  V30 1559 H 138.321 2.00778 -3.35863 0
M  V30 1560 H 137.944 3.29495 -2.22528 0
M  V30 1561 N 138.941 1.26152 0.944643 0
M  V30 1562 C 139.851 1.09176 2.07648 0
M  V30 1563 C 140.867 0.0261935 1.7398 0
M  V30 1564 O 142.043 0.229208 2.00091 0
M  V30 1565 C 139.108 0.722915 3.39079 0
M  V30 1566 C 138.169 1.86752 3.86552 0
M  V30 1567 C 137.402 1.51617 5.11711 0
M  V30 1568 O 137.625 0.416331 5.68879 0
M  V30 1569 O 136.559 2.34975 5.54139 0
M  V30 1570 H 140.385 2.0412 2.24875 0
M  V30 1571 H 137.97 1.05182 1.061 0
M  V30 1572 H 139.852 0.529787 4.18056 0
M  V30 1573 H 138.527 -0.197159 3.23099 0
M  V30 1574 H 137.434 2.11558 3.08535 0
M  V30 1575 H 138.767 2.76719 4.07047 0
M  V30 1576 N 140.419 -1.14872 1.07899 0
M  V30 1577 C 141.644 -1.90202 0.826926 0
M  V30 1578 C 142.069 -1.77774 -0.614664 0
M  V30 1579 O 141.427 -1.11431 -1.43013 0
M  V30 1580 C 141.475 -3.38352 1.24702 0
M  V30 1581 O 140.579 -4.10497 0.39575 0
M  V30 1582 H 139.92 -0.591968 0.300782 0
M  V30 1583 H 142.45 -1.45437 1.43907 0
M  V30 1584 H 142.46 -3.89156 1.22563 0
M  V30 1585 H 141.135 -3.46715 2.29698 0
M  V30 1586 H 139.712 -3.69796 0.480117 0
M  V30 1587 N 141.898 -0.863906 -1.31812 0
M  V30 1588 C 143.144 -0.472535 -1.97218 0
M  V30 1589 C 143.477 0.971394 -1.68159 0
M  V30 1590 O 142.752 1.68309 -0.974798 0
M  V30 1591 C 143.035 -0.723054 -3.52766 0
M  V30 1592 C 142.888 -2.21608 -3.91421 0
M  V30 1593 C 144.207 -0.185522 -4.39709 0
M  V30 1594 H 141.326 -0.173158 -0.71637 0
M  V30 1595 H 143.968 -1.08403 -1.56041 0
M  V30 1596 H 142.118 -0.202577 -3.87971 0
M  V30 1597 H 143.79 -2.80334 -3.66347 0
M  V30 1598 H 142.033 -2.691 -3.40246 0
M  V30 1599 H 142.704 -2.34203 -4.99853 0
M  V30 1600 H 145.18 -0.630726 -4.11292 0
M  V30 1601 H 144.056 -0.390306 -5.47511 0
M  V30 1602 H 144.317 0.912229 -4.32586 0
M  V30 1603 N 143.376 1.44774 -0.622745 0
M  V30 1604 C 144.339 2.29069 0.0774015 0
M  V30 1605 C 145.339 1.4059 0.780461 0
M  V30 1606 O 146.529 1.62551 0.626322 0
M  V30 1607 C 143.661 3.21974 1.12006 0
M  V30 1608 H 144.854 2.92459 -0.663901 0
M  V30 1609 H 142.407 1.51548 -0.382486 0
M  V30 1610 H 143.142 2.63417 1.89162 0
M  V30 1611 H 142.927 3.87168 0.619951 0
M  V30 1612 H 144.417 3.85318 1.60995 0
M  V30 1613 N 144.854 0.36279 1.53368 0
M  V30 1614 C 145.764 -0.492994 2.29362 0
M  V30 1615 C 146.78 -1.09507 1.35219 0
M  V30 1616 O 147.956 -1.10662 1.68273 0
M  V30 1617 C 145.021 -1.61855 3.066 0
M  V30 1618 C 144.082 -1.04429 4.16405 0
M  V30 1619 C 143.315 -2.11621 4.89951 0
M  V30 1620 O 143.538 -3.32684 4.63333 0
M  V30 1621 O 142.472 -1.74835 5.75948 0
M  V30 1622 H 146.298 0.125331 3.03441 0
M  V30 1623 H 143.883 0.127253 1.48857 0
M  V30 1624 H 145.765 -2.27302 3.54841 0
M  V30 1625 H 144.44 -2.22233 2.3536 0
M  V30 1626 H 143.347 -0.353819 3.72423 0
M  V30 1627 H 144.68 -0.485113 4.89804 0
M  V30 1628 N 146.332 -1.57332 0.0918853 0
M  V30 1629 C 147.295 -2.12708 -0.85369 0
M  V30 1630 C 148.295 -1.05561 -1.213 0
M  V30 1631 O 149.485 -1.31461 -1.14296 0
M  V30 1632 C 146.617 -2.64503 -2.15061 0
M  V30 1633 H 147.81 -2.97573 -0.3729 0
M  V30 1634 H 145.363 -1.55509 -0.157072 0
M  V30 1635 H 146.098 -1.83149 -2.67632 0
M  V30 1636 H 145.883 -3.4284 -1.90272 0
M  V30 1637 H 147.373 -3.07351 -2.82711 0
M  V30 1638 N 147.81 0.181792 -1.56548 0
M  V30 1639 C 149.056 0.901431 -1.81665 0
M  V30 1640 C 149.389 1.82347 -0.668075 0
M  V30 1641 O 148.664 1.91669 0.330615 0
M  V30 1642 C 148.947 1.70618 -3.17115 0
M  V30 1643 C 148.8 0.807964 -4.42484 0
M  V30 1644 C 150.119 2.67605 -3.49393 0
M  V30 1645 H 147.238 0.32627 -0.660846 0
M  V30 1646 H 149.88 0.168134 -1.89255 0
M  V30 1647 H 148.03 2.33133 -3.10775 0
M  V30 1648 H 149.702 0.19649 -4.60881 0
M  V30 1649 H 147.945 0.115411 -4.33646 0
M  V30 1650 H 148.616 1.40632 -5.33785 0
M  V30 1651 H 151.092 2.15218 -3.56118 0
M  V30 1652 H 149.968 3.20985 -4.45264 0
M  V30 1653 H 150.229 3.47298 -2.73563 0
M  V30 1654 N 149.288 1.51039 0.449983 0
M  V30 1655 C 150.251 1.70863 1.5277 0
M  V30 1656 C 151.251 0.578846 1.5002 0
M  V30 1657 O 152.441 0.846213 1.52266 0
M  V30 1658 C 149.573 1.75341 2.9235 0
M  V30 1659 H 150.766 2.67034 1.36502 0
M  V30 1660 H 148.319 1.40838 0.677812 0
M  V30 1661 H 149.054 0.809383 3.14037 0
M  V30 1662 H 148.839 2.57436 2.95752 0
M  V30 1663 H 150.329 1.92559 3.70555 0
M  V30 1664 N 150.766 -0.704594 1.40972 0
M  V30 1665 C 151.714 -1.83994 1.42299 0
M  V30 1666 C 152.708 -1.66684 0.302111 0
M  V30 1667 O 153.914 -1.73655 0.473697 0
M  V30 1668 H 150.289 -0.606171 0.44504 0
M  V30 1669 H 152.26 -1.79992 2.38003 0
M  V30 1670 C 151.009 -3.21946 1.31323 0
M  V30 1671 H 150.332 -3.35878 2.16855 0
M  V30 1672 H 151.772 -4.01491 1.36311 0
M  V30 1673 C 150.231 -3.36891 0.0245977 0
M  V30 1674 O 150.761 -3.90687 -0.934153 0
M  V30 1675 N 148.967 -2.90559 -0.0485243 0
M  V30 1676 H 148.514 -2.46968 0.732419 0
M  V30 1677 H 148.472 -3.00937 -0.910171 0
M  V30 1678 N 152.244 -1.26651 -0.937939 0
M  V30 1679 C 153.194 -1.05156 -2.02302 0
M  V30 1680 C 154.178 0.0171233 -1.60891 0
M  V30 1681 O 155.37 -0.200213 -1.75864 0
M  V30 1682 C 152.499 -0.689962 -3.36295 0
M  V30 1683 C 151.585 -1.79626 -3.84181 0
M  V30 1684 N 151.976 -3.03422 -4.04684 0
M  V30 1685 C 150.274 -1.6806 -4.13124 0
M  V30 1686 C 150.975 -3.75345 -4.444 0
M  V30 1687 N 149.951 -3.03051 -4.51288 0
M  V30 1688 H 153.753 -1.99117 -2.1617 0
M  V30 1689 H 151.267 -1.17216 -1.12402 0
M  V30 1690 H 153.264 -0.517112 -4.13681 0
M  V30 1691 H 151.924 0.242139 -3.23796 0
M  V30 1692 H 152.935 -3.39293 -3.91281 0
M  V30 1693 H 149.612 -0.818629 -4.09396 0
M  V30 1694 H 151.002 -4.81691 -4.68427 0
M  V30 1695 N 153.722 1.14298 -1.08507 0
M  V30 1696 C 154.968 1.85633 -0.816581 0
M  V30 1697 C 155.301 1.82784 0.656021 0
M  V30 1698 O 154.576 1.25926 1.48233 0
M  V30 1699 C 154.859 3.34223 -1.34041 0
M  V30 1700 C 154.712 3.45639 -2.87843 0
M  V30 1701 C 156.031 4.29356 -0.9665 0
M  V30 1702 H 153.15 0.67402 -0.298104 0
M  V30 1703 H 155.792 1.34214 -1.34487 0
M  V30 1704 H 153.942 3.78144 -0.89104 0
M  V30 1705 H 155.614 3.10498 -3.41158 0
M  V30 1706 H 153.857 2.86817 -3.25451 0
M  V30 1707 H 154.528 4.50089 -3.19569 0
M  V30 1708 H 157.004 3.93457 -1.35391 0
M  V30 1709 H 155.88 5.3178 -1.3602 0
M  V30 1710 H 156.141 4.41919 0.126362 0
M  V30 1711 N 155.201 0.870884 1.31352 0
M  V30 1712 C 156.148 0.325425 2.28494 0
M  V30 1713 C 157.118 -0.576615 1.5577 0
M  V30 1714 O 158.303 -0.508059 1.83911 0
M  V30 1715 C 155.443 -0.466283 3.41935 0
M  V30 1716 C 154.556 0.463378 4.29508 0
M  V30 1717 C 153.691 -0.342544 5.30094 0
M  V30 1718 C 152.73 0.583486 6.09313 0
M  V30 1719 N 151.867 -0.186244 7.01853 0
M  V30 1720 H 156.707 1.15901 2.74538 0
M  V30 1721 H 154.244 0.58294 1.35056 0
M  V30 1722 H 156.202 -0.941085 4.06447 0
M  V30 1723 H 154.832 -1.26456 2.97 0
M  V30 1724 H 153.884 1.05663 3.65431 0
M  V30 1725 H 155.196 1.1734 4.84802 0
M  V30 1726 H 154.35 -0.879816 6.00287 0
M  V30 1727 H 153.089 -1.08585 4.75458 0
M  V30 1728 H 152.094 1.13251 5.3801 0
M  V30 1729 H 153.319 1.32566 6.66035 0
M  V30 1730 H 151.265 -0.912348 6.49625 0
M  V30 1731 H 151.182 0.464422 7.54572 0
M  V30 1732 H 152.45 -0.704716 7.76308 0
M  V30 1733 N 156.679 -1.44442 0.630414 0
M  V30 1734 C 157.909 -2.06115 0.141465 0
M  V30 1735 C 158.317 -1.47179 -1.1889 0
M  V30 1736 O 157.66 -0.588873 -1.74006 0
M  V30 1737 C 157.722 -3.59467 -0.0484355 0
M  V30 1738 C 157.386 -4.40864 1.20366 0
M  V30 1739 C 158.383 -4.74391 2.12719 0
M  V30 1740 C 156.068 -4.8125 1.43887 0
M  V30 1741 C 158.062 -5.47186 3.26904 0
M  V30 1742 C 155.749 -5.53795 2.5837 0
M  V30 1743 C 156.747 -5.86682 3.49705 0
M  V30 1744 O 156.435 -6.57749 4.62191 0
M  V30 1745 H 156.167 -0.671648 0.0765792 0
M  V30 1746 H 158.721 -1.86312 0.864695 0
M  V30 1747 H 156.951 -3.77758 -0.826803 0
M  V30 1748 H 158.64 -4.02909 -0.491849 0
M  V30 1749 H 159.406 -4.43728 1.95781 0
M  V30 1750 H 155.285 -4.55073 0.736853 0
M  V30 1751 H 158.829 -5.72773 3.98217 0
M  V30 1752 H 154.726 -5.83872 2.75251 0
M  V30 1753 H 155.494 -6.76217 4.61164 0
M  V30 1754 N 158.157 -0.370918 -1.53173 0
M  V30 1755 C 159.404 0.217102 -2.01333 0
M  V30 1756 C 159.732 1.48338 -1.25802 0
M  V30 1757 O 158.987 1.92698 -0.34146 0
M  V30 1758 C 159.286 0.549696 -3.53147 0
M  V30 1759 C 158.952 -0.622872 -4.46577 0
M  V30 1760 C 157.614 -0.944595 -4.71838 0
M  V30 1761 C 159.966 -1.40819 -5.01816 0
M  V30 1762 C 157.294 -2.05351 -5.49589 0
M  V30 1763 C 159.646 -2.50757 -5.80778 0
M  V30 1764 C 158.31 -2.83458 -6.04324 0
M  V30 1765 H 157.58 0.0794431 -0.736729 0
M  V30 1766 H 160.227 -0.504481 -1.84736 0
M  V30 1767 H 158.532 1.35237 -3.6772 0
M  V30 1768 H 160.229 1.017 -3.87889 0
M  V30 1769 H 156.819 -0.36209 -4.27068 0
M  V30 1770 H 161.003 -1.17289 -4.82242 0
M  V30 1771 H 156.259 -2.3108 -5.6605 0
M  V30 1772 H 160.433 -3.12022 -6.22588 0
M  V30 1773 H 158.06 -3.69508 -6.64355 0
M  V30 1774 N 159.635 1.57281 -0.100228 0
M  V30 1775 C 160.582 2.14305 0.856858 0
M  V30 1776 C 161.552 1.06296 1.27634 0
M  V30 1777 O 162.737 1.34109 1.35718 0
M  V30 1778 C 159.877 2.73184 2.10866 0
M  V30 1779 C 158.99 3.95442 1.73925 0
M  V30 1780 C 158.125 4.42468 2.93931 0
M  V30 1781 C 157.164 5.57303 2.5314 0
M  V30 1782 N 156.301 5.99158 3.65997 0
M  V30 1783 H 161.141 2.95772 0.363726 0
M  V30 1784 H 158.678 1.46139 0.167858 0
M  V30 1785 H 160.636 3.05442 2.84185 0
M  V30 1786 H 159.266 1.94437 2.57671 0
M  V30 1787 H 158.318 3.69464 0.905554 0
M  V30 1788 H 159.63 4.78769 1.39935 0
M  V30 1789 H 158.784 4.76537 3.75496 0
M  V30 1790 H 157.523 3.58052 3.31134 0
M  V30 1791 H 156.528 5.22857 1.70003 0
M  V30 1792 H 157.753 6.43471 2.17075 0
M  V30 1793 H 155.699 5.17687 4.02909 0
M  V30 1794 H 155.616 6.77295 3.35869 0
M  V30 1795 H 156.884 6.3786 4.48057 0
M  V30 1796 N 161.113 -0.173488 1.56642 0
M  V30 1797 C 162.359 -0.891784 1.8214 0
M  V30 1798 C 162.692 -1.8199 0.677736 0
M  V30 1799 O 161.967 -1.91842 -0.320446 0
M  V30 1800 C 162.25 -1.68933 3.18015 0
M  V30 1801 C 162.103 -0.784487 4.42906 0
M  V30 1802 C 163.422 -2.65748 3.50808 0
M  V30 1803 H 160.541 -0.322761 0.662567 0
M  V30 1804 H 163.183 -0.158095 1.89341 0
M  V30 1805 H 161.333 -2.31482 3.12007 0
M  V30 1806 H 163.005 -0.172046 4.60979 0
M  V30 1807 H 161.248 -0.0924117 4.33702 0
M  V30 1808 H 161.919 -1.37799 5.34524 0
M  V30 1809 H 164.395 -2.13327 3.57255 0
M  V30 1810 H 163.271 -3.18619 4.4696 0
M  V30 1811 H 163.532 -3.45842 2.75401 0
M  V30 1812 N 162.591 -1.51276 -0.441967 0
M  V30 1813 C 164.007 -1.39349 -0.778083 0
M  V30 1814 C 164.207 -0.472212 -1.95889 0
M  V30 1815 O 163.263 0.0743551 -2.5239 0
M  V30 1816 C 164.576 -2.81292 -1.0628 0
M  V30 1817 C 166.124 -2.9041 -1.16751 0
M  V30 1818 C 166.599 -4.33251 -1.48519 0
M  V30 1819 N 168.09 -4.36336 -1.55453 0
M  V30 1820 C 168.825 -5.43885 -1.81596 0
M  V30 1821 N 168.321 -6.61601 -2.05562 0
M  V30 1822 N 170.114 -5.3136 -1.8334 0
M  V30 1823 H 162.265 -2.09729 0.335774 0
M  V30 1824 H 164.528 -0.943925 0.0878028 0
M  V30 1825 H 164.234 -3.50678 -0.267905 0
M  V30 1826 H 164.108 -3.20334 -1.99163 0
M  V30 1827 H 166.495 -2.21225 -1.95304 0
M  V30 1828 H 166.576 -2.54871 -0.217801 0
M  V30 1829 H 166.22 -5.02984 -0.704958 0
M  V30 1830 H 166.15 -4.66299 -2.44689 0
M  V30 1831 H 168.641 -3.51466 -1.38853 0
M  V30 1832 H 168.954 -7.39361 -2.24867 0
M  V30 1833 H 167.299 -6.64725 -2.02894 0
M  V30 1834 H 170.49 -4.38382 -1.64132 0
M  V30 1835 H 170.663 -6.15258 -2.03377 0
M  V30 1836 N 164.069 0.697108 -1.41344 0
M  V30 1837 C 165.315 1.4593 -1.40827 0
M  V30 1838 C 165.648 1.94193 -0.0167098 0
M  V30 1839 O 164.923 1.69425 0.955263 0
M  V30 1840 C 165.206 2.67229 -2.41373 0
M  V30 1841 C 165.059 2.24741 -3.8963 0
M  V30 1842 C 166.378 3.69423 -2.39196 0
M  V30 1843 H 163.497 0.529303 -0.512842 0
M  V30 1844 H 166.139 0.794112 -1.72609 0
M  V30 1845 H 164.289 3.23982 -2.14401 0
M  V30 1846 H 165.961 1.73327 -4.27499 0
M  V30 1847 H 164.204 1.56542 -4.0457 0
M  V30 1848 H 164.875 3.1177 -4.55525 0
M  V30 1849 H 167.351 3.2234 -2.63128 0
M  V30 1850 H 166.227 4.51907 -3.11563 0
M  V30 1851 H 166.488 4.19012 -1.41001 0
M  V30 1852 N 165.547 1.27147 0.931209 0
M  V30 1853 C 166.787 1.14511 1.69312 0
M  V30 1854 C 167.151 -0.304638 1.89568 0
M  V30 1855 O 168.352 -0.553343 2.63043 0
M  V30 1856 C 166.623 1.90349 3.02493 0
M  V30 1857 S 168.182 1.93884 3.93642 0
M  V30 1858 H 165 0.408858 0.581684 0
M  V30 1859 H 167.602 1.61006 1.10893 0
M  V30 1860 H 166.306 2.94877 2.85439 0
M  V30 1861 H 165.837 1.44333 3.65966 0
M  V30 1862 H 167.852 1.03273 4.85334 0
M  V30 1863 N 167.025 -1.13721 1.09112 0
M  V30 1864 C 167.957 -2.1871 0.685467 0
M  V30 1865 C 168.97 -1.60527 -0.271068 0
M  V30 1866 O 170.159 -1.78407 -0.0576148 0
M  V30 1867 C 167.259 -3.38898 -0.0111255 0
M  V30 1868 C 166.432 -4.26597 0.966131 0
M  V30 1869 C 165.491 -5.25324 0.303539 0
M  V30 1870 O 164.517 -5.61213 0.950177 0
M  V30 1871 N 165.719 -5.72779 -0.943651 0
M  V30 1872 H 168.484 -2.54126 1.58871 0
M  V30 1873 H 166.045 -1.29012 0.978143 0
M  V30 1874 H 168.037 -4.02014 -0.465517 0
M  V30 1875 H 166.607 -3.01747 -0.816565 0
M  V30 1876 H 165.827 -3.60306 1.59917 0
M  V30 1877 H 167.115 -4.82048 1.6281 0
M  V30 1878 H 166.513 -5.45762 -1.48862 0
M  V30 1879 H 165.07 -6.37847 -1.34142 0
M  V30 1880 N 168.503 -0.877838 -1.30888 0
M  V30 1881 C 169.413 -0.343096 -2.32078 0
M  V30 1882 C 170.429 0.551022 -1.65045 0
M  V30 1883 O 171.605 0.445854 -1.96403 0
M  V30 1884 C 168.67 0.439905 -3.43898 0
M  V30 1885 C 167.731 -0.483111 -4.26573 0
M  V30 1886 C 166.964 0.262616 -5.33053 0
M  V30 1887 O 167.187 1.48967 -5.50604 0
M  V30 1888 O 166.121 -0.383593 -6.00676 0
M  V30 1889 H 169.947 -1.18203 -2.79753 0
M  V30 1890 H 167.532 -0.64145 -1.34929 0
M  V30 1891 H 169.414 0.883504 -4.12034 0
M  V30 1892 H 168.089 1.25526 -2.98371 0
M  V30 1893 H 166.996 -0.975374 -3.61161 0
M  V30 1894 H 168.329 -1.26427 -4.75686 0
M  V30 1895 N 169.982 1.44106 -0.638065 0
M  V30 1896 C 170.945 2.29138 0.0531013 0
M  V30 1897 C 171.945 1.41409 0.765506 0
M  V30 1898 O 173.135 1.63206 0.609046 0
M  V30 1899 C 170.267 3.23144 1.08584 0
M  V30 1900 H 171.46 2.91739 -0.694883 0
M  V30 1901 H 169.013 1.51134 -0.398538 0
M  V30 1902 H 169.748 2.65408 1.86357 0
M  V30 1903 H 169.533 3.87804 0.578852 0
M  V30 1904 H 171.023 3.87004 1.56899 0
M  V30 1905 N 171.46 0.379036 1.52974 0
M  V30 1906 C 172.706 -0.206727 2.01744 0
M  V30 1907 C 173.039 -1.47314 1.26539 0
M  V30 1908 O 172.314 -1.91084 0.362903 0
M  V30 1909 C 172.597 -0.485066 3.56818 0
M  V30 1910 C 172.45 0.795919 4.42702 0
M  V30 1911 C 173.769 -1.28003 4.21074 0
M  V30 1912 H 170.888 -0.0736607 0.73331 0
M  V30 1913 H 173.53 0.506581 1.83122 0
M  V30 1914 H 171.68 -1.09272 3.72816 0
M  V30 1915 H 173.352 1.43307 4.38476 0
M  V30 1916 H 171.595 1.41344 4.10127 0
M  V30 1917 H 172.266 0.555947 5.49193 0
M  V30 1918 H 174.742 -0.765867 4.08991 0
M  V30 1919 H 173.618 -1.44352 5.29579 0
M  V30 1920 H 173.879 -2.29236 3.78026 0
M  V30 1921 N 172.938 -1.57226 0.108567 0
M  V30 1922 C 174.184 -1.95919 -0.546564 0
M  V30 1923 C 174.539 -0.990417 -1.6495 0
M  V30 1924 O 173.832 -0.0186593 -1.91591 0
M  V30 1925 C 174.026 -3.38911 -1.13463 0
M  V30 1926 C 173.855 -4.4961 -0.0901926 0
M  V30 1927 C 172.625 -5.04168 0.338008 0
M  V30 1928 C 174.823 -5.09693 0.686808 0
M  V30 1929 N 172.805 -5.98434 1.36931 0
M  V30 1930 C 174.176 -5.99804 1.56958 0
M  V30 1931 C 176.231 -4.92388 0.738846 0
M  V30 1932 C 174.934 -6.74463 2.49983 0
M  V30 1933 C 176.96 -5.67719 1.65676 0
M  V30 1934 C 176.322 -6.57507 2.52713 0
M  V30 1935 H 172.421 -0.763312 -0.169936 0
M  V30 1936 H 175.005 -1.93728 0.194264 0
M  V30 1937 H 173.176 -3.41769 -1.84522 0
M  V30 1938 H 174.908 -3.64752 -1.75322 0
M  V30 1939 H 171.663 -4.73571 -0.0523673 0
M  V30 1940 H 172.087 -6.5027 1.88356 0
M  V30 1941 H 176.729 -4.22724 0.080084 0
M  V30 1942 H 174.447 -7.4338 3.16878 0
M  V30 1943 H 178.033 -5.56338 1.70233 0
M  V30 1944 H 176.913 -7.14778 3.22586 0
M  V30 1945 N 174.416 0.165178 -1.56732 0
M  V30 1946 C 175.326 1.22423 -2.00125 0
M  V30 1947 C 176.342 1.48084 -0.913619 0
M  V30 1948 O 177.518 1.60112 -1.22172 0
M  V30 1949 C 174.583 2.54197 -2.35764 0
M  V30 1950 C 173.644 2.36343 -3.58386 0
M  V30 1951 C 172.877 3.61834 -3.92316 0
M  V30 1952 O 173.1 4.67267 -3.27135 0
M  V30 1953 O 172.034 3.55579 -4.85641 0
M  V30 1954 H 175.86 0.885886 -2.90492 0
M  V30 1955 H 173.445 0.372518 -1.44681 0
M  V30 1956 H 175.327 3.3192 -2.59629 0
M  V30 1957 H 174.002 2.87598 -1.48557 0
M  V30 1958 H 172.909 1.56632 -3.39731 0
M  V30 1959 H 174.242 2.07865 -4.46154 0
M  V30 1960 N 175.894 1.51508 0.433938 0
M  V30 1961 C 176.857 1.72473 1.50949 0
M  V30 1962 C 177.857 0.594725 1.49398 0
M  V30 1963 O 179.047 0.862315 1.5136 0
M  V30 1964 C 176.179 1.78431 2.90474 0
M  V30 1965 H 177.372 2.68467 1.33662 0
M  V30 1966 H 174.925 1.41549 0.662836 0
M  V30 1967 H 175.66 0.842645 3.13161 0
M  V30 1968 H 175.445 2.60558 2.93005 0
M  V30 1969 H 176.935 1.96479 3.68491 0
M  V30 1970 N 177.372 -0.689602 1.41712 0
M  V30 1971 C 178.619 -1.44966 1.4139 0
M  V30 1972 C 178.947 -1.94484 0.025105 0
M  V30 1973 O 178.202 -1.70307 -0.964048 0
M  V30 1974 C 178.501 -2.67298 2.37247 0
M  V30 1975 C 178.167 -2.36405 3.83958 0
M  V30 1976 C 176.829 -2.27691 4.23923 0
M  V30 1977 C 179.181 -2.11043 4.76561 0
M  V30 1978 C 176.509 -1.91719 5.54492 0
M  V30 1979 C 178.861 -1.76578 6.07456 0
M  V30 1980 C 177.525 -1.66363 6.46436 0
M  V30 1981 H 176.795 -0.53047 0.517381 0
M  V30 1982 H 179.442 -0.787655 1.74552 0
M  V30 1983 H 177.747 -3.38461 1.9736 0
M  V30 1984 H 179.444 -3.25452 2.34269 0
M  V30 1985 H 176.034 -2.44085 3.52308 0
M  V30 1986 H 180.218 -2.16717 4.46483 0
M  V30 1987 H 175.474 -1.82367 5.83568 0
M  V30 1988 H 179.648 -1.55974 6.78708 0
M  V30 1989 H 177.275 -1.38258 7.47522 0
M  V30 1990 N 178.85 -1.27639 -0.924453 0
M  V30 1991 C 180.266 -1.05113 -1.20097 0
M  V30 1992 C 180.466 0.213262 -2.00368 0
M  V30 1993 O 179.522 0.91787 -2.35226 0
M  V30 1994 C 180.835 -2.29244 -1.94596 0
M  V30 1995 C 182.383 -2.34315 -2.07522 0
M  V30 1996 C 182.858 -3.58183 -2.85427 0
M  V30 1997 N 184.349 -3.5876 -2.92994 0
M  V30 1998 C 185.084 -4.51277 -3.53746 0
M  V30 1999 N 184.58 -5.54102 -4.15863 0
M  V30 2000 N 186.373 -4.38894 -3.51181 0
M  V30 2001 H 178.524 -2.08821 -0.388264 0
M  V30 2002 H 180.787 -0.918568 -0.234385 0
M  V30 2003 H 180.493 -3.21301 -1.43034 0
M  V30 2004 H 180.367 -2.34816 -2.95197 0
M  V30 2005 H 182.754 -1.42762 -2.58269 0
M  V30 2006 H 182.835 -2.32744 -1.06131 0
M  V30 2007 H 182.479 -4.50074 -2.35363 0
M  V30 2008 H 182.409 -3.57006 -3.8711 0
M  V30 2009 H 184.9 -2.84398 -2.4885 0
M  V30 2010 H 185.213 -6.20859 -4.60168 0
M  V30 2011 H 183.558 -5.57941 -4.144 0
M  V30 2012 H 186.749 -3.57772 -3.01856 0
M  V30 2013 H 186.922 -5.11186 -3.98237 0
M  V30 2014 N 180.328 1.1314 -1.09713 0
M  V30 2015 C 181.556 1.88321 -0.856898 0
M  V30 2016 C 181.971 1.79276 0.592073 0
M  V30 2017 O 181.328 1.16142 1.40774 0
M  V30 2018 C 181.379 3.37812 -1.28706 0
M  V30 2019 O 181.1 3.46627 -2.67921 0
M  V30 2020 C 182.601 4.29952 -1.07964 0
M  V30 2021 H 179.821 0.596094 -0.308079 0
M  V30 2022 H 182.365 1.43205 -1.45988 0
M  V30 2023 H 180.52 3.805 -0.727912 0
M  V30 2024 H 180.934 4.39579 -2.8613 0
M  V30 2025 H 182.408 5.33159 -1.42986 0
M  V30 2026 H 182.885 4.39196 -0.0176577 0
M  V30 2027 H 183.491 3.93036 -1.62489 0
M  V30 2028 N 181.806 0.884767 1.30421 0
M  V30 2029 C 183.053 0.503105 1.96151 0
M  V30 2030 C 183.381 -0.947676 1.69851 0
M  V30 2031 O 182.636 -1.68467 0.995861 0
M  V30 2032 C 182.935 0.724318 3.49983 0
M  V30 2033 C 182.601 2.15015 3.96332 0
M  V30 2034 C 181.263 2.54005 4.08699 0
M  V30 2035 C 183.615 3.07936 4.20505 0
M  V30 2036 C 180.943 3.85128 4.42599 0
M  V30 2037 C 183.295 4.3859 4.55874 0
M  V30 2038 C 181.959 4.77474 4.66449 0
M  V30 2039 H 181.229 0.184099 0.717766 0
M  V30 2040 H 183.876 1.12058 1.55291 0
M  V30 2041 H 182.181 0.0238086 3.91793 0
M  V30 2042 H 183.878 0.408617 3.98913 0
M  V30 2043 H 180.468 1.8375 3.87213 0
M  V30 2044 H 184.652 2.79033 4.10431 0
M  V30 2045 H 179.908 4.14996 4.48986 0
M  V30 2046 H 184.082 5.10629 4.7353 0
M  V30 2047 H 181.709 5.79115 4.92473 0
M  V30 2048 N 183.284 -1.43765 0.645699 0
M  V30 2049 C 184.53 -2.02731 0.164844 0
M  V30 2050 C 184.885 -1.49983 -1.2051 0
M  V30 2051 O 184.178 -0.680208 -1.79119 0
M  V30 2052 C 184.372 -3.57238 0.107679 0
M  V30 2053 C 184.201 -4.24977 1.47054 0
M  V30 2054 C 182.971 -4.61356 2.06103 0
M  V30 2055 C 185.169 -4.54476 2.40741 0
M  V30 2056 N 183.151 -5.14132 3.35473 0
M  V30 2057 C 184.522 -5.08489 3.54737 0
M  V30 2058 C 186.577 -4.36438 2.39637 0
M  V30 2059 C 185.28 -5.46364 4.67845 0
M  V30 2060 C 187.306 -4.7537 3.5182 0
M  V30 2061 C 186.668 -5.2951 4.64541 0
M  V30 2062 H 182.767 -0.774976 0.104578 0
M  V30 2063 H 185.351 -1.75051 0.852367 0
M  V30 2064 H 183.522 -3.84498 -0.549165 0
M  V30 2065 H 185.254 -4.0288 -0.383351 0
M  V30 2066 H 182.009 -4.46151 1.58892 0
M  V30 2067 H 182.433 -5.4498 4.01654 0
M  V30 2068 H 187.075 -3.93861 1.53731 0
M  V30 2069 H 184.793 -5.87888 5.54448 0
M  V30 2070 H 188.379 -4.63115 3.52159 0
M  V30 2071 H 187.259 -5.59077 5.49911 0
M  V30 2072 N 184.763 -0.387143 -1.52771 0
M  V30 2073 C 186.04 0.253197 -1.93954 0
M  V30 2074 C 186.42 1.64545 -1.32243 0
M  V30 2075 O 185.768 2.23191 -0.489699 0
M  V30 2076 C 185.978 0.281722 -3.47861 0
M  V30 2077 C 187.326 0.511715 -4.21505 0
M  V30 2078 O 188.35 0.362023 -3.54356 0
M  V30 2079 O 187.209 0.804847 -5.40541 0
M  V30 2080 H 184.303 0.156845 -0.811991 0
M  V30 2081 H 186.849 -0.441494 -1.63856 0
M  V30 2082 H 185.621 -0.693571 -3.85104 0
M  V30 2083 H 185.244 1.02142 -3.84256 0
M  V30 2084 N 186.241 1.57166 -0.116904 0
M  V30 2085 C 187.657 1.5779 0.239693 0
M  V30 2086 C 187.857 1.1295 1.66867 0
M  V30 2087 O 186.913 0.81592 2.38954 0
M  V30 2088 C 188.226 3.00699 0.00828202 0
M  V30 2089 C 189.774 3.12912 0.0743438 0
M  V30 2090 C 190.249 4.57817 -0.129348 0
M  V30 2091 N 191.74 4.63139 -0.075247 0
M  V30 2092 C 192.475 5.73023 -0.207788 0
M  V30 2093 N 191.971 6.91665 -0.396382 0
M  V30 2094 N 193.764 5.61906 -0.14751 0
M  V30 2095 H 185.915 1.84615 -1.05029 0
M  V30 2096 H 188.178 0.85311 -0.41341 0
M  V30 2097 H 187.884 3.37784 -0.979531 0
M  V30 2098 H 187.758 3.69848 0.741077 0
M  V30 2099 H 190.145 2.75686 1.05268 0
M  V30 2100 H 190.226 2.4631 -0.690297 0
M  V30 2101 H 189.87 4.95742 -1.10465 0
M  V30 2102 H 189.8 5.22507 0.655253 0
M  V30 2103 H 192.291 3.7784 0.0670898 0
M  V30 2104 H 192.604 7.71255 -0.488437 0
M  V30 2105 H 190.949 6.93654 -0.432329 0
M  V30 2106 H 194.14 4.681 -0.00115036 0
M  V30 2107 H 194.313 6.47501 -0.254247 0
M  V30 2108 N 187.719 -0.156864 1.56817 0
M  V30 2109 C 188.649 -1.19589 2.00551 0
M  V30 2110 C 189.63 -1.4536 0.883426 0
M  V30 2111 O 190.815 -1.56449 1.15054 0
M  V30 2112 C 187.945 -2.53143 2.37773 0
M  V30 2113 C 186.899 -2.41913 3.53075 0
M  V30 2114 C 186.225 -3.80088 3.76081 0
M  V30 2115 C 187.525 -1.91157 4.86062 0
M  V30 2116 H 189.219 -0.832293 2.87599 0
M  V30 2117 H 186.765 -0.398918 1.38364 0
M  V30 2118 H 188.718 -3.26047 2.66967 0
M  V30 2119 H 187.442 -2.91319 1.4765 0
M  V30 2120 H 186.101 -1.71462 3.24031 0
M  V30 2121 H 185.749 -4.15683 2.83225 0
M  V30 2122 H 185.449 -3.73439 4.53671 0
M  V30 2123 H 186.973 -4.54556 4.0769 0
M  V30 2124 H 188.387 -2.53846 5.14038 0
M  V30 2125 H 186.784 -1.95422 5.67389 0
M  V30 2126 H 187.854 -0.866673 4.77092 0
M  V30 2127 N 189.197 -1.51736 -0.425897 0
M  V30 2128 C 190.608 -1.5732 -1.00536 0
M  V30 2129 C 190.959 -0.403537 -1.92005 0
M  V30 2130 O 190.084 0.478256 -2.11049 0
M  V30 2131 C 190.679 -2.85119 -1.8301 0
M  V30 2132 C 189.238 -2.93236 -2.35987 0
M  V30 2133 C 188.385 -2.52098 -1.15508 0
M  V30 2134 H 191.336 -1.57348 -0.206739 0
M  V30 2135 H 191.357 -2.69526 -2.68581 0
M  V30 2136 H 190.869 -3.7023 -1.16411 0
M  V30 2137 H 188.97 -2.12581 -3.06007 0
M  V30 2138 H 189.083 -3.9713 -2.68001 0
M  V30 2139 H 187.447 -2.05558 -1.50393 0
M  V30 2140 H 188.23 -3.39565 -0.505014 0
M  V30 2141 N 190.675 0.682077 -1.42076 0
M  V30 2142 C 191.923 1.4393 -1.41876 0
M  V30 2143 C 192.244 1.94971 -0.0335599 0
M  V30 2144 O 191.514 1.72591 0.926773 0
M  V30 2145 H 190.094 0.534085 -0.522267 0
M  V30 2146 H 192.756 0.806427 -1.77434 0
M  V30 2147 H 191.852 2.29588 -2.11414 0
M  V30 2148 N 192.153 1.28127 0.917671 0
M  V30 2149 C 193.569 1.05749 1.19538 0
M  V30 2150 C 193.769 -0.202633 2.00479 0
M  V30 2151 O 192.825 -0.905382 2.3571 0
M  V30 2152 C 194.138 2.30273 1.93378 0
M  V30 2153 C 195.686 2.35412 2.06277 0
M  V30 2154 C 196.161 3.59692 2.83524 0
M  V30 2155 N 197.652 3.60309 2.91087 0
M  V30 2156 C 198.387 4.53147 3.51348 0
M  V30 2157 N 197.883 5.563 4.12919 0
M  V30 2158 N 199.676 4.40751 3.48849 0
M  V30 2159 H 191.827 2.09024 0.377184 0
M  V30 2160 H 194.09 0.919798 0.22951 0
M  V30 2161 H 193.796 3.22055 1.41328 0
M  V30 2162 H 193.67 2.36378 2.93947 0
M  V30 2163 H 196.057 1.4413 2.57508 0
M  V30 2164 H 196.138 2.33304 1.04895 0
M  V30 2165 H 195.782 4.51316 2.32973 0
M  V30 2166 H 195.712 3.59054 3.85211 0
M  V30 2167 H 198.203 2.85714 2.47338 0
M  V30 2168 H 198.516 6.2329 4.56869 0
M  V30 2169 H 196.861 5.60131 4.11435 0
M  V30 2170 H 200.052 3.59367 2.99955 0
M  V30 2171 H 200.225 5.13291 3.9552 0
M  V30 2172 N 193.631 -1.12557 1.10312 0
M  V30 2173 C 194.541 -2.21841 0.763142 0
M  V30 2174 C 195.557 -1.72354 -0.238801 0
M  V30 2175 O 196.733 -2.01249 -0.0778746 0
M  V30 2176 C 193.798 -3.46131 0.198632 0
M  V30 2177 C 192.859 -4.10464 1.25769 0
M  V30 2178 C 192.092 -5.28821 0.72002 0
M  V30 2179 O 192.315 -5.6859 -0.453993 0
M  V30 2180 O 191.249 -5.83437 1.47935 0
M  V30 2181 H 195.075 -2.53312 1.67532 0
M  V30 2182 H 192.66 -1.20867 0.878157 0
M  V30 2183 H 194.542 -4.2125 -0.112401 0
M  V30 2184 H 193.217 -3.16338 -0.686419 0
M  V30 2185 H 192.124 -3.3713 1.62156 0
M  V30 2186 H 193.457 -4.44408 2.11571 0
M  V30 2187 N 195.109 -0.891671 -1.2995 0
M  V30 2188 C 196.019 -0.367691 -2.31701 0
M  V30 2189 C 197.035 0.533486 -1.6562 0
M  V30 2190 O 198.211 0.424997 -1.96865 0
M  V30 2191 C 195.276 0.403406 -3.44345 0
M  V30 2192 C 194.337 -0.528328 -4.26037 0
M  V30 2193 C 193.57 0.206063 -5.33302 0
M  V30 2194 O 193.793 1.43119 -5.52153 0
M  V30 2195 O 192.727 -0.447281 -6.00236 0
M  V30 2196 H 196.553 -1.21163 -2.78484 0
M  V30 2197 H 194.138 -0.655725 -1.34241 0
M  V30 2198 H 196.02 0.839753 -4.12948 0
M  V30 2199 H 194.695 1.22354 -2.99685 0
M  V30 2200 H 193.602 -1.01362 -3.60106 0
M  V30 2201 H 194.935 -1.31465 -4.74318 0
M  V30 2202 N 196.587 1.43421 -0.653314 0
M  V30 2203 C 197.817 2.05864 -0.174238 0
M  V30 2204 C 198.225 1.49052 1.16534 0
M  V30 2205 O 197.568 0.616481 1.73047 0
M  V30 2206 C 197.63 3.59499 -0.00875873 0
M  V30 2207 C 197.294 4.38893 -1.27364 0
M  V30 2208 C 198.291 4.70947 -2.20239 0
M  V30 2209 C 195.976 4.789 -1.51525 0
M  V30 2210 C 197.97 5.41916 -3.35568 0
M  V30 2211 C 195.657 5.49614 -2.67147 0
M  V30 2212 C 196.655 5.81044 -3.58994 0
M  V30 2213 O 196.343 6.50313 -4.72597 0
M  V30 2214 H 196.075 0.670345 -0.0872549 0
M  V30 2215 H 198.629 1.84913 -0.894226 0
M  V30 2216 H 196.859 3.79025 0.7666 0
M  V30 2217 H 198.548 4.0364 0.427687 0
M  V30 2218 H 199.314 4.40558 -2.02815 0
M  V30 2219 H 195.193 4.53843 -0.809158 0
M  V30 2220 H 198.737 5.66365 -4.07279 0
M  V30 2221 H 194.634 5.79419 -2.84505 0
M  V30 2222 H 195.402 6.68795 -4.71864 0
M  V30 2223 N 198.065 0.39524 1.52563 0
M  V30 2224 C 199.015 -0.4541 2.23432 0
M  V30 2225 C 199.999 -1.02482 1.24042 0
M  V30 2226 O 201.191 -0.949938 1.49349 0
M  V30 2227 C 198.32 -1.57769 3.049 0
M  V30 2228 C 197.406 -1.01842 4.1169 0
M  V30 2229 N 197.797 -0.184613 5.05463 0
M  V30 2230 C 196.095 -1.29033 4.26927 0
M  V30 2231 C 196.796 0.125013 5.81566 0
M  V30 2232 N 195.772 -0.480498 5.41472 0
M  V30 2233 H 199.574 0.189413 2.93289 0
M  V30 2234 H 197.088 0.204877 1.61102 0
M  V30 2235 H 199.085 -2.19862 3.54212 0
M  V30 2236 H 197.745 -2.22397 2.36579 0
M  V30 2237 H 198.756 0.178602 5.17592 0
M  V30 2238 H 195.433 -1.93721 3.69836 0
M  V30 2239 H 196.823 0.800962 6.67109 0
M  V30 2240 N 199.544 -1.57102 0.125237 0
M  V30 2241 C 200.774 -1.99472 -0.538015 0
M  V30 2242 C 201.182 -1.00395 -1.60366 0
M  V30 2243 O 200.525 0.0103875 -1.83697 0
M  V30 2244 C 200.587 -3.38262 -1.21734 0
M  V30 2245 C 200.251 -4.56021 -0.298897 0
M  V30 2246 C 201.248 -5.17817 0.464943 0
M  V30 2247 C 198.933 -5.01869 -0.208149 0
M  V30 2248 C 200.927 -6.23852 1.3072 0
M  V30 2249 C 198.614 -6.07763 0.637736 0
M  V30 2250 C 199.612 -6.68622 1.39403 0
M  V30 2251 O 199.3 -7.7247 2.22586 0
M  V30 2252 H 199.032 -0.659934 -0.146501 0
M  V30 2253 H 201.586 -2.04321 0.210267 0
M  V30 2254 H 199.816 -3.30185 -2.01282 0
M  V30 2255 H 201.505 -3.6488 -1.77813 0
M  V30 2256 H 202.271 -4.83308 0.404741 0
M  V30 2257 H 198.15 -4.54241 -0.786522 0
M  V30 2258 H 201.694 -6.71284 1.898 0
M  V30 2259 H 197.591 -6.41701 0.699309 0
M  V30 2260 H 198.359 -7.89595 2.15596 0
M  V30 2261 N 201.022 0.148545 -1.56898 0
M  V30 2262 C 202.268 0.857877 -1.84424 0
M  V30 2263 C 202.623 1.7886 -0.709006 0
M  V30 2264 O 201.916 1.89344 0.293139 0
M  V30 2265 C 202.11 1.67064 -3.1595 0
M  V30 2266 C 201.939 0.82011 -4.42159 0
M  V30 2267 C 200.709 0.486328 -5.02954 0
M  V30 2268 C 202.907 0.151155 -5.14078 0
M  V30 2269 N 200.889 -0.377956 -6.12735 0
M  V30 2270 C 202.26 -0.573333 -6.17343 0
M  V30 2271 C 204.315 0.0716685 -4.97848 0
M  V30 2272 C 203.018 -1.3698 -7.06137 0
M  V30 2273 C 205.044 -0.711532 -5.87104 0
M  V30 2274 C 204.406 -1.42431 -6.8985 0
M  V30 2275 H 200.505 0.291798 -0.725519 0
M  V30 2276 H 203.089 0.123347 -1.94309 0
M  V30 2277 H 201.26 2.37642 -3.07215 0
M  V30 2278 H 202.992 2.32302 -3.31388 0
M  V30 2279 H 199.747 0.821753 -4.66416 0
M  V30 2280 H 200.171 -0.801077 -6.72244 0
M  V30 2281 H 204.813 0.608381 -4.184 0
M  V30 2282 H 202.531 -1.91778 -7.85014 0
M  V30 2283 H 206.117 -0.775005 -5.76615 0
M  V30 2284 H 204.997 -2.02061 -7.57721 0
M  V30 2285 N 202.5 1.5196 0.417844 0
M  V30 2286 C 203.433 1.69387 1.52916 0
M  V30 2287 C 204.411 0.541419 1.53321 0
M  V30 2288 O 205.595 0.767695 1.72159 0
M  V30 2289 C 202.722 1.72525 2.91467 0
M  V30 2290 C 201.768 2.93967 3.09008 0
M  V30 2291 S 202.601 4.54461 2.83242 0
M  V30 2292 C 203.757 4.60372 4.24038 0
M  V30 2293 H 203.99 2.63382 1.37903 0
M  V30 2294 H 201.523 1.41889 0.608845 0
M  V30 2295 H 203.481 1.75018 3.7132 0
M  V30 2296 H 202.142 0.796733 3.03827 0
M  V30 2297 H 201.335 2.92619 4.10353 0
M  V30 2298 H 200.937 2.89316 2.37007 0
M  V30 2299 H 203.229 4.37213 5.17544 0
M  V30 2300 H 204.172 5.62273 4.30412 0
M  V30 2301 H 204.58 3.89492 4.08602 0
M  V30 2302 N 203.978 -0.674533 1.42435 0
M  V30 2303 C 204.926 -1.80934 1.46169 0
M  V30 2304 C 205.92 -1.66006 0.3374 0
M  V30 2305 O 207.126 -1.72611 0.510425 0
M  V30 2306 H 203.501 -0.596594 0.457798 0
M  V30 2307 H 205.472 -1.74903 2.41767 0
M  V30 2308 C 204.221 -3.19088 1.38123 0
M  V30 2309 H 203.544 -3.31203 2.23931 0
M  V30 2310 H 204.984 -3.9851 1.44797 0
M  V30 2311 C 203.443 -3.36763 0.0960517 0
M  V30 2312 O 203.973 -3.92581 -0.851073 0
M  V30 2313 N 202.179 -2.90597 0.0131186 0
M  V30 2314 H 201.726 -2.45359 0.784639 0
M  V30 2315 H 201.684 -3.028 -0.846133 0
M  V30 2316 N 205.456 -1.28612 -0.910864 0
M  V30 2317 C 206.386 -1.15326 -2.03032 0
M  V30 2318 C 207.367 -0.0502924 -1.70026 0
M  V30 2319 O 208.552 -0.227797 -1.92859 0
M  V30 2320 C 205.682 -0.817343 -3.37545 0
M  V30 2321 C 204.636 -1.8754 -3.84724 0
M  V30 2322 C 203.962 -1.39305 -5.16235 0
M  V30 2323 C 205.262 -3.28244 -4.06267 0
M  V30 2324 H 206.956 -2.08975 -2.14406 0
M  V30 2325 H 204.502 -1.00612 -1.03021 0
M  V30 2326 H 206.455 -0.711151 -4.15356 0
M  V30 2327 H 205.179 0.154846 -3.26233 0
M  V30 2328 H 203.838 -1.97079 -3.09121 0
M  V30 2329 H 203.486 -0.409846 -5.01328 0
M  V30 2330 H 203.186 -2.10057 -5.48771 0
M  V30 2331 H 204.71 -1.30014 -5.96598 0
M  V30 2332 H 206.124 -3.21611 -4.74594 0
M  V30 2333 H 204.521 -3.96855 -4.5014 0
M  V30 2334 H 205.591 -3.72048 -3.10979 0
M  V30 2335 N 206.934 1.1197 -1.10907 0
M  V30 2336 C 208.174 1.85224 -0.864378 0
M  V30 2337 C 208.538 1.82411 0.599178 0
M  V30 2338 O 209.739 2.51057 0.960416 0
M  V30 2339 C 208.01 3.2868 -1.40371 0
M  V30 2340 S 209.569 4.1925 -1.29518 0
M  V30 2341 H 206.387 0.63878 -0.312219 0
M  V30 2342 H 208.989 1.3485 -1.41548 0
M  V30 2343 H 207.693 3.28289 -2.46281 0
M  V30 2344 H 207.224 3.84121 -0.849402 0
M  V30 2345 H 209.239 4.95539 -0.256059 0
M  V30 2346 N 208.412 0.89855 1.29475 0
M  V30 2347 C 209.322 0.379974 2.31502 0
M  V30 2348 C 210.338 -0.524695 1.659 0
M  V30 2349 O 211.514 -0.414551 1.97087 0
M  V30 2350 C 208.579 -0.385138 3.44554 0
M  V30 2351 C 207.64 0.550914 4.2575 0
M  V30 2352 C 206.873 -0.177778 5.33404 0
M  V30 2353 O 207.096 -1.40189 5.52904 0
M  V30 2354 O 206.03 0.479106 5.9999 0
M  V30 2355 H 209.856 1.22639 2.77837 0
M  V30 2356 H 207.441 0.662834 1.33891 0
M  V30 2357 H 209.323 -0.817841 4.13388 0
M  V30 2358 H 207.998 -1.20763 3.0033 0
M  V30 2359 H 206.905 1.03271 3.59564 0
M  V30 2360 H 208.238 1.33979 4.73614 0
M  V30 2361 N 209.89 -1.43072 0.660911 0
M  V30 2362 C 211.167 -1.95307 0.107017 0
M  V30 2363 C 211.547 -1.60192 -1.37484 0
M  V30 2364 O 210.895 -0.890949 -2.10415 0
M  V30 2365 C 211.105 -3.47124 0.361402 0
M  V30 2366 C 212.453 -4.23738 0.270455 0
M  V30 2367 O 213.477 -3.54981 0.294382 0
M  V30 2368 O 212.336 -5.46131 0.200737 0
M  V30 2369 H 209.43 -0.826984 -0.00517729 0
M  V30 2370 H 211.976 -1.52972 0.734681 0
M  V30 2371 H 210.748 -3.65837 1.38848 0
M  V30 2372 H 210.371 -3.96475 -0.298953 0
M  V30 2373 N 211.368 -0.403325 -1.52352 0
M  V30 2374 C 212.616 0.174003 -2.0135 0
M  V30 2375 C 212.937 1.46139 -1.29106 0
M  V30 2376 O 212.207 1.91448 -0.415253 0
M  V30 2377 H 210.787 0.0672911 -0.743963 0
M  V30 2378 H 213.449 -0.538235 -1.87321 0
M  V30 2379 H 212.545 0.374254 -3.09848 0
M  V30 2380 N 212.846 1.57033 -0.133567 0
M  V30 2381 C 214.092 1.95976 0.521649 0
M  V30 2382 C 214.425 1.01779 1.65393 0
M  V30 2383 O 213.7 0.0576581 1.94415 0
M  V30 2384 C 213.983 3.44738 1.04057 0
M  V30 2385 C 213.836 4.49711 -0.0892897 0
M  V30 2386 C 215.155 3.95682 1.92675 0
M  V30 2387 H 212.274 0.712579 0.188149 0
M  V30 2388 H 214.916 1.88813 -0.212076 0
M  V30 2389 H 213.066 3.50973 1.66583 0
M  V30 2390 H 214.738 4.55565 -0.725152 0
M  V30 2391 H 212.981 4.27261 -0.750378 0
M  V30 2392 H 213.652 5.51099 0.315284 0
M  V30 2393 H 216.128 3.91841 1.39998 0
M  V30 2394 H 215.004 5.00262 2.25897 0
M  V30 2395 H 215.265 3.37239 2.85872 0
M  V30 2396 N 214.325 -0.140222 1.56975 0
M  V30 2397 C 215.553 -0.866437 1.87884 0
M  V30 2398 C 215.968 -1.74428 0.722517 0
M  V30 2399 O 215.325 -1.79891 -0.30749 0
M  V30 2400 C 215.376 -1.71753 3.18093 0
M  V30 2401 O 215.097 -0.875056 4.29272 0
M  V30 2402 C 216.598 -2.55074 3.62563 0
M  V30 2403 H 213.818 -0.25019 0.622612 0
M  V30 2404 H 216.362 -0.130977 2.0408 0
M  V30 2405 H 214.517 -2.40598 3.03631 0
M  V30 2406 H 214.931 -1.46002 5.03769 0
M  V30 2407 H 216.405 -3.10356 4.5649 0
M  V30 2408 H 216.882 -3.31434 2.88181 0
M  V30 2409 H 217.488 -1.91509 3.79743 0
M  V30 2410 N 215.803 -1.52179 -0.40978 0
M  V30 2411 C 217.028 -1.70347 -1.18308 0
M  V30 2412 C 217.453 -0.411887 -1.83535 0
M  V30 2413 O 216.811 0.630587 -1.6998 0
M  V30 2414 C 216.859 -2.83977 -2.22238 0
M  V30 2415 O 215.963 -2.495 -3.28365 0
M  V30 2416 H 215.304 -0.567103 -0.345384 0
M  V30 2417 H 217.834 -1.98879 -0.480445 0
M  V30 2418 H 217.844 -3.0887 -2.66577 0
M  V30 2419 H 216.519 -3.77685 -1.74146 0
M  V30 2420 H 215.096 -2.35277 -2.89308 0
M  V30 2421 N 217.281 0.66697 -1.42791 0
M  V30 2422 C 218.53 1.42278 -1.42968 0
M  V30 2423 C 218.843 1.9553 -0.0524489 0
M  V30 2424 O 220.049 2.71414 0.068363 0
M  V30 2425 C 218.505 2.57418 -2.51524 0
M  V30 2426 C 218.113 2.10832 -3.9529 0
M  V30 2427 C 219.857 3.34878 -2.60877 0
M  V30 2428 C 217.764 3.23101 -4.95338 0
M  V30 2429 H 216.694 0.534533 -0.531781 0
M  V30 2430 H 219.345 0.721302 -1.68729 0
M  V30 2431 H 217.727 3.29971 -2.18941 0
M  V30 2432 H 218.901 1.4538 -4.37266 0
M  V30 2433 H 217.216 1.46289 -3.89857 0
M  V30 2434 H 219.813 4.18505 -3.32802 0
M  V30 2435 H 220.156 3.81993 -1.6549 0
M  V30 2436 H 220.689 2.69398 -2.92693 0
M  V30 2437 H 217.428 2.80969 -5.9223 0
M  V30 2438 H 216.948 3.87309 -4.57987 0
M  V30 2439 H 218.627 3.88447 -5.17415 0
M  V30 2440 N 218.759 1.29093 0.90403 0
M  V30 2441 C 220.006 1.16813 1.65411 0
M  V30 2442 C 220.334 -0.28128 1.92455 0
M  V30 2443 O 219.589 -1.22006 1.53013 0
M  V30 2444 C 219.888 1.92224 3.01305 0
M  V30 2445 C 219.554 3.41968 2.93885 0
M  V30 2446 C 218.216 3.82807 2.91569 0
M  V30 2447 C 220.568 4.37409 2.83413 0
M  V30 2448 C 217.896 5.1741 2.76594 0
M  V30 2449 C 220.248 5.72097 2.69977 0
M  V30 2450 C 218.912 6.12199 2.66024 0
M  V30 2451 H 218.182 0.42745 0.605283 0
M  V30 2452 H 220.829 1.59981 1.05254 0
M  V30 2453 H 219.134 1.41635 3.65304 0
M  V30 2454 H 220.831 1.80131 3.58265 0
M  V30 2455 H 217.421 3.09504 2.96488 0
M  V30 2456 H 221.605 4.06813 2.84283 0
M  V30 2457 H 216.861 5.47596 2.71935 0
M  V30 2458 H 221.035 6.45704 2.60844 0
M  V30 2459 H 218.662 7.16448 2.54178 0
M  V30 2460 N 220.237 -1.11381 1.11499 0
M  V30 2461 C 221.147 -2.21019 0.786628 0
M  V30 2462 C 222.163 -1.72597 -0.220507 0
M  V30 2463 O 223.339 -2.01321 -0.0565251 0
M  V30 2464 C 220.404 -3.459 0.235333 0
M  V30 2465 C 219.465 -4.09107 1.30115 0
M  V30 2466 C 218.698 -5.28027 0.776068 0
M  V30 2467 O 218.921 -5.6904 -0.393661 0
M  V30 2468 O 217.855 -5.81835 1.54114 0
M  V30 2469 H 221.681 -2.51521 1.70209 0
M  V30 2470 H 219.266 -1.19928 0.890928 0
M  V30 2471 H 221.148 -4.21346 -0.067715 0
M  V30 2472 H 219.823 -3.17049 -0.652828 0
M  V30 2473 H 218.73 -3.35391 1.65722 0
M  V30 2474 H 220.063 -4.42139 2.16273 0
M  V30 2475 N 221.715 -0.905404 -1.28997 0
M  V30 2476 C 222.648 -0.331959 -2.25773 0
M  V30 2477 C 223.626 0.559099 -1.52685 0
M  V30 2478 O 224.81 0.50463 -1.8162 0
M  V30 2479 C 221.937 0.526276 -3.34586 0
M  V30 2480 C 220.983 -0.298249 -4.25456 0
M  V30 2481 S 221.816 -1.69968 -5.0781 0
M  V30 2482 C 222.972 -0.848519 -6.20122 0
M  V30 2483 H 223.205 -1.15222 -2.74064 0
M  V30 2484 H 220.738 -0.706112 -1.37308 0
M  V30 2485 H 222.696 1.01565 -3.97737 0
M  V30 2486 H 221.357 1.32084 -2.84978 0
M  V30 2487 H 220.55 0.357607 -5.0273 0
M  V30 2488 H 220.152 -0.720968 -3.66985 0
M  V30 2489 H 222.444 -0.0744325 -6.77459 0
M  V30 2490 H 223.387 -1.59353 -6.89937 0
M  V30 2491 H 223.795 -0.400383 -5.63078 0
M  V30 2492 N 223.193 1.4272 -0.668489 0
M  V30 2493 C 224.441 2.01226 -0.187769 0
M  V30 2494 C 224.762 1.53092 1.2078 0
M  V30 2495 O 224.032 0.74993 1.80977 0
M  V30 2496 H 222.612 0.744041 -0.0664272 0
M  V30 2497 H 225.274 1.74723 -0.863583 0
M  V30 2498 H 224.37 3.11556 -0.184166 0
M  V30 2499 N 224.671 0.411399 1.52136 0
M  V30 2500 C 225.899 -0.163076 2.06256 0
M  V30 2501 C 226.314 -1.3867 1.28125 0
M  V30 2502 O 225.671 -1.79423 0.333721 0
M  V30 2503 C 225.722 -0.511252 3.57867 0
M  V30 2504 O 225.443 0.66378 4.33042 0
M  V30 2505 C 226.944 -1.13921 4.28412 0
M  V30 2506 H 224.164 -0.0193897 0.67072 0
M  V30 2507 H 226.708 0.583007 1.96013 0
M  V30 2508 H 224.863 -1.20723 3.6811 0
M  V30 2509 H 225.277 0.372601 5.23175 0
M  V30 2510 H 226.751 -1.33302 5.35663 0
M  V30 2511 H 227.228 -2.11296 3.85033 0
M  V30 2512 H 227.834 -0.483373 4.22544 0
M  V30 2513 N 226.149 -1.5696 0.141893 0
M  V30 2514 C 227.097 -2.17784 -0.816874 0
M  V30 2515 C 228.091 -1.1334 -1.25899 0
M  V30 2516 O 229.297 -1.316 -1.22806 0
M  V30 2517 H 225.672 -0.697278 -0.281615 0
M  V30 2518 H 227.643 -2.97087 -0.279621 0
M  V30 2519 C 226.392 -2.80983 -2.04802 0
M  V30 2520 H 225.715 -3.61062 -1.7168 0
M  V30 2521 H 227.155 -3.2705 -2.69841 0
M  V30 2522 C 225.614 -1.79228 -2.8527 0
M  V30 2523 O 226.144 -1.25962 -3.8144 0
M  V30 2524 N 224.35 -1.48647 -2.49704 0
M  V30 2525 H 223.897 -1.92155 -1.71564 0
M  V30 2526 H 223.855 -0.808115 -3.03837 0
M  V30 2527 N 227.627 0.131896 -1.57047 0
M  V30 2528 C 228.874 0.841932 -1.84168 0
M  V30 2529 C 229.202 1.8048 -0.725066 0
M  V30 2530 O 228.457 1.93618 0.284692 0
M  V30 2531 C 228.756 1.63703 -3.17704 0
M  V30 2532 C 228.422 0.81961 -4.43388 0
M  V30 2533 C 227.084 0.594148 -4.77518 0
M  V30 2534 C 229.436 0.248977 -5.20605 0
M  V30 2535 C 226.764 -0.212409 -5.86315 0
M  V30 2536 C 229.116 -0.544701 -6.30251 0
M  V30 2537 C 227.78 -0.780599 -6.6292 0
M  V30 2538 H 227.05 0.308085 -0.673917 0
M  V30 2539 H 229.697 0.104867 -1.91213 0
M  V30 2540 H 228.002 2.44464 -3.06177 0
M  V30 2541 H 229.699 2.19015 -3.35907 0
M  V30 2542 H 226.289 1.00542 -4.16641 0
M  V30 2543 H 230.473 0.410408 -4.946 0
M  V30 2544 H 225.729 -0.404524 -6.1006 0
M  V30 2545 H 229.903 -0.993922 -6.89271 0
M  V30 2546 H 227.53 -1.40742 -7.47058 0
M  V30 2547 N 229.106 1.52395 0.401703 0
M  V30 2548 C 230.331 1.70972 1.17403 0
M  V30 2549 C 230.756 0.421615 1.83314 0
M  V30 2550 O 230.114 -0.621564 1.70312 0
M  V30 2551 C 230.162 2.85151 2.20728 0
M  V30 2552 O 229.266 2.51238 3.27037 0
M  V30 2553 H 228.607 0.568927 0.342372 0
M  V30 2554 H 231.137 1.99131 0.469891 0
M  V30 2555 H 231.147 3.10279 2.64936 0
M  V30 2556 H 229.822 3.78603 1.7214 0
M  V30 2557 H 228.399 2.36808 2.88057 0
M  V30 2558 N 230.584 -0.659388 1.43143 0
M  V30 2559 C 231.494 -1.80167 1.50256 0
M  V30 2560 C 232.51 -1.69571 0.390106 0
M  V30 2561 O 233.686 -1.90849 0.643319 0
M  V30 2562 C 230.751 -3.16409 1.41725 0
M  V30 2563 C 229.812 -3.38848 2.63591 0
M  V30 2564 C 229.045 -4.68591 2.55458 0
M  V30 2565 O 229.268 -5.47532 1.59891 0
M  V30 2566 O 228.202 -4.92614 3.45854 0
M  V30 2567 H 232.028 -1.77121 2.46702 0
M  V30 2568 H 229.613 -0.817092 1.25076 0
M  V30 2569 H 231.495 -3.9768 1.39387 0
M  V30 2570 H 230.17 -3.20059 0.484118 0
M  V30 2571 H 229.077 -2.57366 2.71502 0
M  V30 2572 H 230.41 -3.4004 3.55856 0
M  V30 2573 N 232.062 -1.29571 -0.897171 0
M  V30 2574 C 233.287 -1.20705 -1.68656 0
M  V30 2575 C 233.712 0.228582 -1.86706 0
M  V30 2576 O 233.07 1.16494 -1.3892 0
M  V30 2577 C 233.118 -1.9282 -3.04717 0
M  V30 2578 O 232.222 -1.24697 -3.93096 0
M  V30 2579 H 231.563 -0.418126 -0.515816 0
M  V30 2580 H 234.093 -1.71183 -1.12061 0
M  V30 2581 H 234.103 -2.01372 -3.54843 0
M  V30 2582 H 232.778 -2.97239 -2.90899 0
M  V30 2583 H 231.355 -1.2442 -3.51531 0
M  V30 2584 N 233.54 1.10788 -1.12088 0
M  V30 2585 C 234.786 1.82942 -0.875226 0
M  V30 2586 C 235.119 1.84779 0.597538 0
M  V30 2587 O 234.394 1.30578 1.44152 0
M  V30 2588 C 234.677 3.29789 -1.44606 0
M  V30 2589 C 234.53 3.36307 -2.98693 0
M  V30 2590 C 235.849 4.26064 -1.10261 0
M  V30 2591 H 232.968 0.664195 -0.319397 0
M  V30 2592 H 235.61 1.29867 -1.38689 0
M  V30 2593 H 233.76 3.75118 -1.01089 0
M  V30 2594 H 235.432 2.99487 -3.50864 0
M  V30 2595 H 233.675 2.76318 -3.34411 0
M  V30 2596 H 234.346 4.39694 -3.33726 0
M  V30 2597 H 236.822 3.88951 -1.4784 0
M  V30 2598 H 235.698 5.27183 -1.52869 0
M  V30 2599 H 235.959 4.42098 -0.0142953 0
M  V30 2600 N 235.018 0.912232 1.28515 0
M  V30 2601 C 235.928 0.404506 2.31086 0
M  V30 2602 C 236.944 -0.50707 1.66448 0
M  V30 2603 O 238.12 -0.393624 1.97516 0
M  V30 2604 C 235.185 -0.348572 3.44943 0
M  V30 2605 C 234.246 0.59604 4.25142 0
M  V30 2606 C 233.479 -0.121194 5.33562 0
M  V30 2607 O 233.702 -1.34317 5.5436 0
M  V30 2608 O 232.636 0.542716 5.99448 0
M  V30 2609 H 236.462 1.25579 2.76521 0
M  V30 2610 H 234.047 0.676998 1.33181 0
M  V30 2611 H 235.929 -0.77395 4.14232 0
M  V30 2612 H 234.604 -1.17571 3.01594 0
M  V30 2613 H 233.511 1.07079 3.58448 0
M  V30 2614 H 234.844 1.38995 4.72167 0
M  V30 2615 N 236.496 -1.42363 0.676048 0
M  V30 2616 C 237.446 -2.27987 -0.0242903 0
M  V30 2617 C 238.43 -1.41153 -0.772319 0
M  V30 2618 O 239.622 -1.64592 -0.651025 0
M  V30 2619 C 236.751 -3.29195 -0.973953 0
M  V30 2620 C 235.837 -4.23512 -0.223202 0
M  V30 2621 N 236.228 -4.99865 0.772589 0
M  V30 2622 C 234.526 -4.43606 -0.461469 0
M  V30 2623 C 235.227 -5.68757 1.22027 0
M  V30 2624 N 234.203 -5.40811 0.549975 0
M  V30 2625 H 238.005 -2.84445 0.73949 0
M  V30 2626 H 235.519 -1.54341 0.50522 0
M  V30 2627 H 237.516 -3.89339 -1.49067 0
M  V30 2628 H 236.176 -2.74298 -1.73755 0
M  V30 2629 H 237.187 -5.04921 1.15217 0
M  V30 2630 H 233.864 -3.99749 -1.20446 0
M  V30 2631 H 235.254 -6.40007 2.0455 0
M  V30 2632 N 237.974 -0.419461 -1.51915 0
M  V30 2633 C 239.39 -0.0708431 -1.59443 0
M  V30 2634 C 239.59 1.41796 -1.43164 0
M  V30 2635 O 238.646 2.18596 -1.26381 0
M  V30 2636 C 239.959 -0.574991 -2.95151 0
M  V30 2637 C 241.507 -0.533867 -3.08413 0
M  V30 2638 C 241.982 -1.01469 -4.46618 0
M  V30 2639 N 243.473 -0.971939 -4.52888 0
M  V30 2640 C 244.208 -1.31505 -5.58116 0
M  V30 2641 N 243.704 -1.73014 -6.70849 0
M  V30 2642 N 245.497 -1.23436 -5.48379 0
M  V30 2643 H 237.648 -1.38836 -1.60743 0
M  V30 2644 H 239.911 -0.570998 -0.756747 0
M  V30 2645 H 239.617 -1.61597 -3.12377 0
M  V30 2646 H 239.491 0.00979777 -3.77199 0
M  V30 2647 H 241.878 0.498086 -2.90866 0
M  V30 2648 H 241.959 -1.15484 -2.28248 0
M  V30 2649 H 241.603 -2.04502 -4.6491 0
M  V30 2650 H 241.533 -0.370433 -5.25295 0
M  V30 2651 H 244.024 -0.666893 -3.71969 0
M  V30 2652 H 244.337 -1.97479 -7.47143 0
M  V30 2653 H 242.682 -1.76926 -6.72103 0
M  V30 2654 H 245.873 -0.908869 -4.59192 0
M  V30 2655 H 246.046 -1.50506 -6.30279 0
M  V30 2656 N 239.452 1.56882 -0.150215 0
M  V30 2657 C 240.677 2.01027 0.510184 0
M  V30 2658 C 241.102 1.02966 1.57415 0
M  V30 2659 O 240.46 0.00590158 1.81299 0
M  V30 2660 C 240.508 3.43899 1.08472 0
M  V30 2661 O 239.612 3.4885 2.19948 0
M  V30 2662 H 238.953 0.652233 0.124451 0
M  V30 2663 H 241.483 2.03093 -0.247894 0
M  V30 2664 H 241.493 3.82766 1.41259 0
M  V30 2665 H 240.168 4.14776 0.305582 0
M  V30 2666 H 238.745 3.21827 1.88366 0
M  V30 2667 N 240.93 -0.123565 1.57115 0
M  V30 2668 C 241.86 -1.15309 2.03042 0
M  V30 2669 C 242.841 -1.43454 0.914061 0
M  V30 2670 O 244.026 -1.53973 1.18347 0
M  V30 2671 C 241.156 -2.48043 2.43089 0
M  V30 2672 C 240.11 -2.3437 3.58127 0
M  V30 2673 C 239.436 -3.72026 3.84059 0
M  V30 2674 C 240.736 -1.80804 4.90007 0
M  V30 2675 H 242.43 -0.771102 2.893 0
M  V30 2676 H 239.976 -0.369479 1.39179 0
M  V30 2677 H 241.929 -3.20311 2.73823 0
M  V30 2678 H 240.653 -2.88122 1.53796 0
M  V30 2679 H 239.312 -1.64551 3.27595 0
M  V30 2680 H 238.96 -4.09582 2.91979 0
M  V30 2681 H 238.66 -3.63732 4.6149 0
M  V30 2682 H 240.184 -4.45806 4.1724 0
M  V30 2683 H 241.598 -2.42886 5.19307 0
M  V30 2684 H 239.995 -1.83343 5.71407 0
M  V30 2685 H 241.065 -0.76528 4.78823 0
M  V30 2686 N 242.408 -1.52605 -0.393616 0
M  V30 2687 C 243.657 -1.66649 -1.13627 0
M  V30 2688 C 243.97 -0.410364 -1.91247 0
M  V30 2689 O 245.176 -0.430854 -2.68059 0
M  V30 2690 C 243.632 -2.9449 -2.06891 0
M  V30 2691 C 243.24 -4.27266 -1.34714 0
M  V30 2692 C 244.984 -3.17899 -2.81319 0
M  V30 2693 C 242.891 -5.46217 -2.26717 0
M  V30 2694 H 241.821 -0.62084 -0.427871 0
M  V30 2695 H 244.472 -1.791 -0.399428 0
M  V30 2696 H 242.854 -2.75774 -2.84191 0
M  V30 2697 H 244.028 -4.56518 -0.626714 0
M  V30 2698 H 242.343 -4.10081 -0.722643 0
M  V30 2699 H 244.94 -4.03949 -3.50328 0
M  V30 2700 H 245.283 -2.32777 -3.45139 0
M  V30 2701 H 245.816 -3.37159 -2.11113 0
M  V30 2702 H 242.555 -6.33733 -1.67521 0
M  V30 2703 H 242.075 -5.21283 -2.96689 0
M  V30 2704 H 243.754 -5.7991 -2.86903 0
M  V30 2705 N 243.887 0.651787 -1.4349 0
M  V30 2706 C 244.82 1.77668 -1.43211 0
M  V30 2707 C 245.798 1.59931 -0.29338 0
M  V30 2708 O 246.982 1.82095 -0.487191 0
M  V30 2709 C 244.109 3.14986 -1.24505 0
M  V30 2710 C 243.155 3.51421 -2.41673 0
M  V30 2711 S 243.988 3.51234 -4.04222 0
M  V30 2712 C 245.144 4.91206 -3.87902 0
M  V30 2713 H 245.377 1.77635 -2.38397 0
M  V30 2714 H 242.91 0.824558 -1.30539 0
M  V30 2715 H 244.868 3.94237 -1.144 0
M  V30 2716 H 243.529 3.1258 -0.308651 0
M  V30 2717 H 242.722 4.51291 -2.24393 0
M  V30 2718 H 242.324 2.79585 -2.48411 0
M  V30 2719 H 244.616 5.79902 -3.50315 0
M  V30 2720 H 245.559 5.13537 -4.8753 0
M  V30 2721 H 245.967 4.64808 -3.20334 0
M  V30 2722 N 245.365 1.30045 0.890287 0
M  V30 2723 C 246.312 1.15976 1.99545 0
M  V30 2724 C 247.282 0.0506202 1.66023 0
M  V30 2725 O 248.467 0.219847 1.89529 0
M  V30 2726 C 245.607 0.852054 3.34416 0
M  V30 2727 C 244.72 2.04255 3.80662 0
M  V30 2728 C 243.855 1.6734 5.04154 0
M  V30 2729 C 242.894 2.82916 5.42794 0
M  V30 2730 N 242.031 2.46333 6.57468 0
M  V30 2731 H 246.871 2.10524 2.10911 0
M  V30 2732 H 244.408 1.04749 1.03276 0
M  V30 2733 H 246.366 0.654296 4.12037 0
M  V30 2734 H 244.996 -0.0565502 3.2275 0
M  V30 2735 H 244.048 2.35172 2.98995 0
M  V30 2736 H 245.36 2.90826 4.05242 0
M  V30 2737 H 244.514 1.43908 5.89386 0
M  V30 2738 H 243.253 0.779308 4.81433 0
M  V30 2739 H 242.258 3.0702 4.56091 0
M  V30 2740 H 243.483 3.73004 5.6749 0
M  V30 2741 H 241.429 1.59423 6.36334 0
M  V30 2742 H 241.346 3.26436 6.81891 0
M  V30 2743 H 242.614 2.26244 7.45945 0
M  V30 2744 N 246.843 -1.10192 1.12674 0
M  V30 2745 C 247.79 -2.16606 0.796906 0
M  V30 2746 C 248.76 -1.64394 -0.237476 0
M  V30 2747 O 249.945 -1.90474 -0.111484 0
M  V30 2748 C 247.085 -3.44116 0.26043 0
M  V30 2749 C 246.198 -4.10268 1.35293 0
M  V30 2750 C 245.333 -5.25507 0.775621 0
M  V30 2751 C 244.372 -5.83567 1.84706 0
M  V30 2752 N 243.509 -6.90179 1.28829 0
M  V30 2753 H 248.349 -2.44163 1.70846 0
M  V30 2754 H 245.886 -1.19846 0.85295 0
M  V30 2755 H 247.844 -4.17143 -0.0686814 0
M  V30 2756 H 246.474 -3.16901 -0.614274 0
M  V30 2757 H 245.526 -3.35184 1.79877 0
M  V30 2758 H 246.838 -4.4946 2.16303 0
M  V30 2759 H 245.992 -6.05398 0.397327 0
M  V30 2760 H 244.731 -4.87656 -0.0656581 0
M  V30 2761 H 243.736 -5.02344 2.23452 0
M  V30 2762 H 244.961 -6.23482 2.69161 0
M  V30 2763 H 242.907 -6.54322 0.468881 0
M  V30 2764 H 242.824 -7.28097 2.03497 0
M  V30 2765 H 244.092 -7.73844 0.937311 0
M  V30 2766 N 248.321 -0.919034 -1.28029 0
M  V30 2767 C 249.251 -0.428581 -2.29533 0
M  V30 2768 C 250.232 0.50659 -1.62381 0
M  V30 2769 O 251.417 0.413195 -1.89753 0
M  V30 2770 C 248.547 0.327388 -3.45753 0
M  V30 2771 C 247.501 -0.519137 -4.2484 0
M  V30 2772 C 246.827 0.365486 -5.33449 0
M  V30 2773 C 248.127 -1.77914 -4.91064 0
M  V30 2774 H 249.821 -1.27687 -2.70807 0
M  V30 2775 H 247.367 -0.615428 -1.30186 0
M  V30 2776 H 249.32 0.681378 -4.15855 0
M  V30 2777 H 248.044 1.20963 -3.03374 0
M  V30 2778 H 246.703 -0.855717 -3.56473 0
M  V30 2779 H 246.351 1.24642 -4.87312 0
M  V30 2780 H 246.051 -0.197356 -5.87268 0
M  V30 2781 H 247.575 0.715241 -6.06396 0
M  V30 2782 H 248.989 -1.49374 -5.53498 0
M  V30 2783 H 247.386 -2.2848 -5.54903 0
M  V30 2784 H 248.456 -2.50382 -4.15255 0
M  V30 2785 N 249.799 1.42003 -0.683588 0
M  V30 2786 C 251.027 2.05746 -0.218182 0
M  V30 2787 C 251.442 1.51396 1.12804 0
M  V30 2788 O 250.799 0.657303 1.70252 0
M  V30 2789 C 250.85 3.61171 -0.154131 0
M  V30 2790 O 250.571 4.13508 -1.44716 0
M  V30 2791 C 252.072 4.42042 0.333713 0
M  V30 2792 H 249.292 0.662888 -0.10402 0
M  V30 2793 H 251.836 1.81987 -0.9328 0
M  V30 2794 H 249.991 3.84012 0.511231 0
M  V30 2795 H 250.405 5.07453 -1.32632 0
M  V30 2796 H 251.879 5.51028 0.327423 0
M  V30 2797 H 252.356 4.17269 1.37053 0
M  V30 2798 H 252.962 4.24239 -0.300222 0
M  V30 2799 N 251.277 0.427512 1.51691 0
M  V30 2800 C 252.507 -0.140986 2.06118 0
M  V30 2801 C 252.915 -1.37854 1.29588 0
M  V30 2802 O 252.258 -1.80411 0.346036 0
M  V30 2803 C 252.32 -0.538276 3.55447 0
M  V30 2804 C 251.984 0.591095 4.53161 0
M  V30 2805 C 252.981 1.46027 4.98971 0
M  V30 2806 C 250.666 0.769028 4.96378 0
M  V30 2807 C 252.66 2.49216 5.8666 0
M  V30 2808 C 250.347 1.80421 5.83859 0
M  V30 2809 C 251.345 2.66417 6.28897 0
M  V30 2810 O 251.033 3.68159 7.14643 0
M  V30 2811 H 250.765 -0.0157455 0.675817 0
M  V30 2812 H 253.319 0.602495 1.96365 0
M  V30 2813 H 251.549 -1.33432 3.6295 0
M  V30 2814 H 253.238 -1.0368 3.92435 0
M  V30 2815 H 254.004 1.33429 4.66285 0
M  V30 2816 H 249.883 0.109273 4.6087 0
M  V30 2817 H 253.427 3.16372 6.21735 0
M  V30 2818 H 249.324 1.93042 6.15959 0
M  V30 2819 H 250.092 3.64622 7.32798 0
M  V30 2820 N 252.755 -1.56801 0.158532 0
M  V30 2821 C 253.718 -2.16138 -0.762705 0
M  V30 2822 C 254.718 -1.1061 -1.16713 0
M  V30 2823 O 255.908 -1.36191 -1.08617 0
M  V30 2824 C 253.04 -2.73386 -2.03649 0
M  V30 2825 H 254.233 -2.98886 -0.246354 0
M  V30 2826 H 251.786 -1.56035 -0.0909744 0
M  V30 2827 H 252.521 -1.94335 -2.59623 0
M  V30 2828 H 252.306 -3.50601 -1.75559 0
M  V30 2829 H 253.796 -3.19065 -2.6942 0
M  V30 2830 N 254.233 0.115231 -1.57178 0
M  V30 2831 C 255.18 1.14115 -2.00615 0
M  V30 2832 C 256.15 1.40939 -0.878941 0
M  V30 2833 O 257.335 1.52741 -1.14345 0
M  V30 2834 C 254.475 2.46156 -2.4187 0
M  V30 2835 C 253.588 2.26236 -3.68024 0
M  V30 2836 C 252.723 3.51534 -3.98243 0
M  V30 2837 C 251.762 3.26787 -5.17568 0
M  V30 2838 N 250.899 4.44298 -5.43639 0
M  V30 2839 H 255.739 0.763743 -2.88047 0
M  V30 2840 H 253.276 0.365615 -1.42484 0
M  V30 2841 H 255.234 3.23189 -2.63827 0
M  V30 2842 H 253.864 2.81783 -1.57475 0
M  V30 2843 H 252.916 1.40102 -3.5366 0
M  V30 2844 H 254.228 2.03929 -4.55208 0
M  V30 2845 H 253.382 4.36984 -4.20868 0
M  V30 2846 H 252.121 3.76876 -3.09541 0
M  V30 2847 H 251.126 2.39729 -4.94783 0
M  V30 2848 H 252.351 3.02812 -6.0785 0
M  V30 2849 H 250.297 4.69754 -4.57895 0
M  V30 2850 H 250.214 4.25109 -6.25154 0
M  V30 2851 H 251.482 5.3087 -5.70786 0
M  V30 2852 N 255.711 1.52812 0.385517 0
M  V30 2853 C 256.621 1.80766 1.49535 0
M  V30 2854 C 257.637 0.694651 1.59532 0
M  V30 2855 O 258.813 0.982611 1.75803 0
M  V30 2856 C 255.878 1.97381 2.85029 0
M  V30 2857 C 254.939 3.21295 2.84724 0
M  V30 2858 C 254.172 3.37108 4.13756 0
M  V30 2859 O 254.395 2.5765 5.08893 0
M  V30 2860 O 253.329 4.30378 4.20783 0
M  V30 2861 H 257.155 2.75015 1.28842 0
M  V30 2862 H 254.74 1.37946 0.573697 0
M  V30 2863 H 256.622 2.09996 3.65349 0
M  V30 2864 H 255.297 1.06322 3.05741 0
M  V30 2865 H 254.204 3.1412 2.03174 0
M  V30 2866 H 255.537 4.12212 2.68965 0
M  V30 2867 N 257.189 -0.644168 1.43834 0
M  V30 2868 C 258.417 -1.43147 1.49387 0
M  V30 2869 C 258.832 -1.88452 0.114583 0
M  V30 2870 O 258.189 -1.60047 -0.876989 0
M  V30 2871 C 258.24 -2.66046 2.44748 0
M  V30 2872 O 257.961 -2.22633 3.77314 0
M  V30 2873 C 259.462 -3.59311 2.59635 0
M  V30 2874 H 256.682 -0.439447 0.507077 0
M  V30 2875 H 259.226 -0.78895 1.88669 0
M  V30 2876 H 257.381 -3.26418 2.08638 0
M  V30 2877 H 257.795 -3.02216 4.28679 0
M  V30 2878 H 259.269 -4.42187 3.30416 0
M  V30 2879 H 259.746 -4.07259 1.64427 0
M  V30 2880 H 260.352 -3.04816 2.96593 0
M  V30 2881 N 258.668 -1.30515 -0.883378 0
M  V30 2882 C 259.914 -1.19607 -1.63774 0
M  V30 2883 C 260.247 0.248314 -1.92606 0
M  V30 2884 O 259.522 1.17742 -1.54813 0
M  V30 2885 C 259.805 -2.02669 -2.97653 0
M  V30 2886 C 259.658 -3.55335 -2.75784 0
M  V30 2887 C 260.977 -1.86573 -3.98596 0
M  V30 2888 H 258.096 -0.435856 -0.594305 0
M  V30 2889 H 260.738 -1.60165 -1.02212 0
M  V30 2890 H 258.888 -1.68208 -3.50197 0
M  V30 2891 H 260.56 -3.99863 -2.30016 0
M  V30 2892 H 258.803 -3.79438 -2.1026 0
M  V30 2893 H 259.474 -4.08745 -3.70988 0
M  V30 2894 H 261.95 -2.16703 -3.55217 0
M  V30 2895 H 260.826 -2.47014 -4.90179 0
M  V30 2896 H 261.087 -0.825321 -4.34328 0
M  V30 2897 N 260.146 1.09593 -1.13257 0
M  V30 2898 C 261.371 1.8604 -0.916732 0
M  V30 2899 C 261.796 1.80504 0.529146 0
M  V30 2900 O 261.154 1.18127 1.37534 0
M  V30 2901 C 261.202 3.32017 -1.40703 0
M  V30 2902 O 260.306 4.08141 -0.591153 0
M  V30 2903 H 259.647 0.576943 -0.328683 0
M  V30 2904 H 262.177 1.38405 -1.50682 0
M  V30 2905 H 262.187 3.82865 -1.4099 0
M  V30 2906 H 260.862 3.35361 -2.45979 0
M  V30 2907 H 259.439 3.67084 -0.656005 0
M  V30 2908 N 261.624 0.925811 1.2754 0
M  V30 2909 C 262.849 0.580924 1.99098 0
M  V30 2910 C 263.274 -0.833555 1.68622 0
M  V30 2911 O 262.632 -1.55903 0.925422 0
M  V30 2912 C 262.68 0.811186 3.51358 0
M  V30 2913 O 261.784 -0.124129 4.12213 0
M  V30 2914 H 261.125 0.223873 0.625122 0
M  V30 2915 H 263.655 1.24455 1.62395 0
M  V30 2916 H 263.665 0.72601 4.01489 0
M  V30 2917 H 262.34 1.84227 3.72872 0
M  V30 2918 H 260.917 0.0108006 3.72898 0
M  V30 2919 N 263.102 -1.41638 0.69111 0
M  V30 2920 C 264.327 -2.06148 0.227583 0
M  V30 2921 C 264.752 -1.51652 -1.11281 0
M  V30 2922 O 264.11 -0.64164 -1.69566 0
M  V30 2923 C 264.158 -3.60095 0.190858 0
M  V30 2924 O 263.262 -4.03845 -0.835664 0
M  V30 2925 H 262.603 -0.654434 0.112306 0
M  V30 2926 H 265.133 -1.81484 0.944714 0
M  V30 2927 H 265.143 -4.07995 0.020207 0
M  V30 2928 H 263.818 -3.99129 1.16915 0
M  V30 2929 H 262.395 -3.67458 -0.63473 0
M  V30 2930 N 264.58 -0.43555 -1.51462 0
M  V30 2931 C 265.49 0.383001 -2.31453 0
M  V30 2932 C 266.506 1.02931 -1.4029 0
M  V30 2933 O 267.682 1.02507 -1.73362 0
M  V30 2934 C 264.747 1.47043 -3.13973 0
M  V30 2935 C 263.808 0.844433 -4.20913 0
M  V30 2936 C 263.041 1.88004 -4.9949 0
M  V30 2937 O 263.264 3.10199 -4.78678 0
M  V30 2938 O 262.198 1.47157 -5.83634 0
M  V30 2939 H 266.024 -0.269964 -3.02498 0
M  V30 2940 H 263.609 -0.19813 -1.4808 0
M  V30 2941 H 265.491 2.10113 -3.65281 0
M  V30 2942 H 264.166 2.10751 -2.45695 0
M  V30 2943 H 263.073 0.175729 -3.73687 0
M  V30 2944 H 264.406 0.250869 -4.9156 0
M  V30 2945 N 266.058 1.56714 -0.166846 0
M  V30 2946 C 266.988 2.20754 0.760913 0
M  V30 2947 C 267.969 1.16178 1.24244 0
M  V30 2948 O 269.154 1.44592 1.29641 0
M  V30 2949 C 266.284 2.84478 1.99223 0
M  V30 2950 C 265.238 3.95053 1.64672 0
M  V30 2951 C 264.564 4.45805 2.95232 0
M  V30 2952 C 265.864 5.14865 0.878155 0
M  V30 2953 H 267.558 2.98537 0.22713 0
M  V30 2954 H 265.104 1.43596 0.107805 0
M  V30 2955 H 267.057 3.27951 2.64624 0
M  V30 2956 H 265.781 2.04056 2.55007 0
M  V30 2957 H 264.44 3.52228 1.01641 0
M  V30 2958 H 264.088 3.62181 3.49047 0
M  V30 2959 H 263.788 5.204 2.7287 0
M  V30 2960 H 265.312 4.91962 3.6167 0
M  V30 2961 H 266.726 5.55059 1.43466 0
M  V30 2962 H 265.123 5.95348 0.753738 0
M  V30 2963 H 266.193 4.84735 -0.126377 0
M  V30 2964 N 267.536 -0.106894 1.57237 0
M  V30 2965 C 268.761 -0.830287 1.90055 0
M  V30 2966 C 269.186 -1.72064 0.75998 0
M  V30 2967 O 268.544 -1.78982 -0.288991 0
M  V30 2968 C 268.592 -1.6295 3.21683 0
M  V30 2969 O 267.696 -2.73748 3.08441 0
M  V30 2970 H 267.037 -0.228855 0.623315 0
M  V30 2971 H 269.567 -0.085658 2.04421 0
M  V30 2972 H 269.577 -2.01621 3.54701 0
M  V30 2973 H 268.252 -0.975989 4.04286 0
M  V30 2974 H 266.829 -2.38192 2.86913 0
M  V30 2975 N 269.014 -1.53014 -0.377408 0
M  V30 2976 C 270.239 -1.72818 -1.14668 0
M  V30 2977 C 270.664 -0.450725 -1.8262 0
M  V30 2978 O 270.022 0.59439 -1.7128 0
M  V30 2979 C 270.07 -2.88627 -2.16164 0
M  V30 2980 O 269.174 -2.56409 -3.22998 0
M  V30 2981 H 268.515 -0.574301 -0.333278 0
M  V30 2982 H 271.045 -1.99853 -0.438152 0
M  V30 2983 H 271.055 -3.14455 -2.59966 0
M  V30 2984 H 269.73 -3.81294 -1.66095 0
M  V30 2985 H 268.307 -2.4136 -2.84253 0
M  V30 2986 N 270.492 0.636531 -1.44174 0
M  V30 2987 C 271.903 1.21806 -1.41493 0
M  V30 2988 C 272.254 1.95785 -0.1275 0
M  V30 2989 O 271.379 2.02147 0.772376 0
M  V30 2990 C 271.974 2.21551 -2.56321 0
M  V30 2991 C 270.533 2.75143 -2.56853 0
M  V30 2992 C 269.68 1.50052 -2.33195 0
M  V30 2993 H 272.631 0.427531 -1.52833 0
M  V30 2994 H 272.652 3.0405 -2.28765 0
M  V30 2995 H 272.164 1.67679 -3.50008 0
M  V30 2996 H 270.265 3.33033 -1.67093 0
M  V30 2997 H 270.378 3.2155 -3.55165 0
M  V30 2998 H 268.742 1.77993 -1.82183 0
M  V30 2999 H 269.525 0.980903 -3.28988 0
M  V30 3000 N 271.97 1.30982 0.876444 0
M  V30 3001 C 273.216 1.20474 1.63138 0
M  V30 3002 C 273.549 -0.238096 1.92735 0
M  V30 3003 O 272.824 -1.1692 1.55435 0
M  V30 3004 C 273.107 2.04244 2.96574 0
M  V30 3005 C 272.96 3.56793 2.73896 0
M  V30 3006 C 274.279 1.88684 3.97601 0
M  V30 3007 H 271.398 0.439001 0.591985 0
M  V30 3008 H 274.04 1.60704 1.01361 0
M  V30 3009 H 272.19 1.70063 3.493 0
M  V30 3010 H 273.862 4.01077 2.27892 0
M  V30 3011 H 272.105 3.80548 2.08245 0
M  V30 3012 H 272.776 4.10706 3.68815 0
M  V30 3013 H 275.252 2.18584 3.54062 0
M  V30 3014 H 274.128 2.4961 4.88862 0
M  V30 3015 H 274.389 0.848343 4.33884 0
M  V30 3016 N 273.449 -1.08991 1.13837 0
M  V30 3017 C 274.86 -1.62746 0.914917 0
M  V30 3018 C 275.211 -1.88403 -0.547594 0
M  V30 3019 O 274.336 -1.63706 -1.41525 0
M  V30 3020 C 274.931 -2.95662 1.65437 0
M  V30 3021 C 273.49 -3.46225 1.47666 0
M  V30 3022 C 272.637 -2.20562 1.6807 0
M  V30 3023 H 275.588 -0.922946 1.29102 0
M  V30 3024 H 275.609 -3.63825 1.11407 0
M  V30 3025 H 275.121 -2.76956 2.71877 0
M  V30 3026 H 273.222 -3.70046 0.435478 0
M  V30 3027 H 273.335 -4.23368 2.24268 0
M  V30 3028 H 271.699 -2.29439 1.10589 0
M  V30 3029 H 272.482 -2.0437 2.7584 0
M  V30 3030 N 274.927 -0.932562 -1.27047 0
M  V30 3031 C 276.173 -0.576412 -1.94436 0
M  V30 3032 C 276.506 0.880891 -1.73072 0
M  V30 3033 O 275.781 1.62905 -1.06264 0
M  V30 3034 C 276.064 -0.909031 -3.48437 0
M  V30 3035 C 275.917 -2.42044 -3.79123 0
M  V30 3036 C 277.236 -0.418341 -4.38107 0
M  V30 3037 H 274.355 -0.210888 -0.706184 0
M  V30 3038 H 276.997 -1.16522 -1.50075 0
M  V30 3039 H 275.147 -0.407947 -3.86352 0
M  V30 3040 H 276.819 -2.99359 -3.50973 0
M  V30 3041 H 275.062 -2.86758 -3.25503 0
M  V30 3042 H 275.733 -2.6037 -4.86736 0
M  V30 3043 H 278.209 -0.847856 -4.0737 0
M  V30 3044 H 277.085 -0.679981 -5.44672 0
M  V30 3045 H 277.346 0.681642 -4.36814 0
M  V30 3046 N 276.405 1.4127 -0.698611 0
M  V30 3047 C 277.653 2.00782 -0.230409 0
M  V30 3048 C 277.974 1.5562 1.17505 0
M  V30 3049 O 277.244 0.78815 1.79346 0
M  V30 3050 H 275.824 0.742464 -0.0821944 0
M  V30 3051 H 278.486 1.72852 -0.90045 0
M  V30 3052 H 277.582 3.11095 -0.25021 0
M  V30 3053 N 277.883 0.443576 1.51229 0
M  V30 3054 C 279.16 -0.181038 1.9476 0
M  V30 3055 C 279.54 -1.59523 1.38259 0
M  V30 3056 O 278.888 -2.2122 0.572198 0
M  V30 3057 C 279.098 -0.152422 3.48667 0
M  V30 3058 C 280.446 -0.354923 4.23114 0
M  V30 3059 O 281.47 -0.230257 3.55455 0
M  V30 3060 O 280.329 -0.603674 5.43156 0
M  V30 3061 H 277.423 -0.1266 0.817252 0
M  V30 3062 H 279.969 0.502004 1.62105 0
M  V30 3063 H 278.741 0.836022 3.82265 0
M  V30 3064 H 278.364 -0.878107 3.87782 0
M  V30 3065 N 279.361 -1.56624 0.175154 0
M  V30 3066 C 280.589 -2.01374 -0.474971 0
M  V30 3067 C 281.004 -1.05537 -1.56548 0
M  V30 3068 O 280.361 -0.0568668 -1.82411 0
M  V30 3069 C 280.412 -3.45923 -1.04975 0
M  V30 3070 O 280.133 -4.381 -0.00276605 0
M  V30 3071 C 281.634 -4.06093 -1.77773 0
M  V30 3072 H 278.854 -0.659962 -0.121206 0
M  V30 3073 H 281.398 -2.02601 0.27801 0
M  V30 3074 H 279.553 -3.45458 -1.75321 0
M  V30 3075 H 279.967 -5.22753 -0.427681 0
M  V30 3076 H 281.441 -5.09147 -2.13245 0
M  V30 3077 H 281.918 -3.48405 -2.67414 0
M  V30 3078 H 282.524 -4.10272 -1.12059 0
M  V30 3079 N 280.839 0.0985539 -1.57292 0
M  V30 3080 C 282.064 0.820196 -1.90493 0
M  V30 3081 C 282.489 1.71658 -0.769094 0
M  V30 3082 O 281.847 1.79133 0.279495 0
M  V30 3083 C 281.895 1.61242 -3.22542 0
M  V30 3084 O 280.999 2.72108 -3.09888 0
M  V30 3085 H 280.34 0.225547 -0.62452 0
M  V30 3086 H 282.87 0.0748159 -2.04463 0
M  V30 3087 H 282.88 1.99737 -3.55766 0
M  V30 3088 H 281.555 0.954535 -4.04798 0
M  V30 3089 H 280.132 2.36667 -2.88172 0
M  V30 3090 N 282.317 1.53212 0.369288 0
M  V30 3091 C 283.545 1.73119 1.13303 0
M  V30 3092 C 283.96 0.458455 1.83149 0
M  V30 3093 O 283.317 -0.568403 1.73423 0
M  V30 3094 C 283.368 2.89413 2.16616 0
M  V30 3095 O 283.089 4.11761 1.49614 0
M  V30 3096 C 284.59 3.21161 3.05566 0
M  V30 3097 H 281.81 0.579107 0.338934 0
M  V30 3098 H 284.354 1.99942 0.429338 0
M  V30 3099 H 282.509 2.64994 2.82589 0
M  V30 3100 H 282.923 4.76858 2.18419 0
M  V30 3101 H 284.397 4.05949 3.74045 0
M  V30 3102 H 284.874 2.36369 3.70171 0
M  V30 3103 H 285.48 3.47492 2.45213 0
M  V30 3104 N 283.795 -0.628877 1.44509 0
M  V30 3105 C 284.725 -1.75187 1.54376 0
M  V30 3106 C 285.706 -1.65411 0.396618 0
M  V30 3107 O 286.891 -1.84137 0.617031 0
M  V30 3108 C 284.021 -3.13725 1.48976 0
M  V30 3109 C 282.975 -3.38291 2.62189 0
M  V30 3110 C 282.301 -4.76883 2.41841 0
M  V30 3111 C 283.601 -3.30632 4.04326 0
M  V30 3112 H 285.295 -1.67187 2.48373 0
M  V30 3113 H 282.841 -0.802909 1.19538 0
M  V30 3114 H 284.794 -3.92064 1.54478 0
M  V30 3115 H 283.518 -3.22515 0.514961 0
M  V30 3116 H 282.177 -2.62334 2.56079 0
M  V30 3117 H 281.825 -4.82378 1.42548 0
M  V30 3118 H 281.525 -4.94278 3.17747 0
M  V30 3119 H 283.049 -5.57449 2.49165 0
M  V30 3120 H 284.463 -3.98873 4.11793 0
M  V30 3121 H 282.86 -3.59561 4.80454 0
M  V30 3122 H 283.93 -2.28404 4.27738 0
M  V30 3123 N 285.273 -1.31445 -0.869486 0
M  V30 3124 C 286.521 -1.20918 -1.61936 0
M  V30 3125 C 286.842 0.232683 -1.93607 0
M  V30 3126 O 286.112 1.15352 -1.58338 0
M  V30 3127 H 284.692 -0.44454 -0.600328 0
M  V30 3128 H 287.354 -1.64776 -1.0409 0
M  V30 3129 H 286.45 -1.78124 -2.56278 0
M  V30 3130 N 286.751 1.08385 -1.14413 0
M  V30 3131 C 288.028 1.77429 -0.823297 0
M  V30 3132 C 288.408 1.9974 0.683163 0
M  V30 3133 O 287.756 1.60739 1.62405 0
M  V30 3134 C 287.966 3.09004 -1.62227 0
M  V30 3135 C 289.314 3.83532 -1.82177 0
M  V30 3136 O 290.338 3.18786 -1.58915 0
M  V30 3137 O 289.197 4.99792 -2.21067 0
M  V30 3138 H 286.291 0.769999 -0.301712 0
M  V30 3139 H 288.837 1.14846 -1.24934 0
M  V30 3140 H 287.609 2.88316 -2.64555 0
M  V30 3141 H 287.232 3.79316 -1.19187 0
M  V30 3142 N 288.23 0.939286 1.26551 0
M  V30 3143 C 289.458 0.602536 1.97932 0
M  V30 3144 C 289.873 -0.82206 1.69964 0
M  V30 3145 O 289.23 -1.54789 0.966784 0
M  V30 3146 C 289.281 0.832946 3.51773 0
M  V30 3147 O 289.002 2.20151 3.78768 0
M  V30 3148 C 290.503 0.506483 4.40397 0
M  V30 3149 H 287.723 0.227248 0.631347 0
M  V30 3150 H 290.267 1.25948 1.61113 0
M  V30 3151 H 288.422 0.222644 3.8676 0
M  V30 3152 H 288.836 2.26013 4.73306 0
M  V30 3153 H 290.31 0.718333 5.47306 0
M  V30 3154 H 290.787 -0.558451 4.35635 0
M  V30 3155 H 291.393 1.09543 4.10951 0
M  V30 3156 N 289.708 -1.40897 0.706093 0
M  V30 3157 C 290.936 -2.05373 0.250887 0
M  V30 3158 C 291.351 -1.53172 -1.10381 0
M  V30 3159 O 290.708 -0.684305 -1.69185 0
M  V30 3160 C 290.759 -3.6088 0.211571 0
M  V30 3161 O 290.48 -4.11153 1.51276 0
M  V30 3162 C 291.981 -4.42517 -0.263346 0
M  V30 3163 H 289.201 -0.66115 0.114552 0
M  V30 3164 H 291.745 -1.80479 0.961635 0
M  V30 3165 H 289.9 -3.84777 -0.450073 0
M  V30 3166 H 290.314 -5.05279 1.40689 0
M  V30 3167 H 291.788 -5.51479 -0.239718 0
M  V30 3168 H 292.265 -4.19396 -1.30397 0
M  V30 3169 H 292.871 -4.23708 0.367677 0
M  V30 3170 N 291.186 -0.45159 -1.50991 0
M  V30 3171 C 292.116 0.342898 -2.30969 0
M  V30 3172 C 293.097 1.00815 -1.37005 0
M  V30 3173 O 294.282 1.00907 -1.65926 0
M  V30 3174 C 291.412 1.43637 -3.16205 0
M  V30 3175 C 290.366 0.893818 -4.18563 0
M  V30 3176 C 289.692 2.08411 -4.92411 0
M  V30 3177 C 290.992 -0.0815568 -5.22236 0
M  V30 3178 H 292.686 -0.324556 -2.97636 0
M  V30 3179 H 290.232 -0.157531 -1.43136 0
M  V30 3180 H 292.185 1.9995 -3.70942 0
M  V30 3181 H 290.909 2.13232 -2.47386 0
M  V30 3182 H 289.568 0.352798 -3.64898 0
M  V30 3183 H 289.216 2.76658 -4.20082 0
M  V30 3184 H 288.916 1.72741 -5.61636 0
M  V30 3185 H 290.44 2.65251 -5.49976 0
M  V30 3186 H 291.854 0.391742 -5.7196 0
M  V30 3187 H 290.251 -0.351551 -5.99069 0
M  V30 3188 H 291.321 -1.01374 -4.74185 0
M  V30 3189 N 292.664 1.56529 -0.183458 0
M  V30 3190 C 293.889 2.02064 0.467428 0
M  V30 3191 C 294.314 1.06282 1.55196 0
M  V30 3192 O 293.672 0.0443565 1.81246 0
M  V30 3193 C 293.72 3.46122 1.01153 0
M  V30 3194 O 292.824 3.53437 2.12499 0
M  V30 3195 H 292.165 0.654726 0.110588 0
M  V30 3196 H 294.695 2.02521 -0.290917 0
M  V30 3197 H 294.705 3.85676 1.33108 0
M  V30 3198 H 293.38 4.15331 0.217533 0
M  V30 3199 H 291.957 3.2575 1.81497 0
M  V30 3200 N 294.142 -0.090211 1.57342 0
M  V30 3201 C 295.388 -0.793982 1.86611 0
M  V30 3202 C 295.721 -1.78142 0.773252 0
M  V30 3203 O 294.996 -1.93271 -0.218304 0
M  V30 3204 C 295.279 -1.51839 3.26523 0
M  V30 3205 C 295.132 -0.548609 4.46442 0
M  V30 3206 C 296.451 -2.46779 3.64401 0
M  V30 3207 H 293.57 -0.287186 0.678744 0
M  V30 3208 H 296.212 -0.0575076 1.89913 0
M  V30 3209 H 294.362 -2.14617 3.23839 0
M  V30 3210 H 296.034 0.0725513 4.61243 0
M  V30 3211 H 294.277 0.137614 4.33582 0
M  V30 3212 H 294.948 -1.09271 5.41076 0
M  V30 3213 H 297.424 -1.94089 3.68061 0
M  V30 3214 H 296.3 -2.94479 4.63221 0
M  V30 3215 H 296.561 -3.30758 2.93346 0
M  V30 3216 N 295.62 -1.53406 -0.361157 0
M  V30 3217 C 297.031 -1.61442 -0.937728 0
M  V30 3218 C 297.382 -0.48461 -1.90121 0
M  V30 3219 O 296.507 0.388312 -2.12888 0
M  V30 3220 C 297.102 -2.92624 -1.70753 0
M  V30 3221 C 295.661 -3.02981 -2.23337 0
M  V30 3222 C 294.808 -2.5677 -1.04712 0
M  V30 3223 H 297.759 -1.58083 -0.139816 0
M  V30 3224 H 297.78 -2.80675 -2.56908 0
M  V30 3225 H 297.292 -3.74834 -1.00604 0
M  V30 3226 H 295.393 -2.25368 -2.96715 0
M  V30 3227 H 295.506 -4.0814 -2.50916 0
M  V30 3228 H 293.87 -2.11752 -1.41539 0
M  V30 3229 H 294.653 -3.41402 -0.360539 0
M  V30 3230 N 297.098 0.621204 -1.44841 0
M  V30 3231 C 298.048 1.72663 -1.48901 0
M  V30 3232 C 299.032 1.56964 -0.353702 0
M  V30 3233 O 300.224 1.66532 -0.599669 0
M  V30 3234 C 297.353 3.11381 -1.44557 0
M  V30 3235 C 296.439 3.32514 -2.6324 0
M  V30 3236 N 296.83 3.23969 -3.8843 0
M  V30 3237 C 295.128 3.63343 -2.58647 0
M  V30 3238 C 295.829 3.46062 -4.67564 0
M  V30 3239 N 294.805 3.69407 -3.98797 0
M  V30 3240 H 298.607 1.64529 -2.43531 0
M  V30 3241 H 296.121 0.82401 -1.39942 0
M  V30 3242 H 298.118 3.90667 -1.4555 0
M  V30 3243 H 296.778 3.20674 -0.509731 0
M  V30 3244 H 297.789 3.02669 -4.20252 0
M  V30 3245 H 294.466 3.79556 -1.73906 0
M  V30 3246 H 295.856 3.44963 -5.76585 0
M  V30 3247 N 298.576 1.31904 0.862503 0
M  V30 3248 C 299.987 1.19803 1.43193 0
M  V30 3249 C 300.338 -0.192567 1.95253 0
M  V30 3250 O 299.463 -1.09081 1.86896 0
M  V30 3251 C 300.058 2.16883 2.60283 0
M  V30 3252 C 298.617 2.08692 3.13248 0
M  V30 3253 C 297.764 2.05691 1.85975 0
M  V30 3254 H 300.715 1.43846 0.670365 0
M  V30 3255 H 300.736 1.76278 3.37204 0
M  V30 3256 H 300.248 3.18083 2.22363 0
M  V30 3257 H 298.349 1.10713 3.55771 0
M  V30 3258 H 298.462 2.9815 3.75025 0
M  V30 3259 H 296.826 1.50814 2.05249 0
M  V30 3260 H 297.609 3.08659 1.50282 0
M  V30 3261 N 300.054 -1.07777 1.14986 0
M  V30 3262 C 300.964 -2.18404 0.856546 0
M  V30 3263 C 301.98 -1.73211 -0.165485 0
M  V30 3264 O 303.156 -2.01399 0.00755219 0
M  V30 3265 C 300.221 -3.44977 0.34526 0
M  V30 3266 C 299.282 -4.0476 1.43065 0
M  V30 3267 C 298.515 -5.25291 0.943663 0
M  V30 3268 O 298.738 -5.70004 -0.212426 0
M  V30 3269 O 297.672 -5.76638 1.72547 0
M  V30 3270 H 301.498 -2.45978 1.78125 0
M  V30 3271 H 299.083 -1.17033 0.928631 0
M  V30 3272 H 300.965 -4.21348 0.0663671 0
M  V30 3273 H 299.64 -3.18965 -0.551631 0
M  V30 3274 H 298.547 -3.29949 1.76309 0
M  V30 3275 H 299.88 -4.35035 2.30229 0
M  V30 3276 N 301.532 -0.945985 -1.26051 0
M  V30 3277 C 302.778 -0.597002 -1.93814 0
M  V30 3278 C 303.111 0.862484 -1.73997 0
M  V30 3279 O 302.386 1.61769 -1.07986 0
M  V30 3280 C 302.669 -0.945937 -3.47454 0
M  V30 3281 C 302.522 -2.46052 -3.76535 0
M  V30 3282 C 303.841 -0.464785 -4.37639 0
M  V30 3283 H 300.96 -0.218366 -0.703907 0
M  V30 3284 H 303.602 -1.18107 -1.48831 0
M  V30 3285 H 301.752 -0.448902 -3.85898 0
M  V30 3286 H 303.424 -3.03065 -3.47778 0
M  V30 3287 H 301.667 -2.90194 -3.22444 0
M  V30 3288 H 302.338 -2.65517 -4.83947 0
M  V30 3289 H 304.814 -0.891016 -4.06448 0
M  V30 3290 H 303.69 -0.737712 -5.4392 0
M  V30 3291 H 303.951 0.635274 -4.37512 0
M  V30 3292 N 303.011 1.40521 -0.713556 0
M  V30 3293 C 304.288 1.94775 -0.17943 0
M  V30 3294 C 304.668 1.65184 1.31444 0
M  V30 3295 O 304.016 0.968429 2.06963 0
M  V30 3296 C 304.226 3.45543 -0.489986 0
M  V30 3297 C 305.574 4.22442 -0.427536 0
M  V30 3298 O 306.598 3.53644 -0.425929 0
M  V30 3299 O 305.457 5.4501 -0.403292 0
M  V30 3300 H 302.551 0.826606 -0.0255192 0
M  V30 3301 H 305.097 1.5014 -0.790949 0
M  V30 3302 H 303.869 3.60432 -1.5233 0
M  V30 3303 H 303.492 3.97311 0.151598 0
M  V30 3304 N 304.489 0.459591 1.5075 0
M  V30 3305 C 305.452 -0.329093 2.26825 0
M  V30 3306 C 306.452 -0.930481 1.31144 0
M  V30 3307 O 307.642 -0.801453 1.54669 0
M  V30 3308 C 304.774 -1.46768 3.07688 0
M  V30 3309 H 305.967 0.337924 2.9799 0
M  V30 3310 H 303.52 0.213336 1.54837 0
M  V30 3311 H 304.255 -2.17009 2.40993 0
M  V30 3312 H 304.04 -1.04238 3.77991 0
M  V30 3313 H 305.53 -2.02433 3.65254 0
M  V30 3314 N 305.967 -1.56429 0.191757 0
M  V30 3315 C 307.197 -2.01574 -0.452928 0
M  V30 3316 C 307.605 -1.07107 -1.55964 0
M  V30 3317 O 306.948 -0.067534 -1.83576 0
M  V30 3318 C 307.01 -3.43121 -1.07278 0
M  V30 3319 C 306.674 -4.56879 -0.105214 0
M  V30 3320 C 307.671 -5.15379 0.684149 0
M  V30 3321 C 305.356 -5.023 0.00489824 0
M  V30 3322 C 307.35 -6.17746 1.57062 0
M  V30 3323 C 305.037 -6.04511 0.894935 0
M  V30 3324 C 306.035 -6.62108 1.67637 0
M  V30 3325 O 305.723 -7.62335 2.55149 0
M  V30 3326 H 305.455 -0.665554 -0.118379 0
M  V30 3327 H 308.009 -2.03245 0.296737 0
M  V30 3328 H 306.239 -3.38425 -1.87097 0
M  V30 3329 H 307.928 -3.72093 -1.62177 0
M  V30 3330 H 308.694 -4.81157 0.609365 0
M  V30 3331 H 304.573 -4.57168 -0.593156 0
M  V30 3332 H 308.117 -6.6263 2.181 0
M  V30 3333 H 304.014 -6.38157 0.970847 0
M  V30 3334 H 304.782 -7.79741 2.48892 0
M  V30 3335 N 307.445 0.0818655 -1.57387 0
M  V30 3336 C 308.355 1.11642 -2.06333 0
M  V30 3337 C 309.371 1.43033 -0.99083 0
M  V30 3338 O 310.547 1.53411 -1.30488 0
M  V30 3339 C 307.612 2.41342 -2.48907 0
M  V30 3340 C 306.673 2.17014 -3.7041 0
M  V30 3341 C 305.906 3.4053 -4.10944 0
M  V30 3342 O 306.129 4.4927 -3.51444 0
M  V30 3343 O 305.063 3.29336 -5.03807 0
M  V30 3344 H 308.889 0.730657 -2.9478 0
M  V30 3345 H 306.474 0.295301 -1.46452 0
M  V30 3346 H 308.356 3.17691 -2.76858 0
M  V30 3347 H 307.031 2.79319 -1.63593 0
M  V30 3348 H 305.938 1.38403 -3.47556 0
M  V30 3349 H 307.271 1.83923 -4.56545 0
M  V30 3350 N 308.923 1.53595 0.353017 0
M  V30 3351 C 310.171 1.70049 1.09215 0
M  V30 3352 C 310.492 0.461406 1.89463 0
M  V30 3353 O 309.762 -0.524633 1.88744 0
M  V30 3354 H 308.342 0.626912 0.40619 0
M  V30 3355 H 311.004 1.90822 0.396585 0
M  V30 3356 H 310.1 2.56718 1.77488 0
M  V30 3357 N 310.401 -0.613514 1.45168 0
M  V30 3358 C 311.364 -1.7065 1.53007 0
M  V30 3359 C 312.364 -1.5548 0.410184 0
M  V30 3360 O 313.554 -1.60656 0.673455 0
M  V30 3361 C 310.686 -3.09875 1.42093 0
M  V30 3362 H 311.879 -1.65068 2.50385 0
M  V30 3363 H 309.432 -0.828728 1.32521 0
M  V30 3364 H 310.167 -3.21039 0.458769 0
M  V30 3365 H 309.952 -3.22293 2.23315 0
M  V30 3366 H 311.442 -3.895 1.50598 0
M  V30 3367 N 311.879 -1.3236 -0.855495 0
M  V30 3368 C 313.104 -1.2601 -1.64731 0
M  V30 3369 C 313.529 0.169068 -1.87339 0
M  V30 3370 O 312.887 1.12016 -1.42556 0
M  V30 3371 C 312.935 -2.02417 -2.98429 0
M  V30 3372 O 312.039 -1.3714 -3.8893 0
M  V30 3373 H 311.38 -0.434325 -0.502253 0
M  V30 3374 H 313.91 -1.74661 -1.06558 0
M  V30 3375 H 313.92 -2.12559 -3.48257 0
M  V30 3376 H 312.595 -3.06343 -2.81295 0
M  V30 3377 H 311.172 -1.3554 -3.47395 0
M  V30 3378 N 313.357 1.07166 -1.15556 0
M  V30 3379 C 314.267 2.17947 -0.868116 0
M  V30 3380 C 315.283 1.73297 0.156297 0
M  V30 3381 O 316.459 2.01392 -0.0182327 0
M  V30 3382 C 313.524 3.44789 -0.36355 0
M  V30 3383 C 312.585 4.03996 -1.45209 0
M  V30 3384 C 311.818 5.24783 -0.971508 0
M  V30 3385 O 312.041 5.70109 0.182194 0
M  V30 3386 O 310.975 5.75715 -1.75603 0
M  V30 3387 H 314.801 2.4503 -1.79427 0
M  V30 3388 H 312.386 1.16539 -0.934824 0
M  V30 3389 H 314.268 4.21307 -0.0887113 0
M  V30 3390 H 312.943 3.19253 0.534708 0
M  V30 3391 H 311.85 3.29009 -1.78056 0
M  V30 3392 H 313.183 4.33808 -2.32533 0
M  V30 3393 N 314.835 0.952656 1.25548 0
M  V30 3394 C 316.06 0.623025 1.97821 0
M  V30 3395 C 316.485 -0.7976 1.70352 0
M  V30 3396 O 315.843 -1.53905 0.958283 0
M  V30 3397 C 315.891 0.885532 3.49558 0
M  V30 3398 O 314.995 -0.0366641 4.12384 0
M  V30 3399 H 314.336 0.237082 0.620232 0
M  V30 3400 H 316.866 1.27871 1.59719 0
M  V30 3401 H 316.876 0.811009 3.99858 0
M  V30 3402 H 315.551 1.92094 3.6888 0
M  V30 3403 H 314.128 0.0898954 3.72792 0
M  V30 3404 N 316.313 -1.40141 0.720998 0
M  V30 3405 C 317.538 -2.05618 0.271258 0
M  V30 3406 C 317.963 -1.53978 -1.08039 0
M  V30 3407 O 317.321 -0.677463 -1.68167 0
M  V30 3408 C 317.369 -3.59609 0.267197 0
M  V30 3409 O 316.473 -4.05526 -0.749814 0
M  V30 3410 H 315.814 -0.651904 0.126162 0
M  V30 3411 H 318.344 -1.79439 0.982997 0
M  V30 3412 H 318.354 -4.0786 0.106744 0
M  V30 3413 H 317.029 -3.96559 1.25354 0
M  V30 3414 H 315.606 -3.68722 -0.556644 0
M  V30 3415 N 317.792 -0.46758 -1.50504 0
M  V30 3416 C 318.722 0.318381 -2.31319 0
M  V30 3417 C 319.703 0.993564 -1.38066 0
M  V30 3418 O 320.888 0.991411 -1.66987 0
M  V30 3419 C 318.018 1.40275 -3.17711 0
M  V30 3420 C 316.972 0.849373 -4.19487 0
M  V30 3421 C 316.298 2.03177 -4.94594 0
M  V30 3422 C 317.598 -0.136942 -5.2212 0
M  V30 3423 H 319.292 -0.356106 -2.97275 0
M  V30 3424 H 316.838 -0.172703 -1.42961 0
M  V30 3425 H 318.791 1.96004 -3.73042 0
M  V30 3426 H 317.515 2.10596 -2.49634 0
M  V30 3427 H 316.174 0.314076 -3.65252 0
M  V30 3428 H 315.822 2.72187 -4.22993 0
M  V30 3429 H 315.522 1.66774 -5.63436 0
M  V30 3430 H 317.046 2.59403 -5.52759 0
M  V30 3431 H 318.46 0.331056 -5.72343 0
M  V30 3432 H 316.857 -0.41507 -5.98663 0
M  V30 3433 H 317.927 -1.06398 -4.73083 0
M  V30 3434 N 319.27 1.56325 -0.20005 0
M  V30 3435 C 320.18 2.22931 0.730668 0
M  V30 3436 C 321.196 1.22997 1.23076 0
M  V30 3437 O 322.372 1.55748 1.27689 0
M  V30 3438 C 319.437 2.87948 1.93098 0
M  V30 3439 C 318.498 4.03166 1.47497 0
M  V30 3440 C 317.731 4.65073 2.61807 0
M  V30 3441 O 317.954 4.25913 3.79413 0
M  V30 3442 O 316.888 5.54452 2.34237 0
M  V30 3443 H 320.714 3.03084 0.193391 0
M  V30 3444 H 318.299 1.49371 0.0294621 0
M  V30 3445 H 320.181 3.29063 2.6324 0
M  V30 3446 H 318.856 2.10771 2.45677 0
M  V30 3447 H 317.763 3.66664 0.742201 0
M  V30 3448 H 319.096 4.82022 0.995796 0
M  V30 3449 N 320.748 -0.0735177 1.57428 0
M  V30 3450 C 322.164 -0.428264 1.53747 0
M  V30 3451 C 322.364 -1.79272 0.91998 0
M  V30 3452 O 321.42 -2.47051 0.521745 0
M  V30 3453 C 322.733 -0.370914 2.98404 0
M  V30 3454 C 324.281 -0.451224 3.0973 0
M  V30 3455 C 324.756 -0.4238 4.56035 0
M  V30 3456 N 326.247 -0.483925 4.60665 0
M  V30 3457 C 326.982 -0.484891 5.71346 0
M  V30 3458 N 326.478 -0.440775 6.91396 0
M  V30 3459 N 328.271 -0.531319 5.59583 0
M  V30 3460 H 320.422 0.819949 1.95935 0
M  V30 3461 H 322.685 0.307493 0.896745 0
M  V30 3462 H 322.391 0.564956 3.47133 0
M  V30 3463 H 322.265 -1.18176 3.5821 0
M  V30 3464 H 324.652 -1.37752 2.60976 0
M  V30 3465 H 324.733 0.388167 2.52838 0
M  V30 3466 H 324.377 0.498638 5.05446 0
M  V30 3467 H 324.307 -1.2807 5.10789 0
M  V30 3468 H 326.798 -0.522338 3.74273 0
M  V30 3469 H 327.111 -0.44539 7.71515 0
M  V30 3470 H 325.456 -0.40749 6.93804 0
M  V30 3471 H 328.647 -0.563464 4.64696 0
M  V30 3472 H 328.82 -0.528603 6.4584 0
M  V30 3473 N 322.226 -1.5378 -0.344866 0
M  V30 3474 C 323.637 -1.62428 -0.920552 0
M  V30 3475 C 323.988 -0.504747 -1.89596 0
M  V30 3476 O 323.113 0.365711 -2.13287 0
M  V30 3477 C 323.708 -2.94419 -1.67639 0
M  V30 3478 C 322.267 -3.05333 -2.20111 0
M  V30 3479 C 321.414 -2.57866 -1.01982 0
M  V30 3480 H 324.365 -1.58222 -0.123042 0
M  V30 3481 H 324.386 -2.83384 -2.53917 0
M  V30 3482 H 323.898 -3.7588 -0.966224 0
M  V30 3483 H 321.999 -2.28502 -2.94308 0
M  V30 3484 H 322.112 -4.10778 -2.46573 0
M  V30 3485 H 320.476 -2.13241 -1.39285 0
M  V30 3486 H 321.259 -3.41765 -0.324308 0
M  V30 3487 N 323.704 0.605807 -1.45491 0
M  V30 3488 C 324.614 1.74466 -1.56839 0
M  V30 3489 C 325.63 1.68006 -0.452772 0
M  V30 3490 O 326.806 1.8833 -0.713708 0
M  V30 3491 C 323.871 3.10931 -1.53371 0
M  V30 3492 C 322.932 3.28832 -2.75986 0
M  V30 3493 C 322.165 4.58787 -2.72673 0
M  V30 3494 O 322.388 5.4122 -1.80102 0
M  V30 3495 O 321.322 4.79438 -3.63899 0
M  V30 3496 H 325.148 1.67843 -2.53106 0
M  V30 3497 H 322.733 0.770108 -1.28022 0
M  V30 3498 H 324.615 3.92233 -1.54051 0
M  V30 3499 H 323.29 3.18042 -0.602572 0
M  V30 3500 H 322.197 2.47112 -2.80867 0
M  V30 3501 H 323.53 3.26599 -3.68231 0
M  V30 3502 N 325.182 1.32811 0.848464 0
M  V30 3503 C 326.092 1.24278 1.98978 0
M  V30 3504 C 327.108 0.155176 1.73307 0
M  V30 3505 O 328.284 0.376999 1.9784 0
M  V30 3506 C 325.349 0.972444 3.32783 0
M  V30 3507 C 324.41 2.14911 3.71634 0
M  V30 3508 C 323.643 1.89157 4.99054 0
M  V30 3509 O 323.866 0.837165 5.64223 0
M  V30 3510 O 322.8 2.75433 5.35183 0
M  V30 3511 H 326.626 2.20238 2.09115 0
M  V30 3512 H 324.211 1.12762 0.980052 0
M  V30 3513 H 326.093 0.838432 4.12975 0
M  V30 3514 H 324.768 0.043051 3.23671 0
M  V30 3515 H 323.675 2.33862 2.91992 0
M  V30 3516 H 325.008 3.06151 3.85399 0
M  V30 3517 N 326.66 -1.06551 1.16123 0
M  V30 3518 C 327.885 -1.83544 0.965735 0
M  V30 3519 C 328.31 -1.81843 -0.481102 0
M  V30 3520 O 327.668 -1.21732 -1.34354 0
M  V30 3521 C 327.716 -3.28169 1.49457 0
M  V30 3522 O 326.82 -4.0643 0.699157 0
M  V30 3523 H 326.161 -0.568026 0.343864 0
M  V30 3524 H 328.691 -1.34362 1.54299 0
M  V30 3525 H 328.701 -3.78992 1.51092 0
M  V30 3526 H 327.376 -3.28722 2.54784 0
M  V30 3527 H 325.953 -3.65216 0.7531 0
M  V30 3528 N 328.138 -0.959301 -1.25041 0
M  V30 3529 C 329.387 -0.612254 -1.92183 0
M  V30 3530 C 329.7 0.855347 -1.75907 0
M  V30 3531 O 330.906 1.31256 -2.37664 0
M  V30 3532 C 329.362 -1.04435 -3.44414 0
M  V30 3533 C 328.97 -2.53482 -3.69393 0
M  V30 3534 C 330.714 -0.770055 -4.17457 0
M  V30 3535 C 328.621 -2.90468 -5.15153 0
M  V30 3536 H 327.551 -0.225279 -0.719559 0
M  V30 3537 H 330.202 -1.16438 -1.41825 0
M  V30 3538 H 328.584 -0.4206 -3.9376 0
M  V30 3539 H 329.758 -3.20916 -3.30681 0
M  V30 3540 H 328.073 -2.78432 -3.0962 0
M  V30 3541 H 330.67 -1.02249 -5.24832 0
M  V30 3542 H 331.013 0.293611 -4.15263 0
M  V30 3543 H 331.546 -1.35437 -3.74034 0
M  V30 3544 H 328.285 -3.95871 -5.22462 0
M  V30 3545 H 327.805 -2.27711 -5.54894 0
M  V30 3546 H 329.484 -2.79914 -5.83315 0
M  V30 3547 N 329.616 1.39756 -0.72842 0
M  V30 3548 C 330.841 2.05472 -0.282159 0
M  V30 3549 C 331.266 1.54549 1.07221 0
M  V30 3550 O 330.624 0.686372 1.67805 0
M  V30 3551 C 330.672 3.59462 -0.286264 0
M  V30 3552 O 329.776 4.05918 0.728298 0
M  V30 3553 H 329.117 0.651226 -0.129618 0
M  V30 3554 H 331.647 1.78915 -0.992499 0
M  V30 3555 H 331.657 4.07798 -0.128373 0
M  V30 3556 H 330.332 3.95889 -1.27456 0
M  V30 3557 H 328.909 3.69012 0.537081 0
M  V30 3558 N 331.094 0.475555 1.50254 0
M  V30 3559 C 332.042 -0.330276 2.30243 0
M  V30 3560 C 333.036 -0.986306 1.37726 0
M  V30 3561 O 334.242 -0.9169 1.54897 0
M  V30 3562 H 330.617 -0.125353 0.741479 0
M  V30 3563 H 332.588 0.364702 2.96163 0
M  V30 3564 C 331.337 -1.39704 3.18399 0
M  V30 3565 H 330.66 -0.901621 3.89501 0
M  V30 3566 H 332.1 -1.93336 3.77355 0
M  V30 3567 C 330.559 -2.4014 2.36293 0
M  V30 3568 O 331.089 -3.45504 2.04914 0
M  V30 3569 N 329.295 -2.1197 1.98789 0
M  V30 3570 H 328.842 -1.2631 2.24507 0
M  V30 3571 H 328.8 -2.79403 1.44157 0
M  V30 3572 N 332.573 -1.56217 0.208337 0
M  V30 3573 C 333.483 -2.23316 -0.718836 0
M  V30 3574 C 334.499 -1.23648 -1.22422 0
M  V30 3575 O 335.675 -1.56423 -1.26861 0
M  V30 3576 C 332.74 -2.88968 -1.91568 0
M  V30 3577 C 331.801 -4.03943 -1.45357 0
M  V30 3578 C 331.034 -4.66455 -2.59337 0
M  V30 3579 O 331.257 -4.27919 -3.77149 0
M  V30 3580 O 330.191 -5.55686 -2.31293 0
M  V30 3581 H 334.017 -3.03182 -0.177315 0
M  V30 3582 H 331.602 -1.49384 -0.0215402 0
M  V30 3583 H 333.484 -3.30455 -2.61491 0
M  V30 3584 H 332.159 -2.12071 -2.44556 0
M  V30 3585 H 331.066 -3.67052 -0.722746 0
M  V30 3586 H 332.399 -4.82543 -0.970219 0
M  V30 3587 N 334.051 0.0651679 -1.57465 0
M  V30 3588 C 335.3 0.761916 -1.86756 0
M  V30 3589 C 335.613 1.78406 -0.801925 0
M  V30 3590 O 336.819 2.53084 -0.982885 0
M  V30 3591 C 335.275 1.40603 -3.31299 0
M  V30 3592 C 334.883 0.422115 -4.46007 0
M  V30 3593 C 336.627 2.08476 -3.69781 0
M  V30 3594 C 334.534 1.07252 -5.81593 0
M  V30 3595 H 333.464 0.288308 -0.696702 0
M  V30 3596 H 336.115 0.015344 -1.83494 0
M  V30 3597 H 334.497 2.20109 -3.29193 0
M  V30 3598 H 335.671 -0.343613 -4.59517 0
M  V30 3599 H 333.986 -0.152527 -4.16121 0
M  V30 3600 H 336.583 2.57925 -4.68379 0
M  V30 3601 H 336.926 2.88712 -2.99919 0
M  V30 3602 H 337.459 1.35792 -3.73905 0
M  V30 3603 H 334.198 0.310342 -6.54765 0
M  V30 3604 H 333.718 1.80895 -5.71872 0
M  V30 3605 H 335.397 1.59043 -6.27148 0
M  V30 3606 N 335.529 1.53961 0.336706 0
M  V30 3607 C 336.439 1.85432 1.43708 0
M  V30 3608 C 337.455 0.745053 1.57242 0
M  V30 3609 O 338.631 1.03804 1.72588 0
M  V30 3610 C 335.696 2.06349 2.78605 0
M  V30 3611 C 334.757 3.30191 2.74358 0
M  V30 3612 C 333.99 3.50101 4.02822 0
M  V30 3613 O 334.213 2.7371 5.00439 0
M  V30 3614 O 333.147 4.43547 4.06878 0
M  V30 3615 H 336.973 2.78975 1.20028 0
M  V30 3616 H 334.558 1.39701 0.52952 0
M  V30 3617 H 336.44 2.21513 3.58483 0
M  V30 3618 H 335.115 1.15995 3.02203 0
M  V30 3619 H 334.022 3.20425 1.93078 0
M  V30 3620 H 335.355 4.2056 2.55715 0
M  V30 3621 N 337.007 -0.598083 1.45811 0
M  V30 3622 C 337.955 -1.72932 1.55555 0
M  V30 3623 C 338.949 -1.63984 0.424921 0
M  V30 3624 O 340.155 -1.69663 0.601205 0
M  V30 3625 H 336.53 -0.571489 0.488779 0
M  V30 3626 H 338.501 -1.61842 2.50699 0
M  V30 3627 C 337.25 -3.11318 1.54843 0
M  V30 3628 H 336.573 -3.18867 2.41172 0
M  V30 3629 H 338.013 -3.90274 1.65717 0
M  V30 3630 C 336.472 -3.3578 0.274427 0
M  V30 3631 O 337.002 -3.9654 -0.641778 0
M  V30 3632 N 335.208 -2.90119 0.167139 0
M  V30 3633 H 334.755 -2.40855 0.913596 0
M  V30 3634 H 334.713 -3.0686 -0.684435 0
M  V30 3635 N 338.485 -1.33259 -0.841409 0
M  V30 3636 C 339.731 -1.24757 -1.59886 0
M  V30 3637 C 340.064 0.186913 -1.93298 0
M  V30 3638 O 339.339 1.12757 -1.5848 0
M  V30 3639 C 339.622 -2.12036 -2.91055 0
M  V30 3640 C 339.475 -3.63929 -2.6434 0
M  V30 3641 C 340.794 -1.9916 -3.92458 0
M  V30 3642 H 337.913 -0.454542 -0.580138 0
M  V30 3643 H 340.555 -1.63335 -0.970647 0
M  V30 3644 H 338.705 -1.79265 -3.44669 0
M  V30 3645 H 340.377 -4.06978 -2.17178 0
M  V30 3646 H 338.62 -3.85935 -1.98082 0
M  V30 3647 H 339.291 -4.20341 -3.57796 0
M  V30 3648 H 341.767 -2.27895 -3.48143 0
M  V30 3649 H 340.643 -2.62484 -4.82072 0
M  V30 3650 H 340.904 -0.963082 -4.31482 0
M  V30 3651 N 339.963 1.05934 -1.16686 0
M  V30 3652 C 341.212 1.78188 -0.945085 0
M  V30 3653 C 341.525 1.88338 0.528021 0
M  V30 3654 O 342.731 2.57258 0.867799 0
M  V30 3655 C 341.187 3.20277 -1.64167 0
M  V30 3656 C 340.795 3.18281 -3.15279 0
M  V30 3657 C 342.539 3.97039 -1.502 0
M  V30 3658 C 340.446 4.55112 -3.7766 0
M  V30 3659 H 339.376 0.667866 -0.349959 0
M  V30 3660 H 342.027 1.18794 -1.39858 0
M  V30 3661 H 340.409 3.79952 -1.11589 0
M  V30 3662 H 341.583 2.68167 -3.74731 0
M  V30 3663 H 339.898 2.55018 -3.29173 0
M  V30 3664 H 342.495 4.98194 -1.94183 0
M  V30 3665 H 342.838 4.13845 -0.451461 0
M  V30 3666 H 343.371 3.43894 -1.99954 0
M  V30 3667 H 340.11 4.43512 -4.82677 0
M  V30 3668 H 339.63 5.05406 -3.22994 0
M  V30 3669 H 341.309 5.24064 -3.79428 0
M  V30 3670 N 341.441 0.965919 1.2453 0
M  V30 3671 C 342.351 0.502154 2.29163 0
M  V30 3672 C 343.367 -0.436017 1.68448 0
M  V30 3673 O 344.543 -0.309497 1.99008 0
M  V30 3674 C 341.608 -0.201956 3.46111 0
M  V30 3675 C 340.669 0.775821 4.22232 0
M  V30 3676 C 339.902 0.105217 5.33596 0
M  V30 3677 O 340.125 -1.10683 5.59558 0
M  V30 3678 O 339.059 0.796475 5.96607 0
M  V30 3679 H 342.885 1.37194 2.70946 0
M  V30 3680 H 340.47 0.732875 1.30189 0
M  V30 3681 H 342.352 -0.597564 4.17142 0
M  V30 3682 H 341.027 -1.04673 3.06309 0
M  V30 3683 H 339.934 1.22185 3.53584 0
M  V30 3684 H 341.267 1.58896 4.65846 0
M  V30 3685 N 342.919 -1.39368 0.735821 0
M  V30 3686 C 343.829 -2.34395 0.0979693 0
M  V30 3687 C 344.845 -1.58361 -0.720968 0
M  V30 3688 O 346.021 -1.90648 -0.649245 0
M  V30 3689 C 343.086 -3.37393 -0.797916 0
M  V30 3690 C 342.147 -4.29287 0.0333662 0
M  V30 3691 C 341.38 -5.27365 -0.819854 0
M  V30 3692 O 341.603 -5.31959 -2.05855 0
M  V30 3693 O 340.537 -6.01389 -0.248079 0
M  V30 3694 H 344.363 -2.90601 0.882315 0
M  V30 3695 H 341.948 -1.40909 0.4965 0
M  V30 3696 H 343.83 -4.00505 -1.31048 0
M  V30 3697 H 342.505 -2.83571 -1.56106 0
M  V30 3698 H 341.412 -3.69395 0.591475 0
M  V30 3699 H 342.745 -4.86317 0.758752 0
M  V30 3700 N 344.397 -0.483516 -1.5 0
M  V30 3701 C 345.36 0.292965 -2.2732 0
M  V30 3702 C 346.36 0.909499 -1.32608 0
M  V30 3703 O 347.55 0.776745 -1.55924 0
M  V30 3704 C 344.682 1.41854 -3.09984 0
M  V30 3705 H 345.875 -0.385289 -2.97415 0
M  V30 3706 H 343.428 -0.237942 -1.54478 0
M  V30 3707 H 344.163 2.13148 -2.44414 0
M  V30 3708 H 343.948 0.982114 -3.79601 0
M  V30 3709 H 345.438 1.96597 -3.68429 0
M  V30 3710 N 345.875 1.56104 -0.216619 0
M  V30 3711 C 347.103 2.02563 0.421413 0
M  V30 3712 C 347.518 1.0965 1.53695 0
M  V30 3713 O 346.875 0.10521 1.82196 0
M  V30 3714 C 346.926 3.48584 0.957665 0
M  V30 3715 O 346.647 4.37953 -0.113389 0
M  V30 3716 C 348.148 4.10664 1.66943 0
M  V30 3717 H 345.368 0.662944 0.103665 0
M  V30 3718 H 347.912 2.01793 -0.331629 0
M  V30 3719 H 346.067 3.49985 1.661 0
M  V30 3720 H 346.481 5.23704 0.288932 0
M  V30 3721 H 347.955 5.14622 1.99671 0
M  V30 3722 H 348.432 3.55373 2.58083 0
M  V30 3723 H 349.038 4.13098 1.01142 0
M  V30 3724 N 347.353 -0.0568162 1.57498 0
M  V30 3725 C 348.3 -1.06591 2.04712 0
M  V30 3726 C 349.27 -1.3758 0.930644 0
M  V30 3727 O 350.455 -1.48392 1.19935 0
M  V30 3728 C 347.595 -2.3701 2.50839 0
M  V30 3729 C 346.708 -2.12421 3.76167 0
M  V30 3730 C 345.843 -3.36511 4.11015 0
M  V30 3731 C 344.882 -3.07353 5.2934 0
M  V30 3732 N 344.019 -4.23816 5.59754 0
M  V30 3733 H 348.859 -0.65631 2.90683 0
M  V30 3734 H 346.396 -0.312481 1.43743 0
M  V30 3735 H 348.354 -3.13175 2.7564 0
M  V30 3736 H 346.984 -2.75744 1.67825 0
M  V30 3737 H 346.036 -1.2688 3.58616 0
M  V30 3738 H 347.348 -1.86894 4.62463 0
M  V30 3739 H 346.502 -4.21062 4.36797 0
M  V30 3740 H 345.241 -3.65128 3.23315 0
M  V30 3741 H 344.246 -2.212 5.03339 0
M  V30 3742 H 345.471 -2.80043 6.1867 0
M  V30 3743 H 343.417 -4.52436 4.75014 0
M  V30 3744 H 343.334 -4.01614 6.40501 0
M  V30 3745 H 344.602 -5.0932 5.90096 0
M  V30 3746 N 348.832 -1.54138 -0.328536 0
M  V30 3747 C 350.243 -1.63395 -0.903272 0
M  V30 3748 C 350.594 -0.524828 -1.8905 0
M  V30 3749 O 349.719 0.343068 -2.13663 0
M  V30 3750 C 350.314 -2.9618 -1.64507 0
M  V30 3751 C 348.873 -3.0765 -2.1686 0
M  V30 3752 C 348.02 -2.58933 -0.992416 0
M  V30 3753 H 350.971 -1.58344 -0.106253 0
M  V30 3754 H 350.992 -2.86061 -2.50897 0
M  V30 3755 H 350.504 -3.76884 -0.926302 0
M  V30 3756 H 348.605 -2.31611 -2.91868 0
M  V30 3757 H 348.718 -4.1337 -2.42202 0
M  V30 3758 H 347.082 -2.14706 -1.37016 0
M  V30 3759 H 347.865 -3.42089 -0.288041 0
M  V30 3760 N 350.31 0.590341 -1.46126 0
M  V30 3761 C 351.273 1.68194 -1.55703 0
M  V30 3762 C 352.273 1.54808 -0.434868 0
M  V30 3763 O 353.463 1.59564 -0.698928 0
M  V30 3764 C 350.595 3.07575 -1.47005 0
M  V30 3765 H 351.788 1.61064 -2.52979 0
M  V30 3766 H 349.341 0.807541 -1.33823 0
M  V30 3767 H 350.076 3.20268 -0.509785 0
M  V30 3768 H 349.861 3.187 -2.28414 0
M  V30 3769 H 351.351 3.87055 -1.56776 0
M  V30 3770 N 351.788 1.33704 0.83433 0
M  V30 3771 C 353.036 1.25169 1.58673 0
M  V30 3772 C 353.357 -0.18127 1.94156 0
M  V30 3773 O 352.627 -1.11113 1.6134 0
M  V30 3774 H 351.207 0.4603 0.58833 0
M  V30 3775 H 353.869 1.67478 0.996847 0
M  V30 3776 H 352.965 1.84856 2.51465 0
M  V30 3777 N 353.266 -1.05314 1.17247 0
M  V30 3778 C 354.176 -2.16538 0.90268 0
M  V30 3779 C 355.192 -1.73523 -0.128707 0
M  V30 3780 O 356.368 -2.01337 0.0502701 0
M  V30 3781 C 353.433 -3.44167 0.418356 0
M  V30 3782 C 352.494 -4.01635 1.51618 0
M  V30 3783 C 351.727 -5.23171 1.05487 0
M  V30 3784 O 351.95 -5.70327 -0.0914715 0
M  V30 3785 O 350.884 -5.72848 1.8474 0
M  V30 3786 H 354.71 -2.42145 1.83302 0
M  V30 3787 H 352.295 -1.15037 0.953246 0
M  V30 3788 H 354.177 -4.21112 0.155726 0
M  V30 3789 H 352.852 -3.20063 -0.48385 0
M  V30 3790 H 351.759 -3.26135 1.83268 0
M  V30 3791 H 353.092 -4.30053 2.39405 0
M  V30 3792 N 354.744 -0.972509 -1.24016 0
M  V30 3793 C 355.676 -0.464375 -2.24446 0
M  V30 3794 C 356.689 0.4295 -1.57032 0
M  V30 3795 O 357.878 0.234902 -1.76948 0
M  V30 3796 C 354.978 0.348385 -3.37105 0
M  V30 3797 C 354.151 -0.53673 -4.34094 0
M  V30 3798 C 353.21 0.220838 -5.25736 0
M  V30 3799 O 352.236 -0.386867 -5.67884 0
M  V30 3800 N 353.438 1.50907 -5.60542 0
M  V30 3801 H 356.203 -1.32788 -2.68677 0
M  V30 3802 H 353.764 -0.844877 -1.38107 0
M  V30 3803 H 355.756 0.863341 -3.95384 0
M  V30 3804 H 354.326 1.11285 -2.92121 0
M  V30 3805 H 353.546 -1.23261 -3.74433 0
M  V30 3806 H 354.834 -1.14022 -4.95859 0
M  V30 3807 H 354.232 2.02444 -5.28236 0
M  V30 3808 H 352.789 1.96962 -6.21329 0
M  V30 3809 N 356.222 1.38976 -0.743202 0
M  V30 3810 C 357.471 1.99581 -0.291592 0
M  V30 3811 C 357.784 1.59656 1.13001 0
M  V30 3812 O 358.99 2.13157 1.68156 0
M  V30 3813 C 357.446 3.56813 -0.470391 0
M  V30 3814 C 357.054 4.05695 -1.90041 0
M  V30 3815 C 358.798 4.24423 -0.0809709 0
M  V30 3816 C 356.705 5.5553 -2.02832 0
M  V30 3817 H 355.635 0.746615 -0.105272 0
M  V30 3818 H 358.286 1.58872 -0.918258 0
M  V30 3819 H 356.668 3.95359 0.225299 0
M  V30 3820 H 357.842 3.78464 -2.62872 0
M  V30 3821 H 356.157 3.50775 -2.24379 0
M  V30 3822 H 358.754 5.34474 -0.155445 0
M  V30 3823 H 359.097 4.04962 0.96497 0
M  V30 3824 H 359.63 3.9108 -0.728124 0
M  V30 3825 H 356.369 5.79881 -3.05643 0
M  V30 3826 H 355.889 5.84537 -1.34448 0
M  V30 3827 H 357.568 6.21069 -1.81335 0
M  V30 3828 N 357.7 0.491464 1.49741 0
M  V30 3829 C 358.663 -0.280906 2.27472 0
M  V30 3830 C 359.663 -0.902454 1.33088 0
M  V30 3831 O 360.853 -0.768465 1.56334 0
M  V30 3832 C 357.985 -1.40209 3.10732 0
M  V30 3833 H 359.178 0.401056 2.97206 0
M  V30 3834 H 356.731 0.246131 1.5435 0
M  V30 3835 H 357.466 -2.11849 2.45541 0
M  V30 3836 H 357.251 -0.961969 3.80117 0
M  V30 3837 H 358.741 -1.9464 3.69466 0
M  V30 3838 N 359.178 -1.55987 0.224894 0
M  V30 3839 C 360.088 -2.24066 -0.69511 0
M  V30 3840 C 361.104 -1.24939 -1.21104 0
M  V30 3841 O 362.28 -1.5776 -1.25195 0
M  V30 3842 C 359.345 -2.90983 -1.88493 0
M  V30 3843 C 358.406 -4.05462 -1.41064 0
M  V30 3844 C 357.639 -4.69179 -2.54375 0
M  V30 3845 O 357.862 -4.31895 -3.72589 0
M  V30 3846 O 356.796 -5.58108 -2.25386 0
M  V30 3847 H 360.622 -3.03353 -0.145149 0
M  V30 3848 H 358.207 -1.49399 -0.00569476 0
M  V30 3849 H 360.089 -3.33209 -2.57972 0
M  V30 3850 H 358.764 -2.14653 -2.42293 0
M  V30 3851 H 357.671 -3.67798 -0.683774 0
M  V30 3852 H 359.004 -4.83545 -0.918985 0
M  V30 3853 N 360.656 0.0484629 -1.57525 0
M  V30 3854 C 361.903 0.743125 -1.88372 0
M  V30 3855 C 362.231 1.76383 -0.819715 0
M  V30 3856 O 361.486 1.94855 0.181659 0
M  V30 3857 C 361.785 1.46632 -3.25935 0
M  V30 3858 C 361.451 0.583427 -4.4711 0
M  V30 3859 C 360.113 0.340191 -4.79996 0
M  V30 3860 C 362.465 -0.0273345 -5.21193 0
M  V30 3861 C 359.793 -0.522903 -5.84365 0
M  V30 3862 C 362.145 -0.878017 -6.26477 0
M  V30 3863 C 360.809 -1.1309 -6.5785 0
M  V30 3864 H 360.079 0.271929 -0.689301 0
M  V30 3865 H 362.726 0.00336166 -1.915 0
M  V30 3866 H 361.031 2.2789 -3.18706 0
M  V30 3867 H 362.728 2.00902 -3.47044 0
M  V30 3868 H 359.318 0.783151 -4.21384 0
M  V30 3869 H 363.502 0.147654 -4.9608 0
M  V30 3870 H 358.758 -0.727335 -6.07058 0
M  V30 3871 H 362.932 -1.35789 -6.83033 0
M  V30 3872 H 360.559 -1.80144 -7.38547 0
M  V30 3873 N 362.134 1.5431 0.320358 0
M  V30 3874 C 363.359 1.76954 1.08175 0
M  V30 3875 C 363.784 0.518193 1.80821 0
M  V30 3876 O 363.142 -0.530411 1.73368 0
M  V30 3877 C 363.19 2.96451 2.05303 0
M  V30 3878 O 362.294 2.68221 3.13259 0
M  V30 3879 H 361.635 0.586275 0.311733 0
M  V30 3880 H 364.165 2.01342 0.363676 0
M  V30 3881 H 364.175 3.23887 2.48116 0
M  V30 3882 H 362.85 3.87196 1.51829 0
M  V30 3883 H 361.427 2.51744 2.75099 0
M  V30 3884 N 363.613 -0.582584 1.46437 0
M  V30 3885 C 364.862 -1.337 1.5102 0
M  V30 3886 C 365.175 -1.94891 0.166359 0
M  V30 3887 O 366.381 -2.71351 0.0899954 0
M  V30 3888 C 364.837 -2.42315 2.66104 0
M  V30 3889 C 364.445 -1.87427 4.06909 0
M  V30 3890 C 366.189 -3.19099 2.79958 0
M  V30 3891 C 364.096 -2.93672 5.13333 0
M  V30 3892 H 363.026 -0.502619 0.562041 0
M  V30 3893 H 365.677 -0.621701 1.72647 0
M  V30 3894 H 364.059 -3.16645 2.37807 0
M  V30 3895 H 365.233 -1.19639 4.44998 0
M  V30 3896 H 363.548 -1.2331 3.97723 0
M  V30 3897 H 366.145 -3.9839 3.56636 0
M  V30 3898 H 366.488 -3.71695 1.87479 0
M  V30 3899 H 367.021 -2.51875 3.07902 0
M  V30 3900 H 363.76 -2.45962 6.07604 0
M  V30 3901 H 363.28 -3.59948 4.79789 0
M  V30 3902 H 364.959 -3.5762 5.39182 0
M  V30 3903 N 365.091 -1.34144 -0.827227 0
M  V30 3904 C 366.041 -1.21923 -1.92663 0
M  V30 3905 C 367.025 -0.119294 -1.60457 0
M  V30 3906 O 368.217 -0.348539 -1.73534 0
M  V30 3907 C 365.346 -0.972492 -3.29238 0
M  V30 3908 C 364.432 -2.1154 -3.67576 0
M  V30 3909 N 364.823 -3.36627 -3.77512 0
M  V30 3910 C 363.121 -2.02468 -3.97395 0
M  V30 3911 C 363.822 -4.11658 -4.1099 0
M  V30 3912 N 362.798 -3.40207 -4.23981 0
M  V30 3913 H 366.6 -2.16721 -1.98517 0
M  V30 3914 H 364.114 -1.2632 -1.02064 0
M  V30 3915 H 366.111 -0.865847 -4.0781 0
M  V30 3916 H 364.771 -0.0331509 -3.24683 0
M  V30 3917 H 365.782 -3.71234 -3.61118 0
M  V30 3918 H 362.459 -1.16265 -4.00985 0
M  V30 3919 H 363.849 -5.19657 -4.25918 0
M  V30 3920 N 366.569 1.04691 -1.17803 0
M  V30 3921 C 367.499 2.14494 -0.92275 0
M  V30 3922 C 368.48 1.69546 0.137179 0
M  V30 3923 O 369.665 1.94195 -0.0141108 0
M  V30 3924 C 366.795 3.44491 -0.440803 0
M  V30 3925 C 365.749 4.03031 -1.4405 0
M  V30 3926 C 365.075 5.28432 -0.81631 0
M  V30 3927 C 366.375 4.39932 -2.81527 0
M  V30 3928 H 368.069 2.36107 -1.84103 0
M  V30 3929 H 365.615 1.1347 -0.886599 0
M  V30 3930 H 367.568 4.2066 -0.249602 0
M  V30 3931 H 366.292 3.22546 0.513025 0
M  V30 3932 H 364.951 3.28937 -1.61853 0
M  V30 3933 H 364.599 5.02792 0.144511 0
M  V30 3934 H 364.299 5.68559 -1.48371 0
M  V30 3935 H 365.823 6.07284 -0.635496 0
M  V30 3936 H 367.237 5.07113 -2.67412 0
M  V30 3937 H 365.634 4.9109 -3.44892 0
M  V30 3938 H 366.704 3.50045 -3.35554 0
M  V30 3939 N 368.047 0.979072 1.23499 0
M  V30 3940 C 368.977 0.537606 2.27227 0
M  V30 3941 C 369.958 -0.428539 1.64613 0
M  V30 3942 O 371.143 -0.322191 1.91509 0
M  V30 3943 C 368.273 -0.162052 3.46922 0
M  V30 3944 C 367.227 0.721242 4.21879 0
M  V30 3945 C 366.553 -0.110555 5.34586 0
M  V30 3946 C 367.853 2.01141 4.82016 0
M  V30 3947 H 369.547 1.40462 2.64406 0
M  V30 3948 H 367.093 0.67684 1.27102 0
M  V30 3949 H 369.046 -0.482192 4.18632 0
M  V30 3950 H 367.77 -1.06351 3.08799 0
M  V30 3951 H 366.429 1.02482 3.51984 0
M  V30 3952 H 366.077 -1.0125 4.92704 0
M  V30 3953 H 365.777 0.477325 5.85658 0
M  V30 3954 H 367.301 -0.425107 6.09118 0
M  V30 3955 H 368.715 1.75612 5.45741 0
M  V30 3956 H 367.112 2.54695 5.43369 0
M  V30 3957 H 368.182 2.69909 4.02836 0
M  V30 3958 N 369.525 -1.3858 0.750561 0
M  V30 3959 C 370.773 -1.99789 0.30477 0
M  V30 3960 C 371.094 -1.59874 -1.11649 0
M  V30 3961 O 370.364 -0.85417 -1.76297 0
M  V30 3962 H 368.944 -0.738902 0.109694 0
M  V30 3963 H 371.606 -1.69391 0.963983 0
M  V30 3964 H 370.702 -3.09952 0.365499 0
M  V30 3965 N 371.003 -0.499398 -1.49478 0
M  V30 3966 C 371.95 0.279881 -2.29097 0
M  V30 3967 C 372.92 0.961805 -1.3542 0
M  V30 3968 O 374.105 0.968777 -1.64376 0
M  V30 3969 C 371.245 1.33932 -3.18051 0
M  V30 3970 C 370.358 0.669333 -4.26783 0
M  V30 3971 C 369.493 1.70907 -5.02955 0
M  V30 3972 C 368.532 1.02087 -6.03527 0
M  V30 3973 N 367.669 2.00474 -6.7287 0
M  V30 3974 H 372.509 -0.405317 -2.95231 0
M  V30 3975 H 370.046 -0.211726 -1.45568 0
M  V30 3976 H 372.004 1.96553 -3.67998 0
M  V30 3977 H 370.634 1.9933 -2.53904 0
M  V30 3978 H 369.686 -0.0701234 -3.80335 0
M  V30 3979 H 370.998 0.127503 -4.98637 0
M  V30 3980 H 370.152 2.41037 -5.56764 0
M  V30 3981 H 368.891 2.28476 -4.30871 0
M  V30 3982 H 367.896 0.305338 -5.48951 0
M  V30 3983 H 369.121 0.451708 -6.77596 0
M  V30 3984 H 367.067 2.57007 -6.03559 0
M  V30 3985 H 366.984 1.51353 -7.40694 0
M  V30 3986 H 368.252 2.69897 -7.31284 0
M  V30 3987 N 372.481 1.55866 -0.233164 0
M  V30 3988 C 373.413 2.18099 0.704668 0
M  V30 3989 C 374.426 1.15334 1.14899 0
M  V30 3990 O 375.615 1.42262 1.07814 0
M  V30 3991 C 372.715 2.7592 1.96777 0
M  V30 3992 C 371.888 4.03969 1.67713 0
M  V30 3993 C 370.947 4.46242 2.78845 0
M  V30 3994 O 369.973 5.12903 2.46818 0
M  V30 3995 N 371.175 4.12886 4.08051 0
M  V30 3996 H 373.94 2.99205 0.172258 0
M  V30 3997 H 371.501 1.61815 -0.0525945 0
M  V30 3998 H 373.493 3.01165 2.70337 0
M  V30 3999 H 372.063 1.99051 2.41034 0
M  V30 4000 H 371.283 3.86459 0.777391 0
M  V30 4001 H 372.571 4.8748 1.4574 0
M  V30 4002 H 371.969 3.59342 4.3691 0
M  V30 4003 H 370.526 4.42997 4.78118 0
M  V30 4004 N 373.959 -0.0401083 1.57549 0
M  V30 4005 C 375.189 -0.744115 1.92734 0
M  V30 4006 C 375.597 -1.70005 0.830348 0
M  V30 4007 O 374.94 -1.82576 -0.20286 0
M  V30 4008 C 375.002 -1.56516 3.2364 0
M  V30 4009 C 374.666 -0.7752 4.50377 0
M  V30 4010 C 375.663 -0.0803326 5.19838 0
M  V30 4011 C 373.348 -0.733002 4.96923 0
M  V30 4012 C 375.342 0.646154 6.34116 0
M  V30 4013 C 373.029 -0.00276321 6.111 0
M  V30 4014 C 374.027 0.685585 6.7955 0
M  V30 4015 O 373.715 1.40399 7.91545 0
M  V30 4016 H 373.447 -0.214861 0.640945 0
M  V30 4017 H 376.001 -0.00503675 2.05399 0
M  V30 4018 H 374.231 -2.3478 3.07271 0
M  V30 4019 H 375.92 -2.15076 3.44234 0
M  V30 4020 H 376.686 -0.104035 4.84888 0
M  V30 4021 H 372.565 -1.25827 4.43496 0
M  V30 4022 H 376.109 1.18398 6.87479 0
M  V30 4023 H 372.006 0.0229012 6.45496 0
M  V30 4024 H 372.774 1.31653 8.07843 0
M  V30 4025 N 375.437 -1.54477 -0.31217 0
M  V30 4026 C 376.853 -1.45442 -0.657185 0
M  V30 4027 C 377.053 -0.63653 -1.91182 0
M  V30 4028 O 376.109 -0.139815 -2.52113 0
M  V30 4029 C 377.422 -2.89287 -0.82058 0
M  V30 4030 C 378.97 -2.9926 -0.917188 0
M  V30 4031 C 379.445 -4.44279 -1.11267 0
M  V30 4032 N 380.936 -4.4794 -1.17914 0
M  V30 4033 C 381.671 -5.57318 -1.34848 0
M  V30 4034 N 381.167 -6.76642 -1.48752 0
M  V30 4035 N 382.96 -5.44986 -1.37647 0
M  V30 4036 H 375.111 -2.06129 0.512313 0
M  V30 4037 H 377.374 -0.933088 0.167485 0
M  V30 4038 H 377.08 -3.51687 0.0302604 0
M  V30 4039 H 376.954 -3.36061 -1.71298 0
M  V30 4040 H 379.341 -2.36981 -1.75852 0
M  V30 4041 H 379.422 -2.558 -0.00101257 0
M  V30 4042 H 379.066 -5.07149 -0.27614 0
M  V30 4043 H 378.996 -4.85359 -2.04289 0
M  V30 4044 H 381.487 -3.61969 -1.08567 0
M  V30 4045 H 381.8 -7.55758 -1.61397 0
M  V30 4046 H 380.145 -6.79529 -1.45828 0
M  V30 4047 H 383.336 -4.50715 -1.26388 0
M  V30 4048 H 383.509 -6.3028 -1.50501 0
M  V30 4049 N 376.915 0.57481 -1.46744 0
M  V30 4050 C 377.825 1.711 -1.60505 0
M  V30 4051 C 378.841 1.67008 -0.488307 0
M  V30 4052 O 380.017 1.86774 -0.753495 0
M  V30 4053 C 377.082 3.07608 -1.59932 0
M  V30 4054 C 376.143 3.22904 -2.82898 0
M  V30 4055 C 375.376 4.529 -2.82343 0
M  V30 4056 O 375.599 5.37278 -1.91542 0
M  V30 4057 O 374.533 4.71611 -3.73987 0
M  V30 4058 H 378.359 1.62436 -2.56609 0
M  V30 4059 H 375.944 0.742779 -1.29627 0
M  V30 4060 H 377.826 3.88877 -1.62336 0
M  V30 4061 H 376.501 3.16692 -0.669898 0
M  V30 4062 H 375.408 2.41099 -2.86046 0
M  V30 4063 H 376.741 3.18715 -3.75076 0
M  V30 4064 N 378.394 1.34581 0.820102 0
M  V30 4065 C 379.304 1.28471 1.96297 0
M  V30 4066 C 380.32 0.191902 1.72939 0
M  V30 4067 O 381.496 0.418879 1.96996 0
M  V30 4068 C 378.561 1.04281 3.30645 0
M  V30 4069 C 377.622 2.22745 3.66992 0
M  V30 4070 C 376.855 1.997 4.9493 0
M  V30 4071 O 377.078 0.956656 5.6232 0
M  V30 4072 O 376.012 2.86723 5.2922 0
M  V30 4073 H 379.838 2.24624 2.04396 0
M  V30 4074 H 377.423 1.14816 0.955913 0
M  V30 4075 H 379.305 0.925841 4.11104 0
M  V30 4076 H 377.98 0.111697 3.23507 0
M  V30 4077 H 376.887 2.40003 2.86966 0
M  V30 4078 H 378.22 3.14257 3.78819 0
M  V30 4079 N 379.872 -1.04064 1.18357 0
M  V30 4080 C 380.802 -2.14001 0.934113 0
M  V30 4081 C 381.783 -1.69616 -0.128186 0
M  V30 4082 O 382.968 -1.94185 0.0244093 0
M  V30 4083 C 380.098 -3.44253 0.459066 0
M  V30 4084 C 379.052 -4.02261 1.46185 0
M  V30 4085 C 378.378 -5.27992 0.844322 0
M  V30 4086 C 379.678 -4.38432 2.83856 0
M  V30 4087 H 381.372 -2.35127 1.85352 0
M  V30 4088 H 378.918 -1.12998 0.892604 0
M  V30 4089 H 380.871 -4.20522 0.271907 0
M  V30 4090 H 379.595 -3.22813 -0.495912 0
M  V30 4091 H 378.254 -3.28074 1.63595 0
M  V30 4092 H 377.902 -5.02862 -0.117845 0
M  V30 4093 H 377.602 -5.67765 1.51384 0
M  V30 4094 H 379.126 -6.06938 0.667693 0
M  V30 4095 H 380.54 -5.05688 2.70098 0
M  V30 4096 H 378.937 -4.89254 3.47491 0
M  V30 4097 H 380.007 -3.4826 3.37406 0
M  V30 4098 N 381.35 -0.985608 -1.22978 0
M  V30 4099 C 382.282 -0.488154 -2.23941 0
M  V30 4100 C 383.295 0.41282 -1.57479 0
M  V30 4101 O 384.484 0.216121 -1.77187 0
M  V30 4102 C 381.584 0.312611 -3.37455 0
M  V30 4103 C 380.757 -0.582741 -4.33501 0
M  V30 4104 C 379.816 0.165064 -5.25941 0
M  V30 4105 O 378.842 -0.447077 -5.67442 0
M  V30 4106 N 380.044 1.44953 -5.62111 0
M  V30 4107 H 382.809 -1.3563 -2.67254 0
M  V30 4108 H 380.37 -0.859477 -1.37203 0
M  V30 4109 H 382.362 0.821357 -3.96277 0
M  V30 4110 H 380.932 1.0818 -2.93285 0
M  V30 4111 H 380.152 -1.27225 -3.73105 0
M  V30 4112 H 381.44 -1.19275 -4.94622 0
M  V30 4113 H 380.838 1.9683 -5.30353 0
M  V30 4114 H 379.395 1.90361 -6.23383 0
M  V30 4115 N 382.828 1.3818 -0.7579 0
M  V30 4116 C 384.105 1.94106 -0.241306 0
M  V30 4117 C 384.485 1.69282 1.26122 0
M  V30 4118 O 383.833 1.03378 2.03777 0
M  V30 4119 C 384.043 3.43809 -0.59967 0
M  V30 4120 C 385.391 4.20868 -0.561717 0
M  V30 4121 O 386.415 3.5211 -0.538222 0
M  V30 4122 O 385.274 5.43451 -0.576478 0
M  V30 4123 H 382.368 0.825376 -0.0518042 0
M  V30 4124 H 384.914 1.47548 -0.838315 0
M  V30 4125 H 383.686 3.55403 -1.6372 0
M  V30 4126 H 383.309 3.97592 0.0251197 0
M  V30 4127 N 384.306 0.507319 1.49211 0
M  V30 4128 C 385.531 -0.033725 2.07373 0
M  V30 4129 C 385.956 -1.29485 1.36437 0
M  V30 4130 O 385.314 -1.76294 0.423087 0
M  V30 4131 C 385.362 -0.263945 3.59633 0
M  V30 4132 O 384.466 -1.33737 3.90113 0
M  V30 4133 H 383.807 0.0290331 0.663365 0
M  V30 4134 H 386.337 0.708749 1.91932 0
M  V30 4135 H 386.347 -0.493536 4.05004 0
M  V30 4136 H 385.022 0.657424 4.10671 0
M  V30 4137 H 383.599 -1.09224 3.56545 0
M  V30 4138 N 385.784 -1.5574 0.241426 0
M  V30 4139 C 387.009 -2.0366 -0.392111 0
M  V30 4140 C 387.434 -1.11969 -1.51144 0
M  V30 4141 O 386.792 -0.111594 -1.80956 0
M  V30 4142 C 386.84 -3.49638 -0.882371 0
M  V30 4143 O 385.944 -3.6108 -1.99235 0
M  V30 4144 H 385.285 -0.658379 -0.0862122 0
M  V30 4145 H 387.815 -2.01302 0.365881 0
M  V30 4146 H 387.825 -3.90351 -1.18702 0
M  V30 4147 H 386.5 -4.15852 -0.0632361 0
M  V30 4148 H 385.077 -3.32262 -1.69282 0
M  V30 4149 N 387.262 0.0317525 -1.57568 0
M  V30 4150 C 388.487 0.738664 -1.938 0
M  V30 4151 C 388.912 1.68242 -0.841208 0
M  V30 4152 O 388.27 1.80157 0.203267 0
M  V30 4153 C 388.318 1.47417 -3.29091 0
M  V30 4154 O 387.422 2.5872 -3.2115 0
M  V30 4155 H 386.763 0.198856 -0.633524 0
M  V30 4156 H 389.293 -0.0119713 -2.04596 0
M  V30 4157 H 389.303 1.84468 -3.63917 0
M  V30 4158 H 387.978 0.781988 -4.08482 0
M  V30 4159 H 386.555 2.24231 -2.97951 0
M  V30 4160 N 388.74 1.54641 0.303973 0
M  V30 4161 C 389.987 1.7378 1.03955 0
M  V30 4162 C 390.315 0.521986 1.87365 0
M  V30 4163 O 389.57 -0.496099 1.89308 0
M  V30 4164 C 389.869 2.97753 1.97681 0
M  V30 4165 C 389.535 4.31671 1.30271 0
M  V30 4166 C 388.197 4.68075 1.11619 0
M  V30 4167 C 390.549 5.147 0.82055 0
M  V30 4168 C 387.877 5.8509 0.434304 0
M  V30 4169 C 390.229 6.32416 0.152395 0
M  V30 4170 C 388.893 6.67484 -0.0461067 0
M  V30 4171 H 388.163 0.635908 0.380398 0
M  V30 4172 H 390.81 1.88896 0.314718 0
M  V30 4173 H 389.115 2.77406 2.76682 0
M  V30 4174 H 390.812 3.09756 2.54661 0
M  V30 4175 H 387.402 4.03041 1.45795 0
M  V30 4176 H 391.586 4.87077 0.952374 0
M  V30 4177 H 386.842 6.10806 0.269495 0
M  V30 4178 H 391.016 6.96023 -0.229126 0
M  V30 4179 H 388.643 7.58011 -0.576494 0
M  V30 4180 N 390.218 -0.567019 1.47046 0
M  V30 4181 C 391.168 -1.67018 1.55207 0
M  V30 4182 C 392.152 -1.55543 0.411714 0
M  V30 4183 O 393.344 -1.64192 0.661064 0
M  V30 4184 C 390.473 -3.05801 1.56014 0
M  V30 4185 C 389.559 -3.22515 2.75399 0
M  V30 4186 N 389.95 -3.09329 4.00186 0
M  V30 4187 C 388.248 -3.53493 2.71954 0
M  V30 4188 C 388.949 -3.2847 4.80086 0
M  V30 4189 N 387.925 -3.54352 4.12233 0
M  V30 4190 H 391.727 -1.55377 2.4947 0
M  V30 4191 H 389.241 -0.771503 1.42904 0
M  V30 4192 H 391.238 -3.84996 1.59949 0
M  V30 4193 H 389.898 -3.18561 0.628396 0
M  V30 4194 H 390.909 -2.86863 4.31196 0
M  V30 4195 H 387.586 -3.7284 1.87873 0
M  V30 4196 H 388.976 -3.23326 5.88991 0
M  V30 4197 N 391.696 -1.35014 -0.812953 0
M  V30 4198 C 392.646 -1.23959 -1.91359 0
M  V30 4199 C 393.63 -0.136306 -1.60322 0
M  V30 4200 O 394.822 -0.366925 -1.73155 0
M  V30 4201 C 391.951 -1.00736 -3.28188 0
M  V30 4202 C 391.037 -2.15426 -3.65311 0
M  V30 4203 N 391.428 -3.40612 -3.73921 0
M  V30 4204 C 389.726 -2.06672 -3.95225 0
M  V30 4205 C 390.427 -4.15994 -4.06601 0
M  V30 4206 N 389.403 -3.44685 -4.20349 0
M  V30 4207 H 393.205 -2.18815 -1.96208 0
M  V30 4208 H 390.719 -1.27395 -1.00718 0
M  V30 4209 H 392.716 -0.909052 -4.06868 0
M  V30 4210 H 391.376 -0.067586 -3.2463 0
M  V30 4211 H 392.387 -3.75043 -3.5716 0
M  V30 4212 H 389.064 -1.20511 -3.99729 0
M  V30 4213 H 390.454 -5.24145 -4.20382 0
M  V30 4214 N 393.175 1.03435 -1.18907 0
M  V30 4215 C 394.107 2.1165 -0.879595 0
M  V30 4216 C 395.12 1.62316 0.125439 0
M  V30 4217 O 396.309 1.78201 -0.103245 0
M  V30 4218 C 393.409 3.37622 -0.294042 0
M  V30 4219 C 392.582 4.16166 -1.34629 0
M  V30 4220 C 391.641 5.20457 -0.775274 0
M  V30 4221 O 390.667 5.50379 -1.4516 0
M  V30 4222 N 391.869 5.78949 0.424126 0
M  V30 4223 H 394.634 2.38791 -1.81105 0
M  V30 4224 H 392.195 1.19681 -1.09032 0
M  V30 4225 H 394.187 4.04572 0.101679 0
M  V30 4226 H 392.757 3.07873 0.541575 0
M  V30 4227 H 391.977 3.44444 -1.91707 0
M  V30 4228 H 393.265 4.65432 -2.05549 0
M  V30 4229 H 392.663 5.56948 0.991209 0
M  V30 4230 H 391.22 6.47334 0.761691 0
M  V30 4231 N 394.653 0.992116 1.22453 0
M  V30 4232 C 395.603 0.512969 2.22155 0
M  V30 4233 C 396.587 -0.418416 1.55364 0
M  V30 4234 O 397.779 -0.245363 1.75291 0
M  V30 4235 C 394.908 -0.171822 3.4287 0
M  V30 4236 C 393.994 0.779822 4.16869 0
M  V30 4237 N 394.385 1.92734 4.6764 0
M  V30 4238 C 392.683 0.59554 4.42006 0
M  V30 4239 C 393.384 2.52458 5.24061 0
M  V30 4240 N 392.36 1.80735 5.12675 0
M  V30 4241 H 396.162 1.38817 2.5905 0
M  V30 4242 H 393.676 0.854277 1.38115 0
M  V30 4243 H 395.673 -0.532469 4.13486 0
M  V30 4244 H 394.333 -1.04317 3.07487 0
M  V30 4245 H 395.344 2.30816 4.63621 0
M  V30 4246 H 392.021 -0.229805 4.16867 0
M  V30 4247 H 393.411 3.49433 5.73887 0
M  V30 4248 N 396.131 -1.37776 0.765217 0
M  V30 4249 C 397.061 -2.32945 0.160953 0
M  V30 4250 C 398.042 -1.55454 -0.690516 0
M  V30 4251 O 399.227 -1.83721 -0.629318 0
M  V30 4252 C 396.357 -3.39669 -0.724031 0
M  V30 4253 C 395.311 -4.27992 0.0256173 0
M  V30 4254 C 394.637 -5.25673 -0.978383 0
M  V30 4255 C 395.937 -5.08309 1.20082 0
M  V30 4256 H 397.631 -2.83728 0.955969 0
M  V30 4257 H 395.177 -1.36416 0.461149 0
M  V30 4258 H 397.13 -4.05219 -1.15652 0
M  V30 4259 H 395.854 -2.87396 -1.5515 0
M  V30 4260 H 394.513 -3.63964 0.438812 0
M  V30 4261 H 394.161 -4.69682 -1.80022 0
M  V30 4262 H 393.861 -5.85625 -0.481378 0
M  V30 4263 H 395.385 -5.94098 -1.40995 0
M  V30 4264 H 396.799 -5.67034 0.845307 0
M  V30 4265 H 395.196 -5.77554 1.62947 0
M  V30 4266 H 396.266 -4.41365 2.00811 0
M  V30 4267 N 397.609 -0.515225 -1.4894 0
M  V30 4268 C 398.519 0.259774 -2.33157 0
M  V30 4269 C 399.535 0.953501 -1.45548 0
M  V30 4270 O 400.711 0.931735 -1.78552 0
M  V30 4271 C 397.776 1.30193 -3.21326 0
M  V30 4272 C 396.837 0.620129 -4.24797 0
M  V30 4273 C 396.07 1.61263 -5.08753 0
M  V30 4274 O 396.293 2.84389 -4.94448 0
M  V30 4275 O 395.227 1.16013 -5.90614 0
M  V30 4276 H 399.053 -0.429932 -3.00641 0
M  V30 4277 H 396.638 -0.276346 -1.46822 0
M  V30 4278 H 398.52 1.90455 -3.75905 0
M  V30 4279 H 397.195 1.97431 -2.56521 0
M  V30 4280 H 396.102 -0.0226019 -3.74093 0
M  V30 4281 H 397.435 -0.0100493 -4.92199 0
M  V30 4282 N 399.087 1.5561 -0.249682 0
M  V30 4283 C 399.997 2.25143 0.659375 0
M  V30 4284 C 401.013 1.2685 1.19101 0
M  V30 4285 O 402.189 1.59732 1.22669 0
M  V30 4286 C 399.254 2.93945 1.8384 0
M  V30 4287 C 398.315 4.07655 1.34596 0
M  V30 4288 C 397.548 4.73167 2.46878 0
M  V30 4289 O 397.771 4.37768 3.65671 0
M  V30 4290 O 396.705 5.61623 2.16478 0
M  V30 4291 H 400.531 3.03545 0.0968698 0
M  V30 4292 H 398.116 1.49389 -0.018074 0
M  V30 4293 H 399.998 3.37271 2.52638 0
M  V30 4294 H 398.673 2.18481 2.38847 0
M  V30 4295 H 397.58 3.68839 0.625174 0
M  V30 4296 H 398.913 4.84946 0.841941 0
M  V30 4297 N 400.565 -0.0233959 1.57583 0
M  V30 4298 C 401.475 -1.03907 2.10334 0
M  V30 4299 C 402.491 -1.39257 1.04323 0
M  V30 4300 O 403.667 -1.48462 1.36091 0
M  V30 4301 C 400.732 -2.31938 2.57693 0
M  V30 4302 C 399.793 -2.03117 3.78209 0
M  V30 4303 C 399.026 -3.25043 4.233 0
M  V30 4304 O 399.249 -4.35916 3.67876 0
M  V30 4305 O 398.183 -3.10411 5.15683 0
M  V30 4306 H 402.009 -0.620748 2.97288 0
M  V30 4307 H 399.594 -0.240743 1.47448 0
M  V30 4308 H 401.476 -3.07196 2.88458 0
M  V30 4309 H 400.151 -2.73055 1.73847 0
M  V30 4310 H 399.058 -1.25408 3.52454 0
M  V30 4311 H 400.391 -1.66852 4.63056 0
M  V30 4312 N 402.043 -1.548 -0.295768 0
M  V30 4313 C 403.29 -1.74329 -1.03032 0
M  V30 4314 C 403.618 -0.531915 -1.87085 0
M  V30 4315 O 402.873 0.486052 -1.89568 0
M  V30 4316 C 403.172 -2.98797 -1.961 0
M  V30 4317 C 402.838 -4.32356 -1.2798 0
M  V30 4318 C 401.5 -4.68661 -1.09135 0
M  V30 4319 C 403.852 -5.15128 -0.793243 0
M  V30 4320 C 401.18 -5.85312 -0.403269 0
M  V30 4321 C 403.532 -6.32488 -0.118854 0
M  V30 4322 C 402.196 -6.6745 0.0815043 0
M  V30 4323 H 401.466 -0.637916 -0.37702 0
M  V30 4324 H 404.113 -1.8906 -0.304696 0
M  V30 4325 H 402.418 -2.78869 -2.75207 0
M  V30 4326 H 404.115 -3.11102 -2.53015 0
M  V30 4327 H 400.705 -4.03808 -1.43655 0
M  V30 4328 H 404.889 -4.87575 -0.92653 0
M  V30 4329 H 400.145 -6.1094 -0.237098 0
M  V30 4330 H 404.319 -6.95892 0.266035 0
M  V30 4331 H 401.946 -7.57695 0.616685 0
M  V30 4332 N 403.521 0.559213 -1.47345 0
M  V30 4333 C 404.77 1.31281 -1.53128 0
M  V30 4334 C 405.083 1.94602 -0.197344 0
M  V30 4335 O 406.289 2.71173 -0.133154 0
M  V30 4336 C 404.745 2.38051 -2.69925 0
M  V30 4337 C 404.353 1.8093 -4.0984 0
M  V30 4338 C 406.097 3.14604 -2.84999 0
M  V30 4339 C 404.004 2.85468 -5.1794 0
M  V30 4340 H 402.934 0.493614 -0.569966 0
M  V30 4341 H 405.585 0.594155 -1.73615 0
M  V30 4342 H 403.967 3.12822 -2.42814 0
M  V30 4343 H 405.141 1.12544 -4.46845 0
M  V30 4344 H 403.456 1.16967 -3.99634 0
M  V30 4345 H 406.053 3.92666 -3.62929 0
M  V30 4346 H 406.396 3.68665 -1.93369 0
M  V30 4347 H 406.929 2.46945 -3.1187 0
M  V30 4348 H 403.668 2.36264 -6.1144 0
M  V30 4349 H 403.188 3.52269 -4.85455 0
M  V30 4350 H 404.867 3.48996 -5.44803 0
M  V30 4351 N 404.999 1.35443 0.805782 0
M  V30 4352 C 406.224 1.32037 1.59941 0
M  V30 4353 C 406.649 -0.0994215 1.87837 0
M  V30 4354 O 406.007 -1.06648 1.46615 0
M  V30 4355 C 406.055 2.13354 2.90711 0
M  V30 4356 O 405.159 1.5148 3.83572 0
M  V30 4357 H 404.5 0.452666 0.485787 0
M  V30 4358 H 407.03 1.78496 1.00002 0
M  V30 4359 H 407.04 2.25338 3.40128 0
M  V30 4360 H 405.715 3.16572 2.69732 0
M  V30 4361 H 404.292 1.4834 3.42125 0
M  V30 4362 N 406.477 -1.02803 1.19454 0
M  V30 4363 C 407.387 -2.14575 0.948408 0
M  V30 4364 C 408.403 -1.73757 -0.091871 0
M  V30 4365 O 409.579 -2.01185 0.0929654 0
M  V30 4366 C 406.644 -3.43202 0.491265 0
M  V30 4367 C 405.705 -3.98328 1.60103 0
M  V30 4368 C 404.938 -5.20816 1.16561 0
M  V30 4369 O 405.161 -5.70392 0.0295238 0
M  V30 4370 O 404.095 -5.68801 1.96849 0
M  V30 4371 H 407.921 -2.38202 1.88397 0
M  V30 4372 H 405.506 -1.12989 0.977433 0
M  V30 4373 H 407.388 -4.20687 0.245015 0
M  V30 4374 H 406.063 -3.21018 -0.415851 0
M  V30 4375 H 404.97 -3.22174 1.90144 0
M  V30 4376 H 406.303 -4.24879 2.48473 0
M  V30 4377 N 407.956 -0.998596 -1.21925 0
M  V30 4378 C 409.202 -0.678667 -1.91107 0
M  V30 4379 C 409.535 0.78791 -1.77498 0
M  V30 4380 O 408.81 1.57043 -1.1475 0
M  V30 4381 C 409.093 -1.09245 -3.43129 0
M  V30 4382 C 408.946 -2.61801 -3.6576 0
M  V30 4383 C 410.265 -0.649984 -4.35274 0
M  V30 4384 H 407.384 -0.248025 -0.694012 0
M  V30 4385 H 410.026 -1.24314 -1.43688 0
M  V30 4386 H 408.176 -0.612171 -3.83647 0
M  V30 4387 H 409.848 -3.17543 -3.34611 0
M  V30 4388 H 408.091 -3.03609 -3.09845 0
M  V30 4389 H 408.762 -2.85804 -4.7225 0
M  V30 4390 H 411.238 -1.0626 -4.02303 0
M  V30 4391 H 410.114 -0.967743 -5.40302 0
M  V30 4392 H 410.375 0.449139 -4.39813 0
M  V30 4393 N 409.434 1.37368 -0.772513 0
M  V30 4394 C 410.344 2.34053 -0.160081 0
M  V30 4395 C 411.36 1.60216 0.678728 0
M  V30 4396 O 412.536 1.92303 0.59847 0
M  V30 4397 C 409.601 3.3939 0.708182 0
M  V30 4398 C 408.662 4.29048 -0.147172 0
M  V30 4399 C 407.895 5.29354 0.679744 0
M  V30 4400 O 408.118 5.3723 1.91678 0
M  V30 4401 O 407.052 6.01835 0.0885444 0
M  V30 4402 H 410.878 2.88159 -0.959053 0
M  V30 4403 H 408.463 1.39543 -0.533685 0
M  V30 4404 H 410.345 4.03839 1.20384 0
M  V30 4405 H 409.02 2.8761 1.48533 0
M  V30 4406 H 407.927 3.67697 -0.689205 0
M  V30 4407 H 409.26 4.84134 -0.887423 0
M  V30 4408 N 410.912 0.523116 1.48665 0
M  V30 4409 C 411.86 -0.256859 2.31177 0
M  V30 4410 C 412.854 -0.94199 1.40794 0
M  V30 4411 O 414.06 -0.867157 1.57735 0
M  V30 4412 H 410.435 -0.1017 0.745091 0
M  V30 4413 H 412.406 0.458739 2.94853 0
M  V30 4414 C 411.155 -1.29503 3.22683 0
M  V30 4415 H 410.478 -0.777248 3.92172 0
M  V30 4416 H 411.918 -1.81233 3.83315 0
M  V30 4417 C 410.377 -2.32501 2.43813 0
M  V30 4418 O 410.907 -3.3881 2.15803 0
M  V30 4419 N 409.113 -2.05538 2.05432 0
M  V30 4420 H 408.66 -1.19104 2.28412 0
M  V30 4421 H 408.618 -2.74676 1.52973 0
M  V30 4422 N 412.39 -1.55475 0.257931 0
M  V30 4423 C 413.353 -2.20551 -0.623706 0
M  V30 4424 C 414.353 -1.17809 -1.09443 0
M  V30 4425 O 415.543 -1.42823 -0.997362 0
M  V30 4426 C 412.675 -2.85784 -1.8585 0
M  V30 4427 H 413.868 -2.99848 -0.0557743 0
M  V30 4428 H 411.421 -1.56298 0.0084422 0
M  V30 4429 H 412.156 -2.10453 -2.46739 0
M  V30 4430 H 411.941 -3.61057 -1.52907 0
M  V30 4431 H 413.431 -3.35553 -2.48584 0
M  V30 4432 N 413.868 0.0150385 -1.57593 0
M  V30 4433 C 415.115 0.703001 -1.89906 0
M  V30 4434 C 415.443 1.74604 -0.856944 0
M  V30 4435 O 414.698 1.95197 0.140287 0
M  V30 4436 C 414.997 1.39686 -3.28972 0
M  V30 4437 C 414.663 0.488457 -4.48246 0
M  V30 4438 C 413.325 0.2383 -4.8061 0
M  V30 4439 C 415.677 -0.137881 -5.21018 0
M  V30 4440 C 413.005 -0.646738 -5.83125 0
M  V30 4441 C 415.357 -1.0107 -6.24474 0
M  V30 4442 C 414.021 -1.27019 -6.55303 0
M  V30 4443 H 413.291 0.257246 -0.694914 0
M  V30 4444 H 415.938 -0.037259 -1.91464 0
M  V30 4445 H 414.243 2.21079 -3.23468 0
M  V30 4446 H 415.94 1.93495 -3.51227 0
M  V30 4447 H 412.53 0.693593 -4.22951 0
M  V30 4448 H 416.714 0.0423953 -4.96282 0
M  V30 4449 H 411.97 -0.855937 -6.05379 0
M  V30 4450 H 416.144 -1.50247 -6.79999 0
M  V30 4451 H 413.771 -1.95769 -7.3456 0
M  V30 4452 N 415.346 1.54954 0.287554 0
M  V30 4453 C 416.574 1.78881 1.03967 0
M  V30 4454 C 416.989 0.554894 1.80462 0
M  V30 4455 O 416.346 -0.475676 1.76192 0
M  V30 4456 C 416.397 3.00488 2.0097 0
M  V30 4457 O 416.118 4.19113 1.27577 0
M  V30 4458 C 417.619 3.36907 2.88112 0
M  V30 4459 H 414.839 0.596259 0.307761 0
M  V30 4460 H 417.383 2.01937 0.322749 0
M  V30 4461 H 415.538 2.79601 2.68145 0
M  V30 4462 H 415.952 4.87765 1.92835 0
M  V30 4463 H 417.426 4.25205 3.52001 0
M  V30 4464 H 417.903 2.55659 3.57121 0
M  V30 4465 H 418.509 3.60001 2.26449 0
M  V30 4466 N 416.824 -0.551391 1.4764 0
M  V30 4467 C 418.072 -1.30572 1.54258 0
M  V30 4468 C 418.393 -1.93877 0.208963 0
M  V30 4469 O 417.663 -1.80234 -0.767619 0
M  V30 4470 H 416.243 -0.484894 0.568231 0
M  V30 4471 H 418.905 -0.643402 1.83974 0
M  V30 4472 H 418.001 -2.09621 2.31226 0
M  V30 4473 N 418.302 -1.35869 -0.798587 0
M  V30 4474 C 419.232 -1.32118 -1.92528 0
M  V30 4475 C 420.213 -0.194209 -1.68988 0
M  V30 4476 O 421.398 -0.390426 -1.90235 0
M  V30 4477 C 418.528 -1.10047 -3.29404 0
M  V30 4478 C 417.482 -2.19471 -3.67446 0
M  V30 4479 C 416.808 -1.82555 -5.02571 0
M  V30 4480 C 418.108 -3.61495 -3.76987 0
M  V30 4481 H 419.802 -2.26394 -1.95924 0
M  V30 4482 H 417.348 -1.08981 -0.94123 0
M  V30 4483 H 419.301 -1.06061 -4.07835 0
M  V30 4484 H 418.025 -0.122195 -3.26371 0
M  V30 4485 H 416.684 -2.22568 -2.91306 0
M  V30 4486 H 416.332 -0.833249 -4.9605 0
M  V30 4487 H 416.032 -2.5581 -5.28995 0
M  V30 4488 H 417.556 -1.80108 -5.83432 0
M  V30 4489 H 418.97 -3.60676 -4.4563 0
M  V30 4490 H 417.367 -4.33577 -4.14887 0
M  V30 4491 H 418.437 -3.97065 -2.78329 0
M  V30 4492 N 419.78 1.02168 -1.19998 0
M  V30 4493 C 421.191 1.57135 -1.00825 0
M  V30 4494 C 421.542 1.91276 0.436818 0
M  V30 4495 O 420.667 1.71679 1.3174 0
M  V30 4496 C 421.262 2.85514 -1.82393 0
M  V30 4497 C 419.821 3.37027 -1.67601 0
M  V30 4498 C 418.968 2.10388 -1.80644 0
M  V30 4499 H 421.919 0.846106 -1.34264 0
M  V30 4500 H 421.94 3.56711 -1.32429 0
M  V30 4501 H 421.452 2.60634 -2.87561 0
M  V30 4502 H 419.553 3.66878 -0.650485 0
M  V30 4503 H 419.666 4.09572 -2.4857 0
M  V30 4504 H 418.03 2.22601 -1.23778 0
M  V30 4505 H 418.813 1.8794 -2.87286 0
M  V30 4506 N 421.258 1.00505 1.21394 0
M  V30 4507 C 422.506 0.686415 1.90086 0
M  V30 4508 C 422.827 -0.785264 1.7849 0
M  V30 4509 O 422.097 -1.56387 1.17983 0
M  V30 4510 H 420.677 0.2509 0.703604 0
M  V30 4511 H 423.339 1.27417 1.47482 0
M  V30 4512 H 422.435 0.959621 2.96981 0
M  V30 4513 N 422.737 -1.36956 0.779787 0
M  V30 4514 C 423.967 -2.03459 0.358877 0
M  V30 4515 C 424.375 -1.58939 -1.02641 0
M  V30 4516 O 423.718 -0.769777 -1.66794 0
M  V30 4517 C 423.78 -3.5796 0.332393 0
M  V30 4518 C 423.444 -4.25644 1.66362 0
M  V30 4519 C 424.441 -4.49205 2.61746 0
M  V30 4520 C 422.126 -4.63313 1.94027 0
M  V30 4521 C 424.12 -5.09503 3.82996 0
M  V30 4522 C 421.807 -5.2333 3.15546 0
M  V30 4523 C 422.805 -5.46363 4.0985 0
M  V30 4524 O 422.493 -6.05122 5.29228 0
M  V30 4525 H 422.225 -0.659767 0.147254 0
M  V30 4526 H 424.779 -1.76111 1.05708 0
M  V30 4527 H 423.009 -3.84388 -0.422237 0
M  V30 4528 H 424.698 -4.05852 -0.0625389 0
M  V30 4529 H 425.464 -4.20508 2.41657 0
M  V30 4530 H 421.343 -4.44715 1.21448 0
M  V30 4531 H 424.887 -5.27397 4.56617 0
M  V30 4532 H 420.784 -5.51451 3.35517 0
M  V30 4533 H 421.552 -6.23595 5.30161 0
M  V30 4534 N 424.215 -0.530993 -1.48385 0
M  V30 4535 C 425.162 0.231223 -2.29639 0
M  V30 4536 C 426.132 0.932864 -1.37429 0
M  V30 4537 O 427.317 0.933692 -1.66394 0
M  V30 4538 C 424.457 1.27155 -3.2082 0
M  V30 4539 C 423.57 0.578655 -4.28107 0
M  V30 4540 C 422.705 1.602 -5.06467 0
M  V30 4541 C 421.744 0.892625 -6.05556 0
M  V30 4542 N 420.881 1.86157 -6.76971 0
M  V30 4543 H 425.721 -0.467848 -2.94305 0
M  V30 4544 H 423.258 -0.242556 -1.45086 0
M  V30 4545 H 425.216 1.88703 -3.72085 0
M  V30 4546 H 423.846 1.939 -2.58075 0
M  V30 4547 H 422.898 -0.150782 -3.80101 0
M  V30 4548 H 424.21 0.0217065 -4.98795 0
M  V30 4549 H 423.364 2.29173 -5.61751 0
M  V30 4550 H 422.103 2.19285 -4.35621 0
M  V30 4551 H 421.108 0.188829 -5.49476 0
M  V30 4552 H 422.333 0.307878 -6.78402 0
M  V30 4553 H 420.279 2.44147 -6.08875 0
M  V30 4554 H 420.196 1.35608 -7.43738 0
M  V30 4555 H 421.464 2.54325 -7.36844 0
M  V30 4556 N 425.693 1.55336 -0.266172 0
M  V30 4557 C 426.603 2.2583 0.635458 0
M  V30 4558 C 427.619 1.28106 1.17749 0
M  V30 4559 O 428.795 1.61024 1.20968 0
M  V30 4560 C 425.86 2.95879 1.80712 0
M  V30 4561 C 424.921 4.09059 1.30265 0
M  V30 4562 C 424.154 4.75759 2.41846 0
M  V30 4563 O 424.377 4.41622 3.61007 0
M  V30 4564 O 423.311 5.63888 2.1051 0
M  V30 4565 H 427.137 3.03631 0.0646693 0
M  V30 4566 H 424.722 1.49361 -0.0339177 0
M  V30 4567 H 426.604 3.39932 2.49047 0
M  V30 4568 H 425.279 2.21002 2.36516 0
M  V30 4569 H 424.186 3.69482 0.586019 0
M  V30 4570 H 425.519 4.85811 0.790458 0
M  V30 4571 N 427.171 -0.0066808 1.57599 0
M  V30 4572 C 428.42 -0.692078 1.89455 0
M  V30 4573 C 428.733 -1.75306 0.867586 0
M  V30 4574 O 429.939 -2.49262 1.07614 0
M  V30 4575 C 428.395 -1.2821 3.36289 0
M  V30 4576 C 428.003 -0.256291 4.47266 0
M  V30 4577 C 429.747 -1.94608 3.77264 0
M  V30 4578 C 427.654 -0.855927 5.85173 0
M  V30 4579 H 426.584 -0.262252 0.706923 0
M  V30 4580 H 429.235 0.052769 1.83424 0
M  V30 4581 H 427.617 -2.0774 3.37135 0
M  V30 4582 H 428.791 0.513923 4.57925 0
M  V30 4583 H 427.106 0.306862 4.15268 0
M  V30 4584 H 429.703 -2.40364 4.77629 0
M  V30 4585 H 430.046 -2.77382 3.10427 0
M  V30 4586 H 430.579 -1.21822 3.78688 0
M  V30 4587 H 427.318 -0.0671161 6.55466 0
M  V30 4588 H 426.838 -1.59546 5.78191 0
M  V30 4589 H 428.517 -1.35658 6.32618 0
M  V30 4590 N 428.649 -1.55105 -0.279332 0
M  V30 4591 C 430.065 -1.46803 -0.626187 0
M  V30 4592 C 430.265 -0.676939 -1.89789 0
M  V30 4593 O 429.321 -0.19326 -2.51759 0
M  V30 4594 C 430.634 -2.90962 -0.759034 0
M  V30 4595 C 432.182 -3.01138 -0.853504 0
M  V30 4596 C 432.657 -4.46539 -1.01818 0
M  V30 4597 N 434.148 -4.50341 -1.08386 0
M  V30 4598 C 434.883 -5.60053 -1.22996 0
M  V30 4599 N 434.379 -6.79645 -1.34366 0
M  V30 4600 N 436.172 -5.47783 -1.26056 0
M  V30 4601 H 428.323 -2.04996 0.555921 0
M  V30 4602 H 430.586 -0.929325 0.187239 0
M  V30 4603 H 430.292 -3.51544 0.104852 0
M  V30 4604 H 430.166 -3.39619 -1.64131 0
M  V30 4605 H 432.553 -2.40658 -1.70786 0
M  V30 4606 H 432.634 -2.55745 0.0532466 0
M  V30 4607 H 432.278 -5.0762 -0.168504 0
M  V30 4608 H 432.208 -4.89583 -1.93948 0
M  V30 4609 H 434.699 -3.64191 -1.00864 0
M  V30 4610 H 435.012 -7.59012 -1.4533 0
M  V30 4611 H 433.357 -6.82469 -1.31382 0
M  V30 4612 H 436.548 -4.53294 -1.168 0
M  V30 4613 H 436.721 -6.33331 -1.37098 0
M  V30 4614 N 430.127 0.543554 -1.4793 0
M  V30 4615 C 431.373 1.30201 -1.55485 0
M  V30 4616 C 431.706 1.92925 -0.222201 0
M  V30 4617 O 430.981 1.78586 0.77053 0
M  V30 4618 C 431.264 2.40174 -2.68307 0
M  V30 4619 C 431.117 1.8223 -4.11233 0
M  V30 4620 C 432.436 3.42024 -2.76961 0
M  V30 4621 H 429.555 0.472036 -0.565996 0
M  V30 4622 H 432.197 0.606914 -1.80046 0
M  V30 4623 H 430.347 2.99463 -2.47495 0
M  V30 4624 H 432.019 1.27096 -4.43446 0
M  V30 4625 H 430.262 1.12832 -4.18869 0
M  V30 4626 H 430.933 2.61793 -4.85972 0
M  V30 4627 H 433.409 2.92672 -2.95774 0
M  V30 4628 H 432.285 4.16383 -3.57654 0
M  V30 4629 H 432.546 4.0173 -1.84568 0
M  V30 4630 N 431.605 1.3629 0.791371 0
M  V30 4631 C 432.535 1.33137 1.91825 0
M  V30 4632 C 433.516 0.203168 1.68882 0
M  V30 4633 O 434.701 0.400509 1.90025 0
M  V30 4634 C 431.831 1.11793 3.28816 0
M  V30 4635 C 430.785 2.21417 3.66277 0
M  V30 4636 C 430.111 1.85218 5.01596 0
M  V30 4637 C 431.411 3.63489 3.75064 0
M  V30 4638 H 433.105 2.2743 1.9472 0
M  V30 4639 H 430.651 1.09479 0.935437 0
M  V30 4640 H 432.604 1.08222 4.07266 0
M  V30 4641 H 431.328 0.139501 3.26302 0
M  V30 4642 H 429.987 2.2411 2.90121 0
M  V30 4643 H 429.635 0.859544 4.95602 0
M  V30 4644 H 429.335 2.58611 5.27631 0
M  V30 4645 H 430.859 1.832 5.82469 0
M  V30 4646 H 432.273 3.63034 4.43711 0
M  V30 4647 H 430.67 4.35771 4.12582 0
M  V30 4648 H 431.74 3.98536 2.76219 0
M  V30 4649 N 433.083 -1.0153 1.20538 0
M  V30 4650 C 433.993 -2.13557 0.971113 0
M  V30 4651 C 435.009 -1.73845 -0.0734366 0
M  V30 4652 O 436.185 -2.01075 0.114299 0
M  V30 4653 C 433.25 -3.42661 0.527639 0
M  V30 4654 C 432.311 -3.96608 1.64319 0
M  V30 4655 C 431.544 -5.1955 1.22078 0
M  V30 4656 O 431.767 -5.70329 0.0900198 0
M  V30 4657 O 430.701 -5.66681 2.02871 0
M  V30 4658 H 434.527 -2.3619 1.90913 0
M  V30 4659 H 432.112 -1.11946 0.989362 0
M  V30 4660 H 433.994 -4.20404 0.289621 0
M  V30 4661 H 432.669 -3.21441 -0.381779 0
M  V30 4662 H 431.576 -3.20139 1.93551 0
M  V30 4663 H 432.909 -4.22219 2.52966 0
M  V30 4664 N 434.561 -1.01147 -1.20859 0
M  V30 4665 C 435.808 -0.697865 -1.90095 0
M  V30 4666 C 436.136 0.772014 -1.78522 0
M  V30 4667 O 435.391 1.57595 -1.16027 0
M  V30 4668 C 435.69 -1.0727 -3.40922 0
M  V30 4669 C 435.356 -2.53792 -3.72693 0
M  V30 4670 C 434.018 -2.93829 -3.81075 0
M  V30 4671 C 436.37 -3.48674 -3.87397 0
M  V30 4672 C 433.698 -4.27696 -4.01613 0
M  V30 4673 C 436.05 -4.82223 -4.09444 0
M  V30 4674 C 434.714 -5.21973 -4.16054 0
M  V30 4675 H 433.984 -0.255367 -0.695607 0
M  V30 4676 H 436.631 -1.27111 -1.43231 0
M  V30 4677 H 434.936 -0.417799 -3.89566 0
M  V30 4678 H 436.633 -0.807818 -3.92779 0
M  V30 4679 H 433.223 -2.21768 -3.66765 0
M  V30 4680 H 437.407 -3.18904 -3.80281 0
M  V30 4681 H 432.663 -4.58055 -4.04964 0
M  V30 4682 H 436.837 -5.55672 -4.19763 0
M  V30 4683 H 434.464 -6.25717 -4.31721 0
M  V30 4684 N 436.039 1.36541 -0.78704 0
M  V30 4685 C 437.455 1.52571 -0.46844 0
M  V30 4686 C 437.655 1.7415 1.01361 0
M  V30 4687 O 436.711 1.77163 1.79915 0
M  V30 4688 C 438.024 2.71299 -1.29682 0
M  V30 4689 C 439.572 2.85169 -1.29027 0
M  V30 4690 C 440.047 4.06898 -2.10233 0
M  V30 4691 N 441.538 4.1404 -2.07666 0
M  V30 4692 C 442.273 5.07301 -2.67271 0
M  V30 4693 N 441.769 6.06021 -3.35724 0
M  V30 4694 N 443.562 4.99898 -2.57018 0
M  V30 4695 H 435.713 1.20788 -1.74711 0
M  V30 4696 H 437.976 0.589364 -0.742532 0
M  V30 4697 H 437.682 2.61868 -2.34773 0
M  V30 4698 H 437.556 3.6539 -0.936479 0
M  V30 4699 H 439.943 2.94062 -0.247284 0
M  V30 4700 H 440.024 1.91992 -1.69035 0
M  V30 4701 H 439.668 3.98766 -3.1456 0
M  V30 4702 H 439.598 4.99218 -1.67597 0
M  V30 4703 H 442.089 3.43357 -1.57843 0
M  V30 4704 H 442.402 6.73741 -3.78541 0
M  V30 4705 H 440.747 6.06253 -3.39826 0
M  V30 4706 H 443.938 4.21724 -2.03142 0
M  V30 4707 H 444.111 5.72392 -3.03761 0
M  V30 4708 N 437.518 0.538854 1.48102 0
M  V30 4709 C 438.743 0.0102694 2.07397 0
M  V30 4710 C 439.168 -1.26562 1.39153 0
M  V30 4711 O 438.526 -1.75357 0.460387 0
M  V30 4712 C 438.574 -0.187602 3.60112 0
M  V30 4713 O 437.678 -1.25432 3.92862 0
M  V30 4714 H 437.019 0.0430975 0.6626 0
M  V30 4715 H 439.549 0.749301 1.90385 0
M  V30 4716 H 439.559 -0.407517 4.0596 0
M  V30 4717 H 438.234 0.744386 4.09184 0
M  V30 4718 H 436.811 -1.01636 3.58782 0
M  V30 4719 N 438.996 -1.55193 0.274407 0
M  V30 4720 C 440.407 -1.85358 -0.223488 0
M  V30 4721 C 440.758 -1.19642 -1.555 0
M  V30 4722 O 439.883 -0.484498 -2.10907 0
M  V30 4723 C 440.478 -3.36282 -0.412285 0
M  V30 4724 C 439.037 -3.66574 -0.854413 0
M  V30 4725 C 438.184 -2.7725 0.0527056 0
M  V30 4726 H 441.135 -1.50743 0.496215 0
M  V30 4727 H 441.156 -3.59349 -1.25094 0
M  V30 4728 H 440.668 -3.84083 0.556965 0
M  V30 4729 H 438.769 -3.24273 -1.83516 0
M  V30 4730 H 438.882 -4.74073 -0.692226 0
M  V30 4731 H 437.246 -2.50447 -0.463484 0
M  V30 4732 H 438.029 -3.27865 1.01783 0
M  V30 4733 N 440.474 -0.00167713 -1.576 0
M  V30 4734 C 441.421 0.989195 -2.08527 0
M  V30 4735 C 442.391 1.34031 -0.981065 0
M  V30 4736 O 443.576 1.43839 -1.2536 0
M  V30 4737 C 440.716 2.27537 -2.59463 0
M  V30 4738 C 439.829 1.98314 -3.83791 0
M  V30 4739 C 438.964 3.21025 -4.23222 0
M  V30 4740 C 438.003 2.87495 -5.40382 0
M  V30 4741 N 437.14 4.02749 -5.75098 0
M  V30 4742 H 441.98 0.547973 -2.92919 0
M  V30 4743 H 439.517 0.258917 -1.44803 0
M  V30 4744 H 441.475 3.02729 -2.87073 0
M  V30 4745 H 440.105 2.69325 -1.77943 0
M  V30 4746 H 439.157 1.13482 -3.63078 0
M  V30 4747 H 440.469 1.69601 -4.69081 0
M  V30 4748 H 439.623 4.04561 -4.52123 0
M  V30 4749 H 438.362 3.52877 -3.36644 0
M  V30 4750 H 437.367 2.02367 -5.11202 0
M  V30 4751 H 438.592 2.56889 -6.28637 0
M  V30 4752 H 436.538 4.34494 -4.91478 0
M  V30 4753 H 436.455 3.77566 -6.54966 0
M  V30 4754 H 437.723 4.87068 -6.08592 0
M  V30 4755 N 441.952 1.55251 0.271103 0
M  V30 4756 C 442.862 1.9136 1.35714 0
M  V30 4757 C 443.878 0.811075 1.5394 0
M  V30 4758 O 445.054 1.11031 1.6803 0
M  V30 4759 C 442.119 2.1798 2.69603 0
M  V30 4760 C 441.18 3.4153 2.60107 0
M  V30 4761 C 440.413 3.66871 3.8761 0
M  V30 4762 O 440.636 2.94689 4.8838 0
M  V30 4763 O 439.57 4.60405 3.87699 0
M  V30 4764 H 443.396 2.83815 1.08088 0
M  V30 4765 H 440.981 1.41821 0.469792 0
M  V30 4766 H 442.863 2.36518 3.48765 0
M  V30 4767 H 441.538 1.28708 2.97012 0
M  V30 4768 H 440.445 3.28325 1.79314 0
M  V30 4769 H 441.778 4.31027 2.37647 0
M  V30 4770 N 443.43 -0.535701 1.48216 0
M  V30 4771 C 444.378 -1.66179 1.62749 0
M  V30 4772 C 445.372 -1.62034 0.49409 0
M  V30 4773 O 446.578 -1.6696 0.672624 0
M  V30 4774 H 442.953 -0.550244 0.512578 0
M  V30 4775 H 444.924 -1.51063 2.57337 0
M  V30 4776 C 443.673 -3.04471 1.67907 0
M  V30 4777 H 442.996 -3.08351 2.54479 0
M  V30 4778 H 444.436 -3.82894 1.82121 0
M  V30 4779 C 442.895 -3.34314 0.416596 0
M  V30 4780 O 443.425 -3.98905 -0.473014 0
M  V30 4781 N 441.631 -2.89149 0.290038 0
M  V30 4782 H 441.178 -2.36764 1.01493 0
M  V30 4783 H 441.136 -3.09486 -0.55367 0
M  V30 4784 N 444.908 -1.36708 -0.784132 0
M  V30 4785 C 446.185 -1.21776 -1.53069 0
M  V30 4786 C 446.565 0.193876 -2.10208 0
M  V30 4787 O 445.913 1.20012 -1.94446 0
M  V30 4788 C 446.123 -2.30395 -2.62143 0
M  V30 4789 C 447.471 -2.67325 -3.29882 0
M  V30 4790 O 448.495 -2.29478 -2.7243 0
M  V30 4791 O 447.354 -3.32485 -4.33724 0
M  V30 4792 H 444.448 -0.474459 -0.677361 0
M  V30 4793 H 446.994 -1.48454 -0.82216 0
M  V30 4794 H 445.766 -3.2498 -2.17953 0
M  V30 4795 H 445.389 -2.05112 -3.40609 0
M  V30 4796 N 446.386 1.0089 -1.21074 0
M  V30 4797 C 447.611 1.78727 -1.05221 0
M  V30 4798 C 448.036 1.83932 0.393795 0
M  V30 4799 O 447.394 1.28004 1.28393 0
M  V30 4800 C 447.442 3.20665 -1.64944 0
M  V30 4801 O 446.546 4.02632 -0.892273 0
M  V30 4802 H 445.887 0.550973 -0.370574 0
M  V30 4803 H 448.417 1.26847 -1.60534 0
M  V30 4804 H 448.427 3.71352 -1.69002 0
M  V30 4805 H 447.102 3.16191 -2.70177 0
M  V30 4806 H 445.679 3.61207 -0.926492 0
M  V30 4807 N 447.864 1.01787 1.20321 0
M  V30 4808 C 449.112 0.706538 1.89347 0
M  V30 4809 C 449.433 -0.766289 1.79313 0
M  V30 4810 O 448.703 -1.55126 1.19635 0
M  V30 4811 H 447.283 0.258348 0.700903 0
M  V30 4812 H 449.945 1.28974 1.46122 0
M  V30 4813 H 449.041 0.991066 2.95946 0
M  V30 4814 N 449.342 -1.36122 0.79427 0
M  V30 4815 C 450.588 -1.99406 0.369452 0
M  V30 4816 C 450.921 -1.62886 -1.05743 0
M  V30 4817 O 450.196 -0.886053 -1.73145 0
M  V30 4818 C 450.479 -3.56046 0.538833 0
M  V30 4819 C 450.332 -4.02404 2.00976 0
M  V30 4820 C 451.651 -4.40079 -0.0431359 0
M  V30 4821 H 448.77 -0.724397 0.135712 0
M  V30 4822 H 451.412 -1.61461 1.00151 0
M  V30 4823 H 449.562 -3.885 0.000771004 0
M  V30 4824 H 451.234 -3.80415 2.60926 0
M  V30 4825 H 449.477 -3.53765 2.51063 0
M  V30 4826 H 450.148 -5.11344 2.07922 0
M  V30 4827 H 452.624 -4.14013 0.416228 0
M  V30 4828 H 451.5 -5.48799 0.105374 0
M  V30 4829 H 451.761 -4.27264 -1.13571 0
M  V30 4830 N 450.82 -0.546701 -1.47814 0
M  V30 4831 C 452.097 0.0464413 -1.95545 0
M  V30 4832 C 452.477 1.4962 -1.48919 0
M  V30 4833 O 451.825 2.16752 -0.723232 0
M  V30 4834 C 452.035 -0.0881298 -3.48889 0
M  V30 4835 C 453.383 0.0626059 -4.24554 0
M  V30 4836 O 454.407 -0.0151555 -3.56197 0
M  V30 4837 O 453.266 0.228071 -5.46024 0
M  V30 4838 H 450.36 0.0700004 -0.824032 0
M  V30 4839 H 452.906 -0.612482 -1.58262 0
M  V30 4840 H 451.678 -1.09737 -3.75597 0
M  V30 4841 H 451.301 0.608886 -3.9291 0
M  V30 4842 N 452.299 1.55045 -0.282633 0
M  V30 4843 C 453.545 2.00056 0.332481 0
M  V30 4844 C 453.878 1.1708 1.54939 0
M  V30 4845 O 453.153 0.2427 1.9298 0
M  V30 4846 C 453.436 3.53086 0.70725 0
M  V30 4847 C 453.289 4.46813 -0.517521 0
M  V30 4848 C 454.608 4.12245 1.54084 0
M  V30 4849 H 451.727 0.727268 0.119373 0
M  V30 4850 H 454.369 1.85932 -0.391076 0
M  V30 4851 H 452.519 3.65253 1.32372 0
M  V30 4852 H 454.191 4.46579 -1.15607 0
M  V30 4853 H 452.434 4.18163 -1.1542 0
M  V30 4854 H 453.105 5.51595 -0.211426 0
M  V30 4855 H 455.581 4.03401 1.02013 0
M  V30 4856 H 454.457 5.19515 1.77186 0
M  V30 4857 H 454.718 3.62951 2.52427 0
M  V30 4858 N 453.777 0.010035 1.57597 0
M  V30 4859 C 455.007 -0.682422 1.95004 0
M  V30 4860 C 455.415 -1.67278 0.884014 0
M  V30 4861 O 454.758 -1.83129 -0.144672 0
M  V30 4862 C 454.82 -1.46141 3.28456 0
M  V30 4863 C 454.484 -0.631523 4.52615 0
M  V30 4864 C 455.481 0.0850905 5.1983 0
M  V30 4865 C 453.166 -0.574539 4.99003 0
M  V30 4866 C 455.16 0.847566 6.3174 0
M  V30 4867 C 452.847 0.191655 6.10799 0
M  V30 4868 C 453.845 0.901432 6.77025 0
M  V30 4869 O 453.533 1.65511 7.86677 0
M  V30 4870 H 453.265 -0.194361 0.647456 0
M  V30 4871 H 455.819 0.060312 2.05311 0
M  V30 4872 H 454.049 -2.24885 3.14585 0
M  V30 4873 H 455.738 -2.04016 3.50902 0
M  V30 4874 H 456.504 0.0502812 4.84974 0
M  V30 4875 H 452.383 -1.11654 4.47274 0
M  V30 4876 H 455.927 1.4021 6.83364 0
M  V30 4877 H 451.824 0.228249 6.45096 0
M  V30 4878 H 452.592 1.57287 8.03245 0
M  V30 4879 N 455.255 -1.55392 -0.262866 0
M  V30 4880 C 456.485 -1.80251 -1.00961 0
M  V30 4881 C 456.893 -0.58117 -1.80053 0
M  V30 4882 O 456.236 0.459427 -1.77862 0
M  V30 4883 C 456.298 -2.98207 -2.00781 0
M  V30 4884 C 455.962 -4.34856 -1.40533 0
M  V30 4885 C 456.959 -5.13459 -0.815853 0
M  V30 4886 C 454.644 -4.8153 -1.42948 0
M  V30 4887 C 456.638 -6.36875 -0.258562 0
M  V30 4888 C 454.325 -6.04899 -0.868334 0
M  V30 4889 C 455.323 -6.8241 -0.283884 0
M  V30 4890 O 455.011 -8.03451 0.268644 0
M  V30 4891 H 454.743 -0.604049 -0.303482 0
M  V30 4892 H 457.297 -2.03257 -0.295926 0
M  V30 4893 H 455.527 -2.70917 -2.75936 0
M  V30 4894 H 457.216 -3.10299 -2.61667 0
M  V30 4895 H 457.982 -4.78526 -0.789812 0
M  V30 4896 H 453.861 -4.21201 -1.87378 0
M  V30 4897 H 457.405 -6.97318 0.198257 0
M  V30 4898 H 453.302 -6.39312 -0.891649 0
M  V30 4899 H 454.07 -8.18346 0.158974 0
M  V30 4900 N 456.733 0.527833 -1.48498 0
M  V30 4901 C 457.696 1.61439 -1.62696 0
M  V30 4902 C 458.696 1.52824 -0.500136 0
M  V30 4903 O 459.886 1.56456 -0.765976 0
M  V30 4904 C 457.018 3.01063 -1.59918 0
M  V30 4905 H 458.211 1.50189 -2.59583 0
M  V30 4906 H 455.764 0.750055 -1.37127 0
M  V30 4907 H 456.499 3.17818 -0.645163 0
M  V30 4908 H 456.284 3.08725 -2.41726 0
M  V30 4909 H 457.774 3.80057 -1.73051 0
M  V30 4910 N 458.211 1.37122 0.776871 0
M  V30 4911 C 459.457 1.32243 1.53752 0
M  V30 4912 C 459.79 -0.0944745 1.9397 0
M  V30 4913 O 459.065 -1.05068 1.6368 0
M  V30 4914 C 459.348 2.25681 2.80607 0
M  V30 4915 C 459.201 3.76127 2.46676 0
M  V30 4916 C 460.52 2.17657 3.82509 0
M  V30 4917 H 457.639 0.481704 0.557791 0
M  V30 4918 H 460.281 1.6778 0.891612 0
M  V30 4919 H 458.431 1.95505 3.35723 0
M  V30 4920 H 460.103 4.16877 1.97513 0
M  V30 4921 H 458.346 3.94946 1.79443 0
M  V30 4922 H 459.017 4.36933 3.37333 0
M  V30 4923 H 461.493 2.44245 3.36873 0
M  V30 4924 H 460.369 2.85185 4.69 0
M  V30 4925 H 460.63 1.16785 4.26396 0
M  V30 4926 N 459.689 -1.00246 1.21608 0
M  V30 4927 C 460.917 -1.77631 1.06089 0
M  V30 4928 C 461.332 -1.84746 -0.38916 0
M  V30 4929 O 460.689 -1.31068 -1.26994 0
M  V30 4930 C 460.74 -3.21415 1.65453 0
M  V30 4931 O 460.461 -3.14703 3.04785 0
M  V30 4932 C 461.962 -4.15289 1.55079 0
M  V30 4933 H 459.182 -0.558162 0.37242 0
M  V30 4934 H 461.726 -1.26093 1.60999 0
M  V30 4935 H 459.881 -3.70053 1.14629 0
M  V30 4936 H 460.295 -4.05056 3.33212 0
M  V30 4937 H 461.769 -5.13965 2.01355 0
M  V30 4938 H 462.246 -4.36279 0.505665 0
M  V30 4939 H 462.852 -3.72543 2.05163 0
M  V30 4940 N 461.167 -1.02423 -1.1978 0
M  V30 4941 C 462.414 -0.717988 -1.89344 0
M  V30 4942 C 462.742 0.753036 -1.79331 0
M  V30 4943 O 461.997 1.56355 -1.17692 0
M  V30 4944 C 462.296 -1.1088 -3.39765 0
M  V30 4945 C 461.962 -2.57731 -3.6998 0
M  V30 4946 C 460.624 -2.97854 -3.77937 0
M  V30 4947 C 462.976 -3.52763 -3.83677 0
M  V30 4948 C 460.304 -4.31931 -3.97054 0
M  V30 4949 C 462.656 -4.86538 -4.04306 0
M  V30 4950 C 461.32 -5.26356 -4.10494 0
M  V30 4951 H 460.59 -0.26273 -0.692859 0
M  V30 4952 H 463.237 -1.28623 -1.41875 0
M  V30 4953 H 461.542 -0.459094 -3.89101 0
M  V30 4954 H 463.239 -0.849432 -3.919 0
M  V30 4955 H 459.829 -2.25646 -3.64393 0
M  V30 4956 H 464.013 -3.2292 -3.76877 0
M  V30 4957 H 459.269 -4.62324 -4.00083 0
M  V30 4958 H 463.443 -5.60093 -4.13846 0
M  V30 4959 H 461.07 -6.3026 -4.2506 0
M  V30 4960 N 462.645 1.35699 -0.801477 0
M  V30 4961 C 463.593 2.3177 -0.196317 0
M  V30 4962 C 464.587 1.56388 0.651081 0
M  V30 4963 O 465.793 1.71557 0.544815 0
M  V30 4964 H 462.168 0.750669 -0.0447189 0
M  V30 4965 H 464.139 2.8036 -1.02181 0
M  V30 4966 C 462.888 3.41671 0.644702 0
M  V30 4967 H 462.211 3.998 0.0019921 0
M  V30 4968 H 463.651 4.11184 1.0346 0
M  V30 4969 C 462.11 2.84271 1.80808 0
M  V30 4970 O 462.64 2.77408 2.9053 0
M  V30 4971 N 460.846 2.41391 1.61799 0
M  V30 4972 H 460.393 2.47173 0.725493 0
M  V30 4973 H 460.351 2.03334 2.39797 0
M  V30 4974 N 464.123 0.554532 1.47522 0
M  V30 4975 C 465.371 0.0294208 2.02079 0
M  V30 4976 C 465.692 -1.32411 1.43151 0
M  V30 4977 O 464.962 -1.863 0.605728 0
M  V30 4978 H 463.542 0.00788672 0.746958 0
M  V30 4979 H 466.204 0.723934 1.80956 0
M  V30 4980 H 465.3 -0.0606745 3.12041 0
M  V30 4981 N 465.601 -1.54893 0.290851 0
M  V30 4982 C 466.511 -2.26812 -0.59945 0
M  V30 4983 C 467.527 -1.29963 -1.15696 0
M  V30 4984 O 468.703 -1.62928 -1.18391 0
M  V30 4985 C 465.768 -2.98716 -1.75982 0
M  V30 4986 C 464.829 -4.1108 -1.2374 0
M  V30 4987 C 464.062 -4.79546 -2.34246 0
M  V30 4988 O 464.285 -4.47309 -3.53936 0
M  V30 4989 O 463.219 -5.67165 -2.01512 0
M  V30 4990 H 467.045 -3.03696 -0.0163561 0
M  V30 4991 H 464.63 -1.49289 0.0576755 0
M  V30 4992 H 466.512 -3.43851 -2.43607 0
M  V30 4993 H 465.187 -2.24737 -2.3297 0
M  V30 4994 H 464.094 -3.70367 -0.527163 0
M  V30 4995 H 465.427 -4.87007 -0.71307 0
M  V30 4996 N 467.08 -0.0183926 -1.57589 0
M  V30 4997 C 468.043 0.951986 -2.08494 0
M  V30 4998 C 469.043 1.26092 -0.997874 0
M  V30 4999 O 470.233 1.20304 -1.25987 0
M  V30 5000 C 467.365 2.27165 -2.54182 0
M  V30 5001 H 468.558 0.511307 -2.95509 0
M  V30 5002 H 466.111 0.229444 -1.54607 0
M  V30 5003 H 466.846 2.75884 -1.70465 0
M  V30 5004 H 466.631 2.06057 -3.33591 0
M  V30 5005 H 468.121 2.9674 -2.93828 0
M  V30 5006 N 468.558 1.5553 0.254621 0
M  V30 5007 C 469.807 1.76202 0.981612 0
M  V30 5008 C 470.12 0.580883 1.86776 0
M  V30 5009 O 471.326 0.670448 2.63092 0
M  V30 5010 C 469.782 3.11921 1.79537 0
M  V30 5011 C 469.39 4.37659 0.956991 0
M  V30 5012 C 471.134 3.41936 2.51555 0
M  V30 5013 C 469.041 5.64411 1.76619 0
M  V30 5014 H 467.971 0.656841 0.370237 0
M  V30 5015 H 470.622 1.81969 0.236556 0
M  V30 5016 H 469.004 3.00241 2.58208 0
M  V30 5017 H 470.178 4.60307 0.21315 0
M  V30 5018 H 468.493 4.14922 0.350497 0
M  V30 5019 H 471.09 4.33849 3.12536 0
M  V30 5020 H 471.433 2.62905 3.22779 0
M  V30 5021 H 471.966 3.54797 1.799 0
M  V30 5022 H 468.705 6.46241 1.09783 0
M  V30 5023 H 468.225 5.45877 2.48551 0
M  V30 5024 H 469.904 6.03386 2.33527 0
M  V30 5025 N 470.036 -0.519951 1.48776 0
M  V30 5026 C 471.261 -1.30447 1.6124 0
M  V30 5027 C 471.686 -1.86055 0.276591 0
M  V30 5028 O 471.044 -1.64915 -0.753183 0
M  V30 5029 C 471.092 -2.42406 2.66967 0
M  V30 5030 O 470.196 -3.45728 2.24824 0
M  V30 5031 H 469.537 -0.385924 0.540332 0
M  V30 5032 H 472.067 -0.624572 1.94834 0
M  V30 5033 H 472.077 -2.88447 2.88552 0
M  V30 5034 H 470.752 -2.01294 3.63941 0
M  V30 5035 H 469.329 -3.05737 2.13494 0
M  V30 5036 N 471.514 -1.37532 -0.769588 0
M  V30 5037 C 472.462 -1.33561 -1.90432 0
M  V30 5038 C 473.456 -0.224027 -1.67912 0
M  V30 5039 O 474.662 -0.392174 -1.75676 0
M  V30 5040 H 471.037 -0.416279 -0.626271 0
M  V30 5041 H 473.008 -2.29348 -1.90899 0
M  V30 5042 C 471.757 -1.16162 -3.27722 0
M  V30 5043 H 471.08 -2.00951 -3.45628 0
M  V30 5044 H 472.52 -1.17434 -4.07413 0
M  V30 5045 C 470.979 0.132583 -3.36639 0
M  V30 5046 O 471.509 1.11539 -3.85904 0
M  V30 5047 N 469.715 0.184013 -2.90017 0
M  V30 5048 H 469.262 -0.616415 -2.50116 0
M  V30 5049 H 469.22 1.04956 -2.96364 0
M  V30 5050 N 472.992 0.995999 -1.22138 0
M  V30 5051 C 474.22 1.77066 -1.07029 0
M  V30 5052 C 474.635 1.8495 0.379357 0
M  V30 5053 O 473.992 1.3174 1.26297 0
M  V30 5054 C 474.043 3.20533 -1.67155 0
M  V30 5055 O 473.764 3.13082 -3.06449 0
M  V30 5056 C 475.265 4.14461 -1.5728 0
M  V30 5057 H 472.485 0.556179 -0.375374 0
M  V30 5058 H 475.029 1.25238 -1.61666 0
M  V30 5059 H 473.184 3.6944 -1.16589 0
M  V30 5060 H 473.598 4.03283 -3.35355 0
M  V30 5061 H 475.072 5.1289 -2.04078 0
M  V30 5062 H 475.549 4.36005 -0.528795 0
M  V30 5063 H 476.155 3.71449 -2.07136 0
M  V30 5064 N 474.47 1.03057 1.19235 0
M  V30 5065 C 475.698 0.747697 1.92917 0
M  V30 5066 C 476.113 -0.69372 1.75593 0
M  V30 5067 O 475.47 -1.47191 1.07894 0
M  V30 5068 C 475.521 1.09159 3.44625 0
M  V30 5069 O 475.242 2.47641 3.61394 0
M  V30 5070 C 476.743 0.831763 4.35427 0
M  V30 5071 H 473.963 0.273453 0.612751 0
M  V30 5072 H 476.507 1.37552 1.51327 0
M  V30 5073 H 474.662 0.508919 3.84043 0
M  V30 5074 H 475.076 2.60499 4.55237 0
M  V30 5075 H 476.55 1.12233 5.4047 0
M  V30 5076 H 477.027 -0.233769 4.38577 0
M  V30 5077 H 477.633 1.39725 4.01693 0
M  V30 5078 N 475.948 -1.35272 0.808662 0
M  V30 5079 C 477.194 -1.99434 0.399717 0
M  V30 5080 C 477.549 -1.62992 -1.02232 0
M  V30 5081 O 476.842 -0.884091 -1.69983 0
M  V30 5082 C 477.036 -3.53556 0.522798 0
M  V30 5083 C 476.865 -4.04969 1.95525 0
M  V30 5084 C 475.635 -4.34228 2.58407 0
M  V30 5085 C 477.833 -4.23362 2.92009 0
M  V30 5086 N 475.815 -4.71585 3.93041 0
M  V30 5087 C 477.186 -4.63739 4.11517 0
M  V30 5088 C 479.241 -4.05576 2.88813 0
M  V30 5089 C 477.944 -4.88189 5.28265 0
M  V30 5090 C 479.97 -4.31184 4.04765 0
M  V30 5091 C 479.332 -4.71834 5.23022 0
M  V30 5092 H 475.431 -0.757534 0.19408 0
M  V30 5093 H 478.015 -1.63939 1.05034 0
M  V30 5094 H 476.186 -3.88277 -0.0978471 0
M  V30 5095 H 477.918 -4.04604 0.0882378 0
M  V30 5096 H 474.673 -4.24621 2.09747 0
M  V30 5097 H 475.097 -4.9452 4.62363 0
M  V30 5098 H 479.739 -3.73288 1.98535 0
M  V30 5099 H 477.457 -5.1935 6.19113 0
M  V30 5100 H 481.043 -4.18972 4.03675 0
M  V30 5101 H 479.923 -4.91263 6.11253 0
M  V30 5102 N 477.426 -0.562348 -1.47226 0
M  V30 5103 C 478.703 0.0256985 -1.95583 0
M  V30 5104 C 479.083 1.48032 -1.50498 0
M  V30 5105 O 478.431 2.15973 -0.746181 0
M  V30 5106 C 478.641 -0.125129 -3.48776 0
M  V30 5107 C 479.989 0.0175728 -4.24596 0
M  V30 5108 O 481.013 -0.0529341 -3.56161 0
M  V30 5109 O 479.872 0.170145 -5.46235 0
M  V30 5110 H 476.966 0.0612565 -0.824728 0
M  V30 5111 H 479.512 -0.629233 -1.57603 0
M  V30 5112 H 478.284 -1.13715 -3.74412 0
M  V30 5113 H 477.907 0.567178 -3.93534 0
M  V30 5114 N 478.904 1.54736 -0.299062 0
M  V30 5115 C 479.834 2.26409 0.571085 0
M  V30 5116 C 480.815 1.2629 1.13951 0
M  V30 5117 O 482 1.55059 1.16921 0
M  V30 5118 C 479.13 3.00338 1.74396 0
M  V30 5119 C 478.084 4.07588 1.30599 0
M  V30 5120 C 477.41 4.69222 2.56387 0
M  V30 5121 C 478.71 5.20455 0.438645 0
M  V30 5122 H 480.404 2.99388 -0.0266991 0
M  V30 5123 H 477.95 1.43993 -0.0142812 0
M  V30 5124 H 479.903 3.49198 2.35878 0
M  V30 5125 H 478.627 2.24934 2.36796 0
M  V30 5126 H 477.286 3.59575 0.71424 0
M  V30 5127 H 476.934 3.9046 3.17097 0
M  V30 5128 H 476.634 5.41653 2.27784 0
M  V30 5129 H 478.158 5.20844 3.18675 0
M  V30 5130 H 479.572 5.65221 0.959085 0
M  V30 5131 H 477.969 5.99594 0.246466 0
M  V30 5132 H 479.039 4.8192 -0.536738 0
M  V30 5133 N 480.382 0.0267497 1.57577 0
M  V30 5134 C 481.631 -0.651736 1.9088 0
M  V30 5135 C 481.944 -1.73427 0.904576 0
M  V30 5136 O 483.15 -2.46923 1.12877 0
M  V30 5137 C 481.606 -1.21048 3.38933 0
M  V30 5138 C 481.214 -0.161362 4.47709 0
M  V30 5139 C 482.958 -1.86562 3.81307 0
M  V30 5140 C 480.865 -0.731611 5.86857 0
M  V30 5141 H 479.795 -0.247198 0.712326 0
M  V30 5142 H 482.446 0.0916641 1.83271 0
M  V30 5143 H 480.828 -2.00542 3.41466 0
M  V30 5144 H 482.002 0.61094 4.56732 0
M  V30 5145 H 480.317 0.394877 4.14523 0
M  V30 5146 H 482.914 -2.30178 4.8262 0
M  V30 5147 H 483.257 -2.70735 3.16241 0
M  V30 5148 H 483.79 -1.13762 3.81186 0
M  V30 5149 H 480.529 0.0719329 6.55461 0
M  V30 5150 H 480.049 -1.47245 5.81445 0
M  V30 5151 H 481.728 -1.22208 6.35354 0
M  V30 5152 N 481.861 -1.55662 -0.24637 0
M  V30 5153 C 483.086 -1.81914 -0.996093 0
M  V30 5154 C 483.511 -0.603875 -1.78143 0
M  V30 5155 O 482.869 0.447091 -1.75701 0
M  V30 5156 C 482.917 -3.05908 -1.90925 0
M  V30 5157 O 482.021 -2.82861 -3.00105 0
M  V30 5158 H 481.362 -0.600481 -0.283406 0
M  V30 5159 H 483.892 -2.02848 -0.267199 0
M  V30 5160 H 483.902 -3.35356 -2.3238 0
M  V30 5161 H 482.577 -3.93999 -1.33183 0
M  V30 5162 H 481.154 -2.64583 -2.62775 0
M  V30 5163 N 483.339 0.512053 -1.4905 0
M  V30 5164 C 484.269 1.62365 -1.67809 0
M  V30 5165 C 485.25 1.61737 -0.526809 0
M  V30 5166 O 486.435 1.78651 -0.761404 0
M  V30 5167 C 483.565 3.00895 -1.73435 0
M  V30 5168 C 482.519 3.16387 -2.88242 0
M  V30 5169 C 481.845 4.56157 -2.78971 0
M  V30 5170 C 483.145 2.97457 -4.29321 0
M  V30 5171 H 484.839 1.46921 -2.60873 0
M  V30 5172 H 482.385 0.705379 -1.2554 0
M  V30 5173 H 484.338 3.78549 -1.85145 0
M  V30 5174 H 483.062 3.17403 -0.769619 0
M  V30 5175 H 481.721 2.41155 -2.76116 0
M  V30 5176 H 481.369 4.69525 -1.8043 0
M  V30 5177 H 481.069 4.67465 -3.5602 0
M  V30 5178 H 482.593 5.35886 -2.92675 0
M  V30 5179 H 484.007 3.64888 -4.42187 0
M  V30 5180 H 482.404 3.20245 -5.07507 0
M  V30 5181 H 483.474 1.93692 -4.44535 0
M  V30 5182 N 484.817 1.37938 0.762283 0
M  V30 5183 C 485.767 1.30976 1.86626 0
M  V30 5184 C 486.751 0.195714 1.59705 0
M  V30 5185 O 487.943 0.430937 1.71674 0
M  V30 5186 C 485.072 1.12847 3.24223 0
M  V30 5187 C 484.158 2.28836 3.57064 0
M  V30 5188 N 484.549 3.54256 3.61022 0
M  V30 5189 C 482.847 2.21198 3.87282 0
M  V30 5190 C 483.548 4.30798 3.90881 0
M  V30 5191 N 482.524 3.60049 4.07266 0
M  V30 5192 H 486.326 2.25946 1.87951 0
M  V30 5193 H 483.84 1.31046 0.959206 0
M  V30 5194 H 485.837 1.05943 4.03214 0
M  V30 5195 H 484.497 0.188024 3.24155 0
M  V30 5196 H 485.508 3.8804 3.42995 0
M  V30 5197 H 482.185 1.35264 3.94981 0
M  V30 5198 H 483.575 5.39386 4.00639 0
M  V30 5199 N 486.295 -0.989507 1.22664 0
M  V30 5200 C 487.52 -1.77031 1.08051 0
M  V30 5201 C 487.945 -1.84535 -0.364483 0
M  V30 5202 O 487.303 -1.3003 -1.2634 0
M  V30 5203 C 487.351 -3.18 1.70024 0
M  V30 5204 O 486.455 -4.01161 0.956216 0
M  V30 5205 H 485.796 -0.545008 0.379292 0
M  V30 5206 H 488.326 -1.24277 1.62531 0
M  V30 5207 H 488.336 -3.68616 1.74888 0
M  V30 5208 H 487.011 -3.11853 2.75174 0
M  V30 5209 H 485.588 -3.59687 0.98384 0
M  V30 5210 N 487.773 -1.03688 -1.18687 0
M  V30 5211 C 488.721 -0.618292 -2.24232 0
M  V30 5212 C 489.715 0.353045 -1.6568 0
M  V30 5213 O 490.921 0.220749 -1.78641 0
M  V30 5214 H 487.296 -0.181711 -0.729716 0
M  V30 5215 H 489.267 -1.51893 -2.56848 0
M  V30 5216 C 488.016 0.00677342 -3.47699 0
M  V30 5217 H 487.339 -0.731692 -3.93047 0
M  V30 5218 H 488.779 0.262492 -4.23187 0
M  V30 5219 C 487.238 1.25572 -3.12623 0
M  V30 5220 O 487.768 2.34691 -3.26011 0
M  V30 5221 N 485.974 1.14755 -2.66982 0
M  V30 5222 H 485.521 0.259601 -2.56289 0
M  V30 5223 H 485.479 1.98412 -2.43885 0
M  V30 5224 N 489.251 1.34841 -0.815825 0
M  V30 5225 C 490.198 2.29644 -0.230664 0
M  V30 5226 C 491.168 1.53253 0.640533 0
M  V30 5227 O 492.353 1.81653 0.583672 0
M  V30 5228 C 489.493 3.39715 0.607275 0
M  V30 5229 C 488.606 4.31056 -0.28538 0
M  V30 5230 C 487.741 5.28225 0.561446 0
M  V30 5231 C 486.78 6.11204 -0.331035 0
M  V30 5232 N 485.917 7.00483 0.476302 0
M  V30 5233 H 490.757 2.79095 -1.0445 0
M  V30 5234 H 488.294 1.37351 -0.526595 0
M  V30 5235 H 490.252 4.02208 1.10835 0
M  V30 5236 H 488.882 2.91517 1.38629 0
M  V30 5237 H 487.934 3.69487 -0.904621 0
M  V30 5238 H 489.246 4.89239 -0.97193 0
M  V30 5239 H 488.4 5.96135 1.12728 0
M  V30 5240 H 487.139 4.70562 1.28153 0
M  V30 5241 H 486.144 5.42232 -0.909069 0
M  V30 5242 H 487.369 6.70947 -1.04912 0
M  V30 5243 H 485.315 6.45296 1.18019 0
M  V30 5244 H 485.232 7.55847 -0.152008 0
M  V30 5245 H 486.5 7.7273 1.02512 0
M  V30 5246 N 490.729 0.570148 1.46925 0
M  V30 5247 C 491.975 0.0510284 2.02736 0
M  V30 5248 C 492.308 -1.3006 1.44215 0
M  V30 5249 O 491.583 -1.84932 0.602521 0
M  V30 5250 C 491.866 -0.028215 3.60089 0
M  V30 5251 C 491.719 1.35142 4.29018 0
M  V30 5252 C 493.038 -0.735181 4.33916 0
M  V30 5253 H 490.157 0.0200178 0.736728 0
M  V30 5254 H 492.799 0.73493 1.75211 0
M  V30 5255 H 490.949 -0.610648 3.83671 0
M  V30 5256 H 492.621 1.97806 4.16738 0
M  V30 5257 H 490.864 1.9226 3.88868 0
M  V30 5258 H 491.535 1.24857 5.37694 0
M  V30 5259 H 494.011 -0.240519 4.15404 0
M  V30 5260 H 492.887 -0.759622 5.43618 0
M  V30 5261 H 493.148 -1.79397 4.04066 0
M  V30 5262 N 492.207 -1.54576 0.307264 0
M  V30 5263 C 493.117 -2.27435 -0.57536 0
M  V30 5264 C 494.133 -1.31183 -1.14311 0
M  V30 5265 O 495.309 -1.64175 -1.16656 0
M  V30 5266 C 492.374 -3.00566 -1.72803 0
M  V30 5267 C 491.435 -4.12369 -1.19373 0
M  V30 5268 C 490.668 -4.82003 -2.29147 0
M  V30 5269 O 490.891 -4.51038 -3.49171 0
M  V30 5270 O 489.825 -5.69271 -1.95485 0
M  V30 5271 H 493.651 -3.03696 0.0158558 0
M  V30 5272 H 491.236 -1.49219 0.0735064 0
M  V30 5273 H 493.118 -3.46416 -2.39946 0
M  V30 5274 H 491.793 -2.27195 -2.30574 0
M  V30 5275 H 490.7 -3.70905 -0.487851 0
M  V30 5276 H 492.033 -4.87736 -0.661376 0
M  V30 5277 N 493.685 -0.035106 -1.57561 0
M  V30 5278 C 494.633 0.962707 -2.11742 0
M  V30 5279 C 495.627 1.33296 -1.0454 0
M  V30 5280 O 496.833 1.31449 -1.22968 0
M  V30 5281 H 493.208 0.32826 -0.676572 0
M  V30 5282 H 495.179 0.48048 -2.94506 0
M  V30 5283 C 493.928 2.23388 -2.66445 0
M  V30 5284 H 493.251 1.95774 -3.48587 0
M  V30 5285 H 494.691 2.91402 -3.07995 0
M  V30 5286 C 493.15 2.96769 -1.59467 0
M  V30 5287 O 493.68 3.89105 -0.998 0
M  V30 5288 N 491.886 2.59212 -1.31369 0
M  V30 5289 H 491.433 1.84202 -1.80076 0
M  V30 5290 H 491.391 3.08618 -0.600173 0
M  V30 5291 N 495.163 1.55791 0.238111 0
M  V30 5292 C 496.113 1.87444 1.29803 0
M  V30 5293 C 497.097 0.736043 1.43078 0
M  V30 5294 O 498.289 0.998146 1.46171 0
M  V30 5295 C 495.418 2.18028 2.65177 0
M  V30 5296 C 494.504 3.38217 2.55871 0
M  V30 5297 N 494.895 4.57264 2.16202 0
M  V30 5298 C 493.193 3.41502 2.86866 0
M  V30 5299 C 493.894 5.3941 2.17744 0
M  V30 5300 N 492.87 4.78695 2.57589 0
M  V30 5301 H 496.672 2.7701 0.981965 0
M  V30 5302 H 494.186 1.56135 0.44672 0
M  V30 5303 H 496.183 2.38873 3.4168 0
M  V30 5304 H 494.843 1.29765 2.97643 0
M  V30 5305 H 495.854 4.82727 1.87602 0
M  V30 5306 H 492.531 2.63536 3.23813 0
M  V30 5307 H 493.921 6.44671 1.89339 0
M  V30 5308 N 496.642 -0.504142 1.49319 0
M  V30 5309 C 497.89 -1.25598 1.58334 0
M  V30 5310 C 498.211 -1.93114 0.270538 0
M  V30 5311 O 497.481 -1.82585 -0.709891 0
M  V30 5312 H 496.061 -0.466571 0.58337 0
M  V30 5313 H 498.723 -0.584547 1.85928 0
M  V30 5314 H 497.819 -2.02159 2.37778 0
M  V30 5315 N 498.12 -1.38341 -0.754957 0
M  V30 5316 C 499.05 -1.38176 -1.88227 0
M  V30 5317 C 500.031 -0.247873 -1.68284 0
M  V30 5318 O 501.216 -0.45075 -1.88896 0
M  V30 5319 C 498.346 -1.20471 -3.25736 0
M  V30 5320 C 497.3 -2.3105 -3.60278 0
M  V30 5321 C 496.626 -1.98452 -4.96509 0
M  V30 5322 C 497.926 -3.73305 -3.65295 0
M  V30 5323 H 499.62 -2.32512 -1.88622 0
M  V30 5324 H 497.166 -1.1192 -0.906082 0
M  V30 5325 H 499.119 -1.18982 -4.04254 0
M  V30 5326 H 497.843 -0.225965 -3.25817 0
M  V30 5327 H 496.502 -2.31723 -2.84078 0
M  V30 5328 H 496.15 -0.990641 -4.93148 0
M  V30 5329 H 495.85 -2.7251 -5.20588 0
M  V30 5330 H 497.374 -1.98578 -5.77407 0
M  V30 5331 H 498.788 -3.7467 -4.3393 0
M  V30 5332 H 497.185 -4.46557 -4.00883 0
M  V30 5333 H 498.255 -4.05719 -2.65556 0
M  V30 5334 N 499.598 0.982988 -1.23187 0
M  V30 5335 C 500.844 1.72648 -1.06398 0
M  V30 5336 C 501.177 1.90066 0.398561 0
M  V30 5337 O 500.452 1.45105 1.29518 0
M  V30 5338 C 500.735 3.12627 -1.78707 0
M  V30 5339 C 500.588 3.02795 -3.32618 0
M  V30 5340 C 501.907 4.11997 -1.54747 0
M  V30 5341 H 499.026 0.626649 -0.387918 0
M  V30 5342 H 501.668 1.14455 -1.51658 0
M  V30 5343 H 499.818 3.62308 -1.40234 0
M  V30 5344 H 501.49 2.60659 -3.80598 0
M  V30 5345 H 499.733 2.39362 -3.61785 0
M  V30 5346 H 500.404 4.01893 -3.78399 0
M  V30 5347 H 502.88 3.71114 -1.88186 0
M  V30 5348 H 501.756 5.08037 -2.07821 0
M  V30 5349 H 502.017 4.39462 -0.482249 0
M  V30 5350 N 501.076 1.04316 1.18135 0
M  V30 5351 C 501.986 0.646876 2.25505 0
M  V30 5352 C 503.002 -0.328008 1.7088 0
M  V30 5353 O 504.178 -0.182309 2.00573 0
M  V30 5354 C 501.243 0.0185664 3.46695 0
M  V30 5355 C 500.304 1.04277 4.16443 0
M  V30 5356 C 499.537 0.444352 5.31847 0
M  V30 5357 O 499.76 -0.748735 5.65465 0
M  V30 5358 O 498.694 1.17428 5.90334 0
M  V30 5359 H 502.52 1.54147 2.61672 0
M  V30 5360 H 500.105 0.814188 1.25265 0
M  V30 5361 H 501.987 -0.331068 4.20097 0
M  V30 5362 H 500.662 -0.849814 3.12346 0
M  V30 5363 H 499.569 1.44425 3.45098 0
M  V30 5364 H 500.902 1.882 4.54798 0
M  V30 5365 N 502.554 -1.34406 0.822964 0
M  V30 5366 C 503.484 -2.32052 0.259608 0
M  V30 5367 C 504.465 -1.58243 -0.623961 0
M  V30 5368 O 505.65 -1.86224 -0.55083 0
M  V30 5369 C 502.78 -3.42434 -0.579314 0
M  V30 5370 C 501.734 -4.27499 0.20712 0
M  V30 5371 C 501.06 -5.29349 -0.754547 0
M  V30 5372 C 502.36 -5.02758 1.41533 0
M  V30 5373 H 504.054 -2.79418 1.07545 0
M  V30 5374 H 501.6 -1.34338 0.518593 0
M  V30 5375 H 503.553 -4.0976 -0.983612 0
M  V30 5376 H 502.277 -2.93717 -1.4282 0
M  V30 5377 H 500.936 -3.61776 0.592787 0
M  V30 5378 H 500.584 -4.76895 -1.59939 0
M  V30 5379 H 500.284 -5.8714 -0.232561 0
M  V30 5380 H 501.808 -5.99544 -1.1567 0
M  V30 5381 H 503.222 -5.62938 1.08504 0
M  V30 5382 H 501.619 -5.70123 1.87296 0
M  V30 5383 H 502.689 -4.32451 2.1935 0
M  V30 5384 N 504.032 -0.577932 -1.46621 0
M  V30 5385 C 505.309 0.00495287 -1.95599 0
M  V30 5386 C 505.689 1.46428 -1.5206 0
M  V30 5387 O 505.037 2.1517 -0.769046 0
M  V30 5388 C 505.247 -0.162114 -3.48623 0
M  V30 5389 C 506.595 -0.0274623 -4.24591 0
M  V30 5390 O 507.619 -0.0907067 -3.56084 0
M  V30 5391 O 506.478 0.1122 -5.46385 0
M  V30 5392 H 503.572 0.0525057 -0.825332 0
M  V30 5393 H 506.118 -0.645914 -1.56927 0
M  V30 5394 H 504.89 -1.17679 -3.73185 0
M  V30 5395 H 504.513 0.525407 -3.94113 0
M  V30 5396 N 505.51 1.54411 -0.315457 0
M  V30 5397 C 506.787 1.92562 0.343398 0
M  V30 5398 C 507.167 1.24423 1.70535 0
M  V30 5399 O 506.515 0.385051 2.25232 0
M  V30 5400 C 506.725 3.46168 0.443687 0
M  V30 5401 C 508.073 4.18659 0.707783 0
M  V30 5402 O 509.097 3.52281 0.52693 0
M  V30 5403 O 507.956 5.36198 1.05612 0
M  V30 5404 H 505.05 0.80379 0.194552 0
M  V30 5405 H 507.596 1.65738 -0.364577 0
M  V30 5406 H 506.368 3.8792 -0.513172 0
M  V30 5407 H 505.991 3.79073 1.19956 0
M  V30 5408 N 506.988 0.0434614 1.5754 0
M  V30 5409 C 507.935 -0.93356 2.11077 0
M  V30 5410 C 508.905 -1.31383 1.01626 0
M  V30 5411 O 510.09 -1.40465 1.29129 0
M  V30 5412 C 507.23 -2.20578 2.65404 0
M  V30 5413 C 506.343 -1.88068 3.88914 0
M  V30 5414 C 505.478 -3.09691 4.31584 0
M  V30 5415 C 504.517 -2.73067 5.47815 0
M  V30 5416 N 503.654 -3.87359 5.85574 0
M  V30 5417 H 508.494 -0.470118 2.94268 0
M  V30 5418 H 506.031 -0.220434 1.45439 0
M  V30 5419 H 507.989 -2.95011 2.94999 0
M  V30 5420 H 506.619 -2.64513 1.85021 0
M  V30 5421 H 505.671 -1.03816 3.6596 0
M  V30 5422 H 506.983 -1.57104 4.73413 0
M  V30 5423 H 506.137 -3.92431 4.62691 0
M  V30 5424 H 504.876 -3.43827 3.45882 0
M  V30 5425 H 503.881 -1.88742 5.16388 0
M  V30 5426 H 505.106 -2.40131 6.35227 0
M  V30 5427 H 503.052 -4.21311 5.02825 0
M  V30 5428 H 502.969 -3.60068 6.64746 0
M  V30 5429 H 504.237 -4.70761 6.21292 0
M  V30 5430 N 508.466 -1.55915 -0.229846 0
M  V30 5431 C 509.877 -1.68809 -0.797531 0
M  V30 5432 C 510.228 -0.643995 -1.8533 0
M  V30 5433 O 509.353 0.206492 -2.15413 0
M  V30 5434 C 509.948 -3.06043 -1.45338 0
M  V30 5435 C 508.507 -3.20819 -1.96856 0
M  V30 5436 C 507.654 -2.6472 -0.825736 0
M  V30 5437 H 510.605 -1.58699 -0.00533733 0
M  V30 5438 H 510.626 -3.01438 -2.32196 0
M  V30 5439 H 510.138 -3.82012 -0.684743 0
M  V30 5440 H 508.239 -2.49704 -2.76548 0
M  V30 5441 H 508.352 -4.27937 -2.15423 0
M  V30 5442 H 506.716 -2.22985 -1.23084 0
M  V30 5443 H 507.499 -3.43229 -0.0699019 0
M  V30 5444 N 509.944 0.496216 -1.49584 0
M  V30 5445 C 511.172 1.27394 -1.63029 0
M  V30 5446 C 511.587 1.86344 -0.303569 0
M  V30 5447 O 510.944 1.68057 0.711547 0
M  V30 5448 C 510.995 2.40077 -2.70269 0
M  V30 5449 O 510.716 1.83549 -3.97796 0
M  V30 5450 C 512.217 3.31372 -2.94462 0
M  V30 5451 H 509.437 0.386211 -0.54871 0
M  V30 5452 H 511.981 0.595163 -1.95648 0
M  V30 5453 H 510.136 3.03775 -2.40415 0
M  V30 5454 H 510.55 2.57561 -4.56905 0
M  V30 5455 H 512.024 4.06707 -3.73221 0
M  V30 5456 H 512.501 3.88654 -2.0456 0
M  V30 5457 H 513.107 2.73435 -3.25751 0
M  V30 5458 N 511.423 1.38739 0.74761 0
M  V30 5459 C 512.669 1.35475 1.50912 0
M  V30 5460 C 513.002 -0.0533093 1.94127 0
M  V30 5461 O 512.277 -1.01572 1.65871 0
M  V30 5462 C 512.56 2.31582 2.75757 0
M  V30 5463 C 512.413 3.81274 2.38642 0
M  V30 5464 C 513.732 2.25722 3.77806 0
M  V30 5465 H 510.851 0.493427 0.547447 0
M  V30 5466 H 513.493 1.69634 0.855823 0
M  V30 5467 H 511.643 2.02582 3.31501 0
M  V30 5468 H 513.315 4.20972 1.88626 0
M  V30 5469 H 511.558 3.98664 1.71025 0
M  V30 5470 H 512.229 4.4399 3.27989 0
M  V30 5471 H 514.705 2.51336 3.31616 0
M  V30 5472 H 513.581 2.95069 4.62845 0
M  V30 5473 H 513.842 1.25803 4.23823 0
M  V30 5474 N 512.901 -0.976442 1.23707 0
M  V30 5475 C 514.147 -1.72081 1.07312 0
M  V30 5476 C 514.48 -1.90275 -0.388476 0
M  V30 5477 O 513.755 -1.4579 -1.28746 0
M  V30 5478 C 514.038 -3.11675 1.80363 0
M  V30 5479 C 513.891 -3.01027 3.3422 0
M  V30 5480 C 515.21 -4.1117 1.5693 0
M  V30 5481 H 512.329 -0.624583 0.391236 0
M  V30 5482 H 514.971 -1.13649 1.52263 0
M  V30 5483 H 513.121 -3.61559 1.42153 0
M  V30 5484 H 514.793 -2.58637 3.81975 0
M  V30 5485 H 513.036 -2.3744 3.63049 0
M  V30 5486 H 513.707 -3.9988 3.80525 0
M  V30 5487 H 516.183 -3.7011 1.90151 0
M  V30 5488 H 515.059 -5.06928 2.10513 0
M  V30 5489 H 515.32 -4.392 0.505548 0
M  V30 5490 N 514.379 -1.04941 -1.1758 0
M  V30 5491 C 515.609 -0.777166 -1.91425 0
M  V30 5492 C 516.017 0.670647 -1.76915 0
M  V30 5493 O 515.36 1.46965 -1.10213 0
M  V30 5494 C 515.422 -1.07495 -3.43052 0
M  V30 5495 C 515.086 -2.51844 -3.81345 0
M  V30 5496 C 516.083 -3.50047 -3.844 0
M  V30 5497 C 513.768 -2.86787 -4.12382 0
M  V30 5498 C 515.762 -4.81239 -4.17957 0
M  V30 5499 C 513.449 -4.18182 -4.45608 0
M  V30 5500 C 514.447 -5.15219 -4.48373 0
M  V30 5501 O 514.135 -6.44258 -4.80819 0
M  V30 5502 H 513.867 -0.282209 -0.614275 0
M  V30 5503 H 516.421 -1.40258 -1.50056 0
M  V30 5504 H 514.651 -0.392437 -3.84704 0
M  V30 5505 H 516.34 -0.78912 -3.98155 0
M  V30 5506 H 517.106 -3.24391 -3.60548 0
M  V30 5507 H 512.985 -2.11922 -4.09402 0
M  V30 5508 H 516.529 -5.56974 -4.2003 0
M  V30 5509 H 512.426 -4.43602 -4.68922 0
M  V30 5510 H 513.194 -6.49041 -4.98686 0
M  V30 5511 N 515.857 1.33968 -0.830081 0
M  V30 5512 C 517.085 2.0228 -0.434773 0
M  V30 5513 C 517.5 1.62487 0.961419 0
M  V30 5514 O 516.857 0.833849 1.62337 0
M  V30 5515 C 516.908 3.5751 -0.535625 0
M  V30 5516 O 516.629 3.95864 -1.87679 0
M  V30 5517 C 518.13 4.43091 -0.136137 0
M  V30 5518 H 515.35 0.648151 -0.173613 0
M  V30 5519 H 517.894 1.71089 -1.12022 0
M  V30 5520 H 516.049 3.87266 0.101817 0
M  V30 5521 H 516.463 4.9056 -1.85609 0
M  V30 5522 H 517.937 5.51398 -0.257772 0
M  V30 5523 H 518.414 4.29433 0.921076 0
M  V30 5524 H 519.02 4.18677 -0.747662 0
M  V30 5525 N 517.335 0.585699 1.46312 0
M  V30 5526 C 518.584 0.0701192 2.01578 0
M  V30 5527 C 518.897 -1.29889 1.46247 0
M  V30 5528 O 520.103 -1.90598 1.93351 0
M  V30 5529 C 518.559 0.0747499 3.59822 0
M  V30 5530 C 518.167 1.44226 4.24149 0
M  V30 5531 C 519.911 -0.38673 4.22735 0
M  V30 5532 C 517.818 1.40446 5.74481 0
M  V30 5533 H 516.748 0.0224441 0.753666 0
M  V30 5534 H 519.399 0.737789 1.68015 0
M  V30 5535 H 517.781 -0.659144 3.90476 0
M  V30 5536 H 518.955 2.19612 4.05101 0
M  V30 5537 H 517.27 1.84401 3.73343 0
M  V30 5538 H 519.867 -0.433853 5.32937 0
M  V30 5539 H 520.21 -1.40489 3.91878 0
M  V30 5540 H 520.743 0.293195 3.96718 0
M  V30 5541 H 517.482 2.39952 6.10003 0
M  V30 5542 H 517.002 0.692845 5.95785 0
M  V30 5543 H 518.681 1.11865 6.37256 0
M  V30 5544 N 518.813 -1.54241 0.323641 0
M  V30 5545 C 520.038 -2.05452 -0.283605 0
M  V30 5546 C 520.463 -1.19823 -1.44997 0
M  V30 5547 O 519.821 -0.207358 -1.8011 0
M  V30 5548 C 519.869 -3.53823 -0.695795 0
M  V30 5549 O 518.973 -3.71134 -1.79815 0
M  V30 5550 H 518.314 -0.662024 -0.0511917 0
M  V30 5551 H 520.844 -1.99079 0.472073 0
M  V30 5552 H 520.854 -3.96094 -0.978434 0
M  V30 5553 H 519.529 -4.15602 0.157287 0
M  V30 5554 H 518.106 -3.40768 -1.51431 0
M  V30 5555 N 520.291 -0.0518155 -1.57515 0
M  V30 5556 C 521.239 0.940195 -2.12751 0
M  V30 5557 C 522.233 1.3218 -1.05948 0
M  V30 5558 O 523.439 1.30138 -1.24355 0
M  V30 5559 H 519.814 0.321066 -0.680015 0
M  V30 5560 H 521.785 0.449217 -2.94999 0
M  V30 5561 C 520.534 2.2055 -2.68799 0
M  V30 5562 H 519.857 1.92066 -3.50643 0
M  V30 5563 H 521.297 2.88119 -3.11068 0
M  V30 5564 C 519.756 2.95061 -1.62605 0
M  V30 5565 O 520.286 3.88025 -1.03921 0
M  V30 5566 N 518.492 2.57804 -1.34111 0
M  V30 5567 H 518.039 1.82281 -1.8202 0
M  V30 5568 H 517.997 3.07964 -0.632872 0
M  V30 5569 N 521.769 1.56035 0.221574 0
M  V30 5570 C 523.016 1.79047 0.94597 0
M  V30 5571 C 523.344 0.62057 1.84334 0
M  V30 5572 O 522.599 -0.395053 1.91671 0
M  V30 5573 C 522.898 3.07813 1.8162 0
M  V30 5574 C 522.564 4.3797 1.07206 0
M  V30 5575 C 521.226 4.73334 0.866508 0
M  V30 5576 C 523.578 5.18326 0.546565 0
M  V30 5577 C 520.906 5.8657 0.123549 0
M  V30 5578 C 523.258 6.32335 -0.18305 0
M  V30 5579 C 521.922 6.66301 -0.399861 0
M  V30 5580 H 521.192 0.655178 0.346155 0
M  V30 5581 H 523.839 1.90299 0.214146 0
M  V30 5582 H 522.144 2.91682 2.61589 0
M  V30 5583 H 523.841 3.2282 2.37884 0
M  V30 5584 H 520.431 4.10202 1.24226 0
M  V30 5585 H 524.615 4.9144 0.692847 0
M  V30 5586 H 519.871 6.11376 -0.0546591 0
M  V30 5587 H 524.045 6.9383 -0.59775 0
M  V30 5588 H 521.672 7.53889 -0.977489 0
M  V30 5589 N 523.247 -0.488276 1.49845 0
M  V30 5590 C 524.663 -0.820566 1.3689 0
M  V30 5591 C 524.863 -1.97248 0.411752 0
M  V30 5592 O 523.919 -2.52042 -0.151931 0
M  V30 5593 C 525.232 -1.1488 2.77891 0
M  V30 5594 C 526.78 -1.25626 2.86683 0
M  V30 5595 C 527.255 -1.61772 4.28479 0
M  V30 5596 N 528.746 -1.68797 4.31349 0
M  V30 5597 C 529.481 -1.98235 5.38043 0
M  V30 5598 N 528.977 -2.2581 6.54967 0
M  V30 5599 N 530.77 -1.99593 5.2547 0
M  V30 5600 H 522.921 0.271123 2.10662 0
M  V30 5601 H 525.184 0.058735 0.946179 0
M  V30 5602 H 524.89 -0.375614 3.49688 0
M  V30 5603 H 524.764 -2.08919 3.14058 0
M  V30 5604 H 527.151 -2.02014 2.15114 0
M  V30 5605 H 527.232 -0.296072 2.54081 0
M  V30 5606 H 526.876 -0.859295 5.00578 0
M  V30 5607 H 526.806 -2.58912 4.58554 0
M  V30 5608 H 529.297 -1.49595 3.4703 0
M  V30 5609 H 529.61 -2.47497 7.32096 0
M  V30 5610 H 527.955 -2.23239 6.58171 0
M  V30 5611 H 531.146 -1.77535 4.33127 0
M  V30 5612 H 531.319 -2.222 6.08713 0
M  V30 5613 N 524.725 -1.39134 -0.740242 0
M  V30 5614 C 526.002 -1.26584 -1.49117 0
M  V30 5615 C 526.382 0.126902 -2.10718 0
M  V30 5616 O 525.73 1.13765 -1.98166 0
M  V30 5617 C 525.94 -2.38619 -2.54681 0
M  V30 5618 C 527.288 -2.77685 -3.21211 0
M  V30 5619 O 528.312 -2.38029 -2.64991 0
M  V30 5620 O 527.171 -3.46115 -4.22926 0
M  V30 5621 H 524.265 -0.495769 -0.661923 0
M  V30 5622 H 526.811 -1.50995 -0.774514 0
M  V30 5623 H 525.583 -3.3175 -2.07504 0
M  V30 5624 H 525.206 -2.15845 -3.33911 0
M  V30 5625 N 526.204 0.969867 -1.24223 0
M  V30 5626 C 527.434 1.74502 -1.106 0
M  V30 5627 C 527.842 1.86038 0.344483 0
M  V30 5628 O 527.185 1.3465 1.24961 0
M  V30 5629 C 527.247 3.18391 -1.66935 0
M  V30 5630 C 526.911 3.30334 -3.15798 0
M  V30 5631 C 527.908 3.15832 -4.12973 0
M  V30 5632 C 525.593 3.54644 -3.55715 0
M  V30 5633 C 527.587 3.25461 -5.48045 0
M  V30 5634 C 525.274 3.63912 -4.90929 0
M  V30 5635 C 526.272 3.49332 -5.86904 0
M  V30 5636 O 525.96 3.58251 -7.1966 0
M  V30 5637 H 525.692 0.554119 -0.387206 0
M  V30 5638 H 528.246 1.22646 -1.64764 0
M  V30 5639 H 526.476 3.71543 -1.07203 0
M  V30 5640 H 528.165 3.77707 -1.48634 0
M  V30 5641 H 528.931 2.96937 -3.83476 0
M  V30 5642 H 524.81 3.65059 -2.81519 0
M  V30 5643 H 528.354 3.13998 -6.22937 0
M  V30 5644 H 524.251 3.82319 -5.20098 0
M  V30 5645 H 525.019 3.7498 -7.27552 0
M  V30 5646 N 527.682 1.05563 1.17022 0
M  V30 5647 C 528.931 0.763036 1.8671 0
M  V30 5648 C 529.244 -0.712857 1.82147 0
M  V30 5649 O 530.45 -1.11955 2.47343 0
M  V30 5650 C 528.906 1.31474 3.35026 0
M  V30 5651 C 528.514 2.82034 3.48081 0
M  V30 5652 C 530.258 1.09935 4.10018 0
M  V30 5653 C 528.165 3.30486 4.90442 0
M  V30 5654 H 527.095 0.281747 0.699382 0
M  V30 5655 H 529.746 1.2734 1.32124 0
M  V30 5656 H 528.128 0.732171 3.89173 0
M  V30 5657 H 529.302 3.46178 3.04133 0
M  V30 5658 H 527.617 3.02156 2.86515 0
M  V30 5659 H 530.214 1.43632 5.15048 0
M  V30 5660 H 530.557 0.0373072 4.16283 0
M  V30 5661 H 531.09 1.64732 3.62089 0
M  V30 5662 H 527.829 4.36137 4.89352 0
M  V30 5663 H 527.349 2.71086 5.35044 0
M  V30 5664 H 529.028 3.25382 5.59227 0
M  V30 5665 N 529.16 -1.33526 0.837174 0
M  V30 5666 C 530.123 -2.27551 0.274421 0
M  V30 5667 C 531.123 -1.50886 -0.555881 0
M  V30 5668 O 532.313 -1.70227 -0.369918 0
M  V30 5669 C 529.445 -3.35332 -0.613605 0
M  V30 5670 H 530.638 -2.78837 1.10408 0
M  V30 5671 H 528.191 -1.439 0.610126 0
M  V30 5672 H 528.926 -2.89285 -1.46577 0
M  V30 5673 H 528.711 -3.92095 -0.0195341 0
M  V30 5674 H 530.201 -4.05433 -1.00068 0
M  V30 5675 N 530.638 -0.59345 -1.46 0
M  V30 5676 C 531.548 0.135817 -2.34207 0
M  V30 5677 C 532.564 0.875008 -1.50398 0
M  V30 5678 O 533.74 0.835778 -1.83239 0
M  V30 5679 C 530.805 1.12977 -3.27776 0
M  V30 5680 C 529.866 0.394081 -4.27487 0
M  V30 5681 C 529.099 1.34068 -5.16586 0
M  V30 5682 O 529.322 2.5778 -5.08828 0
M  V30 5683 O 528.256 0.845426 -5.95933 0
M  V30 5684 H 532.082 -0.588691 -2.9794 0
M  V30 5685 H 529.667 -0.353784 -1.45151 0
M  V30 5686 H 531.549 1.70261 -3.85473 0
M  V30 5687 H 530.224 1.83556 -2.66625 0
M  V30 5688 H 529.131 -0.220869 -3.73447 0
M  V30 5689 H 530.464 -0.270939 -4.91454 0
M  V30 5690 N 532.116 1.54067 -0.331816 0
M  V30 5691 C 533.344 2.05131 0.269996 0
M  V30 5692 C 533.759 1.20749 1.45138 0
M  V30 5693 O 533.116 0.240069 1.80914 0
M  V30 5694 C 533.167 3.54728 0.696456 0
M  V30 5695 O 532.888 4.35906 -0.43794 0
M  V30 5696 C 534.389 4.21916 1.36021 0
M  V30 5697 H 531.609 0.668807 0.0542042 0
M  V30 5698 H 534.153 1.98777 -0.4804 0
M  V30 5699 H 532.308 3.61342 1.39681 0
M  V30 5700 H 532.722 5.24404 -0.100334 0
M  V30 5701 H 534.196 5.28015 1.60947 0
M  V30 5702 H 534.673 3.73538 2.31011 0
M  V30 5703 H 535.279 4.19463 0.702212 0
M  V30 5704 N 533.594 0.0601682 1.57485 0
M  V30 5705 C 534.524 -0.90889 2.15085 0
M  V30 5706 C 535.505 -1.31838 1.07484 0
M  V30 5707 O 536.69 -1.3915 1.35466 0
M  V30 5708 C 533.82 -2.18059 2.7031 0
M  V30 5709 C 532.774 -1.91088 3.82974 0
M  V30 5710 C 532.1 -3.24789 4.24754 0
M  V30 5711 C 533.4 -1.22535 5.07723 0
M  V30 5712 H 535.094 -0.429093 2.96309 0
M  V30 5713 H 532.64 -0.204952 1.42534 0
M  V30 5714 H 534.593 -2.86258 3.09248 0
M  V30 5715 H 533.317 -2.6826 1.8629 0
M  V30 5716 H 531.976 -1.25297 3.44523 0
M  V30 5717 H 531.624 -3.72809 3.37672 0
M  V30 5718 H 531.324 -3.07538 5.00694 0
M  V30 5719 H 532.848 -3.94205 4.66299 0
M  V30 5720 H 534.262 -1.80783 5.4405 0
M  V30 5721 H 532.659 -1.1558 5.88864 0
M  V30 5722 H 533.729 -0.202692 4.84476 0
M  V30 5723 N 535.072 -1.5615 -0.213296 0
M  V30 5724 C 536.004 -1.89586 -1.28802 0
M  V30 5725 C 537.017 -0.784844 -1.42633 0
M  V30 5726 O 538.206 -1.06319 -1.43383 0
M  V30 5727 C 535.306 -2.09665 -2.66259 0
M  V30 5728 C 534.479 -3.40726 -2.7427 0
M  V30 5729 C 533.538 -3.50137 -3.92798 0
M  V30 5730 O 532.564 -4.23105 -3.8075 0
M  V30 5731 N 533.766 -2.81886 -5.07465 0
M  V30 5732 H 536.531 -2.82368 -1.00442 0
M  V30 5733 H 534.092 -1.56796 -0.403302 0
M  V30 5734 H 536.084 -2.13268 -3.43946 0
M  V30 5735 H 534.654 -1.23469 -2.87183 0
M  V30 5736 H 533.874 -3.4915 -1.82997 0
M  V30 5737 H 535.162 -4.27048 -2.76599 0
M  V30 5738 H 534.56 -2.22397 -5.2015 0
M  V30 5739 H 533.117 -2.91139 -5.83165 0
M  V30 5740 N 536.55 0.480323 -1.50102 0
M  V30 5741 C 537.482 1.59669 -1.64433 0
M  V30 5742 C 538.495 1.54063 -0.52615 0
M  V30 5743 O 539.684 1.59619 -0.798992 0
M  V30 5744 C 536.784 2.98527 -1.6042 0
M  V30 5745 C 535.957 3.291 -2.88117 0
M  V30 5746 C 535.016 4.47468 -2.76873 0
M  V30 5747 O 534.042 4.4823 -3.50825 0
M  V30 5748 N 535.244 5.48593 -1.89806 0
M  V30 5749 H 538.009 1.47795 -2.60723 0
M  V30 5750 H 535.57 0.66858 -1.4745 0
M  V30 5751 H 537.562 3.75666 -1.50523 0
M  V30 5752 H 536.132 3.04218 -0.719036 0
M  V30 5753 H 535.352 2.40662 -3.12211 0
M  V30 5754 H 536.64 3.46334 -3.72734 0
M  V30 5755 H 536.038 5.50791 -1.2902 0
M  V30 5756 H 534.595 6.24752 -1.85819 0
M  V30 5757 N 538.028 1.39524 0.732853 0
M  V30 5758 C 538.976 1.38563 1.86824 0
M  V30 5759 C 539.97 0.268467 1.67259 0
M  V30 5760 O 541.176 0.438613 1.74574 0
M  V30 5761 H 537.551 0.432737 0.615014 0
M  V30 5762 H 539.522 2.34328 1.84751 0
M  V30 5763 C 538.271 1.2481 3.24527 0
M  V30 5764 H 537.594 2.10044 3.40179 0
M  V30 5765 H 539.034 1.28194 4.04156 0
M  V30 5766 C 537.493 -0.0432825 3.36872 0
M  V30 5767 O 538.023 -1.01268 3.88726 0
M  V30 5768 N 536.229 -0.107055 2.90403 0
M  V30 5769 H 535.776 0.682512 2.48394 0
M  V30 5770 H 535.734 -0.970618 2.99042 0
M  V30 5771 N 539.506 -0.963266 1.24736 0
M  V30 5772 C 540.753 -1.7068 1.0897 0
M  V30 5773 C 541.081 -1.90934 -0.370751 0
M  V30 5774 O 540.336 -1.47155 -1.29011 0
M  V30 5775 C 540.635 -3.09944 1.7796 0
M  V30 5776 C 540.301 -3.09518 3.27887 0
M  V30 5777 C 538.963 -3.09109 3.68789 0
M  V30 5778 C 541.315 -3.03509 4.23712 0
M  V30 5779 C 538.643 -3.00429 5.03944 0
M  V30 5780 C 540.995 -2.96371 5.5888 0
M  V30 5781 C 539.659 -2.94293 5.99123 0
M  V30 5782 H 538.929 -0.624564 0.398749 0
M  V30 5783 H 541.576 -1.12603 1.54896 0
M  V30 5784 H 539.881 -3.71513 1.2444 0
M  V30 5785 H 541.578 -3.66278 1.63222 0
M  V30 5786 H 538.168 -3.10603 2.95337 0
M  V30 5787 H 542.352 -3.0295 3.93109 0
M  V30 5788 H 537.608 -2.97183 5.34314 0
M  V30 5789 H 541.782 -2.90681 6.32833 0
M  V30 5790 H 539.409 -2.87322 7.03811 0
M  V30 5791 N 540.985 -1.06182 -1.16461 0
M  V30 5792 C 541.915 -0.692861 -2.22984 0
M  V30 5793 C 542.896 0.314122 -1.67174 0
M  V30 5794 O 544.081 0.189499 -1.93273 0
M  V30 5795 C 541.211 -0.07732 -3.47214 0
M  V30 5796 C 540.165 -1.01015 -4.15909 0
M  V30 5797 C 539.491 -0.257973 -5.34077 0
M  V30 5798 C 540.791 -2.33868 -4.67015 0
M  V30 5799 H 542.485 -1.58343 -2.54102 0
M  V30 5800 H 540.031 -0.76279 -1.22137 0
M  V30 5801 H 541.984 0.19266 -4.20959 0
M  V30 5802 H 540.708 0.848254 -3.15392 0
M  V30 5803 H 539.367 -1.26486 -3.44088 0
M  V30 5804 H 539.015 0.670684 -4.98509 0
M  V30 5805 H 538.715 -0.879638 -5.80979 0
M  V30 5806 H 540.239 0.00448788 -6.106 0
M  V30 5807 H 541.653 -2.1279 -5.32347 0
M  V30 5808 H 540.05 -2.91522 -5.24533 0
M  V30 5809 H 541.12 -2.97019 -3.83286 0
M  V30 5810 N 542.463 1.3308 -0.844243 0
M  V30 5811 C 543.393 2.3161 -0.296493 0
M  V30 5812 C 544.374 1.59215 0.598707 0
M  V30 5813 O 545.559 1.87077 0.521134 0
M  V30 5814 C 542.689 3.43313 0.524762 0
M  V30 5815 C 541.643 4.27115 -0.275106 0
M  V30 5816 C 540.969 5.30483 0.670236 0
M  V30 5817 C 542.269 5.00443 -1.49514 0
M  V30 5818 H 543.963 2.77672 -1.11976 0
M  V30 5819 H 541.509 1.33496 -0.539899 0
M  V30 5820 H 543.462 4.11273 0.918298 0
M  V30 5821 H 542.186 2.95952 1.3813 0
M  V30 5822 H 540.845 3.60787 -0.650267 0
M  V30 5823 H 540.493 4.79379 1.52332 0
M  V30 5824 H 540.193 5.87435 0.139123 0
M  V30 5825 H 541.717 6.01308 1.06117 0
M  V30 5826 H 543.131 5.61141 -1.17447 0
M  V30 5827 H 541.528 5.67071 -1.96343 0
M  V30 5828 H 542.598 4.28906 -2.26202 0
M  V30 5829 N 543.941 0.601185 1.45683 0
M  V30 5830 C 545.189 0.0936957 2.01883 0
M  V30 5831 C 545.51 -1.2779 1.47291 0
M  V30 5832 O 544.78 -1.84279 0.664691 0
M  V30 5833 H 543.36 0.0316466 0.746329 0
M  V30 5834 H 546.022 0.781137 1.78562 0
M  V30 5835 H 545.118 0.0386297 3.12076 0
M  V30 5836 N 545.419 -1.53889 0.339982 0
M  V30 5837 C 546.367 -2.26391 -0.533822 0
M  V30 5838 C 547.361 -1.28404 -1.10493 0
M  V30 5839 O 548.567 -1.46124 -1.05108 0
M  V30 5840 H 544.942 -0.727385 -0.190828 0
M  V30 5841 H 546.913 -2.98233 0.0997484 0
M  V30 5842 C 545.662 -3.04707 -1.67479 0
M  V30 5843 H 544.985 -3.79934 -1.2446 0
M  V30 5844 H 546.425 -3.58657 -2.26144 0
M  V30 5845 C 544.884 -2.13989 -2.60212 0
M  V30 5846 O 545.414 -1.73361 -3.62366 0
M  V30 5847 N 543.62 -1.79141 -2.28816 0
M  V30 5848 H 543.167 -2.12378 -1.45785 0
M  V30 5849 H 543.125 -1.18725 -2.91121 0
M  V30 5850 N 546.897 -0.0685191 -1.57451 0
M  V30 5851 C 548.122 0.613919 -1.98106 0
M  V30 5852 C 548.547 1.62551 -0.946501 0
M  V30 5853 O 547.905 1.81085 0.0882824 0
M  V30 5854 C 547.953 1.26189 -3.378 0
M  V30 5855 O 547.057 2.37773 -3.36954 0
M  V30 5856 H 546.398 0.158163 -0.644888 0
M  V30 5857 H 548.928 -0.142063 -2.04106 0
M  V30 5858 H 548.938 1.60951 -3.74912 0
M  V30 5859 H 547.613 0.520625 -4.12629 0
M  V30 5860 H 546.19 2.04829 -3.11608 0
M  V30 5861 N 548.375 1.56261 0.205012 0
M  V30 5862 C 549.6 1.84491 0.947512 0
M  V30 5863 C 550.025 0.650894 1.76479 0
M  V30 5864 O 549.383 -0.40035 1.76824 0
M  V30 5865 C 549.431 3.10863 1.82747 0
M  V30 5866 O 548.535 2.90719 2.925 0
M  V30 5867 H 547.876 0.607783 0.267386 0
M  V30 5868 H 550.406 2.03485 0.213323 0
M  V30 5869 H 550.416 3.41399 2.23407 0
M  V30 5870 H 549.091 3.97392 1.2269 0
M  V30 5871 H 547.668 2.71457 2.55667 0
M  V30 5872 N 549.853 -0.472356 1.50355 0
M  V30 5873 C 550.783 -1.57859 1.72055 0
M  V30 5874 C 551.764 -1.60283 0.569505 0
M  V30 5875 O 552.949 -1.7657 0.808503 0
M  V30 5876 C 550.079 -2.96191 1.81351 0
M  V30 5877 C 549.033 -3.08633 2.96529 0
M  V30 5878 C 548.359 -4.486 2.90968 0
M  V30 5879 C 549.659 -2.85969 4.37057 0
M  V30 5880 H 551.353 -1.39953 2.64676 0
M  V30 5881 H 548.899 -0.671846 1.27367 0
M  V30 5882 H 550.852 -3.73507 1.95117 0
M  V30 5883 H 549.576 -3.15251 0.853502 0
M  V30 5884 H 548.235 -2.33749 2.82413 0
M  V30 5885 H 547.883 -4.64577 1.92815 0
M  V30 5886 H 547.583 -4.57861 3.68289 0
M  V30 5887 H 549.107 -5.27938 3.0678 0
M  V30 5888 H 550.521 -3.53036 4.51706 0
M  V30 5889 H 548.918 -3.06677 5.15819 0
M  V30 5890 H 549.988 -1.81838 4.49514 0
M  V30 5891 N 551.331 -1.39911 -0.725443 0
M  V30 5892 C 552.279 -1.39552 -1.86086 0
M  V30 5893 C 553.273 -0.277334 -1.67114 0
M  V30 5894 O 554.479 -0.447865 -1.74339 0
M  V30 5895 H 550.854 -0.435993 -0.612711 0
M  V30 5896 H 552.825 -2.35305 -1.83505 0
M  V30 5897 C 551.574 -1.26529 -3.2386 0
M  V30 5898 H 550.897 -2.11845 -3.3906 0
M  V30 5899 H 552.337 -1.30336 -4.03471 0
M  V30 5900 C 550.796 0.0254168 -3.3689 0
M  V30 5901 O 551.326 0.992048 -3.89257 0
M  V30 5902 N 549.532 0.0916528 -2.90455 0
M  V30 5903 H 549.079 -0.695675 -2.48028 0
M  V30 5904 H 549.037 0.954745 -2.99553 0
M  V30 5905 N 552.809 0.956637 -1.25245 0
M  V30 5906 C 554.22 1.51569 -1.09012 0
M  V30 5907 C 554.571 1.93322 0.334813 0
M  V30 5908 O 553.696 1.78421 1.22454 0
M  V30 5909 C 554.291 2.75444 -1.97271 0
M  V30 5910 C 552.85 3.27669 -1.8523 0
M  V30 5911 C 551.997 2.00517 -1.91542 0
M  V30 5912 H 554.948 0.773746 -1.3856 0
M  V30 5913 H 554.969 3.4919 -1.51151 0
M  V30 5914 H 554.481 2.45024 -3.00973 0
M  V30 5915 H 552.582 3.62914 -0.844045 0
M  V30 5916 H 552.695 3.9582 -2.69932 0
M  V30 5917 H 551.059 2.15727 -1.35404 0
M  V30 5918 H 551.842 1.72448 -2.96844 0
M  V30 5919 N 554.287 1.06798 1.15896 0
M  V30 5920 C 555.564 0.701057 1.82605 0
M  V30 5921 C 555.944 -0.817066 1.94646 0
M  V30 5922 O 555.292 -1.72933 1.49353 0
M  V30 5923 C 555.502 1.40895 3.19296 0
M  V30 5924 C 556.85 1.55744 3.95005 0
M  V30 5925 O 557.874 1.36927 3.28831 0
M  V30 5926 O 556.733 1.86658 5.13635 0
M  V30 5927 H 553.827 0.248791 0.78869 0
M  V30 5928 H 556.373 1.16857 1.23055 0
M  V30 5929 H 555.145 2.4439 3.05596 0
M  V30 5930 H 554.768 0.931847 3.86526 0
M  V30 5931 N 555.766 -1.3263 0.851289 0
M  V30 5932 C 557.177 -1.79653 0.5081 0
M  V30 5933 C 557.528 -1.70327 -0.973815 0
M  V30 5934 O 556.653 -1.25986 -1.75944 0
M  V30 5935 C 557.248 -3.26196 0.915515 0
M  V30 5936 C 555.807 -3.71187 0.624277 0
M  V30 5937 C 554.954 -2.53804 1.11709 0
M  V30 5938 H 557.905 -1.19976 1.03882 0
M  V30 5939 H 557.926 -3.79801 0.230535 0
M  V30 5940 H 557.438 -3.32952 1.99411 0
M  V30 5941 H 555.539 -3.69948 -0.443737 0
M  V30 5942 H 555.652 -4.64132 1.18821 0
M  V30 5943 H 554.016 -2.48964 0.537484 0
M  V30 5944 H 554.799 -2.63315 2.20272 0
M  V30 5945 N 557.244 -0.608902 -1.45362 0
M  V30 5946 C 558.521 -0.0365378 -1.95566 0
M  V30 5947 C 558.901 1.43169 -1.55131 0
M  V30 5948 O 558.249 2.1349 -0.814513 0
M  V30 5949 C 558.459 -0.236026 -3.48201 0
M  V30 5950 C 559.807 -0.117518 -4.24437 0
M  V30 5951 O 560.831 -0.166217 -3.55812 0
M  V30 5952 O 559.69 -0.00372127 -5.465 0
M  V30 5953 H 556.784 0.0349874 -0.82626 0
M  V30 5954 H 559.33 -0.679055 -1.55521 0
M  V30 5955 H 558.102 -1.25569 -3.70605 0
M  V30 5956 H 557.725 0.441691 -3.95139 0
M  V30 5957 N 558.722 1.53707 -0.348139 0
M  V30 5958 C 559.947 2.05877 0.250883 0
M  V30 5959 C 560.372 1.22115 1.43072 0
M  V30 5960 O 559.73 0.235986 1.79758 0
M  V30 5961 C 559.778 3.54886 0.639416 0
M  V30 5962 O 558.882 3.73948 1.73888 0
M  V30 5963 H 558.223 0.662754 0.040653 0
M  V30 5964 H 560.753 1.98303 -0.503685 0
M  V30 5965 H 560.763 3.97601 0.915295 0
M  V30 5966 H 559.438 4.153 -0.223386 0
M  V30 5967 H 558.015 3.43134 1.45991 0
M  V30 5968 N 560.2 0.0768682 1.57412 0
M  V30 5969 C 561.13 -0.886026 2.16037 0
M  V30 5970 C 562.111 -1.30691 1.08876 0
M  V30 5971 O 563.296 -1.37705 1.36934 0
M  V30 5972 C 560.426 -2.1518 2.72608 0
M  V30 5973 C 559.38 -1.87015 3.8498 0
M  V30 5974 C 558.706 -3.20266 4.28175 0
M  V30 5975 C 560.006 -1.17143 5.08994 0
M  V30 5976 H 561.7 -0.397642 2.96748 0
M  V30 5977 H 559.246 -0.189823 1.42743 0
M  V30 5978 H 561.199 -2.82962 3.12266 0
M  V30 5979 H 559.923 -2.66269 1.89125 0
M  V30 5980 H 558.582 -1.21636 3.45833 0
M  V30 5981 H 558.23 -3.69207 3.41607 0
M  V30 5982 H 557.93 -3.0221 5.03927 0
M  V30 5983 H 559.454 -3.89237 4.70454 0
M  V30 5984 H 560.868 -1.75003 5.45937 0
M  V30 5985 H 559.265 -1.09328 5.90057 0
M  V30 5986 H 560.335 -0.151295 4.84664 0
M  V30 5987 N 561.678 -1.56367 -0.196722 0
M  V30 5988 C 562.61 -1.90941 -1.26784 0
M  V30 5989 C 563.623 -0.799928 -1.41792 0
M  V30 5990 O 564.812 -1.07833 -1.42247 0
M  V30 5991 C 561.912 -2.12477 -2.6402 0
M  V30 5992 C 561.085 -3.43616 -2.70641 0
M  V30 5993 C 560.144 -3.54284 -3.89062 0
M  V30 5994 O 559.17 -4.2712 -3.76241 0
M  V30 5995 N 560.372 -2.87252 -5.04447 0
M  V30 5996 H 563.137 -2.83417 -0.974417 0
M  V30 5997 H 560.698 -1.57215 -0.386649 0
M  V30 5998 H 562.69 -2.16904 -3.41665 0
M  V30 5999 H 561.26 -1.26508 -2.85857 0
M  V30 6000 H 560.48 -3.51072 -1.79283 0
M  V30 6001 H 561.768 -4.29958 -2.72054 0
M  V30 6002 H 561.166 -2.27901 -5.17762 0
M  V30 6003 H 559.723 -2.97308 -5.80044 0
M  V30 6004 N 563.156 0.464375 -1.50603 0
M  V30 6005 C 564.086 1.56944 -1.72889 0
M  V30 6006 C 565.067 1.59979 -0.577997 0
M  V30 6007 O 566.252 1.76138 -0.817855 0
M  V30 6008 C 563.382 2.95225 -1.8292 0
M  V30 6009 C 562.336 3.07056 -2.98162 0
M  V30 6010 C 561.662 4.47051 -2.93343 0
M  V30 6011 C 562.962 2.83648 -4.38567 0
M  V30 6012 H 564.656 1.38547 -2.65415 0
M  V30 6013 H 562.202 0.665082 -1.27721 0
M  V30 6014 H 564.155 3.72467 -1.97095 0
M  V30 6015 H 562.879 3.14793 -0.870209 0
M  V30 6016 H 561.538 2.32248 -2.83648 0
M  V30 6017 H 561.186 4.63547 -1.95276 0
M  V30 6018 H 560.886 4.55902 -3.70712 0
M  V30 6019 H 562.41 5.26304 -3.09575 0
M  V30 6020 H 563.824 3.50636 -4.53572 0
M  V30 6021 H 562.221 3.03937 -5.17438 0
M  V30 6022 H 563.291 1.79451 -4.50472 0
M  V30 6023 N 564.634 1.40294 0.718013 0
M  V30 6024 C 565.883 1.37746 1.4734 0
M  V30 6025 C 566.196 -0.0180754 1.95592 0
M  V30 6026 O 567.402 -0.166166 2.70991 0
M  V30 6027 C 565.858 2.4208 2.66318 0
M  V30 6028 C 565.466 3.87432 2.24945 0
M  V30 6029 C 567.21 2.48635 3.44065 0
M  V30 6030 C 565.117 4.83368 3.40748 0
M  V30 6031 H 564.047 0.512165 0.553356 0
M  V30 6032 H 566.698 1.66019 0.781661 0
M  V30 6033 H 565.08 2.06903 3.3765 0
M  V30 6034 H 566.254 4.3174 1.6105 0
M  V30 6035 H 564.569 3.8433 1.60249 0
M  V30 6036 H 567.166 3.17499 4.30231 0
M  V30 6037 H 567.509 1.51611 3.87711 0
M  V30 6038 H 568.042 2.82791 2.79775 0
M  V30 6039 H 564.781 5.81716 3.02136 0
M  V30 6040 H 564.301 4.43726 4.03568 0
M  V30 6041 H 565.98 5.03074 4.06848 0
M  V30 6042 N 566.112 -0.949982 1.2575 0
M  V30 6043 C 567.06 -2.06869 1.06339 0
M  V30 6044 C 568.054 -1.69399 -0.00708901 0
M  V30 6045 O 569.26 -1.79383 0.148897 0
M  V30 6046 H 565.635 -0.677197 0.326969 0
M  V30 6047 H 567.606 -2.20396 2.01167 0
M  V30 6048 C 566.355 -3.40503 0.703769 0
M  V30 6049 H 565.678 -3.69807 1.51931 0
M  V30 6050 H 567.118 -4.19623 0.607677 0
M  V30 6051 C 565.577 -3.31685 -0.5905 0
M  V30 6052 O 566.107 -3.67085 -1.63131 0
M  V30 6053 N 564.313 -2.84797 -0.577859 0
M  V30 6054 H 563.86 -2.56186 0.26951 0
M  V30 6055 H 563.818 -2.79279 -1.44398 0
M  V30 6056 N 567.59 -1.07411 -1.15328 0
M  V30 6057 C 568.836 -0.798831 -1.86404 0
M  V30 6058 C 569.169 0.673433 -1.8215 0
M  V30 6059 O 568.444 1.49428 -1.24505 0
M  V30 6060 C 568.727 -1.30846 -3.35487 0
M  V30 6061 C 568.58 -2.84532 -3.4837 0
M  V30 6062 C 569.899 -0.925486 -4.30259 0
M  V30 6063 H 567.018 -0.291659 -0.676834 0
M  V30 6064 H 569.66 -1.332 -1.35491 0
M  V30 6065 H 567.81 -0.854916 -3.78977 0
M  V30 6066 H 569.482 -3.3818 -3.13739 0
M  V30 6067 H 567.725 -3.22699 -2.8991 0
M  V30 6068 H 568.396 -3.15259 -4.53118 0
M  V30 6069 H 570.872 -1.3163 -3.94731 0
M  V30 6070 H 569.748 -1.3094 -5.33053 0
M  V30 6071 H 570.009 0.168525 -4.41779 0
M  V30 6072 N 569.068 1.32177 -0.85831 0
M  V30 6073 C 570.484 1.49873 -0.548656 0
M  V30 6074 C 570.684 1.79278 0.919874 0
M  V30 6075 O 569.74 1.86451 1.70271 0
M  V30 6076 C 571.053 2.64043 -1.4388 0
M  V30 6077 C 572.601 2.77928 -1.43961 0
M  V30 6078 C 573.076 3.95182 -2.31506 0
M  V30 6079 N 574.567 4.0245 -2.29321 0
M  V30 6080 C 575.302 4.9242 -2.93786 0
M  V30 6081 N 574.798 5.87373 -3.67376 0
M  V30 6082 N 576.591 4.85572 -2.83155 0
M  V30 6083 H 568.742 1.11357 -1.80868 0
M  V30 6084 H 571.005 0.549175 -0.772729 0
M  V30 6085 H 570.711 2.49055 -2.48324 0
M  V30 6086 H 570.585 3.59912 -1.12885 0
M  V30 6087 H 572.972 2.92338 -0.402813 0
M  V30 6088 H 573.053 1.82762 -1.78974 0
M  V30 6089 H 572.697 3.81531 -3.35256 0
M  V30 6090 H 572.627 4.89633 -1.93823 0
M  V30 6091 H 575.118 3.34507 -1.75822 0
M  V30 6092 H 575.431 6.52728 -4.13722 0
M  V30 6093 H 573.776 5.87388 -3.71484 0
M  V30 6094 H 576.967 4.10363 -2.25211 0
M  V30 6095 H 577.14 5.55486 -3.33676 0
M  V30 6096 N 570.547 0.616602 1.45037 0
M  V30 6097 C 571.795 0.115103 2.01772 0
M  V30 6098 C 572.116 -1.2622 1.48639 0
M  V30 6099 O 571.386 -1.83563 0.684199 0
M  V30 6100 H 569.966 0.0395607 0.745952 0
M  V30 6101 H 572.628 0.800032 1.77723 0
M  V30 6102 H 571.724 0.0717274 3.12018 0
M  V30 6103 N 572.025 -1.5352 0.356285 0
M  V30 6104 C 573.271 -2.01414 -0.236653 0
M  V30 6105 C 573.604 -1.24339 -1.49176 0
M  V30 6106 O 572.879 -0.334496 -1.91602 0
M  V30 6107 C 573.162 -3.56059 -0.537982 0
M  V30 6108 C 573.015 -4.43835 0.730112 0
M  V30 6109 C 574.334 -4.19127 -1.34239 0
M  V30 6110 H 571.453 -0.732135 -0.0845386 0
M  V30 6111 H 574.095 -1.83854 0.479341 0
M  V30 6112 H 572.245 -3.71153 -1.14795 0
M  V30 6113 H 573.917 -4.40555 1.36782 0
M  V30 6114 H 572.16 -4.1218 1.3524 0
M  V30 6115 H 572.831 -5.49958 0.474358 0
M  V30 6116 H 575.307 -4.07809 -0.826498 0
M  V30 6117 H 574.183 -5.27378 -1.52198 0
M  V30 6118 H 574.444 -3.74581 -2.34822 0
M  V30 6119 N 573.503 -0.0852151 -1.57369 0
M  V30 6120 C 574.433 0.874556 -2.16503 0
M  V30 6121 C 575.414 1.30111 -1.09568 0
M  V30 6122 O 576.599 1.36977 -1.37662 0
M  V30 6123 C 573.729 2.13731 -2.73745 0
M  V30 6124 C 572.683 1.84971 -3.85966 0
M  V30 6125 C 572.009 3.17991 -4.29867 0
M  V30 6126 C 573.309 1.14442 -5.09608 0
M  V30 6127 H 575.003 0.381899 -2.96954 0
M  V30 6128 H 572.549 0.18225 -1.42842 0
M  V30 6129 H 574.502 2.81302 -3.13763 0
M  V30 6130 H 573.226 2.65263 -1.90534 0
M  V30 6131 H 571.885 1.19801 -3.46473 0
M  V30 6132 H 571.533 3.6739 -3.4356 0
M  V30 6133 H 571.233 2.99534 -5.05523 0
M  V30 6134 H 572.757 3.86737 -4.72511 0
M  V30 6135 H 574.171 1.72105 -5.46857 0
M  V30 6136 H 572.568 1.06197 -5.90629 0
M  V30 6137 H 573.638 0.12559 -4.84737 0
M  V30 6138 N 574.981 1.5647 0.188427 0
M  V30 6139 C 576.397 1.50204 0.539532 0
M  V30 6140 C 576.597 0.78644 1.85519 0
M  V30 6141 O 575.653 0.339714 2.50204 0
M  V30 6142 C 576.966 2.94893 0.588103 0
M  V30 6143 C 578.514 3.05602 0.67648 0
M  V30 6144 C 578.989 4.51716 0.756101 0
M  V30 6145 N 580.48 4.55894 0.819451 0
M  V30 6146 C 581.215 5.66272 0.90134 0
M  V30 6147 N 580.711 6.86323 0.945118 0
M  V30 6148 N 582.504 5.54201 0.939043 0
M  V30 6149 H 574.655 2.01406 -0.674493 0
M  V30 6150 H 576.918 0.916828 -0.241103 0
M  V30 6151 H 576.624 3.50334 -0.309633 0
M  V30 6152 H 576.498 3.4861 1.44051 0
M  V30 6153 H 578.885 2.50206 1.56465 0
M  V30 6154 H 578.966 2.54999 -0.202262 0
M  V30 6155 H 578.61 5.07739 -0.12774 0
M  V30 6156 H 578.54 5.00058 1.65074 0
M  V30 6157 H 581.031 3.69452 0.794594 0
M  V30 6158 H 581.344 7.66194 1.0083 0
M  V30 6159 H 579.689 6.88968 0.913683 0
M  V30 6160 H 582.88 4.59333 0.901725 0
M  V30 6161 H 583.053 6.40247 0.999402 0
M  V30 6162 N 576.459 -0.456382 1.50847 0
M  V30 6163 C 577.409 -1.55045 1.67168 0
M  V30 6164 C 578.393 -1.52061 0.525958 0
M  V30 6165 O 579.585 -1.58836 0.781036 0
M  V30 6166 C 576.714 -2.93386 1.78268 0
M  V30 6167 C 575.8 -3.01198 2.98564 0
M  V30 6168 N 576.191 -2.78792 4.22029 0
M  V30 6169 C 574.489 -3.32346 2.97426 0
M  V30 6170 C 575.19 -2.91953 5.03128 0
M  V30 6171 N 574.166 -3.22797 4.37382 0
M  V30 6172 H 577.968 -1.36444 2.60308 0
M  V30 6173 H 575.482 -0.663375 1.48233 0
M  V30 6174 H 577.479 -3.72071 1.88067 0
M  V30 6175 H 576.139 -3.13022 0.862965 0
M  V30 6176 H 577.15 -2.54087 4.51287 0
M  V30 6177 H 573.827 -3.57877 2.15012 0
M  V30 6178 H 575.217 -2.78745 6.11351 0
M  V30 6179 N 577.937 -1.40673 -0.710563 0
M  V30 6180 C 578.869 -1.37256 -1.83558 0
M  V30 6181 C 579.882 -0.277133 -1.60424 0
M  V30 6182 O 581.071 -0.537831 -1.70205 0
M  V30 6183 C 578.171 -1.1144 -3.20054 0
M  V30 6184 C 577.344 -2.32734 -3.70342 0
M  V30 6185 C 576.403 -2.03002 -4.85465 0
M  V30 6186 O 575.429 -2.75912 -4.97857 0
M  V30 6187 N 576.631 -1.01105 -5.71627 0
M  V30 6188 H 579.396 -2.34215 -1.86985 0
M  V30 6189 H 576.957 -1.35091 -0.892301 0
M  V30 6190 H 578.949 -0.895265 -3.94673 0
M  V30 6191 H 577.519 -0.231307 -3.11743 0
M  V30 6192 H 576.739 -2.70446 -2.86798 0
M  V30 6193 H 578.027 -3.13584 -4.00678 0
M  V30 6194 H 577.425 -0.407303 -5.64232 0
M  V30 6195 H 575.982 -0.85182 -6.4621 0
M  V30 6196 N 579.415 0.9433 -1.26252 0
M  V30 6197 C 580.643 1.72367 -1.14443 0
M  V30 6198 C 581.058 1.86392 0.300572 0
M  V30 6199 O 580.415 1.36978 1.20596 0
M  V30 6200 C 580.466 3.13155 -1.806 0
M  V30 6201 O 580.187 2.99803 -3.19452 0
M  V30 6202 C 581.688 4.07417 -1.74717 0
M  V30 6203 H 578.908 0.539758 -0.398626 0
M  V30 6204 H 581.452 1.18268 -1.66832 0
M  V30 6205 H 579.607 3.64162 -1.32154 0
M  V30 6206 H 580.021 3.88697 -3.52158 0
M  V30 6207 H 581.495 5.03773 -2.25647 0
M  V30 6208 H 581.972 4.3337 -0.713244 0
M  V30 6209 H 582.578 3.6233 -2.22704 0
M  V30 6210 N 580.893 1.08022 1.14757 0
M  V30 6211 C 581.803 0.718292 2.23333 0
M  V30 6212 C 582.819 -0.273477 1.71837 0
M  V30 6213 O 583.995 -0.118406 2.01052 0
M  V30 6214 C 581.06 0.128855 3.4646 0
M  V30 6215 C 580.121 1.17473 4.12915 0
M  V30 6216 C 579.354 0.61333 5.30164 0
M  V30 6217 O 579.577 -0.568458 5.6756 0
M  V30 6218 O 578.511 1.3615 5.86299 0
M  V30 6219 H 582.337 1.62394 2.56636 0
M  V30 6220 H 579.922 0.853628 1.22611 0
M  V30 6221 H 581.804 -0.197249 4.20938 0
M  V30 6222 H 580.479 -0.750014 3.14891 0
M  V30 6223 H 579.386 1.5533 3.40328 0
M  V30 6224 H 580.719 2.02574 4.48581 0
M  V30 6225 N 582.371 -1.3172 0.865308 0
M  V30 6226 C 583.648 -1.91574 0.394789 0
M  V30 6227 C 584.028 -1.78769 -1.12271 0
M  V30 6228 O 583.376 -1.19245 -1.94918 0
M  V30 6229 C 583.586 -3.37957 0.870982 0
M  V30 6230 C 584.934 -4.15073 0.894384 0
M  V30 6231 O 585.958 -3.4672 0.816325 0
M  V30 6232 O 584.817 -5.37151 1.00651 0
M  V30 6233 H 581.911 -0.818649 0.117229 0
M  V30 6234 H 584.457 -1.4042 0.952913 0
M  V30 6235 H 583.229 -3.41269 1.91444 0
M  V30 6236 H 582.852 -3.96534 0.290907 0
M  V30 6237 N 583.85 -0.624285 -1.44708 0
M  V30 6238 C 584.779 0.0717025 -2.3339 0
M  V30 6239 C 585.76 0.841814 -1.47809 0
M  V30 6240 O 586.946 0.809056 -1.76544 0
M  V30 6241 C 584.076 1.05852 -3.30776 0
M  V30 6242 C 583.029 0.400503 -4.26122 0
M  V30 6243 C 582.356 1.49674 -5.13324 0
M  V30 6244 C 583.656 -0.688924 -5.17737 0
M  V30 6245 H 585.35 -0.668819 -2.91834 0
M  V30 6246 H 582.896 -0.32308 -1.40329 0
M  V30 6247 H 584.849 1.5541 -3.91696 0
M  V30 6248 H 583.572 1.82984 -2.70526 0
M  V30 6249 H 582.231 -0.0743687 -3.66525 0
M  V30 6250 H 581.88 2.25877 -4.49431 0
M  V30 6251 H 581.58 1.06188 -5.77926 0
M  V30 6252 H 583.104 1.99427 -5.77115 0
M  V30 6253 H 584.518 -0.276724 -5.72632 0
M  V30 6254 H 582.915 -1.04652 -5.90904 0
M  V30 6255 H 583.985 -1.55884 -4.5916 0
M  V30 6256 N 585.328 1.53329 -0.364422 0
M  V30 6257 C 586.574 2.01537 0.225969 0
M  V30 6258 C 586.907 1.25128 1.48515 0
M  V30 6259 O 586.182 0.344653 1.91422 0
M  V30 6260 C 586.465 3.56339 0.519092 0
M  V30 6261 C 586.318 4.43441 -0.753639 0
M  V30 6262 C 587.637 4.19833 1.32015 0
M  V30 6263 H 584.756 0.732573 0.0806548 0
M  V30 6264 H 587.398 1.83597 -0.489084 0
M  V30 6265 H 585.548 3.71756 1.12825 0
M  V30 6266 H 587.22 4.39823 -1.39116 0
M  V30 6267 H 585.463 4.11457 -1.37424 0
M  V30 6268 H 586.134 5.49699 -0.503517 0
M  V30 6269 H 588.61 4.08242 0.804859 0
M  V30 6270 H 587.486 5.28177 1.49399 0
M  V30 6271 H 587.747 3.75821 2.32832 0
M  V30 6272 N 586.806 0.0935595 1.57322 0
M  V30 6273 C 588.052 -0.565234 1.95388 0
M  V30 6274 C 588.407 -1.65888 0.974632 0
M  V30 6275 O 587.7 -1.916 0.000376385 0
M  V30 6276 C 587.894 -1.16692 3.37813 0
M  V30 6277 C 587.723 -0.133091 4.49503 0
M  V30 6278 C 586.493 0.289884 5.04468 0
M  V30 6279 C 588.691 0.638141 5.10326 0
M  V30 6280 N 586.673 1.31214 5.99713 0
M  V30 6281 C 588.044 1.51227 6.01274 0
M  V30 6282 C 590.099 0.691827 4.9307 0
M  V30 6283 C 588.802 2.43536 6.76818 0
M  V30 6284 C 590.828 1.60251 5.69274 0
M  V30 6285 C 590.19 2.46427 6.59889 0
M  V30 6286 H 586.289 -0.177212 0.761656 0
M  V30 6287 H 588.873 0.175769 1.93905 0
M  V30 6288 H 587.044 -1.87775 3.39993 0
M  V30 6289 H 588.776 -1.78795 3.63063 0
M  V30 6290 H 585.531 -0.0975541 4.735 0
M  V30 6291 H 585.955 1.82143 6.52038 0
M  V30 6292 H 590.597 0.0397431 4.22781 0
M  V30 6293 H 588.315 3.0977 7.4637 0
M  V30 6294 H 591.901 1.64917 5.57937 0
M  V30 6295 H 590.781 3.15751 7.17824 0
M  V30 6296 N 588.284 -1.56567 -0.180126 0
M  V30 6297 C 589.232 -1.96632 -1.24251 0
M  V30 6298 C 590.226 -0.853818 -1.46309 0
M  V30 6299 O 591.432 -1.0389 -1.46993 0
M  V30 6300 H 587.807 -0.625476 -0.417473 0
M  V30 6301 H 589.778 -2.85201 -0.877679 0
M  V30 6302 C 588.527 -2.33486 -2.57642 0
M  V30 6303 H 587.85 -3.18626 -2.4149 0
M  V30 6304 H 589.29 -2.65371 -3.30688 0
M  V30 6305 C 587.749 -1.17499 -3.15746 0
M  V30 6306 O 588.279 -0.457956 -3.99081 0
M  V30 6307 N 586.485 -0.94786 -2.74707 0
M  V30 6308 H 586.032 -1.53269 -2.07042 0
M  V30 6309 H 585.99 -0.173626 -3.1392 0
M  V30 6310 N 589.762 0.448376 -1.51087 0
M  V30 6311 C 590.99 1.22143 -1.66999 0
M  V30 6312 C 591.405 1.85283 -0.362699 0
M  V30 6313 O 590.762 1.70236 0.65772 0
M  V30 6314 C 590.813 2.31357 -2.7777 0
M  V30 6315 O 590.534 1.70801 -4.03434 0
M  V30 6316 C 592.035 3.21836 -3.04855 0
M  V30 6317 H 589.255 0.368558 -0.560719 0
M  V30 6318 H 591.799 0.532618 -1.97442 0
M  V30 6319 H 589.954 2.95973 -2.49958 0
M  V30 6320 H 590.368 2.42895 -4.64868 0
M  V30 6321 H 591.842 3.94627 -3.85971 0
M  V30 6322 H 592.319 3.81949 -2.16821 0
M  V30 6323 H 592.925 2.62933 -3.34285 0
M  V30 6324 N 591.24 1.41047 0.703093 0
M  V30 6325 C 592.172 1.38228 1.82827 0
M  V30 6326 C 593.185 0.285637 1.60275 0
M  V30 6327 O 594.374 0.54685 1.69917 0
M  V30 6328 C 591.474 1.13136 3.19458 0
M  V30 6329 C 590.647 2.34695 3.69103 0
M  V30 6330 C 589.706 2.05574 4.84382 0
M  V30 6331 O 588.732 2.78549 4.96386 0
M  V30 6332 N 589.934 1.04135 5.71083 0
M  V30 6333 H 592.699 2.35203 1.85741 0
M  V30 6334 H 590.26 1.35562 0.885125 0
M  V30 6335 H 592.252 0.916183 3.94193 0
M  V30 6336 H 590.822 0.247836 3.11616 0
M  V30 6337 H 590.042 2.71963 2.85359 0
M  V30 6338 H 591.33 3.15705 3.99009 0
M  V30 6339 H 590.728 0.43722 5.64008 0
M  V30 6340 H 589.285 0.886078 6.45749 0
M  V30 6341 N 592.718 -0.936591 1.26751 0
M  V30 6342 C 593.943 -1.72288 1.15462 0
M  V30 6343 C 594.368 -1.85915 -0.285887 0
M  V30 6344 O 593.726 -1.35272 -1.20711 0
M  V30 6345 C 593.774 -3.10503 1.83359 0
M  V30 6346 O 592.878 -3.96745 1.1255 0
M  V30 6347 H 592.219 -0.52843 0.402067 0
M  V30 6348 H 594.749 -1.17271 1.67656 0
M  V30 6349 H 594.759 -3.60867 1.90365 0
M  V30 6350 H 593.434 -2.99901 2.88153 0
M  V30 6351 H 592.011 -3.55191 1.13551 0
M  V30 6352 N 594.196 -1.08629 -1.14182 0
M  V30 6353 C 595.421 -0.83902 -1.89671 0
M  V30 6354 C 595.846 0.603332 -1.78161 0
M  V30 6355 O 595.204 1.42301 -1.12339 0
M  V30 6356 C 595.252 -1.26854 -3.37551 0
M  V30 6357 O 594.356 -0.42188 -4.10236 0
M  V30 6358 H 593.697 -0.304545 -0.590041 0
M  V30 6359 H 596.227 -1.4483 -1.44518 0
M  V30 6360 H 596.237 -1.25038 -3.88368 0
M  V30 6361 H 594.912 -2.31901 -3.45246 0
M  V30 6362 H 593.489 -0.503654 -3.69483 0
M  V30 6363 N 595.674 1.31259 -0.872281 0
M  V30 6364 C 596.899 2.0133 -0.498099 0
M  V30 6365 C 597.324 1.65031 0.902568 0
M  V30 6366 O 596.682 0.860164 1.59596 0
M  V30 6367 C 596.73 3.54411 -0.665205 0
M  V30 6368 O 595.834 4.11347 0.294473 0
M  V30 6369 H 595.175 0.633844 -0.197832 0
M  V30 6370 H 597.705 1.67402 -1.17633 0
M  V30 6371 H 597.715 4.04147 -0.559373 0
M  V30 6372 H 596.39 3.80171 -1.68651 0
M  V30 6373 H 594.967 3.72624 0.143403 0
M  V30 6374 N 597.152 0.631951 1.44375 0
M  V30 6375 C 598.082 -0.0593243 2.33425 0
M  V30 6376 C 599.063 -0.833964 1.48253 0
M  V30 6377 O 600.248 -0.799682 1.76971 0
M  V30 6378 C 597.378 -1.04096 3.31333 0
M  V30 6379 C 596.332 -0.377899 4.26328 0
M  V30 6380 C 595.658 -1.4695 5.14111 0
M  V30 6381 C 596.958 0.716371 5.17364 0
M  V30 6382 H 598.652 0.684287 2.91475 0
M  V30 6383 H 596.198 0.330518 1.40156 0
M  V30 6384 H 598.151 -1.53331 3.92514 0
M  V30 6385 H 596.875 -1.81547 2.71493 0
M  V30 6386 H 595.534 0.0938054 3.6648 0
M  V30 6387 H 595.182 -2.2349 4.50623 0
M  V30 6388 H 594.882 -1.03121 5.78481 0
M  V30 6389 H 596.406 -1.96363 5.78164 0
M  V30 6390 H 597.82 0.307089 5.72477 0
M  V30 6391 H 596.217 1.07784 5.90341 0
M  V30 6392 H 597.287 1.58316 4.58327 0
M  V30 6393 N 598.631 -1.53133 0.372548 0
M  V30 6394 C 599.563 -2.23557 -0.505444 0
M  V30 6395 C 600.576 -1.25211 -1.04049 0
M  V30 6396 O 601.765 -1.51391 -0.945675 0
M  V30 6397 C 598.865 -2.92516 -1.71136 0
M  V30 6398 C 598.038 -4.17428 -1.30661 0
M  V30 6399 C 597.097 -4.69535 -2.37536 0
M  V30 6400 O 596.123 -5.33042 -1.99637 0
M  V30 6401 N 597.325 -4.47947 -3.6922 0
M  V30 6402 H 600.09 -2.9954 0.0978259 0
M  V30 6403 H 597.651 -1.60684 0.198068 0
M  V30 6404 H 599.643 -3.24281 -2.42124 0
M  V30 6405 H 598.213 -2.19944 -2.22134 0
M  V30 6406 H 597.433 -3.91888 -0.426292 0
M  V30 6407 H 598.721 -4.98622 -1.01259 0
M  V30 6408 H 598.119 -3.97219 -4.02783 0
M  V30 6409 H 596.676 -4.84245 -4.36292 0
M  V30 6410 N 600.109 -0.101901 -1.5727 0
M  V30 6411 C 601.072 0.840129 -2.13247 0
M  V30 6412 C 602.072 1.20625 -1.06331 0
M  V30 6413 O 603.262 1.13456 -1.32186 0
M  V30 6414 C 600.394 2.13372 -2.65867 0
M  V30 6415 H 601.587 0.353945 -2.97804 0
M  V30 6416 H 599.14 0.147167 -1.55606 0
M  V30 6417 H 599.875 2.66461 -1.84849 0
M  V30 6418 H 599.66 1.88085 -3.44044 0
M  V30 6419 H 601.15 2.80748 -3.09145 0
M  V30 6420 N 601.587 1.56661 0.17182 0
M  V30 6421 C 602.815 1.861 0.904115 0
M  V30 6422 C 603.23 0.687227 1.75848 0
M  V30 6423 O 602.587 -0.343671 1.79235 0
M  V30 6424 C 602.638 3.14568 1.78127 0
M  V30 6425 O 602.359 4.27422 0.961366 0
M  V30 6426 C 603.86 3.5735 2.62327 0
M  V30 6427 H 601.08 0.617445 0.262684 0
M  V30 6428 H 603.624 2.03775 0.172068 0
M  V30 6429 H 601.779 2.98721 2.46666 0
M  V30 6430 H 602.193 5.00725 1.56123 0
M  V30 6431 H 603.667 4.50144 3.1949 0
M  V30 6432 H 604.144 2.81445 3.37173 0
M  V30 6433 H 604.75 3.75807 1.99121 0
M  V30 6434 N 603.065 -0.440357 1.51323 0
M  V30 6435 C 604.476 -1.02032 1.56353 0
M  V30 6436 C 604.827 -1.92382 0.385197 0
M  V30 6437 O 603.952 -2.10583 -0.498373 0
M  V30 6438 C 604.547 -1.85723 2.83359 0
M  V30 6439 C 603.106 -2.38774 2.90971 0
M  V30 6440 C 602.253 -1.17908 2.50984 0
M  V30 6441 H 605.204 -0.221744 1.57143 0
M  V30 6442 H 605.225 -2.71141 2.66951 0
M  V30 6443 H 604.737 -1.19939 3.69102 0
M  V30 6444 H 602.838 -3.08021 2.09651 0
M  V30 6445 H 602.951 -2.71778 3.94555 0
M  V30 6446 H 601.315 -1.52347 2.04114 0
M  V30 6447 H 602.098 -0.537393 3.39068 0
M  V30 6448 N 604.543 -1.41418 -0.695603 0
M  V30 6449 C 605.768 -1.44329 -1.48942 0
M  V30 6450 C 606.193 -0.0501579 -1.88033 0
M  V30 6451 O 605.551 0.946598 -1.54626 0
M  V30 6452 C 605.599 -2.3578 -2.72837 0
M  V30 6453 O 604.703 -1.81482 -3.70322 0
M  V30 6454 H 604.044 -0.489838 -0.44828 0
M  V30 6455 H 606.574 -1.85878 -0.855014 0
M  V30 6456 H 606.584 -2.51654 -3.21145 0
M  V30 6457 H 605.259 -3.37005 -2.43722 0
M  V30 6458 H 603.836 -1.75058 -3.29255 0
M  V30 6459 N 606.021 0.929856 -1.27246 0
M  V30 6460 C 607.246 1.71674 -1.16374 0
M  V30 6461 C 607.671 1.86064 0.276024 0
M  V30 6462 O 607.029 1.3591 1.19992 0
M  V30 6463 C 607.077 3.09526 -1.85003 0
M  V30 6464 O 606.181 3.96142 -1.14653 0
M  V30 6465 H 605.522 0.52629 -0.404863 0
M  V30 6466 H 608.052 1.16381 -1.68276 0
M  V30 6467 H 608.062 3.59852 -1.92276 0
M  V30 6468 H 606.737 2.98369 -2.89739 0
M  V30 6469 H 605.314 3.54584 -1.15433 0
M  V30 6470 N 607.499 1.09233 1.13605 0
M  V30 6471 C 608.748 0.82205 1.84188 0
M  V30 6472 C 609.061 -0.654548 1.84323 0
M  V30 6473 O 610.267 -1.04029 2.50779 0
M  V30 6474 C 608.723 1.42066 3.30674 0
M  V30 6475 C 608.331 2.92965 3.38933 0
M  V30 6476 C 610.075 1.22924 4.06313 0
M  V30 6477 C 607.982 3.45922 4.79679 0
M  V30 6478 H 606.912 0.303854 0.690064 0
M  V30 6479 H 609.563 1.31479 1.28006 0
M  V30 6480 H 607.945 0.855613 3.86646 0
M  V30 6481 H 609.119 3.55679 2.92966 0
M  V30 6482 H 607.434 3.11118 2.76757 0
M  V30 6483 H 610.031 1.59945 5.10217 0
M  V30 6484 H 610.374 0.169726 4.15954 0
M  V30 6485 H 610.907 1.76168 3.56665 0
M  V30 6486 H 607.646 4.51484 4.75229 0
M  V30 6487 H 607.166 2.87971 5.26149 0
M  V30 6488 H 608.845 3.43009 5.48592 0
M  V30 6489 N 608.977 -1.30795 0.87923 0
M  V30 6490 C 609.907 -2.30742 0.357796 0
M  V30 6491 C 610.888 -1.60747 -0.556283 0
M  V30 6492 O 612.073 -1.88393 -0.47135 0
M  V30 6493 C 609.203 -3.44583 -0.433555 0
M  V30 6494 C 608.157 -4.26235 0.388251 0
M  V30 6495 C 607.483 -5.32073 -0.529352 0
M  V30 6496 C 608.783 -4.96303 1.62729 0
M  V30 6497 H 610.477 -2.74605 1.19299 0
M  V30 6498 H 608.023 -1.32017 0.575104 0
M  V30 6499 H 609.976 -4.13563 -0.808934 0
M  V30 6500 H 608.7 -2.99511 -1.30234 0
M  V30 6501 H 607.359 -3.58936 0.745695 0
M  V30 6502 H 607.007 -4.83249 -1.39569 0
M  V30 6503 H 606.707 -5.87598 0.0166741 0
M  V30 6504 H 608.231 -6.0391 -0.901373 0
M  V30 6505 H 609.645 -5.5783 1.32283 0
M  V30 6506 H 608.042 -5.61666 2.11309 0
M  V30 6507 H 609.112 -4.22758 2.37494 0
M  V30 6508 N 610.455 -0.639598 -1.44038 0
M  V30 6509 C 611.732 -0.078012 -1.95444 0
M  V30 6510 C 612.112 1.39847 -1.58133 0
M  V30 6511 O 611.46 2.11714 -0.859614 0
M  V30 6512 C 611.67 -0.309832 -3.47622 0
M  V30 6513 C 613.018 -0.207521 -4.24093 0
M  V30 6514 O 614.042 -0.241653 -3.55379 0
M  V30 6515 O 612.901 -0.119641 -5.46369 0
M  V30 6516 H 609.995 0.0174534 -0.826816 0
M  V30 6517 H 612.541 -0.711891 -1.54046 0
M  V30 6518 H 611.313 -1.33401 -3.67858 0
M  V30 6519 H 610.936 0.357777 -3.95987 0
M  V30 6520 N 611.933 1.52934 -0.380664 0
M  V30 6521 C 612.881 2.27727 0.47361 0
M  V30 6522 C 613.875 1.31288 1.0705 0
M  V30 6523 O 615.081 1.4886 1.01197 0
M  V30 6524 H 611.456 0.732189 0.171475 0
M  V30 6525 H 613.427 2.97864 -0.178785 0
M  V30 6526 C 612.176 3.0904 1.59341 0
M  V30 6527 H 611.499 3.831 1.14343 0
M  V30 6528 H 612.939 3.64527 2.16555 0
M  V30 6529 C 611.398 2.20813 2.54447 0
M  V30 6530 O 611.928 1.82907 3.57642 0
M  V30 6531 N 610.134 1.85145 2.23986 0
M  V30 6532 H 609.681 2.16169 1.40103 0
M  V30 6533 H 609.639 1.26402 2.87871 0
M  V30 6534 N 613.412 0.11024 1.57214 0
M  V30 6535 C 614.64 -0.557834 1.99238 0
M  V30 6536 C 615.055 -1.60778 0.989734 0
M  V30 6537 O 614.412 -1.82491 -0.0186092 0
M  V30 6538 C 614.463 -1.19189 3.41286 0
M  V30 6539 O 614.184 -0.183919 4.37714 0
M  V30 6540 C 615.685 -1.94413 3.98395 0
M  V30 6541 H 612.905 -0.148392 0.654386 0
M  V30 6542 H 615.449 0.193996 2.03578 0
M  V30 6543 H 613.604 -1.89456 3.37913 0
M  V30 6544 H 614.018 -0.643475 5.20538 0
M  V30 6545 H 615.492 -2.34116 4.99894 0
M  V30 6546 H 615.969 -2.81592 3.3705 0
M  V30 6547 H 616.575 -1.28928 4.05287 0
M  V30 6548 N 614.89 -1.56749 -0.16351 0
M  V30 6549 C 616.137 -1.82434 -0.878866 0
M  V30 6550 C 616.465 -0.688557 -1.81904 0
M  V30 6551 O 615.72 0.323644 -1.93005 0
M  V30 6552 C 616.019 -3.14342 -1.70071 0
M  V30 6553 C 615.685 -4.41647 -0.908775 0
M  V30 6554 C 614.347 -4.76224 -0.690236 0
M  V30 6555 C 616.699 -5.19998 -0.353815 0
M  V30 6556 C 614.027 -5.86624 0.0942374 0
M  V30 6557 C 616.379 -6.3122 0.41761 0
M  V30 6558 C 615.043 -6.64358 0.646879 0
M  V30 6559 H 614.313 -0.667574 -0.3216 0
M  V30 6560 H 616.96 -1.90963 -0.14337 0
M  V30 6561 H 615.265 -3.0119 -2.50583 0
M  V30 6562 H 616.962 -3.31426 -2.25738 0
M  V30 6563 H 613.552 -4.1453 -1.08916 0
M  V30 6564 H 617.736 -4.93673 -0.509975 0
M  V30 6565 H 612.992 -6.10751 0.281529 0
M  V30 6566 H 617.166 -6.91133 0.854849 0
M  V30 6567 H 614.793 -7.49742 1.25662 0
M  V30 6568 N 616.368 0.432326 -1.51554 0
M  V30 6569 C 617.3 1.54357 -1.6943 0
M  V30 6570 C 618.313 1.52311 -0.574897 0
M  V30 6571 O 619.502 1.56997 -0.849369 0
M  V30 6572 C 616.602 2.93273 -1.69836 0
M  V30 6573 C 615.775 3.19768 -2.98442 0
M  V30 6574 C 614.834 4.38433 -2.90969 0
M  V30 6575 O 613.86 4.36842 -3.64908 0
M  V30 6576 N 615.062 5.42276 -2.07163 0
M  V30 6577 H 617.827 1.39426 -2.65293 0
M  V30 6578 H 615.388 0.621331 -1.49503 0
M  V30 6579 H 617.38 3.70687 -1.62399 0
M  V30 6580 H 615.95 3.01777 -0.815456 0
M  V30 6581 H 615.17 2.30607 -3.19709 0
M  V30 6582 H 616.458 3.343 -3.83563 0
M  V30 6583 H 615.856 5.46407 -1.46477 0
M  V30 6584 H 614.413 6.18524 -2.05601 0
M  V30 6585 N 617.846 1.41785 0.688094 0
M  V30 6586 C 618.809 1.43936 1.78368 0
M  V30 6587 C 619.809 0.328866 1.57401 0
M  V30 6588 O 620.999 0.589093 1.63937 0
M  V30 6589 C 618.131 1.25804 3.16838 0
M  V30 6590 H 619.324 2.41472 1.77852 0
M  V30 6591 H 616.877 1.28037 0.896448 0
M  V30 6592 H 617.612 0.291386 3.22988 0
M  V30 6593 H 617.397 2.06272 3.33458 0
M  V30 6594 H 618.887 1.30162 3.96797 0
M  V30 6595 N 619.324 -0.923095 1.27737 0
M  V30 6596 C 620.287 -2.00587 1.10894 0
M  V30 6597 C 621.287 -1.60718 0.0514927 0
M  V30 6598 O 622.477 -1.71658 0.296481 0
M  V30 6599 C 619.609 -3.33829 0.690717 0
M  V30 6600 H 620.802 -2.16959 2.07048 0
M  V30 6601 H 618.355 -1.10451 1.1059 0
M  V30 6602 H 619.09 -3.23157 -0.272 0
M  V30 6603 H 618.875 -3.64125 1.45448 0
M  V30 6604 H 620.365 -4.13336 0.595252 0
M  V30 6605 N 620.802 -1.09834 -1.13024 0
M  V30 6606 C 622.048 -0.848072 -1.84876 0
M  V30 6607 C 622.403 0.619663 -1.82148 0
M  V30 6608 O 621.696 1.45067 -1.25164 0
M  V30 6609 C 621.89 -1.32263 -3.32026 0
M  V30 6610 C 621.719 -2.83497 -3.49084 0
M  V30 6611 C 620.489 -3.51425 -3.63082 0
M  V30 6612 C 622.687 -3.81623 -3.44773 0
M  V30 6613 N 620.669 -4.91042 -3.68443 0
M  V30 6614 C 622.04 -5.07217 -3.56555 0
M  V30 6615 C 624.095 -3.74419 -3.282 0
M  V30 6616 C 622.798 -6.26457 -3.53474 0
M  V30 6617 C 624.824 -4.93151 -3.26429 0
M  V30 6618 C 624.186 -6.1759 -3.38765 0
M  V30 6619 H 620.285 -0.363249 -0.692513 0
M  V30 6620 H 622.869 -1.39952 -1.35357 0
M  V30 6621 H 621.04 -0.79858 -3.80102 0
M  V30 6622 H 622.772 -1.01725 -3.91707 0
M  V30 6623 H 619.527 -3.0186 -3.64935 0
M  V30 6624 H 619.951 -5.63782 -3.74805 0
M  V30 6625 H 624.593 -2.79132 -3.17561 0
M  V30 6626 H 622.311 -7.22039 -3.62884 0
M  V30 6627 H 625.897 -4.8928 -3.14796 0
M  V30 6628 H 624.777 -7.07925 -3.37361 0
M  V30 6629 N 622.28 1.30327 -0.886154 0
M  V30 6630 C 623.691 1.78243 -0.555554 0
M  V30 6631 C 624.042 1.72849 0.928314 0
M  V30 6632 O 623.167 1.30607 1.72542 0
M  V30 6633 C 623.762 3.23654 -1.00168 0
M  V30 6634 C 622.321 3.69401 -0.722471 0
M  V30 6635 C 621.468 2.50753 -1.18399 0
M  V30 6636 H 624.419 1.1718 -1.07026 0
M  V30 6637 H 624.44 3.79056 -0.331152 0
M  V30 6638 H 623.952 3.27548 -2.08169 0
M  V30 6639 H 622.053 3.70995 0.345496 0
M  V30 6640 H 622.166 4.60818 -1.31085 0
M  V30 6641 H 620.53 2.47452 -0.603303 0
M  V30 6642 H 621.313 2.57383 -2.27176 0
M  V30 6643 N 623.758 0.647228 1.43697 0
M  V30 6644 C 624.983 0.164083 2.0675 0
M  V30 6645 C 625.408 -1.15892 1.48158 0
M  V30 6646 O 624.766 -1.71459 0.589194 0
M  V30 6647 C 624.814 0.0800368 3.60511 0
M  V30 6648 O 623.918 -0.959453 4.01084 0
M  V30 6649 H 623.259 0.0921288 0.657578 0
M  V30 6650 H 625.789 0.88846 1.84303 0
M  V30 6651 H 625.799 -0.105263 4.07864 0
M  V30 6652 H 624.474 1.04586 4.02535 0
M  V30 6653 H 623.051 -0.747425 3.65333 0
M  V30 6654 N 625.236 -1.5273 0.388769 0
M  V30 6655 C 626.199 -2.25043 -0.434544 0
M  V30 6656 C 627.199 -1.26661 -0.990644 0
M  V30 6657 O 628.389 -1.50762 -0.872731 0
M  V30 6658 C 625.521 -3.00507 -1.60961 0
M  V30 6659 H 626.714 -2.99242 0.198549 0
M  V30 6660 H 624.267 -1.55664 0.140875 0
M  V30 6661 H 625.002 -2.30607 -2.28015 0
M  V30 6662 H 624.787 -3.72716 -1.21757 0
M  V30 6663 H 626.277 -3.55413 -2.19251 0
M  V30 6664 N 626.714 -0.118576 -1.57153 0
M  V30 6665 C 627.991 0.583062 -1.86708 0
M  V30 6666 C 628.371 1.84841 -1.01967 0
M  V30 6667 O 627.719 2.28288 -0.0984673 0
M  V30 6668 C 627.929 0.875912 -3.3783 0
M  V30 6669 C 629.277 1.22916 -4.0642 0
M  V30 6670 O 630.301 0.966188 -3.42846 0
M  V30 6671 O 629.16 1.72269 -5.18638 0
M  V30 6672 H 626.254 0.294185 -0.772906 0
M  V30 6673 H 628.8 -0.153048 -1.69008 0
M  V30 6674 H 627.572 -0.0207776 -3.91294 0
M  V30 6675 H 627.195 1.66719 -3.60958 0
M  V30 6676 N 628.193 1.56834 0.155195 0
M  V30 6677 C 629.103 2.009 1.21146 0
M  V30 6678 C 630.119 0.923029 1.475 0
M  V30 6679 O 631.295 1.23189 1.59331 0
M  V30 6680 C 628.36 2.37378 2.52691 0
M  V30 6681 C 627.421 3.59883 2.34057 0
M  V30 6682 C 626.654 3.94612 3.59329 0
M  V30 6683 O 626.877 3.30104 4.65175 0
M  V30 6684 O 625.811 4.87895 3.52479 0
M  V30 6685 H 629.637 2.9105 0.867371 0
M  V30 6686 H 627.222 1.44916 0.363298 0
M  V30 6687 H 629.104 2.61737 3.3026 0
M  V30 6688 H 627.779 1.50385 2.86646 0
M  V30 6689 H 626.686 3.40722 1.54465 0
M  V30 6690 H 628.019 4.47468 2.0502 0
M  V30 6691 N 629.671 -0.424282 1.51781 0
M  V30 6692 C 630.896 -1.19928 1.6921 0
M  V30 6693 C 631.321 -1.8392 0.394355 0
M  V30 6694 O 630.679 -1.69371 -0.646778 0
M  V30 6695 C 630.727 -2.24937 2.81843 0
M  V30 6696 O 629.831 -3.3073 2.46356 0
M  V30 6697 H 629.172 -0.35078 0.563781 0
M  V30 6698 H 631.702 -0.499401 1.98412 0
M  V30 6699 H 631.712 -2.69512 3.06312 0
M  V30 6700 H 630.387 -1.77742 3.76006 0
M  V30 6701 H 628.964 -2.9154 2.32505 0
M  V30 6702 N 631.149 -1.42148 -0.680565 0
M  V30 6703 C 632.398 -1.41604 -1.43636 0
M  V30 6704 C 632.711 -0.0337887 -1.95571 0
M  V30 6705 O 633.917 0.0942588 -2.71336 0
M  V30 6706 C 632.373 -2.49056 -2.59806 0
M  V30 6707 C 631.981 -3.9326 -2.14594 0
M  V30 6708 C 633.725 -2.5767 -3.37352 0
M  V30 6709 C 631.632 -4.92232 -3.27813 0
M  V30 6710 H 630.562 -0.526656 -0.539583 0
M  V30 6711 H 633.213 -1.68033 -0.737369 0
M  V30 6712 H 631.595 -2.15782 -3.32045 0
M  V30 6713 H 632.769 -4.35858 -1.49546 0
M  V30 6714 H 631.084 -3.88443 -1.50002 0
M  V30 6715 H 633.681 -3.28794 -4.21662 0
M  V30 6716 H 634.024 -1.61837 -3.83555 0
M  V30 6717 H 634.557 -2.90109 -2.72179 0
M  V30 6718 H 631.296 -5.89522 -2.86607 0
M  V30 6719 H 630.816 -4.5427 -3.91661 0
M  V30 6720 H 632.495 -5.13684 -3.93367 0
M  V30 6721 N 632.627 0.916307 -1.28225 0
M  V30 6722 C 633.855 1.69901 -1.18073 0
M  V30 6723 C 634.27 1.86988 0.260968 0
M  V30 6724 O 633.627 1.39505 1.17663 0
M  V30 6725 C 633.678 3.09254 -1.87201 0
M  V30 6726 O 633.399 2.92959 -3.2574 0
M  V30 6727 C 634.9 4.0362 -1.83319 0
M  V30 6728 H 632.12 0.531181 -0.409985 0
M  V30 6729 H 634.664 1.14703 -1.69303 0
M  V30 6730 H 632.819 3.61277 -1.39848 0
M  V30 6731 H 633.233 3.81139 -3.60324 0
M  V30 6732 H 634.707 4.98873 -2.36282 0
M  V30 6733 H 635.184 4.3176 -0.805007 0
M  V30 6734 H 635.79 3.57524 -2.3034 0
M  V30 6735 N 634.105 1.10431 1.1244 0
M  V30 6736 C 635.33 0.869089 1.88313 0
M  V30 6737 C 635.755 -0.574912 1.79099 0
M  V30 6738 O 635.113 -1.40496 1.14589 0
M  V30 6739 C 635.161 1.32208 3.3549 0
M  V30 6740 O 634.265 0.487092 4.09513 0
M  V30 6741 H 633.606 0.313894 0.585121 0
M  V30 6742 H 636.136 1.47111 1.42195 0
M  V30 6743 H 636.146 1.31201 3.86329 0
M  V30 6744 H 634.821 2.37364 3.41513 0
M  V30 6745 H 633.398 0.562372 3.68635 0
M  V30 6746 N 635.583 -1.29855 0.893053 0
M  V30 6747 C 636.808 -2.00512 0.530066 0
M  V30 6748 C 637.233 -1.66446 -0.876199 0
M  V30 6749 O 636.591 -0.885446 -1.58207 0
M  V30 6750 C 636.639 -3.53308 0.721505 0
M  V30 6751 O 635.743 -4.11764 -0.228994 0
M  V30 6752 H 635.084 -0.630617 0.207891 0
M  V30 6753 H 637.614 -1.6551 1.20282 0
M  V30 6754 H 637.624 -4.03206 0.623599 0
M  V30 6755 H 636.299 -3.77439 1.74678 0
M  V30 6756 H 634.876 -3.72805 -0.0841034 0
M  V30 6757 N 637.061 -0.65484 -1.43351 0
M  V30 6758 C 638.31 -0.166215 -2.01014 0
M  V30 6759 C 638.623 1.22764 -1.52278 0
M  V30 6760 O 639.829 1.81156 -2.02224 0
M  V30 6761 C 638.285 -0.246341 -3.59056 0
M  V30 6762 C 637.893 -1.64299 -4.16785 0
M  V30 6763 C 639.637 0.184597 -4.24098 0
M  V30 6764 C 637.544 -1.67695 -5.67126 0
M  V30 6765 H 636.474 -0.0583769 -0.751737 0
M  V30 6766 H 639.125 -0.817111 -1.64303 0
M  V30 6767 H 637.507 0.472092 -3.93176 0
M  V30 6768 H 638.681 -2.3869 -3.94162 0
M  V30 6769 H 636.996 -2.02004 -3.6412 0
M  V30 6770 H 639.593 0.179088 -5.344 0
M  V30 6771 H 639.936 1.21632 -3.98135 0
M  V30 6772 H 640.469 -0.482141 -3.94867 0
M  V30 6773 H 637.208 -2.68783 -5.9786 0
M  V30 6774 H 636.728 -0.976313 -5.91801 0
M  V30 6775 H 638.407 -1.42142 -6.31193 0
M  V30 6776 N 638.539 1.52521 -0.396863 0
M  V30 6777 C 639.95 1.86547 0.0754868 0
M  V30 6778 C 640.301 1.31621 1.45501 0
M  V30 6779 O 639.426 0.650563 2.0639 0
M  V30 6780 C 640.021 3.38495 0.143754 0
M  V30 6781 C 638.58 3.72205 0.560413 0
M  V30 6782 C 637.727 2.75954 -0.272856 0
M  V30 6783 H 640.678 1.46323 -0.614434 0
M  V30 6784 H 640.699 3.68153 0.961425 0
M  V30 6785 H 640.211 3.78442 -0.860415 0
M  V30 6786 H 638.312 3.3783 1.57167 0
M  V30 6787 H 638.425 4.78074 0.313314 0
M  V30 6788 H 636.789 2.53339 0.263 0
M  V30 6789 H 637.572 3.1874 -1.27515 0
M  V30 6790 N 640.017 0.126909 1.57088 0
M  V30 6791 C 641.428 -0.397201 1.82426 0
M  V30 6792 C 641.779 -1.66084 1.04453 0
M  V30 6793 O 640.904 -2.14534 0.283552 0
M  V30 6794 C 641.499 -0.727411 3.30899 0
M  V30 6795 C 640.058 -1.19612 3.56889 0
M  V30 6796 C 639.205 -0.20885 2.76512 0
M  V30 6797 H 642.156 0.351924 1.54749 0
M  V30 6798 H 642.177 -1.58407 3.45959 0
M  V30 6799 H 641.689 0.19247 3.87622 0
M  V30 6800 H 639.79 -2.13263 3.05532 0
M  V30 6801 H 639.903 -1.13598 4.65438 0
M  V30 6802 H 638.267 -0.697479 2.44964 0
M  V30 6803 H 639.05 0.704267 3.35998 0
M  V30 6804 N 641.495 -1.56914 -0.146875 0
M  V30 6805 C 642.425 -2.01308 -1.1831 0
M  V30 6806 C 643.406 -0.892664 -1.44795 0
M  V30 6807 O 644.591 -1.16048 -1.55713 0
M  V30 6808 C 641.721 -2.3938 -2.51624 0
M  V30 6809 C 640.675 -3.54608 -2.3966 0
M  V30 6810 C 640.001 -3.78493 -3.77686 0
M  V30 6811 C 641.301 -4.87269 -1.88058 0
M  V30 6812 H 642.995 -2.88123 -0.813964 0
M  V30 6813 H 640.541 -1.38615 -0.3901 0
M  V30 6814 H 642.494 -2.69037 -3.24341 0
M  V30 6815 H 641.218 -1.49502 -2.90373 0
M  V30 6816 H 639.877 -3.25116 -1.69396 0
M  V30 6817 H 639.525 -2.85866 -4.13871 0
M  V30 6818 H 639.225 -4.56039 -3.70543 0
M  V30 6819 H 640.749 -4.10576 -4.51951 0
M  V30 6820 H 642.163 -5.15644 -2.50568 0
M  V30 6821 H 640.56 -5.68622 -1.91805 0
M  V30 6822 H 641.63 -4.77634 -0.836277 0
M  V30 6823 N 642.974 0.416227 -1.52004 0
M  V30 6824 C 644.251 1.17637 -1.56272 0
M  V30 6825 C 644.631 2.08352 -0.339493 0
M  V30 6826 O 643.979 2.1833 0.674124 0
M  V30 6827 C 644.189 1.95986 -2.88774 0
M  V30 6828 C 645.537 2.52299 -3.41512 0
M  V30 6829 O 646.561 2.06174 -2.90467 0
M  V30 6830 O 645.42 3.3648 -4.30631 0
M  V30 6831 H 642.514 0.536726 -0.629169 0
M  V30 6832 H 645.06 0.423583 -1.64329 0
M  V30 6833 H 643.832 1.29487 -3.69254 0
M  V30 6834 H 643.455 2.78285 -2.83978 0
M  V30 6835 N 644.452 1.42507 0.673017 0
M  V30 6836 C 645.699 1.43072 1.43306 0
M  V30 6837 C 646.027 0.0478004 1.94441 0
M  V30 6838 O 645.282 -0.944106 1.71421 0
M  V30 6839 C 645.581 2.40351 2.64511 0
M  V30 6840 C 645.247 3.8669 2.31908 0
M  V30 6841 C 643.909 4.26551 2.22728 0
M  V30 6842 C 646.261 4.78991 2.05467 0
M  V30 6843 C 643.589 5.56691 1.85234 0
M  V30 6844 C 645.941 6.09476 1.69477 0
M  V30 6845 C 644.605 6.48334 1.58808 0
M  V30 6846 H 643.875 0.523536 0.524395 0
M  V30 6847 H 646.522 1.75459 0.76723 0
M  V30 6848 H 644.827 2.01297 3.36135 0
M  V30 6849 H 646.524 2.38051 3.22696 0
M  V30 6850 H 643.114 3.55132 2.39956 0
M  V30 6851 H 647.298 4.48982 2.11492 0
M  V30 6852 H 642.554 5.85657 1.75545 0
M  V30 6853 H 646.728 6.80482 1.48043 0
M  V30 6854 H 644.355 7.49084 1.29525 0
M  V30 6855 N 645.93 -0.909495 1.28709 0
M  V30 6856 C 647.155 -1.69801 1.1909 0
M  V30 6857 C 647.58 -1.86479 -0.246388 0
M  V30 6858 O 646.938 -1.37802 -1.17815 0
M  V30 6859 C 646.986 -3.06543 1.89904 0
M  V30 6860 O 646.09 -3.94268 1.2094 0
M  V30 6861 H 645.431 -0.519783 0.413185 0
M  V30 6862 H 647.961 -1.13689 1.70106 0
M  V30 6863 H 647.971 -3.56748 1.97977 0
M  V30 6864 H 646.646 -2.93722 2.94449 0
M  V30 6865 H 645.223 -3.52702 1.2106 0
M  V30 6866 N 647.408 -1.11026 -1.11852 0
M  V30 6867 C 648.633 -0.879064 -1.87849 0
M  V30 6868 C 649.058 0.565406 -1.79401 0
M  V30 6869 O 648.416 1.39886 -1.15333 0
M  V30 6870 C 648.464 -1.33985 -3.34784 0
M  V30 6871 O 647.568 -0.508803 -4.09249 0
M  V30 6872 H 646.909 -0.316992 -0.583448 0
M  V30 6873 H 649.439 -1.47863 -1.41413 0
M  V30 6874 H 649.449 -1.33248 -3.85628 0
M  V30 6875 H 648.124 -2.39172 -3.40249 0
M  V30 6876 H 646.701 -0.581913 -3.68332 0
M  V30 6877 N 648.886 1.2938 -0.899927 0
M  V30 6878 C 650.134 1.95164 -0.524924 0
M  V30 6879 C 650.455 1.71292 0.931888 0
M  V30 6880 O 649.725 1.04481 1.65712 0
M  V30 6881 H 648.305 0.722133 -0.191135 0
M  V30 6882 H 650.967 1.57628 -1.14627 0
M  V30 6883 H 650.063 3.0397 -0.707711 0
M  V30 6884 N 650.364 0.662433 1.43002 0
M  V30 6885 C 651.775 0.258315 1.84904 0
M  V30 6886 C 652.126 -1.19703 1.55453 0
M  V30 6887 O 651.251 -1.91484 1.00811 0
M  V30 6888 C 651.846 0.462047 3.35635 0
M  V30 6889 C 650.405 0.112165 3.76233 0
M  V30 6890 C 649.552 0.760479 2.66668 0
M  V30 6891 H 652.503 0.865467 1.33024 0
M  V30 6892 H 652.524 -0.289646 3.79396 0
M  V30 6893 H 652.036 1.52135 3.57039 0
M  V30 6894 H 650.137 -0.944179 3.60439 0
M  V30 6895 H 650.25 0.544058 4.76001 0
M  V30 6896 H 648.614 0.192887 2.53969 0
M  V30 6897 H 649.397 1.82299 2.90898 0
M  V30 6898 N 651.842 -1.52309 0.404946 0
M  V30 6899 C 653.253 -1.86585 -0.0655926 0
M  V30 6900 C 653.604 -1.3239 -1.44801 0
M  V30 6901 O 652.729 -0.6615 -2.06042 0
M  V30 6902 C 653.324 -3.38566 -0.125801 0
M  V30 6903 C 651.883 -3.72497 -0.540666 0
M  V30 6904 C 651.03 -2.75806 0.287487 0
M  V30 6905 H 653.981 -1.45995 0.622185 0
M  V30 6906 H 654.002 -3.68658 -0.941888 0
M  V30 6907 H 653.514 -3.77981 0.880473 0
M  V30 6908 H 651.615 -3.38659 -1.55373 0
M  V30 6909 H 651.728 -4.78234 -0.287956 0
M  V30 6910 H 650.092 -2.53474 -0.249561 0
M  V30 6911 H 650.875 -3.18059 1.29203 0
M  V30 6912 N 653.32 -0.135238 -1.57019 0
M  V30 6913 C 654.545 0.529343 -2.00531 0
M  V30 6914 C 654.97 1.58391 -1.01459 0
M  V30 6915 O 654.328 1.81296 0.0113986 0
M  V30 6916 C 654.376 1.11748 -3.42848 0
M  V30 6917 O 653.48 2.23267 -3.46736 0
M  V30 6918 H 652.821 0.130669 -0.651016 0
M  V30 6919 H 655.351 -0.228503 -2.0332 0
M  V30 6920 H 655.361 1.44905 -3.81401 0
M  V30 6921 H 654.036 0.345147 -4.14465 0
M  V30 6922 H 652.613 1.91428 -3.20015 0
M  V30 6923 N 654.798 1.5699 0.138552 0
M  V30 6924 C 655.761 1.97984 1.15478 0
M  V30 6925 C 656.761 0.867416 1.35398 0
M  V30 6926 O 657.951 1.13387 1.32246 0
M  V30 6927 C 655.083 2.3031 2.51337 0
M  V30 6928 H 656.276 2.88953 0.802896 0
M  V30 6929 H 653.829 1.51555 0.382189 0
M  V30 6930 H 654.564 1.42159 2.91481 0
M  V30 6931 H 654.349 3.11425 2.38237 0
M  V30 6932 H 655.839 2.62834 3.24512 0
M  V30 6933 N 656.276 -0.40816 1.52223 0
M  V30 6934 C 657.504 -1.17672 1.70179 0
M  V30 6935 C 657.919 -1.84257 0.411696 0
M  V30 6936 O 657.276 -1.7192 -0.612354 0
M  V30 6937 C 657.327 -2.23911 2.83806 0
M  V30 6938 O 657.048 -1.60044 4.0782 0
M  V30 6939 C 658.549 -3.1364 3.13281 0
M  V30 6940 H 655.769 -0.353562 0.570293 0
M  V30 6941 H 658.313 -0.480083 1.98785 0
M  V30 6942 H 656.468 -2.89242 2.57717 0
M  V30 6943 H 656.882 -2.30484 4.71145 0
M  V30 6944 H 658.356 -3.84255 3.96298 0
M  V30 6945 H 658.833 -3.76066 2.26872 0
M  V30 6946 H 659.439 -2.53977 3.41139 0
M  V30 6947 N 657.755 -1.42862 -0.66545 0
M  V30 6948 C 659.003 -1.43546 -1.42264 0
M  V30 6949 C 659.324 -0.0563116 -1.94919 0
M  V30 6950 O 658.594 0.906568 -1.73661 0
M  V30 6951 H 657.174 -0.528464 -0.527953 0
M  V30 6952 H 659.836 -1.78363 -0.785665 0
M  V30 6953 H 658.932 -2.14079 -2.27105 0
M  V30 6954 N 659.233 0.902656 -1.29189 0
M  V30 6955 C 660.649 1.18296 -1.07137 0
M  V30 6956 C 660.849 2.00701 0.179223 0
M  V30 6957 O 659.905 2.3675 0.877812 0
M  V30 6958 C 661.218 1.90677 -2.32514 0
M  V30 6959 C 662.766 2.03515 -2.37804 0
M  V30 6960 C 663.241 2.79307 -3.62976 0
M  V30 6961 N 664.732 2.86862 -3.63681 0
M  V30 6962 C 665.467 3.46035 -4.57217 0
M  V30 6963 N 664.963 4.06399 -5.61081 0
M  V30 6964 N 666.756 3.43681 -4.44792 0
M  V30 6965 H 658.907 0.352765 -2.0945 0
M  V30 6966 H 661.17 0.21876 -0.922414 0
M  V30 6967 H 660.876 1.3756 -3.23682 0
M  V30 6968 H 660.75 2.91169 -2.39793 0
M  V30 6969 H 663.137 2.55809 -1.47125 0
M  V30 6970 H 663.218 1.02166 -2.34512 0
M  V30 6971 H 662.862 2.2769 -4.54004 0
M  V30 6972 H 662.792 3.80995 -3.63525 0
M  V30 6973 H 665.283 2.43987 -2.88581 0
M  V30 6974 H 665.596 4.49564 -6.2858 0
M  V30 6975 H 663.941 4.0487 -5.64894 0
M  V30 6976 H 667.132 2.9574 -3.62843 0
M  V30 6977 H 667.305 3.89503 -5.17872 0
M  V30 6978 N 660.711 1.11618 1.11262 0
M  V30 6979 C 661.621 0.78898 2.20935 0
M  V30 6980 C 662.637 -0.21867 1.7262 0
M  V30 6981 O 663.813 -0.0543826 2.01327 0
M  V30 6982 C 660.878 0.239014 3.45875 0
M  V30 6983 C 659.939 1.3055 4.08968 0
M  V30 6984 C 659.172 0.781687 5.27944 0
M  V30 6985 O 659.395 -0.387605 5.69082 0
M  V30 6986 O 658.329 1.54734 5.81671 0
M  V30 6987 H 662.155 1.70477 2.51339 0
M  V30 6988 H 659.74 0.892203 1.19834 0
M  V30 6989 H 661.622 -0.0632312 4.21353 0
M  V30 6990 H 660.297 -0.649454 3.17118 0
M  V30 6991 H 659.204 1.66079 3.35214 0
M  V30 6992 H 660.537 2.16743 4.41909 0
M  V30 6993 N 662.189 -1.289 0.906776 0
M  V30 6994 C 663.119 -2.29932 0.406659 0
M  V30 6995 C 664.1 -1.6189 -0.522061 0
M  V30 6996 O 665.285 -1.8935 -0.431283 0
M  V30 6997 C 662.415 -3.45425 -0.360366 0
M  V30 6998 C 661.369 -4.25316 0.478574 0
M  V30 6999 C 660.695 -5.33076 -0.416373 0
M  V30 7000 C 661.995 -4.92739 1.7322 0
M  V30 7001 H 663.689 -2.72013 1.25097 0
M  V30 7002 H 661.235 -1.30768 0.602977 0
M  V30 7003 H 663.188 -4.15186 -0.721029 0
M  V30 7004 H 661.912 -3.02206 -1.23852 0
M  V30 7005 H 660.571 -3.57273 0.821662 0
M  V30 7006 H 660.219 -4.86101 -1.29287 0
M  V30 7007 H 659.919 -5.8743 0.141309 0
M  V30 7008 H 661.443 -6.05686 -0.773072 0
M  V30 7009 H 662.857 -5.54898 1.44086 0
M  V30 7010 H 661.254 -5.57057 2.23175 0
M  V30 7011 H 662.324 -4.17625 2.46408 0
M  V30 7012 N 663.667 -0.670007 -1.42649 0
M  V30 7013 C 664.913 -0.19923 -2.02422 0
M  V30 7014 C 665.268 1.17947 -1.52007 0
M  V30 7015 O 664.561 1.77939 -0.710512 0
M  V30 7016 C 664.755 -0.168298 -3.57004 0
M  V30 7017 C 664.584 -1.54246 -4.22419 0
M  V30 7018 C 663.354 -2.13904 -4.57792 0
M  V30 7019 C 665.552 -2.4842 -4.50324 0
M  V30 7020 N 663.534 -3.44151 -5.08364 0
M  V30 7021 C 664.905 -3.63317 -5.02395 0
M  V30 7022 C 666.96 -2.47011 -4.32308 0
M  V30 7023 C 665.663 -4.77051 -5.38345 0
M  V30 7024 C 667.689 -3.59838 -4.6933 0
M  V30 7025 C 667.051 -4.73462 -5.21549 0
M  V30 7026 H 663.15 -0.117717 -0.773089 0
M  V30 7027 H 665.734 -0.881955 -1.73579 0
M  V30 7028 H 663.905 0.483824 -3.85375 0
M  V30 7029 H 665.637 0.314914 -4.03473 0
M  V30 7030 H 662.392 -1.66441 -4.4339 0
M  V30 7031 H 662.816 -4.10846 -5.38084 0
M  V30 7032 H 667.458 -1.60394 -3.91195 0
M  V30 7033 H 665.176 -5.64347 -5.78393 0
M  V30 7034 H 668.762 -3.59969 -4.57071 0
M  V30 7035 H 667.642 -5.59321 -5.49663 0
M  V30 7036 N 665.145 1.52092 -0.413018 0
M  V30 7037 C 666.37 2.06756 0.163338 0
M  V30 7038 C 666.795 1.28073 1.37764 0
M  V30 7039 O 666.153 0.312015 1.78595 0
M  V30 7040 C 666.201 3.57278 0.488322 0
M  V30 7041 O 665.305 3.80986 1.57871 0
M  V30 7042 H 664.646 0.663882 0.0125068 0
M  V30 7043 H 667.176 1.95988 -0.587339 0
M  V30 7044 H 667.186 4.01125 0.745836 0
M  V30 7045 H 665.861 4.13978 -0.399327 0
M  V30 7046 H 664.438 3.49017 1.31306 0
M  V30 7047 N 666.623 0.143563 1.56945 0
M  V30 7048 C 667.533 -0.810562 2.20152 0
M  V30 7049 C 668.549 -1.27431 1.1848 0
M  V30 7050 O 669.725 -1.33221 1.51044 0
M  V30 7051 C 666.79 -2.03353 2.80799 0
M  V30 7052 C 665.851 -1.61936 3.97587 0
M  V30 7053 C 665.084 -2.78403 4.55332 0
M  V30 7054 O 665.307 -3.94521 4.11958 0
M  V30 7055 O 664.241 -2.54073 5.45647 0
M  V30 7056 H 668.067 -0.30253 3.02189 0
M  V30 7057 H 665.652 -0.0832925 1.49168 0
M  V30 7058 H 667.534 -2.74932 3.19359 0
M  V30 7059 H 666.209 -2.53116 2.01777 0
M  V30 7060 H 665.116 -0.873904 3.6375 0
M  V30 7061 H 666.449 -1.16892 4.78118 0
M  V30 7062 N 668.101 -1.57061 -0.130224 0
M  V30 7063 C 669.326 -1.88802 -0.858409 0
M  V30 7064 C 669.751 -0.734353 -1.73173 0
M  V30 7065 O 669.109 0.315529 -1.78533 0
M  V30 7066 C 669.157 -3.19228 -1.67708 0
M  V30 7067 O 668.261 -3.04343 -2.78297 0
M  V30 7068 H 667.602 -0.619849 -0.238083 0
M  V30 7069 H 670.132 -2.04271 -0.115995 0
M  V30 7070 H 670.142 -3.51669 -2.06864 0
M  V30 7071 H 668.817 -4.02793 -1.0359 0
M  V30 7072 H 667.394 -2.83346 -2.42425 0
M  V30 7073 N 669.579 0.400081 -1.52437 0
M  V30 7074 C 670.99 0.97851 -1.59003 0
M  V30 7075 C 671.341 1.91293 -0.436068 0
M  V30 7076 O 670.466 2.1183 0.442365 0
M  V30 7077 C 671.061 1.78145 -2.88184 0
M  V30 7078 C 669.62 2.30976 -2.97199 0
M  V30 7079 C 668.767 1.11212 -2.54022 0
M  V30 7080 H 671.718 0.180002 -1.57676 0
M  V30 7081 H 671.739 2.63968 -2.74046 0
M  V30 7082 H 671.251 1.1011 -3.72152 0
M  V30 7083 H 669.352 3.02355 -2.17744 0
M  V30 7084 H 669.465 2.61221 -4.01622 0
M  V30 7085 H 667.829 1.46882 -2.08081 0
M  V30 7086 H 668.612 0.447307 -3.40373 0
M  V30 7087 N 671.057 1.43213 0.657864 0
M  V30 7088 C 671.987 1.50815 1.78262 0
M  V30 7089 C 672.968 0.363211 1.66177 0
M  V30 7090 O 674.153 0.579806 1.85343 0
M  V30 7091 C 671.283 1.42625 3.16663 0
M  V30 7092 C 670.237 2.5532 3.43505 0
M  V30 7093 C 669.563 2.32184 4.81658 0
M  V30 7094 C 670.863 3.97583 3.38711 0
M  V30 7095 H 672.557 2.44954 1.72157 0
M  V30 7096 H 670.103 1.17896 0.82683 0
M  V30 7097 H 672.056 1.46548 3.95097 0
M  V30 7098 H 670.78 0.449877 3.23487 0
M  V30 7099 H 669.439 2.50742 2.6744 0
M  V30 7100 H 669.087 1.32801 4.85153 0
M  V30 7101 H 668.787 3.07724 5.00579 0
M  V30 7102 H 670.311 2.37883 5.62356 0
M  V30 7103 H 671.725 4.03673 4.07089 0
M  V30 7104 H 670.122 4.73112 3.69168 0
M  V30 7105 H 671.192 4.23049 2.36976 0
M  V30 7106 N 672.536 -0.895792 1.29666 0
M  V30 7107 C 673.784 -1.64339 1.17631 0
M  V30 7108 C 674.105 -1.93099 -0.271643 0
M  V30 7109 O 673.375 -1.55981 -1.18518 0
M  V30 7110 H 671.955 -0.609162 0.432354 0
M  V30 7111 H 674.617 -1.07389 1.62646 0
M  V30 7112 H 673.713 -2.59815 1.72924 0
M  V30 7113 N 674.014 -1.12206 -1.10668 0
M  V30 7114 C 675.291 -0.787382 -1.79052 0
M  V30 7115 C 675.671 0.723267 -1.98323 0
M  V30 7116 O 675.019 1.6561 -1.57434 0
M  V30 7117 C 675.229 -1.55968 -3.1221 0
M  V30 7118 C 676.577 -1.74413 -3.87125 0
M  V30 7119 O 677.601 -1.5246 -3.21923 0
M  V30 7120 O 676.46 -2.10952 -5.04144 0
M  V30 7121 H 673.554 -0.286137 -0.775922 0
M  V30 7122 H 676.1 -1.22595 -1.1734 0
M  V30 7123 H 674.872 -2.58692 -2.93588 0
M  V30 7124 H 674.495 -1.1152 -3.8164 0
M  V30 7125 N 675.492 1.28418 -0.913599 0
M  V30 7126 C 676.422 2.29713 -0.418847 0
M  V30 7127 C 677.403 1.62165 0.513469 0
M  V30 7128 O 678.588 1.89576 0.421235 0
M  V30 7129 C 675.718 3.45612 0.342042 0
M  V30 7130 C 674.672 4.25056 -0.501123 0
M  V30 7131 C 673.998 5.3329 0.388097 0
M  V30 7132 C 675.298 4.91814 -1.75831 0
M  V30 7133 H 676.992 2.71346 -1.26538 0
M  V30 7134 H 674.538 1.30446 -0.609903 0
M  V30 7135 H 676.491 4.15562 0.699 0
M  V30 7136 H 675.215 3.02858 1.22248 0
M  V30 7137 H 673.874 3.56833 -0.840598 0
M  V30 7138 H 673.522 4.8678 1.26707 0
M  V30 7139 H 673.222 5.87347 -0.172459 0
M  V30 7140 H 674.746 6.06088 0.74094 0
M  V30 7141 H 676.16 5.54126 -1.47026 0
M  V30 7142 H 674.557 5.55866 -2.26126 0
M  V30 7143 H 675.627 4.16313 -2.4862 0
M  V30 7144 N 676.97 0.677563 1.42291 0
M  V30 7145 C 678.216 0.201272 2.01799 0
M  V30 7146 C 678.549 -1.19004 1.53465 0
M  V30 7147 O 677.824 -1.79953 0.738039 0
M  V30 7148 C 678.107 0.238968 3.59306 0
M  V30 7149 C 677.96 1.66594 4.17812 0
M  V30 7150 C 679.279 -0.411287 4.38174 0
M  V30 7151 H 676.398 0.0746114 0.733214 0
M  V30 7152 H 679.04 0.862872 1.69276 0
M  V30 7153 H 677.19 -0.324368 3.87144 0
M  V30 7154 H 678.862 2.28173 4.00917 0
M  V30 7155 H 677.105 2.20576 3.73536 0
M  V30 7156 H 677.776 1.64398 5.26951 0
M  V30 7157 H 680.252 0.0682804 4.16044 0
M  V30 7158 H 679.128 -0.354286 5.47755 0
M  V30 7159 H 679.389 -1.4893 4.1626 0
M  V30 7160 N 678.448 -1.51871 0.421078 0
M  V30 7161 C 679.673 -2.0684 -0.152371 0
M  V30 7162 C 680.098 -1.28802 -1.37083 0
M  V30 7163 O 679.456 -0.321482 -1.78427 0
M  V30 7164 C 679.504 -3.57532 -0.469368 0
M  V30 7165 O 678.608 -3.81818 -1.55848 0
M  V30 7166 H 677.949 -0.663939 -0.00898586 0
M  V30 7167 H 680.479 -1.95674 0.597724 0
M  V30 7168 H 680.489 -4.01515 -0.724553 0
M  V30 7169 H 679.164 -4.13761 0.421276 0
M  V30 7170 H 677.741 -3.49709 -1.29453 0
M  V30 7171 N 679.926 -0.151884 -1.56866 0
M  V30 7172 C 681.154 0.504813 -2.00647 0
M  V30 7173 C 681.569 1.58098 -1.03201 0
M  V30 7174 O 680.926 1.82476 -0.0297814 0
M  V30 7175 C 680.977 1.10099 -3.44326 0
M  V30 7176 O 680.698 0.0678021 -4.38048 0
M  V30 7177 C 682.199 1.83782 -4.03409 0
M  V30 7178 H 679.419 0.130989 -0.65809 0
M  V30 7179 H 681.963 -0.247903 -2.02992 0
M  V30 7180 H 680.118 1.8043 -3.42817 0
M  V30 7181 H 680.532 0.505237 -5.22061 0
M  V30 7182 H 682.006 2.2078 -5.05925 0
M  V30 7183 H 682.483 2.72557 -3.44397 0
M  V30 7184 H 683.089 1.18138 -4.08563 0
M  V30 7185 N 681.404 1.57128 0.121893 0
M  V30 7186 C 682.354 1.96556 1.15541 0
M  V30 7187 C 683.338 0.840147 1.37224 0
M  V30 7188 O 684.53 1.10382 1.38365 0
M  V30 7189 C 681.659 2.37097 2.48274 0
M  V30 7190 C 680.745 3.56265 2.30078 0
M  V30 7191 N 681.136 4.72041 1.81688 0
M  V30 7192 C 679.434 3.61841 2.60744 0
M  V30 7193 C 680.135 5.54075 1.77132 0
M  V30 7194 N 679.111 4.96483 2.21371 0
M  V30 7195 H 682.913 2.83531 0.77378 0
M  V30 7196 H 680.427 1.59019 0.329672 0
M  V30 7197 H 682.424 2.6356 3.2302 0
M  V30 7198 H 681.084 1.51486 2.87197 0
M  V30 7199 H 682.095 4.95313 1.51278 0
M  V30 7200 H 678.772 2.8683 3.03373 0
M  V30 7201 H 680.162 6.56939 1.40998 0
M  V30 7202 N 682.882 -0.391992 1.52647 0
M  V30 7203 C 683.829 -1.47866 1.77213 0
M  V30 7204 C 684.799 -1.54286 0.615223 0
M  V30 7205 O 685.984 -1.7059 0.854622 0
M  V30 7206 C 683.124 -2.85129 1.94411 0
M  V30 7207 C 682.237 -2.87883 3.22098 0
M  V30 7208 C 681.372 -4.16553 3.29631 0
M  V30 7209 C 680.411 -4.13348 4.51453 0
M  V30 7210 N 679.548 -5.33619 4.56284 0
M  V30 7211 H 684.388 -1.26219 2.6995 0
M  V30 7212 H 681.925 -0.612367 1.33748 0
M  V30 7213 H 683.883 -3.64833 2.02367 0
M  V30 7214 H 682.513 -3.05232 1.05038 0
M  V30 7215 H 681.565 -2.00567 3.23229 0
M  V30 7216 H 682.877 -2.81382 4.11856 0
M  V30 7217 H 682.031 -5.0466 3.36753 0
M  V30 7218 H 680.77 -4.25773 2.37842 0
M  V30 7219 H 679.775 -3.23629 4.44459 0
M  V30 7220 H 681 -4.05754 5.44555 0
M  V30 7221 H 678.946 -5.43474 3.67385 0
M  V30 7222 H 678.863 -5.29182 5.3991 0
M  V30 7223 H 680.131 -6.23632 4.67657 0
M  V30 7224 N 684.36 -1.4356 -0.65026 0
M  V30 7225 C 685.29 -1.51758 -1.77459 0
M  V30 7226 C 686.271 -0.372019 -1.65982 0
M  V30 7227 O 687.456 -0.589627 -1.85033 0
M  V30 7228 C 684.586 -1.44302 -3.15902 0
M  V30 7229 C 683.54 -2.57138 -3.42146 0
M  V30 7230 C 682.866 -2.34735 -4.8042 0
M  V30 7231 C 684.166 -3.99373 -3.36598 0
M  V30 7232 H 685.86 -2.45863 -1.70855 0
M  V30 7233 H 683.406 -1.18333 -0.820566 0
M  V30 7234 H 685.359 -1.48641 -3.94314 0
M  V30 7235 H 684.083 -0.467026 -3.23244 0
M  V30 7236 H 682.742 -2.52157 -2.66106 0
M  V30 7237 H 682.39 -1.35372 -4.84441 0
M  V30 7238 H 682.09 -3.10375 -4.9894 0
M  V30 7239 H 683.614 -2.40862 -5.61086 0
M  V30 7240 H 685.028 -4.05826 -4.04942 0
M  V30 7241 H 683.425 -4.75063 -3.66654 0
M  V30 7242 H 684.495 -4.243 -2.34729 0
M  V30 7243 N 685.838 0.888903 -1.30139 0
M  V30 7244 C 686.801 1.97576 -1.16174 0
M  V30 7245 C 687.801 1.60525 -0.094086 0
M  V30 7246 O 688.991 1.70812 -0.341889 0
M  V30 7247 C 686.123 3.3188 -0.778983 0
M  V30 7248 H 687.316 2.11393 -2.12728 0
M  V30 7249 H 684.869 1.0748 -1.1348 0
M  V30 7250 H 685.604 3.23765 0.186225 0
M  V30 7251 H 685.389 3.60141 -1.55051 0
M  V30 7252 H 686.879 4.11612 -0.704631 0
M  V30 7253 N 687.317 1.12792 1.10072 0
M  V30 7254 C 688.564 0.885545 1.82111 0
M  V30 7255 C 688.892 -0.588519 1.85383 0
M  V30 7256 O 688.147 -1.45124 1.31292 0
M  V30 7257 C 688.446 1.4102 3.28403 0
M  V30 7258 C 688.112 2.89995 3.45273 0
M  V30 7259 C 686.774 3.30671 3.49585 0
M  V30 7260 C 689.126 3.85874 3.50358 0
M  V30 7261 C 686.454 4.65925 3.56553 0
M  V30 7262 C 688.806 5.20963 3.58859 0
M  V30 7263 C 687.47 5.61177 3.61437 0
M  V30 7264 H 686.74 0.324044 0.666391 0
M  V30 7265 H 689.387 1.40874 1.29718 0
M  V30 7266 H 687.692 0.807551 3.83387 0
M  V30 7267 H 689.389 1.19882 3.82661 0
M  V30 7268 H 685.979 2.57537 3.42597 0
M  V30 7269 H 690.163 3.5554 3.46273 0
M  V30 7270 H 685.419 4.96468 3.56833 0
M  V30 7271 H 689.593 5.95079 3.61738 0
M  V30 7272 H 687.22 6.6597 3.66589 0
M  V30 7273 N 688.795 -1.27931 0.920396 0
M  V30 7274 C 690.206 -1.76707 0.602616 0
M  V30 7275 C 690.557 -1.75249 -0.882159 0
M  V30 7276 O 689.682 -1.35135 -1.69019 0
M  V30 7277 C 690.277 -3.20884 1.08714 0
M  V30 7278 C 688.836 -3.67356 0.820157 0
M  V30 7279 C 687.983 -2.47525 1.25006 0
M  V30 7280 H 690.934 -1.14301 1.10095 0
M  V30 7281 H 690.955 -3.78045 0.431535 0
M  V30 7282 H 690.467 -3.21913 2.1678 0
M  V30 7283 H 688.568 -3.7178 -0.247012 0
M  V30 7284 H 688.681 -4.57181 1.43257 0
M  V30 7285 H 687.045 -2.45765 0.668698 0
M  V30 7286 H 687.828 -2.51269 2.3392 0
M  V30 7287 N 690.273 -0.685099 -1.4193 0
M  V30 7288 C 691.498 -0.218842 -2.06242 0
M  V30 7289 C 691.923 1.11923 -1.51178 0
M  V30 7290 O 691.281 1.69837 -0.634446 0
M  V30 7291 C 691.329 -0.175592 -3.60172 0
M  V30 7292 O 690.433 0.852776 -4.03487 0
M  V30 7293 H 689.774 -0.109531 -0.654904 0
M  V30 7294 H 692.304 -0.937013 -1.81882 0
M  V30 7295 H 692.314 -0.00291151 -4.08 0
M  V30 7296 H 690.989 -1.15222 -3.99621 0
M  V30 7297 H 689.566 0.650301 -3.67186 0
M  V30 7298 N 691.751 1.51645 -0.429126 0
M  V30 7299 C 692.698 2.27542 0.386446 0
M  V30 7300 C 693.668 1.30786 1.02393 0
M  V30 7301 O 694.853 1.59678 1.0444 0
M  V30 7302 C 691.993 3.11457 1.48623 0
M  V30 7303 C 691.106 4.23196 0.867691 0
M  V30 7304 C 690.241 4.94435 1.94183 0
M  V30 7305 C 689.28 5.98108 1.30129 0
M  V30 7306 N 688.417 6.62786 2.31644 0
M  V30 7307 H 693.257 2.968 -0.267155 0
M  V30 7308 H 690.794 1.46397 -0.143591 0
M  V30 7309 H 692.752 3.58429 2.13506 0
M  V30 7310 H 691.382 2.44329 2.10957 0
M  V30 7311 H 690.434 3.80248 0.107373 0
M  V30 7312 H 691.746 4.97499 0.35997 0
M  V30 7313 H 690.9 5.44914 2.66747 0
M  V30 7314 H 689.639 4.19744 2.48326 0
M  V30 7315 H 688.644 5.4693 0.561082 0
M  V30 7316 H 689.869 6.74751 0.767303 0
M  V30 7317 H 687.815 5.90913 2.84883 0
M  V30 7318 H 687.732 7.32828 1.85741 0
M  V30 7319 H 689 7.17897 3.03717 0
M  V30 7320 N 693.229 0.160201 1.56784 0
M  V30 7321 C 694.162 -0.812797 2.13234 0
M  V30 7322 C 695.14 -1.2335 1.05942 0
M  V30 7323 O 696.324 -1.32725 1.33852 0
M  V30 7324 C 693.451 -2.09311 2.66283 0
M  V30 7325 C 692.497 -1.8173 3.85845 0
M  V30 7326 S 693.33 -0.996473 5.26147 0
M  V30 7327 C 694.486 -2.28769 5.82594 0
M  V30 7328 H 694.719 -0.332794 2.95432 0
M  V30 7329 H 692.252 -0.0542971 1.54304 0
M  V30 7330 H 694.21 -2.82854 2.97496 0
M  V30 7331 H 692.871 -2.54425 1.84192 0
M  V30 7332 H 692.064 -2.76699 4.21253 0
M  V30 7333 H 691.666 -1.16289 3.55462 0
M  V30 7334 H 693.958 -3.24319 5.9483 0
M  V30 7335 H 694.901 -1.97846 6.79899 0
M  V30 7336 H 695.309 -2.40021 5.10931 0
M  V30 7337 N 694.707 -1.5719 -0.113559 0
M  V30 7338 C 695.955 -1.84772 -0.818761 0
M  V30 7339 C 696.276 -0.746196 -1.80158 0
M  V30 7340 O 695.546 0.229305 -1.94553 0
M  V30 7341 H 694.126 -0.681737 -0.305359 0
M  V30 7342 H 696.788 -1.94645 -0.0995845 0
M  V30 7343 H 695.884 -2.80878 -1.36067 0
M  V30 7344 N 696.185 0.383891 -1.52853 0
M  V30 7345 C 697.115 1.47559 -1.80965 0
M  V30 7346 C 698.096 1.5669 -0.661986 0
M  V30 7347 O 699.281 1.71556 -0.910072 0
M  V30 7348 C 696.411 2.85114 -1.98312 0
M  V30 7349 C 695.365 2.9082 -3.14019 0
M  V30 7350 C 694.691 4.30873 -3.16627 0
M  V30 7351 C 695.991 2.60001 -4.52986 0
M  V30 7352 H 697.685 1.24283 -2.72386 0
M  V30 7353 H 695.231 0.596445 -1.31067 0
M  V30 7354 H 697.184 3.61496 -2.16561 0
M  V30 7355 H 695.908 3.09738 -1.03585 0
M  V30 7356 H 694.567 2.16886 -2.9556 0
M  V30 7357 H 694.215 4.52545 -2.19573 0
M  V30 7358 H 693.915 4.3561 -3.94357 0
M  V30 7359 H 695.439 5.09154 -3.37038 0
M  V30 7360 H 696.853 3.261 -4.71521 0
M  V30 7361 H 695.25 2.76081 -5.32822 0
M  V30 7362 H 696.32 1.5532 -4.59351 0
M  V30 7363 N 697.663 1.43903 0.642637 0
M  V30 7364 C 698.888 1.49758 1.43483 0
M  V30 7365 C 699.313 0.119911 1.87717 0
M  V30 7366 O 698.671 -0.888558 1.58033 0
M  V30 7367 C 698.719 2.45744 2.63898 0
M  V30 7368 O 697.823 1.95101 3.63331 0
M  V30 7369 H 697.164 0.506138 0.429791 0
M  V30 7370 H 699.694 1.88923 0.785438 0
M  V30 7371 H 699.704 2.63399 3.11584 0
M  V30 7372 H 698.379 3.45818 2.31046 0
M  V30 7373 H 696.956 1.87158 3.22531 0
M  V30 7374 N 699.141 -0.881989 1.30609 0
M  V30 7375 C 700.366 -1.67236 1.22665 0
M  V30 7376 C 700.791 -1.8696 -0.206777 0
M  V30 7377 O 700.149 -1.4027 -1.14865 0
M  V30 7378 C 700.197 -3.02446 1.96363 0
M  V30 7379 O 699.301 -3.91614 1.29276 0
M  V30 7380 H 698.642 -0.510902 0.424117 0
M  V30 7381 H 701.172 -1.10055 1.72479 0
M  V30 7382 H 701.182 -3.52468 2.055 0
M  V30 7383 H 699.857 -2.8741 3.00613 0
M  V30 7384 H 698.434 -3.50055 1.28514 0
M  V30 7385 N 700.619 -1.13374 -1.09472 0
M  V30 7386 C 701.844 -0.918711 -1.85942 0
M  V30 7387 C 702.269 0.527225 -1.8056 0
M  V30 7388 O 701.627 1.37408 -1.18274 0
M  V30 7389 C 701.675 -1.41056 -3.31867 0
M  V30 7390 O 700.779 -0.595496 -4.08078 0
M  V30 7391 H 700.12 -0.329297 -0.576593 0
M  V30 7392 H 702.65 -1.50829 -1.38245 0
M  V30 7393 H 702.66 -1.41398 -3.82715 0
M  V30 7394 H 701.335 -2.46335 -3.35099 0
M  V30 7395 H 699.912 -0.659911 -3.67014 0
M  V30 7396 N 702.098 1.27442 -0.927168 0
M  V30 7397 C 703.509 1.76385 -0.611979 0
M  V30 7398 C 703.86 1.75715 0.872853 0
M  V30 7399 O 702.985 1.3603 1.683 0
M  V30 7400 C 703.58 3.20303 -1.10414 0
M  V30 7401 C 702.139 3.66916 -0.839628 0
M  V30 7402 C 701.286 2.46859 -1.26317 0
M  V30 7403 H 704.237 1.13716 -1.107 0
M  V30 7404 H 704.258 3.77811 -0.451578 0
M  V30 7405 H 703.77 3.20759 -2.18484 0
M  V30 7406 H 701.871 3.71906 0.227292 0
M  V30 7407 H 701.984 4.56415 -1.45679 0
M  V30 7408 H 700.348 2.45407 -0.681723 0
M  V30 7409 H 701.131 2.50025 -2.3525 0
M  V30 7410 N 703.576 0.692616 1.41565 0
M  V30 7411 C 704.486 0.0258451 2.34586 0
M  V30 7412 C 705.502 -0.769324 1.56069 0
M  V30 7413 O 706.678 -0.707563 1.88562 0
M  V30 7414 C 703.743 -0.901289 3.3478 0
M  V30 7415 C 702.804 -0.0986579 4.29187 0
M  V30 7416 C 702.037 -0.981634 5.24595 0
M  V30 7417 O 702.26 -2.22115 5.25377 0
M  V30 7418 O 701.194 -0.432892 6.00341 0
M  V30 7419 H 705.02 0.792537 2.93177 0
M  V30 7420 H 702.605 0.452935 1.42369 0
M  V30 7421 H 704.487 -1.43302 3.96286 0
M  V30 7422 H 703.162 -1.64752 2.78637 0
M  V30 7423 H 702.069 0.477604 3.71039 0
M  V30 7424 H 703.402 0.608848 4.8842 0
M  V30 7425 N 705.054 -1.51416 0.437162 0
M  V30 7426 C 706.3 -2.02386 -0.129555 0
M  V30 7427 C 706.633 -1.32071 -1.42376 0
M  V30 7428 O 705.908 -0.43559 -1.8956 0
M  V30 7429 C 706.191 -3.5841 -0.348487 0
M  V30 7430 C 706.044 -4.39341 0.964352 0
M  V30 7431 C 707.363 -4.25654 -1.11834 0
M  V30 7432 H 704.482 -0.735587 -0.0456109 0
M  V30 7433 H 707.124 -1.81055 0.576124 0
M  V30 7434 H 705.274 -3.76716 -0.949592 0
M  V30 7435 H 706.946 -4.32685 1.59942 0
M  V30 7436 H 705.189 -4.04432 1.56898 0
M  V30 7437 H 705.86 -5.4667 0.765212 0
M  V30 7438 H 708.336 -4.11617 -0.609165 0
M  V30 7439 H 707.212 -5.34704 -1.24029 0
M  V30 7440 H 707.473 -3.86502 -2.14636 0
M  V30 7441 N 706.532 -0.168513 -1.56696 0
M  V30 7442 C 707.462 0.758563 -2.20835 0
M  V30 7443 C 708.443 1.24121 -1.1631 0
M  V30 7444 O 709.628 1.29487 -1.4473 0
M  V30 7445 C 706.758 1.9892 -2.8469 0
M  V30 7446 C 705.712 1.64252 -3.95228 0
M  V30 7447 C 705.038 2.94757 -4.46119 0
M  V30 7448 C 706.338 0.872675 -5.14958 0
M  V30 7449 H 708.032 0.223953 -2.98561 0
M  V30 7450 H 705.578 0.106277 -1.43607 0
M  V30 7451 H 707.531 2.64275 -3.28233 0
M  V30 7452 H 706.255 2.5479 -2.04327 0
M  V30 7453 H 704.914 1.01266 -3.52336 0
M  V30 7454 H 704.562 3.48662 -3.62552 0
M  V30 7455 H 704.262 2.72316 -5.2069 0
M  V30 7456 H 705.786 3.61147 -4.92347 0
M  V30 7457 H 707.2 1.42875 -5.55211 0
M  V30 7458 H 705.597 0.747402 -5.95428 0
M  V30 7459 H 706.667 -0.131535 -4.84722 0
M  V30 7460 N 708.01 1.57248 0.105221 0
M  V30 7461 C 708.92 2.04653 1.14693 0
M  V30 7462 C 709.936 0.969488 1.44489 0
M  V30 7463 O 711.112 1.28196 1.55331 0
M  V30 7464 C 708.177 2.45297 2.45011 0
M  V30 7465 C 707.238 3.67148 2.22489 0
M  V30 7466 C 706.471 4.05844 3.46592 0
M  V30 7467 O 706.694 3.44736 4.54437 0
M  V30 7468 O 705.628 4.98862 3.36779 0
M  V30 7469 H 709.454 2.93663 0.774336 0
M  V30 7470 H 707.039 1.45998 0.31701 0
M  V30 7471 H 708.921 2.72112 3.21766 0
M  V30 7472 H 707.596 1.59429 2.81717 0
M  V30 7473 H 706.503 3.45463 1.43547 0
M  V30 7474 H 707.836 4.53764 1.9068 0
M  V30 7475 N 709.488 -0.375779 1.53054 0
M  V30 7476 C 710.734 -1.12114 1.68992 0
M  V30 7477 C 711.067 -1.8926 0.435238 0
M  V30 7478 O 710.342 -1.86044 -0.567278 0
M  V30 7479 C 710.625 -2.08867 2.93337 0
M  V30 7480 C 710.478 -1.35397 4.28938 0
M  V30 7481 C 711.797 -3.09124 3.13257 0
M  V30 7482 H 708.916 -0.406207 0.614951 0
M  V30 7483 H 711.558 -0.403054 1.85676 0
M  V30 7484 H 709.708 -2.70102 2.79244 0
M  V30 7485 H 711.38 -0.770242 4.54824 0
M  V30 7486 H 709.623 -0.655801 4.28814 0
M  V30 7487 H 710.294 -2.06161 5.12056 0
M  V30 7488 H 712.77 -2.57987 3.26469 0
M  V30 7489 H 711.646 -3.74054 4.01715 0
M  V30 7490 H 711.907 -3.78729 2.28072 0
M  V30 7491 N 710.966 -1.44241 -0.634997 0
M  V30 7492 C 712.191 -1.50516 -1.42687 0
M  V30 7493 C 712.616 -0.129864 -1.87651 0
M  V30 7494 O 711.974 0.880164 -1.58502 0
M  V30 7495 C 712.022 -2.4714 -2.62591 0
M  V30 7496 O 711.126 -1.97025 -3.62291 0
M  V30 7497 H 710.467 -0.50841 -0.427101 0
M  V30 7498 H 712.997 -1.89337 -0.775408 0
M  V30 7499 H 713.007 -2.65048 -3.10183 0
M  V30 7500 H 711.682 -3.47039 -2.29209 0
M  V30 7501 H 710.259 -1.88866 -3.21534 0
M  V30 7502 N 712.444 0.87505 -1.31075 0
M  V30 7503 C 713.669 1.66583 -1.23551 0
M  V30 7504 C 714.094 1.87067 0.19686 0
M  V30 7505 O 713.452 1.40877 1.1412 0
M  V30 7506 C 713.5 3.01401 -1.97965 0
M  V30 7507 O 712.604 3.90923 -1.31351 0
M  V30 7508 H 711.945 0.508645 -0.426821 0
M  V30 7509 H 714.475 1.09139 -1.7306 0
M  V30 7510 H 714.485 3.51374 -2.07366 0
M  V30 7511 H 713.16 2.85812 -3.02133 0
M  V30 7512 H 711.737 3.49369 -1.30368 0
M  V30 7513 N 713.922 1.13953 1.08869 0
M  V30 7514 C 714.852 0.844824 2.17681 0
M  V30 7515 C 715.833 -0.198213 1.68941 0
M  V30 7516 O 717.018 -0.0559073 1.9412 0
M  V30 7517 C 714.148 0.316325 3.45856 0
M  V30 7518 C 713.102 1.29426 4.07962 0
M  V30 7519 C 712.428 0.625275 5.31031 0
M  V30 7520 C 713.728 2.65484 4.49795 0
M  V30 7521 H 715.422 1.75471 2.42591 0
M  V30 7522 H 712.968 0.845116 1.16592 0
M  V30 7523 H 714.921 0.0977876 4.21287 0
M  V30 7524 H 713.645 -0.628972 3.20486 0
M  V30 7525 H 712.304 1.49889 3.34558 0
M  V30 7526 H 711.952 -0.325678 5.01945 0
M  V30 7527 H 711.652 1.27777 5.73539 0
M  V30 7528 H 713.176 0.416152 6.0918 0
M  V30 7529 H 714.59 2.48957 5.16424 0
M  V30 7530 H 712.987 3.26963 5.03205 0
M  V30 7531 H 714.057 3.22717 3.61914 0
M  V30 7532 N 715.4 -1.26948 0.933913 0
M  V30 7533 C 716.628 -1.98186 0.59414 0
M  V30 7534 C 717.043 -1.69614 -0.829257 0
M  V30 7535 O 716.4 -0.960213 -1.55197 0
M  V30 7536 C 716.451 -3.52123 0.818026 0
M  V30 7537 O 716.172 -3.79698 2.18543 0
M  V30 7538 C 717.673 -4.40608 0.48781 0
M  V30 7539 H 714.893 -0.632305 0.224569 0
M  V30 7540 H 717.437 -1.61646 1.25263 0
M  V30 7541 H 715.592 -3.86851 0.206246 0
M  V30 7542 H 716.006 -4.7426 2.24005 0
M  V30 7543 H 717.48 -5.47606 0.695126 0
M  V30 7544 H 717.957 -4.35394 -0.576913 0
M  V30 7545 H 718.563 -4.11411 1.078 0
M  V30 7546 N 716.879 -0.700114 -1.41195 0
M  V30 7547 C 717.809 -0.0521132 -2.33442 0
M  V30 7548 C 718.79 0.76228 -1.52063 0
M  V30 7549 O 719.975 0.714336 -1.80585 0
M  V30 7550 C 717.105 0.881693 -3.35922 0
M  V30 7551 C 716.059 0.174062 -4.27646 0
M  V30 7552 C 715.385 1.22254 -5.20536 0
M  V30 7553 C 716.685 -0.962396 -5.13357 0
M  V30 7554 H 718.379 -0.822574 -2.87879 0
M  V30 7555 H 715.925 -0.397011 -1.38419 0
M  V30 7556 H 717.878 1.34429 -3.99383 0
M  V30 7557 H 716.602 1.68387 -2.79845 0
M  V30 7558 H 715.261 -0.268551 -3.65615 0
M  V30 7559 H 714.909 2.01736 -4.60773 0
M  V30 7560 H 714.609 0.754038 -5.82742 0
M  V30 7561 H 716.133 1.68555 -5.86874 0
M  V30 7562 H 717.547 -0.579875 -5.7036 0
M  V30 7563 H 715.944 -1.35828 -5.84526 0
M  V30 7564 H 717.014 -1.80003 -4.50252 0
M  V30 7565 N 718.357 1.51182 -0.445186 0
M  V30 7566 C 719.307 2.24804 0.380394 0
M  V30 7567 C 720.291 1.27344 0.983482 0
M  V30 7568 O 721.483 1.52392 0.900322 0
M  V30 7569 C 718.612 3.09922 1.4766 0
M  V30 7570 C 717.698 4.14816 0.882517 0
M  V30 7571 N 718.089 5.05797 0.0183278 0
M  V30 7572 C 716.387 4.30938 1.14927 0
M  V30 7573 C 717.088 5.8084 -0.316152 0
M  V30 7574 N 716.064 5.42759 0.302214 0
M  V30 7575 H 719.866 2.92508 -0.285737 0
M  V30 7576 H 717.38 1.60342 -0.257733 0
M  V30 7577 H 719.377 3.61249 2.08098 0
M  V30 7578 H 718.037 2.43763 2.14498 0
M  V30 7579 H 719.048 5.16725 -0.348679 0
M  V30 7580 H 715.725 3.76005 1.81457 0
M  V30 7581 H 717.115 6.64115 -1.01986 0
M  V30 7582 N 719.835 0.176821 1.56605 0
M  V30 7583 C 721.06 -0.47599 2.01864 0
M  V30 7584 C 721.485 -1.55645 1.05623 0
M  V30 7585 O 720.843 -1.81263 0.0366729 0
M  V30 7586 C 720.891 -1.02619 3.4569 0
M  V30 7587 O 719.995 -2.13996 3.52533 0
M  V30 7588 H 719.336 -0.113363 0.654251 0
M  V30 7589 H 721.866 0.28233 2.02643 0
M  V30 7590 H 721.876 -1.34742 3.85109 0
M  V30 7591 H 720.551 -0.235138 4.15235 0
M  V30 7592 H 719.128 -1.82876 3.24978 0
M  V30 7593 N 721.313 -1.57302 -0.09688 0
M  V30 7594 C 722.559 -1.86273 -0.801885 0
M  V30 7595 C 722.892 -0.765694 -1.78468 0
M  V30 7596 O 722.167 0.226495 -1.93177 0
M  V30 7597 C 722.45 -3.25876 -1.53221 0
M  V30 7598 C 722.303 -4.46205 -0.567529 0
M  V30 7599 C 723.622 -3.63352 -2.48321 0
M  V30 7600 H 720.741 -0.67752 -0.29006 0
M  V30 7601 H 723.383 -1.89887 -0.0655577 0
M  V30 7602 H 721.533 -3.22926 -2.15988 0
M  V30 7603 H 723.205 -4.6127 0.0529982 0
M  V30 7604 H 721.448 -4.33636 0.119233 0
M  V30 7605 H 722.119 -5.40608 -1.11564 0
M  V30 7606 H 724.595 -3.67234 -1.95648 0
M  V30 7607 H 723.471 -4.61968 -2.9644 0
M  V30 7608 H 723.732 -2.91941 -3.31998 0
M  V30 7609 N 722.791 0.367657 -1.53252 0
M  V30 7610 C 724.019 1.13119 -1.73239 0
M  V30 7611 C 724.434 1.831 -0.460404 0
M  V30 7612 O 723.791 1.73483 0.566557 0
M  V30 7613 C 723.842 2.16308 -2.89643 0
M  V30 7614 O 723.563 1.49175 -4.1192 0
M  V30 7615 C 725.064 3.05224 -3.21486 0
M  V30 7616 H 722.284 0.338318 -0.579467 0
M  V30 7617 H 724.828 0.42721 -1.99988 0
M  V30 7618 H 722.983 2.82307 -2.65295 0
M  V30 7619 H 723.397 2.17912 -4.7709 0
M  V30 7620 H 724.871 3.73613 -4.06346 0
M  V30 7621 H 725.348 3.69919 -2.36763 0
M  V30 7622 H 725.954 2.44843 -3.47753 0
M  V30 7623 N 724.269 1.44576 0.627338 0
M  V30 7624 C 725.68 1.42266 1.20902 0
M  V30 7625 C 726.031 0.139964 1.957 0
M  V30 7626 O 725.156 -0.759489 2.02634 0
M  V30 7627 C 725.751 2.57727 2.19914 0
M  V30 7628 C 724.31 2.58599 2.73502 0
M  V30 7629 C 723.457 2.34145 1.48564 0
M  V30 7630 H 726.408 1.53102 0.417791 0
M  V30 7631 H 726.429 2.30697 3.02588 0
M  V30 7632 H 725.941 3.51068 1.65447 0
M  V30 7633 H 724.042 1.6921 3.31962 0
M  V30 7634 H 724.155 3.57205 3.19282 0
M  V30 7635 H 722.519 1.83313 1.76829 0
M  V30 7636 H 723.302 3.29606 0.959935 0
M  V30 7637 N 725.747 -0.868086 1.31537 0
M  V30 7638 C 726.71 -1.95703 1.19302 0
M  V30 7639 C 727.71 -1.60355 0.119612 0
M  V30 7640 O 728.9 -1.70247 0.36902 0
M  V30 7641 C 726.032 -3.30599 0.831684 0
M  V30 7642 H 727.225 -2.07982 2.16064 0
M  V30 7643 H 724.778 -1.05661 1.15176 0
M  V30 7644 H 725.513 -3.2402 -0.134694 0
M  V30 7645 H 725.298 -3.57629 1.60761 0
M  V30 7646 H 726.788 -4.10439 0.770026 0
M  V30 7647 N 727.225 -1.14528 -1.08264 0
M  V30 7648 C 728.471 -0.91576 -1.80947 0
M  V30 7649 C 728.804 0.55623 -1.86064 0
M  V30 7650 O 728.079 1.41207 -1.33756 0
M  V30 7651 C 728.362 -1.51917 -3.26486 0
M  V30 7652 C 728.215 -3.06111 -3.2957 0
M  V30 7653 C 729.534 -1.19724 -4.23502 0
M  V30 7654 H 726.653 -0.334113 -0.656915 0
M  V30 7655 H 729.295 -1.41547 -1.26746 0
M  V30 7656 H 727.445 -1.0942 -3.72773 0
M  V30 7657 H 729.117 -3.57448 -2.91597 0
M  V30 7658 H 727.36 -3.40483 -2.688 0
M  V30 7659 H 728.031 -3.43438 -4.32151 0
M  V30 7660 H 730.507 -1.56467 -3.85561 0
M  V30 7661 H 729.383 -1.64575 -5.23647 0
M  V30 7662 H 729.644 -0.112771 -4.41956 0
M  V30 7663 N 728.703 1.26451 -0.940633 0
M  V30 7664 C 729.633 2.28773 -0.467479 0
M  V30 7665 C 730.614 1.63218 0.478955 0
M  V30 7666 O 731.799 1.90427 0.380929 0
M  V30 7667 C 728.929 3.46259 0.268656 0
M  V30 7668 C 727.883 4.23898 -0.591171 0
M  V30 7669 C 727.209 5.33993 0.274891 0
M  V30 7670 C 728.509 4.87974 -1.86223 0
M  V30 7671 H 730.203 2.68601 -1.32265 0
M  V30 7672 H 727.749 1.29123 -0.637436 0
M  V30 7673 H 729.702 4.16951 0.610696 0
M  V30 7674 H 728.426 3.05383 1.15796 0
M  V30 7675 H 727.085 3.54969 -0.916098 0
M  V30 7676 H 726.733 4.89358 1.16353 0
M  V30 7677 H 726.433 5.86849 -0.297006 0
M  V30 7678 H 727.957 6.07523 0.612213 0
M  V30 7679 H 729.371 5.50883 -1.58747 0
M  V30 7680 H 727.768 5.50945 -2.37866 0
M  V30 7681 H 728.838 4.10945 -2.57394 0
M  V30 7682 N 730.181 0.707592 1.40822 0
M  V30 7683 C 731.113 0.0105968 2.29198 0
M  V30 7684 C 732.126 -0.732035 1.45414 0
M  V30 7685 O 733.315 -0.580741 1.68789 0
M  V30 7686 C 730.415 -1.00921 3.23525 0
M  V30 7687 C 729.588 -0.333747 4.36125 0
M  V30 7688 C 728.647 -1.25783 5.10945 0
M  V30 7689 O 727.673 -0.745646 5.64295 0
M  V30 7690 N 728.875 -2.58947 5.19545 0
M  V30 7691 H 731.64 0.76938 2.89656 0
M  V30 7692 H 729.201 0.554579 1.52105 0
M  V30 7693 H 731.193 -1.6294 3.70449 0
M  V30 7694 H 729.763 -1.66942 2.6429 0
M  V30 7695 H 728.983 0.466518 3.9143 0
M  V30 7696 H 730.271 0.135444 5.0862 0
M  V30 7697 H 729.669 -3.03065 4.7767 0
M  V30 7698 H 728.226 -3.16131 5.70004 0
M  V30 7699 N 731.66 -1.50943 0.453197 0
M  V30 7700 C 732.888 -2.06628 -0.106135 0
M  V30 7701 C 733.303 -1.31901 -1.35084 0
M  V30 7702 O 732.66 -0.383074 -1.78434 0
M  V30 7703 C 732.711 -3.5914 -0.412368 0
M  V30 7704 O 732.432 -4.31047 0.782948 0
M  V30 7705 C 733.933 -4.31391 -1.02064 0
M  V30 7706 H 731.153 -0.670999 -0.000885896 0
M  V30 7707 H 733.697 -1.94331 0.63684 0
M  V30 7708 H 731.852 -3.71299 -1.10526 0
M  V30 7709 H 732.266 -5.21948 0.516736 0
M  V30 7710 H 733.74 -5.39135 -1.1848 0
M  V30 7711 H 734.217 -3.90714 -2.00598 0
M  V30 7712 H 734.823 -4.23716 -0.366664 0
M  V30 7713 N 733.138 -0.185124 -1.56509 0
M  V30 7714 C 734.386 0.455357 -1.96903 0
M  V30 7715 C 734.707 1.62839 -1.07277 0
M  V30 7716 O 733.977 1.95385 -0.141966 0
M  V30 7717 H 732.557 0.171218 -0.727113 0
M  V30 7718 H 735.219 -0.26953 -1.93027 0
M  V30 7719 H 734.315 0.80616 -3.01509 0
M  V30 7720 N 734.616 1.57351 0.0885366 0
M  V30 7721 C 735.546 2.05561 1.10757 0
M  V30 7722 C 736.527 0.945789 1.41382 0
M  V30 7723 O 737.712 1.21747 1.51299 0
M  V30 7724 C 734.842 2.48554 2.42566 0
M  V30 7725 C 733.796 3.63259 2.26334 0
M  V30 7726 C 733.122 3.9225 3.63378 0
M  V30 7727 C 734.422 4.93913 1.69844 0
M  V30 7728 H 736.116 2.90946 0.706468 0
M  V30 7729 H 733.662 1.39968 0.338385 0
M  V30 7730 H 735.615 2.8089 3.14132 0
M  V30 7731 H 734.339 1.60176 2.84625 0
M  V30 7732 H 732.998 3.31179 1.57213 0
M  V30 7733 H 732.646 3.0103 4.02976 0
M  V30 7734 H 732.346 4.69478 3.53362 0
M  V30 7735 H 733.87 4.27067 4.36401 0
M  V30 7736 H 735.284 5.24588 2.31258 0
M  V30 7737 H 733.681 5.75349 1.70569 0
M  V30 7738 H 734.751 4.80409 0.65843 0
M  V30 7739 N 736.094 -0.359525 1.53444 0
M  V30 7740 C 737.505 -0.936009 1.61542 0
M  V30 7741 C 737.856 -1.90069 0.486633 0
M  V30 7742 O 736.981 -2.12929 -0.386047 0
M  V30 7743 C 737.576 -1.70441 2.92806 0
M  V30 7744 C 736.135 -2.23015 3.03218 0
M  V30 7745 C 735.282 -1.04438 2.56881 0
M  V30 7746 H 738.233 -0.138134 1.58098 0
M  V30 7747 H 738.254 -2.56609 2.80948 0
M  V30 7748 H 737.766 -1.00205 3.74941 0
M  V30 7749 H 735.867 -2.96475 2.25684 0
M  V30 7750 H 735.98 -2.50481 4.08407 0
M  V30 7751 H 734.344 -1.41314 2.11902 0
M  V30 7752 H 735.127 -0.356905 3.4144 0
M  V30 7753 N 737.572 -1.44907 -0.619662 0
M  V30 7754 C 738.818 -1.48512 -1.38102 0
M  V30 7755 C 739.151 -0.121686 -1.93818 0
M  V30 7756 O 738.426 0.862256 -1.74343 0
M  V30 7757 C 738.709 -2.55469 -2.53787 0
M  V30 7758 C 738.562 -4.01212 -2.03345 0
M  V30 7759 C 739.881 -2.58821 -3.55949 0
M  V30 7760 H 737 -0.540712 -0.500799 0
M  V30 7761 H 739.642 -1.7665 -0.69962 0
M  V30 7762 H 737.792 -2.31606 -3.11915 0
M  V30 7763 H 739.464 -4.36245 -1.49959 0
M  V30 7764 H 737.707 -4.12443 -1.34438 0
M  V30 7765 H 738.378 -4.71717 -2.86683 0
M  V30 7766 H 740.854 -2.80172 -3.07641 0
M  V30 7767 H 739.73 -3.35542 -4.34399 0
M  V30 7768 H 739.991 -1.63451 -4.10775 0
M  V30 7769 N 739.05 0.861098 -1.31996 0
M  V30 7770 C 740.013 1.95068 -1.20338 0
M  V30 7771 C 741.013 1.60289 -0.128114 0
M  V30 7772 O 742.203 1.70048 -0.378044 0
M  V30 7773 C 739.335 3.30153 -0.849205 0
M  V30 7774 H 740.528 2.06833 -2.17164 0
M  V30 7775 H 738.081 1.05049 -1.15734 0
M  V30 7776 H 738.816 3.24087 0.117508 0
M  V30 7777 H 738.601 3.56771 -1.62655 0
M  V30 7778 H 740.091 4.10025 -0.791782 0
M  V30 7779 N 740.528 1.15101 1.07655 0
M  V30 7780 C 741.753 0.948177 1.84457 0
M  V30 7781 C 742.178 -0.498432 1.81376 0
M  V30 7782 O 741.536 -1.35509 1.20445 0
M  V30 7783 C 741.584 1.46318 3.29581 0
M  V30 7784 O 740.688 0.660342 4.07079 0
M  V30 7785 H 740.029 0.338428 0.571281 0
M  V30 7786 H 742.559 1.5301 1.35828 0
M  V30 7787 H 742.569 1.47468 3.80417 0
M  V30 7788 H 741.244 2.51635 3.31138 0
M  V30 7789 H 739.821 0.718216 3.65918 0
M  V30 7790 N 742.006 -1.2595 0.947325 0
M  V30 7791 C 742.916 -2.29883 0.468079 0
M  V30 7792 C 743.932 -1.67783 -0.460975 0
M  V30 7793 O 745.108 -1.98526 -0.339006 0
M  V30 7794 C 742.173 -3.45773 -0.253315 0
M  V30 7795 C 741.234 -4.23337 0.713054 0
M  V30 7796 C 740.467 -5.33694 0.025993 0
M  V30 7797 O 740.69 -5.57853 -1.18978 0
M  V30 7798 O 739.624 -5.97724 0.70782 0
M  V30 7799 H 743.45 -2.72952 1.33156 0
M  V30 7800 H 741.035 -1.31263 0.713468 0
M  V30 7801 H 742.917 -4.16209 -0.659423 0
M  V30 7802 H 741.592 -3.04721 -1.09209 0
M  V30 7803 H 740.499 -3.55359 1.16923 0
M  V30 7804 H 741.832 -4.68154 1.51963 0
M  V30 7805 N 743.484 -0.715051 -1.40445 0
M  V30 7806 C 744.394 -0.0631624 -2.34515 0
M  V30 7807 C 745.41 0.744397 -1.57273 0
M  V30 7808 O 746.586 0.677475 -1.89663 0
M  V30 7809 C 743.651 0.847915 -3.36172 0
M  V30 7810 C 742.712 0.0303655 -4.29289 0
M  V30 7811 C 741.945 0.898051 -5.2609 0
M  V30 7812 O 742.168 2.13729 -5.28844 0
M  V30 7813 O 741.102 0.337328 -6.00954 0
M  V30 7814 H 744.928 -0.839078 -2.91879 0
M  V30 7815 H 742.513 -0.475527 -1.4163 0
M  V30 7816 H 744.395 1.3698 -3.98515 0
M  V30 7817 H 743.07 1.60299 -2.81222 0
M  V30 7818 H 741.977 -0.536573 -3.70232 0
M  V30 7819 H 743.31 -0.686474 -4.87389 0
M  V30 7820 N 744.962 1.50701 -0.461195 0
M  V30 7821 C 746.378 1.59187 -0.114786 0
M  V30 7822 C 746.578 1.4702 1.37794 0
M  V30 7823 O 745.634 1.32361 2.15027 0
M  V30 7824 C 746.947 2.93453 -0.656167 0
M  V30 7825 C 748.495 3.06824 -0.618715 0
M  V30 7826 C 748.97 4.4365 -1.13747 0
M  V30 7827 N 750.461 4.50035 -1.09646 0
M  V30 7828 C 751.196 5.54278 -1.46846 0
M  V30 7829 N 750.692 6.65822 -1.91448 0
M  V30 7830 N 752.485 5.44767 -1.38512 0
M  V30 7831 H 744.636 1.56853 -1.43216 0
M  V30 7832 H 746.899 0.740712 -0.59165 0
M  V30 7833 H 746.605 3.07802 -1.7015 0
M  V30 7834 H 746.479 3.77082 -0.0942261 0
M  V30 7835 H 748.866 2.92129 0.417685 0
M  V30 7836 H 748.947 2.24976 -1.21734 0
M  V30 7837 H 748.591 4.59093 -2.17245 0
M  V30 7838 H 748.521 5.24074 -0.515153 0
M  V30 7839 H 751.012 3.69988 -0.769217 0
M  V30 7840 H 751.325 7.41413 -2.18007 0
M  V30 7841 H 749.67 6.66968 -1.95393 0
M  V30 7842 H 752.861 4.56511 -1.03516 0
M  V30 7843 H 753.034 6.25889 -1.6783 0
M  V30 7844 N 746.441 0.193421 1.56409 0
M  V30 7845 C 747.669 -0.451438 2.01915 0
M  V30 7846 C 748.084 -1.55306 1.07357 0
M  V30 7847 O 747.441 -1.82333 0.0781512 0
M  V30 7848 C 747.492 -1.00931 3.47124 0
M  V30 7849 O 747.213 0.0483623 4.38073 0
M  V30 7850 C 748.714 -1.73021 4.0814 0
M  V30 7851 H 745.934 -0.113495 0.661332 0
M  V30 7852 H 748.478 0.301636 2.02263 0
M  V30 7853 H 746.633 -1.71277 3.47481 0
M  V30 7854 H 747.047 -0.366644 5.23217 0
M  V30 7855 H 748.521 -2.07289 5.11601 0
M  V30 7856 H 748.998 -2.6333 3.51502 0
M  V30 7857 H 749.604 -1.07264 4.11551 0
M  V30 7858 N 747.919 -1.57396 -0.0801906 0
M  V30 7859 C 749.144 -1.91437 -0.797909 0
M  V30 7860 C 749.569 -0.789075 -1.70749 0
M  V30 7861 O 748.927 0.25857 -1.79447 0
M  V30 7862 C 748.975 -3.24402 -1.57467 0
M  V30 7863 O 748.079 -3.13043 -2.68473 0
M  V30 7864 H 747.42 -0.627109 -0.218243 0
M  V30 7865 H 749.95 -2.04537 -0.050949 0
M  V30 7866 H 749.96 -3.58072 -1.95571 0
M  V30 7867 H 748.635 -4.05884 -0.907229 0
M  V30 7868 H 747.212 -2.90915 -2.33287 0
M  V30 7869 N 749.397 0.351382 -1.53633 0
M  V30 7870 C 750.645 1.09034 -1.70165 0
M  V30 7871 C 750.966 1.89413 -0.463422 0
M  V30 7872 O 750.236 1.888 0.522624 0
M  V30 7873 H 748.816 0.405522 -0.627344 0
M  V30 7874 H 751.478 0.394554 -1.90865 0
M  V30 7875 H 750.574 1.77215 -2.56907 0
M  V30 7876 N 750.875 1.45233 0.611969 0
M  V30 7877 C 752.1 1.52767 1.40274 0
M  V30 7878 C 752.525 0.159701 1.87421 0
M  V30 7879 O 751.883 -0.854837 1.59882 0
M  V30 7880 C 751.931 2.51286 2.58626 0
M  V30 7881 O 751.035 2.02764 3.59111 0
M  V30 7882 H 750.376 0.515141 0.418958 0
M  V30 7883 H 752.906 1.90547 0.745188 0
M  V30 7884 H 752.916 2.69949 3.05927 0
M  V30 7885 H 751.591 3.50641 2.23659 0
M  V30 7886 H 750.168 1.93957 3.18489 0
M  V30 7887 N 752.353 -0.854086 1.3245 0
M  V30 7888 C 753.303 -1.9508 1.18016 0
M  V30 7889 C 754.287 -1.60665 0.0869417 0
M  V30 7890 O 755.479 -1.74201 0.313505 0
M  V30 7891 C 752.608 -3.3113 0.905961 0
M  V30 7892 C 751.694 -3.71763 2.04091 0
M  V30 7893 N 752.085 -3.84218 3.28953 0
M  V30 7894 C 750.383 -4.01393 1.94421 0
M  V30 7895 C 751.084 -4.192 4.03294 0
M  V30 7896 N 750.06 -4.30749 3.31596 0
M  V30 7897 H 753.862 -2.02843 2.12678 0
M  V30 7898 H 751.376 -1.04588 1.24238 0
M  V30 7899 H 753.373 -4.09471 0.783508 0
M  V30 7900 H 752.033 -3.24684 -0.0322715 0
M  V30 7901 H 753.044 -3.68524 3.63883 0
M  V30 7902 H 749.721 -4.03246 1.08162 0
M  V30 7903 H 751.111 -4.36301 5.1097 0
M  V30 7904 N 753.831 -1.1567 -1.07043 0
M  V30 7905 C 754.761 -0.879348 -2.16309 0
M  V30 7906 C 755.742 0.171311 -1.69235 0
M  V30 7907 O 756.927 0.0250175 -1.94184 0
M  V30 7908 C 754.057 -0.371307 -3.45309 0
M  V30 7909 C 753.011 -1.359 -4.05851 0
M  V30 7910 C 752.337 -0.709678 -5.29969 0
M  V30 7911 C 753.637 -2.72606 -4.45514 0
M  V30 7912 H 755.331 -1.79308 -2.39768 0
M  V30 7913 H 752.877 -0.863558 -1.15233 0
M  V30 7914 H 754.83 -0.164798 -4.21078 0
M  V30 7915 H 753.554 0.577906 -3.21446 0
M  V30 7916 H 752.213 -1.55193 -3.32131 0
M  V30 7917 H 751.861 0.245782 -5.02399 0
M  V30 7918 H 751.561 -1.36886 -5.71433 0
M  V30 7919 H 753.085 -0.513015 -6.08441 0
M  V30 7920 H 754.499 -2.57141 -5.12398 0
M  V30 7921 H 752.896 -3.34927 -4.97939 0
M  V30 7922 H 753.966 -3.28434 -3.56734 0
M  V30 7923 N 755.309 1.25446 -0.953992 0
M  V30 7924 C 756.555 1.9343 -0.60933 0
M  V30 7925 C 756.888 1.74542 0.851388 0
M  V30 7926 O 756.163 1.09014 1.61078 0
M  V30 7927 C 756.446 3.46844 -0.968041 0
M  V30 7928 C 756.299 3.74961 -2.48444 0
M  V30 7929 C 757.618 4.37334 -0.492641 0
M  V30 7930 H 754.737 0.702502 -0.222844 0
M  V30 7931 H 757.379 1.48076 -1.19053 0
M  V30 7932 H 755.529 3.85604 -0.473465 0
M  V30 7933 H 757.201 3.45841 -3.05273 0
M  V30 7934 H 755.444 3.20589 -2.92241 0
M  V30 7935 H 756.115 4.82246 -2.68594 0
M  V30 7936 H 758.591 4.05873 -0.916878 0
M  V30 7937 H 757.467 5.43439 -0.772331 0
M  V30 7938 H 757.728 4.37908 0.607403 0
M  V30 7939 N 756.787 0.722489 1.40064 0
M  V30 7940 C 757.697 0.0755984 2.34478 0
M  V30 7941 C 758.713 -0.736046 1.57665 0
M  V30 7942 O 759.889 -0.667407 1.9002 0
M  V30 7943 C 756.954 -0.830075 3.36616 0
M  V30 7944 C 756.015 -0.00759884 4.29299 0
M  V30 7945 C 755.248 -0.870139 5.26559 0
M  V30 7946 O 755.471 -2.10921 5.2997 0
M  V30 7947 O 754.405 -0.305454 6.01124 0
M  V30 7948 H 758.231 0.854545 2.9143 0
M  V30 7949 H 755.816 0.483032 1.41376 0
M  V30 7950 H 757.698 -1.34864 3.99236 0
M  V30 7951 H 756.373 -1.58805 2.82069 0
M  V30 7952 H 755.28 0.556199 3.69942 0
M  V30 7953 H 756.613 0.712312 4.87018 0
M  V30 7954 N 758.265 -1.50454 0.469181 0
M  V30 7955 C 759.542 -1.9504 -0.147955 0
M  V30 7956 C 759.922 -1.40946 -1.57154 0
M  V30 7957 O 759.27 -0.609663 -2.20217 0
M  V30 7958 C 759.48 -3.48875 -0.0932198 0
M  V30 7959 C 760.828 -4.23655 -0.283056 0
M  V30 7960 O 761.852 -3.55795 -0.169892 0
M  V30 7961 O 760.711 -5.44102 -0.511396 0
M  V30 7962 H 757.805 -0.819283 -0.11271 0
M  V30 7963 H 760.351 -1.6123 0.529446 0
M  V30 7964 H 759.123 -3.80791 0.900784 0
M  V30 7965 H 758.746 -3.89217 -0.812161 0
M  V30 7966 N 759.743 -0.201713 -1.56304 0
M  V30 7967 C 760.991 0.434447 -1.97375 0
M  V30 7968 C 761.312 1.61692 -1.08998 0
M  V30 7969 O 760.582 1.95223 -0.162682 0
M  V30 7970 H 759.162 0.163497 -0.728888 0
M  V30 7971 H 761.824 -0.289988 -1.92731 0
M  V30 7972 H 760.92 0.774136 -3.02347 0
M  V30 7973 N 761.222 1.57436 0.0718424 0
M  V30 7974 C 762.152 2.06724 1.08571 0
M  V30 7975 C 763.133 0.960731 1.40371 0
M  V30 7976 O 764.318 1.23345 1.49999 0
M  V30 7977 C 761.448 2.51112 2.39916 0
M  V30 7978 C 760.402 3.65639 2.22469 0
M  V30 7979 C 759.728 3.96082 3.59198 0
M  V30 7980 C 761.028 4.95687 1.64596 0
M  V30 7981 H 762.722 2.91679 0.675569 0
M  V30 7982 H 760.268 1.40319 0.32352 0
M  V30 7983 H 762.221 2.84206 3.11135 0
M  V30 7984 H 760.945 1.63186 2.8291 0
M  V30 7985 H 759.604 3.32828 1.53691 0
M  V30 7986 H 759.252 3.05287 3.99761 0
M  V30 7987 H 758.952 4.73199 3.48362 0
M  V30 7988 H 760.476 4.31672 4.31847 0
M  V30 7989 H 761.89 5.27011 2.25681 0
M  V30 7990 H 760.287 5.77126 1.64457 0
M  V30 7991 H 761.357 4.8108 0.60744 0
M  V30 7992 N 762.7 -0.34323 1.53817 0
M  V30 7993 C 763.663 -1.40444 1.8113 0
M  V30 7994 C 764.663 -1.45604 0.682366 0
M  V30 7995 O 765.853 -1.45974 0.950649 0
M  V30 7996 C 762.985 -2.79369 1.95361 0
M  V30 7997 H 764.178 -1.17489 2.75928 0
M  V30 7998 H 761.731 -0.577636 1.45234 0
M  V30 7999 H 762.466 -3.07607 1.02707 0
M  V30 8000 H 762.251 -2.7702 2.77493 0
M  V30 8001 H 763.741 -3.56178 2.18008 0
M  V30 8002 N 764.178 -1.45556 -0.604258 0
M  V30 8003 C 765.126 -1.5482 -1.7359 0
M  V30 8004 C 766.12 -0.417966 -1.64163 0
M  V30 8005 O 767.326 -0.594007 -1.69916 0
M  V30 8006 H 763.701 -0.486352 -0.573556 0
M  V30 8007 H 765.672 -2.5001 -1.62903 0
M  V30 8008 C 764.421 -1.53521 -3.11972 0
M  V30 8009 H 763.744 -2.39818 -3.19886 0
M  V30 8010 H 765.184 -1.64061 -3.90973 0
M  V30 8011 C 763.643 -0.260191 -3.35894 0
M  V30 8012 O 764.173 0.658582 -3.96265 0
M  V30 8013 N 762.379 -0.154839 -2.90187 0
M  V30 8014 H 761.926 -0.903378 -2.4124 0
M  V30 8015 H 761.884 0.697437 -3.06567 0
M  V30 8016 N 765.656 0.84705 -1.32902 0
M  V30 8017 C 766.902 1.60414 -1.24078 0
M  V30 8018 C 767.235 1.93217 0.195105 0
M  V30 8019 O 766.51 1.58001 1.13428 0
M  V30 8020 C 766.793 2.91951 -2.108 0
M  V30 8021 C 766.646 2.6588 -3.62805 0
M  V30 8022 C 767.965 3.93299 -1.97494 0
M  V30 8023 H 765.084 0.58206 -0.452079 0
M  V30 8024 H 767.726 0.977562 -1.62922 0
M  V30 8025 H 765.876 3.45425 -1.77802 0
M  V30 8026 H 767.548 2.18902 -4.06054 0
M  V30 8027 H 765.791 1.99716 -3.85092 0
M  V30 8028 H 766.462 3.59574 -4.1882 0
M  V30 8029 H 768.938 3.49105 -2.26417 0
M  V30 8030 H 767.814 4.8318 -2.60438 0
M  V30 8031 H 768.075 4.31887 -0.944782 0
M  V30 8032 N 767.134 1.16236 1.06428 0
M  V30 8033 C 768.044 0.881976 2.1739 0
M  V30 8034 C 769.06 -0.145259 1.73393 0
M  V30 8035 O 770.236 0.0310558 2.01376 0
M  V30 8036 C 767.301 0.385496 3.4455 0
M  V30 8037 C 766.362 1.47779 4.03063 0
M  V30 8038 C 765.595 1.0049 5.24154 0
M  V30 8039 O 765.818 -0.145889 5.70213 0
M  V30 8040 O 764.752 1.79265 5.74585 0
M  V30 8041 H 768.578 1.80983 2.43883 0
M  V30 8042 H 766.163 0.942226 1.15942 0
M  V30 8043 H 768.045 0.115536 4.21242 0
M  V30 8044 H 766.72 -0.514369 3.19587 0
M  V30 8045 H 765.627 1.80147 3.27869 0
M  V30 8046 H 766.96 2.35291 4.32318 0
M  V30 8047 N 768.612 -1.24939 0.960631 0
M  V30 8048 C 769.522 -2.29374 0.492435 0
M  V30 8049 C 770.538 -1.68262 -0.443154 0
M  V30 8050 O 771.714 -1.98875 -0.31793 0
M  V30 8051 C 768.779 -3.46023 -0.216626 0
M  V30 8052 C 767.84 -4.22557 0.757915 0
M  V30 8053 C 767.073 -5.33636 0.0825969 0
M  V30 8054 O 767.296 -5.59084 -1.13054 0
M  V30 8055 O 766.23 -5.96939 0.771177 0
M  V30 8056 H 770.056 -2.71525 1.36044 0
M  V30 8057 H 767.641 -1.30499 0.72735 0
M  V30 8058 H 769.523 -4.16885 -0.615241 0
M  V30 8059 H 768.198 -3.05862 -1.05971 0
M  V30 8060 H 767.105 -3.54099 1.20685 0
M  V30 8061 H 768.438 -4.66516 1.5692 0
M  V30 8062 N 770.09 -0.729906 -1.39679 0
M  V30 8063 C 771.315 -0.284345 -2.05442 0
M  V30 8064 C 771.74 1.07056 -1.54663 0
M  V30 8065 O 771.098 1.67732 -0.688157 0
M  V30 8066 C 771.146 -0.290089 -3.59431 0
M  V30 8067 O 770.25 0.723978 -4.05995 0
M  V30 8068 H 769.591 -0.130311 -0.651088 0
M  V30 8069 H 772.121 -0.994403 -1.78809 0
M  V30 8070 H 772.131 -0.132712 -4.07784 0
M  V30 8071 H 770.806 -1.27877 -3.95753 0
M  V30 8072 H 769.383 0.533154 -3.69069 0
M  V30 8073 N 771.568 1.50203 -0.477153 0
M  V30 8074 C 772.478 2.32421 0.319027 0
M  V30 8075 C 773.494 1.43075 0.990233 0
M  V30 8076 O 774.67 1.76123 0.976873 0
M  V30 8077 C 771.735 3.17909 1.38328 0
M  V30 8078 C 770.796 4.23082 0.728036 0
M  V30 8079 C 770.029 5.04484 1.74158 0
M  V30 8080 O 770.252 4.8705 2.96881 0
M  V30 8081 O 769.186 5.8747 1.31006 0
M  V30 8082 H 773.012 3.01638 -0.353281 0
M  V30 8083 H 770.597 1.47478 -0.238891 0
M  V30 8084 H 772.479 3.70937 1.9996 0
M  V30 8085 H 771.154 2.51413 2.03895 0
M  V30 8086 H 770.061 3.7403 0.07261 0
M  V30 8087 H 771.394 4.92065 0.115216 0
M  V30 8088 N 773.046 0.209999 1.56195 0
M  V30 8089 C 774.323 -0.473214 1.89789 0
M  V30 8090 C 774.703 -1.78581 1.1257 0
M  V30 8091 O 774.051 -2.27325 0.231398 0
M  V30 8092 C 774.261 -0.677458 3.42362 0
M  V30 8093 C 775.609 -0.990114 4.12895 0
M  V30 8094 O 776.633 -0.764655 3.47896 0
M  V30 8095 O 775.492 -1.41737 5.278 0
M  V30 8096 H 772.586 -0.248622 0.788743 0
M  V30 8097 H 775.132 0.251324 1.67829 0
M  V30 8098 H 773.904 0.248878 3.90508 0
M  V30 8099 H 773.527 -1.45391 3.70064 0
M  V30 8100 N 774.524 -1.57472 -0.0634922 0
M  V30 8101 C 775.771 -1.87654 -0.761066 0
M  V30 8102 C 776.099 -0.802847 -1.77157 0
M  V30 8103 O 775.354 0.200244 -1.94673 0
M  V30 8104 C 775.653 -3.24521 -1.49736 0
M  V30 8105 C 775.319 -4.46532 -0.626065 0
M  V30 8106 C 773.981 -4.7965 -0.385978 0
M  V30 8107 C 776.333 -5.21195 -0.0224001 0
M  V30 8108 C 773.661 -5.84837 0.467118 0
M  V30 8109 C 776.013 -6.27286 0.818198 0
M  V30 8110 C 774.677 -6.58899 1.06808 0
M  V30 8111 H 773.947 -0.686675 -0.278494 0
M  V30 8112 H 776.594 -1.91488 -0.0216348 0
M  V30 8113 H 774.899 -3.16516 -2.30921 0
M  V30 8114 H 776.596 -3.45111 -2.04204 0
M  V30 8115 H 773.186 -4.20618 -0.823325 0
M  V30 8116 H 777.37 -4.95917 -0.194985 0
M  V30 8117 H 772.626 -6.07725 0.669375 0
M  V30 8118 H 776.8 -6.84298 1.29265 0
M  V30 8119 H 774.427 -7.40233 1.73088 0
M  V30 8120 N 776.003 0.335068 -1.53997 0
M  V30 8121 C 776.933 1.41727 -1.85568 0
M  V30 8122 C 777.914 1.54505 -0.7115 0
M  V30 8123 O 779.099 1.68573 -0.964191 0
M  V30 8124 C 776.229 2.7866 -2.07282 0
M  V30 8125 C 775.183 2.80682 -3.23112 0
M  V30 8126 C 774.509 4.20581 -3.30175 0
M  V30 8127 C 775.809 2.45458 -4.61029 0
M  V30 8128 H 777.503 1.15555 -2.76202 0
M  V30 8129 H 775.049 0.554445 -1.32898 0
M  V30 8130 H 777.002 3.54423 -2.27952 0
M  V30 8131 H 775.726 3.06286 -1.13387 0
M  V30 8132 H 774.385 2.07373 -3.02311 0
M  V30 8133 H 774.033 4.4533 -2.33859 0
M  V30 8134 H 773.733 4.22843 -4.08016 0
M  V30 8135 H 775.257 4.98174 -3.53066 0
M  V30 8136 H 776.671 3.10934 -4.81656 0
M  V30 8137 H 775.068 2.5899 -5.41336 0
M  V30 8138 H 776.138 1.40628 -4.6406 0
M  V30 8139 N 777.481 1.45874 0.596531 0
M  V30 8140 C 778.706 1.54247 1.38646 0
M  V30 8141 C 779.131 0.179571 1.87241 0
M  V30 8142 O 778.489 -0.837831 1.6078 0
M  V30 8143 C 778.537 2.54015 2.55946 0
M  V30 8144 O 777.641 2.06561 3.5694 0
M  V30 8145 H 776.982 0.519555 0.413471 0
M  V30 8146 H 779.512 1.91327 0.724936 0
M  V30 8147 H 779.522 2.73179 3.03047 0
M  V30 8148 H 778.197 3.52994 2.19928 0
M  V30 8149 H 776.774 1.97324 3.16414 0
M  V30 8150 N 778.959 -0.83999 1.33349 0
M  V30 8151 C 780.208 -1.59011 1.2409 0
M  V30 8152 C 780.521 -1.94655 -0.192029 0
M  V30 8153 O 781.727 -2.68438 -0.406617 0
M  V30 8154 C 780.183 -2.86801 2.17425 0
M  V30 8155 C 779.791 -2.58525 3.65881 0
M  V30 8156 C 781.535 -3.64823 2.17036 0
M  V30 8157 C 779.442 -3.82404 4.51133 0
M  V30 8158 H 778.372 -0.596731 0.460899 0
M  V30 8159 H 781.023 -0.926274 1.58406 0
M  V30 8160 H 779.405 -3.54719 1.7604 0
M  V30 8161 H 780.579 -1.98824 4.15699 0
M  V30 8162 H 778.894 -1.93808 3.68548 0
M  V30 8163 H 781.491 -4.56774 2.7796 0
M  V30 8164 H 781.834 -3.99663 1.16513 0
M  V30 8165 H 782.367 -3.03826 2.56777 0
M  V30 8166 H 779.106 -3.52696 5.52527 0
M  V30 8167 H 778.626 -4.41447 4.0606 0
M  V30 8168 H 780.305 -4.49995 4.6488 0
M  V30 8169 N 780.437 -1.16799 -1.0581 0
M  V30 8170 C 781.714 -0.862616 -1.75551 0
M  V30 8171 C 782.094 0.6385 -2.01212 0
M  V30 8172 O 781.442 1.58784 -1.64317 0
M  V30 8173 C 781.652 -1.6907 -3.05314 0
M  V30 8174 C 783 -1.90675 -3.79379 0
M  V30 8175 O 784.024 -1.65976 -3.15167 0
M  V30 8176 O 782.883 -2.32145 -4.94743 0
M  V30 8177 H 779.977 -0.318789 -0.763088 0
M  V30 8178 H 782.523 -1.27461 -1.12034 0
M  V30 8179 H 781.295 -2.70912 -2.82352 0
M  V30 8180 H 780.918 -1.27606 -3.76567 0
M  V30 8181 N 781.915 1.24427 -0.967243 0
M  V30 8182 C 783.14 1.9708 -0.646069 0
M  V30 8183 C 783.565 1.71272 0.777665 0
M  V30 8184 O 782.923 0.976179 1.52776 0
M  V30 8185 C 782.971 3.48501 -0.926266 0
M  V30 8186 O 782.075 4.12398 -0.0114653 0
M  V30 8187 H 781.416 0.617423 -0.244304 0
M  V30 8188 H 783.946 1.58215 -1.29727 0
M  V30 8189 H 783.956 3.98885 -0.857619 0
M  V30 8190 H 782.631 3.66613 -1.96386 0
M  V30 8191 H 781.208 3.72661 -0.133396 0
M  V30 8192 N 783.393 0.737304 1.3929 0
M  V30 8193 C 784.323 0.113988 2.33222 0
M  V30 8194 C 785.304 -0.721695 1.54031 0
M  V30 8195 O 786.489 -0.666206 1.82415 0
M  V30 8196 C 783.619 -0.792319 3.38141 0
M  V30 8197 C 782.573 -0.0606178 4.27957 0
M  V30 8198 C 781.899 -1.08409 5.23595 0
M  V30 8199 C 783.199 1.09817 5.10625 0
M  V30 8200 H 784.893 0.898611 2.85596 0
M  V30 8201 H 782.439 0.433571 1.37318 0
M  V30 8202 H 784.392 -1.23793 4.02807 0
M  V30 8203 H 783.116 -1.60908 2.84211 0
M  V30 8204 H 781.775 0.365393 3.64775 0
M  V30 8205 H 781.423 -1.89449 4.6596 0
M  V30 8206 H 781.123 -0.599269 5.84536 0
M  V30 8207 H 782.647 -1.52936 5.91137 0
M  V30 8208 H 784.061 0.730892 5.68622 0
M  V30 8209 H 782.458 1.51278 5.80719 0
M  V30 8210 H 783.528 1.91878 4.45321 0
M  V30 8211 N 784.871 -1.49948 0.485112 0
M  V30 8212 C 786.282 -1.8667 0.0334041 0
M  V30 8213 C 786.633 -1.3988 -1.37579 0
M  V30 8214 O 785.758 -0.769788 -2.02245 0
M  V30 8215 C 786.353 -3.38757 0.0538426 0
M  V30 8216 C 784.912 -3.74839 -0.342453 0
M  V30 8217 C 784.059 -2.73894 0.433281 0
M  V30 8218 H 787.01 -1.42492 0.698699 0
M  V30 8219 H 787.031 -3.73132 -0.745146 0
M  V30 8220 H 786.543 -3.72782 1.07959 0
M  V30 8221 H 784.644 -3.46419 -1.37203 0
M  V30 8222 H 784.757 -4.79088 -0.0340503 0
M  V30 8223 H 783.121 -2.54441 -0.114849 0
M  V30 8224 H 783.904 -3.10763 1.45881 0
M  V30 8225 N 786.349 -0.21828 -1.56081 0
M  V30 8226 C 787.574 0.422302 -2.03055 0
M  V30 8227 C 787.999 1.5279 -1.09713 0
M  V30 8228 O 787.357 1.81102 -0.0847187 0
M  V30 8229 C 787.405 0.934177 -3.48289 0
M  V30 8230 O 786.509 2.04574 -3.58083 0
M  V30 8231 H 785.85 0.0959764 -0.657027 0
M  V30 8232 H 788.38 -0.335958 -2.01823 0
M  V30 8233 H 788.39 1.24484 -3.88546 0
M  V30 8234 H 787.065 0.124963 -4.15712 0
M  V30 8235 H 785.642 1.74196 -3.29712 0
M  V30 8236 N 787.827 1.57504 0.0551401 0
M  V30 8237 C 789.052 1.92682 0.767352 0
M  V30 8238 C 789.477 0.81614 1.69472 0
M  V30 8239 O 788.835 -0.229989 1.79835 0
M  V30 8240 C 788.883 3.26866 1.52286 0
M  V30 8241 O 787.987 3.17274 2.63459 0
M  V30 8242 H 787.328 0.630502 0.208238 0
M  V30 8243 H 789.858 2.04592 0.0184026 0
M  V30 8244 H 789.868 3.61138 1.8985 0
M  V30 8245 H 788.543 4.07276 0.842541 0
M  V30 8246 H 787.12 2.94589 2.2863 0
M  V30 8247 N 789.305 -0.326896 1.54172 0
M  V30 8248 C 790.53 -1.08924 1.76494 0
M  V30 8249 C 790.955 -1.81039 0.510523 0
M  V30 8250 O 790.313 -1.73141 -0.537756 0
M  V30 8251 C 790.361 -2.06558 2.95578 0
M  V30 8252 O 789.465 -3.14394 2.6689 0
M  V30 8253 H 788.806 -0.314216 0.584948 0
M  V30 8254 H 791.336 -0.372207 2.01186 0
M  V30 8255 H 791.346 -2.49487 3.22832 0
M  V30 8256 H 790.021 -1.53469 3.86549 0
M  V30 8257 H 788.598 -2.76164 2.50576 0
M  V30 8258 N 790.784 -1.46188 -0.588786 0
M  V30 8259 C 792.031 -1.51184 -1.34721 0
M  V30 8260 C 792.359 -0.161084 -1.93832 0
M  V30 8261 O 791.614 0.842557 -1.76634 0
M  V30 8262 C 791.913 -2.55364 -2.50048 0
M  V30 8263 C 791.579 -3.99553 -2.08969 0
M  V30 8264 C 790.241 -4.38811 -1.9748 0
M  V30 8265 C 792.593 -4.90156 -1.77191 0
M  V30 8266 C 789.921 -5.66544 -1.52463 0
M  V30 8267 C 792.273 -6.1832 -1.33654 0
M  V30 8268 C 790.937 -6.5649 -1.20738 0
M  V30 8269 H 790.207 -0.55322 -0.49298 0
M  V30 8270 H 792.854 -1.79634 -0.663627 0
M  V30 8271 H 791.159 -2.20552 -3.23827 0
M  V30 8272 H 792.856 -2.5646 -3.08268 0
M  V30 8273 H 789.446 -3.68518 -2.18843 0
M  V30 8274 H 793.63 -4.60549 -1.84955 0
M  V30 8275 H 788.886 -5.94895 -1.411 0
M  V30 8276 H 793.06 -6.87956 -1.08117 0
M  V30 8277 H 790.687 -7.55362 -0.856307 0
M  V30 8278 N 792.262 0.832906 -1.33792 0
M  V30 8279 C 793.49 1.62048 -1.28639 0
M  V30 8280 C 793.905 1.88269 0.141522 0
M  V30 8281 O 793.262 1.46706 1.08553 0
M  V30 8282 C 793.313 2.96722 -2.0649 0
M  V30 8283 O 793.034 2.7165 -3.43712 0
M  V30 8284 C 794.535 3.91144 -2.08617 0
M  V30 8285 H 791.755 0.504032 -0.442937 0
M  V30 8286 H 794.299 1.03704 -1.76255 0
M  V30 8287 H 792.454 3.51652 -1.62541 0
M  V30 8288 H 792.868 3.57453 -3.83833 0
M  V30 8289 H 794.342 4.82837 -2.67531 0
M  V30 8290 H 794.819 4.25766 -1.07796 0
M  V30 8291 H 795.425 3.42152 -2.52611 0
M  V30 8292 N 793.74 1.17359 1.05189 0
M  V30 8293 C 794.672 0.848078 2.12933 0
M  V30 8294 C 795.685 -0.149521 1.62112 0
M  V30 8295 O 796.874 0.0767797 1.78335 0
M  V30 8296 C 793.974 0.243889 3.38021 0
M  V30 8297 C 793.147 1.28436 4.18118 0
M  V30 8298 C 792.206 0.697926 5.21551 0
M  V30 8299 O 791.232 1.36973 5.52473 0
M  V30 8300 N 792.434 -0.510024 5.78255 0
M  V30 8301 H 795.199 1.7754 2.41453 0
M  V30 8302 H 792.76 1.07244 1.21286 0
M  V30 8303 H 794.752 -0.161727 4.04377 0
M  V30 8304 H 793.322 -0.58722 3.07035 0
M  V30 8305 H 792.542 1.86573 3.47252 0
M  V30 8306 H 793.83 1.98617 4.68432 0
M  V30 8307 H 793.228 -1.07378 5.55416 0
M  V30 8308 H 791.785 -0.857705 6.46132 0
M  V30 8309 N 795.218 -1.23913 0.973828 0
M  V30 8310 C 796.629 -1.73992 0.677021 0
M  V30 8311 C 796.98 -1.78833 -0.807036 0
M  V30 8312 O 796.105 -1.42183 -1.63135 0
M  V30 8313 C 796.7 -3.15985 1.22226 0
M  V30 8314 C 795.259 -3.63547 0.975228 0
M  V30 8315 C 794.406 -2.42001 1.35392 0
M  V30 8316 H 797.357 -1.09529 1.14844 0
M  V30 8317 H 797.378 -3.75875 0.591489 0
M  V30 8318 H 796.89 -3.12429 2.30238 0
M  V30 8319 H 794.991 -3.72493 -0.0891047 0
M  V30 8320 H 795.104 -4.50693 1.62518 0
M  V30 8321 H 793.468 -2.42708 0.772334 0
M  V30 8322 H 794.251 -2.41122 2.44367 0
M  V30 8323 N 796.696 -0.74468 -1.38897 0
M  V30 8324 C 797.942 -0.297324 -2.00609 0
M  V30 8325 C 798.275 1.11547 -1.58968 0
M  V30 8326 O 797.55 1.76227 -0.823057 0
M  V30 8327 C 797.833 -0.410125 -3.57757 0
M  V30 8328 C 797.686 -1.86338 -4.09387 0
M  V30 8329 C 799.005 0.20176 -4.39637 0
M  V30 8330 H 796.124 -0.109509 -0.728819 0
M  V30 8331 H 798.766 -0.942653 -1.64967 0
M  V30 8332 H 796.916 0.139287 -3.8825 0
M  V30 8333 H 798.588 -2.47042 -3.89574 0
M  V30 8334 H 796.831 -2.38146 -3.62586 0
M  V30 8335 H 797.502 -1.89352 -5.18507 0
M  V30 8336 H 799.978 -0.266703 -4.15244 0
M  V30 8337 H 798.854 0.0925415 -5.48822 0
M  V30 8338 H 799.115 1.289 -4.22891 0
M  V30 8339 N 798.174 1.49689 -0.493057 0
M  V30 8340 C 799.585 1.8665 -0.0433032 0
M  V30 8341 C 799.936 1.40607 1.36836 0
M  V30 8342 O 799.061 0.780503 2.01834 0
M  V30 8343 C 799.656 3.38724 -0.0718069 0
M  V30 8344 C 798.215 3.75015 0.32257 0
M  V30 8345 C 797.362 2.7366 -0.4478 0
M  V30 8346 H 800.313 1.42119 -0.706246 0
M  V30 8347 H 800.334 3.73522 0.725347 0
M  V30 8348 H 799.846 3.72204 -1.09935 0
M  V30 8349 H 797.947 3.47142 1.35364 0
M  V30 8350 H 798.06 4.79099 0.00864259 0
M  V30 8351 H 796.424 2.54498 0.101354 0
M  V30 8352 H 797.207 3.09985 -1.47527 0
M  V30 8353 N 799.652 0.226554 1.55963 0
M  V30 8354 C 800.599 -0.681504 2.20509 0
M  V30 8355 C 801.569 -1.1866 1.16229 0
M  V30 8356 O 802.754 -1.24478 1.44602 0
M  V30 8357 C 799.894 -1.88183 2.89277 0
M  V30 8358 C 799.007 -1.41517 4.08163 0
M  V30 8359 C 798.142 -2.57346 4.647 0
M  V30 8360 C 797.181 -2.07441 5.75877 0
M  V30 8361 N 796.318 -3.16561 6.26685 0
M  V30 8362 H 801.158 -0.124372 2.9774 0
M  V30 8363 H 798.695 -0.0496333 1.47016 0
M  V30 8364 H 800.653 -2.58666 3.27335 0
M  V30 8365 H 799.283 -2.41177 2.14555 0
M  V30 8366 H 798.335 -0.605099 3.75557 0
M  V30 8367 H 799.647 -1.00928 4.88482 0
M  V30 8368 H 798.801 -3.35903 5.05227 0
M  V30 8369 H 797.54 -3.01227 3.83554 0
M  V30 8370 H 796.545 -1.27347 5.34848 0
M  V30 8371 H 797.77 -1.64554 6.58862 0
M  V30 8372 H 795.716 -3.59914 5.48451 0
M  V30 8373 H 795.633 -2.80239 7.02141 0
M  V30 8374 H 796.901 -3.95238 6.71868 0
M  V30 8375 N 801.13 -1.57531 -0.0467866 0
M  V30 8376 C 802.04 -2.08768 -1.07018 0
M  V30 8377 C 803.056 -1.02245 -1.40791 0
M  V30 8378 O 804.232 -1.33873 -1.50466 0
M  V30 8379 C 801.297 -2.54221 -2.35738 0
M  V30 8380 C 800.358 -3.75152 -2.08709 0
M  V30 8381 C 799.591 -4.18428 -3.31291 0
M  V30 8382 O 799.814 -3.61365 -4.4133 0
M  V30 8383 O 798.748 -5.11018 -3.18032 0
M  V30 8384 H 802.574 -2.96334 -0.664812 0
M  V30 8385 H 800.159 -1.47074 -0.262605 0
M  V30 8386 H 802.041 -2.83866 -3.11445 0
M  V30 8387 H 800.716 -1.69774 -2.75605 0
M  V30 8388 H 799.623 -3.50553 -1.30627 0
M  V30 8389 H 800.956 -4.60528 -1.73708 0
M  V30 8390 N 802.608 0.318715 -1.54344 0
M  V30 8391 C 803.836 1.0755 -1.7675 0
M  V30 8392 C 804.251 1.81543 -0.518422 0
M  V30 8393 O 803.608 1.75198 0.511078 0
M  V30 8394 C 803.659 2.06983 -2.96378 0
M  V30 8395 O 803.38 1.35995 -4.16458 0
M  V30 8396 C 804.881 2.94841 -3.31034 0
M  V30 8397 H 802.101 0.319711 -0.589937 0
M  V30 8398 H 804.645 0.363369 -2.01246 0
M  V30 8399 H 802.8 2.73724 -2.74142 0
M  V30 8400 H 803.214 2.02623 -4.83781 0
M  V30 8401 H 804.688 3.60496 -4.18027 0
M  V30 8402 H 805.165 3.62199 -2.48412 0
M  V30 8403 H 805.771 2.33656 -3.55366 0
M  V30 8404 N 804.086 1.46499 0.581025 0
M  V30 8405 C 805.335 1.51162 1.3354 0
M  V30 8406 C 805.648 0.168433 1.94873 0
M  V30 8407 O 806.854 0.092883 2.71341 0
M  V30 8408 C 805.31 2.66362 2.42032 0
M  V30 8409 C 804.918 4.07109 1.86994 0
M  V30 8410 C 806.662 2.80297 3.188 0
M  V30 8411 C 804.569 5.13645 2.93125 0
M  V30 8412 H 803.499 0.562576 0.502021 0
M  V30 8413 H 806.15 1.72713 0.619863 0
M  V30 8414 H 804.532 2.38143 3.16392 0
M  V30 8415 H 805.706 4.45125 1.19166 0
M  V30 8416 H 804.021 3.97854 1.22887 0
M  V30 8417 H 806.618 3.5706 3.9801 0
M  V30 8418 H 806.961 1.87875 3.71495 0
M  V30 8419 H 807.494 3.0817 2.51547 0
M  V30 8420 H 804.233 6.07866 2.45315 0
M  V30 8421 H 803.753 4.80172 3.59437 0
M  V30 8422 H 805.432 5.39562 3.57046 0
M  V30 8423 N 805.565 -0.825799 1.34232 0
M  V30 8424 C 806.976 -1.39835 1.23706 0
M  V30 8425 C 807.327 -1.95709 -0.138649 0
M  V30 8426 O 806.452 -1.89833 -1.03886 0
M  V30 8427 C 807.047 -2.54203 2.23978 0
M  V30 8428 C 805.606 -3.07374 2.17251 0
M  V30 8429 C 804.753 -1.80232 2.10741 0
M  V30 8430 H 807.704 -0.630442 1.4564 0
M  V30 8431 H 807.725 -3.32214 1.8551 0
M  V30 8432 H 807.237 -2.13506 3.24094 0
M  V30 8433 H 805.338 -3.52583 1.20483 0
M  V30 8434 H 805.451 -3.6666 3.08379 0
M  V30 8435 H 803.815 -2.01012 1.56417 0
M  V30 8436 H 804.598 -1.41713 3.12686 0
M  V30 8437 N 807.043 -1.17915 -1.04565 0
M  V30 8438 C 808.268 -0.996749 -1.81878 0
M  V30 8439 C 808.693 0.450169 -1.82634 0
M  V30 8440 O 808.051 1.32268 -1.23995 0
M  V30 8441 C 808.099 -1.55005 -3.25585 0
M  V30 8442 O 807.203 -0.76804 -4.05185 0
M  V30 8443 H 806.544 -0.353456 -0.562108 0
M  V30 8444 H 809.074 -1.56557 -1.31723 0
M  V30 8445 H 809.084 -1.57503 -3.76373 0
M  V30 8446 H 807.759 -2.60327 -3.2435 0
M  V30 8447 H 806.336 -0.81498 -3.63885 0
M  V30 8448 N 808.521 1.23394 -0.980386 0
M  V30 8449 C 809.454 2.23404 -0.465404 0
M  V30 8450 C 810.432 1.55735 0.467471 0
M  V30 8451 O 811.616 1.84295 0.395921 0
M  V30 8452 C 808.743 3.3712 0.32672 0
M  V30 8453 C 807.789 4.22935 -0.550296 0
M  V30 8454 S 808.622 4.96824 -1.99814 0
M  V30 8455 C 809.778 6.13991 -1.21516 0
M  V30 8456 H 810.011 2.6674 -1.31289 0
M  V30 8457 H 807.544 1.32874 -0.78638 0
M  V30 8458 H 809.502 4.03065 0.777738 0
M  V30 8459 H 808.163 2.92317 1.14933 0
M  V30 8460 H 807.356 5.03966 0.0585298 0
M  V30 8461 H 806.958 3.62058 -0.937558 0
M  V30 8462 H 809.25 6.75822 -0.476476 0
M  V30 8463 H 810.193 6.7926 -2.0003 0
M  V30 8464 H 810.601 5.59708 -0.733949 0
M  V30 8465 N 809.999 0.752036 1.385 0
M  V30 8466 C 810.909 0.125318 2.34265 0
M  V30 8467 C 811.925 -0.702437 1.59191 0
M  V30 8468 O 813.101 -0.626951 1.91393 0
M  V30 8469 C 810.166 -0.758486 3.38301 0
M  V30 8470 C 809.227 0.0834636 4.29219 0
M  V30 8471 C 808.46 -0.758252 5.28286 0
M  V30 8472 O 808.683 -1.99632 5.34325 0
M  V30 8473 O 807.617 -0.177878 6.01637 0
M  V30 8474 H 811.443 0.91617 2.89551 0
M  V30 8475 H 809.028 0.512911 1.4032 0
M  V30 8476 H 810.91 -1.26365 4.02007 0
M  V30 8477 H 809.585 -1.52786 2.85374 0
M  V30 8478 H 808.492 0.634545 3.68679 0
M  V30 8479 H 809.825 0.815455 4.85398 0
M  V30 8480 N 811.477 -1.49425 0.500989 0
M  V30 8481 C 812.754 -1.9531 -0.106551 0
M  V30 8482 C 813.134 -1.44248 -1.54129 0
M  V30 8483 O 812.482 -0.656237 -2.18874 0
M  V30 8484 C 812.692 -3.48995 -0.0191972 0
M  V30 8485 C 814.04 -4.24161 -0.193129 0
M  V30 8486 O 815.064 -3.56075 -0.0943843 0
M  V30 8487 O 813.923 -5.45064 -0.395869 0
M  V30 8488 H 811.017 -0.82149 -0.0953068 0
M  V30 8489 H 813.563 -1.6007 0.563526 0
M  V30 8490 H 812.335 -3.78794 0.981353 0
M  V30 8491 H 811.958 -3.90852 -0.72942 0
M  V30 8492 N 812.955 -0.234822 -1.55841 0
M  V30 8493 C 814.18 0.400741 -2.03492 0
M  V30 8494 C 814.605 1.51618 -1.11327 0
M  V30 8495 O 813.963 1.81002 -0.103922 0
M  V30 8496 C 814.011 0.897184 -3.49261 0
M  V30 8497 O 813.115 2.00764 -3.60233 0
M  V30 8498 H 812.456 0.0890023 -0.658008 0
M  V30 8499 H 814.986 -0.357345 -2.01455 0
M  V30 8500 H 814.996 1.20356 -3.89844 0
M  V30 8501 H 813.671 0.0808639 -4.15821 0
M  V30 8502 H 812.248 1.70689 -3.31541 0
M  V30 8503 N 814.433 1.57553 0.0384317 0
M  V30 8504 C 815.71 1.79977 0.766002 0
M  V30 8505 C 816.09 0.830625 1.94072 0
M  V30 8506 O 815.438 -0.129243 2.28134 0
M  V30 8507 C 815.648 3.27434 1.20781 0
M  V30 8508 C 816.996 3.92167 1.62758 0
M  V30 8509 O 818.02 3.31527 1.30263 0
M  V30 8510 O 816.879 4.98917 2.23035 0
M  V30 8511 H 813.973 0.739787 0.369654 0
M  V30 8512 H 816.519 1.69693 0.0159312 0
M  V30 8513 H 815.291 3.89558 0.368792 0
M  V30 8514 H 814.914 3.42571 2.01819 0
M  V30 8515 N 815.911 -0.310526 1.54511 0
M  V30 8516 C 817.157 -1.04846 1.73595 0
M  V30 8517 C 817.49 -1.87244 0.515118 0
M  V30 8518 O 816.765 -1.88282 -0.48786 0
M  V30 8519 C 817.048 -1.96237 3.01932 0
M  V30 8520 C 816.901 -1.17082 4.34295 0
M  V30 8521 C 818.22 -2.9556 3.26086 0
M  V30 8522 H 815.339 -0.37976 0.631626 0
M  V30 8523 H 817.981 -0.32394 1.87218 0
M  V30 8524 H 816.131 -2.58015 2.90449 0
M  V30 8525 H 817.803 -0.576643 4.57682 0
M  V30 8526 H 816.046 -0.473336 4.3121 0
M  V30 8527 H 816.717 -1.84257 5.20339 0
M  V30 8528 H 819.193 -2.43908 3.37117 0
M  V30 8529 H 818.069 -3.5668 4.17218 0
M  V30 8530 H 818.33 -3.68715 2.4393 0
M  V30 8531 N 817.389 -1.46805 -0.573248 0
M  V30 8532 C 818.614 -1.56433 -1.36175 0
M  V30 8533 C 819.039 -0.209336 -1.86932 0
M  V30 8534 O 818.397 0.812146 -1.62092 0
M  V30 8535 C 818.445 -2.58055 -2.51873 0
M  V30 8536 O 817.549 -2.12214 -3.53609 0
M  V30 8537 H 816.89 -0.526068 -0.405153 0
M  V30 8538 H 819.42 -1.92456 -0.694405 0
M  V30 8539 H 819.43 -2.77966 -2.98662 0
M  V30 8540 H 818.105 -3.56448 -2.14284 0
M  V30 8541 H 816.682 -2.02333 -3.13234 0
M  V30 8542 N 818.867 0.818669 -1.34668 0
M  V30 8543 C 819.797 1.94468 -1.29245 0
M  V30 8544 C 820.778 1.69257 -0.169101 0
M  V30 8545 O 821.963 1.90794 -0.362143 0
M  V30 8546 C 819.093 3.31001 -1.05145 0
M  V30 8547 C 818.047 3.70663 -2.13992 0
M  V30 8548 C 817.373 5.05226 -1.75074 0
M  V30 8549 C 818.673 3.82312 -3.55858 0
M  V30 8550 H 820.367 1.99263 -2.2346 0
M  V30 8551 H 817.913 0.957304 -1.07572 0
M  V30 8552 H 819.866 4.09364 -0.999949 0
M  V30 8553 H 818.59 3.26517 -0.0737312 0
M  V30 8554 H 817.249 2.94578 -2.18219 0
M  V30 8555 H 816.897 4.97233 -0.759518 0
M  V30 8556 H 816.597 5.32734 -2.47928 0
M  V30 8557 H 818.121 5.86042 -1.71427 0
M  V30 8558 H 819.535 4.50935 -3.5402 0
M  V30 8559 H 817.932 4.21278 -4.2737 0
M  V30 8560 H 819.002 2.84193 -3.9289 0
M  V30 8561 N 820.346 1.18468 1.03938 0
M  V30 8562 C 821.574 1.00576 1.80809 0
M  V30 8563 C 821.989 -0.445786 1.83462 0
M  V30 8564 O 821.346 -1.30964 1.27101 0
M  V30 8565 C 821.397 1.55491 3.26351 0
M  V30 8566 O 821.118 2.94963 3.23926 0
M  V30 8567 C 822.619 1.42236 4.19862 0
M  V30 8568 H 819.839 0.35508 0.56935 0
M  V30 8569 H 822.383 1.57046 1.30984 0
M  V30 8570 H 820.538 1.03195 3.73403 0
M  V30 8571 H 820.952 3.20598 4.15111 0
M  V30 8572 H 822.426 1.85455 5.19914 0
M  V30 8573 H 822.903 0.371267 4.37628 0
M  V30 8574 H 823.509 1.9361 3.78675 0
M  V30 8575 N 821.824 -1.22873 0.986916 0
M  V30 8576 C 823.049 -1.96028 0.677341 0
M  V30 8577 C 823.474 -1.72487 -0.750319 0
M  V30 8578 O 822.832 -1.00036 -1.51203 0
M  V30 8579 C 822.88 -3.46983 0.981593 0
M  V30 8580 O 821.984 -4.12328 0.0770729 0
M  V30 8581 H 821.325 -0.613458 0.254096 0
M  V30 8582 H 823.855 -1.56132 1.32227 0
M  V30 8583 H 823.865 -3.9747 0.920969 0
M  V30 8584 H 822.54 -3.63442 2.02194 0
M  V30 8585 H 821.117 -3.72402 0.192666 0
M  V30 8586 N 823.302 -0.75937 -1.38099 0
M  V30 8587 C 824.527 -0.327859 -2.04792 0
M  V30 8588 C 824.952 1.03752 -1.56899 0
M  V30 8589 O 824.31 1.66235 -0.723581 0
M  V30 8590 C 824.358 -0.366264 -3.58735 0
M  V30 8591 O 823.462 0.637697 -4.0744 0
M  V30 8592 H 822.803 -0.144092 -0.648177 0
M  V30 8593 H 825.333 -1.03211 -1.7666 0
M  V30 8594 H 825.343 -0.219179 -4.07411 0
M  V30 8595 H 824.018 -1.36243 -3.92951 0
M  V30 8596 H 822.595 0.454749 -3.70117 0
M  V30 8597 N 824.78 1.49157 -0.508906 0
M  V30 8598 C 826.191 1.86593 -0.0630975 0
M  V30 8599 C 826.542 1.42051 1.35337 0
M  V30 8600 O 825.667 0.801866 2.00995 0
M  V30 8601 C 826.262 3.38629 -0.107729 0
M  V30 8602 C 824.821 3.75336 0.282776 0
M  V30 8603 C 823.968 2.7317 -0.4768 0
M  V30 8604 H 826.919 1.41362 -0.72128 0
M  V30 8605 H 826.94 3.74271 0.685689 0
M  V30 8606 H 826.452 3.71017 -1.13876 0
M  V30 8607 H 824.553 3.48558 1.31675 0
M  V30 8608 H 824.666 4.79081 -0.0421728 0
M  V30 8609 H 823.03 2.54591 0.0743552 0
M  V30 8610 H 823.813 3.08403 -1.50807 0
M  V30 8611 N 826.258 0.243083 1.55714 0
M  V30 8612 C 827.488 -0.38641 2.02954 0
M  V30 8613 C 827.896 -1.52358 1.12177 0
M  V30 8614 O 827.239 -1.83255 0.127853 0
M  V30 8615 C 827.301 -0.959388 3.46462 0
M  V30 8616 C 826.965 0.0450546 4.56978 0
M  V30 8617 C 827.962 0.853224 5.12851 0
M  V30 8618 C 825.647 0.170041 5.02012 0
M  V30 8619 C 827.641 1.77288 6.12248 0
M  V30 8620 C 825.328 1.0932 6.01242 0
M  V30 8621 C 826.326 1.89315 6.56238 0
M  V30 8622 O 826.014 2.80075 7.53534 0
M  V30 8623 H 825.746 -0.0964333 0.669086 0
M  V30 8624 H 828.3 0.363399 2.0216 0
M  V30 8625 H 826.53 -1.75869 3.44394 0
M  V30 8626 H 828.219 -1.49856 3.77224 0
M  V30 8627 H 828.985 0.767229 4.78893 0
M  V30 8628 H 824.864 -0.442528 4.58871 0
M  V30 8629 H 828.408 2.39768 6.55101 0
M  V30 8630 H 824.305 1.18013 6.3462 0
M  V30 8631 H 825.073 2.74393 7.71136 0
M  V30 8632 N 827.736 -1.57571 -0.0300757 0
M  V30 8633 C 828.666 -2.0953 -1.03051 0
M  V30 8634 C 829.647 -0.99761 -1.37774 0
M  V30 8635 O 830.832 -1.27279 -1.46676 0
M  V30 8636 C 827.962 -2.57385 -2.33174 0
M  V30 8637 C 826.916 -3.71409 -2.12696 0
M  V30 8638 C 826.242 -4.05467 -3.4857 0
M  V30 8639 C 827.542 -4.99877 -1.51396 0
M  V30 8640 H 829.236 -2.93367 -0.597999 0
M  V30 8641 H 826.782 -1.41127 -0.286203 0
M  V30 8642 H 828.735 -2.92355 -3.03491 0
M  V30 8643 H 827.459 -1.70629 -2.78484 0
M  V30 8644 H 826.118 -3.36786 -1.44813 0
M  V30 8645 H 825.766 -3.15779 -3.91526 0
M  V30 8646 H 825.466 -4.82269 -3.35694 0
M  V30 8647 H 826.99 -4.4297 -4.2025 0
M  V30 8648 H 828.404 -5.3281 -2.11629 0
M  V30 8649 H 826.801 -5.81283 -1.49098 0
M  V30 8650 H 827.871 -4.82522 -0.479676 0
M  V30 8651 N 829.214 0.302327 -1.54673 0
M  V30 8652 C 830.442 1.05669 -1.77881 0
M  V30 8653 C 830.857 1.80983 -0.537648 0
M  V30 8654 O 830.214 1.7573 0.492467 0
M  V30 8655 C 830.265 2.03828 -2.98557 0
M  V30 8656 O 829.986 1.3157 -4.17877 0
M  V30 8657 C 831.487 2.91314 -3.34143 0
M  V30 8658 H 828.707 0.313436 -0.593295 0
M  V30 8659 H 831.251 0.342003 -2.0162 0
M  V30 8660 H 829.406 2.70801 -2.7703 0
M  V30 8661 H 829.82 1.97481 -4.85903 0
M  V30 8662 H 831.294 3.56042 -4.21827 0
M  V30 8663 H 831.771 3.59544 -2.52239 0
M  V30 8664 H 832.377 2.29874 -3.57824 0
M  V30 8665 N 830.692 1.47107 0.565454 0
M  V30 8666 C 831.917 1.57153 1.35343 0
M  V30 8667 C 832.342 0.219247 1.86818 0
M  V30 8668 O 831.7 -0.803539 1.62521 0
M  V30 8669 C 831.748 2.59387 2.50501 0
M  V30 8670 O 830.852 2.14086 3.52478 0
M  V30 8671 H 830.193 0.528209 0.402357 0
M  V30 8672 H 832.723 1.92821 0.684189 0
M  V30 8673 H 832.733 2.79546 2.97184 0
M  V30 8674 H 831.408 3.57579 2.12391 0
M  V30 8675 H 829.985 2.03991 3.12157 0
M  V30 8676 N 832.17 -0.811516 1.35101 0
M  V30 8677 C 833.395 -1.60499 1.31358 0
M  V30 8678 C 833.82 -1.87793 -0.107383 0
M  V30 8679 O 833.178 -1.46161 -1.07268 0
M  V30 8680 C 833.226 -2.91612 2.12119 0
M  V30 8681 O 832.33 -3.84211 1.49853 0
M  V30 8682 H 831.671 -0.487702 0.450603 0
M  V30 8683 H 834.201 -1.00758 1.7807 0
M  V30 8684 H 834.211 -3.4108 2.23894 0
M  V30 8685 H 832.886 -2.71071 3.15426 0
M  V30 8686 H 831.463 -3.42751 1.46889 0
M  V30 8687 N 833.648 -1.19017 -1.03309 0
M  V30 8688 C 834.897 -0.984542 -1.76039 0
M  V30 8689 C 835.21 0.485937 -1.89468 0
M  V30 8690 O 836.416 0.810278 -2.59127 0
M  V30 8691 C 834.872 -1.71261 -3.1654 0
M  V30 8692 C 834.48 -3.22291 -3.11179 0
M  V30 8693 C 836.224 -1.59007 -3.93595 0
M  V30 8694 C 834.131 -3.87704 -4.46587 0
M  V30 8695 H 833.061 -0.364749 -0.659905 0
M  V30 8696 H 835.712 -1.4247 -1.15649 0
M  V30 8697 H 834.094 -1.20025 -3.77373 0
M  V30 8698 H 835.268 -3.80611 -2.59753 0
M  V30 8699 H 833.583 -3.34772 -2.47622 0
M  V30 8700 H 836.18 -2.05232 -4.93745 0
M  V30 8701 H 836.523 -0.543534 -4.12736 0
M  V30 8702 H 837.056 -2.07564 -3.39355 0
M  V30 8703 H 833.795 -4.92437 -4.3265 0
M  V30 8704 H 833.315 -3.34172 -4.98085 0
M  V30 8705 H 834.994 -3.91008 -5.15482 0
M  V30 8706 N 835.127 1.22348 -0.993418 0
M  V30 8707 C 836.538 1.72893 -0.704616 0
M  V30 8708 C 836.889 1.80095 0.778483 0
M  V30 8709 O 836.014 1.4476 1.60853 0
M  V30 8710 C 836.609 3.14 -1.27237 0
M  V30 8711 C 835.168 3.61949 -1.03294 0
M  V30 8712 C 834.315 2.39816 -1.39225 0
M  V30 8713 H 837.266 1.07688 -1.16572 0
M  V30 8714 H 837.287 3.74886 -0.651212 0
M  V30 8715 H 836.799 3.08727 -2.3518 0
M  V30 8716 H 834.9 3.72588 0.0298329 0
M  V30 8717 H 835.013 4.48051 -1.69668 0
M  V30 8718 H 833.377 2.41448 -0.810849 0
M  V30 8719 H 834.16 2.37203 -2.48172 0
M  V30 8720 N 836.605 0.766683 1.37694 0
M  V30 8721 C 837.852 0.328714 1.99814 0
M  V30 8722 C 838.18 -1.09333 1.60862 0
M  V30 8723 O 837.435 -1.7657 0.8439 0
M  V30 8724 C 837.734 0.413831 3.54996 0
M  V30 8725 C 837.4 1.7934 4.137 0
M  V30 8726 C 836.062 2.17092 4.29447 0
M  V30 8727 C 838.414 2.69776 4.45949 0
M  V30 8728 C 835.742 3.44726 4.74743 0
M  V30 8729 C 838.094 3.96814 4.92667 0
M  V30 8730 C 836.758 4.34618 5.0662 0
M  V30 8731 H 836.028 0.120285 0.731172 0
M  V30 8732 H 838.675 0.97972 1.64541 0
M  V30 8733 H 836.98 -0.320723 3.90485 0
M  V30 8734 H 838.677 0.0563369 4.0096 0
M  V30 8735 H 835.267 1.48997 4.01868 0
M  V30 8736 H 839.451 2.41871 4.33373 0
M  V30 8737 H 834.707 3.73917 4.83731 0
M  V30 8738 H 838.881 4.67022 5.16588 0
M  V30 8739 H 836.508 5.33578 5.41478 0
M  V30 8740 N 838.083 -1.48885 0.516809 0
M  V30 8741 C 839.331 -2.02088 -0.0220166 0
M  V30 8742 C 839.652 -1.39735 -1.36011 0
M  V30 8743 O 838.922 -0.558119 -1.87781 0
M  V30 8744 H 837.502 -0.746917 -0.0111255 0
M  V30 8745 H 840.164 -1.8274 0.677647 0
M  V30 8746 H 839.26 -3.11786 -0.140067 0
M  V30 8747 N 839.561 -0.251338 -1.55583 0
M  V30 8748 C 840.491 0.640437 -2.24545 0
M  V30 8749 C 841.472 1.17781 -1.22726 0
M  V30 8750 O 842.657 1.21633 -1.5139 0
M  V30 8751 C 839.787 1.8355 -2.94834 0
M  V30 8752 C 838.741 1.4307 -4.03379 0
M  V30 8753 C 838.067 2.70695 -4.61116 0
M  V30 8754 C 839.367 0.59848 -5.1886 0
M  V30 8755 H 841.061 0.0653772 -2.99329 0
M  V30 8756 H 838.607 0.0300042 -1.43969 0
M  V30 8757 H 840.56 2.46505 -3.4178 0
M  V30 8758 H 839.284 2.43601 -2.17546 0
M  V30 8759 H 837.943 0.824474 -3.57209 0
M  V30 8760 H 837.591 3.28954 -3.80524 0
M  V30 8761 H 837.291 2.44332 -5.34393 0
M  V30 8762 H 838.815 3.34541 -5.10798 0
M  V30 8763 H 840.229 1.13244 -5.62004 0
M  V30 8764 H 838.626 0.430728 -5.98552 0
M  V30 8765 H 839.696 -0.38829 -4.83343 0
M  V30 8766 N 841.039 1.57585 0.0217189 0
M  V30 8767 C 842.316 1.80779 0.74687 0
M  V30 8768 C 842.696 0.851163 1.9318 0
M  V30 8769 O 842.044 -0.105039 2.28258 0
M  V30 8770 C 842.254 3.28696 1.17302 0
M  V30 8771 C 843.602 3.93871 1.58589 0
M  V30 8772 O 844.626 3.3289 1.2674 0
M  V30 8773 O 843.485 5.01254 2.1773 0
M  V30 8774 H 840.579 0.743666 0.361786 0
M  V30 8775 H 843.125 1.697 -0.00206785 0
M  V30 8776 H 841.897 3.89927 0.327453 0
M  V30 8777 H 841.52 3.44692 1.98174 0
M  V30 8778 N 842.517 -0.29412 1.54831 0
M  V30 8779 C 843.742 -1.05156 1.78765 0
M  V30 8780 C 844.167 -1.79916 0.548809 0
M  V30 8781 O 843.525 -1.74243 -0.500909 0
M  V30 8782 C 843.573 -2.00242 2.99893 0
M  V30 8783 O 842.677 -3.08662 2.73499 0
M  V30 8784 H 842.018 -0.301737 0.591482 0
M  V30 8785 H 844.548 -0.329449 2.0193 0
M  V30 8786 H 844.558 -2.42583 3.28051 0
M  V30 8787 H 843.233 -1.45235 3.89717 0
M  V30 8788 H 841.81 -2.70786 2.56377 0
M  V30 8789 N 843.995 -1.47404 -0.557645 0
M  V30 8790 C 844.925 -1.62736 -1.67449 0
M  V30 8791 C 845.906 -0.476824 -1.6328 0
M  V30 8792 O 847.091 -0.706108 -1.80908 0
M  V30 8793 C 844.221 -1.641 -3.06086 0
M  V30 8794 C 843.175 -2.78377 -3.25101 0
M  V30 8795 C 842.501 -2.64812 -4.6452 0
M  V30 8796 C 843.801 -4.19971 -3.10518 0
M  V30 8797 H 845.495 -2.56232 -1.54873 0
M  V30 8798 H 843.041 -1.23312 -0.743649 0
M  V30 8799 H 844.994 -1.73417 -3.84063 0
M  V30 8800 H 843.718 -0.671652 -3.19619 0
M  V30 8801 H 842.377 -2.6857 -2.49531 0
M  V30 8802 H 842.025 -1.65906 -4.74852 0
M  V30 8803 H 841.725 -3.41477 -4.78191 0
M  V30 8804 H 843.249 -2.76057 -5.44633 0
M  V30 8805 H 844.663 -4.30757 -3.78313 0
M  V30 8806 H 843.06 -4.97419 -3.35699 0
M  V30 8807 H 844.13 -4.38369 -2.0727 0
M  V30 8808 N 845.473 0.80434 -1.35529 0
M  V30 8809 C 846.701 1.59283 -1.32048 0
M  V30 8810 C 847.116 1.88527 0.101556 0
M  V30 8811 O 846.473 1.48975 1.05417 0
M  V30 8812 C 846.524 2.92276 -2.12737 0
M  V30 8813 O 846.245 2.64299 -3.49396 0
M  V30 8814 C 847.746 3.86631 -2.16867 0
M  V30 8815 H 844.966 0.494523 -0.453528 0
M  V30 8816 H 847.51 0.999415 -1.78415 0
M  V30 8817 H 845.665 3.48125 -1.69964 0
M  V30 8818 H 846.079 3.4923 -3.91329 0
M  V30 8819 H 847.553 4.77053 -2.77712 0
M  V30 8820 H 848.03 4.23384 -1.16803 0
M  V30 8821 H 848.636 3.36717 -2.59811 0
M  V30 8822 N 846.951 1.19563 1.02676 0
M  V30 8823 C 848.176 1.02556 1.80269 0
M  V30 8824 C 848.601 -0.421056 1.83327 0
M  V30 8825 O 847.959 -1.30279 1.26084 0
M  V30 8826 C 848.007 1.60165 3.23078 0
M  V30 8827 O 847.111 0.832404 4.03912 0
M  V30 8828 H 846.452 0.362354 0.556413 0
M  V30 8829 H 848.982 1.58633 1.29216 0
M  V30 8830 H 848.992 1.6347 3.7382 0
M  V30 8831 H 847.667 2.65454 3.20167 0
M  V30 8832 H 846.244 0.872768 3.62543 0
M  V30 8833 N 848.429 -1.21819 0.999893 0
M  V30 8834 C 849.376 -2.24003 0.556005 0
M  V30 8835 C 850.346 -1.60825 -0.415287 0
M  V30 8836 O 851.531 -1.88123 -0.318481 0
M  V30 8837 C 848.671 -3.44904 -0.116289 0
M  V30 8838 C 847.784 -4.22573 0.897574 0
M  V30 8839 C 846.919 -5.30831 0.198073 0
M  V30 8840 C 845.958 -6.00225 1.19983 0
M  V30 8841 N 845.095 -7.00111 0.528157 0
M  V30 8842 H 849.935 -2.61334 1.43208 0
M  V30 8843 H 847.472 -1.28431 0.717205 0
M  V30 8844 H 849.43 -4.13908 -0.523055 0
M  V30 8845 H 848.06 -3.08315 -0.956108 0
M  V30 8846 H 847.112 -3.52797 1.42262 0
M  V30 8847 H 848.424 -4.70363 1.66013 0
M  V30 8848 H 847.578 -6.06121 -0.265065 0
M  V30 8849 H 846.317 -4.84033 -0.596924 0
M  V30 8850 H 845.322 -5.23711 1.67353 0
M  V30 8851 H 846.547 -6.4911 1.99582 0
M  V30 8852 H 844.493 -6.55534 -0.247276 0
M  V30 8853 H 844.41 -7.45943 1.22904 0
M  V30 8854 H 845.678 -7.7945 0.0880543 0
M  V30 8855 N 849.908 -0.773975 -1.37286 0
M  V30 8856 C 851.154 -0.339809 -1.99933 0
M  V30 8857 C 851.487 1.0815 -1.61299 0
M  V30 8858 O 850.762 1.74442 -0.860252 0
M  V30 8859 C 851.045 -0.485919 -3.56806 0
M  V30 8860 C 850.898 -1.9498 -4.05343 0
M  V30 8861 C 852.217 0.108461 -4.39966 0
M  V30 8862 H 849.336 -0.124944 -0.726332 0
M  V30 8863 H 851.978 -0.977433 -1.6293 0
M  V30 8864 H 850.128 0.0569023 -3.88458 0
M  V30 8865 H 851.8 -2.5525 -3.84246 0
M  V30 8866 H 850.043 -2.45784 -3.57453 0
M  V30 8867 H 850.714 -2.00308 -5.14374 0
M  V30 8868 H 853.19 -0.354722 -4.14585 0
M  V30 8869 H 852.066 -0.0238926 -5.48895 0
M  V30 8870 H 852.327 1.19901 -4.25531 0
M  V30 8871 N 851.386 1.48609 -0.524698 0
M  V30 8872 C 852.333 2.29539 0.240956 0
M  V30 8873 C 853.303 1.37033 0.938681 0
M  V30 8874 O 854.488 1.65996 0.940737 0
M  V30 8875 C 851.628 3.20278 1.28514 0
M  V30 8876 C 850.741 4.27858 0.596798 0
M  V30 8877 C 849.876 5.05784 1.62346 0
M  V30 8878 C 848.915 6.05173 0.918287 0
M  V30 8879 N 848.052 6.76176 1.89025 0
M  V30 8880 H 852.892 2.945 -0.455368 0
M  V30 8881 H 850.429 1.45188 -0.236403 0
M  V30 8882 H 852.387 3.71281 1.90279 0
M  V30 8883 H 851.017 2.57251 1.94992 0
M  V30 8884 H 850.069 3.80162 -0.134668 0
M  V30 8885 H 851.381 4.98782 0.0428506 0
M  V30 8886 H 850.535 5.60775 2.31553 0
M  V30 8887 H 849.274 4.34687 2.2113 0
M  V30 8888 H 848.279 5.49391 0.21212 0
M  V30 8889 H 849.504 6.78265 0.336633 0
M  V30 8890 H 847.45 6.07834 2.46726 0
M  V30 8891 H 847.367 7.43157 1.3876 0
M  V30 8892 H 848.635 7.35759 2.57446 0
M  V30 8893 N 852.864 0.259585 1.55447 0
M  V30 8894 C 854.141 -0.412595 1.91199 0
M  V30 8895 C 854.521 -1.74909 1.18194 0
M  V30 8896 O 853.869 -2.26474 0.303603 0
M  V30 8897 C 854.079 -0.568195 3.44344 0
M  V30 8898 C 855.427 -0.858253 4.15836 0
M  V30 8899 O 856.451 -0.653588 3.50152 0
M  V30 8900 O 855.31 -1.24874 5.32042 0
M  V30 8901 H 852.404 -0.223403 0.796254 0
M  V30 8902 H 854.95 0.30459 1.66944 0
M  V30 8903 H 853.722 0.372989 3.89518 0
M  V30 8904 H 853.345 -1.33544 3.74502 0
M  V30 8905 N 854.342 -1.57594 -0.0133615 0
M  V30 8906 C 855.274 -2.04402 -1.03695 0
M  V30 8907 C 856.287 -0.959546 -1.31516 0
M  V30 8908 O 857.476 -1.23659 -1.28727 0
M  V30 8909 C 854.576 -2.41766 -2.37491 0
M  V30 8910 C 853.749 -3.72785 -2.28802 0
M  V30 8911 C 852.808 -3.97165 -3.45176 0
M  V30 8912 O 851.834 -4.68013 -3.23963 0
M  V30 8913 N 853.036 -3.44021 -4.67579 0
M  V30 8914 H 855.801 -2.92833 -0.637874 0
M  V30 8915 H 853.362 -1.60647 -0.20101 0
M  V30 8916 H 855.354 -2.55201 -3.14093 0
M  V30 8917 H 853.924 -1.58924 -2.69188 0
M  V30 8918 H 853.144 -3.69555 -1.37197 0
M  V30 8919 H 854.432 -4.58704 -2.20154 0
M  V30 8920 H 853.83 -2.86623 -4.87713 0
M  V30 8921 H 852.387 -3.62808 -5.41492 0
M  V30 8922 N 855.82 0.285905 -1.54985 0
M  V30 8923 C 856.75 1.35752 -1.89983 0
M  V30 8924 C 857.731 1.52163 -0.760295 0
M  V30 8925 O 858.916 1.65421 -1.01733 0
M  V30 8926 C 856.046 2.71925 -2.16042 0
M  V30 8927 C 855 2.70261 -3.31878 0
M  V30 8928 C 854.326 4.09864 -3.43388 0
M  V30 8929 C 855.626 2.30667 -4.68604 0
M  V30 8930 H 857.32 1.06709 -2.79738 0
M  V30 8931 H 854.866 0.511884 -1.34595 0
M  V30 8932 H 856.819 3.46992 -2.39113 0
M  V30 8933 H 855.543 3.02523 -1.23074 0
M  V30 8934 H 854.202 1.97651 -3.08755 0
M  V30 8935 H 853.85 4.37664 -2.47909 0
M  V30 8936 H 853.55 4.09648 -4.21262 0
M  V30 8937 H 855.074 4.86689 -3.68736 0
M  V30 8938 H 856.488 2.95453 -4.91305 0
M  V30 8939 H 854.885 2.41637 -5.49301 0
M  V30 8940 H 855.955 1.25793 -4.68299 0
M  V30 8941 N 857.298 1.47698 0.54982 0
M  V30 8942 C 858.245 1.60739 1.65625 0
M  V30 8943 C 859.215 0.450129 1.59884 0
M  V30 8944 O 860.4 0.671123 1.78607 0
M  V30 8945 C 857.54 1.63457 3.03934 0
M  V30 8946 C 856.653 2.90152 3.20056 0
M  V30 8947 C 855.788 2.84157 4.48807 0
M  V30 8948 C 854.827 4.05644 4.58387 0
M  V30 8949 N 853.964 3.97843 5.78503 0
M  V30 8950 H 858.804 2.55234 1.53817 0
M  V30 8951 H 856.341 1.26593 0.749173 0
M  V30 8952 H 858.299 1.63015 3.84034 0
M  V30 8953 H 856.929 0.724689 3.1456 0
M  V30 8954 H 855.981 3.00428 2.33339 0
M  V30 8955 H 857.293 3.80097 3.22998 0
M  V30 8956 H 856.447 2.82006 5.37175 0
M  V30 8957 H 855.186 1.91908 4.48356 0
M  V30 8958 H 854.191 4.08092 3.6843 0
M  V30 8959 H 855.416 4.9903 4.60593 0
M  V30 8960 H 853.362 3.08401 5.78986 0
M  V30 8961 H 853.279 4.81473 5.82855 0
M  V30 8962 H 854.547 3.99719 6.69212 0
M  V30 8963 N 858.776 -0.797141 1.35954 0
M  V30 8964 C 860.022 -1.55698 1.29946 0
M  V30 8965 C 860.355 -1.93808 -0.123259 0
M  V30 8966 O 859.63 -1.62102 -1.07486 0
M  V30 8967 C 859.913 -2.83926 2.2149 0
M  V30 8968 C 859.766 -2.52232 3.72423 0
M  V30 8969 C 861.085 -3.85698 2.11955 0
M  V30 8970 H 858.204 -0.56488 0.47337 0
M  V30 8971 H 860.846 -0.916421 1.66438 0
M  V30 8972 H 858.996 -3.38588 1.905 0
M  V30 8973 H 860.668 -2.0368 4.13899 0
M  V30 8974 H 858.911 -1.85286 3.92239 0
M  V30 8975 H 859.582 -3.43782 4.31877 0
M  V30 8976 H 862.058 -3.40462 2.39218 0
M  V30 8977 H 860.934 -4.73182 2.78191 0
M  V30 8978 H 861.195 -4.28083 1.10442 0
M  V30 8979 N 860.254 -1.20106 -1.0204 0
M  V30 8980 C 861.479 -1.0351 -1.79723 0
M  V30 8981 C 861.904 0.411328 -1.83548 0
M  V30 8982 O 861.262 1.29608 -1.26773 0
M  V30 8983 C 861.31 -1.61876 -3.22224 0
M  V30 8984 O 860.414 -0.853813 -4.03465 0
M  V30 8985 H 859.755 -0.365299 -0.554484 0
M  V30 8986 H 862.285 -1.59316 -1.28373 0
M  V30 8987 H 862.295 -1.65451 -3.72948 0
M  V30 8988 H 860.97 -2.67148 -3.18755 0
M  V30 8989 H 859.547 -0.891983 -3.62075 0
M  V30 8990 N 861.732 1.21287 -1.00634 0
M  V30 8991 C 863.143 1.72136 -0.722914 0
M  V30 8992 C 863.494 1.8091 0.759338 0
M  V30 8993 O 862.619 1.46458 1.59308 0
M  V30 8994 C 863.214 3.12633 -1.30561 0
M  V30 8995 C 861.773 3.60833 -1.07127 0
M  V30 8996 C 860.92 2.38326 -1.4176 0
M  V30 8997 H 863.871 1.06445 -1.17708 0
M  V30 8998 H 863.892 3.74174 -0.690937 0
M  V30 8999 H 863.404 3.06215 -2.38441 0
M  V30 9000 H 861.505 3.72599 -0.00968671 0
M  V30 9001 H 861.618 4.46226 -1.74411 0
M  V30 9002 H 859.982 2.40575 -0.836412 0
M  V30 9003 H 860.765 2.34558 -2.50674 0
M  V30 9004 N 863.21 0.781244 1.36873 0
M  V30 9005 C 864.457 0.349889 1.99454 0
M  V30 9006 C 864.785 -1.07621 1.62013 0
M  V30 9007 O 864.04 -1.75665 0.86258 0
M  V30 9008 C 864.339 0.45146 3.54537 0
M  V30 9009 C 864.005 1.83718 4.11775 0
M  V30 9010 C 862.667 2.21634 4.2712 0
M  V30 9011 C 865.019 2.7449 4.43063 0
M  V30 9012 C 862.347 3.49742 4.7106 0
M  V30 9013 C 864.699 4.02017 4.88431 0
M  V30 9014 C 863.363 4.39967 5.01982 0
M  V30 9015 H 862.633 0.128033 0.729855 0
M  V30 9016 H 865.28 0.997117 1.63493 0
M  V30 9017 H 863.585 -0.279288 3.90803 0
M  V30 9018 H 865.282 0.0988609 4.00878 0
M  V30 9019 H 861.872 1.53251 4.00265 0
M  V30 9020 H 866.056 2.46453 4.30783 0
M  V30 9021 H 861.312 3.79026 4.79738 0
M  V30 9022 H 865.486 4.72475 5.11605 0
M  V30 9023 H 863.113 5.39291 5.35788 0
M  V30 9024 N 864.689 -1.48329 0.532571 0
M  V30 9025 C 865.619 -2.32485 -0.217511 0
M  V30 9026 C 866.6 -1.42255 -0.932598 0
M  V30 9027 O 867.785 -1.7114 -0.917873 0
M  V30 9028 C 864.915 -3.23509 -1.26329 0
M  V30 9029 C 863.869 -4.22784 -0.666191 0
M  V30 9030 C 863.195 -5.0296 -1.81482 0
M  V30 9031 C 864.495 -5.21031 0.363813 0
M  V30 9032 H 866.189 -2.95445 0.485014 0
M  V30 9033 H 863.735 -1.42075 0.234694 0
M  V30 9034 H 865.688 -3.81211 -1.79601 0
M  V30 9035 H 864.412 -2.58554 -1.99543 0
M  V30 9036 H 863.071 -3.66272 -0.15498 0
M  V30 9037 H 862.719 -4.34427 -2.5354 0
M  V30 9038 H 862.419 -5.70154 -1.4212 0
M  V30 9039 H 863.943 -5.63514 -2.35126 0
M  V30 9040 H 865.357 -5.73241 -0.0819079 0
M  V30 9041 H 863.754 -5.96292 0.674956 0
M  V30 9042 H 864.824 -4.6801 1.26865 0
M  V30 9043 N 866.167 -0.267825 -1.55308 0
M  V30 9044 C 867.578 0.231344 -1.85261 0
M  V30 9045 C 867.929 1.56006 -1.18982 0
M  V30 9046 O 867.054 2.1111 -0.475554 0
M  V30 9047 C 867.649 0.426537 -3.36104 0
M  V30 9048 C 866.208 0.869945 -3.66209 0
M  V30 9049 C 865.355 -0.0409522 -2.7727 0
M  V30 9050 H 868.306 -0.489821 -1.50952 0
M  V30 9051 H 868.327 1.26616 -3.58816 0
M  V30 9052 H 867.839 -0.540678 -3.84315 0
M  V30 9053 H 865.94 1.84889 -3.23492 0
M  V30 9054 H 866.053 0.712316 -4.73775 0
M  V30 9055 H 864.417 0.474097 -2.50249 0
M  V30 9056 H 865.2 -1.00392 -3.28293 0
M  V30 9057 N 867.645 1.57599 0.00500368 0
M  V30 9058 C 868.922 1.81561 0.727654 0
M  V30 9059 C 869.302 0.871604 1.92266 0
M  V30 9060 O 868.65 -0.0808232 2.28357 0
M  V30 9061 C 868.86 3.29922 1.13809 0
M  V30 9062 C 870.208 3.95531 1.54403 0
M  V30 9063 O 871.232 3.34215 1.23202 0
M  V30 9064 O 870.091 5.03535 2.12402 0
M  V30 9065 H 867.185 0.747462 0.353878 0
M  V30 9066 H 869.731 1.69688 -0.0200667 0
M  V30 9067 H 868.503 3.90253 0.286078 0
M  V30 9068 H 868.126 3.46775 1.94507 0
M  V30 9069 N 869.123 -0.277682 1.55134 0
M  V30 9070 C 870.086 -1.32635 1.86924 0
M  V30 9071 C 871.086 -1.42578 0.743507 0
M  V30 9072 O 872.276 -1.4181 1.01171 0
M  V30 9073 C 869.408 -2.70832 2.07034 0
M  V30 9074 H 870.601 -1.0568 2.80663 0
M  V30 9075 H 868.154 -0.515517 1.47554 0
M  V30 9076 H 868.889 -3.02974 1.15661 0
M  V30 9077 H 868.674 -2.65001 2.88993 0
M  V30 9078 H 870.164 -3.46611 2.32918 0
M  V30 9079 N 870.601 -1.47988 -0.541979 0
M  V30 9080 C 871.826 -1.59286 -1.32826 0
M  V30 9081 C 872.251 -0.24894 -1.86445 0
M  V30 9082 O 871.609 0.777581 -1.63778 0
M  V30 9083 C 871.657 -2.6334 -2.46343 0
M  V30 9084 O 870.761 -2.19667 -3.49028 0
M  V30 9085 H 870.102 -0.534543 -0.393903 0
M  V30 9086 H 872.632 -1.93885 -0.653427 0
M  V30 9087 H 872.642 -2.84238 -2.92699 0
M  V30 9088 H 871.317 -3.60913 -2.06675 0
M  V30 9089 H 869.894 -2.08932 -3.08872 0
M  V30 9090 N 872.079 0.78992 -1.36375 0
M  V30 9091 C 873.012 1.90907 -1.25019 0
M  V30 9092 C 873.99 1.62043 -0.134463 0
M  V30 9093 O 875.174 1.86008 -0.305506 0
M  V30 9094 C 872.301 3.25716 -0.928822 0
M  V30 9095 C 871.347 3.73511 -2.05892 0
M  V30 9096 S 872.18 3.89332 -3.6767 0
M  V30 9097 C 873.336 5.27017 -3.37645 0
M  V30 9098 H 873.569 2.00247 -2.19746 0
M  V30 9099 H 871.102 0.949097 -1.21785 0
M  V30 9100 H 873.06 4.03586 -0.750219 0
M  V30 9101 H 871.721 3.141 0.000658424 0
M  V30 9102 H 870.914 4.71195 -1.78862 0
M  V30 9103 H 870.516 3.02688 -2.19672 0
M  V30 9104 H 872.808 6.1158 -2.91507 0
M  V30 9105 H 873.751 5.5905 -4.3459 0
M  V30 9106 H 874.159 4.94093 -2.73006 0
M  V30 9107 N 873.557 1.20646 1.01402 0
M  V30 9108 C 874.467 0.973385 2.13453 0
M  V30 9109 C 875.483 -0.0715865 1.73853 0
M  V30 9110 O 876.659 0.116438 2.01063 0
M  V30 9111 C 873.724 0.531285 3.42605 0
M  V30 9112 C 872.785 1.64741 3.96433 0
M  V30 9113 C 872.018 1.22631 5.1942 0
M  V30 9114 O 872.241 0.0960891 5.70319 0
M  V30 9115 O 871.175 2.03474 5.66465 0
M  V30 9116 H 875.001 1.91164 2.35987 0
M  V30 9117 H 872.586 0.990553 1.11841 0
M  V30 9118 H 874.468 0.294095 4.20373 0
M  V30 9119 H 873.143 -0.378358 3.21481 0
M  V30 9120 H 872.05 1.93891 3.19933 0
M  V30 9121 H 873.383 2.53415 4.2195 0
M  V30 9122 N 875.035 -1.20752 1.01276 0
M  V30 9123 C 875.982 -2.234 0.579732 0
M  V30 9124 C 876.952 -1.61256 -0.398206 0
M  V30 9125 O 878.137 -1.8845 -0.29851 0
M  V30 9126 C 875.277 -3.45008 -0.0797006 0
M  V30 9127 C 874.39 -4.21597 0.942343 0
M  V30 9128 C 873.525 -5.30591 0.254364 0
M  V30 9129 C 872.564 -5.98919 1.26343 0
M  V30 9130 N 871.701 -6.99511 0.602384 0
M  V30 9131 H 876.541 -2.59801 1.45971 0
M  V30 9132 H 874.078 -1.27663 0.730787 0
M  V30 9133 H 876.036 -4.1444 -0.479125 0
M  V30 9134 H 874.666 -3.09312 -0.923354 0
M  V30 9135 H 873.718 -3.51268 1.45996 0
M  V30 9136 H 875.03 -4.68576 1.70992 0
M  V30 9137 H 874.184 -6.06368 -0.200763 0
M  V30 9138 H 872.923 -4.84639 -0.545553 0
M  V30 9139 H 871.928 -5.21906 1.72898 0
M  V30 9140 H 873.153 -6.46957 2.06456 0
M  V30 9141 H 871.099 -6.55759 -0.177734 0
M  V30 9142 H 871.016 -7.44597 1.30809 0
M  V30 9143 H 872.284 -7.79313 0.17072 0
M  V30 9144 N 876.513 -0.788492 -1.36457 0
M  V30 9145 C 877.423 -0.187385 -2.3385 0
M  V30 9146 C 878.439 0.659984 -1.60998 0
M  V30 9147 O 879.615 0.575986 -1.92988 0
M  V30 9148 C 876.68 0.668525 -3.40194 0
M  V30 9149 C 875.741 -0.197234 -4.28847 0
M  V30 9150 C 874.974 0.61792 -5.30111 0
M  V30 9151 O 875.197 1.85396 -5.3943 0
M  V30 9152 O 874.131 0.0183016 -6.01897 0
M  V30 9153 H 877.957 -0.992617 -2.87021 0
M  V30 9154 H 875.542 -0.549934 -1.3891 0
M  V30 9155 H 877.424 1.15663 -4.05216 0
M  V30 9156 H 876.099 1.45166 -2.89324 0
M  V30 9157 H 875.006 -0.73207 -3.66867 0
M  V30 9158 H 876.339 -0.943863 -4.83065 0
M  V30 9159 N 877.991 1.48044 -0.54043 0
M  V30 9160 C 878.921 2.32597 0.205178 0
M  V30 9161 C 879.902 1.42748 0.925041 0
M  V30 9162 O 881.087 1.71624 0.908784 0
M  V30 9163 C 878.217 3.24175 1.24612 0
M  V30 9164 C 877.171 4.23131 0.64376 0
M  V30 9165 C 876.497 5.03915 1.78812 0
M  V30 9166 C 877.797 5.20831 -0.39144 0
M  V30 9167 H 879.491 2.95184 -0.500676 0
M  V30 9168 H 877.037 1.41948 -0.242225 0
M  V30 9169 H 878.99 3.82158 1.77576 0
M  V30 9170 H 877.714 2.59608 1.98169 0
M  V30 9171 H 876.373 3.66349 0.135554 0
M  V30 9172 H 876.021 4.35765 2.51232 0
M  V30 9173 H 875.721 5.709 1.39094 0
M  V30 9174 H 877.245 5.64753 2.32134 0
M  V30 9175 H 878.659 5.73277 0.0515064 0
M  V30 9176 H 877.056 5.95926 -0.706569 0
M  V30 9177 H 878.126 4.6733 -1.29345 0
M  V30 9178 N 879.47 0.276058 1.55163 0
M  V30 9179 C 880.719 -0.341098 1.98795 0
M  V30 9180 C 881.032 -1.56905 1.16791 0
M  V30 9181 O 882.238 -2.25922 1.50571 0
M  V30 9182 C 880.694 -0.658231 3.5383 0
M  V30 9183 C 880.302 0.549972 4.44611 0
M  V30 9184 C 882.046 -1.23796 4.06048 0
M  V30 9185 C 879.953 0.207373 5.91036 0
M  V30 9186 H 878.883 -0.131224 0.742493 0
M  V30 9187 H 881.534 0.380858 1.79504 0
M  V30 9188 H 879.916 -1.43911 3.68925 0
M  V30 9189 H 881.09 1.32681 4.41285 0
M  V30 9190 H 879.405 1.04661 4.03032 0
M  V30 9191 H 882.002 -1.50811 5.12991 0
M  V30 9192 H 882.345 -2.17214 3.55139 0
M  V30 9193 H 882.878 -0.519345 3.94395 0
M  V30 9194 H 879.617 1.10946 6.46043 0
M  V30 9195 H 879.137 -0.532687 5.9743 0
M  V30 9196 H 880.816 -0.200072 6.46691 0
M  V30 9197 N 880.948 -1.576 0.00335426 0
M  V30 9198 C 882.195 -1.90713 -0.680791 0
M  V30 9199 C 882.523 -0.877263 -1.73592 0
M  V30 9200 O 881.778 0.117497 -1.95347 0
M  V30 9201 C 882.077 -3.3058 -1.35837 0
M  V30 9202 C 881.743 -4.48786 -0.436111 0
M  V30 9203 C 880.405 -4.80855 -0.182195 0
M  V30 9204 C 882.757 -5.20821 0.198677 0
M  V30 9205 C 880.085 -5.8233 0.714747 0
M  V30 9206 C 882.437 -6.23252 1.08351 0
M  V30 9207 C 881.101 -6.53776 1.34658 0
M  V30 9208 H 880.371 -0.697869 -0.249119 0
M  V30 9209 H 883.018 -1.91407 0.0596011 0
M  V30 9210 H 881.323 -3.26026 -2.17289 0
M  V30 9211 H 883.02 -3.53462 -1.89383 0
M  V30 9212 H 879.61 -4.23731 -0.644186 0
M  V30 9213 H 883.794 -4.96298 0.0155259 0
M  V30 9214 H 879.05 -6.04339 0.926529 0
M  V30 9215 H 883.224 -6.78199 1.58172 0
M  V30 9216 H 880.851 -7.32225 2.04328 0
M  V30 9217 N 882.426 0.269451 -1.5528 0
M  V30 9218 C 883.703 1.02207 -1.66773 0
M  V30 9219 C 884.083 2.04168 -0.536536 0
M  V30 9220 O 883.431 2.23761 0.462956 0
M  V30 9221 C 883.641 1.67569 -3.0614 0
M  V30 9222 C 884.989 2.18599 -3.64005 0
M  V30 9223 O 886.013 1.7755 -3.08795 0
M  V30 9224 O 884.872 2.93903 -4.60742 0
M  V30 9225 H 881.966 0.474314 -0.677462 0
M  V30 9226 H 884.512 0.265026 -1.67618 0
M  V30 9227 H 883.284 0.937029 -3.79915 0
M  V30 9228 H 882.907 2.49951 -3.09209 0
M  V30 9229 N 883.904 1.48273 0.534124 0
M  V30 9230 C 885.152 1.55771 1.28762 0
M  V30 9231 C 885.473 0.231575 1.9362 0
M  V30 9232 O 884.743 -0.746533 1.81118 0
M  V30 9233 H 883.323 0.573851 0.47823 0
M  V30 9234 H 885.985 1.84712 0.621888 0
M  V30 9235 H 885.081 2.33657 2.06908 0
M  V30 9236 N 885.382 -0.782676 1.36792 0
M  V30 9237 C 886.63 -1.53778 1.31136 0
M  V30 9238 C 886.951 -1.94706 -0.107014 0
M  V30 9239 O 886.221 -1.65465 -1.04872 0
M  V30 9240 H 884.801 -0.570328 0.482426 0
M  V30 9241 H 887.463 -0.932181 1.71162 0
M  V30 9242 H 886.559 -2.44224 1.94321 0
M  V30 9243 N 886.86 -1.21182 -1.00761 0
M  V30 9244 C 887.79 -0.992773 -2.11344 0
M  V30 9245 C 888.771 0.0813618 -1.69905 0
M  V30 9246 O 889.956 -0.0779503 -1.94043 0
M  V30 9247 C 887.086 -0.553826 -3.42856 0
M  V30 9248 C 886.04 -1.57223 -3.98077 0
M  V30 9249 C 885.366 -0.989605 -5.25463 0
M  V30 9250 C 886.666 -2.95839 -4.30438 0
M  V30 9251 H 888.36 -1.91766 -2.29927 0
M  V30 9252 H 885.906 -0.923426 -1.10494 0
M  V30 9253 H 887.859 -0.387771 -4.19612 0
M  V30 9254 H 886.583 0.406702 -3.24058 0
M  V30 9255 H 885.242 -1.7258 -3.23437 0
M  V30 9256 H 884.89 -0.0208743 -5.02996 0
M  V30 9257 H 884.59 -1.66984 -5.63374 0
M  V30 9258 H 886.114 -0.834815 -6.04866 0
M  V30 9259 H 887.528 -2.8394 -4.98047 0
M  V30 9260 H 885.925 -3.60851 -4.79486 0
M  V30 9261 H 886.995 -3.46882 -3.38823 0
M  V30 9262 N 888.338 1.20213 -1.01915 0
M  V30 9263 C 889.586 1.89272 -0.708552 0
M  V30 9264 C 889.907 1.79394 0.76438 0
M  V30 9265 O 889.177 1.198 1.54999 0
M  V30 9266 H 887.757 0.700628 -0.259094 0
M  V30 9267 H 890.419 1.45985 -1.29129 0
M  V30 9268 H 889.515 2.95841 -0.994215 0
M  V30 9269 N 889.816 0.795718 1.36037 0
M  V30 9270 C 891.041 0.38204 2.03851 0
M  V30 9271 C 891.466 -0.995553 1.59594 0
M  V30 9272 O 890.824 -1.64258 0.767401 0
M  V30 9273 C 890.872 0.461248 3.57638 0
M  V30 9274 O 889.976 -0.529448 4.08987 0
M  V30 9275 H 889.317 0.161227 0.644129 0
M  V30 9276 H 891.847 1.07858 1.73861 0
M  V30 9277 H 891.857 0.32712 4.06687 0
M  V30 9278 H 890.532 1.46613 3.89201 0
M  V30 9279 H 889.109 -0.35646 3.71192 0
M  V30 9280 N 891.294 -1.47756 0.548274 0
M  V30 9281 C 892.542 -2.02089 0.0208542 0
M  V30 9282 C 892.863 -1.42589 -1.33017 0
M  V30 9283 O 892.133 -0.597825 -1.86555 0
M  V30 9284 H 890.713 -0.746985 0.00472023 0
M  V30 9285 H 893.375 -1.81262 0.716257 0
M  V30 9286 H 892.471 -3.12012 -0.0739016 0
M  V30 9287 N 892.772 -0.284283 -1.55015 0
M  V30 9288 C 893.997 0.335799 -2.04664 0
M  V30 9289 C 894.422 1.47999 -1.16094 0
M  V30 9290 O 893.78 1.8058 -0.161454 0
M  V30 9291 C 893.828 0.785615 -3.51938 0
M  V30 9292 O 892.932 1.89202 -3.66437 0
M  V30 9293 H 892.273 0.0680233 -0.660506 0
M  V30 9294 H 894.803 -0.421255 -2.00216 0
M  V30 9295 H 894.813 1.07892 -3.93476 0
M  V30 9296 H 893.488 -0.0514675 -4.15868 0
M  V30 9297 H 892.065 1.60055 -3.36804 0
M  V30 9298 N 894.251 1.57596 -0.0117121 0
M  V30 9299 C 895.499 1.90694 0.669342 0
M  V30 9300 C 895.82 0.886999 1.73659 0
M  V30 9301 O 895.09 -0.0739779 1.9576 0
M  V30 9302 H 893.67 0.703846 0.250219 0
M  V30 9303 H 896.332 1.94821 -0.0554057 0
M  V30 9304 H 895.428 2.90802 1.13316 0
M  V30 9305 N 895.729 -0.261212 1.5542 0
M  V30 9306 C 896.661 -1.34571 1.85535 0
M  V30 9307 C 897.674 -1.44979 0.740612 0
M  V30 9308 O 898.863 -1.46584 1.01859 0
M  V30 9309 C 895.963 -2.7258 2.01378 0
M  V30 9310 C 895.136 -2.84618 3.32131 0
M  V30 9311 C 894.195 -4.03379 3.37893 0
M  V30 9312 O 893.221 -3.93581 4.11197 0
M  V30 9313 N 894.423 -5.15893 2.66148 0
M  V30 9314 H 897.188 -1.09078 2.79145 0
M  V30 9315 H 894.749 -0.451327 1.55482 0
M  V30 9316 H 896.741 -3.50342 2.0259 0
M  V30 9317 H 895.311 -2.90844 1.14579 0
M  V30 9318 H 894.531 -1.93647 3.43358 0
M  V30 9319 H 895.819 -2.896 4.18341 0
M  V30 9320 H 895.217 -5.26743 2.06297 0
M  V30 9321 H 893.774 -5.91842 2.73069 0
M  V30 9322 N 897.207 -1.48554 -0.526253 0
M  V30 9323 C 898.154 -1.63354 -1.63046 0
M  V30 9324 C 899.124 -0.475509 -1.59148 0
M  V30 9325 O 900.309 -0.699453 -1.77517 0
M  V30 9326 C 897.449 -1.68271 -3.01295 0
M  V30 9327 C 896.562 -2.95207 -3.15399 0
M  V30 9328 C 895.697 -2.91262 -4.4423 0
M  V30 9329 C 894.736 -4.12886 -4.51876 0
M  V30 9330 N 893.873 -4.06996 -5.721 0
M  V30 9331 H 898.713 -2.57649 -1.49737 0
M  V30 9332 H 896.25 -1.27769 -0.728938 0
M  V30 9333 H 898.208 -1.69104 -3.81392 0
M  V30 9334 H 896.838 -0.774641 -3.13367 0
M  V30 9335 H 895.89 -3.04102 -2.2853 0
M  V30 9336 H 897.202 -3.85187 -3.1691 0
M  V30 9337 H 896.356 -2.90516 -5.32621 0
M  V30 9338 H 895.095 -1.99016 -4.45246 0
M  V30 9339 H 894.1 -4.13902 -3.61891 0
M  V30 9340 H 895.325 -5.06294 -4.52596 0
M  V30 9341 H 893.271 -3.17573 -5.74006 0
M  V30 9342 H 893.188 -4.90685 -5.75121 0
M  V30 9343 H 894.456 -4.10315 -6.62768 0
M  V30 9344 N 898.685 0.775411 -1.37205 0
M  V30 9345 C 899.931 1.53611 -1.32407 0
M  V30 9346 C 900.264 1.9398 0.0924103 0
M  V30 9347 O 899.539 1.63791 1.04893 0
M  V30 9348 C 899.822 2.80367 -2.25979 0
M  V30 9349 C 899.675 2.46275 -3.76389 0
M  V30 9350 C 900.994 3.82277 -2.18064 0
M  V30 9351 H 898.113 0.557278 -0.482297 0
M  V30 9352 H 900.755 0.889826 -1.67875 0
M  V30 9353 H 898.905 3.35515 -1.95862 0
M  V30 9354 H 900.577 1.9707 -4.17087 0
M  V30 9355 H 898.82 1.79023 -3.95137 0
M  V30 9356 H 899.491 3.36868 -4.37291 0
M  V30 9357 H 901.967 3.36613 -2.44604 0
M  V30 9358 H 900.843 4.68696 -2.85684 0
M  V30 9359 H 901.104 4.26272 -1.17239 0
M  V30 9360 N 900.163 1.21714 1.00117 0
M  V30 9361 C 901.44 0.945391 1.71236 0
M  V30 9362 C 901.82 -0.541772 2.0403 0
M  V30 9363 O 901.168 -1.50763 1.71705 0
M  V30 9364 C 901.378 1.83444 2.96899 0
M  V30 9365 C 902.726 2.08558 3.69849 0
M  V30 9366 O 903.75 1.80824 3.06889 0
M  V30 9367 O 902.609 2.55485 4.83104 0
M  V30 9368 H 899.703 0.354834 0.747009 0
M  V30 9369 H 902.249 1.32661 1.05825 0
M  V30 9370 H 901.021 2.84075 2.69105 0
M  V30 9371 H 900.644 1.45428 3.70049 0
M  V30 9372 N 901.641 -1.19671 1.02551 0
M  V30 9373 C 902.571 -2.25009 0.623965 0
M  V30 9374 C 903.552 -1.66129 -0.36538 0
M  V30 9375 O 904.737 -1.92599 -0.248842 0
M  V30 9376 C 901.867 -3.47287 -0.0294869 0
M  V30 9377 C 900.821 -4.18818 0.881781 0
M  V30 9378 C 900.147 -5.34618 0.0936189 0
M  V30 9379 C 901.447 -4.73986 2.19396 0
M  V30 9380 H 903.141 -2.58851 1.50454 0
M  V30 9381 H 900.687 -1.24425 0.724872 0
M  V30 9382 H 902.64 -4.20168 -0.322016 0
M  V30 9383 H 901.364 -3.12635 -0.944838 0
M  V30 9384 H 900.023 -3.47815 1.15845 0
M  V30 9385 H 899.671 -4.9621 -0.823661 0
M  V30 9386 H 899.371 -5.83409 0.700568 0
M  V30 9387 H 900.895 -6.10297 -0.192249 0
M  V30 9388 H 902.309 -5.38639 1.96319 0
M  V30 9389 H 900.706 -5.3325 2.75254 0
M  V30 9390 H 901.776 -3.92238 2.85092 0
M  V30 9391 N 903.119 -0.802921 -1.35613 0
M  V30 9392 C 904.368 -0.378087 -1.98125 0
M  V30 9393 C 904.681 1.05953 -1.64418 0
M  V30 9394 O 905.887 1.58729 -2.20266 0
M  V30 9395 C 904.343 -0.625077 -3.5443 0
M  V30 9396 C 903.951 -2.07499 -3.97049 0
M  V30 9397 C 905.695 -0.265419 -4.23669 0
M  V30 9398 C 903.602 -2.26793 -5.46186 0
M  V30 9399 H 902.532 -0.137633 -0.741332 0
M  V30 9400 H 905.183 -0.986461 -1.54729 0
M  V30 9401 H 903.565 0.0531975 -3.95964 0
M  V30 9402 H 904.739 -2.79077 -3.66678 0
M  V30 9403 H 903.054 -2.39417 -3.40688 0
M  V30 9404 H 905.651 -0.387669 -5.33293 0
M  V30 9405 H 905.994 0.787994 -4.08774 0
M  V30 9406 H 906.527 -0.897464 -3.87544 0
M  V30 9407 H 903.266 -3.30566 -5.66045 0
M  V30 9408 H 902.786 -1.59735 -5.78139 0
M  V30 9409 H 904.465 -2.08165 -6.12598 0
M  V30 9410 N 904.597 1.47463 -0.556102 0
M  V30 9411 C 905.825 2.06868 -0.0364585 0
M  V30 9412 C 906.24 1.40893 1.25677 0
M  V30 9413 O 905.597 0.505083 1.75371 0
M  V30 9414 C 905.648 3.61128 0.163984 0
M  V30 9415 O 905.369 4.24629 -1.07803 0
M  V30 9416 C 906.87 4.37397 0.721036 0
M  V30 9417 H 904.09 0.669466 -0.0453399 0
M  V30 9418 H 906.634 1.89482 -0.769198 0
M  V30 9419 H 904.789 3.78031 0.84685 0
M  V30 9420 H 905.203 5.17149 -0.875067 0
M  V30 9421 H 906.677 5.46016 0.810584 0
M  V30 9422 H 907.154 4.03604 1.73206 0
M  V30 9423 H 907.76 4.25236 0.073904 0
M  V30 9424 N 906.075 0.2925 1.54862 0
M  V30 9425 C 907.321 -0.312645 2.00983 0
M  V30 9426 C 907.676 -1.52174 1.17732 0
M  V30 9427 O 906.969 -1.90045 0.243581 0
M  V30 9428 C 907.163 -0.728674 3.49893 0
M  V30 9429 C 906.992 0.438562 4.47556 0
M  V30 9430 C 905.762 0.927885 4.96708 0
M  V30 9431 C 907.96 1.28076 4.98097 0
M  V30 9432 N 905.942 2.06277 5.78207 0
M  V30 9433 C 907.313 2.26326 5.77214 0
M  V30 9434 C 909.368 1.31211 4.803 0
M  V30 9435 C 908.071 3.27478 6.4043 0
M  V30 9436 C 910.097 2.31216 5.44328 0
M  V30 9437 C 909.459 3.28197 6.23271 0
M  V30 9438 H 905.558 -0.0790979 0.777989 0
M  V30 9439 H 908.142 0.420481 1.90105 0
M  V30 9440 H 906.313 -1.43099 3.61078 0
M  V30 9441 H 908.045 -1.31263 3.82821 0
M  V30 9442 H 904.8 0.504272 4.70908 0
M  V30 9443 H 905.224 2.63436 6.23643 0
M  V30 9444 H 909.866 0.576079 4.18857 0
M  V30 9445 H 907.584 4.02005 7.01012 0
M  V30 9446 H 911.17 2.34405 5.3249 0
M  V30 9447 H 910.05 4.04314 6.71937 0
M  V30 9448 N 907.553 -1.57587 0.0200696 0
M  V30 9449 C 908.964 -1.79312 -0.520019 0
M  V30 9450 C 909.315 -0.929475 -1.72787 0
M  V30 9451 O 908.44 -0.137389 -2.15963 0
M  V30 9452 C 909.035 -3.25203 -0.950172 0
M  V30 9453 C 907.594 -3.47954 -1.43543 0
M  V30 9454 C 906.741 -2.74459 -0.395917 0
M  V30 9455 H 909.692 -1.56779 0.246153 0
M  V30 9456 H 909.713 -3.34418 -1.81508 0
M  V30 9457 H 909.225 -3.88035 -0.070883 0
M  V30 9458 H 907.326 -2.90363 -2.33495 0
M  V30 9459 H 907.439 -4.56661 -1.44905 0
M  V30 9460 H 905.803 -2.39669 -0.862022 0
M  V30 9461 H 906.586 -3.40001 0.47475 0
M  V30 9462 N 909.032 0.252966 -1.55557 0
M  V30 9463 C 910.278 0.979092 -1.78284 0
M  V30 9464 C 910.633 1.83194 -0.588009 0
M  V30 9465 O 909.926 1.86965 0.418899 0
M  V30 9466 C 910.12 1.87785 -3.04091 0
M  V30 9467 C 909.949 1.11349 -4.35697 0
M  V30 9468 C 908.719 0.821038 -4.98585 0
M  V30 9469 C 910.917 0.494039 -5.11922 0
M  V30 9470 N 908.899 0.0319767 -6.13892 0
M  V30 9471 C 910.27 -0.159888 -6.19794 0
M  V30 9472 C 912.325 0.403894 -4.96259 0
M  V30 9473 C 911.028 -0.895295 -7.13706 0
M  V30 9474 C 913.054 -0.317968 -5.90545 0
M  V30 9475 C 912.416 -0.960555 -6.9782 0
M  V30 9476 H 908.515 0.339586 -0.704419 0
M  V30 9477 H 911.099 0.252801 -1.93052 0
M  V30 9478 H 909.27 2.57623 -2.90663 0
M  V30 9479 H 911.002 2.53908 -3.15139 0
M  V30 9480 H 907.757 1.13132 -4.59889 0
M  V30 9481 H 908.181 -0.35047 -6.76092 0
M  V30 9482 H 912.823 0.886366 -4.13405 0
M  V30 9483 H 910.541 -1.38939 -7.96066 0
M  V30 9484 H 914.127 -0.388302 -5.80503 0
M  V30 9485 H 913.007 -1.51022 -7.69521 0
M  V30 9486 N 910.51 1.48831 0.518367 0
M  V30 9487 C 911.735 1.61379 1.30275 0
M  V30 9488 C 912.16 0.278571 1.86026 0
M  V30 9489 O 911.518 -0.751427 1.64995 0
M  V30 9490 C 911.566 2.67225 2.42122 0
M  V30 9491 O 910.67 2.25192 3.45489 0
M  V30 9492 H 910.011 0.540742 0.385349 0
M  V30 9493 H 912.541 1.949 0.622498 0
M  V30 9494 H 912.551 2.88859 2.8814 0
M  V30 9495 H 911.226 3.64155 2.00907 0
M  V30 9496 H 909.803 2.13819 3.05509 0
M  V30 9497 N 911.988 -0.768124 1.37614 0
M  V30 9498 C 912.898 -1.91249 1.35871 0
M  V30 9499 C 913.914 -1.7208 0.257786 0
M  V30 9500 O 915.09 -1.95253 0.493782 0
M  V30 9501 C 912.155 -3.26423 1.16829 0
M  V30 9502 C 911.216 -3.5822 2.36594 0
M  V30 9503 C 910.449 -4.86945 2.1845 0
M  V30 9504 O 910.672 -5.58258 1.17064 0
M  V30 9505 O 909.606 -5.17888 3.06718 0
M  V30 9506 H 913.432 -1.95671 2.32264 0
M  V30 9507 H 911.017 -0.911382 1.18382 0
M  V30 9508 H 912.899 -4.07269 1.08212 0
M  V30 9509 H 911.574 -3.22845 0.235123 0
M  V30 9510 H 910.481 -2.77594 2.50783 0
M  V30 9511 H 911.814 -3.66545 3.2849 0
M  V30 9512 N 913.466 -1.22244 -0.994698 0
M  V30 9513 C 914.694 -1.07218 -1.76952 0
M  V30 9514 C 915.109 0.377388 -1.8499 0
M  V30 9515 O 914.466 1.26157 -1.31874 0
M  V30 9516 C 914.517 -1.67496 -3.20355 0
M  V30 9517 O 914.238 -3.06782 -3.12756 0
M  V30 9518 C 915.739 -1.57721 -4.14294 0
M  V30 9519 H 912.959 -0.375966 -0.555779 0
M  V30 9520 H 915.503 -1.61799 -1.25065 0
M  V30 9521 H 913.658 -1.16982 -3.69315 0
M  V30 9522 H 914.072 -3.35784 -4.02926 0
M  V30 9523 H 915.546 -2.04623 -5.12673 0
M  V30 9524 H 916.023 -0.533434 -4.35949 0
M  V30 9525 H 916.629 -2.07531 -3.71229 0
M  V30 9526 N 914.944 1.19125 -1.03184 0
M  V30 9527 C 916.169 1.93379 -0.749628 0
M  V30 9528 C 916.594 1.75153 0.685785 0
M  V30 9529 O 915.952 1.05579 1.47386 0
M  V30 9530 C 916 3.43101 -1.1097 0
M  V30 9531 O 915.104 4.11758 -0.230053 0
M  V30 9532 H 914.445 0.603605 -0.276689 0
M  V30 9533 H 916.975 1.51116 -1.37931 0
M  V30 9534 H 916.985 3.93778 -1.06785 0
M  V30 9535 H 915.66 3.55688 -2.15544 0
M  V30 9536 H 914.237 3.7143 -0.330748 0
M  V30 9537 N 916.422 0.810101 1.35185 0
M  V30 9538 C 917.647 0.40364 2.03434 0
M  V30 9539 C 918.072 -0.97857 1.60641 0
M  V30 9540 O 917.43 -1.63435 0.784779 0
M  V30 9541 C 917.478 0.499154 3.57129 0
M  V30 9542 O 916.582 -0.486039 4.09526 0
M  V30 9543 H 915.923 0.168049 0.642383 0
M  V30 9544 H 918.453 1.09696 1.72708 0
M  V30 9545 H 918.463 0.370236 4.06317 0
M  V30 9546 H 917.138 1.50733 3.87624 0
M  V30 9547 H 915.715 -0.31707 3.7155 0
M  V30 9548 N 917.9 -1.47166 0.563914 0
M  V30 9549 C 918.81 -2.33885 -0.182977 0
M  V30 9550 C 919.826 -1.48605 -0.905132 0
M  V30 9551 O 921.002 -1.81518 -0.872527 0
M  V30 9552 C 918.067 -3.25433 -1.19558 0
M  V30 9553 C 917.128 -4.26607 -0.480129 0
M  V30 9554 C 916.361 -5.1378 -1.44449 0
M  V30 9555 O 916.584 -5.03531 -2.67979 0
M  V30 9556 O 915.518 -5.94109 -0.965321 0
M  V30 9557 H 919.344 -2.99065 0.528544 0
M  V30 9558 H 916.929 -1.45834 0.324468 0
M  V30 9559 H 918.811 -3.81964 -1.77993 0
M  V30 9560 H 917.486 -2.62873 -1.8889 0
M  V30 9561 H 916.393 -3.73817 0.145583 0
M  V30 9562 H 917.726 -4.919 0.171868 0
M  V30 9563 N 919.378 -0.300708 -1.54705 0
M  V30 9564 C 920.325 0.57552 -2.23509 0
M  V30 9565 C 921.295 1.12979 -1.21758 0
M  V30 9566 O 922.48 1.17437 -1.50377 0
M  V30 9567 C 919.62 1.74167 -2.97926 0
M  V30 9568 C 918.733 1.21882 -4.1445 0
M  V30 9569 C 917.868 2.34881 -4.7645 0
M  V30 9570 C 916.907 1.79729 -5.85119 0
M  V30 9571 N 916.044 2.863 -6.41075 0
M  V30 9572 H 920.884 -0.0178257 -2.97995 0
M  V30 9573 H 918.421 -0.0205666 -1.47086 0
M  V30 9574 H 920.379 2.42753 -3.39303 0
M  V30 9575 H 919.009 2.30665 -2.25817 0
M  V30 9576 H 918.061 0.425227 -3.78016 0
M  V30 9577 H 919.373 0.775065 -4.92741 0
M  V30 9578 H 918.527 3.11415 -5.20678 0
M  V30 9579 H 917.266 2.82584 -3.97489 0
M  V30 9580 H 916.271 1.01684 -5.40315 0
M  V30 9581 H 917.496 1.32931 -6.65963 0
M  V30 9582 H 915.442 3.33337 -5.64998 0
M  V30 9583 H 915.359 2.46419 -7.14712 0
M  V30 9584 H 916.627 3.62732 -6.89961 0
M  V30 9585 N 920.856 1.57574 -0.0284266 0
M  V30 9586 C 922.081 1.96479 0.664137 0
M  V30 9587 C 922.506 0.904826 1.64908 0
M  V30 9588 O 921.864 -0.134339 1.80802 0
M  V30 9589 C 921.912 3.34479 1.34745 0
M  V30 9590 O 921.016 3.30794 2.46271 0
M  V30 9591 H 920.357 0.640654 0.174524 0
M  V30 9592 H 922.887 2.04402 -0.0900729 0
M  V30 9593 H 922.897 3.70694 1.7044 0
M  V30 9594 H 921.572 4.1117 0.625468 0
M  V30 9595 H 920.149 3.06294 2.12693 0
M  V30 9596 N 922.334 -0.244713 1.55689 0
M  V30 9597 C 923.297 -1.2864 1.89695 0
M  V30 9598 C 924.297 -1.40969 0.773583 0
M  V30 9599 O 925.487 -1.39632 1.04156 0
M  V30 9600 C 922.619 -2.66379 2.12732 0
M  V30 9601 H 923.812 -0.997033 2.82841 0
M  V30 9602 H 921.365 -0.484103 1.48614 0
M  V30 9603 H 922.1 -3.00452 1.22062 0
M  V30 9604 H 921.885 -2.58812 2.94549 0
M  V30 9605 H 923.375 -3.41592 2.40218 0
M  V30 9606 N 923.813 -1.49104 -0.510467 0
M  V30 9607 C 924.723 -1.67792 -1.6396 0
M  V30 9608 C 925.739 -0.560454 -1.64727 0
M  V30 9609 O 926.915 -0.833985 -1.83321 0
M  V30 9610 C 923.98 -1.73154 -3.00364 0
M  V30 9611 C 923.041 -2.9667 -3.10299 0
M  V30 9612 C 922.274 -3.01767 -4.40196 0
M  V30 9613 O 922.497 -2.1472 -5.28443 0
M  V30 9614 O 921.431 -3.94137 -4.54906 0
M  V30 9615 H 925.257 -2.63428 -1.51126 0
M  V30 9616 H 922.842 -1.32734 -0.685719 0
M  V30 9617 H 924.724 -1.79089 -3.81451 0
M  V30 9618 H 923.399 -0.806952 -3.1348 0
M  V30 9619 H 922.306 -2.96257 -2.28435 0
M  V30 9620 H 923.639 -3.88578 -3.02106 0
M  V30 9621 N 925.291 0.760815 -1.38019 0
M  V30 9622 C 926.702 1.33773 -1.30237 0
M  V30 9623 C 927.053 1.96148 0.0451153 0
M  V30 9624 O 926.178 1.94574 0.9471 0
M  V30 9625 C 926.773 2.43227 -2.35851 0
M  V30 9626 C 925.332 2.96659 -2.31669 0
M  V30 9627 C 924.479 1.69972 -2.191 0
M  V30 9628 H 927.43 0.560237 -1.48482 0
M  V30 9629 H 927.451 3.22985 -2.01149 0
M  V30 9630 H 926.963 1.978 -3.33911 0
M  V30 9631 H 925.064 3.46433 -1.37167 0
M  V30 9632 H 925.177 3.51529 -3.25521 0
M  V30 9633 H 923.541 1.9332 -1.65829 0
M  V30 9634 H 924.324 1.26633 -3.19091 0
M  V30 9635 N 926.769 1.22769 0.988202 0
M  V30 9636 C 927.699 1.02627 2.09738 0
M  V30 9637 C 928.68 -0.0543211 1.70013 0
M  V30 9638 O 929.865 0.108811 1.93895 0
M  V30 9639 C 926.995 0.608302 3.41931 0
M  V30 9640 C 925.949 1.63536 3.95525 0
M  V30 9641 C 925.275 1.07308 5.23822 0
M  V30 9642 C 926.575 3.02649 4.25677 0
M  V30 9643 H 928.269 1.954 2.26847 0
M  V30 9644 H 925.815 0.940888 1.09011 0
M  V30 9645 H 927.768 0.454478 4.18942 0
M  V30 9646 H 926.492 -0.355095 3.24664 0
M  V30 9647 H 925.151 1.77704 3.20651 0
M  V30 9648 H 924.799 0.100894 5.02899 0
M  V30 9649 H 924.499 1.75925 5.60646 0
M  V30 9650 H 926.023 0.930938 6.03462 0
M  V30 9651 H 927.437 2.91828 4.93467 0
M  V30 9652 H 925.834 3.68434 4.73684 0
M  V30 9653 H 926.904 3.52228 3.33262 0
M  V30 9654 N 928.247 -1.18576 1.03814 0
M  V30 9655 C 929.472 -1.92978 0.759873 0
M  V30 9656 C 929.897 -1.75514 -0.676486 0
M  V30 9657 O 929.255 -1.06359 -1.46824 0
M  V30 9658 C 929.303 -3.42507 1.12788 0
M  V30 9659 O 928.407 -4.1163 0.251886 0
M  V30 9660 H 927.748 -0.602129 0.279886 0
M  V30 9661 H 930.278 -1.50383 1.3873 0
M  V30 9662 H 930.288 -3.93206 1.08872 0
M  V30 9663 H 928.963 -3.5454 2.17427 0
M  V30 9664 H 927.54 -3.7125 0.350441 0
M  V30 9665 N 929.725 -0.817259 -1.34754 0
M  V30 9666 C 930.672 -0.233108 -2.2962 0
M  V30 9667 C 931.642 0.638902 -1.53321 0
M  V30 9668 O 932.827 0.581739 -1.81715 0
M  V30 9669 C 929.967 0.603659 -3.39779 0
M  V30 9670 C 929.08 -0.289967 -4.31026 0
M  V30 9671 C 928.215 0.555825 -5.28284 0
M  V30 9672 C 927.254 -0.337539 -6.11169 0
M  V30 9673 N 926.391 0.468847 -7.00533 0
M  V30 9674 H 931.231 -1.04747 -2.78984 0
M  V30 9675 H 928.768 -0.528056 -1.37295 0
M  V30 9676 H 930.726 1.10407 -4.02326 0
M  V30 9677 H 929.356 1.38319 -2.91664 0
M  V30 9678 H 928.408 -0.908552 -3.69391 0
M  V30 9679 H 929.72 -0.977136 -4.89135 0
M  V30 9680 H 928.874 1.12094 -5.96255 0
M  V30 9681 H 927.613 1.27652 -4.70698 0
M  V30 9682 H 926.618 -0.914839 -5.42135 0
M  V30 9683 H 927.843 -1.05626 -6.70835 0
M  V30 9684 H 925.789 1.17332 -6.45422 0
M  V30 9685 H 925.706 -0.160052 -7.55831 0
M  V30 9686 H 926.974 1.01689 -7.72839 0
M  V30 9687 N 931.203 1.46865 -0.571711 0
M  V30 9688 C 932.614 1.86158 -0.142181 0
M  V30 9689 C 932.965 1.47663 1.2919 0
M  V30 9690 O 932.09 0.886393 1.97413 0
M  V30 9691 C 932.685 3.37867 -0.251256 0
M  V30 9692 C 931.244 3.76198 0.123329 0
M  V30 9693 C 930.391 2.70902 -0.592232 0
M  V30 9694 H 933.342 1.38176 -0.780587 0
M  V30 9695 H 933.363 3.76842 0.526331 0
M  V30 9696 H 932.875 3.65853 -1.2951 0
M  V30 9697 H 930.976 3.53829 1.16773 0
M  V30 9698 H 931.089 4.78471 -0.24533 0
M  V30 9699 H 929.453 2.54678 -0.0336927 0
M  V30 9700 H 930.236 3.01729 -1.63751 0
M  V30 9701 N 932.681 0.308908 1.54543 0
M  V30 9702 C 933.927 -0.291311 2.01303 0
M  V30 9703 C 934.282 -1.50917 1.19339 0
M  V30 9704 O 933.575 -1.89776 0.263724 0
M  V30 9705 C 933.769 -0.691522 3.50646 0
M  V30 9706 C 933.598 0.486007 4.47066 0
M  V30 9707 C 932.368 0.980515 4.95695 0
M  V30 9708 C 934.566 1.33352 4.96711 0
M  V30 9709 N 932.548 2.12398 5.75986 0
M  V30 9710 C 933.919 2.32436 5.74781 0
M  V30 9711 C 935.974 1.36298 4.78881 0
M  V30 9712 C 934.677 3.34252 6.36921 0
M  V30 9713 C 936.703 2.36976 5.41845 0
M  V30 9714 C 936.065 3.34789 6.19755 0
M  V30 9715 H 932.164 -0.0708418 0.778785 0
M  V30 9716 H 934.748 0.440621 1.89649 0
M  V30 9717 H 932.919 -1.39261 3.62575 0
M  V30 9718 H 934.651 -1.27196 3.84192 0
M  V30 9719 H 931.406 0.55419 4.70346 0
M  V30 9720 H 931.83 2.70036 6.20814 0
M  V30 9721 H 936.472 0.620472 4.18222 0
M  V30 9722 H 934.19 4.09417 6.96709 0
M  V30 9723 H 937.776 2.40039 5.29974 0
M  V30 9724 H 936.656 4.11418 6.67611 0
M  V30 9725 N 934.159 -1.57557 0.0367827 0
M  V30 9726 C 935.089 -2.13712 -0.940719 0
M  V30 9727 C 936.07 -1.05515 -1.33419 0
M  V30 9728 O 937.255 -1.33385 -1.41146 0
M  V30 9729 C 934.385 -2.67043 -2.22048 0
M  V30 9730 C 933.339 -3.80096 -1.96752 0
M  V30 9731 C 932.665 -4.19886 -3.31059 0
M  V30 9732 C 933.965 -5.05848 -1.30058 0
M  V30 9733 H 935.659 -2.9564 -0.473033 0
M  V30 9734 H 933.205 -1.42214 -0.226089 0
M  V30 9735 H 935.158 -3.04964 -2.90818 0
M  V30 9736 H 933.882 -1.82287 -2.70996 0
M  V30 9737 H 932.541 -3.42625 -1.30398 0
M  V30 9738 H 932.189 -3.32101 -3.77781 0
M  V30 9739 H 931.889 -4.96073 -3.14937 0
M  V30 9740 H 933.413 -4.60395 -4.01084 0
M  V30 9741 H 934.827 -5.41306 -1.8884 0
M  V30 9742 H 933.224 -5.87084 -1.24309 0
M  V30 9743 H 934.294 -4.84122 -0.274591 0
M  V30 9744 N 935.637 0.236453 -1.55816 0
M  V30 9745 C 936.547 1.31418 -1.94336 0
M  V30 9746 C 937.563 1.52095 -0.845164 0
M  V30 9747 O 938.739 1.65515 -1.14746 0
M  V30 9748 C 935.804 2.6468 -2.23932 0
M  V30 9749 C 934.865 2.52435 -3.47239 0
M  V30 9750 C 934.098 3.79342 -3.75414 0
M  V30 9751 O 934.321 4.81694 -3.05495 0
M  V30 9752 O 933.255 3.77347 -4.68927 0
M  V30 9753 H 937.081 1.01739 -2.86152 0
M  V30 9754 H 934.666 0.438084 -1.42833 0
M  V30 9755 H 936.548 3.4341 -2.44228 0
M  V30 9756 H 935.223 2.94071 -1.35292 0
M  V30 9757 H 934.13 1.71955 -3.32238 0
M  V30 9758 H 935.463 2.27987 -4.36214 0
M  V30 9759 N 937.115 1.49373 0.502552 0
M  V30 9760 C 938.392 1.49282 1.26389 0
M  V30 9761 C 938.772 0.219674 2.09954 0
M  V30 9762 O 938.12 -0.797991 2.14113 0
M  V30 9763 C 938.33 2.77083 2.12194 0
M  V30 9764 C 939.678 3.26511 2.71433 0
M  V30 9765 O 940.702 2.78189 2.22462 0
M  V30 9766 O 939.561 4.10665 3.60578 0
M  V30 9767 H 936.655 0.597415 0.57186 0
M  V30 9768 H 939.201 1.61634 0.516951 0
M  V30 9769 H 937.973 3.61237 1.50411 0
M  V30 9770 H 937.596 2.67583 2.94084 0
M  V30 9771 N 938.594 -0.753485 1.38421 0
M  V30 9772 C 939.871 -1.50318 1.25155 0
M  V30 9773 C 940.251 -2.10588 -0.147003 0
M  V30 9774 O 939.599 -1.97071 -1.15651 0
M  V30 9775 C 939.809 -2.56946 2.36177 0
M  V30 9776 C 941.157 -3.23846 2.74607 0
M  V30 9777 O 942.181 -2.67251 2.3549 0
M  V30 9778 O 941.04 -4.2621 3.42064 0
M  V30 9779 H 938.134 -0.666624 0.48943 0
M  V30 9780 H 940.68 -0.788887 1.50249 0
M  V30 9781 H 939.452 -2.1066 3.29754 0
M  V30 9782 H 939.075 -3.35956 2.12648 0
M  V30 9783 N 940.072 -1.23292 -0.981677 0
M  V30 9784 C 941.349 -0.972514 -1.6971 0
M  V30 9785 C 941.729 0.509244 -2.04866 0
M  V30 9786 O 941.077 1.48013 -1.74082 0
M  V30 9787 C 941.287 -1.88144 -2.93943 0
M  V30 9788 C 942.635 -2.14416 -3.66485 0
M  V30 9789 O 943.659 -1.85684 -3.03974 0
M  V30 9790 O 942.518 -2.63139 -4.78978 0
M  V30 9791 H 939.612 -0.366673 -0.741269 0
M  V30 9792 H 942.158 -1.34328 -1.03701 0
M  V30 9793 H 940.93 -2.8832 -2.64551 0
M  V30 9794 H 940.553 -1.51296 -3.67689 0
M  V30 9795 N 941.55 1.18024 -1.04442 0
M  V30 9796 C 942.775 1.92573 -0.770097 0
M  V30 9797 C 943.2 1.75871 0.667169 0
M  V30 9798 O 942.558 1.07136 1.46258 0
M  V30 9799 C 942.606 3.41904 -1.14602 0
M  V30 9800 O 941.71 4.11491 -0.273712 0
M  V30 9801 H 941.051 0.600636 -0.283076 0
M  V30 9802 H 943.581 1.49645 -1.39526 0
M  V30 9803 H 943.591 3.92623 -1.10956 0
M  V30 9804 H 942.266 3.53382 -2.19304 0
M  V30 9805 H 940.843 3.71059 -0.370124 0
M  V30 9806 N 943.028 0.824394 1.34319 0
M  V30 9807 C 943.958 0.262077 2.32025 0
M  V30 9808 C 944.939 -0.622277 1.58309 0
M  V30 9809 O 946.124 -0.548848 1.86283 0
M  V30 9810 C 943.254 -0.57567 3.42496 0
M  V30 9811 C 942.208 0.21167 4.27476 0
M  V30 9812 C 941.534 -0.748913 5.29429 0
M  V30 9813 C 942.834 1.42068 5.02607 0
M  V30 9814 H 944.528 1.07842 2.79304 0
M  V30 9815 H 942.074 0.520022 1.34282 0
M  V30 9816 H 944.027 -0.979251 4.09864 0
M  V30 9817 H 942.751 -1.42508 2.93869 0
M  V30 9818 H 941.41 0.596636 3.61712 0
M  V30 9819 H 941.058 -1.59432 4.77064 0
M  V30 9820 H 940.758 -0.226313 5.87164 0
M  V30 9821 H 942.282 -1.15032 5.99667 0
M  V30 9822 H 943.696 1.09103 5.62823 0
M  V30 9823 H 942.093 1.87903 5.69923 0
M  V30 9824 H 943.163 2.1981 4.32217 0
M  V30 9825 N 944.506 -1.46559 0.579492 0
M  V30 9826 C 945.436 -2.33059 -0.143437 0
M  V30 9827 C 946.417 -1.4515 -0.886868 0
M  V30 9828 O 947.602 -1.73973 -0.862961 0
M  V30 9829 C 944.732 -3.27364 -1.15973 0
M  V30 9830 C 943.686 -4.24689 -0.531348 0
M  V30 9831 C 943.012 -5.08479 -1.65388 0
M  V30 9832 C 944.312 -5.1961 0.529391 0
M  V30 9833 H 946.006 -2.93753 0.578762 0
M  V30 9834 H 943.552 -1.41256 0.279775 0
M  V30 9835 H 945.505 -3.86732 -1.67382 0
M  V30 9836 H 944.229 -2.64771 -1.91217 0
M  V30 9837 H 942.888 -3.6658 -0.0383749 0
M  V30 9838 H 942.536 -4.42273 -2.3959 0
M  V30 9839 H 942.236 -5.74387 -1.23909 0
M  V30 9840 H 943.76 -5.70709 -2.17079 0
M  V30 9841 H 945.174 -5.73212 0.100506 0
M  V30 9842 H 943.571 -5.93843 0.86432 0
M  V30 9843 H 944.641 -4.63737 1.4169 0
M  V30 9844 N 945.984 -0.3171 -1.54377 0
M  V30 9845 C 947.395 0.172287 -1.85903 0
M  V30 9846 C 947.746 1.52141 -1.23885 0
M  V30 9847 O 946.871 2.0949 -0.542476 0
M  V30 9848 C 947.466 0.319392 -3.37291 0
M  V30 9849 C 946.025 0.752998 -3.68791 0
M  V30 9850 C 945.172 -0.129143 -2.76999 0
M  V30 9851 H 948.123 -0.537597 -1.49317 0
M  V30 9852 H 948.144 1.15137 -3.62662 0
M  V30 9853 H 947.656 -0.662671 -3.82401 0
M  V30 9854 H 945.757 1.74504 -3.2921 0
M  V30 9855 H 945.87 0.561228 -4.75801 0
M  V30 9856 H 944.234 0.394242 -2.5163 0
M  V30 9857 H 945.017 -1.10785 -3.24933 0
M  V30 9858 N 947.462 1.57535 -0.0451378 0
M  V30 9859 C 948.425 2.1008 0.916461 0
M  V30 9860 C 949.425 1.01913 1.2438 0
M  V30 9861 O 950.615 1.2801 1.18148 0
M  V30 9862 C 947.747 2.58001 2.22818 0
M  V30 9863 H 948.94 2.96334 0.461076 0
M  V30 9864 H 946.493 1.54974 0.203169 0
M  V30 9865 H 947.228 1.75123 2.72951 0
M  V30 9866 H 947.013 3.3704 2.00366 0
M  V30 9867 H 948.503 2.98822 2.9171 0
M  V30 9868 N 948.94 -0.228186 1.55939 0
M  V30 9869 C 949.85 -1.30386 1.9503 0
M  V30 9870 C 950.866 -1.51645 0.853218 0
M  V30 9871 O 952.042 -1.64904 1.15623 0
M  V30 9872 C 949.107 -2.63489 2.25332 0
M  V30 9873 C 948.168 -2.5059 3.48573 0
M  V30 9874 C 947.401 -3.77345 3.7742 0
M  V30 9875 O 947.624 -4.80067 3.08045 0
M  V30 9876 O 946.558 -3.74855 4.70922 0
M  V30 9877 H 950.384 -1.0022 2.86687 0
M  V30 9878 H 947.969 -0.430503 1.43063 0
M  V30 9879 H 949.851 -3.4211 2.46046 0
M  V30 9880 H 948.526 -2.93349 1.3685 0
M  V30 9881 H 947.433 -1.70191 3.33145 0
M  V30 9882 H 948.766 -2.2567 4.37417 0
M  V30 9883 N 950.418 -1.49637 -0.494624 0
M  V30 9884 C 951.667 -1.58691 -1.24499 0
M  V30 9885 C 951.98 -0.281763 -1.9356 0
M  V30 9886 O 953.186 -0.250925 -2.70338 0
M  V30 9887 C 951.642 -2.8002 -2.26091 0
M  V30 9888 C 951.25 -4.17318 -1.6294 0
M  V30 9889 C 952.994 -2.98407 -3.01916 0
M  V30 9890 C 950.901 -5.29862 -2.62679 0
M  V30 9891 H 949.831 -0.590888 -0.468367 0
M  V30 9892 H 952.482 -1.76034 -0.518112 0
M  V30 9893 H 950.864 -2.56185 -3.01969 0
M  V30 9894 H 952.038 -4.51315 -0.930108 0
M  V30 9895 H 950.353 -4.04342 -0.994819 0
M  V30 9896 H 952.95 -3.79658 -3.76516 0
M  V30 9897 H 953.293 -2.09214 -3.5991 0
M  V30 9898 H 953.826 -3.22312 -2.33152 0
M  V30 9899 H 950.565 -6.21134 -2.09458 0
M  V30 9900 H 950.085 -5.00311 -3.3083 0
M  V30 9901 H 951.764 -5.59461 -3.2498 0
M  V30 9902 N 951.896 0.746133 -1.38819 0
M  V30 9903 C 952.806 1.89063 -1.38897 0
M  V30 9904 C 953.822 1.71648 -0.28513 0
M  V30 9905 O 954.998 1.94443 -0.524783 0
M  V30 9906 C 952.063 3.24523 -1.22007 0
M  V30 9907 C 951.124 3.54411 -2.42263 0
M  V30 9908 C 950.357 4.83408 -2.26169 0
M  V30 9909 O 950.58 5.56325 -1.25931 0
M  V30 9910 O 949.514 5.12943 -3.14918 0
M  V30 9911 H 953.34 1.91951 -2.35347 0
M  V30 9912 H 950.925 0.892433 -1.19816 0
M  V30 9913 H 952.807 4.05496 -1.14677 0
M  V30 9914 H 951.482 3.2243 -0.286455 0
M  V30 9915 H 950.389 2.73569 -2.55168 0
M  V30 9916 H 951.722 3.61273 -3.3428 0
M  V30 9917 N 953.375 1.23811 0.975125 0
M  V30 9918 C 954.652 0.9815 1.69192 0
M  V30 9919 C 955.032 -0.498373 2.05133 0
M  V30 9920 O 954.38 -1.47087 1.74864 0
M  V30 9921 C 954.59 1.89701 2.92941 0
M  V30 9922 C 955.938 2.16357 3.65342 0
M  V30 9923 O 956.962 1.87293 3.02985 0
M  V30 9924 O 955.821 2.65675 4.77576 0
M  V30 9925 H 952.915 0.370599 0.739314 0
M  V30 9926 H 955.461 1.34876 1.02988 0
M  V30 9927 H 954.233 2.89719 2.63018 0
M  V30 9928 H 953.856 1.53244 3.66881 0
M  V30 9929 N 954.853 -1.17469 1.05066 0
M  V30 9930 C 955.8 -2.21443 0.650512 0
M  V30 9931 C 956.77 -1.62441 -0.346702 0
M  V30 9932 O 957.955 -1.89305 -0.238404 0
M  V30 9933 C 955.095 -3.45087 0.0301014 0
M  V30 9934 C 954.208 -4.18385 1.07599 0
M  V30 9935 C 953.343 -5.29513 0.423038 0
M  V30 9936 C 952.382 -5.94596 1.45333 0
M  V30 9937 N 951.519 -6.97241 0.824623 0
M  V30 9938 H 956.359 -2.55025 1.54163 0
M  V30 9939 H 953.896 -1.25274 0.771032 0
M  V30 9940 H 955.854 -4.15754 -0.347032 0
M  V30 9941 H 954.484 -3.12093 -0.824481 0
M  V30 9942 H 953.536 -3.46446 1.57097 0
M  V30 9943 H 954.848 -4.62899 1.85813 0
M  V30 9944 H 954.002 -6.067 -0.00774975 0
M  V30 9945 H 952.741 -4.86129 -0.391092 0
M  V30 9946 H 951.746 -5.16142 1.89415 0
M  V30 9947 H 952.971 -6.40061 2.26934 0
M  V30 9948 H 950.917 -6.55993 0.0309804 0
M  V30 9949 H 950.834 -7.40059 1.54432 0
M  V30 9950 H 952.102 -7.78375 0.418567 0
M  V30 9951 N 956.331 -0.831506 -1.3388 0
M  V30 9952 C 957.278 -0.257449 -2.2936 0
M  V30 9953 C 958.248 0.622604 -1.5399 0
M  V30 9954 O 959.433 0.562432 -1.82322 0
M  V30 9955 C 956.573 0.567587 -3.404 0
M  V30 9956 C 955.686 -0.335666 -4.30694 0
M  V30 9957 C 954.821 0.499762 -5.28844 0
M  V30 9958 C 953.86 -0.402343 -6.10776 0
M  V30 9959 N 952.997 0.39452 -7.00991 0
M  V30 9960 H 957.837 -1.077 -2.77857 0
M  V30 9961 H 955.374 -0.542589 -1.36727 0
M  V30 9962 H 957.332 1.06133 -4.03474 0
M  V30 9963 H 955.962 1.35217 -2.93115 0
M  V30 9964 H 955.014 -0.94768 -3.68406 0
M  V30 9965 H 956.326 -1.02896 -4.88072 0
M  V30 9966 H 955.48 1.05763 -5.9741 0
M  V30 9967 H 954.219 1.22652 -4.72025 0
M  V30 9968 H 953.224 -0.972288 -5.41135 0
M  V30 9969 H 954.449 -1.12735 -6.69677 0
M  V30 9970 H 952.395 1.1048 -6.4663 0
M  V30 9971 H 952.312 -0.240209 -7.55618 0
M  V30 9972 H 953.58 0.934867 -7.73874 0
M  V30 9973 N 957.809 1.4625 -0.587256 0
M  V30 9974 C 958.739 2.33132 0.131076 0
M  V30 9975 C 959.72 1.45619 0.879158 0
M  V30 9976 O 960.905 1.74428 0.853723 0
M  V30 9977 C 958.035 3.27975 1.14236 0
M  V30 9978 C 956.989 4.24965 0.508819 0
M  V30 9979 C 956.315 5.09349 1.62689 0
M  V30 9980 C 957.615 5.19322 -0.55694 0
M  V30 9981 H 959.309 2.93442 -0.594333 0
M  V30 9982 H 956.855 1.41106 -0.287263 0
M  V30 9983 H 958.808 3.87614 1.65328 0
M  V30 9984 H 957.532 2.65781 1.8981 0
M  V30 9985 H 956.191 3.66595 0.0189337 0
M  V30 9986 H 955.839 4.43537 2.37242 0
M  V30 9987 H 955.539 5.75036 1.20861 0
M  V30 9988 H 957.063 5.71852 2.14049 0
M  V30 9989 H 958.477 5.73151 -0.130903 0
M  V30 9990 H 956.874 5.93376 -0.895801 0
M  V30 9991 H 957.944 4.62979 -1.44148 0
M  V30 9992 N 959.287 0.325282 1.54207 0
M  V30 9993 C 960.533 -0.277185 2.00897 0
M  V30 9994 C 960.866 -1.51651 1.21308 0
M  V30 9995 O 960.141 -1.92237 0.295825 0
M  V30 9996 C 960.424 -0.60961 3.54902 0
M  V30 9997 C 960.277 0.640542 4.45216 0
M  V30 9998 C 961.596 -1.42656 4.16338 0
M  V30 9999 H 958.715 -0.0992722 0.730284 0
M  V30 10000 H 961.357 0.442201 1.84783 0
M  V30 10001 H 959.507 -1.22249 3.68765 0
M  V30 10002 H 961.179 1.27878 4.43221 0
M  V30 10003 H 959.422 1.26908 4.14821 0
M  V30 10004 H 960.093 0.363459 5.50802 0
M  V30 10005 H 962.569 -0.908494 4.06061 0
M  V30 10006 H 961.445 -1.62792 5.24204 0
M  V30 10007 H 961.706 -2.42321 3.69774 0
M  V30 10008 N 960.765 -1.57509 0.0534917 0
M  V30 10009 C 961.695 -2.14698 -0.917999 0
M  V30 10010 C 962.676 -1.06924 -1.32292 0
M  V30 10011 O 963.861 -1.34875 -1.39723 0
M  V30 10012 C 960.991 -2.69383 -2.19203 0
M  V30 10013 C 959.945 -3.82161 -1.9271 0
M  V30 10014 C 959.271 -4.23373 -3.26587 0
M  V30 10015 C 960.571 -5.07199 -1.24686 0
M  V30 10016 H 962.265 -2.96125 -0.44165 0
M  V30 10017 H 959.811 -1.42446 -0.210993 0
M  V30 10018 H 961.764 -3.08031 -2.87567 0
M  V30 10019 H 960.488 -1.85151 -2.69048 0
M  V30 10020 H 959.147 -3.43989 -1.26757 0
M  V30 10021 H 958.795 -3.36089 -3.74237 0
M  V30 10022 H 958.495 -4.99385 -3.09658 0
M  V30 10023 H 960.019 -4.64623 -3.96178 0
M  V30 10024 H 961.433 -5.43279 -1.83088 0
M  V30 10025 H 959.83 -5.88369 -1.18076 0
M  V30 10026 H 960.9 -4.84386 -0.223227 0
M  V30 10027 N 962.243 0.219913 -1.56058 0
M  V30 10028 C 963.489 0.945463 -1.79412 0
M  V30 10029 C 963.822 1.83922 -0.62341 0
M  V30 10030 O 963.097 1.90806 0.377256 0
M  V30 10031 C 963.38 1.783 -3.1286 0
M  V30 10032 C 963.233 0.915626 -4.40382 0
M  V30 10033 C 964.552 2.76045 -3.42764 0
M  V30 10034 H 961.671 0.342288 -0.652693 0
M  V30 10035 H 964.313 0.214235 -1.88788 0
M  V30 10036 H 962.463 2.40642 -3.04998 0
M  V30 10037 H 964.135 0.30882 -4.60265 0
M  V30 10038 H 962.378 0.221124 -4.33236 0
M  V30 10039 H 963.049 1.53607 -5.30197 0
M  V30 10040 H 965.525 2.23838 -3.50764 0
M  V30 10041 H 964.401 3.31748 -4.37304 0
M  V30 10042 H 964.662 3.53866 -2.65012 0
M  V30 10043 N 963.721 1.49897 0.486681 0
M  V30 10044 C 964.998 1.50614 1.24799 0
M  V30 10045 C 965.378 0.24193 2.09709 0
M  V30 10046 O 964.726 -0.775237 2.14947 0
M  V30 10047 C 964.936 2.79318 2.09243 0
M  V30 10048 C 966.284 3.29371 2.67955 0
M  V30 10049 O 967.308 2.80533 2.19499 0
M  V30 10050 O 966.167 4.14466 3.56202 0
M  V30 10051 H 963.261 0.603447 0.565491 0
M  V30 10052 H 965.807 1.62174 0.499778 0
M  V30 10053 H 964.579 3.62812 1.46572 0
M  V30 10054 H 964.202 2.70687 2.91229 0
M  V30 10055 N 965.199 -0.738761 1.39212 0
M  V30 10056 C 966.146 -1.85273 1.37631 0
M  V30 10057 C 967.116 -1.64407 0.236572 0
M  V30 10058 O 968.301 -1.85866 0.431104 0
M  V30 10059 C 965.441 -3.22745 1.22188 0
M  V30 10060 C 964.554 -3.55342 2.45674 0
M  V30 10061 C 963.689 -4.82195 2.22847 0
M  V30 10062 C 962.728 -5.07625 3.42029 0
M  V30 10063 N 961.865 -6.25679 3.18543 0
M  V30 10064 H 966.705 -1.85959 2.32859 0
M  V30 10065 H 964.242 -0.908716 1.15675 0
M  V30 10066 H 966.2 -4.02095 1.11245 0
M  V30 10067 H 964.83 -3.21347 0.30592 0
M  V30 10068 H 963.882 -2.70722 2.67233 0
M  V30 10069 H 965.194 -3.70054 3.34457 0
M  V30 10070 H 964.348 -5.69518 2.09126 0
M  V30 10071 H 963.087 -4.6965 1.31454 0
M  V30 10072 H 962.092 -4.18765 3.56253 0
M  V30 10073 H 963.317 -5.22058 4.34319 0
M  V30 10074 H 961.263 -6.14429 2.2981 0
M  V30 10075 H 961.18 -6.40961 4.0088 0
M  V30 10076 H 962.448 -7.15851 3.08508 0
M  V30 10077 N 966.677 -1.24326 -0.968545 0
M  V30 10078 C 967.61 -0.978121 -2.06175 0
M  V30 10079 C 968.588 0.0878107 -1.62363 0
M  V30 10080 O 969.772 -0.0489472 -1.88436 0
M  V30 10081 C 966.899 -0.475884 -3.3534 0
M  V30 10082 C 965.945 -1.53023 -3.98103 0
M  V30 10083 S 966.778 -3.11131 -4.35841 0
M  V30 10084 C 967.934 -2.62608 -5.68144 0
M  V30 10085 H 968.167 -1.9038 -2.28348 0
M  V30 10086 H 965.7 -1.07701 -1.10633 0
M  V30 10087 H 967.658 -0.192739 -4.10047 0
M  V30 10088 H 966.319 0.429067 -3.11156 0
M  V30 10089 H 965.512 -1.12922 -4.91187 0
M  V30 10090 H 965.114 -1.76334 -3.29822 0
M  V30 10091 H 967.406 -2.05367 -6.45624 0
M  V30 10092 H 968.349 -3.54277 -6.13101 0
M  V30 10093 H 968.757 -2.03063 -5.26712 0
M  V30 10094 N 968.156 1.1691 -1.05688 0
M  V30 10095 C 969.433 1.83266 -0.683601 0
M  V30 10096 C 969.813 1.93858 0.835602 0
M  V30 10097 O 969.161 1.47696 1.7435 0
M  V30 10098 C 969.371 3.20625 -1.37842 0
M  V30 10099 C 970.719 3.96473 -1.51967 0
M  V30 10100 O 971.743 3.30122 -1.33783 0
M  V30 10101 O 970.602 5.15393 -1.81749 0
M  V30 10102 H 967.696 0.791028 -0.241254 0
M  V30 10103 H 970.242 1.24165 -1.15677 0
M  V30 10104 H 969.014 3.07914 -2.41463 0
M  V30 10105 H 968.637 3.87398 -0.894921 0
M  V30 10106 N 969.634 0.838594 1.33437 0
M  V30 10107 C 970.859 0.446701 2.02532 0
M  V30 10108 C 971.284 -0.944275 1.62681 0
M  V30 10109 O 970.642 -1.61733 0.81927 0
M  V30 10110 C 970.69 0.574794 3.55989 0
M  V30 10111 O 969.794 -0.399063 4.10465 0
M  V30 10112 H 969.135 0.181637 0.638674 0
M  V30 10113 H 971.665 1.13335 1.70342 0
M  V30 10114 H 971.675 0.456339 4.0544 0
M  V30 10115 H 970.35 1.58921 3.8434 0
M  V30 10116 H 968.927 -0.238187 3.72139 0
M  V30 10117 N 971.112 -1.45937 0.595003 0
M  V30 10118 C 972.34 -2.06698 0.091293 0
M  V30 10119 C 972.755 -1.44176 -1.21897 0
M  V30 10120 O 972.112 -0.551402 -1.73971 0
M  V30 10121 C 972.163 -3.61436 -0.0681801 0
M  V30 10122 O 971.884 -4.21622 1.19023 0
M  V30 10123 C 973.385 -4.39155 -0.604814 0
M  V30 10124 H 970.605 -0.668029 0.0630737 0
M  V30 10125 H 973.149 -1.87376 0.819165 0
M  V30 10126 H 971.304 -3.80143 -0.746324 0
M  V30 10127 H 971.718 -5.14647 1.01187 0
M  V30 10128 H 973.192 -5.47973 -0.665532 0
M  V30 10129 H 973.669 -4.08055 -1.62444 0
M  V30 10130 H 974.275 -4.25282 0.0388658 0
M  V30 10131 N 972.59 -0.333456 -1.54032 0
M  V30 10132 C 973.867 0.320902 -1.9295 0
M  V30 10133 C 974.247 1.69071 -1.26405 0
M  V30 10134 O 973.595 2.24768 -0.411311 0
M  V30 10135 C 973.805 0.403257 -3.46662 0
M  V30 10136 C 975.153 0.658875 -4.19457 0
M  V30 10137 O 976.177 0.485781 -3.52872 0
M  V30 10138 O 975.036 0.993475 -5.37394 0
M  V30 10139 H 972.13 0.185158 -0.806006 0
M  V30 10140 H 974.676 -0.383895 -1.65301 0
M  V30 10141 H 973.448 -0.558409 -3.87295 0
M  V30 10142 H 973.071 1.15524 -3.80447 0
M  V30 10143 N 974.068 1.57479 -0.061844 0
M  V30 10144 C 975 2.09116 0.938245 0
M  V30 10145 C 976.013 1.0212 1.26788 0
M  V30 10146 O 977.202 1.2966 1.22681 0
M  V30 10147 C 974.302 2.52822 2.25686 0
M  V30 10148 C 973.475 3.83277 2.10755 0
M  V30 10149 C 972.534 4.13182 3.25833 0
M  V30 10150 O 971.56 4.82937 3.01265 0
M  V30 10151 N 972.762 3.65938 4.50633 0
M  V30 10152 H 975.527 2.95543 0.497433 0
M  V30 10153 H 973.088 1.61423 0.124134 0
M  V30 10154 H 975.08 2.69896 3.01559 0
M  V30 10155 H 973.65 1.71586 2.61299 0
M  V30 10156 H 972.87 3.7568 1.19409 0
M  V30 10157 H 974.158 4.68686 1.98018 0
M  V30 10158 H 973.556 3.09566 4.73482 0
M  V30 10159 H 972.113 3.8823 5.23565 0
M  V30 10160 N 975.546 -0.211634 1.56173 0
M  V30 10161 C 976.795 -0.932647 1.78842 0
M  V30 10162 C 977.108 -1.85103 0.63217 0
M  V30 10163 O 978.314 -2.61143 0.742746 0
M  V30 10164 C 976.77 -1.70866 3.16753 0
M  V30 10165 C 976.378 -0.835934 4.40132 0
M  V30 10166 C 978.122 -2.4203 3.48743 0
M  V30 10167 C 976.029 -1.60987 5.69067 0
M  V30 10168 H 974.959 -0.351983 0.666801 0
M  V30 10169 H 977.61 -0.186284 1.82552 0
M  V30 10170 H 975.992 -2.4983 3.07247 0
M  V30 10171 H 977.166 -0.0861298 4.60719 0
M  V30 10172 H 975.481 -0.235941 4.15731 0
M  V30 10173 H 978.078 -3.00453 4.42303 0
M  V30 10174 H 978.421 -3.15406 2.71707 0
M  V30 10175 H 978.954 -1.70048 3.59623 0
M  V30 10176 H 975.693 -0.9192 6.49023 0
M  V30 10177 H 975.213 -2.33403 5.52524 0
M  V30 10178 H 976.892 -2.16798 6.09596 0
M  V30 10179 N 977.024 -1.50153 -0.478725 0
M  V30 10180 C 978.249 -1.64776 -1.2595 0
M  V30 10181 C 978.674 -0.327794 -1.85222 0
M  V30 10182 O 978.032 0.707418 -1.66929 0
M  V30 10183 C 978.08 -2.73551 -2.34952 0
M  V30 10184 O 977.184 -2.34273 -3.39397 0
M  V30 10185 H 976.525 -0.550769 -0.370877 0
M  V30 10186 H 979.055 -1.96482 -0.570605 0
M  V30 10187 H 979.065 -2.96397 -2.8038 0
M  V30 10188 H 977.74 -3.69354 -1.91181 0
M  V30 10189 H 976.317 -2.21844 -2.99733 0
M  V30 10190 N 978.502 0.731368 -1.39602 0
M  V30 10191 C 979.449 1.84541 -1.38612 0
M  V30 10192 C 980.419 1.64279 -0.245287 0
M  V30 10193 O 981.604 1.85635 -0.440954 0
M  V30 10194 C 978.744 3.22092 -1.23897 0
M  V30 10195 C 977.857 3.54034 -2.47555 0
M  V30 10196 C 976.992 4.81007 -2.25402 0
M  V30 10197 C 976.031 5.05804 -3.44716 0
M  V30 10198 N 975.168 6.23981 -3.21857 0
M  V30 10199 H 980.008 1.84722 -2.33841 0
M  V30 10200 H 977.545 0.902569 -1.16156 0
M  V30 10201 H 979.503 4.01499 -1.13376 0
M  V30 10202 H 978.133 3.2118 -0.322958 0
M  V30 10203 H 977.185 2.69301 -2.68665 0
M  V30 10204 H 978.497 3.68275 -3.36415 0
M  V30 10205 H 977.651 5.68401 -2.12143 0
M  V30 10206 H 976.39 4.68946 -1.33943 0
M  V30 10207 H 975.395 4.1687 -3.58468 0
M  V30 10208 H 976.62 5.19747 -4.37081 0
M  V30 10209 H 974.566 6.13202 -2.33065 0
M  V30 10210 H 974.483 6.38826 -4.04274 0
M  V30 10211 H 975.751 7.14205 -3.123 0
M  V30 10212 N 979.98 1.24838 0.961938 0
M  V30 10213 C 980.93 1.01276 2.04272 0
M  V30 10214 C 981.914 -0.0478239 1.60829 0
M  V30 10215 O 983.106 0.166616 1.76214 0
M  V30 10216 C 980.235 0.625659 3.37551 0
M  V30 10217 C 979.321 1.72262 3.87539 0
M  V30 10218 N 979.712 2.95644 4.104 0
M  V30 10219 C 978.01 1.60146 4.16256 0
M  V30 10220 C 978.711 3.66796 4.51482 0
M  V30 10221 N 977.687 2.94383 4.56989 0
M  V30 10222 H 981.489 1.94956 2.19931 0
M  V30 10223 H 979.003 1.15049 1.14619 0
M  V30 10224 H 981 0.438072 4.14592 0
M  V30 10225 H 979.66 -0.303887 3.23275 0
M  V30 10226 H 980.671 3.31764 3.97685 0
M  V30 10227 H 977.348 0.740353 4.10883 0
M  V30 10228 H 978.738 4.72664 4.77534 0
M  V30 10229 N 981.458 -1.16348 1.06306 0
M  V30 10230 C 982.683 -1.91323 0.800636 0
M  V30 10231 C 983.108 -1.7691 -0.639105 0
M  V30 10232 O 982.466 -1.0945 -1.44535 0
M  V30 10233 C 982.514 -3.40038 1.20027 0
M  V30 10234 O 981.618 -4.11003 0.339142 0
M  V30 10235 H 980.959 -0.596057 0.292595 0
M  V30 10236 H 983.489 -1.47406 1.41889 0
M  V30 10237 H 983.499 -3.90808 1.17188 0
M  V30 10238 H 982.174 -3.49848 2.24898 0
M  V30 10239 H 980.751 -3.70423 0.42911 0
M  V30 10240 N 982.937 -0.845659 -1.3299 0
M  V30 10241 C 983.884 -0.281761 -2.29074 0
M  V30 10242 C 984.854 0.606237 -1.54641 0
M  V30 10243 O 986.039 0.543063 -1.82908 0
M  V30 10244 C 983.179 0.531451 -3.40983 0
M  V30 10245 C 982.292 -0.381328 -4.30314 0
M  V30 10246 C 981.427 0.443643 -5.29344 0
M  V30 10247 C 980.466 -0.467101 -6.10315 0
M  V30 10248 N 979.603 0.320148 -7.0137 0
M  V30 10249 H 984.443 -1.10641 -2.76699 0
M  V30 10250 H 981.98 -0.55706 -1.36144 0
M  V30 10251 H 983.938 1.01848 -4.04577 0
M  V30 10252 H 982.568 1.32101 -2.94532 0
M  V30 10253 H 981.62 -0.986701 -3.6738 0
M  V30 10254 H 982.932 -1.08067 -4.86953 0
M  V30 10255 H 982.086 0.994212 -5.98498 0
M  V30 10256 H 980.825 1.17639 -4.73299 0
M  V30 10257 H 979.83 -1.02963 -5.40073 0
M  V30 10258 H 981.055 -1.19832 -6.68444 0
M  V30 10259 H 979.001 1.03615 -6.47765 0
M  V30 10260 H 978.918 -0.320338 -7.55321 0
M  V30 10261 H 980.186 0.852735 -7.74822 0
M  V30 10262 N 984.415 1.45619 -0.602734 0
M  V30 10263 C 985.645 2.06348 -0.102105 0
M  V30 10264 C 986.053 1.44884 1.21677 0
M  V30 10265 O 985.396 0.555559 1.75098 0
M  V30 10266 C 985.458 3.59309 0.117026 0
M  V30 10267 C 985.122 4.43081 -1.11931 0
M  V30 10268 C 986.119 4.78364 -2.03627 0
M  V30 10269 C 983.804 4.83908 -1.34677 0
M  V30 10270 C 985.798 5.53325 -3.16403 0
M  V30 10271 C 983.485 5.58624 -2.47754 0
M  V30 10272 C 984.483 5.93249 -3.38445 0
M  V30 10273 O 984.171 6.6645 -4.49555 0
M  V30 10274 H 983.903 0.672988 -0.0637478 0
M  V30 10275 H 986.457 1.87928 -0.828983 0
M  V30 10276 H 984.687 3.76111 0.898742 0
M  V30 10277 H 986.376 4.01897 0.568649 0
M  V30 10278 H 987.142 4.47384 -1.87277 0
M  V30 10279 H 983.021 4.56396 -0.649875 0
M  V30 10280 H 986.565 5.80268 -3.87214 0
M  V30 10281 H 982.462 5.89019 -2.64059 0
M  V30 10282 H 983.23 6.84895 -4.48175 0
M  V30 10283 N 985.893 0.34162 1.53853 0
M  V30 10284 C 986.803 -0.524555 2.2866 0
M  V30 10285 C 987.819 -1.1136 1.33697 0
M  V30 10286 O 988.995 -1.1297 1.66732 0
M  V30 10287 C 986.06 -1.66065 3.04341 0
M  V30 10288 C 985.121 -1.10158 4.14926 0
M  V30 10289 C 984.354 -2.18353 4.86988 0
M  V30 10290 O 984.577 -3.39038 4.58704 0
M  V30 10291 O 983.511 -1.82756 5.73484 0
M  V30 10292 H 987.337 0.0835014 3.03585 0
M  V30 10293 H 984.922 0.106727 1.49018 0
M  V30 10294 H 986.804 -2.3217 3.51674 0
M  V30 10295 H 985.479 -2.25456 2.32275 0
M  V30 10296 H 984.386 -0.405109 3.719 0
M  V30 10297 H 985.719 -0.552567 4.89088 0
M  V30 10298 N 987.371 -1.57444 0.0701946 0
M  V30 10299 C 988.321 -2.09154 -0.90767 0
M  V30 10300 C 989.305 -1.00087 -1.25982 0
M  V30 10301 O 990.497 -1.26397 -1.23906 0
M  V30 10302 C 987.626 -2.65544 -2.17581 0
M  V30 10303 C 986.712 -3.81613 -1.85021 0
M  V30 10304 N 987.103 -4.90641 -1.22904 0
M  V30 10305 C 985.401 -3.90878 -2.1478 0
M  V30 10306 C 986.102 -5.71511 -1.084 0
M  V30 10307 N 985.078 -5.1973 -1.59318 0
M  V30 10308 H 988.88 -2.90839 -0.423051 0
M  V30 10309 H 986.394 -1.61848 -0.13374 0
M  V30 10310 H 988.391 -3.00904 -2.88552 0
M  V30 10311 H 987.051 -1.85304 -2.66632 0
M  V30 10312 H 988.062 -5.1004 -0.898878 0
M  V30 10313 H 984.739 -3.21611 -2.66219 0
M  V30 10314 H 986.129 -6.69214 -0.600183 0
M  V30 10315 N 988.849 0.203349 -1.56283 0
M  V30 10316 C 990.126 0.950415 -1.70958 0
M  V30 10317 C 990.506 2.01708 -0.622647 0
M  V30 10318 O 989.854 2.25523 0.367635 0
M  V30 10319 C 990.064 1.54434 -3.12971 0
M  V30 10320 C 991.412 2.02964 -3.72949 0
M  V30 10321 O 992.436 1.64293 -3.16048 0
M  V30 10322 O 991.295 2.74097 -4.72793 0
M  V30 10323 H 988.389 0.445154 -0.69697 0
M  V30 10324 H 990.935 0.193695 -1.68591 0
M  V30 10325 H 989.707 0.77505 -3.83547 0
M  V30 10326 H 989.33 2.36611 -3.19532 0
M  V30 10327 N 990.327 1.50405 0.470755 0
M  V30 10328 C 991.604 1.51929 1.23195 0
M  V30 10329 C 991.984 0.264159 2.09441 0
M  V30 10330 O 991.332 -0.752395 2.15757 0
M  V30 10331 C 991.542 2.81521 2.06269 0
M  V30 10332 C 992.89 3.32195 2.64446 0
M  V30 10333 O 993.914 2.82845 2.16511 0
M  V30 10334 O 992.773 4.18221 3.51786 0
M  V30 10335 H 989.867 0.609411 0.559059 0
M  V30 10336 H 992.413 1.62695 0.482549 0
M  V30 10337 H 991.185 3.64346 1.42715 0
M  V30 10338 H 990.808 2.7376 2.88342 0
M  V30 10339 N 991.805 -0.723954 1.39988 0
M  V30 10340 C 993.221 -1.03095 1.21834 0
M  V30 10341 C 993.421 -2.01309 0.0876647 0
M  V30 10342 O 992.477 -2.46277 -0.55714 0
M  V30 10343 C 993.79 -1.58267 2.5568 0
M  V30 10344 C 995.338 -1.70293 2.6262 0
M  V30 10345 C 995.813 -2.28872 3.96713 0
M  V30 10346 N 997.304 -2.36269 3.98411 0
M  V30 10347 C 998.039 -2.82557 4.98948 0
M  V30 10348 N 997.535 -3.28661 6.0988 0
M  V30 10349 N 999.328 -2.81866 4.86321 0
M  V30 10350 H 991.479 -0.0727891 2.12275 0
M  V30 10351 H 993.742 -0.0949029 0.943238 0
M  V30 10352 H 993.448 -0.935642 3.39026 0
M  V30 10353 H 993.322 -2.56914 2.76179 0
M  V30 10354 H 995.709 -2.34115 1.7965 0
M  V30 10355 H 995.79 -0.70268 2.45959 0
M  V30 10356 H 995.434 -1.65675 4.80119 0
M  V30 10357 H 995.364 -3.29595 4.107 0
M  V30 10358 H 997.855 -2.03697 3.18302 0
M  V30 10359 H 998.168 -3.62524 6.82493 0
M  V30 10360 H 996.513 -3.26641 6.13458 0
M  V30 10361 H 999.704 -2.45179 3.98754 0
M  V30 10362 H 999.877 -3.17626 5.64817 0
M  V30 10363 N 993.283 -1.25346 -0.955304 0
M  V30 10364 C 994.508 -1.12892 -1.73983 0
M  V30 10365 C 994.933 0.313455 -1.8547 0
M  V30 10366 O 994.291 1.22706 -1.33465 0
M  V30 10367 C 994.339 -1.78729 -3.1319 0
M  V30 10368 O 993.443 -1.06648 -3.98372 0
M  V30 10369 H 992.784 -0.394178 -0.534341 0
M  V30 10370 H 995.314 -1.65897 -1.19747 0
M  V30 10371 H 995.324 -1.84987 -3.63653 0
M  V30 10372 H 993.999 -2.83669 -3.04146 0
M  V30 10373 H 992.576 -1.08266 -3.56837 0
M  V30 10374 N 994.761 1.15782 -1.06922 0
M  V30 10375 C 995.989 1.90355 -0.81072 0
M  V30 10376 C 996.404 1.77779 0.635614 0
M  V30 10377 O 995.761 1.12675 1.43564 0
M  V30 10378 C 995.812 3.4085 -1.2043 0
M  V30 10379 O 995.533 3.53057 -2.59388 0
M  V30 10380 C 997.034 4.32457 -0.974473 0
M  V30 10381 H 994.254 0.60343 -0.293451 0
M  V30 10382 H 996.798 1.46723 -1.42452 0
M  V30 10383 H 994.953 3.82162 -0.634909 0
M  V30 10384 H 995.367 4.46426 -2.75326 0
M  V30 10385 H 996.841 5.36488 -1.29942 0
M  V30 10386 H 997.318 4.39109 0.0894481 0
M  V30 10387 H 997.924 3.96882 -1.52856 0
M  V30 10388 N 996.239 0.8527 1.3254 0
M  V30 10389 C 997.189 0.267711 2.26423 0
M  V30 10390 C 998.173 -0.585305 1.49877 0
M  V30 10391 O 999.365 -0.435008 1.71571 0
M  V30 10392 C 996.494 -0.544605 3.38953 0
M  V30 10393 C 995.58 0.32069 4.22886 0
M  V30 10394 N 995.971 1.40601 4.85865 0
M  V30 10395 C 994.269 0.110101 4.45864 0
M  V30 10396 C 994.97 1.93819 5.48461 0
M  V30 10397 N 993.946 1.23764 5.29324 0
M  V30 10398 H 997.748 1.09747 2.7264 0
M  V30 10399 H 995.262 0.698607 1.46606 0
M  V30 10400 H 997.259 -0.98009 4.05216 0
M  V30 10401 H 995.919 -1.37218 2.94281 0
M  V30 10402 H 996.93 1.78894 4.86022 0
M  V30 10403 H 993.607 -0.682917 4.11877 0
M  V30 10404 H 994.997 2.84783 6.08562 0
M  V30 10405 N 997.718 -1.45297 0.610449 0
M  V30 10406 C 998.965 -2.02218 0.106759 0
M  V30 10407 C 999.293 -1.47849 -1.26376 0
M  V30 10408 O 998.548 -0.644402 -1.84786 0
M  V30 10409 C 998.847 -3.57394 0.0205329 0
M  V30 10410 C 998.513 -4.30928 1.32709 0
M  V30 10411 C 997.175 -4.50735 1.68498 0
M  V30 10412 C 999.527 -4.72936 2.19046 0
M  V30 10413 C 996.855 -5.09806 2.90371 0
M  V30 10414 C 999.207 -5.33355 3.40169 0
M  V30 10415 C 997.871 -5.51384 3.76207 0
M  V30 10416 H 997.141 -0.739969 0.039066 0
M  V30 10417 H 999.788 -1.74326 0.792638 0
M  V30 10418 H 998.093 -3.84581 -0.748623 0
M  V30 10419 H 999.79 -3.99144 -0.385386 0
M  V30 10420 H 996.38 -4.15827 1.03854 0
M  V30 10421 H 1000.56 -4.57365 1.92695 0
M  V30 10422 H 995.82 -5.21953 3.18395 0
M  V30 10423 H 999.994 -5.64859 4.07318 0
M  V30 10424 H 997.621 -5.96924 4.70729 0
M  V30 10425 N 999.196 -0.349774 -1.5367 0
M  V30 10426 C 1000.61 0.132815 -1.86227 0
M  V30 10427 C 1000.96 1.49479 -1.27084 0
M  V30 10428 O 1000.08 2.08292 -0.58679 0
M  V30 10429 C 1000.68 0.247775 -3.37893 0
M  V30 10430 C 999.237 0.674603 -3.70305 0
M  V30 10431 C 998.384 -0.187869 -2.76663 0
M  V30 10432 H 1001.33 -0.569148 -1.48143 0
M  V30 10433 H 1001.36 1.07418 -3.65023 0
M  V30 10434 H 1000.87 -0.743635 -3.80909 0
M  V30 10435 H 998.969 1.67481 -3.32837 0
M  V30 10436 H 999.082 0.460177 -4.76885 0
M  V30 10437 H 997.446 0.340779 -2.5241 0
M  V30 10438 H 998.229 -1.17653 -3.2251 0
M  V30 10439 N 1000.67 1.57404 -0.0785433 0
M  V30 10440 C 1001.58 2.16612 0.900902 0
M  V30 10441 C 1002.6 1.13109 1.32221 0
M  V30 10442 O 1003.78 1.45406 1.39352 0
M  V30 10443 C 1000.84 2.7215 2.14791 0
M  V30 10444 C 999.902 3.90551 1.78237 0
M  V30 10445 C 999.135 4.43431 2.96993 0
M  V30 10446 O 999.358 3.95292 4.11218 0
M  V30 10447 O 998.292 5.34674 2.76418 0
M  V30 10448 H 1002.12 3.0068 0.427227 0
M  V30 10449 H 999.703 1.48696 0.144902 0
M  V30 10450 H 1001.58 3.07718 2.87902 0
M  V30 10451 H 1000.26 1.91139 2.61243 0
M  V30 10452 H 999.167 3.59825 1.02357 0
M  V30 10453 H 1000.5 4.72876 1.36562 0
M  V30 10454 N 1002.15 -0.195058 1.56388 0
M  V30 10455 C 1003.06 -1.26219 1.97752 0
M  V30 10456 C 1004.08 -1.49801 0.885192 0
M  V30 10457 O 1005.25 -1.62415 1.19094 0
M  V30 10458 C 1002.32 -2.5865 2.3087 0
M  V30 10459 C 1001.38 -2.4314 3.5381 0
M  V30 10460 C 1000.61 -3.69255 3.85339 0
M  V30 10461 O 1000.84 -4.73425 3.18159 0
M  V30 10462 O 999.77 -3.64782 4.78767 0
M  V30 10463 H 1003.6 -0.941161 2.88749 0
M  V30 10464 H 1001.18 -0.40006 1.43944 0
M  V30 10465 H 1003.06 -3.36814 2.53247 0
M  V30 10466 H 1001.74 -2.9038 1.43042 0
M  V30 10467 H 1000.64 -1.63086 3.3668 0
M  V30 10468 H 1001.98 -2.16341 4.42105 0
M  V30 10469 N 1003.63 -1.50653 -0.462772 0
M  V30 10470 C 1004.54 -1.72923 -1.58539 0
M  V30 10471 C 1005.56 -0.612577 -1.6286 0
M  V30 10472 O 1006.73 -0.891885 -1.80575 0
M  V30 10473 C 1003.8 -1.82623 -2.94703 0
M  V30 10474 C 1002.86 -3.06392 -3.00704 0
M  V30 10475 C 1002.09 -3.15618 -4.30373 0
M  V30 10476 O 1002.31 -2.31423 -5.21344 0
M  V30 10477 O 1001.25 -4.0841 -4.42136 0
M  V30 10478 H 1005.07 -2.68103 -1.42669 0
M  V30 10479 H 1002.66 -1.34848 -0.643144 0
M  V30 10480 H 1004.54 -1.91134 -3.7556 0
M  V30 10481 H 1003.22 -0.906275 -3.10754 0
M  V30 10482 H 1002.12 -3.03375 -2.18894 0
M  V30 10483 H 1003.46 -3.97992 -2.89591 0
M  V30 10484 N 1005.11 0.71652 -1.4037 0
M  V30 10485 C 1006.52 1.29562 -1.34427 0
M  V30 10486 C 1006.87 1.96192 -0.0173106 0
M  V30 10487 O 1006 1.97488 0.884719 0
M  V30 10488 C 1006.59 2.35601 -2.4347 0
M  V30 10489 C 1005.15 2.89138 -2.4099 0
M  V30 10490 C 1004.3 1.62915 -2.24397 0
M  V30 10491 H 1007.25 0.512715 -1.5019 0
M  V30 10492 H 1007.27 3.16422 -2.11323 0
M  V30 10493 H 1006.78 1.87077 -3.40035 0
M  V30 10494 H 1004.88 3.41894 -1.4812 0
M  V30 10495 H 1004.99 3.40995 -3.3654 0
M  V30 10496 H 1003.36 1.87947 -1.71896 0
M  V30 10497 H 1004.14 1.16417 -3.22958 0
M  V30 10498 N 1006.59 1.25851 0.948643 0
M  V30 10499 C 1007.52 1.09248 2.06367 0
M  V30 10500 C 1008.5 -0.000205168 1.701 0
M  V30 10501 O 1009.68 0.170442 1.93451 0
M  V30 10502 C 1006.81 0.716777 3.39823 0
M  V30 10503 C 1005.77 1.76036 3.90122 0
M  V30 10504 C 1005.09 1.23918 5.20143 0
M  V30 10505 C 1006.39 3.16039 4.15833 0
M  V30 10506 H 1008.09 2.02518 2.20515 0
M  V30 10507 H 1005.63 0.975093 1.05962 0
M  V30 10508 H 1007.59 0.587531 4.17284 0
M  V30 10509 H 1006.31 -0.251626 3.25629 0
M  V30 10510 H 1004.97 1.87815 3.14835 0
M  V30 10511 H 1004.62 0.260836 5.02323 0
M  V30 10512 H 1004.32 1.93673 5.54765 0
M  V30 10513 H 1005.84 1.12245 6.00194 0
M  V30 10514 H 1007.25 3.0738 4.83933 0
M  V30 10515 H 1005.65 3.83317 4.61723 0
M  V30 10516 H 1006.72 3.62652 3.21887 0
M  V30 10517 N 1008.06 -1.15214 1.07534 0
M  V30 10518 C 1009.29 -1.90463 0.820883 0
M  V30 10519 C 1009.71 -1.77578 -0.620305 0
M  V30 10520 O 1009.07 -1.10976 -1.43366 0
M  V30 10521 C 1009.12 -3.38746 1.23627 0
M  V30 10522 O 1008.22 -4.1062 0.382715 0
M  V30 10523 H 1007.57 -0.59292 0.298901 0
M  V30 10524 H 1010.1 -1.45893 1.43445 0
M  V30 10525 H 1010.11 -3.89543 1.21327 0
M  V30 10526 H 1008.78 -3.47443 2.28596 0
M  V30 10527 H 1007.36 -3.69947 0.468374 0
M  V30 10528 N 1009.54 -0.859717 -1.32086 0
M  V30 10529 C 1010.79 -0.464662 -1.96686 0
M  V30 10530 C 1011.11 0.98412 -1.68345 0
M  V30 10531 O 1010.38 1.68847 -0.993361 0
M  V30 10532 H 1008.96 -0.168838 -0.727669 0
M  V30 10533 H 1011.62 -1.09726 -1.61079 0
M  V30 10534 H 1010.72 -0.613904 -3.06003 0
M  V30 10535 N 1011.02 1.44971 -0.618145 0
M  V30 10536 C 1012.43 1.85611 -0.201334 0
M  V30 10537 C 1012.78 1.51698 1.24427 0
M  V30 10538 O 1011.91 0.94875 1.94493 0
M  V30 10539 C 1012.5 3.36897 -0.358619 0
M  V30 10540 C 1011.06 3.764 0.00358196 0
M  V30 10541 C 1010.21 2.68881 -0.678118 0
M  V30 10542 H 1013.16 1.35622 -0.824152 0
M  V30 10543 H 1013.18 3.78326 0.406176 0
M  V30 10544 H 1012.69 3.61548 -1.41084 0
M  V30 10545 H 1010.79 3.57365 1.05457 0
M  V30 10546 H 1010.91 4.77449 -0.397427 0
M  V30 10547 H 1009.27 2.54442 -0.114699 0
M  V30 10548 H 1010.05 2.96367 -1.73268 0
M  V30 10549 N 1012.5 0.357919 1.53482 0
M  V30 10550 C 1013.46 -0.479797 2.24122 0
M  V30 10551 C 1014.46 -1.01596 1.24639 0
M  V30 10552 O 1015.65 -0.902928 1.48973 0
M  V30 10553 C 1012.78 -1.66983 2.97203 0
M  V30 10554 H 1013.98 0.138219 2.99581 0
M  V30 10555 H 1011.53 0.109484 1.55916 0
M  V30 10556 H 1012.26 -2.32615 2.25966 0
M  V30 10557 H 1012.05 -1.29242 3.70188 0
M  V30 10558 H 1013.54 -2.26367 3.50924 0
M  V30 10559 N 1013.98 -1.5736 0.0868897 0
M  V30 10560 C 1015.22 -1.94341 -0.579598 0
M  V30 10561 C 1015.56 -0.968238 -1.68341 0
M  V30 10562 O 1014.83 8.29649e-05 -1.945 0
M  V30 10563 C 1015.11 -3.41497 -1.14245 0
M  V30 10564 C 1014.97 -4.49778 -0.044255 0
M  V30 10565 C 1016.29 -3.89788 -2.04336 0
M  V30 10566 H 1013.4 -0.70668 -0.20922 0
M  V30 10567 H 1016.05 -1.89359 0.15593 0
M  V30 10568 H 1014.2 -3.45873 -1.76929 0
M  V30 10569 H 1015.87 -4.57517 0.58959 0
M  V30 10570 H 1014.11 -4.293 0.623207 0
M  V30 10571 H 1014.78 -5.4992 -0.478749 0
M  V30 10572 H 1017.26 -3.87513 -1.51569 0
M  V30 10573 H 1016.13 -4.93335 -2.40648 0
M  V30 10574 H 1016.4 -3.28603 -2.95757 0
M  V30 10575 N 1015.45 0.186762 -1.56489 0
M  V30 10576 C 1016.87 0.750675 -1.70944 0
M  V30 10577 C 1017.22 1.83483 -0.694858 0
M  V30 10578 O 1016.34 2.159 0.147009 0
M  V30 10579 C 1016.94 1.36843 -3.09934 0
M  V30 10580 C 1015.5 1.87934 -3.26125 0
M  V30 10581 C 1014.64 0.75242 -2.66897 0
M  V30 10582 H 1017.59 -0.0384292 -1.58653 0
M  V30 10583 H 1017.61 2.23795 -3.07727 0
M  V30 10584 H 1017.13 0.579135 -3.83755 0
M  V30 10585 H 1015.23 2.69556 -2.57235 0
M  V30 10586 H 1015.34 2.0354 -4.33715 0
M  V30 10587 H 1013.7 1.16888 -2.26295 0
M  V30 10588 H 1014.49 -0.0247769 -3.43291 0
M  V30 10589 N 1016.93 1.50896 0.454776 0
M  V30 10590 C 1018.18 1.61936 1.20248 0
M  V30 10591 C 1018.49 0.332983 1.92745 0
M  V30 10592 O 1019.7 0.322512 2.69578 0
M  V30 10593 C 1018.16 2.85916 2.18587 0
M  V30 10594 C 1017.76 4.21492 1.51818 0
M  V30 10595 C 1019.51 3.06307 2.93898 0
M  V30 10596 C 1017.42 5.3664 2.48539 0
M  V30 10597 H 1016.35 0.603098 0.452536 0
M  V30 10598 H 1019 1.77345 0.471257 0
M  V30 10599 H 1017.38 2.64101 2.95071 0
M  V30 10600 H 1018.55 4.53623 0.810123 0
M  V30 10601 H 1016.87 4.06837 0.887265 0
M  V30 10602 H 1019.46 3.89507 3.66317 0
M  V30 10603 H 1019.81 2.18683 3.54236 0
M  V30 10604 H 1020.34 3.2838 2.24525 0
M  V30 10605 H 1017.08 6.26469 1.92916 0
M  V30 10606 H 1016.6 5.08907 3.17449 0
M  V30 10607 H 1018.28 5.67881 3.10033 0
M  V30 10608 N 1018.41 -0.709066 1.40748 0
M  V30 10609 C 1019.66 -1.46901 1.39378 0
M  V30 10610 C 1019.99 -1.945 -0.0016993 0
M  V30 10611 O 1019.24 -1.68963 -0.987426 0
M  V30 10612 C 1019.54 -2.70543 2.33541 0
M  V30 10613 C 1019.21 -2.41674 3.80663 0
M  V30 10614 C 1017.87 -2.33511 4.20745 0
M  V30 10615 C 1020.22 -2.1759 4.73607 0
M  V30 10616 C 1017.55 -1.99342 5.51797 0
M  V30 10617 C 1019.9 -1.84933 6.04965 0
M  V30 10618 C 1018.56 -1.75256 6.44082 0
M  V30 10619 H 1017.83 -0.537549 0.510021 0
M  V30 10620 H 1020.48 -0.811635 1.7345 0
M  V30 10621 H 1018.79 -3.41149 1.92677 0
M  V30 10622 H 1020.48 -3.2865 2.29761 0
M  V30 10623 H 1017.07 -2.48917 3.4891 0
M  V30 10624 H 1021.26 -2.22849 4.43454 0
M  V30 10625 H 1016.51 -1.90392 5.81 0
M  V30 10626 H 1020.69 -1.65313 6.76494 0
M  V30 10627 H 1018.31 -1.48547 7.45545 0
M  V30 10628 N 1019.89 -1.26353 -0.941956 0
M  V30 10629 C 1020.85 -1.07904 -2.02211 0
M  V30 10630 C 1021.85 -0.0276283 -1.60776 0
M  V30 10631 O 1023.04 -0.270965 -1.7208 0
M  V30 10632 C 1020.17 -0.641084 -3.34818 0
M  V30 10633 H 1021.37 -2.03804 -2.20009 0
M  V30 10634 H 1018.92 -1.08939 -1.12081 0
M  V30 10635 H 1019.66 0.319943 -3.22718 0
M  V30 10636 H 1019.44 -1.40027 -3.66244 0
M  V30 10637 H 1020.93 -0.533826 -4.14174 0
M  V30 10638 N 1021.37 1.14642 -1.08144 0
M  V30 10639 C 1022.64 1.81774 -0.72232 0
M  V30 10640 C 1023.02 1.95587 0.794294 0
M  V30 10641 O 1022.37 1.51361 1.71178 0
M  V30 10642 C 1022.58 3.1763 -1.44611 0
M  V30 10643 C 1023.93 3.93161 -1.60343 0
M  V30 10644 O 1024.95 3.2721 -1.40755 0
M  V30 10645 O 1023.81 5.11422 -1.9264 0
M  V30 10646 H 1020.91 0.785733 -0.257978 0
M  V30 10647 H 1023.45 1.21683 -1.18285 0
M  V30 10648 H 1022.23 3.02723 -2.4794 0
M  V30 10649 H 1021.85 3.85412 -0.976892 0
M  V30 10650 N 1022.85 0.866709 1.31628 0
M  V30 10651 C 1024.07 0.49039 2.01004 0
M  V30 10652 C 1024.49 -0.916244 1.65077 0
M  V30 10653 O 1023.85 -1.59975 0.8783 0
M  V30 10654 C 1023.9 0.634011 3.55897 0
M  V30 10655 O 1023.62 1.98525 3.90537 0
M  V30 10656 C 1025.12 0.258277 4.42547 0
M  V30 10657 H 1022.34 0.191421 0.643117 0
M  V30 10658 H 1024.88 1.16698 1.67934 0
M  V30 10659 H 1023.04 0.00501801 3.874 0
M  V30 10660 H 1023.45 1.99067 4.85255 0
M  V30 10661 H 1024.93 0.409733 5.50477 0
M  V30 10662 H 1025.4 -0.802301 4.3181 0
M  V30 10663 H 1026.01 0.862837 4.16456 0
M  V30 10664 N 1024.32 -1.44642 0.625825 0
M  V30 10665 C 1025.29 -2.29085 -0.072526 0
M  V30 10666 C 1026.29 -1.40755 -0.777467 0
M  V30 10667 O 1027.48 -1.62684 -0.622861 0
M  V30 10668 C 1024.61 -3.22212 -1.1132 0
M  V30 10669 H 1025.8 -2.92317 0.670124 0
M  V30 10670 H 1023.35 -1.51466 0.38571 0
M  V30 10671 H 1024.09 -2.63819 -1.88601 0
M  V30 10672 H 1023.87 -3.87299 -0.611709 0
M  V30 10673 H 1025.36 -3.8566 -1.60175 0
M  V30 10674 N 1025.8 -0.366053 -1.5329 0
M  V30 10675 C 1026.76 0.467904 -2.24373 0
M  V30 10676 C 1027.76 1.00934 -1.25176 0
M  V30 10677 O 1028.95 0.895015 -1.49449 0
M  V30 10678 C 1026.09 1.65405 -2.98084 0
M  V30 10679 H 1027.28 -0.154105 -2.99504 0
M  V30 10680 H 1024.83 -0.117751 -1.55856 0
M  V30 10681 H 1025.57 2.31413 -2.27197 0
M  V30 10682 H 1025.35 1.27277 -3.70868 0
M  V30 10683 H 1026.84 2.24503 -3.52119 0
M  V30 10684 N 1027.28 1.57312 -0.0952337 0
M  V30 10685 C 1028.19 2.17556 0.877877 0
M  V30 10686 C 1029.21 1.14505 1.31014 0
M  V30 10687 O 1030.38 1.46876 1.37802 0
M  V30 10688 C 1027.45 2.74413 2.11892 0
M  V30 10689 C 1026.51 3.92419 1.74085 0
M  V30 10690 C 1025.74 4.46556 2.92273 0
M  V30 10691 O 1025.96 3.99631 4.07002 0
M  V30 10692 O 1024.9 5.37576 2.70732 0
M  V30 10693 H 1028.72 3.01116 0.395312 0
M  V30 10694 H 1026.31 1.48841 0.129123 0
M  V30 10695 H 1028.19 3.10754 2.84622 0
M  V30 10696 H 1026.87 1.93899 2.59201 0
M  V30 10697 H 1025.77 3.6089 0.985346 0
M  V30 10698 H 1027.11 4.74298 1.31539 0
M  V30 10699 N 1028.76 -0.17846 1.56586 0
M  V30 10700 C 1029.98 -0.916061 1.86073 0
M  V30 10701 C 1030.41 -1.75349 0.680754 0
M  V30 10702 O 1029.77 -1.77479 -0.37028 0
M  V30 10703 C 1029.81 -1.77445 3.1392 0
M  V30 10704 O 1028.92 -2.87524 2.95641 0
M  V30 10705 H 1028.26 -0.257031 0.612234 0
M  V30 10706 H 1030.79 -0.178755 2.03818 0
M  V30 10707 H 1030.8 -2.1758 3.45142 0
M  V30 10708 H 1029.47 -1.15927 3.99417 0
M  V30 10709 H 1028.05 -2.51023 2.75757 0
M  V30 10710 N 1030.24 -1.51135 -0.446768 0
M  V30 10711 C 1031.2 -1.71187 -1.52406 0
M  V30 10712 C 1032.2 -0.582037 -1.49897 0
M  V30 10713 O 1033.39 -0.849452 -1.52085 0
M  V30 10714 C 1030.52 -1.75962 -2.91976 0
M  V30 10715 H 1031.71 -2.67324 -1.35934 0
M  V30 10716 H 1029.27 -1.40982 -0.674813 0
M  V30 10717 H 1030 -0.816065 -3.13864 0
M  V30 10718 H 1029.79 -2.58065 -2.95203 0
M  V30 10719 H 1031.28 -1.93347 -3.70144 0
M  V30 10720 N 1031.71 0.701592 -1.41122 0
M  V30 10721 C 1032.94 1.49553 -1.43696 0
M  V30 10722 C 1033.36 1.88053 -0.0421865 0
M  V30 10723 O 1032.72 1.54223 0.953144 0
M  V30 10724 C 1032.77 2.73834 -2.34622 0
M  V30 10725 O 1031.87 3.71088 -1.7991 0
M  V30 10726 H 1031.21 0.450352 -0.487933 0
M  V30 10727 H 1033.74 0.862886 -1.85514 0
M  V30 10728 H 1033.75 3.22209 -2.5029 0
M  V30 10729 H 1032.43 2.45149 -3.35969 0
M  V30 10730 H 1031.01 3.29994 -1.73661 0
M  V30 10731 N 1033.19 1.2685 0.935242 0
M  V30 10732 C 1034.12 1.1143 2.05196 0
M  V30 10733 C 1035.1 0.0178362 1.70091 0
M  V30 10734 O 1036.29 0.190951 1.93259 0
M  V30 10735 C 1033.42 0.752779 3.39044 0
M  V30 10736 C 1032.37 1.80164 3.88233 0
M  V30 10737 C 1031.7 1.29428 5.18799 0
M  V30 10738 C 1033 3.20431 4.12457 0
M  V30 10739 H 1034.69 2.04845 2.18355 0
M  V30 10740 H 1032.24 0.986276 1.04922 0
M  V30 10741 H 1034.19 0.631757 4.16637 0
M  V30 10742 H 1032.91 -0.217075 3.25878 0
M  V30 10743 H 1031.57 1.91144 3.12825 0
M  V30 10744 H 1031.22 0.3141 5.02018 0
M  V30 10745 H 1030.92 1.99546 5.5268 0
M  V30 10746 H 1032.45 1.18605 5.9897 0
M  V30 10747 H 1033.86 3.12495 4.80645 0
M  V30 10748 H 1032.26 3.88193 4.57631 0
M  V30 10749 H 1033.33 3.66046 3.18023 0
M  V30 10750 N 1034.67 -1.14067 1.0875 0
M  V30 10751 C 1035.9 -1.89041 0.840902 0
M  V30 10752 C 1036.31 -1.78768 -0.60725 0
M  V30 10753 O 1035.67 -1.14945 -1.41753 0
M  V30 10754 C 1035.72 -3.38891 1.25838 0
M  V30 10755 O 1035.44 -3.48886 2.64972 0
M  V30 10756 C 1036.94 -4.30852 1.04315 0
M  V30 10757 H 1034.16 -0.598685 0.303014 0
M  V30 10758 H 1036.71 -1.44438 1.44769 0
M  V30 10759 H 1034.86 -3.81103 0.695627 0
M  V30 10760 H 1035.28 -4.41989 2.82393 0
M  V30 10761 H 1036.75 -5.34353 1.38461 0
M  V30 10762 H 1037.23 -4.39196 -0.0195784 0
M  V30 10763 H 1037.83 -3.944 1.59151 0
M  V30 10764 N 1036.15 -0.873678 -1.31166 0
M  V30 10765 C 1037.08 -0.348011 -2.30892 0
M  V30 10766 C 1038.06 0.563092 -1.60509 0
M  V30 10767 O 1039.24 0.479332 -1.88192 0
M  V30 10768 C 1036.37 0.448158 -3.44396 0
M  V30 10769 C 1035.33 -0.370179 -4.26396 0
M  V30 10770 C 1034.65 0.551903 -5.31844 0
M  V30 10771 C 1035.95 -1.60624 -4.96988 0
M  V30 10772 H 1037.65 -1.18134 -2.75109 0
M  V30 10773 H 1035.19 -0.569502 -1.3226 0
M  V30 10774 H 1037.15 0.826458 -4.13216 0
M  V30 10775 H 1035.87 1.31503 -2.98956 0
M  V30 10776 H 1034.53 -0.730472 -3.59249 0
M  V30 10777 H 1034.18 1.41616 -4.82653 0
M  V30 10778 H 1033.88 0.00823478 -5.87599 0
M  V30 10779 H 1035.4 0.926965 -6.03523 0
M  V30 10780 H 1036.82 -1.29917 -5.58386 0
M  V30 10781 H 1035.21 -2.08926 -5.62557 0
M  V30 10782 H 1036.28 -2.357 -4.23761 0
M  V30 10783 N 1037.63 1.44308 -0.633487 0
M  V30 10784 C 1039.04 1.85387 -0.221009 0
M  V30 10785 C 1039.39 1.5301 1.22811 0
M  V30 10786 O 1038.51 0.969325 1.93476 0
M  V30 10787 C 1039.11 3.36497 -0.394331 0
M  V30 10788 C 1037.67 3.76382 -0.0363405 0
M  V30 10789 C 1036.81 2.68146 -0.706598 0
M  V30 10790 H 1039.77 1.34741 -0.83849 0
M  V30 10791 H 1039.79 3.78735 0.366026 0
M  V30 10792 H 1039.3 3.60031 -1.44911 0
M  V30 10793 H 1037.4 3.58463 1.01661 0
M  V30 10794 H 1037.51 4.77 -0.448045 0
M  V30 10795 H 1035.88 2.54306 -0.14168 0
M  V30 10796 H 1036.66 2.94512 -1.76401 0
M  V30 10797 N 1039.1 0.374177 1.53094 0
M  V30 10798 C 1040.05 -0.468226 2.26001 0
M  V30 10799 C 1041.02 -1.07041 1.27009 0
M  V30 10800 O 1042.21 -1.10129 1.55809 0
M  V30 10801 C 1039.35 -1.59754 3.05896 0
M  V30 10802 C 1038.46 -1.01969 4.19793 0
M  V30 10803 C 1037.59 -2.11882 4.87113 0
M  V30 10804 C 1036.63 -1.51607 5.93028 0
M  V30 10805 N 1035.77 -2.55388 6.54004 0
M  V30 10806 H 1040.61 0.159983 2.9757 0
M  V30 10807 H 1038.15 0.0907196 1.4682 0
M  V30 10808 H 1040.11 -2.26288 3.50499 0
M  V30 10809 H 1038.74 -2.19628 2.36565 0
M  V30 10810 H 1037.79 -0.244386 3.79614 0
M  V30 10811 H 1039.1 -0.539089 4.95878 0
M  V30 10812 H 1038.25 -2.86218 5.34943 0
M  V30 10813 H 1036.99 -2.63297 4.10519 0
M  V30 10814 H 1036 -0.757891 5.44551 0
M  V30 10815 H 1037.22 -1.01006 6.71546 0
M  V30 10816 H 1035.17 -3.06 5.80258 0
M  V30 10817 H 1035.09 -2.12039 7.25655 0
M  V30 10818 H 1036.35 -3.294 7.06481 0
M  V30 10819 N 1040.58 -1.57259 0.103575 0
M  V30 10820 C 1041.53 -2.11032 -0.863101 0
M  V30 10821 C 1042.52 -1.02737 -1.2383 0
M  V30 10822 O 1043.71 -1.28997 -1.21197 0
M  V30 10823 C 1040.84 -2.70099 -2.11899 0
M  V30 10824 C 1039.92 -3.85451 -1.76885 0
M  V30 10825 N 1040.31 -4.93137 -1.12469 0
M  V30 10826 C 1038.61 -3.95346 -2.06441 0
M  V30 10827 C 1039.31 -5.73681 -0.962527 0
M  V30 10828 N 1038.29 -5.22992 -1.48258 0
M  V30 10829 H 1042.09 -2.91671 -0.361264 0
M  V30 10830 H 1039.61 -1.62096 -0.0993794 0
M  V30 10831 H 1041.6 -3.06957 -2.82104 0
M  V30 10832 H 1040.26 -1.90918 -2.62641 0
M  V30 10833 H 1041.27 -5.11832 -0.790489 0
M  V30 10834 H 1037.95 -3.27185 -2.59338 0
M  V30 10835 H 1039.34 -6.70337 -0.458098 0
M  V30 10836 N 1042.06 0.170153 -1.56679 0
M  V30 10837 C 1043.31 0.884902 -1.81252 0
M  V30 10838 C 1043.62 1.83361 -0.681024 0
M  V30 10839 O 1044.83 2.59082 -0.811722 0
M  V30 10840 C 1043.28 1.62408 -3.21172 0
M  V30 10841 C 1042.89 0.718947 -4.42194 0
M  V30 10842 C 1044.64 2.32699 -3.55037 0
M  V30 10843 C 1042.54 1.45843 -5.73135 0
M  V30 10844 H 1041.47 0.33418 -0.675899 0
M  V30 10845 H 1044.12 0.137818 -1.82982 0
M  V30 10846 H 1042.51 2.41596 -3.13763 0
M  V30 10847 H 1043.68 -0.0360521 -4.60786 0
M  V30 10848 H 1042 0.125634 -4.1621 0
M  V30 10849 H 1044.59 2.88621 -4.50114 0
M  V30 10850 H 1044.94 3.08092 -2.79974 0
M  V30 10851 H 1045.47 1.60453 -3.64005 0
M  V30 10852 H 1042.21 0.746799 -6.51232 0
M  V30 10853 H 1041.73 2.18672 -5.58518 0
M  V30 10854 H 1043.41 2.0056 -6.1513 0
M  V30 10855 N 1043.54 1.5137 0.438746 0
M  V30 10856 C 1044.76 1.68058 1.21537 0
M  V30 10857 C 1045.19 0.376787 1.84288 0
M  V30 10858 O 1044.55 -0.662911 1.68746 0
M  V30 10859 C 1044.59 2.79684 2.27616 0
M  V30 10860 O 1043.7 2.43189 3.33066 0
M  V30 10861 H 1043.04 0.560408 0.356144 0
M  V30 10862 H 1045.57 1.97926 0.518311 0
M  V30 10863 H 1045.58 3.03726 2.72423 0
M  V30 10864 H 1044.25 3.74293 1.81321 0
M  V30 10865 H 1042.83 2.29713 2.93746 0
M  V30 10866 N 1045.02 -0.694098 1.41492 0
M  V30 10867 C 1045.93 -1.83778 1.45818 0
M  V30 10868 C 1046.94 -1.70471 0.348639 0
M  V30 10869 O 1048.12 -1.92361 0.596588 0
M  V30 10870 C 1045.18 -3.19771 1.33967 0
M  V30 10871 C 1044.24 -3.45175 2.5525 0
M  V30 10872 C 1043.48 -4.74681 2.43955 0
M  V30 10873 O 1043.7 -5.51268 1.46491 0
M  V30 10874 O 1042.63 -5.00901 3.33739 0
M  V30 10875 H 1046.46 -1.83084 2.42309 0
M  V30 10876 H 1044.05 -0.847349 1.23046 0
M  V30 10877 H 1045.93 -4.00961 1.29648 0
M  V30 10878 H 1044.6 -3.21145 0.405926 0
M  V30 10879 H 1043.51 -2.6391 2.65146 0
M  V30 10880 H 1044.84 -3.48617 3.47458 0
M  V30 10881 N 1046.49 -1.27344 -0.928501 0
M  V30 10882 C 1047.74 -1.13804 -1.67859 0
M  V30 10883 C 1048.07 0.31555 -1.91619 0
M  V30 10884 O 1047.35 1.23087 -1.50599 0
M  V30 10885 C 1047.63 -1.9213 -3.04562 0
M  V30 10886 C 1047.48 -3.45468 -2.88048 0
M  V30 10887 C 1048.8 -1.72513 -4.04879 0
M  V30 10888 H 1045.92 -0.414796 -0.609191 0
M  V30 10889 H 1048.56 -1.5649 -1.07753 0
M  V30 10890 H 1046.71 -1.55853 -3.55868 0
M  V30 10891 H 1048.39 -3.9157 -2.43865 0
M  V30 10892 H 1046.63 -3.71849 -2.23407 0
M  V30 10893 H 1047.3 -3.95515 -3.85061 0
M  V30 10894 H 1049.78 -2.04143 -3.62581 0
M  V30 10895 H 1048.65 -2.29713 -4.98521 0
M  V30 10896 H 1048.91 -0.672856 -4.3695 0
M  V30 10897 N 1047.97 1.13488 -1.09353 0
M  V30 10898 C 1049.38 1.66299 -0.848609 0
M  V30 10899 C 1049.73 1.86044 0.623051 0
M  V30 10900 O 1048.86 1.57871 1.48005 0
M  V30 10901 C 1049.45 3.02087 -1.53391 0
M  V30 10902 C 1048.01 3.51893 -1.33598 0
M  V30 10903 C 1047.16 2.27154 -1.59048 0
M  V30 10904 H 1050.11 0.974208 -1.25279 0
M  V30 10905 H 1050.13 3.68018 -0.966587 0
M  V30 10906 H 1049.64 2.87684 -2.60498 0
M  V30 10907 H 1047.75 3.715 -0.286045 0
M  V30 10908 H 1047.86 4.32059 -2.0703 0
M  V30 10909 H 1046.22 2.33708 -1.01256 0
M  V30 10910 H 1047.01 2.15317 -2.67383 0
M  V30 10911 N 1049.45 0.880621 1.30701 0
M  V30 10912 C 1050.7 0.495894 1.95922 0
M  V30 10913 C 1051.02 -0.957214 1.69889 0
M  V30 10914 O 1050.29 -1.67245 1.0201 0
M  V30 10915 H 1048.87 0.180394 0.724891 0
M  V30 10916 H 1051.53 1.12274 1.59313 0
M  V30 10917 H 1050.63 0.662508 3.04987 0
M  V30 10918 N 1050.93 -1.4397 0.641131 0
M  V30 10919 C 1052.18 -2.02246 0.14985 0
M  V30 10920 C 1052.51 -1.50387 -1.22871 0
M  V30 10921 O 1051.78 -0.692003 -1.81773 0
M  V30 10922 C 1052.07 -3.59798 0.147449 0
M  V30 10923 C 1051.92 -4.21916 1.55907 0
M  V30 10924 C 1053.24 -4.36985 -0.522667 0
M  V30 10925 H 1050.36 -0.734875 0.0559274 0
M  V30 10926 H 1053 -1.71418 0.819513 0
M  V30 10927 H 1051.15 -3.86193 -0.422789 0
M  V30 10928 H 1052.82 -4.06594 2.17896 0
M  V30 10929 H 1051.06 -3.79028 2.10998 0
M  V30 10930 H 1051.74 -5.30964 1.50934 0
M  V30 10931 H 1054.21 -4.16083 -0.0376226 0
M  V30 10932 H 1053.09 -5.46676 -0.493572 0
M  V30 10933 H 1053.35 -4.12335 -1.59475 0
M  V30 10934 N 1052.41 -0.382291 -1.52893 0
M  V30 10935 C 1053.68 0.259354 -1.93873 0
M  V30 10936 C 1054.06 1.64964 -1.3172 0
M  V30 10937 O 1053.41 2.23345 -0.482611 0
M  V30 10938 C 1053.62 0.292765 -3.4777 0
M  V30 10939 C 1054.97 0.525095 -4.21341 0
M  V30 10940 O 1055.99 0.373272 -3.54239 0
M  V30 10941 O 1054.85 0.822004 -5.40283 0
M  V30 10942 H 1051.95 0.159422 -0.811489 0
M  V30 10943 H 1054.49 -0.436289 -1.63996 0
M  V30 10944 H 1053.27 -0.681341 -3.85323 0
M  V30 10945 H 1052.89 1.03362 -3.8393 0
M  V30 10946 N 1053.89 1.57202 -0.111913 0
M  V30 10947 C 1055.16 1.86459 0.590972 0
M  V30 10948 C 1055.54 1.01182 1.85271 0
M  V30 10949 O 1054.89 0.0887891 2.28327 0
M  V30 10950 C 1055.1 3.37455 0.890225 0
M  V30 10951 C 1056.45 4.05895 1.24638 0
M  V30 10952 O 1057.47 3.42433 0.980713 0
M  V30 10953 O 1056.33 5.17903 1.74466 0
M  V30 10954 H 1053.43 0.771652 0.297459 0
M  V30 10955 H 1055.97 1.69072 -0.145882 0
M  V30 10956 H 1054.74 3.913 -0.00419012 0
M  V30 10957 H 1054.37 3.60248 1.68248 0
M  V30 10958 N 1055.36 -0.161842 1.56767 0
M  V30 10959 C 1056.59 -0.890953 1.86402 0
M  V30 10960 C 1057 -1.75918 0.696373 0
M  V30 10961 O 1056.34 -1.80461 -0.343463 0
M  V30 10962 C 1056.41 -1.81079 3.10565 0
M  V30 10963 C 1056.07 -1.12121 4.43032 0
M  V30 10964 C 1057.07 -0.482152 5.17659 0
M  V30 10965 C 1054.75 -1.11514 4.89765 0
M  V30 10966 C 1056.75 0.153772 6.37214 0
M  V30 10967 C 1054.43 -0.4754 6.09248 0
M  V30 10968 C 1055.43 0.157944 6.82817 0
M  V30 10969 O 1055.12 0.787579 8.00033 0
M  V30 10970 H 1054.85 -0.26379 0.622407 0
M  V30 10971 H 1057.41 -0.163884 2.04745 0
M  V30 10972 H 1055.64 -2.57842 2.88192 0
M  V30 10973 H 1057.32 -2.41056 3.26568 0
M  V30 10974 H 1058.09 -0.478752 4.82631 0
M  V30 10975 H 1053.97 -1.59752 4.32435 0
M  V30 10976 H 1057.51 0.648716 6.94577 0
M  V30 10977 H 1053.41 -0.476416 6.43739 0
M  V30 10978 H 1054.18 0.687769 8.15605 0
M  V30 10979 N 1056.84 -1.516 -0.430713 0
M  V30 10980 C 1058.07 -1.687 -1.20644 0
M  V30 10981 C 1058.49 -0.386555 -1.84085 0
M  V30 10982 O 1057.85 0.653952 -1.69095 0
M  V30 10983 C 1057.9 -2.80887 -2.2613 0
M  V30 10984 O 1057 -2.44952 -3.31772 0
M  V30 10985 H 1056.34 -0.562289 -0.353167 0
M  V30 10986 H 1058.87 -1.98198 -0.507807 0
M  V30 10987 H 1058.88 -3.05167 -2.70809 0
M  V30 10988 H 1057.56 -3.75249 -1.79334 0
M  V30 10989 H 1056.13 -2.31267 -2.92523 0
M  V30 10990 N 1058.32 0.686584 -1.41858 0
M  V30 10991 C 1059.57 1.44879 -1.41908 0
M  V30 10992 C 1059.9 1.94175 -0.0311408 0
M  V30 10993 O 1059.17 1.70131 0.942646 0
M  V30 10994 C 1059.46 2.65428 -2.43352 0
M  V30 10995 C 1059.31 2.2184 -3.91289 0
M  V30 10996 C 1060.63 3.67635 -2.41934 0
M  V30 10997 H 1057.75 0.525477 -0.516762 0
M  V30 10998 H 1060.39 0.781263 -1.73194 0
M  V30 10999 H 1058.54 3.2238 -2.16803 0
M  V30 11000 H 1060.21 1.70146 -4.28775 0
M  V30 11001 H 1058.45 1.53531 -4.05722 0
M  V30 11002 H 1059.13 3.08376 -4.5783 0
M  V30 11003 H 1061.6 3.20376 -2.65516 0
M  V30 11004 H 1060.48 4.49579 -3.14913 0
M  V30 11005 H 1060.74 4.17953 -1.44111 0
M  V30 11006 N 1059.8 1.27835 0.921735 0
M  V30 11007 C 1061.03 1.17352 1.704 0
M  V30 11008 C 1061.44 -0.268892 1.86875 0
M  V30 11009 O 1060.8 -1.18253 1.39005 0
M  V30 11010 C 1060.85 1.85889 3.10045 0
M  V30 11011 O 1060.57 3.24495 2.94338 0
M  V30 11012 C 1062.07 1.81607 4.04393 0
M  V30 11013 H 1059.29 0.40773 0.532914 0
M  V30 11014 H 1061.83 1.68815 1.15419 0
M  V30 11015 H 1059.99 1.38316 3.61867 0
M  V30 11016 H 1060.4 3.58705 3.82663 0
M  V30 11017 H 1061.88 2.34165 4.99871 0
M  V30 11018 H 1062.35 0.786697 4.32097 0
M  V30 11019 H 1062.96 2.28822 3.58498 0
M  V30 11020 N 1061.28 -1.12907 1.09954 0
M  V30 11021 C 1062.22 -2.18485 0.743848 0
M  V30 11022 C 1063.19 -1.63766 -0.277494 0
M  V30 11023 O 1064.38 -1.90146 -0.157899 0
M  V30 11024 C 1061.52 -3.44649 0.176437 0
M  V30 11025 C 1060.63 -4.13445 1.25248 0
M  V30 11026 C 1059.77 -5.27242 0.647242 0
M  V30 11027 C 1058.8 -5.87897 1.70421 0
M  V30 11028 N 1057.94 -6.93116 1.1196 0
M  V30 11029 H 1062.78 -2.48257 1.64841 0
M  V30 11030 H 1060.32 -1.21891 0.823471 0
M  V30 11031 H 1062.28 -4.16852 -0.170384 0
M  V30 11032 H 1060.91 -3.15309 -0.69137 0
M  V30 11033 H 1059.96 -3.39471 1.7165 0
M  V30 11034 H 1061.27 -4.54601 2.05279 0
M  V30 11035 H 1060.42 -6.06186 0.249579 0
M  V30 11036 H 1059.16 -4.87351 -0.184556 0
M  V30 11037 H 1058.17 -5.07643 2.11136 0
M  V30 11038 H 1059.39 -6.2986 2.53877 0
M  V30 11039 H 1057.34 -6.55271 0.309181 0
M  V30 11040 H 1057.26 -7.32843 1.85681 0
M  V30 11041 H 1058.52 -7.759 0.748326 0
M  V30 11042 N 1062.75 -0.88754 -1.30232 0
M  V30 11043 C 1063.72 -0.361095 -2.26338 0
M  V30 11044 C 1064.72 0.497871 -1.52898 0
M  V30 11045 O 1065.91 0.30466 -1.71515 0
M  V30 11046 C 1063.04 0.485135 -3.3743 0
M  V30 11047 H 1064.23 -1.20973 -2.74419 0
M  V30 11048 H 1061.78 -0.664619 -1.41466 0
M  V30 11049 H 1062.52 1.35425 -2.9467 0
M  V30 11050 H 1062.3 -0.130173 -3.91884 0
M  V30 11051 H 1063.79 0.845169 -4.08958 0
M  V30 11052 N 1064.23 1.43628 -0.648757 0
M  V30 11053 C 1065.64 1.85142 -0.24066 0
M  V30 11054 C 1065.99 1.54304 1.21181 0
M  V30 11055 O 1065.12 0.989792 1.92437 0
M  V30 11056 C 1065.71 3.3606 -0.429999 0
M  V30 11057 C 1064.27 3.76323 -0.0762588 0
M  V30 11058 C 1063.42 2.67382 -0.734999 0
M  V30 11059 H 1066.37 1.33844 -0.852734 0
M  V30 11060 H 1066.39 3.79102 0.325836 0
M  V30 11061 H 1065.9 3.58474 -1.48721 0
M  V30 11062 H 1064.01 3.59521 0.978529 0
M  V30 11063 H 1064.12 4.76498 -0.498612 0
M  V30 11064 H 1062.48 2.54141 -0.168644 0
M  V30 11065 H 1063.27 2.92625 -1.79515 0
M  V30 11066 N 1065.71 0.390394 1.52688 0
M  V30 11067 C 1066.64 -0.43567 2.294 0
M  V30 11068 C 1067.62 -1.06253 1.32832 0
M  V30 11069 O 1068.81 -1.07509 1.61726 0
M  V30 11070 C 1065.94 -1.56259 3.10162 0
M  V30 11071 C 1064.89 -1.06172 4.14622 0
M  V30 11072 C 1064.22 -2.2808 4.83615 0
M  V30 11073 C 1065.52 -0.128902 5.22141 0
M  V30 11074 H 1067.21 0.204384 2.98702 0
M  V30 11075 H 1064.76 0.0997377 1.43654 0
M  V30 11076 H 1066.71 -2.14732 3.62585 0
M  V30 11077 H 1065.43 -2.23025 2.38595 0
M  V30 11078 H 1064.09 -0.499518 3.63181 0
M  V30 11079 H 1063.74 -2.93358 4.08595 0
M  V30 11080 H 1063.44 -1.95227 5.5422 0
M  V30 11081 H 1064.96 -2.87193 5.38844 0
M  V30 11082 H 1066.38 -0.621849 5.69917 0
M  V30 11083 H 1064.78 0.109919 5.99999 0
M  V30 11084 H 1065.85 0.821884 4.77884 0
M  V30 11085 N 1067.19 -1.57141 0.120249 0
M  V30 11086 C 1068.44 -1.94413 -0.53727 0
M  V30 11087 C 1068.75 -1.00594 -1.67751 0
M  V30 11088 O 1069.96 -1.27336 -2.39787 0
M  V30 11089 C 1068.41 -3.45521 -1.00714 0
M  V30 11090 C 1068.02 -4.47878 0.104706 0
M  V30 11091 C 1069.76 -3.9171 -1.63596 0
M  V30 11092 C 1067.67 -5.90165 -0.381932 0
M  V30 11093 H 1066.6 -0.725745 -0.204475 0
M  V30 11094 H 1069.25 -1.82404 0.200302 0
M  V30 11095 H 1067.63 -3.52769 -1.79917 0
M  V30 11096 H 1068.81 -4.523 0.881002 0
M  V30 11097 H 1067.12 -4.11448 0.640264 0
M  V30 11098 H 1069.72 -4.95433 -2.01122 0
M  V30 11099 H 1070.06 -3.31756 -2.51483 0
M  V30 11100 H 1070.6 -3.87268 -0.909319 0
M  V30 11101 H 1067.34 -6.53877 0.460921 0
M  V30 11102 H 1066.86 -5.89161 -1.12468 0
M  V30 11103 H 1068.53 -6.41488 -0.842748 0
M  V30 11104 N 1068.67 0.153526 -1.5685 0
M  V30 11105 C 1069.6 1.19162 -2.00805 0
M  V30 11106 C 1070.58 1.45172 -0.886518 0
M  V30 11107 O 1071.76 1.56203 -1.15387 0
M  V30 11108 C 1068.89 2.52637 -2.38311 0
M  V30 11109 C 1067.85 2.41161 -3.53589 0
M  V30 11110 C 1067.17 3.79287 -3.76889 0
M  V30 11111 C 1068.47 1.90122 -4.86468 0
M  V30 11112 H 1070.17 0.82617 -2.87776 0
M  V30 11113 H 1067.71 0.395972 -1.38449 0
M  V30 11114 H 1069.67 3.25478 -2.6766 0
M  V30 11115 H 1068.39 2.91005 -1.4827 0
M  V30 11116 H 1067.05 1.70772 -3.24395 0
M  V30 11117 H 1066.7 4.15079 -2.84109 0
M  V30 11118 H 1066.4 3.72472 -4.54465 0
M  V30 11119 H 1067.92 4.53687 -4.08657 0
M  V30 11120 H 1069.33 2.52752 -5.14577 0
M  V30 11121 H 1067.73 1.94214 -5.67804 0
M  V30 11122 H 1068.8 0.856517 -4.77275 0
M  V30 11123 N 1070.14 1.51827 0.422667 0
M  V30 11124 C 1071.37 1.69049 1.1929 0
M  V30 11125 C 1071.79 0.394095 1.84641 0
M  V30 11126 O 1071.14 -0.628731 1.71328 0
M  V30 11127 C 1071.2 2.81657 2.26609 0
M  V30 11128 O 1070.92 4.06275 1.63929 0
M  V30 11129 C 1072.42 3.10274 3.16615 0
M  V30 11130 H 1069.64 0.566894 0.358988 0
M  V30 11131 H 1072.18 1.98318 0.499029 0
M  V30 11132 H 1070.34 2.54945 2.91688 0
M  V30 11133 H 1070.75 4.68924 2.3497 0
M  V30 11134 H 1072.22 3.92613 3.88019 0
M  V30 11135 H 1072.7 2.23273 3.78214 0
M  V30 11136 H 1073.31 3.387 2.57221 0
M  V30 11137 N 1071.62 -0.679052 1.4222 0
M  V30 11138 C 1072.85 -1.47248 1.46058 0
M  V30 11139 C 1073.27 -1.87962 0.0720987 0
M  V30 11140 O 1072.63 -1.5572 -0.928488 0
M  V30 11141 C 1072.68 -2.70067 2.38948 0
M  V30 11142 O 1071.78 -3.68178 1.85791 0
M  V30 11143 H 1071.12 -0.442533 0.495036 0
M  V30 11144 H 1073.65 -0.833263 1.86863 0
M  V30 11145 H 1073.66 -3.18187 2.55385 0
M  V30 11146 H 1072.34 -2.39773 3.39826 0
M  V30 11147 H 1070.92 -3.2719 1.78889 0
M  V30 11148 N 1073.1 -1.28322 -0.914942 0
M  V30 11149 C 1074.35 -1.15578 -1.66642 0
M  V30 11150 C 1074.68 0.295209 -1.91943 0
M  V30 11151 O 1073.95 1.21482 -1.51896 0
M  V30 11152 C 1074.24 -1.9535 -3.02507 0
M  V30 11153 C 1074.09 -3.48504 -2.84367 0
M  V30 11154 C 1075.41 -1.76798 -4.03027 0
M  V30 11155 H 1072.53 -0.421234 -0.604757 0
M  V30 11156 H 1075.17 -1.57625 -1.06087 0
M  V30 11157 H 1073.32 -1.59619 -3.54195 0
M  V30 11158 H 1074.99 -3.94135 -2.39699 0
M  V30 11159 H 1073.24 -3.74198 -2.1945 0
M  V30 11160 H 1073.91 -3.99576 -3.80845 0
M  V30 11161 H 1076.38 -2.07977 -3.60395 0
M  V30 11162 H 1075.26 -2.34987 -4.96057 0
M  V30 11163 H 1075.52 -0.719162 -4.36211 0
M  V30 11164 N 1074.58 1.12322 -1.10551 0
M  V30 11165 C 1075.54 2.16273 -0.758844 0
M  V30 11166 C 1076.54 1.59325 0.217294 0
M  V30 11167 O 1077.73 1.74199 -0.00601346 0
M  V30 11168 C 1074.86 3.40674 -0.124238 0
M  V30 11169 H 1076.06 2.48454 -1.6796 0
M  V30 11170 H 1073.61 1.2735 -0.906188 0
M  V30 11171 H 1074.34 3.14094 0.807194 0
M  V30 11172 H 1074.13 3.83284 -0.826772 0
M  V30 11173 H 1075.62 4.17474 0.102502 0
M  V30 11174 N 1076.06 0.894434 1.2976 0
M  V30 11175 C 1077.31 0.513673 1.95049 0
M  V30 11176 C 1077.62 -0.943744 1.71327 0
M  V30 11177 O 1078.82 -1.43179 2.30678 0
M  V30 11178 C 1077.28 0.867751 3.49282 0
M  V30 11179 C 1076.89 2.34358 3.81812 0
M  V30 11180 C 1078.63 0.556645 4.20835 0
M  V30 11181 C 1076.54 2.63879 5.29265 0
M  V30 11182 H 1075.47 0.188375 0.73009 0
M  V30 11183 H 1078.12 1.09071 1.47566 0
M  V30 11184 H 1076.5 0.2197 3.9539 0
M  V30 11185 H 1077.68 3.03674 3.46581 0
M  V30 11186 H 1075.99 2.62318 3.23386 0
M  V30 11187 H 1078.59 0.754123 5.29355 0
M  V30 11188 H 1078.93 -0.504526 4.13231 0
M  V30 11189 H 1079.46 1.1623 3.80441 0
M  V30 11190 H 1076.2 3.68774 5.41928 0
M  V30 11191 H 1075.72 1.99182 5.65762 0
M  V30 11192 H 1077.4 2.49871 5.96803 0
M  V30 11193 N 1077.53 -1.43282 0.656365 0
M  V30 11194 C 1078.76 -2.06641 0.177245 0
M  V30 11195 C 1079.18 -1.48893 -1.14946 0
M  V30 11196 O 1078.54 -0.600099 -1.7108 0
M  V30 11197 C 1078.59 -3.60453 0.10299 0
M  V30 11198 O 1077.69 -4.01687 -0.933895 0
M  V30 11199 H 1077.04 -0.656978 0.096314 0
M  V30 11200 H 1079.57 -1.83733 0.900178 0
M  V30 11201 H 1079.58 -4.07923 -0.079291 0
M  V30 11202 H 1078.25 -4.01861 1.07147 0
M  V30 11203 H 1076.83 -3.65801 -0.724148 0
M  V30 11204 N 1079.01 -0.398486 -1.52479 0
M  V30 11205 C 1079.98 0.420206 -2.25315 0
M  V30 11206 C 1080.98 0.982559 -1.27289 0
M  V30 11207 O 1082.17 0.863113 -1.51314 0
M  V30 11208 C 1079.3 1.59045 -3.01525 0
M  V30 11209 H 1080.49 -0.217599 -2.9911 0
M  V30 11210 H 1078.04 -0.150784 -1.55571 0
M  V30 11211 H 1078.78 2.26542 -2.32054 0
M  V30 11212 H 1078.56 1.19382 -3.73484 0
M  V30 11213 H 1080.05 2.16984 -3.56802 0
M  V30 11214 N 1080.49 1.57075 -0.12858 0
M  V30 11215 C 1081.72 2.00305 0.537839 0
M  V30 11216 C 1082.14 1.00787 1.58819 0
M  V30 11217 O 1081.5 -0.0190839 1.8129 0
M  V30 11218 C 1081.55 3.42371 1.13201 0
M  V30 11219 O 1080.65 3.45786 2.24735 0
M  V30 11220 H 1079.99 0.650456 0.133428 0
M  V30 11221 H 1082.52 2.03415 -0.219882 0
M  V30 11222 H 1082.53 3.80783 1.4652 0
M  V30 11223 H 1081.21 4.14315 0.362713 0
M  V30 11224 H 1079.78 3.19201 1.92783 0
M  V30 11225 N 1081.97 -0.145205 1.5693 0
M  V30 11226 C 1083.2 -0.872398 1.87608 0
M  V30 11227 C 1083.61 -1.74657 0.716975 0
M  V30 11228 O 1082.97 -1.79792 -0.3132 0
M  V30 11229 C 1083.02 -1.72762 3.17546 0
M  V30 11230 O 1082.74 -0.888681 4.28992 0
M  V30 11231 C 1084.24 -2.56224 3.61751 0
M  V30 11232 H 1081.46 -0.252166 0.621815 0
M  V30 11233 H 1084.01 -0.137456 2.04038 0
M  V30 11234 H 1082.16 -2.41561 3.02865 0
M  V30 11235 H 1082.58 -1.47601 5.03303 0
M  V30 11236 H 1084.05 -3.11804 4.55502 0
M  V30 11237 H 1084.53 -3.32347 2.87127 0
M  V30 11238 H 1085.13 -1.92714 3.79133 0
M  V30 11239 N 1083.45 -1.52049 -0.414609 0
M  V30 11240 C 1084.72 -1.56397 -1.17471 0
M  V30 11241 C 1085.1 -0.34171 -2.08316 0
M  V30 11242 O 1084.45 0.6718 -2.18401 0
M  V30 11243 C 1084.66 -2.88983 -1.95678 0
M  V30 11244 C 1086.01 -3.41781 -2.51935 0
M  V30 11245 O 1087.03 -2.90686 -2.05865 0
M  V30 11246 O 1085.89 -4.30989 -3.36022 0
M  V30 11247 H 1082.99 -0.62974 -0.536056 0
M  V30 11248 H 1085.53 -1.64374 -0.421834 0
M  V30 11249 H 1084.31 -3.69392 -1.29094 0
M  V30 11250 H 1083.93 -2.84274 -2.77983 0
M  V30 11251 N 1084.93 0.6715 -1.42579 0
M  V30 11252 C 1085.87 1.78496 -1.46314 0
M  V30 11253 C 1086.84 1.63091 -0.314743 0
M  V30 11254 O 1088.03 1.83597 -0.519292 0
M  V30 11255 C 1085.17 3.16548 -1.37447 0
M  V30 11256 C 1084.28 3.43216 -2.62348 0
M  V30 11257 C 1083.42 4.71014 -2.456 0
M  V30 11258 C 1082.45 4.90728 -3.65859 0
M  V30 11259 N 1081.59 6.09769 -3.48032 0
M  V30 11260 H 1086.43 1.74638 -2.41466 0
M  V30 11261 H 1083.97 0.852491 -1.19879 0
M  V30 11262 H 1085.93 3.96329 -1.30303 0
M  V30 11263 H 1084.56 3.19522 -0.458891 0
M  V30 11264 H 1083.61 2.57664 -2.79846 0
M  V30 11265 H 1084.92 3.53675 -3.51732 0
M  V30 11266 H 1084.07 5.58892 -2.3606 0
M  V30 11267 H 1082.81 4.62843 -1.53712 0
M  V30 11268 H 1081.82 4.01291 -3.75827 0
M  V30 11269 H 1083.04 5.00741 -4.58732 0
M  V30 11270 H 1080.99 6.02765 -2.58864 0
M  V30 11271 H 1080.91 6.21104 -4.31005 0
M  V30 11272 H 1082.17 7.00317 -3.42311 0
M  V30 11273 N 1086.4 1.28806 0.908124 0
M  V30 11274 C 1087.63 1.19271 1.69674 0
M  V30 11275 C 1088.05 -0.244403 1.86505 0
M  V30 11276 O 1087.41 -1.17668 1.37927 0
M  V30 11277 C 1087.46 1.9023 3.06341 0
M  V30 11278 O 1086.56 1.2136 3.94139 0
M  V30 11279 H 1085.9 0.413738 0.519343 0
M  V30 11280 H 1088.43 1.70227 1.13508 0
M  V30 11281 H 1088.44 1.98356 3.56537 0
M  V30 11282 H 1087.12 2.94762 2.93408 0
M  V30 11283 H 1085.7 1.21435 3.52573 0
M  V30 11284 N 1087.88 -1.11734 1.11145 0
M  V30 11285 C 1089.16 -1.79795 0.770261 0
M  V30 11286 C 1089.54 -1.97624 -0.742158 0
M  V30 11287 O 1088.89 -1.55847 -1.67105 0
M  V30 11288 C 1089.1 -3.13684 1.52982 0
M  V30 11289 C 1090.44 -3.88771 1.70711 0
M  V30 11290 O 1091.47 -3.23363 1.49381 0
M  V30 11291 O 1090.33 -5.06134 2.06132 0
M  V30 11292 H 1087.42 -0.778617 0.27872 0
M  V30 11293 H 1089.97 -1.18504 1.2147 0
M  V30 11294 H 1088.74 -2.96043 2.55879 0
M  V30 11295 H 1088.36 -3.82687 1.07873 0
M  V30 11296 N 1089.36 -0.901303 -1.29284 0
M  V30 11297 C 1090.29 -0.337552 -2.26701 0
M  V30 11298 C 1091.3 0.517039 -1.54371 0
M  V30 11299 O 1092.49 0.333937 -1.75349 0
M  V30 11300 C 1089.59 0.537214 -3.34615 0
M  V30 11301 C 1088.77 -0.292017 -4.36424 0
M  V30 11302 C 1087.83 0.515837 -5.23666 0
M  V30 11303 O 1086.85 -0.0672303 -5.6916 0
M  V30 11304 N 1088.05 1.82159 -5.51179 0
M  V30 11305 H 1090.82 -1.17484 -2.75713 0
M  V30 11306 H 1088.38 -0.765957 -1.42635 0
M  V30 11307 H 1090.37 1.0841 -3.8991 0
M  V30 11308 H 1088.94 1.2752 -2.85408 0
M  V30 11309 H 1088.16 -1.02031 -3.80767 0
M  V30 11310 H 1089.45 -0.859855 -5.01482 0
M  V30 11311 H 1088.85 2.318 -5.16028 0
M  V30 11312 H 1087.4 2.31556 -6.09282 0
M  V30 11313 N 1090.84 1.42931 -0.663954 0
M  V30 11314 C 1091.8 2.29197 0.0117626 0
M  V30 11315 C 1092.8 1.42767 0.739875 0
M  V30 11316 O 1093.99 1.64278 0.579509 0
M  V30 11317 C 1091.12 3.2505 1.02738 0
M  V30 11318 H 1092.32 2.90438 -0.747391 0
M  V30 11319 H 1089.87 1.5039 -0.425733 0
M  V30 11320 H 1090.6 2.68726 1.8154 0
M  V30 11321 H 1090.39 3.88785 0.508809 0
M  V30 11322 H 1091.88 3.89771 1.49893 0
M  V30 11323 N 1092.32 0.406567 1.52266 0
M  V30 11324 C 1093.59 -0.228477 1.94261 0
M  V30 11325 C 1093.97 -1.62848 1.34328 0
M  V30 11326 O 1093.32 -2.22549 0.518082 0
M  V30 11327 C 1093.53 -0.237401 3.48192 0
M  V30 11328 C 1094.88 -0.457997 4.22123 0
M  V30 11329 O 1095.9 -0.316868 3.54788 0
M  V30 11330 O 1094.76 -0.735946 5.41522 0
M  V30 11331 H 1091.86 -0.146492 0.813922 0
M  V30 11332 H 1094.4 0.462325 1.63281 0
M  V30 11333 H 1093.17 0.742556 3.8419 0
M  V30 11334 H 1092.8 -0.972408 3.85526 0
M  V30 11335 N 1093.79 -1.57004 0.136909 0
M  V30 11336 C 1094.76 -2.15066 -0.792419 0
M  V30 11337 C 1095.76 -1.08991 -1.18226 0
M  V30 11338 O 1096.95 -1.34681 -1.10484 0
M  V30 11339 C 1094.08 -2.70554 -2.07397 0
M  V30 11340 H 1095.27 -2.98519 -0.28752 0
M  V30 11341 H 1092.83 -1.55895 -0.112469 0
M  V30 11342 H 1093.56 -1.90739 -2.62277 0
M  V30 11343 H 1093.35 -3.48149 -1.80374 0
M  V30 11344 H 1094.84 -3.15322 -2.73792 0
M  V30 11345 N 1095.27 0.136881 -1.57004 0
M  V30 11346 C 1096.52 0.846257 -1.83088 0
M  V30 11347 C 1096.83 1.81876 -0.719765 0
M  V30 11348 O 1098.04 2.57302 -0.866494 0
M  V30 11349 C 1096.5 1.55559 -3.24545 0
M  V30 11350 C 1096.1 0.624989 -4.43619 0
M  V30 11351 C 1097.85 2.25115 -3.59893 0
M  V30 11352 C 1095.76 1.33653 -5.761 0
M  V30 11353 H 1094.69 0.319768 -0.682836 0
M  V30 11354 H 1097.34 0.0989741 -1.83233 0
M  V30 11355 H 1095.72 2.34887 -3.18817 0
M  V30 11356 H 1096.89 -0.133783 -4.60606 0
M  V30 11357 H 1095.21 0.0373216 -4.16383 0
M  V30 11358 H 1097.8 2.79008 -4.56134 0
M  V30 11359 H 1098.15 3.02084 -2.86446 0
M  V30 11360 H 1098.68 1.52696 -3.67327 0
M  V30 11361 H 1095.42 0.608495 -6.5267 0
M  V30 11362 H 1094.94 2.06776 -5.63031 0
M  V30 11363 H 1096.62 1.87467 -6.19246 0
M  V30 11364 N 1096.75 1.52266 0.40654 0
M  V30 11365 C 1097.68 1.78755 1.50229 0
M  V30 11366 C 1098.66 0.638652 1.57655 0
M  V30 11367 O 1099.85 0.884505 1.72888 0
M  V30 11368 C 1096.98 1.94057 2.88026 0
M  V30 11369 C 1095.93 3.09667 2.95449 0
M  V30 11370 C 1095.26 3.10196 4.35526 0
M  V30 11371 C 1096.56 4.49077 2.66697 0
M  V30 11372 H 1098.25 2.70511 1.28313 0
M  V30 11373 H 1095.8 1.30167 0.615836 0
M  V30 11374 H 1097.75 2.11171 3.64671 0
M  V30 11375 H 1096.47 0.989755 3.11242 0
M  V30 11376 H 1095.13 2.92308 2.2125 0
M  V30 11377 H 1094.78 2.12831 4.55754 0
M  V30 11378 H 1094.48 3.87847 4.41416 0
M  V30 11379 H 1096 3.29443 5.14101 0
M  V30 11380 H 1097.42 4.66628 3.33064 0
M  V30 11381 H 1095.82 5.28665 2.8396 0
M  V30 11382 H 1096.89 4.56995 1.62122 0
M  V30 11383 N 1098.23 -0.663929 1.42933 0
M  V30 11384 C 1099.64 -0.978346 1.26097 0
M  V30 11385 C 1099.84 -2.00756 0.172968 0
M  V30 11386 O 1098.9 -2.48418 -0.452184 0
M  V30 11387 C 1100.21 -1.4728 2.62162 0
M  V30 11388 C 1101.76 -1.59001 2.69606 0
M  V30 11389 C 1102.24 -2.1184 4.06064 0
M  V30 11390 N 1103.73 -2.19158 4.08074 0
M  V30 11391 C 1104.46 -2.61141 5.10483 0
M  V30 11392 N 1103.96 -3.02498 6.23271 0
M  V30 11393 N 1105.75 -2.60986 4.97838 0
M  V30 11394 H 1097.9 0.0173096 2.12393 0
M  V30 11395 H 1100.17 -0.0548116 0.946414 0
M  V30 11396 H 1099.87 -0.791008 3.42689 0
M  V30 11397 H 1099.75 -2.4497 2.86827 0
M  V30 11398 H 1102.13 -2.26284 1.89418 0
M  V30 11399 H 1102.21 -0.597728 2.48718 0
M  V30 11400 H 1101.86 -1.45162 4.86714 0
M  V30 11401 H 1101.79 -3.1188 4.2431 0
M  V30 11402 H 1104.28 -1.90013 3.26655 0
M  V30 11403 H 1104.59 -3.33251 6.97254 0
M  V30 11404 H 1102.94 -3.00328 6.2676 0
M  V30 11405 H 1106.13 -2.28046 4.08794 0
M  V30 11406 H 1106.3 -2.93384 5.7778 0
M  V30 11407 N 1099.71 -1.29285 -0.901281 0
M  V30 11408 C 1100.62 -1.16161 -2.03823 0
M  V30 11409 C 1101.63 -0.0852298 -1.73791 0
M  V30 11410 O 1102.81 -0.29699 -1.99198 0
M  V30 11411 C 1099.87 -0.837586 -3.3643 0
M  V30 11412 C 1098.93 -1.99764 -3.7999 0
M  V30 11413 C 1098.17 -1.68898 -5.0627 0
M  V30 11414 O 1098.39 -0.609177 -5.67138 0
M  V30 11415 O 1097.32 -2.53648 -5.45845 0
M  V30 11416 H 1101.15 -2.11635 -2.17817 0
M  V30 11417 H 1098.74 -1.08722 -1.02468 0
M  V30 11418 H 1100.62 -0.671376 -4.16017 0
M  V30 11419 H 1099.29 0.0873811 -3.23582 0
M  V30 11420 H 1098.2 -2.21908 -3.01177 0
M  V30 11421 H 1099.53 -2.90376 -3.9742 0
M  V30 11422 N 1101.18 1.11143 -1.11736 0
M  V30 11423 C 1102.46 1.79384 -0.779785 0
M  V30 11424 C 1102.84 1.98015 0.731668 0
M  V30 11425 O 1102.19 1.56731 1.66276 0
M  V30 11426 C 1102.4 3.12868 -1.54643 0
M  V30 11427 C 1103.75 3.8786 -1.7277 0
M  V30 11428 O 1104.77 3.22566 -1.51094 0
M  V30 11429 O 1103.63 5.05034 -2.08813 0
M  V30 11430 H 1100.72 0.777128 -0.282845 0
M  V30 11431 H 1103.27 1.17858 -1.22096 0
M  V30 11432 H 1102.04 2.94682 -2.57446 0
M  V30 11433 H 1101.67 3.82109 -1.09901 0
M  V30 11434 N 1102.66 0.908147 1.28804 0
M  V30 11435 C 1103.6 0.336764 2.25701 0
M  V30 11436 C 1104.57 -0.555849 1.52804 0
M  V30 11437 O 1105.76 -0.500763 1.81727 0
M  V30 11438 C 1102.88 -0.519154 3.34698 0
M  V30 11439 C 1101.93 0.307304 4.25391 0
M  V30 11440 S 1102.76 1.71048 5.07447 0
M  V30 11441 C 1103.92 0.861715 6.1994 0
M  V30 11442 H 1104.15 1.15806 2.73818 0
M  V30 11443 H 1101.69 0.709033 1.37157 0
M  V30 11444 H 1103.64 -1.00718 3.97952 0
M  V30 11445 H 1102.3 -1.31477 2.85259 0
M  V30 11446 H 1101.5 -0.346906 5.02805 0
M  V30 11447 H 1101.1 0.728777 3.66831 0
M  V30 11448 H 1103.39 0.088851 6.77442 0
M  V30 11449 H 1104.33 1.60821 6.89596 0
M  V30 11450 H 1104.74 0.412366 5.62992 0
M  V30 11451 N 1104.14 -1.42577 0.671525 0
M  V30 11452 C 1105.05 -2.34598 -0.00898225 0
M  V30 11453 C 1106.07 -1.54909 -0.792407 0
M  V30 11454 O 1107.24 -1.87491 -0.735477 0
M  V30 11455 C 1104.31 -3.33405 -0.950888 0
M  V30 11456 C 1103.37 -4.28993 -0.16236 0
M  V30 11457 C 1102.6 -5.2308 -1.0594 0
M  V30 11458 O 1102.82 -5.22022 -2.2989 0
M  V30 11459 O 1101.76 -5.99632 -0.521966 0
M  V30 11460 H 1105.58 -2.94321 0.748927 0
M  V30 11461 H 1103.17 -1.43025 0.43175 0
M  V30 11462 H 1105.05 -3.94115 -1.49169 0
M  V30 11463 H 1103.73 -2.7616 -1.68871 0
M  V30 11464 H 1102.63 -3.71707 0.42247 0
M  V30 11465 H 1103.97 -4.8927 0.536274 0
M  V30 11466 N 1105.62 -0.414636 -1.52048 0
M  V30 11467 C 1106.55 0.443601 -2.24866 0
M  V30 11468 C 1107.56 1.00556 -1.28032 0
M  V30 11469 O 1108.75 0.903566 -1.53941 0
M  V30 11470 C 1105.85 1.63004 -2.97124 0
M  V30 11471 C 1105.03 1.191 -4.20873 0
M  V30 11472 C 1104.08 2.24497 -4.75907 0
M  V30 11473 O 1103.11 1.84861 -5.38345 0
M  V30 11474 N 1104.31 3.56727 -4.57959 0
M  V30 11475 H 1107.08 -0.180393 -2.99157 0
M  V30 11476 H 1104.64 -0.242305 -1.60077 0
M  V30 11477 H 1106.63 2.33089 -3.30835 0
M  V30 11478 H 1105.2 2.15984 -2.25986 0
M  V30 11479 H 1104.42 0.318059 -3.92915 0
M  V30 11480 H 1105.71 0.874699 -5.01225 0
M  V30 11481 H 1105.11 3.91675 -4.08175 0
M  V30 11482 H 1103.66 4.22772 -4.96092 0
M  V30 11483 N 1107.1 1.56929 -0.145233 0
M  V30 11484 C 1108.35 1.95243 0.506273 0
M  V30 11485 C 1108.66 1.0325 1.66129 0
M  V30 11486 O 1109.86 1.31135 2.37731 0
M  V30 11487 C 1108.32 3.47079 0.952042 0
M  V30 11488 C 1107.93 4.47654 -0.175947 0
M  V30 11489 C 1109.67 3.94263 1.57344 0
M  V30 11490 C 1107.58 5.90698 0.287993 0
M  V30 11491 H 1106.51 0.728906 0.192903 0
M  V30 11492 H 1109.16 1.82062 -0.229295 0
M  V30 11493 H 1107.54 3.55587 1.74282 0
M  V30 11494 H 1108.72 4.50841 -0.952848 0
M  V30 11495 H 1107.03 4.10377 -0.70564 0
M  V30 11496 H 1109.63 4.9857 1.93214 0
M  V30 11497 H 1109.97 3.35714 2.46174 0
M  V30 11498 H 1110.5 3.88665 0.847593 0
M  V30 11499 H 1107.24 6.53061 -0.564889 0
M  V30 11500 H 1106.76 5.90876 1.03081 0
M  V30 11501 H 1108.44 6.42747 0.740586 0
M  V30 11502 N 1108.58 -0.128553 1.57075 0
M  V30 11503 C 1109.8 -0.85245 1.88523 0
M  V30 11504 C 1110.22 -1.73886 0.735459 0
M  V30 11505 O 1109.58 -1.80114 -0.294113 0
M  V30 11506 C 1109.63 -1.69384 3.19361 0
M  V30 11507 O 1109.35 -0.84313 4.2991 0
M  V30 11508 C 1110.85 -2.52373 3.64449 0
M  V30 11509 H 1108.07 -0.245556 0.624454 0
M  V30 11510 H 1110.61 -0.115807 2.04172 0
M  V30 11511 H 1108.77 -2.38335 3.0541 0
M  V30 11512 H 1109.18 -1.42255 5.0484 0
M  V30 11513 H 1110.66 -3.06955 4.58784 0
M  V30 11514 H 1111.13 -3.29283 2.90636 0
M  V30 11515 H 1111.74 -1.88681 3.81155 0
M  V30 11516 N 1110.05 -1.5248 -0.398459 0
M  V30 11517 C 1110.96 -1.79492 -1.51062 0
M  V30 11518 C 1111.98 -0.681101 -1.60116 0
M  V30 11519 O 1113.16 -0.967671 -1.7663 0
M  V30 11520 C 1110.22 -1.94958 -2.86692 0
M  V30 11521 C 1109.28 -3.1887 -2.87438 0
M  V30 11522 C 1108.51 -3.33588 -4.16599 0
M  V30 11523 O 1108.74 -2.53327 -5.11059 0
M  V30 11524 O 1107.67 -4.26795 -4.24416 0
M  V30 11525 H 1111.5 -2.73913 -1.31169 0
M  V30 11526 H 1109.08 -1.37455 -0.585372 0
M  V30 11527 H 1110.96 -2.06891 -3.67116 0
M  V30 11528 H 1109.64 -1.03726 -3.06631 0
M  V30 11529 H 1108.55 -3.12386 -2.0583 0
M  V30 11530 H 1109.88 -4.09917 -2.7245 0
M  V30 11531 N 1111.53 0.65634 -1.43283 0
M  V30 11532 C 1112.76 1.44906 -1.48382 0
M  V30 11533 C 1113.18 1.87823 -0.101993 0
M  V30 11534 O 1112.54 1.57178 0.903597 0
M  V30 11535 C 1112.59 2.66231 -2.43215 0
M  V30 11536 O 1111.69 3.65176 -1.91625 0
M  V30 11537 H 1111.03 0.434601 -0.502014 0
M  V30 11538 H 1113.56 0.803429 -1.88165 0
M  V30 11539 H 1113.57 3.14083 -2.60414 0
M  V30 11540 H 1112.25 2.34336 -3.43598 0
M  V30 11541 H 1110.82 3.24302 -1.84072 0
M  V30 11542 N 1113.01 1.29761 0.894412 0
M  V30 11543 C 1114.23 1.21064 1.68399 0
M  V30 11544 C 1114.66 -0.224608 1.86754 0
M  V30 11545 O 1114.02 -1.16199 1.39167 0
M  V30 11546 C 1114.07 1.93468 3.04306 0
M  V30 11547 O 1113.17 1.25533 3.9283 0
M  V30 11548 H 1112.51 0.419223 0.514925 0
M  V30 11549 H 1115.04 1.71421 1.11696 0
M  V30 11550 H 1115.05 2.02127 3.54413 0
M  V30 11551 H 1113.73 2.97857 2.90265 0
M  V30 11552 H 1112.3 1.25168 3.51266 0
M  V30 11553 N 1114.49 -1.10549 1.12324 0
M  V30 11554 C 1115.44 -2.18944 0.785248 0
M  V30 11555 C 1116.43 -1.67867 -0.227389 0
M  V30 11556 O 1117.64 -1.79796 -0.0857162 0
M  V30 11557 H 1114.01 -0.713976 0.236098 0
M  V30 11558 H 1115.98 -2.44692 1.70788 0
M  V30 11559 C 1114.73 -3.46765 0.25485 0
M  V30 11560 H 1114.05 -3.86428 1.02534 0
M  V30 11561 H 1115.49 -4.23962 0.0566526 0
M  V30 11562 C 1113.95 -3.21185 -1.01695 0
M  V30 11563 O 1114.48 -3.42745 -2.09497 0
M  V30 11564 N 1112.69 -2.7486 -0.943423 0
M  V30 11565 H 1112.24 -2.57515 -0.0660366 0
M  V30 11566 H 1112.19 -2.58122 -1.795 0
M  V30 11567 N 1115.97 -0.914965 -1.28321 0
M  V30 11568 C 1117.2 -0.563835 -1.98757 0
M  V30 11569 C 1117.6 0.859528 -1.68549 0
M  V30 11570 O 1116.95 1.58105 -0.935336 0
M  V30 11571 C 1117.01 -0.694539 -3.52727 0
M  V30 11572 C 1116.67 -2.08767 -4.06528 0
M  V30 11573 C 1117.67 -3.06052 -4.20272 0
M  V30 11574 C 1115.35 -2.40118 -4.4119 0
M  V30 11575 C 1117.35 -4.32803 -4.67932 0
M  V30 11576 C 1115.04 -3.67108 -4.88544 0
M  V30 11577 C 1116.03 -4.63265 -5.01871 0
M  V30 11578 O 1115.72 -5.87997 -5.48192 0
M  V30 11579 H 1115.45 -0.213557 -0.641381 0
M  V30 11580 H 1118.01 -1.23062 -1.64453 0
M  V30 11581 H 1116.24 0.0293186 -3.86689 0
M  V30 11582 H 1117.93 -0.350335 -4.04385 0
M  V30 11583 H 1118.69 -2.8315 -3.93765 0
M  V30 11584 H 1114.57 -1.66025 -4.30066 0
M  V30 11585 H 1118.12 -5.07861 -4.78249 0
M  V30 11586 H 1114.01 -3.89834 -5.14489 0
M  V30 11587 H 1114.78 -5.90804 -5.66474 0
M  V30 11588 N 1117.44 1.42219 -0.679077 0
M  V30 11589 C 1118.35 2.346 -0.00345919 0
M  V30 11590 C 1119.37 1.55327 0.784181 0
M  V30 11591 O 1120.55 1.87878 0.725524 0
M  V30 11592 C 1117.61 3.33905 0.933194 0
M  V30 11593 C 1116.67 4.29073 0.139607 0
M  V30 11594 C 1115.9 5.23634 1.03165 0
M  V30 11595 O 1116.13 5.23234 2.27119 0
M  V30 11596 O 1115.06 5.99901 0.490159 0
M  V30 11597 H 1118.89 2.9392 -0.764525 0
M  V30 11598 H 1116.47 1.42794 -0.439329 0
M  V30 11599 H 1118.35 3.949 1.47077 0
M  V30 11600 H 1117.03 2.77052 1.67404 0
M  V30 11601 H 1115.94 3.71478 -0.442177 0
M  V30 11602 H 1117.27 4.88979 -0.562214 0
M  V30 11603 N 1118.92 0.422693 1.51826 0
M  V30 11604 C 1120.17 -0.141187 2.02909 0
M  V30 11605 C 1120.52 -1.41649 1.30205 0
M  V30 11606 O 1119.82 -1.87297 0.403769 0
M  V30 11607 C 1120.01 -0.429516 3.5481 0
M  V30 11608 C 1119.84 0.816291 4.42229 0
M  V30 11609 C 1118.61 1.34551 4.87057 0
M  V30 11610 C 1120.81 1.69829 4.85451 0
M  V30 11611 N 1118.79 2.54538 5.58644 0
M  V30 11612 C 1120.16 2.74431 5.55956 0
M  V30 11613 C 1122.21 1.71445 4.67452 0
M  V30 11614 C 1120.92 3.80576 6.10372 0
M  V30 11615 C 1122.94 2.76516 5.22774 0
M  V30 11616 C 1122.31 3.79839 5.93213 0
M  V30 11617 H 1118.4 -0.0128783 0.781894 0
M  V30 11618 H 1120.99 0.580083 1.85858 0
M  V30 11619 H 1119.16 -1.11982 3.71907 0
M  V30 11620 H 1120.89 -0.983467 3.92568 0
M  V30 11621 H 1117.65 0.901554 4.6494 0
M  V30 11622 H 1118.07 3.15342 5.99073 0
M  V30 11623 H 1122.71 0.92899 4.12468 0
M  V30 11624 H 1120.43 4.59969 6.6442 0
M  V30 11625 H 1124.02 2.7869 5.10708 0
M  V30 11626 H 1122.9 4.59806 6.35254 0
M  V30 11627 N 1120.4 -1.5685 0.153553 0
M  V30 11628 C 1121.65 -1.96334 -0.495915 0
M  V30 11629 C 1121.97 -1.03873 -1.64441 0
M  V30 11630 O 1121.23 -0.069231 -1.95578 0
M  V30 11631 C 1121.53 -3.42022 -1.0371 0
M  V30 11632 C 1121.19 -4.509 -0.00637049 0
M  V30 11633 C 1119.86 -4.80402 0.276956 0
M  V30 11634 C 1122.21 -5.16556 0.694187 0
M  V30 11635 C 1119.54 -5.72866 1.26653 0
M  V30 11636 C 1121.89 -6.10087 1.67263 0
M  V30 11637 C 1120.55 -6.37965 1.96359 0
M  V30 11638 H 1119.82 -0.718436 -0.181468 0
M  V30 11639 H 1122.47 -1.89968 0.241768 0
M  V30 11640 H 1120.77 -3.45252 -1.85225 0
M  V30 11641 H 1122.47 -3.69903 -1.54831 0
M  V30 11642 H 1119.06 -4.27942 -0.237378 0
M  V30 11643 H 1123.25 -4.9389 0.488496 0
M  V30 11644 H 1118.5 -5.92756 1.49833 0
M  V30 11645 H 1122.68 -6.60036 2.22094 0
M  V30 11646 H 1120.3 -7.09416 2.73189 0
M  V30 11647 N 1121.88 0.120221 -1.57141 0
M  V30 11648 C 1123.15 0.858458 -1.75755 0
M  V30 11649 C 1123.53 1.98124 -0.728693 0
M  V30 11650 O 1122.88 2.27155 0.247573 0
M  V30 11651 C 1123.09 1.37627 -3.20718 0
M  V30 11652 C 1124.44 1.82909 -3.83183 0
M  V30 11653 O 1125.46 1.47309 -3.24312 0
M  V30 11654 O 1124.32 2.4865 -4.86657 0
M  V30 11655 H 1121.42 0.407583 -0.719587 0
M  V30 11656 H 1123.96 0.104057 -1.69381 0
M  V30 11657 H 1122.74 0.570651 -3.87117 0
M  V30 11658 H 1122.36 2.19341 -3.31625 0
M  V30 11659 N 1123.36 1.52689 0.390367 0
M  V30 11660 C 1124.58 1.71839 1.16129 0
M  V30 11661 C 1125.01 0.435226 1.82996 0
M  V30 11662 O 1124.36 -0.60889 1.70769 0
M  V30 11663 C 1124.41 2.86784 2.18603 0
M  V30 11664 O 1123.52 2.53662 3.25161 0
M  V30 11665 H 1122.86 0.571455 0.338135 0
M  V30 11666 H 1125.39 1.99475 0.45508 0
M  V30 11667 H 1125.4 3.12239 2.62622 0
M  V30 11668 H 1124.07 3.79872 1.69322 0
M  V30 11669 H 1122.65 2.38942 2.86289 0
M  V30 11670 N 1124.83 -0.648732 1.43629 0
M  V30 11671 C 1125.74 -1.79046 1.51591 0
M  V30 11672 C 1126.76 -1.69276 0.402697 0
M  V30 11673 O 1127.94 -1.90366 0.657484 0
M  V30 11674 C 1125 -3.15347 1.44073 0
M  V30 11675 C 1124.06 -3.3688 2.66102 0
M  V30 11676 C 1123.3 -4.66679 2.58933 0
M  V30 11677 O 1123.52 -5.46328 1.63956 0
M  V30 11678 O 1122.45 -4.9003 3.49506 0
M  V30 11679 H 1126.28 -1.75283 2.48011 0
M  V30 11680 H 1123.86 -0.807774 1.2568 0
M  V30 11681 H 1125.75 -3.96633 1.42339 0
M  V30 11682 H 1124.42 -3.19691 0.50789 0
M  V30 11683 H 1123.33 -2.55341 2.73407 0
M  V30 11684 H 1124.66 -3.37386 3.58373 0
M  V30 11685 N 1126.31 -1.30234 -0.887518 0
M  V30 11686 C 1127.56 -1.19086 -1.64153 0
M  V30 11687 C 1127.89 0.254428 -1.92526 0
M  V30 11688 O 1127.17 1.18233 -1.54438 0
M  V30 11689 C 1127.45 -2.01723 -2.98295 0
M  V30 11690 C 1127.3 -3.54458 -2.76911 0
M  V30 11691 C 1128.62 -1.85307 -3.99186 0
M  V30 11692 H 1125.74 -0.433967 -0.595686 0
M  V30 11693 H 1128.38 -1.59839 -1.0272 0
M  V30 11694 H 1126.53 -1.67096 -3.5073 0
M  V30 11695 H 1128.2 -3.99131 -2.31284 0
M  V30 11696 H 1126.45 -3.78768 -2.11464 0
M  V30 11697 H 1127.12 -4.07565 -3.72283 0
M  V30 11698 H 1129.59 -2.15575 -3.55903 0
M  V30 11699 H 1128.47 -2.45456 -4.90961 0
M  V30 11700 H 1128.73 -0.811528 -4.34588 0
M  V30 11701 N 1127.79 1.09952 -1.12909 0
M  V30 11702 C 1129.02 1.8633 -0.910821 0
M  V30 11703 C 1129.44 1.80335 0.534874 0
M  V30 11704 O 1128.8 1.1769 1.37908 0
M  V30 11705 C 1128.85 3.32462 -1.39648 0
M  V30 11706 O 1127.95 4.08327 -0.578192 0
M  V30 11707 H 1127.29 0.577984 -0.32685 0
M  V30 11708 H 1129.82 1.38883 -1.50242 0
M  V30 11709 H 1129.83 3.83311 -1.39774 0
M  V30 11710 H 1128.51 3.36141 -2.44913 0
M  V30 11711 H 1127.08 3.67291 -0.644347 0
M  V30 11712 N 1129.27 0.921757 1.27833 0
M  V30 11713 C 1130.2 0.360683 2.25332 0
M  V30 11714 C 1131.18 -0.53961 1.53385 0
M  V30 11715 O 1132.36 -0.48146 1.82248 0
M  V30 11716 C 1129.49 -0.483626 3.35229 0
M  V30 11717 C 1128.54 0.352405 4.25042 0
M  V30 11718 S 1129.37 1.76421 5.05605 0
M  V30 11719 C 1130.53 0.92742 6.18991 0
M  V30 11720 H 1130.76 1.18703 2.72574 0
M  V30 11721 H 1128.29 0.72354 1.36397 0
M  V30 11722 H 1130.25 -0.964914 3.98998 0
M  V30 11723 H 1128.91 -1.28444 2.86637 0
M  V30 11724 H 1128.1 -0.293558 5.03144 0
M  V30 11725 H 1127.71 0.767643 3.66037 0
M  V30 11726 H 1130 0.160698 6.77309 0
M  V30 11727 H 1130.94 1.68126 6.87851 0
M  V30 11728 H 1131.35 0.472056 5.62523 0
M  V30 11729 N 1130.75 -1.41857 0.686609 0
M  V30 11730 C 1131.99 -2.01666 0.214118 0
M  V30 11731 C 1132.33 -1.5422 -1.18025 0
M  V30 11732 O 1131.6 -0.749482 -1.7948 0
M  V30 11733 C 1131.88 -3.59147 0.261841 0
M  V30 11734 C 1131.74 -4.16742 1.69251 0
M  V30 11735 C 1133.06 -4.38427 -0.383378 0
M  V30 11736 H 1130.17 -0.732724 0.0792785 0
M  V30 11737 H 1132.82 -1.68724 0.873633 0
M  V30 11738 H 1130.97 -3.87342 -0.29971 0
M  V30 11739 H 1132.64 -3.99456 2.30722 0
M  V30 11740 H 1130.88 -3.72124 2.2295 0
M  V30 11741 H 1131.55 -5.25894 1.6775 0
M  V30 11742 H 1134.03 -4.15992 0.0947701 0
M  V30 11743 H 1132.9 -5.4797 -0.319401 0
M  V30 11744 H 1133.17 -4.172 -1.46276 0
M  V30 11745 N 1132.22 -0.430739 -1.51599 0
M  V30 11746 C 1133.17 0.384024 -2.27583 0
M  V30 11747 C 1134.14 1.02254 -1.30895 0
M  V30 11748 O 1135.33 1.0427 -1.59789 0
M  V30 11749 C 1132.47 1.48291 -3.11615 0
M  V30 11750 C 1131.58 0.863187 -4.23288 0
M  V30 11751 C 1130.71 1.93657 -4.94642 0
M  V30 11752 C 1129.75 1.29493 -5.98246 0
M  V30 11753 N 1128.89 2.30939 -6.63032 0
M  V30 11754 H 1133.73 -0.270314 -2.96771 0
M  V30 11755 H 1131.27 -0.145148 -1.46382 0
M  V30 11756 H 1133.23 2.13124 -3.58656 0
M  V30 11757 H 1131.86 2.10697 -2.44554 0
M  V30 11758 H 1130.91 0.103326 -3.8026 0
M  V30 11759 H 1132.22 0.354676 -4.97537 0
M  V30 11760 H 1131.37 2.66167 -5.45197 0
M  V30 11761 H 1130.11 2.4788 -4.20008 0
M  V30 11762 H 1129.12 0.555262 -5.46989 0
M  V30 11763 H 1130.34 0.760122 -6.74833 0
M  V30 11764 H 1128.29 2.84254 -5.91216 0
M  V30 11765 H 1128.21 1.84961 -7.33025 0
M  V30 11766 H 1129.47 3.02953 -7.1822 0
M  V30 11767 N 1133.7 1.56767 -0.161869 0
M  V30 11768 C 1135.11 1.83265 0.356466 0
M  V30 11769 C 1135.46 1.08127 1.63716 0
M  V30 11770 O 1134.59 0.33127 2.13849 0
M  V30 11771 C 1135.18 3.32437 0.653521 0
M  V30 11772 C 1133.74 3.59465 1.11633 0
M  V30 11773 C 1132.89 2.76909 0.147204 0
M  V30 11774 H 1135.84 1.53926 -0.386308 0
M  V30 11775 H 1135.86 3.49401 1.50662 0
M  V30 11776 H 1135.37 3.87098 -0.278766 0
M  V30 11777 H 1133.48 3.10206 2.06404 0
M  V30 11778 H 1133.59 4.67853 1.03202 0
M  V30 11779 H 1131.95 2.46457 0.642739 0
M  V30 11780 H 1132.74 3.34346 -0.778938 0
M  V30 11781 N 1135.18 -0.111886 1.57202 0
M  V30 11782 C 1136.46 -0.849125 1.76208 0
M  V30 11783 C 1136.84 -1.97735 0.73919 0
M  V30 11784 O 1136.19 -2.27283 -0.235523 0
M  V30 11785 C 1136.4 -1.35924 3.21443 0
M  V30 11786 C 1137.74 -1.80874 3.84148 0
M  V30 11787 O 1138.77 -1.45587 3.25089 0
M  V30 11788 O 1137.63 -2.46065 4.87969 0
M  V30 11789 H 1134.72 -0.403761 0.721738 0
M  V30 11790 H 1137.27 -0.0950726 1.69433 0
M  V30 11791 H 1136.04 -0.550113 3.87414 0
M  V30 11792 H 1135.66 -2.17579 3.32784 0
M  V30 11793 N 1136.66 -1.52894 -0.382264 0
M  V30 11794 C 1137.59 -1.7291 -1.48921 0
M  V30 11795 C 1138.57 -0.577056 -1.52016 0
M  V30 11796 O 1139.75 -0.807667 -1.7032 0
M  V30 11797 C 1136.88 -1.79281 -2.87361 0
M  V30 11798 C 1135.93 -3.01099 -3.02063 0
M  V30 11799 S 1136.76 -4.60947 -2.72558 0
M  V30 11800 C 1137.92 -4.70144 -4.13178 0
M  V30 11801 H 1138.15 -2.66529 -1.31718 0
M  V30 11802 H 1135.68 -1.43271 -0.575563 0
M  V30 11803 H 1137.64 -1.83637 -3.67134 0
M  V30 11804 H 1136.3 -0.867428 -3.01885 0
M  V30 11805 H 1135.49 -3.02117 -4.03412 0
M  V30 11806 H 1135.1 -2.94769 -2.3019 0
M  V30 11807 H 1137.39 -4.49173 -5.07198 0
M  V30 11808 H 1138.33 -5.72166 -4.17172 0
M  V30 11809 H 1138.74 -3.98923 -3.99401 0
M  V30 11810 N 1138.14 0.641106 -1.43971 0
M  V30 11811 C 1139.07 1.76645 -1.46046 0
M  V30 11812 C 1140.08 1.58881 -0.355049 0
M  V30 11813 O 1141.27 1.67379 -0.620207 0
M  V30 11814 C 1138.37 3.14237 -1.26918 0
M  V30 11815 C 1137.54 3.5855 -2.50521 0
M  V30 11816 C 1136.6 4.74986 -2.26438 0
M  V30 11817 O 1135.63 4.83807 -2.99866 0
M  V30 11818 N 1136.83 5.66016 -1.28866 0
M  V30 11819 H 1139.6 1.75339 -2.43056 0
M  V30 11820 H 1137.16 0.82535 -1.39282 0
M  V30 11821 H 1139.15 3.89837 -1.0867 0
M  V30 11822 H 1137.72 3.10244 -0.383082 0
M  V30 11823 H 1136.94 2.73265 -2.84112 0
M  V30 11824 H 1138.23 3.84906 -3.32754 0
M  V30 11825 H 1137.63 5.61574 -0.682018 0
M  V30 11826 H 1136.18 6.41286 -1.16599 0
M  V30 11827 N 1139.62 1.30703 0.880598 0
M  V30 11828 C 1140.84 1.22714 1.6658 0
M  V30 11829 C 1141.26 -0.209303 1.87636 0
M  V30 11830 O 1140.62 -1.13771 1.42697 0
M  V30 11831 C 1140.67 1.95659 3.03974 0
M  V30 11832 O 1140.39 3.33695 2.83865 0
M  V30 11833 C 1141.89 1.9438 3.98411 0
M  V30 11834 H 1139.11 0.424478 0.519673 0
M  V30 11835 H 1141.65 1.72402 1.0999 0
M  V30 11836 H 1139.81 1.49758 3.57283 0
M  V30 11837 H 1140.22 3.70697 3.71058 0
M  V30 11838 H 1141.7 2.4995 4.92168 0
M  V30 11839 H 1142.17 0.923767 4.29375 0
M  V30 11840 H 1142.78 2.40112 3.51036 0
M  V30 11841 N 1141.09 -1.09351 1.1349 0
M  V30 11842 C 1142.02 -2.18037 0.835588 0
M  V30 11843 C 1143 -1.68856 -0.205373 0
M  V30 11844 O 1144.19 -1.94094 -0.0641357 0
M  V30 11845 C 1141.32 -3.45987 0.301661 0
M  V30 11846 C 1140.27 -4.08507 1.27696 0
M  V30 11847 C 1139.6 -5.31292 0.602758 0
M  V30 11848 C 1140.9 -4.50916 2.63575 0
M  V30 11849 H 1142.59 -2.43332 1.74441 0
M  V30 11850 H 1140.14 -1.1695 0.840166 0
M  V30 11851 H 1142.09 -4.21324 0.079928 0
M  V30 11852 H 1140.82 -3.20217 -0.642552 0
M  V30 11853 H 1139.48 -3.3519 1.4847 0
M  V30 11854 H 1139.12 -5.01802 -0.346953 0
M  V30 11855 H 1138.82 -5.74075 1.25345 0
M  V30 11856 H 1140.35 -6.09351 0.390325 0
M  V30 11857 H 1141.76 -5.17474 2.46765 0
M  V30 11858 H 1140.16 -5.04586 3.24827 0
M  V30 11859 H 1141.23 -3.63279 3.2118 0
M  V30 11860 N 1142.57 -0.928524 -1.27343 0
M  V30 11861 C 1143.82 -0.579726 -1.94963 0
M  V30 11862 C 1144.17 0.869595 -1.71627 0
M  V30 11863 O 1143.47 1.61223 -1.03526 0
M  V30 11864 C 1143.66 -0.84269 -3.47323 0
M  V30 11865 C 1143.49 -2.31602 -3.85474 0
M  V30 11866 C 1142.26 -2.96888 -4.08884 0
M  V30 11867 C 1144.46 -3.2936 -3.95002 0
M  V30 11868 N 1142.44 -4.34365 -4.33821 0
M  V30 11869 C 1143.81 -4.5205 -4.24324 0
M  V30 11870 C 1145.86 -3.24557 -3.7758 0
M  V30 11871 C 1144.57 -5.70539 -4.38038 0
M  V30 11872 C 1146.59 -4.4236 -3.9252 0
M  V30 11873 C 1145.96 -5.63828 -4.22229 0
M  V30 11874 H 1142.05 -0.262279 -0.736705 0
M  V30 11875 H 1144.64 -1.19531 -1.53689 0
M  V30 11876 H 1142.81 -0.256254 -3.87554 0
M  V30 11877 H 1144.54 -0.456438 -4.02118 0
M  V30 11878 H 1141.3 -2.47555 -4.03749 0
M  V30 11879 H 1141.72 -5.05488 -4.50345 0
M  V30 11880 H 1146.36 -2.31713 -3.53651 0
M  V30 11881 H 1144.08 -6.63849 -4.60793 0
M  V30 11882 H 1147.67 -4.40162 -3.80458 0
M  V30 11883 H 1146.55 -6.53463 -4.33539 0
M  V30 11884 N 1144.05 1.41491 -0.694123 0
M  V30 11885 C 1145.28 2.05579 -0.233466 0
M  V30 11886 C 1145.69 1.5223 1.11675 0
M  V30 11887 O 1145.05 0.669937 1.69759 0
M  V30 11888 C 1145.1 3.61047 -0.180967 0
M  V30 11889 O 1144.82 4.12421 -1.47785 0
M  V30 11890 C 1146.32 4.42278 0.300853 0
M  V30 11891 H 1143.54 0.662097 -0.108943 0
M  V30 11892 H 1146.09 1.81288 -0.946299 0
M  V30 11893 H 1144.24 3.84381 0.482678 0
M  V30 11894 H 1144.66 5.06454 -1.364 0
M  V30 11895 H 1146.13 5.51256 0.286464 0
M  V30 11896 H 1146.61 4.18276 1.33948 0
M  V30 11897 H 1147.21 4.24004 -0.331741 0
M  V30 11898 N 1145.53 0.438773 1.51369 0
M  V30 11899 C 1146.78 -0.128723 2.01289 0
M  V30 11900 C 1147.09 -1.43659 1.32745 0
M  V30 11901 O 1148.3 -2.08712 1.73642 0
M  V30 11902 C 1146.75 -0.279945 3.5881 0
M  V30 11903 C 1146.36 1.01758 4.3629 0
M  V30 11904 C 1148.1 -0.801133 4.16872 0
M  V30 11905 C 1146.01 0.831918 5.85519 0
M  V30 11906 H 1144.94 -0.0518814 0.752213 0
M  V30 11907 H 1147.59 0.568753 1.74463 0
M  V30 11908 H 1145.97 -1.04046 3.82087 0
M  V30 11909 H 1147.15 1.78653 4.24758 0
M  V30 11910 H 1145.46 1.46741 3.89687 0
M  V30 11911 H 1148.06 -0.956548 5.26074 0
M  V30 11912 H 1148.4 -1.78396 3.76139 0
M  V30 11913 H 1148.94 -0.0988934 3.97677 0
M  V30 11914 H 1145.67 1.78716 6.30667 0
M  V30 11915 H 1145.19 0.102785 5.99712 0
M  V30 11916 H 1146.87 0.485681 6.45174 0
M  V30 11917 N 1147.01 -1.56678 0.170181 0
M  V30 11918 C 1147.94 -2.20916 -0.756213 0
M  V30 11919 C 1148.92 -1.16442 -1.23997 0
M  V30 11920 O 1150.1 -1.44867 -1.29333 0
M  V30 11921 C 1147.23 -2.84901 -1.98617 0
M  V30 11922 C 1146.19 -3.95403 -1.63831 0
M  V30 11923 C 1145.51 -4.46432 -2.94282 0
M  V30 11924 C 1146.81 -5.15051 -0.867195 0
M  V30 11925 H 1148.51 -2.98585 -0.220776 0
M  V30 11926 H 1146.05 -1.43619 -0.104748 0
M  V30 11927 H 1148 -3.28514 -2.63926 0
M  V30 11928 H 1146.73 -2.04598 -2.54572 0
M  V30 11929 H 1145.39 -3.52444 -1.00891 0
M  V30 11930 H 1145.04 -3.62923 -3.48276 0
M  V30 11931 H 1144.74 -5.20979 -2.71762 0
M  V30 11932 H 1146.26 -4.92731 -3.60622 0
M  V30 11933 H 1147.67 -5.55363 -1.42285 0
M  V30 11934 H 1146.07 -5.95507 -0.741065 0
M  V30 11935 H 1147.14 -4.84707 0.136693 0
M  V30 11936 N 1148.48 0.103547 -1.57259 0
M  V30 11937 C 1149.89 0.659006 -1.74683 0
M  V30 11938 C 1150.25 1.79542 -0.791142 0
M  V30 11939 O 1149.37 2.16376 0.0323585 0
M  V30 11940 C 1149.97 1.20222 -3.16752 0
M  V30 11941 C 1148.52 1.70382 -3.35629 0
M  V30 11942 C 1147.67 0.609886 -2.7051 0
M  V30 11943 H 1150.62 -0.122474 -1.58227 0
M  V30 11944 H 1150.64 2.07169 -3.19157 0
M  V30 11945 H 1150.16 0.374901 -3.86285 0
M  V30 11946 H 1148.26 2.55542 -2.71162 0
M  V30 11947 H 1148.37 1.80263 -4.43894 0
M  V30 11948 H 1146.73 1.04728 -2.32173 0
M  V30 11949 H 1147.52 -0.206713 -3.42677 0
M  V30 11950 N 1149.96 1.53094 0.37415 0
M  V30 11951 C 1150.87 1.81872 1.48188 0
M  V30 11952 C 1151.89 0.706487 1.59012 0
M  V30 11953 O 1153.06 0.995648 1.75068 0
M  V30 11954 C 1150.13 1.99494 2.83554 0
M  V30 11955 C 1149.19 3.23402 2.82329 0
M  V30 11956 C 1148.42 3.40174 4.11239 0
M  V30 11957 O 1148.65 2.61425 5.06965 0
M  V30 11958 O 1147.58 4.33493 4.17573 0
M  V30 11959 H 1151.41 2.75965 1.26795 0
M  V30 11960 H 1148.99 1.38368 0.56343 0
M  V30 11961 H 1150.87 2.12705 3.63778 0
M  V30 11962 H 1149.55 1.08591 3.04942 0
M  V30 11963 H 1148.45 3.15621 2.00834 0
M  V30 11964 H 1149.79 4.14199 2.65894 0
M  V30 11965 N 1151.44 -0.633461 1.44309 0
M  V30 11966 C 1152.66 -1.42527 1.50668 0
M  V30 11967 C 1153.09 -1.87637 0.131861 0
M  V30 11968 O 1152.45 -1.58595 -0.878477 0
M  V30 11969 C 1152.5 -2.62328 2.47419 0
M  V30 11970 O 1151.6 -3.62081 1.97411 0
M  V30 11971 H 1150.94 -0.426559 0.508864 0
M  V30 11972 H 1153.47 -0.773392 1.8942 0
M  V30 11973 H 1153.48 -3.09901 2.65378 0
M  V30 11974 H 1152.16 -2.2884 3.47283 0
M  V30 11975 H 1150.73 -3.21333 1.89208 0
M  V30 11976 N 1152.92 -1.31168 -0.873655 0
M  V30 11977 C 1153.83 -1.20458 -2.01313 0
M  V30 11978 C 1154.84 -0.122074 -1.73571 0
M  V30 11979 O 1156.02 -0.339176 -1.98523 0
M  V30 11980 C 1153.09 -0.90876 -3.34578 0
M  V30 11981 C 1152.15 -2.07779 -3.75668 0
M  V30 11982 C 1151.38 -1.79599 -5.02573 0
M  V30 11983 O 1151.6 -0.729338 -5.65718 0
M  V30 11984 O 1150.54 -2.65169 -5.40341 0
M  V30 11985 H 1154.36 -2.16207 -2.13279 0
M  V30 11986 H 1151.95 -1.10871 -1.00139 0
M  V30 11987 H 1153.83 -0.759469 -4.145 0
M  V30 11988 H 1152.5 0.0187249 -3.23695 0
M  V30 11989 H 1151.41 -2.28247 -2.96402 0
M  V30 11990 H 1152.74 -2.9874 -3.91172 0
M  V30 11991 N 1154.4 1.08748 -1.14068 0
M  V30 11992 C 1155.81 1.33125 -0.880341 0
M  V30 11993 C 1156.01 1.9569 0.480396 0
M  V30 11994 O 1155.07 2.2077 1.22543 0
M  V30 11995 C 1156.38 2.23618 -2.01036 0
M  V30 11996 C 1157.93 2.37108 -2.04326 0
M  V30 11997 C 1158.4 3.30941 -3.1661 0
M  V30 11998 N 1159.9 3.38517 -3.16166 0
M  V30 11999 C 1160.63 4.11142 -3.99687 0
M  V30 12000 N 1160.13 4.86505 -4.93239 0
M  V30 12001 N 1161.92 4.06938 -3.87761 0
M  V30 12002 H 1154.07 0.665164 -2.01716 0
M  V30 12003 H 1156.33 0.355612 -0.878774 0
M  V30 12004 H 1156.04 1.84885 -2.99183 0
M  V30 12005 H 1155.91 3.24056 -1.93049 0
M  V30 12006 H 1158.3 2.75101 -1.06787 0
M  V30 12007 H 1158.38 1.36424 -2.16384 0
M  V30 12008 H 1158.03 2.93669 -4.14392 0
M  V30 12009 H 1157.96 4.31545 -3.01789 0
M  V30 12010 H 1160.45 2.84786 -2.48405 0
M  V30 12011 H 1160.76 5.39372 -5.53441 0
M  V30 12012 H 1159.1 4.8557 -4.9724 0
M  V30 12013 H 1162.3 3.47166 -3.13996 0
M  V30 12014 H 1162.47 4.63275 -4.53079 0
M  V30 12015 N 1155.87 0.935264 1.26849 0
M  V30 12016 C 1157.12 0.580548 1.94313 0
M  V30 12017 C 1157.45 -0.877205 1.73259 0
M  V30 12018 O 1156.73 -1.62679 1.06611 0
M  V30 12019 C 1157.01 0.916445 3.48243 0
M  V30 12020 C 1156.86 2.42851 3.78607 0
M  V30 12021 C 1158.18 0.427665 4.38017 0
M  V30 12022 H 1155.3 0.21239 0.705733 0
M  V30 12023 H 1157.94 1.16841 1.49827 0
M  V30 12024 H 1156.09 0.416169 3.86265 0
M  V30 12025 H 1157.77 3.00106 3.50335 0
M  V30 12026 H 1156.01 2.8745 3.24892 0
M  V30 12027 H 1156.68 2.61405 4.8618 0
M  V30 12028 H 1159.16 0.856525 4.07189 0
M  V30 12029 H 1158.03 0.691571 5.44526 0
M  V30 12030 H 1158.29 -0.672344 4.36958 0
M  V30 12031 N 1157.35 -1.41121 0.701616 0
M  V30 12032 C 1158.6 -2.01928 0.244271 0
M  V30 12033 C 1158.95 -1.54597 -1.14532 0
M  V30 12034 O 1158.25 -0.749972 -1.76312 0
M  V30 12035 C 1158.44 -3.5654 0.247781 0
M  V30 12036 C 1158.27 -4.18879 1.63618 0
M  V30 12037 C 1157.04 -4.52913 2.24048 0
M  V30 12038 C 1159.24 -4.44679 2.5839 0
M  V30 12039 N 1157.22 -5.00571 3.55389 0
M  V30 12040 C 1158.59 -4.94178 3.74418 0
M  V30 12041 C 1160.65 -4.26698 2.56579 0
M  V30 12042 C 1159.35 -5.27584 4.88924 0
M  V30 12043 C 1161.37 -4.61198 3.70203 0
M  V30 12044 C 1160.74 -5.10873 4.84962 0
M  V30 12045 H 1156.84 -0.770275 0.134908 0
M  V30 12046 H 1159.42 -1.71571 0.920402 0
M  V30 12047 H 1157.59 -3.86357 -0.39786 0
M  V30 12048 H 1159.32 -4.04074 -0.224961 0
M  V30 12049 H 1156.08 -4.39572 1.76277 0
M  V30 12050 H 1156.5 -5.28799 4.2273 0
M  V30 12051 H 1161.14 -3.87525 1.69069 0
M  V30 12052 H 1158.86 -5.65678 5.77091 0
M  V30 12053 H 1162.45 -4.48939 3.70061 0
M  V30 12054 H 1161.33 -5.37067 5.71426 0
M  V30 12055 N 1158.83 -0.446794 -1.51134 0
M  V30 12056 C 1160.06 0.114893 -2.06581 0
M  V30 12057 C 1160.47 1.35642 -1.31327 0
M  V30 12058 O 1159.83 1.78595 -0.375506 0
M  V30 12059 C 1159.88 0.427589 -3.58962 0
M  V30 12060 O 1159.6 -0.764669 -4.31375 0
M  V30 12061 C 1161.1 1.03891 -4.30954 0
M  V30 12062 H 1158.32 0.00373031 -0.67099 0
M  V30 12063 H 1160.87 -0.628596 -1.94599 0
M  V30 12064 H 1159.02 1.12099 -3.70827 0
M  V30 12065 H 1159.44 -0.494605 -5.22163 0
M  V30 12066 H 1160.91 1.20764 -5.38628 0
M  V30 12067 H 1161.39 2.02252 -3.8986 0
M  V30 12068 H 1161.99 0.384623 -4.23557 0
M  V30 12069 N 1160.31 1.56586 -0.178487 0
M  V30 12070 C 1161.72 1.58609 0.17759 0
M  V30 12071 C 1161.92 1.19411 1.62306 0
M  V30 12072 O 1160.98 0.90906 2.35568 0
M  V30 12073 C 1162.29 3.005 -0.109722 0
M  V30 12074 C 1163.84 3.12962 -0.0485036 0
M  V30 12075 C 1164.32 4.56957 -0.308901 0
M  V30 12076 N 1165.81 4.62487 -0.25693 0
M  V30 12077 C 1166.54 5.71767 -0.432488 0
M  V30 12078 N 1166.04 6.89577 -0.667494 0
M  V30 12079 N 1167.83 5.60895 -0.367895 0
M  V30 12080 H 1159.98 1.80351 -1.12193 0
M  V30 12081 H 1162.25 0.83623 -0.446569 0
M  V30 12082 H 1161.95 3.3368 -1.11133 0
M  V30 12083 H 1161.83 3.72472 0.595373 0
M  V30 12084 H 1164.21 2.79604 0.943687 0
M  V30 12085 H 1164.29 2.43411 -0.78642 0
M  V30 12086 H 1163.94 4.91025 -1.29833 0
M  V30 12087 H 1163.87 5.24676 0.449711 0
M  V30 12088 H 1166.36 3.77813 -0.0812308 0
M  V30 12089 H 1166.67 7.68744 -0.79071 0
M  V30 12090 H 1165.02 6.91423 -0.704193 0
M  V30 12091 H 1168.21 4.67735 -0.184837 0
M  V30 12092 H 1168.38 6.46005 -0.508138 0
M  V30 12093 N 1161.79 -0.095206 1.57312 0
M  V30 12094 C 1163.01 -0.81227 1.90289 0
M  V30 12095 C 1163.43 -1.72287 0.772178 0
M  V30 12096 O 1162.79 -1.80698 -0.255841 0
M  V30 12097 C 1162.84 -1.62572 3.22882 0
M  V30 12098 O 1162.56 -0.75175 4.31602 0
M  V30 12099 C 1164.06 -2.44585 3.6972 0
M  V30 12100 H 1161.28 -0.232256 0.629522 0
M  V30 12101 H 1163.82 -0.0724733 2.04372 0
M  V30 12102 H 1161.98 -2.31803 3.10397 0
M  V30 12103 H 1162.39 -1.31514 5.07744 0
M  V30 12104 H 1163.87 -2.97155 4.65191 0
M  V30 12105 H 1164.34 -3.23044 2.97555 0
M  V30 12106 H 1164.95 -1.80554 3.85072 0
M  V30 12107 N 1163.26 -1.53291 -0.366026 0
M  V30 12108 C 1164.49 -1.73665 -1.13381 0
M  V30 12109 C 1164.91 -0.464284 -1.8228 0
M  V30 12110 O 1164.27 0.581645 -1.71717 0
M  V30 12111 C 1164.32 -2.90225 -2.14013 0
M  V30 12112 O 1163.42 -2.58803 -3.21084 0
M  V30 12113 H 1162.77 -0.576762 -0.329 0
M  V30 12114 H 1165.3 -2.00174 -0.423287 0
M  V30 12115 H 1165.31 -3.16378 -2.57622 0
M  V30 12116 H 1163.98 -3.82518 -1.63257 0
M  V30 12117 H 1162.56 -2.43466 -2.82451 0
M  V30 12118 N 1164.74 0.6258 -1.44643 0
M  V30 12119 C 1165.97 1.41726 -1.51422 0
M  V30 12120 C 1166.39 1.87565 -0.14181 0
M  V30 12121 O 1165.75 1.59059 0.870054 0
M  V30 12122 C 1165.8 2.61012 -2.48807 0
M  V30 12123 O 1164.9 3.61029 -1.99328 0
M  V30 12124 H 1164.24 0.423855 -0.511119 0
M  V30 12125 H 1166.77 0.763336 -1.89827 0
M  V30 12126 H 1166.78 3.08489 -2.67018 0
M  V30 12127 H 1165.46 2.26995 -3.48491 0
M  V30 12128 H 1164.04 3.20325 -1.90909 0
M  V30 12129 N 1166.22 1.31629 0.866686 0
M  V30 12130 C 1167.15 1.22151 1.99001 0
M  V30 12131 C 1168.13 0.107972 1.69757 0
M  V30 12132 O 1169.32 0.293125 1.91975 0
M  V30 12133 C 1166.45 0.93144 3.34577 0
M  V30 12134 C 1165.4 2.0049 3.78137 0
M  V30 12135 C 1164.73 1.56747 5.11209 0
M  V30 12136 C 1166.03 3.41844 3.94892 0
M  V30 12137 H 1167.72 2.16132 2.0719 0
M  V30 12138 H 1165.27 1.04051 0.995463 0
M  V30 12139 H 1167.22 0.851719 4.12703 0
M  V30 12140 H 1165.94 -0.0440289 3.2657 0
M  V30 12141 H 1164.6 2.07457 3.02253 0
M  V30 12142 H 1164.25 0.579767 4.99648 0
M  V30 12143 H 1163.95 2.28562 5.41326 0
M  V30 12144 H 1165.47 1.50188 5.91841 0
M  V30 12145 H 1166.89 3.37534 4.63405 0
M  V30 12146 H 1165.29 4.11905 4.36411 0
M  V30 12147 H 1166.36 3.82389 2.98172 0
M  V30 12148 N 1167.7 -1.08142 1.14644 0
M  V30 12149 C 1168.61 -2.18675 0.849607 0
M  V30 12150 C 1169.63 -1.73158 -0.170983 0
M  V30 12151 O 1170.8 -2.014 0.0011579 0
M  V30 12152 C 1167.87 -3.45084 0.334305 0
M  V30 12153 C 1166.93 -4.05213 1.41779 0
M  V30 12154 C 1166.16 -5.25588 0.926981 0
M  V30 12155 O 1166.38 -5.69934 -0.230522 0
M  V30 12156 O 1165.32 -5.77183 1.70715 0
M  V30 12157 H 1169.14 -2.46542 1.77343 0
M  V30 12158 H 1166.73 -1.17328 0.924911 0
M  V30 12159 H 1168.61 -4.21367 0.0529893 0
M  V30 12160 H 1167.29 -3.18788 -0.561755 0
M  V30 12161 H 1166.19 -3.30507 1.7526 0
M  V30 12162 H 1167.53 -4.35764 2.28847 0
M  V30 12163 N 1169.18 -0.941978 -1.26351 0
M  V30 12164 C 1170.12 -0.450906 -2.26353 0
M  V30 12165 C 1171.09 0.489857 -1.58712 0
M  V30 12166 O 1172.28 0.40589 -1.86433 0
M  V30 12167 C 1169.42 0.277054 -3.43986 0
M  V30 12168 C 1168.53 -0.699474 -4.263 0
M  V30 12169 C 1167.67 0.0497661 -5.31177 0
M  V30 12170 C 1166.71 -0.918531 -6.05169 0
M  V30 12171 N 1165.84 -0.200993 -7.01812 0
M  V30 12172 H 1170.68 -1.30861 -2.6773 0
M  V30 12173 H 1168.22 -0.656514 -1.31637 0
M  V30 12174 H 1170.18 0.715567 -4.11018 0
M  V30 12175 H 1168.81 1.09889 -3.0352 0
M  V30 12176 H 1167.86 -1.2565 -3.59049 0
M  V30 12177 H 1169.17 -1.4389 -4.77595 0
M  V30 12178 H 1168.33 0.547521 -6.04224 0
M  V30 12179 H 1167.07 0.822068 -4.80722 0
M  V30 12180 H 1166.07 -1.4274 -5.30947 0
M  V30 12181 H 1167.3 -1.69085 -6.57713 0
M  V30 12182 H 1165.24 0.552803 -6.53667 0
M  V30 12183 H 1165.16 -0.879735 -7.50864 0
M  V30 12184 H 1166.43 0.275642 -7.79012 0
M  V30 12185 N 1170.66 1.40747 -0.709091 0
M  V30 12186 C 1171.59 2.33404 -0.0669763 0
M  V30 12187 C 1172.57 1.52546 0.752582 0
M  V30 12188 O 1173.75 1.81036 0.702823 0
M  V30 12189 C 1170.88 3.36476 0.860285 0
M  V30 12190 C 1169.84 4.27748 0.146828 0
M  V30 12191 C 1169.16 5.21304 1.18937 0
M  V30 12192 C 1170.46 5.12734 -0.995064 0
M  V30 12193 H 1172.16 2.87349 -0.840888 0
M  V30 12194 H 1169.7 1.38163 -0.405817 0
M  V30 12195 H 1171.65 4.00231 1.31883 0
M  V30 12196 H 1170.38 2.80912 1.66602 0
M  V30 12197 H 1169.04 3.65437 -0.291826 0
M  V30 12198 H 1168.69 4.62048 1.98798 0
M  V30 12199 H 1168.39 5.8321 0.716917 0
M  V30 12200 H 1169.91 5.87936 1.64815 0
M  V30 12201 H 1171.32 5.69979 -0.61618 0
M  V30 12202 H 1169.72 5.83649 -1.39547 0
M  V30 12203 H 1170.79 4.49097 -1.82867 0
M  V30 12204 N 1172.13 0.454803 1.50895 0
M  V30 12205 C 1173.36 -0.106259 2.07128 0
M  V30 12206 C 1173.78 -1.3418 1.31823 0
M  V30 12207 O 1173.14 -1.77667 0.361147 0
M  V30 12208 C 1173.19 -0.389609 3.58489 0
M  V30 12209 O 1172.29 -1.47305 3.85195 0
M  V30 12210 H 1171.63 0.00580588 0.663975 0
M  V30 12211 H 1174.16 0.641163 1.94294 0
M  V30 12212 H 1174.17 -0.634934 4.03029 0
M  V30 12213 H 1172.85 0.513338 4.1272 0
M  V30 12214 H 1171.43 -1.21631 3.52506 0
M  V30 12215 N 1173.61 -1.56489 0.186789 0
M  V30 12216 C 1175.03 -1.58701 -0.169176 0
M  V30 12217 C 1175.23 -1.2027 -1.61671 0
M  V30 12218 O 1174.28 -0.92154 -2.35083 0
M  V30 12219 C 1175.6 -3.00437 0.125657 0
M  V30 12220 C 1177.14 -3.12932 0.0651 0
M  V30 12221 C 1177.62 -4.56787 0.333131 0
M  V30 12222 N 1179.11 -4.62344 0.281453 0
M  V30 12223 C 1179.85 -5.71529 0.462805 0
M  V30 12224 N 1179.34 -6.89213 0.704054 0
M  V30 12225 N 1181.13 -5.60692 0.397636 0
M  V30 12226 H 1173.29 -1.79754 1.13148 0
M  V30 12227 H 1175.55 -0.83385 0.450997 0
M  V30 12228 H 1175.25 -3.33086 1.12901 0
M  V30 12229 H 1175.13 -3.72782 -0.575612 0
M  V30 12230 H 1177.52 -2.80101 -0.928845 0
M  V30 12231 H 1177.6 -2.42991 0.799318 0
M  V30 12232 H 1177.24 -4.9033 1.32436 0
M  V30 12233 H 1177.17 -5.24907 -0.421879 0
M  V30 12234 H 1179.66 -3.77764 0.101266 0
M  V30 12235 H 1179.97 -7.68314 0.831468 0
M  V30 12236 H 1178.32 -6.9104 0.740851 0
M  V30 12237 H 1181.51 -4.6763 0.20964 0
M  V30 12238 H 1181.68 -6.45726 0.54239 0
M  V30 12239 N 1175.09 0.086862 -1.5736 0
M  V30 12240 C 1176.37 0.820984 -1.77537 0
M  V30 12241 C 1176.75 1.96534 -0.770554 0
M  V30 12242 O 1176.09 2.27629 0.199334 0
M  V30 12243 C 1176.3 1.30793 -3.23565 0
M  V30 12244 C 1177.65 1.7474 -3.86977 0
M  V30 12245 O 1178.68 1.40396 -3.27364 0
M  V30 12246 O 1177.54 2.38271 -4.91822 0
M  V30 12247 H 1174.63 0.392228 -0.72807 0
M  V30 12248 H 1177.18 0.0681051 -1.69563 0
M  V30 12249 H 1175.95 0.488409 -3.8824 0
M  V30 12250 H 1175.57 2.12258 -3.36203 0
M  V30 12251 N 1176.57 1.53483 0.357892 0
M  V30 12252 C 1177.82 1.69256 1.09706 0
M  V30 12253 C 1178.13 0.454888 1.90237 0
M  V30 12254 O 1179.34 0.4933 2.66981 0
M  V30 12255 C 1177.79 2.99238 1.99961 0
M  V30 12256 C 1177.4 4.30293 1.24706 0
M  V30 12257 C 1179.14 3.24378 2.73823 0
M  V30 12258 C 1177.05 5.5136 2.13907 0
M  V30 12259 H 1175.98 0.630657 0.413265 0
M  V30 12260 H 1178.63 1.79983 0.357518 0
M  V30 12261 H 1177.01 2.82332 2.77677 0
M  V30 12262 H 1178.19 4.57857 0.519995 0
M  V30 12263 H 1176.5 4.11656 0.626736 0
M  V30 12264 H 1179.1 4.12015 3.40805 0
M  V30 12265 H 1179.44 2.40769 3.39612 0
M  V30 12266 H 1179.98 3.41994 2.03187 0
M  V30 12267 H 1176.71 6.3747 1.52684 0
M  V30 12268 H 1176.23 5.28065 2.84442 0
M  V30 12269 H 1177.91 5.86448 2.7329 0
M  V30 12270 N 1178.05 -0.61812 1.44973 0
M  V30 12271 C 1178.98 -1.74035 1.55673 0
M  V30 12272 C 1179.96 -1.65112 0.4089 0
M  V30 12273 O 1181.14 -1.83673 0.630698 0
M  V30 12274 C 1178.27 -3.1261 1.51303 0
M  V30 12275 C 1177.23 -3.36334 2.64696 0
M  V30 12276 C 1176.55 -4.75072 2.45378 0
M  V30 12277 C 1177.85 -3.27618 4.06772 0
M  V30 12278 H 1179.55 -1.65336 2.49608 0
M  V30 12279 H 1177.09 -0.794003 1.20132 0
M  V30 12280 H 1179.04 -3.90906 1.57388 0
M  V30 12281 H 1177.77 -3.22123 0.538914 0
M  V30 12282 H 1176.43 -2.60423 2.58022 0
M  V30 12283 H 1176.08 -4.81306 1.46129 0
M  V30 12284 H 1175.78 -4.91903 3.21412 0
M  V30 12285 H 1177.3 -5.55582 2.53301 0
M  V30 12286 H 1178.71 -3.95802 4.14746 0
M  V30 12287 H 1177.11 -3.55981 4.83113 0
M  V30 12288 H 1178.18 -2.25219 4.29423 0
M  V30 12289 N 1179.52 -1.32087 -0.859693 0
M  V30 12290 C 1180.49 -1.20546 -1.94939 0
M  V30 12291 C 1181.49 -0.12982 -1.60275 0
M  V30 12292 O 1182.68 -0.379853 -1.70008 0
M  V30 12293 C 1179.81 -0.852717 -3.30063 0
M  V30 12294 H 1181 -2.17384 -2.06602 0
M  V30 12295 H 1178.55 -1.15846 -1.04926 0
M  V30 12296 H 1179.29 0.114059 -3.24099 0
M  V30 12297 H 1179.07 -1.63035 -3.56598 0
M  V30 12298 H 1180.56 -0.796145 -4.09941 0
M  V30 12299 N 1181 1.07532 -1.15215 0
M  V30 12300 C 1182.23 1.84356 -0.950139 0
M  V30 12301 C 1182.65 1.81429 0.496502 0
M  V30 12302 O 1182.01 1.20589 1.35381 0
M  V30 12303 C 1182.06 3.29425 -1.46669 0
M  V30 12304 O 1181.16 4.07008 -0.664674 0
M  V30 12305 H 1180.5 0.570921 -0.339036 0
M  V30 12306 H 1183.03 1.35665 -1.53154 0
M  V30 12307 H 1183.04 3.8026 -1.47873 0
M  V30 12308 H 1181.72 3.3087 -2.51988 0
M  V30 12309 H 1180.29 3.65841 -0.72211 0
M  V30 12310 N 1182.48 0.948665 1.2585 0
M  V30 12311 C 1183.71 0.617229 1.97479 0
M  V30 12312 C 1184.12 -0.809406 1.7057 0
M  V30 12313 O 1183.48 -1.54066 0.97826 0
M  V30 12314 C 1183.53 0.859065 3.51144 0
M  V30 12315 O 1183.25 2.2296 3.77121 0
M  V30 12316 C 1184.75 0.539197 4.40009 0
M  V30 12317 H 1181.97 0.231933 0.629641 0
M  V30 12318 H 1184.52 1.27141 1.60173 0
M  V30 12319 H 1182.67 0.25138 3.86584 0
M  V30 12320 H 1183.09 2.29524 4.71613 0
M  V30 12321 H 1184.56 0.758986 5.46757 0
M  V30 12322 H 1185.04 -0.526062 4.36038 0
M  V30 12323 H 1185.64 1.12594 4.10125 0
M  V30 12324 N 1183.96 -1.40369 0.716545 0
M  V30 12325 C 1185.37 -1.83783 0.328719 0
M  V30 12326 C 1185.72 -1.5991 -1.13681 0
M  V30 12327 O 1184.85 -1.08048 -1.87496 0
M  V30 12328 C 1185.44 -3.33626 0.589848 0
M  V30 12329 C 1184 -3.7553 0.25572 0
M  V30 12330 C 1183.15 -2.63571 0.861733 0
M  V30 12331 H 1186.1 -1.29623 0.915621 0
M  V30 12332 H 1186.12 -3.80225 -0.14459 0
M  V30 12333 H 1185.63 -3.5097 1.65655 0
M  V30 12334 H 1183.73 -3.63781 -0.805883 0
M  V30 12335 H 1183.84 -4.73577 0.725388 0
M  V30 12336 H 1182.21 -2.53047 0.289706 0
M  V30 12337 H 1182.99 -2.83727 1.93272 0
M  V30 12338 N 1185.44 -0.462799 -1.50652 0
M  V30 12339 C 1186.37 0.371837 -2.26164 0
M  V30 12340 C 1187.38 0.96432 -1.31167 0
M  V30 12341 O 1188.57 0.854134 -1.56738 0
M  V30 12342 C 1185.67 1.53469 -3.0216 0
M  V30 12343 C 1184.84 1.0565 -4.24449 0
M  V30 12344 C 1183.9 2.09243 -4.82808 0
M  V30 12345 O 1182.93 1.67641 -5.43953 0
M  V30 12346 N 1184.13 3.41976 -4.69076 0
M  V30 12347 H 1186.9 -0.275476 -2.98431 0
M  V30 12348 H 1184.46 -0.293109 -1.59225 0
M  V30 12349 H 1186.45 2.22446 -3.38083 0
M  V30 12350 H 1185.02 2.08685 -2.32743 0
M  V30 12351 H 1184.24 0.192895 -3.93728 0
M  V30 12352 H 1185.53 0.714796 -5.03754 0
M  V30 12353 H 1184.92 3.78491 -4.20429 0
M  V30 12354 H 1183.48 4.06775 -5.09291 0
M  V30 12355 N 1186.91 1.56388 -0.195085 0
M  V30 12356 C 1188.14 2.02406 0.452399 0
M  V30 12357 C 1188.56 1.07432 1.54402 0
M  V30 12358 O 1187.92 0.0578246 1.81208 0
M  V30 12359 C 1187.97 3.46864 0.985778 0
M  V30 12360 O 1187.07 3.55007 2.09867 0
M  V30 12361 H 1186.42 0.65553 0.105719 0
M  V30 12362 H 1188.95 2.02299 -0.30596 0
M  V30 12363 H 1188.96 3.86655 1.30238 0
M  V30 12364 H 1187.63 4.15481 0.186662 0
M  V30 12365 H 1186.21 3.2709 1.79071 0
M  V30 12366 N 1188.39 -0.0785156 1.57404 0
M  V30 12367 C 1189.36 -1.07835 2.02248 0
M  V30 12368 C 1190.36 -1.31987 0.918475 0
M  V30 12369 O 1191.55 -1.27821 1.18353 0
M  V30 12370 C 1188.68 -2.42361 2.39737 0
M  V30 12371 H 1189.87 -0.691995 2.91807 0
M  V30 12372 H 1187.42 -0.32405 1.52904 0
M  V30 12373 H 1188.16 -2.85841 1.53183 0
M  V30 12374 H 1187.94 -2.26174 3.20293 0
M  V30 12375 H 1189.43 -3.14241 2.75031 0
M  V30 12376 N 1189.87 -1.5367 -0.349747 0
M  V30 12377 C 1191.15 -1.61238 -1.10732 0
M  V30 12378 C 1191.53 -0.429756 -2.06679 0
M  V30 12379 O 1190.88 0.578564 -2.21054 0
M  V30 12380 C 1191.09 -2.97022 -1.83245 0
M  V30 12381 C 1192.43 -3.52158 -2.37212 0
M  V30 12382 O 1193.46 -2.99156 -1.9335 0
M  V30 12383 O 1192.32 -4.44853 -3.1744 0
M  V30 12384 H 1189.41 -0.65191 -0.508864 0
M  V30 12385 H 1191.96 -1.66015 -0.351738 0
M  V30 12386 H 1190.73 -3.74535 -1.13311 0
M  V30 12387 H 1190.35 -2.95808 -2.65675 0
M  V30 12388 N 1191.35 0.610423 -1.45298 0
M  V30 12389 C 1192.76 0.930872 -1.29642 0
M  V30 12390 C 1192.96 1.99976 -0.247358 0
M  V30 12391 O 1192.02 2.49925 0.359674 0
M  V30 12392 C 1193.33 1.37449 -2.67448 0
M  V30 12393 C 1194.88 1.48885 -2.75322 0
M  V30 12394 C 1195.36 1.96624 -4.13646 0
M  V30 12395 N 1196.85 2.03862 -4.15926 0
M  V30 12396 C 1197.58 2.42015 -5.19823 0
M  V30 12397 N 1197.08 2.79157 -6.34069 0
M  V30 12398 N 1198.87 2.42329 -5.07181 0
M  V30 12399 H 1191.02 -0.0961259 -2.12182 0
M  V30 12400 H 1193.29 0.0196483 -0.947796 0
M  V30 12401 H 1192.99 0.663276 -3.45389 0
M  V30 12402 H 1192.87 2.34155 -2.95721 0
M  V30 12403 H 1195.25 2.19098 -1.97686 0
M  V30 12404 H 1195.33 0.505006 -2.50765 0
M  V30 12405 H 1194.98 1.26998 -4.91766 0
M  V30 12406 H 1194.91 2.95917 -4.35592 0
M  V30 12407 H 1197.4 1.77759 -3.33482 0
M  V30 12408 H 1197.71 3.07143 -7.09142 0
M  V30 12409 H 1196.06 2.7686 -6.37474 0
M  V30 12410 H 1199.25 2.12717 -4.16976 0
M  V30 12411 H 1199.42 2.71738 -5.88271 0
M  V30 12412 N 1192.83 1.32541 0.852676 0
M  V30 12413 C 1193.76 1.24254 1.97694 0
M  V30 12414 C 1194.74 0.125971 1.69633 0
M  V30 12415 O 1195.92 0.31347 1.91653 0
M  V30 12416 C 1193.05 0.966874 3.3357 0
M  V30 12417 C 1192.01 2.0449 3.75989 0
M  V30 12418 C 1191.33 1.6216 5.09518 0
M  V30 12419 C 1192.63 3.46013 3.91244 0
M  V30 12420 H 1194.33 2.18317 2.04886 0
M  V30 12421 H 1191.87 1.05101 0.984371 0
M  V30 12422 H 1193.83 0.895444 4.11776 0
M  V30 12423 H 1192.55 -0.0093893 3.26599 0
M  V30 12424 H 1191.21 2.10651 3.00036 0
M  V30 12425 H 1190.86 0.632729 4.99005 0
M  V30 12426 H 1190.56 2.3429 5.38871 0
M  V30 12427 H 1192.08 1.56457 5.90215 0
M  V30 12428 H 1193.49 3.4243 4.59799 0
M  V30 12429 H 1191.89 4.1651 4.32017 0
M  V30 12430 H 1192.96 3.8553 2.941 0
M  V30 12431 N 1194.3 -1.0692 1.15784 0
M  V30 12432 C 1195.55 -1.8002 0.946795 0
M  V30 12433 C 1195.91 -1.85232 -0.520268 0
M  V30 12434 O 1195.2 -1.32825 -1.38087 0
M  V30 12435 C 1195.39 -3.24389 1.50022 0
M  V30 12436 C 1195.22 -3.33245 3.01957 0
M  V30 12437 C 1193.99 -3.43549 3.70543 0
M  V30 12438 C 1196.19 -3.23634 3.99707 0
M  V30 12439 N 1194.17 -3.41354 5.10246 0
M  V30 12440 C 1195.54 -3.28608 5.25754 0
M  V30 12441 C 1197.6 -3.07475 3.91617 0
M  V30 12442 C 1196.3 -3.19084 6.44653 0
M  V30 12443 C 1198.33 -2.99286 5.1008 0
M  V30 12444 C 1197.69 -3.04876 6.35004 0
M  V30 12445 H 1193.79 -0.671859 0.400162 0
M  V30 12446 H 1196.37 -1.27592 1.47066 0
M  V30 12447 H 1194.54 -3.75228 1.00293 0
M  V30 12448 H 1196.27 -3.85633 1.22756 0
M  V30 12449 H 1193.03 -3.48079 3.21151 0
M  V30 12450 H 1193.45 -3.43772 5.83223 0
M  V30 12451 H 1198.1 -3.02004 2.95895 0
M  V30 12452 H 1195.81 -3.23313 7.40604 0
M  V30 12453 H 1199.4 -2.8788 5.05585 0
M  V30 12454 H 1198.28 -2.9859 7.2513 0
M  V30 12455 N 1195.78 -0.955326 -1.25345 0
M  V30 12456 C 1196.71 -0.494145 -2.28211 0
M  V30 12457 C 1197.69 0.459875 -1.63766 0
M  V30 12458 O 1198.88 0.358679 -1.90859 0
M  V30 12459 C 1196.01 0.228228 -3.46549 0
M  V30 12460 C 1194.96 -0.640601 -4.23179 0
M  V30 12461 C 1194.29 0.212553 -5.34277 0
M  V30 12462 C 1195.59 -1.91906 -4.85767 0
M  V30 12463 H 1197.28 -1.35391 -2.67039 0
M  V30 12464 H 1194.83 -0.652462 -1.2837 0
M  V30 12465 H 1196.78 0.561995 -4.17636 0
M  V30 12466 H 1195.51 1.12224 -3.06714 0
M  V30 12467 H 1194.16 -0.957462 -3.53876 0
M  V30 12468 H 1193.81 1.10634 -4.90682 0
M  V30 12469 H 1193.51 -0.365473 -5.86462 0
M  V30 12470 H 1195.04 0.541271 -6.08196 0
M  V30 12471 H 1196.45 -1.65165 -5.48993 0
M  V30 12472 H 1194.85 -2.44279 -5.48131 0
M  V30 12473 H 1195.92 -2.62173 -4.07914 0
M  V30 12474 N 1197.26 1.39987 -0.723979 0
M  V30 12475 C 1198.49 2.0556 -0.275634 0
M  V30 12476 C 1198.91 1.54207 1.07711 0
M  V30 12477 O 1198.27 0.681041 1.68022 0
M  V30 12478 C 1198.32 3.59551 -0.27485 0
M  V30 12479 O 1197.42 4.05685 0.741182 0
M  V30 12480 H 1196.76 0.651634 -0.12755 0
M  V30 12481 H 1199.29 1.79229 -0.986814 0
M  V30 12482 H 1199.3 4.07837 -0.115425 0
M  V30 12483 H 1197.98 3.96291 -1.26198 0
M  V30 12484 H 1196.55 3.6884 0.548795 0
M  V30 12485 N 1198.74 0.470782 1.50404 0
M  V30 12486 C 1199.99 -0.0844409 2.02624 0
M  V30 12487 C 1200.32 -1.39398 1.3521 0
M  V30 12488 O 1199.59 -1.88542 0.477707 0
M  V30 12489 C 1199.88 -0.268563 3.59097 0
M  V30 12490 C 1199.73 1.06198 4.37084 0
M  V30 12491 C 1201.05 -1.02324 4.28039 0
M  V30 12492 H 1198.17 -0.0292141 0.736421 0
M  V30 12493 H 1200.81 0.616312 1.79726 0
M  V30 12494 H 1198.96 -0.865441 3.78738 0
M  V30 12495 H 1200.63 1.69541 4.29015 0
M  V30 12496 H 1198.87 1.65868 4.00837 0
M  V30 12497 H 1199.55 0.886795 5.4483 0
M  V30 12498 H 1202.02 -0.517325 4.12872 0
M  V30 12499 H 1200.9 -1.12087 5.37334 0
M  V30 12500 H 1201.16 -2.05974 3.91187 0
M  V30 12501 N 1200.22 -1.56282 0.203376 0
M  V30 12502 C 1201.45 -2.02198 -0.438572 0
M  V30 12503 C 1201.86 -1.08343 -1.54619 0
M  V30 12504 O 1201.22 -0.0897594 -1.82279 0
M  V30 12505 C 1201.27 -3.4776 -0.987184 0
M  V30 12506 O 1200.99 -4.38034 0.0762552 0
M  V30 12507 C 1202.49 -4.09234 -1.70419 0
M  V30 12508 H 1199.71 -0.662041 -0.109282 0
M  V30 12509 H 1202.25 -2.02067 0.314509 0
M  V30 12510 H 1200.41 -3.48564 -1.69061 0
M  V30 12511 H 1200.82 -5.2344 -0.333322 0
M  V30 12512 H 1202.3 -5.1291 -2.04027 0
M  V30 12513 H 1202.77 -3.53172 -2.61087 0
M  V30 12514 H 1203.38 -4.12226 -1.04641 0
M  V30 12515 N 1201.7 0.070167 -1.57444 0
M  V30 12516 C 1202.63 1.10996 -2.0053 0
M  V30 12517 C 1203.64 1.3489 -0.91151 0
M  V30 12518 O 1204.83 1.33102 -1.18938 0
M  V30 12519 C 1201.93 2.46053 -2.33048 0
M  V30 12520 C 1201.1 2.42092 -3.64294 0
M  V30 12521 C 1200.16 3.5927 -3.84463 0
M  V30 12522 O 1199.19 3.40625 -4.5603 0
M  V30 12523 N 1200.39 4.79677 -3.26941 0
M  V30 12524 H 1203.15 0.743029 -2.90343 0
M  V30 12525 H 1200.72 0.258794 -1.59818 0
M  V30 12526 H 1202.71 3.23089 -2.43712 0
M  V30 12527 H 1201.28 2.74742 -1.49116 0
M  V30 12528 H 1200.5 1.5043 -3.64368 0
M  V30 12529 H 1201.79 2.36548 -4.50469 0
M  V30 12530 H 1201.18 4.97729 -2.68855 0
M  V30 12531 H 1199.74 5.54219 -3.43051 0
M  V30 12532 N 1203.17 1.53854 0.341593 0
M  V30 12533 C 1204.4 1.75447 1.10604 0
M  V30 12534 C 1204.82 0.493225 1.81518 0
M  V30 12535 O 1204.18 -0.554253 1.7262 0
M  V30 12536 C 1204.23 2.93593 2.09369 0
M  V30 12537 O 1203.33 2.63878 3.16926 0
M  V30 12538 H 1202.67 0.581923 0.319783 0
M  V30 12539 H 1205.2 2.00822 0.391388 0
M  V30 12540 H 1205.21 3.20437 2.52556 0
M  V30 12541 H 1203.89 3.85067 1.57151 0
M  V30 12542 H 1202.47 2.47929 2.78542 0
M  V30 12543 N 1204.65 -0.602709 1.4562 0
M  V30 12544 C 1205.88 -1.3881 1.53426 0
M  V30 12545 C 1206.29 -1.88046 0.16851 0
M  V30 12546 O 1205.65 -1.62493 -0.830791 0
M  V30 12547 C 1205.7 -2.58927 2.52268 0
M  V30 12548 O 1205.42 -2.11735 3.83536 0
M  V30 12549 C 1206.92 -3.51728 2.69819 0
M  V30 12550 H 1204.14 -0.424744 0.519455 0
M  V30 12551 H 1206.69 -0.73459 1.90851 0
M  V30 12552 H 1204.84 -3.20309 2.17902 0
M  V30 12553 H 1205.26 -2.89814 4.37159 0
M  V30 12554 H 1206.73 -4.32542 3.42945 0
M  V30 12555 H 1207.21 -4.02383 1.76024 0
M  V30 12556 H 1207.81 -2.96196 3.05202 0
M  V30 12557 N 1206.13 -1.32992 -0.845635 0
M  V30 12558 C 1207.08 -1.22682 -1.95494 0
M  V30 12559 C 1208.05 -0.106942 -1.65755 0
M  V30 12560 O 1209.23 -0.28405 -1.88674 0
M  V30 12561 C 1206.37 -0.965068 -3.31331 0
M  V30 12562 C 1205.48 -2.17058 -3.7351 0
M  V30 12563 C 1204.62 -1.84355 -4.98183 0
M  V30 12564 C 1203.66 -3.01176 -5.32878 0
M  V30 12565 N 1202.8 -2.68506 -6.48729 0
M  V30 12566 H 1207.64 -2.17562 -2.03644 0
M  V30 12567 H 1205.17 -1.08194 -0.996613 0
M  V30 12568 H 1207.13 -0.793771 -4.09579 0
M  V30 12569 H 1205.76 -0.0530285 -3.22756 0
M  V30 12570 H 1204.81 -2.45185 -2.90841 0
M  V30 12571 H 1206.12 -3.04413 -3.95138 0
M  V30 12572 H 1205.28 -1.6383 -5.84162 0
M  V30 12573 H 1204.02 -0.942264 -4.78511 0
M  V30 12574 H 1203.02 -3.22323 -4.45408 0
M  V30 12575 H 1204.25 -3.9205 -5.54503 0
M  V30 12576 H 1202.19 -1.80929 -6.30556 0
M  V30 12577 H 1202.11 -3.49392 -6.70419 0
M  V30 12578 H 1203.38 -2.51432 -7.37836 0
M  V30 12579 N 1207.61 1.06304 -1.1635 0
M  V30 12580 C 1208.54 2.15745 -0.893103 0
M  V30 12581 C 1209.52 1.69341 0.160531 0
M  V30 12582 O 1210.7 1.94196 0.0126526 0
M  V30 12583 C 1207.83 3.45066 -0.393287 0
M  V30 12584 C 1206.79 4.04978 -1.38482 0
M  V30 12585 C 1206.11 5.29507 -0.743409 0
M  V30 12586 C 1207.41 4.4377 -2.75438 0
M  V30 12587 H 1209.11 2.38622 -1.80831 0
M  V30 12588 H 1206.65 1.14681 -0.870878 0
M  V30 12589 H 1208.61 4.20964 -0.191607 0
M  V30 12590 H 1207.33 3.21808 0.557426 0
M  V30 12591 H 1205.99 3.31136 -1.57304 0
M  V30 12592 H 1205.64 5.02545 0.213787 0
M  V30 12593 H 1205.34 5.7055 -1.40521 0
M  V30 12594 H 1206.86 6.08102 -0.551746 0
M  V30 12595 H 1208.28 5.1075 -2.60398 0
M  V30 12596 H 1206.67 4.95797 -3.38091 0
M  V30 12597 H 1207.74 3.54636 -3.30699 0
M  V30 12598 N 1209.09 0.96196 1.24836 0
M  V30 12599 C 1210.5 0.660388 1.7463 0
M  V30 12600 C 1210.85 -0.824064 1.78055 0
M  V30 12601 O 1209.97 -1.64485 1.40619 0
M  V30 12602 C 1210.57 1.19205 3.17137 0
M  V30 12603 C 1209.13 0.940493 3.64461 0
M  V30 12604 C 1208.27 1.33076 2.43282 0
M  V30 12605 H 1211.22 1.13794 1.1062 0
M  V30 12606 H 1211.25 0.555595 3.76422 0
M  V30 12607 H 1210.76 2.27247 3.14612 0
M  V30 12608 H 1208.86 -0.124645 3.72391 0
M  V30 12609 H 1208.97 1.5821 4.52224 0
M  V30 12610 H 1207.34 0.749139 2.43434 0
M  V30 12611 H 1208.12 2.42055 2.43442 0
M  V30 12612 N 1210.56 -1.39601 0.731392 0
M  V30 12613 C 1211.97 -1.83424 0.348194 0
M  V30 12614 C 1212.33 -1.61106 -1.11979 0
M  V30 12615 O 1211.45 -1.1003 -1.86339 0
M  V30 12616 C 1212.05 -3.32982 0.6252 0
M  V30 12617 C 1210.6 -3.75238 0.295536 0
M  V30 12618 C 1209.75 -2.62642 0.88964 0
M  V30 12619 H 1212.7 -1.28644 0.929318 0
M  V30 12620 H 1212.72 -3.80357 -0.104254 0
M  V30 12621 H 1212.24 -3.49193 1.69368 0
M  V30 12622 H 1210.34 -3.64615 -0.767254 0
M  V30 12623 H 1210.45 -4.72781 0.775576 0
M  V30 12624 H 1208.81 -2.52726 0.316529 0
M  V30 12625 H 1209.6 -2.81661 1.96271 0
M  V30 12626 N 1212.04 -0.478751 -1.50152 0
M  V30 12627 C 1213.27 0.0710485 -2.06778 0
M  V30 12628 C 1213.69 1.32826 -1.34174 0
M  V30 12629 O 1213.04 1.77758 -0.413304 0
M  V30 12630 C 1213.09 0.351351 -3.59789 0
M  V30 12631 O 1212.81 -0.855998 -4.29656 0
M  V30 12632 C 1214.32 0.947269 -4.33061 0
M  V30 12633 H 1211.54 -0.0105032 -0.670918 0
M  V30 12634 H 1214.08 -0.669732 -1.93222 0
M  V30 12635 H 1212.23 1.04207 -3.73121 0
M  V30 12636 H 1212.65 -0.605252 -5.20996 0
M  V30 12637 H 1214.12 1.09312 -5.41068 0
M  V30 12638 H 1214.6 1.93937 -3.94062 0
M  V30 12639 H 1215.21 0.294693 -4.24278 0
M  V30 12640 N 1213.52 1.56172 -0.211661 0
M  V30 12641 C 1214.75 2.02428 0.427843 0
M  V30 12642 C 1215.16 1.09162 1.54043 0
M  V30 12643 O 1214.52 0.0994249 1.82229 0
M  V30 12644 C 1214.57 3.48279 0.968728 0
M  V30 12645 O 1214.29 4.37987 -0.0994841 0
M  V30 12646 C 1215.79 4.10132 1.68246 0
M  V30 12647 H 1213.01 0.662611 0.10577 0
M  V30 12648 H 1215.56 2.01897 -0.32522 0
M  V30 12649 H 1213.71 3.49456 1.6721 0
M  V30 12650 H 1214.13 5.23609 0.305558 0
M  V30 12651 H 1215.6 5.13985 2.01304 0
M  V30 12652 H 1216.08 3.54552 2.5921 0
M  V30 12653 H 1216.68 4.12775 1.02453 0
M  V30 12654 N 1215 -0.0618163 1.57479 0
M  V30 12655 C 1216.25 -0.75794 1.86918 0
M  V30 12656 C 1216.56 -1.78234 0.80572 0
M  V30 12657 O 1217.77 -2.52874 0.98827 0
M  V30 12658 C 1216.22 -1.39898 3.31597 0
M  V30 12659 C 1215.83 -0.412621 4.46096 0
M  V30 12660 C 1217.57 -2.07688 3.70224 0
M  V30 12661 C 1215.48 -1.06014 5.8182 0
M  V30 12662 H 1214.41 -0.286825 0.697314 0
M  V30 12663 H 1217.06 -0.0114386 1.83496 0
M  V30 12664 H 1215.44 -2.19408 3.29661 0
M  V30 12665 H 1216.62 0.353392 4.59443 0
M  V30 12666 H 1214.93 0.161383 4.16087 0
M  V30 12667 H 1217.53 -2.56928 4.68927 0
M  V30 12668 H 1217.87 -2.88073 3.00532 0
M  V30 12669 H 1218.41 -1.34996 3.74194 0
M  V30 12670 H 1215.15 -0.296405 6.5483 0
M  V30 12671 H 1214.67 -1.79677 5.72255 0
M  V30 12672 H 1216.34 -1.57708 6.27485 0
M  V30 12673 N 1216.48 -1.54033 -0.333429 0
M  V30 12674 C 1217.7 -1.76031 -1.09672 0
M  V30 12675 C 1218.13 -0.502844 -1.81254 0
M  V30 12676 O 1217.48 0.54509 -1.72912 0
M  V30 12677 C 1217.53 -2.947 -2.07809 0
M  V30 12678 O 1216.64 -2.65555 -3.15522 0
M  V30 12679 H 1215.98 -0.583611 -0.316692 0
M  V30 12680 H 1218.51 -2.01026 -0.380732 0
M  V30 12681 H 1218.52 -3.21771 -2.50853 0
M  V30 12682 H 1217.19 -3.85895 -1.55106 0
M  V30 12683 H 1215.77 -2.49403 -2.77223 0
M  V30 12684 N 1217.95 0.594978 -1.45938 0
M  V30 12685 C 1219.18 1.37994 -1.5416 0
M  V30 12686 C 1219.6 1.87954 -0.17848 0
M  V30 12687 O 1218.95 1.62932 0.822161 0
M  V30 12688 C 1219.01 2.57586 -2.53637 0
M  V30 12689 O 1218.73 2.09698 -3.84653 0
M  V30 12690 C 1220.23 3.50292 -2.71681 0
M  V30 12691 H 1217.45 0.421983 -0.5217 0
M  V30 12692 H 1219.99 0.724459 -1.91238 0
M  V30 12693 H 1218.15 3.19149 -2.19597 0
M  V30 12694 H 1218.56 2.87492 -4.3869 0
M  V30 12695 H 1220.03 4.30717 -3.45234 0
M  V30 12696 H 1220.51 4.01444 -1.78156 0
M  V30 12697 H 1221.12 2.94573 -3.06768 0
M  V30 12698 N 1219.43 1.33438 0.838571 0
M  V30 12699 C 1220.36 1.26344 1.96365 0
M  V30 12700 C 1221.34 0.143956 1.6949 0
M  V30 12701 O 1222.53 0.333779 1.9131 0
M  V30 12702 C 1219.66 1.0022 3.32526 0
M  V30 12703 C 1218.61 2.08466 3.73799 0
M  V30 12704 C 1217.94 1.67555 5.07769 0
M  V30 12705 C 1219.24 3.50144 3.87552 0
M  V30 12706 H 1220.93 2.20478 2.02558 0
M  V30 12707 H 1218.48 1.06139 0.973168 0
M  V30 12708 H 1220.43 0.939068 4.10803 0
M  V30 12709 H 1219.16 0.0252514 3.2659 0
M  V30 12710 H 1217.81 2.13822 2.97785 0
M  V30 12711 H 1217.46 0.685619 4.98305 0
M  V30 12712 H 1217.16 2.39993 5.36356 0
M  V30 12713 H 1218.69 1.62708 5.88522 0
M  V30 12714 H 1220.1 3.47287 4.56141 0
M  V30 12715 H 1218.5 4.21069 4.27575 0
M  V30 12716 H 1219.57 3.88628 2.89994 0
M  V30 12717 N 1220.91 -1.05686 1.16912 0
M  V30 12718 C 1221.84 -2.15268 0.904532 0
M  V30 12719 C 1222.82 -1.69424 -0.151548 0
M  V30 12720 O 1224.01 -1.942 -0.00235371 0
M  V30 12721 C 1221.14 -3.44853 0.411581 0
M  V30 12722 C 1220.09 -4.04237 1.40628 0
M  V30 12723 C 1219.42 -5.29105 0.771479 0
M  V30 12724 C 1220.72 -4.42303 2.77787 0
M  V30 12725 H 1222.41 -2.37659 1.82094 0
M  V30 12726 H 1219.96 -1.14217 0.876947 0
M  V30 12727 H 1221.91 -4.20857 0.213929 0
M  V30 12728 H 1220.63 -3.22099 -0.540352 0
M  V30 12729 H 1219.29 -3.30297 1.59058 0
M  V30 12730 H 1218.94 -5.02652 -0.187133 0
M  V30 12731 H 1218.64 -5.69797 1.43545 0
M  V30 12732 H 1220.16 -6.07801 0.583988 0
M  V30 12733 H 1221.58 -5.09362 2.63103 0
M  V30 12734 H 1219.98 -4.93997 3.40716 0
M  V30 12735 H 1221.05 -3.52877 3.32575 0
M  V30 12736 N 1222.39 -0.968567 -1.24324 0
M  V30 12737 C 1223.3 -0.50703 -2.29055 0
M  V30 12738 C 1224.31 0.432431 -1.68541 0
M  V30 12739 O 1225.49 0.30526 -1.99073 0
M  V30 12740 C 1222.56 0.194589 -3.46153 0
M  V30 12741 C 1221.62 -0.784805 -4.22066 0
M  V30 12742 C 1220.85 -0.116574 -5.33573 0
M  V30 12743 O 1221.07 1.09492 -5.59792 0
M  V30 12744 O 1220.01 -0.809171 -5.96436 0
M  V30 12745 H 1223.83 -1.3777 -2.70653 0
M  V30 12746 H 1221.42 -0.735645 -1.30033 0
M  V30 12747 H 1223.3 0.588684 -4.17268 0
M  V30 12748 H 1221.97 1.04021 -3.06531 0
M  V30 12749 H 1220.88 -1.22938 -3.53323 0
M  V30 12750 H 1222.21 -1.59887 -4.65507 0
M  V30 12751 N 1223.87 1.39211 -0.738786 0
M  V30 12752 C 1225.14 1.9442 -0.214533 0
M  V30 12753 C 1225.52 1.67528 1.28443 0
M  V30 12754 O 1224.87 1.0056 2.05183 0
M  V30 12755 C 1225.08 3.44603 -0.552232 0
M  V30 12756 C 1226.43 4.21602 -0.503663 0
M  V30 12757 O 1227.45 3.52819 -0.489647 0
M  V30 12758 O 1226.31 5.44194 -0.50153 0
M  V30 12759 H 1223.41 0.826011 -0.0404247 0
M  V30 12760 H 1225.95 1.48689 -0.817902 0
M  V30 12761 H 1224.72 3.57626 -1.58806 0
M  V30 12762 H 1224.35 3.9752 0.0799096 0
M  V30 12763 N 1225.34 0.486708 1.49896 0
M  V30 12764 C 1226.25 -0.304222 2.32619 0
M  V30 12765 C 1227.27 -0.981103 1.43702 0
M  V30 12766 O 1228.45 -0.965639 1.76741 0
M  V30 12767 C 1225.51 -1.36301 3.18783 0
M  V30 12768 C 1224.57 -0.701082 4.23537 0
M  V30 12769 C 1223.81 -1.70943 5.05583 0
M  V30 12770 O 1224.03 -2.93773 4.88931 0
M  V30 12771 O 1222.96 -1.27263 5.88292 0
M  V30 12772 H 1226.79 0.37248 3.01407 0
M  V30 12773 H 1224.37 0.248277 1.47323 0
M  V30 12774 H 1226.26 -1.97594 3.72202 0
M  V30 12775 H 1224.93 -2.0229 2.52706 0
M  V30 12776 H 1223.84 -0.0487926 3.74068 0
M  V30 12777 H 1225.17 -0.0838817 4.92129 0
M  V30 12778 N 1226.82 -1.56058 0.219941 0
M  V30 12779 C 1228.07 -1.98554 -0.412808 0
M  V30 12780 C 1228.4 -1.10742 -1.5953 0
M  V30 12781 O 1227.68 -0.164757 -1.93801 0
M  V30 12782 C 1227.96 -3.4995 -0.848923 0
M  V30 12783 C 1227.81 -4.48535 0.337094 0
M  V30 12784 C 1229.13 -4.05703 -1.70567 0
M  V30 12785 H 1226.25 -0.721869 -0.148576 0
M  V30 12786 H 1228.89 -1.87356 0.315852 0
M  V30 12787 H 1227.04 -3.59624 -1.46979 0
M  V30 12788 H 1228.72 -4.50874 0.975216 0
M  V30 12789 H 1226.96 -4.22474 0.984798 0
M  V30 12790 H 1227.63 -5.51999 -0.0109665 0
M  V30 12791 H 1230.11 -3.98964 -1.18182 0
M  V30 12792 H 1228.98 -5.11955 -1.97972 0
M  V30 12793 H 1229.24 -3.52487 -2.66844 0
M  V30 12794 N 1228.3 0.053464 -1.57509 0
M  V30 12795 C 1229.55 0.748016 -1.87317 0
M  V30 12796 C 1229.86 1.77805 -0.815161 0
M  V30 12797 O 1231.07 2.52347 -1.00167 0
M  V30 12798 C 1229.53 1.38137 -3.32334 0
M  V30 12799 C 1229.13 0.388958 -4.46308 0
M  V30 12800 C 1230.88 2.05722 -3.7132 0
M  V30 12801 C 1228.78 1.02927 -5.82374 0
M  V30 12802 H 1227.71 0.283123 -0.698826 0
M  V30 12803 H 1230.37 0.00170723 -1.835 0
M  V30 12804 H 1228.75 2.17656 -3.3082 0
M  V30 12805 H 1229.92 -0.377752 -4.59249 0
M  V30 12806 H 1228.24 -0.183447 -4.15996 0
M  V30 12807 H 1230.83 2.54437 -4.70283 0
M  V30 12808 H 1231.18 2.86475 -3.02056 0
M  V30 12809 H 1231.71 1.3301 -3.74904 0
M  V30 12810 H 1228.45 0.261674 -6.54977 0
M  V30 12811 H 1227.97 1.7664 -5.732 0
M  V30 12812 H 1229.65 1.54378 -6.28312 0
M  V30 12813 N 1229.78 1.54207 0.325255 0
M  V30 12814 C 1230.71 1.78318 1.42401 0
M  V30 12815 C 1231.69 0.633078 1.49769 0
M  V30 12816 O 1232.87 0.870324 1.67205 0
M  V30 12817 C 1230 1.89823 2.80509 0
M  V30 12818 C 1229.05 3.12102 2.9068 0
M  V30 12819 S 1229.88 4.70746 2.55262 0
M  V30 12820 C 1231.04 4.85154 3.95444 0
M  V30 12821 H 1231.27 2.71234 1.21736 0
M  V30 12822 H 1228.8 1.45309 0.521993 0
M  V30 12823 H 1230.76 1.97136 3.60066 0
M  V30 12824 H 1229.42 0.978873 2.98458 0
M  V30 12825 H 1228.61 3.16881 3.91921 0
M  V30 12826 H 1228.22 3.03109 2.19091 0
M  V30 12827 H 1230.51 4.67687 4.90178 0
M  V30 12828 H 1231.45 5.87254 3.95649 0
M  V30 12829 H 1231.86 4.13471 3.8432 0
M  V30 12830 N 1231.26 -0.58723 1.46251 0
M  V30 12831 C 1232.51 -1.34294 1.51028 0
M  V30 12832 C 1232.83 -1.94329 0.161623 0
M  V30 12833 O 1232.1 -1.78309 -0.811342 0
M  V30 12834 H 1230.68 -0.498607 0.556238 0
M  V30 12835 H 1233.34 -0.688074 1.8235 0
M  V30 12836 H 1232.43 -2.15197 2.26045 0
M  V30 12837 N 1232.74 -1.33881 -0.831482 0
M  V30 12838 C 1233.98 -1.25942 -1.58955 0
M  V30 12839 C 1234.31 0.172542 -1.93432 0
M  V30 12840 O 1233.59 1.11577 -1.59314 0
M  V30 12841 C 1233.87 -2.14193 -2.89471 0
M  V30 12842 C 1233.73 -3.65883 -2.61628 0
M  V30 12843 C 1235.04 -2.02071 -3.90967 0
M  V30 12844 H 1232.16 -0.458841 -0.576744 0
M  V30 12845 H 1234.81 -1.64052 -0.958482 0
M  V30 12846 H 1232.96 -1.81821 -3.43327 0
M  V30 12847 H 1234.63 -4.08581 -2.14148 0
M  V30 12848 H 1232.87 -3.87397 -1.95208 0
M  V30 12849 H 1233.54 -4.22988 -3.54662 0
M  V30 12850 H 1236.02 -2.30476 -3.46439 0
M  V30 12851 H 1234.89 -2.66059 -4.80108 0
M  V30 12852 H 1235.15 -0.995121 -4.30755 0
M  V30 12853 N 1234.21 1.05064 -1.1747 0
M  V30 12854 C 1235.15 2.12842 -0.850344 0
M  V30 12855 C 1236.16 1.62128 0.147796 0
M  V30 12856 O 1237.35 1.78327 -0.0786774 0
M  V30 12857 C 1234.45 3.37995 -0.247486 0
M  V30 12858 C 1233.62 4.17981 -1.28881 0
M  V30 12859 C 1232.68 5.21476 -0.703476 0
M  V30 12860 O 1231.71 5.52327 -1.37561 0
M  V30 12861 N 1232.91 5.78309 0.50387 0
M  V30 12862 H 1235.67 2.41264 -1.77797 0
M  V30 12863 H 1233.23 1.21172 -1.07373 0
M  V30 12864 H 1235.23 4.04394 0.157424 0
M  V30 12865 H 1233.8 3.07097 0.583952 0
M  V30 12866 H 1233.02 3.47054 -1.86942 0
M  V30 12867 H 1234.3 4.6822 -1.99116 0
M  V30 12868 H 1233.7 5.5553 1.06787 0
M  V30 12869 H 1232.26 6.46223 0.850828 0
M  V30 12870 N 1235.69 0.975146 1.23809 0
M  V30 12871 C 1236.97 0.557725 1.8748 0
M  V30 12872 C 1237.35 -0.965164 1.87744 0
M  V30 12873 O 1236.7 -1.83966 1.35531 0
M  V30 12874 C 1236.91 1.15777 3.29236 0
M  V30 12875 C 1238.25 1.24726 4.05868 0
M  V30 12876 O 1239.28 1.11084 3.38436 0
M  V30 12877 O 1238.14 1.46373 5.26533 0
M  V30 12878 H 1235.23 0.187045 0.80557 0
M  V30 12879 H 1237.78 1.06989 1.31725 0
M  V30 12880 H 1236.55 2.20023 3.23583 0
M  V30 12881 H 1236.17 0.630103 3.92575 0
M  V30 12882 N 1237.17 -1.38817 0.746158 0
M  V30 12883 C 1238.42 -1.99519 0.295839 0
M  V30 12884 C 1238.73 -1.59897 -1.12661 0
M  V30 12885 O 1239.94 -2.13514 -1.67702 0
M  V30 12886 C 1238.39 -3.56712 0.477984 0
M  V30 12887 C 1238 -4.0529 1.90904 0
M  V30 12888 C 1239.75 -4.24405 0.0900039 0
M  V30 12889 C 1237.65 -5.55097 2.04014 0
M  V30 12890 H 1236.58 -0.746389 0.106861 0
M  V30 12891 H 1239.23 -1.58676 0.921637 0
M  V30 12892 H 1237.62 -3.95406 -0.216884 0
M  V30 12893 H 1238.79 -3.77904 2.63677 0
M  V30 12894 H 1237.1 -3.50297 2.25125 0
M  V30 12895 H 1239.7 -5.3444 0.16682 0
M  V30 12896 H 1240.04 -4.05166 -0.956349 0
M  V30 12897 H 1240.58 -3.90924 0.736446 0
M  V30 12898 H 1237.32 -5.7923 3.06877 0
M  V30 12899 H 1236.84 -5.8425 1.35692 0
M  V30 12900 H 1238.52 -6.20682 1.82656 0
M  V30 12901 N 1238.65 -0.49465 -1.49636 0
M  V30 12902 C 1239.87 0.051305 -2.07337 0
M  V30 12903 C 1240.3 1.30637 -1.35335 0
M  V30 12904 O 1239.66 1.76647 -0.408126 0
M  V30 12905 C 1239.7 0.294425 -3.59396 0
M  V30 12906 O 1238.81 1.3704 -3.88965 0
M  V30 12907 H 1238.15 -0.023408 -0.663587 0
M  V30 12908 H 1240.68 -0.692451 -1.92526 0
M  V30 12909 H 1240.69 0.527854 -4.04571 0
M  V30 12910 H 1239.36 -0.622583 -4.11214 0
M  V30 12911 H 1237.94 1.12242 -3.55607 0
M  V30 12912 N 1240.13 1.55939 -0.228214 0
M  V30 12913 C 1241.06 2.2357 0.6737 0
M  V30 12914 C 1242.04 1.20964 1.1959 0
M  V30 12915 O 1243.22 1.49568 1.23867 0
M  V30 12916 C 1240.35 2.92076 1.87906 0
M  V30 12917 C 1239.31 4.01211 1.49043 0
M  V30 12918 C 1238.63 4.57047 2.77511 0
M  V30 12919 C 1239.93 5.17914 0.67544 0
M  V30 12920 H 1241.63 2.99199 0.109806 0
M  V30 12921 H 1239.17 1.43908 0.0513732 0
M  V30 12922 H 1241.12 3.38083 2.51551 0
M  V30 12923 H 1239.85 2.13906 2.46803 0
M  V30 12924 H 1238.51 3.55945 0.877411 0
M  V30 12925 H 1238.16 3.75599 3.34566 0
M  V30 12926 H 1237.86 5.30707 2.52239 0
M  V30 12927 H 1239.38 5.05776 3.42087 0
M  V30 12928 H 1240.79 5.60261 1.21575 0
M  V30 12929 H 1239.19 5.97847 0.519536 0
M  V30 12930 H 1240.26 4.83866 -0.316495 0
M  V30 12931 N 1241.6 -0.0451101 1.57535 0
M  V30 12932 C 1242.51 -1.06796 2.08882 0
M  V30 12933 C 1243.53 -1.40682 1.02394 0
M  V30 12934 O 1244.71 -1.50324 1.34033 0
M  V30 12935 C 1241.77 -2.35467 2.54472 0
M  V30 12936 C 1240.83 -2.0831 3.75374 0
M  V30 12937 C 1240.07 -3.30846 4.1878 0
M  V30 12938 O 1240.29 -4.40945 3.61834 0
M  V30 12939 O 1239.22 -3.17488 5.11356 0
M  V30 12940 H 1243.05 -0.661658 2.96405 0
M  V30 12941 H 1240.63 -0.26104 1.47102 0
M  V30 12942 H 1242.52 -3.11143 2.84198 0
M  V30 12943 H 1241.19 -2.75425 1.70068 0
M  V30 12944 H 1240.1 -1.30254 3.50692 0
M  V30 12945 H 1241.43 -1.73218 4.60713 0
M  V30 12946 N 1243.08 -1.54377 -0.317073 0
M  V30 12947 C 1244.01 -1.8721 -1.39552 0
M  V30 12948 C 1244.99 -0.729483 -1.53664 0
M  V30 12949 O 1246.18 -0.983799 -1.67437 0
M  V30 12950 C 1243.31 -2.1052 -2.76222 0
M  V30 12951 C 1242.26 -3.26366 -2.76892 0
M  V30 12952 C 1241.59 -3.35061 -4.16699 0
M  V30 12953 C 1242.89 -4.63862 -2.40061 0
M  V30 12954 H 1244.58 -2.77532 -1.12323 0
M  V30 12955 H 1242.13 -1.33536 -0.538897 0
M  V30 12956 H 1244.08 -2.32073 -3.51739 0
M  V30 12957 H 1242.81 -1.16953 -3.04942 0
M  V30 12958 H 1241.46 -3.0471 -2.03831 0
M  V30 12959 H 1241.11 -2.39041 -4.4257 0
M  V30 12960 H 1240.81 -4.12923 -4.18053 0
M  V30 12961 H 1242.34 -3.58856 -4.94019 0
M  V30 12962 H 1243.75 -4.85252 -3.05292 0
M  V30 12963 H 1242.15 -5.44321 -2.52655 0
M  V30 12964 H 1243.22 -4.6567 -1.35202 0
M  V30 12965 N 1244.56 0.579466 -1.4656 0
M  V30 12966 C 1245.84 1.33973 -1.42515 0
M  V30 12967 C 1246.22 2.10812 -0.110317 0
M  V30 12968 O 1245.57 2.09679 0.908135 0
M  V30 12969 C 1245.78 2.26301 -2.65686 0
M  V30 12970 C 1247.12 2.88027 -3.1197 0
M  V30 12971 O 1248.15 2.36612 -2.66257 0
M  V30 12972 O 1247.01 3.81423 -3.9138 0
M  V30 12973 H 1244.1 0.602121 -0.566903 0
M  V30 12974 H 1246.65 0.600214 -1.58731 0
M  V30 12975 H 1245.42 1.68973 -3.52936 0
M  V30 12976 H 1245.04 3.07586 -2.51945 0
M  V30 12977 N 1246.04 1.3432 0.824371 0
M  V30 12978 C 1247.45 1.1397 1.11727 0
M  V30 12979 C 1247.65 -0.0597597 2.01411 0
M  V30 12980 O 1246.71 -0.735717 2.41544 0
M  V30 12981 C 1248.02 2.43423 1.76538 0
M  V30 12982 C 1249.57 2.49466 1.89039 0
M  V30 12983 C 1250.05 3.78917 2.57266 0
M  V30 12984 N 1251.54 3.8007 2.64767 0
M  V30 12985 C 1252.27 4.76953 3.18282 0
M  V30 12986 N 1251.77 5.84217 3.72373 0
M  V30 12987 N 1253.56 4.6441 3.1667 0
M  V30 12988 H 1245.71 2.11175 0.227802 0
M  V30 12989 H 1247.98 0.933774 0.163615 0
M  V30 12990 H 1247.68 3.31278 1.18102 0
M  V30 12991 H 1247.56 2.56655 2.7642 0
M  V30 12992 H 1249.94 1.62052 2.46623 0
M  V30 12993 H 1250.02 2.40163 0.880635 0
M  V30 12994 H 1249.67 4.6672 2.00336 0
M  V30 12995 H 1249.6 3.85502 3.58742 0
M  V30 12996 H 1252.09 3.02556 2.26425 0
M  V30 12997 H 1252.4 6.54159 4.11455 0
M  V30 12998 H 1250.75 5.87933 3.70621 0
M  V30 12999 H 1253.94 3.7976 2.73678 0
M  V30 13000 H 1254.11 5.40081 3.58073 0
M  V30 13001 N 1247.52 -1.0444 1.18026 0
M  V30 13002 C 1248.77 -1.7697 0.9677 0
M  V30 13003 C 1249.08 -1.88995 -0.503994 0
M  V30 13004 O 1250.28 -2.58342 -0.834968 0
M  V30 13005 C 1248.74 -3.1816 1.68232 0
M  V30 13006 C 1248.35 -3.14241 3.19307 0
M  V30 13007 C 1250.09 -3.95095 1.55244 0
M  V30 13008 C 1248 -4.50266 3.83425 0
M  V30 13009 H 1246.93 -0.663355 0.358436 0
M  V30 13010 H 1249.58 -1.17003 1.4136 0
M  V30 13011 H 1247.96 -3.78501 1.16418 0
M  V30 13012 H 1249.14 -2.63373 3.78115 0
M  V30 13013 H 1247.45 -2.50805 3.32394 0
M  V30 13014 H 1250.05 -4.95681 2.00511 0
M  V30 13015 H 1250.39 -4.13236 0.504125 0
M  V30 13016 H 1250.92 -3.4132 2.04317 0
M  V30 13017 H 1247.66 -4.37329 4.88286 0
M  V30 13018 H 1247.18 -5.01251 3.29404 0
M  V30 13019 H 1248.86 -5.1919 3.86071 0
M  V30 13020 N 1248.99 -0.981699 -1.2329 0
M  V30 13021 C 1250.24 -0.650015 -1.91361 0
M  V30 13022 C 1250.56 0.819184 -1.76959 0
M  V30 13023 O 1249.83 1.5861 -1.14977 0
M  V30 13024 H 1248.41 -0.237427 -0.708264 0
M  V30 13025 H 1251.08 -1.24579 -1.49887 0
M  V30 13026 H 1250.17 -0.902772 -2.98758 0
M  V30 13027 N 1250.47 1.3842 -0.753509 0
M  V30 13028 C 1251.7 2.04403 -0.320449 0
M  V30 13029 C 1252.12 1.5683 1.05118 0
M  V30 13030 O 1251.47 0.741335 1.66765 0
M  V30 13031 C 1251.52 3.59954 -0.333937 0
M  V30 13032 O 1251.24 4.05782 -1.65144 0
M  V30 13033 C 1252.75 4.43156 0.112997 0
M  V30 13034 H 1249.97 0.656881 -0.136927 0
M  V30 13035 H 1252.51 1.77112 -1.02234 0
M  V30 13036 H 1250.66 3.86083 0.319215 0
M  V30 13037 H 1251.08 5.00213 -1.57757 0
M  V30 13038 H 1252.55 5.51975 0.0523995 0
M  V30 13039 H 1253.03 4.23581 1.16087 0
M  V30 13040 H 1253.64 4.22216 -0.511278 0
M  V30 13041 N 1251.95 0.502579 1.49372 0
M  V30 13042 C 1253.23 -0.104472 1.95321 0
M  V30 13043 C 1253.61 -1.53975 1.44412 0
M  V30 13044 O 1252.96 -2.18804 0.658566 0
M  V30 13045 C 1253.17 -0.0154833 3.48997 0
M  V30 13046 C 1254.51 -0.188615 4.24181 0
M  V30 13047 O 1255.54 -0.090595 3.56085 0
M  V30 13048 O 1254.4 -0.390068 5.45106 0
M  V30 13049 H 1251.49 -0.0944325 0.821591 0
M  V30 13050 H 1254.04 0.565229 1.6001 0
M  V30 13051 H 1252.81 0.985383 3.7869 0
M  V30 13052 H 1252.43 -0.72526 3.90929 0
M  V30 13053 N 1253.43 -1.55816 0.23648 0
M  V30 13054 C 1254.66 -2.02789 -0.39501 0
M  V30 13055 C 1255.07 -1.1153 -1.52832 0
M  V30 13056 O 1254.41 -0.120084 -1.83307 0
M  V30 13057 C 1254.47 -3.46052 -0.974066 0
M  V30 13058 C 1254.14 -4.56993 0.0256825 0
M  V30 13059 C 1255.13 -5.13208 0.831477 0
M  V30 13060 C 1252.82 -5.0208 0.148759 0
M  V30 13061 C 1254.81 -6.12994 1.74691 0
M  V30 13062 C 1252.5 -6.017 1.0677 0
M  V30 13063 C 1253.5 -6.57035 1.86531 0
M  V30 13064 O 1253.18 -7.54714 2.76878 0
M  V30 13065 H 1252.92 -0.668672 -0.0992687 0
M  V30 13066 H 1255.47 -2.02312 0.354826 0
M  V30 13067 H 1253.7 -3.43645 -1.77327 0
M  V30 13068 H 1255.39 -3.76586 -1.51453 0
M  V30 13069 H 1256.16 -4.79214 0.746922 0
M  V30 13070 H 1252.03 -4.58679 -0.461976 0
M  V30 13071 H 1255.58 -6.56111 2.36989 0
M  V30 13072 H 1251.48 -6.35115 1.15322 0
M  V30 13073 H 1252.24 -7.72292 2.71122 0
M  V30 13074 N 1254.91 0.036755 -1.57557 0
M  V30 13075 C 1256.14 0.740011 -1.92892 0
M  V30 13076 C 1256.54 1.69828 -0.833964 0
M  V30 13077 O 1255.89 1.82619 0.198974 0
M  V30 13078 C 1255.95 1.55827 -3.23972 0
M  V30 13079 C 1255.61 0.765613 -4.50541 0
M  V30 13080 C 1256.61 0.0692686 -5.19854 0
M  V30 13081 C 1254.3 0.722425 -4.97078 0
M  V30 13082 C 1256.29 -0.659649 -6.33977 0
M  V30 13083 C 1253.98 -0.0102431 -6.11099 0
M  V30 13084 C 1254.97 -0.700047 -6.79403 0
M  V30 13085 O 1254.66 -1.42084 -7.91244 0
M  V30 13086 H 1254.39 0.213496 -0.641401 0
M  V30 13087 H 1256.95 0.000665152 -2.054 0
M  V30 13088 H 1255.18 2.34125 -3.0777 0
M  V30 13089 H 1256.87 2.14343 -3.44691 0
M  V30 13090 H 1257.63 0.0937148 -4.84909 0
M  V30 13091 H 1253.51 1.24883 -4.43763 0
M  V30 13092 H 1257.06 -1.19861 -6.87226 0
M  V30 13093 H 1252.95 -0.0366395 -6.4549 0
M  V30 13094 H 1253.72 -1.33372 -8.07561 0
M  V30 13095 N 1256.39 1.54543 0.308881 0
M  V30 13096 C 1257.32 1.81309 1.40212 0
M  V30 13097 C 1258.33 0.69568 1.47187 0
M  V30 13098 O 1259.52 0.973034 1.49647 0
M  V30 13099 C 1256.62 1.92901 2.78644 0
M  V30 13100 C 1255.79 3.23222 2.94697 0
M  V30 13101 C 1254.85 3.25329 4.13579 0
M  V30 13102 O 1253.88 3.989 4.06039 0
M  V30 13103 N 1255.08 2.50158 5.23833 0
M  V30 13104 H 1257.84 2.75659 1.1761 0
M  V30 13105 H 1255.41 1.54021 0.498925 0
M  V30 13106 H 1257.4 1.91721 3.56406 0
M  V30 13107 H 1255.97 1.05582 2.9423 0
M  V30 13108 H 1255.19 3.37241 2.04113 0
M  V30 13109 H 1256.48 4.09238 3.02328 0
M  V30 13110 H 1255.87 1.90002 5.32838 0
M  V30 13111 H 1254.43 2.5474 5.99959 0
M  V30 13112 N 1257.86 -0.571685 1.46866 0
M  V30 13113 C 1259.27 -1.15383 1.46778 0
M  V30 13114 C 1259.63 -1.95023 0.214576 0
M  V30 13115 O 1258.75 -2.05386 -0.681574 0
M  V30 13116 C 1259.35 -2.09915 2.65935 0
M  V30 13117 C 1257.9 -2.6343 2.68852 0
M  V30 13118 C 1257.05 -1.39517 2.39646 0
M  V30 13119 H 1260 -0.359036 1.54585 0
M  V30 13120 H 1260.02 -2.9356 2.42081 0
M  V30 13121 H 1259.54 -1.51923 3.57129 0
M  V30 13122 H 1257.64 -3.2526 1.8176 0
M  V30 13123 H 1257.75 -3.05412 3.69134 0
M  V30 13124 H 1256.11 -1.69702 1.8993 0
M  V30 13125 H 1256.9 -0.833399 3.33031 0
M  V30 13126 N 1259.34 -1.34755 -0.817236 0
M  V30 13127 C 1260.25 -1.28888 -1.96023 0
M  V30 13128 C 1261.27 -0.195582 -1.72897 0
M  V30 13129 O 1262.44 -0.423071 -1.96906 0
M  V30 13130 C 1259.51 -1.04985 -3.30423 0
M  V30 13131 C 1258.57 -2.23526 -3.66517 0
M  V30 13132 C 1257.8 -2.00753 -4.94504 0
M  V30 13133 O 1258.03 -0.968622 -5.62116 0
M  V30 13134 O 1256.96 -2.87848 -5.28608 0
M  V30 13135 H 1260.79 -2.25059 -2.03917 0
M  V30 13136 H 1258.37 -1.15019 -0.953467 0
M  V30 13137 H 1260.25 -0.934589 -4.10906 0
M  V30 13138 H 1258.93 -0.118582 -3.23483 0
M  V30 13139 H 1257.83 -2.40613 -2.86455 0
M  V30 13140 H 1259.17 -3.15062 -3.78149 0
M  V30 13141 N 1260.82 1.03812 -1.18578 0
M  V30 13142 C 1261.75 2.11928 -0.872871 0
M  V30 13143 C 1262.76 1.62275 0.130592 0
M  V30 13144 O 1263.95 1.78233 -0.0975869 0
M  V30 13145 C 1261.05 3.37714 -0.283321 0
M  V30 13146 C 1260.23 4.16591 -1.33307 0
M  V30 13147 C 1259.29 5.20701 -0.758746 0
M  V30 13148 O 1258.31 5.50837 -1.43412 0
M  V30 13149 N 1259.51 5.78811 0.442505 0
M  V30 13150 H 1262.28 2.39364 -1.80346 0
M  V30 13151 H 1259.84 1.20027 -1.08652 0
M  V30 13152 H 1261.83 4.04538 0.114524 0
M  V30 13153 H 1260.4 3.07699 0.551347 0
M  V30 13154 H 1259.62 3.45051 -1.90613 0
M  V30 13155 H 1260.91 4.66082 -2.04071 0
M  V30 13156 H 1260.31 5.56631 1.00889 0
M  V30 13157 H 1258.86 6.47089 0.78224 0
M  V30 13158 N 1262.3 0.988223 1.22768 0
M  V30 13159 C 1263.54 0.662441 1.91676 0
M  V30 13160 C 1263.88 -0.802931 1.76824 0
M  V30 13161 O 1263.15 -1.58011 1.13415 0
M  V30 13162 C 1263.43 1.06332 3.44043 0
M  V30 13163 C 1263.29 2.5869 3.67967 0
M  V30 13164 C 1264.61 0.613058 4.35809 0
M  V30 13165 H 1261.73 0.242132 0.69609 0
M  V30 13166 H 1264.37 1.23091 1.44736 0
M  V30 13167 H 1262.52 0.579623 3.84152 0
M  V30 13168 H 1264.19 3.14694 3.37291 0
M  V30 13169 H 1262.43 3.00971 3.12408 0
M  V30 13170 H 1263.1 2.8179 4.74656 0
M  V30 13171 H 1265.58 1.02846 4.0319 0
M  V30 13172 H 1264.46 0.921901 5.41103 0
M  V30 13173 H 1264.72 -0.48641 4.39416 0
M  V30 13174 N 1263.78 -1.38018 0.760839 0
M  V30 13175 C 1264.71 -2.2899 0.0980916 0
M  V30 13176 C 1265.72 -1.48102 -0.675985 0
M  V30 13177 O 1266.91 -1.70883 -0.515878 0
M  V30 13178 C 1264.01 -3.27142 -0.884959 0
M  V30 13179 C 1263.18 -4.37081 -0.167 0
M  V30 13180 C 1262.24 -5.15375 -1.06184 0
M  V30 13181 O 1261.27 -5.6673 -0.529667 0
M  V30 13182 N 1262.47 -5.29052 -2.38924 0
M  V30 13183 H 1265.23 -2.86508 0.879403 0
M  V30 13184 H 1262.8 -1.49877 0.612245 0
M  V30 13185 H 1264.79 -3.764 -1.48678 0
M  V30 13186 H 1263.36 -2.70471 -1.5673 0
M  V30 13187 H 1262.58 -3.89363 0.615617 0
M  V30 13188 H 1263.87 -5.07732 0.329525 0
M  V30 13189 H 1263.26 -4.88892 -2.84607 0
M  V30 13190 H 1261.82 -5.81658 -2.94139 0
M  V30 13191 N 1265.25 -0.510493 -1.49103 0
M  V30 13192 C 1266.16 0.267176 -2.33074 0
M  V30 13193 C 1267.18 0.958117 -1.45245 0
M  V30 13194 O 1268.36 0.937399 -1.78255 0
M  V30 13195 C 1265.42 1.31212 -3.20911 0
M  V30 13196 C 1264.48 0.633613 -4.24598 0
M  V30 13197 C 1263.71 1.62878 -5.08239 0
M  V30 13198 O 1263.94 2.85958 -4.93543 0
M  V30 13199 O 1262.87 1.17887 -5.90242 0
M  V30 13200 H 1266.7 -0.420384 -3.00776 0
M  V30 13201 H 1264.28 -0.271683 -1.46909 0
M  V30 13202 H 1266.16 1.91647 -3.75299 0
M  V30 13203 H 1264.84 1.98244 -2.55892 0
M  V30 13204 H 1263.75 -0.0107246 -3.74098 0
M  V30 13205 H 1265.08 0.0055777 -4.922 0
M  V30 13206 N 1266.73 1.55688 -0.24474 0
M  V30 13207 C 1267.66 2.18616 0.68844 0
M  V30 13208 C 1268.68 1.16185 1.14039 0
M  V30 13209 O 1269.87 1.43059 1.06754 0
M  V30 13210 C 1266.97 2.77375 1.94721 0
M  V30 13211 C 1266.14 4.05204 1.64706 0
M  V30 13212 C 1265.2 4.48302 2.75521 0
M  V30 13213 O 1264.22 5.14723 2.42999 0
M  V30 13214 N 1265.43 4.15907 4.04971 0
M  V30 13215 H 1268.19 2.99324 0.150018 0
M  V30 13216 H 1265.75 1.61771 -0.0646183 0
M  V30 13217 H 1267.74 3.03165 2.68091 0
M  V30 13218 H 1266.31 2.00837 2.39548 0
M  V30 13219 H 1265.53 3.87026 0.74865 0
M  V30 13220 H 1266.82 4.8855 1.42114 0
M  V30 13221 H 1266.22 3.62579 4.34227 0
M  V30 13222 H 1264.78 4.46538 4.74813 0
M  V30 13223 N 1268.21 -0.0283989 1.57574 0
M  V30 13224 C 1269.16 -1.04723 2.07692 0
M  V30 13225 C 1270.15 -1.37399 0.990847 0
M  V30 13226 O 1271.36 -1.36297 1.17572 0
M  V30 13227 H 1267.73 -0.355251 0.662798 0
M  V30 13228 H 1269.7 -0.598737 2.92331 0
M  V30 13229 C 1268.45 -2.33941 2.57229 0
M  V30 13230 H 1267.78 -2.09659 3.40416 0
M  V30 13231 H 1269.22 -3.03574 2.96005 0
M  V30 13232 C 1267.67 -3.02953 1.47381 0
M  V30 13233 O 1268.2 -3.9281 0.840431 0
M  V30 13234 N 1266.41 -2.64294 1.20819 0
M  V30 13235 H 1265.96 -1.91307 1.72509 0
M  V30 13236 H 1265.92 -3.10786 0.475353 0
M  V30 13237 N 1269.69 -1.54705 -0.300681 0
M  V30 13238 C 1270.94 -1.73658 -1.0338 0
M  V30 13239 C 1271.26 -0.525447 -1.87787 0
M  V30 13240 O 1270.53 0.460269 -1.90416 0
M  V30 13241 H 1269.11 -0.640338 -0.384677 0
M  V30 13242 H 1271.77 -1.92059 -0.331588 0
M  V30 13243 H 1270.86 -2.62595 -1.68672 0
M  V30 13244 N 1271.17 0.563888 -1.47167 0
M  V30 13245 C 1272.11 1.67151 -1.59152 0
M  V30 13246 C 1273.08 1.60307 -0.434852 0
M  V30 13247 O 1274.27 1.7924 -0.654049 0
M  V30 13248 C 1271.41 3.0548 -1.60549 0
M  V30 13249 C 1270.52 3.2281 -2.87085 0
M  V30 13250 C 1269.66 4.51498 -2.79862 0
M  V30 13251 C 1268.7 4.62237 -4.01252 0
M  V30 13252 N 1267.83 5.82273 -3.92305 0
M  V30 13253 H 1272.67 1.56245 -2.53755 0
M  V30 13254 H 1270.21 0.761219 -1.25872 0
M  V30 13255 H 1272.17 3.85572 -1.59343 0
M  V30 13256 H 1270.8 3.15237 -0.69464 0
M  V30 13257 H 1269.85 2.36196 -2.98188 0
M  V30 13258 H 1271.16 3.2661 -3.76997 0
M  V30 13259 H 1270.32 5.39842 -2.76867 0
M  V30 13260 H 1269.05 4.50166 -1.87621 0
M  V30 13261 H 1268.06 3.72307 -4.04558 0
M  V30 13262 H 1269.28 4.65334 -4.94612 0
M  V30 13263 H 1267.23 5.81902 -3.02862 0
M  V30 13264 H 1267.15 5.87422 -4.7589 0
M  V30 13265 H 1268.42 6.72996 -3.93315 0
M  V30 13266 N 1272.64 1.35187 0.810078 0
M  V30 13267 C 1273.89 1.28454 1.56931 0
M  V30 13268 C 1274.22 -0.141747 1.93682 0
M  V30 13269 O 1273.5 -1.09028 1.61069 0
M  V30 13270 C 1273.78 2.18771 2.86027 0
M  V30 13271 C 1273.63 3.69999 2.55774 0
M  V30 13272 C 1274.95 2.08265 3.87703 0
M  V30 13273 H 1272.07 0.467959 0.569371 0
M  V30 13274 H 1274.71 1.65556 0.932262 0
M  V30 13275 H 1272.86 1.8726 3.40391 0
M  V30 13276 H 1274.54 4.11936 2.07621 0
M  V30 13277 H 1272.78 3.90453 1.89021 0
M  V30 13278 H 1273.45 4.28577 3.47888 0
M  V30 13279 H 1275.93 2.35958 3.42729 0
M  V30 13280 H 1274.8 2.73663 4.75815 0
M  V30 13281 H 1275.06 1.06352 4.29117 0
M  V30 13282 N 1274.12 -1.03182 1.19127 0
M  V30 13283 C 1275.37 -1.76184 0.990134 0
M  V30 13284 C 1275.69 -1.88986 -0.480546 0
M  V30 13285 O 1274.96 -1.4213 -1.34817 0
M  V30 13286 H 1273.54 -0.652668 0.363364 0
M  V30 13287 H 1276.2 -1.24481 1.49968 0
M  V30 13288 H 1275.3 -2.77119 1.43568 0
M  V30 13289 N 1275.6 -0.99472 -1.22242 0
M  V30 13290 C 1276.83 -0.689809 -1.95592 0
M  V30 13291 C 1277.25 0.739321 -1.72961 0
M  V30 13292 O 1276.61 1.50563 -1.00997 0
M  V30 13293 C 1276.66 -1.00367 -3.46351 0
M  V30 13294 O 1275.76 -0.103326 -4.12271 0
M  V30 13295 H 1275.1 -0.257997 -0.611828 0
M  V30 13296 H 1277.63 -1.33219 -1.55286 0
M  V30 13297 H 1277.64 -0.946259 -3.96875 0
M  V30 13298 H 1276.32 -2.04504 -3.62148 0
M  V30 13299 H 1274.89 -0.216374 -3.72272 0
M  V30 13300 N 1277.08 1.37613 -0.768148 0
M  V30 13301 C 1278.31 2.03756 -0.341615 0
M  V30 13302 C 1278.72 1.58063 1.03984 0
M  V30 13303 O 1278.06 0.755609 1.6744 0
M  V30 13304 C 1278.12 3.58229 -0.302032 0
M  V30 13305 C 1277.79 4.27039 -1.62747 0
M  V30 13306 C 1278.78 4.51408 -2.57928 0
M  V30 13307 C 1276.47 4.64941 -1.90092 0
M  V30 13308 C 1278.46 5.12731 -3.78663 0
M  V30 13309 C 1276.15 5.25986 -3.11098 0
M  V30 13310 C 1277.15 5.49818 -4.05203 0
M  V30 13311 O 1276.83 6.09588 -5.24078 0
M  V30 13312 H 1276.57 0.660992 -0.141655 0
M  V30 13313 H 1279.12 1.77001 -1.04211 0
M  V30 13314 H 1277.35 3.84016 0.454811 0
M  V30 13315 H 1279.04 4.05784 0.0969452 0
M  V30 13316 H 1279.81 4.22542 -2.38083 0
M  V30 13317 H 1275.68 4.45729 -1.17674 0
M  V30 13318 H 1279.23 5.31249 -4.52129 0
M  V30 13319 H 1275.13 5.54276 -3.3083 0
M  V30 13320 H 1275.89 6.28068 -5.24855 0
M  V30 13321 N 1278.56 0.518393 1.4883 0
M  V30 13322 C 1279.8 -0.0199348 2.0279 0
M  V30 13323 C 1280.14 -1.35026 1.39576 0
M  V30 13324 O 1279.41 -1.86927 0.537449 0
M  V30 13325 C 1279.69 -0.154184 3.5977 0
M  V30 13326 C 1279.55 1.2005 4.33484 0
M  V30 13327 C 1280.87 -0.886547 4.31078 0
M  V30 13328 H 1277.98 -0.00577061 0.736977 0
M  V30 13329 H 1280.63 0.673178 1.77675 0
M  V30 13330 H 1278.78 -0.74451 3.81299 0
M  V30 13331 H 1280.45 1.83104 4.23404 0
M  V30 13332 H 1278.69 1.78537 3.95357 0
M  V30 13333 H 1279.36 1.05968 5.41733 0
M  V30 13334 H 1281.84 -0.385711 4.14308 0
M  V30 13335 H 1280.71 -0.949355 5.40628 0
M  V30 13336 H 1280.98 -1.93424 3.97542 0
M  V30 13337 N 1280.03 -1.55556 0.252993 0
M  V30 13338 C 1280.94 -2.25283 -0.654581 0
M  V30 13339 C 1281.96 -1.27103 -1.18831 0
M  V30 13340 O 1283.14 -1.59993 -1.22329 0
M  V30 13341 C 1280.2 -2.94336 -1.83214 0
M  V30 13342 C 1279.26 -4.0794 -1.33728 0
M  V30 13343 C 1278.5 -4.73691 -2.45871 0
M  V30 13344 O 1278.72 -4.38545 -3.64738 0
M  V30 13345 O 1277.65 -5.62083 -2.15283 0
M  V30 13346 H 1281.48 -3.03565 -0.0904091 0
M  V30 13347 H 1279.06 -1.49385 0.0212535 0
M  V30 13348 H 1280.95 -3.37808 -2.5192 0
M  V30 13349 H 1279.62 -2.18989 -2.38381 0
M  V30 13350 H 1278.53 -3.68971 -0.617323 0
M  V30 13351 H 1279.86 -4.85124 -0.831617 0
M  V30 13352 N 1281.51 0.0200419 -1.57587 0
M  V30 13353 C 1282.45 1.05118 -2.02547 0
M  V30 13354 C 1283.42 1.3465 -0.911494 0
M  V30 13355 O 1284.61 1.47154 -1.17805 0
M  V30 13356 C 1281.73 2.38373 -2.40615 0
M  V30 13357 C 1280.78 2.24639 -3.62546 0
M  V30 13358 S 1281.61 1.59129 -5.1131 0
M  V30 13359 C 1282.77 2.93856 -5.5263 0
M  V30 13360 H 1283 0.668271 -2.89692 0
M  V30 13361 H 1280.54 0.230301 -1.52673 0
M  V30 13362 H 1282.49 3.15002 -2.63218 0
M  V30 13363 H 1281.15 2.7381 -1.53906 0
M  V30 13364 H 1280.35 3.23032 -3.86867 0
M  V30 13365 H 1279.95 1.56153 -3.39841 0
M  V30 13366 H 1282.24 3.90179 -5.53865 0
M  V30 13367 H 1283.18 2.74258 -6.52831 0
M  V30 13368 H 1283.59 2.96844 -4.8015 0
M  V30 13369 N 1282.99 1.54862 0.292472 0
M  V30 13370 C 1284.22 1.78877 1.04966 0
M  V30 13371 C 1284.64 0.550724 1.79857 0
M  V30 13372 O 1284 -0.499054 1.74296 0
M  V30 13373 C 1284.05 3.00106 1.99922 0
M  V30 13374 O 1283.15 2.73827 3.0837 0
M  V30 13375 H 1282.49 0.591802 0.301108 0
M  V30 13376 H 1285.02 2.01965 0.3273 0
M  V30 13377 H 1285.03 3.28309 2.42233 0
M  V30 13378 H 1283.71 3.89872 1.44821 0
M  V30 13379 H 1282.28 2.56665 2.70513 0
M  V30 13380 N 1284.47 -0.556076 1.47464 0
M  V30 13381 C 1285.7 -1.33858 1.57764 0
M  V30 13382 C 1286.11 -1.87415 0.22825 0
M  V30 13383 O 1285.47 -1.65054 -0.778674 0
M  V30 13384 C 1285.52 -2.5077 2.60378 0
M  V30 13385 O 1285.24 -1.99426 3.90078 0
M  V30 13386 C 1286.74 -3.42965 2.80873 0
M  V30 13387 H 1283.96 -0.408003 0.532705 0
M  V30 13388 H 1286.51 -0.673501 1.93091 0
M  V30 13389 H 1284.66 -3.13214 2.27982 0
M  V30 13390 H 1285.07 -2.75759 4.46158 0
M  V30 13391 H 1286.55 -4.21412 3.56533 0
M  V30 13392 H 1287.03 -3.96579 1.88737 0
M  V30 13393 H 1287.63 -2.86336 3.14471 0
M  V30 13394 N 1285.95 -1.35615 -0.802897 0
M  V30 13395 C 1287.17 -1.32377 -1.59659 0
M  V30 13396 C 1287.6 0.0954235 -1.87858 0
M  V30 13397 O 1286.96 1.06336 -1.46842 0
M  V30 13398 C 1287 -2.13972 -2.90256 0
M  V30 13399 O 1286.11 -1.52296 -3.83249 0
M  V30 13400 H 1285.45 -0.453699 -0.484823 0
M  V30 13401 H 1287.98 -1.78708 -0.996217 0
M  V30 13402 H 1287.99 -2.26061 -3.39647 0
M  V30 13403 H 1286.66 -3.17145 -2.69057 0
M  V30 13404 H 1285.24 -1.49068 -3.41809 0
M  V30 13405 N 1287.43 1.02549 -1.19673 0
M  V30 13406 C 1288.67 1.76265 -1.00293 0
M  V30 13407 C 1289 1.88555 0.464816 0
M  V30 13408 O 1288.28 1.40484 1.34515 0
M  V30 13409 C 1288.56 3.18688 -1.6766 0
M  V30 13410 C 1288.42 3.14247 -3.21821 0
M  V30 13411 C 1289.73 4.17159 -1.40238 0
M  V30 13412 H 1286.85 0.639837 -0.365756 0
M  V30 13413 H 1289.5 1.19691 -1.4756 0
M  V30 13414 H 1287.65 3.66992 -1.27472 0
M  V30 13415 H 1289.32 2.73815 -3.71245 0
M  V30 13416 H 1287.56 2.51874 -3.53188 0
M  V30 13417 H 1288.23 4.14886 -3.64107 0
M  V30 13418 H 1290.71 3.77471 -1.75086 0
M  V30 13419 H 1289.58 5.14997 -1.89919 0
M  V30 13420 H 1289.84 4.4088 -0.328197 0
M  V30 13421 N 1288.9 1.00119 1.21713 0
M  V30 13422 C 1289.85 0.529464 2.21767 0
M  V30 13423 C 1290.84 -0.406858 1.55671 0
M  V30 13424 O 1292.03 -0.232329 1.75469 0
M  V30 13425 C 1289.16 -0.146336 3.42988 0
M  V30 13426 C 1288.24 0.81078 4.16278 0
M  V30 13427 N 1288.64 1.96204 4.66195 0
M  V30 13428 C 1286.93 0.628371 4.41551 0
M  V30 13429 C 1287.63 2.56346 5.2217 0
M  V30 13430 N 1286.61 1.8454 5.11318 0
M  V30 13431 H 1290.41 1.40738 2.58012 0
M  V30 13432 H 1287.93 0.864518 1.37477 0
M  V30 13433 H 1289.92 -0.501726 4.1387 0
M  V30 13434 H 1288.58 -1.02029 3.08254 0
M  V30 13435 H 1289.59 2.34255 4.61893 0
M  V30 13436 H 1286.27 -0.198819 4.17026 0
M  V30 13437 H 1287.66 3.53688 5.71274 0
M  V30 13438 N 1290.38 -1.37203 0.775435 0
M  V30 13439 C 1291.61 -2.04396 0.351737 0
M  V30 13440 C 1292.03 -1.58099 -1.01913 0
M  V30 13441 O 1291.39 -0.742932 -1.65379 0
M  V30 13442 C 1291.44 -3.58283 0.408105 0
M  V30 13443 O 1290.54 -4.08156 -0.590104 0
M  V30 13444 H 1289.88 -0.646451 0.151647 0
M  V30 13445 H 1292.41 -1.75443 1.05265 0
M  V30 13446 H 1292.42 -4.07127 0.266711 0
M  V30 13447 H 1291.1 -3.91335 1.40819 0
M  V30 13448 H 1289.67 -3.70622 -0.411524 0
M  V30 13449 N 1291.86 -0.526279 -1.48553 0
M  V30 13450 C 1293.09 0.0052277 -2.06899 0
M  V30 13451 C 1293.5 1.2849 -1.38332 0
M  V30 13452 O 1292.86 1.76354 -0.469648 0
M  V30 13453 C 1292.91 0.236709 -3.60724 0
M  V30 13454 O 1292.63 -0.992256 -4.26715 0
M  V30 13455 C 1294.13 0.809014 -4.35855 0
M  V30 13456 H 1291.35 -0.0318426 -0.670244 0
M  V30 13457 H 1293.9 -0.730865 -1.90994 0
M  V30 13458 H 1292.05 0.922842 -3.76248 0
M  V30 13459 H 1292.47 -0.770697 -5.18807 0
M  V30 13460 H 1293.94 0.920428 -5.44272 0
M  V30 13461 H 1294.42 1.81302 -4.00033 0
M  V30 13462 H 1295.02 0.159564 -4.25001 0
M  V30 13463 N 1293.34 1.5542 -0.261239 0
M  V30 13464 C 1294.25 2.25627 0.642625 0
M  V30 13465 C 1295.26 1.27732 1.18155 0
M  V30 13466 O 1296.44 1.60639 1.21479 0
M  V30 13467 C 1293.5 2.95303 1.8165 0
M  V30 13468 C 1292.57 4.08644 1.31563 0
M  V30 13469 C 1291.8 4.74988 2.43355 0
M  V30 13470 O 1292.02 4.40474 3.62407 0
M  V30 13471 O 1290.96 5.63217 2.12299 0
M  V30 13472 H 1294.78 3.03609 0.0743091 0
M  V30 13473 H 1292.37 1.49372 -0.0291754 0
M  V30 13474 H 1294.25 3.3914 2.50125 0
M  V30 13475 H 1292.92 2.2025 2.37217 0
M  V30 13476 H 1291.83 3.69294 0.597746 0
M  V30 13477 H 1293.16 4.85558 0.805878 0
M  V30 13478 N 1294.82 -0.0116844 1.57596 0
M  V30 13479 C 1295.75 -1.04043 2.03102 0
M  V30 13480 C 1296.73 -1.34164 0.918622 0
M  V30 13481 O 1297.91 -1.46527 1.18584 0
M  V30 13482 C 1295.04 -2.37094 2.41876 0
M  V30 13483 C 1294.08 -2.22713 3.63732 0
M  V30 13484 S 1294.92 -1.56416 5.12147 0
M  V30 13485 C 1296.07 -2.90921 5.5418 0
M  V30 13486 H 1296.31 -0.652899 2.90042 0
M  V30 13487 H 1293.84 -0.222201 1.52793 0
M  V30 13488 H 1295.8 -3.13602 2.64885 0
M  V30 13489 H 1294.46 -2.7299 1.55356 0
M  V30 13490 H 1293.65 -3.20976 3.88575 0
M  V30 13491 H 1293.25 -1.54349 3.40665 0
M  V30 13492 H 1295.54 -3.87237 5.55926 0
M  V30 13493 H 1296.49 -2.70792 6.54276 0
M  V30 13494 H 1296.9 -2.94293 4.81717 0
M  V30 13495 N 1296.29 -1.55015 -0.284256 0
M  V30 13496 C 1297.54 -1.7535 -1.01884 0
M  V30 13497 C 1297.87 -0.546825 -1.86342 0
M  V30 13498 O 1297.15 0.455832 -1.89083 0
M  V30 13499 C 1297.43 -3.05219 -1.91084 0
M  V30 13500 C 1297.28 -4.36219 -1.09694 0
M  V30 13501 C 1298.6 -3.31056 -2.89983 0
M  V30 13502 H 1295.72 -0.637981 -0.368984 0
M  V30 13503 H 1298.36 -1.87741 -0.292116 0
M  V30 13504 H 1296.51 -2.94786 -2.53048 0
M  V30 13505 H 1298.19 -4.58594 -0.498876 0
M  V30 13506 H 1296.43 -4.31951 -0.400078 0
M  V30 13507 H 1297.1 -5.23392 -1.75399 0
M  V30 13508 H 1299.58 -3.41209 -2.38151 0
M  V30 13509 H 1298.45 -4.23212 -3.49547 0
M  V30 13510 H 1298.71 -2.50153 -3.64521 0
M  V30 13511 N 1297.77 0.548248 -1.47757 0
M  V30 13512 C 1299 1.335 -1.58722 0
M  V30 13513 C 1299.42 1.86549 -0.241034 0
M  V30 13514 O 1298.78 1.63447 0.784517 0
M  V30 13515 C 1298.83 2.47457 -2.62293 0
M  V30 13516 O 1297.93 3.49956 -2.18185 0
M  V30 13517 H 1297.27 0.396166 -0.532868 0
M  V30 13518 H 1299.8 0.66164 -1.93607 0
M  V30 13519 H 1299.81 2.93901 -2.82995 0
M  V30 13520 H 1298.49 2.08203 -3.60034 0
M  V30 13521 H 1297.06 3.09755 -2.0762 0
M  V30 13522 N 1299.25 1.36039 0.795694 0
M  V30 13523 C 1300.5 1.30112 1.5556 0
M  V30 13524 C 1300.83 -0.121197 1.93821 0
M  V30 13525 O 1300.1 -1.07313 1.62216 0
M  V30 13526 C 1300.39 2.21792 2.8369 0
M  V30 13527 C 1300.24 3.72691 2.51836 0
M  V30 13528 C 1301.56 2.12365 3.85472 0
M  V30 13529 H 1298.68 0.473971 0.564376 0
M  V30 13530 H 1301.32 1.66536 0.91465 0
M  V30 13531 H 1299.47 1.9086 3.38386 0
M  V30 13532 H 1301.14 4.14115 2.0324 0
M  V30 13533 H 1299.38 3.92436 1.84869 0
M  V30 13534 H 1300.06 4.32242 3.43323 0
M  V30 13535 H 1302.53 2.3958 3.40207 0
M  V30 13536 H 1301.41 2.78695 4.72885 0
M  V30 13537 H 1301.67 1.10898 4.27965 0
M  V30 13538 N 1300.73 -1.01913 1.20215 0
M  V30 13539 C 1301.69 -2.08563 0.950481 0
M  V30 13540 C 1302.69 -1.60634 -0.0729659 0
M  V30 13541 O 1303.88 -1.73437 0.162826 0
M  V30 13542 C 1301.01 -3.38171 0.430453 0
M  V30 13543 H 1302.21 -2.32323 1.89647 0
M  V30 13544 H 1299.76 -1.18674 1.01716 0
M  V30 13545 H 1300.49 -3.20086 -0.521126 0
M  V30 13546 H 1300.28 -3.74284 1.1685 0
M  V30 13547 H 1301.77 -4.16702 0.273781 0
M  V30 13548 N 1302.21 -1.00763 -1.2118 0
M  V30 13549 C 1303.45 -0.702542 -1.90882 0
M  V30 13550 C 1303.81 0.758686 -1.7681 0
M  V30 13551 O 1303.1 1.54313 -1.1357 0
M  V30 13552 C 1303.29 -1.06187 -3.41261 0
M  V30 13553 C 1303.12 -2.55648 -3.69965 0
M  V30 13554 C 1301.89 -3.2229 -3.89175 0
M  V30 13555 C 1304.09 -3.53814 -3.73256 0
M  V30 13556 N 1302.07 -4.61075 -4.05319 0
M  V30 13557 C 1303.44 -4.7812 -3.94716 0
M  V30 13558 C 1305.5 -3.47913 -3.56175 0
M  V30 13559 C 1304.2 -5.97242 -4.00867 0
M  V30 13560 C 1306.23 -4.66427 -3.63593 0
M  V30 13561 C 1305.59 -5.89539 -3.85517 0
M  V30 13562 H 1301.69 -0.3086 -0.718533 0
M  V30 13563 H 1304.27 -1.29063 -1.45776 0
M  V30 13564 H 1302.44 -0.502205 -3.8514 0
M  V30 13565 H 1304.18 -0.711246 -3.98401 0
M  V30 13566 H 1300.93 -2.7273 -3.87189 0
M  V30 13567 H 1301.36 -5.33105 -4.17287 0
M  V30 13568 H 1306 -2.53735 -3.38199 0
M  V30 13569 H 1303.72 -6.9181 -4.17642 0
M  V30 13570 H 1307.3 -4.63467 -3.51695 0
M  V30 13571 H 1306.18 -6.79711 -3.91104 0
M  V30 13572 N 1303.68 1.3679 -0.7827 0
M  V30 13573 C 1305.1 1.82006 -0.41603 0
M  V30 13574 C 1305.45 1.65151 1.05922 0
M  V30 13575 O 1304.57 1.1687 1.82127 0
M  V30 13576 C 1305.17 3.30432 -0.748353 0
M  V30 13577 C 1303.73 3.73883 -0.4346 0
M  V30 13578 C 1302.87 2.59159 -0.986505 0
M  V30 13579 H 1305.82 1.25107 -0.976423 0
M  V30 13580 H 1305.84 3.80482 -0.036985 0
M  V30 13581 H 1305.36 3.42667 -1.82212 0
M  V30 13582 H 1303.46 3.67211 0.631401 0
M  V30 13583 H 1303.57 4.69577 -0.950511 0
M  V30 13584 H 1301.93 2.51377 -0.410108 0
M  V30 13585 H 1302.72 2.74182 -2.06589 0
M  V30 13586 N 1305.16 0.53415 1.48272 0
M  V30 13587 C 1306.39 0.00574475 2.06899 0
M  V30 13588 C 1306.81 -1.27754 1.39012 0
M  V30 13589 O 1306.16 -1.76102 0.478993 0
M  V30 13590 C 1306.21 -0.217576 3.60845 0
M  V30 13591 O 1305.93 1.01487 4.26183 0
M  V30 13592 C 1307.44 -0.785888 4.36278 0
M  V30 13593 H 1304.66 0.0353967 0.670066 0
M  V30 13594 H 1307.2 0.740984 1.90603 0
M  V30 13595 H 1305.35 -0.902875 3.76732 0
M  V30 13596 H 1305.77 0.7982 5.18391 0
M  V30 13597 H 1307.24 -0.891551 5.44753 0
M  V30 13598 H 1307.72 -1.79178 4.00989 0
M  V30 13599 H 1308.33 -0.137022 4.25079 0
M  V30 13600 N 1306.64 -1.55279 0.269478 0
M  V30 13601 C 1307.55 -2.25965 -0.63065 0
M  V30 13602 C 1308.57 -1.28357 -1.17476 0
M  V30 13603 O 1309.74 -1.61281 -1.20625 0
M  V30 13604 C 1306.81 -2.96263 -1.80081 0
M  V30 13605 C 1305.87 -4.09336 -1.29394 0
M  V30 13606 C 1305.1 -4.76272 -2.40833 0
M  V30 13607 O 1305.32 -4.42389 -3.60066 0
M  V30 13608 O 1304.26 -5.64334 -2.09309 0
M  V30 13609 H 1308.08 -3.03644 -0.0582069 0
M  V30 13610 H 1305.67 -1.49354 0.0370966 0
M  V30 13611 H 1307.55 -3.40461 -2.48322 0
M  V30 13612 H 1306.23 -2.21505 -2.36045 0
M  V30 13613 H 1305.13 -3.69605 -0.578154 0
M  V30 13614 H 1306.47 -4.85978 -0.780117 0
M  V30 13615 N 1308.12 0.00332656 -1.576 0
M  V30 13616 C 1309.37 0.687508 -1.90047 0
M  V30 13617 C 1309.69 1.74497 -0.870388 0
M  V30 13618 O 1308.96 1.95681 0.0926544 0
M  V30 13619 H 1307.54 0.256924 -0.701426 0
M  V30 13620 H 1310.2 -0.0368129 -1.94865 0
M  V30 13621 H 1309.3 1.16086 -2.89707 0
M  V30 13622 N 1309.6 1.55164 0.276031 0
M  V30 13623 C 1310.84 1.7528 1.00604 0
M  V30 13624 C 1311.17 0.555256 1.86928 0
M  V30 13625 O 1310.44 -0.429917 1.91124 0
M  V30 13626 H 1309.02 0.646377 0.374441 0
M  V30 13627 H 1311.68 1.92562 0.300992 0
M  V30 13628 H 1310.77 2.65245 1.64473 0
M  V30 13629 N 1311.07 -0.540404 1.48045 0
M  V30 13630 C 1312.35 -1.30148 1.46017 0
M  V30 13631 C 1312.73 -2.10445 0.166171 0
M  V30 13632 O 1312.08 -2.12013 -0.852223 0
M  V30 13633 C 1312.29 -2.19177 2.71593 0
M  V30 13634 C 1313.64 -2.79655 3.19497 0
M  V30 13635 O 1314.66 -2.2947 2.72437 0
M  V30 13636 O 1313.52 -3.70912 4.01356 0
M  V30 13637 H 1310.61 -0.586879 0.582668 0
M  V30 13638 H 1313.16 -0.557918 1.60267 0
M  V30 13639 H 1311.93 -1.59556 3.57292 0
M  V30 13640 H 1311.56 -3.00798 2.60012 0
M  V30 13641 N 1312.55 -1.36459 -0.788468 0
M  V30 13642 C 1313.83 -1.21289 -1.53455 0
M  V30 13643 C 1314.21 0.200549 -2.10145 0
M  V30 13644 O 1313.56 1.20629 -1.94064 0
M  V30 13645 C 1313.77 -2.29562 -2.62873 0
M  V30 13646 C 1315.12 -2.66277 -3.30729 0
M  V30 13647 O 1316.14 -2.28612 -2.73157 0
M  V30 13648 O 1315 -3.31106 -4.34777 0
M  V30 13649 H 1312.09 -0.472306 -0.678864 0
M  V30 13650 H 1314.64 -1.48192 -0.826869 0
M  V30 13651 H 1313.41 -3.24286 -2.18984 0
M  V30 13652 H 1313.03 -2.0403 -3.41259 0
M  V30 13653 N 1314.03 1.01274 -1.20754 0
M  V30 13654 C 1314.96 2.11763 -0.983805 0
M  V30 13655 C 1315.94 1.69869 0.0885635 0
M  V30 13656 O 1317.13 1.94075 -0.0697239 0
M  V30 13657 C 1314.26 3.43087 -0.539287 0
M  V30 13658 C 1313.21 3.9874 -1.55534 0
M  V30 13659 C 1312.54 5.25877 -0.967322 0
M  V30 13660 C 1313.84 4.31688 -2.94012 0
M  V30 13661 H 1315.53 2.30737 -1.90789 0
M  V30 13662 H 1313.08 1.10884 -0.918734 0
M  V30 13663 H 1315.03 4.19773 -0.369979 0
M  V30 13664 H 1313.75 3.23883 0.420435 0
M  V30 13665 H 1312.41 3.24166 -1.71207 0
M  V30 13666 H 1312.06 5.03 0.000448307 0
M  V30 13667 H 1311.76 5.64077 -1.64594 0
M  V30 13668 H 1313.28 6.05215 -0.809167 0
M  V30 13669 H 1314.7 4.99246 -2.81827 0
M  V30 13670 H 1313.1 4.81011 -3.58815 0
M  V30 13671 H 1314.17 3.4029 -3.45442 0
M  V30 13672 N 1315.51 1.01404 1.20644 0
M  V30 13673 C 1316.73 0.720839 1.9447 0
M  V30 13674 C 1317.16 -0.711711 1.74116 0
M  V30 13675 O 1316.52 -1.48938 1.03379 0
M  V30 13676 C 1316.57 1.05864 3.4471 0
M  V30 13677 O 1315.67 0.168901 4.12054 0
M  V30 13678 H 1315.01 0.267698 0.607646 0
M  V30 13679 H 1317.54 1.35672 1.53147 0
M  V30 13680 H 1317.55 1.00928 3.9532 0
M  V30 13681 H 1316.23 2.1024 3.58848 0
M  V30 13682 H 1314.8 0.275572 3.7188 0
M  V30 13683 N 1316.99 -1.36373 0.789944 0
M  V30 13684 C 1318.22 -2.03187 0.373987 0
M  V30 13685 C 1318.63 -1.59697 -1.01457 0
M  V30 13686 O 1317.97 -0.782151 -1.66217 0
M  V30 13687 C 1318.03 -3.57703 0.358985 0
M  V30 13688 C 1317.69 -4.24396 1.69521 0
M  V30 13689 C 1318.69 -4.47247 2.65077 0
M  V30 13690 C 1316.38 -4.61858 1.97465 0
M  V30 13691 C 1318.37 -5.06642 3.86772 0
M  V30 13692 C 1316.06 -5.2097 3.19426 0
M  V30 13693 C 1317.06 -5.43302 4.13899 0
M  V30 13694 O 1316.74 -6.01173 5.3371 0
M  V30 13695 H 1316.48 -0.658654 0.152153 0
M  V30 13696 H 1319.03 -1.7532 1.07014 0
M  V30 13697 H 1317.26 -3.84691 -0.39366 0
M  V30 13698 H 1318.95 -4.05887 -0.0323762 0
M  V30 13699 H 1319.71 -4.18701 2.44775 0
M  V30 13700 H 1315.59 -4.438 1.2475 0
M  V30 13701 H 1319.14 -5.23989 4.60523 0
M  V30 13702 H 1315.03 -5.48943 3.39606 0
M  V30 13703 H 1315.8 -6.19638 5.34781 0
M  V30 13704 N 1318.47 -0.542005 -1.47987 0
M  V30 13705 C 1319.69 -0.016717 -2.06893 0
M  V30 13706 C 1320.11 1.27015 -1.39687 0
M  V30 13707 O 1319.47 1.75845 -0.488326 0
M  V30 13708 C 1319.52 0.198437 -3.60955 0
M  V30 13709 O 1319.24 -1.03746 -4.25639 0
M  V30 13710 C 1320.74 0.762741 -4.36689 0
M  V30 13711 H 1317.96 -0.0389497 -0.669869 0
M  V30 13712 H 1320.5 -0.751082 -1.90208 0
M  V30 13713 H 1318.66 0.882884 -3.77205 0
M  V30 13714 H 1319.07 -0.82568 -5.1796 0
M  V30 13715 H 1320.55 0.862649 -5.45218 0
M  V30 13716 H 1321.02 1.77049 -4.01933 0
M  V30 13717 H 1321.63 0.114478 -4.25146 0
M  V30 13718 N 1319.94 1.55134 -0.277709 0
M  V30 13719 C 1320.88 2.20028 0.641913 0
M  V30 13720 C 1321.89 1.18578 1.11549 0
M  V30 13721 O 1323.08 1.45291 1.03695 0
M  V30 13722 C 1320.18 2.81443 1.88794 0
M  V30 13723 C 1319.35 4.08607 1.56074 0
M  V30 13724 C 1318.41 4.54045 2.6595 0
M  V30 13725 O 1317.44 5.19762 2.32026 0
M  V30 13726 N 1318.64 4.24403 3.96058 0
M  V30 13727 H 1321.4 2.99575 0.0864929 0
M  V30 13728 H 1318.96 1.61598 -0.0989178 0
M  V30 13729 H 1320.96 3.08784 2.616 0
M  V30 13730 H 1319.53 2.05873 2.35234 0
M  V30 13731 H 1318.75 3.88527 0.666388 0
M  V30 13732 H 1320.03 4.91455 1.31719 0
M  V30 13733 H 1319.43 3.71708 4.26439 0
M  V30 13734 H 1317.99 4.56509 4.65234 0
M  V30 13735 N 1321.42 0.00503138 1.57599 0
M  V30 13736 C 1322.65 -0.689609 1.95069 0
M  V30 13737 C 1323.06 -1.67028 0.880183 0
M  V30 13738 O 1322.42 -1.81959 -0.140406 0
M  V30 13739 C 1322.47 -1.41709 3.32567 0
M  V30 13740 O 1322.19 -0.475746 4.35509 0
M  V30 13741 C 1323.69 -2.20578 3.84526 0
M  V30 13742 H 1320.91 -0.19175 0.643019 0
M  V30 13743 H 1323.46 0.057646 2.04419 0
M  V30 13744 H 1321.61 -2.11593 3.2451 0
M  V30 13745 H 1322.03 -0.989573 5.1508 0
M  V30 13746 H 1323.5 -2.66969 4.83148 0
M  V30 13747 H 1323.98 -3.03467 3.17497 0
M  V30 13748 H 1324.58 -1.557 3.95775 0
M  V30 13749 N 1322.9 -1.55308 -0.267798 0
M  V30 13750 C 1324.12 -1.80524 -1.02107 0
M  V30 13751 C 1324.55 -0.579268 -1.78958 0
M  V30 13752 O 1323.91 0.471262 -1.75068 0
M  V30 13753 C 1323.96 -3.03248 -1.95123 0
M  V30 13754 O 1323.06 -2.78699 -3.03975 0
M  V30 13755 H 1322.4 -0.596518 -0.291655 0
M  V30 13756 H 1324.93 -2.0246 -0.295128 0
M  V30 13757 H 1324.94 -3.32121 -2.3698 0
M  V30 13758 H 1323.62 -3.92126 -1.386 0
M  V30 13759 H 1322.19 -2.60936 -2.66396 0
M  V30 13760 N 1324.38 0.532545 -1.4833 0
M  V30 13761 C 1325.63 1.28597 -1.55908 0
M  V30 13762 C 1325.95 1.93595 -0.233635 0
M  V30 13763 O 1325.22 1.81197 0.744605 0
M  V30 13764 H 1323.8 0.477619 -0.57436 0
M  V30 13765 H 1326.46 0.619922 -1.84778 0
M  V30 13766 H 1325.55 2.0666 -2.33877 0
M  V30 13767 N 1325.86 1.36875 0.78122 0
M  V30 13768 C 1326.82 1.31706 1.8758 0
M  V30 13769 C 1327.82 0.223044 1.59246 0
M  V30 13770 O 1329.01 0.478327 1.67504 0
M  V30 13771 C 1326.14 1.0437 3.2453 0
M  V30 13772 H 1327.33 2.29059 1.93576 0
M  V30 13773 H 1324.89 1.21766 0.979931 0
M  V30 13774 H 1325.62 0.0750941 3.24213 0
M  V30 13775 H 1325.41 1.83548 3.46486 0
M  V30 13776 H 1326.9 1.0338 4.04602 0
M  V30 13777 N 1327.33 -1.00632 1.21289 0
M  V30 13778 C 1328.26 -2.11238 0.995021 0
M  V30 13779 C 1329.24 -1.69914 -0.0795537 0
M  V30 13780 O 1330.43 -1.94035 0.0800152 0
M  V30 13781 C 1327.56 -3.42797 0.557475 0
M  V30 13782 C 1326.51 -3.97909 1.57646 0
M  V30 13783 C 1325.84 -5.25357 0.995197 0
M  V30 13784 C 1327.14 -4.30123 2.96297 0
M  V30 13785 H 1328.83 -2.29722 1.9201 0
M  V30 13786 H 1326.38 -1.10395 0.924602 0
M  V30 13787 H 1328.33 -4.19571 0.392236 0
M  V30 13788 H 1327.06 -3.24101 -0.403253 0
M  V30 13789 H 1325.72 -3.23254 1.72924 0
M  V30 13790 H 1325.36 -5.02993 0.026227 0
M  V30 13791 H 1325.06 -5.63196 1.67583 0
M  V30 13792 H 1326.59 -6.04777 0.841251 0
M  V30 13793 H 1328 -4.97744 2.8447 0
M  V30 13794 H 1326.4 -4.79101 3.61361 0
M  V30 13795 H 1327.47 -3.38454 3.47242 0
M  V30 13796 N 1328.81 -1.02043 -1.20104 0
M  V30 13797 C 1330.06 -0.713027 -1.89852 0
M  V30 13798 C 1330.39 0.755767 -1.7889 0
M  V30 13799 O 1329.67 1.54948 -1.17564 0
M  V30 13800 C 1329.95 -1.15417 -3.41103 0
M  V30 13801 C 1329.8 -2.68355 -3.60979 0
M  V30 13802 C 1331.12 -0.728389 -4.34031 0
M  V30 13803 H 1328.24 -0.260502 -0.689426 0
M  V30 13804 H 1330.88 -1.26885 -1.41422 0
M  V30 13805 H 1329.03 -0.68127 -3.8248 0
M  V30 13806 H 1330.7 -3.23526 -3.28829 0
M  V30 13807 H 1328.95 -3.09148 -3.04319 0
M  V30 13808 H 1329.62 -2.94276 -4.67018 0
M  V30 13809 H 1332.09 -1.13499 -4.00321 0
M  V30 13810 H 1330.97 -1.06504 -5.38468 0
M  V30 13811 H 1331.23 0.369736 -4.40551 0
M  V30 13812 N 1330.29 1.35952 -0.797165 0
M  V30 13813 C 1331.54 1.99327 -0.373695 0
M  V30 13814 C 1331.87 1.63111 1.05396 0
M  V30 13815 O 1331.14 0.889736 1.72956 0
M  V30 13816 C 1331.43 3.5593 -0.54641 0
M  V30 13817 C 1331.28 4.01975 -2.01832 0
M  V30 13818 C 1332.6 4.40087 0.0337694 0
M  V30 13819 H 1329.72 0.724107 -0.137254 0
M  V30 13820 H 1332.36 1.61248 -1.00495 0
M  V30 13821 H 1330.51 3.88499 -0.00903959 0
M  V30 13822 H 1332.18 3.79859 -2.61735 0
M  V30 13823 H 1330.43 3.5323 -2.51815 0
M  V30 13824 H 1331.1 5.109 -2.09009 0
M  V30 13825 H 1333.57 4.13923 -0.425039 0
M  V30 13826 H 1332.45 5.48775 -0.117054 0
M  V30 13827 H 1332.71 4.27504 1.12661 0
M  V30 13828 N 1331.77 0.549846 1.47697 0
M  V30 13829 C 1333.02 0.0230503 2.02487 0
M  V30 13830 C 1333.34 -1.32382 1.42497 0
M  V30 13831 O 1332.6 -1.87293 0.567441 0
M  V30 13832 C 1332.9 -0.127268 3.57173 0
M  V30 13833 C 1332.56 1.14777 4.36047 0
M  V30 13834 C 1331.23 1.49716 4.57317 0
M  V30 13835 C 1333.58 1.99302 4.81589 0
M  V30 13836 C 1330.91 2.69042 5.21376 0
M  V30 13837 C 1333.26 3.17824 5.46965 0
M  V30 13838 C 1331.92 3.53086 5.66469 0
M  V30 13839 H 1331.19 0.00843471 0.740952 0
M  V30 13840 H 1333.84 0.719876 1.77454 0
M  V30 13841 H 1332.14 -0.907008 3.81157 0
M  V30 13842 H 1333.84 -0.550103 3.97209 0
M  V30 13843 H 1330.43 0.865703 4.19766 0
M  V30 13844 H 1334.61 1.73618 4.64942 0
M  V30 13845 H 1329.87 2.9654 5.34672 0
M  V30 13846 H 1334.04 3.83612 5.81218 0
M  V30 13847 H 1331.67 4.45643 6.15878 0
M  V30 13848 N 1333.25 -1.54984 0.285932 0
M  V30 13849 C 1334.49 -1.9983 -0.327737 0
M  V30 13850 C 1334.82 -1.17435 -1.55046 0
M  V30 13851 O 1334.08 -0.234735 -1.94287 0
M  V30 13852 C 1334.38 -3.49581 -0.7435 0
M  V30 13853 C 1334.04 -4.49331 0.375792 0
M  V30 13854 C 1332.7 -4.76327 0.683103 0
M  V30 13855 C 1335.06 -5.08815 1.12947 0
M  V30 13856 C 1332.38 -5.60071 1.74748 0
M  V30 13857 C 1334.74 -5.93716 2.18366 0
M  V30 13858 C 1333.4 -6.19028 2.4972 0
M  V30 13859 H 1332.67 -0.731231 -0.119928 0
M  V30 13860 H 1335.32 -1.87235 0.401896 0
M  V30 13861 H 1333.62 -3.59708 -1.55298 0
M  V30 13862 H 1335.32 -3.81694 -1.22924 0
M  V30 13863 H 1331.91 -4.28414 0.126159 0
M  V30 13864 H 1336.09 -4.87973 0.905313 0
M  V30 13865 H 1331.35 -5.77925 1.9953 0
M  V30 13866 H 1335.52 -6.38838 2.77233 0
M  V30 13867 H 1333.15 -6.83711 3.3233 0
M  V30 13868 N 1334.72 -0.0133892 -1.57594 0
M  V30 13869 C 1335.95 0.682855 -1.95836 0
M  V30 13870 C 1336.37 1.65763 -0.889049 0
M  V30 13871 O 1335.73 1.80665 0.151585 0
M  V30 13872 C 1335.78 1.37931 -3.33178 0
M  V30 13873 O 1334.88 2.49416 -3.28429 0
M  V30 13874 H 1334.23 0.180629 -0.638959 0
M  V30 13875 H 1336.76 -0.0705644 -2.04478 0
M  V30 13876 H 1336.77 1.73969 -3.69051 0
M  V30 13877 H 1335.44 0.664675 -4.10554 0
M  V30 13878 H 1334.02 2.15606 -3.04251 0
M  V30 13879 N 1336.2 1.55448 0.259558 0
M  V30 13880 C 1337.13 1.9226 1.32508 0
M  V30 13881 C 1338.11 0.786012 1.5085 0
M  V30 13882 O 1339.3 1.04526 1.6367 0
M  V30 13883 C 1336.43 2.20627 2.68218 0
M  V30 13884 C 1335.38 3.36418 2.64589 0
M  V30 13885 C 1334.71 3.50295 4.03977 0
M  V30 13886 C 1336.01 4.72452 2.2268 0
M  V30 13887 H 1337.7 2.81509 1.01945 0
M  V30 13888 H 1335.25 1.35444 0.488965 0
M  V30 13889 H 1337.2 2.44968 3.42883 0
M  V30 13890 H 1335.93 1.28191 3.00391 0
M  V30 13891 H 1334.58 3.12065 1.92382 0
M  V30 13892 H 1334.23 2.55302 4.33394 0
M  V30 13893 H 1333.93 4.28155 4.02439 0
M  V30 13894 H 1335.46 3.76944 4.8036 0
M  V30 13895 H 1336.87 4.96249 2.87071 0
M  V30 13896 H 1335.27 5.53323 2.32279 0
M  V30 13897 H 1336.34 4.70367 1.17826 0
M  V30 13898 N 1337.68 -0.524672 1.4861 0
M  V30 13899 C 1339.1 -0.853703 1.34848 0
M  V30 13900 C 1339.3 -1.98194 0.363529 0
M  V30 13901 O 1338.35 -2.51597 -0.213348 0
M  V30 13902 C 1339.67 -1.21622 2.75006 0
M  V30 13903 C 1341.21 -1.3258 2.83534 0
M  V30 13904 C 1341.69 -1.72172 4.24406 0
M  V30 13905 N 1343.18 -1.79265 4.27105 0
M  V30 13906 C 1343.91 -2.11296 5.33049 0
M  V30 13907 N 1343.41 -2.41714 6.49266 0
M  V30 13908 N 1345.2 -2.12347 5.20447 0
M  V30 13909 H 1337.35 0.219671 2.11261 0
M  V30 13910 H 1339.62 0.0356444 0.94733 0
M  V30 13911 H 1339.32 -0.460776 3.48669 0
M  V30 13912 H 1339.2 -2.16516 3.0887 0
M  V30 13913 H 1341.58 -2.072 2.10124 0
M  V30 13914 H 1341.67 -0.357943 2.53283 0
M  V30 13915 H 1341.31 -0.981108 4.98334 0
M  V30 13916 H 1341.24 -2.70017 4.52104 0
M  V30 13917 H 1343.73 -1.58013 3.43279 0
M  V30 13918 H 1344.04 -2.65276 7.25843 0
M  V30 13919 H 1342.39 -2.39222 6.52532 0
M  V30 13920 H 1345.58 -1.88044 4.28669 0
M  V30 13921 H 1345.75 -2.36978 6.03113 0
M  V30 13922 N 1339.16 -1.37287 -0.77395 0
M  V30 13923 C 1340.4 -1.3257 -1.5347 0
M  V30 13924 C 1340.74 0.090346 -1.9399 0
M  V30 13925 O 1340.01 1.04719 -1.63903 0
M  V30 13926 C 1340.3 -2.26277 -2.80126 0
M  V30 13927 C 1340.15 -3.76651 -2.45874 0
M  V30 13928 C 1341.47 -2.18471 -3.82045 0
M  V30 13929 H 1338.59 -0.48289 -0.556764 0
M  V30 13930 H 1341.23 -1.6797 -0.888039 0
M  V30 13931 H 1339.38 -1.96219 -3.35306 0
M  V30 13932 H 1341.05 -4.17296 -1.96626 0
M  V30 13933 H 1339.29 -3.95327 -1.78602 0
M  V30 13934 H 1339.96 -4.3765 -3.36403 0
M  V30 13935 H 1342.44 -2.44962 -3.36352 0
M  V30 13936 H 1341.32 -2.86183 -4.68392 0
M  V30 13937 H 1341.58 -1.17692 -4.26147 0
M  V30 13938 N 1340.64 0.999871 -1.21821 0
M  V30 13939 C 1341.86 1.77405 -1.06467 0
M  V30 13940 C 1342.28 1.84828 0.385227 0
M  V30 13941 O 1341.64 1.31338 1.26714 0
M  V30 13942 C 1341.69 3.21062 -1.66137 0
M  V30 13943 O 1341.41 3.14054 -3.05454 0
M  V30 13944 C 1342.91 4.14958 -1.55963 0
M  V30 13945 H 1340.13 0.557368 -0.373607 0
M  V30 13946 H 1342.67 1.2575 -1.61267 0
M  V30 13947 H 1340.83 3.69808 -1.15416 0
M  V30 13948 H 1341.24 4.04346 -3.34073 0
M  V30 13949 H 1342.72 5.13536 -2.02448 0
M  V30 13950 H 1343.19 4.36171 -0.514949 0
M  V30 13951 H 1343.8 3.72105 -2.05956 0
M  V30 13952 N 1342.11 1.02678 1.19562 0
M  V30 13953 C 1343.06 0.599259 2.24748 0
M  V30 13954 C 1344.06 -0.367079 1.65375 0
M  V30 13955 O 1345.26 -0.235887 1.78448 0
M  V30 13956 H 1341.64 0.175517 0.73123 0
M  V30 13957 H 1343.61 1.4971 2.58127 0
M  V30 13958 C 1342.36 -0.0362515 3.47681 0
M  V30 13959 H 1341.68 0.698343 3.93654 0
M  V30 13960 H 1343.12 -0.298361 4.22949 0
M  V30 13961 C 1341.58 -1.28218 3.11547 0
M  V30 13962 O 1342.11 -2.37446 3.24009 0
M  V30 13963 N 1340.32 -1.17014 2.66 0
M  V30 13964 H 1339.86 -0.28132 2.56059 0
M  V30 13965 H 1339.82 -2.00473 2.42194 0
M  V30 13966 N 1343.59 -1.35528 0.804364 0
M  V30 13967 C 1344.53 -2.27647 0.158767 0
M  V30 13968 C 1345.5 -1.47976 -0.673942 0
M  V30 13969 O 1346.69 -1.77241 -0.641703 0
M  V30 13970 C 1343.81 -3.29597 -0.779973 0
M  V30 13971 C 1342.86 -4.26491 -0.0271676 0
M  V30 13972 S 1343.69 -5.19296 1.30736 0
M  V30 13973 C 1344.85 -6.24788 0.373003 0
M  V30 13974 H 1345.08 -2.82055 0.939805 0
M  V30 13975 H 1342.62 -1.42294 0.599313 0
M  V30 13976 H 1344.57 -3.88831 -1.31609 0
M  V30 13977 H 1343.23 -2.74072 -1.53438 0
M  V30 13978 H 1342.43 -4.98537 -0.740059 0
M  V30 13979 H 1342.03 -3.71415 0.438923 0
M  V30 13980 H 1344.32 -6.76053 -0.442566 0
M  V30 13981 H 1345.26 -7.00082 1.06258 0
M  V30 13982 H 1345.67 -5.64492 -0.0303131 0
M  V30 13983 N 1345.07 -0.557671 -1.47404 0
M  V30 13984 C 1346 0.237612 -2.2696 0
M  V30 13985 C 1346.98 0.919871 -1.34079 0
M  V30 13986 O 1348.17 0.938767 -1.63461 0
M  V30 13987 C 1345.29 1.33863 -3.11124 0
M  V30 13988 C 1344.34 0.764877 -4.19585 0
M  V30 13989 S 1345.17 -0.388893 -5.34086 0
M  V30 13990 C 1346.33 0.713932 -6.21815 0
M  V30 13991 H 1346.56 -0.437477 -2.94064 0
M  V30 13992 H 1344.09 -0.344004 -1.50519 0
M  V30 13993 H 1346.05 1.96917 -3.60186 0
M  V30 13994 H 1344.71 1.98556 -2.43381 0
M  V30 13995 H 1343.91 1.5917 -4.78206 0
M  V30 13996 H 1343.51 0.210502 -3.73407 0
M  V30 13997 H 1345.8 1.60592 -6.58192 0
M  V30 13998 H 1346.74 0.165069 -7.07908 0
M  V30 13999 H 1347.15 1.00681 -5.55449 0
M  V30 14000 N 1346.55 1.54831 -0.294147 0
M  V30 14001 C 1347.8 2.00001 0.317135 0
M  V30 14002 C 1348.12 1.18256 1.54421 0
M  V30 14003 O 1347.38 0.245035 1.9416 0
M  V30 14004 C 1347.68 3.4997 0.72495 0
M  V30 14005 C 1347.34 4.49126 -0.399616 0
M  V30 14006 C 1346.01 4.75958 -0.708354 0
M  V30 14007 C 1348.36 5.08208 -1.15644 0
M  V30 14008 C 1345.69 5.59137 -1.77716 0
M  V30 14009 C 1348.04 5.9255 -2.21512 0
M  V30 14010 C 1346.7 6.17695 -2.52999 0
M  V30 14011 H 1345.97 0.731856 0.116048 0
M  V30 14012 H 1348.62 1.87019 -0.41182 0
M  V30 14013 H 1346.92 3.60526 1.53388 0
M  V30 14014 H 1348.62 3.82341 1.20898 0
M  V30 14015 H 1345.21 4.28341 -0.148877 0
M  V30 14016 H 1349.4 4.87486 -0.931178 0
M  V30 14017 H 1344.65 5.76859 -2.02592 0
M  V30 14018 H 1348.83 6.37359 -2.80617 0
M  V30 14019 H 1346.45 6.81939 -3.35951 0
M  V30 14020 N 1348.03 0.0217466 1.57585 0
M  V30 14021 C 1349.25 -0.67246 1.96196 0
M  V30 14022 C 1349.68 -1.6529 0.897827 0
M  V30 14023 O 1349.04 -1.80743 -0.142002 0
M  V30 14024 C 1349.08 -1.36162 3.33905 0
M  V30 14025 O 1348.19 -2.47671 3.29747 0
M  V30 14026 H 1347.53 -0.177238 0.639908 0
M  V30 14027 H 1350.06 0.0814073 2.04438 0
M  V30 14028 H 1350.07 -1.7201 3.69968 0
M  V30 14029 H 1348.74 -0.642893 4.10901 0
M  V30 14030 H 1347.32 -2.13989 3.0539 0
M  V30 14031 N 1349.51 -1.55583 -0.251311 0
M  V30 14032 C 1350.42 -1.93073 -1.33266 0
M  V30 14033 C 1351.43 -0.830612 -1.52895 0
M  V30 14034 O 1352.61 -1.13162 -1.66602 0
M  V30 14035 C 1349.67 -2.21396 -2.66805 0
M  V30 14036 C 1348.73 -3.44815 -2.55737 0
M  V30 14037 C 1347.97 -3.71777 -3.82907 0
M  V30 14038 O 1348.19 -3.00884 -4.84587 0
M  V30 14039 O 1347.12 -4.65305 -3.81805 0
M  V30 14040 H 1350.95 -2.85168 -1.04465 0
M  V30 14041 H 1348.53 -1.42408 -0.451693 0
M  V30 14042 H 1350.42 -2.4094 -3.45725 0
M  V30 14043 H 1349.09 -1.3248 -2.95348 0
M  V30 14044 H 1348 -3.30582 -1.75118 0
M  V30 14045 H 1349.33 -4.34019 -2.32139 0
M  V30 14046 N 1350.98 0.516783 -1.48886 0
M  V30 14047 C 1352.26 1.27808 -1.48069 0
M  V30 14048 C 1352.64 2.10154 -0.19963 0
M  V30 14049 O 1351.99 2.13342 0.818386 0
M  V30 14050 C 1352.2 2.14828 -2.75045 0
M  V30 14051 C 1353.55 2.74536 -3.23906 0
M  V30 14052 O 1354.57 2.25107 -2.76053 0
M  V30 14053 O 1353.43 3.6448 -4.07206 0
M  V30 14054 H 1350.52 0.577535 -0.591931 0
M  V30 14055 H 1353.07 0.532351 -1.61134 0
M  V30 14056 H 1351.84 1.53852 -3.59785 0
M  V30 14057 H 1351.46 2.96624 -2.64764 0
M  V30 14058 N 1352.46 1.37696 0.766659 0
M  V30 14059 C 1353.39 1.36576 1.89392 0
M  V30 14060 C 1354.37 0.233597 1.68488 0
M  V30 14061 O 1355.56 0.434719 1.89272 0
M  V30 14062 C 1352.69 1.17705 3.26746 0
M  V30 14063 C 1351.64 2.27987 3.62224 0
M  V30 14064 C 1350.97 1.94235 4.98174 0
M  V30 14065 C 1352.27 3.70195 3.68447 0
M  V30 14066 H 1353.96 2.30905 1.90587 0
M  V30 14067 H 1351.51 1.11148 0.915538 0
M  V30 14068 H 1353.46 1.15551 4.05248 0
M  V30 14069 H 1352.18 0.198334 3.25997 0
M  V30 14070 H 1350.84 2.29306 2.86032 0
M  V30 14071 H 1350.49 0.948796 4.93971 0
M  V30 14072 H 1350.19 2.68086 5.2288 0
M  V30 14073 H 1351.72 1.93676 5.7907 0
M  V30 14074 H 1353.13 3.70978 4.37091 0
M  V30 14075 H 1351.53 4.43142 4.04654 0
M  V30 14076 H 1352.6 4.03453 2.68986 0
M  V30 14077 N 1353.94 -0.993397 1.22349 0
M  V30 14078 C 1355.19 -1.73287 1.04775 0
M  V30 14079 C 1355.51 -1.89973 -0.417201 0
M  V30 14080 O 1354.77 -1.43966 -1.32561 0
M  V30 14081 C 1355.07 -3.14191 1.70349 0
M  V30 14082 C 1354.73 -3.17421 3.20241 0
M  V30 14083 C 1353.4 -3.1801 3.61141 0
M  V30 14084 C 1355.75 -3.13751 4.16185 0
M  V30 14085 C 1353.08 -3.12628 4.96468 0
M  V30 14086 C 1355.43 -3.09911 5.51487 0
M  V30 14087 C 1354.09 -3.08815 5.91768 0
M  V30 14088 H 1353.36 -0.634102 0.3834 0
M  V30 14089 H 1356.01 -1.16346 1.52105 0
M  V30 14090 H 1354.31 -3.74437 1.15343 0
M  V30 14091 H 1356.01 -3.70149 1.54242 0
M  V30 14092 H 1352.6 -3.17713 2.87674 0
M  V30 14093 H 1356.79 -3.12446 3.85605 0
M  V30 14094 H 1352.04 -3.10125 5.26909 0
M  V30 14095 H 1356.22 -3.06026 6.25556 0
M  V30 14096 H 1353.84 -3.044 6.96595 0
M  V30 14097 N 1355.42 -1.03311 -1.19015 0
M  V30 14098 C 1356.37 -0.611169 -2.24427 0
M  V30 14099 C 1357.36 0.358303 -1.65567 0
M  V30 14100 O 1358.57 0.22642 -1.7857 0
M  V30 14101 H 1354.94 -0.179393 -0.730289 0
M  V30 14102 H 1356.91 -1.51077 -2.57329 0
M  V30 14103 C 1355.66 0.0178126 -3.47695 0
M  V30 14104 H 1354.98 -0.71921 -3.93278 0
M  V30 14105 H 1356.42 0.275926 -4.23101 0
M  V30 14106 C 1354.88 1.26564 -3.12223 0
M  V30 14107 O 1355.41 2.35725 -3.25264 0
M  V30 14108 N 1353.62 1.15602 -2.66617 0
M  V30 14109 H 1353.17 0.267736 -2.56205 0
M  V30 14110 H 1353.12 1.99186 -2.43254 0
M  V30 14111 N 1356.9 1.35099 -0.81154 0
M  V30 14112 C 1357.84 2.29717 -0.223372 0
M  V30 14113 C 1358.81 1.53049 0.645396 0
M  V30 14114 O 1360 1.81467 0.589436 0
M  V30 14115 C 1357.14 3.3952 0.618057 0
M  V30 14116 C 1356.25 4.31145 -0.271693 0
M  V30 14117 C 1355.39 5.28044 0.578214 0
M  V30 14118 C 1354.42 6.11306 -0.311628 0
M  V30 14119 N 1353.56 7.00328 0.498539 0
M  V30 14120 H 1358.4 2.79426 -1.03563 0
M  V30 14121 H 1355.94 1.37518 -0.522231 0
M  V30 14122 H 1357.9 4.01854 1.12111 0
M  V30 14123 H 1356.53 2.91075 1.39554 0
M  V30 14124 H 1355.58 3.69773 -0.892885 0
M  V30 14125 H 1356.89 4.89545 -0.956392 0
M  V30 14126 H 1356.04 5.95774 1.1462 0
M  V30 14127 H 1354.78 4.70152 1.29646 0
M  V30 14128 H 1353.79 5.42518 -0.891849 0
M  V30 14129 H 1355.01 6.71277 -1.02781 0
M  V30 14130 H 1352.96 6.44919 1.20067 0
M  V30 14131 H 1352.88 7.55892 -0.12801 0
M  V30 14132 H 1354.14 7.72401 1.04965 0
M  V30 14133 N 1358.37 0.56548 1.47106 0
M  V30 14134 C 1359.32 -0.190542 2.31818 0
M  V30 14135 C 1360.32 -0.901279 1.43434 0
M  V30 14136 O 1361.52 -0.821625 1.60154 0
M  V30 14137 H 1357.9 -0.0803183 0.747698 0
M  V30 14138 H 1359.87 0.542999 2.93418 0
M  V30 14139 C 1358.62 -1.20208 3.2626 0
M  V30 14140 H 1357.94 -0.664608 3.94237 0
M  V30 14141 H 1359.38 -1.7018 3.88349 0
M  V30 14142 C 1357.84 -2.25423 2.50372 0
M  V30 14143 O 1358.37 -3.3249 2.25418 0
M  V30 14144 N 1356.57 -1.9957 2.11235 0
M  V30 14145 H 1356.12 -1.12513 2.31729 0
M  V30 14146 H 1356.08 -2.70182 1.60777 0
M  V30 14147 N 1359.85 -1.54672 0.302354 0
M  V30 14148 C 1361.08 -2.05041 -0.311891 0
M  V30 14149 C 1361.5 -1.17814 -1.46634 0
M  V30 14150 O 1360.86 -0.182517 -1.80379 0
M  V30 14151 C 1360.91 -3.52831 -0.744489 0
M  V30 14152 O 1360.01 -3.68621 -1.84913 0
M  V30 14153 H 1359.35 -0.661255 -0.0603102 0
M  V30 14154 H 1361.88 -1.99711 0.444593 0
M  V30 14155 H 1361.89 -3.94708 -1.03293 0
M  V30 14156 H 1360.57 -4.1578 0.0999976 0
M  V30 14157 H 1359.15 -3.38649 -1.56113 0
M  V30 14158 N 1361.33 -0.0301034 -1.57571 0
M  V30 14159 C 1362.26 0.94977 -2.13311 0
M  V30 14160 C 1363.24 1.33865 -1.04948 0
M  V30 14161 O 1364.43 1.4171 -1.32786 0
M  V30 14162 C 1361.56 2.23178 -2.66099 0
M  V30 14163 C 1360.51 1.98362 -3.79258 0
M  V30 14164 C 1359.84 3.32836 -4.18479 0
M  V30 14165 C 1361.14 1.32201 -5.05292 0
M  V30 14166 H 1362.83 0.485562 -2.95436 0
M  V30 14167 H 1360.38 0.232116 -1.42117 0
M  V30 14168 H 1362.33 2.92108 -3.03728 0
M  V30 14169 H 1361.05 2.71766 -1.81137 0
M  V30 14170 H 1359.71 1.31849 -3.42069 0
M  V30 14171 H 1359.36 3.79185 -3.30496 0
M  V30 14172 H 1359.06 3.17037 -4.94733 0
M  V30 14173 H 1360.58 4.03032 -4.58691 0
M  V30 14174 H 1362 1.91133 -5.40501 0
M  V30 14175 H 1360.4 1.26797 -5.86551 0
M  V30 14176 H 1361.47 0.29511 -4.84001 0
M  V30 14177 N 1362.81 1.55714 0.243056 0
M  V30 14178 C 1363.72 1.93777 1.32241 0
M  V30 14179 C 1364.73 0.838709 1.52452 0
M  V30 14180 O 1365.91 1.14044 1.66 0
M  V30 14181 C 1362.98 2.22808 2.65627 0
M  V30 14182 C 1362.04 3.46166 2.53904 0
M  V30 14183 C 1361.27 3.73802 3.8093 0
M  V30 14184 O 1361.49 3.0345 4.82985 0
M  V30 14185 O 1360.43 4.67323 3.79332 0
M  V30 14186 H 1364.25 2.85718 1.02951 0
M  V30 14187 H 1361.84 1.42646 0.444135 0
M  V30 14188 H 1363.72 2.4277 3.44442 0
M  V30 14189 H 1362.39 1.34045 2.94642 0
M  V30 14190 H 1361.3 3.31506 1.73362 0
M  V30 14191 H 1362.63 4.35244 2.29834 0
M  V30 14192 N 1364.29 -0.50888 1.49158 0
M  V30 14193 C 1365.52 -1.28585 1.61708 0
M  V30 14194 C 1365.92 -1.87047 0.284629 0
M  V30 14195 O 1365.27 -1.68182 -0.738959 0
M  V30 14196 C 1365.33 -2.46043 2.62113 0
M  V30 14197 C 1364.99 -2.0851 4.0666 0
M  V30 14198 C 1365.99 -1.62943 4.93706 0
M  V30 14199 C 1363.68 -2.18386 4.52342 0
M  V30 14200 C 1365.67 -1.27747 6.24467 0
M  V30 14201 C 1363.36 -1.82801 5.83118 0
M  V30 14202 C 1364.35 -1.37555 6.69005 0
M  V30 14203 O 1364.04 -1.02447 7.97345 0
M  V30 14204 H 1363.77 -0.396504 0.547504 0
M  V30 14205 H 1366.33 -0.61834 1.95872 0
M  V30 14206 H 1364.56 -3.15844 2.23113 0
M  V30 14207 H 1366.25 -3.08081 2.64275 0
M  V30 14208 H 1367.01 -1.54766 4.59644 0
M  V30 14209 H 1362.89 -2.52556 3.85664 0
M  V30 14210 H 1366.44 -0.923589 6.91459 0
M  V30 14211 H 1362.33 -1.90626 6.16711 0
M  V30 14212 H 1363.1 -1.15663 8.10287 0
M  V30 14213 N 1365.76 -1.381 -0.759346 0
M  V30 14214 C 1366.71 -1.34866 -1.87296 0
M  V30 14215 C 1367.68 -0.212139 -1.6474 0
M  V30 14216 O 1368.87 -0.403464 -1.86485 0
M  V30 14217 C 1366.01 -1.17383 -3.24523 0
M  V30 14218 C 1365.12 -2.40372 -3.5895 0
M  V30 14219 C 1364.25 -2.15665 -4.8545 0
M  V30 14220 C 1363.29 -3.34455 -5.12646 0
M  V30 14221 N 1362.43 -3.0922 -6.30339 0
M  V30 14222 H 1367.27 -2.30072 -1.89396 0
M  V30 14223 H 1364.81 -1.14314 -0.925788 0
M  V30 14224 H 1366.77 -1.05264 -4.03702 0
M  V30 14225 H 1365.4 -0.258182 -3.21766 0
M  V30 14226 H 1364.45 -2.63185 -2.74659 0
M  V30 14227 H 1365.76 -3.28926 -3.74978 0
M  V30 14228 H 1364.91 -2.00649 -5.7256 0
M  V30 14229 H 1363.65 -1.24467 -4.7155 0
M  V30 14230 H 1362.66 -3.49997 -4.24007 0
M  V30 14231 H 1363.88 -4.26521 -5.28448 0
M  V30 14232 H 1361.83 -2.20664 -6.17773 0
M  V30 14233 H 1361.75 -3.91321 -6.46841 0
M  V30 14234 H 1363.01 -2.97847 -7.20352 0
M  V30 14235 N 1367.24 0.986894 -1.22875 0
M  V30 14236 C 1368.21 2.0597 -1.00544 0
M  V30 14237 C 1369.21 1.60771 0.0303509 0
M  V30 14238 O 1370.4 1.72945 -0.208753 0
M  V30 14239 C 1367.53 3.36911 -0.519962 0
M  V30 14240 H 1368.72 2.27213 -1.9574 0
M  V30 14241 H 1366.27 1.15935 -1.04827 0
M  V30 14242 H 1367.01 3.21355 0.436078 0
M  V30 14243 H 1366.79 3.71054 -1.26732 0
M  V30 14244 H 1368.28 4.15829 -0.384166 0
M  V30 14245 N 1368.72 1.0394 1.18466 0
M  V30 14246 C 1369.65 0.650182 2.24265 0
M  V30 14247 C 1370.63 -0.345968 1.66545 0
M  V30 14248 O 1371.82 -0.226348 1.92876 0
M  V30 14249 C 1368.95 0.0110451 3.47298 0
M  V30 14250 C 1367.9 0.930599 4.17761 0
M  V30 14251 C 1367.23 0.156005 5.34472 0
M  V30 14252 C 1368.53 2.24913 4.71393 0
M  V30 14253 H 1370.22 1.53465 2.57078 0
M  V30 14254 H 1367.77 0.739343 1.23571 0
M  V30 14255 H 1369.72 -0.272959 4.20515 0
M  V30 14256 H 1368.44 -0.908288 3.13716 0
M  V30 14257 H 1367.1 1.19897 3.4644 0
M  V30 14258 H 1366.75 -0.765695 4.97138 0
M  V30 14259 H 1366.45 0.768606 5.82551 0
M  V30 14260 H 1367.97 -0.121011 6.1048 0
M  V30 14261 H 1369.39 2.02592 5.36311 0
M  V30 14262 H 1367.79 2.81459 5.30001 0
M  V30 14263 H 1368.86 2.8965 3.88884 0
M  V30 14264 N 1370.2 -1.34667 0.818693 0
M  V30 14265 C 1371.11 -2.33375 0.239429 0
M  V30 14266 C 1372.12 -1.62428 -0.623957 0
M  V30 14267 O 1373.3 -1.94223 -0.532854 0
M  V30 14268 C 1370.37 -3.41598 -0.59258 0
M  V30 14269 C 1369.43 -4.28301 0.292712 0
M  V30 14270 C 1368.66 -5.31356 -0.499682 0
M  V30 14271 O 1368.88 -5.43426 -1.73334 0
M  V30 14272 O 1367.82 -6.01789 0.115778 0
M  V30 14273 H 1371.64 -2.84738 1.05631 0
M  V30 14274 H 1369.23 -1.37651 0.58074 0
M  V30 14275 H 1371.11 -4.07692 -1.06607 0
M  V30 14276 H 1369.78 -2.92486 -1.38685 0
M  V30 14277 H 1368.69 -3.65145 0.81361 0
M  V30 14278 H 1370.02 -4.80843 1.05123 0
M  V30 14279 N 1371.68 -0.573274 -1.46804 0
M  V30 14280 C 1372.61 0.20305 -2.28299 0
M  V30 14281 C 1373.62 0.864367 -1.37958 0
M  V30 14282 O 1374.81 0.735516 -1.62642 0
M  V30 14283 C 1371.91 1.30633 -3.12711 0
M  V30 14284 C 1371.08 0.738741 -4.31116 0
M  V30 14285 C 1370.14 1.72853 -4.96999 0
M  V30 14286 O 1369.17 1.2683 -5.5489 0
M  V30 14287 N 1370.37 3.06239 -4.93151 0
M  V30 14288 H 1373.14 -0.496086 -2.95566 0
M  V30 14289 H 1370.7 -0.410411 -1.56612 0
M  V30 14290 H 1372.69 1.96755 -3.53652 0
M  V30 14291 H 1371.26 1.90846 -2.47581 0
M  V30 14292 H 1370.48 -0.0996941 -3.94074 0
M  V30 14293 H 1371.77 0.339154 -5.07668 0
M  V30 14294 H 1371.16 3.46262 -4.47347 0
M  V30 14295 H 1369.72 3.67876 -5.38062 0
M  V30 14296 N 1373.15 1.5451 -0.310553 0
M  V30 14297 C 1374.57 1.59543 0.0425296 0
M  V30 14298 C 1374.77 1.32737 1.51602 0
M  V30 14299 O 1373.83 1.10543 2.27016 0
M  V30 14300 C 1375.14 2.98489 -0.364002 0
M  V30 14301 C 1376.69 3.11425 -0.313566 0
M  V30 14302 C 1377.16 4.52695 -0.695064 0
M  V30 14303 N 1378.65 4.58645 -0.647966 0
M  V30 14304 C 1379.39 5.66044 -0.915508 0
M  V30 14305 N 1378.88 6.81439 -1.24951 0
M  V30 14306 N 1380.68 5.55759 -0.841933 0
M  V30 14307 H 1372.83 1.70194 -1.27074 0
M  V30 14308 H 1375.09 0.795374 -0.515833 0
M  V30 14309 H 1374.8 3.23061 -1.39012 0
M  V30 14310 H 1374.67 3.76177 0.27756 0
M  V30 14311 H 1377.06 2.86596 0.703326 0
M  V30 14312 H 1377.14 2.35871 -0.989883 0
M  V30 14313 H 1376.78 4.78255 -1.70981 0
M  V30 14314 H 1376.71 5.266 0.00342684 0
M  V30 14315 H 1379.2 3.75765 -0.401137 0
M  V30 14316 H 1379.52 7.59277 -1.43938 0
M  V30 14317 H 1377.86 6.82968 -1.28764 0
M  V30 14318 H 1381.05 4.64486 -0.58058 0
M  V30 14319 H 1381.23 6.39374 -1.0538 0
M  V30 14320 N 1374.63 0.0384594 1.57553 0
M  V30 14321 C 1375.88 -0.63814 1.92182 0
M  V30 14322 C 1376.21 -1.71595 0.915714 0
M  V30 14323 O 1375.46 -1.9556 -0.0739533 0
M  V30 14324 C 1375.76 -1.28439 3.33524 0
M  V30 14325 C 1375.43 -0.336034 4.49646 0
M  V30 14326 C 1374.09 -0.0750373 4.81141 0
M  V30 14327 C 1376.44 0.314642 5.20249 0
M  V30 14328 C 1373.77 0.844286 5.80593 0
M  V30 14329 C 1376.12 1.22208 6.20684 0
M  V30 14330 C 1374.79 1.49187 6.50615 0
M  V30 14331 H 1374.06 -0.233512 0.703245 0
M  V30 14332 H 1376.7 0.102223 1.91227 0
M  V30 14333 H 1375.01 -2.09973 3.30785 0
M  V30 14334 H 1376.71 -1.81462 3.57593 0
M  V30 14335 H 1373.3 -0.549638 4.25061 0
M  V30 14336 H 1377.48 0.126074 4.9614 0
M  V30 14337 H 1372.74 1.06092 6.02125 0
M  V30 14338 H 1376.91 1.7324 6.74508 0
M  V30 14339 H 1374.54 2.20588 7.27492 0
M  V30 14340 N 1376.11 -1.55841 -0.234795 0
M  V30 14341 C 1377.04 -1.94344 -1.29432 0
M  V30 14342 C 1378.02 -0.809912 -1.49581 0
M  V30 14343 O 1379.21 -1.07117 -1.61986 0
M  V30 14344 C 1376.34 -2.24866 -2.64675 0
M  V30 14345 C 1375.29 -3.40584 -2.59203 0
M  V30 14346 C 1374.62 -3.56678 -3.98353 0
M  V30 14347 C 1375.92 -4.75935 -2.15135 0
M  V30 14348 H 1377.61 -2.83096 -0.97454 0
M  V30 14349 H 1375.16 -1.36205 -0.467355 0
M  V30 14350 H 1377.11 -2.50392 -3.38942 0
M  V30 14351 H 1375.83 -1.32953 -2.98314 0
M  V30 14352 H 1374.49 -3.15087 -1.87393 0
M  V30 14353 H 1374.14 -2.62164 -4.29277 0
M  V30 14354 H 1373.84 -4.34503 -3.95577 0
M  V30 14355 H 1375.37 -3.84538 -4.74302 0
M  V30 14356 H 1376.78 -5.00753 -2.7914 0
M  V30 14357 H 1375.18 -5.56949 -2.23446 0
M  V30 14358 H 1376.25 -4.72182 -1.10328 0
M  V30 14359 N 1377.59 0.500963 -1.49426 0
M  V30 14360 C 1378.5 1.62889 -1.68833 0
M  V30 14361 C 1379.52 1.64367 -0.570932 0
M  V30 14362 O 1380.69 1.82786 -0.845641 0
M  V30 14363 C 1377.76 2.99255 -1.75063 0
M  V30 14364 C 1376.82 3.08404 -2.9864 0
M  V30 14365 C 1376.05 4.38266 -3.04564 0
M  V30 14366 O 1376.27 5.27065 -2.1808 0
M  V30 14367 O 1375.21 4.52387 -3.97026 0
M  V30 14368 H 1379.03 1.49446 -2.64385 0
M  V30 14369 H 1376.62 0.677254 -1.33168 0
M  V30 14370 H 1378.5 3.80303 -1.81515 0
M  V30 14371 H 1377.18 3.1296 -0.826896 0
M  V30 14372 H 1376.08 2.26544 -2.97706 0
M  V30 14373 H 1377.42 2.99626 -3.90494 0
M  V30 14374 N 1379.07 1.38501 0.752011 0
M  V30 14375 C 1380 1.38577 1.87933 0
M  V30 14376 C 1380.98 0.251454 1.68231 0
M  V30 14377 O 1382.16 0.45477 1.888 0
M  V30 14378 C 1379.29 1.21164 3.25479 0
M  V30 14379 C 1378.25 2.31816 3.59785 0
M  V30 14380 C 1377.57 1.99508 4.96085 0
M  V30 14381 C 1378.87 3.74082 3.645 0
M  V30 14382 H 1380.57 2.32913 1.88127 0
M  V30 14383 H 1378.11 1.12113 0.903698 0
M  V30 14384 H 1380.07 1.19842 4.04 0
M  V30 14385 H 1378.79 0.232899 3.25769 0
M  V30 14386 H 1377.45 2.32327 2.83584 0
M  V30 14387 H 1377.1 1.00114 4.92936 0
M  V30 14388 H 1376.8 2.73617 5.20007 0
M  V30 14389 H 1378.32 1.99807 5.76983 0
M  V30 14390 H 1379.74 3.75593 4.33131 0
M  V30 14391 H 1378.13 4.47409 3.99931 0
M  V30 14392 H 1379.2 4.06284 2.64692 0
M  V30 14393 N 1380.55 -0.980364 1.23396 0
M  V30 14394 C 1381.48 -2.0908 1.0396 0
M  V30 14395 C 1382.46 -1.70044 -0.0434946 0
M  V30 14396 O 1383.64 -1.93822 0.121155 0
M  V30 14397 C 1380.77 -3.41537 0.630061 0
M  V30 14398 C 1379.73 -3.94476 1.66051 0
M  V30 14399 C 1379.05 -5.23128 1.10641 0
M  V30 14400 C 1380.35 -4.23741 3.05354 0
M  V30 14401 H 1382.05 -2.25598 1.9684 0
M  V30 14402 H 1379.59 -1.08409 0.94781 0
M  V30 14403 H 1381.54 -4.18644 0.481145 0
M  V30 14404 H 1380.27 -3.24883 -0.334416 0
M  V30 14405 H 1378.93 -3.19513 1.79742 0
M  V30 14406 H 1378.58 -5.02824 0.132913 0
M  V30 14407 H 1378.28 -5.59515 1.79492 0
M  V30 14408 H 1379.8 -6.02857 0.969344 0
M  V30 14409 H 1381.21 -4.91598 2.94964 0
M  V30 14410 H 1379.61 -4.71329 3.71442 0
M  V30 14411 H 1380.68 -3.31012 3.54343 0
M  V30 14412 N 1382.02 -1.04567 -1.17913 0
M  V30 14413 C 1383.27 -0.753137 -1.88297 0
M  V30 14414 C 1383.6 0.717651 -1.80453 0
M  V30 14415 O 1382.88 1.5242 -1.20824 0
M  V30 14416 C 1383.16 -1.22626 -3.38578 0
M  V30 14417 C 1383.01 -2.75952 -3.55205 0
M  V30 14418 C 1384.33 -0.82029 -4.32388 0
M  V30 14419 H 1381.45 -0.275067 -0.683745 0
M  V30 14420 H 1384.09 -1.29856 -1.38699 0
M  V30 14421 H 1382.24 -0.762246 -3.80949 0
M  V30 14422 H 1383.92 -3.30429 -3.21892 0
M  V30 14423 H 1382.16 -3.15534 -2.97693 0
M  V30 14424 H 1382.83 -3.04116 -4.60671 0
M  V30 14425 H 1385.31 -1.21965 -3.97824 0
M  V30 14426 H 1384.18 -1.17902 -5.36088 0
M  V30 14427 H 1384.44 0.276205 -4.41236 0
M  V30 14428 N 1383.5 1.34231 -0.825823 0
M  V30 14429 C 1384.91 1.8059 -0.473724 0
M  V30 14430 C 1385.26 1.68438 1.00614 0
M  V30 14431 O 1384.39 1.22606 1.78317 0
M  V30 14432 C 1384.98 3.27884 -0.853099 0
M  V30 14433 C 1383.54 3.72311 -0.553327 0
M  V30 14434 C 1382.69 2.55889 -1.06845 0
M  V30 14435 H 1385.64 1.21937 -1.01573 0
M  V30 14436 H 1385.66 3.80172 -0.158014 0
M  V30 14437 H 1385.17 3.36696 -1.93021 0
M  V30 14438 H 1383.27 3.69034 0.514256 0
M  V30 14439 H 1383.39 4.66315 -1.09942 0
M  V30 14440 H 1381.75 2.49945 -0.489874 0
M  V30 14441 H 1382.53 2.67471 -2.15207 0
M  V30 14442 N 1384.98 0.581051 1.46498 0
M  V30 14443 C 1386.21 0.0714615 2.06476 0
M  V30 14444 C 1386.62 -1.23815 1.43061 0
M  V30 14445 O 1385.96 -1.75903 0.529504 0
M  V30 14446 C 1386.02 -0.170353 3.59096 0
M  V30 14447 C 1385.69 1.05341 4.44694 0
M  V30 14448 C 1386.68 1.96503 4.81334 0
M  V30 14449 C 1384.37 1.27479 4.85854 0
M  V30 14450 C 1386.36 3.08154 5.57961 0
M  V30 14451 C 1384.05 2.39434 5.62241 0
M  V30 14452 C 1385.05 3.29601 5.98207 0
M  V30 14453 O 1384.74 4.39612 6.7305 0
M  V30 14454 H 1384.47 0.0537502 0.67386 0
M  V30 14455 H 1387.02 0.800993 1.89138 0
M  V30 14456 H 1385.25 -0.954477 3.74735 0
M  V30 14457 H 1386.94 -0.628248 4.01009 0
M  V30 14458 H 1387.71 1.80615 4.50115 0
M  V30 14459 H 1383.59 0.582051 4.57311 0
M  V30 14460 H 1387.13 3.78557 5.85953 0
M  V30 14461 H 1383.03 2.55286 5.92874 0
M  V30 14462 H 1383.79 4.37959 6.91473 0
M  V30 14463 N 1386.46 -1.54343 0.318742 0
M  V30 14464 C 1387.39 -2.27118 -0.542206 0
M  V30 14465 C 1388.37 -1.27731 -1.12334 0
M  V30 14466 O 1389.55 -1.56535 -1.14937 0
M  V30 14467 C 1386.68 -3.02535 -1.70558 0
M  V30 14468 C 1385.64 -4.09218 -1.25398 0
M  V30 14469 C 1384.96 -4.72449 -2.50391 0
M  V30 14470 C 1386.26 -5.20971 -0.372332 0
M  V30 14471 H 1387.96 -2.9933 0.0648226 0
M  V30 14472 H 1385.5 -1.43963 0.0326168 0
M  V30 14473 H 1387.46 -3.52174 -2.31412 0
M  V30 14474 H 1386.18 -2.27931 -2.33912 0
M  V30 14475 H 1384.84 -3.60455 -0.668392 0
M  V30 14476 H 1384.49 -3.94466 -3.12099 0
M  V30 14477 H 1384.19 -5.4451 -2.20868 0
M  V30 14478 H 1385.71 -5.2486 -3.12016 0
M  V30 14479 H 1387.13 -5.66396 -0.887029 0
M  V30 14480 H 1385.52 -5.99859 -0.17009 0
M  V30 14481 H 1386.59 -4.81198 0.598064 0
M  V30 14482 N 1387.94 -0.0468143 -1.5753 0
M  V30 14483 C 1388.87 0.958157 -2.08211 0
M  V30 14484 C 1389.88 1.27757 -1.00906 0
M  V30 14485 O 1391.07 1.23913 -1.28483 0
M  V30 14486 C 1388.17 2.28088 -2.50657 0
M  V30 14487 C 1387.34 2.14403 -3.81248 0
M  V30 14488 C 1386.4 3.29761 -4.10054 0
M  V30 14489 O 1385.43 3.05859 -4.8004 0
M  V30 14490 N 1386.63 4.54104 -3.61621 0
M  V30 14491 H 1389.39 0.525612 -2.95055 0
M  V30 14492 H 1386.96 0.139532 -1.61298 0
M  V30 14493 H 1388.95 3.04121 -2.67007 0
M  V30 14494 H 1387.52 2.62924 -1.69085 0
M  V30 14495 H 1386.74 1.22988 -3.74523 0
M  V30 14496 H 1388.03 2.02482 -4.66775 0
M  V30 14497 H 1387.42 4.76414 -3.05034 0
M  V30 14498 H 1385.98 5.27246 -3.83217 0
M  V30 14499 N 1389.41 1.55964 0.226527 0
M  V30 14500 C 1390.64 1.83168 0.972846 0
M  V30 14501 C 1391.06 0.626512 1.7736 0
M  V30 14502 O 1390.42 -0.42468 1.76256 0
M  V30 14503 C 1390.47 3.08315 1.87014 0
M  V30 14504 O 1389.57 2.8666 2.96479 0
M  V30 14505 H 1388.92 0.604041 0.275736 0
M  V30 14506 H 1391.45 2.03172 0.241345 0
M  V30 14507 H 1391.46 3.38288 2.28091 0
M  V30 14508 H 1390.13 3.95663 1.28154 0
M  V30 14509 H 1388.71 2.67907 2.59384 0
M  V30 14510 N 1390.89 -0.493031 1.4969 0
M  V30 14511 C 1391.84 -1.61449 1.67442 0
M  V30 14512 C 1392.83 -1.60553 0.540296 0
M  V30 14513 O 1394.04 -1.64965 0.720167 0
M  V30 14514 H 1390.42 -0.535337 0.528127 0
M  V30 14515 H 1392.39 -1.43631 2.61558 0
M  V30 14516 C 1391.14 -2.99537 1.76559 0
M  V30 14517 H 1390.46 -3.00936 2.63206 0
M  V30 14518 H 1391.9 -3.77521 1.93013 0
M  V30 14519 C 1390.36 -3.32984 0.512176 0
M  V30 14520 O 1390.89 -4.00096 -0.35857 0
M  V30 14521 N 1389.09 -2.882 0.372734 0
M  V30 14522 H 1388.64 -2.3376 1.08232 0
M  V30 14523 H 1388.6 -3.10945 -0.464804 0
M  V30 14524 N 1392.37 -1.38898 -0.744656 0
M  V30 14525 C 1393.3 -1.39571 -1.87195 0
M  V30 14526 C 1394.28 -0.260372 -1.68095 0
M  V30 14527 O 1395.47 -0.464776 -1.88556 0
M  V30 14528 C 1392.6 -1.22889 -3.24832 0
M  V30 14529 C 1391.55 -2.33721 -3.58551 0
M  V30 14530 C 1390.88 -2.02136 -4.9502 0
M  V30 14531 C 1392.18 -3.7601 -3.62511 0
M  V30 14532 H 1393.87 -2.33908 -1.86889 0
M  V30 14533 H 1391.42 -1.12591 -0.897739 0
M  V30 14534 H 1393.37 -1.21983 -4.03359 0
M  V30 14535 H 1392.09 -0.250172 -3.2564 0
M  V30 14536 H 1390.75 -2.33828 -2.82348 0
M  V30 14537 H 1390.4 -1.02726 -4.92399 0
M  V30 14538 H 1390.1 -2.76371 -5.18549 0
M  V30 14539 H 1391.62 -2.02864 -5.75915 0
M  V30 14540 H 1393.04 -3.77885 -4.31133 0
M  V30 14541 H 1391.44 -4.49524 -3.97553 0
M  V30 14542 H 1392.51 -4.07682 -2.62533 0
M  V30 14543 N 1393.85 0.973806 -1.23914 0
M  V30 14544 C 1395.08 1.75107 -1.10206 0
M  V30 14545 C 1395.49 1.85604 0.345935 0
M  V30 14546 O 1394.85 1.33996 1.239 0
M  V30 14547 C 1394.9 3.17466 -1.72909 0
M  V30 14548 O 1394.62 3.07504 -3.12047 0
M  V30 14549 C 1396.12 4.11557 -1.6473 0
M  V30 14550 H 1393.34 0.549318 -0.385345 0
M  V30 14551 H 1395.89 1.22301 -1.63898 0
M  V30 14552 H 1394.04 3.67277 -1.23234 0
M  V30 14553 H 1394.45 3.97169 -3.42575 0
M  V30 14554 H 1395.93 5.09126 -2.13295 0
M  V30 14555 H 1396.41 4.3498 -0.607352 0
M  V30 14556 H 1397.01 3.67653 -2.13802 0
M  V30 14557 N 1395.33 1.05191 1.17357 0
M  V30 14558 C 1396.57 0.760479 1.87246 0
M  V30 14559 C 1396.9 -0.714618 1.81434 0
M  V30 14560 O 1396.17 -1.51636 1.24029 0
M  V30 14561 H 1394.75 0.278317 0.693216 0
M  V30 14562 H 1397.41 1.33106 1.42369 0
M  V30 14563 H 1396.5 1.07542 2.92987 0
M  V30 14564 N 1396.8 -1.33791 0.83293 0
M  V30 14565 C 1398.05 -1.97973 0.425781 0
M  V30 14566 C 1398.38 -1.66003 -1.01357 0
M  V30 14567 O 1397.63 -0.929016 -1.72243 0
M  V30 14568 C 1397.93 -3.52555 0.586485 0
M  V30 14569 C 1397.6 -4.04461 1.99304 0
M  V30 14570 C 1396.26 -4.18347 2.37779 0
M  V30 14571 C 1398.61 -4.3226 2.91206 0
M  V30 14572 C 1395.94 -4.57364 3.67471 0
M  V30 14573 C 1398.29 -4.72727 4.20371 0
M  V30 14574 C 1396.96 -4.84819 4.5881 0
M  V30 14575 H 1396.23 -0.724435 0.155804 0
M  V30 14576 H 1398.87 -1.59567 1.05881 0
M  V30 14577 H 1397.18 -3.91585 -0.129885 0
M  V30 14578 H 1398.88 -4.00208 0.251835 0
M  V30 14579 H 1395.47 -3.94122 1.68421 0
M  V30 14580 H 1399.65 -4.2106 2.6272 0
M  V30 14581 H 1394.91 -4.64918 3.97065 0
M  V30 14582 H 1399.08 -4.93194 4.91663 0
M  V30 14583 H 1396.71 -5.14809 5.59353 0
M  V30 14584 N 1398.28 -0.588812 -1.46187 0
M  V30 14585 C 1399.21 0.178825 -2.28501 0
M  V30 14586 C 1400.23 0.849686 -1.38867 0
M  V30 14587 O 1401.42 0.718224 -1.63413 0
M  V30 14588 C 1398.52 1.27309 -3.14079 0
M  V30 14589 C 1397.69 0.692974 -4.31876 0
M  V30 14590 C 1396.75 1.67572 -4.98805 0
M  V30 14591 O 1395.77 1.20937 -5.56204 0
M  V30 14592 N 1396.98 3.00992 -4.96371 0
M  V30 14593 H 1399.74 -0.527407 -2.95023 0
M  V30 14594 H 1397.3 -0.426998 -1.56168 0
M  V30 14595 H 1399.29 1.92993 -3.55719 0
M  V30 14596 H 1397.86 1.88209 -2.49592 0
M  V30 14597 H 1397.08 -0.141485 -3.93946 0
M  V30 14598 H 1398.37 0.28529 -5.08 0
M  V30 14599 H 1397.77 3.41498 -4.50994 0
M  V30 14600 H 1396.33 3.62149 -5.41933 0
M  V30 14601 N 1399.76 1.54172 -0.326923 0
M  V30 14602 C 1400.71 2.25931 0.552996 0
M  V30 14603 C 1401.7 1.27463 1.11578 0
M  V30 14604 O 1402.91 1.45228 1.06343 0
M  V30 14605 H 1399.28 0.725741 0.196988 0
M  V30 14606 H 1401.25 2.98307 -0.0744603 0
M  V30 14607 C 1400 3.03276 1.70056 0
M  V30 14608 H 1399.33 3.78865 1.27676 0
M  V30 14609 H 1400.77 3.56727 2.29177 0
M  V30 14610 C 1399.23 2.11775 2.62017 0
M  V30 14611 O 1399.76 1.70282 3.63822 0
M  V30 14612 N 1397.96 1.77195 2.30327 0
M  V30 14613 H 1397.51 2.11135 1.4758 0
M  V30 14614 H 1397.47 1.16253 2.92117 0
M  V30 14615 N 1401.24 0.0551678 1.57503 0
M  V30 14616 C 1402.17 -0.915714 2.14795 0
M  V30 14617 C 1403.15 -1.32179 1.07065 0
M  V30 14618 O 1404.33 -1.39579 1.35023 0
M  V30 14619 C 1401.46 -2.18916 2.69616 0
M  V30 14620 C 1400.42 -1.92303 3.82366 0
M  V30 14621 C 1399.74 -3.26136 4.23721 0
M  V30 14622 C 1401.04 -1.24146 5.07331 0
M  V30 14623 H 1402.74 -0.438499 2.96171 0
M  V30 14624 H 1400.28 -0.209477 1.42468 0
M  V30 14625 H 1402.24 -2.87239 3.08337 0
M  V30 14626 H 1400.96 -2.6885 1.85437 0
M  V30 14627 H 1399.62 -1.26391 3.44123 0
M  V30 14628 H 1399.27 -3.73879 3.36487 0
M  V30 14629 H 1398.97 -3.09126 4.99715 0
M  V30 14630 H 1400.49 -3.95684 4.65045 0
M  V30 14631 H 1401.91 -1.8251 5.43473 0
M  V30 14632 H 1400.3 -1.17449 5.88494 0
M  V30 14633 H 1401.37 -0.218073 4.84409 0
M  V30 14634 N 1402.72 -1.56081 -0.218252 0
M  V30 14635 C 1403.63 -1.95856 -1.29141 0
M  V30 14636 C 1404.64 -0.862857 -1.51099 0
M  V30 14637 O 1405.82 -1.1667 -1.64165 0
M  V30 14638 C 1402.88 -2.27005 -2.62049 0
M  V30 14639 C 1401.94 -3.50162 -2.48365 0
M  V30 14640 C 1401.18 -3.79815 -3.74935 0
M  V30 14641 O 1401.4 -3.11095 -4.78096 0
M  V30 14642 O 1400.33 -4.73299 -3.71849 0
M  V30 14643 H 1404.16 -2.8732 -0.983922 0
M  V30 14644 H 1401.75 -1.43334 -0.421385 0
M  V30 14645 H 1403.63 -2.4822 -3.40536 0
M  V30 14646 H 1402.3 -1.38715 -2.92472 0
M  V30 14647 H 1401.21 -3.34222 -1.68066 0
M  V30 14648 H 1402.54 -4.38845 -2.22881 0
M  V30 14649 N 1404.2 0.485086 -1.49949 0
M  V30 14650 C 1405.44 1.23486 -1.5948 0
M  V30 14651 C 1405.76 1.93377 -0.294082 0
M  V30 14652 O 1406.96 2.70173 -0.268133 0
M  V30 14653 C 1405.42 2.24303 -2.81454 0
M  V30 14654 C 1405.03 1.60279 -4.18347 0
M  V30 14655 C 1406.77 3.0001 -3.00324 0
M  V30 14656 C 1404.68 2.593 -5.31524 0
M  V30 14657 H 1403.61 0.464595 -0.593858 0
M  V30 14658 H 1406.26 0.506893 -1.7636 0
M  V30 14659 H 1404.64 3.00332 -2.58102 0
M  V30 14660 H 1405.82 0.901352 -4.51899 0
M  V30 14661 H 1404.13 0.969053 -4.04967 0
M  V30 14662 H 1406.73 3.74091 -3.82048 0
M  V30 14663 H 1407.07 3.5857 -2.11502 0
M  V30 14664 H 1407.6 2.31095 -3.2379 0
M  V30 14665 H 1404.34 2.05498 -6.22455 0
M  V30 14666 H 1403.86 3.27638 -5.02408 0
M  V30 14667 H 1405.54 3.21411 -5.61519 0
M  V30 14668 N 1405.67 1.39291 0.737279 0
M  V30 14669 C 1406.6 1.40562 1.86452 0
M  V30 14670 C 1407.58 0.269283 1.67955 0
M  V30 14671 O 1408.77 0.474769 1.88307 0
M  V30 14672 C 1405.9 1.2461 3.24175 0
M  V30 14673 C 1404.85 2.35619 3.57306 0
M  V30 14674 C 1404.18 2.04758 4.93941 0
M  V30 14675 C 1405.48 3.77927 3.60512 0
M  V30 14676 H 1407.17 2.34896 1.85646 0
M  V30 14677 H 1404.72 1.13065 0.891756 0
M  V30 14678 H 1406.67 1.2412 4.02706 0
M  V30 14679 H 1405.4 0.267438 3.25503 0
M  V30 14680 H 1404.06 2.35322 2.81104 0
M  V30 14681 H 1403.7 1.05336 4.91847 0
M  V30 14682 H 1403.4 2.79117 5.17076 0
M  V30 14683 H 1404.93 2.05915 5.74832 0
M  V30 14684 H 1406.34 3.80166 4.29123 0
M  V30 14685 H 1404.74 4.51626 3.95164 0
M  V30 14686 H 1405.81 4.09068 2.60368 0
M  V30 14687 N 1407.15 -0.967221 1.24429 0
M  V30 14688 C 1408.1 -2.08315 1.03478 0
M  V30 14689 C 1409.09 -1.69373 -0.0304332 0
M  V30 14690 O 1410.3 -1.79571 0.124162 0
M  V30 14691 H 1406.67 -0.681638 0.317605 0
M  V30 14692 H 1408.65 -2.23148 1.9811 0
M  V30 14693 C 1407.39 -3.41441 0.656778 0
M  V30 14694 H 1406.72 -3.71865 1.4682 0
M  V30 14695 H 1408.16 -4.2042 0.549791 0
M  V30 14696 C 1406.62 -3.30839 -0.636154 0
M  V30 14697 O 1407.15 -3.64802 -1.68175 0
M  V30 14698 N 1405.35 -2.83973 -0.617052 0
M  V30 14699 H 1404.9 -2.56533 0.234179 0
M  V30 14700 H 1404.86 -2.77262 -1.48233 0
M  V30 14701 N 1408.63 -1.05812 -1.16797 0
M  V30 14702 C 1409.88 -0.771923 -1.8721 0
M  V30 14703 C 1410.2 0.701365 -1.81414 0
M  V30 14704 O 1409.46 1.5292 -1.22122 0
M  V30 14705 C 1409.76 -1.20565 -3.3645 0
M  V30 14706 C 1409.42 -2.68222 -3.62447 0
M  V30 14707 C 1408.09 -3.08556 -3.69251 0
M  V30 14708 C 1410.44 -3.63607 -3.73416 0
M  V30 14709 C 1407.77 -4.43126 -3.84521 0
M  V30 14710 C 1410.12 -4.97918 -3.90205 0
M  V30 14711 C 1408.78 -5.37897 -3.9525 0
M  V30 14712 H 1408.05 -0.282467 -0.68505 0
M  V30 14713 H 1410.7 -1.32633 -1.38133 0
M  V30 14714 H 1409 -0.570347 -3.87626 0
M  V30 14715 H 1410.7 -0.961326 -3.89306 0
M  V30 14716 H 1407.29 -2.3599 -3.5778 0
M  V30 14717 H 1411.48 -3.33581 -3.67474 0
M  V30 14718 H 1406.73 -4.73593 -3.86677 0
M  V30 14719 H 1410.91 -5.71716 -3.97635 0
M  V30 14720 H 1408.53 -6.42176 -4.06834 0
M  V30 14721 N 1410.11 1.33347 -0.840014 0
M  V30 14722 C 1411.52 1.50615 -0.52795 0
M  V30 14723 C 1411.72 1.77993 0.944493 0
M  V30 14724 O 1410.78 1.84087 1.72824 0
M  V30 14725 C 1412.09 2.66001 -1.40228 0
M  V30 14726 C 1413.64 2.79886 -1.40117 0
M  V30 14727 C 1414.12 3.98335 -2.26038 0
M  V30 14728 N 1415.61 4.05572 -2.23753 0
M  V30 14729 C 1416.34 4.96422 -2.86972 0
M  V30 14730 N 1415.84 5.9238 -3.59247 0
M  V30 14731 N 1417.63 4.89428 -2.76436 0
M  V30 14732 H 1409.78 1.13839 -1.79317 0
M  V30 14733 H 1412.04 0.559772 -0.765088 0
M  V30 14734 H 1411.75 2.52453 -2.44868 0
M  V30 14735 H 1411.62 3.61434 -1.07914 0
M  V30 14736 H 1414.01 2.92865 -0.362487 0
M  V30 14737 H 1414.09 1.85211 -1.76439 0
M  V30 14738 H 1413.74 3.86115 -3.29966 0
M  V30 14739 H 1413.67 4.92257 -1.87057 0
M  V30 14740 H 1416.16 3.36899 -1.71195 0
M  V30 14741 H 1416.47 6.58367 -4.04688 0
M  V30 14742 H 1414.82 5.92451 -3.63354 0
M  V30 14743 H 1418.01 4.13428 -2.19534 0
M  V30 14744 H 1418.18 5.60032 -3.25989 0
M  V30 14745 N 1411.59 0.596556 1.45873 0
M  V30 14746 C 1412.53 -0.141327 2.3217 0
M  V30 14747 C 1413.53 -0.870652 1.45314 0
M  V30 14748 O 1414.73 -0.787469 1.61861 0
M  V30 14749 H 1411.11 -0.0644404 0.749234 0
M  V30 14750 H 1413.08 0.605115 2.922 0
M  V30 14751 C 1411.83 -1.13261 3.28736 0
M  V30 14752 H 1411.15 -0.580835 3.95558 0
M  V30 14753 H 1412.59 -1.61904 3.91871 0
M  V30 14754 C 1411.05 -2.20062 2.55097 0
M  V30 14755 O 1411.58 -3.27634 2.3242 0
M  V30 14756 N 1409.79 -1.95044 2.15421 0
M  V30 14757 H 1409.33 -1.07573 2.34064 0
M  V30 14758 H 1409.29 -2.66711 1.66472 0
M  V30 14759 N 1413.06 -1.53996 0.335095 0
M  V30 14760 C 1414.31 -2.00375 -0.263475 0
M  V30 14761 C 1414.63 -1.22471 -1.51742 0
M  V30 14762 O 1413.9 -0.329604 -1.93107 0
M  V30 14763 H 1412.48 -0.740229 -0.100347 0
M  V30 14764 H 1415.14 -1.89531 0.454302 0
M  V30 14765 H 1414.24 -3.07874 -0.511834 0
M  V30 14766 N 1414.54 -0.0635198 -1.57472 0
M  V30 14767 C 1415.77 0.620205 -1.9791 0
M  V30 14768 C 1416.19 1.62851 -0.941335 0
M  V30 14769 O 1415.55 1.81056 0.0940313 0
M  V30 14770 C 1415.6 1.27261 -3.37397 0
M  V30 14771 O 1414.7 2.38841 -3.36197 0
M  V30 14772 H 1414.04 0.16021 -0.644382 0
M  V30 14773 H 1416.57 -0.135582 -2.0415 0
M  V30 14774 H 1416.58 1.6214 -3.74399 0
M  V30 14775 H 1415.26 0.533723 -4.12461 0
M  V30 14776 H 1413.83 2.05817 -3.10956 0
M  V30 14777 N 1416.02 1.56195 0.209972 0
M  V30 14778 C 1417.27 1.78941 0.930744 0
M  V30 14779 C 1417.58 0.634139 1.85035 0
M  V30 14780 O 1418.79 0.745524 2.61064 0
M  V30 14781 C 1417.24 3.16935 1.70529 0
M  V30 14782 C 1416.85 4.40221 0.83125 0
M  V30 14783 C 1418.6 3.49 2.41659 0
M  V30 14784 C 1416.5 5.69238 1.60381 0
M  V30 14785 H 1415.43 0.667176 0.351273 0
M  V30 14786 H 1418.08 1.82572 0.184341 0
M  V30 14787 H 1416.47 3.07513 2.49503 0
M  V30 14788 H 1417.64 4.60728 0.081227 0
M  V30 14789 H 1415.95 4.15756 0.231517 0
M  V30 14790 H 1418.55 4.42623 2.99982 0
M  V30 14791 H 1418.89 2.72042 3.15117 0
M  V30 14792 H 1419.43 3.59804 1.69665 0
M  V30 14793 H 1416.17 6.49121 0.912292 0
M  V30 14794 H 1415.69 5.52772 2.32815 0
M  V30 14795 H 1417.37 6.09827 2.16149 0
M  V30 14796 N 1417.5 -0.477127 1.50204 0
M  V30 14797 C 1418.74 -1.23147 1.6113 0
M  V30 14798 C 1419.08 -1.91743 0.307909 0
M  V30 14799 O 1418.35 -1.81841 -0.690223 0
M  V30 14800 C 1418.63 -2.27985 2.78738 0
M  V30 14801 C 1418.49 -1.63733 4.18941 0
M  V30 14802 C 1419.81 -3.29349 2.9192 0
M  V30 14803 H 1416.93 -0.446358 0.586459 0
M  V30 14804 H 1419.57 -0.52612 1.8257 0
M  V30 14805 H 1417.72 -2.88143 2.60588 0
M  V30 14806 H 1419.39 -1.07218 4.48667 0
M  V30 14807 H 1417.63 -0.940634 4.23479 0
M  V30 14808 H 1418.3 -2.39888 4.9715 0
M  V30 14809 H 1420.78 -2.79208 3.08516 0
M  V30 14810 H 1419.66 -4.0004 3.75845 0
M  V30 14811 H 1419.92 -3.93111 2.02278 0
M  V30 14812 N 1418.98 -1.3968 -0.729882 0
M  V30 14813 C 1420.22 -1.37385 -1.49175 0
M  V30 14814 C 1420.56 0.0285839 -1.94179 0
M  V30 14815 O 1419.83 0.994516 -1.67152 0
M  V30 14816 C 1420.11 -2.35075 -2.72785 0
M  V30 14817 C 1419.97 -3.84282 -2.33767 0
M  V30 14818 C 1421.29 -2.30515 -3.74901 0
M  V30 14819 H 1418.4 -0.500359 -0.541119 0
M  V30 14820 H 1421.05 -1.7071 -0.834152 0
M  V30 14821 H 1419.2 -2.06787 -3.28894 0
M  V30 14822 H 1420.87 -4.2334 -1.8325 0
M  V30 14823 H 1419.11 -4.00809 -1.65935 0
M  V30 14824 H 1419.78 -4.48131 -3.22309 0
M  V30 14825 H 1422.26 -2.55539 -3.28389 0
M  V30 14826 H 1421.13 -3.00939 -4.5905 0
M  V30 14827 H 1421.4 -1.3119 -4.22187 0
M  V30 14828 N 1420.45 0.960609 -1.2494 0
M  V30 14829 C 1421.4 2.07763 -1.04581 0
M  V30 14830 C 1422.4 1.69386 0.0214505 0
M  V30 14831 O 1423.6 1.79503 -0.133683 0
M  V30 14832 H 1419.98 0.679944 -0.321216 0
M  V30 14833 H 1421.95 2.22094 -1.99291 0
M  V30 14834 C 1420.7 3.41088 -0.674876 0
M  V30 14835 H 1420.02 3.71082 -1.4879 0
M  V30 14836 H 1421.46 4.20123 -0.572079 0
M  V30 14837 C 1419.92 3.31172 0.6186 0
M  V30 14838 O 1420.45 3.65688 1.66238 0
M  V30 14839 N 1418.66 2.84297 0.601984 0
M  V30 14840 H 1418.2 2.56406 -0.24778 0
M  V30 14841 H 1418.16 2.78045 1.4676 0
M  V30 14842 N 1421.93 1.0643 1.16234 0
M  V30 14843 C 1423.16 0.802671 1.91238 0
M  V30 14844 C 1423.58 -0.637222 1.76978 0
M  V30 14845 O 1422.94 -1.44419 1.09603 0
M  V30 14846 C 1422.99 1.20389 3.3991 0
M  V30 14847 O 1422.09 0.343516 4.10967 0
M  V30 14848 H 1421.43 0.29323 0.595745 0
M  V30 14849 H 1423.96 1.42046 1.47255 0
M  V30 14850 H 1423.97 1.17604 3.90683 0
M  V30 14851 H 1422.65 2.2527 3.49608 0
M  V30 14852 H 1421.23 0.433051 3.70377 0
M  V30 14853 N 1423.41 -1.329 0.847073 0
M  V30 14854 C 1424.83 -1.50333 0.53593 0
M  V30 14855 C 1425.03 -1.78492 -0.93504 0
M  V30 14856 O 1424.08 -1.85001 -1.71846 0
M  V30 14857 C 1425.4 -2.65254 1.41636 0
M  V30 14858 C 1426.94 -2.79139 1.416 0
M  V30 14859 C 1427.42 -3.97131 2.28147 0
M  V30 14860 N 1428.91 -4.0438 2.25901 0
M  V30 14861 C 1429.64 -4.94893 2.89601 0
M  V30 14862 N 1429.14 -5.90466 3.62383 0
M  V30 14863 N 1430.93 -4.87955 2.79028 0
M  V30 14864 H 1423.08 -1.12886 1.79918 0
M  V30 14865 H 1425.35 -0.555707 0.768045 0
M  V30 14866 H 1425.05 -2.51151 2.46203 0
M  V30 14867 H 1424.93 -3.60856 1.09829 0
M  V30 14868 H 1427.31 -2.92669 0.378013 0
M  V30 14869 H 1427.4 -1.84273 1.77418 0
M  V30 14870 H 1427.04 -3.8436 3.32009 0
M  V30 14871 H 1426.97 -4.91258 1.89665 0
M  V30 14872 H 1429.46 -3.35986 1.72979 0
M  V30 14873 H 1429.77 -6.56212 4.08174 0
M  V30 14874 H 1428.12 -5.90516 3.66491 0
M  V30 14875 H 1431.31 -4.12258 2.21723 0
M  V30 14876 H 1431.48 -5.58295 3.28954 0
M  V30 14877 N 1424.89 -0.604284 -1.45555 0
M  V30 14878 C 1425.82 0.165286 -2.27601 0
M  V30 14879 C 1426.8 0.876749 -1.36937 0
M  V30 14880 O 1427.98 0.886288 -1.66365 0
M  V30 14881 C 1425.11 1.23897 -3.15226 0
M  V30 14882 C 1424.16 0.631002 -4.21806 0
M  V30 14883 S 1424.99 -0.558612 -5.32578 0
M  V30 14884 C 1426.15 0.515745 -6.23772 0
M  V30 14885 H 1426.38 -0.53081 -2.92523 0
M  V30 14886 H 1423.91 -0.391717 -1.49348 0
M  V30 14887 H 1425.87 1.85358 -3.66268 0
M  V30 14888 H 1424.53 1.90712 -2.49575 0
M  V30 14889 H 1423.72 1.43876 -4.83028 0
M  V30 14890 H 1423.33 0.0915984 -3.73888 0
M  V30 14891 H 1425.62 1.39571 -6.62968 0
M  V30 14892 H 1426.56 -0.0602302 -7.08074 0
M  V30 14893 H 1426.97 0.829588 -5.58371 0
M  V30 14894 N 1426.37 1.53816 -0.343257 0
M  V30 14895 C 1427.31 2.25011 0.513664 0
M  V30 14896 C 1428.28 1.24827 1.09578 0
M  V30 14897 O 1429.47 1.53558 1.13245 0
M  V30 14898 C 1426.61 3.02616 1.65885 0
M  V30 14899 C 1425.72 4.17653 1.10406 0
M  V30 14900 C 1424.86 4.82746 2.21653 0
M  V30 14901 C 1423.9 5.89853 1.63524 0
M  V30 14902 N 1423.03 6.48726 2.68512 0
M  V30 14903 H 1427.87 2.97832 -0.099997 0
M  V30 14904 H 1425.41 1.46973 -0.0611206 0
M  V30 14905 H 1427.37 3.45868 2.33304 0
M  V30 14906 H 1426 2.32092 2.2435 0
M  V30 14907 H 1425.05 3.79045 0.320819 0
M  V30 14908 H 1426.36 4.94691 0.638887 0
M  V30 14909 H 1425.52 5.29068 2.96938 0
M  V30 14910 H 1424.25 4.05131 2.71515 0
M  V30 14911 H 1423.26 5.42914 0.86745 0
M  V30 14912 H 1424.48 6.69375 1.14515 0
M  V30 14913 H 1422.43 5.73975 3.17629 0
M  V30 14914 H 1422.35 7.21236 2.26616 0
M  V30 14915 H 1423.62 6.99701 3.43567 0
M  V30 14916 N 1427.84 0.0718701 1.57436 0
M  V30 14917 C 1429.09 -0.597231 1.93493 0
M  V30 14918 C 1429.42 -1.69614 0.951906 0
M  V30 14919 O 1428.67 -1.95673 -0.0324554 0
M  V30 14920 C 1428.97 -1.21336 3.36173 0
M  V30 14921 C 1428.64 -0.240582 4.50258 0
M  V30 14922 C 1427.3 0.0270368 4.81192 0
M  V30 14923 C 1429.65 0.424924 5.19465 0
M  V30 14924 C 1426.98 0.967249 5.78672 0
M  V30 14925 C 1429.33 1.35346 6.17952 0
M  V30 14926 C 1428 1.62954 6.47304 0
M  V30 14927 H 1427.27 -0.218542 0.70804 0
M  V30 14928 H 1429.91 0.142762 1.90967 0
M  V30 14929 H 1428.22 -2.02909 3.35164 0
M  V30 14930 H 1429.92 -1.73836 3.61361 0
M  V30 14931 H 1426.51 -0.459352 4.26131 0
M  V30 14932 H 1430.69 0.231285 4.95761 0
M  V30 14933 H 1425.95 1.1884 5.99739 0
M  V30 14934 H 1430.12 1.87509 6.70681 0
M  V30 14935 H 1427.75 2.3597 7.2265 0
M  V30 14936 N 1429.32 -1.56304 -0.201686 0
M  V30 14937 C 1430.29 -1.93171 -1.2336 0
M  V30 14938 C 1431.29 -0.812164 -1.38782 0
M  V30 14939 O 1432.48 -1.07967 -1.36707 0
M  V30 14940 C 1429.61 -2.19997 -2.60411 0
M  V30 14941 H 1430.8 -2.85483 -0.918654 0
M  V30 14942 H 1428.35 -1.49893 -0.442935 0
M  V30 14943 H 1429.09 -1.30301 -2.96972 0
M  V30 14944 H 1428.87 -3.01574 -2.5059 0
M  V30 14945 H 1430.36 -2.49547 -3.34838 0
M  V30 14946 N 1430.8 0.469154 -1.50455 0
M  V30 14947 C 1431.75 1.58765 -1.6999 0
M  V30 14948 C 1432.74 1.59673 -0.56577 0
M  V30 14949 O 1433.95 1.63799 -0.74632 0
M  V30 14950 H 1430.32 0.526868 -0.536577 0
M  V30 14951 H 1432.29 1.39451 -2.6381 0
M  V30 14952 C 1431.04 2.9669 -1.81302 0
M  V30 14953 H 1430.37 2.96711 -2.67961 0
M  V30 14954 H 1431.81 3.74403 -1.98994 0
M  V30 14955 C 1430.27 3.32127 -0.565086 0
M  V30 14956 O 1430.8 4.00616 0.294873 0
M  V30 14957 N 1429 2.8757 -0.418537 0
M  V30 14958 H 1428.55 2.32008 -1.11938 0
M  V30 14959 H 1428.51 3.11645 0.415276 0
M  V30 14960 N 1432.28 1.40065 0.722464 0
M  V30 14961 C 1433.5 1.4146 1.5167 0
M  V30 14962 C 1433.93 0.0142653 1.88095 0
M  V30 14963 O 1433.29 -0.975934 1.52791 0
M  V30 14964 C 1433.33 2.30531 2.77287 0
M  V30 14965 O 1432.44 1.74382 3.73717 0
M  V30 14966 H 1431.78 0.481194 0.457546 0
M  V30 14967 H 1434.31 1.84213 0.890331 0
M  V30 14968 H 1434.32 2.45479 3.25889 0
M  V30 14969 H 1432.99 3.32292 2.50109 0
M  V30 14970 H 1431.57 1.68743 3.32536 0
M  V30 14971 N 1433.76 -0.95397 1.25448 0
M  V30 14972 C 1435 -1.70118 1.10399 0
M  V30 14973 C 1435.34 -1.90945 -0.354093 0
M  V30 14974 O 1434.61 -1.48088 -1.26096 0
M  V30 14975 C 1434.89 -3.08371 1.85955 0
M  V30 14976 C 1434.75 -2.9495 3.39595 0
M  V30 14977 C 1436.07 -4.08273 1.64321 0
M  V30 14978 H 1433.19 -0.617424 0.402438 0
M  V30 14979 H 1435.83 -1.10884 1.54288 0
M  V30 14980 H 1433.98 -3.58936 1.48651 0
M  V30 14981 H 1435.65 -2.51705 3.86578 0
M  V30 14982 H 1433.89 -2.30853 3.67273 0
M  V30 14983 H 1434.56 -3.92952 3.87676 0
M  V30 14984 H 1437.04 -3.6662 1.96796 0
M  V30 14985 H 1435.92 -5.03048 2.19622 0
M  V30 14986 H 1436.18 -4.38217 0.584685 0
M  V30 14987 N 1435.24 -1.07045 -1.15668 0
M  V30 14988 C 1436.65 -0.814932 -1.67975 0
M  V30 14989 C 1437 0.660408 -1.84751 0
M  V30 14990 O 1436.12 1.51156 -1.54857 0
M  V30 14991 C 1436.72 -1.47274 -3.05116 0
M  V30 14992 C 1435.28 -1.26481 -3.54513 0
M  V30 14993 C 1434.42 -1.54439 -2.30312 0
M  V30 14994 H 1437.37 -1.23291 -0.999251 0
M  V30 14995 H 1437.4 -0.892244 -3.69891 0
M  V30 14996 H 1436.91 -2.54649 -2.92874 0
M  V30 14997 H 1435.01 -0.211138 -3.72001 0
M  V30 14998 H 1435.12 -1.98283 -4.36143 0
M  V30 14999 H 1433.49 -0.965269 -2.357 0
M  V30 15000 H 1434.27 -2.6299 -2.20661 0
M  V30 15001 N 1436.71 1.32449 -0.85411 0
M  V30 15002 C 1438.12 1.79545 -0.511923 0
M  V30 15003 C 1438.48 1.70534 0.970188 0
M  V30 15004 O 1437.6 1.2636 1.75676 0
M  V30 15005 C 1438.2 3.26 -0.922456 0
M  V30 15006 C 1436.75 3.71053 -0.632176 0
M  V30 15007 C 1435.9 2.53565 -1.12249 0
M  V30 15008 H 1438.85 1.19755 -1.04137 0
M  V30 15009 H 1438.87 3.79751 -0.238618 0
M  V30 15010 H 1438.39 3.32526 -2.00119 0
M  V30 15011 H 1436.49 3.70042 0.435862 0
M  V30 15012 H 1436.6 4.63878 -1.19809 0
M  V30 15013 H 1434.96 2.48849 -0.542781 0
M  V30 15014 H 1435.75 2.62846 -2.20832 0
M  V30 15015 N 1438.19 0.611994 1.45232 0
M  V30 15016 C 1439.14 -0.116695 2.32307 0
M  V30 15017 C 1440.13 -0.85519 1.46229 0
M  V30 15018 O 1441.34 -0.770257 1.62687 0
M  V30 15019 H 1437.71 -0.0564902 0.749875 0
M  V30 15020 H 1439.69 0.636073 2.91542 0
M  V30 15021 C 1438.43 -1.09768 3.29919 0
M  V30 15022 H 1437.76 -0.538848 3.96152 0
M  V30 15023 H 1439.2 -1.57739 3.93566 0
M  V30 15024 C 1437.66 -2.17344 2.57417 0
M  V30 15025 O 1438.19 -3.2515 2.35882 0
M  V30 15026 N 1436.39 -1.92749 2.17477 0
M  V30 15027 H 1435.94 -1.05084 2.35192 0
M  V30 15028 H 1435.9 -2.6493 1.69291 0
M  V30 15029 N 1439.67 -1.53632 0.351409 0
M  V30 15030 C 1440.92 -2.01338 -0.243047 0
M  V30 15031 C 1441.25 -1.23864 -1.4957 0
M  V30 15032 O 1440.52 -0.328412 -1.91707 0
M  V30 15033 C 1440.81 -3.55886 -0.549284 0
M  V30 15034 C 1440.66 -4.44064 0.716016 0
M  V30 15035 C 1441.98 -4.18699 -1.35569 0
M  V30 15036 H 1439.1 -0.731863 -0.0868627 0
M  V30 15037 H 1441.74 -1.84005 0.473501 0
M  V30 15038 H 1439.89 -3.70787 -1.15972 0
M  V30 15039 H 1441.56 -4.40987 1.35383 0
M  V30 15040 H 1439.8 -4.12608 1.3393 0
M  V30 15041 H 1440.48 -5.50106 0.456895 0
M  V30 15042 H 1442.95 -4.07545 -0.839441 0
M  V30 15043 H 1441.83 -5.26892 -1.53871 0
M  V30 15044 H 1442.09 -3.73834 -2.3601 0
M  V30 15045 N 1441.15 -0.0802183 -1.57396 0
M  V30 15046 C 1442.1 0.901668 -2.14412 0
M  V30 15047 C 1443.09 1.30247 -1.08314 0
M  V30 15048 O 1444.3 1.27873 -1.26682 0
M  V30 15049 H 1440.67 0.308748 -0.685696 0
M  V30 15050 H 1442.64 0.395934 -2.95762 0
M  V30 15051 C 1441.39 2.15665 -2.72734 0
M  V30 15052 H 1440.71 1.8571 -3.54051 0
M  V30 15053 H 1442.15 2.82461 -3.16214 0
M  V30 15054 C 1440.61 2.9208 -1.67901 0
M  V30 15055 O 1441.14 3.86087 -1.10903 0
M  V30 15056 N 1439.35 2.55343 -1.38739 0
M  V30 15057 H 1438.9 1.78969 -1.85278 0
M  V30 15058 H 1438.85 3.06773 -0.688317 0
M  V30 15059 N 1442.63 1.56409 0.193394 0
M  V30 15060 C 1443.57 1.95572 1.25914 0
M  V30 15061 C 1444.57 0.841384 1.47028 0
M  V30 15062 O 1445.77 1.0264 1.47868 0
M  V30 15063 H 1442.15 0.621914 0.422761 0
M  V30 15064 H 1444.12 2.84446 0.901827 0
M  V30 15065 C 1442.87 2.31293 2.59613 0
M  V30 15066 H 1442.19 3.16568 2.44182 0
M  V30 15067 H 1443.63 2.62558 3.32926 0
M  V30 15068 C 1442.09 1.14818 3.16731 0
M  V30 15069 O 1442.62 0.424105 3.99455 0
M  V30 15070 N 1440.83 0.924536 2.75501 0
M  V30 15071 H 1440.37 1.51509 2.08334 0
M  V30 15072 H 1440.33 0.147006 3.14056 0
M  V30 15073 N 1444.1 -0.461169 1.50702 0
M  V30 15074 C 1445.07 -1.54032 1.69725 0
M  V30 15075 C 1446.07 -1.50445 0.567707 0
M  V30 15076 O 1447.26 -1.52889 0.834901 0
M  V30 15077 C 1444.39 -2.93642 1.73168 0
M  V30 15078 H 1445.58 -1.38478 2.66015 0
M  V30 15079 H 1443.13 -0.688235 1.40332 0
M  V30 15080 H 1443.87 -3.14629 0.786078 0
M  V30 15081 H 1443.65 -2.97652 2.55236 0
M  V30 15082 H 1445.14 -3.71972 1.89807 0
M  V30 15083 N 1445.58 -1.40446 -0.715026 0
M  V30 15084 C 1446.83 -1.3896 -1.47709 0
M  V30 15085 C 1447.16 0.00798698 -1.94198 0
M  V30 15086 O 1446.44 0.976732 -1.68197 0
M  V30 15087 C 1446.72 -2.37955 -2.70277 0
M  V30 15088 C 1446.57 -3.8674 -2.29678 0
M  V30 15089 C 1447.89 -2.34478 -3.72435 0
M  V30 15090 H 1445.01 -0.50607 -0.535782 0
M  V30 15091 H 1447.65 -1.71585 -0.815999 0
M  V30 15092 H 1445.8 -2.10264 -3.26682 0
M  V30 15093 H 1447.47 -4.2526 -1.7875 0
M  V30 15094 H 1445.72 -4.02547 -1.61674 0
M  V30 15095 H 1446.39 -4.51524 -3.17538 0
M  V30 15096 H 1448.86 -2.59007 -3.2566 0
M  V30 15097 H 1447.74 -3.05791 -4.55832 0
M  V30 15098 H 1448 -1.35661 -4.20771 0
M  V30 15099 N 1447.06 0.947303 -1.25952 0
M  V30 15100 C 1448.29 1.72479 -1.1373 0
M  V30 15101 C 1448.7 1.86629 0.310871 0
M  V30 15102 O 1448.04 1.36882 1.22512 0
M  V30 15103 C 1448.1 3.15328 -1.72651 0
M  V30 15104 C 1447.77 3.24584 -3.21705 0
M  V30 15105 C 1448.76 3.08331 -4.18602 0
M  V30 15106 C 1446.45 3.4817 -3.62054 0
M  V30 15107 C 1448.44 3.15523 -5.53827 0
M  V30 15108 C 1446.13 3.54997 -4.97413 0
M  V30 15109 C 1447.13 3.38689 -5.93109 0
M  V30 15110 O 1446.82 3.45212 -7.26005 0
M  V30 15111 H 1446.55 0.547044 -0.397138 0
M  V30 15112 H 1449.1 1.19654 -1.66949 0
M  V30 15113 H 1447.33 3.69549 -1.13887 0
M  V30 15114 H 1449.02 3.74965 -1.55423 0
M  V30 15115 H 1449.79 2.89971 -3.88769 0
M  V30 15116 H 1445.67 3.59922 -2.88057 0
M  V30 15117 H 1449.21 3.02711 -6.285 0
M  V30 15118 H 1445.11 3.72876 -5.26909 0
M  V30 15119 H 1445.87 3.61796 -7.34198 0
M  V30 15120 N 1448.54 1.07657 1.15099 0
M  V30 15121 C 1449.47 0.643791 2.18931 0
M  V30 15122 C 1450.45 -0.340546 1.58994 0
M  V30 15123 O 1451.63 -0.24623 1.86885 0
M  V30 15124 C 1448.76 -0.0541901 3.38657 0
M  V30 15125 C 1447.81 0.889081 4.1713 0
M  V30 15126 S 1448.64 2.39173 4.79121 0
M  V30 15127 C 1449.8 1.70563 6.02212 0
M  V30 15128 H 1450.03 1.52342 2.55302 0
M  V30 15129 H 1447.56 0.890824 1.2611 0
M  V30 15130 H 1449.52 -0.45064 4.08019 0
M  V30 15131 H 1448.18 -0.910208 3.00623 0
M  V30 15132 H 1447.37 0.347484 5.02801 0
M  V30 15133 H 1446.98 1.22606 3.53332 0
M  V30 15134 H 1449.27 1.01914 6.69791 0
M  V30 15135 H 1450.21 2.54078 6.60946 0
M  V30 15136 H 1450.62 1.18228 5.51981 0
M  V30 15137 N 1450.02 -1.31994 0.861122 0
M  V30 15138 C 1451.27 -1.96294 0.463868 0
M  V30 15139 C 1451.58 -1.68869 -0.98704 0
M  V30 15140 O 1452.78 -2.26959 -1.49003 0
M  V30 15141 C 1451.24 -3.51377 0.77858 0
M  V30 15142 C 1450.85 -3.87653 2.24565 0
M  V30 15143 C 1452.59 -4.22115 0.449365 0
M  V30 15144 C 1450.5 -5.35809 2.50324 0
M  V30 15145 H 1449.43 -0.734647 0.169733 0
M  V30 15146 H 1452.08 -1.50294 1.0528 0
M  V30 15147 H 1450.46 -3.95821 0.119005 0
M  V30 15148 H 1451.64 -3.54197 2.94755 0
M  V30 15149 H 1449.95 -3.29957 2.54003 0
M  V30 15150 H 1452.55 -5.31103 0.61916 0
M  V30 15151 H 1452.89 -4.11814 -0.609528 0
M  V30 15152 H 1453.42 -3.83276 1.06511 0
M  V30 15153 H 1450.16 -5.51138 3.54863 0
M  V30 15154 H 1449.68 -5.70648 1.84719 0
M  V30 15155 H 1451.36 -6.02968 2.34602 0
M  V30 15156 N 1451.49 -0.619688 -1.44906 0
M  V30 15157 C 1452.42 0.0791121 -2.33366 0
M  V30 15158 C 1453.41 0.846503 -1.47541 0
M  V30 15159 O 1454.59 0.814657 -1.76287 0
M  V30 15160 C 1451.72 1.06901 -3.30438 0
M  V30 15161 C 1450.67 0.41403 -4.25993 0
M  V30 15162 C 1450 1.51303 -5.12846 0
M  V30 15163 C 1451.3 -0.672483 -5.17953 0
M  V30 15164 H 1452.99 -0.659551 -2.92045 0
M  V30 15165 H 1450.54 -0.318623 -1.40431 0
M  V30 15166 H 1452.49 1.56653 -3.912 0
M  V30 15167 H 1451.22 1.83842 -2.69944 0
M  V30 15168 H 1449.88 -0.0627315 -3.66546 0
M  V30 15169 H 1449.52 2.27303 -4.48712 0
M  V30 15170 H 1449.22 1.08022 -5.77586 0
M  V30 15171 H 1450.75 2.01258 -5.76479 0
M  V30 15172 H 1452.16 -0.258542 -5.72717 0
M  V30 15173 H 1450.56 -1.02776 -5.91234 0
M  V30 15174 H 1451.63 -1.54425 -4.59653 0
M  V30 15175 N 1452.97 1.53444 -0.359552 0
M  V30 15176 C 1453.88 2.29257 0.497834 0
M  V30 15177 C 1454.9 1.34987 1.09793 0
M  V30 15178 O 1456.07 1.68039 1.11017 0
M  V30 15179 C 1453.14 3.06258 1.62502 0
M  V30 15180 C 1452.2 4.16183 1.05308 0
M  V30 15181 C 1451.43 4.89503 2.12655 0
M  V30 15182 O 1451.66 4.6263 3.33661 0
M  V30 15183 O 1450.59 5.75578 1.76051 0
M  V30 15184 H 1454.42 3.03467 -0.118925 0
M  V30 15185 H 1452 1.48884 -0.124111 0
M  V30 15186 H 1453.88 3.5436 2.2805 0
M  V30 15187 H 1452.56 2.3489 2.22729 0
M  V30 15188 H 1451.47 3.72348 0.361679 0
M  V30 15189 H 1452.8 4.897 0.49545 0
M  V30 15190 N 1454.45 0.0885642 1.57351 0
M  V30 15191 C 1455.73 -0.618587 1.85561 0
M  V30 15192 C 1456.11 -1.86753 0.984206 0
M  V30 15193 O 1455.46 -2.28434 0.0548839 0
M  V30 15194 C 1455.67 -0.940222 3.36096 0
M  V30 15195 C 1457.01 -1.30649 4.04 0
M  V30 15196 O 1458.04 -1.03144 3.4094 0
M  V30 15197 O 1456.9 -1.82135 5.15256 0
M  V30 15198 H 1453.99 -0.308881 0.767152 0
M  V30 15199 H 1456.54 0.120767 1.6927 0
M  V30 15200 H 1455.31 -0.0538991 3.91263 0
M  V30 15201 H 1454.93 -1.73577 3.5771 0
M  V30 15202 N 1455.93 -1.56509 -0.185096 0
M  V30 15203 C 1457.18 -1.81206 -0.903924 0
M  V30 15204 C 1457.5 -0.663423 -1.82836 0
M  V30 15205 O 1456.76 0.350211 -1.92541 0
M  V30 15206 C 1457.06 -3.11968 -1.74387 0
M  V30 15207 C 1456.72 -4.40353 -0.969552 0
M  V30 15208 C 1455.39 -4.75227 -0.755799 0
M  V30 15209 C 1457.74 -5.19461 -0.425443 0
M  V30 15210 C 1455.07 -5.86698 0.0133856 0
M  V30 15211 C 1457.42 -6.31736 0.330582 0
M  V30 15212 C 1456.08 -6.65187 0.555262 0
M  V30 15213 H 1455.35 -0.663078 -0.330769 0
M  V30 15214 H 1458 -1.90747 -0.169673 0
M  V30 15215 H 1456.3 -2.97708 -2.5471 0
M  V30 15216 H 1458 -3.28284 -2.30284 0
M  V30 15217 H 1454.59 -4.1299 -1.14618 0
M  V30 15218 H 1458.77 -4.92923 -0.577959 0
M  V30 15219 H 1454.03 -6.11081 0.197335 0
M  V30 15220 H 1458.2 -6.92246 0.759523 0
M  V30 15221 H 1455.83 -7.51403 1.15318 0
M  V30 15222 N 1457.41 0.45317 -1.50944 0
M  V30 15223 C 1458.65 1.21354 -1.64476 0
M  V30 15224 C 1459.01 1.88859 -0.345879 0
M  V30 15225 O 1460.21 2.66421 -0.356808 0
M  V30 15226 C 1458.48 2.21565 -2.80435 0
M  V30 15227 S 1460.04 3.06302 -3.14205 0
M  V30 15228 H 1456.86 0.411762 -0.579632 0
M  V30 15229 H 1459.46 0.50762 -1.88795 0
M  V30 15230 H 1458.17 1.70585 -3.73268 0
M  V30 15231 H 1457.7 2.96761 -2.58257 0
M  V30 15232 H 1459.71 4.22988 -2.59414 0
M  V30 15233 N 1458.88 1.40823 0.707568 0
M  V30 15234 C 1460.11 1.42866 1.49656 0
M  V30 15235 C 1460.53 0.0305663 1.88775 0
M  V30 15236 O 1459.88 -0.947376 1.55984 0
M  V30 15237 C 1459.94 2.32661 2.76679 0
M  V30 15238 O 1459.66 3.67028 2.39211 0
M  V30 15239 C 1461.16 2.4338 3.70514 0
M  V30 15240 H 1458.38 0.487009 0.461588 0
M  V30 15241 H 1460.92 1.84969 0.872167 0
M  V30 15242 H 1459.08 1.93898 3.35384 0
M  V30 15243 H 1459.49 4.14799 3.21002 0
M  V30 15244 H 1460.96 3.10401 4.56459 0
M  V30 15245 H 1461.44 1.46132 4.14176 0
M  V30 15246 H 1462.05 2.82728 3.17718 0
M  V30 15247 N 1460.36 -0.94061 1.26453 0
M  V30 15248 C 1461.59 -1.72123 1.1481 0
M  V30 15249 C 1462.01 -1.86456 -0.296604 0
M  V30 15250 O 1461.36 -1.37234 -1.20304 0
M  V30 15251 C 1461.41 -3.1277 1.81266 0
M  V30 15252 O 1461.13 -2.99122 3.2009 0
M  V30 15253 C 1462.64 -4.07045 1.75584 0
M  V30 15254 H 1459.86 -0.538908 0.399774 0
M  V30 15255 H 1462.4 -1.17913 1.67083 0
M  V30 15256 H 1460.55 -3.6388 1.32928 0
M  V30 15257 H 1460.97 -3.87946 3.52984 0
M  V30 15258 H 1462.44 -5.03292 2.26719 0
M  V30 15259 H 1462.92 -4.33217 0.722466 0
M  V30 15260 H 1463.53 -3.61855 2.23475 0
M  V30 15261 N 1461.84 -1.08266 -1.14527 0
M  V30 15262 C 1462.8 -0.715117 -2.17758 0
M  V30 15263 C 1463.8 0.24935 -1.58855 0
M  V30 15264 O 1464.99 0.0290846 -1.74176 0
M  V30 15265 C 1462.13 -0.055575 -3.40855 0
M  V30 15266 H 1463.32 -1.62921 -2.51787 0
M  V30 15267 H 1460.87 -0.880346 -1.2915 0
M  V30 15268 H 1461.61 0.870312 -3.12404 0
M  V30 15269 H 1461.39 -0.749382 -3.84872 0
M  V30 15270 H 1462.88 0.186592 -4.17183 0
M  V30 15271 N 1463.32 1.31536 -0.86811 0
M  V30 15272 C 1464.55 2.00661 -0.491815 0
M  V30 15273 C 1464.96 1.65341 0.919733 0
M  V30 15274 O 1464.3 0.87773 1.61374 0
M  V30 15275 C 1464.36 3.55002 -0.566926 0
M  V30 15276 C 1464.03 4.1379 -1.93976 0
M  V30 15277 C 1465.02 4.31032 -2.90702 0
M  V30 15278 C 1462.71 4.4956 -2.24056 0
M  V30 15279 C 1464.7 4.8323 -4.15653 0
M  V30 15280 C 1462.39 5.01461 -3.49257 0
M  V30 15281 C 1463.39 5.18246 -4.44871 0
M  V30 15282 O 1463.08 5.69033 -5.67852 0
M  V30 15283 H 1462.81 0.648663 -0.190296 0
M  V30 15284 H 1465.36 1.68783 -1.17053 0
M  V30 15285 H 1463.59 3.86332 0.168704 0
M  V30 15286 H 1465.28 4.05385 -0.204323 0
M  V30 15287 H 1466.05 4.03717 -2.6877 0
M  V30 15288 H 1461.93 4.35772 -1.50412 0
M  V30 15289 H 1465.47 4.96247 -4.9029 0
M  V30 15290 H 1461.37 5.28209 -3.71033 0
M  V30 15291 H 1462.13 5.87405 -5.69998 0
M  V30 15292 N 1464.8 0.627364 1.44575 0
M  V30 15293 C 1465.75 -0.0920488 2.32418 0
M  V30 15294 C 1466.74 -0.839633 1.47128 0
M  V30 15295 O 1467.95 -0.752958 1.63495 0
M  V30 15296 H 1464.32 -0.0485336 0.750432 0
M  V30 15297 H 1466.29 0.666959 2.90851 0
M  V30 15298 C 1465.04 -1.06262 3.31064 0
M  V30 15299 H 1464.36 -0.4968 3.96701 0
M  V30 15300 H 1465.8 -1.53556 3.95217 0
M  V30 15301 C 1464.26 -2.14601 2.59707 0
M  V30 15302 O 1464.79 -3.2263 2.39317 0
M  V30 15303 N 1463 -1.90431 2.19509 0
M  V30 15304 H 1462.55 -1.02584 2.36293 0
M  V30 15305 H 1462.5 -2.6312 1.72091 0
M  V30 15306 N 1466.28 -1.53251 0.367684 0
M  V30 15307 C 1467.5 -2.05705 -0.222047 0
M  V30 15308 C 1467.92 -1.24104 -1.4228 0
M  V30 15309 O 1467.28 -0.282228 -1.80305 0
M  V30 15310 C 1467.33 -3.56257 -0.613475 0
M  V30 15311 O 1467.05 -4.34765 0.539558 0
M  V30 15312 C 1468.55 -4.24976 -1.26137 0
M  V30 15313 H 1465.77 -0.66989 -0.0385799 0
M  V30 15314 H 1468.31 -1.97602 0.526663 0
M  V30 15315 H 1466.47 -3.64503 -1.3121 0
M  V30 15316 H 1466.88 -5.24027 0.222699 0
M  V30 15317 H 1468.36 -5.31628 -1.4858 0
M  V30 15318 H 1468.83 -3.78828 -2.2223 0
M  V30 15319 H 1469.44 -4.20987 -0.604121 0
M  V30 15320 N 1467.75 -0.0969077 -1.57302 0
M  V30 15321 C 1468.69 0.898042 -2.09787 0
M  V30 15322 C 1469.66 1.27518 -1.00886 0
M  V30 15323 O 1470.85 1.3801 -1.28396 0
M  V30 15324 C 1467.98 2.19868 -2.57635 0
M  V30 15325 C 1467.02 1.97127 -3.7821 0
M  V30 15326 S 1467.85 1.20763 -5.21705 0
M  V30 15327 C 1469.01 2.52054 -5.72905 0
M  V30 15328 H 1469.24 0.451544 -2.93851 0
M  V30 15329 H 1466.78 0.116417 -1.5396 0
M  V30 15330 H 1468.73 2.9461 -2.85859 0
M  V30 15331 H 1467.4 2.61639 -1.73793 0
M  V30 15332 H 1466.59 2.93445 -4.09763 0
M  V30 15333 H 1466.19 1.30515 -3.50488 0
M  V30 15334 H 1468.48 3.4802 -5.81282 0
M  V30 15335 H 1469.43 2.25077 -6.71376 0
M  V30 15336 H 1469.83 2.6041 -5.00846 0
M  V30 15337 N 1469.23 1.56605 0.176793 0
M  V30 15338 C 1470.18 1.96896 1.23833 0
M  V30 15339 C 1471.17 0.85693 1.46127 0
M  V30 15340 O 1472.38 1.04202 1.46772 0
M  V30 15341 H 1468.75 0.626363 0.416141 0
M  V30 15342 H 1470.73 2.85387 0.871607 0
M  V30 15343 C 1469.47 2.34034 2.57145 0
M  V30 15344 H 1468.8 3.1914 2.40811 0
M  V30 15345 H 1470.24 2.66074 3.30122 0
M  V30 15346 C 1468.7 1.18171 3.15495 0
M  V30 15347 O 1469.23 0.466448 3.98983 0
M  V30 15348 N 1467.43 0.953705 2.74505 0
M  V30 15349 H 1466.98 1.5371 2.06715 0
M  V30 15350 H 1466.94 0.180307 3.13883 0
M  V30 15351 N 1470.71 -0.445159 1.51182 0
M  V30 15352 C 1471.64 -1.5473 1.74874 0
M  V30 15353 C 1472.62 -1.5923 0.598323 0
M  V30 15354 O 1473.81 -1.75083 0.840219 0
M  V30 15355 C 1470.94 -2.92872 1.86664 0
M  V30 15356 C 1469.89 -3.03235 3.02048 0
M  V30 15357 C 1469.22 -4.43279 2.99012 0
M  V30 15358 C 1470.52 -2.7804 4.42144 0
M  V30 15359 H 1472.21 -1.35156 2.67158 0
M  V30 15360 H 1469.76 -0.648763 1.28558 0
M  V30 15361 H 1471.71 -3.69927 2.01822 0
M  V30 15362 H 1470.43 -3.1366 0.910225 0
M  V30 15363 H 1469.09 -2.28617 2.86583 0
M  V30 15364 H 1468.74 -4.61023 2.01163 0
M  V30 15365 H 1468.44 -4.51144 3.76488 0
M  V30 15366 H 1469.96 -5.22319 3.16252 0
M  V30 15367 H 1471.38 -3.44831 4.58 0
M  V30 15368 H 1469.77 -2.97323 5.21267 0
M  V30 15369 H 1470.84 -1.737 4.52721 0
M  V30 15370 N 1472.19 -1.41197 -0.700089 0
M  V30 15371 C 1473.15 -1.42419 -1.79582 0
M  V30 15372 C 1474.15 -0.31551 -1.57674 0
M  V30 15373 O 1475.34 -0.575173 -1.64431 0
M  V30 15374 C 1472.47 -1.23114 -3.17893 0
M  V30 15375 H 1473.67 -2.39956 -1.79892 0
M  V30 15376 H 1471.22 -1.27273 -0.907271 0
M  V30 15377 H 1471.95 -0.263992 -3.23224 0
M  V30 15378 H 1471.74 -2.03437 -3.35195 0
M  V30 15379 H 1473.23 -1.26793 -3.97886 0
M  V30 15380 N 1473.67 0.933891 -1.2695 0
M  V30 15381 C 1474.91 1.67539 -1.1231 0
M  V30 15382 C 1475.23 1.92765 0.331788 0
M  V30 15383 O 1476.43 2.6481 0.598983 0
M  V30 15384 C 1474.89 3.01722 -1.96194 0
M  V30 15385 C 1474.5 2.84216 -3.46302 0
M  V30 15386 C 1476.24 3.79513 -1.90185 0
M  V30 15387 C 1474.15 4.13916 -4.22407 0
M  V30 15388 H 1473.08 0.62839 -0.416704 0
M  V30 15389 H 1475.73 1.03801 -1.5132 0
M  V30 15390 H 1474.11 3.66482 -1.50023 0
M  V30 15391 H 1475.29 2.28261 -4.00292 0
M  V30 15392 H 1473.6 2.1986 -3.53625 0
M  V30 15393 H 1476.2 4.75615 -2.44325 0
M  V30 15394 H 1476.54 4.07019 -0.874129 0
M  V30 15395 H 1477.07 3.21539 -2.34217 0
M  V30 15396 H 1473.81 3.91591 -5.25677 0
M  V30 15397 H 1473.33 4.69558 -3.73196 0
M  V30 15398 H 1475.01 4.82322 -4.31248 0
M  V30 15399 N 1475.14 1.08871 1.13951 0
M  V30 15400 C 1476.42 0.73388 1.81311 0
M  V30 15401 C 1476.8 -0.781824 1.96089 0
M  V30 15402 O 1476.15 -1.70211 1.52448 0
M  V30 15403 C 1476.36 1.46631 3.16702 0
M  V30 15404 C 1477.71 1.62843 3.92132 0
M  V30 15405 O 1478.73 1.42836 3.26307 0
M  V30 15406 O 1477.59 1.95893 5.10185 0
M  V30 15407 H 1474.68 0.262976 0.784074 0
M  V30 15408 H 1477.23 1.19057 1.20927 0
M  V30 15409 H 1476 2.49863 3.01138 0
M  V30 15410 H 1475.62 1.00141 3.84782 0
M  V30 15411 N 1476.62 -1.31073 0.875073 0
M  V30 15412 C 1477.57 -2.28389 0.332718 0
M  V30 15413 C 1478.54 -1.55954 -0.571639 0
M  V30 15414 O 1479.72 -1.84073 -0.502185 0
M  V30 15415 C 1476.86 -3.42083 -0.455364 0
M  V30 15416 C 1475.98 -4.29358 0.477088 0
M  V30 15417 C 1475.11 -5.30201 -0.325619 0
M  V30 15418 C 1474.15 -6.09123 0.602935 0
M  V30 15419 N 1473.29 -7.01909 -0.163836 0
M  V30 15420 H 1478.13 -2.74166 1.16777 0
M  V30 15421 H 1475.66 -1.3487 0.587248 0
M  V30 15422 H 1477.62 -4.06746 -0.928104 0
M  V30 15423 H 1476.25 -2.97402 -1.25507 0
M  V30 15424 H 1475.3 -3.65091 1.06829 0
M  V30 15425 H 1476.62 -4.84425 1.18887 0
M  V30 15426 H 1475.77 -6.00565 -0.860647 0
M  V30 15427 H 1474.51 -4.75802 -1.07067 0
M  V30 15428 H 1473.51 -5.37645 1.14968 0
M  V30 15429 H 1474.74 -6.65609 1.34692 0
M  V30 15430 H 1472.69 -6.49913 -0.891604 0
M  V30 15431 H 1472.6 -7.5442 0.48851 0
M  V30 15432 H 1473.87 -7.76529 -0.679929 0
M  V30 15433 N 1478.1 -0.635022 -1.4424 0
M  V30 15434 C 1479.33 -0.148045 -2.06069 0
M  V30 15435 C 1479.74 1.1842 -1.47558 0
M  V30 15436 O 1479.08 1.73817 -0.594425 0
M  V30 15437 C 1479.14 0.0369593 -3.59481 0
M  V30 15438 C 1478.81 -1.21773 -4.40478 0
M  V30 15439 C 1479.8 -2.14233 -4.73709 0
M  V30 15440 C 1477.49 -1.45423 -4.80788 0
M  V30 15441 C 1479.48 -3.2865 -5.46139 0
M  V30 15442 C 1477.17 -2.60136 -5.52967 0
M  V30 15443 C 1478.17 -3.51576 -5.85562 0
M  V30 15444 O 1477.86 -4.64289 -6.5627 0
M  V30 15445 H 1477.59 -0.0787231 -0.671401 0
M  V30 15446 H 1480.14 -0.870639 -1.86035 0
M  V30 15447 H 1478.37 0.814739 -3.7802 0
M  V30 15448 H 1480.06 0.478984 -4.03064 0
M  V30 15449 H 1480.83 -1.97196 -4.43101 0
M  V30 15450 H 1476.71 -0.751378 -4.54835 0
M  V30 15451 H 1480.25 -4.00043 -5.71499 0
M  V30 15452 H 1476.15 -2.77114 -5.82991 0
M  V30 15453 H 1476.92 -4.6332 -6.74742 0
M  V30 15454 N 1479.58 1.53054 -0.375806 0
M  V30 15455 C 1480.8 2.06296 0.213708 0
M  V30 15456 C 1481.23 1.24675 1.40846 0
M  V30 15457 O 1480.59 0.268371 1.79303 0
M  V30 15458 C 1480.63 3.55981 0.575301 0
M  V30 15459 O 1479.74 3.77023 1.67115 0
M  V30 15460 H 1479.08 0.66338 0.0286922 0
M  V30 15461 H 1481.61 1.97362 -0.539371 0
M  V30 15462 H 1481.62 3.99187 0.843431 0
M  V30 15463 H 1480.29 4.14829 -0.298258 0
M  V30 15464 H 1478.87 3.45712 1.39778 0
M  V30 15465 N 1481.06 0.105248 1.57248 0
M  V30 15466 C 1481.99 -0.846915 2.176 0
M  V30 15467 C 1482.97 -1.28706 1.11216 0
M  V30 15468 O 1484.15 -1.35213 1.39396 0
M  V30 15469 C 1481.28 -2.10228 2.76445 0
M  V30 15470 C 1480.24 -1.80041 3.8829 0
M  V30 15471 C 1479.56 -3.12491 4.33882 0
M  V30 15472 C 1480.86 -1.07943 5.11024 0
M  V30 15473 H 1482.56 -0.344052 2.97417 0
M  V30 15474 H 1480.1 -0.164045 1.43063 0
M  V30 15475 H 1482.06 -2.77284 3.17319 0
M  V30 15476 H 1480.78 -2.62815 1.93897 0
M  V30 15477 H 1479.44 -1.15379 3.4797 0
M  V30 15478 H 1479.09 -3.62985 3.48211 0
M  V30 15479 H 1478.79 -2.93072 5.09296 0
M  V30 15480 H 1480.31 -3.80688 4.77398 0
M  V30 15481 H 1481.72 -1.65127 5.49004 0
M  V30 15482 H 1480.12 -0.986674 5.91933 0
M  V30 15483 H 1481.19 -0.0638511 4.84858 0
M  V30 15484 N 1482.53 -1.56697 -0.168486 0
M  V30 15485 C 1483.81 -1.73032 -0.912097 0
M  V30 15486 C 1484.19 -0.667424 -2.00271 0
M  V30 15487 O 1483.54 0.317307 -2.26286 0
M  V30 15488 C 1483.75 -3.16334 -1.47424 0
M  V30 15489 C 1485.1 -3.77378 -1.94606 0
M  V30 15490 O 1486.12 -3.19629 -1.57212 0
M  V30 15491 O 1484.98 -4.78781 -2.63497 0
M  V30 15492 H 1482.07 -0.706713 -0.429518 0
M  V30 15493 H 1484.62 -1.68981 -0.156093 0
M  V30 15494 H 1483.39 -3.85179 -0.689421 0
M  V30 15495 H 1483.02 -3.24723 -2.29435 0
M  V30 15496 N 1484.01 0.437135 -1.51416 0
M  V30 15497 C 1485.26 1.18831 -1.64338 0
M  V30 15498 C 1485.59 1.9086 -0.358638 0
M  V30 15499 O 1484.87 1.83607 0.641769 0
M  V30 15500 C 1485.15 2.20515 -2.84685 0
M  V30 15501 C 1485 1.52568 -4.23135 0
M  V30 15502 C 1486.32 3.21494 -3.00549 0
M  V30 15503 H 1483.44 0.430652 -0.598087 0
M  V30 15504 H 1486.08 0.47753 -1.83901 0
M  V30 15505 H 1484.23 2.81132 -2.68136 0
M  V30 15506 H 1485.9 0.952851 -4.51352 0
M  V30 15507 H 1484.15 0.828025 -4.25824 0
M  V30 15508 H 1484.82 2.26623 -5.03335 0
M  V30 15509 H 1487.29 2.7093 -3.1581 0
M  V30 15510 H 1486.17 3.89934 -3.86319 0
M  V30 15511 H 1486.43 3.8761 -2.12629 0
M  V30 15512 N 1485.49 1.41566 0.692592 0
M  V30 15513 C 1486.4 1.46014 1.83622 0
M  V30 15514 C 1487.42 0.350453 1.70434 0
M  V30 15515 O 1488.59 0.598634 1.92298 0
M  V30 15516 C 1485.66 1.34308 3.19628 0
M  V30 15517 C 1484.72 2.55617 3.44904 0
M  V30 15518 C 1483.95 2.4446 4.74421 0
M  V30 15519 O 1484.17 1.47078 5.51112 0
M  V30 15520 O 1483.11 3.34272 5.00546 0
M  V30 15521 H 1486.93 2.42504 1.82826 0
M  V30 15522 H 1484.52 1.23136 0.846039 0
M  V30 15523 H 1486.4 1.30075 4.00822 0
M  V30 15524 H 1485.08 0.409343 3.21101 0
M  V30 15525 H 1483.98 2.65426 2.63628 0
M  V30 15526 H 1485.32 3.47829 3.48247 0
M  V30 15527 N 1486.97 -0.927146 1.27443 0
M  V30 15528 C 1488.19 -1.71426 1.16739 0
M  V30 15529 C 1488.62 -1.86122 -0.272063 0
M  V30 15530 O 1487.98 -1.36165 -1.19703 0
M  V30 15531 C 1488.02 -3.09131 1.85661 0
M  V30 15532 O 1487.13 -3.95897 1.15495 0
M  V30 15533 H 1486.47 -0.525428 0.405983 0
M  V30 15534 H 1489 -1.16022 1.68523 0
M  V30 15535 H 1489.01 -3.59442 1.93042 0
M  V30 15536 H 1487.68 -2.97752 2.90373 0
M  V30 15537 H 1486.26 -3.54337 1.16187 0
M  V30 15538 N 1488.45 -1.09474 -1.13372 0
M  V30 15539 C 1489.69 -0.82945 -1.84295 0
M  V30 15540 C 1490.02 0.646788 -1.83961 0
M  V30 15541 O 1489.29 1.46929 -1.29572 0
M  V30 15542 H 1487.87 -0.303853 -0.682409 0
M  V30 15543 H 1490.53 -1.38298 -1.3733 0
M  V30 15544 H 1489.62 -1.18342 -2.88793 0
M  V30 15545 N 1489.92 1.30607 -0.882012 0
M  V30 15546 C 1491.2 1.91056 -0.419153 0
M  V30 15547 C 1491.58 1.80185 1.09985 0
M  V30 15548 O 1490.93 1.21717 1.93384 0
M  V30 15549 C 1491.14 3.3682 -0.913949 0
M  V30 15550 C 1492.49 4.13901 -0.947169 0
M  V30 15551 O 1493.51 3.45652 -0.860412 0
M  V30 15552 O 1492.37 5.35826 -1.07483 0
M  V30 15553 H 1489.46 0.81709 -0.127645 0
M  V30 15554 H 1492.01 1.39195 -0.970717 0
M  V30 15555 H 1490.78 3.38804 -1.95774 0
M  V30 15556 H 1490.41 3.96132 -0.34138 0
M  V30 15557 N 1491.4 0.642663 1.43901 0
M  V30 15558 C 1492.31 -0.0562462 2.34533 0
M  V30 15559 C 1493.33 -0.823457 1.53281 0
M  V30 15560 O 1494.5 -0.773103 1.85971 0
M  V30 15561 C 1491.57 -1.01787 3.31422 0
M  V30 15562 C 1490.63 -0.248759 4.28579 0
M  V30 15563 C 1489.86 -1.16458 5.20839 0
M  V30 15564 O 1490.09 -2.40361 5.17284 0
M  V30 15565 O 1489.02 -0.642671 5.98459 0
M  V30 15566 H 1492.85 0.689476 2.9577 0
M  V30 15567 H 1490.43 0.402847 1.43866 0
M  V30 15568 H 1492.31 -1.5708 3.91029 0
M  V30 15569 H 1490.99 -1.744 2.72702 0
M  V30 15570 H 1489.9 0.347495 3.72483 0
M  V30 15571 H 1491.23 0.437589 4.90251 0
M  V30 15572 N 1492.88 -1.52852 0.383918 0
M  V30 15573 C 1493.84 -2.24904 -0.441687 0
M  V30 15574 C 1494.84 -1.26345 -0.99466 0
M  V30 15575 O 1496.03 -1.50484 -0.877513 0
M  V30 15576 C 1493.17 -2.99994 -1.61915 0
M  V30 15577 H 1494.36 -2.99304 0.189047 0
M  V30 15578 H 1491.91 -1.55708 0.135932 0
M  V30 15579 H 1492.65 -2.29882 -2.28746 0
M  V30 15580 H 1492.43 -3.72328 -1.2294 0
M  V30 15581 H 1493.92 -3.54716 -2.20378 0
M  V30 15582 N 1494.36 -0.113586 -1.5719 0
M  V30 15583 C 1495.31 0.855985 -2.16277 0
M  V30 15584 C 1496.3 1.2792 -1.11053 0
M  V30 15585 O 1497.51 1.25158 -1.29366 0
M  V30 15586 H 1493.88 0.294134 -0.692091 0
M  V30 15587 H 1495.85 0.333109 -2.96535 0
M  V30 15588 C 1494.6 2.09832 -2.77247 0
M  V30 15589 H 1493.93 1.78158 -3.5791 0
M  V30 15590 H 1495.37 2.7569 -3.22135 0
M  V30 15591 C 1493.82 2.88453 -1.74059 0
M  V30 15592 O 1494.35 3.83648 -1.19068 0
M  V30 15593 N 1492.56 2.52342 -1.44124 0
M  V30 15594 H 1492.11 1.74998 -1.89033 0
M  V30 15595 H 1492.07 3.05244 -0.753234 0
M  V30 15596 N 1495.84 1.56784 0.160173 0
M  V30 15597 C 1497.25 1.72193 0.721552 0
M  V30 15598 C 1497.6 0.725901 1.82278 0
M  V30 15599 O 1496.72 -0.110343 2.16118 0
M  V30 15600 C 1497.32 3.12212 1.31563 0
M  V30 15601 C 1495.88 3.29268 1.82371 0
M  V30 15602 C 1495.03 2.68136 0.70701 0
M  V30 15603 H 1497.98 1.58565 -0.0653521 0
M  V30 15604 H 1498 3.11481 2.1854 0
M  V30 15605 H 1497.51 3.84682 0.513917 0
M  V30 15606 H 1495.61 2.61774 2.65152 0
M  V30 15607 H 1495.72 4.37107 1.96149 0
M  V30 15608 H 1494.09 2.28246 1.1303 0
M  V30 15609 H 1494.87 3.432 -0.0830407 0
M  V30 15610 N 1497.32 -0.429099 1.51646 0
M  V30 15611 C 1498.56 -1.18722 1.66386 0
M  V30 15612 C 1498.92 -1.88285 0.375881 0
M  V30 15613 O 1500.12 -2.6582 0.399149 0
M  V30 15614 C 1498.39 -2.17076 2.83924 0
M  V30 15615 S 1499.95 -3.01264 3.19038 0
M  V30 15616 H 1496.77 -0.402488 0.586109 0
M  V30 15617 H 1499.37 -0.47752 1.89578 0
M  V30 15618 H 1498.07 -1.64625 3.75935 0
M  V30 15619 H 1497.61 -2.92615 2.62945 0
M  V30 15620 H 1499.62 -4.18807 2.66111 0
M  V30 15621 N 1498.79 -1.41931 -0.685074 0
M  V30 15622 C 1499.74 -1.44604 -1.79884 0
M  V30 15623 C 1500.71 -0.299166 -1.63384 0
M  V30 15624 O 1501.9 -0.501749 -1.84085 0
M  V30 15625 C 1499.04 -1.3442 -3.17845 0
M  V30 15626 C 1498.15 -2.59061 -3.45704 0
M  V30 15627 C 1497.28 -2.41094 -4.73336 0
M  V30 15628 C 1496.32 -3.61159 -4.94197 0
M  V30 15629 N 1495.46 -3.42198 -6.13062 0
M  V30 15630 H 1500.3 -2.39788 -1.76934 0
M  V30 15631 H 1497.84 -1.1906 -0.863891 0
M  V30 15632 H 1499.79 -1.26515 -3.97555 0
M  V30 15633 H 1498.42 -0.42838 -3.19945 0
M  V30 15634 H 1497.48 -2.77374 -2.60322 0
M  V30 15635 H 1498.79 -3.48341 -3.57016 0
M  V30 15636 H 1497.94 -2.30717 -5.61119 0
M  V30 15637 H 1496.68 -1.49288 -4.64289 0
M  V30 15638 H 1495.69 -3.7198 -4.04859 0
M  V30 15639 H 1496.91 -4.53933 -5.05096 0
M  V30 15640 H 1494.86 -2.531 -6.05208 0
M  V30 15641 H 1494.77 -4.25059 -6.25189 0
M  V30 15642 H 1496.04 -3.35612 -7.03551 0
M  V30 15643 N 1500.27 0.920374 -1.27933 0
M  V30 15644 C 1501.52 1.66883 -1.147 0
M  V30 15645 C 1501.85 1.92082 0.305732 0
M  V30 15646 O 1501.1 1.51449 1.23942 0
M  V30 15647 C 1501.4 3.03725 -1.88377 0
M  V30 15648 C 1501.07 2.9821 -3.38203 0
M  V30 15649 C 1499.73 2.96413 -3.79068 0
M  V30 15650 C 1502.08 2.88952 -4.3377 0
M  V30 15651 C 1499.41 2.83151 -5.13851 0
M  V30 15652 C 1501.76 2.77231 -5.68618 0
M  V30 15653 C 1500.42 2.73788 -6.08766 0
M  V30 15654 H 1499.69 0.61067 -0.419718 0
M  V30 15655 H 1502.34 1.0728 -1.58629 0
M  V30 15656 H 1500.65 3.67075 -1.36978 0
M  V30 15657 H 1502.34 3.60527 -1.7556 0
M  V30 15658 H 1498.93 3.004 -3.05709 0
M  V30 15659 H 1503.12 2.89433 -4.03165 0
M  V30 15660 H 1498.37 2.78877 -5.44093 0
M  V30 15661 H 1502.55 2.69034 -6.42335 0
M  V30 15662 H 1500.17 2.63268 -7.13158 0
M  V30 15663 N 1501.75 1.10074 1.1279 0
M  V30 15664 C 1502.68 0.704023 2.1812 0
M  V30 15665 C 1503.69 -0.25742 1.60752 0
M  V30 15666 O 1504.88 -0.0424559 1.7845 0
M  V30 15667 C 1501.98 0.0176666 3.38895 0
M  V30 15668 C 1501.16 1.00234 4.2576 0
M  V30 15669 C 1500.22 0.348158 5.25047 0
M  V30 15670 O 1499.24 0.997821 5.60386 0
M  V30 15671 N 1500.44 -0.894955 5.7356 0
M  V30 15672 H 1503.21 1.61024 2.52767 0
M  V30 15673 H 1500.77 0.989068 1.28176 0
M  V30 15674 H 1502.76 -0.431346 4.02395 0
M  V30 15675 H 1501.33 -0.7909 3.02429 0
M  V30 15676 H 1500.55 1.62972 3.58934 0
M  V30 15677 H 1501.84 1.669 4.80647 0
M  V30 15678 H 1501.24 -1.4422 5.47007 0
M  V30 15679 H 1499.79 -1.28718 6.38964 0
M  V30 15680 N 1503.23 -1.30138 0.888926 0
M  V30 15681 C 1504.19 -2.26299 0.363504 0
M  V30 15682 C 1505.19 -1.52951 -0.496244 0
M  V30 15683 O 1506.38 -1.71548 -0.302834 0
M  V30 15684 C 1503.51 -3.37482 -0.481544 0
M  V30 15685 H 1504.71 -2.7429 1.21265 0
M  V30 15686 H 1502.26 -1.41395 0.666124 0
M  V30 15687 H 1502.99 -2.94814 -1.35112 0
M  V30 15688 H 1502.78 -3.9187 0.134344 0
M  V30 15689 H 1504.27 -4.09048 -0.840816 0
M  V30 15690 N 1504.71 -0.650285 -1.43559 0
M  V30 15691 C 1505.95 -0.166046 -2.03724 0
M  V30 15692 C 1506.31 1.19631 -1.50174 0
M  V30 15693 O 1507.51 1.77379 -2.01966 0
M  V30 15694 C 1505.78 -0.172648 -3.56983 0
M  V30 15695 S 1507.34 0.244173 -4.3812 0
M  V30 15696 H 1504.16 -0.0705044 -0.707496 0
M  V30 15697 H 1506.76 -0.857964 -1.75668 0
M  V30 15698 H 1505.46 -1.16696 -3.93459 0
M  V30 15699 H 1505 0.539902 -3.89678 0
M  V30 15700 H 1507.01 1.48378 -4.73496 0
M  V30 15701 N 1506.18 1.52647 -0.392018 0
M  V30 15702 C 1507.13 2.28073 0.456674 0
M  V30 15703 C 1508.13 1.3208 1.06071 0
M  V30 15704 O 1509.33 1.49608 1.00088 0
M  V30 15705 H 1505.71 0.733443 0.166029 0
M  V30 15706 H 1507.68 2.97723 -0.200916 0
M  V30 15707 C 1506.43 3.10216 1.5704 0
M  V30 15708 H 1505.75 3.83939 1.11493 0
M  V30 15709 H 1507.19 3.66126 2.1384 0
M  V30 15710 C 1505.65 2.22698 2.52799 0
M  V30 15711 O 1506.18 1.8556 3.56273 0
M  V30 15712 N 1504.38 1.86804 2.22604 0
M  V30 15713 H 1503.93 2.17204 1.38492 0
M  V30 15714 H 1503.89 1.28538 2.86924 0
M  V30 15715 N 1507.66 0.121921 1.57128 0
M  V30 15716 C 1508.57 -0.840825 2.19014 0
M  V30 15717 C 1509.59 -1.29051 1.16712 0
M  V30 15718 O 1510.76 -1.35289 1.49194 0
M  V30 15719 C 1507.83 -2.07204 2.7797 0
M  V30 15720 C 1506.89 -1.67399 3.95318 0
M  V30 15721 C 1506.12 -2.84652 4.51452 0
M  V30 15722 O 1506.35 -4.00161 4.06482 0
M  V30 15723 O 1505.28 -2.61568 5.42094 0
M  V30 15724 H 1509.11 -0.344146 3.01744 0
M  V30 15725 H 1506.69 -0.103841 1.49039 0
M  V30 15726 H 1508.57 -2.79307 3.1554 0
M  V30 15727 H 1507.25 -2.55872 1.9827 0
M  V30 15728 H 1506.16 -0.92395 3.62511 0
M  V30 15729 H 1507.49 -1.2347 4.76462 0
M  V30 15730 N 1509.14 -1.56867 -0.151857 0
M  V30 15731 C 1510.39 -1.83082 -0.865285 0
M  V30 15732 C 1510.72 -0.702056 -1.81387 0
M  V30 15733 O 1509.97 0.309291 -1.9324 0
M  V30 15734 C 1510.27 -3.15597 -1.6773 0
M  V30 15735 C 1509.94 -4.4231 -0.875929 0
M  V30 15736 C 1508.6 -4.76724 -0.654826 0
M  V30 15737 C 1510.95 -5.20246 -0.315162 0
M  V30 15738 C 1508.28 -5.86538 0.13783 0
M  V30 15739 C 1510.63 -6.30892 0.464508 0
M  V30 15740 C 1509.29 -6.63859 0.696233 0
M  V30 15741 H 1508.56 -0.669945 -0.31663 0
M  V30 15742 H 1511.21 -1.91064 -0.129175 0
M  V30 15743 H 1509.52 -3.03044 -2.48338 0
M  V30 15744 H 1511.21 -3.33094 -2.23269 0
M  V30 15745 H 1507.8 -4.15328 -1.05832 0
M  V30 15746 H 1511.99 -4.94038 -0.473273 0
M  V30 15747 H 1507.24 -6.10525 0.32691 0
M  V30 15748 H 1511.42 -6.90479 0.906187 0
M  V30 15749 H 1509.04 -7.48788 1.3123 0
M  V30 15750 N 1510.62 0.421051 -1.51871 0
M  V30 15751 C 1511.84 1.19568 -1.69465 0
M  V30 15752 C 1512.27 1.83835 -0.398269 0
M  V30 15753 O 1511.63 1.69508 0.643172 0
M  V30 15754 C 1511.67 2.24337 -2.82321 0
M  V30 15755 O 1510.78 3.30205 -2.47059 0
M  V30 15756 H 1510.12 0.349579 -0.564527 0
M  V30 15757 H 1512.65 0.495177 -1.98517 0
M  V30 15758 H 1512.66 2.6886 -3.06885 0
M  V30 15759 H 1511.33 1.76941 -3.76384 0
M  V30 15760 H 1509.91 2.91045 -2.33125 0
M  V30 15761 N 1512.1 1.42293 0.677538 0
M  V30 15762 C 1513.01 1.47953 1.82063 0
M  V30 15763 C 1514.02 0.36851 1.70053 0
M  V30 15764 O 1515.2 0.618996 1.91652 0
M  V30 15765 C 1512.26 1.3769 3.18186 0
M  V30 15766 C 1511.32 2.59261 3.42173 0
M  V30 15767 C 1510.56 2.49478 4.71801 0
M  V30 15768 O 1510.78 1.52915 5.49521 0
M  V30 15769 O 1509.71 3.39562 4.96972 0
M  V30 15770 H 1513.54 2.4443 1.80244 0
M  V30 15771 H 1511.13 1.24027 0.832932 0
M  V30 15772 H 1513.01 1.34319 3.9942 0
M  V30 15773 H 1511.68 0.443377 3.20649 0
M  V30 15774 H 1510.59 2.68207 2.60798 0
M  V30 15775 H 1511.92 3.51503 3.44538 0
M  V30 15776 N 1513.57 -0.913576 1.28419 0
M  V30 15777 C 1514.81 -1.67716 1.16836 0
M  V30 15778 C 1515.18 -1.8997 -0.278452 0
M  V30 15779 O 1516.38 -2.63781 -0.516994 0
M  V30 15780 C 1514.65 -2.99838 1.94504 0
M  V30 15781 S 1516.21 -3.9093 1.99297 0
M  V30 15782 H 1513.03 -0.575987 0.416845 0
M  V30 15783 H 1515.63 -1.08661 1.62521 0
M  V30 15784 H 1514.33 -2.81343 2.98788 0
M  V30 15785 H 1513.86 -3.6394 1.4937 0
M  V30 15786 H 1515.88 -4.83863 1.0996 0
M  V30 15787 N 1515.05 -1.1067 -1.12204 0
M  V30 15788 C 1515.98 -0.779829 -2.20093 0
M  V30 15789 C 1516.96 0.248279 -1.68278 0
M  V30 15790 O 1518.15 0.113511 -1.93868 0
M  V30 15791 C 1515.28 -0.213511 -3.46643 0
M  V30 15792 C 1514.23 -1.17258 -4.11624 0
M  V30 15793 C 1513.56 -0.467352 -5.32654 0
M  V30 15794 C 1514.86 -2.52014 -4.57478 0
M  V30 15795 H 1516.55 -1.68192 -2.47693 0
M  V30 15796 H 1514.1 -0.810131 -1.1905 0
M  V30 15797 H 1516.05 0.0273225 -4.21391 0
M  V30 15798 H 1514.78 0.723837 -3.18478 0
M  V30 15799 H 1513.43 -1.39891 -3.3886 0
M  V30 15800 H 1513.08 0.474547 -5.00756 0
M  V30 15801 H 1512.78 -1.10694 -5.77079 0
M  V30 15802 H 1514.31 -0.235122 -6.10147 0
M  V30 15803 H 1515.72 -2.33516 -5.23587 0
M  V30 15804 H 1514.12 -3.1188 -5.1269 0
M  V30 15805 H 1515.19 -3.11831 -3.71335 0
M  V30 15806 N 1516.53 1.29665 -0.895815 0
M  V30 15807 C 1517.78 1.96006 -0.520522 0
M  V30 15808 C 1518.11 1.7048 0.930068 0
M  V30 15809 O 1517.38 1.01558 1.6588 0
M  V30 15810 C 1517.67 3.50897 -0.808925 0
M  V30 15811 C 1517.52 3.85896 -2.31093 0
M  V30 15812 C 1518.84 4.39125 -0.292769 0
M  V30 15813 H 1515.96 0.711931 -0.190588 0
M  V30 15814 H 1518.6 1.53349 -1.12179 0
M  V30 15815 H 1516.75 3.87362 -0.297194 0
M  V30 15816 H 1518.42 3.59397 -2.89191 0
M  V30 15817 H 1516.67 3.33578 -2.77323 0
M  V30 15818 H 1517.34 4.93989 -2.46331 0
M  V30 15819 H 1519.81 4.0963 -0.730906 0
M  V30 15820 H 1518.69 5.46395 -0.523799 0
M  V30 15821 H 1518.95 4.34683 0.806393 0
M  V30 15822 N 1518.01 0.657889 1.43212 0
M  V30 15823 C 1518.96 -0.0427288 2.32561 0
M  V30 15824 C 1519.95 -0.808236 1.48875 0
M  V30 15825 O 1521.16 -0.718109 1.65055 0
M  V30 15826 H 1517.53 -0.0326049 0.751293 0
M  V30 15827 H 1519.5 0.728503 2.89371 0
M  V30 15828 C 1518.25 -0.99216 3.33244 0
M  V30 15829 H 1517.57 -0.412542 3.97666 0
M  V30 15830 H 1519.01 -1.45138 3.98385 0
M  V30 15831 C 1517.47 -2.09044 2.64201 0
M  V30 15832 O 1518 -3.17481 2.46107 0
M  V30 15833 N 1516.21 -1.85732 2.23499 0
M  V30 15834 H 1515.76 -0.975483 2.38416 0
M  V30 15835 H 1515.71 -2.5941 1.77634 0
M  V30 15836 N 1519.49 -1.52437 0.400108 0
M  V30 15837 C 1520.9 -1.86563 -0.0715162 0
M  V30 15838 C 1521.25 -1.3193 -1.4522 0
M  V30 15839 O 1520.37 -0.654955 -2.06251 0
M  V30 15840 C 1520.97 -3.38525 -0.13655 0
M  V30 15841 C 1519.53 -3.72323 -0.55249 0
M  V30 15842 C 1518.67 -2.75896 0.278729 0
M  V30 15843 H 1521.63 -1.46192 0.617547 0
M  V30 15844 H 1521.65 -3.68357 -0.953588 0
M  V30 15845 H 1521.16 -3.78258 0.868468 0
M  V30 15846 H 1519.26 -3.38164 -1.56448 0
M  V30 15847 H 1519.37 -4.7814 -0.303139 0
M  V30 15848 H 1517.74 -2.53394 -0.257608 0
M  V30 15849 H 1518.52 -3.18467 1.28193 0
M  V30 15850 N 1520.96 -0.130252 -1.57061 0
M  V30 15851 C 1522.21 0.519478 -1.96654 0
M  V30 15852 C 1522.57 1.63568 -1.01308 0
M  V30 15853 O 1521.86 1.91547 -0.0450944 0
M  V30 15854 C 1522.05 1.08776 -3.40445 0
M  V30 15855 C 1521.88 0.0281442 -4.49691 0
M  V30 15856 C 1520.65 -0.407544 -5.03654 0
M  V30 15857 C 1522.85 -0.757073 -5.08697 0
M  V30 15858 N 1520.83 -1.45175 -5.96488 0
M  V30 15859 C 1522.2 -1.65219 -5.97581 0
M  V30 15860 C 1524.26 -0.806718 -4.91321 0
M  V30 15861 C 1522.96 -2.59266 -6.7095 0
M  V30 15862 C 1524.99 -1.73494 -5.65379 0
M  V30 15863 C 1524.35 -2.61761 -6.53957 0
M  V30 15864 H 1520.45 0.159387 -0.765585 0
M  V30 15865 H 1523.03 -0.220978 -1.93442 0
M  V30 15866 H 1521.2 1.79788 -3.44283 0
M  V30 15867 H 1522.93 1.70273 -3.67137 0
M  V30 15868 H 1519.69 -0.0129839 -4.73598 0
M  V30 15869 H 1520.11 -1.97311 -6.47609 0
M  V30 15870 H 1524.76 -0.138406 -4.22573 0
M  V30 15871 H 1522.47 -3.27105 -7.38937 0
M  V30 15872 H 1526.06 -1.77894 -5.53936 0
M  V30 15873 H 1524.94 -3.32418 -7.10259 0
M  V30 15874 N 1522.44 1.56945 0.143535 0
M  V30 15875 C 1523.67 1.88067 0.874385 0
M  V30 15876 C 1524.09 0.719645 1.73789 0
M  V30 15877 O 1523.45 -0.330654 1.78259 0
M  V30 15878 C 1523.5 3.17795 1.70408 0
M  V30 15879 O 1522.6 3.01973 2.80867 0
M  V30 15880 H 1521.94 0.617808 0.24333 0
M  V30 15881 H 1524.47 2.04165 0.133309 0
M  V30 15882 H 1524.48 3.49903 2.09838 0
M  V30 15883 H 1523.16 4.019 1.07001 0
M  V30 15884 H 1521.74 2.8128 2.44818 0
M  V30 15885 N 1523.92 -0.412991 1.52093 0
M  V30 15886 C 1525.17 -1.15801 1.65634 0
M  V30 15887 C 1525.49 -1.91127 0.386737 0
M  V30 15888 O 1524.76 -1.86541 -0.598262 0
M  V30 15889 H 1523.34 -0.430467 0.610498 0
M  V30 15890 H 1526 -0.471127 1.8912 0
M  V30 15891 H 1525.1 -1.87421 2.49559 0
M  V30 15892 N 1525.4 -1.4265 -0.669982 0
M  V30 15893 C 1526.31 -1.48916 -1.81276 0
M  V30 15894 C 1527.33 -0.377523 -1.69855 0
M  V30 15895 O 1528.5 -0.629151 -1.91321 0
M  V30 15896 C 1525.57 -1.39376 -3.17451 0
M  V30 15897 C 1524.63 -2.61072 -3.40793 0
M  V30 15898 C 1523.86 -2.51976 -4.70472 0
M  V30 15899 O 1524.08 -1.55827 -5.48702 0
M  V30 15900 O 1523.02 -3.42193 -4.95164 0
M  V30 15901 H 1526.84 -2.45382 -1.78945 0
M  V30 15902 H 1524.43 -1.24467 -0.826342 0
M  V30 15903 H 1526.31 -1.36435 -3.98702 0
M  V30 15904 H 1524.99 -0.460376 -3.20409 0
M  V30 15905 H 1523.89 -2.69587 -2.59372 0
M  V30 15906 H 1525.23 -3.53325 -3.42669 0
M  V30 15907 N 1526.88 0.906753 -1.28902 0
M  V30 15908 C 1527.84 1.99158 -1.1344 0
M  V30 15909 C 1528.84 1.60639 -0.0719551 0
M  V30 15910 O 1530.03 1.71267 -0.318317 0
M  V30 15911 C 1527.16 3.32923 -0.733172 0
M  V30 15912 H 1528.36 2.14305 -2.09794 0
M  V30 15913 H 1525.91 1.09034 -1.11988 0
M  V30 15914 H 1526.64 3.23477 0.230826 0
M  V30 15915 H 1526.43 3.62244 -1.50073 0
M  V30 15916 H 1527.92 4.12544 -0.64784 0
M  V30 15917 N 1528.36 1.11264 1.11616 0
M  V30 15918 C 1529.3 0.769295 2.17602 0
M  V30 15919 C 1530.27 -0.258362 1.64078 0
M  V30 15920 O 1531.46 -0.135698 1.90317 0
M  V30 15921 C 1528.6 0.216647 3.44419 0
M  V30 15922 C 1527.71 1.30064 4.11955 0
M  V30 15923 C 1526.85 0.708729 5.26451 0
M  V30 15924 C 1525.88 1.7727 5.85868 0
M  V30 15925 N 1525.02 1.20042 6.91762 0
M  V30 15926 H 1529.86 1.67727 2.46316 0
M  V30 15927 H 1527.4 0.83764 1.20921 0
M  V30 15928 H 1529.36 -0.121724 4.17022 0
M  V30 15929 H 1527.99 -0.654525 3.16095 0
M  V30 15930 H 1527.04 1.756 3.37445 0
M  V30 15931 H 1528.35 2.1057 4.52174 0
M  V30 15932 H 1527.5 0.320307 6.05854 0
M  V30 15933 H 1526.24 -0.127668 4.87533 0
M  V30 15934 H 1525.25 2.17046 5.05145 0
M  V30 15935 H 1526.47 2.6121 6.26854 0
M  V30 15936 H 1524.42 0.385633 6.54866 0
M  V30 15937 H 1524.34 1.94221 7.30626 0
M  V30 15938 H 1525.6 0.838825 7.74974 0
M  V30 15939 N 1529.83 -1.29188 0.902679 0
M  V30 15940 C 1531.07 -1.97218 0.53707 0
M  V30 15941 C 1531.44 -1.69577 -0.900422 0
M  V30 15942 O 1532.64 -2.31086 -1.37305 0
M  V30 15943 C 1530.91 -3.47753 0.824796 0
M  V30 15944 S 1532.47 -4.35161 0.563943 0
M  V30 15945 H 1529.29 -0.682544 0.199136 0
M  V30 15946 H 1531.89 -1.56941 1.16575 0
M  V30 15947 H 1530.59 -3.65364 1.86916 0
M  V30 15948 H 1530.12 -3.92968 0.184342 0
M  V30 15949 H 1532.14 -4.92683 -0.589697 0
M  V30 15950 N 1531.31 -0.665475 -1.42861 0
M  V30 15951 C 1532.73 -0.334157 -1.56063 0
M  V30 15952 C 1532.93 1.16104 -1.64688 0
M  V30 15953 O 1531.98 1.94622 -1.60867 0
M  V30 15954 C 1533.3 -1.05628 -2.81537 0
M  V30 15955 C 1534.84 -1.03771 -2.95297 0
M  V30 15956 C 1535.32 -1.74098 -4.2362 0
M  V30 15957 N 1536.81 -1.7092 -4.30512 0
M  V30 15958 C 1537.55 -2.222 -5.28597 0
M  V30 15959 N 1537.04 -2.81821 -6.32889 0
M  V30 15960 N 1538.83 -2.12628 -5.20332 0
M  V30 15961 H 1530.99 -1.6356 -1.35506 0
M  V30 15962 H 1533.25 -0.688538 -0.651628 0
M  V30 15963 H 1532.95 -2.11141 -2.81269 0
M  V30 15964 H 1532.83 -0.615586 -3.72143 0
M  V30 15965 H 1535.22 0.00905324 -2.95099 0
M  V30 15966 H 1535.3 -1.51721 -2.05948 0
M  V30 15967 H 1534.94 -2.78737 -4.2458 0
M  V30 15968 H 1534.87 -1.23604 -5.11888 0
M  V30 15969 H 1537.36 -1.27425 -3.55769 0
M  V30 15970 H 1537.67 -3.18594 -7.04072 0
M  V30 15971 H 1536.02 -2.85887 -6.33478 0
M  V30 15972 H 1539.21 -1.65746 -4.37774 0
M  V30 15973 H 1539.38 -2.52899 -5.96612 0
M  V30 15974 N 1532.79 1.52222 -0.408187 0
M  V30 15975 C 1534.03 2.03713 0.167444 0
M  V30 15976 C 1534.39 1.28722 1.42459 0
M  V30 15977 O 1535.59 1.70434 2.0786 0
M  V30 15978 C 1533.87 3.55039 0.410146 0
M  V30 15979 S 1535.42 4.28318 0.953358 0
M  V30 15980 H 1532.24 0.709544 0.0454811 0
M  V30 15981 H 1534.84 1.87281 -0.560888 0
M  V30 15982 H 1533.55 4.07199 -0.511618 0
M  V30 15983 H 1533.08 3.75712 1.16638 0
M  V30 15984 H 1535.09 4.43066 2.23399 0
M  V30 15985 N 1534.27 0.138579 1.5699 0
M  V30 15986 C 1535.51 -0.514627 1.95852 0
M  V30 15987 C 1535.84 -1.65424 1.02299 0
M  V30 15988 O 1535.1 -1.95635 0.0505654 0
M  V30 15989 C 1535.4 -1.06969 3.41017 0
M  V30 15990 C 1535.06 -0.049396 4.50873 0
M  V30 15991 C 1533.72 0.231103 4.80645 0
M  V30 15992 C 1536.08 0.644865 5.17195 0
M  V30 15993 C 1533.4 1.21181 5.74049 0
M  V30 15994 C 1535.76 1.61434 6.11655 0
M  V30 15995 C 1534.42 1.90262 6.3981 0
M  V30 15996 H 1533.69 -0.188315 0.716672 0
M  V30 15997 H 1536.34 0.223629 1.9019 0
M  V30 15998 H 1534.64 -1.88511 3.43469 0
M  V30 15999 H 1536.34 -1.58354 3.68409 0
M  V30 16000 H 1532.93 -0.278202 4.27696 0
M  V30 16001 H 1537.11 0.441346 4.94334 0
M  V30 16002 H 1532.37 1.4417 5.94159 0
M  V30 16003 H 1536.54 2.15786 6.62125 0
M  V30 16004 H 1534.17 2.66407 7.11991 0
M  V30 16005 N 1535.75 -1.57019 -0.13521 0
M  V30 16006 C 1537.16 -1.73319 -0.694067 0
M  V30 16007 C 1537.51 -0.754808 -1.811 0
M  V30 16008 O 1536.63 0.0759463 -2.16267 0
M  V30 16009 C 1537.23 -3.14266 -1.26579 0
M  V30 16010 C 1535.79 -3.32128 -1.7711 0
M  V30 16011 C 1534.93 -2.69226 -0.664263 0
M  V30 16012 H 1537.88 -1.58441 0.0905702 0
M  V30 16013 H 1537.91 -3.14919 -2.13557 0
M  V30 16014 H 1537.42 -3.85451 -0.452652 0
M  V30 16015 H 1535.52 -2.65959 -2.60953 0
M  V30 16016 H 1535.63 -4.40172 -1.8917 0
M  V30 16017 H 1534 -2.30016 -1.09384 0
M  V30 16018 H 1534.78 -3.43024 0.13763 0
M  V30 16019 N 1537.22 0.404919 -1.52309 0
M  V30 16020 C 1538.47 1.14921 -1.66246 0
M  V30 16021 C 1538.79 1.90919 -0.396868 0
M  V30 16022 O 1538.06 1.86856 0.588361 0
M  V30 16023 H 1536.64 0.427223 -0.612772 0
M  V30 16024 H 1539.31 0.461091 -1.89367 0
M  V30 16025 H 1538.4 1.86095 -2.5055 0
M  V30 16026 N 1538.7 1.43003 0.662408 0
M  V30 16027 C 1539.93 1.47341 1.44825 0
M  V30 16028 C 1540.34 0.0870204 1.89 0
M  V30 16029 O 1539.68 -0.911158 1.59511 0
M  V30 16030 C 1539.75 2.34882 2.7216 0
M  V30 16031 C 1539.41 3.82567 2.49983 0
M  V30 16032 C 1540.41 4.73909 2.13791 0
M  V30 16033 C 1538.09 4.26962 2.64592 0
M  V30 16034 C 1540.09 6.07639 1.92493 0
M  V30 16035 C 1537.77 5.60748 2.4291 0
M  V30 16036 C 1538.77 6.50903 2.06915 0
M  V30 16037 O 1538.46 7.82217 1.85451 0
M  V30 16038 H 1538.19 0.502932 0.451703 0
M  V30 16039 H 1540.74 1.88312 0.820224 0
M  V30 16040 H 1538.97 1.88782 3.37488 0
M  V30 16041 H 1540.66 2.3053 3.34082 0
M  V30 16042 H 1541.43 4.40892 2.02088 0
M  V30 16043 H 1537.31 3.5707 2.91586 0
M  V30 16044 H 1540.85 6.77971 1.64321 0
M  V30 16045 H 1536.75 5.93335 2.54212 0
M  V30 16046 H 1537.52 7.93702 1.9995 0
M  V30 16047 N 1540.18 -0.899904 1.29381 0
M  V30 16048 C 1541.11 -2.02045 1.17047 0
M  V30 16049 C 1542.09 -1.69977 0.0647354 0
M  V30 16050 O 1543.28 -1.92659 0.244173 0
M  V30 16051 C 1540.41 -3.36839 0.845991 0
M  V30 16052 C 1539.36 -3.83117 1.90802 0
M  V30 16053 C 1538.69 -5.15032 1.43686 0
M  V30 16054 C 1539.99 -4.03464 3.31684 0
M  V30 16055 H 1541.68 -2.12623 2.10789 0
M  V30 16056 H 1539.23 -1.02162 1.01484 0
M  V30 16057 H 1541.18 -4.14737 0.746413 0
M  V30 16058 H 1539.9 -3.26352 -0.127125 0
M  V30 16059 H 1538.56 -3.07435 1.99698 0
M  V30 16060 H 1538.21 -5.00961 0.452422 0
M  V30 16061 H 1537.91 -5.46967 2.14711 0
M  V30 16062 H 1539.43 -5.95472 1.35078 0
M  V30 16063 H 1540.85 -4.71845 3.25631 0
M  V30 16064 H 1539.25 -4.46752 4.00665 0
M  V30 16065 H 1540.32 -3.07807 3.74677 0
M  V30 16066 N 1541.66 -1.11854 -1.11024 0
M  V30 16067 C 1542.88 -0.892999 -1.8719 0
M  V30 16068 C 1543.31 0.552058 -1.79816 0
M  V30 16069 O 1542.67 1.39025 -1.16369 0
M  V30 16070 C 1542.71 -1.3647 -3.33779 0
M  V30 16071 O 1541.82 -0.539202 -4.0886 0
M  V30 16072 H 1541.16 -0.321319 -0.581076 0
M  V30 16073 H 1543.69 -1.4891 -1.4031 0
M  V30 16074 H 1543.7 -1.3611 -3.84627 0
M  V30 16075 H 1542.37 -2.41694 -3.38462 0
M  V30 16076 H 1540.95 -0.60927 -3.67889 0
M  V30 16077 N 1543.14 1.28707 -0.909517 0
M  V30 16078 C 1544.38 1.95443 -0.541281 0
M  V30 16079 C 1544.72 1.71457 0.911934 0
M  V30 16080 O 1543.99 1.03312 1.64794 0
M  V30 16081 C 1544.27 3.50019 -0.846097 0
M  V30 16082 C 1544.13 3.83423 -2.35173 0
M  V30 16083 C 1545.45 4.3879 -0.339328 0
M  V30 16084 H 1542.56 0.709869 -0.198128 0
M  V30 16085 H 1545.21 1.52151 -1.13799 0
M  V30 16086 H 1543.36 3.87025 -0.338262 0
M  V30 16087 H 1545.03 3.5631 -2.92986 0
M  V30 16088 H 1543.27 3.30618 -2.80846 0
M  V30 16089 H 1543.94 4.91348 -2.51557 0
M  V30 16090 H 1546.42 4.08832 -0.774312 0
M  V30 16091 H 1545.29 5.45809 -0.581722 0
M  V30 16092 H 1545.56 4.35514 0.760244 0
M  V30 16093 N 1544.61 0.673042 1.42506 0
M  V30 16094 C 1545.52 -0.00648572 2.34599 0
M  V30 16095 C 1546.54 -0.790758 1.54994 0
M  V30 16096 O 1547.72 -0.733482 1.87569 0
M  V30 16097 C 1544.78 -0.94734 3.33506 0
M  V30 16098 C 1543.84 -0.157795 4.2901 0
M  V30 16099 C 1543.08 -1.05384 5.23192 0
M  V30 16100 O 1543.3 -2.29334 5.22266 0
M  V30 16101 O 1542.23 -0.515584 5.99688 0
M  V30 16102 H 1546.06 0.752059 2.94241 0
M  V30 16103 H 1543.64 0.433272 1.42979 0
M  V30 16104 H 1545.53 -1.4875 3.94273 0
M  V30 16105 H 1544.2 -1.68577 2.7634 0
M  V30 16106 H 1543.11 0.426426 3.71662 0
M  V30 16107 H 1544.44 0.54148 4.89212 0
M  V30 16108 N 1546.09 -1.52004 0.416254 0
M  V30 16109 C 1547 -2.30947 -0.412403 0
M  V30 16110 C 1548.02 -1.38969 -1.04707 0
M  V30 16111 O 1549.19 -1.72044 -1.04703 0
M  V30 16112 C 1546.26 -3.12078 -1.51024 0
M  V30 16113 C 1545.32 -4.19805 -0.897892 0
M  V30 16114 C 1544.55 -4.97059 -1.94341 0
M  V30 16115 O 1544.78 -4.74695 -3.16261 0
M  V30 16116 O 1543.71 -5.81715 -1.54567 0
M  V30 16117 H 1547.54 -3.02817 0.231473 0
M  V30 16118 H 1545.12 -1.4832 0.179283 0
M  V30 16119 H 1547 -3.6258 -2.14741 0
M  V30 16120 H 1545.68 -2.42995 -2.13858 0
M  V30 16121 H 1544.59 -3.73433 -0.223236 0
M  V30 16122 H 1545.92 -4.91201 -0.31336 0
M  V30 16123 N 1547.57 -0.146903 -1.56914 0
M  V30 16124 C 1548.99 0.20951 -1.58219 0
M  V30 16125 C 1549.19 1.64679 -1.16116 0
M  V30 16126 O 1548.24 2.37352 -0.861414 0
M  V30 16127 C 1549.56 -0.0491564 -3.0066 0
M  V30 16128 C 1551.1 0.0145605 -3.12997 0
M  V30 16129 C 1551.58 -0.216773 -4.57487 0
M  V30 16130 N 1553.07 -0.163698 -4.62911 0
M  V30 16131 C 1553.8 -0.317204 -5.72522 0
M  V30 16132 N 1553.3 -0.528426 -6.90782 0
M  V30 16133 N 1555.09 -0.254814 -5.61522 0
M  V30 16134 H 1547.24 -1.08536 -1.82575 0
M  V30 16135 H 1549.51 -0.42963 -0.845057 0
M  V30 16136 H 1549.21 -1.04387 -3.35851 0
M  V30 16137 H 1549.09 0.670296 -3.71197 0
M  V30 16138 H 1551.47 0.999829 -2.77646 0
M  V30 16139 H 1551.56 -0.737219 -2.44946 0
M  V30 16140 H 1551.2 -1.19914 -4.93541 0
M  V30 16141 H 1551.13 0.555329 -5.23664 0
M  V30 16142 H 1553.62 -0.00509433 -3.779 0
M  V30 16143 H 1553.93 -0.635667 -7.70181 0
M  V30 16144 H 1552.28 -0.564746 -6.92702 0
M  V30 16145 H 1555.47 -0.0905626 -4.68012 0
M  V30 16146 H 1555.64 -0.377881 -6.46897 0
M  V30 16147 N 1549.05 1.57088 0.126881 0
M  V30 16148 C 1550.46 1.73685 0.684865 0
M  V30 16149 C 1550.81 0.764401 1.80697 0
M  V30 16150 O 1549.94 -0.0644761 2.16304 0
M  V30 16151 C 1550.53 3.14933 1.24911 0
M  V30 16152 C 1549.09 3.33063 1.75346 0
M  V30 16153 C 1548.24 2.69575 0.649976 0
M  V30 16154 H 1551.19 1.58391 -0.0989715 0
M  V30 16155 H 1551.21 3.16047 2.11884 0
M  V30 16156 H 1550.72 3.85686 0.432204 0
M  V30 16157 H 1548.82 2.67339 2.59539 0
M  V30 16158 H 1548.93 4.41169 1.86833 0
M  V30 16159 H 1547.3 2.30592 1.08163 0
M  V30 16160 H 1548.08 3.42946 -0.15582 0
M  V30 16161 N 1550.53 -0.396836 1.52522 0
M  V30 16162 C 1551.77 -1.15166 1.68867 0
M  V30 16163 C 1552.13 -1.87445 0.415734 0
M  V30 16164 O 1553.33 -2.64913 0.455443 0
M  V30 16165 C 1551.6 -2.11005 2.88465 0
M  V30 16166 S 1553.16 -2.94429 3.25357 0
M  V30 16167 H 1549.98 -0.389966 0.594515 0
M  V30 16168 H 1552.58 -0.437201 1.90549 0
M  V30 16169 H 1551.29 -1.56613 3.79342 0
M  V30 16170 H 1550.82 -2.86971 2.69093 0
M  V30 16171 H 1552.83 -4.13068 2.74934 0
M  V30 16172 N 1552.01 -1.43353 -0.654814 0
M  V30 16173 C 1552.94 -1.44353 -1.7803 0
M  V30 16174 C 1553.95 -0.339872 -1.59213 0
M  V30 16175 O 1555.14 -0.604207 -1.67963 0
M  V30 16176 C 1552.24 -1.23913 -3.15434 0
M  V30 16177 C 1551.41 -2.47088 -3.60924 0
M  V30 16178 C 1550.47 -2.21896 -4.77126 0
M  V30 16179 O 1549.5 -2.95236 -4.86646 0
M  V30 16180 N 1550.7 -1.23459 -5.6722 0
M  V30 16181 H 1553.46 -2.41372 -1.77651 0
M  V30 16182 H 1551.03 -1.38488 -0.838603 0
M  V30 16183 H 1553.02 -1.04945 -3.90856 0
M  V30 16184 H 1551.59 -0.35346 -3.10595 0
M  V30 16185 H 1550.81 -2.81492 -2.75964 0
M  V30 16186 H 1552.1 -3.29066 -3.88064 0
M  V30 16187 H 1551.49 -0.6284 -5.62199 0
M  V30 16188 H 1550.05 -1.10474 -6.4237 0
M  V30 16189 N 1553.48 0.89303 -1.29857 0
M  V30 16190 C 1554.71 1.6827 -1.21243 0
M  V30 16191 C 1555.13 1.86778 0.222621 0
M  V30 16192 O 1554.49 1.39291 1.1605 0
M  V30 16193 C 1554.54 3.041 -1.93792 0
M  V30 16194 O 1553.64 3.92696 -1.25951 0
M  V30 16195 H 1552.98 0.514479 -0.419771 0
M  V30 16196 H 1555.51 1.11513 -1.7154 0
M  V30 16197 H 1555.52 3.54198 -2.02504 0
M  V30 16198 H 1554.2 2.89948 -2.98166 0
M  V30 16199 H 1552.78 3.51132 -1.25541 0
M  V30 16200 N 1554.96 1.12442 1.10429 0
M  V30 16201 C 1555.89 0.814745 2.18824 0
M  V30 16202 C 1556.87 -0.221476 1.68652 0
M  V30 16203 O 1558.06 -0.0826537 1.94024 0
M  V30 16204 C 1555.19 0.268632 3.4626 0
M  V30 16205 C 1554.14 1.23792 4.09707 0
M  V30 16206 C 1553.47 0.552034 5.31843 0
M  V30 16207 C 1554.77 2.5926 4.53411 0
M  V30 16208 H 1556.46 1.72111 2.44986 0
M  V30 16209 H 1554.01 0.828968 1.17746 0
M  V30 16210 H 1555.96 0.0397207 4.21381 0
M  V30 16211 H 1554.68 -0.673079 3.19589 0
M  V30 16212 H 1553.34 1.45264 3.36592 0
M  V30 16213 H 1552.99 -0.394821 5.01448 0
M  V30 16214 H 1552.69 1.19861 5.75245 0
M  V30 16215 H 1554.22 0.332161 6.09696 0
M  V30 16216 H 1555.63 2.41816 5.19806 0
M  V30 16217 H 1554.03 3.19997 5.07663 0
M  V30 16218 H 1555.1 3.17699 3.66327 0
M  V30 16219 N 1556.44 -1.28223 0.91633 0
M  V30 16220 C 1557.68 -1.96637 0.557957 0
M  V30 16221 C 1558.04 -1.70523 -0.882386 0
M  V30 16222 O 1559.24 -2.32529 -1.34846 0
M  V30 16223 C 1557.52 -3.46858 0.861633 0
M  V30 16224 S 1559.07 -4.34538 0.610066 0
M  V30 16225 H 1555.89 -0.680393 0.206364 0
M  V30 16226 H 1558.49 -1.55696 1.18233 0
M  V30 16227 H 1557.2 -3.63361 1.90781 0
M  V30 16228 H 1556.73 -3.9275 0.226011 0
M  V30 16229 H 1558.74 -4.93281 -0.537408 0
M  V30 16230 N 1557.92 -0.68059 -1.42147 0
M  V30 16231 C 1559.19 -0.133957 -1.95141 0
M  V30 16232 C 1559.57 1.3526 -1.62074 0
M  V30 16233 O 1558.92 2.09165 -0.919898 0
M  V30 16234 C 1559.13 -0.409266 -3.46592 0
M  V30 16235 C 1560.48 -0.328899 -4.23324 0
M  V30 16236 O 1561.5 -0.343337 -3.54541 0
M  V30 16237 O 1560.36 -0.276076 -5.45802 0
M  V30 16238 H 1557.46 -0.00623443 -0.826977 0
M  V30 16239 H 1560 -0.755719 -1.51944 0
M  V30 16240 H 1558.78 -1.43883 -3.63887 0
M  V30 16241 H 1558.4 0.244216 -3.96849 0
M  V30 16242 N 1559.4 1.51781 -0.424309 0
M  V30 16243 C 1560.33 2.30313 0.384462 0
M  V30 16244 C 1561.31 1.35166 1.03268 0
M  V30 16245 O 1562.49 1.64081 1.0388 0
M  V30 16246 C 1559.62 3.13566 1.49311 0
M  V30 16247 C 1558.58 4.16884 0.969096 0
M  V30 16248 C 1557.9 4.88576 2.17251 0
M  V30 16249 C 1559.2 5.22298 0.0125613 0
M  V30 16250 H 1560.9 2.98172 -0.270871 0
M  V30 16251 H 1558.44 1.43396 -0.131712 0
M  V30 16252 H 1560.39 3.67279 2.06602 0
M  V30 16253 H 1559.12 2.43504 2.17655 0
M  V30 16254 H 1557.78 3.64203 0.418494 0
M  V30 16255 H 1557.43 4.15029 2.84183 0
M  V30 16256 H 1557.13 5.58432 1.82833 0
M  V30 16257 H 1558.65 5.45107 2.75119 0
M  V30 16258 H 1560.06 5.71161 0.494744 0
M  V30 16259 H 1558.46 5.99606 -0.243544 0
M  V30 16260 H 1559.53 4.75935 -0.92813 0
M  V30 16261 N 1560.87 0.155222 1.56834 0
M  V30 16262 C 1561.81 -0.812448 2.14317 0
M  V30 16263 C 1562.82 -1.20502 1.09467 0
M  V30 16264 O 1564.01 -1.14767 1.36714 0
M  V30 16265 C 1561.11 -2.10279 2.65774 0
M  V30 16266 C 1560.28 -1.8763 3.95112 0
M  V30 16267 C 1559.34 -3.0073 4.31796 0
M  V30 16268 O 1558.37 -2.72064 4.9997 0
M  V30 16269 N 1559.57 -4.28114 3.92044 0
M  V30 16270 H 1562.33 -0.321106 2.97975 0
M  V30 16271 H 1559.89 -0.0280861 1.61876 0
M  V30 16272 H 1561.89 -2.85005 2.87323 0
M  V30 16273 H 1560.46 -2.50652 1.86796 0
M  V30 16274 H 1559.68 -0.968958 3.82106 0
M  V30 16275 H 1560.96 -1.69845 4.79614 0
M  V30 16276 H 1560.36 -4.54269 3.37129 0
M  V30 16277 H 1558.92 -4.99594 4.18627 0
M  V30 16278 N 1562.35 -1.57153 -0.118549 0
M  V30 16279 C 1563.76 -1.74046 -0.675645 0
M  V30 16280 C 1564.11 -0.773974 -1.80289 0
M  V30 16281 O 1563.24 0.0530041 -2.16335 0
M  V30 16282 C 1563.83 -3.15591 -1.23239 0
M  V30 16283 C 1562.39 -3.33988 -1.73577 0
M  V30 16284 C 1561.54 -2.69916 -0.63567 0
M  V30 16285 H 1564.49 -1.58336 0.10737 0
M  V30 16286 H 1564.51 -3.17166 -2.10205 0
M  V30 16287 H 1564.02 -3.8591 -0.411744 0
M  V30 16288 H 1562.12 -2.68712 -2.58118 0
M  V30 16289 H 1562.24 -4.42154 -1.84491 0
M  V30 16290 H 1560.6 -2.31163 -1.06939 0
M  V30 16291 H 1561.38 -3.42859 0.174005 0
M  V30 16292 N 1563.83 0.388742 -1.5273 0
M  V30 16293 C 1565.11 1.14799 -1.58368 0
M  V30 16294 C 1565.49 2.07706 -0.377018 0
M  V30 16295 O 1564.83 2.1951 0.634634 0
M  V30 16296 C 1565.04 1.90745 -2.92262 0
M  V30 16297 C 1566.39 2.46098 -3.46007 0
M  V30 16298 O 1567.42 2.00901 -2.94138 0
M  V30 16299 O 1566.28 3.28658 -4.3663 0
M  V30 16300 H 1563.37 0.52529 -0.638748 0
M  V30 16301 H 1565.92 0.393874 -1.65066 0
M  V30 16302 H 1564.69 1.22806 -3.7153 0
M  V30 16303 H 1564.31 2.73118 -2.88951 0
M  V30 16304 N 1565.31 1.43698 0.647203 0
M  V30 16305 C 1566.55 1.45633 1.40703 0
M  V30 16306 C 1566.88 0.0828643 1.94323 0
M  V30 16307 O 1566.14 -0.913033 1.73096 0
M  V30 16308 C 1566.44 2.45083 2.60133 0
M  V30 16309 C 1566.1 3.9081 2.24896 0
M  V30 16310 C 1564.76 4.30499 2.14998 0
M  V30 16311 C 1567.12 4.8262 1.96794 0
M  V30 16312 C 1564.44 5.59942 1.75163 0
M  V30 16313 C 1566.8 6.12433 1.58456 0
M  V30 16314 C 1565.46 6.51092 1.47088 0
M  V30 16315 H 1564.73 0.53291 0.514867 0
M  V30 16316 H 1567.38 1.76814 0.735458 0
M  V30 16317 H 1565.68 2.07327 3.3245 0
M  V30 16318 H 1567.38 2.43833 3.1835 0
M  V30 16319 H 1563.97 3.59403 2.33512 0
M  V30 16320 H 1568.15 4.52724 2.03359 0
M  V30 16321 H 1563.41 5.88728 1.64952 0
M  V30 16322 H 1567.58 6.83042 1.35745 0
M  V30 16323 H 1565.21 7.51299 1.15992 0
M  V30 16324 N 1566.79 -0.886131 1.30328 0
M  V30 16325 C 1568.03 -1.652 1.20367 0
M  V30 16326 C 1568.39 -1.90518 -0.238093 0
M  V30 16327 O 1569.59 -2.64819 -0.460926 0
M  V30 16328 C 1567.86 -2.95645 2.00821 0
M  V30 16329 S 1569.42 -3.86614 2.07545 0
M  V30 16330 H 1566.24 -0.567015 0.428969 0
M  V30 16331 H 1568.84 -1.05189 1.64789 0
M  V30 16332 H 1567.55 -2.74942 3.04688 0
M  V30 16333 H 1567.08 -3.6069 1.57056 0
M  V30 16334 H 1569.09 -4.81421 1.20199 0
M  V30 16335 N 1568.26 -1.13026 -1.09832 0
M  V30 16336 C 1569.19 -0.826338 -2.18389 0
M  V30 16337 C 1570.18 0.212529 -1.68767 0
M  V30 16338 O 1571.36 0.072363 -1.94065 0
M  V30 16339 C 1568.49 -0.286991 -3.46112 0
M  V30 16340 C 1567.44 -1.25963 -4.09044 0
M  V30 16341 C 1566.77 -0.580231 -5.31542 0
M  V30 16342 C 1568.07 -2.61661 -4.5203 0
M  V30 16343 H 1569.76 -1.73408 -2.4407 0
M  V30 16344 H 1567.31 -0.835201 -1.17305 0
M  V30 16345 H 1569.26 -0.062067 -4.21354 0
M  V30 16346 H 1567.99 0.656121 -3.19942 0
M  V30 16347 H 1566.65 -1.47047 -3.35816 0
M  V30 16348 H 1566.29 0.368222 -5.0165 0
M  V30 16349 H 1565.99 -1.2291 -5.74601 0
M  V30 16350 H 1567.52 -0.36449 -6.09511 0
M  V30 16351 H 1568.93 -2.44569 -5.18516 0
M  V30 16352 H 1567.33 -3.22685 -5.05959 0
M  V30 16353 H 1568.4 -3.19637 -3.64637 0
M  V30 16354 N 1569.74 1.27735 -0.923117 0
M  V30 16355 C 1570.69 2.28975 -0.409065 0
M  V30 16356 C 1571.68 1.61723 0.504194 0
M  V30 16357 O 1572.89 1.75848 0.384402 0
M  V30 16358 H 1569.27 0.743354 -0.113705 0
M  V30 16359 H 1571.24 2.69751 -1.27582 0
M  V30 16360 C 1569.99 3.46158 0.327099 0
M  V30 16361 H 1569.31 3.98117 -0.366444 0
M  V30 16362 H 1570.75 4.18968 0.65128 0
M  V30 16363 C 1569.21 2.99724 1.53842 0
M  V30 16364 O 1569.74 3.03001 2.6373 0
M  V30 16365 N 1567.94 2.55274 1.38865 0
M  V30 16366 H 1567.49 2.52807 0.494629 0
M  V30 16367 H 1567.45 2.24567 2.20039 0
M  V30 16368 N 1571.22 0.688118 1.41784 0
M  V30 16369 C 1572.5 0.144304 1.95067 0
M  V30 16370 C 1572.88 -1.34399 1.62789 0
M  V30 16371 O 1572.23 -2.08675 0.930978 0
M  V30 16372 C 1572.44 0.427641 3.4637 0
M  V30 16373 C 1573.78 0.351345 4.23144 0
M  V30 16374 O 1574.81 0.362134 3.54354 0
M  V30 16375 O 1573.67 0.305018 5.45648 0
M  V30 16376 H 1570.76 0.01062 0.826932 0
M  V30 16377 H 1573.31 0.763766 1.51541 0
M  V30 16378 H 1572.08 1.4581 3.63119 0
M  V30 16379 H 1571.7 -0.223167 3.96973 0
M  V30 16380 N 1572.7 -1.51554 0.432352 0
M  V30 16381 C 1573.95 -2.01645 -0.135511 0
M  V30 16382 C 1574.27 -1.31874 -1.43647 0
M  V30 16383 O 1573.54 -0.451746 -1.9062 0
M  V30 16384 H 1572.12 -0.745113 -0.0530683 0
M  V30 16385 H 1574.78 -1.86258 0.573917 0
M  V30 16386 H 1573.88 -3.10506 -0.315001 0
M  V30 16387 N 1574.18 -0.163538 -1.56749 0
M  V30 16388 C 1575.12 0.769787 -2.17584 0
M  V30 16389 C 1576.09 1.23246 -1.11354 0
M  V30 16390 O 1577.28 1.30203 -1.3947 0
M  V30 16391 C 1574.42 1.99685 -2.81461 0
M  V30 16392 C 1573.53 1.57846 -4.0213 0
M  V30 16393 C 1572.67 2.75858 -4.53955 0
M  V30 16394 C 1571.71 2.30473 -5.67053 0
M  V30 16395 N 1570.84 3.41551 -6.13423 0
M  V30 16396 H 1575.68 0.244221 -2.96998 0
M  V30 16397 H 1573.22 0.108821 -1.46697 0
M  V30 16398 H 1575.18 2.71643 -3.16648 0
M  V30 16399 H 1573.81 2.49624 -2.04664 0
M  V30 16400 H 1572.86 0.755907 -3.72814 0
M  V30 16401 H 1574.17 1.20525 -4.8402 0
M  V30 16402 H 1573.33 3.55984 -4.91284 0
M  V30 16403 H 1572.06 3.16434 -3.71107 0
M  V30 16404 H 1571.07 1.48791 -5.29284 0
M  V30 16405 H 1572.29 1.90964 -6.51698 0
M  V30 16406 H 1570.24 3.81717 -5.33506 0
M  V30 16407 H 1570.16 3.08298 -6.90281 0
M  V30 16408 H 1571.43 4.21985 -6.554 0
M  V30 16409 N 1575.65 1.57214 0.110213 0
M  V30 16410 C 1576.89 1.87133 0.822229 0
M  V30 16411 C 1577.26 0.752645 1.76633 0
M  V30 16412 O 1578.46 0.933837 2.52057 0
M  V30 16413 C 1576.73 3.22286 1.54487 0
M  V30 16414 S 1578.29 3.73861 2.29725 0
M  V30 16415 H 1575.11 0.65598 0.274248 0
M  V30 16416 H 1577.71 1.95336 0.0801112 0
M  V30 16417 H 1576.41 4.0164 0.84343 0
M  V30 16418 H 1575.94 3.17184 2.32719 0
M  V30 16419 H 1577.96 3.46066 3.55602 0
M  V30 16420 N 1577.13 -0.380637 1.52934 0
M  V30 16421 C 1578.41 -1.13958 1.58975 0
M  V30 16422 C 1578.79 -2.07503 0.388028 0
M  V30 16423 O 1578.14 -2.19844 -0.622984 0
M  V30 16424 C 1578.35 -1.89192 2.9327 0
M  V30 16425 C 1579.7 -2.44259 3.47308 0
M  V30 16426 O 1580.72 -1.99338 2.95199 0
M  V30 16427 O 1579.58 -3.26338 4.38367 0
M  V30 16428 H 1576.67 -0.521896 0.641525 0
M  V30 16429 H 1579.22 -0.385114 1.65272 0
M  V30 16430 H 1577.99 -1.20834 3.72176 0
M  V30 16431 H 1577.61 -2.71581 2.90395 0
M  V30 16432 N 1578.61 -1.44039 -0.639573 0
M  V30 16433 C 1579.86 -1.4566 -1.39521 0
M  V30 16434 C 1580.17 -0.0897878 -1.95394 0
M  V30 16435 O 1581.38 0.0165074 -2.71495 0
M  V30 16436 C 1579.83 -2.56395 -2.52566 0
M  V30 16437 C 1579.44 -3.99245 -2.03243 0
M  V30 16438 C 1581.19 -2.67226 -3.29834 0
M  V30 16439 C 1579.09 -5.01419 -3.1358 0
M  V30 16440 H 1578.02 -0.541894 -0.524277 0
M  V30 16441 H 1580.67 -1.70076 -0.688941 0
M  V30 16442 H 1579.06 -2.25204 -3.25729 0
M  V30 16443 H 1580.23 -4.39963 -1.37002 0
M  V30 16444 H 1578.55 -3.9258 -1.38816 0
M  V30 16445 H 1581.14 -3.40736 -4.12072 0
M  V30 16446 H 1581.49 -1.72756 -3.78763 0
M  V30 16447 H 1582.02 -2.97786 -2.63758 0
M  V30 16448 H 1578.76 -5.97489 -2.69605 0
M  V30 16449 H 1578.28 -4.65301 -3.7849 0
M  V30 16450 H 1579.96 -5.2474 -3.78493 0
M  V30 16451 N 1580.09 0.879207 -1.30796 0
M  V30 16452 C 1581.02 1.98828 -1.11994 0
M  V30 16453 C 1582 1.62579 -0.0259762 0
M  V30 16454 O 1583.18 1.87632 -0.180638 0
M  V30 16455 C 1580.31 3.3119 -0.709287 0
M  V30 16456 C 1579.36 3.86424 -1.80496 0
M  V30 16457 S 1580.19 4.1301 -3.40856 0
M  V30 16458 C 1581.35 5.48383 -3.01706 0
M  V30 16459 H 1581.58 2.14472 -2.05886 0
M  V30 16460 H 1579.11 1.02829 -1.15176 0
M  V30 16461 H 1581.07 4.07695 -0.479093 0
M  V30 16462 H 1579.73 3.13395 0.210364 0
M  V30 16463 H 1578.92 4.82085 -1.47004 0
M  V30 16464 H 1578.53 3.16679 -1.98973 0
M  V30 16465 H 1580.82 6.29678 -2.50025 0
M  V30 16466 H 1581.76 5.86818 -3.96296 0
M  V30 16467 H 1582.17 5.11218 -2.39409 0
M  V30 16468 N 1581.57 1.13606 1.09231 0
M  V30 16469 C 1582.98 0.91148 1.62938 0
M  V30 16470 C 1583.33 -0.55157 1.88287 0
M  V30 16471 O 1582.45 -1.4187 1.63407 0
M  V30 16472 C 1583.05 1.64812 2.96011 0
M  V30 16473 C 1581.61 1.46935 3.46536 0
M  V30 16474 C 1580.76 1.67605 2.20916 0
M  V30 16475 H 1583.71 1.28907 0.925669 0
M  V30 16476 H 1583.73 1.10638 3.6406 0
M  V30 16477 H 1583.24 2.71291 2.77529 0
M  V30 16478 H 1581.34 0.427667 3.70138 0
M  V30 16479 H 1581.45 2.23374 4.2384 0
M  V30 16480 H 1579.82 1.10105 2.29672 0
M  V30 16481 H 1580.6 2.75408 2.04952 0
M  V30 16482 N 1583.05 -1.27244 0.929878 0
M  V30 16483 C 1584.29 -1.93886 0.570331 0
M  V30 16484 C 1584.61 -1.7342 -0.891656 0
M  V30 16485 O 1583.88 -1.0832 -1.63228 0
M  V30 16486 H 1582.46 -0.717476 0.207937 0
M  V30 16487 H 1585.13 -1.5491 1.18275 0
M  V30 16488 H 1584.22 -3.02236 0.778463 0
M  V30 16489 N 1584.52 -0.695628 -1.41417 0
M  V30 16490 C 1585.47 -0.00717107 -2.27999 0
M  V30 16491 C 1586.46 0.752768 -1.42205 0
M  V30 16492 O 1587.65 0.628252 -1.65475 0
M  V30 16493 C 1584.78 0.928436 -3.30507 0
M  V30 16494 C 1583.86 0.164742 -4.2378 0
M  V30 16495 N 1584.26 -0.841489 -4.98751 0
M  V30 16496 C 1582.55 0.400213 -4.44201 0
M  V30 16497 C 1583.25 -1.29863 -5.67019 0
M  V30 16498 N 1582.23 -0.624547 -5.4 0
M  V30 16499 H 1586.03 -0.778669 -2.83397 0
M  V30 16500 H 1583.55 -0.526469 -1.5363 0
M  V30 16501 H 1585.54 1.4368 -3.91359 0
M  V30 16502 H 1584.2 1.69953 -2.7667 0
M  V30 16503 H 1585.21 -1.22173 -5.03283 0
M  V30 16504 H 1581.89 1.14919 -4.01373 0
M  V30 16505 H 1583.28 -2.13362 -6.37123 0
M  V30 16506 N 1586 1.51322 -0.440383 0
M  V30 16507 C 1587.25 2.01714 0.124815 0
M  V30 16508 C 1587.57 1.32634 1.42945 0
M  V30 16509 O 1586.84 0.461849 1.90378 0
M  V30 16510 H 1585.42 0.745384 0.049116 0
M  V30 16511 H 1588.08 1.85951 -0.583787 0
M  V30 16512 H 1587.18 3.10669 0.29853 0
M  V30 16513 N 1587.48 0.171848 1.5666 0
M  V30 16514 C 1588.44 -0.744316 2.16778 0
M  V30 16515 C 1589.44 -1.15769 1.11598 0
M  V30 16516 O 1590.63 -1.07456 1.37109 0
M  V30 16517 C 1587.76 -2.01319 2.75106 0
M  V30 16518 H 1588.96 -0.220952 2.99085 0
M  V30 16519 H 1586.51 -0.0777149 1.56107 0
M  V30 16520 H 1587.25 -2.57963 1.96534 0
M  V30 16521 H 1587.03 -1.72575 3.5208 0
M  V30 16522 H 1588.52 -2.667 3.21342 0
M  V30 16523 N 1588.96 -1.5727 -0.101874 0
M  V30 16524 C 1590.21 -1.84928 -0.805263 0
M  V30 16525 C 1590.52 -0.760099 -1.80227 0
M  V30 16526 O 1591.73 -0.923594 -2.55308 0
M  V30 16527 C 1590.18 -3.27929 -1.48291 0
M  V30 16528 C 1589.79 -4.44901 -0.526016 0
M  V30 16529 C 1591.53 -3.64819 -2.17043 0
M  V30 16530 C 1589.44 -5.78934 -1.20787 0
M  V30 16531 H 1588.37 -0.689789 -0.304478 0
M  V30 16532 H 1591.02 -1.83408 -0.0581337 0
M  V30 16533 H 1589.4 -3.2397 -2.27726 0
M  V30 16534 H 1590.58 -4.60193 0.236352 0
M  V30 16535 H 1588.89 -4.16363 0.0554387 0
M  V30 16536 H 1591.49 -4.62236 -2.68778 0
M  V30 16537 H 1591.83 -2.93104 -2.95628 0
M  V30 16538 H 1592.37 -3.70637 -1.44476 0
M  V30 16539 H 1589.1 -6.53863 -0.46296 0
M  V30 16540 H 1588.62 -5.67497 -1.94183 0
M  V30 16541 H 1590.3 -6.23268 -1.73626 0
M  V30 16542 N 1590.44 0.372521 -1.53134 0
M  V30 16543 C 1591.68 1.12465 -1.70678 0
M  V30 16544 C 1592.04 1.8676 -0.445503 0
M  V30 16545 O 1593.24 2.64155 -0.497531 0
M  V30 16546 C 1591.51 2.06389 -2.91785 0
M  V30 16547 S 1593.07 2.89216 -3.3 0
M  V30 16548 H 1589.89 0.380458 -0.600644 0
M  V30 16549 H 1592.49 0.406831 -1.9122 0
M  V30 16550 H 1591.19 1.50559 -3.81786 0
M  V30 16551 H 1590.73 2.82654 -2.73624 0
M  V30 16552 H 1592.74 4.08642 -2.81471 0
M  V30 16553 N 1591.91 1.44376 0.631925 0
M  V30 16554 C 1593.33 1.28245 0.950014 0
M  V30 16555 C 1593.53 0.217644 2.00321 0
M  V30 16556 O 1592.59 -0.396736 2.49364 0
M  V30 16557 C 1593.9 2.65378 1.41404 0
M  V30 16558 C 1595.45 2.73081 1.52956 0
M  V30 16559 C 1595.92 4.10682 2.02742 0
M  V30 16560 N 1597.41 4.12854 2.10014 0
M  V30 16561 C 1598.15 5.16173 2.49705 0
M  V30 16562 N 1597.64 6.29855 2.88539 0
M  V30 16563 N 1599.44 5.03528 2.49832 0
M  V30 16564 H 1591.59 2.12302 -0.0646167 0
M  V30 16565 H 1593.85 0.9474 0.0337162 0
M  V30 16566 H 1593.56 3.44366 0.714476 0
M  V30 16567 H 1593.43 2.92213 2.3852 0
M  V30 16568 H 1595.82 1.94412 2.22009 0
M  V30 16569 H 1595.9 2.49988 0.542176 0
M  V30 16570 H 1595.54 4.89827 1.34285 0
M  V30 16571 H 1595.47 4.31152 3.02351 0
M  V30 16572 H 1597.96 3.30806 1.8269 0
M  V30 16573 H 1598.28 7.04505 3.17637 0
M  V30 16574 H 1596.62 6.33294 2.86293 0
M  V30 16575 H 1599.81 4.13773 2.18883 0
M  V30 16576 H 1599.99 5.84172 2.80441 0
M  V30 16577 N 1593.39 -0.872258 1.31261 0
M  V30 16578 C 1594.63 -1.63914 1.22113 0
M  V30 16579 C 1595 -1.9076 -0.217873 0
M  V30 16580 O 1596.2 -2.65293 -0.432812 0
M  V30 16581 C 1594.47 -2.93498 2.03945 0
M  V30 16582 S 1596.03 -3.84391 2.11634 0
M  V30 16583 H 1592.84 -0.562434 0.434959 0
M  V30 16584 H 1595.45 -1.03435 1.65896 0
M  V30 16585 H 1594.15 -2.71695 3.07587 0
M  V30 16586 H 1593.68 -3.59004 1.60872 0
M  V30 16587 H 1595.7 -4.8012 1.25298 0
M  V30 16588 N 1594.87 -1.14184 -1.08627 0
M  V30 16589 C 1596.29 -0.881757 -1.33031 0
M  V30 16590 C 1596.49 0.478313 -1.95741 0
M  V30 16591 O 1595.54 1.22308 -2.209 0
M  V30 16592 C 1596.85 -2.01274 -2.23404 0
M  V30 16593 C 1598.4 -2.04578 -2.3689 0
M  V30 16594 C 1598.88 -3.16962 -3.30604 0
M  V30 16595 N 1600.37 -3.16526 -3.3818 0
M  V30 16596 C 1601.1 -4.00124 -4.10716 0
M  V30 16597 N 1600.6 -4.93757 -4.8598 0
M  V30 16598 N 1602.39 -3.88193 -4.06525 0
M  V30 16599 H 1594.54 -2.01787 -0.663017 0
M  V30 16600 H 1596.81 -0.879152 -0.354677 0
M  V30 16601 H 1596.51 -2.9938 -1.84566 0
M  V30 16602 H 1596.39 -1.93393 -3.2385 0
M  V30 16603 H 1598.77 -1.0708 -2.74987 0
M  V30 16604 H 1598.85 -2.16529 -1.36194 0
M  V30 16605 H 1598.5 -4.14704 -2.93228 0
M  V30 16606 H 1598.43 -3.02248 -4.31223 0
M  V30 16607 H 1600.92 -2.48708 -2.84522 0
M  V30 16608 H 1601.23 -5.54015 -5.38783 0
M  V30 16609 H 1599.58 -4.97756 -4.8504 0
M  V30 16610 H 1602.77 -3.14365 -3.46831 0
M  V30 16611 H 1602.94 -4.53571 -4.62793 0
M  V30 16612 N 1596.35 1.26749 -0.936613 0
M  V30 16613 C 1597.59 1.94251 -0.582616 0
M  V30 16614 C 1597.93 1.73352 0.875361 0
M  V30 16615 O 1597.2 1.06784 1.62565 0
M  V30 16616 C 1597.49 3.48145 -0.920151 0
M  V30 16617 C 1597.34 3.78349 -2.43253 0
M  V30 16618 C 1598.66 4.37971 -0.432326 0
M  V30 16619 H 1595.78 0.705507 -0.213141 0
M  V30 16620 H 1598.42 1.49703 -1.17001 0
M  V30 16621 H 1596.57 3.8622 -0.420279 0
M  V30 16622 H 1598.24 3.50015 -3.00478 0
M  V30 16623 H 1596.48 3.24586 -2.87795 0
M  V30 16624 H 1597.15 4.85902 -2.61922 0
M  V30 16625 H 1599.63 4.07098 -0.860857 0
M  V30 16626 H 1598.51 5.44452 -0.697366 0
M  V30 16627 H 1598.77 4.37029 0.667694 0
M  V30 16628 N 1597.83 0.703118 1.41046 0
M  V30 16629 C 1599.07 0.236818 2.00708 0
M  V30 16630 C 1599.4 -1.17008 1.55994 0
M  V30 16631 O 1598.67 -1.79094 0.793871 0
M  V30 16632 H 1597.25 0.0845643 0.742198 0
M  V30 16633 H 1599.91 0.905964 1.72564 0
M  V30 16634 H 1599 0.260141 3.11014 0
M  V30 16635 N 1599.3 -1.51086 0.448402 0
M  V30 16636 C 1600.21 -2.3177 -0.363323 0
M  V30 16637 C 1601.23 -1.41159 -1.01736 0
M  V30 16638 O 1602.41 -1.74226 -1.01031 0
M  V30 16639 C 1599.47 -3.15211 -1.4437 0
M  V30 16640 C 1598.53 -4.21615 -0.808643 0
M  V30 16641 C 1597.77 -5.01069 -1.83754 0
M  V30 16642 O 1597.99 -4.81296 -3.06121 0
M  V30 16643 O 1596.92 -5.84863 -1.42193 0
M  V30 16644 H 1600.75 -3.02257 0.295653 0
M  V30 16645 H 1598.33 -1.47907 0.210703 0
M  V30 16646 H 1600.22 -3.67053 -2.07002 0
M  V30 16647 H 1598.89 -2.47476 -2.08656 0
M  V30 16648 H 1597.8 -3.73823 -0.143975 0
M  V30 16649 H 1599.13 -4.91756 -0.209098 0
M  V30 16650 N 1600.78 -0.180154 -1.56567 0
M  V30 16651 C 1601.73 0.763484 -2.19713 0
M  V30 16652 C 1602.72 1.23095 -1.16378 0
M  V30 16653 O 1603.93 1.19558 -1.34558 0
M  V30 16654 H 1600.31 0.264515 -0.703943 0
M  V30 16655 H 1602.28 0.207039 -2.97681 0
M  V30 16656 C 1601.03 1.97884 -2.85897 0
M  V30 16657 H 1600.35 1.62818 -3.65144 0
M  V30 16658 H 1601.79 2.61779 -3.33538 0
M  V30 16659 C 1600.25 2.80811 -1.86136 0
M  V30 16660 O 1600.78 3.78253 -1.35232 0
M  V30 16661 N 1598.98 2.46003 -1.54697 0
M  V30 16662 H 1598.53 1.66823 -1.96285 0
M  V30 16663 H 1598.49 3.01774 -0.88202 0
M  V30 16664 N 1602.26 1.57322 0.0935319 0
M  V30 16665 C 1603.51 1.87313 0.792794 0
M  V30 16666 C 1603.86 0.771181 1.76268 0
M  V30 16667 O 1603.15 -0.226679 1.90254 0
M  V30 16668 C 1603.35 3.21605 1.55901 0
M  V30 16669 C 1603.18 4.44758 0.66483 0
M  V30 16670 C 1601.95 5.04348 0.309971 0
M  V30 16671 C 1604.15 5.14292 -0.0288905 0
M  V30 16672 N 1602.13 6.11037 -0.592212 0
M  V30 16673 C 1603.5 6.14958 -0.789082 0
M  V30 16674 C 1605.55 4.97794 -0.102647 0
M  V30 16675 C 1604.26 7.00909 -1.61614 0
M  V30 16676 C 1606.28 5.84254 -0.916612 0
M  V30 16677 C 1605.64 6.84441 -1.66492 0
M  V30 16678 H 1601.74 0.735289 0.266222 0
M  V30 16679 H 1604.33 1.94622 0.0552534 0
M  V30 16680 H 1602.5 3.15345 2.26742 0
M  V30 16681 H 1604.23 3.39317 2.20559 0
M  V30 16682 H 1600.99 4.69007 0.65798 0
M  V30 16683 H 1601.41 6.69028 -1.0359 0
M  V30 16684 H 1606.05 4.20273 0.461548 0
M  V30 16685 H 1603.77 7.7782 -2.1914 0
M  V30 16686 H 1607.36 5.73549 -0.976374 0
M  V30 16687 H 1606.24 7.50183 -2.28461 0
M  V30 16688 N 1603.74 -0.364395 1.53329 0
M  V30 16689 C 1604.98 -1.10501 1.70766 0
M  V30 16690 C 1605.34 -1.86955 0.45448 0
M  V30 16691 O 1604.63 -1.8346 -0.552528 0
M  V30 16692 C 1604.83 -2.09208 2.8977 0
M  V30 16693 C 1604.66 -1.42453 4.26541 0
M  V30 16694 C 1603.43 -1.17816 4.91373 0
M  V30 16695 C 1605.62 -0.861619 5.07031 0
M  V30 16696 N 1603.61 -0.474233 6.12066 0
M  V30 16697 C 1604.98 -0.28712 6.19335 0
M  V30 16698 C 1607.03 -0.760424 4.92059 0
M  V30 16699 C 1605.73 0.378707 7.18302 0
M  V30 16700 C 1607.76 -0.108375 5.91301 0
M  V30 16701 C 1607.12 0.455245 7.02927 0
M  V30 16702 H 1603.22 -0.38946 0.678119 0
M  V30 16703 H 1605.81 -0.391247 1.90728 0
M  V30 16704 H 1603.98 -2.77897 2.71345 0
M  V30 16705 H 1605.71 -2.75956 2.96024 0
M  V30 16706 H 1602.46 -1.45975 4.50542 0
M  V30 16707 H 1602.89 -0.137599 6.7686 0
M  V30 16708 H 1607.53 -1.18194 4.05943 0
M  V30 16709 H 1605.25 0.812171 8.04008 0
M  V30 16710 H 1608.83 -0.0309878 5.81792 0
M  V30 16711 H 1607.71 0.951813 7.78402 0
M  V30 16712 N 1605.22 -1.44709 -0.62426 0
M  V30 16713 C 1606.45 -1.51129 -1.40867 0
M  V30 16714 C 1606.85 -0.1371 -1.88703 0
M  V30 16715 O 1606.2 0.868546 -1.6187 0
M  V30 16716 C 1606.26 -2.42015 -2.65836 0
M  V30 16717 C 1605.92 -3.89061 -2.39752 0
M  V30 16718 C 1606.92 -4.79411 -2.01151 0
M  V30 16719 C 1604.61 -4.33827 -2.53179 0
M  V30 16720 C 1606.6 -6.12529 -1.76314 0
M  V30 16721 C 1604.29 -5.66991 -2.27957 0
M  V30 16722 C 1605.28 -6.56161 -1.89584 0
M  V30 16723 O 1604.97 -7.86859 -1.64647 0
M  V30 16724 H 1604.7 -0.514731 -0.43821 0
M  V30 16725 H 1607.26 -1.90421 -0.770008 0
M  V30 16726 H 1605.49 -1.97663 -3.32365 0
M  V30 16727 H 1607.18 -2.39306 -3.27852 0
M  V30 16728 H 1607.94 -4.46095 -1.90328 0
M  V30 16729 H 1603.82 -3.64675 -2.82016 0
M  V30 16730 H 1607.37 -6.82089 -1.46288 0
M  V30 16731 H 1603.26 -5.99866 -2.38392 0
M  V30 16732 H 1604.03 -7.98724 -1.78837 0
M  V30 16733 N 1606.69 0.865285 -1.31722 0
M  V30 16734 C 1608.11 1.15179 -1.10481 0
M  V30 16735 C 1608.31 2.01132 0.121667 0
M  V30 16736 O 1607.37 2.39167 0.809645 0
M  V30 16737 C 1608.68 1.8394 -2.3788 0
M  V30 16738 C 1610.23 1.96621 -2.43535 0
M  V30 16739 C 1610.7 2.68796 -3.70827 0
M  V30 16740 N 1612.19 2.76329 -3.71748 0
M  V30 16741 C 1612.93 3.32798 -4.6694 0
M  V30 16742 N 1612.42 3.90162 -5.7249 0
M  V30 16743 N 1614.22 3.30801 -4.54453 0
M  V30 16744 H 1606.37 0.292632 -2.10374 0
M  V30 16745 H 1608.63 0.192252 -0.928301 0
M  V30 16746 H 1608.34 1.28233 -3.27489 0
M  V30 16747 H 1608.21 2.84182 -2.48034 0
M  V30 16748 H 1610.6 2.5149 -1.54392 0
M  V30 16749 H 1610.68 0.954071 -2.37342 0
M  V30 16750 H 1610.32 2.14593 -4.60339 0
M  V30 16751 H 1610.25 3.70427 -3.74288 0
M  V30 16752 H 1612.74 2.35621 -2.95451 0
M  V30 16753 H 1613.06 4.31376 -6.41198 0
M  V30 16754 H 1611.4 3.88525 -5.76258 0
M  V30 16755 H 1614.59 2.85227 -3.71165 0
M  V30 16756 H 1614.77 3.74511 -5.28815 0
M  V30 16757 N 1608.17 1.14759 1.0802 0
M  V30 16758 C 1609.42 0.916435 1.80127 0
M  V30 16759 C 1609.74 -0.558281 1.86837 0
M  V30 16760 O 1609.01 -1.40579 1.36434 0
M  V30 16761 H 1607.59 0.336066 0.667135 0
M  V30 16762 H 1610.25 1.44693 1.30576 0
M  V30 16763 H 1609.35 1.31986 2.82818 0
M  V30 16764 N 1609.65 -1.26251 0.943322 0
M  V30 16765 C 1610.6 -2.26304 0.453315 0
M  V30 16766 C 1611.57 -1.58764 -0.488168 0
M  V30 16767 O 1612.75 -1.86476 -0.403906 0
M  V30 16768 C 1609.89 -3.44015 -0.273393 0
M  V30 16769 C 1609.01 -4.26225 0.70401 0
M  V30 16770 C 1608.14 -5.31182 -0.0441134 0
M  V30 16771 C 1607.18 -6.05071 0.924971 0
M  V30 16772 N 1606.32 -7.0179 0.208461 0
M  V30 16773 H 1611.16 -2.67591 1.31146 0
M  V30 16774 H 1608.69 -1.31567 0.657914 0
M  V30 16775 H 1610.65 -4.11094 -0.711192 0
M  V30 16776 H 1609.28 -3.03636 -1.09566 0
M  V30 16777 H 1608.33 -3.58915 1.26032 0
M  V30 16778 H 1609.65 -4.77442 1.44398 0
M  V30 16779 H 1608.8 -6.04282 -0.541091 0
M  V30 16780 H 1607.54 -4.80809 -0.816952 0
M  V30 16781 H 1606.54 -5.30795 1.43305 0
M  V30 16782 H 1607.77 -6.57533 1.69785 0
M  V30 16783 H 1605.71 -6.53725 -0.545846 0
M  V30 16784 H 1605.63 -7.5077 0.887725 0
M  V30 16785 H 1606.9 -7.79041 -0.267352 0
M  V30 16786 N 1611.13 -0.710588 -1.40671 0
M  V30 16787 C 1612.08 -0.031353 -2.27978 0
M  V30 16788 C 1613.06 0.737643 -1.42995 0
M  V30 16789 O 1614.26 0.610666 -1.66132 0
M  V30 16790 C 1611.38 0.893329 -3.31473 0
M  V30 16791 C 1610.47 0.119785 -4.23931 0
M  V30 16792 N 1610.86 -0.894341 -4.9783 0
M  V30 16793 C 1609.16 0.353077 -4.446 0
M  V30 16794 C 1609.86 -1.3587 -5.6561 0
M  V30 16795 N 1608.84 -0.681786 -5.39308 0
M  V30 16796 H 1612.64 -0.808683 -2.82555 0
M  V30 16797 H 1610.15 -0.542734 -1.53063 0
M  V30 16798 H 1612.15 1.39521 -3.92861 0
M  V30 16799 H 1610.81 1.67009 -2.78457 0
M  V30 16800 H 1611.82 -1.27504 -5.01959 0
M  V30 16801 H 1608.5 1.10655 -4.02569 0
M  V30 16802 H 1609.89 -2.20108 -6.34825 0
M  V30 16803 N 1612.61 1.50847 -0.456408 0
M  V30 16804 C 1613.85 2.04143 0.102549 0
M  V30 16805 C 1614.21 1.33189 1.38292 0
M  V30 16806 O 1615.41 1.7696 2.02333 0
M  V30 16807 C 1613.68 3.56164 0.296985 0
M  V30 16808 S 1615.24 4.31134 0.816609 0
M  V30 16809 H 1612.06 0.710632 0.0228845 0
M  V30 16810 H 1614.66 1.85402 -0.620186 0
M  V30 16811 H 1613.37 4.05365 -0.640906 0
M  V30 16812 H 1612.9 3.79232 1.04626 0
M  V30 16813 H 1614.91 4.49949 2.0919 0
M  V30 16814 N 1614.09 0.188454 1.56469 0
M  V30 16815 C 1615 -0.747176 2.22384 0
M  V30 16816 C 1616.01 -1.23985 1.22081 0
M  V30 16817 O 1617.19 -1.2884 1.54797 0
M  V30 16818 C 1614.25 -1.95228 2.86508 0
M  V30 16819 C 1613.31 -1.50482 4.02062 0
M  V30 16820 C 1612.55 -2.65248 4.63119 0
M  V30 16821 O 1612.77 -3.8256 4.23088 0
M  V30 16822 O 1611.7 -2.38341 5.527 0
M  V30 16823 H 1615.53 -0.215857 3.02932 0
M  V30 16824 H 1613.11 -0.0405356 1.49345 0
M  V30 16825 H 1615 -2.65673 3.27103 0
M  V30 16826 H 1613.67 -2.47233 2.08944 0
M  V30 16827 H 1612.58 -0.769365 3.66103 0
M  V30 16828 H 1613.91 -1.03151 4.8127 0
M  V30 16829 N 1615.56 -1.5737 -0.0851874 0
M  V30 16830 C 1616.47 -2.06097 -1.12078 0
M  V30 16831 C 1617.49 -0.987809 -1.43242 0
M  V30 16832 O 1618.67 -1.30163 -1.53686 0
M  V30 16833 C 1615.73 -2.48397 -2.41867 0
M  V30 16834 C 1614.79 -3.69951 -2.17795 0
M  V30 16835 C 1614.02 -4.10225 -3.41396 0
M  V30 16836 O 1614.25 -3.50495 -4.5001 0
M  V30 16837 O 1613.18 -5.03111 -3.30399 0
M  V30 16838 H 1617.01 -2.94625 -0.736877 0
M  V30 16839 H 1614.59 -1.4639 -0.298392 0
M  V30 16840 H 1616.47 -2.76187 -3.18274 0
M  V30 16841 H 1615.15 -1.63003 -2.79664 0
M  V30 16842 H 1614.06 -3.47263 -1.39136 0
M  V30 16843 H 1615.39 -4.56156 -1.84886 0
M  V30 16844 N 1617.04 0.356258 -1.53521 0
M  V30 16845 C 1618.29 1.0979 -1.70154 0
M  V30 16846 C 1618.62 1.89028 -0.458124 0
M  V30 16847 O 1617.87 1.87516 0.560033 0
M  V30 16848 C 1618.17 2.07669 -2.90875 0
M  V30 16849 C 1617.84 1.4484 -4.27004 0
M  V30 16850 C 1616.5 1.27434 -4.64019 0
M  V30 16851 C 1618.85 0.994684 -5.1162 0
M  V30 16852 C 1616.18 0.632539 -5.8328 0
M  V30 16853 C 1618.53 0.366847 -6.31535 0
M  V30 16854 C 1617.19 0.180356 -6.67256 0
M  V30 16855 H 1616.46 0.401751 -0.622637 0
M  V30 16856 H 1619.11 0.378618 -1.8772 0
M  V30 16857 H 1617.42 2.85934 -2.6786 0
M  V30 16858 H 1619.11 2.65023 -3.00939 0
M  V30 16859 H 1615.7 1.59384 -3.97863 0
M  V30 16860 H 1619.89 1.11706 -4.83565 0
M  V30 16861 H 1615.14 0.476548 -6.0954 0
M  V30 16862 H 1619.32 0.00712378 -6.964 0
M  V30 16863 H 1616.94 -0.319016 -7.5953 0
M  V30 16864 N 1618.52 1.45038 0.616577 0
M  V30 16865 C 1619.77 1.48805 1.37786 0
M  V30 16866 C 1620.1 0.125811 1.93792 0
M  V30 16867 O 1619.37 -0.858544 1.74526 0
M  V30 16868 C 1619.66 2.56008 2.53242 0
M  V30 16869 C 1619.51 4.01643 2.02491 0
M  V30 16870 C 1620.83 2.59578 3.55398 0
M  V30 16871 H 1617.95 0.541776 0.499647 0
M  V30 16872 H 1620.59 1.76799 0.695859 0
M  V30 16873 H 1618.74 2.32269 3.11422 0
M  V30 16874 H 1620.41 4.36564 1.4903 0
M  V30 16875 H 1618.65 4.12728 1.33559 0
M  V30 16876 H 1619.33 4.72326 2.85679 0
M  V30 16877 H 1621.8 2.80826 3.07044 0
M  V30 16878 H 1620.68 3.36466 4.33684 0
M  V30 16879 H 1620.94 1.64325 4.10426 0
M  V30 16880 N 1620 -0.858287 1.32179 0
M  V30 16881 C 1621.22 -1.64997 1.25662 0
M  V30 16882 C 1621.65 -1.87303 -0.173021 0
M  V30 16883 O 1621.01 -1.42319 -1.12317 0
M  V30 16884 C 1621.05 -2.98855 2.01787 0
M  V30 16885 O 1620.16 -3.89218 1.36319 0
M  V30 16886 H 1619.5 -0.503169 0.433264 0
M  V30 16887 H 1622.03 -1.06926 1.74436 0
M  V30 16888 H 1622.04 -3.48704 2.11824 0
M  V30 16889 H 1620.71 -2.81941 3.05748 0
M  V30 16890 H 1619.29 -3.4768 1.34807 0
M  V30 16891 N 1621.48 -1.1533 -1.07409 0
M  V30 16892 C 1622.39 -0.863514 -2.1813 0
M  V30 16893 C 1623.4 0.159954 -1.73263 0
M  V30 16894 O 1624.58 -0.0139818 -2.01395 0
M  V30 16895 C 1621.64 -0.356271 -3.44865 0
M  V30 16896 C 1620.7 -1.44356 -4.04302 0
M  V30 16897 C 1619.94 -0.960429 -5.24987 0
M  V30 16898 O 1620.16 0.194227 -5.70069 0
M  V30 16899 O 1619.09 -1.74387 -5.76084 0
M  V30 16900 H 1622.92 -1.78909 -2.45408 0
M  V30 16901 H 1620.5 -0.932362 -1.16736 0
M  V30 16902 H 1622.39 -0.0798183 -4.21324 0
M  V30 16903 H 1621.06 0.541445 -3.1914 0
M  V30 16904 H 1619.97 -1.77361 -3.29384 0
M  V30 16905 H 1621.3 -2.31617 -4.34298 0
M  V30 16906 N 1622.95 1.25748 -0.950004 0
M  V30 16907 C 1624.36 1.75253 -0.643694 0
M  V30 16908 C 1624.72 1.77261 0.841017 0
M  V30 16909 O 1623.84 1.39043 1.65819 0
M  V30 16910 C 1624.44 3.1826 -1.16173 0
M  V30 16911 C 1622.99 3.65342 -0.905672 0
M  V30 16912 C 1622.14 2.4454 -1.30749 0
M  V30 16913 H 1625.09 1.117 -1.12733 0
M  V30 16914 H 1625.11 3.76935 -0.519651 0
M  V30 16915 H 1624.63 3.16766 -2.24234 0
M  V30 16916 H 1622.73 3.72256 0.160174 0
M  V30 16917 H 1622.84 4.53713 -1.53888 0
M  V30 16918 H 1621.2 2.44138 -0.725876 0
M  V30 16919 H 1621.99 2.45741 -2.39721 0
M  V30 16920 N 1624.43 0.718038 1.40292 0
M  V30 16921 C 1625.68 0.258986 2.0114 0
M  V30 16922 C 1626.01 -1.1456 1.56811 0
M  V30 16923 O 1625.29 -1.77766 0.789276 0
M  V30 16924 C 1625.57 0.341778 3.58474 0
M  V30 16925 C 1625.42 1.78492 4.12869 0
M  V30 16926 C 1626.74 -0.285622 4.39172 0
M  V30 16927 H 1623.86 0.0955806 0.730776 0
M  V30 16928 H 1626.5 0.911 1.66736 0
M  V30 16929 H 1624.65 -0.213354 3.87914 0
M  V30 16930 H 1626.32 2.39562 3.94218 0
M  V30 16931 H 1624.57 2.31183 3.67065 0
M  V30 16932 H 1625.24 1.79423 5.22026 0
M  V30 16933 H 1627.71 0.187411 4.15678 0
M  V30 16934 H 1626.59 -0.19726 5.48545 0
M  V30 16935 H 1626.85 -1.36947 4.20355 0
M  V30 16936 N 1625.91 -1.50602 0.464402 0
M  V30 16937 C 1627.16 -2.01478 -0.0945398 0
M  V30 16938 C 1627.47 -1.35165 -1.41386 0
M  V30 16939 O 1628.68 -1.7716 -2.05735 0
M  V30 16940 C 1627.13 -3.59233 -0.219003 0
M  V30 16941 C 1626.74 -4.345 1.09148 0
M  V30 16942 C 1628.49 -4.18172 -0.730262 0
M  V30 16943 C 1626.39 -5.84023 0.931179 0
M  V30 16944 H 1625.32 -0.752985 -0.0391065 0
M  V30 16945 H 1627.97 -1.73473 0.598283 0
M  V30 16946 H 1626.36 -3.83798 -0.975455 0
M  V30 16947 H 1627.53 -4.21665 1.85837 0
M  V30 16948 H 1625.85 -3.8714 1.53334 0
M  V30 16949 H 1628.44 -5.27622 -0.867119 0
M  V30 16950 H 1628.79 -3.79113 -1.71986 0
M  V30 16951 H 1629.32 -3.97788 -0.0313808 0
M  V30 16952 H 1626.06 -6.27543 1.89395 0
M  V30 16953 H 1625.58 -5.99451 0.20456 0
M  V30 16954 H 1627.26 -6.44257 0.595118 0
M  V30 16955 N 1627.39 -0.19675 -1.56367 0
M  V30 16956 C 1628.64 0.441807 -1.96802 0
M  V30 16957 C 1628.95 1.62645 -1.08656 0
M  V30 16958 O 1630.16 2.33291 -1.3888 0
M  V30 16959 C 1628.61 0.837415 -3.50022 0
M  V30 16960 C 1628.22 -0.323031 -4.46834 0
M  V30 16961 C 1629.96 1.44296 -3.99223 0
M  V30 16962 C 1627.87 0.0936285 -5.91326 0
M  V30 16963 H 1626.8 0.168834 -0.734854 0
M  V30 16964 H 1629.45 -0.289029 -1.81209 0
M  V30 16965 H 1627.83 1.62497 -3.61124 0
M  V30 16966 H 1629.01 -1.10056 -4.47464 0
M  V30 16967 H 1627.32 -0.840182 -4.07836 0
M  V30 16968 H 1629.92 1.76718 -5.04653 0
M  V30 16969 H 1630.26 2.35003 -3.43627 0
M  V30 16970 H 1630.8 0.71935 -3.91242 0
M  V30 16971 H 1627.54 -0.779297 -6.50851 0
M  V30 16972 H 1627.06 0.835984 -5.93946 0
M  V30 16973 H 1628.73 0.528864 -6.44835 0
M  V30 16974 N 1628.87 1.57413 0.0768405 0
M  V30 16975 C 1630.11 1.86633 0.775414 0
M  V30 16976 C 1630.44 0.788041 1.78367 0
M  V30 16977 O 1629.71 -0.183835 1.95036 0
M  V30 16978 H 1628.29 0.688678 0.289365 0
M  V30 16979 H 1630.95 1.94825 0.0541285 0
M  V30 16980 H 1630.04 2.83977 1.29474 0
M  V30 16981 N 1630.34 -0.348112 1.53707 0
M  V30 16982 C 1631.59 -1.08626 1.69951 0
M  V30 16983 C 1631.91 -1.89944 0.466992 0
M  V30 16984 O 1633.11 -2.66661 0.51029 0
M  V30 16985 C 1631.57 -1.98052 3.00505 0
M  V30 16986 C 1631.18 -1.21963 4.31079 0
M  V30 16987 C 1632.92 -2.71752 3.26115 0
M  V30 16988 C 1630.83 -2.10392 5.52711 0
M  V30 16989 H 1629.76 -0.409241 0.633275 0
M  V30 16990 H 1632.41 -0.346051 1.80207 0
M  V30 16991 H 1630.79 -2.75874 2.84094 0
M  V30 16992 H 1631.96 -0.490831 4.58178 0
M  V30 16993 H 1630.28 -0.600511 4.12047 0
M  V30 16994 H 1632.88 -3.38174 4.14177 0
M  V30 16995 H 1633.22 -3.38072 2.42926 0
M  V30 16996 H 1633.75 -2.01005 3.43281 0
M  V30 16997 H 1630.49 -1.48622 6.38429 0
M  V30 16998 H 1630.01 -2.81074 5.29866 0
M  V30 16999 H 1631.69 -2.69551 5.88176 0
M  V30 17000 N 1631.82 -1.45363 -0.608876 0
M  V30 17001 C 1633.05 -1.52836 -1.39459 0
M  V30 17002 C 1633.47 -0.160537 -1.88116 0
M  V30 17003 O 1632.82 0.837671 -1.6214 0
M  V30 17004 C 1632.87 -2.51168 -2.59994 0
M  V30 17005 O 1632.59 -3.82635 -2.13359 0
M  V30 17006 C 1634.1 -2.68326 -3.52868 0
M  V30 17007 H 1631.32 -0.51765 -0.426942 0
M  V30 17008 H 1633.86 -1.90538 -0.742674 0
M  V30 17009 H 1632.01 -2.16542 -3.2123 0
M  V30 17010 H 1632.43 -4.35927 -2.91665 0
M  V30 17011 H 1633.9 -3.41109 -4.33992 0
M  V30 17012 H 1634.38 -1.74317 -4.03126 0
M  V30 17013 H 1634.99 -3.03943 -2.97487 0
M  V30 17014 N 1633.3 0.851265 -1.32632 0
M  V30 17015 C 1634.55 1.60057 -1.22738 0
M  V30 17016 C 1634.86 1.94485 0.208525 0
M  V30 17017 O 1636.07 2.68083 0.429361 0
M  V30 17018 C 1634.52 2.88634 -2.14985 0
M  V30 17019 C 1634.13 2.61617 -3.63676 0
M  V30 17020 C 1635.88 3.6665 -2.13935 0
M  V30 17021 C 1633.78 3.86215 -4.47875 0
M  V30 17022 H 1632.71 0.600617 -0.455824 0
M  V30 17023 H 1635.36 0.939671 -1.57615 0
M  V30 17024 H 1633.75 3.56199 -1.73027 0
M  V30 17025 H 1634.92 2.02342 -4.13998 0
M  V30 17026 H 1633.24 1.96926 -3.66891 0
M  V30 17027 H 1635.83 4.59114 -2.74078 0
M  V30 17028 H 1636.18 4.00636 -1.13121 0
M  V30 17029 H 1636.71 3.05993 -2.54192 0
M  V30 17030 H 1633.45 3.57367 -5.49517 0
M  V30 17031 H 1632.97 4.44874 -4.02302 0
M  V30 17032 H 1634.65 4.5392 -4.61049 0
M  V30 17033 N 1634.78 1.15898 1.06796 0
M  V30 17034 C 1635.74 0.863427 2.12315 0
M  V30 17035 C 1636.74 -0.139326 1.60195 0
M  V30 17036 O 1637.93 0.0909705 1.73962 0
M  V30 17037 C 1635.06 0.290251 3.39662 0
M  V30 17038 H 1636.26 1.79879 2.39966 0
M  V30 17039 H 1633.81 0.967223 1.22778 0
M  V30 17040 H 1634.54 -0.653037 3.17657 0
M  V30 17041 H 1634.33 1.01273 3.78796 0
M  V30 17042 H 1635.82 0.10124 4.17477 0
M  V30 17043 N 1636.26 -1.25243 0.956659 0
M  V30 17044 C 1637.48 -1.97621 0.629337 0
M  V30 17045 C 1637.91 -1.70606 -0.792158 0
M  V30 17046 O 1637.26 -0.963192 -1.53598 0
M  V30 17047 C 1637.31 -3.49273 0.896687 0
M  V30 17048 O 1636.42 -4.12393 -0.0234986 0
M  V30 17049 H 1635.76 -0.619472 0.239061 0
M  V30 17050 H 1638.29 -1.5931 1.28381 0
M  V30 17051 H 1638.3 -3.99597 0.82377 0
M  V30 17052 H 1636.97 -3.68265 1.93271 0
M  V30 17053 H 1635.55 -3.72761 0.101796 0
M  V30 17054 N 1637.73 -0.725468 -1.3991 0
M  V30 17055 C 1638.98 -0.26965 -2.00999 0
M  V30 17056 C 1639.31 1.13727 -1.57416 0
M  V30 17057 O 1638.59 1.77345 -0.798693 0
M  V30 17058 C 1638.87 -0.360784 -3.58288 0
M  V30 17059 C 1638.72 -1.80679 -4.11916 0
M  V30 17060 C 1640.04 0.262328 -4.39317 0
M  V30 17061 H 1637.16 -0.0994547 -0.730259 0
M  V30 17062 H 1639.8 -0.91983 -1.6625 0
M  V30 17063 H 1637.95 0.192779 -3.88021 0
M  V30 17064 H 1639.63 -2.4165 -3.92942 0
M  V30 17065 H 1637.87 -2.33127 -3.65834 0
M  V30 17066 H 1638.54 -1.82189 -5.21068 0
M  V30 17067 H 1641.02 -0.209452 -4.15573 0
M  V30 17068 H 1639.89 0.168166 -5.48642 0
M  V30 17069 H 1640.15 1.34716 -4.21075 0
M  V30 17070 N 1639.21 1.50354 -0.472382 0
M  V30 17071 C 1640.46 2.02633 0.0822846 0
M  V30 17072 C 1640.79 1.35358 1.39254 0
M  V30 17073 O 1640.07 0.479714 1.88491 0
M  V30 17074 C 1640.35 3.59126 0.264742 0
M  V30 17075 C 1640.2 4.3697 -1.06663 0
M  V30 17076 C 1641.52 4.28148 1.01869 0
M  V30 17077 H 1638.64 0.736451 0.0284304 0
M  V30 17078 H 1641.28 1.79661 -0.618224 0
M  V30 17079 H 1639.43 3.7883 0.86141 0
M  V30 17080 H 1641.1 4.28834 -1.69997 0
M  V30 17081 H 1639.35 4.0066 -1.66295 0
M  V30 17082 H 1640.02 5.44736 -0.892592 0
M  V30 17083 H 1642.49 4.12926 0.512931 0
M  V30 17084 H 1641.37 5.37453 1.11515 0
M  V30 17085 H 1641.63 3.91406 2.05557 0
M  V30 17086 N 1640.69 0.205039 1.56261 0
M  V30 17087 C 1641.94 -0.430245 1.97467 0
M  V30 17088 C 1642.26 -1.6146 1.09342 0
M  V30 17089 O 1641.53 -1.95188 0.166836 0
M  V30 17090 H 1640.11 -0.161945 0.729234 0
M  V30 17091 H 1642.77 0.294089 1.92668 0
M  V30 17092 H 1641.87 -0.767699 3.02511 0
M  V30 17093 N 1642.17 -1.57451 -0.0684915 0
M  V30 17094 C 1643.1 -2.06954 -1.0813 0
M  V30 17095 C 1644.08 -0.963716 -1.40166 0
M  V30 17096 O 1645.27 -1.23664 -1.49736 0
M  V30 17097 C 1642.4 -2.51622 -2.39381 0
M  V30 17098 C 1641.35 -3.66111 -2.2169 0
M  V30 17099 C 1640.68 -3.96846 -3.58354 0
M  V30 17100 C 1641.98 -4.96036 -1.63541 0
M  V30 17101 H 1643.67 -2.91822 -0.66936 0
M  V30 17102 H 1641.22 -1.40387 -0.320533 0
M  V30 17103 H 1643.17 -2.84867 -3.1053 0
M  V30 17104 H 1641.89 -1.63788 -2.82562 0
M  V30 17105 H 1640.55 -3.33155 -1.52982 0
M  V30 17106 H 1640.2 -3.06137 -3.9911 0
M  V30 17107 H 1639.9 -4.73939 -3.47354 0
M  V30 17108 H 1641.42 -4.3259 -4.30927 0
M  V30 17109 H 1642.84 -5.27491 -2.24559 0
M  V30 17110 H 1641.23 -5.77474 -1.63228 0
M  V30 17111 H 1642.3 -4.81208 -0.597199 0
M  V30 17112 N 1643.65 0.339955 -1.5389 0
M  V30 17113 C 1644.58 1.42316 -1.85117 0
M  V30 17114 C 1645.56 1.5473 -0.706591 0
M  V30 17115 O 1646.74 1.68879 -0.958834 0
M  V30 17116 C 1643.87 2.79317 -2.06396 0
M  V30 17117 C 1642.83 2.81707 -3.22219 0
M  V30 17118 C 1642.15 4.21627 -3.28838 0
M  V30 17119 C 1643.45 2.46921 -4.60247 0
M  V30 17120 H 1645.15 1.16431 -2.75834 0
M  V30 17121 H 1642.69 0.558661 -1.32721 0
M  V30 17122 H 1644.65 3.55145 -2.26826 0
M  V30 17123 H 1643.37 3.06644 -1.12414 0
M  V30 17124 H 1642.03 2.08332 -3.01651 0
M  V30 17125 H 1641.68 4.4607 -2.32444 0
M  V30 17126 H 1641.38 4.24137 -4.06672 0
M  V30 17127 H 1642.9 4.99292 -3.51482 0
M  V30 17128 H 1644.32 3.12462 -4.80667 0
M  V30 17129 H 1642.71 2.60707 -5.40511 0
M  V30 17130 H 1643.78 1.421 -4.63611 0
M  V30 17131 N 1645.13 1.45684 0.601159 0
M  V30 17132 C 1646.37 1.50258 1.362 0
M  V30 17133 C 1646.7 0.146358 1.93648 0
M  V30 17134 O 1645.98 -0.839985 1.75427 0
M  V30 17135 C 1646.26 2.5868 2.50513 0
M  V30 17136 C 1646.12 4.03769 1.98219 0
M  V30 17137 C 1647.43 2.63332 3.52624 0
M  V30 17138 H 1644.55 0.547045 0.493873 0
M  V30 17139 H 1647.2 1.77527 0.677068 0
M  V30 17140 H 1645.35 2.35559 3.08941 0
M  V30 17141 H 1647.02 4.3812 1.44391 0
M  V30 17142 H 1645.26 4.14121 1.29174 0
M  V30 17143 H 1645.93 4.75329 2.80653 0
M  V30 17144 H 1648.41 2.84067 3.04048 0
M  V30 17145 H 1647.28 3.41047 4.30091 0
M  V30 17146 H 1647.54 1.68668 4.0866 0
M  V30 17147 N 1646.6 -0.84422 1.33082 0
M  V30 17148 C 1647.85 -1.59404 1.23585 0
M  V30 17149 C 1648.17 -1.94593 -0.198208 0
M  V30 17150 O 1649.37 -2.68307 -0.415138 0
M  V30 17151 C 1647.83 -2.87489 2.16513 0
M  V30 17152 C 1647.44 -2.59685 3.65059 0
M  V30 17153 C 1649.18 -3.6551 2.15877 0
M  V30 17154 C 1647.09 -3.83834 4.49917 0
M  V30 17155 H 1646.02 -0.598191 0.459003 0
M  V30 17156 H 1648.67 -0.931299 1.58111 0
M  V30 17157 H 1647.05 -3.55276 1.74913 0
M  V30 17158 H 1648.22 -2.00143 4.15065 0
M  V30 17159 H 1646.54 -1.94977 3.6793 0
M  V30 17160 H 1649.14 -4.57654 2.76509 0
M  V30 17161 H 1649.48 -4.00031 1.15244 0
M  V30 17162 H 1650.01 -3.0464 2.55811 0
M  V30 17163 H 1646.75 -3.54448 5.51404 0
M  V30 17164 H 1646.27 -4.42734 4.04656 0
M  V30 17165 H 1647.95 -4.51468 4.63449 0
M  V30 17166 N 1648.08 -1.16463 -1.0618 0
M  V30 17167 C 1649.33 -0.946846 -1.79 0
M  V30 17168 C 1649.66 0.525259 -1.87273 0
M  V30 17169 O 1648.91 1.40584 -1.36142 0
M  V30 17170 C 1649.21 -1.52085 -3.23427 0
M  V30 17171 C 1648.88 -3.01547 -3.35232 0
M  V30 17172 C 1647.54 -3.42346 -3.38161 0
M  V30 17173 C 1649.89 -3.97543 -3.37059 0
M  V30 17174 C 1647.22 -4.77759 -3.40534 0
M  V30 17175 C 1649.57 -5.32843 -3.4097 0
M  V30 17176 C 1648.23 -5.73121 -3.42182 0
M  V30 17177 H 1647.5 -0.346475 -0.655008 0
M  V30 17178 H 1650.15 -1.45195 -1.24862 0
M  V30 17179 H 1648.46 -0.937212 -3.80426 0
M  V30 17180 H 1650.15 -1.32801 -3.78371 0
M  V30 17181 H 1646.74 -2.69017 -3.33658 0
M  V30 17182 H 1650.93 -3.67088 -3.34006 0
M  V30 17183 H 1646.18 -5.08293 -3.39777 0
M  V30 17184 H 1650.36 -6.07014 -3.41332 0
M  V30 17185 H 1647.98 -6.78029 -3.43774 0
M  V30 17186 N 1649.56 1.24734 -0.963288 0
M  V30 17187 C 1650.78 1.97285 -0.639808 0
M  V30 17188 C 1651.21 1.71024 0.783099 0
M  V30 17189 O 1650.57 0.971324 1.53085 0
M  V30 17190 C 1650.62 3.48793 -0.915197 0
M  V30 17191 O 1649.72 4.124 0.00162805 0
M  V30 17192 H 1649.06 0.618196 -0.242343 0
M  V30 17193 H 1651.59 1.58627 -1.29224 0
M  V30 17194 H 1651.6 3.99155 -0.84495 0
M  V30 17195 H 1650.28 3.67235 -1.95221 0
M  V30 17196 H 1648.85 3.72702 -0.121563 0
M  V30 17197 N 1651.04 0.732878 1.39523 0
M  V30 17198 C 1652 0.10004 2.28982 0
M  V30 17199 C 1653 -0.669361 1.46206 0
M  V30 17200 O 1654.19 -0.498694 1.66909 0
M  V30 17201 C 1651.32 -0.867616 3.29674 0
M  V30 17202 H 1652.52 0.88816 2.86447 0
M  V30 17203 H 1650.07 0.498578 1.48135 0
M  V30 17204 H 1650.8 -1.68217 2.77261 0
M  V30 17205 H 1650.59 -0.318577 3.90804 0
M  V30 17206 H 1652.08 -1.30704 3.96618 0
M  V30 17207 N 1652.52 -1.50101 0.480349 0
M  V30 17208 C 1653.76 -2.01567 -0.073165 0
M  V30 17209 C 1654.08 -1.36657 -1.39944 0
M  V30 17210 O 1655.28 -1.79332 -2.03844 0
M  V30 17211 C 1653.74 -3.59445 -0.180889 0
M  V30 17212 C 1653.35 -4.33318 1.1375 0
M  V30 17213 C 1655.09 -4.18923 -0.685868 0
M  V30 17214 C 1653 -5.83003 0.99307 0
M  V30 17215 H 1651.93 -0.753358 -0.0311179 0
M  V30 17216 H 1654.58 -1.72829 0.616648 0
M  V30 17217 H 1652.96 -3.84811 -0.934693 0
M  V30 17218 H 1654.14 -4.1967 1.90299 0
M  V30 17219 H 1652.45 -3.85492 1.57431 0
M  V30 17220 H 1655.05 -5.28512 -0.811109 0
M  V30 17221 H 1655.39 -3.80916 -1.67955 0
M  V30 17222 H 1655.92 -3.97799 0.0108117 0
M  V30 17223 H 1652.66 -6.25499 1.9604 0
M  V30 17224 H 1652.18 -5.992 0.268128 0
M  V30 17225 H 1653.86 -6.4359 0.663417 0
M  V30 17226 N 1653.99 -0.213323 -1.5615 0
M  V30 17227 C 1655.24 0.420909 -1.97259 0
M  V30 17228 C 1655.56 1.61483 -1.10375 0
M  V30 17229 O 1656.76 2.31804 -1.41347 0
M  V30 17230 C 1655.22 0.800243 -3.5089 0
M  V30 17231 C 1654.83 -0.370405 -4.46466 0
M  V30 17232 C 1656.57 1.40054 -4.00731 0
M  V30 17233 C 1654.48 0.0309052 -5.91392 0
M  V30 17234 H 1653.41 0.16103 -0.736604 0
M  V30 17235 H 1656.06 -0.308232 -1.80893 0
M  V30 17236 H 1654.44 1.58657 -3.62828 0
M  V30 17237 H 1655.61 -1.14796 -4.46272 0
M  V30 17238 H 1653.93 -0.883391 -4.06922 0
M  V30 17239 H 1656.53 1.71355 -5.06499 0
M  V30 17240 H 1656.87 2.31345 -3.461 0
M  V30 17241 H 1657.4 0.677813 -3.91983 0
M  V30 17242 H 1654.14 -0.848284 -6.49988 0
M  V30 17243 H 1653.66 0.772941 -5.94799 0
M  V30 17244 H 1655.34 0.460441 -6.4536 0
M  V30 17245 N 1655.47 1.57485 0.0601405 0
M  V30 17246 C 1656.7 1.91772 0.768565 0
M  V30 17247 C 1657.11 0.808661 1.71048 0
M  V30 17248 O 1656.45 -0.226062 1.82304 0
M  V30 17249 C 1656.52 3.21623 1.6062 0
M  V30 17250 C 1656.18 4.49355 0.832411 0
M  V30 17251 C 1657.18 5.19694 0.146434 0
M  V30 17252 C 1654.86 4.95951 0.796137 0
M  V30 17253 C 1656.86 6.34887 -0.565461 0
M  V30 17254 C 1654.54 6.11047 0.0804763 0
M  V30 17255 C 1655.54 6.80367 -0.599112 0
M  V30 17256 O 1655.23 7.93266 -1.30322 0
M  V30 17257 H 1654.96 0.638161 0.222994 0
M  V30 17258 H 1657.51 2.05376 0.0311569 0
M  V30 17259 H 1655.74 3.0426 2.38668 0
M  V30 17260 H 1657.43 3.41471 2.19436 0
M  V30 17261 H 1658.2 4.84717 0.16569 0
M  V30 17262 H 1654.08 4.4186 1.31457 0
M  V30 17263 H 1657.62 6.88929 -1.09646 0
M  V30 17264 H 1653.52 6.45473 0.0591881 0
M  V30 17265 H 1654.29 8.09452 -1.21369 0
M  V30 17266 N 1656.95 -0.331789 1.54068 0
M  V30 17267 C 1658.2 -1.07069 1.71879 0
M  V30 17268 C 1658.53 -1.88275 0.488139 0
M  V30 17269 O 1657.78 -1.88383 -0.53013 0
M  V30 17270 C 1658.08 -2.03015 2.94142 0
M  V30 17271 C 1657.75 -1.38029 4.29254 0
M  V30 17272 C 1656.41 -1.20036 4.65988 0
M  V30 17273 C 1658.76 -0.913164 5.13138 0
M  V30 17274 C 1656.09 -0.539664 5.84213 0
M  V30 17275 C 1658.44 -0.266329 6.32039 0
M  V30 17276 C 1657.1 -0.0741787 6.67459 0
M  V30 17277 H 1656.37 -0.391795 0.62895 0
M  V30 17278 H 1659.02 -0.348705 1.88298 0
M  V30 17279 H 1657.33 -2.81636 2.72375 0
M  V30 17280 H 1659.02 -2.60201 3.05117 0
M  V30 17281 H 1655.61 -1.53034 4.00348 0
M  V30 17282 H 1659.8 -1.03999 4.85281 0
M  V30 17283 H 1655.05 -0.379516 6.10221 0
M  V30 17284 H 1659.23 0.103668 6.96323 0
M  V30 17285 H 1656.85 0.43981 7.58927 0
M  V30 17286 N 1658.43 -1.46001 -0.593424 0
M  V30 17287 C 1659.68 -1.50755 -1.352 0
M  V30 17288 C 1660 -0.154929 -1.93882 0
M  V30 17289 O 1659.26 0.848161 -1.76365 0
M  V30 17290 C 1659.56 -2.54568 -2.50858 0
M  V30 17291 C 1659.22 -3.98888 -2.10236 0
M  V30 17292 C 1657.89 -4.38182 -1.98872 0
M  V30 17293 C 1660.24 -4.89591 -1.78746 0
M  V30 17294 C 1657.57 -5.66057 -1.5426 0
M  V30 17295 C 1659.92 -6.17892 -1.35617 0
M  V30 17296 C 1658.58 -6.56103 -1.22822 0
M  V30 17297 H 1657.85 -0.551652 -0.494734 0
M  V30 17298 H 1660.5 -1.79422 -0.669327 0
M  V30 17299 H 1658.8 -2.19523 -3.24526 0
M  V30 17300 H 1660.5 -2.5548 -3.09081 0
M  V30 17301 H 1657.09 -3.67822 -2.20012 0
M  V30 17302 H 1661.27 -4.59959 -1.86416 0
M  V30 17303 H 1656.53 -5.94444 -1.42988 0
M  V30 17304 H 1660.7 -6.87609 -1.10301 0
M  V30 17305 H 1658.33 -7.55086 -0.880285 0
M  V30 17306 N 1659.91 0.83715 -1.33527 0
M  V30 17307 C 1661.16 1.58747 -1.24428 0
M  V30 17308 C 1661.47 1.94696 0.187885 0
M  V30 17309 O 1662.67 2.68524 0.400903 0
M  V30 17310 C 1661.13 2.86337 -2.18035 0
M  V30 17311 C 1660.74 2.57745 -3.66431 0
M  V30 17312 C 1662.48 3.6436 -2.17812 0
M  V30 17313 C 1660.39 3.81443 -4.51946 0
M  V30 17314 H 1659.32 0.595749 -0.462168 0
M  V30 17315 H 1661.97 0.922901 -1.58603 0
M  V30 17316 H 1660.35 3.54344 -1.76795 0
M  V30 17317 H 1661.53 1.97939 -4.16121 0
M  V30 17318 H 1659.84 1.93023 -3.68959 0
M  V30 17319 H 1662.44 4.56181 -2.78932 0
M  V30 17320 H 1662.78 3.99414 -1.17364 0
M  V30 17321 H 1663.31 3.03279 -2.57423 0
M  V30 17322 H 1660.05 3.51519 -5.53276 0
M  V30 17323 H 1659.57 4.40582 -4.06998 0
M  V30 17324 H 1661.25 4.49004 -4.65837 0
M  V30 17325 N 1661.38 1.17024 1.05561 0
M  V30 17326 C 1662.8 0.916718 1.30646 0
M  V30 17327 C 1663 -0.426248 1.9694 0
M  V30 17328 O 1662.06 -1.16408 2.24065 0
M  V30 17329 C 1663.37 2.07126 2.17989 0
M  V30 17330 C 1664.92 2.10787 2.31383 0
M  V30 17331 C 1665.39 3.25616 3.22084 0
M  V30 17332 N 1666.88 3.25381 3.29669 0
M  V30 17333 C 1667.62 4.10873 3.99964 0
M  V30 17334 N 1667.11 5.06468 4.72718 0
M  V30 17335 N 1668.91 3.98835 3.9609 0
M  V30 17336 H 1661.06 2.03474 0.609284 0
M  V30 17337 H 1663.32 0.888247 0.331243 0
M  V30 17338 H 1663.03 3.04168 1.76564 0
M  V30 17339 H 1662.9 2.01912 3.18609 0
M  V30 17340 H 1665.29 1.14333 2.72051 0
M  V30 17341 H 1665.37 2.20064 1.30405 0
M  V30 17342 H 1665.01 4.22333 2.8213 0
M  V30 17343 H 1664.94 3.13575 4.23058 0
M  V30 17344 H 1667.43 2.56164 2.77828 0
M  V30 17345 H 1667.75 5.68105 5.23905 0
M  V30 17346 H 1666.09 5.10441 4.71673 0
M  V30 17347 H 1669.28 3.23451 3.38375 0
M  V30 17348 H 1669.46 4.65682 4.50604 0
M  V30 17349 N 1662.86 -1.24221 0.969889 0
M  V30 17350 C 1664.09 -1.96403 0.650658 0
M  V30 17351 C 1664.51 -1.71919 -0.780339 0
M  V30 17352 O 1663.86 -1.00427 -1.52383 0
M  V30 17353 C 1663.91 -3.49636 0.918542 0
M  V30 17354 O 1663.63 -3.73283 2.29328 0
M  V30 17355 C 1665.14 -4.3903 0.613803 0
M  V30 17356 H 1662.36 -0.625614 0.242587 0
M  V30 17357 H 1664.9 -1.57992 1.29842 0
M  V30 17358 H 1663.05 -3.86101 0.316959 0
M  V30 17359 H 1663.47 -4.67649 2.37496 0
M  V30 17360 H 1664.94 -5.4539 0.851679 0
M  V30 17361 H 1665.42 -4.36868 -0.451976 0
M  V30 17362 H 1666.03 -4.08155 1.19539 0
M  V30 17363 N 1664.34 -0.740267 -1.39132 0
M  V30 17364 C 1665.27 -0.118951 -2.33197 0
M  V30 17365 C 1666.25 0.718416 -1.54184 0
M  V30 17366 O 1667.44 0.662322 -1.82557 0
M  V30 17367 C 1664.57 0.78512 -3.38309 0
M  V30 17368 C 1663.52 0.0515093 -4.27969 0
M  V30 17369 C 1662.85 1.07295 -5.23824 0
M  V30 17370 C 1664.15 -1.10903 -5.1039 0
M  V30 17371 H 1665.84 -0.904687 -2.85405 0
M  V30 17372 H 1663.39 -0.436493 -1.37225 0
M  V30 17373 H 1665.34 1.22935 -4.03069 0
M  V30 17374 H 1664.06 1.60303 -2.84553 0
M  V30 17375 H 1662.72 -0.373156 -3.64696 0
M  V30 17376 H 1662.37 1.88456 -4.66362 0
M  V30 17377 H 1662.07 0.586827 -5.84662 0
M  V30 17378 H 1663.59 1.51677 -5.91461 0
M  V30 17379 H 1665.01 -0.742993 -5.68465 0
M  V30 17380 H 1663.41 -1.52513 -5.80396 0
M  V30 17381 H 1664.48 -1.92825 -4.44912 0
M  V30 17382 N 1665.82 1.49844 -0.488302 0
M  V30 17383 C 1666.75 2.26762 0.333396 0
M  V30 17384 C 1667.76 1.32785 0.941918 0
M  V30 17385 O 1668.95 1.58165 0.827407 0
M  V30 17386 C 1666.05 3.04721 1.48318 0
M  V30 17387 C 1665.23 4.26181 0.984303 0
M  V30 17388 C 1664.28 4.8629 2.01018 0
M  V30 17389 O 1663.31 5.4672 1.58384 0
M  V30 17390 N 1664.51 4.74813 3.33965 0
M  V30 17391 H 1667.28 2.97921 -0.32609 0
M  V30 17392 H 1664.84 1.58704 -0.320092 0
M  V30 17393 H 1666.83 3.4181 2.16676 0
M  V30 17394 H 1665.4 2.36251 2.04705 0
M  V30 17395 H 1664.62 3.93998 0.126039 0
M  V30 17396 H 1665.91 5.04895 0.62919 0
M  V30 17397 H 1665.31 4.26793 3.71301 0
M  V30 17398 H 1663.86 5.16122 3.98072 0
M  V30 17399 N 1667.3 0.221601 1.56034 0
M  V30 17400 C 1668.26 -0.674973 2.19036 0
M  V30 17401 C 1669.26 -1.1216 1.15225 0
M  V30 17402 O 1670.45 -1.0304 1.40458 0
M  V30 17403 C 1667.58 -1.92465 2.81372 0
M  V30 17404 H 1668.77 -0.125689 2.99637 0
M  V30 17405 H 1666.33 -0.0280114 1.56275 0
M  V30 17406 H 1667.06 -2.5158 2.04641 0
M  V30 17407 H 1666.85 -1.61286 3.57392 0
M  V30 17408 H 1668.34 -2.56342 3.29664 0
M  V30 17409 N 1668.77 -1.57515 -0.0517878 0
M  V30 17410 C 1669.72 -2.01507 -1.06672 0
M  V30 17411 C 1670.71 -0.900432 -1.33346 0
M  V30 17412 O 1671.9 -1.16435 -1.33311 0
M  V30 17413 C 1669.03 -2.4792 -2.37467 0
M  V30 17414 C 1668.12 -3.66159 -2.13982 0
M  V30 17415 N 1668.51 -4.79665 -1.60483 0
M  V30 17416 C 1666.8 -3.73095 -2.44369 0
M  V30 17417 C 1667.51 -5.61415 -1.52278 0
M  V30 17418 N 1666.48 -5.05851 -1.99038 0
M  V30 17419 H 1670.28 -2.86696 -0.646728 0
M  V30 17420 H 1667.8 -1.60329 -0.258518 0
M  V30 17421 H 1669.79 -2.77685 -3.1096 0
M  V30 17422 H 1668.45 -1.64127 -2.80165 0
M  V30 17423 H 1669.47 -5.0156 -1.29067 0
M  V30 17424 H 1666.14 -3.00057 -2.90296 0
M  V30 17425 H 1667.53 -6.62567 -1.11598 0
M  V30 17426 N 1670.25 0.323614 -1.54242 0
M  V30 17427 C 1671.2 1.39936 -1.80005 0
M  V30 17428 C 1672.19 1.46917 -0.656067 0
M  V30 17429 O 1673.38 1.5145 -0.916065 0
M  V30 17430 C 1670.51 2.76791 -2.03081 0
M  V30 17431 C 1669.59 2.74123 -3.23601 0
M  V30 17432 N 1669.99 2.41076 -4.44653 0
M  V30 17433 C 1668.28 3.05252 -3.25173 0
M  V30 17434 C 1668.98 2.47142 -5.26589 0
M  V30 17435 N 1667.96 2.83581 -4.6377 0
M  V30 17436 H 1671.76 1.13315 -2.71177 0
M  V30 17437 H 1669.28 0.532095 -1.53436 0
M  V30 17438 H 1671.27 3.54326 -2.19678 0
M  V30 17439 H 1669.93 3.04342 -1.13163 0
M  V30 17440 H 1670.94 2.13923 -4.71654 0
M  V30 17441 H 1667.62 3.37846 -2.45288 0
M  V30 17442 H 1669.01 2.24583 -6.33255 0
M  V30 17443 N 1671.73 1.46313 0.585673 0
M  V30 17444 C 1673.01 1.41946 1.34576 0
M  V30 17445 C 1673.39 0.101379 2.10856 0
M  V30 17446 O 1672.74 -0.917016 2.09292 0
M  V30 17447 C 1672.95 2.64724 2.27425 0
M  V30 17448 C 1674.29 3.10746 2.89347 0
M  V30 17449 O 1675.32 2.65252 2.37739 0
M  V30 17450 O 1674.18 3.8976 3.83079 0
M  V30 17451 H 1671.27 0.564346 0.604519 0
M  V30 17452 H 1673.82 1.58475 0.606937 0
M  V30 17453 H 1672.59 3.52217 1.70467 0
M  V30 17454 H 1672.21 2.50639 3.08652 0
M  V30 17455 N 1673.21 -0.830057 1.33969 0
M  V30 17456 C 1674.63 -1.12209 1.13496 0
M  V30 17457 C 1674.83 -2.01384 -0.0682972 0
M  V30 17458 O 1673.88 -2.4123 -0.745949 0
M  V30 17459 C 1675.19 -1.77568 2.42673 0
M  V30 17460 C 1676.74 -1.90095 2.48662 0
M  V30 17461 C 1677.22 -2.5887 3.77823 0
M  V30 17462 N 1678.71 -2.66375 3.78944 0
M  V30 17463 C 1679.44 -3.20301 4.75599 0
M  V30 17464 N 1678.94 -3.74846 5.82634 0
M  V30 17465 N 1680.73 -3.18636 4.63063 0
M  V30 17466 H 1672.88 -0.236752 2.11076 0
M  V30 17467 H 1675.15 -0.167572 0.933072 0
M  V30 17468 H 1674.85 -1.19505 3.30774 0
M  V30 17469 H 1674.73 -2.77505 2.55481 0
M  V30 17470 H 1677.11 -2.47308 1.61005 0
M  V30 17471 H 1677.19 -0.890808 2.39788 0
M  V30 17472 H 1676.84 -2.02313 4.65867 0
M  V30 17473 H 1676.77 -3.60373 3.83978 0
M  V30 17474 H 1679.26 -2.27705 3.01594 0
M  V30 17475 H 1679.57 -4.14224 6.52409 0
M  V30 17476 H 1677.92 -3.7311 5.86357 0
M  V30 17477 H 1681.11 -2.75286 3.78597 0
M  V30 17478 H 1681.28 -3.60359 5.38559 0
M  V30 17479 N 1674.69 -1.17582 -1.04939 0
M  V30 17480 C 1675.91 -0.99097 -1.82194 0
M  V30 17481 C 1676.34 0.455965 -1.8249 0
M  V30 17482 O 1675.7 1.32661 -1.23575 0
M  V30 17483 C 1675.74 -1.53971 -3.26076 0
M  V30 17484 O 1674.85 -0.755172 -4.05427 0
M  V30 17485 H 1674.19 -0.351669 -0.563227 0
M  V30 17486 H 1676.72 -1.56138 -1.3222 0
M  V30 17487 H 1676.73 -1.56307 -3.76872 0
M  V30 17488 H 1675.4 -2.59295 -3.25175 0
M  V30 17489 H 1673.98 -0.803423 -3.64142 0
M  V30 17490 N 1676.17 1.23705 -0.976463 0
M  V30 17491 C 1677.08 2.28728 -0.521605 0
M  V30 17492 C 1678.09 1.68813 0.421691 0
M  V30 17493 O 1679.27 1.99263 0.292579 0
M  V30 17494 C 1676.33 3.4627 0.172545 0
M  V30 17495 C 1675.39 4.21557 -0.811664 0
M  V30 17496 C 1674.63 5.33488 -0.150546 0
M  V30 17497 O 1674.85 5.60478 1.05926 0
M  V30 17498 O 1673.78 5.95909 -0.847132 0
M  V30 17499 H 1677.61 2.6977 -1.39491 0
M  V30 17500 H 1675.19 1.29562 -0.743909 0
M  V30 17501 H 1677.08 4.17634 0.562103 0
M  V30 17502 H 1675.75 3.07187 1.02067 0
M  V30 17503 H 1674.66 3.52533 -1.25185 0
M  V30 17504 H 1675.99 4.6448 -1.62848 0
M  V30 17505 N 1677.64 0.747635 1.38738 0
M  V30 17506 C 1679.06 0.424577 1.53849 0
M  V30 17507 C 1679.26 -1.06304 1.71177 0
M  V30 17508 O 1678.32 -1.84912 1.71941 0
M  V30 17509 C 1679.63 1.21863 2.749 0
M  V30 17510 C 1681.18 1.20811 2.88745 0
M  V30 17511 C 1681.65 1.985 4.12749 0
M  V30 17512 N 1683.14 1.9573 4.19814 0
M  V30 17513 C 1683.88 2.52641 5.14743 0
M  V30 17514 N 1683.37 3.18241 6.15382 0
M  V30 17515 N 1685.17 2.42604 5.0705 0
M  V30 17516 H 1677.32 1.71182 1.25739 0
M  V30 17517 H 1679.58 0.725358 0.610376 0
M  V30 17518 H 1679.29 2.27181 2.6848 0
M  V30 17519 H 1679.16 0.831509 3.67921 0
M  V30 17520 H 1681.55 0.163013 2.94649 0
M  V30 17521 H 1681.63 1.6347 1.96752 0
M  V30 17522 H 1681.27 3.03017 4.07606 0
M  V30 17523 H 1681.2 1.53239 5.03811 0
M  V30 17524 H 1683.69 1.4795 3.47734 0
M  V30 17525 H 1684.01 3.59101 6.843 0
M  V30 17526 H 1682.35 3.22334 6.15732 0
M  V30 17527 H 1685.54 1.90987 4.27366 0
M  V30 17528 H 1685.72 2.87253 5.80852 0
M  V30 17529 N 1679.12 -1.49583 0.496242 0
M  V30 17530 C 1680.03 -2.32808 -0.289404 0
M  V30 17531 C 1681.05 -1.44324 -0.971933 0
M  V30 17532 O 1682.22 -1.77352 -0.954366 0
M  V30 17533 C 1679.29 -3.19645 -1.34269 0
M  V30 17534 C 1678.35 -4.23975 -0.6741 0
M  V30 17535 C 1677.58 -5.06661 -1.6772 0
M  V30 17536 O 1677.81 -4.90792 -2.90654 0
M  V30 17537 O 1676.74 -5.89091 -1.23514 0
M  V30 17538 H 1680.57 -3.01164 0.391664 0
M  V30 17539 H 1678.15 -1.47162 0.257652 0
M  V30 17540 H 1680.03 -3.73453 -1.9522 0
M  V30 17541 H 1678.71 -2.53989 -2.00677 0
M  V30 17542 H 1677.61 -3.74092 -0.0249732 0
M  V30 17543 H 1678.95 -4.92172 -0.0525442 0
M  V30 17544 N 1680.6 -0.229873 -1.55915 0
M  V30 17545 C 1681.82 0.4072 -2.03363 0
M  V30 17546 C 1682.25 1.5197 -1.10845 0
M  V30 17547 O 1681.61 1.81034 -0.098175 0
M  V30 17548 C 1681.66 0.908268 -3.48974 0
M  V30 17549 O 1680.76 2.01907 -3.59593 0
M  V30 17550 H 1680.1 0.091091 -0.657722 0
M  V30 17551 H 1682.63 -0.350947 -2.01568 0
M  V30 17552 H 1682.64 1.21593 -3.8946 0
M  V30 17553 H 1681.32 0.0940655 -4.15794 0
M  V30 17554 H 1679.89 1.71741 -3.30998 0
M  V30 17555 N 1682.08 1.5754 0.0434337 0
M  V30 17556 C 1683.49 1.77071 0.591836 0
M  V30 17557 C 1683.84 0.85911 1.76391 0
M  V30 17558 O 1682.96 0.0502725 2.16342 0
M  V30 17559 C 1683.56 3.21111 1.08041 0
M  V30 17560 C 1682.12 3.41889 1.57445 0
M  V30 17561 C 1681.27 2.72641 0.506166 0
M  V30 17562 H 1684.22 1.57644 -0.182792 0
M  V30 17563 H 1684.24 3.26834 1.94833 0
M  V30 17564 H 1683.75 3.87435 0.227153 0
M  V30 17565 H 1681.85 2.80721 2.45003 0
M  V30 17566 H 1681.96 4.50452 1.63185 0
M  V30 17567 H 1680.33 2.36002 0.957878 0
M  V30 17568 H 1681.11 3.41638 -0.337389 0
M  V30 17569 N 1683.56 -0.31543 1.54411 0
M  V30 17570 C 1684.8 -1.0524 1.73005 0
M  V30 17571 C 1685.13 -1.87747 0.50808 0
M  V30 17572 O 1684.39 -1.88935 -0.51012 0
M  V30 17573 C 1684.68 -1.99884 2.96279 0
M  V30 17574 C 1684.35 -1.33468 4.30694 0
M  V30 17575 C 1683.01 -1.15087 4.67235 0
M  V30 17576 C 1685.36 -0.858688 5.14078 0
M  V30 17577 C 1682.69 -0.47767 5.84752 0
M  V30 17578 C 1685.04 -0.199278 6.32286 0
M  V30 17579 C 1683.71 -0.00338158 6.675 0
M  V30 17580 H 1682.98 -0.385102 0.63307 0
M  V30 17581 H 1685.63 -0.328714 1.88658 0
M  V30 17582 H 1683.93 -2.78732 2.75347 0
M  V30 17583 H 1685.63 -2.56951 3.07859 0
M  V30 17584 H 1682.22 -1.48779 4.01949 0
M  V30 17585 H 1686.4 -0.98846 4.86357 0
M  V30 17586 H 1681.66 -0.314772 6.10589 0
M  V30 17587 H 1685.83 0.177517 6.96174 0
M  V30 17588 H 1683.46 0.52028 7.58418 0
M  V30 17589 N 1685.03 -1.46622 -0.577906 0
M  V30 17590 C 1686.26 -1.56 -1.36671 0
M  V30 17591 C 1686.68 -0.2034 -1.86997 0
M  V30 17592 O 1686.04 0.817288 -1.61834 0
M  V30 17593 C 1686.09 -2.57254 -2.52691 0
M  V30 17594 O 1685.19 -2.1109 -3.54281 0
M  V30 17595 H 1684.54 -0.524779 -0.406821 0
M  V30 17596 H 1687.07 -1.92234 -0.700512 0
M  V30 17597 H 1687.08 -2.77016 -2.99543 0
M  V30 17598 H 1685.75 -3.55766 -2.15415 0
M  V30 17599 H 1684.33 -2.01337 -3.13875 0
M  V30 17600 N 1686.51 0.822941 -1.34408 0
M  V30 17601 C 1687.76 1.57604 -1.26513 0
M  V30 17602 C 1688.08 1.94303 0.164769 0
M  V30 17603 O 1687.35 1.62278 1.09738 0
M  V30 17604 H 1685.93 0.584399 -0.465282 0
M  V30 17605 H 1688.59 0.982582 -1.68319 0
M  V30 17606 H 1687.69 2.49886 -1.86986 0
M  V30 17607 N 1687.99 1.18137 1.04314 0
M  V30 17608 C 1689.22 1.00062 1.81666 0
M  V30 17609 C 1689.64 -0.446281 1.82729 0
M  V30 17610 O 1689 -1.32004 1.24277 0
M  V30 17611 C 1689.05 1.55698 3.25255 0
M  V30 17612 O 1688.15 0.776662 4.05021 0
M  V30 17613 H 1687.49 0.354651 0.561354 0
M  V30 17614 H 1690.02 1.56837 1.3139 0
M  V30 17615 H 1690.03 1.58303 3.76037 0
M  V30 17616 H 1688.71 2.61016 3.23795 0
M  V30 17617 H 1687.28 0.822723 3.63711 0
M  V30 17618 N 1689.47 -1.23186 0.98301 0
M  V30 17619 C 1690.69 -1.96242 0.671114 0
M  V30 17620 C 1691.12 -1.72248 -0.755792 0
M  V30 17621 O 1690.48 -0.995555 -1.5152 0
M  V30 17622 C 1690.52 -3.47293 0.970571 0
M  V30 17623 O 1689.63 -4.1235 0.0639814 0
M  V30 17624 H 1688.97 -0.614262 0.252147 0
M  V30 17625 H 1691.5 -1.56551 1.31731 0
M  V30 17626 H 1691.51 -3.9776 0.908345 0
M  V30 17627 H 1690.18 -3.64083 2.01039 0
M  V30 17628 H 1688.76 -3.72461 0.180842 0
M  V30 17629 N 1690.95 -0.754982 -1.38339 0
M  V30 17630 C 1692.36 -0.43273 -1.53622 0
M  V30 17631 C 1692.56 1.05395 -1.71739 0
M  V30 17632 O 1691.62 1.83998 -1.72919 0
M  V30 17633 C 1692.93 -1.23319 -2.7425 0
M  V30 17634 C 1694.48 -1.22341 -2.881 0
M  V30 17635 C 1694.95 -2.00686 -4.11691 0
M  V30 17636 N 1696.45 -1.97953 -4.1877 0
M  V30 17637 C 1697.18 -2.55367 -5.13396 0
M  V30 17638 N 1696.68 -3.215 -6.13685 0
M  V30 17639 N 1698.47 -2.45289 -5.05757 0
M  V30 17640 H 1690.62 -1.71847 -1.2483 0
M  V30 17641 H 1692.88 -0.728585 -0.606521 0
M  V30 17642 H 1692.59 -2.28602 -2.67272 0
M  V30 17643 H 1692.46 -0.851009 -3.67475 0
M  V30 17644 H 1694.85 -0.178637 -2.94559 0
M  V30 17645 H 1694.93 -1.64511 -1.95882 0
M  V30 17646 H 1694.58 -3.05175 -4.05994 0
M  V30 17647 H 1694.51 -1.55908 -5.02991 0
M  V30 17648 H 1697 -1.49792 -3.46945 0
M  V30 17649 H 1697.31 -3.62725 -6.82386 0
M  V30 17650 H 1695.65 -3.25595 -6.14014 0
M  V30 17651 H 1698.85 -1.93251 -4.26347 0
M  V30 17652 H 1699.02 -2.9033 -5.79321 0
M  V30 17653 N 1692.42 1.49318 -0.504168 0
M  V30 17654 C 1693.36 2.27103 0.309327 0
M  V30 17655 C 1694.37 1.33776 0.927781 0
M  V30 17656 O 1695.56 1.59034 0.810585 0
M  V30 17657 C 1692.66 3.06277 1.45078 0
M  V30 17658 C 1691.83 4.27201 0.939045 0
M  V30 17659 C 1690.89 4.88395 1.95849 0
M  V30 17660 O 1689.92 5.4837 1.52576 0
M  V30 17661 N 1691.12 4.78328 3.28911 0
M  V30 17662 H 1693.88 2.97558 -0.35767 0
M  V30 17663 H 1691.44 1.58356 -0.336907 0
M  V30 17664 H 1693.44 3.44088 2.13038 0
M  V30 17665 H 1692.01 2.38409 2.02188 0
M  V30 17666 H 1691.23 3.9411 0.0842433 0
M  V30 17667 H 1692.51 5.05534 0.575603 0
M  V30 17668 H 1691.91 4.30707 3.66753 0
M  V30 17669 H 1690.47 5.20315 3.92576 0
M  V30 17670 N 1693.9 0.238138 1.5579 0
M  V30 17671 C 1695.31 -0.266656 1.84786 0
M  V30 17672 C 1695.66 -1.58248 1.15983 0
M  V30 17673 O 1694.79 -2.11979 0.43518 0
M  V30 17674 C 1695.38 -0.4906 3.35229 0
M  V30 17675 C 1693.94 -0.939672 3.64482 0
M  V30 17676 C 1693.09 -0.0119682 2.77297 0
M  V30 17677 H 1696.04 0.460924 1.51859 0
M  V30 17678 H 1696.06 -1.3344 3.56334 0
M  V30 17679 H 1695.57 0.467239 3.85277 0
M  V30 17680 H 1693.68 -1.91029 3.19904 0
M  V30 17681 H 1693.79 -0.8026 4.72329 0
M  V30 17682 H 1692.15 -0.521767 2.49298 0
M  V30 17683 H 1692.94 0.941085 3.30149 0
M  V30 17684 N 1695.38 -1.57561 -0.0350783 0
M  V30 17685 C 1696.66 -1.8014 -0.76217 0
M  V30 17686 C 1697.04 -0.834754 -1.93894 0
M  V30 17687 O 1696.39 0.124387 -2.28161 0
M  V30 17688 C 1696.6 -3.2769 -1.20084 0
M  V30 17689 C 1697.94 -3.92513 -1.61923 0
M  V30 17690 O 1698.97 -3.31803 -1.29558 0
M  V30 17691 O 1697.83 -4.9939 -2.21972 0
M  V30 17692 H 1694.92 -0.740572 -0.368078 0
M  V30 17693 H 1697.47 -1.69696 -0.0123195 0
M  V30 17694 H 1696.24 -3.89636 -0.3605 0
M  V30 17695 H 1695.86 -3.43 -2.01089 0
M  V30 17696 N 1696.86 0.307236 -1.54576 0
M  V30 17697 C 1698.08 1.06668 -1.77867 0
M  V30 17698 C 1698.51 1.80375 -0.533536 0
M  V30 17699 O 1697.87 1.73812 0.515663 0
M  V30 17700 C 1697.91 2.02777 -2.98184 0
M  V30 17701 O 1697.02 3.10969 -2.70872 0
M  V30 17702 H 1696.36 0.306741 -0.588902 0
M  V30 17703 H 1698.89 0.346557 -2.01644 0
M  V30 17704 H 1698.9 2.45355 -3.25983 0
M  V30 17705 H 1697.57 1.48534 -3.88472 0
M  V30 17706 H 1696.15 2.7295 -2.54072 0
M  V30 17707 N 1698.34 1.46926 0.570122 0
M  V30 17708 C 1699.27 1.61311 1.68822 0
M  V30 17709 C 1700.25 0.462964 1.63678 0
M  V30 17710 O 1701.43 0.690745 1.815 0
M  V30 17711 C 1698.56 1.61499 3.07466 0
M  V30 17712 C 1697.52 2.7561 3.27449 0
M  V30 17713 C 1696.84 2.60865 4.66748 0
M  V30 17714 C 1698.14 4.17324 3.14067 0
M  V30 17715 H 1699.84 2.54909 1.5704 0
M  V30 17716 H 1697.38 1.22677 0.754077 0
M  V30 17717 H 1699.34 1.70155 3.8552 0
M  V30 17718 H 1698.06 0.64453 3.20177 0
M  V30 17719 H 1696.72 2.66444 2.51799 0
M  V30 17720 H 1696.37 1.61875 4.76241 0
M  V30 17721 H 1696.07 3.37411 4.81069 0
M  V30 17722 H 1697.59 2.7143 5.46954 0
M  V30 17723 H 1699 4.27534 3.81952 0
M  V30 17724 H 1697.4 4.94555 3.39905 0
M  V30 17725 H 1698.47 4.36596 2.10979 0
M  V30 17726 N 1699.82 -0.815801 1.34842 0
M  V30 17727 C 1701.04 -1.60915 1.30848 0
M  V30 17728 C 1701.47 -1.87758 -0.113345 0
M  V30 17729 O 1700.82 -1.4582 -1.07732 0
M  V30 17730 C 1700.87 -2.92284 2.11192 0
M  V30 17731 O 1699.98 -3.84685 1.48632 0
M  V30 17732 H 1699.32 -0.48913 0.449052 0
M  V30 17733 H 1701.85 -1.01322 1.7775 0
M  V30 17734 H 1701.86 -3.41789 2.2281 0
M  V30 17735 H 1700.53 -2.72071 3.14563 0
M  V30 17736 H 1699.11 -3.43215 1.458 0
M  V30 17737 N 1701.29 -1.18689 -1.03686 0
M  V30 17738 C 1702.52 -1.01024 -1.81132 0
M  V30 17739 C 1702.94 0.436584 -1.82963 0
M  V30 17740 O 1702.3 1.31343 -1.24975 0
M  V30 17741 C 1702.35 -1.5742 -3.24424 0
M  V30 17742 O 1701.45 -0.79813 -4.04603 0
M  V30 17743 H 1700.79 -0.357623 -0.559465 0
M  V30 17744 H 1703.32 -1.57532 -1.30556 0
M  V30 17745 H 1703.33 -1.60295 -3.75193 0
M  V30 17746 H 1702.01 -2.6273 -3.22406 0
M  V30 17747 H 1700.59 -0.842 -3.6327 0
M  V30 17748 N 1702.77 1.22662 -0.989529 0
M  V30 17749 C 1704.02 1.90632 -0.65897 0
M  V30 17750 C 1704.33 1.77942 0.812165 0
M  V30 17751 O 1705.54 2.40796 1.25417 0
M  V30 17752 C 1704 3.41763 -1.12809 0
M  V30 17753 C 1703.6 3.63097 -2.62421 0
M  V30 17754 C 1705.35 4.15454 -0.871698 0
M  V30 17755 C 1703.25 5.07911 -3.02953 0
M  V30 17756 H 1702.18 0.713847 -0.242772 0
M  V30 17757 H 1704.84 1.38942 -1.19864 0
M  V30 17758 H 1703.22 3.92616 -0.516564 0
M  V30 17759 H 1704.39 3.22751 -3.2889 0
M  V30 17760 H 1702.71 3.02733 -2.85905 0
M  V30 17761 H 1705.3 5.22181 -1.15027 0
M  V30 17762 H 1705.65 4.15856 0.192186 0
M  V30 17763 H 1706.18 3.70618 -1.44525 0
M  V30 17764 H 1702.92 5.12646 -4.08503 0
M  V30 17765 H 1702.44 5.49172 -2.41185 0
M  V30 17766 H 1704.12 5.76311 -2.94066 0
M  V30 17767 N 1704.25 0.762308 1.37937 0
M  V30 17768 C 1705.16 0.142724 2.34165 0
M  V30 17769 C 1706.18 -0.690588 1.59709 0
M  V30 17770 O 1707.35 -0.61271 1.91854 0
M  V30 17771 C 1704.42 -0.733325 3.38856 0
M  V30 17772 C 1703.48 0.115359 4.29145 0
M  V30 17773 C 1702.71 -0.718972 5.28835 0
M  V30 17774 O 1702.93 -1.95656 5.35794 0
M  V30 17775 O 1701.87 -0.133162 6.01753 0
M  V30 17776 H 1705.69 0.937662 2.88863 0
M  V30 17777 H 1703.28 0.523325 1.39935 0
M  V30 17778 H 1705.16 -1.23374 4.02935 0
M  V30 17779 H 1703.84 -1.50661 2.86501 0
M  V30 17780 H 1702.74 0.661926 3.68197 0
M  V30 17781 H 1704.08 0.851505 4.84779 0
M  V30 17782 N 1705.73 -1.49049 0.51208 0
M  V30 17783 C 1706.68 -2.30981 -0.273991 0
M  V30 17784 C 1707.67 -1.40092 -0.952402 0
M  V30 17785 O 1708.88 -1.57088 -0.878828 0
M  V30 17786 H 1705.25 -0.744317 -0.107221 0
M  V30 17787 H 1707.22 -2.95185 0.436866 0
M  V30 17788 C 1705.97 -3.21714 -1.31892 0
M  V30 17789 H 1705.29 -3.91585 -0.806302 0
M  V30 17790 H 1706.73 -3.81961 -1.8407 0
M  V30 17791 C 1705.19 -2.42082 -2.34303 0
M  V30 17792 O 1705.72 -2.13285 -3.40401 0
M  V30 17793 N 1703.93 -2.03903 -2.07055 0
M  V30 17794 H 1703.48 -2.27523 -1.20794 0
M  V30 17795 H 1703.43 -1.50932 -2.75802 0
M  V30 17796 N 1707.21 -0.246397 -1.55662 0
M  V30 17797 C 1708.17 0.640041 -2.20082 0
M  V30 17798 C 1709.17 1.10313 -1.16994 0
M  V30 17799 O 1710.36 1.00792 -1.42079 0
M  V30 17800 C 1707.49 1.87964 -2.84398 0
M  V30 17801 H 1708.68 0.0780034 -2.99799 0
M  V30 17802 H 1706.24 0.00314588 -1.563 0
M  V30 17803 H 1706.97 2.48292 -2.08618 0
M  V30 17804 H 1706.76 1.5558 -3.59913 0
M  V30 17805 H 1708.25 2.51065 -3.33701 0
M  V30 17806 N 1708.68 1.57577 0.026722 0
M  V30 17807 C 1709.93 1.8966 0.718124 0
M  V30 17808 C 1710.26 0.844423 1.7488 0
M  V30 17809 O 1709.54 -0.14023 1.93994 0
M  V30 17810 C 1709.82 3.32377 1.38555 0
M  V30 17811 C 1709.67 4.4829 0.368227 0
M  V30 17812 C 1710.99 3.74051 2.31891 0
M  V30 17813 H 1708.11 0.689767 0.259596 0
M  V30 17814 H 1710.75 1.8999 -0.0190825 0
M  V30 17815 H 1708.9 3.32226 2.01391 0
M  V30 17816 H 1710.58 4.60576 -0.258394 0
M  V30 17817 H 1708.82 4.32675 -0.312255 0
M  V30 17818 H 1709.49 5.45041 0.873749 0
M  V30 17819 H 1711.97 3.75584 1.79097 0
M  V30 17820 H 1710.84 4.74713 2.7557 0
M  V30 17821 H 1711.1 3.06438 3.18666 0
M  V30 17822 N 1710.16 -0.299034 1.54737 0
M  V30 17823 C 1711.11 -1.36887 1.85824 0
M  V30 17824 C 1712.08 -1.50287 0.70733 0
M  V30 17825 O 1713.26 -1.65114 0.956143 0
M  V30 17826 C 1710.4 -2.7286 2.11286 0
M  V30 17827 C 1709.52 -2.67893 3.38906 0
M  V30 17828 C 1708.65 -3.95873 3.542 0
M  V30 17829 C 1707.69 -3.85312 4.75606 0
M  V30 17830 N 1706.83 -5.05072 4.87695 0
M  V30 17831 H 1711.67 -1.09676 2.77083 0
M  V30 17832 H 1709.2 -0.530427 1.37204 0
M  V30 17833 H 1711.16 -3.51938 2.24043 0
M  V30 17834 H 1709.79 -2.98327 1.23291 0
M  V30 17835 H 1708.84 -1.80669 3.34758 0
M  V30 17836 H 1710.16 -2.5598 4.28107 0
M  V30 17837 H 1709.31 -4.83389 3.66633 0
M  V30 17838 H 1708.05 -4.10622 2.63136 0
M  V30 17839 H 1707.05 -2.9618 4.63203 0
M  V30 17840 H 1708.28 -3.72106 5.68079 0
M  V30 17841 H 1706.23 -5.20281 3.99554 0
M  V30 17842 H 1706.14 -4.9559 5.709 0
M  V30 17843 H 1707.41 -5.94233 5.04487 0
M  V30 17844 N 1711.64 -1.47227 -0.562322 0
M  V30 17845 C 1712.87 -1.56968 -1.34331 0
M  V30 17846 C 1713.28 -0.217012 -1.87951 0
M  V30 17847 O 1712.62 0.79911 -1.65408 0
M  V30 17848 C 1712.68 -2.53072 -2.55332 0
M  V30 17849 C 1712.35 -3.98879 -2.23035 0
M  V30 17850 C 1713.34 -4.87511 -1.80636 0
M  V30 17851 C 1711.03 -4.44174 -2.34551 0
M  V30 17852 C 1713.02 -6.19456 -1.50176 0
M  V30 17853 C 1710.71 -5.76149 -2.03704 0
M  V30 17854 C 1711.71 -6.63611 -1.61584 0
M  V30 17855 O 1711.4 -7.93134 -1.31125 0
M  V30 17856 H 1711.13 -0.532854 -0.415984 0
M  V30 17857 H 1713.68 -1.93515 -0.688552 0
M  V30 17858 H 1711.91 -2.11582 -3.23682 0
M  V30 17859 H 1713.6 -2.52996 -3.17408 0
M  V30 17860 H 1714.37 -4.53766 -1.71236 0
M  V30 17861 H 1710.25 -3.76308 -2.66295 0
M  V30 17862 H 1713.79 -6.8768 -1.17227 0
M  V30 17863 H 1709.69 -6.09438 -2.12735 0
M  V30 17864 H 1710.45 -8.0559 -1.44799 0
M  V30 17865 N 1713.12 0.808639 -1.35273 0
M  V30 17866 C 1714.07 1.94177 -1.28055 0
M  V30 17867 C 1715.06 1.68485 -0.175874 0
M  V30 17868 O 1716.27 1.76726 -0.341729 0
M  V30 17869 H 1712.64 0.63793 -0.398183 0
M  V30 17870 H 1714.61 1.97385 -2.2379 0
M  V30 17871 C 1713.36 3.30913 -1.06734 0
M  V30 17872 H 1712.68 3.51238 -1.90975 0
M  V30 17873 H 1714.12 4.10607 -1.05724 0
M  V30 17874 C 1712.58 3.36122 0.228886 0
M  V30 17875 O 1713.11 3.82553 1.22539 0
M  V30 17876 N 1711.32 2.89371 0.266949 0
M  V30 17877 H 1710.87 2.51778 -0.544571 0
M  V30 17878 H 1710.82 2.93238 1.13396 0
M  V30 17879 N 1714.6 1.19237 1.03055 0
M  V30 17880 C 1716.01 0.996569 1.57878 0
M  V30 17881 C 1716.36 -0.450987 1.90946 0
M  V30 17882 O 1715.48 -1.33009 1.70697 0
M  V30 17883 C 1716.08 1.80272 2.86858 0
M  V30 17884 C 1714.64 1.65097 3.3826 0
M  V30 17885 C 1713.78 1.79079 2.11721 0
M  V30 17886 H 1716.74 1.33633 0.856037 0
M  V30 17887 H 1716.76 1.29781 3.57683 0
M  V30 17888 H 1716.27 2.85621 2.62759 0
M  V30 17889 H 1714.37 0.623267 3.6735 0
M  V30 17890 H 1714.48 2.45527 4.11404 0
M  V30 17891 H 1712.85 1.22124 2.23512 0
M  V30 17892 H 1713.63 2.85885 1.90065 0
M  V30 17893 N 1716.07 -1.22136 0.99602 0
M  V30 17894 C 1717.32 -1.9125 0.674632 0
M  V30 17895 C 1717.65 -1.77331 -0.791655 0
M  V30 17896 O 1716.93 -1.14419 -1.57285 0
M  V30 17897 C 1717.21 -3.43359 1.08521 0
M  V30 17898 C 1717.06 -3.66312 2.61028 0
M  V30 17899 C 1718.38 -4.3541 0.640795 0
M  V30 17900 H 1715.5 -0.694534 0.246559 0
M  V30 17901 H 1718.14 -1.4395 1.2401 0
M  V30 17902 H 1716.29 -3.83775 0.604071 0
M  V30 17903 H 1717.97 -3.3528 3.16836 0
M  V30 17904 H 1716.21 -3.10485 3.02954 0
M  V30 17905 H 1716.88 -4.72852 2.84807 0
M  V30 17906 H 1719.36 -4.02527 1.05411 0
M  V30 17907 H 1718.23 -5.40505 0.956337 0
M  V30 17908 H 1718.49 -4.39717 -0.458421 0
M  V30 17909 N 1717.55 -0.769612 -1.37531 0
M  V30 17910 C 1718.78 -0.343783 -2.0372 0
M  V30 17911 C 1719.19 1.03816 -1.58173 0
M  V30 17912 O 1718.53 1.6736 -0.75739 0
M  V30 17913 C 1718.6 -0.305844 -3.58197 0
M  V30 17914 C 1718.26 -1.63202 -4.26866 0
M  V30 17915 C 1719.26 -2.58408 -4.51133 0
M  V30 17916 C 1716.94 -1.90587 -4.64739 0
M  V30 17917 C 1718.94 -3.79208 -5.12328 0
M  V30 17918 C 1716.62 -3.11657 -5.25655 0
M  V30 17919 C 1717.62 -4.05788 -5.49386 0
M  V30 17920 O 1717.31 -5.24727 -6.09029 0
M  V30 17921 H 1717.04 -0.142358 -0.66084 0
M  V30 17922 H 1719.59 -1.04399 -1.7689 0
M  V30 17923 H 1717.82 0.450724 -3.84064 0
M  V30 17924 H 1719.51 0.0926269 -4.05794 0
M  V30 17925 H 1720.28 -2.38532 -4.22288 0
M  V30 17926 H 1716.16 -1.18148 -4.45603 0
M  V30 17927 H 1719.7 -4.52694 -5.30767 0
M  V30 17928 H 1715.6 -3.3142 -5.53924 0
M  V30 17929 H 1716.37 -5.25523 -6.27509 0
M  V30 17930 N 1719.03 1.48775 -0.519977 0
M  V30 17931 C 1719.94 2.33239 0.252329 0
M  V30 17932 C 1720.96 1.45852 0.948849 0
M  V30 17933 O 1722.13 1.78848 0.92603 0
M  V30 17934 C 1719.2 3.2174 1.29166 0
M  V30 17935 C 1718.26 4.24993 0.606564 0
M  V30 17936 C 1717.49 5.09266 1.59638 0
M  V30 17937 O 1717.71 4.95353 2.82809 0
M  V30 17938 O 1716.65 5.90981 1.14127 0
M  V30 17939 H 1720.47 3.00503 -0.439527 0
M  V30 17940 H 1718.06 1.46733 -0.281032 0
M  V30 17941 H 1719.94 3.76512 1.89254 0
M  V30 17942 H 1718.62 2.5715 1.96611 0
M  V30 17943 H 1717.52 3.74084 -0.0345447 0
M  V30 17944 H 1718.86 4.92193 -0.0257627 0
M  V30 17945 N 1720.51 0.254649 1.55529 0
M  V30 17946 C 1721.73 -0.374795 2.03985 0
M  V30 17947 C 1722.16 -1.50188 1.13249 0
M  V30 17948 O 1721.52 -1.80855 0.126963 0
M  V30 17949 C 1721.56 -0.852635 3.50375 0
M  V30 17950 O 1720.67 -1.9616 3.6276 0
M  V30 17951 H 1720.01 -0.0806157 0.659088 0
M  V30 17952 H 1722.54 0.38297 2.00984 0
M  V30 17953 H 1722.55 -1.15381 3.91345 0
M  V30 17954 H 1721.22 -0.0279044 4.15891 0
M  V30 17955 H 1719.8 -1.66453 3.33688 0
M  V30 17956 N 1721.99 -1.57589 -0.0183649 0
M  V30 17957 C 1722.94 -2.03724 -1.02373 0
M  V30 17958 C 1723.92 -0.928514 -1.31406 0
M  V30 17959 O 1725.11 -1.19237 -1.30811 0
M  V30 17960 C 1722.24 -2.52901 -2.32155 0
M  V30 17961 C 1721.33 -3.70616 -2.06167 0
M  V30 17962 N 1721.72 -4.82961 -1.50273 0
M  V30 17963 C 1720.02 -3.78195 -2.364 0
M  V30 17964 C 1720.72 -5.64518 -1.40335 0
M  V30 17965 N 1719.69 -5.09959 -1.88263 0
M  V30 17966 H 1723.5 -2.88003 -0.58577 0
M  V30 17967 H 1721.01 -1.60841 -0.224452 0
M  V30 17968 H 1723.01 -2.84219 -3.05 0
M  V30 17969 H 1721.67 -1.70033 -2.76621 0
M  V30 17970 H 1722.68 -5.04185 -1.18399 0
M  V30 17971 H 1719.35 -3.06147 -2.83866 0
M  V30 17972 H 1720.74 -6.64785 -0.975187 0
M  V30 17973 N 1723.46 0.290824 -1.54893 0
M  V30 17974 C 1724.88 0.637054 -1.46334 0
M  V30 17975 C 1725.08 1.90285 -0.66285 0
M  V30 17976 O 1724.14 2.51896 -0.174589 0
M  V30 17977 C 1725.45 0.780585 -2.90392 0
M  V30 17978 C 1727 0.875807 -3.00497 0
M  V30 17979 C 1727.47 1.05126 -4.45772 0
M  V30 17980 N 1728.96 1.11721 -4.49525 0
M  V30 17981 C 1729.7 1.27145 -5.59126 0
M  V30 17982 N 1729.19 1.39401 -6.7863 0
M  V30 17983 N 1730.99 1.30114 -5.46833 0
M  V30 17984 H 1723.14 -0.540707 -2.05402 0
M  V30 17985 H 1725.4 -0.180344 -0.930688 0
M  V30 17986 H 1725.11 -0.0787855 -3.51612 0
M  V30 17987 H 1724.98 1.66644 -3.38392 0
M  V30 17988 H 1727.37 1.72566 -2.39385 0
M  V30 17989 H 1727.45 -0.0342844 -2.55777 0
M  V30 17990 H 1727.09 0.206135 -5.07482 0
M  V30 17991 H 1727.02 1.97573 -4.88132 0
M  V30 17992 H 1729.51 1.03562 -3.63433 0
M  V30 17993 H 1729.83 1.50953 -7.57914 0
M  V30 17994 H 1728.17 1.36438 -6.81476 0
M  V30 17995 H 1731.36 1.20157 -4.52416 0
M  V30 17996 H 1731.54 1.4179 -6.32297 0
M  V30 17997 N 1724.94 1.47523 0.554506 0
M  V30 17998 C 1725.91 1.59761 1.64345 0
M  V30 17999 C 1726.91 0.472516 1.53701 0
M  V30 18000 O 1728.1 0.737659 1.57811 0
M  V30 18001 C 1725.23 1.54467 3.03896 0
M  V30 18002 H 1726.42 2.56834 1.54842 0
M  V30 18003 H 1723.97 1.35753 0.774643 0
M  V30 18004 H 1724.71 0.587789 3.18929 0
M  V30 18005 H 1724.49 2.36123 3.13031 0
M  V30 18006 H 1725.98 1.66174 3.83113 0
M  V30 18007 N 1726.42 -0.801453 1.357 0
M  V30 18008 C 1727.67 -1.55571 1.29004 0
M  V30 18009 C 1727.99 -1.9454 -0.133836 0
M  V30 18010 O 1727.26 -1.64004 -1.07143 0
M  V30 18011 H 1725.84 -0.576922 0.47452 0
M  V30 18012 H 1728.5 -0.95568 1.69861 0
M  V30 18013 H 1727.6 -2.46879 1.90937 0
M  V30 18014 N 1727.9 -1.19782 -1.02421 0
M  V30 18015 C 1729.14 -1.0145 -1.77446 0
M  V30 18016 C 1729.5 0.44637 -1.86739 0
M  V30 18017 O 1730.7 0.749639 -2.58135 0
M  V30 18018 C 1728.97 -1.67055 -3.15955 0
M  V30 18019 S 1730.53 -1.63725 -4.07111 0
M  V30 18020 H 1727.35 -0.363945 -0.610791 0
M  V30 18021 H 1729.95 -1.52209 -1.2269 0
M  V30 18022 H 1728.66 -2.72571 -3.06811 0
M  V30 18023 H 1728.19 -1.16396 -3.75787 0
M  V30 18024 H 1730.2 -0.664732 -4.91727 0
M  V30 18025 N 1729.38 1.21606 -1.00248 0
M  V30 18026 C 1730.29 2.2757 -0.570004 0
M  V30 18027 C 1731.3 1.69669 0.385788 0
M  V30 18028 O 1732.48 1.99839 0.250246 0
M  V30 18029 C 1729.54 3.46558 0.0990566 0
M  V30 18030 C 1728.61 4.19741 -0.9009 0
M  V30 18031 C 1727.84 5.33048 -0.263673 0
M  V30 18032 O 1728.06 5.62599 0.940131 0
M  V30 18033 O 1727 5.93978 -0.973342 0
M  V30 18034 H 1730.82 2.66751 -1.45182 0
M  V30 18035 H 1728.41 1.27955 -0.771224 0
M  V30 18036 H 1730.29 4.18733 0.47339 0
M  V30 18037 H 1728.96 3.09283 0.955285 0
M  V30 18038 H 1727.87 3.49798 -1.32634 0
M  V30 18039 H 1729.2 4.60921 -1.72664 0
M  V30 18040 N 1730.86 0.776895 1.37121 0
M  V30 18041 C 1731.8 0.164838 2.30211 0
M  V30 18042 C 1732.77 -0.684137 1.51356 0
M  V30 18043 O 1733.96 -0.635428 1.79908 0
M  V30 18044 C 1731.1 -0.704263 3.37837 0
M  V30 18045 C 1730.21 0.161881 4.31697 0
M  V30 18046 C 1729.35 -0.712411 5.26401 0
M  V30 18047 C 1728.38 0.155953 6.11901 0
M  V30 18048 N 1727.52 -0.676607 6.98832 0
M  V30 18049 H 1732.36 0.964185 2.81971 0
M  V30 18050 H 1729.9 0.487065 1.38802 0
M  V30 18051 H 1731.86 -1.22302 3.98871 0
M  V30 18052 H 1730.49 -1.46916 2.87429 0
M  V30 18053 H 1729.54 0.798491 3.71925 0
M  V30 18054 H 1730.85 0.831496 4.91821 0
M  V30 18055 H 1730 -1.29745 5.92664 0
M  V30 18056 H 1728.74 -1.41569 4.66701 0
M  V30 18057 H 1727.75 0.753493 5.44612 0
M  V30 18058 H 1728.97 0.856645 6.73675 0
M  V30 18059 H 1726.92 -1.36441 6.41654 0
M  V30 18060 H 1726.84 -0.0644017 7.55973 0
M  V30 18061 H 1728.1 -1.24588 7.69479 0
M  V30 18062 N 1732.33 -1.48497 0.527859 0
M  V30 18063 C 1733.56 -2.066 -0.00302155 0
M  V30 18064 C 1733.97 -1.38505 -1.28892 0
M  V30 18065 O 1733.31 -0.465745 -1.77698 0
M  V30 18066 C 1733.38 -3.58249 -0.2997 0
M  V30 18067 C 1733.04 -4.48202 0.892405 0
M  V30 18068 C 1734.04 -4.88105 1.79023 0
M  V30 18069 C 1731.72 -4.90134 1.0988 0
M  V30 18070 C 1733.72 -5.68707 2.87838 0
M  V30 18071 C 1731.4 -5.70507 2.19009 0
M  V30 18072 C 1732.4 -6.09701 3.07821 0
M  V30 18073 O 1732.09 -6.88461 4.15062 0
M  V30 18074 H 1731.82 -0.675359 0.029422 0
M  V30 18075 H 1734.38 -1.91903 0.732286 0
M  V30 18076 H 1732.61 -3.71051 -1.08895 0
M  V30 18077 H 1734.29 -3.98483 -0.772407 0
M  V30 18078 H 1735.06 -4.56333 1.64271 0
M  V30 18079 H 1730.94 -4.59112 0.416808 0
M  V30 18080 H 1734.48 -5.99219 3.57187 0
M  V30 18081 H 1730.38 -6.01692 2.33746 0
M  V30 18082 H 1731.15 -7.06812 4.12746 0
M  V30 18083 N 1733.81 -0.262893 -1.55392 0
M  V30 18084 C 1734.72 0.640223 -2.25695 0
M  V30 18085 C 1735.74 1.18019 -1.27857 0
M  V30 18086 O 1736.91 1.21308 -1.60768 0
M  V30 18087 C 1733.98 1.81336 -2.95497 0
M  V30 18088 C 1733.04 1.31128 -4.08784 0
M  V30 18089 C 1732.27 2.4285 -4.75247 0
M  V30 18090 O 1732.5 3.61939 -4.40859 0
M  V30 18091 O 1731.43 2.11699 -5.63442 0
M  V30 18092 H 1735.26 0.0710781 -3.03617 0
M  V30 18093 H 1732.84 -0.030765 -1.49368 0
M  V30 18094 H 1734.72 2.49764 -3.39406 0
M  V30 18095 H 1733.4 2.36982 -2.20502 0
M  V30 18096 H 1732.3 0.593816 -3.69357 0
M  V30 18097 H 1733.64 0.800711 -4.85643 0
M  V30 18098 N 1735.29 1.57597 0.0100073 0
M  V30 18099 C 1736.54 1.89754 0.695559 0
M  V30 18100 C 1736.86 0.862983 1.74865 0
M  V30 18101 O 1736.13 -0.100949 1.9564 0
M  V30 18102 H 1734.71 0.700331 0.259895 0
M  V30 18103 H 1737.37 1.94879 -0.0285521 0
M  V30 18104 H 1736.47 2.89213 1.17313 0
M  V30 18105 N 1736.77 -0.282606 1.55045 0
M  V30 18106 C 1738.18 -0.854338 1.66006 0
M  V30 18107 C 1738.53 -1.87408 0.580753 0
M  V30 18108 O 1737.65 -2.14588 -0.279449 0
M  V30 18109 C 1738.25 -1.55637 3.00936 0
M  V30 18110 C 1736.81 -2.07626 3.13956 0
M  V30 18111 C 1735.96 -0.915064 2.61767 0
M  V30 18112 H 1738.91 -0.0591711 1.5859 0
M  V30 18113 H 1738.93 -2.42289 2.93388 0
M  V30 18114 H 1738.44 -0.813942 3.79469 0
M  V30 18115 H 1736.54 -2.84859 2.40179 0
M  V30 18116 H 1736.65 -2.29816 4.20382 0
M  V30 18117 H 1735.02 -1.30577 2.18682 0
M  V30 18118 H 1735.8 -0.186298 3.42794 0
M  V30 18119 N 1738.25 -1.47815 -0.546675 0
M  V30 18120 C 1739.48 -1.58384 -1.32658 0
M  V30 18121 C 1739.88 -0.236934 -1.87711 0
M  V30 18122 O 1739.23 0.781521 -1.66247 0
M  V30 18123 C 1739.29 -2.55766 -2.52634 0
M  V30 18124 C 1738.95 -4.01222 -2.18791 0
M  V30 18125 C 1739.95 -4.89399 -1.75455 0
M  V30 18126 C 1737.63 -4.46637 -2.29827 0
M  V30 18127 C 1739.63 -6.21014 -1.43598 0
M  V30 18128 C 1737.32 -5.78277 -1.97582 0
M  V30 18129 C 1738.31 -6.65288 -1.54536 0
M  V30 18130 O 1738 -7.9448 -1.22706 0
M  V30 18131 H 1737.73 -0.537236 -0.410309 0
M  V30 18132 H 1740.29 -1.94235 -0.667988 0
M  V30 18133 H 1738.52 -2.15003 -3.2142 0
M  V30 18134 H 1740.21 -2.56349 -3.14706 0
M  V30 18135 H 1740.97 -4.55556 -1.66414 0
M  V30 18136 H 1736.85 -3.79111 -2.62289 0
M  V30 18137 H 1740.4 -6.88885 -1.09926 0
M  V30 18138 H 1736.29 -6.1166 -2.06259 0
M  V30 18139 H 1737.06 -8.07081 -1.36246 0
M  V30 18140 N 1739.72 0.794246 -1.36123 0
M  V30 18141 C 1741.13 1.36909 -1.26936 0
M  V30 18142 C 1741.49 1.9598 0.0929337 0
M  V30 18143 O 1740.61 1.92206 0.994266 0
M  V30 18144 C 1741.21 2.48906 -2.2985 0
M  V30 18145 C 1739.76 3.0222 -2.24366 0
M  V30 18146 C 1738.91 1.75264 -2.1489 0
M  V30 18147 H 1741.86 0.596278 -1.47072 0
M  V30 18148 H 1741.88 3.27794 -1.93213 0
M  V30 18149 H 1741.4 2.05884 -3.28988 0
M  V30 18150 H 1739.5 3.49675 -1.28679 0
M  V30 18151 H 1739.61 3.59363 -3.16852 0
M  V30 18152 H 1737.97 1.97306 -1.61066 0
M  V30 18153 H 1738.76 1.34377 -3.15908 0
M  V30 18154 N 1741.2 1.20323 1.01785 0
M  V30 18155 C 1742.13 0.908716 2.10416 0
M  V30 18156 C 1743.15 -0.103029 1.62474 0
M  V30 18157 O 1744.34 0.127825 1.78042 0
M  V30 18158 C 1741.44 0.340601 3.37184 0
M  V30 18159 C 1740.61 1.40358 4.14268 0
M  V30 18160 C 1739.67 0.847016 5.19338 0
M  V30 18161 O 1738.69 1.5274 5.48324 0
M  V30 18162 N 1739.9 -0.344198 5.79479 0
M  V30 18163 H 1742.66 1.84383 2.36269 0
M  V30 18164 H 1740.22 1.10673 1.18165 0
M  V30 18165 H 1742.21 -0.0458443 4.04674 0
M  V30 18166 H 1740.78 -0.499042 3.08591 0
M  V30 18167 H 1740 1.96442 3.41766 0
M  V30 18168 H 1741.29 2.11952 4.62551 0
M  V30 18169 H 1740.69 -0.914263 5.58263 0
M  V30 18170 H 1739.25 -0.672296 6.48324 0
M  V30 18171 N 1742.68 -1.21073 1.00892 0
M  V30 18172 C 1743.63 -2.21426 0.543574 0
M  V30 18173 C 1744.61 -1.55927 -0.396938 0
M  V30 18174 O 1745.81 -1.75613 -0.221152 0
M  V30 18175 C 1742.93 -3.43074 -0.124494 0
M  V30 18176 C 1742.02 -4.15753 0.837269 0
M  V30 18177 N 1742.41 -4.64936 1.99168 0
M  V30 18178 C 1740.71 -4.41142 0.656473 0
M  V30 18179 C 1741.41 -5.20527 2.59666 0
M  V30 18180 N 1740.39 -5.10133 1.87792 0
M  V30 18181 H 1744.19 -2.5711 1.42378 0
M  V30 18182 H 1741.7 -1.36923 0.873254 0
M  V30 18183 H 1743.7 -4.14181 -0.475363 0
M  V30 18184 H 1742.36 -3.08897 -1.00064 0
M  V30 18185 H 1743.37 -4.60392 2.37191 0
M  V30 18186 H 1740.05 -4.17144 -0.172261 0
M  V30 18187 H 1741.44 -5.69011 3.57318 0
M  V30 18188 N 1744.16 -0.784156 -1.36707 0
M  V30 18189 C 1745.57 -0.417967 -1.81961 0
M  V30 18190 C 1745.92 1.05746 -1.65264 0
M  V30 18191 O 1745.05 1.82003 -1.17064 0
M  V30 18192 C 1745.64 -0.751869 -3.30352 0
M  V30 18193 C 1744.2 -0.438578 -3.73836 0
M  V30 18194 C 1743.35 -0.989262 -2.59054 0
M  V30 18195 H 1746.3 -0.977754 -1.25003 0
M  V30 18196 H 1746.32 -0.041034 -3.80478 0
M  V30 18197 H 1745.83 -1.82576 -3.42473 0
M  V30 18198 H 1743.93 0.627493 -3.67278 0
M  V30 18199 H 1744.04 -0.955508 -4.69475 0
M  V30 18200 H 1742.41 -0.412783 -2.51333 0
M  V30 18201 H 1743.19 -2.06881 -2.73962 0
M  V30 18202 N 1745.64 1.48215 -0.535727 0
M  V30 18203 C 1746.88 2.025 -0.00372753 0
M  V30 18204 C 1747.21 1.41227 1.33735 0
M  V30 18205 O 1746.47 0.549544 1.87826 0
M  V30 18206 C 1746.77 3.57036 0.161344 0
M  V30 18207 C 1746.43 4.37122 -1.10611 0
M  V30 18208 C 1745.09 4.58724 -1.45346 0
M  V30 18209 C 1747.45 4.83469 -1.94698 0
M  V30 18210 C 1744.77 5.2392 -2.64055 0
M  V30 18211 C 1747.13 5.49973 -3.1259 0
M  V30 18212 C 1745.79 5.69812 -3.47664 0
M  V30 18213 H 1745.06 0.740999 -0.001364 0
M  V30 18214 H 1747.71 1.78133 -0.70291 0
M  V30 18215 H 1746.01 3.80274 0.943337 0
M  V30 18216 H 1747.71 3.96666 0.587981 0
M  V30 18217 H 1744.3 4.20573 -0.825608 0
M  V30 18218 H 1748.48 4.66577 -1.69173 0
M  V30 18219 H 1743.74 5.37477 -2.91424 0
M  V30 18220 H 1747.91 5.84852 -3.78049 0
M  V30 18221 H 1745.54 6.20103 -4.39746 0
M  V30 18222 N 1747.11 0.27113 1.5525 0
M  V30 18223 C 1748.34 -0.34974 2.03618 0
M  V30 18224 C 1748.75 -1.5031 1.14907 0
M  V30 18225 O 1748.1 -1.82994 0.160886 0
M  V30 18226 C 1748.16 -0.89674 3.48136 0
M  V30 18227 C 1747.82 0.127473 4.56822 0
M  V30 18228 C 1748.82 0.945589 5.11229 0
M  V30 18229 C 1746.5 0.260562 5.01624 0
M  V30 18230 C 1748.5 1.88302 6.08951 0
M  V30 18231 C 1746.18 1.20147 5.99173 0
M  V30 18232 C 1747.18 2.01121 6.52717 0
M  V30 18233 O 1746.87 2.93621 7.48359 0
M  V30 18234 H 1746.6 -0.0843491 0.670717 0
M  V30 18235 H 1749.16 0.399804 2.01471 0
M  V30 18236 H 1747.39 -1.69628 3.4751 0
M  V30 18237 H 1749.08 -1.43027 3.79866 0
M  V30 18238 H 1749.84 0.853483 4.77431 0
M  V30 18239 H 1745.72 -0.359689 4.59595 0
M  V30 18240 H 1749.26 2.51545 6.50669 0
M  V30 18241 H 1745.16 1.29441 6.32389 0
M  V30 18242 H 1745.93 2.88258 7.66061 0
M  V30 18243 N 1748.59 -1.576 -0.00164943 0
M  V30 18244 C 1749.82 -1.95176 -0.701511 0
M  V30 18245 C 1750.24 -0.873191 -1.66604 0
M  V30 18246 O 1749.6 0.168818 -1.80512 0
M  V30 18247 C 1749.65 -3.31847 -1.41104 0
M  V30 18248 O 1748.75 -3.26034 -2.52539 0
M  V30 18249 H 1748.09 -0.637207 -0.186718 0
M  V30 18250 H 1750.62 -2.04536 0.0510494 0
M  V30 18251 H 1750.63 -3.67374 -1.77483 0
M  V30 18252 H 1749.31 -4.09901 -0.70382 0
M  V30 18253 H 1747.89 -3.0218 -2.18499 0
M  V30 18254 N 1750.07 0.274379 -1.55193 0
M  V30 18255 C 1751.3 1.02871 -1.8009 0
M  V30 18256 C 1751.72 1.79202 -0.571676 0
M  V30 18257 O 1751.08 1.74867 0.478679 0
M  V30 18258 C 1751.13 1.96406 -3.02418 0
M  V30 18259 O 1750.23 3.05154 -2.77408 0
M  V30 18260 H 1749.57 0.294181 -0.595276 0
M  V30 18261 H 1752.1 0.303708 -2.02333 0
M  V30 18262 H 1752.11 2.38385 -3.31114 0
M  V30 18263 H 1750.79 1.40261 -3.91535 0
M  V30 18264 H 1749.36 2.675 -2.59805 0
M  V30 18265 N 1751.55 1.48103 0.538828 0
M  V30 18266 C 1752.51 1.61495 1.62641 0
M  V30 18267 C 1753.51 0.488792 1.53191 0
M  V30 18268 O 1754.7 0.754355 1.57019 0
M  V30 18269 C 1751.83 1.57681 3.02241 0
M  V30 18270 H 1753.03 2.58462 1.5211 0
M  V30 18271 H 1750.58 1.36567 0.760201 0
M  V30 18272 H 1751.31 0.621583 3.18287 0
M  V30 18273 H 1751.1 2.3943 3.10509 0
M  V30 18274 H 1752.59 1.70228 3.81329 0
M  V30 18275 N 1753.03 -0.787016 1.36542 0
M  V30 18276 C 1754.25 -1.58103 1.34231 0
M  V30 18277 C 1754.68 -1.87956 -0.0734932 0
M  V30 18278 O 1754.03 -1.48073 -1.04615 0
M  V30 18279 C 1754.08 -2.87739 2.17345 0
M  V30 18280 O 1753.19 -3.81445 1.56759 0
M  V30 18281 H 1752.53 -0.479495 0.459326 0
M  V30 18282 H 1755.06 -0.975294 1.79859 0
M  V30 18283 H 1755.07 -3.36986 2.3001 0
M  V30 18284 H 1753.74 -2.65338 3.20264 0
M  V30 18285 H 1752.32 -3.40046 1.53047 0
M  V30 18286 N 1754.5 -1.20861 -1.01145 0
M  V30 18287 C 1755.75 -1.0199 -1.74478 0
M  V30 18288 C 1756.07 0.4484 -1.89775 0
M  V30 18289 O 1755.34 1.32386 -1.44398 0
M  V30 18290 H 1753.92 -0.37439 -0.646406 0
M  V30 18291 H 1756.59 -1.5206 -1.21917 0
M  V30 18292 H 1755.68 -1.48251 -2.74642 0
M  V30 18293 N 1755.98 1.20536 -1.01532 0
M  V30 18294 C 1757.26 1.85545 -0.619063 0
M  V30 18295 C 1757.64 1.90816 0.902916 0
M  V30 18296 O 1756.99 1.41506 1.79411 0
M  V30 18297 C 1757.2 3.25252 -1.26539 0
M  V30 18298 C 1758.55 4.01547 -1.38003 0
M  V30 18299 O 1759.57 3.34601 -1.22151 0
M  V30 18300 O 1758.43 5.21436 -1.63605 0
M  V30 18301 H 1755.52 0.798985 -0.21343 0
M  V30 18302 H 1758.07 1.28136 -1.11262 0
M  V30 18303 H 1756.84 3.16174 -2.30542 0
M  V30 18304 H 1756.46 3.90292 -0.758833 0
M  V30 18305 N 1757.46 0.791395 1.36289 0
M  V30 18306 C 1758.71 0.365242 1.99484 0
M  V30 18307 C 1759.04 -1.06087 1.62663 0
M  V30 18308 O 1758.31 -1.73332 0.882396 0
M  V30 18309 C 1758.6 0.531317 3.56159 0
M  V30 18310 C 1758.45 2.00126 4.02827 0
M  V30 18311 C 1759.77 -0.0524248 4.40069 0
M  V30 18312 H 1756.89 0.134183 0.724682 0
M  V30 18313 H 1759.53 0.998102 1.61672 0
M  V30 18314 H 1757.68 -0.0074293 3.88499 0
M  V30 18315 H 1759.35 2.60122 3.80965 0
M  V30 18316 H 1757.6 2.50316 3.54294 0
M  V30 18317 H 1758.27 2.06842 5.11782 0
M  V30 18318 H 1760.74 0.407489 4.141 0
M  V30 18319 H 1759.62 0.0937898 5.4882 0
M  V30 18320 H 1759.88 -1.14472 4.27023 0
M  V30 18321 N 1758.94 -1.47929 0.54358 0
M  V30 18322 C 1760.19 -2.01696 0.0123924 0
M  V30 18323 C 1760.5 -1.42469 -1.34022 0
M  V30 18324 O 1761.71 -1.87816 -1.96054 0
M  V30 18325 C 1760.16 -3.59889 -0.0282734 0
M  V30 18326 C 1759.77 -4.28104 1.32027 0
M  V30 18327 C 1761.52 -4.21455 -0.507571 0
M  V30 18328 C 1759.42 -5.78266 1.23945 0
M  V30 18329 H 1758.35 -0.754 0.000862593 0
M  V30 18330 H 1761 -1.70058 0.689396 0
M  V30 18331 H 1759.39 -3.88429 -0.770641 0
M  V30 18332 H 1760.56 -4.11221 2.07927 0
M  V30 18333 H 1758.87 -3.78468 1.7364 0
M  V30 18334 H 1761.47 -5.31477 -0.586219 0
M  V30 18335 H 1761.81 -3.87696 -1.51648 0
M  V30 18336 H 1762.35 -3.97395 0.179522 0
M  V30 18337 H 1759.09 -6.16621 2.22393 0
M  V30 18338 H 1758.61 -5.97524 0.522029 0
M  V30 18339 H 1760.29 -6.40197 0.935788 0
M  V30 18340 N 1760.42 -0.27936 -1.55104 0
M  V30 18341 C 1761.67 0.335541 -1.99295 0
M  V30 18342 C 1761.99 1.56059 -1.16921 0
M  V30 18343 O 1761.26 1.9417 -0.259773 0
M  V30 18344 H 1759.84 0.126968 -0.736131 0
M  V30 18345 H 1762.5 -0.385679 -1.91046 0
M  V30 18346 H 1761.59 0.622493 -3.05829 0
M  V30 18347 N 1761.9 1.57599 -0.0067085 0
M  V30 18348 C 1763.14 1.90481 0.675393 0
M  V30 18349 C 1763.46 0.881481 1.73939 0
M  V30 18350 O 1762.73 -0.0801928 1.95736 0
M  V30 18351 H 1761.31 0.703048 0.252452 0
M  V30 18352 H 1763.98 1.94838 -0.04922 0
M  V30 18353 H 1763.07 2.90441 1.14239 0
M  V30 18354 N 1763.37 -0.266145 1.55336 0
M  V30 18355 C 1764.3 -1.33322 1.91697 0
M  V30 18356 C 1765.28 -1.51182 0.77961 0
M  V30 18357 O 1766.47 -1.64112 1.03832 0
M  V30 18358 C 1763.6 -2.69151 2.19488 0
M  V30 18359 C 1762.55 -2.66012 3.35293 0
M  V30 18360 C 1761.88 -4.05458 3.4858 0
M  V30 18361 C 1763.18 -2.24681 4.71504 0
M  V30 18362 H 1764.87 -1.03138 2.81075 0
M  V30 18363 H 1762.42 -0.494702 1.35236 0
M  V30 18364 H 1764.37 -3.43918 2.43512 0
M  V30 18365 H 1763.1 -3.00932 1.26916 0
M  V30 18366 H 1761.76 -1.93703 3.11247 0
M  V30 18367 H 1761.4 -4.34472 2.53462 0
M  V30 18368 H 1761.1 -4.04251 4.26445 0
M  V30 18369 H 1762.63 -4.81954 3.74904 0
M  V30 18370 H 1764.04 -2.89173 4.95027 0
M  V30 18371 H 1762.44 -2.34622 5.52334 0
M  V30 18372 H 1763.51 -1.19819 4.69863 0
M  V30 18373 N 1764.85 -1.48386 -0.530967 0
M  V30 18374 C 1766.08 -1.60269 -1.31638 0
M  V30 18375 C 1766.5 -0.262789 -1.86255 0
M  V30 18376 O 1765.86 0.765389 -1.64352 0
M  V30 18377 C 1765.91 -2.65163 -2.44379 0
M  V30 18378 O 1765.01 -2.22254 -3.47386 0
M  V30 18379 H 1764.35 -0.537456 -0.38992 0
M  V30 18380 H 1766.88 -1.94366 -0.639 0
M  V30 18381 H 1766.89 -2.86405 -2.90579 0
M  V30 18382 H 1765.57 -3.62439 -2.03987 0
M  V30 18383 H 1764.14 -2.11221 -3.07311 0
M  V30 18384 N 1766.33 0.779763 -1.36958 0
M  V30 18385 C 1767.75 1.07919 -1.17582 0
M  V30 18386 C 1767.95 2.01499 -0.00649229 0
M  V30 18387 O 1767 2.43832 0.655905 0
M  V30 18388 C 1768.31 1.68439 -2.49096 0
M  V30 18389 C 1769.86 1.80735 -2.55546 0
M  V30 18390 C 1770.34 2.44669 -3.87171 0
M  V30 18391 N 1771.83 2.52127 -3.88569 0
M  V30 18392 C 1772.56 3.02429 -4.87159 0
M  V30 18393 N 1772.06 3.52964 -5.96144 0
M  V30 18394 N 1773.85 3.0123 -4.7457 0
M  V30 18395 H 1766 0.158249 -2.1181 0
M  V30 18396 H 1768.27 0.132826 -0.938649 0
M  V30 18397 H 1767.97 1.07147 -3.34981 0
M  V30 18398 H 1767.85 2.67832 -2.65604 0
M  V30 18399 H 1770.23 2.41162 -1.70073 0
M  V30 18400 H 1770.31 0.801199 -2.42929 0
M  V30 18401 H 1769.96 1.84883 -4.73055 0
M  V30 18402 H 1769.89 3.45874 -3.97088 0
M  V30 18403 H 1772.38 2.16355 -3.09837 0
M  V30 18404 H 1772.69 3.89725 -6.67334 0
M  V30 18405 H 1771.04 3.5109 -5.998 0
M  V30 18406 H 1774.23 2.61045 -3.88553 0
M  V30 18407 H 1774.4 3.40122 -5.51562 0
M  V30 18408 N 1767.81 1.21396 1.00503 0
M  V30 18409 C 1768.72 0.989221 2.12724 0
M  V30 18410 C 1769.73 -0.0586646 1.73901 0
M  V30 18411 O 1770.91 0.131377 2.00971 0
M  V30 18412 C 1767.97 0.556731 3.42201 0
M  V30 18413 C 1767.04 1.67683 3.95197 0
M  V30 18414 C 1766.27 1.26488 5.18494 0
M  V30 18415 O 1766.49 0.13847 5.70232 0
M  V30 18416 O 1765.43 2.07678 5.64937 0
M  V30 18417 H 1769.25 1.92913 2.3456 0
M  V30 18418 H 1766.84 0.998837 1.11102 0
M  V30 18419 H 1768.72 0.325327 4.20142 0
M  V30 18420 H 1767.39 -0.354457 3.21753 0
M  V30 18421 H 1766.3 1.96263 3.18483 0
M  V30 18422 H 1767.63 2.56544 4.20055 0
M  V30 18423 N 1769.29 -1.19996 1.0217 0
M  V30 18424 C 1770.2 -2.26634 0.606136 0
M  V30 18425 C 1771.21 -1.70262 -0.358746 0
M  V30 18426 O 1772.39 -2.00212 -0.218422 0
M  V30 18427 C 1769.45 -3.46672 -0.0439096 0
M  V30 18428 C 1768.51 -4.18254 0.967563 0
M  V30 18429 C 1767.75 -5.32561 0.348443 0
M  V30 18430 O 1767.97 -5.64024 -0.850508 0
M  V30 18431 O 1766.9 -5.92354 1.06772 0
M  V30 18432 H 1770.73 -2.64407 1.49407 0
M  V30 18433 H 1768.31 -1.26712 0.791483 0
M  V30 18434 H 1770.2 -4.19433 -0.406714 0
M  V30 18435 H 1768.87 -3.10764 -0.90596 0
M  V30 18436 H 1767.78 -3.47644 1.38183 0
M  V30 18437 H 1769.11 -4.58116 1.79975 0
M  V30 18438 N 1770.76 -0.798611 -1.35867 0
M  V30 18439 C 1772.01 -0.371795 -1.98244 0
M  V30 18440 C 1772.33 1.06474 -1.64081 0
M  V30 18441 O 1773.53 1.59428 -2.19761 0
M  V30 18442 C 1771.99 -0.613821 -3.54627 0
M  V30 18443 C 1771.6 -2.06237 -3.97706 0
M  V30 18444 C 1773.34 -0.251966 -4.23752 0
M  V30 18445 C 1771.25 -2.25057 -5.46903 0
M  V30 18446 H 1770.18 -0.135278 -0.741765 0
M  V30 18447 H 1772.83 -0.981544 -1.55042 0
M  V30 18448 H 1771.21 0.0657688 -3.95945 0
M  V30 18449 H 1772.38 -2.77912 -3.67562 0
M  V30 18450 H 1770.7 -2.38334 -3.41447 0
M  V30 18451 H 1773.3 -0.370736 -5.33413 0
M  V30 18452 H 1773.64 0.800968 -4.08522 0
M  V30 18453 H 1774.17 -0.885155 -3.87827 0
M  V30 18454 H 1770.91 -3.28767 -5.67091 0
M  V30 18455 H 1770.43 -1.57898 -5.78643 0
M  V30 18456 H 1772.11 -2.06219 -6.13256 0
M  V30 18457 N 1772.24 1.47639 -0.551417 0
M  V30 18458 C 1773.66 1.58202 -0.210768 0
M  V30 18459 C 1773.86 1.55078 1.28659 0
M  V30 18460 O 1772.91 1.45113 2.06636 0
M  V30 18461 C 1774.23 2.88952 -0.832294 0
M  V30 18462 C 1775.77 3.02524 -0.80299 0
M  V30 18463 C 1776.25 4.35966 -1.40348 0
M  V30 18464 N 1777.74 4.42587 -1.3664 0
M  V30 18465 C 1778.48 5.44391 -1.80072 0
M  V30 18466 N 1777.97 6.53037 -2.31332 0
M  V30 18467 N 1779.76 5.35401 -1.71178 0
M  V30 18468 H 1771.92 1.47912 -1.52433 0
M  V30 18469 H 1774.18 0.703607 -0.635328 0
M  V30 18470 H 1773.88 2.96958 -1.88439 0
M  V30 18471 H 1773.76 3.75824 -0.321915 0
M  V30 18472 H 1776.15 2.94119 0.240395 0
M  V30 18473 H 1776.23 2.17209 -1.35107 0
M  V30 18474 H 1775.87 4.45127 -2.4459 0
M  V30 18475 H 1775.8 5.20004 -0.830897 0
M  V30 18476 H 1778.29 3.64664 -0.991386 0
M  V30 18477 H 1778.6 7.26884 -2.62411 0
M  V30 18478 H 1776.95 6.53942 -2.35339 0
M  V30 18479 H 1780.14 4.49421 -1.30912 0
M  V30 18480 H 1780.31 6.14604 -2.05344 0
M  V30 18481 N 1773.72 0.287581 1.54954 0
M  V30 18482 C 1774.65 -0.62789 2.20432 0
M  V30 18483 C 1775.67 -1.10792 1.19286 0
M  V30 18484 O 1776.85 -1.02768 1.45949 0
M  V30 18485 C 1773.95 -1.86998 2.82639 0
M  V30 18486 C 1773.13 -1.53469 4.09592 0
M  V30 18487 C 1772.19 -2.63053 4.5573 0
M  V30 18488 O 1771.21 -2.28712 5.21229 0
M  V30 18489 N 1772.41 -3.93348 4.26917 0
M  V30 18490 H 1775.18 -0.067416 2.99624 0
M  V30 18491 H 1772.74 0.109205 1.61531 0
M  V30 18492 H 1774.73 -2.59629 3.10443 0
M  V30 18493 H 1773.3 -2.33919 2.07366 0
M  V30 18494 H 1772.52 -0.641635 3.88943 0
M  V30 18495 H 1773.81 -1.28587 4.92283 0
M  V30 18496 H 1773.21 -4.24063 3.74415 0
M  V30 18497 H 1771.77 -4.62318 4.59462 0
M  V30 18498 N 1775.2 -1.57593 0.0150662 0
M  V30 18499 C 1776.13 -2.04839 -1.0058 0
M  V30 18500 C 1777.11 -0.941261 -1.32586 0
M  V30 18501 O 1778.29 -1.21053 -1.44493 0
M  V30 18502 C 1775.42 -2.45866 -2.32954 0
M  V30 18503 C 1774.47 -3.6746 -2.16507 0
M  V30 18504 S 1775.3 -5.14728 -1.477 0
M  V30 18505 C 1776.46 -5.59038 -2.81473 0
M  V30 18506 H 1776.69 -2.91109 -0.603575 0
M  V30 18507 H 1774.22 -1.53148 -0.196235 0
M  V30 18508 H 1776.18 -2.7017 -3.09061 0
M  V30 18509 H 1774.84 -1.59967 -2.70313 0
M  V30 18510 H 1774.03 -3.93967 -3.14334 0
M  V30 18511 H 1773.64 -3.43235 -1.48545 0
M  V30 18512 H 1775.93 -5.62419 -3.77745 0
M  V30 18513 H 1776.87 -6.58778 -2.59648 0
M  V30 18514 H 1777.28 -4.86643 -2.86075 0
M  V30 18515 N 1776.68 0.257904 -1.55475 0
M  V30 18516 C 1777.91 1.00385 -1.80572 0
M  V30 18517 C 1778.31 1.79866 -0.586915 0
M  V30 18518 O 1777.66 1.78008 0.453747 0
M  V30 18519 C 1777.72 1.99828 -2.98846 0
M  V30 18520 C 1777.38 1.39144 -4.35302 0
M  V30 18521 C 1778.38 0.799456 -5.13717 0
M  V30 18522 C 1776.07 1.4141 -4.81984 0
M  V30 18523 C 1778.06 0.238228 -6.36955 0
M  V30 18524 C 1775.75 0.849019 -6.05173 0
M  V30 18525 C 1776.74 0.262096 -6.82497 0
M  V30 18526 O 1776.43 -0.294292 -8.03361 0
M  V30 18527 H 1776.16 0.301552 -0.605014 0
M  V30 18528 H 1778.72 0.289436 -2.03351 0
M  V30 18529 H 1776.95 2.7507 -2.71797 0
M  V30 18530 H 1778.64 2.60675 -3.11133 0
M  V30 18531 H 1779.4 0.774531 -4.78776 0
M  V30 18532 H 1775.28 1.86032 -4.21797 0
M  V30 18533 H 1778.83 -0.220518 -6.97251 0
M  V30 18534 H 1774.72 0.871235 -6.39593 0
M  V30 18535 H 1775.49 -0.185098 -8.18291 0
M  V30 18536 N 1778.15 1.48666 0.52309 0
M  V30 18537 C 1779.06 1.66396 1.65377 0
M  V30 18538 C 1780.08 0.546469 1.65196 0
M  V30 18539 O 1781.26 0.818413 1.84022 0
M  V30 18540 C 1778.32 1.70602 3.01821 0
M  V30 18541 C 1777.38 2.94028 3.12803 0
M  V30 18542 C 1776.62 2.98024 4.42739 0
M  V30 18543 O 1776.84 2.10232 5.30244 0
M  V30 18544 O 1775.77 3.90266 4.58231 0
M  V30 18545 H 1779.6 2.62138 1.53354 0
M  V30 18546 H 1777.18 1.32148 0.696948 0
M  V30 18547 H 1779.07 1.75849 3.82956 0
M  V30 18548 H 1777.74 0.780346 3.14153 0
M  V30 18549 H 1776.65 2.9431 2.30938 0
M  V30 18550 H 1777.98 3.86003 3.0539 0
M  V30 18551 N 1779.63 -0.772489 1.37369 0
M  V30 18552 C 1780.86 -1.56671 1.35901 0
M  V30 18553 C 1781.28 -1.88024 -0.0535538 0
M  V30 18554 O 1780.64 -1.49174 -1.03038 0
M  V30 18555 C 1780.69 -2.85417 2.20384 0
M  V30 18556 O 1779.79 -3.79761 1.60796 0
M  V30 18557 H 1779.13 -0.474596 0.464386 0
M  V30 18558 H 1781.66 -0.956162 1.80883 0
M  V30 18559 H 1781.67 -3.34527 2.33571 0
M  V30 18560 H 1780.35 -2.61926 3.2306 0
M  V30 18561 H 1778.93 -3.38403 1.56645 0
M  V30 18562 N 1781.11 -1.21927 -0.998575 0
M  V30 18563 C 1782.34 -1.06735 -1.77827 0
M  V30 18564 C 1782.76 0.378154 -1.8426 0
M  V30 18565 O 1782.12 1.27301 -1.2909 0
M  V30 18566 C 1782.17 -1.67662 -3.19252 0
M  V30 18567 O 1781.27 -0.926448 -4.01859 0
M  V30 18568 H 1780.61 -0.375241 -0.547805 0
M  V30 18569 H 1783.14 -1.61605 -1.25478 0
M  V30 18570 H 1783.15 -1.72151 -3.69903 0
M  V30 18571 H 1781.83 -2.72854 -3.13885 0
M  V30 18572 H 1780.4 -0.957145 -3.60407 0
M  V30 18573 N 1782.59 1.19452 -1.02805 0
M  V30 18574 C 1783.5 2.2631 -0.618147 0
M  V30 18575 C 1784.51 1.70449 0.349712 0
M  V30 18576 O 1785.69 2.00325 0.207801 0
M  V30 18577 C 1782.76 3.46691 0.0255242 0
M  V30 18578 C 1781.82 4.17735 -0.98973 0
M  V30 18579 C 1781.05 5.32369 -0.376681 0
M  V30 18580 O 1781.27 5.64467 0.820584 0
M  V30 18581 O 1780.21 5.9178 -1.09911 0
M  V30 18582 H 1784.03 2.63611 -1.50807 0
M  V30 18583 H 1781.62 1.2629 -0.798192 0
M  V30 18584 H 1783.5 4.19643 0.384464 0
M  V30 18585 H 1782.17 3.1124 0.889467 0
M  V30 18586 H 1781.08 3.46906 -1.40024 0
M  V30 18587 H 1782.41 4.57155 -1.82402 0
M  V30 18588 N 1784.07 0.805805 1.35442 0
M  V30 18589 C 1785 0.230077 2.32364 0
M  V30 18590 C 1785.98 -0.644034 1.57436 0
M  V30 18591 O 1787.16 -0.574467 1.85509 0
M  V30 18592 C 1784.29 -0.622814 3.4167 0
M  V30 18593 C 1783.25 0.152739 4.27727 0
M  V30 18594 C 1782.57 -0.821803 5.28347 0
M  V30 18595 C 1783.87 1.35128 5.04517 0
M  V30 18596 H 1785.57 1.03983 2.80763 0
M  V30 18597 H 1783.11 0.501467 1.34986 0
M  V30 18598 H 1785.07 -1.03564 4.08476 0
M  V30 18599 H 1783.79 -1.46544 2.91877 0
M  V30 18600 H 1782.45 0.546732 3.625 0
M  V30 18601 H 1782.1 -1.65991 4.74822 0
M  V30 18602 H 1781.8 -0.307209 5.86796 0
M  V30 18603 H 1783.32 -1.23285 5.98024 0
M  V30 18604 H 1784.73 1.01337 5.64273 0
M  V30 18605 H 1783.13 1.80031 5.72459 0
M  V30 18606 H 1784.2 2.13833 4.35205 0
M  V30 18607 N 1785.54 -1.47344 0.559239 0
M  V30 18608 C 1786.77 -2.07364 0.0388864 0
M  V30 18609 C 1787.19 -1.40886 -1.2463 0
M  V30 18610 O 1786.55 -0.48454 -1.74705 0
M  V30 18611 C 1786.6 -3.60336 -0.137894 0
M  V30 18612 O 1785.7 -3.94555 -1.2 0
M  V30 18613 H 1785.05 -0.661942 0.0522363 0
M  V30 18614 H 1787.58 -1.89333 0.7755 0
M  V30 18615 H 1787.59 -4.06483 -0.351462 0
M  V30 18616 H 1786.26 -4.08118 0.800776 0
M  V30 18617 H 1784.84 -3.6015 -0.966757 0
M  V30 18618 N 1787.02 -0.295795 -1.54799 0
M  V30 18619 C 1788.44 0.0577516 -1.59495 0
M  V30 18620 C 1788.64 1.52862 -1.31284 0
M  V30 18621 O 1787.69 2.28061 -1.08372 0
M  V30 18622 C 1789.01 -0.335503 -2.98822 0
M  V30 18623 C 1790.56 -0.283835 -3.1171 0
M  V30 18624 C 1791.03 -0.651835 -4.53338 0
M  V30 18625 N 1792.52 -0.604171 -4.59243 0
M  V30 18626 C 1793.26 -0.861453 -5.66892 0
M  V30 18627 N 1792.75 -1.18443 -6.826 0
M  V30 18628 N 1794.55 -0.788863 -5.56537 0
M  V30 18629 H 1786.7 -1.25444 -1.71399 0
M  V30 18630 H 1788.96 -0.50822 -0.80026 0
M  V30 18631 H 1788.67 -1.35923 -3.24373 0
M  V30 18632 H 1788.54 0.313443 -3.75895 0
M  V30 18633 H 1790.93 0.730641 -2.85912 0
M  V30 18634 H 1791.01 -0.967331 -2.36804 0
M  V30 18635 H 1790.65 -1.66409 -4.79865 0
M  V30 18636 H 1790.58 0.053676 -5.26573 0
M  V30 18637 H 1793.07 -0.365262 -3.76131 0
M  V30 18638 H 1793.39 -1.36686 -7.60616 0
M  V30 18639 H 1791.73 -1.22242 -6.84165 0
M  V30 18640 H 1794.92 -0.536231 -4.65018 0
M  V30 18641 H 1795.09 -0.992744 -6.4035 0
M  V30 18642 N 1788.5 1.57583 -0.0234236 0
M  V30 18643 C 1789.41 2.13328 0.976138 0
M  V30 18644 C 1790.43 1.08414 1.36097 0
M  V30 18645 O 1791.6 1.40441 1.44354 0
M  V30 18646 C 1788.67 2.64469 2.24181 0
M  V30 18647 C 1787.73 3.84076 1.91793 0
M  V30 18648 C 1786.96 4.32768 3.12326 0
M  V30 18649 O 1787.19 3.80663 4.24797 0
M  V30 18650 O 1786.12 5.24676 2.94956 0
M  V30 18651 H 1789.95 2.99001 0.532166 0
M  V30 18652 H 1787.53 1.48098 0.196838 0
M  V30 18653 H 1789.41 2.97456 2.98492 0
M  V30 18654 H 1788.09 1.81881 2.6777 0
M  V30 18655 H 1786.99 3.56023 1.14883 0
M  V30 18656 H 1788.33 4.67808 1.53024 0
M  V30 18657 N 1789.98 -0.249655 1.5561 0
M  V30 18658 C 1790.89 -1.33061 1.93215 0
M  V30 18659 C 1791.91 -1.52806 0.832239 0
M  V30 18660 O 1793.08 -1.66482 1.13339 0
M  V30 18661 C 1790.15 -2.66569 2.2168 0
M  V30 18662 C 1789.21 -2.5537 3.45087 0
M  V30 18663 C 1788.44 -3.82511 3.72184 0
M  V30 18664 O 1788.66 -4.84267 3.014 0
M  V30 18665 O 1787.6 -3.81309 4.65711 0
M  V30 18666 H 1791.42 -1.04161 2.85279 0
M  V30 18667 H 1789.01 -0.450177 1.42456 0
M  V30 18668 H 1790.89 -3.45468 2.41308 0
M  V30 18669 H 1789.57 -2.95207 1.32794 0
M  V30 18670 H 1788.47 -1.74766 3.30768 0
M  V30 18671 H 1789.81 -2.31677 4.34266 0
M  V30 18672 N 1791.46 -1.48941 -0.515198 0
M  V30 18673 C 1792.71 -1.5696 -1.26674 0
M  V30 18674 C 1793.02 -0.255062 -1.9393 0
M  V30 18675 O 1794.23 -0.213645 -2.70658 0
M  V30 18676 C 1792.68 -2.76877 -2.29928 0
M  V30 18677 C 1792.29 -4.15033 -1.68676 0
M  V30 18678 C 1794.03 -2.94218 -3.06 0
M  V30 18679 C 1791.94 -5.26191 -2.69957 0
M  V30 18680 H 1790.87 -0.584377 -0.476465 0
M  V30 18681 H 1793.52 -1.75303 -0.542322 0
M  V30 18682 H 1791.9 -2.51999 -3.05471 0
M  V30 18683 H 1793.08 -4.49991 -0.992215 0
M  V30 18684 H 1791.39 -4.02932 -1.05045 0
M  V30 18685 H 1793.99 -3.74433 -3.81712 0
M  V30 18686 H 1794.33 -2.04235 -3.62759 0
M  V30 18687 H 1794.87 -3.19068 -2.37572 0
M  V30 18688 H 1791.6 -6.18189 -2.17998 0
M  V30 18689 H 1791.12 -4.95705 -3.37694 0
M  V30 18690 H 1792.8 -5.54929 -3.32659 0
M  V30 18691 N 1792.94 0.765193 -1.37777 0
M  V30 18692 C 1793.87 1.888 -1.29951 0
M  V30 18693 C 1794.88 1.61387 -0.213996 0
M  V30 18694 O 1796.07 1.72183 -0.470657 0
M  V30 18695 C 1793.17 3.24178 -0.988004 0
M  V30 18696 C 1792.34 3.79186 -2.18029 0
M  V30 18697 C 1791.4 4.93054 -1.83804 0
M  V30 18698 O 1790.43 5.08296 -2.56172 0
M  V30 18699 N 1791.63 5.75153 -0.786062 0
M  V30 18700 H 1794.39 1.96028 -2.267 0
M  V30 18701 H 1791.96 0.944602 -1.31487 0
M  V30 18702 H 1793.95 3.97881 -0.739771 0
M  V30 18703 H 1792.52 3.1241 -0.108852 0
M  V30 18704 H 1791.74 2.97185 -2.58988 0
M  V30 18705 H 1793.03 4.12669 -2.97627 0
M  V30 18706 H 1792.42 5.65395 -0.185678 0
M  V30 18707 H 1790.98 6.49054 -0.597697 0
M  V30 18708 N 1794.41 1.22455 0.992094 0
M  V30 18709 C 1795.32 1.01173 2.11663 0
M  V30 18710 C 1796.34 -0.0402168 1.73954 0
M  V30 18711 O 1797.52 0.152685 2.0082 0
M  V30 18712 C 1794.58 0.592995 3.41591 0
M  V30 18713 C 1793.64 1.71865 3.93397 0
M  V30 18714 C 1792.87 1.3198 5.17124 0
M  V30 18715 O 1793.1 0.198943 5.70053 0
M  V30 18716 O 1792.03 2.13658 5.62702 0
M  V30 18717 H 1795.86 1.9539 2.32501 0
M  V30 18718 H 1793.44 1.01056 1.10036 0
M  V30 18719 H 1795.32 0.36987 4.19774 0
M  V30 18720 H 1794 -0.320311 3.22111 0
M  V30 18721 H 1792.91 1.9963 3.16384 0
M  V30 18722 H 1794.24 2.60985 4.1731 0
M  V30 18723 N 1795.89 -1.18905 1.03437 0
M  V30 18724 C 1797.31 -1.4075 0.752444 0
M  V30 18725 C 1797.51 -1.90361 -0.660679 0
M  V30 18726 O 1796.56 -2.08389 -1.42584 0
M  V30 18727 C 1797.88 -2.4138 1.79321 0
M  V30 18728 C 1799.42 -2.55118 1.81339 0
M  V30 18729 C 1799.9 -3.59007 2.8439 0
M  V30 18730 N 1801.39 -3.66508 2.83242 0
M  V30 18731 C 1802.13 -4.46602 3.59631 0
M  V30 18732 N 1801.62 -5.30355 4.45753 0
M  V30 18733 N 1803.41 -4.41304 3.48148 0
M  V30 18734 H 1795.57 -0.850259 1.94639 0
M  V30 18735 H 1797.83 -0.435962 0.841808 0
M  V30 18736 H 1797.53 -2.11963 2.80651 0
M  V30 18737 H 1797.41 -3.40636 1.62008 0
M  V30 18738 H 1799.8 -2.83856 0.806847 0
M  V30 18739 H 1799.88 -1.55996 2.02728 0
M  V30 18740 H 1799.52 -3.31011 3.8522 0
M  V30 18741 H 1799.45 -4.57792 2.60258 0
M  V30 18742 H 1801.94 -3.06697 2.20784 0
M  V30 18743 H 1802.25 -5.88603 5.00766 0
M  V30 18744 H 1800.6 -5.29797 4.49823 0
M  V30 18745 H 1803.79 -3.74918 2.80275 0
M  V30 18746 H 1803.96 -5.03483 4.07932 0
M  V30 18747 N 1797.37 -0.812977 -1.35013 0
M  V30 18748 C 1798.3 -0.173259 -2.27541 0
M  V30 18749 C 1799.28 0.664507 -1.48402 0
M  V30 18750 O 1800.46 0.630404 -1.77646 0
M  V30 18751 C 1797.59 0.758971 -3.30087 0
M  V30 18752 C 1796.64 1.06631e-05 -4.265 0
M  V30 18753 S 1797.47 -1.34039 -5.18453 0
M  V30 18754 C 1798.63 -0.412779 -6.24537 0
M  V30 18755 H 1798.86 -0.957746 -2.81451 0
M  V30 18756 H 1796.39 -0.608361 -1.4191 0
M  V30 18757 H 1798.35 1.29131 -3.89661 0
M  V30 18758 H 1797.01 1.5169 -2.75044 0
M  V30 18759 H 1796.2 0.7083 -4.98998 0
M  V30 18760 H 1795.81 -0.462563 -3.71128 0
M  V30 18761 H 1798.1 0.39951 -6.76321 0
M  V30 18762 H 1799.04 -1.10714 -6.99391 0
M  V30 18763 H 1799.45 -0.00563089 -5.645 0
M  V30 18764 N 1798.85 1.47045 -0.567045 0
M  V30 18765 C 1800.26 1.5797 -0.227536 0
M  V30 18766 C 1800.46 1.56434 1.27006 0
M  V30 18767 O 1799.52 1.47297 2.05085 0
M  V30 18768 C 1800.83 2.88053 -0.862894 0
M  V30 18769 C 1802.38 3.01656 -0.835032 0
M  V30 18770 C 1802.86 4.34453 -1.44964 0
M  V30 18771 N 1804.35 4.41113 -1.41327 0
M  V30 18772 C 1805.08 5.42451 -1.85835 0
M  V30 18773 N 1804.58 6.50547 -2.38245 0
M  V30 18774 N 1806.37 5.33556 -1.76847 0
M  V30 18775 H 1798.52 1.46287 -1.53993 0
M  V30 18776 H 1800.78 0.696829 -0.642755 0
M  V30 18777 H 1800.49 2.94942 -1.91578 0
M  V30 18778 H 1800.36 3.75461 -0.361758 0
M  V30 18779 H 1802.75 2.94358 0.209187 0
M  V30 18780 H 1802.83 2.15764 -1.37403 0
M  V30 18781 H 1802.48 4.42508 -2.49298 0
M  V30 18782 H 1802.41 5.19093 -0.886003 0
M  V30 18783 H 1804.9 3.63592 -1.03001 0
M  V30 18784 H 1805.21 7.2406 -2.70105 0
M  V30 18785 H 1803.56 6.51409 -2.42262 0
M  V30 18786 H 1806.75 4.48008 -1.35671 0
M  V30 18787 H 1806.92 6.12391 -2.11851 0
M  V30 18788 N 1800.33 0.304 1.5464 0
M  V30 18789 C 1801.57 -0.304845 2.00496 0
M  V30 18790 C 1801.9 -1.53308 1.19206 0
M  V30 18791 O 1801.18 -1.92627 0.269305 0
M  V30 18792 C 1801.46 -0.658462 3.54029 0
M  V30 18793 C 1801.32 0.579125 4.46056 0
M  V30 18794 C 1802.63 -1.4838 4.14332 0
M  V30 18795 H 1799.75 -0.109327 0.728846 0
M  V30 18796 H 1802.4 0.416694 1.85374 0
M  V30 18797 H 1800.55 -1.27319 3.67045 0
M  V30 18798 H 1802.22 1.21758 4.44941 0
M  V30 18799 H 1800.46 1.21179 4.16531 0
M  V30 18800 H 1801.13 0.287518 5.51251 0
M  V30 18801 H 1803.61 -0.964367 4.04771 0
M  V30 18802 H 1802.48 -1.70001 5.21911 0
M  V30 18803 H 1802.74 -2.47394 3.66399 0
M  V30 18804 N 1801.8 -1.57568 0.0317802 0
M  V30 18805 C 1802.73 -2.13412 -0.947499 0
M  V30 18806 C 1803.71 -1.05091 -1.33753 0
M  V30 18807 O 1804.9 -1.32936 -1.41568 0
M  V30 18808 C 1802.03 -2.66337 -2.22895 0
M  V30 18809 C 1800.98 -3.79469 -1.97958 0
M  V30 18810 C 1800.31 -4.18833 -3.3239 0
M  V30 18811 C 1801.61 -5.05432 -1.31664 0
M  V30 18812 H 1803.3 -2.95488 -0.482417 0
M  V30 18813 H 1800.85 -1.42142 -0.230603 0
M  V30 18814 H 1802.8 -3.04039 -2.91784 0
M  V30 18815 H 1801.53 -1.81426 -2.71574 0
M  V30 18816 H 1800.19 -3.42209 -1.31485 0
M  V30 18817 H 1799.83 -3.30899 -3.78833 0
M  V30 18818 H 1799.53 -4.95071 -3.16511 0
M  V30 18819 H 1801.06 -4.5912 -4.02544 0
M  V30 18820 H 1802.47 -5.40704 -1.90558 0
M  V30 18821 H 1800.87 -5.86686 -1.26173 0
M  V30 18822 H 1801.94 -4.84032 -0.28996 0
M  V30 18823 N 1803.28 0.241399 -1.5574 0
M  V30 18824 C 1804.19 1.32034 -1.93918 0
M  V30 18825 C 1805.21 1.52363 -0.840331 0
M  V30 18826 O 1806.38 1.65879 -1.1422 0
M  V30 18827 C 1803.45 2.6539 -2.2309 0
M  V30 18828 C 1802.51 2.53536 -3.46436 0
M  V30 18829 C 1801.74 3.80532 -3.74208 0
M  V30 18830 O 1801.97 4.82662 -3.03964 0
M  V30 18831 O 1800.9 3.78834 -4.67727 0
M  V30 18832 H 1804.73 1.02647 -2.85827 0
M  V30 18833 H 1802.31 0.442616 -1.42693 0
M  V30 18834 H 1804.19 3.44184 -2.43137 0
M  V30 18835 H 1802.87 2.94499 -1.34358 0
M  V30 18836 H 1801.78 1.73009 -3.3169 0
M  V30 18837 H 1803.11 2.29371 -4.35488 0
M  V30 18838 N 1804.76 1.49212 0.507292 0
M  V30 18839 C 1805.69 1.68326 1.61829 0
M  V30 18840 C 1806.67 0.531969 1.61568 0
M  V30 18841 O 1807.86 0.767104 1.78407 0
M  V30 18842 C 1804.99 1.74394 3.0034 0
M  V30 18843 C 1803.94 2.89251 3.15465 0
M  V30 18844 C 1803.27 2.80426 4.55264 0
M  V30 18845 C 1804.57 4.30269 2.96085 0
M  V30 18846 H 1806.26 2.6134 1.46087 0
M  V30 18847 H 1803.81 1.25765 0.701367 0
M  V30 18848 H 1805.76 1.86353 3.77956 0
M  V30 18849 H 1804.48 0.779748 3.17155 0
M  V30 18850 H 1803.14 2.76884 2.40272 0
M  V30 18851 H 1802.79 1.81928 4.68947 0
M  V30 18852 H 1802.49 3.57511 4.66326 0
M  V30 18853 H 1804.01 2.94384 5.34949 0
M  V30 18854 H 1805.43 4.4335 3.63475 0
M  V30 18855 H 1803.83 5.08527 3.18623 0
M  V30 18856 H 1804.9 4.45151 1.92272 0
M  V30 18857 N 1806.24 -0.757876 1.38181 0
M  V30 18858 C 1807.47 -1.54485 1.37179 0
M  V30 18859 C 1807.88 -1.89155 -0.0413714 0
M  V30 18860 O 1807.22 -1.52963 -1.01725 0
M  V30 18861 C 1807.28 -2.87464 2.15881 0
M  V30 18862 C 1806.95 -2.75355 3.64731 0
M  V30 18863 C 1807.94 -2.45442 4.58317 0
M  V30 18864 C 1805.63 -2.92942 4.08032 0
M  V30 18865 C 1807.62 -2.33263 5.93184 0
M  V30 18866 C 1805.31 -2.80384 5.42981 0
M  V30 18867 C 1806.31 -2.50586 6.3537 0
M  V30 18868 O 1805.99 -2.38079 7.67837 0
M  V30 18869 H 1805.73 -0.484775 0.471136 0
M  V30 18870 H 1808.28 -0.946061 1.82315 0
M  V30 18871 H 1806.51 -3.49516 1.65456 0
M  V30 18872 H 1808.2 -3.48949 2.0734 0
M  V30 18873 H 1808.97 -2.31527 4.26169 0
M  V30 18874 H 1804.84 -3.15133 3.3647 0
M  V30 18875 H 1808.39 -2.09927 6.65264 0
M  V30 18876 H 1804.29 -2.93871 5.74726 0
M  V30 18877 H 1805.05 -2.53324 7.78312 0
M  V30 18878 N 1807.72 -1.22979 -0.985586 0
M  V30 18879 C 1808.68 -1.00763 -2.05862 0
M  V30 18880 C 1809.68 0.02864 -1.60774 0
M  V30 18881 O 1810.87 -0.210593 -1.72922 0
M  V30 18882 C 1808 -0.523547 -3.36856 0
M  V30 18883 H 1809.19 -1.95982 -2.27004 0
M  V30 18884 H 1806.75 -1.0495 -1.15824 0
M  V30 18885 H 1807.48 0.432658 -3.21401 0
M  V30 18886 H 1807.27 -1.27127 -3.70919 0
M  V30 18887 H 1808.76 -0.388591 -4.15788 0
M  V30 18888 N 1809.19 1.18355 -1.04066 0
M  V30 18889 C 1810.14 2.24033 -0.625447 0
M  V30 18890 C 1811.14 1.65792 0.347754 0
M  V30 18891 O 1812.34 1.78711 0.215045 0
M  V30 18892 H 1808.72 0.729132 -0.184039 0
M  V30 18893 H 1810.69 2.56362 -1.52712 0
M  V30 18894 C 1809.44 3.477 -0.00432692 0
M  V30 18895 H 1808.76 3.92812 -0.744237 0
M  V30 18896 H 1810.2 4.23268 0.24898 0
M  V30 18897 C 1808.66 3.13022 1.24574 0
M  V30 18898 O 1809.19 3.26759 2.33649 0
M  V30 18899 N 1807.4 2.67347 1.13902 0
M  V30 18900 H 1806.94 2.5637 0.251417 0
M  V30 18901 H 1806.9 2.44517 1.97633 0
M  V30 18902 N 1810.67 0.820125 1.3458 0
M  V30 18903 C 1811.95 0.329573 1.92803 0
M  V30 18904 C 1812.33 -1.18271 1.74858 0
M  V30 18905 O 1811.68 -1.98851 1.12564 0
M  V30 18906 C 1811.89 0.755833 3.40717 0
M  V30 18907 C 1813.24 0.75306 4.17869 0
M  V30 18908 O 1814.26 0.698235 3.49289 0
M  V30 18909 O 1813.12 0.823708 5.40257 0
M  V30 18910 H 1810.21 0.0893898 0.822155 0
M  V30 18911 H 1812.76 0.904729 1.43571 0
M  V30 18912 H 1811.53 1.79757 3.47568 0
M  V30 18913 H 1811.15 0.15622 3.97293 0
M  V30 18914 N 1812.15 -1.46743 0.574835 0
M  V30 18915 C 1813.56 -1.86127 0.146143 0
M  V30 18916 C 1813.91 -1.47938 -1.28875 0
M  V30 18917 O 1813.04 -0.890593 -1.97224 0
M  V30 18918 C 1813.63 -3.37813 0.258447 0
M  V30 18919 C 1812.19 -3.76223 -0.115322 0
M  V30 18920 C 1811.34 -2.70775 0.597997 0
M  V30 18921 H 1814.29 -1.38009 0.783526 0
M  V30 18922 H 1814.31 -3.76953 -0.51831 0
M  V30 18923 H 1813.82 -3.65577 1.30288 0
M  V30 18924 H 1811.92 -3.54077 -1.16019 0
M  V30 18925 H 1812.04 -4.78418 0.255513 0
M  V30 18926 H 1810.4 -2.5467 0.039113 0
M  V30 18927 H 1811.18 -3.0138 1.64393 0
M  V30 18928 N 1813.63 -0.312197 -1.54477 0
M  V30 18929 C 1814.54 0.568096 -2.27618 0
M  V30 18930 C 1815.55 1.13892 -1.31547 0
M  V30 18931 O 1816.73 1.16131 -1.64546 0
M  V30 18932 C 1813.8 1.71843 -3.01116 0
M  V30 18933 C 1812.86 1.18056 -4.12748 0
M  V30 18934 C 1812.09 2.27607 -4.82733 0
M  V30 18935 O 1812.31 3.4773 -4.52151 0
M  V30 18936 O 1811.25 1.93667 -5.69892 0
M  V30 18937 H 1815.07 -0.0255513 -3.03689 0
M  V30 18938 H 1812.66 -0.0782698 -1.49195 0
M  V30 18939 H 1814.54 2.38839 -3.4718 0
M  V30 18940 H 1813.21 2.29847 -2.2793 0
M  V30 18941 H 1812.12 0.476007 -3.71059 0
M  V30 18942 H 1813.45 0.645802 -4.87945 0
M  V30 18943 N 1815.11 1.57549 -0.040136 0
M  V30 18944 C 1816.35 1.9225 0.636094 0
M  V30 18945 C 1816.68 0.917539 1.71498 0
M  V30 18946 O 1815.94 -0.0718721 1.95568 0
M  V30 18947 C 1816.24 3.3366 1.28084 0
M  V30 18948 C 1815.9 4.49682 0.331249 0
M  V30 18949 C 1814.56 4.81149 0.0699171 0
M  V30 18950 C 1816.92 5.20216 -0.320179 0
M  V30 18951 C 1814.24 5.80503 -0.850464 0
M  V30 18952 C 1816.6 6.20553 -1.22868 0
M  V30 18953 C 1815.26 6.50455 -1.4988 0
M  V30 18954 H 1814.53 0.703493 0.232763 0
M  V30 18955 H 1817.18 1.91216 -0.104258 0
M  V30 18956 H 1815.48 3.31008 2.0962 0
M  V30 18957 H 1817.18 3.57785 1.81082 0
M  V30 18958 H 1813.77 4.25119 0.545114 0
M  V30 18959 H 1817.95 4.96126 -0.131354 0
M  V30 18960 H 1813.21 6.02012 -1.06733 0
M  V30 18961 H 1817.38 6.74323 -1.73958 0
M  V30 18962 H 1815.01 7.27257 -2.21362 0
M  V30 18963 N 1816.58 -0.233136 1.55866 0
M  V30 18964 C 1817.55 -1.27227 1.90646 0
M  V30 18965 C 1818.55 -1.4039 0.784038 0
M  V30 18966 O 1819.74 -1.38854 1.05191 0
M  V30 18967 C 1816.87 -2.64791 2.14706 0
M  V30 18968 H 1818.06 -0.975986 2.83575 0
M  V30 18969 H 1815.62 -0.473045 1.4897 0
M  V30 18970 H 1816.35 -2.99537 1.24291 0
M  V30 18971 H 1816.14 -2.56615 2.96464 0
M  V30 18972 H 1817.63 -3.39797 2.4275 0
M  V30 18973 N 1818.06 -1.49479 -0.499372 0
M  V30 18974 C 1819.03 -1.6575 -1.58302 0
M  V30 18975 C 1820.03 -0.529236 -1.51841 0
M  V30 18976 O 1821.22 -0.795721 -1.54964 0
M  V30 18977 C 1818.35 -1.65639 -2.97954 0
M  V30 18978 H 1819.54 -2.62404 -1.45203 0
M  V30 18979 H 1817.09 -1.38535 -0.723725 0
M  V30 18980 H 1817.83 -0.705752 -3.16527 0
M  V30 18981 H 1817.61 -2.47578 -3.04051 0
M  V30 18982 H 1819.1 -1.80279 -3.76682 0
M  V30 18983 N 1819.54 0.750537 -1.38581 0
M  V30 18984 C 1820.79 1.50974 -1.34956 0
M  V30 18985 C 1821.12 1.94409 0.0594396 0
M  V30 18986 O 1820.37 1.65957 1.03715 0
M  V30 18987 C 1820.67 2.77356 -2.25407 0
M  V30 18988 C 1820.34 2.52868 -3.73321 0
M  V30 18989 C 1819 2.45899 -4.13627 0
M  V30 18990 C 1821.35 2.31554 -4.66939 0
M  V30 18991 C 1818.68 2.15635 -5.45636 0
M  V30 18992 C 1821.03 2.02811 -5.99208 0
M  V30 18993 C 1819.69 1.943 -6.38595 0
M  V30 18994 H 1818.96 0.552453 -0.493838 0
M  V30 18995 H 1821.61 0.862769 -1.70964 0
M  V30 18996 H 1819.92 3.46719 -1.82465 0
M  V30 18997 H 1821.61 3.35326 -2.19904 0
M  V30 18998 H 1818.2 2.59165 -3.41367 0
M  V30 18999 H 1822.39 2.35916 -4.36643 0
M  V30 19000 H 1817.64 2.07556 -5.75092 0
M  V30 19001 H 1821.82 1.85323 -6.71289 0
M  V30 19002 H 1819.44 1.70614 -7.40807 0
M  V30 19003 N 1821.02 1.235 0.979051 0
M  V30 19004 C 1822.27 1.06949 1.72307 0
M  V30 19005 C 1822.6 -0.392491 1.90192 0
M  V30 19006 O 1821.87 -1.29054 1.45518 0
M  V30 19007 C 1822.16 1.79705 3.12055 0
M  V30 19008 C 1822.01 3.33583 3.01732 0
M  V30 19009 C 1823.33 1.56062 4.11501 0
M  V30 19010 H 1820.45 0.389917 0.625407 0
M  V30 19011 H 1823.09 1.52022 1.1397 0
M  V30 19012 H 1821.24 1.4139 3.61858 0
M  V30 19013 H 1822.91 3.81428 2.59443 0
M  V30 19014 H 1821.15 3.62547 2.38206 0
M  V30 19015 H 1821.83 3.79681 4.00683 0
M  V30 19016 H 1824.3 1.8937 3.70511 0
M  V30 19017 H 1823.18 2.09442 5.07371 0
M  V30 19018 H 1823.44 0.496276 4.39306 0
M  V30 19019 N 1822.5 -1.17802 1.04693 0
M  V30 19020 C 1823.91 -1.39944 0.76733 0
M  V30 19021 C 1824.11 -1.91051 -0.640451 0
M  V30 19022 O 1823.17 -2.09889 -1.40366 0
M  V30 19023 C 1824.48 -2.39465 1.81871 0
M  V30 19024 C 1826.03 -2.5318 1.84035 0
M  V30 19025 C 1826.51 -3.55971 2.88182 0
M  V30 19026 N 1828 -3.63484 2.87113 0
M  V30 19027 C 1828.73 -4.42762 3.64348 0
M  V30 19028 N 1828.23 -5.25597 4.51353 0
M  V30 19029 N 1830.02 -4.37586 3.52809 0
M  V30 19030 H 1822.17 -0.829567 1.9553 0
M  V30 19031 H 1824.43 -0.427009 0.846385 0
M  V30 19032 H 1824.14 -2.08974 2.82883 0
M  V30 19033 H 1824.01 -3.38899 1.65612 0
M  V30 19034 H 1826.4 -2.82984 0.836908 0
M  V30 19035 H 1826.48 -1.53837 2.04371 0
M  V30 19036 H 1826.13 -3.26906 3.88709 0
M  V30 19037 H 1826.06 -4.55006 2.65099 0
M  V30 19038 H 1828.55 -3.04338 2.24024 0
M  V30 19039 H 1828.86 -5.83258 5.06981 0
M  V30 19040 H 1827.21 -5.24996 4.55417 0
M  V30 19041 H 1830.4 -3.71924 2.84236 0
M  V30 19042 H 1830.57 -4.99128 4.13249 0
M  V30 19043 N 1823.98 -0.827251 -1.34143 0
M  V30 19044 C 1824.89 -0.254285 -2.33218 0
M  V30 19045 C 1825.9 0.613602 -1.62822 0
M  V30 19046 O 1827.08 0.520477 -1.94558 0
M  V30 19047 C 1824.14 0.570817 -3.41969 0
M  V30 19048 C 1823.2 -0.319978 -4.28106 0
M  V30 19049 C 1822.44 0.465839 -5.31663 0
M  V30 19050 O 1822.66 1.6987 -5.44518 0
M  V30 19051 O 1821.59 -0.154094 -6.01703 0
M  V30 19052 H 1825.42 -1.07441 -2.8406 0
M  V30 19053 H 1823 -0.589493 -1.37278 0
M  V30 19054 H 1824.89 1.04009 -4.08363 0
M  V30 19055 H 1823.56 1.3682 -2.93363 0
M  V30 19056 H 1822.47 -0.836843 -3.6462 0
M  V30 19057 H 1823.8 -1.08183 -4.80164 0
M  V30 19058 N 1825.45 1.46436 -0.582609 0
M  V30 19059 C 1826.39 2.28423 0.188509 0
M  V30 19060 C 1827.4 1.38506 0.855565 0
M  V30 19061 O 1828.59 1.63107 0.725145 0
M  V30 19062 C 1825.69 3.13537 1.28639 0
M  V30 19063 C 1824.86 4.31578 0.711275 0
M  V30 19064 C 1823.92 4.9809 1.69685 0
M  V30 19065 O 1822.95 5.55686 1.23294 0
M  V30 19066 N 1824.15 4.95091 3.03093 0
M  V30 19067 H 1826.91 2.95244 -0.514896 0
M  V30 19068 H 1824.47 1.56347 -0.420374 0
M  V30 19069 H 1826.47 3.54897 1.94499 0
M  V30 19070 H 1825.04 2.48792 1.89266 0
M  V30 19071 H 1824.26 3.94002 -0.124784 0
M  V30 19072 H 1825.54 5.07874 0.306822 0
M  V30 19073 H 1824.94 4.49542 3.43407 0
M  V30 19074 H 1823.5 5.40393 3.64443 0
M  V30 19075 N 1826.93 0.320385 1.54309 0
M  V30 19076 C 1827.86 -0.580992 2.21714 0
M  V30 19077 C 1828.88 -1.08236 1.21609 0
M  V30 19078 O 1830.07 -0.996489 1.48096 0
M  V30 19079 C 1827.17 -1.80961 2.86542 0
M  V30 19080 C 1826.34 -1.44746 4.12756 0
M  V30 19081 C 1825.4 -2.53327 4.61207 0
M  V30 19082 O 1824.42 -2.17605 5.25963 0
M  V30 19083 N 1825.63 -3.84204 4.35164 0
M  V30 19084 H 1828.39 -0.00384608 2.997 0
M  V30 19085 H 1825.95 0.143444 1.61263 0
M  V30 19086 H 1827.94 -2.52985 3.1588 0
M  V30 19087 H 1826.51 -2.29468 2.12281 0
M  V30 19088 H 1825.73 -0.55899 3.90217 0
M  V30 19089 H 1827.02 -1.18116 4.949 0
M  V30 19090 H 1826.42 -4.16026 3.83326 0
M  V30 19091 H 1824.98 -4.52468 4.69165 0
M  V30 19092 N 1828.41 -1.57525 0.0484906 0
M  V30 19093 C 1829.66 -1.9287 -0.626817 0
M  V30 19094 C 1829.99 -0.926899 -1.70652 0
M  V30 19095 O 1829.26 0.0475129 -1.94442 0
M  V30 19096 C 1829.55 -3.38609 -1.22539 0
M  V30 19097 C 1829.4 -4.49537 -0.153923 0
M  V30 19098 C 1830.72 -3.84689 -2.13781 0
M  V30 19099 H 1827.84 -0.701367 -0.226391 0
M  V30 19100 H 1830.48 -1.89683 0.109708 0
M  V30 19101 H 1828.63 -3.41456 -1.85311 0
M  V30 19102 H 1830.3 -4.58818 0.477846 0
M  V30 19103 H 1828.54 -4.30692 0.518334 0
M  V30 19104 H 1829.22 -5.48589 -0.612708 0
M  V30 19105 H 1831.69 -3.83701 -1.60974 0
M  V30 19106 H 1830.57 -4.8732 -2.52607 0
M  V30 19107 H 1830.83 -3.21293 -3.03682 0
M  V30 19108 N 1829.89 0.224867 -1.55988 0
M  V30 19109 C 1830.8 1.2997 -1.95307 0
M  V30 19110 C 1831.81 1.51463 -0.856444 0
M  V30 19111 O 1832.99 1.64658 -1.15973 0
M  V30 19112 C 1830.05 2.63009 -2.25892 0
M  V30 19113 C 1829.12 2.49847 -3.49106 0
M  V30 19114 C 1828.35 3.76541 -3.78223 0
M  V30 19115 O 1828.57 4.7941 -3.09066 0
M  V30 19116 O 1827.51 3.73852 -4.71718 0
M  V30 19117 H 1831.33 0.996093 -2.869 0
M  V30 19118 H 1828.92 0.427457 -1.43154 0
M  V30 19119 H 1830.8 3.41586 -2.46774 0
M  V30 19120 H 1829.47 2.93057 -1.37474 0
M  V30 19121 H 1828.38 1.69482 -3.33507 0
M  V30 19122 H 1829.71 2.24739 -4.37896 0
M  V30 19123 N 1831.37 1.49742 0.491438 0
M  V30 19124 C 1832.28 1.69866 1.6181 0
M  V30 19125 C 1833.29 0.581386 1.64 0
M  V30 19126 O 1834.47 0.857263 1.82244 0
M  V30 19127 C 1831.53 1.76965 2.98135 0
M  V30 19128 C 1830.59 3.00597 3.06496 0
M  V30 19129 C 1829.83 3.07348 4.36317 0
M  V30 19130 O 1830.05 2.21432 5.25665 0
M  V30 19131 O 1828.98 3.99898 4.4985 0
M  V30 19132 H 1832.81 2.65332 1.47759 0
M  V30 19133 H 1830.39 1.33596 0.668761 0
M  V30 19134 H 1832.28 1.83932 3.7914 0
M  V30 19135 H 1830.95 0.846807 3.12427 0
M  V30 19136 H 1829.86 2.99142 2.24643 0
M  V30 19137 H 1831.19 3.92393 2.97133 0
M  V30 19138 N 1832.84 -0.743177 1.38977 0
M  V30 19139 C 1834.09 -1.50479 1.35956 0
M  V30 19140 C 1834.42 -1.94143 -0.0471116 0
M  V30 19141 O 1833.7 -1.66195 -1.01042 0
M  V30 19142 C 1833.98 -2.75016 2.32461 0
M  V30 19143 C 1833.83 -2.37423 3.82034 0
M  V30 19144 C 1835.15 -3.77084 2.26927 0
M  V30 19145 H 1832.27 -0.545869 0.495172 0
M  V30 19146 H 1834.91 -0.850403 1.69906 0
M  V30 19147 H 1833.06 -3.30852 2.03639 0
M  V30 19148 H 1834.74 -1.87282 4.21572 0
M  V30 19149 H 1832.98 -1.69752 3.99208 0
M  V30 19150 H 1833.65 -3.2657 4.45035 0
M  V30 19151 H 1836.13 -3.30812 2.52394 0
M  V30 19152 H 1835 -4.61901 2.96545 0
M  V30 19153 H 1835.26 -4.23419 1.27156 0
M  V30 19154 O 1834.36 -1.35154 -0.884061 0
M  V30 19155 H 1835.05 -1.1991 -1.52122 0
M  V30 END ATOM
M  V30 BEGIN BOND
M  V30 END BOND
M  V30 END CTAB
M  END
$$$$
