drugbank_target|Q9F0I5 Cycloinulo-oligosaccharide fructanotransferase (DB00638)
 OpenBabel12092120093D

  0  0  0     0  0            999 V3000
M  V30 BEGIN CTAB
M  V30 COUNTS 20741 21025 0 0 0
M  V30 BEGIN ATOM
M  V30 1 H -0.908 1.98254 -0.117106 0
M  V30 2 N 0 1.576 0 0
M  V30 3 C 0.933 2.03868 1.02534 0
M  V30 4 C 1.911 0.928543 1.3348 0
M  V30 5 O 3.095 1.19667 1.45644 0
M  V30 6 C 0.222 2.43627 2.35294 0
M  V30 7 C -0.732 3.65373 2.2001 0
M  V30 8 S 0.101 5.13292 1.52614 0
M  V30 9 C 1.257 5.56322 2.86805 0
M  V30 10 H 1.49 2.90518 0.631377 0
M  V30 11 H -0.977 1.52953 0.210867 0
M  V30 12 H 0.981 2.67203 3.11629 0
M  V30 13 H -0.358 1.57376 2.7183 0
M  V30 14 H -1.165 3.90944 3.18086 0
M  V30 15 H -1.563 3.418 1.51819 0
M  V30 16 H 0.729 5.58782 3.83104 0
M  V30 17 H 1.672 6.56266 2.65933 0
M  V30 18 H 2.08 4.83886 2.90714 0
M  V30 19 N 1.4781 -0.272755 1.55222 0
M  V30 20 C 2.8941 -0.619959 1.47067 0
M  V30 21 C 3.0941 -1.895 0.684978 0
M  V30 22 O 2.1501 -2.51675 0.203931 0
M  V30 23 C 3.4631 -0.746693 2.91282 0
M  V30 24 C 5.0111 -0.840731 3.01497 0
M  V30 25 C 5.4861 -0.99924 4.46967 0
M  V30 26 N 6.9771 -1.06476 4.50796 0
M  V30 27 C 7.7121 -1.20621 5.6057 0
M  V30 28 N 7.2081 -1.31483 6.80209 0
M  V30 29 N 9.0011 -1.23733 5.48312 0
M  V30 30 H 1.1521 0.564606 2.04758 0
M  V30 31 H 3.4151 0.191177 0.928523 0
M  V30 32 H 3.1211 0.119753 3.51496 0
M  V30 33 H 2.9951 -1.6269 3.40311 0
M  V30 34 H 5.3821 -1.69764 2.41379 0
M  V30 35 H 5.4631 0.0640874 2.5572 0
M  V30 36 H 5.1071 -0.146984 5.07687 0
M  V30 37 H 5.0371 -1.91871 4.90401 0
M  V30 38 H 7.5281 -0.993196 3.64615 0
M  V30 39 H 7.8411 -1.42111 7.59621 0
M  V30 40 H 6.1861 -1.28487 6.8302 0
M  V30 41 H 9.3771 -1.14877 4.53785 0
M  V30 42 H 9.5501 -1.34412 6.33906 0
M  V30 43 N 2.9562 -1.48159 -0.537278 0
M  V30 44 C 3.9032 -1.62138 -1.64256 0
M  V30 45 C 4.8732 -0.463668 -1.59497 0
M  V30 46 O 6.0582 -0.686241 -1.78032 0
M  V30 47 C 3.1982 -1.66028 -3.02537 0
M  V30 48 C 2.3112 -2.92855 -3.17585 0
M  V30 49 C 1.4462 -2.87952 -4.46382 0
M  V30 50 C 0.4852 -4.09516 -4.54932 0
M  V30 51 N -0.3778 -4.02733 -5.75109 0
M  V30 52 H 4.4622 -2.56529 -1.51647 0
M  V30 53 H 1.9992 -1.27224 -0.738414 0
M  V30 54 H 3.9572 -1.66265 -3.82638 0
M  V30 55 H 2.5872 -0.751331 -3.13934 0
M  V30 56 H 1.6392 -3.02395 -2.30784 0
M  V30 57 H 2.9512 -3.82822 -3.19764 0
M  V30 58 H 2.1052 -2.8655 -5.34765 0
M  V30 59 H 0.8442 -1.95702 -4.46712 0
M  V30 60 H -0.1508 -4.11201 -3.64957 0
M  V30 61 H 1.0742 -5.02917 -4.56346 0
M  V30 62 H -0.9798 -3.13299 -5.76351 0
M  V30 63 H -1.0628 -4.86397 -5.78752 0
M  V30 64 H 0.2052 -4.05379 -6.65799 0
M  V30 65 N 4.4343 0.785586 -1.36625 0
M  V30 66 C 5.6803 1.54591 -1.31261 0
M  V30 67 C 6.0133 1.93906 0.106823 0
M  V30 68 O 5.2883 1.63007 1.06108 0
M  V30 69 C 5.5713 2.82038 -2.23889 0
M  V30 70 C 5.4243 2.49066 -3.74548 0
M  V30 71 C 6.7433 3.83887 -2.15217 0
M  V30 72 H 3.8623 0.560846 -0.478143 0
M  V30 73 H 6.5043 0.902278 -1.67209 0
M  V30 74 H 4.6543 3.36961 -1.93363 0
M  V30 75 H 6.3263 2.00164 -4.15611 0
M  V30 76 H 4.5693 1.81954 -3.93796 0
M  V30 77 H 5.2403 3.40109 -4.34776 0
M  V30 78 H 7.7163 3.38421 -2.42096 0
M  V30 79 H 6.5923 4.70806 -2.82193 0
M  V30 80 H 6.8533 4.27131 -1.14068 0
M  V30 81 N 5.9124 1.20967 1.01018 0
M  V30 82 C 6.8594 0.964281 2.09691 0
M  V30 83 C 7.8294 -0.107853 1.65749 0
M  V30 84 O 9.0144 0.0381987 1.90762 0
M  V30 85 C 6.1544 0.52943 3.41015 0
M  V30 86 C 5.2674 1.67043 3.98398 0
M  V30 87 C 4.4024 1.18525 5.17808 0
M  V30 88 C 3.4414 2.29892 5.67288 0
M  V30 89 N 2.5784 1.82546 6.77954 0
M  V30 90 H 7.4184 1.89463 2.30017 0
M  V30 91 H 4.9554 0.944289 1.1279 0
M  V30 92 H 6.9134 0.258588 4.16398 0
M  V30 93 H 5.5434 -0.363919 3.20742 0
M  V30 94 H 4.5954 2.05603 3.20049 0
M  V30 95 H 5.9074 2.50877 4.31117 0
M  V30 96 H 5.0614 0.870762 6.00419 0
M  V30 97 H 3.8004 0.316887 4.86669 0
M  V30 98 H 2.8054 2.6215 4.83278 0
M  V30 99 H 4.0304 3.17216 6.00459 0
M  V30 100 H 1.9764 0.980454 6.48632 0
M  V30 101 H 1.8934 2.59956 7.09901 0
M  V30 102 H 3.1614 1.54115 7.64113 0
M  V30 103 N 7.3905 -1.2043 1.01659 0
M  V30 104 C 8.8065 -1.41852 0.731442 0
M  V30 105 C 9.0065 -1.89358 -0.688898 0
M  V30 106 O 8.0625 -2.06247 -1.45666 0
M  V30 107 C 9.3755 -2.44019 1.75714 0
M  V30 108 C 10.9235 -2.57785 1.77527 0
M  V30 109 C 11.3985 -3.63194 2.79023 0
M  V30 110 N 12.8895 -3.70678 2.77763 0
M  V30 111 C 13.6245 -4.51897 3.52954 0
M  V30 112 N 13.1205 -5.36921 4.37821 0
M  V30 113 N 14.9135 -4.4643 3.41551 0
M  V30 114 H 7.0645 -0.879093 1.93354 0
M  V30 115 H 9.3275 -0.448425 0.835236 0
M  V30 116 H 9.0335 -2.1611 2.77469 0
M  V30 117 H 8.9075 -3.43007 1.56927 0
M  V30 118 H 11.2945 -2.85023 0.764569 0
M  V30 119 H 11.3755 -1.58992 2.00387 0
M  V30 120 H 11.0195 -3.36699 3.80258 0
M  V30 121 H 10.9495 -4.61609 2.53425 0
M  V30 122 H 13.4405 -3.09944 2.16201 0
M  V30 123 H 13.7535 -5.95981 4.91962 0
M  V30 124 H 12.0985 -5.36424 4.41899 0
M  V30 125 H 15.2895 -3.79042 2.74672 0
M  V30 126 H 15.4625 -5.09491 4.00404 0
M  V30 127 N 8.8686 -0.792821 -1.36206 0
M  V30 128 C 10.1166 -0.366062 -1.98757 0
M  V30 129 C 10.4376 1.0668 -1.63231 0
M  V30 130 O 9.7076 1.73587 -0.907978 0
M  V30 131 H 8.2876 -0.132364 -0.735179 0
M  V30 132 H 10.9496 -1.01562 -1.66347 0
M  V30 133 H 10.0456 -0.460638 -3.08682 0
M  V30 134 N 10.3467 1.47872 -0.545128 0
M  V30 135 C 11.2937 2.29849 0.2093 0
M  V30 136 C 12.2637 1.38313 0.919707 0
M  V30 137 O 13.4487 1.67277 0.917772 0
M  V30 138 C 10.5887 3.22019 1.24088 0
M  V30 139 C 9.7017 4.2864 0.537778 0
M  V30 140 C 8.8367 5.07973 1.5536 0
M  V30 141 C 7.8757 6.06381 0.8348 0
M  V30 142 N 7.0127 6.78717 1.79688 0
M  V30 143 H 11.8527 2.93845 -0.49591 0
M  V30 144 H 9.3897 1.44848 -0.256389 0
M  V30 145 H 11.3477 3.73868 1.85144 0
M  V30 146 H 9.9777 2.59914 1.91428 0
M  V30 147 H 9.0297 3.7994 -0.187046 0
M  V30 148 H 10.3417 4.98793 -0.0258907 0
M  V30 149 H 9.4957 5.63912 2.23803 0
M  V30 150 H 8.2347 4.37693 2.15118 0
M  V30 151 H 7.2397 5.49631 0.136388 0
M  V30 152 H 8.4647 6.78665 0.24313 0
M  V30 153 H 6.4107 6.11177 2.38326 0
M  V30 154 H 6.3277 7.44998 1.28505 0
M  V30 155 H 7.5957 7.39237 2.47282 0
M  V30 156 N 11.8248 0.280983 1.55075 0
M  V30 157 C 13.0648 -0.335234 2.01632 0
M  V30 158 C 13.4288 -1.5261 1.16508 0
M  V30 159 O 14.6298 -2.21235 1.52672 0
M  V30 160 C 12.9008 -0.702172 3.50434 0
M  V30 161 S 14.4598 -1.30409 4.18974 0
M  V30 162 H 11.2778 -0.103967 0.703358 0
M  V30 163 H 13.8798 0.404187 1.91276 0
M  V30 164 H 12.5838 0.17333 4.10034 0
M  V30 165 H 12.1148 -1.4729 3.64786 0
M  V30 166 H 14.1298 -2.59253 4.23087 0
M  V30 167 N 13.3029 -1.57598 0.00835791 0
M  V30 168 C 14.5489 -1.92046 -0.670055 0
M  V30 169 C 14.9039 -0.88351 -1.70915 0
M  V30 170 O 14.1969 0.103223 -1.91322 0
M  V30 171 C 14.3909 -3.3101 -1.34787 0
M  V30 172 C 14.2199 -4.48126 -0.375945 0
M  V30 173 C 12.9899 -5.05297 0.0166914 0
M  V30 174 C 15.1879 -5.1303 0.361272 0
M  V30 175 N 13.1699 -6.05931 0.985952 0
M  V30 176 C 14.5409 -6.08571 1.18495 0
M  V30 177 C 16.5959 -4.9609 0.42421 0
M  V30 178 C 15.2989 -6.88996 2.06584 0
M  V30 179 C 17.3249 -5.77107 1.29236 0
M  V30 180 C 16.6869 -6.72248 2.10386 0
M  V30 181 H 12.7859 -0.75096 -0.218136 0
M  V30 182 H 15.3699 -1.94572 0.0706669 0
M  V30 183 H 13.5409 -3.29342 -2.05884 0
M  V30 184 H 15.2729 -3.52864 -1.98164 0
M  V30 185 H 12.0279 -4.72279 -0.353435 0
M  V30 186 H 12.4519 -6.60932 1.4662 0
M  V30 187 H 17.0939 -4.22378 -0.188915 0
M  V30 188 H 14.8119 -7.62028 2.6896 0
M  V30 189 H 18.3979 -5.66038 1.34508 0
M  V30 190 H 17.2779 -7.33846 2.76476 0
M  V30 191 N 14.781 0.264519 -1.55364 0
M  V30 192 C 16.03 0.992812 -1.75574 0
M  V30 193 C 16.343 1.87142 -0.568979 0
M  V30 194 O 17.549 2.63513 -0.653682 0
M  V30 195 C 16.005 1.81519 -3.10771 0
M  V30 196 C 15.613 0.984839 -4.37041 0
M  V30 197 C 17.357 2.53727 -3.40327 0
M  V30 198 C 15.264 1.80209 -5.63275 0
M  V30 199 H 14.194 0.374412 -0.65447 0
M  V30 200 H 16.845 0.248138 -1.81815 0
M  V30 201 H 15.227 2.60115 -2.98591 0
M  V30 202 H 16.401 0.242455 -4.60162 0
M  V30 203 H 14.716 0.37691 -4.14691 0
M  V30 204 H 17.313 3.15292 -4.3185 0
M  V30 205 H 17.656 3.24447 -2.60845 0
M  V30 206 H 18.189 1.82156 -3.53644 0
M  V30 207 H 14.928 1.13896 -6.45529 0
M  V30 208 H 14.448 2.52022 -5.44284 0
M  V30 209 H 16.127 2.37364 -6.01887 0
M  V30 210 N 16.2591 1.48442 0.529413 0
M  V30 211 C 17.4841 1.60406 1.31471 0
M  V30 212 C 17.9091 0.264738 1.86228 0
M  V30 213 O 17.2671 -0.763668 1.64432 0
M  V30 214 C 17.3151 2.65419 2.44101 0
M  V30 215 O 16.4191 2.22618 3.47153 0
M  V30 216 H 15.7601 0.537863 0.389357 0
M  V30 217 H 18.2901 1.94432 0.636965 0
M  V30 218 H 18.3001 2.86709 2.90279 0
M  V30 219 H 16.9751 3.62652 2.03608 0
M  V30 220 H 15.5521 2.11543 3.0709 0
M  V30 221 N 17.7372 -0.778329 1.37039 0
M  V30 222 C 18.9852 -1.53361 1.31623 0
M  V30 223 C 19.3062 -1.94739 -0.100831 0
M  V30 224 O 18.5762 -1.65797 -1.04347 0
M  V30 225 H 17.1562 -0.568794 0.484234 0
M  V30 226 H 19.8182 -0.926742 1.71457 0
M  V30 227 H 18.9142 -2.43606 1.95096 0
M  V30 228 N 19.2153 -1.21501 -1.00376 0
M  V30 229 C 20.1483 -0.918669 -2.08892 0
M  V30 230 C 21.1263 0.134277 -1.62045 0
M  V30 231 O 22.3103 0.00504255 -1.88499 0
M  V30 232 C 19.4373 -0.379645 -3.36566 0
M  V30 233 C 18.4833 -1.41559 -4.02323 0
M  V30 234 S 19.3163 -2.98521 -4.44574 0
M  V30 235 C 20.4723 -2.46228 -5.75433 0
M  V30 236 H 20.7053 -1.83761 -2.33707 0
M  V30 237 H 18.2383 -1.04489 -1.13673 0
M  V30 238 H 20.1963 -0.0752195 -4.10431 0
M  V30 239 H 18.8573 0.518008 -3.09799 0
M  V30 240 H 18.0503 -0.988076 -4.9422 0
M  V30 241 H 17.6523 -1.66815 -3.34737 0
M  V30 242 H 19.9443 -1.86791 -6.51241 0
M  V30 243 H 20.8873 -3.36572 -6.22997 0
M  V30 244 H 21.2953 -1.87894 -5.32312 0
M  V30 245 N 20.6934 1.19889 -1.02296 0
M  V30 246 C 21.9394 1.89701 -0.717033 0
M  V30 247 C 22.2724 1.7905 0.751989 0
M  V30 248 O 21.5474 1.17891 1.547 0
M  V30 249 C 21.8304 3.40858 -1.16136 0
M  V30 250 C 21.6834 3.60411 -2.69117 0
M  V30 251 C 23.0024 4.33876 -0.737549 0
M  V30 252 H 20.1214 0.688874 -0.261957 0
M  V30 253 H 22.7634 1.41154 -1.27183 0
M  V30 254 H 20.9134 3.82335 -0.689342 0
M  V30 255 H 22.5854 3.28145 -3.2422 0
M  V30 256 H 20.8284 3.03665 -3.0979 0
M  V30 257 H 21.4994 4.66396 -2.95261 0
M  V30 258 H 23.9754 4.00081 -1.14344 0
M  V30 259 H 22.8514 5.38242 -1.0764 0
M  V30 260 H 23.1124 4.40628 0.360436 0
M  V30 261 N 22.1715 0.800033 1.35784 0
M  V30 262 C 23.4205 0.37387 1.98205 0
M  V30 263 C 23.7335 -1.06302 1.64193 0
M  V30 264 O 24.9395 -1.59198 2.19928 0
M  V30 265 C 23.3955 0.617532 3.54562 0
M  V30 266 C 23.0035 2.06654 3.9749 0
M  V30 267 C 24.7475 0.256401 4.23725 0
M  V30 268 C 22.6545 2.2563 5.46667 0
M  V30 269 H 21.5845 0.136055 0.741623 0
M  V30 270 H 24.2355 0.983166 1.54939 0
M  V30 271 H 22.6175 -0.0616248 3.95952 0
M  V30 272 H 23.7915 2.78296 3.67271 0
M  V30 273 H 22.1065 2.38691 3.41197 0
M  V30 274 H 24.7035 0.376318 5.33374 0
M  V30 275 H 25.0465 -0.796692 4.08606 0
M  V30 276 H 25.5795 0.889214 3.87734 0
M  V30 277 H 22.3185 3.2936 5.66747 0
M  V30 278 H 21.8385 1.58504 5.78478 0
M  V30 279 H 23.5175 2.06861 6.1304 0
M  V30 280 N 23.6496 -1.47581 0.552962 0
M  V30 281 C 24.8956 -2.03369 0.0355807 0
M  V30 282 C 25.2506 -1.42016 -1.29805 0
M  V30 283 O 24.5436 -0.564917 -1.83083 0
M  V30 284 C 24.7376 -3.57199 -0.119728 0
M  V30 285 C 24.5666 -4.33468 1.1973 0
M  V30 286 C 23.3366 -4.7353 1.76345 0
M  V30 287 C 25.5346 -4.68866 2.11351 0
M  V30 288 N 23.5166 -5.34426 3.02097 0
M  V30 289 C 24.8876 -5.3002 3.21681 0
M  V30 290 C 26.9426 -4.50795 2.11397 0
M  V30 291 C 25.6456 -5.75011 4.32151 0
M  V30 292 C 27.6716 -4.96782 3.20876 0
M  V30 293 C 27.0336 -5.57981 4.29926 0
M  V30 294 H 23.1326 -0.780058 0.0550806 0
M  V30 295 H 25.7166 -1.80117 0.739315 0
M  V30 296 H 23.8876 -3.80227 -0.792579 0
M  V30 297 H 25.6196 -3.99627 -0.638792 0
M  V30 298 H 22.3746 -4.55352 1.30196 0
M  V30 299 H 22.7986 -5.69421 3.66182 0
M  V30 300 H 27.4406 -4.0284 1.28372 0
M  V30 301 H 25.1586 -6.21959 5.15938 0
M  V30 302 H 28.7446 -4.84573 3.21994 0
M  V30 303 H 27.6246 -5.92918 5.13243 0
M  V30 304 N 25.1277 -0.289203 -1.54924 0
M  V30 305 C 26.0907 0.579144 -2.21762 0
M  V30 306 C 27.0907 1.07047 -1.1999 0
M  V30 307 O 28.2807 0.968384 -1.44803 0
M  V30 308 C 25.4127 1.80055 -2.8947 0
M  V30 309 H 26.6057 -0.00464908 -2.999 0
M  V30 310 H 24.1587 -0.0399306 -1.56249 0
M  V30 311 H 24.8937 2.42449 -2.15381 0
M  V30 312 H 24.6787 1.45602 -3.64064 0
M  V30 313 H 26.1687 2.41773 -3.40493 0
M  V30 314 N 26.6058 1.57591 -0.0167156 0
M  V30 315 C 27.5388 2.04944 1.00366 0
M  V30 316 C 28.5168 0.942648 1.32487 0
M  V30 317 O 29.7008 1.21205 1.44367 0
M  V30 318 C 26.8278 2.46109 2.32697 0
M  V30 319 C 25.8738 3.67686 2.16123 0
M  V30 320 S 26.7068 5.14882 1.47161 0
M  V30 321 C 27.8628 5.59332 2.80888 0
M  V30 322 H 28.0958 2.91172 0.600528 0
M  V30 323 H 25.6288 1.53168 0.194632 0
M  V30 324 H 27.5868 2.70493 3.08778 0
M  V30 325 H 26.2478 1.6025 2.70146 0
M  V30 326 H 25.4408 3.94296 3.13922 0
M  V30 327 H 25.0428 3.43391 1.48185 0
M  V30 328 H 27.3348 5.62814 3.77156 0
M  V30 329 H 28.2778 6.5905 2.58958 0
M  V30 330 H 28.6858 4.86942 2.85565 0
M  V30 331 N 28.0839 -0.256276 1.55502 0
M  V30 332 C 29.3299 -0.987079 1.77157 0
M  V30 333 C 29.6629 -1.85327 0.580315 0
M  V30 334 O 28.9379 -1.89874 -0.421686 0
M  V30 335 C 29.2209 -1.85553 3.08613 0
M  V30 336 C 29.0739 -1.01816 4.38125 0
M  V30 337 C 30.3929 -2.8397 3.36228 0
M  V30 338 H 27.5119 -0.357428 0.644526 0
M  V30 339 H 30.1539 -0.258239 1.88237 0
M  V30 340 H 28.3039 -2.47695 2.99298 0
M  V30 341 H 29.9759 -0.416159 4.59419 0
M  V30 342 H 28.2189 -0.322178 4.32602 0
M  V30 343 H 28.8899 -1.65939 5.26468 0
M  V30 344 H 31.3659 -2.31964 3.45445 0
M  V30 345 H 30.2419 -3.41864 4.29442 0
M  V30 346 H 30.5029 -3.59955 2.56681 0
M  V30 347 N 29.562 -1.4872 -0.521534 0
M  V30 348 C 30.492 -1.66771 -1.63431 0
M  V30 349 C 31.473 -0.516499 -1.62069 0
M  V30 350 O 32.658 -0.750013 -1.79132 0
M  V30 351 C 29.788 -1.71515 -3.01993 0
M  V30 352 C 28.742 -2.86222 -3.18216 0
M  V30 353 C 28.068 -2.76061 -4.57924 0
M  V30 354 C 29.368 -4.27419 -3.00184 0
M  V30 355 H 31.062 -2.59932 -1.48579 0
M  V30 356 H 28.608 -1.25089 -0.713358 0
M  V30 357 H 30.561 -1.82731 -3.7972 0
M  V30 358 H 29.285 -0.749393 -3.17886 0
M  V30 359 H 27.944 -2.74575 -2.42908 0
M  V30 360 H 27.592 -1.77437 -4.70665 0
M  V30 361 H 27.292 -3.53037 -4.69722 0
M  V30 362 H 28.816 -2.89256 -5.37739 0
M  V30 363 H 30.23 -4.39855 -3.67697 0
M  V30 364 H 28.627 -5.05458 -3.2347 0
M  V30 365 H 29.697 -4.43293 -1.96518 0
M  V30 366 N 31.0401 0.771051 -1.3745 0
M  V30 367 C 31.9721 1.89352 -1.29146 0
M  V30 368 C 32.9851 1.61477 -0.207124 0
M  V30 369 O 34.1741 1.72382 -0.463324 0
M  V30 370 C 31.2741 3.24596 -0.974195 0
M  V30 371 C 30.4471 3.80111 -2.16413 0
M  V30 372 C 29.5061 4.93832 -1.81703 0
M  V30 373 O 28.5321 5.09382 -2.54006 0
M  V30 374 N 29.7341 5.75483 -0.761573 0
M  V30 375 H 32.4991 1.96991 -2.25864 0
M  V30 376 H 30.0601 0.950191 -1.31084 0
M  V30 377 H 32.0521 3.98193 -0.722828 0
M  V30 378 H 30.6221 3.12454 -0.0955527 0
M  V30 379 H 29.8421 2.98284 -2.57721 0
M  V30 380 H 31.1301 4.13932 -2.95867 0
M  V30 381 H 30.5281 5.65469 -0.161609 0
M  V30 382 H 29.0851 6.49302 -0.570064 0
M  V30 383 N 32.5182 1.22032 0.997298 0
M  V30 384 C 33.4482 1.01065 2.10495 0
M  V30 385 C 34.4292 -0.0669542 1.69968 0
M  V30 386 O 35.6142 0.0943987 1.9397 0
M  V30 387 C 32.7442 0.582874 3.42374 0
M  V30 388 C 31.6982 1.60592 3.96729 0
M  V30 389 C 31.0242 1.03412 5.24605 0
M  V30 390 C 32.3242 2.99478 4.27914 0
M  V30 391 H 34.0182 1.93708 2.28292 0
M  V30 392 H 31.5642 0.932761 1.09707 0
M  V30 393 H 33.5172 0.423332 4.19268 0
M  V30 394 H 32.2412 -0.379213 3.24391 0
M  V30 395 H 30.9002 1.75316 3.21963 0
M  V30 396 H 30.5482 0.063518 5.0296 0
M  V30 397 H 30.2482 1.71754 5.61938 0
M  V30 398 H 31.7722 0.886066 6.04137 0
M  V30 399 H 33.1862 2.88153 4.95622 0
M  V30 400 H 31.5832 3.64903 4.76409 0
M  V30 401 H 32.6532 3.49742 3.3587 0
M  V30 402 N 33.9963 -1.19345 1.0293 0
M  V30 403 C 35.2423 -1.89318 0.727083 0
M  V30 404 C 35.5753 -1.79446 -0.742483 0
M  V30 405 O 34.8503 -1.1871 -1.54072 0
M  V30 406 C 35.1333 -3.40238 1.17942 0
M  V30 407 C 34.9863 -3.58979 2.71024 0
M  V30 408 C 36.3053 -4.33479 0.760548 0
M  V30 409 H 33.4243 -0.687475 0.265606 0
M  V30 410 H 36.0663 -1.40477 1.2793 0
M  V30 411 H 34.2163 -3.81964 0.709608 0
M  V30 412 H 35.8883 -3.26421 3.25955 0
M  V30 413 H 34.1313 -3.02018 3.11396 0
M  V30 414 H 34.8023 -4.64823 2.9773 0
M  V30 415 H 37.2783 -3.99469 1.16464 0
M  V30 416 H 36.1543 -5.37664 1.10493 0
M  V30 417 H 36.4153 -4.40813 -0.337063 0
M  V30 418 N 35.4744 -0.807222 -1.35358 0
M  V30 419 C 36.7204 -0.388463 -1.99045 0
M  V30 420 C 37.0534 1.04184 -1.63888 0
M  V30 421 O 36.3284 1.72292 -0.902535 0
M  V30 422 C 36.6114 -0.572783 -3.55515 0
M  V30 423 C 36.4644 -2.04807 -4.00468 0
M  V30 424 C 37.7834 0.00114064 -4.401 0
M  V30 425 H 34.9024 -0.142619 -0.723069 0
M  V30 426 H 37.5444 -1.01687 -1.60498 0
M  V30 427 H 35.6944 -0.0378425 -3.88482 0
M  V30 428 H 37.3664 -2.64544 -3.77908 0
M  V30 429 H 35.6094 -2.54427 -3.51353 0
M  V30 430 H 36.2804 -2.12792 -5.09337 0
M  V30 431 H 38.7564 -0.455716 -4.13597 0
M  V30 432 H 37.6324 -0.157737 -5.48673 0
M  V30 433 H 37.8934 1.09488 -4.28328 0
M  V30 434 N 36.9525 1.47285 -0.560781 0
M  V30 435 C 38.3635 1.86258 -0.128343 0
M  V30 436 C 38.7145 1.46699 1.30284 0
M  V30 437 O 37.8395 0.871698 1.98067 0
M  V30 438 C 38.4345 3.38044 -0.22614 0
M  V30 439 C 36.9935 3.76096 0.151283 0
M  V30 440 C 36.1405 2.71335 -0.572084 0
M  V30 441 H 39.0915 1.38752 -0.770297 0
M  V30 442 H 39.1125 3.76441 0.554322 0
M  V30 443 H 38.6245 3.66806 -1.26788 0
M  V30 444 H 36.7255 3.52951 1.19399 0
M  V30 445 H 36.8385 4.78641 -0.209765 0
M  V30 446 H 35.2025 2.54696 -0.0147653 0
M  V30 447 H 35.9855 3.02938 -1.61504 0
M  V30 448 N 38.4306 0.297415 1.54768 0
M  V30 449 C 39.6786 -0.312295 1.99673 0
M  V30 450 C 39.9996 -1.54686 1.18732 0
M  V30 451 O 39.2696 -1.93854 0.282382 0
M  V30 452 H 37.8496 -0.118381 0.73756 0
M  V30 453 H 40.5116 0.407915 1.90583 0
M  V30 454 H 39.6076 -0.586813 3.06534 0
M  V30 455 N 39.9087 -1.5758 0.0250728 0
M  V30 456 C 41.1577 -1.90811 -0.653767 0
M  V30 457 C 41.4707 -0.90273 -1.73523 0
M  V30 458 O 42.6767 -1.12614 -2.47043 0
M  V30 459 C 41.1327 -3.38804 -1.21409 0
M  V30 460 C 40.7407 -4.47692 -0.166126 0
M  V30 461 C 42.4847 -3.81108 -1.86967 0
M  V30 462 C 40.3917 -5.86779 -0.737856 0
M  V30 463 H 39.3217 -0.712063 -0.247956 0
M  V30 464 H 41.9727 -1.83281 0.0897137 0
M  V30 465 H 40.3547 -3.41252 -2.00905 0
M  V30 466 H 41.5287 -4.56797 0.606079 0
M  V30 467 H 39.8437 -4.14565 0.390466 0
M  V30 468 H 42.4407 -4.82375 -2.30692 0
M  V30 469 H 42.7837 -3.15953 -2.71071 0
M  V30 470 H 43.3167 -3.81065 -1.14167 0
M  V30 471 H 40.0557 -6.55468 0.0649577 0
M  V30 472 H 39.5757 -5.81288 -1.47864 0
M  V30 473 H 41.2547 -6.35223 -1.22884 0
M  V30 474 N 41.3868 0.248026 -1.55636 0
M  V30 475 C 42.6118 0.998028 -1.81808 0
M  V30 476 C 43.0368 1.78207 -0.601979 0
M  V30 477 O 42.3948 1.75653 0.448961 0
M  V30 478 C 42.4428 1.9125 -3.05705 0
M  V30 479 O 41.5468 3.00406 -2.82542 0
M  V30 480 H 40.8878 0.284045 -0.600179 0
M  V30 481 H 43.4178 0.269357 -2.02819 0
M  V30 482 H 43.4278 2.32737 -3.35108 0
M  V30 483 H 42.1028 1.33602 -3.93857 0
M  V30 484 H 40.6798 2.63056 -2.64303 0
M  V30 485 N 42.8649 1.48995 0.513639 0
M  V30 486 C 44.1109 1.58076 1.27042 0
M  V30 487 C 44.4439 0.261026 1.92438 0
M  V30 488 O 43.7189 -0.734393 1.80103 0
M  V30 489 C 44.0019 2.73091 2.34719 0
M  V30 490 C 43.8549 4.14821 1.73907 0
M  V30 491 C 45.1739 2.83796 3.36375 0
M  V30 492 H 42.2929 0.575391 0.460536 0
M  V30 493 H 44.9349 1.81232 0.570516 0
M  V30 494 H 43.0849 2.53479 2.94416 0
M  V30 495 H 44.7569 4.45917 1.18135 0
M  V30 496 H 42.9999 4.21058 1.0437 0
M  V30 497 H 43.6709 4.91147 2.51949 0
M  V30 498 H 46.1469 3.01611 2.86653 0
M  V30 499 H 45.0229 3.65971 4.09093 0
M  V30 500 H 45.2839 1.92624 3.9793 0
M  V30 501 N 44.343 -0.763751 1.37857 0
M  V30 502 C 45.306 -1.85889 1.34081 0
M  V30 503 C 46.306 -1.58949 0.243277 0
M  V30 504 O 47.496 -1.66882 0.499589 0
M  V30 505 C 44.628 -3.23176 1.08489 0
M  V30 506 H 45.821 -1.90648 2.31502 0
M  V30 507 H 43.374 -0.964367 1.23003 0
M  V30 508 H 44.109 -3.24091 0.116318 0
M  V30 509 H 43.894 -3.44124 1.8794 0
M  V30 510 H 45.384 -4.03254 1.08517 0
M  V30 511 N 45.8211 -1.22559 -0.990812 0
M  V30 512 C 47.0461 -1.07862 -1.77145 0
M  V30 513 C 47.4711 0.366447 -1.84496 0
M  V30 514 O 46.8291 1.26478 -1.29896 0
M  V30 515 C 46.8771 -1.69686 -3.18181 0
M  V30 516 O 45.9811 -0.951946 -4.01263 0
M  V30 517 H 45.3221 -0.378712 -0.545411 0
M  V30 518 H 47.8521 -1.62399 -1.2445 0
M  V30 519 H 47.8621 -1.74496 -3.68802 0
M  V30 520 H 46.5371 -2.74841 -3.12146 0
M  V30 521 H 45.1141 -0.980011 -3.59792 0
M  V30 522 N 47.2992 1.18797 -1.03562 0
M  V30 523 C 48.2092 2.25913 -0.632505 0
M  V30 524 C 49.2252 1.70668 0.338882 0
M  V30 525 O 50.4012 2.00453 0.195076 0
M  V30 526 C 47.4662 3.467 0.00350942 0
M  V30 527 C 46.5272 4.17098 -1.01624 0
M  V30 528 C 45.7602 5.32119 -0.410478 0
M  V30 529 O 45.9832 5.64976 0.784725 0
M  V30 530 O 44.9172 5.9107 -1.13667 0
M  V30 531 H 48.7432 2.62648 -1.52478 0
M  V30 532 H 46.3282 1.25781 -0.806195 0
M  V30 533 H 48.2102 4.19878 0.35781 0
M  V30 534 H 46.8852 3.11798 0.869686 0
M  V30 535 H 45.7922 3.4601 -1.42224 0
M  V30 536 H 47.1252 4.55987 -1.85301 0
M  V30 537 N 48.7773 0.814389 1.34928 0
M  V30 538 C 49.7253 0.218424 2.31572 0
M  V30 539 C 50.7193 -0.636128 1.57002 0
M  V30 540 O 51.9253 -0.52842 1.72069 0
M  V30 541 H 48.3003 0.0518799 0.750208 0
M  V30 542 H 50.2713 1.04852 2.79372 0
M  V30 543 C 49.0203 -0.61207 3.4227 0
M  V30 544 H 48.3433 0.0361578 3.99784 0
M  V30 545 H 49.7833 -0.995317 4.12152 0
M  V30 546 C 48.2423 -1.78087 2.85984 0
M  V30 547 O 48.7723 -2.8787 2.80168 0
M  V30 548 N 46.9783 -1.59488 2.42924 0
M  V30 549 H 46.5253 -0.701874 2.47854 0
M  V30 550 H 46.4833 -2.37846 2.05613 0
M  V30 551 N 50.2554 -1.46986 0.568584 0
M  V30 552 C 51.6714 -1.57946 0.229189 0
M  V30 553 C 51.8714 -1.56567 -1.26843 0
M  V30 554 O 50.9274 -1.47511 -2.04931 0
M  V30 555 C 52.2404 -2.87963 0.865909 0
M  V30 556 C 53.7884 -3.01568 0.838188 0
M  V30 557 C 54.2634 -4.34301 1.45419 0
M  V30 558 N 55.7544 -4.40965 1.41788 0
M  V30 559 C 56.4894 -5.42256 1.86403 0
M  V30 560 N 55.9854 -6.50297 2.38926 0
M  V30 561 N 57.7784 -5.3337 1.77405 0
M  V30 562 H 49.9294 -1.46126 1.54146 0
M  V30 563 H 52.1924 -0.696156 0.643484 0
M  V30 564 H 51.8984 -2.94742 1.91886 0
M  V30 565 H 51.7724 -3.75423 0.365687 0
M  V30 566 H 54.1594 -2.94379 -0.206106 0
M  V30 567 H 54.2404 -2.1562 1.37629 0
M  V30 568 H 53.8844 -4.42247 2.49761 0
M  V30 569 H 53.8144 -5.19 0.891435 0
M  V30 570 H 56.3054 -3.63484 1.03381 0
M  V30 571 H 56.6184 -7.23777 2.70863 0
M  V30 572 H 54.9634 -6.51155 2.42944 0
M  V30 573 H 58.1544 -4.47865 1.3614 0
M  V30 574 H 58.3274 -6.12169 2.12492 0
M  V30 575 N 51.7335 -0.305618 -1.54608 0
M  V30 576 C 52.9615 0.304775 -2.04643 0
M  V30 577 C 53.3765 1.47167 -1.18268 0
M  V30 578 O 52.7335 1.81296 -0.209328 0
M  V30 579 C 52.7845 0.756564 -3.53495 0
M  V30 580 O 52.5055 -0.36389 -4.36586 0
M  V30 581 C 54.0065 1.43163 -4.19546 0
M  V30 582 H 51.2265 0.0655481 -0.667791 0
M  V30 583 H 53.7705 -0.446592 -1.99564 0
M  V30 584 H 51.9255 1.45794 -3.58919 0
M  V30 585 H 52.3395 -0.0113121 -5.24499 0
M  V30 586 H 53.8135 1.69886 -5.25207 0
M  V30 587 H 54.2905 2.37318 -3.69563 0
M  V30 588 H 54.8965 0.773307 -4.18211 0
M  V30 589 N 53.2116 1.57565 -0.0334293 0
M  V30 590 C 54.4576 1.92262 0.645226 0
M  V30 591 C 54.7906 0.910543 1.71531 0
M  V30 592 O 54.0656 -0.066099 1.94388 0
M  V30 593 C 54.3486 3.37422 1.2577 0
M  V30 594 C 54.2016 4.49369 0.196891 0
M  V30 595 C 55.5206 3.82628 2.17449 0
M  V30 596 H 52.6396 0.699171 0.233085 0
M  V30 597 H 55.2816 1.89779 -0.0915694 0
M  V30 598 H 53.4316 3.39669 1.88566 0
M  V30 599 H 55.1036 4.59254 -0.433962 0
M  V30 600 H 53.3466 4.31168 -0.477137 0
M  V30 601 H 54.0176 5.47978 0.665124 0
M  V30 602 H 56.4936 3.82145 1.64634 0
M  V30 603 H 55.3696 4.84883 2.57254 0
M  V30 604 H 55.6306 3.18376 3.0674 0
M  V30 605 N 54.6897 -0.239769 1.55765 0
M  V30 606 C 55.6527 -1.28038 1.90103 0
M  V30 607 C 56.6527 -1.40723 0.778055 0
M  V30 608 O 57.8427 -1.39301 1.04599 0
M  V30 609 C 54.9747 -2.65702 2.13577 0
M  V30 610 H 56.1677 -0.988048 2.83157 0
M  V30 611 H 53.7207 -0.479382 1.48767 0
M  V30 612 H 54.4557 -3.00063 1.23015 0
M  V30 613 H 54.2407 -2.57875 2.95369 0
M  V30 614 H 55.7307 -3.40828 2.41301 0
M  V30 615 N 56.1678 -1.49265 -0.50573 0
M  V30 616 C 57.4158 -1.582 -1.25766 0
M  V30 617 C 57.7368 -0.268482 -1.93143 0
M  V30 618 O 57.0068 0.711833 -1.8251 0
M  V30 619 H 55.5868 -0.582873 -0.467191 0
M  V30 620 H 58.2488 -1.85865 -0.586525 0
M  V30 621 H 57.3448 -2.37563 -2.02412 0
M  V30 622 N 57.6459 0.756429 -1.3826 0
M  V30 623 C 58.5559 1.9009 -1.37488 0
M  V30 624 C 59.5719 1.71855 -0.272366 0
M  V30 625 O 60.7479 1.94827 -0.510318 0
M  V30 626 C 57.8129 3.25421 -1.19592 0
M  V30 627 C 56.8739 3.56202 -2.39622 0
M  V30 628 C 56.1069 4.85075 -2.2257 0
M  V30 629 O 56.3299 5.57246 -1.21793 0
M  V30 630 O 55.2639 5.15269 -3.11098 0
M  V30 631 H 59.0899 1.93695 -2.33914 0
M  V30 632 H 56.6749 0.901313 -1.1915 0
M  V30 633 H 58.5569 4.06337 -1.11661 0
M  V30 634 H 57.2319 3.22634 -0.262486 0
M  V30 635 H 56.1389 2.75458 -2.53128 0
M  V30 636 H 57.4719 3.63747 -3.31586 0
M  V30 637 N 59.124 1.23083 0.984299 0
M  V30 638 C 60.352 1.08714 1.76037 0
M  V30 639 C 60.767 -0.361691 1.85303 0
M  V30 640 O 60.124 -1.25034 1.32939 0
M  V30 641 C 60.175 1.70206 3.18923 0
M  V30 642 O 59.896 3.09423 3.10144 0
M  V30 643 C 61.397 1.61227 4.12941 0
M  V30 644 H 58.617 0.380664 0.552572 0
M  V30 645 H 61.161 1.62853 1.23689 0
M  V30 646 H 59.316 1.20109 3.6831 0
M  V30 647 H 59.73 3.39188 4.00065 0
M  V30 648 H 61.204 2.08962 5.10919 0
M  V30 649 H 61.681 0.570375 4.35481 0
M  V30 650 H 62.287 2.10671 3.69456 0
M  V30 651 N 60.6021 -1.18246 1.0419 0
M  V30 652 C 61.5321 -2.24127 0.654914 0
M  V30 653 C 62.5131 -1.66617 -0.342451 0
M  V30 654 O 63.6981 -1.92924 -0.222277 0
M  V30 655 C 60.8281 -3.47295 0.0183757 0
M  V30 656 C 59.7821 -4.17563 0.939414 0
M  V30 657 C 59.1081 -5.34438 0.167286 0
M  V30 658 C 60.4081 -4.70917 2.25908 0
M  V30 659 H 62.1021 -2.56753 1.54007 0
M  V30 660 H 59.6481 -1.23414 0.74195 0
M  V30 661 H 61.6011 -4.20572 -0.264082 0
M  V30 662 H 60.3251 -3.13907 -0.901664 0
M  V30 663 H 58.9841 -3.46186 1.20628 0
M  V30 664 H 58.6321 -4.97298 -0.7552 0
M  V30 665 H 58.3321 -5.82388 0.780901 0
M  V30 666 H 59.8561 -6.10504 -0.108125 0
M  V30 667 H 61.2701 -5.35882 2.03724 0
M  V30 668 H 59.6671 -5.29406 2.82577 0
M  V30 669 H 60.7371 -3.88272 2.9047 0
M  V30 670 N 62.0802 -0.821533 -1.34494 0
M  V30 671 C 63.3292 -0.405355 -1.97585 0
M  V30 672 C 63.6422 1.03677 -1.65863 0
M  V30 673 O 64.8482 1.55679 -2.22433 0
M  V30 674 C 63.3042 -0.673861 -3.53535 0
M  V30 675 C 62.9122 -2.12951 -3.94152 0
M  V30 676 C 64.6562 -0.32378 -4.23263 0
M  V30 677 C 62.5632 -2.34298 -5.43009 0
M  V30 678 H 61.4932 -0.147836 -0.739365 0
M  V30 679 H 64.1442 -1.00769 -1.53355 0
M  V30 680 H 62.5262 -0.00137554 -3.96 0
M  V30 681 H 63.7002 -2.84104 -3.62797 0
M  V30 682 H 62.0152 -2.44089 -3.37356 0
M  V30 683 H 64.6122 -0.461126 -5.32708 0
M  V30 684 H 64.9552 0.731586 -4.09821 0
M  V30 685 H 65.4882 -0.950786 -3.8627 0
M  V30 686 H 62.2272 -3.38335 -5.61435 0
M  V30 687 H 61.7472 -1.67687 -5.75883 0
M  V30 688 H 63.4262 -2.16588 -6.09671 0
M  V30 689 N 63.5583 1.46682 -0.576371 0
M  V30 690 C 64.9693 1.86112 -0.148091 0
M  V30 691 C 65.3203 1.48073 1.2872 0
M  V30 692 O 64.4453 0.892656 1.97131 0
M  V30 693 C 65.0403 3.37786 -0.261982 0
M  V30 694 C 63.5993 3.76235 0.111384 0
M  V30 695 C 62.7463 2.70713 -0.60083 0
M  V30 696 H 65.6973 1.37927 -0.78497 0
M  V30 697 H 65.7183 3.77007 0.514364 0
M  V30 698 H 65.2303 3.6544 -1.30671 0
M  V30 699 H 63.3313 3.54198 1.15649 0
M  V30 700 H 63.4443 4.78391 -0.26052 0
M  V30 701 H 61.8083 2.54666 -0.0417783 0
M  V30 702 H 62.5913 3.01208 -1.64708 0
M  V30 703 N 65.0364 0.313813 1.54444 0
M  V30 704 C 65.9834 -0.55655 2.23989 0
M  V30 705 C 66.9534 -1.11943 1.22711 0
M  V30 706 O 68.1384 -1.16158 1.51367 0
M  V30 707 C 65.2784 -1.71635 2.99392 0
M  V30 708 C 64.3914 -1.18364 4.15468 0
M  V30 709 C 63.5264 -2.30834 4.78424 0
M  V30 710 C 62.5654 -1.74762 5.86622 0
M  V30 711 N 61.7024 -2.80855 6.43479 0
M  V30 712 H 66.5424 0.0430893 2.97969 0
M  V30 713 H 64.0794 0.0330359 1.47063 0
M  V30 714 H 66.0374 -2.39868 3.41349 0
M  V30 715 H 64.6674 -2.28742 2.27765 0
M  V30 716 H 63.7194 -0.393163 3.78363 0
M  V30 717 H 65.0314 -0.733262 4.93381 0
M  V30 718 H 64.1854 -3.0699 5.23299 0
M  V30 719 H 62.9244 -2.79204 3.99871 0
M  V30 720 H 61.9294 -0.970995 5.41158 0
M  V30 721 H 63.1544 -1.2728 6.67066 0
M  V30 722 H 61.1004 -3.28535 5.67804 0
M  V30 723 H 61.0174 -2.40351 7.16776 0
M  V30 724 H 62.2854 -3.5687 6.93011 0
M  V30 725 N 66.5145 -1.57545 0.0417849 0
M  V30 726 C 67.4625 -2.12148 -0.953723 0
M  V30 727 C 68.4565 -1.05104 -1.32852 0
M  V30 728 O 69.6625 -1.23524 -1.30927 0
M  V30 729 H 66.0375 -0.677957 -0.325389 0
M  V30 730 H 68.0085 -2.94707 -0.467991 0
M  V30 731 C 66.7575 -2.6739 -2.22257 0
M  V30 732 H 66.0805 -3.49413 -1.94295 0
M  V30 733 H 67.5205 -3.09227 -2.90094 0
M  V30 734 C 65.9795 -1.60723 -2.96091 0
M  V30 735 O 66.5095 -1.01449 -3.88679 0
M  V30 736 N 64.7155 -1.32466 -2.58652 0
M  V30 737 H 64.2625 -1.80856 -1.83437 0
M  V30 738 H 64.2205 -0.61325 -3.08361 0
M  V30 739 N 67.9926 0.231505 -1.5589 0
M  V30 740 C 69.2696 0.981096 -1.69215 0
M  V30 741 C 69.6496 2.02799 -0.586164 0
M  V30 742 O 68.9976 2.24823 0.408253 0
M  V30 743 C 69.2076 1.60054 -3.10135 0
M  V30 744 C 70.5556 2.09658 -3.69227 0
M  V30 745 O 71.5796 1.69967 -3.13033 0
M  V30 746 O 70.4386 2.8258 -4.67772 0
M  V30 747 H 67.5326 0.457653 -0.688827 0
M  V30 748 H 70.0786 0.224073 -1.68214 0
M  V30 749 H 68.8506 0.844105 -3.82087 0
M  V30 750 H 68.4736 2.42336 -3.15212 0
M  V30 751 N 69.4707 1.49531 0.497807 0
M  V30 752 C 70.7167 1.59415 1.25358 0
M  V30 753 C 71.0497 0.281422 1.9215 0
M  V30 754 O 70.3247 -0.715249 1.80871 0
M  V30 755 C 70.6077 2.75566 2.3181 0
M  V30 756 C 70.4607 4.16642 1.69498 0
M  V30 757 C 71.7797 2.87347 3.33346 0
M  V30 758 H 68.8987 0.580244 0.454408 0
M  V30 759 H 71.5407 1.81827 0.551262 0
M  V30 760 H 69.6907 2.56587 2.91711 0
M  V30 761 H 71.3627 4.47145 1.13399 0
M  V30 762 H 69.6057 4.22141 0.998978 0
M  V30 763 H 70.2767 4.93792 2.46725 0
M  V30 764 H 72.7527 3.04634 2.83438 0
M  V30 765 H 71.6287 3.70289 4.05188 0
M  V30 766 H 71.8897 1.96834 3.95865 0
M  V30 767 N 70.9488 -0.749086 1.3866 0
M  V30 768 C 71.8958 -1.86291 1.36251 0
M  V30 769 C 72.8658 -1.64578 0.224347 0
M  V30 770 O 74.0508 -1.86181 0.417279 0
M  V30 771 C 71.1908 -3.23644 1.19786 0
M  V30 772 C 70.3038 -3.57158 2.43027 0
M  V30 773 C 69.4388 -4.83838 2.19258 0
M  V30 774 C 68.4778 -5.10152 3.38247 0
M  V30 775 N 67.6148 -6.28029 3.13884 0
M  V30 776 H 72.4548 -1.87685 2.3147 0
M  V30 777 H 69.9918 -0.917287 1.14997 0
M  V30 778 H 71.9498 -4.0291 1.08254 0
M  V30 779 H 70.5798 -3.21566 0.282031 0
M  V30 780 H 69.6318 -2.72701 2.65214 0
M  V30 781 H 70.9438 -3.7253 3.31697 0
M  V30 782 H 70.0978 -5.71057 2.04888 0
M  V30 783 H 68.8368 -4.70614 1.2796 0
M  V30 784 H 67.8418 -4.21401 3.53131 0
M  V30 785 H 69.0668 -5.25271 4.30427 0
M  V30 786 H 67.0128 -6.1612 2.25238 0
M  V30 787 H 66.9298 -6.43922 3.96106 0
M  V30 788 H 68.1978 -7.18124 3.03179 0
M  V30 789 N 72.4269 -1.23603 -0.977757 0
M  V30 790 C 73.6519 -1.09735 -1.75991 0
M  V30 791 C 74.0769 0.346858 -1.84874 0
M  V30 792 O 73.4349 1.25093 -1.3123 0
M  V30 793 C 73.4829 -1.73051 -3.16363 0
M  V30 794 O 72.5869 -0.994452 -4.0023 0
M  V30 795 H 71.9279 -0.384476 -0.541364 0
M  V30 796 H 74.4579 -1.6371 -1.2272 0
M  V30 797 H 74.4679 -1.78398 -3.66931 0
M  V30 798 H 73.1429 -2.78137 -3.09213 0
M  V30 799 H 71.7199 -1.01812 -3.58732 0
M  V30 800 N 73.905 1.17692 -1.04816 0
M  V30 801 C 75.13 1.92327 -0.776207 0
M  V30 802 C 75.555 1.76082 0.661581 0
M  V30 803 O 74.913 1.076 1.45917 0
M  V30 804 C 74.961 3.41539 -1.15687 0
M  V30 805 O 74.065 4.11402 -0.286775 0
M  V30 806 H 73.406 0.599735 -0.284981 0
M  V30 807 H 75.936 1.49201 -1.4 0
M  V30 808 H 75.946 3.92269 -1.12202 0
M  V30 809 H 74.621 3.52684 -2.20425 0
M  V30 810 H 73.198 3.70939 -0.381903 0
M  V30 811 N 75.3831 0.828654 1.34056 0
M  V30 812 C 76.6291 0.42008 1.98402 0
M  V30 813 C 76.9621 -1.01564 1.65525 0
M  V30 814 O 76.2371 -1.70834 0.929831 0
M  V30 815 C 76.5201 0.62927 3.54559 0
M  V30 816 C 76.3731 2.11152 3.97159 0
M  V30 817 C 77.6921 0.0688756 4.40046 0
M  V30 818 H 74.8111 0.154104 0.720709 0
M  V30 819 H 77.4531 1.04228 1.5886 0
M  V30 820 H 75.6031 0.0996418 3.88372 0
M  V30 821 H 77.2751 2.70522 3.73651 0
M  V30 822 H 75.5181 2.59985 3.47261 0
M  V30 823 H 76.1891 2.20868 5.05887 0
M  V30 824 H 78.6651 0.521458 4.1282 0
M  V30 825 H 77.5411 0.245006 5.48353 0
M  V30 826 H 77.8021 -1.0266 4.30015 0
M  V30 827 N 76.8612 -1.46375 0.584142 0
M  V30 828 C 78.0892 -2.06761 0.0759296 0
M  V30 829 C 78.5042 -1.43266 -1.22965 0
M  V30 830 O 77.8612 -0.538458 -1.74376 0
M  V30 831 C 77.9122 -3.61375 -0.0950384 0
M  V30 832 O 77.6332 -4.22495 1.15887 0
M  V30 833 C 79.1342 -4.38693 -0.637434 0
M  V30 834 H 76.3542 -0.668479 0.0581075 0
M  V30 835 H 78.8982 -1.8798 0.805218 0
M  V30 836 H 77.0532 -3.79578 -0.774554 0
M  V30 837 H 77.4672 -5.15385 0.973598 0
M  V30 838 H 78.9412 -5.47464 -0.706237 0
M  V30 839 H 79.4182 -4.06836 -1.65472 0
M  V30 840 H 80.0242 -4.25299 0.00725967 0
M  V30 841 N 78.3393 -0.321999 -1.54275 0
M  V30 842 C 79.6163 0.335232 -1.92706 0
M  V30 843 C 79.9963 1.70006 -1.25145 0
M  V30 844 O 79.3443 2.25067 -0.394596 0
M  V30 845 C 79.5543 0.429008 -3.46353 0
M  V30 846 C 80.9023 0.690029 -4.18956 0
M  V30 847 O 81.9263 0.511992 -3.52501 0
M  V30 848 O 80.7853 1.03338 -5.36641 0
M  V30 849 H 77.8793 0.191143 -0.804608 0
M  V30 850 H 80.4253 -0.3716 -1.65581 0
M  V30 851 H 79.1973 -0.529611 -3.87699 0
M  V30 852 H 78.8203 1.18348 -3.79578 0
M  V30 853 N 79.8174 1.5752 -0.0501392 0
M  V30 854 C 80.7804 2.1037 0.909786 0
M  V30 855 C 81.7804 1.02308 1.24056 0
M  V30 856 O 82.9704 1.28385 1.17741 0
M  V30 857 C 80.1024 2.58708 2.21998 0
M  V30 858 H 81.2954 2.96479 0.451665 0
M  V30 859 H 78.8484 1.55038 0.198248 0
M  V30 860 H 79.5834 1.75989 2.72394 0
M  V30 861 H 79.3684 3.37675 1.99295 0
M  V30 862 H 80.8584 2.99747 2.9076 0
M  V30 863 N 81.2955 -0.223234 1.56011 0
M  V30 864 C 82.5445 -0.945912 1.78144 0
M  V30 865 C 82.8575 -1.85567 0.618396 0
M  V30 866 O 84.0635 -2.61688 0.723318 0
M  V30 867 C 82.5195 -1.73216 3.15475 0
M  V30 868 C 82.1275 -0.868619 4.39499 0
M  V30 869 C 83.8715 -2.44615 3.46935 0
M  V30 870 C 81.7785 -1.65212 5.67855 0
M  V30 871 H 80.7085 -0.356929 0.664167 0
M  V30 872 H 83.3595 -0.199845 1.82409 0
M  V30 873 H 81.7415 -2.52107 3.05382 0
M  V30 874 H 82.9155 -0.120366 4.60643 0
M  V30 875 H 81.2305 -0.26683 4.15544 0
M  V30 876 H 83.8275 -3.03732 4.40058 0
M  V30 877 H 84.1705 -3.17417 2.69355 0
M  V30 878 H 84.7035 -1.72715 3.58349 0
M  V30 879 H 81.4425 -0.967407 6.48322 0
M  V30 880 H 80.9625 -2.37503 5.50774 0
M  V30 881 H 82.6415 -2.21322 6.07968 0
M  V30 882 N 82.7736 -1.49793 -0.48987 0
M  V30 883 C 84.0036 -1.6333 -1.26518 0
M  V30 884 C 84.4116 -0.308392 -1.8667 0
M  V30 885 O 83.7546 0.717512 -1.69108 0
M  V30 886 C 83.8166 -2.6522 -2.4269 0
M  V30 887 C 83.4806 -4.09279 -2.03321 0
M  V30 888 C 84.4776 -4.95738 -1.56652 0
M  V30 889 C 82.1626 -4.55082 -2.12616 0
M  V30 890 C 84.1566 -6.26041 -1.19795 0
M  V30 891 C 81.8436 -5.85396 -1.75371 0
M  V30 892 C 82.8416 -6.707 -1.29036 0
M  V30 893 O 82.5296 -7.98584 -0.92299 0
M  V30 894 H 82.2616 -0.552502 -0.389509 0
M  V30 895 H 84.8156 -1.96642 -0.593381 0
M  V30 896 H 83.0456 -2.27112 -3.12981 0
M  V30 897 H 84.7346 -2.68171 -3.04695 0
M  V30 898 H 85.5006 -4.61575 -1.48908 0
M  V30 899 H 81.3796 -3.88844 -2.47631 0
M  V30 900 H 84.9236 -6.92578 -0.835582 0
M  V30 901 H 80.8206 -6.19085 -1.82768 0
M  V30 902 H 81.5886 -8.11692 -1.05349 0
M  V30 903 N 84.2517 0.741722 -1.39055 0
M  V30 904 C 85.1837 1.8657 -1.33133 0
M  V30 905 C 86.1967 1.61001 -0.241329 0
M  V30 906 O 87.3857 1.7136 -0.499784 0
M  V30 907 C 84.4857 3.22457 -1.04283 0
M  V30 908 C 83.6587 3.75435 -2.24427 0
M  V30 909 C 82.7177 4.89867 -1.92138 0
M  V30 910 O 81.7437 5.03879 -2.64754 0
M  V30 911 N 82.9457 5.73738 -0.88347 0
M  V30 912 H 85.7107 1.92156 -2.29991 0
M  V30 913 H 83.2717 0.922172 -1.3307 0
M  V30 914 H 85.2637 3.9657 -0.807128 0
M  V30 915 H 83.8337 3.12181 -0.161807 0
M  V30 916 H 83.0537 2.92751 -2.6399 0
M  V30 917 H 84.3417 4.07563 -3.04581 0
M  V30 918 H 83.7397 5.64999 -0.281517 0
M  V30 919 H 82.2967 6.47947 -0.707662 0
M  V30 920 N 85.7298 1.2412 0.971189 0
M  V30 921 C 86.9788 1.07284 1.70801 0
M  V30 922 C 87.2918 -0.388902 1.91695 0
M  V30 923 O 88.4978 -0.677379 2.62914 0
M  V30 924 C 86.9538 1.87145 3.07416 0
M  V30 925 C 86.5618 3.37707 2.94377 0
M  V30 926 C 88.3058 1.78828 3.84995 0
M  V30 927 C 86.2128 4.09925 4.26281 0
M  V30 928 H 85.1428 0.397854 0.64049 0
M  V30 929 H 87.7938 1.4817 1.0825 0
M  V30 930 H 86.1758 1.39071 3.70777 0
M  V30 931 H 87.3498 3.93335 2.4005 0
M  V30 932 H 85.6648 3.46938 2.30267 0
M  V30 933 H 88.2618 2.30089 4.82662 0
M  V30 934 H 88.6048 0.75284 4.09436 0
M  V30 935 H 89.1378 2.24563 3.28354 0
M  V30 936 H 85.8768 5.13813 4.07033 0
M  V30 937 H 85.3968 3.59083 4.80437 0
M  V30 938 H 87.0758 4.1673 4.94919 0
M  V30 939 N 87.2079 -1.17134 1.05439 0
M  V30 940 C 88.1549 -2.21235 0.657539 0
M  V30 941 C 89.1249 -1.62551 -0.341543 0
M  V30 942 O 90.3099 -1.89379 -0.232393 0
M  V30 943 C 87.4499 -3.45076 0.0410575 0
M  V30 944 C 86.5629 -4.18042 1.08927 0
M  V30 945 C 85.6979 -5.29376 0.439848 0
M  V30 946 C 84.7369 -5.94132 1.4722 0
M  V30 947 N 83.8739 -6.96975 0.846756 0
M  V30 948 H 88.7139 -2.54534 1.54972 0
M  V30 949 H 86.2509 -1.25028 0.775006 0
M  V30 950 H 88.2089 -4.15862 -0.33383 0
M  V30 951 H 86.8389 -3.12353 -0.814568 0
M  V30 952 H 85.8909 -3.45945 1.58196 0
M  V30 953 H 87.2029 -4.62306 1.87282 0
M  V30 954 H 86.3569 -6.06699 0.0115125 0
M  V30 955 H 85.0959 -4.86251 -0.375656 0
M  V30 956 H 84.1009 -5.15538 1.91052 0
M  V30 957 H 85.3259 -6.39337 2.28965 0
M  V30 958 H 83.2719 -6.5598 0.0518075 0
M  V30 959 H 83.1889 -7.39565 1.5678 0
M  V30 960 H 84.4569 -7.78239 0.443277 0
M  V30 961 N 88.686 -0.835752 -1.33615 0
M  V30 962 C 89.634 -0.255238 -2.31195 0
M  V30 963 C 90.628 0.61107 -1.57995 0
M  V30 964 O 91.834 0.500979 -1.72888 0
M  V30 965 H 88.209 -0.0638085 -0.749288 0
M  V30 966 H 90.18 -1.09283 -2.77669 0
M  V30 967 C 88.929 0.55754 -3.43201 0
M  V30 968 H 88.252 -0.0997553 -3.99676 0
M  V30 969 H 89.692 0.929622 -4.13683 0
M  V30 970 C 88.151 1.73515 -2.88781 0
M  V30 971 O 88.681 2.83376 -2.84712 0
M  V30 972 N 86.887 1.55603 -2.4543 0
M  V30 973 H 86.434 0.662354 -2.48939 0
M  V30 974 H 86.392 2.34545 -2.09371 0
M  V30 975 N 90.1641 1.46063 -0.591896 0
M  V30 976 C 91.4131 2.01547 -0.0786637 0
M  V30 977 C 91.7261 1.46796 1.29268 0
M  V30 978 O 92.9321 1.94157 1.89777 0
M  V30 979 C 91.3881 3.59787 -0.0900024 0
M  V30 980 C 90.9961 4.23534 -1.46023 0
M  V30 981 C 92.7401 4.22895 0.368806 0
M  V30 982 C 90.6471 5.73881 -1.4288 0
M  V30 983 H 89.5771 0.753564 -0.0256388 0
M  V30 984 H 92.2281 1.677 -0.744905 0
M  V30 985 H 90.6101 3.90752 0.642586 0
M  V30 986 H 91.7841 4.04167 -2.21328 0
M  V30 987 H 90.0991 3.72558 -1.85982 0
M  V30 988 H 92.6961 5.33116 0.411258 0
M  V30 989 H 93.0391 3.9247 1.38827 0
M  V30 990 H 93.5721 3.9659 -0.31001 0
M  V30 991 H 90.3111 6.0898 -2.42536 0
M  V30 992 H 89.8311 5.95486 -0.718095 0
M  V30 993 H 91.5101 6.36776 -1.14565 0
M  V30 994 N 91.6422 0.330177 1.54103 0
M  V30 995 C 93.0532 -0.15652 1.86043 0
M  V30 996 C 93.4042 -1.51086 1.2517 0
M  V30 997 O 92.5292 -2.09023 0.560217 0
M  V30 998 C 93.1242 -0.290784 3.3755 0
M  V30 999 C 91.6832 -0.721705 3.69416 0
M  V30 1000 C 90.8302 0.152622 2.7688 0
M  V30 1001 H 93.7812 0.550237 1.48856 0
M  V30 1002 H 93.8022 -1.12058 3.63625 0
M  V30 1003 H 93.3142 0.695068 3.81825 0
M  V30 1004 H 91.4152 -1.71706 3.30678 0
M  V30 1005 H 91.5282 -0.520869 4.7626 0
M  V30 1006 H 89.8922 -0.372894 2.51956 0
M  V30 1007 H 90.6752 1.13536 3.23982 0
M  V30 1008 N 93.1203 -1.57491 0.0584922 0
M  V30 1009 C 94.0523 -2.08916 -0.942694 0
M  V30 1010 C 95.0653 -1.0185 -1.27006 0
M  V30 1011 O 96.2543 -1.29398 -1.22957 0
M  V30 1012 C 93.3543 -2.52341 -2.26224 0
M  V30 1013 C 92.5273 -3.82827 -2.1157 0
M  V30 1014 C 91.5863 -4.12487 -3.26712 0
M  V30 1015 O 90.6123 -4.82295 -3.02292 0
M  V30 1016 N 91.8143 -3.64978 -4.5141 0
M  V30 1017 H 94.5793 -2.95437 -0.503722 0
M  V30 1018 H 92.1403 -1.61397 -0.12757 0
M  V30 1019 H 94.1323 -2.69254 -3.02133 0
M  V30 1020 H 92.7023 -1.7103 -2.61663 0
M  V30 1021 H 91.9223 -3.75425 -1.20208 0
M  V30 1022 H 93.2103 -4.68263 -1.99015 0
M  V30 1023 H 92.6083 -3.08558 -4.7414 0
M  V30 1024 H 91.1653 -3.87115 -5.2439 0
M  V30 1025 N 94.5984 0.214957 -1.56127 0
M  V30 1026 C 95.5464 1.28601 -1.93816 0
M  V30 1027 C 96.5404 1.48175 -0.821016 0
M  V30 1028 O 97.7464 1.49271 -1.0059 0
M  V30 1029 H 94.1214 0.431302 -0.616022 0
M  V30 1030 H 96.0924 0.940991 -2.83175 0
M  V30 1031 C 94.8414 2.62779 -2.27689 0
M  V30 1032 H 94.1644 2.48527 -3.13168 0
M  V30 1033 H 95.6044 3.36517 -2.57939 0
M  V30 1034 C 94.0634 3.18285 -1.10436 0
M  V30 1035 O 94.5934 4.00002 -0.368945 0
M  V30 1036 N 92.7994 2.7675 -0.886433 0
M  V30 1037 H 92.3464 2.10404 -1.48619 0
M  V30 1038 H 92.3044 3.14229 -0.103656 0
M  V30 1039 N 96.0765 1.50051 0.48192 0
M  V30 1040 C 97.3535 1.51009 1.2432 0
M  V30 1041 C 97.7335 0.248587 2.09631 0
M  V30 1042 O 97.0815 -0.768409 2.15192 0
M  V30 1043 C 97.2915 2.79981 2.08355 0
M  V30 1044 C 98.6395 3.3022 2.66908 0
M  V30 1045 O 99.6635 2.81228 2.18607 0
M  V30 1046 O 98.5225 4.15595 3.54884 0
M  V30 1047 H 95.6165 0.605239 0.563573 0
M  V30 1048 H 98.1625 1.62332 0.494627 0
M  V30 1049 H 96.9345 3.63275 1.45419 0
M  V30 1050 H 96.5575 2.7161 2.90368 0
M  V30 1051 N 97.5546 -0.734337 1.39446 0
M  V30 1052 C 98.4876 -1.85715 1.32609 0
M  V30 1053 C 99.4656 -1.6137 0.199636 0
M  V30 1054 O 100.65 -1.84626 0.380195 0
M  V30 1055 C 97.7766 -3.21709 1.05929 0
M  V30 1056 C 96.8226 -3.64913 2.20773 0
M  V30 1057 S 97.6556 -3.74203 3.83056 0
M  V30 1058 C 98.8116 -5.12986 3.58603 0
M  V30 1059 H 99.0446 -1.91232 2.27635 0
M  V30 1060 H 96.5776 -0.899263 1.25509 0
M  V30 1061 H 98.5356 -4.00236 0.912203 0
M  V30 1062 H 97.1966 -3.13848 0.125883 0
M  V30 1063 H 96.3896 -4.63606 1.97699 0
M  V30 1064 H 95.9916 -2.93593 2.31688 0
M  V30 1065 H 98.2836 -5.99339 3.15909 0
M  V30 1066 H 99.2266 -5.41088 4.5676 0
M  V30 1067 H 99.6346 -4.82694 2.9269 0
M  V30 1068 N 99.0327 -1.24633 -0.964593 0
M  V30 1069 C 100.281 -1.08573 -1.70459 0
M  V30 1070 C 100.602 0.375655 -1.91347 0
M  V30 1071 O 99.8717 1.26779 -1.49345 0
M  V30 1072 H 98.4517 -0.398784 -0.631649 0
M  V30 1073 H 101.114 -1.56601 -1.16026 0
M  V30 1074 H 100.21 -1.58623 -2.68785 0
M  V30 1075 N 100.511 1.16574 -1.06058 0
M  V30 1076 C 101.441 2.23057 -0.690488 0
M  V30 1077 C 102.422 1.67141 0.315901 0
M  V30 1078 O 103.607 1.93253 0.191556 0
M  V30 1079 C 100.737 3.47222 -0.073625 0
M  V30 1080 C 99.6908 4.16016 -1.00573 0
M  V30 1081 C 99.0168 5.34104 -0.252289 0
M  V30 1082 C 100.317 4.67264 -2.33371 0
M  V30 1083 H 102.011 2.54271 -1.58072 0
M  V30 1084 H 99.5568 1.22218 -0.76149 0
M  V30 1085 H 101.51 4.20939 0.19714 0
M  V30 1086 H 100.234 3.15302 0.85161 0
M  V30 1087 H 98.8928 3.44223 -1.2612 0
M  V30 1088 H 98.5408 4.98437 0.675988 0
M  V30 1089 H 98.2408 5.81072 -0.873455 0
M  V30 1090 H 99.7648 6.10599 0.0109857 0
M  V30 1091 H 101.179 5.32573 -2.12223 0
M  V30 1092 H 99.5758 5.24843 -2.90963 0
M  V30 1093 H 100.646 3.83602 -2.96611 0
M  V30 1094 N 101.989 0.842826 1.3317 0
M  V30 1095 C 103.214 0.453129 2.02389 0
M  V30 1096 C 103.639 -0.939105 1.6298 0
M  V30 1097 O 102.997 -1.61472 0.8244 0
M  V30 1098 C 103.045 0.586094 3.55805 0
M  V30 1099 O 102.149 -0.386029 4.10589 0
M  V30 1100 H 101.49 0.183664 0.638094 0
M  V30 1101 H 104.02 1.13875 1.69981 0
M  V30 1102 H 104.03 0.469209 4.05293 0
M  V30 1103 H 102.705 1.6014 3.83833 0
M  V30 1104 H 101.282 -0.226371 3.72212 0
M  V30 1105 N 103.467 -1.45747 0.599634 0
M  V30 1106 C 104.713 -2.02592 0.0918643 0
M  V30 1107 C 105.046 -1.46806 -1.27128 0
M  V30 1108 O 104.321 -0.639658 -1.83681 0
M  V30 1109 C 104.604 -3.60073 0.0443398 0
M  V30 1110 C 104.457 -4.26208 1.43759 0
M  V30 1111 C 105.776 -4.35309 -0.647608 0
M  V30 1112 H 102.895 -0.736175 0.034857 0
M  V30 1113 H 105.537 -1.73694 0.770081 0
M  V30 1114 H 103.687 -3.84823 -0.533224 0
M  V30 1115 H 105.359 -4.12668 2.06162 0
M  V30 1116 H 103.602 -3.84916 2.00056 0
M  V30 1117 H 104.273 -5.35069 1.35665 0
M  V30 1118 H 106.749 -4.15805 -0.156776 0
M  V30 1119 H 105.625 -5.45038 -0.649942 0
M  V30 1120 H 105.886 -4.07598 -1.71219 0
M  V30 1121 N 104.945 -0.338344 -1.53925 0
M  V30 1122 C 106.173 0.261298 -2.05243 0
M  V30 1123 C 106.588 1.44625 -1.21363 0
M  V30 1124 O 105.945 1.80811 -0.247736 0
M  V30 1125 C 105.996 0.681412 -3.5502 0
M  V30 1126 O 105.717 -0.456414 -4.35716 0
M  V30 1127 C 107.218 1.34232 -4.22489 0
M  V30 1128 H 104.438 0.0513685 -0.669031 0
M  V30 1129 H 106.982 -0.488822 -1.98572 0
M  V30 1130 H 105.137 1.38148 -3.61931 0
M  V30 1131 H 105.551 -0.122564 -5.24357 0
M  V30 1132 H 107.025 1.58708 -5.28693 0
M  V30 1133 H 107.502 2.29426 -3.74514 0
M  V30 1134 H 108.108 0.684424 -4.19757 0
M  V30 1135 N 106.423 1.57458 -0.0668435 0
M  V30 1136 C 107.7 1.8469 0.644132 0
M  V30 1137 C 108.08 0.958343 1.88093 0
M  V30 1138 O 107.428 0.0233579 2.28488 0
M  V30 1139 C 107.638 3.34767 0.986509 0
M  V30 1140 C 108.986 4.02159 1.36212 0
M  V30 1141 O 110.01 3.39484 1.07839 0
M  V30 1142 O 108.869 5.12694 1.89227 0
M  V30 1143 H 105.963 0.762816 0.319437 0
M  V30 1144 H 108.509 1.6942 -0.0973986 0
M  V30 1145 H 107.281 3.91151 0.107883 0
M  V30 1146 H 106.904 3.55281 1.78497 0
M  V30 1147 N 107.901 -0.206675 1.56239 0
M  V30 1148 C 109.126 -0.949474 1.8439 0
M  V30 1149 C 109.551 -1.76549 0.649016 0
M  V30 1150 O 108.909 -1.76782 -0.402231 0
M  V30 1151 C 108.957 -1.83078 3.10668 0
M  V30 1152 O 108.061 -2.9281 2.90407 0
M  V30 1153 H 107.402 -0.268033 0.607499 0
M  V30 1154 H 109.932 -0.215488 2.03462 0
M  V30 1155 H 109.942 -2.2377 3.41161 0
M  V30 1156 H 108.617 -1.23112 3.97261 0
M  V30 1157 H 107.194 -2.55956 2.71184 0
M  V30 1158 N 109.379 -1.50304 -0.473955 0
M  V30 1159 C 110.625 -1.61389 -1.22806 0
M  V30 1160 C 110.958 -0.311955 -1.91678 0
M  V30 1161 O 110.233 0.686384 -1.81986 0
M  V30 1162 C 110.516 -2.79219 -2.27396 0
M  V30 1163 C 110.369 -4.19286 -1.62848 0
M  V30 1164 C 111.688 -2.92614 -3.28732 0
M  V30 1165 H 108.807 -0.587399 -0.445119 0
M  V30 1166 H 111.449 -1.82681 -0.522265 0
M  V30 1167 H 109.599 -2.61195 -2.87592 0
M  V30 1168 H 111.271 -4.48892 -1.06271 0
M  V30 1169 H 109.514 -4.23677 -0.931693 0
M  V30 1170 H 110.185 -4.97655 -2.38838 0
M  V30 1171 H 112.661 -3.09105 -2.78556 0
M  V30 1172 H 111.537 -3.76688 -3.99246 0
M  V30 1173 H 111.798 -2.03107 -3.92683 0
M  V30 1174 N 110.857 0.726932 -1.39834 0
M  V30 1175 C 112.087 1.51393 -1.40583 0
M  V30 1176 C 112.495 1.892 -0.000740625 0
M  V30 1177 O 111.838 1.55189 0.982951 0
M  V30 1178 C 111.9 2.82588 -2.22226 0
M  V30 1179 C 111.564 2.67169 -3.70769 0
M  V30 1180 C 112.561 2.3518 -4.63666 0
M  V30 1181 C 110.246 2.83788 -4.14451 0
M  V30 1182 C 112.24 2.20002 -5.98229 0
M  V30 1183 C 109.927 2.68229 -5.49087 0
M  V30 1184 C 110.925 2.36382 -6.4079 0
M  V30 1185 O 110.613 2.2093 -7.72946 0
M  V30 1186 H 110.345 0.474168 -0.48181 0
M  V30 1187 H 112.899 0.905247 -1.84376 0
M  V30 1188 H 111.129 3.45746 -1.73195 0
M  V30 1189 H 112.818 3.44247 -2.15055 0
M  V30 1190 H 113.584 2.21984 -4.31217 0
M  V30 1191 H 109.463 3.07566 -3.43401 0
M  V30 1192 H 113.007 1.95067 -6.69772 0
M  V30 1193 H 108.904 2.81006 -5.81125 0
M  V30 1194 H 109.672 2.35937 -7.83757 0
M  V30 1195 N 112.336 1.25143 0.95797 0
M  V30 1196 C 113.268 1.01023 2.05735 0
M  V30 1197 C 114.281 -0.0236902 1.62783 0
M  V30 1198 O 115.47 0.21448 1.77207 0
M  V30 1199 C 112.57 0.504595 3.35122 0
M  V30 1200 C 111.743 1.6039 4.06932 0
M  V30 1201 C 110.802 1.09922 5.14591 0
M  V30 1202 O 109.828 1.79293 5.40225 0
M  V30 1203 N 111.03 -0.0612545 5.80468 0
M  V30 1204 H 113.795 1.95683 2.26998 0
M  V30 1205 H 111.356 1.16303 1.12629 0
M  V30 1206 H 113.348 0.151516 4.04416 0
M  V30 1207 H 111.918 -0.347989 3.10657 0
M  V30 1208 H 111.138 2.12872 3.31782 0
M  V30 1209 H 112.426 2.34252 4.51667 0
M  V30 1210 H 111.824 -0.640985 5.62057 0
M  V30 1211 H 110.381 -0.355395 6.5083 0
M  V30 1212 N 113.814 -1.1601 1.06675 0
M  V30 1213 C 115.063 -1.85973 0.780818 0
M  V30 1214 C 115.376 -1.82819 -0.695444 0
M  V30 1215 O 116.582 -2.484 -1.09589 0
M  V30 1216 C 115.038 -3.33757 1.34665 0
M  V30 1217 C 114.646 -3.45374 2.85343 0
M  V30 1218 C 116.39 -4.0895 1.13843 0
M  V30 1219 C 114.297 -4.87266 3.35151 0
M  V30 1220 H 113.227 -0.696661 0.288407 0
M  V30 1221 H 115.878 -1.30903 1.28595 0
M  V30 1222 H 114.26 -3.88456 0.769274 0
M  V30 1223 H 115.434 -3.00816 3.49065 0
M  V30 1224 H 113.749 -2.83619 3.04876 0
M  V30 1225 H 116.346 -5.13654 1.4854 0
M  V30 1226 H 116.689 -4.16229 0.0770282 0
M  V30 1227 H 117.222 -3.605 1.68179 0
M  V30 1228 H 113.961 -4.85168 4.40786 0
M  V30 1229 H 113.481 -5.32433 2.76179 0
M  V30 1230 H 115.16 -5.56097 3.30704 0
M  V30 1231 N 115.292 -0.849877 -1.32721 0
M  V30 1232 C 116.708 -0.539102 -1.50219 0
M  V30 1233 C 116.908 0.931271 -1.78689 0
M  V30 1234 O 115.964 1.71455 -1.85363 0
M  V30 1235 C 117.277 -1.42196 -2.64954 0
M  V30 1236 C 118.825 -1.42189 -2.78839 0
M  V30 1237 C 119.3 -2.28985 -3.96648 0
M  V30 1238 N 120.791 -2.26754 -4.03902 0
M  V30 1239 C 121.526 -2.90644 -4.94281 0
M  V30 1240 N 121.022 -3.63629 -5.897 0
M  V30 1241 N 122.815 -2.80057 -4.87365 0
M  V30 1242 H 114.966 -1.80156 -1.12506 0
M  V30 1243 H 117.229 -0.769217 -0.554085 0
M  V30 1244 H 116.935 -2.46733 -2.50631 0
M  V30 1245 H 116.809 -1.10591 -3.60624 0
M  V30 1246 H 119.196 -0.38419 -2.92588 0
M  V30 1247 H 119.277 -1.77807 -1.83898 0
M  V30 1248 H 118.921 -3.32819 -3.83658 0
M  V30 1249 H 118.851 -1.90702 -4.90857 0
M  V30 1250 H 121.342 -1.73688 -3.3562 0
M  V30 1251 H 121.655 -4.09558 -6.55349 0
M  V30 1252 H 120 -3.67737 -5.89741 0
M  V30 1253 H 123.191 -2.22593 -4.11789 0
M  V30 1254 H 123.364 -3.30132 -5.57599 0
M  V30 1255 N 116.77 1.45427 -0.607355 0
M  V30 1256 C 117.718 2.32269 0.12411 0
M  V30 1257 C 118.712 1.45955 0.859854 0
M  V30 1258 O 119.918 1.6244 0.775447 0
M  V30 1259 H 116.293 0.749691 0.0588839 0
M  V30 1260 H 118.264 2.91743 -0.626762 0
M  V30 1261 C 117.013 3.29567 1.1082 0
M  V30 1262 H 116.336 3.95978 0.551492 0
M  V30 1263 H 117.776 3.93061 1.58995 0
M  V30 1264 C 116.235 2.56722 2.18164 0
M  V30 1265 O 116.765 2.34842 3.25902 0
M  V30 1266 N 114.971 2.16861 1.93442 0
M  V30 1267 H 114.518 2.34855 1.05834 0
M  V30 1268 H 114.476 1.68444 2.65469 0
M  V30 1269 N 118.248 0.346503 1.53744 0
M  V30 1270 C 119.659 -0.136779 1.86198 0
M  V30 1271 C 120.01 -1.49749 1.26766 0
M  V30 1272 O 119.135 -2.08417 0.582355 0
M  V30 1273 C 119.73 -0.254966 3.37839 0
M  V30 1274 C 118.289 -0.682482 3.70161 0
M  V30 1275 C 117.436 0.181981 2.76702 0
M  V30 1276 H 120.387 0.565994 1.48264 0
M  V30 1277 H 120.408 -1.08195 3.64793 0
M  V30 1278 H 119.92 0.735526 3.81066 0
M  V30 1279 H 118.021 -1.68189 3.3248 0
M  V30 1280 H 118.134 -0.470326 4.76786 0
M  V30 1281 H 116.498 -0.34615 2.52337 0
M  V30 1282 H 117.281 1.16966 3.2276 0
M  V30 1283 N 119.726 -1.57421 0.075193 0
M  V30 1284 C 120.974 -1.93236 -0.591974 0
M  V30 1285 C 121.295 -0.956241 -1.69944 0
M  V30 1286 O 120.565 -0.00494792 -1.95899 0
M  V30 1287 H 119.145 -0.713355 -0.22166 0
M  V30 1288 H 121.807 -1.9444 0.133848 0
M  V30 1289 H 120.903 -2.95131 -1.01509 0
M  V30 1290 N 121.204 0.198386 -1.56346 0
M  V30 1291 C 122.451 0.919286 -1.80431 0
M  V30 1292 C 122.779 1.83393 -0.647866 0
M  V30 1293 O 122.034 1.92236 0.366556 0
M  V30 1294 C 122.333 1.77031 -3.10475 0
M  V30 1295 C 121.999 1.00693 -4.39513 0
M  V30 1296 C 120.661 0.796145 -4.74568 0
M  V30 1297 C 123.013 0.469559 -5.19081 0
M  V30 1298 C 120.341 0.0364588 -5.86689 0
M  V30 1299 C 122.693 -0.2769 -6.31994 0
M  V30 1300 C 121.357 -0.49873 -6.65634 0
M  V30 1301 H 120.627 0.336391 -0.660244 0
M  V30 1302 H 123.274 0.185872 -1.90596 0
M  V30 1303 H 121.579 2.5723 -2.95533 0
M  V30 1304 H 123.276 2.33065 -3.26315 0
M  V30 1305 H 119.866 1.18122 -4.12001 0
M  V30 1306 H 124.05 0.619816 -4.92414 0
M  V30 1307 H 119.306 -0.145412 -6.11227 0
M  V30 1308 H 123.48 -0.700684 -6.92866 0
M  V30 1309 H 121.107 -1.0893 -7.52355 0
M  V30 1310 N 122.682 1.50554 0.465978 0
M  V30 1311 C 123.592 1.72585 1.58907 0
M  V30 1312 C 124.608 0.60911 1.6299 0
M  V30 1313 O 125.784 0.88804 1.80765 0
M  V30 1314 C 122.849 1.81995 2.95091 0
M  V30 1315 C 121.91 3.05751 3.01355 0
M  V30 1316 C 121.143 3.14702 4.31043 0
M  V30 1317 O 121.366 2.30313 5.21835 0
M  V30 1318 O 120.3 4.07468 4.43005 0
M  V30 1319 H 124.126 2.67799 1.43239 0
M  V30 1320 H 121.711 1.34711 0.646013 0
M  V30 1321 H 123.593 1.90335 3.75966 0
M  V30 1322 H 122.268 0.899659 3.10947 0
M  V30 1323 H 121.175 3.02908 2.19539 0
M  V30 1324 H 122.508 3.97375 2.90437 0
M  V30 1325 N 124.16 -0.719506 1.40217 0
M  V30 1326 C 125.388 -1.50864 1.41589 0
M  V30 1327 C 125.803 -1.88794 0.0145275 0
M  V30 1328 O 125.16 -1.55174 -0.960594 0
M  V30 1329 C 125.211 -2.78646 2.30302 0
M  V30 1330 O 124.932 -2.42321 3.64983 0
M  V30 1331 C 126.433 -3.72569 2.40224 0
M  V30 1332 H 123.653 -0.465709 0.48307 0
M  V30 1333 H 126.197 -0.88785 1.84221 0
M  V30 1334 H 124.352 -3.37019 1.91042 0
M  V30 1335 H 124.766 -3.24514 4.12057 0
M  V30 1336 H 126.24 -4.5908 3.06512 0
M  V30 1337 H 126.717 -4.15403 1.42608 0
M  V30 1338 H 127.323 -3.20109 2.80019 0
M  V30 1339 N 125.638 -1.25649 -0.95132 0
M  V30 1340 C 126.886 -1.10375 -1.69298 0
M  V30 1341 C 127.207 0.355339 -1.91735 0
M  V30 1342 O 126.477 1.25188 -1.50681 0
M  V30 1343 H 125.057 -0.405461 -0.627384 0
M  V30 1344 H 127.719 -1.57823 -1.14358 0
M  V30 1345 H 126.815 -1.61465 -2.67087 0
M  V30 1346 N 127.117 1.15442 -1.07289 0
M  V30 1347 C 128.394 1.82306 -0.708792 0
M  V30 1348 C 128.774 1.94991 0.808807 0
M  V30 1349 O 128.122 1.50085 1.72298 0
M  V30 1350 C 128.332 3.18695 -1.42247 0
M  V30 1351 C 129.68 3.94341 -1.57417 0
M  V30 1352 O 130.704 3.28247 -1.38319 0
M  V30 1353 O 129.563 5.12839 -1.88834 0
M  V30 1354 H 126.657 0.787628 -0.252132 0
M  V30 1355 H 129.203 1.22559 -1.17377 0
M  V30 1356 H 127.975 3.04557 -2.45684 0
M  V30 1357 H 127.598 3.86128 -0.948223 0
M  V30 1358 N 128.595 0.856903 1.32268 0
M  V30 1359 C 129.525 0.31858 2.31316 0
M  V30 1360 C 130.506 -0.583487 1.59779 0
M  V30 1361 O 131.691 -0.503259 1.87566 0
M  V30 1362 C 128.821 -0.491979 3.43798 0
M  V30 1363 C 127.775 0.315849 4.26833 0
M  V30 1364 C 127.101 -0.619586 5.31098 0
M  V30 1365 C 128.401 1.54282 4.98993 0
M  V30 1366 H 130.095 1.14621 2.76591 0
M  V30 1367 H 127.641 0.552613 1.32974 0
M  V30 1368 H 129.594 -0.879012 4.1213 0
M  V30 1369 H 128.318 -1.35299 2.97257 0
M  V30 1370 H 126.977 0.684664 3.6015 0
M  V30 1371 H 126.625 -1.47751 4.8081 0
M  V30 1372 H 126.325 -0.0830621 5.87541 0
M  V30 1373 H 127.849 -1.00375 6.02293 0
M  V30 1374 H 129.263 1.22796 5.59995 0
M  V30 1375 H 127.66 2.01745 5.65172 0
M  V30 1376 H 128.73 2.30285 4.26728 0
M  V30 1377 N 130.073 -1.45103 0.615059 0
M  V30 1378 C 131.301 -2.06553 0.11977 0
M  V30 1379 C 131.716 -1.45842 -1.19898 0
M  V30 1380 O 131.073 -0.575325 -1.73194 0
M  V30 1381 C 131.124 -3.61495 -0.018364 0
M  V30 1382 O 130.845 -4.19942 1.24822 0
M  V30 1383 C 132.346 -4.39947 -0.544237 0
M  V30 1384 H 129.566 -0.667096 0.0722739 0
M  V30 1385 H 132.11 -1.8623 0.84491 0
M  V30 1386 H 130.265 -3.81135 -0.693865 0
M  V30 1387 H 130.679 -5.13204 1.0827 0
M  V30 1388 H 132.153 -5.48838 -0.589953 0
M  V30 1389 H 132.63 -4.10255 -1.56805 0
M  V30 1390 H 133.236 -4.25188 0.0974703 0
M  V30 1391 N 131.551 -0.354651 -1.53558 0
M  V30 1392 C 132.799 0.237972 -2.00694 0
M  V30 1393 C 133.12 1.50173 -1.24391 0
M  V30 1394 O 132.39 1.92673 -0.354135 0
M  V30 1395 H 130.97 0.0909256 -0.741446 0
M  V30 1396 H 133.632 -0.478368 -1.88938 0
M  V30 1397 H 132.728 0.47264 -3.085 0
M  V30 1398 N 133.029 1.57378 -0.0835403 0
M  V30 1399 C 134.275 1.95025 0.577664 0
M  V30 1400 C 134.63 0.964049 1.66505 0
M  V30 1401 O 133.923 -0.0118235 1.91596 0
M  V30 1402 C 134.117 3.37063 1.1884 0
M  V30 1403 C 133.946 4.49409 0.16171 0
M  V30 1404 C 132.716 5.04642 -0.257756 0
M  V30 1405 C 134.914 5.10722 -0.605634 0
M  V30 1406 N 132.896 6.00537 -1.27393 0
M  V30 1407 C 134.267 6.02225 -1.47395 0
M  V30 1408 C 136.322 4.93501 -0.660418 0
M  V30 1409 C 135.025 6.78355 -2.39221 0
M  V30 1410 C 137.051 5.70283 -1.56623 0
M  V30 1411 C 136.413 6.61444 -2.4222 0
M  V30 1412 H 132.512 0.760512 0.182058 0
M  V30 1413 H 135.096 1.94013 -0.163419 0
M  V30 1414 H 133.267 3.3879 1.89936 0
M  V30 1415 H 134.999 3.61917 1.81103 0
M  V30 1416 H 131.754 4.73428 0.127702 0
M  V30 1417 H 132.178 6.53184 -1.77987 0
M  V30 1418 H 136.82 4.22798 -0.0128221 0
M  V30 1419 H 134.538 7.48327 -3.05011 0
M  V30 1420 H 138.124 5.58976 -1.61361 0
M  V30 1421 H 137.004 7.1982 -3.11174 0
M  V30 1422 N 134.507 -0.190092 1.56449 0
M  V30 1423 C 135.735 -0.925772 1.85033 0
M  V30 1424 C 136.15 -1.76638 0.666658 0
M  V30 1425 O 135.507 -1.78822 -0.364565 0
M  V30 1426 C 135.558 -1.81786 3.12468 0
M  V30 1427 O 135.279 -1.01118 4.26271 0
M  V30 1428 C 136.78 -2.6648 3.54265 0
M  V30 1429 H 134 -0.269872 0.614337 0
M  V30 1430 H 136.544 -0.195837 2.0356 0
M  V30 1431 H 134.699 -2.50136 2.95822 0
M  V30 1432 H 135.113 -1.61956 4.98869 0
M  V30 1433 H 136.587 -3.24722 4.46385 0
M  V30 1434 H 137.064 -3.40434 2.77491 0
M  V30 1435 H 137.67 -2.03493 3.73458 0
M  V30 1436 N 135.985 -1.50799 -0.457987 0
M  V30 1437 C 137.231 -1.62683 -1.21088 0
M  V30 1438 C 137.564 -0.332268 -1.91336 0
M  V30 1439 O 136.839 0.667043 -1.82704 0
M  V30 1440 C 137.122 -2.81615 -2.24422 0
M  V30 1441 C 136.975 -4.20989 -1.58392 0
M  V30 1442 C 138.294 -2.96085 -3.2561 0
M  V30 1443 H 135.413 -0.592087 -0.438864 0
M  V30 1444 H 138.055 -1.83225 -0.50286 0
M  V30 1445 H 136.205 -2.64231 -2.84806 0
M  V30 1446 H 137.877 -4.49994 -1.01504 0
M  V30 1447 H 136.12 -4.24641 -0.886704 0
M  V30 1448 H 136.791 -5.0016 -2.33547 0
M  V30 1449 H 139.267 -3.12042 -2.75262 0
M  V30 1450 H 138.143 -3.80902 -3.95228 0
M  V30 1451 H 138.404 -2.0726 -3.90507 0
M  V30 1452 N 137.463 0.71206 -1.40597 0
M  V30 1453 C 138.712 1.46754 -1.38369 0
M  V30 1454 C 139.025 1.95598 0.0097839 0
M  V30 1455 O 140.231 2.71059 0.154677 0
M  V30 1456 C 138.687 2.65289 -2.43207 0
M  V30 1457 C 138.295 2.23301 -3.88382 0
M  V30 1458 C 140.039 3.43008 -2.50091 0
M  V30 1459 C 137.946 3.38696 -4.84808 0
M  V30 1460 H 136.876 0.55118 -0.514506 0
M  V30 1461 H 139.527 0.774616 -1.66349 0
M  V30 1462 H 137.909 3.36769 -2.08332 0
M  V30 1463 H 139.083 1.59218 -4.32419 0
M  V30 1464 H 137.398 1.58618 -3.85006 0
M  V30 1465 H 139.995 4.28881 -3.1932 0
M  V30 1466 H 140.338 3.87065 -1.53253 0
M  V30 1467 H 140.871 2.78574 -2.83974 0
M  V30 1468 H 137.61 2.99668 -5.82992 0
M  V30 1469 H 137.13 4.01683 -4.45433 0
M  V30 1470 H 138.809 4.04712 -5.04794 0
M  V30 1471 N 138.941 1.26152 0.944643 0
M  V30 1472 C 139.888 1.07408 2.04285 0
M  V30 1473 C 140.858 -0.0198413 1.66088 0
M  V30 1474 O 142.043 0.139264 1.90291 0
M  V30 1475 C 139.183 0.70945 3.37729 0
M  V30 1476 C 138.296 1.87926 3.88983 0
M  V30 1477 C 137.431 1.45807 5.10797 0
M  V30 1478 C 136.47 2.5964 5.54305 0
M  V30 1479 N 135.607 2.18226 6.67324 0
M  V30 1480 H 140.447 2.01389 2.1965 0
M  V30 1481 H 137.984 1.00275 1.07626 0
M  V30 1482 H 139.942 0.478948 4.14442 0
M  V30 1483 H 138.572 -0.193389 3.2222 0
M  V30 1484 H 137.624 2.22279 3.08701 0
M  V30 1485 H 138.936 2.73377 4.17213 0
M  V30 1486 H 138.09 1.18781 5.94959 0
M  V30 1487 H 136.829 0.574414 4.84305 0
M  V30 1488 H 135.834 2.87399 4.68702 0
M  V30 1489 H 137.059 3.48599 5.828 0
M  V30 1490 H 135.005 1.3229 6.42523 0
M  V30 1491 H 134.922 2.97221 6.95123 0
M  V30 1492 H 136.19 1.94403 7.54869 0
M  V30 1493 N 140.419 -1.14872 1.07899 0
M  V30 1494 C 141.667 -1.85422 0.803941 0
M  V30 1495 C 141.988 -1.83051 -0.67211 0
M  V30 1496 O 141.258 -1.27532 -1.48703 0
M  V30 1497 H 139.838 -0.686537 0.294408 0
M  V30 1498 H 142.5 -1.39226 1.3639 0
M  V30 1499 H 141.596 -2.90399 1.14346 0
M  V30 1500 N 141.898 -0.863906 -1.31812 0
M  V30 1501 C 143.175 -0.39275 -1.91616 0
M  V30 1502 C 143.555 1.12461 -1.7865 0
M  V30 1503 O 142.903 1.95045 -1.19037 0
M  V30 1504 C 143.113 -0.867385 -3.38049 0
M  V30 1505 C 144.461 -0.889966 -4.15168 0
M  V30 1506 O 145.485 -0.812635 -3.46806 0
M  V30 1507 O 144.344 -1.00079 -5.37258 0
M  V30 1508 H 141.438 -0.116358 -0.818773 0
M  V30 1509 H 143.984 -0.951418 -1.40521 0
M  V30 1510 H 142.756 -1.91081 -3.41473 0
M  V30 1511 H 142.379 -0.286687 -3.96565 0
M  V30 1512 N 143.376 1.44774 -0.622745 0
M  V30 1513 C 144.339 2.29069 0.0774015 0
M  V30 1514 C 145.339 1.4059 0.780461 0
M  V30 1515 O 146.529 1.62551 0.626322 0
M  V30 1516 C 143.661 3.21974 1.12006 0
M  V30 1517 H 144.854 2.92459 -0.663901 0
M  V30 1518 H 142.407 1.51548 -0.382486 0
M  V30 1519 H 143.142 2.63417 1.89162 0
M  V30 1520 H 142.927 3.87168 0.619951 0
M  V30 1521 H 144.417 3.85318 1.60995 0
M  V30 1522 N 144.854 0.36279 1.53368 0
M  V30 1523 C 146.101 -0.227776 2.01215 0
M  V30 1524 C 146.429 -1.49003 1.25014 0
M  V30 1525 O 145.684 -1.92876 0.331236 0
M  V30 1526 C 145.983 -0.568417 3.52851 0
M  V30 1527 C 145.649 0.59918 4.46901 0
M  V30 1528 C 144.311 0.919559 4.72332 0
M  V30 1529 C 146.663 1.38156 5.02556 0
M  V30 1530 C 143.991 2.02434 5.5067 0
M  V30 1531 C 146.343 2.47674 5.821 0
M  V30 1532 C 145.007 2.8025 6.05819 0
M  V30 1533 H 144.277 -0.083349 0.736297 0
M  V30 1534 H 146.924 0.494677 1.85001 0
M  V30 1535 H 145.229 -1.37185 3.66998 0
M  V30 1536 H 146.926 -1.03756 3.87344 0
M  V30 1537 H 143.516 0.339437 4.27254 0
M  V30 1538 H 147.7 1.14729 4.82857 0
M  V30 1539 H 142.956 2.28075 5.67267 0
M  V30 1540 H 147.13 3.08716 6.24234 0
M  V30 1541 H 144.757 3.65979 6.66306 0
M  V30 1542 N 146.332 -1.57332 0.0918853 0
M  V30 1543 C 147.58 -1.93853 -0.571446 0
M  V30 1544 C 147.901 -0.974212 -1.6892 0
M  V30 1545 O 147.171 -0.0257254 -1.95883 0
M  V30 1546 H 145.751 -0.715666 -0.214082 0
M  V30 1547 H 148.413 -1.94287 0.154464 0
M  V30 1548 H 147.509 -2.96191 -0.983729 0
M  V30 1549 N 147.81 0.181792 -1.56548 0
M  V30 1550 C 149.221 0.745244 -1.71181 0
M  V30 1551 C 149.572 1.83262 -0.70068 0
M  V30 1552 O 148.697 2.15946 0.140154 0
M  V30 1553 C 149.292 1.35859 -3.10367 0
M  V30 1554 C 147.851 1.86898 -3.2672 0
M  V30 1555 C 146.998 0.743942 -2.67134 0
M  V30 1556 H 149.949 -0.0434661 -1.5864 0
M  V30 1557 H 149.97 2.22817 -3.08436 0
M  V30 1558 H 149.482 0.566948 -3.83937 0
M  V30 1559 H 147.583 2.68738 -2.5809 0
M  V30 1560 H 147.696 2.02162 -4.34359 0
M  V30 1561 H 146.06 1.16169 -2.26665 0
M  V30 1562 H 146.843 -0.035676 -3.43281 0
M  V30 1563 N 149.288 1.51039 0.449983 0
M  V30 1564 C 150.236 1.71995 1.5659 0
M  V30 1565 C 151.23 0.586029 1.5894 0
M  V30 1566 O 152.436 0.76709 1.62837 0
M  V30 1567 H 148.811 0.543233 0.520001 0
M  V30 1568 H 150.782 2.65562 1.36085 0
M  V30 1569 C 149.531 1.8506 2.9436 0
M  V30 1570 H 148.854 2.71712 2.93279 0
M  V30 1571 H 150.294 2.0374 3.71842 0
M  V30 1572 C 148.753 0.607277 3.31382 0
M  V30 1573 O 149.283 -0.243903 4.00959 0
M  V30 1574 N 147.489 0.455073 2.87015 0
M  V30 1575 H 147.036 1.14879 2.30566 0
M  V30 1576 H 146.994 -0.375611 3.12148 0
M  V30 1577 N 150.766 -0.704594 1.40972 0
M  V30 1578 C 151.991 -1.49858 1.43378 0
M  V30 1579 C 152.416 -1.88061 0.038184 0
M  V30 1580 O 151.774 -1.5402 -0.956425 0
M  V30 1581 C 151.822 -2.74333 2.34038 0
M  V30 1582 O 150.926 -3.7147 1.7912 0
M  V30 1583 H 150.267 -0.45139 0.486974 0
M  V30 1584 H 152.797 -0.866832 1.8533 0
M  V30 1585 H 152.807 -3.22741 2.49604 0
M  V30 1586 H 151.482 -2.45863 3.35446 0
M  V30 1587 H 150.059 -3.30363 1.72958 0
M  V30 1588 N 152.244 -1.26651 -0.937939 0
M  V30 1589 C 153.49 -1.12553 -1.687 0
M  V30 1590 C 153.823 0.329782 -1.91379 0
M  V30 1591 O 153.098 1.24202 -1.4968 0
M  V30 1592 C 153.381 -1.89862 -3.05981 0
M  V30 1593 C 153.234 -3.43318 -2.90607 0
M  V30 1594 C 154.553 -1.69499 -4.0615 0
M  V30 1595 H 151.672 -0.410257 -0.612257 0
M  V30 1596 H 154.314 -1.55685 -1.08913 0
M  V30 1597 H 152.464 -1.53204 -3.57017 0
M  V30 1598 H 154.136 -3.89747 -2.46769 0
M  V30 1599 H 152.379 -3.70179 -2.26164 0
M  V30 1600 H 153.05 -3.92642 -3.8799 0
M  V30 1601 H 155.526 -2.01442 -3.64088 0
M  V30 1602 H 154.402 -2.26002 -5.00214 0
M  V30 1603 H 154.663 -0.640365 -4.37438 0
M  V30 1604 N 153.722 1.14298 -1.08507 0
M  V30 1605 C 154.95 1.89219 -0.836876 0
M  V30 1606 C 155.365 1.78638 0.611054 0
M  V30 1607 O 154.722 1.14643 1.41998 0
M  V30 1608 C 154.773 3.39158 -1.25116 0
M  V30 1609 O 154.494 3.49449 -2.64229 0
M  V30 1610 C 155.995 4.31073 -1.03398 0
M  V30 1611 H 153.215 0.599328 -0.301739 0
M  V30 1612 H 155.759 1.44746 -1.44461 0
M  V30 1613 H 153.914 3.81251 -0.687514 0
M  V30 1614 H 154.328 4.42589 -2.81452 0
M  V30 1615 H 155.802 5.34646 -1.37323 0
M  V30 1616 H 156.279 4.3919 0.0289259 0
M  V30 1617 H 156.885 3.94738 -1.58311 0
M  V30 1618 N 155.201 0.870884 1.31352 0
M  V30 1619 C 156.478 0.402907 1.91405 0
M  V30 1620 C 156.858 -1.11512 1.79244 0
M  V30 1621 O 156.206 -1.94411 1.2007 0
M  V30 1622 C 156.416 0.885301 3.37585 0
M  V30 1623 C 157.764 0.911971 4.14691 0
M  V30 1624 O 158.788 0.831016 3.46371 0
M  V30 1625 O 157.647 1.02927 5.3672 0
M  V30 1626 H 154.741 0.120698 0.818145 0
M  V30 1627 H 157.287 0.958857 1.40014 0
M  V30 1628 H 156.059 1.92889 3.40455 0
M  V30 1629 H 155.682 0.307714 3.96407 0
M  V30 1630 N 156.679 -1.44442 0.630414 0
M  V30 1631 C 157.589 -2.34476 -0.0761693 0
M  V30 1632 C 158.605 -1.52576 -0.836449 0
M  V30 1633 O 159.781 -1.85307 -0.788874 0
M  V30 1634 C 156.846 -3.30545 -1.04599 0
M  V30 1635 C 155.907 -4.28352 -0.28516 0
M  V30 1636 C 155.14 -5.19831 -1.20878 0
M  V30 1637 O 155.363 -5.15223 -2.44747 0
M  V30 1638 O 154.297 -5.97892 -0.693491 0
M  V30 1639 H 158.123 -2.96345 0.664324 0
M  V30 1640 H 155.708 -1.44203 0.39061 0
M  V30 1641 H 157.59 -3.89681 -1.60396 0
M  V30 1642 H 156.265 -2.7121 -1.76711 0
M  V30 1643 H 155.172 -3.72764 0.315837 0
M  V30 1644 H 156.505 -4.90605 0.395924 0
M  V30 1645 N 158.157 -0.370918 -1.53173 0
M  V30 1646 C 159.385 0.217704 -2.05751 0
M  V30 1647 C 159.8 1.42018 -1.24404 0
M  V30 1648 O 159.157 1.80245 -0.286033 0
M  V30 1649 C 159.208 0.605954 -3.56385 0
M  V30 1650 O 158.929 -0.548734 -4.3465 0
M  V30 1651 C 160.43 1.2524 -4.25241 0
M  V30 1652 H 157.65 0.0371659 -0.66997 0
M  V30 1653 H 160.194 -0.530832 -1.9749 0
M  V30 1654 H 158.349 1.3044 -3.6478 0
M  V30 1655 H 158.763 -0.23376 -5.23979 0
M  V30 1656 H 160.237 1.47458 -5.3194 0
M  V30 1657 H 160.714 2.2143 -3.79296 0
M  V30 1658 H 161.32 0.595233 -4.21114 0
M  V30 1659 N 159.635 1.57281 -0.100228 0
M  V30 1660 C 160.863 1.98879 0.570509 0
M  V30 1661 C 161.278 0.979476 1.61405 0
M  V30 1662 O 160.635 -0.0302288 1.82475 0
M  V30 1663 C 160.686 3.4052 1.2136 0
M  V30 1664 O 160.407 4.37588 0.211786 0
M  V30 1665 C 161.908 3.97149 1.96945 0
M  V30 1666 H 159.128 0.653428 0.152555 0
M  V30 1667 H 161.672 2.03697 -0.18103 0
M  V30 1668 H 159.827 3.367 1.91603 0
M  V30 1669 H 160.241 5.20118 0.676607 0
M  V30 1670 H 161.715 4.98393 2.37294 0
M  V30 1671 H 162.192 3.3525 2.83733 0
M  V30 1672 H 162.798 4.04458 1.31506 0
M  V30 1673 N 161.113 -0.173488 1.56642 0
M  V30 1674 C 162.359 -0.887108 1.83035 0
M  V30 1675 C 162.714 -1.79965 0.680461 0
M  V30 1676 O 162.007 -1.88854 -0.323225 0
M  V30 1677 C 162.201 -1.72069 3.13252 0
M  V30 1678 C 162.03 -0.89035 4.40798 0
M  V30 1679 C 160.8 -0.566282 5.02117 0
M  V30 1680 C 162.998 -0.232921 5.13772 0
M  V30 1681 N 160.98 0.280427 6.13259 0
M  V30 1682 C 162.351 0.475046 6.18177 0
M  V30 1683 C 164.406 -0.150863 4.97671 0
M  V30 1684 C 163.109 1.25729 7.08227 0
M  V30 1685 C 165.135 0.618039 5.88162 0
M  V30 1686 C 164.497 1.31438 6.92029 0
M  V30 1687 H 160.596 -0.303303 0.720785 0
M  V30 1688 H 163.18 -0.154244 1.94088 0
M  V30 1689 H 161.351 -2.42499 3.03395 0
M  V30 1690 H 163.083 -2.37545 3.2765 0
M  V30 1691 H 159.838 -0.895852 4.6505 0
M  V30 1692 H 160.262 0.694027 6.73433 0
M  V30 1693 H 164.904 -0.674868 4.17379 0
M  V30 1694 H 162.622 1.79265 7.87966 0
M  V30 1695 H 166.208 0.683173 5.77775 0
M  V30 1696 H 165.088 1.89981 7.6084 0
M  V30 1697 N 162.591 -1.51276 -0.441967 0
M  V30 1698 C 163.837 -1.6492 -1.1905 0
M  V30 1699 C 164.192 -0.358731 -1.89026 0
M  V30 1700 O 163.485 0.645193 -1.8041 0
M  V30 1701 C 163.679 -2.78746 -2.23686 0
M  V30 1702 C 163.508 -4.18737 -1.63979 0
M  V30 1703 C 162.278 -4.84739 -1.42674 0
M  V30 1704 C 164.476 -5.01988 -1.11858 0
M  V30 1705 N 162.458 -6.08858 -0.785159 0
M  V30 1706 C 163.829 -6.17071 -0.601989 0
M  V30 1707 C 165.884 -4.87551 -1.0099 0
M  V30 1708 C 164.587 -7.19299 0.0126012 0
M  V30 1709 C 166.613 -5.89983 -0.409206 0
M  V30 1710 C 165.975 -7.04333 0.0968651 0
M  V30 1711 H 162.074 -0.657416 -0.423471 0
M  V30 1712 H 164.658 -1.8849 -0.48782 0
M  V30 1713 H 162.829 -2.56848 -2.91348 0
M  V30 1714 H 164.561 -2.81595 -2.90666 0
M  V30 1715 H 161.316 -4.42528 -1.68719 0
M  V30 1716 H 161.74 -6.75282 -0.481942 0
M  V30 1717 H 166.382 -3.99401 -1.38703 0
M  V30 1718 H 164.1 -8.071 0.401879 0
M  V30 1719 H 167.686 -5.8088 -0.327079 0
M  V30 1720 H 166.566 -7.82238 0.554373 0
M  V30 1721 N 164.069 0.697108 -1.41344 0
M  V30 1722 C 165.032 1.79281 -1.42797 0
M  V30 1723 C 166.032 1.57607 -0.318837 0
M  V30 1724 O 167.222 1.64309 -0.578642 0
M  V30 1725 C 164.354 3.17632 -1.23785 0
M  V30 1726 H 165.547 1.79385 -2.40335 0
M  V30 1727 H 163.1 0.904582 -1.27464 0
M  V30 1728 H 163.835 3.23167 -0.270814 0
M  V30 1729 H 163.62 3.34765 -2.04144 0
M  V30 1730 H 165.11 3.97617 -1.27633 0
M  V30 1731 N 165.547 1.27147 0.931209 0
M  V30 1732 C 166.457 1.11372 2.06478 0
M  V30 1733 C 167.473 0.044645 1.73943 0
M  V30 1734 O 168.649 0.250417 1.99837 0
M  V30 1735 C 165.714 0.758838 3.38294 0
M  V30 1736 C 164.775 1.90841 3.84549 0
M  V30 1737 C 164.008 1.57036 5.10074 0
M  V30 1738 O 164.231 0.476645 5.68405 0
M  V30 1739 O 163.165 2.40839 5.51616 0
M  V30 1740 H 166.991 2.06493 2.22698 0
M  V30 1741 H 164.576 1.06301 1.04978 0
M  V30 1742 H 166.458 0.574098 4.17471 0
M  V30 1743 H 165.133 -0.162879 3.2329 0
M  V30 1744 H 164.04 2.14819 3.06274 0
M  V30 1745 H 165.373 2.81021 4.04089 0
M  V30 1746 N 167.025 -1.13721 1.09112 0
M  V30 1747 C 167.972 -2.19031 0.727591 0
M  V30 1748 C 168.942 -1.63555 -0.289656 0
M  V30 1749 O 170.127 -1.90023 -0.172026 0
M  V30 1750 C 167.267 -3.4477 0.15082 0
M  V30 1751 C 166.38 -4.14365 1.22172 0
M  V30 1752 C 165.515 -5.27709 0.608042 0
M  V30 1753 C 164.554 -5.89147 1.66047 0
M  V30 1754 N 163.691 -6.93929 1.06806 0
M  V30 1755 H 168.531 -2.49475 1.62991 0
M  V30 1756 H 166.068 -1.22499 0.81439 0
M  V30 1757 H 168.026 -4.16714 -0.201358 0
M  V30 1758 H 166.656 -3.14787 -0.714783 0
M  V30 1759 H 165.708 -3.40737 1.69122 0
M  V30 1760 H 167.02 -4.56114 2.01895 0
M  V30 1761 H 166.174 -6.06355 0.204523 0
M  V30 1762 H 164.913 -4.872 -0.220769 0
M  V30 1763 H 163.918 -5.09198 2.07357 0
M  V30 1764 H 165.143 -6.31729 2.49189 0
M  V30 1765 H 163.089 -6.55483 0.260476 0
M  V30 1766 H 163.006 -7.34202 1.8023 0
M  V30 1767 H 164.274 -7.76434 0.690644 0
M  V30 1768 N 168.503 -0.877838 -1.30888 0
M  V30 1769 C 169.752 -0.488793 -1.95688 0
M  V30 1770 C 170.065 0.965485 -1.70111 0
M  V30 1771 O 171.271 1.46104 -2.28836 0
M  V30 1772 C 169.727 -0.823201 -3.50359 0
M  V30 1773 C 169.335 -2.29477 -3.84765 0
M  V30 1774 C 171.079 -0.503009 -4.21509 0
M  V30 1775 C 168.986 -2.57118 -5.32583 0
M  V30 1776 H 167.916 -0.179062 -0.732429 0
M  V30 1777 H 170.567 -1.07183 -1.48943 0
M  V30 1778 H 168.949 -0.169331 -3.95638 0
M  V30 1779 H 170.123 -2.99236 -3.5042 0
M  V30 1780 H 168.438 -2.58178 -3.267 0
M  V30 1781 H 171.035 -0.68665 -5.30273 0
M  V30 1782 H 171.378 0.557109 -4.12555 0
M  V30 1783 H 171.911 -1.11376 -3.8189 0
M  V30 1784 H 168.65 -3.61843 -5.4658 0
M  V30 1785 H 168.17 -1.91961 -5.68253 0
M  V30 1786 H 169.849 -2.42251 -5.99936 0
M  V30 1787 N 169.982 1.44106 -0.638065 0
M  V30 1788 C 171.393 1.85316 -0.226894 0
M  V30 1789 C 171.744 1.53399 1.22324 0
M  V30 1790 O 170.869 0.975463 1.93167 0
M  V30 1791 C 171.464 3.3637 -0.405013 0
M  V30 1792 C 170.023 3.76369 -0.0482902 0
M  V30 1793 C 169.17 2.67921 -0.715108 0
M  V30 1794 H 172.121 1.34474 -0.842764 0
M  V30 1795 H 172.142 3.7885 0.354 0
M  V30 1796 H 171.654 3.59569 -1.46053 0
M  V30 1797 H 169.755 3.58784 1.00522 0
M  V30 1798 H 169.868 4.76856 -0.463187 0
M  V30 1799 H 168.232 2.54259 -0.149753 0
M  V30 1800 H 169.015 2.93951 -1.77335 0
M  V30 1801 N 171.46 0.379036 1.52974 0
M  V30 1802 C 172.69 -0.20649 2.05566 0
M  V30 1803 C 173.098 -1.41906 1.25137 0
M  V30 1804 O 172.441 -1.81421 0.288464 0
M  V30 1805 C 172.503 -0.651086 3.53555 0
M  V30 1806 C 172.167 0.446626 4.54812 0
M  V30 1807 C 173.164 1.30079 5.03364 0
M  V30 1808 C 170.849 0.610719 4.98573 0
M  V30 1809 C 172.843 2.30426 5.94292 0
M  V30 1810 C 170.53 1.61754 5.89304 0
M  V30 1811 C 171.528 2.46274 6.37054 0
M  V30 1812 O 171.216 3.45237 7.25994 0
M  V30 1813 H 170.948 -0.0372381 0.674974 0
M  V30 1814 H 173.502 0.539718 1.98182 0
M  V30 1815 H 171.732 -1.44911 3.58522 0
M  V30 1816 H 173.421 -1.16112 3.88938 0
M  V30 1817 H 174.187 1.18527 4.70294 0
M  V30 1818 H 170.066 -0.0374044 4.60985 0
M  V30 1819 H 173.61 2.96432 6.31485 0
M  V30 1820 H 169.507 1.73348 6.21788 0
M  V30 1821 H 170.275 3.41124 7.44027 0
M  V30 1822 N 172.938 -1.57226 0.108567 0
M  V30 1823 C 173.886 -2.16002 -0.862885 0
M  V30 1824 C 174.88 -1.10644 -1.28274 0
M  V30 1825 O 176.086 -1.28966 -1.2557 0
M  V30 1826 H 172.461 -0.691148 -0.296342 0
M  V30 1827 H 174.432 -2.96427 -0.342575 0
M  V30 1828 C 173.181 -2.76576 -2.10716 0
M  V30 1829 H 172.504 -3.5734 -1.793 0
M  V30 1830 H 173.944 -3.21253 -2.76717 0
M  V30 1831 C 172.403 -1.73137 -2.89007 0
M  V30 1832 O 172.933 -1.17842 -3.84026 0
M  V30 1833 N 171.139 -1.43317 -2.52801 0
M  V30 1834 H 170.686 -1.88473 -1.75601 0
M  V30 1835 H 170.644 -0.743485 -3.05483 0
M  V30 1836 N 174.416 0.165178 -1.56732 0
M  V30 1837 C 175.348 1.22911 -1.93457 0
M  V30 1838 C 176.361 1.40152 -0.828333 0
M  V30 1839 O 177.55 1.40046 -1.10677 0
M  V30 1840 C 174.65 2.59686 -2.17753 0
M  V30 1841 C 173.823 2.63663 -3.48999 0
M  V30 1842 C 172.882 3.81845 -3.62051 0
M  V30 1843 O 171.908 3.67559 -4.34613 0
M  V30 1844 N 173.11 4.98557 -2.97357 0
M  V30 1845 H 175.875 0.917118 -2.85323 0
M  V30 1846 H 173.436 0.354895 -1.57962 0
M  V30 1847 H 175.428 3.37225 -2.23743 0
M  V30 1848 H 173.998 2.83251 -1.32242 0
M  V30 1849 H 173.218 1.72173 -3.54612 0
M  V30 1850 H 174.506 2.63336 -4.35352 0
M  V30 1851 H 173.904 5.13065 -2.38287 0
M  V30 1852 H 172.461 5.73936 -3.08934 0
M  V30 1853 N 175.894 1.51508 0.433938 0
M  V30 1854 C 176.804 1.75917 1.5521 0
M  V30 1855 C 177.82 0.643545 1.61662 0
M  V30 1856 O 178.996 0.926183 1.7884 0
M  V30 1857 C 176.061 1.88213 2.91164 0
M  V30 1858 C 175.122 3.12074 2.94802 0
M  V30 1859 C 174.355 3.23774 4.24271 0
M  V30 1860 O 174.578 2.4133 5.16833 0
M  V30 1861 O 173.512 4.16774 4.34262 0
M  V30 1862 H 177.338 2.70777 1.37527 0
M  V30 1863 H 174.923 1.36051 0.617293 0
M  V30 1864 H 176.805 1.98267 3.71845 0
M  V30 1865 H 175.48 0.965413 3.08968 0
M  V30 1866 H 174.387 3.07497 2.13065 0
M  V30 1867 H 175.72 4.03446 2.81943 0
M  V30 1868 N 177.372 -0.689602 1.41712 0
M  V30 1869 C 178.62 -1.4468 1.4111 0
M  V30 1870 C 178.941 -1.94986 0.0232196 0
M  V30 1871 O 178.211 -1.72097 -0.935913 0
M  V30 1872 H 176.791 -0.536847 0.519427 0
M  V30 1873 H 179.453 -0.815825 1.77004 0
M  V30 1874 H 178.549 -2.30706 2.10193 0
M  V30 1875 N 178.85 -1.27639 -0.924453 0
M  V30 1876 C 179.813 -1.10681 -2.00705 0
M  V30 1877 C 180.813 -0.0497823 -1.60723 0
M  V30 1878 O 182.003 -0.294654 -1.7169 0
M  V30 1879 C 179.135 -0.687164 -3.33902 0
M  V30 1880 H 180.328 -2.06817 -2.17179 0
M  V30 1881 H 177.881 -1.10473 -1.10569 0
M  V30 1882 H 178.616 0.275439 -3.23128 0
M  V30 1883 H 178.401 -1.45061 -3.6428 0
M  V30 1884 H 179.891 -0.590853 -4.13399 0
M  V30 1885 N 180.328 1.1314 -1.09713 0
M  V30 1886 C 181.558 1.88048 -0.855656 0
M  V30 1887 C 181.966 1.79537 0.596919 0
M  V30 1888 O 181.309 1.16196 1.42282 0
M  V30 1889 C 181.371 3.38314 -1.21589 0
M  V30 1890 C 181.035 3.70605 -2.67397 0
M  V30 1891 C 182.032 3.69596 -3.65643 0
M  V30 1892 C 179.717 4.0017 -3.03593 0
M  V30 1893 C 181.711 3.977 -4.9811 0
M  V30 1894 C 179.398 4.27935 -4.36251 0
M  V30 1895 C 180.396 4.26685 -5.33318 0
M  V30 1896 O 180.084 4.53767 -6.63589 0
M  V30 1897 H 179.816 0.60208 -0.307368 0
M  V30 1898 H 182.37 1.44128 -1.46343 0
M  V30 1899 H 180.6 3.82752 -0.551177 0
M  V30 1900 H 182.289 3.94552 -0.953083 0
M  V30 1901 H 183.055 3.46826 -3.39023 0
M  V30 1902 H 178.934 4.00289 -2.2867 0
M  V30 1903 H 182.478 3.9664 -5.73866 0
M  V30 1904 H 178.375 4.50178 -4.62613 0
M  V30 1905 H 179.143 4.71422 -6.69107 0
M  V30 1906 N 181.806 0.884767 1.30421 0
M  V30 1907 C 182.756 0.322846 2.25703 0
M  V30 1908 C 183.74 -0.548582 1.51259 0
M  V30 1909 O 184.932 -0.39304 1.72581 0
M  V30 1910 C 182.061 -0.461787 3.4018 0
M  V30 1911 C 181.147 0.423717 4.21978 0
M  V30 1912 N 181.538 1.52408 4.82292 0
M  V30 1913 C 179.836 0.218795 4.45463 0
M  V30 1914 C 180.537 2.07136 5.43571 0
M  V30 1915 N 179.513 1.36635 5.26148 0
M  V30 1916 H 183.315 1.16363 2.69883 0
M  V30 1917 H 180.829 0.73415 1.44859 0
M  V30 1918 H 182.826 -0.880985 4.07485 0
M  V30 1919 H 181.486 -1.30001 2.9754 0
M  V30 1920 H 182.497 1.90693 4.81515 0
M  V30 1921 H 179.174 -0.582275 4.1342 0
M  V30 1922 H 180.564 2.99538 6.01437 0
M  V30 1923 N 183.284 -1.43765 0.645699 0
M  V30 1924 C 184.214 -2.33471 -0.0370477 0
M  V30 1925 C 185.195 -1.49042 -0.819779 0
M  V30 1926 O 186.38 -1.77726 -0.782758 0
M  V30 1927 C 183.51 -3.32311 -1.0093 0
M  V30 1928 C 182.464 -4.2667 -0.337201 0
M  V30 1929 C 181.79 -5.1549 -1.42037 0
M  V30 1930 C 183.09 -5.16657 0.765706 0
M  V30 1931 H 184.784 -2.90809 0.712069 0
M  V30 1932 H 182.33 -1.39834 0.343876 0
M  V30 1933 H 184.283 -3.9396 -1.49578 0
M  V30 1934 H 183.007 -2.73213 -1.78948 0
M  V30 1935 H 181.666 -3.66374 0.128771 0
M  V30 1936 H 181.314 -4.52735 -2.1918 0
M  V30 1937 H 181.014 -5.79438 -0.975966 0
M  V30 1938 H 182.538 -5.80012 -1.90838 0
M  V30 1939 H 183.952 -5.72158 0.361702 0
M  V30 1940 H 182.349 -5.89286 1.13413 0
M  V30 1941 H 183.419 -4.56796 1.62683 0
M  V30 1942 N 184.763 -0.387143 -1.52771 0
M  V30 1943 C 185.711 0.463953 -2.27926 0
M  V30 1944 C 186.705 1.06493 -1.31741 0
M  V30 1945 O 187.911 1.00565 -1.49287 0
M  V30 1946 H 184.286 0.16837 -0.732909 0
M  V30 1947 H 186.257 -0.19141 -2.97785 0
M  V30 1948 C 185.006 1.5803 -3.09713 0
M  V30 1949 H 184.329 1.12718 -3.83581 0
M  V30 1950 H 185.769 2.15008 -3.65442 0
M  V30 1951 C 184.228 2.53509 -2.2189 0
M  V30 1952 O 184.758 3.56863 -1.84422 0
M  V30 1953 N 182.964 2.23199 -1.86093 0
M  V30 1954 H 182.511 1.39185 -2.16761 0
M  V30 1955 H 182.469 2.87333 -1.27621 0
M  V30 1956 N 186.241 1.57166 -0.116904 0
M  V30 1957 C 187.489 1.94737 0.540533 0
M  V30 1958 C 187.81 1.00096 1.67349 0
M  V30 1959 O 187.08 0.0568854 1.95817 0
M  V30 1960 H 185.66 0.718981 0.202669 0
M  V30 1961 H 188.322 1.94017 -0.185353 0
M  V30 1962 H 187.418 2.97719 0.936483 0
M  V30 1963 N 187.719 -0.156864 1.56817 0
M  V30 1964 C 188.965 -0.867645 1.83966 0
M  V30 1965 C 189.32 -1.79233 0.699511 0
M  V30 1966 O 188.613 -1.89186 -0.303176 0
M  V30 1967 C 188.807 -1.68737 3.1506 0
M  V30 1968 C 188.636 -0.843548 4.41718 0
M  V30 1969 C 187.406 -0.512994 5.02689 0
M  V30 1970 C 189.604 -0.178416 5.1399 0
M  V30 1971 N 187.586 0.345456 6.12927 0
M  V30 1972 C 188.957 0.540586 6.17639 0
M  V30 1973 C 191.012 -0.0980696 4.97803 0
M  V30 1974 C 189.715 1.33233 7.06853 0
M  V30 1975 C 191.741 0.680387 5.87473 0
M  V30 1976 C 191.103 1.3877 6.90596 0
M  V30 1977 H 187.202 -0.295642 0.723961 0
M  V30 1978 H 189.786 -0.13365 1.94241 0
M  V30 1979 H 187.957 -2.39268 3.0595 0
M  V30 1980 H 189.689 -2.34056 3.30151 0
M  V30 1981 H 186.444 -0.846476 4.65974 0
M  V30 1982 H 186.868 0.765415 6.72659 0
M  V30 1983 H 191.51 -0.630562 4.18071 0
M  V30 1984 H 189.228 1.87612 7.8602 0
M  V30 1985 H 192.814 0.744415 5.77018 0
M  V30 1986 H 191.694 1.9804 7.58782 0
M  V30 1987 N 189.197 -1.51736 -0.425897 0
M  V30 1988 C 190.144 -1.73875 -1.51776 0
M  V30 1989 C 191.114 -0.580702 -1.55618 0
M  V30 1990 O 192.299 -0.81641 -1.72451 0
M  V30 1991 C 189.439 -1.88012 -2.89388 0
M  V30 1992 C 188.552 -3.15606 -2.94986 0
M  V30 1993 C 187.687 -3.20271 -4.23793 0
M  V30 1994 C 186.726 -4.42134 -4.23302 0
M  V30 1995 N 185.863 -4.44284 -5.43651 0
M  V30 1996 H 190.703 -2.67071 -1.32201 0
M  V30 1997 H 188.24 -1.32351 -0.642008 0
M  V30 1998 H 190.198 -1.9419 -3.69251 0
M  V30 1999 H 188.828 -0.98213 -3.07496 0
M  V30 2000 H 187.88 -3.18681 -2.07717 0
M  V30 2001 H 189.192 -4.05486 -2.90486 0
M  V30 2002 H 188.346 -3.25428 -5.12036 0
M  V30 2003 H 187.085 -2.28299 -4.30965 0
M  V30 2004 H 186.09 -4.3714 -3.3345 0
M  V30 2005 H 187.315 -5.35382 -4.17783 0
M  V30 2006 H 185.261 -3.55188 -5.51523 0
M  V30 2007 H 185.178 -5.27988 -5.41078 0
M  V30 2008 H 186.446 -4.53649 -6.33895 0
M  V30 2009 N 190.675 0.682077 -1.42076 0
M  V30 2010 C 191.905 1.46844 -1.45329 0
M  V30 2011 C 192.313 1.89102 -0.0609328 0
M  V30 2012 O 191.656 1.58238 0.933082 0
M  V30 2013 C 191.718 2.75375 -2.31104 0
M  V30 2014 C 191.382 2.55238 -3.79081 0
M  V30 2015 C 192.379 2.20309 -4.70914 0
M  V30 2016 C 190.064 2.70459 -4.2327 0
M  V30 2017 C 192.058 2.00859 -6.04925 0
M  V30 2018 C 189.745 2.50624 -5.57343 0
M  V30 2019 C 190.743 2.15876 -6.47986 0
M  V30 2020 O 190.431 1.96227 -7.79583 0
M  V30 2021 H 190.163 0.4586 -0.496651 0
M  V30 2022 H 192.717 0.846131 -1.87162 0
M  V30 2023 H 190.947 3.40061 -1.84107 0
M  V30 2024 H 192.636 3.37231 -2.25898 0
M  V30 2025 H 193.402 2.08153 -4.38061 0
M  V30 2026 H 189.281 2.96485 -3.53012 0
M  V30 2027 H 192.825 1.7366 -6.75639 0
M  V30 2028 H 188.722 2.62375 -5.89771 0
M  V30 2029 H 189.49 2.10883 -7.90867 0
M  V30 2030 N 192.153 1.28127 0.917671 0
M  V30 2031 C 193.43 1.05761 1.64542 0
M  V30 2032 C 193.81 -0.404344 2.07191 0
M  V30 2033 O 193.158 -1.38963 1.81388 0
M  V30 2034 C 193.368 2.02857 2.83989 0
M  V30 2035 C 194.716 2.32786 3.551 0
M  V30 2036 O 195.74 2.0091 2.94132 0
M  V30 2037 O 194.599 2.87169 4.64969 0
M  V30 2038 H 191.693 0.403916 0.721652 0
M  V30 2039 H 194.239 1.39431 0.967322 0
M  V30 2040 H 193.011 3.01407 2.49538 0
M  V30 2041 H 192.634 1.69809 3.59514 0
M  V30 2042 N 193.631 -1.12557 1.10312 0
M  V30 2043 C 194.541 -2.21841 0.763142 0
M  V30 2044 C 195.557 -1.72354 -0.238801 0
M  V30 2045 O 196.733 -2.01249 -0.0778746 0
M  V30 2046 C 193.798 -3.46131 0.198632 0
M  V30 2047 C 192.859 -4.10464 1.25769 0
M  V30 2048 C 192.092 -5.28821 0.72002 0
M  V30 2049 O 192.315 -5.6859 -0.453993 0
M  V30 2050 O 191.249 -5.83437 1.47935 0
M  V30 2051 H 195.075 -2.53312 1.67532 0
M  V30 2052 H 192.66 -1.20867 0.878157 0
M  V30 2053 H 194.542 -4.2125 -0.112401 0
M  V30 2054 H 193.217 -3.16338 -0.686419 0
M  V30 2055 H 192.124 -3.3713 1.62156 0
M  V30 2056 H 193.457 -4.44408 2.11571 0
M  V30 2057 N 195.109 -0.891671 -1.2995 0
M  V30 2058 C 196.334 -0.527932 -2.00568 0
M  V30 2059 C 196.759 0.877969 -1.66353 0
M  V30 2060 O 196.117 1.58301 -0.883762 0
M  V30 2061 C 196.165 -0.717745 -3.53385 0
M  V30 2062 O 195.269 0.233376 -4.11739 0
M  V30 2063 H 194.61 -0.20722 -0.630837 0
M  V30 2064 H 197.14 -1.20105 -1.65638 0
M  V30 2065 H 197.15 -0.619307 -4.03272 0
M  V30 2066 H 195.825 -1.74276 -3.77625 0
M  V30 2067 H 194.402 0.0880706 -3.72796 0
M  V30 2068 N 196.587 1.43421 -0.653314 0
M  V30 2069 C 197.55 2.29182 0.0287951 0
M  V30 2070 C 198.55 1.42213 0.750465 0
M  V30 2071 O 199.74 1.63843 0.591701 0
M  V30 2072 C 196.872 3.24278 1.05151 0
M  V30 2073 H 198.065 2.90985 -0.725786 0
M  V30 2074 H 195.618 1.50702 -0.414545 0
M  V30 2075 H 196.353 2.6737 1.83532 0
M  V30 2076 H 196.138 3.88396 0.537687 0
M  V30 2077 H 197.628 3.88647 1.52786 0
M  V30 2078 N 198.065 0.39524 1.52563 0
M  V30 2079 C 199.293 -0.184943 2.06072 0
M  V30 2080 C 199.708 -1.40021 1.26647 0
M  V30 2081 O 199.065 -1.79767 0.314672 0
M  V30 2082 C 199.116 -0.549179 3.57304 0
M  V30 2083 O 198.837 0.617813 4.33722 0
M  V30 2084 C 200.338 -1.18459 4.2718 0
M  V30 2085 H 197.558 -0.0265025 0.670476 0
M  V30 2086 H 200.102 0.562184 1.96621 0
M  V30 2087 H 198.257 -1.2462 3.66809 0
M  V30 2088 H 198.671 0.317091 5.23541 0
M  V30 2089 H 200.145 -1.38976 5.34219 0
M  V30 2090 H 200.622 -2.15368 3.82771 0
M  V30 2091 H 201.228 -0.528163 4.22008 0
M  V30 2092 N 199.544 -1.57102 0.125237 0
M  V30 2093 C 200.792 -1.95021 -0.530198 0
M  V30 2094 C 201.113 -1.00982 -1.66816 0
M  V30 2095 O 200.383 -0.0672693 -1.95784 0
M  V30 2096 H 198.963 -0.720046 -0.198853 0
M  V30 2097 H 201.625 -1.93916 0.19564 0
M  V30 2098 H 200.721 -2.98211 -0.920681 0
M  V30 2099 N 201.022 0.148545 -1.56898 0
M  V30 2100 C 202.268 0.862694 -1.83536 0
M  V30 2101 C 202.601 1.80889 -0.706604 0
M  V30 2102 O 201.876 1.92328 0.289885 0
M  V30 2103 C 202.159 1.63853 -3.20662 0
M  V30 2104 C 202.012 0.713925 -4.44098 0
M  V30 2105 C 203.331 2.60133 -3.54991 0
M  V30 2106 H 200.45 0.312179 -0.667618 0
M  V30 2107 H 203.092 0.127953 -1.89569 0
M  V30 2108 H 201.242 2.26489 -3.1565 0
M  V30 2109 H 202.914 0.098686 -4.61194 0
M  V30 2110 H 201.157 0.0234019 -4.33794 0
M  V30 2111 H 201.828 1.29278 -5.36648 0
M  V30 2112 H 204.304 2.07616 -3.60603 0
M  V30 2113 H 203.18 3.11468 -4.51972 0
M  V30 2114 H 203.441 3.41417 -2.80868 0
M  V30 2115 N 202.5 1.5196 0.417844 0
M  V30 2116 C 203.43 1.77634 1.51554 0
M  V30 2117 C 204.411 0.626918 1.58126 0
M  V30 2118 O 205.596 0.871632 1.7354 0
M  V30 2119 C 202.726 1.91911 2.8946 0
M  V30 2120 C 201.68 3.07463 2.97743 0
M  V30 2121 C 201.006 3.06951 4.37819 0
M  V30 2122 C 202.306 4.47082 2.70027 0
M  V30 2123 H 204 2.6955 1.3032 0
M  V30 2124 H 201.546 1.29706 0.625492 0
M  V30 2125 H 203.499 2.08455 3.6623 0
M  V30 2126 H 202.223 0.966598 3.11969 0
M  V30 2127 H 200.882 2.90656 2.23416 0
M  V30 2128 H 200.53 2.09438 4.57323 0
M  V30 2129 H 200.23 3.84556 4.44286 0
M  V30 2130 H 201.754 3.25613 5.16535 0
M  V30 2131 H 203.168 4.6414 3.36522 0
M  V30 2132 H 201.565 5.2654 2.87881 0
M  V30 2133 H 202.635 4.55777 1.65514 0
M  V30 2134 N 203.978 -0.674533 1.42435 0
M  V30 2135 C 205.394 -0.98769 1.25367 0
M  V30 2136 C 205.594 -2.00879 0.158044 0
M  V30 2137 O 204.65 -2.48075 -0.470633 0
M  V30 2138 C 205.963 -1.49224 2.6106 0
M  V30 2139 C 207.511 -1.61 2.68417 0
M  V30 2140 C 207.986 -2.14852 4.04478 0
M  V30 2141 N 209.477 -2.22185 4.06434 0
M  V30 2142 C 210.212 -2.64928 5.08528 0
M  V30 2143 N 209.708 -3.07121 6.21006 0
M  V30 2144 N 211.501 -2.64679 4.95885 0
M  V30 2145 H 203.652 0.00152503 2.124 0
M  V30 2146 H 205.915 -0.0618434 0.945981 0
M  V30 2147 H 205.621 -0.816453 3.42092 0
M  V30 2148 H 205.495 -2.47094 2.84999 0
M  V30 2149 H 207.882 -2.27686 1.87732 0
M  V30 2150 H 207.963 -0.616195 2.48267 0
M  V30 2151 H 207.607 -1.48775 4.85622 0
M  V30 2152 H 207.537 -3.15024 4.2198 0
M  V30 2153 H 210.028 -1.92435 3.25234 0
M  V30 2154 H 210.341 -3.38423 6.94759 0
M  V30 2155 H 208.686 -3.04978 6.24511 0
M  V30 2156 H 211.877 -2.31078 4.07088 0
M  V30 2157 H 212.05 -2.9767 5.75584 0
M  V30 2158 N 205.456 -1.28612 -0.910864 0
M  V30 2159 C 206.681 -1.1891 -1.69927 0
M  V30 2160 C 207.106 0.248372 -1.86453 0
M  V30 2161 O 206.464 1.17961 -1.37676 0
M  V30 2162 C 206.512 -1.89578 -3.06745 0
M  V30 2163 O 205.616 -1.20521 -3.94396 0
M  V30 2164 H 204.957 -0.412632 -0.520222 0
M  V30 2165 H 207.487 -1.69985 -1.1387 0
M  V30 2166 H 207.497 -1.97597 -3.56958 0
M  V30 2167 H 206.172 -2.94136 -2.94035 0
M  V30 2168 H 204.749 -1.20684 -3.52831 0
M  V30 2169 N 206.934 1.1197 -1.10907 0
M  V30 2170 C 208.159 1.87942 -0.877064 0
M  V30 2171 C 208.584 1.79341 0.567314 0
M  V30 2172 O 207.942 1.15184 1.40009 0
M  V30 2173 C 207.99 3.34926 -1.33629 0
M  V30 2174 O 207.094 4.09303 -0.504447 0
M  V30 2175 H 206.435 0.583785 -0.316371 0
M  V30 2176 H 208.965 1.4157 -1.47712 0
M  V30 2177 H 208.975 3.8577 -1.32837 0
M  V30 2178 H 207.65 3.40504 -2.3881 0
M  V30 2179 H 206.227 3.68393 -0.577993 0
M  V30 2180 N 208.412 0.89855 1.29475 0
M  V30 2181 C 209.64 0.539261 1.99749 0
M  V30 2182 C 210.055 -0.875716 1.67262 0
M  V30 2183 O 209.412 -1.57786 0.917049 0
M  V30 2184 C 209.463 0.72061 3.54245 0
M  V30 2185 O 209.184 2.07989 3.8558 0
M  V30 2186 C 210.685 0.366118 4.41786 0
M  V30 2187 H 207.905 0.207047 0.638258 0
M  V30 2188 H 210.449 1.20758 1.65039 0
M  V30 2189 H 208.604 0.0994862 3.87272 0
M  V30 2190 H 209.018 2.10841 4.80257 0
M  V30 2191 H 210.492 0.543848 5.49314 0
M  V30 2192 H 210.969 -0.696763 4.33638 0
M  V30 2193 H 211.575 0.964135 4.14228 0
M  V30 2194 N 209.89 -1.43072 0.660911 0
M  V30 2195 C 211.137 -2.01721 0.177445 0
M  V30 2196 C 211.465 -1.5218 -1.21126 0
M  V30 2197 O 210.72 -0.708659 -1.82419 0
M  V30 2198 C 211.019 -3.57103 0.145563 0
M  V30 2199 C 210.685 -4.26021 1.47705 0
M  V30 2200 C 209.347 -4.44563 1.84165 0
M  V30 2201 C 211.699 -4.64983 2.35458 0
M  V30 2202 C 209.027 -4.99334 3.0803 0
M  V30 2203 C 211.379 -5.21127 3.58622 0
M  V30 2204 C 210.043 -5.37884 3.95268 0
M  V30 2205 H 209.313 -0.73815 0.0649317 0
M  V30 2206 H 211.96 -1.71446 0.853144 0
M  V30 2207 H 210.265 -3.86965 -0.61361 0
M  V30 2208 H 211.962 -4.00248 -0.2455 0
M  V30 2209 H 208.552 -4.11939 1.18339 0
M  V30 2210 H 212.736 -4.50343 2.08579 0
M  V30 2211 H 207.992 -5.10493 3.36462 0
M  V30 2212 H 212.166 -5.50262 4.26831 0
M  V30 2213 H 209.793 -5.80089 4.91325 0
M  V30 2214 N 211.368 -0.403325 -1.52352 0
M  V30 2215 C 212.278 0.432009 -2.30588 0
M  V30 2216 C 213.294 1.05884 -1.38075 0
M  V30 2217 O 214.47 1.06161 -1.71148 0
M  V30 2218 C 211.535 1.53669 -3.10784 0
M  V30 2219 C 210.596 0.933525 -4.19027 0
M  V30 2220 C 209.829 1.98557 -4.9539 0
M  V30 2221 O 210.052 3.20283 -4.71991 0
M  V30 2222 O 208.986 1.59504 -5.80381 0
M  V30 2223 H 212.812 -0.205739 -3.03002 0
M  V30 2224 H 210.397 -0.166675 -1.48467 0
M  V30 2225 H 212.279 2.17814 -3.60742 0
M  V30 2226 H 210.954 2.15915 -2.41169 0
M  V30 2227 H 209.861 0.254954 -3.7323 0
M  V30 2228 H 211.194 0.35508 -4.90918 0
M  V30 2229 N 212.846 1.57033 -0.133567 0
M  V30 2230 C 213.776 2.1909 0.807567 0
M  V30 2231 C 214.757 1.13517 1.26681 0
M  V30 2232 O 215.942 1.41809 1.32679 0
M  V30 2233 C 213.072 2.80188 2.05212 0
M  V30 2234 C 212.026 3.91471 1.73015 0
M  V30 2235 C 211.352 4.39443 3.04622 0
M  V30 2236 C 212.652 5.12886 0.987168 0
M  V30 2237 H 214.346 2.97988 0.290403 0
M  V30 2238 H 211.892 1.43335 0.138239 0
M  V30 2239 H 213.845 3.22264 2.71521 0
M  V30 2240 H 212.569 1.98601 2.59278 0
M  V30 2241 H 211.228 3.49993 1.0909 0
M  V30 2242 H 210.876 3.54695 3.56651 0
M  V30 2243 H 210.576 5.14495 2.83847 0
M  V30 2244 H 212.1 4.8418 3.72024 0
M  V30 2245 H 213.514 5.51891 1.55208 0
M  V30 2246 H 211.911 5.93615 0.87985 0
M  V30 2247 H 212.981 4.84894 -0.0235286 0
M  V30 2248 N 214.325 -0.140222 1.56975 0
M  V30 2249 C 215.573 -0.850005 1.83356 0
M  V30 2250 C 215.894 -1.81399 0.71551 0
M  V30 2251 O 215.164 -1.94136 -0.262294 0
M  V30 2252 H 213.744 -0.316886 0.676456 0
M  V30 2253 H 216.406 -0.132608 1.94448 0
M  V30 2254 H 215.502 -1.40814 2.78528 0
M  V30 2255 N 215.803 -1.52179 -0.40978 0
M  V30 2256 C 217.051 -1.65878 -1.15451 0
M  V30 2257 C 217.372 -0.390771 -1.91044 0
M  V30 2258 O 216.642 0.594323 -1.86667 0
M  V30 2259 H 215.222 -0.611405 -0.429177 0
M  V30 2260 H 217.884 -1.89219 -0.467134 0
M  V30 2261 H 216.98 -2.49954 -1.86894 0
M  V30 2262 N 217.281 0.66697 -1.42791 0
M  V30 2263 C 218.506 1.46004 -1.47301 0
M  V30 2264 C 218.931 1.87894 -0.0880317 0
M  V30 2265 O 218.289 1.56502 0.915253 0
M  V30 2266 C 218.337 2.68031 -2.41229 0
M  V30 2267 O 217.441 3.6659 -1.88906 0
M  V30 2268 H 216.782 0.43832 -0.49877 0
M  V30 2269 H 219.312 0.817391 -1.87563 0
M  V30 2270 H 219.322 3.1601 -2.58073 0
M  V30 2271 H 217.997 2.36883 -3.41847 0
M  V30 2272 H 216.574 3.25661 -1.81656 0
M  V30 2273 N 218.759 1.29093 0.90403 0
M  V30 2274 C 220.007 1.16583 1.65085 0
M  V30 2275 C 220.328 -0.283933 1.92922 0
M  V30 2276 O 219.598 -1.19509 1.55224 0
M  V30 2277 H 218.178 0.428467 0.611903 0
M  V30 2278 H 220.84 1.61959 1.08422 0
M  V30 2279 H 219.936 1.71266 2.6091 0
M  V30 2280 N 220.237 -1.11381 1.11499 0
M  V30 2281 C 221.485 -1.8277 0.862524 0
M  V30 2282 C 221.806 -1.85097 -0.613534 0
M  V30 2283 O 221.076 -1.32198 -1.4457 0
M  V30 2284 H 219.656 -0.676823 0.316101 0
M  V30 2285 H 222.318 -1.34816 1.4075 0
M  V30 2286 H 221.414 -2.86614 1.23527 0
M  V30 2287 N 221.715 -0.905404 -1.28997 0
M  V30 2288 C 222.964 -0.530191 -1.94607 0
M  V30 2289 C 223.277 0.929185 -1.72121 0
M  V30 2290 O 224.483 1.41218 -2.31883 0
M  V30 2291 C 222.939 -0.897333 -3.48534 0
M  V30 2292 C 222.547 -2.37587 -3.79811 0
M  V30 2293 C 224.291 -0.592304 -4.20347 0
M  V30 2294 C 222.198 -2.68357 -5.27009 0
M  V30 2295 H 221.128 -0.194558 -0.728466 0
M  V30 2296 H 223.779 -1.10318 -1.46636 0
M  V30 2297 H 222.161 -0.253214 -3.9519 0
M  V30 2298 H 223.335 -3.06602 -3.43994 0
M  V30 2299 H 221.65 -2.6505 -3.2115 0
M  V30 2300 H 224.247 -0.798975 -5.28697 0
M  V30 2301 H 224.59 0.469474 -4.13644 0
M  V30 2302 H 225.123 -1.19452 -3.79442 0
M  V30 2303 H 221.862 -3.73355 -5.38782 0
M  V30 2304 H 221.382 -2.03971 -5.64053 0
M  V30 2305 H 223.061 -2.54922 -5.94663 0
M  V30 2306 N 223.193 1.4272 -0.668489 0
M  V30 2307 C 224.418 2.06484 -0.194758 0
M  V30 2308 C 224.843 1.49862 1.13679 0
M  V30 2309 O 224.201 0.614582 1.70565 0
M  V30 2310 C 224.249 3.60353 -0.133546 0
M  V30 2311 O 223.353 4.02464 0.899806 0
M  V30 2312 H 222.694 0.656137 -0.10188 0
M  V30 2313 H 225.224 1.82964 -0.915722 0
M  V30 2314 H 225.234 4.07976 0.0447041 0
M  V30 2315 H 223.909 4.00938 -1.1055 0
M  V30 2316 H 222.486 3.66402 0.693109 0
M  V30 2317 N 224.671 0.411399 1.52136 0
M  V30 2318 C 225.918 -0.163645 2.01838 0
M  V30 2319 C 226.246 -1.4495 1.29691 0
M  V30 2320 O 225.501 -1.91725 0.392431 0
M  V30 2321 C 225.8 -0.455872 3.54481 0
M  V30 2322 C 225.466 0.741055 4.44769 0
M  V30 2323 C 224.128 1.06936 4.69167 0
M  V30 2324 C 226.48 1.54075 4.97906 0
M  V30 2325 C 223.808 2.19851 5.43951 0
M  V30 2326 C 226.16 2.66067 5.73926 0
M  V30 2327 C 224.824 2.99381 5.96596 0
M  V30 2328 H 224.094 -0.0598821 0.738576 0
M  V30 2329 H 226.741 0.553283 1.83333 0
M  V30 2330 H 225.046 -1.2544 3.71177 0
M  V30 2331 H 226.743 -0.913802 3.90449 0
M  V30 2332 H 223.333 0.475192 4.25958 0
M  V30 2333 H 227.517 1.30033 4.78963 0
M  V30 2334 H 222.773 2.46006 5.59724 0
M  V30 2335 H 226.947 3.28419 6.14096 0
M  V30 2336 H 224.574 3.86992 6.54325 0
M  V30 2337 N 226.149 -1.5696 0.141893 0
M  V30 2338 C 227.096 -2.16501 -0.799737 0
M  V30 2339 C 228.066 -1.09643 -1.24771 0
M  V30 2340 O 229.251 -1.3766 -1.32115 0
M  V30 2341 C 226.391 -2.78679 -2.03549 0
M  V30 2342 C 225.504 -3.99914 -1.6338 0
M  V30 2343 C 224.639 -4.50106 -2.82096 0
M  V30 2344 C 223.678 -5.63819 -2.38275 0
M  V30 2345 N 222.815 -6.08651 -3.49983 0
M  V30 2346 H 227.655 -2.96632 -0.285179 0
M  V30 2347 H 225.192 -1.46533 -0.129053 0
M  V30 2348 H 227.15 -3.1287 -2.75986 0
M  V30 2349 H 225.78 -2.012 -2.52425 0
M  V30 2350 H 224.832 -3.71735 -0.807279 0
M  V30 2351 H 226.144 -4.82311 -1.27192 0
M  V30 2352 H 225.298 -4.86325 -3.62729 0
M  V30 2353 H 224.037 -3.66706 -3.21525 0
M  V30 2354 H 223.042 -5.2718 -1.56081 0
M  V30 2355 H 224.267 -6.49 -1.99938 0
M  V30 2356 H 222.213 -5.28188 -3.89042 0
M  V30 2357 H 222.13 -6.85961 -3.17794 0
M  V30 2358 H 223.398 -6.49515 -4.30988 0
M  V30 2359 N 227.627 0.131896 -1.57047 0
M  V30 2360 C 228.557 1.16384 -2.02428 0
M  V30 2361 C 229.538 1.43936 -0.90644 0
M  V30 2362 O 230.723 1.54599 -1.17528 0
M  V30 2363 C 227.853 2.49328 -2.4177 0
M  V30 2364 C 226.807 2.36266 -3.56879 0
M  V30 2365 C 226.133 3.74057 -3.8208 0
M  V30 2366 C 227.433 1.834 -4.89042 0
M  V30 2367 H 229.127 0.786433 -2.88887 0
M  V30 2368 H 226.673 0.376855 -1.38981 0
M  V30 2369 H 228.626 3.21759 -2.7212 0
M  V30 2370 H 227.35 2.88934 -1.52266 0
M  V30 2371 H 226.009 1.66286 -3.26718 0
M  V30 2372 H 225.657 4.11125 -2.89803 0
M  V30 2373 H 225.357 3.66174 -4.59554 0
M  V30 2374 H 226.881 4.48012 -4.1487 0
M  V30 2375 H 228.295 2.45636 -5.18011 0
M  V30 2376 H 226.692 1.8637 -5.70426 0
M  V30 2377 H 227.762 0.790662 -4.7841 0
M  V30 2378 N 229.106 1.52395 0.401703 0
M  V30 2379 C 230.354 1.66488 1.14569 0
M  V30 2380 C 230.675 0.400897 1.90835 0
M  V30 2381 O 229.945 -0.584415 1.8698 0
M  V30 2382 H 228.525 0.613672 0.425929 0
M  V30 2383 H 231.187 1.89464 0.457093 0
M  V30 2384 H 230.283 2.50942 1.85566 0
M  V30 2385 N 230.584 -0.659388 1.43143 0
M  V30 2386 C 231.832 -1.41654 1.44147 0
M  V30 2387 C 232.153 -1.94893 0.0645739 0
M  V30 2388 O 231.423 -1.74044 -0.899198 0
M  V30 2389 H 230.003 -0.525708 0.530697 0
M  V30 2390 H 232.665 -0.778097 1.78694 0
M  V30 2391 H 231.761 -2.26195 2.1504 0
M  V30 2392 N 232.062 -1.29571 -0.897171 0
M  V30 2393 C 233.025 -1.14913 -1.98312 0
M  V30 2394 C 234.025 -0.0838629 -1.60581 0
M  V30 2395 O 235.215 -0.331006 -1.71026 0
M  V30 2396 C 232.347 -0.757835 -3.3237 0
M  V30 2397 H 233.54 -2.11377 -2.12743 0
M  V30 2398 H 231.093 -1.12793 -1.08201 0
M  V30 2399 H 231.828 0.206837 -3.2364 0
M  V30 2400 H 231.613 -1.52755 -3.61121 0
M  V30 2401 H 233.103 -0.678408 -4.12053 0
M  V30 2402 N 233.54 1.10788 -1.12088 0
M  V30 2403 C 234.487 2.17025 -0.785407 0
M  V30 2404 C 235.457 1.64265 0.246191 0
M  V30 2405 O 236.642 1.90412 0.121584 0
M  V30 2406 C 233.782 3.44249 -0.242177 0
M  V30 2407 C 232.895 4.1098 -1.33115 0
M  V30 2408 C 232.03 5.25911 -0.747741 0
M  V30 2409 C 231.069 5.84538 -1.81609 0
M  V30 2410 N 230.206 6.90853 -1.25167 0
M  V30 2411 H 235.046 2.45066 -1.69548 0
M  V30 2412 H 232.583 1.20297 -0.846582 0
M  V30 2413 H 234.541 4.17101 0.0908026 0
M  V30 2414 H 233.171 3.16571 0.631072 0
M  V30 2415 H 232.223 3.36133 -1.78097 0
M  V30 2416 H 233.535 4.50601 -2.13917 0
M  V30 2417 H 232.689 6.056 -0.365216 0
M  V30 2418 H 231.428 4.87614 0.0915188 0
M  V30 2419 H 230.433 5.03522 -2.20785 0
M  V30 2420 H 231.658 6.249 -2.6585 0
M  V30 2421 H 229.604 6.54562 -0.434174 0
M  V30 2422 H 229.521 7.29166 -1.99633 0
M  V30 2423 H 230.789 7.7433 -0.896259 0
M  V30 2424 N 235.018 0.912232 1.28515 0
M  V30 2425 C 235.966 0.389597 2.29314 0
M  V30 2426 C 236.96 -0.517915 1.61289 0
M  V30 2427 O 238.166 -0.399328 1.75515 0
M  V30 2428 H 234.541 0.107386 0.744293 0
M  V30 2429 H 236.512 1.25286 2.70825 0
M  V30 2430 C 235.261 -0.356496 3.45868 0
M  V30 2431 H 234.584 0.332608 3.98414 0
M  V30 2432 H 236.024 -0.686851 4.184 0
M  V30 2433 C 234.483 -1.56383 2.98406 0
M  V30 2434 O 235.013 -2.66294 3.00749 0
M  V30 2435 N 233.219 -1.41029 2.54085 0
M  V30 2436 H 232.766 -0.516089 2.52377 0
M  V30 2437 H 232.724 -2.21939 2.22689 0
M  V30 2438 N 236.496 -1.42363 0.676048 0
M  V30 2439 C 237.907 -1.84649 0.275948 0
M  V30 2440 C 238.258 -1.56588 -1.18214 0
M  V30 2441 O 237.383 -1.02634 -1.90513 0
M  V30 2442 C 237.978 -3.35178 0.494053 0
M  V30 2443 C 236.537 -3.76109 0.148061 0
M  V30 2444 C 235.684 -2.65931 0.785891 0
M  V30 2445 H 238.635 -1.32192 0.878121 0
M  V30 2446 H 238.656 -3.79655 -0.25343 0
M  V30 2447 H 238.168 -3.55571 1.55535 0
M  V30 2448 H 236.269 -3.61323 -0.909742 0
M  V30 2449 H 236.382 -4.7546 0.589454 0
M  V30 2450 H 234.746 -2.53773 0.217113 0
M  V30 2451 H 235.529 -2.89146 1.85067 0
M  V30 2452 N 237.974 -0.419461 -1.51915 0
M  V30 2453 C 239.251 0.211999 -1.94448 0
M  V30 2454 C 239.631 1.61703 -1.35703 0
M  V30 2455 O 238.979 2.22102 -0.536931 0
M  V30 2456 C 239.189 0.207872 -3.4838 0
M  V30 2457 C 240.537 0.422192 -4.22496 0
M  V30 2458 O 241.561 0.286778 -3.55044 0
M  V30 2459 O 240.42 0.690009 -5.42126 0
M  V30 2460 H 237.514 0.139586 -0.815135 0
M  V30 2461 H 240.06 -0.476151 -1.62883 0
M  V30 2462 H 238.832 -0.775102 -3.83546 0
M  V30 2463 H 238.455 0.939688 -3.86336 0
M  V30 2464 N 239.452 1.56882 -0.150215 0
M  V30 2465 C 240.399 2.16922 0.788244 0
M  V30 2466 C 241.369 1.10303 1.24187 0
M  V30 2467 O 242.554 1.38359 1.31383 0
M  V30 2468 C 239.694 2.79754 2.02068 0
M  V30 2469 C 238.807 4.00775 1.61257 0
M  V30 2470 C 237.942 4.51595 2.79705 0
M  V30 2471 C 236.981 5.65074 2.35282 0
M  V30 2472 N 236.118 6.10499 3.4675 0
M  V30 2473 H 240.958 2.96779 0.269444 0
M  V30 2474 H 238.495 1.46599 0.12128 0
M  V30 2475 H 240.453 3.14329 2.74323 0
M  V30 2476 H 239.083 2.02536 2.51354 0
M  V30 2477 H 238.135 3.72158 0.787553 0
M  V30 2478 H 239.447 4.82978 1.24633 0
M  V30 2479 H 238.601 4.88242 3.60145 0
M  V30 2480 H 237.34 3.68406 3.19576 0
M  V30 2481 H 236.345 5.28 1.53283 0
M  V30 2482 H 237.57 6.50052 1.96493 0
M  V30 2483 H 235.516 5.30243 3.86236 0
M  V30 2484 H 235.433 6.87637 3.14152 0
M  V30 2485 H 236.701 6.51791 4.27537 0
M  V30 2486 N 240.93 -0.123565 1.57115 0
M  V30 2487 C 242.176 -0.833386 1.84885 0
M  V30 2488 C 242.509 -1.79742 0.735292 0
M  V30 2489 O 241.784 -1.92764 -0.25925 0
M  V30 2490 C 242.067 -1.5873 3.23228 0
M  V30 2491 C 241.92 -0.643183 4.45178 0
M  V30 2492 C 243.239 -2.54453 3.59085 0
M  V30 2493 H 240.358 -0.301518 0.6725 0
M  V30 2494 H 243 -0.097778 1.89748 0
M  V30 2495 H 241.15 -2.21438 3.19214 0
M  V30 2496 H 242.822 -0.0253015 4.61293 0
M  V30 2497 H 241.065 0.0456139 4.33776 0
M  V30 2498 H 241.736 -1.20724 5.38637 0
M  V30 2499 H 244.212 -2.01853 3.63861 0
M  V30 2500 H 243.088 -3.04238 4.5687 0
M  V30 2501 H 243.349 -3.36906 2.86264 0
M  V30 2502 N 242.408 -1.52605 -0.393616 0
M  V30 2503 C 243.655 -1.67424 -1.1391 0
M  V30 2504 C 243.983 -0.411859 -1.90089 0
M  V30 2505 O 243.238 0.605626 -1.86093 0
M  V30 2506 C 243.537 -2.85721 -2.14705 0
M  V30 2507 C 243.203 -4.23342 -1.55218 0
M  V30 2508 C 241.865 -4.60771 -1.3872 0
M  V30 2509 C 244.217 -5.09041 -1.11924 0
M  V30 2510 C 241.545 -5.81563 -0.774689 0
M  V30 2511 C 243.897 -6.30452 -0.520853 0
M  V30 2512 C 242.561 -6.66617 -0.343134 0
M  V30 2513 H 241.831 -0.612648 -0.416826 0
M  V30 2514 H 244.478 -1.8674 -0.424315 0
M  V30 2515 H 242.783 -2.60803 -2.92385 0
M  V30 2516 H 244.48 -2.94382 -2.72288 0
M  V30 2517 H 241.07 -3.93855 -1.69045 0
M  V30 2518 H 245.254 -4.80695 -1.23473 0
M  V30 2519 H 240.51 -6.08196 -0.625154 0
M  V30 2520 H 244.684 -6.96175 -0.177065 0
M  V30 2521 H 242.311 -7.60083 0.133571 0
M  V30 2522 N 243.887 0.651787 -1.4349 0
M  V30 2523 C 245.136 1.40754 -1.44469 0
M  V30 2524 C 245.449 1.95463 -0.0731845 0
M  V30 2525 O 246.655 2.71471 0.0395721 0
M  V30 2526 C 245.111 2.54735 -2.5424 0
M  V30 2527 C 244.719 2.06628 -3.97504 0
M  V30 2528 C 246.463 3.32092 -2.64414 0
M  V30 2529 C 244.37 3.17829 -4.98737 0
M  V30 2530 H 243.3 0.528862 -0.53742 0
M  V30 2531 H 245.951 0.703365 -1.69485 0
M  V30 2532 H 244.333 3.2763 -2.22428 0
M  V30 2533 H 245.507 1.40734 -4.38783 0
M  V30 2534 H 243.822 1.42146 -3.91387 0
M  V30 2535 H 246.419 4.14952 -3.37223 0
M  V30 2536 H 246.762 3.80217 -1.69532 0
M  V30 2537 H 247.295 2.66279 -2.95534 0
M  V30 2538 H 244.034 2.74671 -5.95177 0
M  V30 2539 H 243.554 3.82429 -4.62069 0
M  V30 2540 H 245.233 3.82937 -5.21505 0
M  V30 2541 N 245.365 1.30045 0.890287 0
M  V30 2542 C 246.313 1.15873 2.01683 0
M  V30 2543 C 247.307 0.0719403 1.69247 0
M  V30 2544 O 248.513 0.232414 1.78493 0
M  V30 2545 H 244.888 0.358203 0.661207 0
M  V30 2546 H 246.859 2.11229 2.10772 0
M  V30 2547 C 245.608 0.861842 3.36849 0
M  V30 2548 H 244.931 1.69016 3.62317 0
M  V30 2549 H 246.371 0.802762 4.16331 0
M  V30 2550 C 244.83 -0.435132 3.34078 0
M  V30 2551 O 245.36 -1.4583 3.74295 0
M  V30 2552 N 243.566 -0.444377 2.87182 0
M  V30 2553 H 243.113 0.388723 2.5465 0
M  V30 2554 H 243.071 -1.31213 2.85711 0
M  V30 2555 N 246.843 -1.10192 1.12674 0
M  V30 2556 C 248.092 -1.81573 0.8783 0
M  V30 2557 C 248.405 -1.86249 -0.597557 0
M  V30 2558 O 249.611 -2.5386 -0.962681 0
M  V30 2559 C 248.067 -3.26149 1.52167 0
M  V30 2560 C 247.675 -3.29763 3.03249 0
M  V30 2561 C 249.419 -4.0234 1.3536 0
M  V30 2562 C 247.326 -4.68815 3.60508 0
M  V30 2563 H 246.256 -0.680394 0.324931 0
M  V30 2564 H 248.907 -1.23902 1.35353 0
M  V30 2565 H 247.289 -3.83832 0.974104 0
M  V30 2566 H 248.463 -2.8189 3.6452 0
M  V30 2567 H 246.778 -2.67059 3.19481 0
M  V30 2568 H 249.375 -5.05058 1.75559 0
M  V30 2569 H 249.718 -4.15235 0.297554 0
M  V30 2570 H 250.251 -3.51079 1.87052 0
M  V30 2571 H 246.99 -4.61121 4.65884 0
M  V30 2572 H 246.51 -5.17045 3.04014 0
M  V30 2573 H 248.189 -5.37785 3.59717 0
M  V30 2574 N 248.321 -0.919034 -1.28029 0
M  V30 2575 C 249.567 -0.555757 -1.95036 0
M  V30 2576 C 249.9 0.899198 -1.72128 0
M  V30 2577 O 249.175 1.64023 -1.04531 0
M  V30 2578 C 249.458 -0.872024 -3.49382 0
M  V30 2579 C 249.311 -2.3801 -3.81669 0
M  V30 2580 C 250.63 -0.37185 -4.38526 0
M  V30 2581 H 247.749 -0.203386 -0.708381 0
M  V30 2582 H 250.391 -1.14924 -1.51303 0
M  V30 2583 H 248.541 -0.366946 -3.86763 0
M  V30 2584 H 250.213 -2.9562 -3.54128 0
M  V30 2585 H 248.456 -2.83289 -3.28526 0
M  V30 2586 H 249.127 -2.55192 -4.8947 0
M  V30 2587 H 251.603 -0.804602 -4.08247 0
M  V30 2588 H 250.479 -0.622173 -5.45362 0
M  V30 2589 H 250.74 0.727934 -4.36066 0
M  V30 2590 N 249.799 1.42003 -0.683588 0
M  V30 2591 C 250.709 2.34597 -0.0109075 0
M  V30 2592 C 251.725 1.55576 0.779245 0
M  V30 2593 O 252.901 1.88107 0.719555 0
M  V30 2594 C 249.966 3.34199 0.922588 0
M  V30 2595 C 249.027 4.29115 0.125984 0
M  V30 2596 C 248.26 5.23959 1.01502 0
M  V30 2597 O 248.483 5.23952 2.25456 0
M  V30 2598 O 247.417 6.00053 0.47111 0
M  V30 2599 H 251.243 2.93675 -0.773853 0
M  V30 2600 H 248.828 1.42654 -0.443861 0
M  V30 2601 H 250.71 3.95365 1.45823 0
M  V30 2602 H 249.385 2.77582 1.66523 0
M  V30 2603 H 248.292 3.71335 -0.453969 0
M  V30 2604 H 249.625 4.88798 -0.577736 0
M  V30 2605 N 251.277 0.427512 1.51691 0
M  V30 2606 C 252.523 -0.142439 2.02299 0
M  V30 2607 C 252.856 -1.43214 1.31162 0
M  V30 2608 O 252.131 -1.89833 0.423511 0
M  V30 2609 C 252.414 -0.371301 3.58181 0
M  V30 2610 C 252.267 0.936358 4.39946 0
M  V30 2611 C 253.586 -1.14542 4.24933 0
M  V30 2612 H 250.705 -0.0502937 0.735282 0
M  V30 2613 H 253.347 0.564584 1.81418 0
M  V30 2614 H 251.497 -0.973559 3.76104 0
M  V30 2615 H 253.169 1.57184 4.33694 0
M  V30 2616 H 251.412 1.5432 4.05423 0
M  V30 2617 H 252.083 0.730388 5.47147 0
M  V30 2618 H 254.559 -0.635362 4.11221 0
M  V30 2619 H 253.435 -1.27431 5.33903 0
M  V30 2620 H 253.696 -2.17093 3.85127 0
M  V30 2621 N 252.755 -1.56801 0.158532 0
M  V30 2622 C 254.032 -1.88131 -0.535357 0
M  V30 2623 C 254.412 -1.06638 -1.82186 0
M  V30 2624 O 253.76 -0.156533 -2.27963 0
M  V30 2625 C 253.97 -3.39949 -0.789653 0
M  V30 2626 C 255.318 -4.09416 -1.12533 0
M  V30 2627 O 256.342 -3.45194 -0.878622 0
M  V30 2628 O 255.201 -5.22855 -1.59014 0
M  V30 2629 H 252.295 -0.780143 -0.27442 0
M  V30 2630 H 254.841 -1.68564 0.19601 0
M  V30 2631 H 253.613 -3.91115 0.120353 0
M  V30 2632 H 253.236 -3.65084 -1.57479 0
M  V30 2633 N 254.233 0.115231 -1.57178 0
M  V30 2634 C 255.461 0.836437 -1.89239 0
M  V30 2635 C 255.876 1.73256 -0.750175 0
M  V30 2636 O 255.233 1.80357 0.278832 0
M  V30 2637 C 255.284 1.66671 -3.20785 0
M  V30 2638 O 255.005 0.806652 -4.3061 0
M  V30 2639 C 256.506 2.49274 -3.66575 0
M  V30 2640 H 253.726 0.240253 -0.626514 0
M  V30 2641 H 256.27 0.0984932 -2.04263 0
M  V30 2642 H 254.425 2.35737 -3.0742 0
M  V30 2643 H 254.839 1.37969 -5.06028 0
M  V30 2644 H 256.313 3.03055 -4.6137 0
M  V30 2645 H 256.79 3.26807 -2.93417 0
M  V30 2646 H 257.396 1.85443 -3.82741 0
M  V30 2647 N 255.711 1.52812 0.385517 0
M  V30 2648 C 256.959 1.67694 1.12797 0
M  V30 2649 C 257.28 0.421115 1.90399 0
M  V30 2650 O 256.55 -0.564551 1.87589 0
M  V30 2651 H 255.13 0.618155 0.419396 0
M  V30 2652 H 257.792 1.89938 0.436972 0
M  V30 2653 H 256.888 2.52896 1.82894 0
M  V30 2654 N 257.189 -0.644168 1.43834 0
M  V30 2655 C 258.121 -1.76955 1.45669 0
M  V30 2656 C 259.134 -1.58956 0.351666 0
M  V30 2657 O 260.323 -1.6751 0.616644 0
M  V30 2658 C 257.423 -3.14507 1.26248 0
M  V30 2659 C 256.596 -3.59083 2.49757 0
M  V30 2660 C 255.655 -4.75467 2.25427 0
M  V30 2661 O 254.681 -4.84444 2.98836 0
M  V30 2662 N 255.883 -5.66289 1.27661 0
M  V30 2663 H 258.648 -1.75856 2.42682 0
M  V30 2664 H 256.209 -0.828312 1.39106 0
M  V30 2665 H 258.201 -3.90067 1.0784 0
M  V30 2666 H 256.771 -3.10325 0.376478 0
M  V30 2667 H 255.991 -2.7387 2.8353 0
M  V30 2668 H 257.279 -3.85613 3.31934 0
M  V30 2669 H 256.677 -5.61718 0.670064 0
M  V30 2670 H 255.234 -6.41533 1.15234 0
M  V30 2671 N 258.668 -1.30515 -0.883378 0
M  V30 2672 C 259.914 -1.19607 -1.63774 0
M  V30 2673 C 260.247 0.248314 -1.92606 0
M  V30 2674 O 259.522 1.17742 -1.54813 0
M  V30 2675 C 259.805 -2.02669 -2.97653 0
M  V30 2676 C 259.658 -3.55335 -2.75784 0
M  V30 2677 C 260.977 -1.86573 -3.98596 0
M  V30 2678 H 258.096 -0.435856 -0.594305 0
M  V30 2679 H 260.738 -1.60165 -1.02212 0
M  V30 2680 H 258.888 -1.68208 -3.50197 0
M  V30 2681 H 260.56 -3.99863 -2.30016 0
M  V30 2682 H 258.803 -3.79438 -2.1026 0
M  V30 2683 H 259.474 -4.08745 -3.70988 0
M  V30 2684 H 261.95 -2.16703 -3.55217 0
M  V30 2685 H 260.826 -2.47014 -4.90179 0
M  V30 2686 H 261.087 -0.825321 -4.34328 0
M  V30 2687 N 260.146 1.09593 -1.13257 0
M  V30 2688 C 261.395 1.81105 -0.887917 0
M  V30 2689 C 261.708 1.86563 0.587672 0
M  V30 2690 O 262.914 2.54367 0.949204 0
M  V30 2691 C 261.37 3.25338 -1.53895 0
M  V30 2692 C 260.978 3.28151 -3.04994 0
M  V30 2693 C 262.722 4.01617 -1.37492 0
M  V30 2694 C 260.629 4.66897 -3.6299 0
M  V30 2695 H 259.559 0.678661 -0.328534 0
M  V30 2696 H 262.21 1.23183 -1.36008 0
M  V30 2697 H 260.592 3.8331 -0.994446 0
M  V30 2698 H 261.766 2.79953 -3.66009 0
M  V30 2699 H 260.081 2.65361 -3.20893 0
M  V30 2700 H 262.678 5.04119 -1.78235 0
M  V30 2701 H 263.021 4.15072 -0.31957 0
M  V30 2702 H 263.554 3.50082 -1.88912 0
M  V30 2703 H 260.293 4.58643 -4.68323 0
M  V30 2704 H 259.813 5.15426 -3.06752 0
M  V30 2705 H 261.492 5.3587 -3.62563 0
M  V30 2706 N 261.624 0.925811 1.2754 0
M  V30 2707 C 262.587 0.428129 2.25166 0
M  V30 2708 C 263.587 -0.452261 1.54309 0
M  V30 2709 O 264.777 -0.253608 1.72344 0
M  V30 2710 C 261.909 -0.384749 3.38722 0
M  V30 2711 H 263.102 1.29066 2.70706 0
M  V30 2712 H 260.655 0.706323 1.3943 0
M  V30 2713 H 261.39 -1.26618 2.98561 0
M  V30 2714 H 261.175 0.246454 3.91325 0
M  V30 2715 H 262.665 -0.723389 4.11287 0
M  V30 2716 N 263.102 -1.41638 0.69111 0
M  V30 2717 C 264.518 -1.55435 0.362224 0
M  V30 2718 C 264.718 -1.66754 -1.13117 0
M  V30 2719 O 263.774 -1.64348 -1.91692 0
M  V30 2720 C 265.087 -2.79588 1.10684 0
M  V30 2721 C 266.635 -2.9338 1.09075 0
M  V30 2722 C 267.11 -4.20414 1.81703 0
M  V30 2723 N 268.601 -4.27362 1.7865 0
M  V30 2724 C 269.336 -5.24507 2.31689 0
M  V30 2725 N 268.832 -6.27708 2.93179 0
M  V30 2726 N 270.625 -5.16416 2.2197 0
M  V30 2727 H 262.776 -1.32536 1.65976 0
M  V30 2728 H 265.039 -0.639115 0.700168 0
M  V30 2729 H 264.745 -2.77419 2.16175 0
M  V30 2730 H 264.619 -3.70973 0.682545 0
M  V30 2731 H 267.006 -2.95067 0.0441238 0
M  V30 2732 H 267.087 -2.0318 1.55407 0
M  V30 2733 H 266.731 -4.19488 2.86343 0
M  V30 2734 H 266.661 -5.09578 1.32808 0
M  V30 2735 H 269.152 -3.53415 1.33815 0
M  V30 2736 H 269.465 -6.98217 3.31229 0
M  V30 2737 H 267.81 -6.28223 2.97255 0
M  V30 2738 H 271.001 -4.34716 1.73607 0
M  V30 2739 H 271.174 -5.91958 2.63609 0
M  V30 2740 N 264.58 -0.43555 -1.51462 0
M  V30 2741 C 265.81 0.130053 -2.0619 0
M  V30 2742 C 266.218 1.37164 -1.30317 0
M  V30 2743 O 265.561 1.80225 -0.355598 0
M  V30 2744 C 265.623 0.519418 -3.55728 0
M  V30 2745 C 265.287 -0.615119 -4.52841 0
M  V30 2746 C 266.284 -1.48671 -4.9819 0
M  V30 2747 C 263.969 -0.795341 -4.95963 0
M  V30 2748 C 265.963 -2.52324 -5.8533 0
M  V30 2749 C 263.65 -1.83514 -5.82894 0
M  V30 2750 C 264.648 -2.69748 -6.27475 0
M  V30 2751 O 264.336 -3.71944 -7.1268 0
M  V30 2752 H 264.068 0.0121612 -0.675891 0
M  V30 2753 H 266.622 -0.6129 -1.96043 0
M  V30 2754 H 264.852 1.31505 -3.63653 0
M  V30 2755 H 266.541 1.01597 -3.92979 0
M  V30 2756 H 267.307 -1.359 -4.65571 0
M  V30 2757 H 263.186 -0.133713 -4.60806 0
M  V30 2758 H 266.73 -3.19665 -6.20048 0
M  V30 2759 H 262.627 -1.96306 -6.14926 0
M  V30 2760 H 263.395 -3.68503 -7.30854 0
M  V30 2761 N 266.058 1.56714 -0.166846 0
M  V30 2762 C 267.306 1.96358 0.478305 0
M  V30 2763 C 267.627 1.0537 1.6408 0
M  V30 2764 O 266.897 0.119154 1.95537 0
M  V30 2765 H 265.477 0.725065 0.179692 0
M  V30 2766 H 268.139 1.93329 -0.246985 0
M  V30 2767 H 267.235 3.00547 0.841292 0
M  V30 2768 N 267.536 -0.106894 1.57237 0
M  V30 2769 C 268.484 -1.14944 2.02215 0
M  V30 2770 C 269.478 -1.42167 0.92114 0
M  V30 2771 O 270.684 -1.41987 1.10634 0
M  V30 2772 H 267.059 -0.387841 0.64427 0
M  V30 2773 H 269.03 -0.743683 2.88984 0
M  V30 2774 C 267.779 -2.4647 2.4525 0
M  V30 2775 H 267.102 -2.26363 3.29545 0
M  V30 2776 H 268.542 -3.17948 2.80508 0
M  V30 2777 C 267.001 -3.09921 1.321 0
M  V30 2778 O 267.531 -3.9651 0.643622 0
M  V30 2779 N 265.737 -2.69986 1.07497 0
M  V30 2780 H 265.284 -1.99667 1.62761 0
M  V30 2781 H 265.242 -3.12769 0.319876 0
M  V30 2782 N 269.014 -1.53014 -0.377408 0
M  V30 2783 C 270.239 -1.72818 -1.14668 0
M  V30 2784 C 270.664 -0.450725 -1.8262 0
M  V30 2785 O 270.022 0.59439 -1.7128 0
M  V30 2786 C 270.07 -2.88627 -2.16164 0
M  V30 2787 O 269.174 -2.56409 -3.22998 0
M  V30 2788 H 268.515 -0.574301 -0.333278 0
M  V30 2789 H 271.045 -1.99853 -0.438152 0
M  V30 2790 H 271.055 -3.14455 -2.59966 0
M  V30 2791 H 269.73 -3.81294 -1.66095 0
M  V30 2792 H 268.307 -2.4136 -2.84253 0
M  V30 2793 N 270.492 0.636531 -1.44174 0
M  V30 2794 C 271.455 1.73063 -1.50273 0
M  V30 2795 C 272.455 1.56113 -0.385397 0
M  V30 2796 O 273.645 1.61707 -0.64781 0
M  V30 2797 C 270.777 3.12096 -1.37145 0
M  V30 2798 H 271.97 1.69031 -2.47727 0
M  V30 2799 H 269.523 0.849706 -1.31186 0
M  V30 2800 H 270.258 3.21728 -0.407636 0
M  V30 2801 H 270.043 3.25805 -2.18159 0
M  V30 2802 H 271.533 3.91846 -1.44382 0
M  V30 2803 N 271.97 1.30982 0.876444 0
M  V30 2804 C 273.217 1.20296 1.62896 0
M  V30 2805 C 273.545 -0.240395 1.93009 0
M  V30 2806 O 272.8 -1.18733 1.55567 0
M  V30 2807 C 273.099 1.98572 2.9716 0
M  V30 2808 C 272.765 3.48125 2.86566 0
M  V30 2809 C 271.427 3.88905 2.83383 0
M  V30 2810 C 273.779 4.43322 2.74071 0
M  V30 2811 C 271.107 5.2316 2.65556 0
M  V30 2812 C 273.459 5.77695 2.57781 0
M  V30 2813 C 272.123 6.17704 2.52979 0
M  V30 2814 H 271.393 0.440193 0.59608 0
M  V30 2815 H 274.04 1.62177 1.01837 0
M  V30 2816 H 272.345 1.49352 3.62217 0
M  V30 2817 H 274.042 1.8769 3.54364 0
M  V30 2818 H 270.632 3.15723 2.89856 0
M  V30 2819 H 274.816 4.12752 2.75589 0
M  V30 2820 H 270.072 5.53241 2.60259 0
M  V30 2821 H 274.246 6.51091 2.47089 0
M  V30 2822 H 271.873 7.21678 2.38924 0
M  V30 2823 N 273.449 -1.08991 1.13837 0
M  V30 2824 C 274.412 -2.13925 0.822715 0
M  V30 2825 C 275.412 -1.599 -0.1699 0
M  V30 2826 O 276.602 -1.74104 0.0577251 0
M  V30 2827 C 273.734 -3.40155 0.225318 0
M  V30 2828 H 274.927 -2.43358 1.75262 0
M  V30 2829 H 272.48 -1.24603 0.943594 0
M  V30 2830 H 273.215 -3.16352 -0.713594 0
M  V30 2831 H 273 -3.80661 0.940193 0
M  V30 2832 H 274.49 -4.17594 0.0214784 0
M  V30 2833 N 274.927 -0.932562 -1.27047 0
M  V30 2834 C 276.204 -0.49377 -1.89265 0
M  V30 2835 C 276.584 1.02833 -1.8436 0
M  V30 2836 O 275.932 1.88461 -1.29209 0
M  V30 2837 C 276.142 -1.04536 -3.32976 0
M  V30 2838 C 277.49 -1.10879 -4.09867 0
M  V30 2839 O 278.514 -0.995327 -3.42011 0
M  V30 2840 O 277.373 -1.28417 -5.31198 0
M  V30 2841 H 274.467 -0.159596 -0.811454 0
M  V30 2842 H 277.013 -1.02457 -1.3528 0
M  V30 2843 H 275.785 -2.08913 -3.30864 0
M  V30 2844 H 275.408 -0.496494 -3.94488 0
M  V30 2845 N 276.405 1.4127 -0.698611 0
M  V30 2846 C 277.651 2.01478 -0.231207 0
M  V30 2847 C 277.984 1.55215 1.16713 0
M  V30 2848 O 277.259 0.764672 1.78838 0
M  V30 2849 C 277.542 3.58912 -0.292281 0
M  V30 2850 C 277.395 4.15293 -1.72778 0
M  V30 2851 C 278.714 4.38736 0.346194 0
M  V30 2852 H 275.833 0.732025 -0.0854878 0
M  V30 2853 H 278.475 1.67977 -0.887906 0
M  V30 2854 H 276.625 3.87582 0.26686 0
M  V30 2855 H 278.297 3.97486 -2.341 0
M  V30 2856 H 276.54 3.7022 -2.26096 0
M  V30 2857 H 277.211 5.24452 -1.72202 0
M  V30 2858 H 279.687 4.15897 -0.130035 0
M  V30 2859 H 278.563 5.48221 0.272932 0
M  V30 2860 H 278.824 4.18425 1.42734 0
M  V30 2861 N 277.883 0.443576 1.51229 0
M  V30 2862 C 279.131 -0.120557 2.0174 0
M  V30 2863 C 279.452 -1.42665 1.32935 0
M  V30 2864 O 278.722 -1.9028 0.465866 0
M  V30 2865 H 277.302 -0.0475426 0.745486 0
M  V30 2866 H 279.964 0.587711 1.85828 0
M  V30 2867 H 279.06 -0.291972 3.10731 0
M  V30 2868 N 279.361 -1.56624 0.175154 0
M  V30 2869 C 280.608 -1.96999 -0.468811 0
M  V30 2870 C 280.936 -1.06129 -1.62994 0
M  V30 2871 O 280.191 -0.0961771 -1.95464 0
M  V30 2872 C 280.49 -3.43419 -0.989864 0
M  V30 2873 C 280.156 -4.50866 0.0557687 0
M  V30 2874 C 278.818 -4.79975 0.343134 0
M  V30 2875 C 281.17 -5.15551 0.765308 0
M  V30 2876 C 278.498 -5.71066 1.34536 0
M  V30 2877 C 280.85 -6.07724 1.75654 0
M  V30 2878 C 279.514 -6.35199 2.05132 0
M  V30 2879 H 278.784 -0.720869 -0.17155 0
M  V30 2880 H 281.431 -1.89616 0.267924 0
M  V30 2881 H 279.736 -3.47772 -1.80449 0
M  V30 2882 H 281.433 -3.72002 -1.49719 0
M  V30 2883 H 278.023 -4.28229 -0.178381 0
M  V30 2884 H 282.207 -4.9317 0.556513 0
M  V30 2885 H 277.463 -5.90635 1.57988 0
M  V30 2886 H 281.637 -6.56912 2.31169 0
M  V30 2887 H 279.264 -7.05584 2.8294 0
M  V30 2888 N 280.839 0.0985539 -1.57292 0
M  V30 2889 C 282.25 0.653457 -1.74891 0
M  V30 2890 C 282.601 1.7929 -0.796838 0
M  V30 2891 O 281.726 2.16385 0.0254886 0
M  V30 2892 C 282.321 1.19216 -3.17133 0
M  V30 2893 C 280.88 1.69316 -3.36168 0
M  V30 2894 C 280.027 0.601294 -2.70702 0
M  V30 2895 H 282.978 -0.127497 -1.58187 0
M  V30 2896 H 282.999 2.06154 -3.19814 0
M  V30 2897 H 282.511 0.362635 -3.86402 0
M  V30 2898 H 280.612 2.5468 -2.71972 0
M  V30 2899 H 280.725 1.78853 -4.44464 0
M  V30 2900 H 279.089 1.0399 -2.32504 0
M  V30 2901 H 279.872 -0.217592 -3.4261 0
M  V30 2902 N 282.317 1.53212 0.369288 0
M  V30 2903 C 283.594 1.59815 1.12776 0
M  V30 2904 C 283.974 0.403402 2.0721 0
M  V30 2905 O 283.322 -0.606667 2.20299 0
M  V30 2906 C 283.532 2.94664 1.87013 0
M  V30 2907 C 284.88 3.49109 2.41677 0
M  V30 2908 O 285.904 2.96669 1.97144 0
M  V30 2909 O 284.763 4.40775 3.23079 0
M  V30 2910 H 281.857 0.645376 0.517125 0
M  V30 2911 H 284.403 1.65553 0.37285 0
M  V30 2912 H 283.175 3.73061 1.18071 0
M  V30 2913 H 282.798 2.92401 2.69421 0
M  V30 2914 N 283.795 -0.628877 1.44509 0
M  V30 2915 C 285.206 -1.21054 1.42137 0
M  V30 2916 C 285.557 -1.95715 0.137881 0
M  V30 2917 O 284.682 -2.02554 -0.761645 0
M  V30 2918 C 285.277 -2.20189 2.57493 0
M  V30 2919 C 283.836 -2.73777 2.58308 0
M  V30 2920 C 282.983 -1.48813 2.33987 0
M  V30 2921 H 285.934 -0.41942 1.53057 0
M  V30 2922 H 285.955 -3.02833 2.30375 0
M  V30 2923 H 285.467 -1.6582 3.50892 0
M  V30 2924 H 283.568 -3.32142 1.68856 0
M  V30 2925 H 283.681 -3.19662 3.56865 0
M  V30 2926 H 282.045 -1.77024 1.83124 0
M  V30 2927 H 282.828 -0.963442 3.29504 0
M  V30 2928 N 285.273 -1.31445 -0.869486 0
M  V30 2929 C 286.236 -1.19094 -1.9583 0
M  V30 2930 C 287.236 -0.117906 -1.60367 0
M  V30 2931 O 288.426 -0.367208 -1.70286 0
M  V30 2932 C 285.558 -0.828165 -3.30688 0
M  V30 2933 H 286.751 -2.15842 -2.08212 0
M  V30 2934 H 284.304 -1.15063 -1.05784 0
M  V30 2935 H 285.039 0.138142 -3.24006 0
M  V30 2936 H 284.824 -1.6038 -3.578 0
M  V30 2937 H 286.314 -0.765658 -4.10521 0
M  V30 2938 N 286.751 1.08385 -1.14413 0
M  V30 2939 C 287.683 2.1519 -0.789036 0
M  V30 2940 C 288.696 1.61638 0.19417 0
M  V30 2941 O 289.885 1.78479 -0.0275711 0
M  V30 2942 C 286.985 3.38565 -0.15058 0
M  V30 2943 C 286.158 4.21501 -1.16857 0
M  V30 2944 C 285.217 5.23277 -0.553832 0
M  V30 2945 O 284.243 5.56041 -1.21686 0
M  V30 2946 N 285.445 5.76629 0.669296 0
M  V30 2947 H 288.21 2.46257 -1.70814 0
M  V30 2948 H 285.771 1.24198 -1.03858 0
M  V30 2949 H 287.763 4.03777 0.273181 0
M  V30 2950 H 286.333 3.05299 0.671667 0
M  V30 2951 H 285.553 3.52265 -1.76926 0
M  V30 2952 H 286.841 4.73731 -1.85624 0
M  V30 2953 H 286.239 5.52243 1.22654 0
M  V30 2954 H 284.796 6.43521 1.03556 0
M  V30 2955 N 288.23 0.939286 1.26551 0
M  V30 2956 C 289.478 0.58469 1.93457 0
M  V30 2957 C 289.799 -0.878774 1.74076 0
M  V30 2958 O 289.069 -1.62421 1.09528 0
M  V30 2959 H 287.649 0.21325 0.715914 0
M  V30 2960 H 290.311 1.1942 1.54029 0
M  V30 2961 H 289.407 0.800849 3.0165 0
M  V30 2962 N 289.708 -1.40897 0.706093 0
M  V30 2963 C 290.641 -2.282 -0.00328781 0
M  V30 2964 C 291.619 -1.42816 -0.77732 0
M  V30 2965 O 292.803 -1.72237 -0.765944 0
M  V30 2966 C 289.93 -3.23226 -1.01205 0
M  V30 2967 C 288.976 -4.25222 -0.329955 0
M  V30 2968 S 289.809 -5.27269 0.935298 0
M  V30 2969 C 290.965 -6.25859 -0.0716061 0
M  V30 2970 H 291.198 -2.88016 0.737143 0
M  V30 2971 H 288.731 -1.46191 0.496756 0
M  V30 2972 H 290.689 -3.78503 -1.58888 0
M  V30 2973 H 289.35 -2.62485 -1.72513 0
M  V30 2974 H 288.543 -4.92023 -1.09221 0
M  V30 2975 H 288.145 -3.73595 0.174069 0
M  V30 2976 H 290.437 -6.71204 -0.921521 0
M  V30 2977 H 291.38 -7.0586 0.562765 0
M  V30 2978 H 291.788 -5.62852 -0.431088 0
M  V30 2979 N 291.186 -0.45159 -1.50991 0
M  V30 2980 C 292.602 -0.104647 -1.59257 0
M  V30 2981 C 292.802 1.38728 -1.4614 0
M  V30 2982 O 291.858 2.15866 -1.30989 0
M  V30 2983 C 293.171 -0.637468 -2.93865 0
M  V30 2984 C 294.719 -0.599166 -3.07212 0
M  V30 2985 C 295.194 -1.1092 -4.44366 0
M  V30 2986 N 296.685 -1.06778 -4.50725 0
M  V30 2987 C 297.42 -1.43314 -5.55201 0
M  V30 2988 N 296.916 -1.87204 -6.67028 0
M  V30 2989 N 298.709 -1.3504 -5.45638 0
M  V30 2990 H 290.86 -1.42214 -1.57762 0
M  V30 2991 H 293.123 -0.586921 -0.744465 0
M  V30 2992 H 292.829 -1.68187 -3.08879 0
M  V30 2993 H 292.703 -0.0702139 -3.77135 0
M  V30 2994 H 295.09 0.436277 -2.91857 0
M  V30 2995 H 295.171 -1.20299 -2.25747 0
M  V30 2996 H 294.815 -2.14318 -4.60467 0
M  V30 2997 H 294.745 -0.481773 -5.24392 0
M  V30 2998 H 297.236 -0.745643 -3.70471 0
M  V30 2999 H 297.549 -2.13282 -7.42786 0
M  V30 3000 H 295.894 -1.91142 -6.68199 0
M  V30 3001 H 299.085 -1.00607 -4.57161 0
M  V30 3002 H 299.258 -1.63841 -6.26945 0
M  V30 3003 N 292.664 1.56529 -0.183458 0
M  V30 3004 C 293.594 2.21549 0.737456 0
M  V30 3005 C 294.575 1.17489 1.23005 0
M  V30 3006 O 295.76 1.45959 1.281 0
M  V30 3007 C 292.89 2.86575 1.96194 0
M  V30 3008 C 291.844 3.96778 1.60473 0
M  V30 3009 C 291.17 4.48911 2.90487 0
M  V30 3010 C 292.47 5.15767 0.823497 0
M  V30 3011 H 294.164 2.98761 0.195453 0
M  V30 3012 H 291.71 1.43702 0.0925686 0
M  V30 3013 H 293.663 3.30739 2.61131 0
M  V30 3014 H 292.387 2.06749 2.52828 0
M  V30 3015 H 291.046 3.53286 0.978997 0
M  V30 3016 H 290.694 3.65862 3.45186 0
M  V30 3017 H 290.394 5.23265 2.67335 0
M  V30 3018 H 291.918 4.95771 3.56432 0
M  V30 3019 H 293.332 5.56549 1.37571 0
M  V30 3020 H 291.729 5.96114 0.690551 0
M  V30 3021 H 292.799 4.84574 -0.177782 0
M  V30 3022 N 294.142 -0.090211 1.57342 0
M  V30 3023 C 295.105 -1.09335 2.01441 0
M  V30 3024 C 296.105 -1.32666 0.908641 0
M  V30 3025 O 297.295 -1.28697 1.174 0
M  V30 3026 C 294.427 -2.44136 2.3793 0
M  V30 3027 H 295.62 -0.713662 2.91285 0
M  V30 3028 H 293.173 -0.335404 1.52659 0
M  V30 3029 H 293.908 -2.86972 1.51055 0
M  V30 3030 H 293.693 -2.28548 3.18603 0
M  V30 3031 H 295.183 -3.16277 2.72688 0
M  V30 3032 N 295.62 -1.53406 -0.361157 0
M  V30 3033 C 296.568 -1.80832 -1.46296 0
M  V30 3034 C 297.562 -0.677699 -1.55253 0
M  V30 3035 O 298.768 -0.860723 -1.58087 0
M  V30 3036 H 295.143 -0.572627 -0.487445 0
M  V30 3037 H 297.114 -2.73045 -1.20371 0
M  V30 3038 C 295.863 -2.01907 -2.8307 0
M  V30 3039 H 295.186 -2.88349 -2.76938 0
M  V30 3040 H 296.626 -2.25072 -3.59331 0
M  V30 3041 C 295.085 -0.799449 -3.27277 0
M  V30 3042 O 295.615 0.00971761 -4.01699 0
M  V30 3043 N 293.821 -0.621637 -2.83873 0
M  V30 3044 H 293.368 -1.28126 -2.23476 0
M  V30 3045 H 293.326 0.19298 -3.13807 0
M  V30 3046 N 297.098 0.621204 -1.44841 0
M  V30 3047 C 298.031 1.7459 -1.46947 0
M  V30 3048 C 299.009 1.59273 -0.327238 0
M  V30 3049 O 300.193 1.81021 -0.525706 0
M  V30 3050 C 297.32 3.12274 -1.31159 0
M  V30 3051 C 296.366 3.46216 -2.49072 0
M  V30 3052 S 297.199 3.4258 -4.11581 0
M  V30 3053 C 298.355 4.82867 -3.98233 0
M  V30 3054 H 298.588 1.72538 -2.42111 0
M  V30 3055 H 296.121 0.796683 -1.32259 0
M  V30 3056 H 298.079 3.91722 -1.22737 0
M  V30 3057 H 296.74 3.11855 -0.374885 0
M  V30 3058 H 295.933 4.4643 -2.33915 0
M  V30 3059 H 295.535 2.74253 -2.54286 0
M  V30 3060 H 297.827 5.7234 -3.62537 0
M  V30 3061 H 298.77 5.0308 -4.98313 0
M  V30 3062 H 299.178 4.57908 -3.30121 0
M  V30 3063 N 298.576 1.31904 0.862503 0
M  V30 3064 C 299.822 1.22197 1.61851 0
M  V30 3065 C 300.155 -0.217641 1.92977 0
M  V30 3066 O 299.43 -1.15264 1.56666 0
M  V30 3067 C 299.713 2.07378 2.94391 0
M  V30 3068 C 299.566 3.59678 2.70096 0
M  V30 3069 C 300.885 1.92891 3.95577 0
M  V30 3070 H 298.004 0.445255 0.587296 0
M  V30 3071 H 300.646 1.6177 0.99651 0
M  V30 3072 H 298.796 1.73758 3.47477 0
M  V30 3073 H 300.468 4.03472 2.23625 0
M  V30 3074 H 298.711 3.82735 2.04197 0
M  V30 3075 H 299.382 4.14595 3.64438 0
M  V30 3076 H 301.858 2.22327 3.51724 0
M  V30 3077 H 300.734 2.54781 4.86187 0
M  V30 3078 H 300.995 0.894315 4.3296 0
M  V30 3079 N 300.054 -1.07777 1.14986 0
M  V30 3080 C 300.986 -2.14769 0.800436 0
M  V30 3081 C 301.999 -1.61739 -0.185595 0
M  V30 3082 O 303.188 -1.78462 0.0370358 0
M  V30 3083 C 300.288 -3.38481 0.168533 0
M  V30 3084 C 299.461 -4.20876 1.1909 0
M  V30 3085 C 298.52 -5.22976 0.581575 0
M  V30 3086 O 297.546 -5.55388 1.24633 0
M  V30 3087 N 298.748 -5.76976 -0.638706 0
M  V30 3088 H 301.513 -2.45348 1.72118 0
M  V30 3089 H 299.074 -1.23645 1.04515 0
M  V30 3090 H 301.066 -4.03916 -0.251764 0
M  V30 3091 H 299.636 -3.05651 -0.655467 0
M  V30 3092 H 298.856 -3.51322 1.78791 0
M  V30 3093 H 300.144 -4.7274 1.88133 0
M  V30 3094 H 299.542 -5.52886 -1.19723 0
M  V30 3095 H 298.099 -6.44061 -1.00142 0
M  V30 3096 N 301.532 -0.945985 -1.26051 0
M  V30 3097 C 302.762 -0.612136 -1.97323 0
M  V30 3098 C 303.17 0.818171 -1.70595 0
M  V30 3099 O 302.513 1.55777 -0.973613 0
M  V30 3100 C 302.575 -0.780347 -3.50929 0
M  V30 3101 C 302.239 -2.18619 -4.01317 0
M  V30 3102 C 303.236 -3.16209 -4.12683 0
M  V30 3103 C 300.921 -2.50805 -4.35203 0
M  V30 3104 C 302.915 -4.44085 -4.57238 0
M  V30 3105 C 300.602 -3.78912 -4.79446 0
M  V30 3106 C 301.6 -4.75365 -4.90425 0
M  V30 3107 O 301.288 -6.01191 -5.3369 0
M  V30 3108 H 301.02 -0.229134 -0.635982 0
M  V30 3109 H 303.574 -1.27036 -1.61404 0
M  V30 3110 H 301.804 -0.0649864 -3.86645 0
M  V30 3111 H 303.493 -0.448842 -4.03411 0
M  V30 3112 H 304.259 -2.92668 -3.86744 0
M  V30 3113 H 300.138 -1.76463 -4.2589 0
M  V30 3114 H 303.682 -5.19373 -4.65723 0
M  V30 3115 H 299.579 -4.02265 -5.0483 0
M  V30 3116 H 300.347 -6.04442 -5.51899 0
M  V30 3117 N 303.011 1.40521 -0.713556 0
M  V30 3118 C 303.958 2.30723 -0.059684 0
M  V30 3119 C 304.928 1.48079 0.752448 0
M  V30 3120 O 306.113 1.76823 0.71681 0
M  V30 3121 C 303.253 3.34274 0.857594 0
M  V30 3122 C 302.366 4.31986 0.0351536 0
M  V30 3123 C 301.501 5.22605 0.951724 0
M  V30 3124 C 300.54 6.11976 0.123253 0
M  V30 3125 N 299.677 6.9502 0.99459 0
M  V30 3126 H 304.517 2.86074 -0.834596 0
M  V30 3127 H 302.054 1.40879 -0.42326 0
M  V30 3128 H 304.012 3.92879 1.40364 0
M  V30 3129 H 302.642 2.8043 1.59871 0
M  V30 3130 H 301.694 3.7518 -0.628052 0
M  V30 3131 H 303.006 4.95101 -0.606347 0
M  V30 3132 H 302.16 5.86131 1.56638 0
M  V30 3133 H 300.899 4.59759 1.62705 0
M  V30 3134 H 299.904 5.47482 -0.50435 0
M  V30 3135 H 301.129 6.76881 -0.548539 0
M  V30 3136 H 299.075 6.34764 1.6556 0
M  V30 3137 H 298.992 7.54892 0.40908 0
M  V30 3138 H 300.26 7.62997 1.59549 0
M  V30 3139 N 304.489 0.459591 1.5075 0
M  V30 3140 C 305.452 -0.329093 2.26825 0
M  V30 3141 C 306.452 -0.930481 1.31144 0
M  V30 3142 O 307.642 -0.801453 1.54669 0
M  V30 3143 C 304.774 -1.46768 3.07688 0
M  V30 3144 H 305.967 0.337924 2.9799 0
M  V30 3145 H 303.52 0.213336 1.54837 0
M  V30 3146 H 304.255 -2.17009 2.40993 0
M  V30 3147 H 304.04 -1.04238 3.77991 0
M  V30 3148 H 305.53 -2.02433 3.65254 0
M  V30 3149 N 305.967 -1.56429 0.191757 0
M  V30 3150 C 307.244 -1.89224 -0.495332 0
M  V30 3151 C 307.624 -1.10478 -1.79883 0
M  V30 3152 O 306.972 -0.204852 -2.2758 0
M  V30 3153 C 307.182 -3.41548 -0.717367 0
M  V30 3154 C 308.53 -4.11711 -1.03823 0
M  V30 3155 O 309.554 -3.4698 -0.805204 0
M  V30 3156 O 308.413 -5.2611 -1.47887 0
M  V30 3157 H 305.507 -0.785788 -0.25781 0
M  V30 3158 H 308.053 -1.68111 0.231721 0
M  V30 3159 H 306.825 -3.90772 0.203287 0
M  V30 3160 H 306.448 -3.68342 -1.497 0
M  V30 3161 N 307.445 0.0818655 -1.57387 0
M  V30 3162 C 308.375 1.09885 -2.06028 0
M  V30 3163 C 309.356 1.4098 -0.951774 0
M  V30 3164 O 310.541 1.50781 -1.22387 0
M  V30 3165 C 307.671 2.4151 -2.4958 0
M  V30 3166 C 306.625 2.24792 -3.64215 0
M  V30 3167 C 305.951 3.61712 -3.93787 0
M  V30 3168 C 307.251 1.67749 -4.94629 0
M  V30 3169 H 308.945 0.694128 -2.91243 0
M  V30 3170 H 306.491 0.332448 -1.4011 0
M  V30 3171 H 308.444 3.12939 -2.82219 0
M  V30 3172 H 307.168 2.83943 -1.61381 0
M  V30 3173 H 305.827 1.55807 -3.31843 0
M  V30 3174 H 305.475 4.01697 -3.02735 0
M  V30 3175 H 305.175 3.51368 -4.70971 0
M  V30 3176 H 306.699 4.34587 -4.28913 0
M  V30 3177 H 308.113 2.29032 -5.25564 0
M  V30 3178 H 306.51 1.68128 -5.76067 0
M  V30 3179 H 307.58 0.638059 -4.80684 0
M  V30 3180 N 308.923 1.53595 0.353017 0
M  V30 3181 C 310.148 1.7462 1.11904 0
M  V30 3182 C 310.573 0.479721 1.8188 0
M  V30 3183 O 309.931 -0.567066 1.72204 0
M  V30 3184 C 309.979 2.92029 2.11545 0
M  V30 3185 O 309.083 2.61516 3.18878 0
M  V30 3186 H 308.424 0.579531 0.324099 0
M  V30 3187 H 310.954 2.00525 0.406301 0
M  V30 3188 H 310.964 3.18551 2.5493 0
M  V30 3189 H 309.639 3.83888 1.60008 0
M  V30 3190 H 308.216 2.45852 2.80377 0
M  V30 3191 N 310.401 -0.613514 1.45168 0
M  V30 3192 C 311.629 -1.39946 1.5239 0
M  V30 3193 C 312.044 -1.88167 0.154531 0
M  V30 3194 O 311.401 -1.61872 -0.842843 0
M  V30 3195 C 311.452 -2.60795 2.50337 0
M  V30 3196 O 311.173 -2.1458 3.81952 0
M  V30 3197 C 312.674 -3.53723 2.67198 0
M  V30 3198 H 309.894 -0.428593 0.516284 0
M  V30 3199 H 312.438 -0.748753 1.903 0
M  V30 3200 H 310.593 -3.21919 2.15515 0
M  V30 3201 H 311.007 -2.93055 4.34993 0
M  V30 3202 H 312.481 -4.35079 3.39721 0
M  V30 3203 H 312.958 -4.0368 1.73029 0
M  V30 3204 H 313.564 -2.98456 3.02992 0
M  V30 3205 N 311.879 -1.3236 -0.855495 0
M  V30 3206 C 312.811 -1.17052 -1.97057 0
M  V30 3207 C 313.824 -0.10574 -1.62456 0
M  V30 3208 O 315.013 -0.354619 -1.74942 0
M  V30 3209 C 312.113 -0.769305 -3.30053 0
M  V30 3210 C 311.286 -1.9222 -3.929 0
M  V30 3211 C 310.345 -1.50466 -5.04228 0
M  V30 3212 O 309.371 -2.21655 -5.24269 0
M  V30 3213 N 310.573 -0.400209 -5.79119 0
M  V30 3214 H 313.338 -2.13103 -2.1073 0
M  V30 3215 H 310.899 -1.24885 -1.0303 0
M  V30 3216 H 312.891 -0.472407 -4.01933 0
M  V30 3217 H 311.461 0.100025 -3.1244 0
M  V30 3218 H 310.681 -2.38563 -3.13817 0
M  V30 3219 H 311.969 -2.69403 -4.31624 0
M  V30 3220 H 311.367 0.192319 -5.65373 0
M  V30 3221 H 309.924 -0.162912 -6.51596 0
M  V30 3222 N 313.357 1.07166 -1.15556 0
M  V30 3223 C 314.287 2.16403 -0.877046 0
M  V30 3224 C 315.268 1.69217 0.173111 0
M  V30 3225 O 316.453 1.94181 0.027084 0
M  V30 3226 C 313.583 3.45349 -0.367632 0
M  V30 3227 C 312.537 4.05995 -1.35468 0
M  V30 3228 C 311.863 5.30045 -0.704038 0
M  V30 3229 C 313.163 4.45804 -2.72132 0
M  V30 3230 H 314.857 2.39959 -1.79053 0
M  V30 3231 H 312.403 1.15325 -0.862331 0
M  V30 3232 H 314.356 4.21095 -0.160317 0
M  V30 3233 H 313.08 3.21385 0.581326 0
M  V30 3234 H 311.739 3.32296 -1.54839 0
M  V30 3235 H 311.387 5.02373 0.251128 0
M  V30 3236 H 311.087 5.71579 -1.36277 0
M  V30 3237 H 312.611 6.08495 -0.50654 0
M  V30 3238 H 314.025 5.12671 -2.56595 0
M  V30 3239 H 312.422 4.98296 -3.34397 0
M  V30 3240 H 313.492 3.57083 -3.28054 0
M  V30 3241 N 314.835 0.952656 1.25548 0
M  V30 3242 C 316.083 0.605176 1.92826 0
M  V30 3243 C 316.404 -0.860261 1.74999 0
M  V30 3244 O 315.674 -1.6125 1.11244 0
M  V30 3245 H 314.254 0.220832 0.713612 0
M  V30 3246 H 316.916 1.21047 1.52754 0
M  V30 3247 H 316.012 0.832798 3.00784 0
M  V30 3248 N 316.313 -1.40141 0.720998 0
M  V30 3249 C 317.26 -2.30688 0.071919 0
M  V30 3250 C 318.23 -1.48476 -0.744584 0
M  V30 3251 O 319.415 -1.77201 -0.707423 0
M  V30 3252 C 316.555 -3.34724 -0.839855 0
M  V30 3253 C 315.668 -4.31998 -0.0122438 0
M  V30 3254 C 314.803 -5.23102 -0.923995 0
M  V30 3255 C 313.842 -6.12033 -0.0907969 0
M  V30 3256 N 312.979 -6.95537 -0.957718 0
M  V30 3257 H 317.819 -2.85628 0.849755 0
M  V30 3258 H 315.356 -1.40653 0.430726 0
M  V30 3259 H 317.314 -3.93618 -1.38279 0
M  V30 3260 H 315.944 -2.81274 -1.58381 0
M  V30 3261 H 314.996 -3.74841 0.64794 0
M  V30 3262 H 316.308 -4.94772 0.632595 0
M  V30 3263 H 315.462 -5.86953 -1.53527 0
M  V30 3264 H 314.201 -4.60615 -1.60264 0
M  V30 3265 H 313.206 -5.47207 0.533377 0
M  V30 3266 H 314.431 -6.76581 0.584428 0
M  V30 3267 H 312.377 -6.35633 -1.62192 0
M  V30 3268 H 312.294 -7.55099 -0.36904 0
M  V30 3269 H 313.562 -7.63832 -1.555 0
M  V30 3270 N 317.792 -0.46758 -1.50504 0
M  V30 3271 C 318.739 0.328413 -2.28452 0
M  V30 3272 C 319.709 0.990313 -1.33349 0
M  V30 3273 O 320.894 1.00343 -1.62284 0
M  V30 3274 C 318.034 1.40648 -3.15138 0
M  V30 3275 C 317.147 0.759709 -4.25267 0
M  V30 3276 C 316.282 1.81537 -4.99217 0
M  V30 3277 C 315.321 1.14866 -6.01226 0
M  V30 3278 N 314.458 2.14702 -6.68467 0
M  V30 3279 H 319.298 -0.342603 -2.96024 0
M  V30 3280 H 316.835 -0.180801 -1.45985 0
M  V30 3281 H 318.793 2.04315 -3.63746 0
M  V30 3282 H 317.423 2.04671 -2.49619 0
M  V30 3283 H 316.475 0.0105671 -3.80399 0
M  V30 3284 H 317.787 0.233243 -4.98254 0
M  V30 3285 H 316.941 2.52793 -5.51526 0
M  V30 3286 H 315.68 2.37564 -4.25928 0
M  V30 3287 H 314.685 0.42171 -5.4818 0
M  V30 3288 H 315.91 0.595334 -6.76485 0
M  V30 3289 H 313.856 2.69752 -5.97972 0
M  V30 3290 H 313.773 1.6703 -7.37317 0
M  V30 3291 H 315.041 2.85348 -7.25394 0
M  V30 3292 N 319.27 1.56325 -0.20005 0
M  V30 3293 C 320.2 2.22318 0.713916 0
M  V30 3294 C 321.181 1.18788 1.21752 0
M  V30 3295 O 322.366 1.47309 1.26545 0
M  V30 3296 C 319.496 2.88639 1.93144 0
M  V30 3297 C 318.45 3.98457 1.56255 0
M  V30 3298 C 317.776 4.51967 2.85709 0
M  V30 3299 C 319.076 5.16612 0.768747 0
M  V30 3300 H 320.77 2.98952 0.163755 0
M  V30 3301 H 318.316 1.43792 0.0773219 0
M  V30 3302 H 320.269 3.33491 2.57608 0
M  V30 3303 H 318.993 2.09419 2.50621 0
M  V30 3304 H 317.652 3.54305 0.941471 0
M  V30 3305 H 317.3 3.69503 3.41287 0
M  V30 3306 H 317 5.26071 2.6177 0
M  V30 3307 H 318.524 4.99523 3.51154 0
M  V30 3308 H 319.938 5.57977 1.3166 0
M  V30 3309 H 318.335 5.96812 0.627286 0
M  V30 3310 H 319.405 4.84358 -0.229168 0
M  V30 3311 N 320.748 -0.0735177 1.57428 0
M  V30 3312 C 321.978 -0.78483 1.91112 0
M  V30 3313 C 322.386 -1.71729 0.7941 0
M  V30 3314 O 321.729 -1.82105 -0.241542 0
M  V30 3315 C 321.791 -1.63346 3.20247 0
M  V30 3316 C 321.455 -0.870557 4.48632 0
M  V30 3317 C 322.452 -0.19058 5.19551 0
M  V30 3318 C 320.137 -0.838242 4.95256 0
M  V30 3319 C 322.131 0.511503 6.35344 0
M  V30 3320 C 319.818 -0.132386 6.10957 0
M  V30 3321 C 320.816 0.541288 6.80852 0
M  V30 3322 O 320.504 1.23578 7.94345 0
M  V30 3323 H 320.236 -0.228408 0.636244 0
M  V30 3324 H 322.79 -0.0486039 2.05342 0
M  V30 3325 H 321.02 -2.41245 3.02222 0
M  V30 3326 H 322.709 -2.22329 3.39595 0
M  V30 3327 H 323.475 -0.206864 4.84559 0
M  V30 3328 H 319.354 -1.35206 4.40727 0
M  V30 3329 H 322.898 1.03789 6.89836 0
M  V30 3330 H 318.795 -0.114023 6.45399 0
M  V30 3331 H 319.563 1.14487 8.10454 0
M  V30 3332 N 322.226 -1.5378 -0.344866 0
M  V30 3333 C 323.472 -1.71216 -1.08687 0
M  V30 3334 C 323.805 -0.473281 -1.88345 0
M  V30 3335 O 323.08 0.52968 -1.87149 0
M  V30 3336 C 323.363 -2.97486 -2.02914 0
M  V30 3337 C 323.216 -4.31579 -1.26727 0
M  V30 3338 C 324.535 -3.19422 -3.0275 0
M  V30 3339 H 321.654 -0.62301 -0.393735 0
M  V30 3340 H 324.296 -1.8645 -0.365563 0
M  V30 3341 H 322.446 -2.84629 -2.64421 0
M  V30 3342 H 324.118 -4.56284 -0.67845 0
M  V30 3343 H 322.361 -4.30049 -0.569273 0
M  V30 3344 H 323.032 -5.16106 -1.95803 0
M  V30 3345 H 325.508 -3.316 -2.51357 0
M  V30 3346 H 324.384 -4.09169 -3.65885 0
M  V30 3347 H 324.645 -2.35656 -3.74057 0
M  V30 3348 N 323.704 0.605807 -1.45491 0
M  V30 3349 C 324.614 1.74466 -1.56839 0
M  V30 3350 C 325.63 1.68006 -0.452772 0
M  V30 3351 O 326.806 1.8833 -0.713708 0
M  V30 3352 C 323.871 3.10931 -1.53371 0
M  V30 3353 C 322.932 3.28832 -2.75986 0
M  V30 3354 C 322.165 4.58787 -2.72673 0
M  V30 3355 O 322.388 5.4122 -1.80102 0
M  V30 3356 O 321.322 4.79438 -3.63899 0
M  V30 3357 H 325.148 1.67843 -2.53106 0
M  V30 3358 H 322.733 0.770108 -1.28022 0
M  V30 3359 H 324.615 3.92233 -1.54051 0
M  V30 3360 H 323.29 3.18042 -0.602572 0
M  V30 3361 H 322.197 2.47112 -2.80867 0
M  V30 3362 H 323.53 3.26599 -3.68231 0
M  V30 3363 N 325.182 1.32811 0.848464 0
M  V30 3364 C 326.428 1.23907 1.60546 0
M  V30 3365 C 326.761 -0.197161 1.93197 0
M  V30 3366 O 326.036 -1.13596 1.5788 0
M  V30 3367 C 326.319 2.10489 2.92175 0
M  V30 3368 C 326.172 3.62522 2.66266 0
M  V30 3369 C 327.491 1.97075 3.93509 0
M  V30 3370 H 324.61 0.451459 0.58254 0
M  V30 3371 H 327.252 1.62818 0.979296 0
M  V30 3372 H 325.402 1.77434 3.45614 0
M  V30 3373 H 327.074 4.05821 2.19334 0
M  V30 3374 H 325.317 3.84879 2.00126 0
M  V30 3375 H 325.988 4.18437 3.6002 0
M  V30 3376 H 328.464 2.26045 3.49346 0
M  V30 3377 H 327.34 2.59923 4.83457 0
M  V30 3378 H 327.601 0.940186 4.31987 0
M  V30 3379 N 326.66 -1.06551 1.16123 0
M  V30 3380 C 327.906 -1.79567 0.94252 0
M  V30 3381 C 328.239 -1.86869 -0.528547 0
M  V30 3382 O 327.514 -1.35838 -1.39206 0
M  V30 3383 C 327.797 -3.24195 1.56747 0
M  V30 3384 C 327.65 -3.24989 3.10969 0
M  V30 3385 C 328.969 -4.21678 1.25998 0
M  V30 3386 H 326.088 -0.651883 0.343828 0
M  V30 3387 H 328.73 -1.2463 1.43413 0
M  V30 3388 H 326.88 -3.71107 1.14942 0
M  V30 3389 H 328.552 -2.86258 3.61737 0
M  V30 3390 H 326.795 -2.63716 3.44436 0
M  V30 3391 H 327.466 -4.27005 3.49815 0
M  V30 3392 H 329.942 -3.83196 1.62174 0
M  V30 3393 H 328.818 -5.21146 1.7233 0
M  V30 3394 H 329.079 -4.4174 0.178367 0
M  V30 3395 N 328.138 -0.959301 -1.25041 0
M  V30 3396 C 329.415 -0.533805 -1.88175 0
M  V30 3397 C 329.795 0.988994 -1.865 0
M  V30 3398 O 329.143 1.85677 -1.33177 0
M  V30 3399 C 329.353 -1.11575 -3.30684 0
M  V30 3400 C 330.701 -1.19548 -4.07423 0
M  V30 3401 O 331.725 -1.06765 -3.39823 0
M  V30 3402 O 330.584 -1.39656 -5.28354 0
M  V30 3403 H 327.678 -0.176772 -0.807887 0
M  V30 3404 H 330.224 -1.05303 -1.33076 0
M  V30 3405 H 328.996 -2.15884 -3.26358 0
M  V30 3406 H 328.619 -0.580059 -3.93346 0
M  V30 3407 N 329.616 1.39756 -0.72842 0
M  V30 3408 C 330.564 2.32485 -0.0731849 0
M  V30 3409 C 331.558 1.52717 0.733063 0
M  V30 3410 O 332.764 1.68428 0.634988 0
M  V30 3411 H 329.139 0.751984 -0.00486469 0
M  V30 3412 H 331.11 2.85382 -0.871761 0
M  V30 3413 C 329.859 3.37773 0.824908 0
M  V30 3414 H 329.182 3.99227 0.213915 0
M  V30 3415 H 330.622 4.05121 1.25111 0
M  V30 3416 C 329.081 2.74287 1.95622 0
M  V30 3417 O 329.611 2.61618 3.04826 0
M  V30 3418 N 327.817 2.32475 1.74367 0
M  V30 3419 H 327.364 2.4298 0.855494 0
M  V30 3420 H 327.322 1.90337 2.50238 0
M  V30 3421 N 331.094 0.475555 1.50254 0
M  V30 3422 C 332.057 -0.305016 2.27161 0
M  V30 3423 C 333.057 -0.916519 1.32123 0
M  V30 3424 O 334.247 -0.785003 1.5551 0
M  V30 3425 C 331.379 -1.43496 3.09227 0
M  V30 3426 H 332.572 0.369511 2.97615 0
M  V30 3427 H 330.125 0.229747 1.54602 0
M  V30 3428 H 330.86 -2.14441 2.43281 0
M  V30 3429 H 330.645 -1.00223 3.79075 0
M  V30 3430 H 332.135 -1.98548 3.67381 0
M  V30 3431 N 332.573 -1.56217 0.208337 0
M  V30 3432 C 333.801 -2.02337 -0.43215 0
M  V30 3433 C 334.216 -1.08834 -1.54275 0
M  V30 3434 O 333.573 -0.0955462 -1.8225 0
M  V30 3435 C 333.624 -3.48072 -0.976138 0
M  V30 3436 O 333.345 -4.38007 0.0901621 0
M  V30 3437 C 334.846 -4.09773 -1.69119 0
M  V30 3438 H 332.066 -0.662385 -0.10718 0
M  V30 3439 H 334.61 -2.01966 0.320923 0
M  V30 3440 H 332.765 -3.49099 -1.67954 0
M  V30 3441 H 333.179 -5.23543 -0.316701 0
M  V30 3442 H 334.653 -5.13556 -2.02397 0
M  V30 3443 H 335.13 -3.53999 -2.59964 0
M  V30 3444 H 335.736 -4.12556 -1.03332 0
M  V30 3445 N 334.051 0.0651679 -1.57465 0
M  V30 3446 C 335.276 0.779605 -1.9219 0
M  V30 3447 C 335.701 1.69988 -0.805333 0
M  V30 3448 O 335.059 1.79685 0.241435 0
M  V30 3449 C 335.107 1.54364 -3.2589 0
M  V30 3450 O 334.211 2.65474 -3.1559 0
M  V30 3451 H 333.552 0.212249 -0.629163 0
M  V30 3452 H 336.082 0.0314294 -2.04576 0
M  V30 3453 H 336.092 1.92146 -3.59922 0
M  V30 3454 H 334.767 0.868457 -4.06732 0
M  V30 3455 H 333.344 2.30501 -2.93128 0
M  V30 3456 N 335.529 1.53961 0.336706 0
M  V30 3457 C 336.806 1.62171 1.09361 0
M  V30 3458 C 337.186 0.447263 2.06307 0
M  V30 3459 O 336.534 -0.559802 2.21537 0
M  V30 3460 C 336.744 2.98565 1.80721 0
M  V30 3461 C 338.092 3.54157 2.34218 0
M  V30 3462 O 339.116 3.00784 1.90807 0
M  V30 3463 O 337.975 4.47528 3.13657 0
M  V30 3464 H 335.069 0.6562 0.503319 0
M  V30 3465 H 337.615 1.66307 0.33765 0
M  V30 3466 H 336.387 3.75482 1.10132 0
M  V30 3467 H 336.01 2.9805 2.63158 0
M  V30 3468 N 337.007 -0.598083 1.45811 0
M  V30 3469 C 338.253 -1.35679 1.51535 0
M  V30 3470 C 338.608 -1.91745 0.15864 0
M  V30 3471 O 337.901 -1.72654 -0.830724 0
M  V30 3472 C 338.095 -2.51669 2.53766 0
M  V30 3473 C 337.924 -2.06963 3.99245 0
M  V30 3474 C 336.694 -1.92693 4.67116 0
M  V30 3475 C 338.892 -1.63855 4.875 0
M  V30 3476 N 336.874 -1.41897 5.97276 0
M  V30 3477 C 338.245 -1.24541 6.07363 0
M  V30 3478 C 340.3 -1.51533 4.74281 0
M  V30 3479 C 339.003 -0.741354 7.15469 0
M  V30 3480 C 341.029 -1.0253 5.82444 0
M  V30 3481 C 340.391 -0.641869 7.01469 0
M  V30 3482 H 336.49 -0.490042 0.609412 0
M  V30 3483 H 339.074 -0.682687 1.82339 0
M  V30 3484 H 337.245 -3.16663 2.24898 0
M  V30 3485 H 338.977 -3.18578 2.4958 0
M  V30 3486 H 335.732 -2.1417 4.22408 0
M  V30 3487 H 336.156 -1.18704 6.66512 0
M  V30 3488 H 340.798 -1.798 3.82664 0
M  V30 3489 H 338.516 -0.446243 8.06867 0
M  V30 3490 H 342.102 -0.934088 5.74253 0
M  V30 3491 H 340.982 -0.268531 7.8374 0
M  V30 3492 N 338.485 -1.33259 -0.841409 0
M  V30 3493 C 339.733 -1.24326 -1.59334 0
M  V30 3494 C 340.054 0.191564 -1.94057 0
M  V30 3495 O 339.324 1.11967 -1.60749 0
M  V30 3496 H 337.904 -0.457174 -0.590763 0
M  V30 3497 H 340.566 -1.66947 -1.00571 0
M  V30 3498 H 339.662 -1.8352 -2.52442 0
M  V30 3499 N 339.963 1.05934 -1.16686 0
M  V30 3500 C 341.209 1.79065 -0.95203 0
M  V30 3501 C 341.542 1.87147 0.518629 0
M  V30 3502 O 340.817 1.36574 1.38484 0
M  V30 3503 C 341.1 3.23359 -1.58464 0
M  V30 3504 C 340.953 3.23336 -3.12689 0
M  V30 3505 C 342.272 4.21004 -1.28232 0
M  V30 3506 H 339.391 0.65005 -0.34728 0
M  V30 3507 H 342.033 1.23868 -1.44072 0
M  V30 3508 H 340.183 3.70493 -1.16908 0
M  V30 3509 H 341.855 2.84336 -3.6325 0
M  V30 3510 H 340.098 2.61886 -3.4583 0
M  V30 3511 H 340.769 4.25144 -3.52075 0
M  V30 3512 H 343.245 3.8233 -1.64203 0
M  V30 3513 H 342.121 5.20225 -1.75092 0
M  V30 3514 H 342.382 4.41639 -0.201791 0
M  V30 3515 N 341.441 0.965919 1.2453 0
M  V30 3516 C 342.69 0.622437 1.91856 0
M  V30 3517 C 343.003 -0.846006 1.76358 0
M  V30 3518 O 344.209 -1.29993 2.38357 0
M  V30 3519 C 342.665 1.0626 3.43856 0
M  V30 3520 C 342.273 2.55437 3.68043 0
M  V30 3521 C 344.017 0.792183 4.17043 0
M  V30 3522 C 341.924 2.93196 5.13605 0
M  V30 3523 H 340.854 0.229092 0.718354 0
M  V30 3524 H 343.505 1.17189 1.41206 0
M  V30 3525 H 341.887 0.441476 3.93531 0
M  V30 3526 H 343.061 3.22665 3.28974 0
M  V30 3527 H 341.376 2.8007 3.08139 0
M  V30 3528 H 343.973 1.05031 5.24283 0
M  V30 3529 H 344.316 -0.271584 4.15413 0
M  V30 3530 H 344.849 1.37419 3.73311 0
M  V30 3531 H 341.588 3.98636 5.20355 0
M  V30 3532 H 341.108 2.30651 5.53679 0
M  V30 3533 H 342.787 2.83004 5.81823 0
M  V30 3534 N 342.919 -1.39368 0.735821 0
M  V30 3535 C 344.166 -2.00497 0.284123 0
M  V30 3536 C 344.494 -1.58387 -1.12889 0
M  V30 3537 O 343.749 -0.804359 -1.78406 0
M  V30 3538 C 344.048 -3.5583 0.334651 0
M  V30 3539 C 343.714 -4.17593 1.7008 0
M  V30 3540 C 342.376 -4.34176 2.07472 0
M  V30 3541 C 344.728 -4.51848 2.59775 0
M  V30 3542 C 342.056 -4.82304 3.34065 0
M  V30 3543 C 344.408 -5.01384 3.85741 0
M  V30 3544 C 343.072 -5.16175 4.23225 0
M  V30 3545 H 342.342 -0.73367 0.103968 0
M  V30 3546 H 344.989 -1.66683 0.942825 0
M  V30 3547 H 343.294 -3.89674 -0.407625 0
M  V30 3548 H 344.991 -4.00986 -0.0329927 0
M  V30 3549 H 341.581 -4.05087 1.40008 0
M  V30 3550 H 345.765 -4.38653 2.32157 0
M  V30 3551 H 341.021 -4.91941 3.63049 0
M  V30 3552 H 345.195 -5.26863 4.55399 0
M  V30 3553 H 342.822 -5.5323 5.21384 0
M  V30 3554 N 344.397 -0.483516 -1.5 0
M  V30 3555 C 345.36 0.292965 -2.2732 0
M  V30 3556 C 346.36 0.909499 -1.32608 0
M  V30 3557 O 347.55 0.776745 -1.55924 0
M  V30 3558 C 344.682 1.41854 -3.09984 0
M  V30 3559 H 345.875 -0.385289 -2.97415 0
M  V30 3560 H 343.428 -0.237942 -1.54478 0
M  V30 3561 H 344.163 2.13148 -2.44414 0
M  V30 3562 H 343.948 0.982114 -3.79601 0
M  V30 3563 H 345.438 1.96597 -3.68429 0
M  V30 3564 N 345.875 1.56104 -0.216619 0
M  V30 3565 C 347.152 1.89988 0.465165 0
M  V30 3566 C 347.532 1.13326 1.78102 0
M  V30 3567 O 346.88 0.241033 2.27225 0
M  V30 3568 C 347.09 3.42646 0.662939 0
M  V30 3569 C 348.438 4.13311 0.972602 0
M  V30 3570 O 349.462 3.48217 0.749901 0
M  V30 3571 O 348.321 5.28396 1.39499 0
M  V30 3572 H 345.415 0.78979 0.245276 0
M  V30 3573 H 347.961 1.67721 -0.258436 0
M  V30 3574 H 346.733 3.90399 -0.26543 0
M  V30 3575 H 346.356 3.70677 1.43821 0
M  V30 3576 N 347.353 -0.0568162 1.57498 0
M  V30 3577 C 348.316 -1.05038 2.03715 0
M  V30 3578 C 349.316 -1.30709 0.936577 0
M  V30 3579 O 350.506 -1.26178 1.20103 0
M  V30 3580 C 347.638 -2.39034 2.43055 0
M  V30 3581 H 348.831 -0.651715 2.92733 0
M  V30 3582 H 346.384 -0.302947 1.53336 0
M  V30 3583 H 347.119 -2.83703 1.57108 0
M  V30 3584 H 346.904 -2.21739 3.2338 0
M  V30 3585 H 348.394 -3.10421 2.79336 0
M  V30 3586 N 348.832 -1.54138 -0.328536 0
M  V30 3587 C 350.079 -1.72105 -1.06706 0
M  V30 3588 C 350.407 -0.492111 -1.88171 0
M  V30 3589 O 349.662 0.526153 -1.88494 0
M  V30 3590 C 349.961 -2.9457 -2.02393 0
M  V30 3591 C 349.627 -4.29544 -1.37122 0
M  V30 3592 C 348.289 -4.6624 -1.19052 0
M  V30 3593 C 350.641 -5.1333 -0.902331 0
M  V30 3594 C 347.969 -5.84325 -0.527331 0
M  V30 3595 C 350.321 -6.32094 -0.252988 0
M  V30 3596 C 348.985 -6.67473 -0.0600901 0
M  V30 3597 H 348.255 -0.629775 -0.390466 0
M  V30 3598 H 350.902 -1.88372 -0.34473 0
M  V30 3599 H 349.207 -2.72969 -2.81061 0
M  V30 3600 H 350.904 -3.05665 -2.59557 0
M  V30 3601 H 347.494 -4.0067 -1.52188 0
M  V30 3602 H 351.678 -4.855 -1.02974 0
M  V30 3603 H 346.934 -6.103 -0.366634 0
M  V30 3604 H 351.108 -6.96299 0.118366 0
M  V30 3605 H 348.735 -7.58832 0.455828 0
M  V30 3606 N 350.31 0.590341 -1.46126 0
M  V30 3607 C 351.535 1.37991 -1.54833 0
M  V30 3608 C 351.96 1.87163 -0.187506 0
M  V30 3609 O 351.318 1.61133 0.831008 0
M  V30 3610 C 351.366 2.54867 -2.55098 0
M  V30 3611 O 350.47 3.56061 -2.08073 0
M  V30 3612 H 349.811 0.411265 -0.521303 0
M  V30 3613 H 352.341 0.716819 -1.91632 0
M  V30 3614 H 352.351 3.01886 -2.74461 0
M  V30 3615 H 351.026 2.18429 -3.53923 0
M  V30 3616 H 349.603 3.15574 -1.98664 0
M  V30 3617 N 351.788 1.33704 0.83433 0
M  V30 3618 C 352.721 1.18675 1.94914 0
M  V30 3619 C 353.699 0.0811145 1.62398 0
M  V30 3620 O 354.883 0.244186 1.86912 0
M  V30 3621 C 352.01 0.821231 3.28593 0
M  V30 3622 C 351.056 1.93501 3.80079 0
M  V30 3623 S 351.889 3.54671 4.01209 0
M  V30 3624 C 353.045 3.20136 5.37833 0
M  V30 3625 H 353.278 2.13043 2.07364 0
M  V30 3626 H 350.811 1.18598 0.988624 0
M  V30 3627 H 352.769 0.617123 4.05835 0
M  V30 3628 H 351.43 -0.103927 3.13928 0
M  V30 3629 H 350.623 1.63273 4.76821 0
M  V30 3630 H 350.225 2.09601 3.09747 0
M  V30 3631 H 352.517 2.71242 6.20833 0
M  V30 3632 H 353.46 4.15975 5.73036 0
M  V30 3633 H 353.868 2.56613 5.02802 0
M  V30 3634 N 353.266 -1.05314 1.17247 0
M  V30 3635 C 354.496 -1.81707 0.983166 0
M  V30 3636 C 354.904 -1.83222 -0.471822 0
M  V30 3637 O 354.247 -1.25721 -1.3394 0
M  V30 3638 C 354.309 -3.29134 1.44606 0
M  V30 3639 C 353.973 -3.51304 2.92292 0
M  V30 3640 C 354.97 -3.4353 3.90235 0
M  V30 3641 C 352.655 -3.78306 3.30439 0
M  V30 3642 C 354.649 -3.62442 5.24323 0
M  V30 3643 C 352.336 -3.96866 4.64694 0
M  V30 3644 C 353.334 -3.88933 5.61445 0
M  V30 3645 O 353.022 -4.06976 6.93272 0
M  V30 3646 H 352.754 -0.579476 0.348114 0
M  V30 3647 H 355.308 -1.33705 1.55924 0
M  V30 3648 H 353.538 -3.78046 0.813537 0
M  V30 3649 H 355.227 -3.87049 1.22262 0
M  V30 3650 H 355.993 -3.22648 3.62109 0
M  V30 3651 H 351.872 -3.83585 2.55702 0
M  V30 3652 H 355.416 -3.56165 5.99827 0
M  V30 3653 H 351.313 -4.1724 4.92525 0
M  V30 3654 H 352.081 -4.24209 6.99992 0
M  V30 3655 N 354.744 -0.972509 -1.24016 0
M  V30 3656 C 355.694 -0.477561 -2.22942 0
M  V30 3657 C 356.678 0.44308 -1.54679 0
M  V30 3658 O 357.87 0.273219 -1.74879 0
M  V30 3659 C 354.999 0.226348 -3.42553 0
M  V30 3660 C 354.085 -0.713403 -4.18057 0
M  V30 3661 N 354.476 -1.8527 -4.70647 0
M  V30 3662 C 352.774 -0.525145 -4.42898 0
M  V30 3663 C 353.475 -2.44089 -5.28011 0
M  V30 3664 N 352.451 -1.72556 -5.15486 0
M  V30 3665 H 356.253 -1.34678 -2.61226 0
M  V30 3666 H 353.767 -0.832196 -1.39457 0
M  V30 3667 H 355.764 0.598184 -4.12586 0
M  V30 3668 H 354.424 1.09195 -3.05788 0
M  V30 3669 H 355.435 -2.2341 -4.67235 0
M  V30 3670 H 352.112 0.296096 -4.16449 0
M  V30 3671 H 353.502 -3.40259 -5.79374 0
M  V30 3672 N 356.222 1.38976 -0.743202 0
M  V30 3673 C 357.132 2.3434 -0.110399 0
M  V30 3674 C 358.148 1.58741 0.712559 0
M  V30 3675 O 359.324 1.9099 0.639125 0
M  V30 3676 C 356.389 3.37812 0.780012 0
M  V30 3677 C 355.45 4.29263 -0.0561319 0
M  V30 3678 C 354.683 5.27793 0.791875 0
M  V30 3679 O 354.906 5.33043 2.03031 0
M  V30 3680 O 353.84 6.01512 0.216183 0
M  V30 3681 H 357.666 2.90129 -0.897714 0
M  V30 3682 H 355.251 1.40643 -0.503966 0
M  V30 3683 H 357.133 4.01194 1.28923 0
M  V30 3684 H 355.808 2.84395 1.546 0
M  V30 3685 H 354.715 3.69076 -0.611056 0
M  V30 3686 H 356.048 4.85907 -0.784531 0
M  V30 3687 N 357.7 0.491464 1.49741 0
M  V30 3688 C 358.925 -0.0557177 2.07325 0
M  V30 3689 C 359.35 -1.30925 1.35056 0
M  V30 3690 O 358.708 -1.76733 0.404365 0
M  V30 3691 C 358.756 -0.302074 3.59333 0
M  V30 3692 O 357.86 -1.37868 3.88672 0
M  V30 3693 H 357.201 0.0219956 0.663636 0
M  V30 3694 H 359.731 0.688352 1.92673 0
M  V30 3695 H 359.741 -0.536464 4.04458 0
M  V30 3696 H 358.416 0.61383 4.11345 0
M  V30 3697 H 356.993 -1.12999 3.55367 0
M  V30 3698 N 359.178 -1.55987 0.224894 0
M  V30 3699 C 360.088 -2.24066 -0.69511 0
M  V30 3700 C 361.104 -1.24939 -1.21104 0
M  V30 3701 O 362.28 -1.5776 -1.25195 0
M  V30 3702 C 359.345 -2.90983 -1.88493 0
M  V30 3703 C 358.406 -4.05462 -1.41064 0
M  V30 3704 C 357.639 -4.69179 -2.54375 0
M  V30 3705 O 357.862 -4.31895 -3.72589 0
M  V30 3706 O 356.796 -5.58108 -2.25386 0
M  V30 3707 H 360.622 -3.03353 -0.145149 0
M  V30 3708 H 358.207 -1.49399 -0.00569476 0
M  V30 3709 H 360.089 -3.33209 -2.57972 0
M  V30 3710 H 358.764 -2.14653 -2.42293 0
M  V30 3711 H 357.671 -3.67798 -0.683774 0
M  V30 3712 H 359.004 -4.83545 -0.918985 0
M  V30 3713 N 360.656 0.0484629 -1.57525 0
M  V30 3714 C 362.067 0.597486 -1.76881 0
M  V30 3715 C 362.418 1.76664 -0.853475 0
M  V30 3716 O 361.543 2.16357 -0.0433656 0
M  V30 3717 C 362.138 1.09066 -3.20765 0
M  V30 3718 C 360.697 1.58535 -3.41385 0
M  V30 3719 C 359.844 0.514868 -2.72478 0
M  V30 3720 H 362.795 -0.177758 -1.57701 0
M  V30 3721 H 362.816 1.95875 -3.2621 0
M  V30 3722 H 362.328 0.239521 -3.8736 0
M  V30 3723 H 360.429 2.45898 -2.79937 0
M  V30 3724 H 360.542 1.64622 -4.49929 0
M  V30 3725 H 358.906 0.965407 -2.35695 0
M  V30 3726 H 359.689 -0.32648 -3.41744 0
M  V30 3727 N 362.134 1.5431 0.320358 0
M  V30 3728 C 363.097 1.83195 1.3774 0
M  V30 3729 C 364.097 0.703906 1.44575 0
M  V30 3730 O 365.287 0.972214 1.44546 0
M  V30 3731 C 362.419 1.99487 2.76438 0
M  V30 3732 H 363.612 2.77642 1.1338 0
M  V30 3733 H 361.165 1.46076 0.556012 0
M  V30 3734 H 361.9 1.07262 3.06048 0
M  V30 3735 H 361.685 2.81575 2.7287 0
M  V30 3736 H 363.175 2.23271 3.52902 0
M  V30 3737 N 363.613 -0.582584 1.46437 0
M  V30 3738 C 364.523 -1.71949 1.59595 0
M  V30 3739 C 365.539 -1.67264 0.479443 0
M  V30 3740 O 366.715 -1.87171 0.743579 0
M  V30 3741 C 363.78 -3.08452 1.58298 0
M  V30 3742 C 362.841 -3.244 2.81182 0
M  V30 3743 C 362.074 -4.54391 2.79937 0
M  V30 3744 O 362.297 -5.38287 1.8869 0
M  V30 3745 O 361.231 -4.73588 3.71481 0
M  V30 3746 H 365.057 -1.63795 2.55744 0
M  V30 3747 H 362.642 -0.749643 1.29231 0
M  V30 3748 H 364.524 -3.89732 1.60271 0
M  V30 3749 H 363.199 -3.17043 0.653094 0
M  V30 3750 H 362.106 -2.42613 2.84763 0
M  V30 3751 H 363.439 -3.20699 3.7338 0
M  V30 3752 N 365.091 -1.34144 -0.827227 0
M  V30 3753 C 366.339 -1.26009 -1.58007 0
M  V30 3754 C 366.66 0.170971 -1.94249 0
M  V30 3755 O 365.93 1.10256 -1.61927 0
M  V30 3756 H 364.51 -0.463414 -0.585881 0
M  V30 3757 H 367.172 -1.68005 -0.987951 0
M  V30 3758 H 366.268 -1.86187 -2.50481 0
M  V30 3759 N 366.569 1.04691 -1.17803 0
M  V30 3760 C 367.818 1.77176 -0.963931 0
M  V30 3761 C 368.131 1.88888 0.508015 0
M  V30 3762 O 369.337 2.58164 0.840465 0
M  V30 3763 C 367.793 3.18518 -1.67555 0
M  V30 3764 C 367.401 3.14919 -3.18637 0
M  V30 3765 C 369.145 3.95424 -1.54402 0
M  V30 3766 C 367.052 4.51081 -3.82466 0
M  V30 3767 H 365.982 0.664116 -0.357023 0
M  V30 3768 H 368.633 1.17303 -1.4111 0
M  V30 3769 H 367.015 3.78748 -1.15613 0
M  V30 3770 H 368.189 2.64178 -3.77554 0
M  V30 3771 H 366.504 2.51512 -3.31859 0
M  V30 3772 H 369.101 4.96106 -1.99456 0
M  V30 3773 H 369.444 4.13343 -0.495329 0
M  V30 3774 H 369.977 3.41754 -2.0359 0
M  V30 3775 H 366.716 4.38368 -4.87354 0
M  V30 3776 H 366.236 5.01951 -3.28337 0
M  V30 3777 H 367.915 5.2001 -3.84965 0
M  V30 3778 N 368.047 0.979072 1.23499 0
M  V30 3779 C 369.293 0.648178 1.92163 0
M  V30 3780 C 369.626 -0.816049 1.76222 0
M  V30 3781 O 368.901 -1.58849 1.12237 0
M  V30 3782 C 369.184 1.03773 3.44824 0
M  V30 3783 C 369.037 2.55948 3.69879 0
M  V30 3784 C 370.356 0.580653 4.36253 0
M  V30 3785 H 367.475 0.236952 0.69787 0
M  V30 3786 H 370.117 1.22012 1.45647 0
M  V30 3787 H 368.267 0.551058 3.84572 0
M  V30 3788 H 369.939 3.12179 3.3962 0
M  V30 3789 H 368.182 2.98641 3.14636 0
M  V30 3790 H 368.853 2.78255 4.76737 0
M  V30 3791 H 371.329 0.998465 4.03943 0
M  V30 3792 H 370.205 0.881663 5.41773 0
M  V30 3793 H 370.466 -0.519052 4.39042 0
M  V30 3794 N 369.525 -1.3858 0.750561 0
M  V30 3795 C 370.488 -2.28836 0.129152 0
M  V30 3796 C 371.488 -1.47045 -0.650714 0
M  V30 3797 O 372.678 -1.6753 -0.477428 0
M  V30 3798 C 369.81 -3.30751 -0.825622 0
M  V30 3799 H 371.003 -2.85294 0.924516 0
M  V30 3800 H 368.556 -1.47489 0.517376 0
M  V30 3801 H 369.291 -2.79378 -1.64677 0
M  V30 3802 H 369.076 -3.91177 -0.268852 0
M  V30 3803 H 370.566 -3.98249 -1.2565 0
M  V30 3804 N 371.003 -0.499398 -1.49478 0
M  V30 3805 C 372.231 0.0425456 -2.06856 0
M  V30 3806 C 372.646 1.30964 -1.35992 0
M  V30 3807 O 372.003 1.77172 -0.437762 0
M  V30 3808 C 372.054 0.301735 -3.60239 0
M  V30 3809 O 371.775 -0.915127 -4.28436 0
M  V30 3810 C 373.276 0.887499 -4.34325 0
M  V30 3811 H 370.496 -0.0197482 -0.670709 0
M  V30 3812 H 373.04 -0.696297 -1.92281 0
M  V30 3813 H 371.195 0.990556 -3.74522 0
M  V30 3814 H 371.609 -0.676993 -5.20113 0
M  V30 3815 H 373.083 1.01845 -5.42523 0
M  V30 3816 H 373.56 1.88488 -3.96698 0
M  V30 3817 H 374.166 0.236196 -4.24644 0
M  V30 3818 N 372.481 1.55866 -0.233164 0
M  V30 3819 C 373.758 1.90471 0.444988 0
M  V30 3820 C 374.138 1.15209 1.7689 0
M  V30 3821 O 373.486 0.265119 2.26957 0
M  V30 3822 C 373.696 3.4333 0.626559 0
M  V30 3823 C 375.044 4.14319 0.92871 0
M  V30 3824 O 376.068 3.48993 0.712926 0
M  V30 3825 O 374.927 5.29846 1.33887 0
M  V30 3826 H 372.021 0.792347 0.236885 0
M  V30 3827 H 374.567 1.67437 -0.276211 0
M  V30 3828 H 373.339 3.90095 -0.306822 0
M  V30 3829 H 372.962 3.72181 1.39881 0
M  V30 3830 N 373.959 -0.0401083 1.57549 0
M  V30 3831 C 375.208 -0.732108 1.87944 0
M  V30 3832 C 375.521 -1.77107 0.830206 0
M  V30 3833 O 376.727 -2.51488 1.02302 0
M  V30 3834 C 375.183 -1.35315 3.33494 0
M  V30 3835 C 374.791 -0.351105 4.46622 0
M  V30 3836 C 376.535 -2.02566 3.73051 0
M  V30 3837 C 374.442 -0.979859 5.83226 0
M  V30 3838 H 373.372 -0.277188 0.701201 0
M  V30 3839 H 376.023 0.0138501 1.83495 0
M  V30 3840 H 374.405 -2.14844 3.32653 0
M  V30 3841 H 375.579 0.416674 4.58912 0
M  V30 3842 H 373.894 0.218708 4.15825 0
M  V30 3843 H 376.491 -2.50441 4.72423 0
M  V30 3844 H 376.834 -2.83904 3.04474 0
M  V30 3845 H 377.367 -1.29827 3.76018 0
M  V30 3846 H 374.106 -0.206135 6.55176 0
M  V30 3847 H 373.626 -1.71774 5.74677 0
M  V30 3848 H 375.305 -1.49046 6.29599 0
M  V30 3849 N 375.437 -1.54477 -0.31217 0
M  V30 3850 C 376.384 -1.84655 -1.38461 0
M  V30 3851 C 377.354 -0.694536 -1.50882 0
M  V30 3852 O 378.539 -0.942081 -1.6592 0
M  V30 3853 C 375.679 -2.0896 -2.74645 0
M  V30 3854 C 374.792 -3.36618 -2.70763 0
M  V30 3855 C 373.927 -3.50824 -3.98868 0
M  V30 3856 C 372.966 -4.72315 -3.89339 0
M  V30 3857 N 372.103 -4.83387 -5.09197 0
M  V30 3858 H 376.943 -2.76142 -1.12026 0
M  V30 3859 H 374.48 -1.36748 -0.542065 0
M  V30 3860 H 376.438 -2.21045 -3.53829 0
M  V30 3861 H 375.068 -1.20752 -2.99364 0
M  V30 3862 H 374.12 -3.33211 -1.83506 0
M  V30 3863 H 375.432 -4.25917 -2.59608 0
M  V30 3864 H 374.586 -3.62513 -4.86486 0
M  V30 3865 H 373.325 -2.59638 -4.12843 0
M  V30 3866 H 372.33 -4.6067 -3.00105 0
M  V30 3867 H 373.555 -5.64897 -3.76919 0
M  V30 3868 H 371.501 -3.9512 -5.23657 0
M  V30 3869 H 371.418 -5.66669 -5.00422 0
M  V30 3870 H 372.686 -4.9942 -5.98498 0
M  V30 3871 N 376.915 0.57481 -1.46744 0
M  V30 3872 C 378.326 1.15695 -1.46532 0
M  V30 3873 C 378.677 1.95068 -0.210425 0
M  V30 3874 O 377.802 2.05241 0.685944 0
M  V30 3875 C 378.397 2.1048 -2.65487 0
M  V30 3876 C 376.956 2.64002 -2.68291 0
M  V30 3877 C 376.103 1.40026 -2.39349 0
M  V30 3878 H 379.054 0.362325 -1.54509 0
M  V30 3879 H 379.075 2.94074 -2.41455 0
M  V30 3880 H 378.587 1.52683 -3.56805 0
M  V30 3881 H 376.688 3.25646 -1.81067 0
M  V30 3882 H 376.801 3.06197 -3.68483 0
M  V30 3883 H 375.165 1.70106 -1.89568 0
M  V30 3884 H 375.948 0.840485 -3.32852 0
M  V30 3885 N 378.394 1.34581 0.820102 0
M  V30 3886 C 379.671 1.17675 1.56244 0
M  V30 3887 C 380.051 -0.249541 2.0962 0
M  V30 3888 O 379.399 -1.25125 1.91196 0
M  V30 3889 C 379.609 2.23364 2.6816 0
M  V30 3890 C 380.957 2.58485 3.36854 0
M  V30 3891 O 381.981 2.22175 2.78418 0
M  V30 3892 O 380.84 3.20868 4.42386 0
M  V30 3893 H 377.934 0.456333 0.689702 0
M  V30 3894 H 380.48 1.46222 0.861231 0
M  V30 3895 H 379.252 3.19087 2.26493 0
M  V30 3896 H 378.875 1.96009 3.45928 0
M  V30 3897 N 379.872 -1.04064 1.18357 0
M  V30 3898 C 381.119 -1.77265 0.978947 0
M  V30 3899 C 381.447 -1.88189 -0.491428 0
M  V30 3900 O 380.702 -1.38653 -1.38108 0
M  V30 3901 C 381.001 -3.20634 1.57888 0
M  V30 3902 C 380.667 -3.29743 3.07539 0
M  V30 3903 C 379.329 -3.31937 3.48384 0
M  V30 3904 C 381.681 -3.29841 4.03552 0
M  V30 3905 C 379.009 -3.3187 4.83818 0
M  V30 3906 C 381.361 -3.31313 5.38901 0
M  V30 3907 C 380.025 -3.31799 5.79194 0
M  V30 3908 H 379.295 -0.648659 0.358222 0
M  V30 3909 H 381.942 -1.22225 1.47422 0
M  V30 3910 H 380.247 -3.78675 1.00561 0
M  V30 3911 H 381.944 -3.75917 1.39598 0
M  V30 3912 H 378.534 -3.28757 2.74986 0
M  V30 3913 H 382.718 -3.27337 3.73047 0
M  V30 3914 H 377.974 -3.30562 5.14333 0
M  V30 3915 H 382.148 -3.30338 6.13066 0
M  V30 3916 H 379.775 -3.315 6.84114 0
M  V30 3917 N 381.35 -0.985608 -1.22978 0
M  V30 3918 C 382.297 -0.529825 -2.24636 0
M  V30 3919 C 383.267 0.434028 -1.60329 0
M  V30 3920 O 384.452 0.340414 -1.87739 0
M  V30 3921 C 381.592 0.156533 -3.44745 0
M  V30 3922 C 380.705 -0.848197 -4.23591 0
M  V30 3923 C 379.84 -0.136109 -5.31026 0
M  V30 3924 C 378.879 -1.1297 -6.01585 0
M  V30 3925 N 378.016 -0.446415 -7.00679 0
M  V30 3926 H 382.856 -1.40148 -2.62988 0
M  V30 3927 H 380.393 -0.702168 -1.29259 0
M  V30 3928 H 382.351 0.571324 -4.1327 0
M  V30 3929 H 380.981 0.992025 -3.07179 0
M  V30 3930 H 380.033 -1.38135 -3.54433 0
M  V30 3931 H 381.345 -1.60512 -4.72268 0
M  V30 3932 H 380.499 0.335784 -6.0577 0
M  V30 3933 H 379.238 0.653373 -4.83304 0
M  V30 3934 H 378.243 -1.6123 -5.25628 0
M  V30 3935 H 379.468 -1.91993 -6.51395 0
M  V30 3936 H 377.414 0.323763 -6.55201 0
M  V30 3937 H 377.331 -1.1419 -7.47326 0
M  V30 3938 H 378.599 0.00291697 -7.795 0
M  V30 3939 N 382.828 1.3818 -0.7579 0
M  V30 3940 C 384.244 1.5353 -0.435972 0
M  V30 3941 C 384.444 1.71961 1.05032 0
M  V30 3942 O 383.5 1.73307 1.83633 0
M  V30 3943 C 384.813 2.73989 -1.23898 0
M  V30 3944 C 386.361 2.87841 -1.22949 0
M  V30 3945 C 386.836 4.11266 -2.01554 0
M  V30 3946 N 388.327 4.18352 -1.98837 0
M  V30 3947 C 389.062 5.12856 -2.5645 0
M  V30 3948 N 388.558 6.13005 -3.22794 0
M  V30 3949 N 390.351 5.05238 -2.46356 0
M  V30 3950 H 382.502 1.24467 -1.7211 0
M  V30 3951 H 384.765 0.604982 -0.729864 0
M  V30 3952 H 384.471 2.66789 -2.29165 0
M  V30 3953 H 384.345 3.67294 -0.858764 0
M  V30 3954 H 386.732 2.9452 -0.184854 0
M  V30 3955 H 386.813 1.95534 -1.64924 0
M  V30 3956 H 386.457 4.05349 -3.06031 0
M  V30 3957 H 386.387 5.02661 -1.5697 0
M  V30 3958 H 388.878 3.46628 -1.50524 0
M  V30 3959 H 389.191 6.81619 -3.64165 0
M  V30 3960 H 387.536 6.13325 -3.2689 0
M  V30 3961 H 390.727 4.25938 -1.9415 0
M  V30 3962 H 390.9 5.78707 -2.91552 0
M  V30 3963 N 384.306 0.507319 1.49211 0
M  V30 3964 C 385.536 -0.0315292 2.06576 0
M  V30 3965 C 385.944 -1.30791 1.36713 0
M  V30 3966 O 385.287 -1.78324 0.441181 0
M  V30 3967 C 385.349 -0.349104 3.57801 0
M  V30 3968 C 385.013 0.830475 4.49391 0
M  V30 3969 C 386.01 1.72271 4.90529 0
M  V30 3970 C 383.695 1.03107 4.91604 0
M  V30 3971 C 385.689 2.79964 5.72625 0
M  V30 3972 C 383.376 2.11116 5.73475 0
M  V30 3973 C 384.374 2.99379 6.1389 0
M  V30 3974 O 384.062 4.05523 6.94123 0
M  V30 3975 H 383.794 0.0201002 0.675701 0
M  V30 3976 H 386.348 0.705737 1.92895 0
M  V30 3977 H 384.578 -1.14005 3.69513 0
M  V30 3978 H 386.267 -0.827319 3.97379 0
M  V30 3979 H 387.033 1.57958 4.58557 0
M  V30 3980 H 382.912 0.353417 4.59643 0
M  V30 3981 H 386.456 3.48884 6.04091 0
M  V30 3982 H 382.353 2.25421 6.0486 0
M  V30 3983 H 383.121 4.02953 7.1244 0
M  V30 3984 N 385.784 -1.5574 0.241426 0
M  V30 3985 C 386.694 -2.2479 -0.671305 0
M  V30 3986 C 387.71 -1.26217 -1.19772 0
M  V30 3987 O 388.886 -1.59079 -1.23514 0
M  V30 3988 C 385.951 -2.92966 -1.85396 0
M  V30 3989 C 385.012 -4.06935 -1.36756 0
M  V30 3990 C 384.245 -4.71851 -2.49384 0
M  V30 3991 O 384.468 -4.35823 -3.67987 0
M  V30 3992 O 383.402 -5.60467 -2.19454 0
M  V30 3993 H 387.228 -3.0349 -0.112966 0
M  V30 3994 H 384.813 -1.49397 0.0101513 0
M  V30 3995 H 386.695 -3.35927 -2.54423 0
M  V30 3996 H 385.37 -2.17211 -2.40002 0
M  V30 3997 H 384.277 -3.68503 -0.644726 0
M  V30 3998 H 385.61 -4.84492 -0.867647 0
M  V30 3999 N 387.262 0.0317525 -1.57568 0
M  V30 4000 C 388.511 0.722131 -1.8833 0
M  V30 4001 C 388.824 1.76664 -0.839587 0
M  V30 4002 O 390.03 2.50942 -1.03635 0
M  V30 4003 C 388.486 1.33544 -3.34207 0
M  V30 4004 C 388.094 0.327415 -4.46802 0
M  V30 4005 C 389.838 2.00585 -3.7412 0
M  V30 4006 C 387.745 0.948915 -5.83738 0
M  V30 4007 H 386.675 0.273466 -0.702661 0
M  V30 4008 H 389.326 -0.0235811 -1.83485 0
M  V30 4009 H 387.708 2.13077 -3.33788 0
M  V30 4010 H 388.882 -0.441006 -4.58685 0
M  V30 4011 H 387.197 -0.240758 -4.15703 0
M  V30 4012 H 389.794 2.47932 -4.73744 0
M  V30 4013 H 390.137 2.82285 -3.05975 0
M  V30 4014 H 390.67 1.27831 -3.76702 0
M  V30 4015 H 387.409 0.171387 -6.55276 0
M  V30 4016 H 386.929 1.68724 -5.7558 0
M  V30 4017 H 388.608 1.45705 -6.3038 0
M  V30 4018 N 388.74 1.54641 0.303973 0
M  V30 4019 C 390.017 1.64455 1.05896 0
M  V30 4020 C 390.397 0.490923 2.05312 0
M  V30 4021 O 389.745 -0.512685 2.22674 0
M  V30 4022 C 389.955 3.02331 1.74347 0
M  V30 4023 C 391.303 3.59045 2.26653 0
M  V30 4024 O 392.327 3.04764 1.84384 0
M  V30 4025 O 391.186 4.54081 3.04093 0
M  V30 4026 H 388.28 0.666729 0.489287 0
M  V30 4027 H 390.826 1.66986 0.302298 0
M  V30 4028 H 389.598 3.77734 1.02142 0
M  V30 4029 H 389.221 3.03565 2.56777 0
M  V30 4030 N 390.218 -0.567019 1.47046 0
M  V30 4031 C 391.166 -1.69593 1.59188 0
M  V30 4032 C 392.16 -1.63046 0.459609 0
M  V30 4033 O 393.366 -1.6835 0.637058 0
M  V30 4034 H 389.741 -0.560993 0.500791 0
M  V30 4035 H 391.712 -1.56488 2.54075 0
M  V30 4036 C 390.461 -3.07964 1.61411 0
M  V30 4037 H 389.784 -3.13679 2.47881 0
M  V30 4038 H 391.224 -3.86671 1.73958 0
M  V30 4039 C 389.683 -3.35123 0.34559 0
M  V30 4040 O 390.213 -3.97812 -0.557521 0
M  V30 4041 N 388.419 -2.89699 0.22864 0
M  V30 4042 H 387.966 -2.38863 0.964479 0
M  V30 4043 H 387.924 -3.08242 -0.619192 0
M  V30 4044 N 391.696 -1.35014 -0.812953 0
M  V30 4045 C 393.107 -1.25035 -1.38648 0
M  V30 4046 C 393.458 0.119967 -1.95833 0
M  V30 4047 O 392.583 1.02069 -1.90816 0
M  V30 4048 C 393.178 -2.26394 -2.52054 0
M  V30 4049 C 391.737 -2.20175 -3.05287 0
M  V30 4050 C 390.884 -2.12451 -1.78213 0
M  V30 4051 H 393.835 -1.46235 -0.616516 0
M  V30 4052 H 393.856 -1.88672 -3.30429 0
M  V30 4053 H 393.368 -3.26116 -2.10404 0
M  V30 4054 H 391.469 -1.23841 -3.51417 0
M  V30 4055 H 391.582 -3.11863 -3.63701 0
M  V30 4056 H 389.946 -1.58328 -1.9951 0
M  V30 4057 H 390.729 -3.14024 -1.38723 0
M  V30 4058 N 393.175 1.03435 -1.18907 0
M  V30 4059 C 394.4 1.80919 -1.01406 0
M  V30 4060 C 394.825 1.83055 0.432721 0
M  V30 4061 O 394.183 1.25252 1.31079 0
M  V30 4062 C 394.231 3.24091 -1.58105 0
M  V30 4063 O 393.335 4.04434 -0.806669 0
M  V30 4064 H 392.676 0.558709 -0.358803 0
M  V30 4065 H 395.206 1.30223 -1.57807 0
M  V30 4066 H 395.216 3.74853 -1.61087 0
M  V30 4067 H 393.891 3.21851 -2.6341 0
M  V30 4068 H 392.468 3.63091 -0.849666 0
M  V30 4069 N 394.653 0.992116 1.22453 0
M  V30 4070 C 395.9 0.667534 1.91181 0
M  V30 4071 C 396.228 -0.800317 1.77271 0
M  V30 4072 O 395.483 -1.59421 1.13505 0
M  V30 4073 C 395.782 1.01832 3.42586 0
M  V30 4074 C 395.448 2.47831 3.76684 0
M  V30 4075 C 394.11 2.87729 3.85701 0
M  V30 4076 C 396.462 3.42466 3.92895 0
M  V30 4077 C 393.79 4.21252 4.08367 0
M  V30 4078 C 396.142 4.75648 4.17064 0
M  V30 4079 C 394.806 5.15288 4.24305 0
M  V30 4080 H 394.076 0.244268 0.699581 0
M  V30 4081 H 396.723 1.24816 1.45235 0
M  V30 4082 H 395.028 0.355769 3.90181 0
M  V30 4083 H 396.725 0.745228 3.94014 0
M  V30 4084 H 393.315 2.15905 3.70247 0
M  V30 4085 H 397.499 3.12814 3.85307 0
M  V30 4086 H 392.755 4.51554 4.122 0
M  V30 4087 H 396.929 5.48924 4.2855 0
M  V30 4088 H 394.556 6.18769 4.41621 0
M  V30 4089 N 396.131 -1.37776 0.765217 0
M  V30 4090 C 397.041 -2.34135 0.147666 0
M  V30 4091 C 398.057 -1.59854 -0.687215 0
M  V30 4092 O 399.233 -1.91983 -0.608659 0
M  V30 4093 C 396.298 -3.3901 -0.72617 0
M  V30 4094 C 395.359 -4.2912 0.124417 0
M  V30 4095 C 394.592 -5.28986 -0.707807 0
M  V30 4096 O 394.815 -5.36205 -1.94525 0
M  V30 4097 O 393.749 -6.01779 -0.12046 0
M  V30 4098 H 397.575 -2.88664 0.943758 0
M  V30 4099 H 395.16 -1.39824 0.526277 0
M  V30 4100 H 397.042 -4.03195 -1.22524 0
M  V30 4101 H 395.717 -2.86819 -1.50056 0
M  V30 4102 H 394.624 -3.68057 0.669696 0
M  V30 4103 H 395.957 -4.84598 0.861736 0
M  V30 4104 N 397.609 -0.515225 -1.4894 0
M  V30 4105 C 398.837 0.0206034 -2.0689 0
M  V30 4106 C 399.252 1.29514 -1.37374 0
M  V30 4107 O 398.609 1.76698 -0.456529 0
M  V30 4108 C 398.66 0.26351 -3.60538 0
M  V30 4109 O 398.381 -0.960517 -4.27441 0
M  V30 4110 C 399.882 0.841383 -4.35242 0
M  V30 4111 H 397.102 -0.0268608 -0.670462 0
M  V30 4112 H 399.646 -0.716651 -1.91532 0
M  V30 4113 H 397.801 0.950777 -3.75552 0
M  V30 4114 H 398.215 -0.73212 -5.19365 0
M  V30 4115 H 399.689 0.96085 -5.43573 0
M  V30 4116 H 400.166 1.8427 -3.98674 0
M  V30 4117 H 400.772 0.191143 -4.2487 0
M  V30 4118 N 399.087 1.5561 -0.249682 0
M  V30 4119 C 400.335 1.98618 0.373548 0
M  V30 4120 C 400.656 1.13919 1.58264 0
M  V30 4121 O 399.926 0.222637 1.94631 0
M  V30 4122 H 398.506 0.733571 0.141006 0
M  V30 4123 H 401.168 1.91748 -0.349117 0
M  V30 4124 H 400.264 3.04584 0.680796 0
M  V30 4125 N 400.565 -0.0233959 1.57583 0
M  V30 4126 C 401.513 -1.04063 2.08023 0
M  V30 4127 C 402.507 -1.37084 0.995204 0
M  V30 4128 O 403.713 -1.35923 1.18004 0
M  V30 4129 H 400.088 -0.353144 0.663922 0
M  V30 4130 H 402.059 -0.589453 2.9252 0
M  V30 4131 C 400.808 -2.33123 2.57971 0
M  V30 4132 H 400.131 -2.08577 3.4108 0
M  V30 4133 H 401.571 -3.02632 2.96967 0
M  V30 4134 C 400.03 -3.02483 1.48342 0
M  V30 4135 O 400.56 -3.92541 0.852898 0
M  V30 4136 N 398.766 -2.63909 1.21658 0
M  V30 4137 H 398.313 -1.90758 1.73116 0
M  V30 4138 H 398.271 -3.10633 0.485218 0
M  V30 4139 N 402.043 -1.548 -0.295768 0
M  V30 4140 C 402.973 -1.89115 -1.36959 0
M  V30 4141 C 403.954 -0.75059 -1.52644 0
M  V30 4142 O 405.139 -1.00678 -1.66065 0
M  V30 4143 C 402.269 -2.14307 -2.73295 0
M  V30 4144 C 401.223 -3.30151 -2.72368 0
M  V30 4145 C 400.549 -3.40772 -4.12042 0
M  V30 4146 C 401.849 -4.67126 -2.33646 0
M  V30 4147 H 403.543 -2.79053 -1.08488 0
M  V30 4148 H 401.089 -1.34266 -0.520443 0
M  V30 4149 H 403.042 -2.36898 -3.48507 0
M  V30 4150 H 401.766 -1.21145 -3.03301 0
M  V30 4151 H 400.425 -3.0749 -1.99613 0
M  V30 4152 H 400.073 -2.45117 -4.39234 0
M  V30 4153 H 399.773 -4.18645 -4.12322 0
M  V30 4154 H 401.297 -3.6563 -4.89027 0
M  V30 4155 H 402.711 -4.89414 -2.98575 0
M  V30 4156 H 401.108 -5.47751 -2.45129 0
M  V30 4157 H 402.178 -4.67489 -1.28772 0
M  V30 4158 N 403.521 0.559213 -1.47345 0
M  V30 4159 C 404.798 1.31997 -1.44348 0
M  V30 4160 C 405.178 2.1064 -0.139358 0
M  V30 4161 O 404.526 2.1091 0.879153 0
M  V30 4162 C 404.736 2.22618 -2.68779 0
M  V30 4163 C 406.084 2.83701 -3.1591 0
M  V30 4164 O 407.108 2.32921 -2.69493 0
M  V30 4165 O 405.967 3.75993 -3.966 0
M  V30 4166 H 403.061 0.594251 -0.575147 0
M  V30 4167 H 405.607 0.578282 -1.59543 0
M  V30 4168 H 404.379 1.64093 -3.55231 0
M  V30 4169 H 404.002 3.04085 -2.5616 0
M  V30 4170 N 404.999 1.35443 0.805782 0
M  V30 4171 C 406.247 1.28507 1.55982 0
M  V30 4172 C 406.568 -0.140046 1.94496 0
M  V30 4173 O 405.838 -1.07666 1.63661 0
M  V30 4174 H 404.418 0.472676 0.578434 0
M  V30 4175 H 407.08 1.69555 0.961098 0
M  V30 4176 H 406.176 1.90148 2.47488 0
M  V30 4177 N 406.477 -1.02803 1.19454 0
M  V30 4178 C 407.723 -1.76598 1.0092 0
M  V30 4179 C 408.078 -1.86939 -0.455142 0
M  V30 4180 O 407.371 -1.37575 -1.33355 0
M  V30 4181 C 407.565 -3.18941 1.6128 0
M  V30 4182 C 407.394 -3.22476 3.13431 0
M  V30 4183 C 406.164 -3.30375 3.82336 0
M  V30 4184 C 408.362 -3.09451 4.10785 0
M  V30 4185 N 406.344 -3.23292 5.21877 0
M  V30 4186 C 407.715 -3.10012 5.36929 0
M  V30 4187 C 409.77 -2.93585 4.02135 0
M  V30 4188 C 408.473 -2.96334 6.55423 0
M  V30 4189 C 410.499 -2.81256 5.20239 0
M  V30 4190 C 409.861 -2.82472 6.45282 0
M  V30 4191 H 405.96 -0.657447 0.423424 0
M  V30 4192 H 408.544 -1.22369 1.5144 0
M  V30 4193 H 406.715 -3.71489 1.1336 0
M  V30 4194 H 408.447 -3.81102 1.36173 0
M  V30 4195 H 405.202 -3.3663 3.33132 0
M  V30 4196 H 405.626 -3.23156 5.94894 0
M  V30 4197 H 410.268 -2.91466 3.0628 0
M  V30 4198 H 407.986 -2.97203 7.51463 0
M  V30 4199 H 411.572 -2.70014 5.15348 0
M  V30 4200 H 410.452 -2.73036 7.35133 0
M  V30 4201 N 407.956 -0.998596 -1.21925 0
M  V30 4202 C 409.184 -0.696286 -1.94832 0
M  V30 4203 C 409.599 0.740032 -1.73692 0
M  V30 4204 O 408.956 1.5 -1.03953 0
M  V30 4205 C 409.007 -0.999833 -3.47398 0
M  V30 4206 O 408.728 -2.37972 -3.67833 0
M  V30 4207 C 410.229 -0.716025 -4.37479 0
M  V30 4208 H 407.449 -0.257111 -0.619786 0
M  V30 4209 H 409.993 -1.33491 -1.54921 0
M  V30 4210 H 408.148 -0.406918 -3.85257 0
M  V30 4211 H 408.562 -2.48338 -4.61983 0
M  V30 4212 H 410.036 -0.978642 -5.43256 0
M  V30 4213 H 410.513 0.349968 -4.37803 0
M  V30 4214 H 411.119 -1.29025 -4.05256 0
M  V30 4215 N 409.434 1.37368 -0.772513 0
M  V30 4216 C 410.68 1.99969 -0.337681 0
M  V30 4217 C 411.013 1.61184 1.08321 0
M  V30 4218 O 410.288 0.858395 1.74533 0
M  V30 4219 C 410.571 3.56858 -0.482121 0
M  V30 4220 C 410.424 4.0555 -1.94549 0
M  V30 4221 C 411.743 4.39955 0.113143 0
M  V30 4222 H 408.862 0.726464 -0.124171 0
M  V30 4223 H 411.504 1.63034 -0.975699 0
M  V30 4224 H 409.654 3.88452 0.0610361 0
M  V30 4225 H 411.326 3.84518 -2.54841 0
M  V30 4226 H 409.569 3.57715 -2.45403 0
M  V30 4227 H 410.24 5.14587 -1.9976 0
M  V30 4228 H 412.716 4.14623 -0.35031 0
M  V30 4229 H 411.592 5.48897 -0.0180514 0
M  V30 4230 H 411.853 4.25403 1.20354 0
M  V30 4231 N 410.912 0.523116 1.48665 0
M  V30 4232 C 411.822 -0.247406 2.33292 0
M  V30 4233 C 412.838 -0.945769 1.46052 0
M  V30 4234 O 414.014 -0.922253 1.79043 0
M  V30 4235 C 411.079 -1.28487 3.22012 0
M  V30 4236 C 410.14 -0.597592 4.2512 0
M  V30 4237 C 409.373 -1.58563 5.09601 0
M  V30 4238 O 409.596 -2.81763 4.95949 0
M  V30 4239 O 408.53 -1.12879 5.91221 0
M  V30 4240 H 412.356 0.445869 3.00409 0
M  V30 4241 H 409.941 0.284128 1.46673 0
M  V30 4242 H 411.823 -1.88459 3.7691 0
M  V30 4243 H 410.498 -1.96068 2.57564 0
M  V30 4244 H 409.405 0.0424407 3.74076 0
M  V30 4245 H 410.738 0.0361517 4.92187 0
M  V30 4246 N 412.39 -1.55475 0.257931 0
M  V30 4247 C 413.3 -2.2549 -0.647425 0
M  V30 4248 C 414.316 -1.2748 -1.18427 0
M  V30 4249 O 415.492 -1.6038 -1.2182 0
M  V30 4250 C 412.557 -2.94916 -1.82278 0
M  V30 4251 C 411.618 -4.08363 -1.32432 0
M  V30 4252 C 410.851 -4.74469 -2.44366 0
M  V30 4253 O 411.074 -4.39701 -3.63344 0
M  V30 4254 O 410.008 -5.62763 -2.13497 0
M  V30 4255 H 413.834 -3.03593 -0.0807707 0
M  V30 4256 H 411.419 -1.49377 0.0259962 0
M  V30 4257 H 413.301 -3.38606 -2.50846 0
M  V30 4258 H 411.976 -2.19744 -2.37685 0
M  V30 4259 H 410.883 -3.69166 -0.605605 0
M  V30 4260 H 412.216 -4.85385 -0.816211 0
M  V30 4261 N 413.868 0.0150385 -1.57593 0
M  V30 4262 C 415.145 0.7392 -1.81094 0
M  V30 4263 C 415.525 1.92817 -0.859344 0
M  V30 4264 O 414.873 2.28301 0.095362 0
M  V30 4265 C 415.083 1.15907 -3.29191 0
M  V30 4266 C 416.431 1.56918 -3.9454 0
M  V30 4267 O 417.455 1.25328 -3.33424 0
M  V30 4268 O 416.314 2.15604 -5.02173 0
M  V30 4269 H 413.408 0.358631 -0.745193 0
M  V30 4270 H 415.954 -0.00926156 -1.69697 0
M  V30 4271 H 414.726 0.310921 -3.90063 0
M  V30 4272 H 414.349 1.96711 -3.45529 0
M  V30 4273 N 415.346 1.54954 0.287554 0
M  V30 4274 C 416.309 1.86076 1.33823 0
M  V30 4275 C 417.309 0.734414 1.43049 0
M  V30 4276 O 418.499 1.00266 1.42452 0
M  V30 4277 C 415.631 2.05305 2.72144 0
M  V30 4278 H 416.824 2.79984 1.07465 0
M  V30 4279 H 414.377 1.47223 0.524902 0
M  V30 4280 H 415.112 1.1373 3.03704 0
M  V30 4281 H 414.897 2.873 2.66836 0
M  V30 4282 H 416.387 2.30706 3.48087 0
M  V30 4283 N 416.824 -0.551391 1.4764 0
M  V30 4284 C 418.071 -1.3083 1.54563 0
M  V30 4285 C 418.399 -1.93359 0.210361 0
M  V30 4286 O 417.654 -1.78721 -0.797332 0
M  V30 4287 C 417.953 -2.43469 2.61644 0
M  V30 4288 C 417.619 -1.98732 4.04742 0
M  V30 4289 C 416.281 -1.86248 4.43695 0
M  V30 4290 C 418.633 -1.64659 4.94507 0
M  V30 4291 C 415.961 -1.37995 5.70241 0
M  V30 4292 C 418.313 -1.17875 6.21521 0
M  V30 4293 C 416.977 -1.03992 6.5935 0
M  V30 4294 H 416.247 -0.478741 0.565587 0
M  V30 4295 H 418.894 -0.617697 1.81264 0
M  V30 4296 H 417.199 -3.18109 2.28722 0
M  V30 4297 H 418.896 -3.01642 2.64222 0
M  V30 4298 H 415.486 -2.09393 3.73968 0
M  V30 4299 H 419.67 -1.73174 4.65107 0
M  V30 4300 H 414.926 -1.25915 5.98294 0
M  V30 4301 H 419.1 -0.905739 6.90485 0
M  V30 4302 H 416.727 -0.663794 7.57296 0
M  V30 4303 N 418.302 -1.35869 -0.798587 0
M  V30 4304 C 419.212 -1.31578 -1.94228 0
M  V30 4305 C 420.228 -0.21939 -1.72611 0
M  V30 4306 O 421.404 -0.450167 -1.96305 0
M  V30 4307 C 418.469 -1.09528 -3.28944 0
M  V30 4308 C 417.53 -2.28556 -3.63402 0
M  V30 4309 C 416.763 -2.07549 -4.9169 0
M  V30 4310 O 416.986 -1.046 -5.60727 0
M  V30 4311 O 415.92 -2.95106 -5.24591 0
M  V30 4312 H 419.746 -2.27847 -2.00796 0
M  V30 4313 H 417.331 -1.16322 -0.937526 0
M  V30 4314 H 419.213 -0.991127 -4.09579 0
M  V30 4315 H 417.888 -0.16315 -3.23289 0
M  V30 4316 H 416.795 -2.44538 -2.83112 0
M  V30 4317 H 418.128 -3.20244 -3.73771 0
M  V30 4318 N 419.78 1.02168 -1.19998 0
M  V30 4319 C 421.026 1.75945 -1.00852 0
M  V30 4320 C 421.359 1.88702 0.458828 0
M  V30 4321 O 420.634 1.40911 1.34069 0
M  V30 4322 C 420.917 3.18154 -1.68671 0
M  V30 4323 C 420.77 3.13224 -3.22817 0
M  V30 4324 C 422.089 4.16711 -1.41561 0
M  V30 4325 H 419.208 0.638673 -0.367785 0
M  V30 4326 H 421.85 1.19222 -1.4794 0
M  V30 4327 H 420 3.66586 -1.28636 0
M  V30 4328 H 421.672 2.72635 -3.72112 0
M  V30 4329 H 419.915 2.50751 -3.53986 0
M  V30 4330 H 420.586 4.13728 -3.65422 0
M  V30 4331 H 423.062 3.76913 -1.76284 0
M  V30 4332 H 421.938 5.14391 -1.91553 0
M  V30 4333 H 422.199 4.40774 -0.342193 0
M  V30 4334 N 421.258 1.00505 1.21394 0
M  V30 4335 C 422.486 0.706609 1.9446 0
M  V30 4336 C 422.901 -0.73081 1.74082 0
M  V30 4337 O 422.258 -1.49446 1.04747 0
M  V30 4338 C 422.309 1.01824 3.46863 0
M  V30 4339 O 422.03 2.39919 3.66566 0
M  V30 4340 C 423.531 0.739216 4.37093 0
M  V30 4341 H 420.751 0.260394 0.618414 0
M  V30 4342 H 423.295 1.34311 1.54211 0
M  V30 4343 H 421.45 0.427343 3.85036 0
M  V30 4344 H 421.864 2.50784 4.6066 0
M  V30 4345 H 423.338 1.00744 5.42729 0
M  V30 4346 H 423.815 -0.326746 4.37983 0
M  V30 4347 H 424.421 1.31173 4.04566 0
M  V30 4348 N 422.737 -1.36956 0.779787 0
M  V30 4349 C 424.014 -1.93697 0.272156 0
M  V30 4350 C 424.394 -1.71267 -1.23413 0
M  V30 4351 O 423.742 -1.06607 -2.02107 0
M  V30 4352 C 423.952 -3.42812 0.654291 0
M  V30 4353 C 425.3 -4.19921 0.628602 0
M  V30 4354 O 426.324 -3.51209 0.594172 0
M  V30 4355 O 425.183 -5.42465 0.662864 0
M  V30 4356 H 422.277 -0.824447 0.0649286 0
M  V30 4357 H 424.823 -1.46196 0.861682 0
M  V30 4358 H 423.595 -3.52754 1.69353 0
M  V30 4359 H 423.218 -3.97582 0.0381369 0
M  V30 4360 N 424.215 -0.530993 -1.48385 0
M  V30 4361 C 425.125 0.23503 -2.3342 0
M  V30 4362 C 426.141 0.93801 -1.46552 0
M  V30 4363 O 427.317 0.912745 -1.7953 0
M  V30 4364 C 424.382 1.26778 -3.22689 0
M  V30 4365 C 423.443 0.575038 -4.25431 0
M  V30 4366 C 422.676 1.55858 -5.10435 0
M  V30 4367 O 422.899 2.79129 -4.97437 0
M  V30 4368 O 421.833 1.09742 -5.91811 0
M  V30 4369 H 425.659 -0.461794 -3.00169 0
M  V30 4370 H 423.244 -0.291903 -1.46521 0
M  V30 4371 H 425.126 1.86457 -3.77904 0
M  V30 4372 H 423.801 1.94699 -2.586 0
M  V30 4373 H 422.708 -0.0622782 -3.74048 0
M  V30 4374 H 424.041 -0.062253 -4.92161 0
M  V30 4375 N 425.693 1.55336 -0.266172 0
M  V30 4376 C 426.656 2.20878 0.612001 0
M  V30 4377 C 427.656 1.18388 1.08816 0
M  V30 4378 O 428.846 1.4335 0.989774 0
M  V30 4379 C 425.978 2.86765 1.84332 0
M  V30 4380 H 427.171 2.99873 0.0398718 0
M  V30 4381 H 424.724 1.56291 -0.0167309 0
M  V30 4382 H 425.459 2.11759 2.45619 0
M  V30 4383 H 425.244 3.61862 1.5099 0
M  V30 4384 H 426.734 3.36867 2.46801 0
M  V30 4385 N 427.171 -0.0066808 1.57599 0
M  V30 4386 C 428.121 -1.0086 2.04478 0
M  V30 4387 C 429.105 -1.30714 0.938231 0
M  V30 4388 O 430.297 -1.29924 1.20203 0
M  V30 4389 C 427.426 -2.30273 2.54615 0
M  V30 4390 C 426.512 -2.03413 3.72134 0
M  V30 4391 N 426.903 -1.46688 4.84062 0
M  V30 4392 C 425.201 -2.33589 3.79937 0
M  V30 4393 C 425.902 -1.36146 5.65543 0
M  V30 4394 N 424.878 -1.84477 5.1134 0
M  V30 4395 H 428.68 -0.564402 2.8843 0
M  V30 4396 H 426.194 -0.212521 1.61003 0
M  V30 4397 H 428.191 -3.02885 2.86472 0
M  V30 4398 H 426.851 -2.75352 1.72079 0
M  V30 4399 H 427.862 -1.14658 5.05049 0
M  V30 4400 H 424.539 -2.81589 3.08243 0
M  V30 4401 H 425.929 -0.925873 6.6549 0
M  V30 4402 N 428.649 -1.55105 -0.279332 0
M  V30 4403 C 429.612 -1.86783 -1.32834 0
M  V30 4404 C 430.612 -0.74199 -1.42657 0
M  V30 4405 O 431.802 -1.0102 -1.41918 0
M  V30 4406 C 428.934 -2.06746 -2.71052 0
M  V30 4407 H 430.127 -2.8055 -1.05979 0
M  V30 4408 H 427.68 -1.47499 -0.517087 0
M  V30 4409 H 428.415 -1.15339 -3.03097 0
M  V30 4410 H 428.2 -2.88711 -2.65309 0
M  V30 4411 H 429.69 -2.32549 -3.46858 0
M  V30 4412 N 430.127 0.543554 -1.4793 0
M  V30 4413 C 431.352 1.32995 -1.59145 0
M  V30 4414 C 431.777 1.86472 -0.246956 0
M  V30 4415 O 431.135 1.63696 0.779324 0
M  V30 4416 C 431.183 2.46623 -2.63077 0
M  V30 4417 O 430.287 3.49261 -2.19295 0
M  V30 4418 H 429.628 0.394472 -0.534124 0
M  V30 4419 H 432.158 0.655489 -1.93816 0
M  V30 4420 H 432.168 2.93001 -2.83926 0
M  V30 4421 H 430.843 2.07059 -3.60693 0
M  V30 4422 H 429.42 3.09094 -2.08603 0
M  V30 4423 N 431.605 1.3629 0.791371 0
M  V30 4424 C 432.552 1.30458 1.90393 0
M  V30 4425 C 433.522 0.173632 1.6519 0
M  V30 4426 O 434.707 0.35983 1.87376 0
M  V30 4427 C 431.847 1.09777 3.27174 0
M  V30 4428 C 430.96 2.31929 3.64462 0
M  V30 4429 C 430.095 2.04276 4.90352 0
M  V30 4430 C 429.134 3.224 5.20312 0
M  V30 4431 N 428.271 2.94424 6.37385 0
M  V30 4432 H 433.111 2.25589 1.94714 0
M  V30 4433 H 430.648 1.12122 0.952216 0
M  V30 4434 H 432.606 0.958133 4.06049 0
M  V30 4435 H 431.236 0.183014 3.22281 0
M  V30 4436 H 430.288 2.56703 2.80727 0
M  V30 4437 H 431.6 3.20085 3.82553 0
M  V30 4438 H 430.754 1.87231 5.77087 0
M  V30 4439 H 429.493 1.13428 4.74326 0
M  V30 4440 H 428.498 3.40005 4.32061 0
M  V30 4441 H 429.723 4.14071 5.38258 0
M  V30 4442 H 427.669 2.06185 6.22755 0
M  V30 4443 H 427.586 3.76118 6.55798 0
M  V30 4444 H 428.854 2.80953 7.27108 0
M  V30 4445 N 433.083 -1.0153 1.20538 0
M  V30 4446 C 433.993 -2.13557 0.971113 0
M  V30 4447 C 435.009 -1.73845 -0.0734366 0
M  V30 4448 O 436.185 -2.01075 0.114299 0
M  V30 4449 C 433.25 -3.42661 0.527639 0
M  V30 4450 C 432.311 -3.96608 1.64319 0
M  V30 4451 C 431.544 -5.1955 1.22078 0
M  V30 4452 O 431.767 -5.70329 0.0900198 0
M  V30 4453 O 430.701 -5.66681 2.02871 0
M  V30 4454 H 434.527 -2.3619 1.90913 0
M  V30 4455 H 432.112 -1.11946 0.989362 0
M  V30 4456 H 433.994 -4.20404 0.289621 0
M  V30 4457 H 432.669 -3.21441 -0.381779 0
M  V30 4458 H 431.576 -3.20139 1.93551 0
M  V30 4459 H 432.909 -4.22219 2.52966 0
M  V30 4460 N 434.561 -1.01147 -1.20859 0
M  V30 4461 C 435.809 -0.696486 -1.89719 0
M  V30 4462 C 436.13 0.775788 -1.78904 0
M  V30 4463 O 435.4 1.55759 -1.18811 0
M  V30 4464 H 433.98 -0.254628 -0.702263 0
M  V30 4465 H 436.642 -1.28197 -1.46804 0
M  V30 4466 H 435.738 -0.975357 -2.96468 0
M  V30 4467 N 436.039 1.36541 -0.78704 0
M  V30 4468 C 436.987 2.31965 -0.171724 0
M  V30 4469 C 437.981 1.55689 0.667631 0
M  V30 4470 O 439.187 1.70969 0.562981 0
M  V30 4471 H 435.562 0.751101 -0.0367545 0
M  V30 4472 H 437.533 2.81428 -0.992017 0
M  V30 4473 C 436.282 3.40968 0.680904 0
M  V30 4474 H 435.605 3.99775 0.0443961 0
M  V30 4475 H 437.045 4.10063 1.07815 0
M  V30 4476 C 435.504 2.82338 1.83813 0
M  V30 4477 O 436.034 2.74311 2.93456 0
M  V30 4478 N 434.24 2.39661 1.6435 0
M  V30 4479 H 433.787 2.46389 0.751668 0
M  V30 4480 H 433.745 2.00779 2.4194 0
M  V30 4481 N 437.518 0.538854 1.48102 0
M  V30 4482 C 438.765 0.0080018 2.02498 0
M  V30 4483 C 439.093 -1.33437 1.41509 0
M  V30 4484 O 438.348 -1.87709 0.553507 0
M  V30 4485 C 438.647 -0.153808 3.57069 0
M  V30 4486 C 438.313 1.11533 4.36888 0
M  V30 4487 C 436.975 1.46314 4.58417 0
M  V30 4488 C 439.327 1.95718 4.83057 0
M  V30 4489 C 436.655 2.6516 5.23361 0
M  V30 4490 C 439.007 3.13751 5.49312 0
M  V30 4491 C 437.671 3.48866 5.69077 0
M  V30 4492 H 436.941 0.00292807 0.740994 0
M  V30 4493 H 439.588 0.706668 1.77984 0
M  V30 4494 H 437.893 -0.935309 3.80472 0
M  V30 4495 H 439.59 -0.579607 3.96789 0
M  V30 4496 H 436.18 0.834484 4.20398 0
M  V30 4497 H 440.364 1.70158 4.66219 0
M  V30 4498 H 435.62 2.92558 5.36861 0
M  V30 4499 H 439.794 3.79282 5.84053 0
M  V30 4500 H 437.421 4.41054 6.19173 0
M  V30 4501 N 438.996 -1.55193 0.274407 0
M  V30 4502 C 440.226 -2.03692 -0.345442 0
M  V30 4503 C 440.634 -1.15224 -1.50067 0
M  V30 4504 O 439.977 -0.164749 -1.8296 0
M  V30 4505 C 440.039 -3.48325 -0.88939 0
M  V30 4506 C 439.703 -4.56794 0.137115 0
M  V30 4507 C 440.7 -5.11028 0.956378 0
M  V30 4508 C 438.385 -5.01568 0.27115 0
M  V30 4509 C 440.379 -6.08552 1.89587 0
M  V30 4510 C 438.066 -5.98918 1.21412 0
M  V30 4511 C 439.064 -6.52291 2.02498 0
M  V30 4512 O 438.752 -7.47738 2.952 0
M  V30 4513 H 438.484 -0.670893 -0.0829332 0
M  V30 4514 H 441.038 -2.01387 0.404056 0
M  V30 4515 H 439.268 -3.47867 -1.68895 0
M  V30 4516 H 440.957 -3.80167 -1.42225 0
M  V30 4517 H 441.723 -4.7725 0.863559 0
M  V30 4518 H 437.602 -4.5967 -0.349987 0
M  V30 4519 H 441.146 -6.50137 2.52918 0
M  V30 4520 H 437.043 -6.32114 1.30776 0
M  V30 4521 H 437.811 -7.65451 2.89874 0
M  V30 4522 N 440.474 -0.00167713 -1.576 0
M  V30 4523 C 441.437 0.974046 -2.07473 0
M  V30 4524 C 442.437 1.27143 -0.984444 0
M  V30 4525 O 443.627 1.21633 -1.24703 0
M  V30 4526 C 440.759 2.29849 -2.51759 0
M  V30 4527 H 441.952 0.54262 -2.9495 0
M  V30 4528 H 439.505 0.245829 -1.54355 0
M  V30 4529 H 440.24 2.77677 -1.67529 0
M  V30 4530 H 440.025 2.09584 -3.31386 0
M  V30 4531 H 441.515 2.9984 -2.90664 0
M  V30 4532 N 441.952 1.55251 0.271103 0
M  V30 4533 C 442.899 1.88261 1.33516 0
M  V30 4534 C 443.869 0.734296 1.48988 0
M  V30 4535 O 445.054 0.985741 1.63364 0
M  V30 4536 C 442.194 2.16168 2.69008 0
M  V30 4537 C 441.307 3.43678 2.61743 0
M  V30 4538 C 440.442 3.61276 3.89427 0
M  V30 4539 C 439.481 4.82472 3.7668 0
M  V30 4540 N 438.618 4.96717 4.96202 0
M  V30 4541 H 443.458 2.79015 1.04665 0
M  V30 4542 H 440.995 1.38137 0.505618 0
M  V30 4543 H 442.953 2.30349 3.47844 0
M  V30 4544 H 441.583 1.28646 2.96057 0
M  V30 4545 H 440.635 3.37959 1.74607 0
M  V30 4546 H 441.947 4.3265 2.48224 0
M  V30 4547 H 441.101 3.75284 4.76704 0
M  V30 4548 H 439.84 2.70492 4.05814 0
M  V30 4549 H 438.845 4.68465 2.87786 0
M  V30 4550 H 440.07 5.74692 3.61809 0
M  V30 4551 H 438.016 4.08865 5.12997 0
M  V30 4552 H 437.933 5.79738 4.85222 0
M  V30 4553 H 439.201 5.15113 5.85046 0
M  V30 4554 N 443.43 -0.535701 1.48216 0
M  V30 4555 C 444.655 -1.32149 1.59848 0
M  V30 4556 C 445.08 -1.86338 0.256842 0
M  V30 4557 O 444.438 -1.64107 -0.770632 0
M  V30 4558 C 444.486 -2.45224 2.64381 0
M  V30 4559 O 443.59 -3.48093 2.21144 0
M  V30 4560 H 442.931 -0.391634 0.536208 0
M  V30 4561 H 445.461 -0.645202 1.94161 0
M  V30 4562 H 445.471 -2.91491 2.85476 0
M  V30 4563 H 444.146 -2.05143 3.61786 0
M  V30 4564 H 442.723 -3.07984 2.10239 0
M  V30 4565 N 444.908 -1.36708 -0.784132 0
M  V30 4566 C 446.133 -1.34565 -1.5782 0
M  V30 4567 C 446.558 0.0695257 -1.87971 0
M  V30 4568 O 445.916 1.04302 -1.48293 0
M  V30 4569 C 445.964 -2.17952 -2.87279 0
M  V30 4570 O 445.068 -1.57563 -3.81114 0
M  V30 4571 H 444.409 -0.460337 -0.478524 0
M  V30 4572 H 446.939 -1.80064 -0.971495 0
M  V30 4573 H 446.949 -2.30721 -3.365 0
M  V30 4574 H 445.624 -3.20823 -2.64661 0
M  V30 4575 H 444.201 -1.53764 -3.39722 0
M  V30 4576 N 446.386 1.0089 -1.21074 0
M  V30 4577 C 447.316 2.1145 -0.990523 0
M  V30 4578 C 448.297 1.69897 0.0831699 0
M  V30 4579 O 449.482 1.94052 -0.0758853 0
M  V30 4580 C 446.612 3.42914 -0.550177 0
M  V30 4581 C 445.566 3.98244 -1.56799 0
M  V30 4582 C 444.892 5.25568 -0.984013 0
M  V30 4583 C 446.192 4.30752 -2.95381 0
M  V30 4584 H 447.886 2.3013 -1.91521 0
M  V30 4585 H 445.432 1.10592 -0.92225 0
M  V30 4586 H 447.385 4.19653 -0.383305 0
M  V30 4587 H 446.109 3.24014 0.41015 0
M  V30 4588 H 444.768 3.23621 -1.72236 0
M  V30 4589 H 444.416 5.02998 -0.0155216 0
M  V30 4590 H 444.116 5.63551 -1.66384 0
M  V30 4591 H 445.64 6.04955 -0.828378 0
M  V30 4592 H 447.054 4.98349 -2.8341 0
M  V30 4593 H 445.451 4.79869 -3.60341 0
M  V30 4594 H 446.521 3.39192 -3.46521 0
M  V30 4595 N 447.864 1.01787 1.20321 0
M  V30 4596 C 448.796 0.547357 2.22568 0
M  V30 4597 C 449.809 -0.370922 1.58518 0
M  V30 4598 O 450.998 -0.169067 1.77698 0
M  V30 4599 C 448.098 -0.223031 3.38165 0
M  V30 4600 C 447.271 0.697472 4.31803 0
M  V30 4601 C 446.33 -0.025562 5.26194 0
M  V30 4602 O 445.356 0.597367 5.66057 0
M  V30 4603 N 446.558 -1.29999 5.65757 0
M  V30 4604 H 449.323 1.42668 2.63564 0
M  V30 4605 H 446.884 0.895552 1.34876 0
M  V30 4606 H 448.876 -0.716002 3.98316 0
M  V30 4607 H 447.446 -1.00366 2.9605 0
M  V30 4608 H 446.666 1.37073 3.69601 0
M  V30 4609 H 447.954 1.32347 4.91286 0
M  V30 4610 H 447.352 -1.827 5.35385 0
M  V30 4611 H 445.909 -1.73766 6.28211 0
M  V30 4612 N 449.342 -1.36122 0.79427 0
M  V30 4613 C 450.59 -1.98718 0.368177 0
M  V30 4614 C 450.911 -1.63345 -1.06506 0
M  V30 4615 O 450.181 -0.909825 -1.73491 0
M  V30 4616 H 448.761 -0.735038 0.133146 0
M  V30 4617 H 451.423 -1.66239 1.01739 0
M  V30 4618 H 450.519 -3.08633 0.463923 0
M  V30 4619 N 450.82 -0.546701 -1.47814 0
M  V30 4620 C 451.767 0.206854 -2.29871 0
M  V30 4621 C 452.737 0.918235 -1.38411 0
M  V30 4622 O 453.922 0.915991 -1.67375 0
M  V30 4623 C 451.062 1.23746 -3.22151 0
M  V30 4624 C 450.175 0.533216 -4.28697 0
M  V30 4625 C 449.31 1.5482 -5.08138 0
M  V30 4626 C 448.349 0.828347 -6.06469 0
M  V30 4627 N 447.486 1.78966 -6.78908 0
M  V30 4628 H 452.326 -0.499037 -2.93792 0
M  V30 4629 H 449.863 -0.25793 -1.44821 0
M  V30 4630 H 451.821 1.84746 -3.74065 0
M  V30 4631 H 450.451 1.91151 -2.60117 0
M  V30 4632 H 449.503 -0.191089 -3.7992 0
M  V30 4633 H 450.815 -0.0311987 -4.9879 0
M  V30 4634 H 449.969 2.23202 -5.6415 0
M  V30 4635 H 448.708 2.14652 -4.37922 0
M  V30 4636 H 447.713 0.130539 -5.49645 0
M  V30 4637 H 448.938 0.235907 -6.7869 0
M  V30 4638 H 446.884 2.37675 -6.1143 0
M  V30 4639 H 446.801 1.27712 -7.45135 0
M  V30 4640 H 448.069 2.46496 -7.395 0
M  V30 4641 N 452.299 1.55045 -0.282633 0
M  V30 4642 C 453.547 1.99365 0.331334 0
M  V30 4643 C 453.868 1.1725 1.55812 0
M  V30 4644 O 453.138 0.263871 1.94115 0
M  V30 4645 H 451.718 0.736397 0.125414 0
M  V30 4646 H 454.38 1.90964 -0.389711 0
M  V30 4647 H 453.476 3.0596 0.616036 0
M  V30 4648 N 453.777 0.010035 1.57597 0
M  V30 4649 C 455.002 -0.687021 1.95691 0
M  V30 4650 C 455.427 -1.65952 0.885519 0
M  V30 4651 O 454.785 -1.80633 -0.15543 0
M  V30 4652 C 454.833 -1.3864 3.32884 0
M  V30 4653 O 453.937 -2.50115 3.27897 0
M  V30 4654 H 453.278 -0.181989 0.638573 0
M  V30 4655 H 455.808 0.0662122 2.04493 0
M  V30 4656 H 455.818 -1.74754 3.6868 0
M  V30 4657 H 454.493 -0.673411 4.10412 0
M  V30 4658 H 453.07 -2.16253 3.03791 0
M  V30 4659 N 455.255 -1.55392 -0.262866 0
M  V30 4660 C 456.504 -1.75679 -0.990943 0
M  V30 4661 C 456.817 -0.57097 -1.87081 0
M  V30 4662 O 458.023 -0.656486 -2.63444 0
M  V30 4663 C 456.479 -3.10964 -1.81188 0
M  V30 4664 C 456.087 -4.37146 -0.980188 0
M  V30 4665 C 457.831 -3.40597 -2.53365 0
M  V30 4666 C 455.738 -5.63466 -1.7961 0
M  V30 4667 H 454.668 -0.654868 -0.373716 0
M  V30 4668 H 457.319 -1.81841 -0.246203 0
M  V30 4669 H 455.701 -2.98867 -2.59797 0
M  V30 4670 H 456.875 -4.60187 -0.237558 0
M  V30 4671 H 455.19 -4.14731 -0.372497 0
M  V30 4672 H 457.787 -4.32186 -3.14833 0
M  V30 4673 H 458.13 -2.6119 -3.24169 0
M  V30 4674 H 458.663 -3.53838 -1.81779 0
M  V30 4675 H 455.402 -6.4565 -1.13209 0
M  V30 4676 H 454.922 -5.44552 -2.51443 0
M  V30 4677 H 456.601 -6.02139 -2.36723 0
M  V30 4678 N 456.733 0.527833 -1.48498 0
M  V30 4679 C 457.961 1.30823 -1.6029 0
M  V30 4680 C 458.376 1.86945 -0.263974 0
M  V30 4681 O 457.733 1.6651 0.747034 0
M  V30 4682 C 457.784 2.45756 -2.65116 0
M  V30 4683 O 457.505 1.91946 -3.93813 0
M  V30 4684 C 459.006 3.37543 -2.87367 0
M  V30 4685 H 456.226 0.397763 -0.540394 0
M  V30 4686 H 458.77 0.636529 -1.94341 0
M  V30 4687 H 456.925 3.08806 -2.33917 0
M  V30 4688 H 457.339 2.67195 -4.51339 0
M  V30 4689 H 458.813 4.14532 -3.6451 0
M  V30 4690 H 459.29 3.92905 -1.9627 0
M  V30 4691 H 459.896 2.80283 -3.19878 0
M  V30 4692 N 458.211 1.37122 0.776871 0
M  V30 4693 C 459.436 1.354 1.57104 0
M  V30 4694 C 459.861 -0.0595562 1.88006 0
M  V30 4695 O 459.219 -1.03514 1.48844 0
M  V30 4696 C 459.267 2.19472 2.8612 0
M  V30 4697 O 458.371 1.59582 3.80273 0
M  V30 4698 H 457.712 0.462869 0.476076 0
M  V30 4699 H 460.242 1.80577 0.961932 0
M  V30 4700 H 460.252 2.32502 3.35271 0
M  V30 4701 H 458.927 3.22222 2.62956 0
M  V30 4702 H 457.504 1.55564 3.38902 0
M  V30 4703 N 459.689 -1.00246 1.21608 0
M  V30 4704 C 460.637 -2.11193 0.97469 0
M  V30 4705 C 461.631 -1.69216 -0.0789303 0
M  V30 4706 O 462.837 -1.79853 0.0726806 0
M  V30 4707 H 459.212 -0.690455 0.297953 0
M  V30 4708 H 461.183 -2.2873 1.91638 0
M  V30 4709 C 459.932 -3.43182 0.558717 0
M  V30 4710 H 459.255 -3.75918 1.3611 0
M  V30 4711 H 460.695 -4.21823 0.429154 0
M  V30 4712 C 459.154 -3.28882 -0.730648 0
M  V30 4713 O 459.684 -3.59835 -1.78554 0
M  V30 4714 N 457.89 -2.8209 -0.698131 0
M  V30 4715 H 457.437 -2.57099 0.16061 0
M  V30 4716 H 457.395 -2.72903 -1.56113 0
M  V30 4717 N 461.167 -1.02423 -1.1978 0
M  V30 4718 C 462.395 -0.737456 -1.93311 0
M  V30 4719 C 462.81 0.703023 -1.75223 0
M  V30 4720 O 462.167 1.47761 -1.07112 0
M  V30 4721 C 462.218 -1.0733 -3.45199 0
M  V30 4722 O 461.939 -2.4572 -3.62702 0
M  V30 4723 C 463.44 -0.80866 -4.35862 0
M  V30 4724 H 460.66 -0.2702 -0.614193 0
M  V30 4725 H 463.204 -1.36747 -1.52054 0
M  V30 4726 H 461.359 -0.488545 -3.84307 0
M  V30 4727 H 461.773 -2.58081 -4.56612 0
M  V30 4728 H 463.247 -1.09365 -5.41057 0
M  V30 4729 H 463.724 0.257025 -4.38447 0
M  V30 4730 H 464.33 -1.37592 -4.02428 0
M  V30 4731 N 462.645 1.35699 -0.801477 0
M  V30 4732 C 463.892 1.98913 -0.379459 0
M  V30 4733 C 464.22 1.63592 1.05204 0
M  V30 4734 O 463.475 0.888563 1.74365 0
M  V30 4735 C 463.774 3.53828 -0.504041 0
M  V30 4736 C 463.44 4.09002 -1.8981 0
M  V30 4737 C 462.102 4.23783 -2.27951 0
M  V30 4738 C 464.454 4.38939 -2.81038 0
M  V30 4739 C 461.782 4.65816 -3.56696 0
M  V30 4740 C 464.134 4.82409 -4.09224 0
M  V30 4741 C 462.798 4.95395 -4.4737 0
M  V30 4742 H 462.068 0.727874 -0.138854 0
M  V30 4743 H 464.715 1.61994 -1.02128 0
M  V30 4744 H 463.02 3.91175 0.221242 0
M  V30 4745 H 464.717 4.00687 -0.158361 0
M  V30 4746 H 461.307 3.97946 -1.59176 0
M  V30 4747 H 465.491 4.27077 -2.52821 0
M  V30 4748 H 460.747 4.74059 -3.86106 0
M  V30 4749 H 464.921 5.04535 -4.80018 0
M  V30 4750 H 462.548 5.27724 -5.47185 0
M  V30 4751 N 464.123 0.554532 1.47522 0
M  V30 4752 C 465.351 0.034257 2.06872 0
M  V30 4753 C 465.766 -1.25826 1.40759 0
M  V30 4754 O 465.123 -1.75425 0.503217 0
M  V30 4755 C 465.174 -0.167827 3.6111 0
M  V30 4756 O 464.895 1.07351 4.24744 0
M  V30 4757 C 466.396 -0.72569 4.3732 0
M  V30 4758 H 463.616 0.0446275 0.669514 0
M  V30 4759 H 466.16 0.767181 1.89564 0
M  V30 4760 H 464.315 -0.850872 3.7794 0
M  V30 4761 H 464.729 0.869563 5.17242 0
M  V30 4762 H 466.203 -0.816394 5.45929 0
M  V30 4763 H 466.68 -1.73635 4.0342 0
M  V30 4764 H 467.286 -0.0784292 4.25228 0
M  V30 4765 N 465.601 -1.54893 0.290851 0
M  V30 4766 C 466.531 -2.26103 -0.583084 0
M  V30 4767 C 467.512 -1.25684 -1.14619 0
M  V30 4768 O 468.697 -1.54436 -1.17741 0
M  V30 4769 C 465.827 -2.99409 -1.75987 0
M  V30 4770 C 464.781 -4.0689 -1.32758 0
M  V30 4771 C 464.107 -4.67856 -2.58872 0
M  V30 4772 C 465.407 -5.20215 -0.46624 0
M  V30 4773 H 467.101 -2.99398 0.0108214 0
M  V30 4774 H 464.647 -1.43998 0.00664468 0
M  V30 4775 H 466.6 -3.47943 -2.37727 0
M  V30 4776 H 465.324 -2.23675 -2.37985 0
M  V30 4777 H 463.983 -3.59191 -0.733299 0
M  V30 4778 H 463.631 -3.88772 -3.19163 0
M  V30 4779 H 463.331 -5.40438 -2.30653 0
M  V30 4780 H 464.855 -5.19147 -3.21433 0
M  V30 4781 H 466.269 -5.64704 -0.989047 0
M  V30 4782 H 464.666 -5.99455 -0.27826 0
M  V30 4783 H 465.736 -4.82198 0.511173 0
M  V30 4784 N 467.08 -0.0183926 -1.57589 0
M  V30 4785 C 468.012 0.995557 -2.06449 0
M  V30 4786 C 469.025 1.29556 -0.985849 0
M  V30 4787 O 470.214 1.2621 -1.26227 0
M  V30 4788 C 467.314 2.32572 -2.46502 0
M  V30 4789 C 466.487 2.21245 -3.77319 0
M  V30 4790 C 465.546 3.37104 -4.04039 0
M  V30 4791 O 464.572 3.14468 -4.74445 0
M  V30 4792 N 465.774 4.60553 -3.53372 0
M  V30 4793 H 468.539 0.578746 -2.94059 0
M  V30 4794 H 466.1 0.168603 -1.6102 0
M  V30 4795 H 468.092 3.08887 -2.61478 0
M  V30 4796 H 466.662 2.65931 -1.64315 0
M  V30 4797 H 465.882 1.29723 -3.72244 0
M  V30 4798 H 467.17 2.10868 -4.63047 0
M  V30 4799 H 466.568 4.81839 -2.96391 0
M  V30 4800 H 465.125 5.34072 -3.73644 0
M  V30 4801 N 468.558 1.5553 0.254621 0
M  V30 4802 C 469.806 1.7665 0.981793 0
M  V30 4803 C 470.127 0.580963 1.86145 0
M  V30 4804 O 469.397 -0.403537 1.91699 0
M  V30 4805 H 467.977 0.651475 0.365498 0
M  V30 4806 H 470.639 1.92958 0.274426 0
M  V30 4807 H 469.735 2.67486 1.60802 0
M  V30 4808 N 470.036 -0.519951 1.48776 0
M  V30 4809 C 471.264 -1.29971 1.60982 0
M  V30 4810 C 471.679 -1.86803 0.273885 0
M  V30 4811 O 471.036 -1.66904 -0.738193 0
M  V30 4812 C 471.087 -2.44346 2.66415 0
M  V30 4813 O 470.808 -1.89855 3.94825 0
M  V30 4814 C 472.309 -3.36014 2.89153 0
M  V30 4815 H 469.529 -0.394891 0.542496 0
M  V30 4816 H 472.073 -0.626214 1.94676 0
M  V30 4817 H 470.228 -3.07562 2.35552 0
M  V30 4818 H 470.642 -2.64798 4.5275 0
M  V30 4819 H 472.116 -4.12593 3.66703 0
M  V30 4820 H 472.593 -3.91859 1.98351 0
M  V30 4821 H 473.199 -2.78582 3.21359 0
M  V30 4822 N 471.514 -1.37532 -0.769588 0
M  V30 4823 C 472.762 -1.32597 -1.5252 0
M  V30 4824 C 473.083 0.0884294 -1.94799 0
M  V30 4825 O 472.353 1.03289 -1.66458 0
M  V30 4826 H 470.933 -0.487846 -0.565699 0
M  V30 4827 H 473.595 -1.72044 -0.915806 0
M  V30 4828 H 472.691 -1.96643 -2.42359 0
M  V30 4829 N 472.992 0.995999 -1.22138 0
M  V30 4830 C 474.22 1.77066 -1.07029 0
M  V30 4831 C 474.635 1.8495 0.379357 0
M  V30 4832 O 473.992 1.3174 1.26297 0
M  V30 4833 C 474.043 3.20533 -1.67155 0
M  V30 4834 O 473.764 3.13082 -3.06449 0
M  V30 4835 C 475.265 4.14461 -1.5728 0
M  V30 4836 H 472.485 0.556179 -0.375374 0
M  V30 4837 H 475.029 1.25238 -1.61666 0
M  V30 4838 H 473.184 3.6944 -1.16589 0
M  V30 4839 H 473.598 4.03283 -3.35355 0
M  V30 4840 H 475.072 5.1289 -2.04078 0
M  V30 4841 H 475.549 4.36005 -0.528795 0
M  V30 4842 H 476.155 3.71449 -2.07136 0
M  V30 4843 N 474.47 1.03057 1.19235 0
M  V30 4844 C 475.719 0.72326 1.88287 0
M  V30 4845 C 476.032 -0.751333 1.80594 0
M  V30 4846 O 477.238 -1.17176 2.44912 0
M  V30 4847 C 475.694 1.24338 3.3774 0
M  V30 4848 C 475.302 2.74587 3.53986 0
M  V30 4849 C 477.046 1.01213 4.12257 0
M  V30 4850 C 474.953 3.20009 4.97341 0
M  V30 4851 H 473.883 0.266848 0.705201 0
M  V30 4852 H 476.534 1.24509 1.34795 0
M  V30 4853 H 474.916 0.649457 3.90638 0
M  V30 4854 H 476.09 3.39649 3.11408 0
M  V30 4855 H 474.405 2.9601 2.9286 0
M  V30 4856 H 477.002 1.32675 5.17978 0
M  V30 4857 H 477.345 -0.051001 4.16269 0
M  V30 4858 H 477.878 1.57014 3.65501 0
M  V30 4859 H 474.617 4.25659 4.98493 0
M  V30 4860 H 474.137 2.59676 5.40674 0
M  V30 4861 H 475.816 3.13447 5.66003 0
M  V30 4862 N 475.948 -1.35272 0.808662 0
M  V30 4863 C 476.896 -2.31663 0.208606 0
M  V30 4864 C 477.89 -1.56731 -0.642778 0
M  V30 4865 O 479.096 -1.71843 -0.53571 0
M  V30 4866 H 475.471 -0.750421 0.0486993 0
M  V30 4867 H 477.442 -2.79814 1.03666 0
M  V30 4868 C 476.191 -3.42008 -0.626573 0
M  V30 4869 H 475.514 -3.99795 0.0192103 0
M  V30 4870 H 476.954 -4.11727 -1.01278 0
M  V30 4871 C 475.413 -2.85226 -1.79298 0
M  V30 4872 O 475.943 -2.78945 -2.89055 0
M  V30 4873 N 474.149 -2.42245 -1.60516 0
M  V30 4874 H 473.696 -2.47554 -0.712375 0
M  V30 4875 H 473.654 -2.04603 -2.38715 0
M  V30 4876 N 477.426 -0.562348 -1.47226 0
M  V30 4877 C 478.673 -0.0402165 -2.0246 0
M  V30 4878 C 479.001 1.31169 -1.43614 0
M  V30 4879 O 478.256 1.86805 -0.5833 0
M  V30 4880 C 478.555 0.0969817 -3.57268 0
M  V30 4881 C 478.221 -1.1847 -4.35058 0
M  V30 4882 C 476.883 -1.53588 -4.56031 0
M  V30 4883 C 479.235 -2.03378 -4.79882 0
M  V30 4884 C 476.563 -2.73452 -5.19077 0
M  V30 4885 C 478.915 -3.2245 -5.44251 0
M  V30 4886 C 477.579 -3.57876 -5.63455 0
M  V30 4887 H 476.849 -0.0147163 -0.740854 0
M  V30 4888 H 479.496 -0.734895 -1.76838 0
M  V30 4889 H 477.801 0.87466 -3.81912 0
M  V30 4890 H 479.498 0.516408 -3.97661 0
M  V30 4891 H 476.088 -0.90126 -4.19017 0
M  V30 4892 H 480.272 -1.77553 -4.63453 0
M  V30 4893 H 475.528 -3.01062 -5.32139 0
M  V30 4894 H 479.702 -3.88526 -5.77945 0
M  V30 4895 H 477.329 -4.50849 -6.12078 0
M  V30 4896 N 478.904 1.54736 -0.299062 0
M  V30 4897 C 480.132 2.04512 0.313447 0
M  V30 4898 C 480.547 1.17643 1.47667 0
M  V30 4899 O 479.904 0.20164 1.81383 0
M  V30 4900 C 479.955 3.53171 0.771542 0
M  V30 4901 O 479.676 4.36736 -0.345379 0
M  V30 4902 C 481.177 4.18936 1.4494 0
M  V30 4903 H 478.397 0.667507 0.0683784 0
M  V30 4904 H 480.941 1.99752 -0.438129 0
M  V30 4905 H 479.096 3.58298 1.47314 0
M  V30 4906 H 479.51 5.24499 0.0109219 0
M  V30 4907 H 480.984 5.24482 1.72111 0
M  V30 4908 H 481.461 3.68554 2.38883 0
M  V30 4909 H 482.067 4.17879 0.791028 0
M  V30 4910 N 480.382 0.0267497 1.57577 0
M  V30 4911 C 481.628 -0.653371 1.91987 0
M  V30 4912 C 481.961 -1.71915 0.903263 0
M  V30 4913 O 481.236 -1.94358 -0.0743387 0
M  V30 4914 C 481.519 -1.272 3.36886 0
M  V30 4915 C 481.372 -0.215938 4.49281 0
M  V30 4916 C 482.691 -2.19069 3.81703 0
M  V30 4917 H 479.81 -0.236047 0.698177 0
M  V30 4918 H 482.452 0.0835236 1.89816 0
M  V30 4919 H 480.602 -1.90005 3.38866 0
M  V30 4920 H 482.274 0.41449 4.59434 0
M  V30 4921 H 480.517 0.458855 4.31366 0
M  V30 4922 H 481.188 -0.688347 5.47691 0
M  V30 4923 H 483.664 -1.66253 3.81444 0
M  V30 4924 H 482.54 -2.59307 4.83788 0
M  V30 4925 H 482.801 -3.08087 3.17072 0
M  V30 4926 N 481.861 -1.55662 -0.24637 0
M  V30 4927 C 482.791 -1.93377 -1.30873 0
M  V30 4928 C 483.772 -0.798773 -1.50179 0
M  V30 4929 O 484.957 -1.0591 -1.62778 0
M  V30 4930 C 482.087 -2.22893 -2.66338 0
M  V30 4931 C 481.041 -3.38649 -2.61727 0
M  V30 4932 C 480.367 -3.53708 -4.00992 0
M  V30 4933 C 481.667 -4.74323 -2.18666 0
M  V30 4934 H 483.361 -2.82363 -0.995552 0
M  V30 4935 H 480.907 -1.35854 -0.477464 0
M  V30 4936 H 482.86 -2.47866 -3.40794 0
M  V30 4937 H 481.584 -1.30733 -2.99293 0
M  V30 4938 H 480.243 -3.13685 -1.89729 0
M  V30 4939 H 479.891 -2.58967 -4.31214 0
M  V30 4940 H 479.591 -4.31551 -3.98795 0
M  V30 4941 H 481.115 -3.81003 -4.77147 0
M  V30 4942 H 482.529 -4.98665 -2.82854 0
M  V30 4943 H 480.926 -5.55273 -2.27579 0
M  V30 4944 H 481.996 -4.71349 -1.13834 0
M  V30 4945 N 483.339 0.512053 -1.4905 0
M  V30 4946 C 484.616 1.27337 -1.48474 0
M  V30 4947 C 484.996 2.1009 -0.206301 0
M  V30 4948 O 484.344 2.136 0.811609 0
M  V30 4949 C 484.554 2.13954 -2.75726 0
M  V30 4950 C 485.902 2.73507 -3.24776 0
M  V30 4951 O 486.926 2.24229 -2.76767 0
M  V30 4952 O 485.785 3.63186 -4.08361 0
M  V30 4953 H 482.879 0.575652 -0.593762 0
M  V30 4954 H 485.425 0.527232 -1.61302 0
M  V30 4955 H 484.197 1.52709 -3.60272 0
M  V30 4956 H 483.82 2.95782 -2.65705 0
M  V30 4957 N 484.817 1.37938 0.762283 0
M  V30 4958 C 486.066 1.32989 1.51647 0
M  V30 4959 C 486.379 -0.0802922 1.95435 0
M  V30 4960 O 487.585 -0.252295 2.70325 0
M  V30 4961 C 486.041 2.33485 2.73885 0
M  V30 4962 C 485.649 3.80079 2.37157 0
M  V30 4963 C 487.393 2.37563 3.51801 0
M  V30 4964 C 485.3 4.72283 3.55954 0
M  V30 4965 H 484.23 0.494301 0.56937 0
M  V30 4966 H 486.881 1.63448 0.834083 0
M  V30 4967 H 485.263 1.96056 3.44061 0
M  V30 4968 H 486.437 4.26398 1.74704 0
M  V30 4969 H 484.752 3.79037 1.72395 0
M  V30 4970 H 487.349 3.0365 4.40114 0
M  V30 4971 H 487.692 1.39199 3.92338 0
M  V30 4972 H 488.225 2.73747 2.8863 0
M  V30 4973 H 484.964 5.7181 3.2049 0
M  V30 4974 H 484.484 4.30663 4.1748 0
M  V30 4975 H 486.163 4.89876 4.22647 0
M  V30 4976 N 486.295 -0.989507 1.22664 0
M  V30 4977 C 487.225 -2.09847 1.02404 0
M  V30 4978 C 488.206 -1.70007 -0.0561303 0
M  V30 4979 O 489.391 -1.93906 0.106748 0
M  V30 4980 C 486.521 -3.41996 0.604663 0
M  V30 4981 C 485.475 -3.95699 1.63115 0
M  V30 4982 C 484.801 -5.23936 1.0675 0
M  V30 4983 C 486.101 -4.25999 3.02196 0
M  V30 4984 H 487.795 -2.27054 1.95158 0
M  V30 4985 H 485.341 -1.09111 0.939727 0
M  V30 4986 H 487.294 -4.1899 0.45002 0
M  V30 4987 H 486.018 -3.24626 -0.35855 0
M  V30 4988 H 484.677 -3.2084 1.77362 0
M  V30 4989 H 484.325 -5.02909 0.0955422 0
M  V30 4990 H 484.025 -5.60833 1.75328 0
M  V30 4991 H 485.549 -6.0356 0.924516 0
M  V30 4992 H 486.963 -4.93777 2.91303 0
M  V30 4993 H 485.36 -4.74076 3.67929 0
M  V30 4994 H 486.43 -3.33636 3.51873 0
M  V30 4995 N 487.773 -1.03688 -1.18687 0
M  V30 4996 C 488.72 -0.624624 -2.22187 0
M  V30 4997 C 489.69 0.365636 -1.62026 0
M  V30 4998 O 490.875 0.260481 -1.89014 0
M  V30 4999 C 488.015 0.0101738 -3.45099 0
M  V30 5000 C 487.128 -1.02709 -4.19613 0
M  V30 5001 C 486.263 -0.361213 -5.2997 0
M  V30 5002 C 485.302 -1.38384 -5.96252 0
M  V30 5003 N 484.439 -0.743196 -6.98155 0
M  V30 5004 H 489.279 -1.51176 -2.56807 0
M  V30 5005 H 486.816 -0.75636 -1.26165 0
M  V30 5006 H 488.774 0.395528 -4.15321 0
M  V30 5007 H 487.404 0.860848 -3.1111 0
M  V30 5008 H 486.456 -1.53043 -3.48256 0
M  V30 5009 H 487.768 -1.80398 -4.65036 0
M  V30 5010 H 486.922 0.0785537 -6.06649 0
M  V30 5011 H 485.661 0.447799 -4.8564 0
M  V30 5012 H 484.666 -1.83378 -5.18317 0
M  V30 5013 H 485.891 -2.19448 -6.42666 0
M  V30 5014 H 483.837 0.0455789 -6.55984 0
M  V30 5015 H 483.754 -1.45784 -7.41811 0
M  V30 5016 H 485.022 -0.327698 -7.78811 0
M  V30 5017 N 489.251 1.34841 -0.815825 0
M  V30 5018 C 490.662 1.80937 -0.46029 0
M  V30 5019 C 491.013 1.67685 1.01863 0
M  V30 5020 O 490.138 1.21277 1.79223 0
M  V30 5021 C 490.733 3.28509 -0.828708 0
M  V30 5022 C 489.292 3.72712 -0.525644 0
M  V30 5023 C 488.439 2.56676 -1.04941 0
M  V30 5024 H 491.39 1.22688 -1.00664 0
M  V30 5025 H 491.411 3.80279 -0.129757 0
M  V30 5026 H 490.923 3.38122 -1.90513 0
M  V30 5027 H 489.024 3.68642 0.541666 0
M  V30 5028 H 489.137 4.67119 -1.06474 0
M  V30 5029 H 487.501 2.50302 -0.471286 0
M  V30 5030 H 488.284 2.69063 -2.13214 0
M  V30 5031 N 490.729 0.570148 1.46925 0
M  V30 5032 C 491.639 -0.173061 2.33961 0
M  V30 5033 C 492.655 -0.898825 1.48987 0
M  V30 5034 O 493.831 -0.864825 1.81887 0
M  V30 5035 C 490.896 -1.18177 3.25937 0
M  V30 5036 C 489.957 -0.462041 4.26806 0
M  V30 5037 C 489.19 -1.4227 5.14388 0
M  V30 5038 O 489.413 -2.65842 5.04662 0
M  V30 5039 O 488.347 -0.940127 5.94513 0
M  V30 5040 H 492.173 0.541216 2.98839 0
M  V30 5041 H 489.758 0.330647 1.45695 0
M  V30 5042 H 491.64 -1.76372 3.82715 0
M  V30 5043 H 490.315 -1.87774 2.63671 0
M  V30 5044 H 489.222 0.161429 3.73752 0
M  V30 5045 H 490.555 0.192719 4.91823 0
M  V30 5046 N 492.207 -1.54576 0.307264 0
M  V30 5047 C 493.155 -2.25208 -0.581723 0
M  V30 5048 C 494.149 -1.26031 -1.13192 0
M  V30 5049 O 495.355 -1.43862 -1.08184 0
M  V30 5050 H 491.73 -0.723173 -0.206214 0
M  V30 5051 H 493.701 -2.98378 0.0364663 0
M  V30 5052 C 492.45 -3.01086 -1.73904 0
M  V30 5053 H 491.773 -3.77208 -1.32491 0
M  V30 5054 H 493.213 -3.5378 -2.33701 0
M  V30 5055 C 491.672 -2.08422 -2.64692 0
M  V30 5056 O 492.202 -1.65636 -3.65961 0
M  V30 5057 N 490.408 -1.74247 -2.32564 0
M  V30 5058 H 489.955 -2.09238 -1.50257 0
M  V30 5059 H 489.913 -1.12524 -2.93574 0
M  V30 5060 N 493.685 -0.035106 -1.57561 0
M  V30 5061 C 494.648 0.929819 -2.09492 0
M  V30 5062 C 495.648 1.25026 -1.01119 0
M  V30 5063 O 496.838 1.18961 -1.27255 0
M  V30 5064 C 493.97 2.24457 -2.56577 0
M  V30 5065 H 495.163 0.479935 -2.96035 0
M  V30 5066 H 492.716 0.213033 -1.54841 0
M  V30 5067 H 493.451 2.74061 -1.73382 0
M  V30 5068 H 493.236 2.02508 -3.35757 0
M  V30 5069 H 494.726 2.93607 -2.96959 0
M  V30 5070 N 495.163 1.55791 0.238111 0
M  V30 5071 C 496.393 1.81834 0.980809 0
M  V30 5072 C 496.801 0.609741 1.79106 0
M  V30 5073 O 496.144 -0.431073 1.78571 0
M  V30 5074 C 496.206 3.01363 1.96011 0
M  V30 5075 C 495.87 4.37037 1.33597 0
M  V30 5076 C 496.867 5.14692 0.734063 0
M  V30 5077 C 494.552 4.83743 1.3527 0
M  V30 5078 C 496.546 6.37206 0.157208 0
M  V30 5079 C 494.233 6.06204 0.77199 0
M  V30 5080 C 495.231 6.82775 0.175282 0
M  V30 5081 O 494.919 8.02922 -0.396432 0
M  V30 5082 H 494.651 0.6088 0.293834 0
M  V30 5083 H 497.205 2.03702 0.263552 0
M  V30 5084 H 495.435 2.75273 2.71591 0
M  V30 5085 H 497.124 3.14422 2.56697 0
M  V30 5086 H 497.89 4.79722 0.713582 0
M  V30 5087 H 493.769 4.24129 1.80653 0
M  V30 5088 H 497.313 6.96915 -0.30917 0
M  V30 5089 H 493.21 6.4065 0.789828 0
M  V30 5090 H 493.978 8.17989 -0.289145 0
M  V30 5091 N 496.642 -0.504142 1.49319 0
M  V30 5092 C 497.888 -1.26033 1.58882 0
M  V30 5093 C 498.221 -1.92268 0.273274 0
M  V30 5094 O 497.496 -1.80567 -0.72291 0
M  V30 5095 C 497.779 -2.32976 2.7458 0
M  V30 5096 C 497.632 -1.71263 4.1592 0
M  V30 5097 C 498.951 -3.34561 2.85932 0
M  V30 5098 H 496.07 -0.456863 0.578312 0
M  V30 5099 H 498.712 -0.558965 1.81592 0
M  V30 5100 H 496.862 -2.92796 2.55348 0
M  V30 5101 H 498.534 -1.15294 4.4666 0
M  V30 5102 H 496.777 -1.01686 4.21714 0
M  V30 5103 H 497.448 -2.48816 4.92742 0
M  V30 5104 H 499.924 -2.84727 3.0343 0
M  V30 5105 H 498.8 -4.06754 3.68568 0
M  V30 5106 H 499.061 -3.96695 1.95154 0
M  V30 5107 N 498.12 -1.38341 -0.754957 0
M  V30 5108 C 499.083 -1.35262 -1.85032 0
M  V30 5109 C 500.083 -0.253393 -1.58791 0
M  V30 5110 O 501.273 -0.510205 -1.66561 0
M  V30 5111 C 498.405 -1.10544 -3.22479 0
M  V30 5112 H 499.598 -2.32712 -1.8917 0
M  V30 5113 H 497.151 -1.23614 -0.956515 0
M  V30 5114 H 497.886 -0.136952 -3.24011 0
M  V30 5115 H 497.671 -1.90127 -3.4292 0
M  V30 5116 H 499.161 -1.11082 -4.02555 0
M  V30 5117 N 499.598 0.982988 -1.23187 0
M  V30 5118 C 500.528 2.09301 -1.03515 0
M  V30 5119 C 501.509 1.70035 0.0471136 0
M  V30 5120 O 502.694 1.93847 -0.117029 0
M  V30 5121 C 499.824 3.4167 -0.622791 0
M  V30 5122 C 498.778 3.94828 -1.65211 0
M  V30 5123 C 498.104 5.23362 -1.09527 0
M  V30 5124 C 499.404 4.2439 -3.04451 0
M  V30 5125 H 501.098 2.26016 -1.96359 0
M  V30 5126 H 498.644 1.08611 -0.945501 0
M  V30 5127 H 500.597 4.18746 -0.472233 0
M  V30 5128 H 499.321 3.24811 0.341329 0
M  V30 5129 H 497.98 3.19895 -1.79061 0
M  V30 5130 H 497.628 5.02852 -0.122211 0
M  V30 5131 H 497.328 5.59895 -1.783 0
M  V30 5132 H 498.852 6.03062 -0.956511 0
M  V30 5133 H 500.266 4.92225 -2.93917 0
M  V30 5134 H 498.663 4.72118 -3.70438 0
M  V30 5135 H 499.733 3.31765 -3.53638 0
M  V30 5136 N 501.076 1.04316 1.18135 0
M  V30 5137 C 502.323 0.74802 1.88178 0
M  V30 5138 C 502.651 -0.72441 1.80506 0
M  V30 5139 O 501.906 -1.54463 1.20165 0
M  V30 5140 C 502.205 1.16271 3.37958 0
M  V30 5141 C 501.871 2.63585 3.65833 0
M  V30 5142 C 500.533 3.03829 3.73151 0
M  V30 5143 C 502.885 3.58822 3.78016 0
M  V30 5144 C 500.213 4.38194 3.90132 0
M  V30 5145 C 502.565 4.92909 3.96514 0
M  V30 5146 C 501.229 5.3282 4.02068 0
M  V30 5147 H 500.499 0.27372 0.688592 0
M  V30 5148 H 503.146 1.30863 1.39811 0
M  V30 5149 H 501.451 0.520938 3.88321 0
M  V30 5150 H 503.148 0.911672 3.90499 0
M  V30 5151 H 499.738 2.31414 3.60757 0
M  V30 5152 H 503.922 3.28875 3.71692 0
M  V30 5153 H 499.178 4.68631 3.92677 0
M  V30 5154 H 503.352 5.66606 4.04883 0
M  V30 5155 H 500.979 6.36943 4.14979 0
M  V30 5156 N 502.554 -1.34406 0.822964 0
M  V30 5157 C 503.831 -1.92733 0.333641 0
M  V30 5158 C 504.211 -1.75107 -1.17901 0
M  V30 5159 O 503.559 -1.12983 -1.98613 0
M  V30 5160 C 503.769 -3.40557 0.763023 0
M  V30 5161 C 505.117 -4.17709 0.761879 0
M  V30 5162 O 506.141 -3.49141 0.705606 0
M  V30 5163 O 505 -5.40082 0.835109 0
M  V30 5164 H 502.094 -0.821964 0.0911249 0
M  V30 5165 H 504.64 -1.4338 0.907757 0
M  V30 5166 H 503.412 -3.47187 1.8049 0
M  V30 5167 H 503.035 -3.97259 0.164605 0
M  V30 5168 N 504.032 -0.577932 -1.46621 0
M  V30 5169 C 504.995 0.147805 -2.28723 0
M  V30 5170 C 505.995 0.823325 -1.38123 0
M  V30 5171 O 507.185 0.676011 -1.60548 0
M  V30 5172 C 504.317 1.21853 -3.18378 0
M  V30 5173 H 505.51 -0.573654 -2.94362 0
M  V30 5174 H 503.063 -0.335703 -1.52652 0
M  V30 5175 H 503.798 1.97173 -2.57475 0
M  V30 5176 H 503.583 0.738714 -3.85078 0
M  V30 5177 H 505.073 1.72768 -3.80186 0
M  V30 5178 N 505.51 1.54411 -0.315457 0
M  V30 5179 C 506.458 2.25514 0.569771 0
M  V30 5180 C 507.452 1.2663 1.12522 0
M  V30 5181 O 508.658 1.44434 1.07419 0
M  V30 5182 H 505.033 0.724257 0.202376 0
M  V30 5183 H 507.004 2.98354 -0.0522895 0
M  V30 5184 C 505.753 3.02004 1.72305 0
M  V30 5185 H 505.076 3.77906 1.30488 0
M  V30 5186 H 506.516 3.55014 2.31821 0
M  V30 5187 C 504.975 2.09822 2.63583 0
M  V30 5188 O 505.505 1.67574 3.65078 0
M  V30 5189 N 503.711 1.75478 2.31637 0
M  V30 5190 H 503.258 2.10032 1.49145 0
M  V30 5191 H 503.216 1.14079 2.92973 0
M  V30 5192 N 506.988 0.0434614 1.5754 0
M  V30 5193 C 508.213 -0.645358 1.97104 0
M  V30 5194 C 508.638 -1.64037 0.920521 0
M  V30 5195 O 507.996 -1.80922 -0.11708 0
M  V30 5196 C 508.044 -1.31547 3.35749 0
M  V30 5197 O 507.148 -2.43103 3.33129 0
M  V30 5198 H 506.489 -0.168403 0.64229 0
M  V30 5199 H 509.019 0.109573 2.04306 0
M  V30 5200 H 509.029 -1.66895 3.72304 0
M  V30 5201 H 507.704 -0.586205 4.11748 0
M  V30 5202 H 506.281 -2.0976 3.0831 0
M  V30 5203 N 508.466 -1.55915 -0.229846 0
M  V30 5204 C 509.414 -1.9258 -1.30444 0
M  V30 5205 C 510.408 -0.806839 -1.48951 0
M  V30 5206 O 511.614 -0.991606 -1.50224 0
M  V30 5207 H 507.989 -0.611878 -0.437161 0
M  V30 5208 H 509.96 -2.82264 -0.96797 0
M  V30 5209 C 508.709 -2.25171 -2.6494 0
M  V30 5210 H 508.032 -3.10782 -2.51504 0
M  V30 5211 H 509.472 -2.54716 -3.38963 0
M  V30 5212 C 507.931 -1.07394 -3.19324 0
M  V30 5213 O 508.461 -0.330759 -4.00336 0
M  V30 5214 N 506.667 -0.859984 -2.77584 0
M  V30 5215 H 506.214 -1.46605 -2.11813 0
M  V30 5216 H 506.172 -0.0736671 -3.14314 0
M  V30 5217 N 509.944 0.496216 -1.49584 0
M  V30 5218 C 511.172 1.27394 -1.63029 0
M  V30 5219 C 511.587 1.86344 -0.303569 0
M  V30 5220 O 510.944 1.68057 0.711547 0
M  V30 5221 C 510.995 2.40077 -2.70269 0
M  V30 5222 O 510.716 1.83549 -3.97796 0
M  V30 5223 C 512.217 3.31372 -2.94462 0
M  V30 5224 H 509.437 0.386211 -0.54871 0
M  V30 5225 H 511.981 0.595163 -1.95648 0
M  V30 5226 H 510.136 3.03775 -2.40415 0
M  V30 5227 H 510.55 2.57561 -4.56905 0
M  V30 5228 H 512.024 4.06707 -3.73221 0
M  V30 5229 H 512.501 3.88654 -2.0456 0
M  V30 5230 H 513.107 2.73435 -3.25751 0
M  V30 5231 N 511.423 1.38739 0.74761 0
M  V30 5232 C 512.353 1.39173 1.87492 0
M  V30 5233 C 513.334 0.256794 1.6815 0
M  V30 5234 O 514.519 0.460762 1.88655 0
M  V30 5235 C 511.649 1.22197 3.25093 0
M  V30 5236 C 510.603 2.32957 3.59047 0
M  V30 5237 C 509.929 2.01082 4.95449 0
M  V30 5238 C 511.229 3.75237 3.6331 0
M  V30 5239 H 512.923 2.3351 1.87386 0
M  V30 5240 H 510.469 1.12399 0.900134 0
M  V30 5241 H 512.422 1.21124 4.03617 0
M  V30 5242 H 511.146 0.243241 3.25693 0
M  V30 5243 H 509.805 2.33226 2.82845 0
M  V30 5244 H 509.453 1.01678 4.92616 0
M  V30 5245 H 509.153 2.75267 5.19136 0
M  V30 5246 H 510.677 2.01638 5.76346 0
M  V30 5247 H 512.091 3.76966 4.31937 0
M  V30 5248 H 510.488 4.48677 3.98509 0
M  V30 5249 H 511.558 4.07122 2.634 0
M  V30 5250 N 512.901 -0.976442 1.23707 0
M  V30 5251 C 513.831 -2.08749 1.04624 0
M  V30 5252 C 514.812 -1.70057 -0.0380956 0
M  V30 5253 O 515.997 -1.93782 0.127308 0
M  V30 5254 C 513.127 -3.41335 0.640902 0
M  V30 5255 C 512.081 -3.93947 1.67302 0
M  V30 5256 C 511.407 -5.22774 1.12301 0
M  V30 5257 C 512.707 -4.22769 3.06697 0
M  V30 5258 H 514.401 -2.24972 1.97555 0
M  V30 5259 H 511.947 -1.08108 0.951247 0
M  V30 5260 H 513.9 -4.18489 0.494434 0
M  V30 5261 H 512.624 -3.24988 -0.324099 0
M  V30 5262 H 511.283 -3.18941 1.80755 0
M  V30 5263 H 510.931 -5.0278 0.148877 0
M  V30 5264 H 510.631 -5.58942 1.81267 0
M  V30 5265 H 512.155 -6.02546 0.988479 0
M  V30 5266 H 513.569 -4.90659 2.96524 0
M  V30 5267 H 511.966 -4.70147 3.72937 0
M  V30 5268 H 513.036 -3.29885 3.55392 0
M  V30 5269 N 514.379 -1.04941 -1.1758 0
M  V30 5270 C 515.312 -0.592518 -2.20373 0
M  V30 5271 C 516.29 0.377561 -1.58156 0
M  V30 5272 O 517.474 0.28978 -1.86259 0
M  V30 5273 C 514.601 0.133215 -3.38438 0
M  V30 5274 C 513.647 -0.791484 -4.19092 0
M  V30 5275 S 514.48 -2.27925 -4.84572 0
M  V30 5276 C 515.636 -1.56462 -6.06028 0
M  V30 5277 H 515.869 -1.46342 -2.58788 0
M  V30 5278 H 513.402 -0.861148 -1.28155 0
M  V30 5279 H 515.36 0.545746 -4.06856 0
M  V30 5280 H 514.021 0.980124 -2.98416 0
M  V30 5281 H 513.214 -0.230039 -5.03475 0
M  V30 5282 H 512.816 -1.14326 -3.56098 0
M  V30 5283 H 515.108 -0.862539 -6.71987 0
M  V30 5284 H 516.051 -2.38583 -6.66696 0
M  V30 5285 H 516.459 -1.05313 -5.5459 0
M  V30 5286 N 515.857 1.33968 -0.830081 0
M  V30 5287 C 516.804 2.29387 -0.255008 0
M  V30 5288 C 517.774 1.53923 0.624243 0
M  V30 5289 O 518.959 1.82262 0.564372 0
M  V30 5290 C 516.099 3.4034 0.571209 0
M  V30 5291 C 515.212 4.30729 -0.331083 0
M  V30 5292 C 514.347 5.2879 0.505389 0
M  V30 5293 C 513.386 6.10819 -0.395843 0
M  V30 5294 N 512.523 7.00948 0.401979 0
M  V30 5295 H 517.363 2.77972 -1.07404 0
M  V30 5296 H 514.9 1.36785 -0.541133 0
M  V30 5297 H 516.858 4.03361 1.06562 0
M  V30 5298 H 515.488 2.9297 1.35529 0
M  V30 5299 H 514.54 3.68507 -0.943759 0
M  V30 5300 H 515.852 4.88181 -1.02377 0
M  V30 5301 H 515.006 5.97297 1.06399 0
M  V30 5302 H 513.745 4.71894 1.23155 0
M  V30 5303 H 512.75 5.41238 -0.966529 0
M  V30 5304 H 513.975 6.69797 -1.12023 0
M  V30 5305 H 511.921 6.46512 1.11168 0
M  V30 5306 H 511.838 7.55643 -0.232167 0
M  V30 5307 H 513.106 7.73774 0.943102 0
M  V30 5308 N 517.335 0.585699 1.46312 0
M  V30 5309 C 518.563 0.0781299 2.06752 0
M  V30 5310 C 518.978 -1.22812 1.43396 0
M  V30 5311 O 518.335 -1.74318 0.540314 0
M  V30 5312 C 518.386 -0.0911927 3.61385 0
M  V30 5313 O 518.107 1.16336 4.22371 0
M  V30 5314 C 519.608 -0.632765 4.38761 0
M  V30 5315 H 516.828 0.0588188 0.668417 0
M  V30 5316 H 519.372 0.807218 1.87894 0
M  V30 5317 H 517.527 -0.770514 3.7966 0
M  V30 5318 H 517.941 0.979082 5.15281 0
M  V30 5319 H 519.415 -0.70041 5.47538 0
M  V30 5320 H 519.892 -1.65039 4.07012 0
M  V30 5321 H 520.498 0.0117856 4.25298 0
M  V30 5322 N 518.813 -1.54241 0.323641 0
M  V30 5323 C 520.061 -2.00174 -0.278359 0
M  V30 5324 C 520.382 -1.2134 -1.52648 0
M  V30 5325 O 519.652 -0.315244 -1.93347 0
M  V30 5326 H 518.232 -0.739463 -0.105845 0
M  V30 5327 H 520.894 -1.89864 0.440204 0
M  V30 5328 H 519.99 -3.07486 -0.5347 0
M  V30 5329 N 520.291 -0.0518155 -1.57515 0
M  V30 5330 C 521.239 0.940195 -2.12751 0
M  V30 5331 C 522.233 1.3218 -1.05948 0
M  V30 5332 O 523.439 1.30138 -1.24355 0
M  V30 5333 H 519.814 0.321066 -0.680015 0
M  V30 5334 H 521.785 0.449217 -2.94999 0
M  V30 5335 C 520.534 2.2055 -2.68799 0
M  V30 5336 H 519.857 1.92066 -3.50643 0
M  V30 5337 H 521.297 2.88119 -3.11068 0
M  V30 5338 C 519.756 2.95061 -1.62605 0
M  V30 5339 O 520.286 3.88025 -1.03921 0
M  V30 5340 N 518.492 2.57804 -1.34111 0
M  V30 5341 H 518.039 1.82281 -1.8202 0
M  V30 5342 H 517.997 3.07964 -0.632872 0
M  V30 5343 N 521.769 1.56035 0.221574 0
M  V30 5344 C 523.015 1.79312 0.947372 0
M  V30 5345 C 523.348 0.621453 1.83988 0
M  V30 5346 O 522.623 -0.379287 1.90766 0
M  V30 5347 C 522.906 3.1267 1.78633 0
M  V30 5348 C 522.759 4.40284 0.920312 0
M  V30 5349 C 524.078 3.4247 2.7641 0
M  V30 5350 H 521.197 0.652328 0.342982 0
M  V30 5351 H 523.839 1.88765 0.216244 0
M  V30 5352 H 521.989 3.04741 2.40967 0
M  V30 5353 H 523.661 4.60232 0.313718 0
M  V30 5354 H 521.904 4.33212 0.225734 0
M  V30 5355 H 522.575 5.30033 1.54171 0
M  V30 5356 H 525.051 3.50526 2.24211 0
M  V30 5357 H 523.927 4.3695 3.32213 0
M  V30 5358 H 524.188 2.64635 3.54148 0
M  V30 5359 N 523.247 -0.488276 1.49845 0
M  V30 5360 C 524.472 -1.26997 1.63971 0
M  V30 5361 C 524.897 -1.85427 0.315994 0
M  V30 5362 O 524.255 -1.66475 -0.718032 0
M  V30 5363 C 524.303 -2.36689 2.72049 0
M  V30 5364 O 523.407 -3.40882 2.32107 0
M  V30 5365 H 522.748 -0.374376 0.548396 0
M  V30 5366 H 525.278 -0.583104 1.96115 0
M  V30 5367 H 525.288 -2.82262 2.94605 0
M  V30 5368 H 523.963 -1.93529 3.68129 0
M  V30 5369 H 522.54 -3.01139 2.19931 0
M  V30 5370 N 524.725 -1.39134 -0.740242 0
M  V30 5371 C 525.688 -1.37217 -1.83587 0
M  V30 5372 C 526.688 -0.270221 -1.58513 0
M  V30 5373 O 527.878 -0.527843 -1.6601 0
M  V30 5374 C 525.01 -1.13959 -3.21288 0
M  V30 5375 H 526.203 -2.34705 -1.86691 0
M  V30 5376 H 523.756 -1.24622 -0.94335 0
M  V30 5377 H 524.491 -0.17131 -3.23847 0
M  V30 5378 H 524.276 -1.93754 -3.40884 0
M  V30 5379 H 525.766 -1.15346 -4.01354 0
M  V30 5380 N 526.204 0.969867 -1.24223 0
M  V30 5381 C 527.152 2.08535 -1.03034 0
M  V30 5382 C 528.146 1.69366 0.0340379 0
M  V30 5383 O 529.352 1.79597 -0.12034 0
M  V30 5384 H 525.727 0.682313 -0.316154 0
M  V30 5385 H 527.698 2.23569 -1.97635 0
M  V30 5386 C 526.447 3.4158 -0.649509 0
M  V30 5387 H 525.77 3.72177 -1.46028 0
M  V30 5388 H 527.21 4.20536 -0.540841 0
M  V30 5389 C 525.669 3.30703 0.643194 0
M  V30 5390 O 526.199 3.64443 1.68951 0
M  V30 5391 N 524.405 2.83841 0.623095 0
M  V30 5392 H 523.952 2.56583 -0.228719 0
M  V30 5393 H 523.91 2.76946 1.48823 0
M  V30 5394 N 527.682 1.05563 1.17022 0
M  V30 5395 C 528.592 0.670758 2.24807 0
M  V30 5396 C 529.608 -0.309865 1.71219 0
M  V30 5397 O 530.784 -0.161025 2.00755 0
M  V30 5398 C 527.849 0.055337 3.46656 0
M  V30 5399 C 526.91 1.08688 4.15314 0
M  V30 5400 C 526.143 0.500736 5.31346 0
M  V30 5401 O 526.366 -0.688718 5.66227 0
M  V30 5402 O 525.3 1.23683 5.89055 0
M  V30 5403 H 529.126 1.56914 2.60023 0
M  V30 5404 H 526.711 0.827428 1.24395 0
M  V30 5405 H 528.593 -0.286492 4.20425 0
M  V30 5406 H 527.268 -0.816638 3.13229 0
M  V30 5407 H 526.175 1.48077 3.43546 0
M  V30 5408 H 527.508 1.93014 4.52777 0
M  V30 5409 N 529.16 -1.33526 0.837174 0
M  V30 5410 C 530.107 -2.29248 0.267169 0
M  V30 5411 C 531.077 -1.54252 -0.616071 0
M  V30 5412 O 532.262 -1.82559 -0.554699 0
M  V30 5413 C 529.402 -3.40638 -0.553152 0
M  V30 5414 C 528.515 -4.30548 0.353921 0
M  V30 5415 C 527.65 -5.29051 -0.477339 0
M  V30 5416 C 526.689 -6.106 0.42823 0
M  V30 5417 N 525.826 -7.01152 -0.364801 0
M  V30 5418 H 530.666 -2.77398 1.08877 0
M  V30 5419 H 528.203 -1.36496 0.54838 0
M  V30 5420 H 530.161 -4.03921 -1.04422 0
M  V30 5421 H 528.791 -2.93685 -1.33973 0
M  V30 5422 H 527.843 -3.68001 0.963289 0
M  V30 5423 H 529.155 -4.87631 1.04964 0
M  V30 5424 H 528.309 -5.97853 -1.0323 0
M  V30 5425 H 527.048 -4.72541 -1.2065 0
M  V30 5426 H 526.053 -5.40718 0.995219 0
M  V30 5427 H 527.278 -6.69193 1.15573 0
M  V30 5428 H 525.224 -6.47092 -1.07738 0
M  V30 5429 H 525.141 -7.5551 0.272238 0
M  V30 5430 H 526.409 -7.74263 -0.902054 0
M  V30 5431 N 530.638 -0.59345 -1.46 0
M  V30 5432 C 531.887 -0.0808084 -2.01538 0
M  V30 5433 C 532.2 1.29112 -1.46934 0
M  V30 5434 O 533.406 1.8957 -1.94359 0
M  V30 5435 C 531.862 -0.0938311 -3.59778 0
M  V30 5436 C 531.47 -1.46474 -4.23379 0
M  V30 5437 C 533.214 0.364306 -4.22934 0
M  V30 5438 C 531.121 -1.4349 -5.73729 0
M  V30 5439 H 530.051 -0.0264407 -0.753536 0
M  V30 5440 H 532.702 -0.746689 -1.67621 0
M  V30 5441 H 531.084 0.638427 -3.9082 0
M  V30 5442 H 532.258 -2.21758 -4.03931 0
M  V30 5443 H 530.573 -1.86379 -3.7236 0
M  V30 5444 H 533.17 0.405584 -5.3316 0
M  V30 5445 H 533.513 1.38409 -3.92618 0
M  V30 5446 H 534.046 -0.31423 -3.96557 0
M  V30 5447 H 530.785 -2.43184 -6.08722 0
M  V30 5448 H 530.305 -0.724431 -5.95409 0
M  V30 5449 H 531.984 -1.15243 -6.36654 0
M  V30 5450 N 532.116 1.54067 -0.331816 0
M  V30 5451 C 533.341 2.05599 0.272705 0
M  V30 5452 C 533.766 1.2059 1.44359 0
M  V30 5453 O 533.124 0.216907 1.79998 0
M  V30 5454 C 533.172 3.54188 0.677021 0
M  V30 5455 O 532.276 3.72082 1.77844 0
M  V30 5456 H 531.617 0.662286 0.0476801 0
M  V30 5457 H 534.147 1.98826 -0.482624 0
M  V30 5458 H 534.157 3.96608 0.957415 0
M  V30 5459 H 532.832 4.15513 -0.179325 0
M  V30 5460 H 531.409 3.41566 1.49622 0
M  V30 5461 N 533.594 0.0601682 1.57485 0
M  V30 5462 C 534.84 -0.606552 1.94146 0
M  V30 5463 C 535.195 -1.67918 0.939225 0
M  V30 5464 O 534.488 -1.91558 -0.0402649 0
M  V30 5465 C 534.682 -1.23831 3.35262 0
M  V30 5466 C 534.511 -0.228408 4.4912 0
M  V30 5467 C 533.281 0.182813 5.04969 0
M  V30 5468 C 535.479 0.52975 5.11564 0
M  V30 5469 N 533.461 1.18464 6.02362 0
M  V30 5470 C 534.832 1.38439 6.04346 0
M  V30 5471 C 536.887 0.587084 4.94427 0
M  V30 5472 C 535.59 2.29125 6.81832 0
M  V30 5473 C 537.616 1.4814 5.72546 0
M  V30 5474 C 536.978 2.32375 6.64967 0
M  V30 5475 H 533.077 -0.193328 0.757726 0
M  V30 5476 H 535.661 0.1346 1.94234 0
M  V30 5477 H 533.832 -1.94944 3.35933 0
M  V30 5478 H 535.564 -1.86456 3.59188 0
M  V30 5479 H 532.319 -0.197968 4.73186 0
M  V30 5480 H 532.743 1.68271 6.55754 0
M  V30 5481 H 537.385 -0.049944 4.22771 0
M  V30 5482 H 535.103 2.93868 7.52773 0
M  V30 5483 H 538.689 1.53045 5.6131 0
M  V30 5484 H 537.569 3.00454 7.2436 0
M  V30 5485 N 535.072 -1.5615 -0.213296 0
M  V30 5486 C 536.019 -1.93086 -1.26437 0
M  V30 5487 C 536.989 -0.789086 -1.4616 0
M  V30 5488 O 538.174 -1.04569 -1.59593 0
M  V30 5489 C 535.314 -2.26003 -2.608 0
M  V30 5490 C 534.427 -3.53156 -2.48807 0
M  V30 5491 C 533.562 -3.7548 -3.7575 0
M  V30 5492 C 532.601 -4.96119 -3.58514 0
M  V30 5493 N 531.738 -5.14791 -4.77425 0
M  V30 5494 H 536.578 -2.82707 -0.942376 0
M  V30 5495 H 534.115 -1.39919 -0.454001 0
M  V30 5496 H 536.073 -2.431 -3.39055 0
M  V30 5497 H 534.703 -1.39546 -2.91079 0
M  V30 5498 H 533.755 -3.44207 -1.61944 0
M  V30 5499 H 535.067 -4.41565 -2.31996 0
M  V30 5500 H 534.221 -3.92718 -4.62447 0
M  V30 5501 H 532.96 -2.85368 -3.95495 0
M  V30 5502 H 531.965 -4.78823 -2.70201 0
M  V30 5503 H 533.19 -5.87724 -3.40231 0
M  V30 5504 H 531.136 -4.27623 -4.97468 0
M  V30 5505 H 531.053 -5.97347 -4.63371 0
M  V30 5506 H 532.321 -5.36471 -5.65525 0
M  V30 5507 N 536.55 0.480323 -1.50102 0
M  V30 5508 C 537.796 1.23489 -1.60867 0
M  V30 5509 C 538.129 1.91809 -0.303827 0
M  V30 5510 O 537.404 1.81694 0.694092 0
M  V30 5511 C 537.687 2.28578 -2.78252 0
M  V30 5512 C 537.54 1.64624 -4.18592 0
M  V30 5513 C 538.859 3.2997 -2.91218 0
M  V30 5514 H 535.978 0.447605 -0.585507 0
M  V30 5515 H 538.62 0.530005 -1.82458 0
M  V30 5516 H 536.77 2.88697 -2.59974 0
M  V30 5517 H 538.442 1.08173 -4.48438 0
M  V30 5518 H 536.685 0.949645 -4.23278 0
M  V30 5519 H 537.356 2.40946 -4.96638 0
M  V30 5520 H 539.832 2.79864 -3.07921 0
M  V30 5521 H 538.708 4.00839 -3.74993 0
M  V30 5522 H 538.969 3.93541 -2.0144 0
M  V30 5523 N 538.028 1.39524 0.732853 0
M  V30 5524 C 538.96 1.34318 1.85718 0
M  V30 5525 C 539.973 0.251576 1.60844 0
M  V30 5526 O 541.162 0.510685 1.71039 0
M  V30 5527 C 538.262 1.06334 3.21786 0
M  V30 5528 C 537.435 2.26813 3.73998 0
M  V30 5529 C 536.494 1.95253 4.88634 0
M  V30 5530 O 535.52 2.67957 5.02183 0
M  V30 5531 N 536.722 0.919984 5.73164 0
M  V30 5532 H 539.487 2.3121 1.90688 0
M  V30 5533 H 537.048 1.33654 0.91368 0
M  V30 5534 H 539.04 0.832363 3.96048 0
M  V30 5535 H 537.61 0.181682 3.12072 0
M  V30 5536 H 536.83 2.65849 2.91064 0
M  V30 5537 H 538.118 3.0717 4.05616 0
M  V30 5538 H 537.516 0.317487 5.64808 0
M  V30 5539 H 536.073 0.748905 6.47483 0
M  V30 5540 N 539.506 -0.963266 1.24736 0
M  V30 5541 C 540.416 -2.09246 1.06082 0
M  V30 5542 C 541.432 -1.74 0.000363101 0
M  V30 5543 O 542.608 -2.0041 0.199479 0
M  V30 5544 C 539.673 -3.40115 0.672498 0
M  V30 5545 C 538.734 -3.89282 1.80993 0
M  V30 5546 C 537.967 -5.13905 1.44004 0
M  V30 5547 O 538.19 -5.69434 0.331835 0
M  V30 5548 O 537.124 -5.57566 2.26723 0
M  V30 5549 H 540.95 -2.27881 2.00759 0
M  V30 5550 H 538.535 -1.07649 1.03595 0
M  V30 5551 H 540.417 -4.18797 0.467668 0
M  V30 5552 H 539.092 -3.22771 -0.245102 0
M  V30 5553 H 537.999 -3.11642 2.06955 0
M  V30 5554 H 539.332 -4.1111 2.70646 0
M  V30 5555 N 540.985 -1.06182 -1.16461 0
M  V30 5556 C 541.935 -0.641619 -2.18786 0
M  V30 5557 C 542.919 0.327122 -1.5754 0
M  V30 5558 O 544.111 0.142746 -1.76423 0
M  V30 5559 C 541.24 -0.0283734 -3.43288 0
M  V30 5560 C 540.326 -1.02154 -4.11613 0
M  V30 5561 N 540.717 -2.19671 -4.55608 0
M  V30 5562 C 539.015 -0.852229 -4.37782 0
M  V30 5563 C 539.716 -2.82583 -5.0845 0
M  V30 5564 N 538.692 -2.10318 -5.01266 0
M  V30 5565 H 542.494 -1.53684 -2.50516 0
M  V30 5566 H 540.008 -0.933349 -1.329 0
M  V30 5567 H 542.005 0.29049 -4.15887 0
M  V30 5568 H 540.665 0.862118 -3.13046 0
M  V30 5569 H 541.676 -2.57453 -4.49375 0
M  V30 5570 H 538.353 -0.0136314 -4.17498 0
M  V30 5571 H 539.743 -3.82298 -5.52538 0
M  V30 5572 N 542.463 1.3308 -0.844243 0
M  V30 5573 C 543.693 2.01515 -0.455541 0
M  V30 5574 C 544.101 1.63655 0.949406 0
M  V30 5575 O 543.444 0.84848 1.62931 0
M  V30 5576 C 543.506 3.55967 -0.502801 0
M  V30 5577 C 543.17 4.17222 -1.86481 0
M  V30 5578 C 544.167 4.36205 -2.8288 0
M  V30 5579 C 541.852 4.53528 -2.15911 0
M  V30 5580 C 543.846 4.90649 -4.06869 0
M  V30 5581 C 541.533 5.07679 -3.40155 0
M  V30 5582 C 542.531 5.26186 -4.35451 0
M  V30 5583 O 542.219 5.79183 -5.57496 0
M  V30 5584 H 541.951 0.65199 -0.178565 0
M  V30 5585 H 544.505 1.70867 -1.1399 0
M  V30 5586 H 542.735 3.85965 0.23836 0
M  V30 5587 H 544.424 4.05688 -0.131169 0
M  V30 5588 H 545.19 4.085 -2.61444 0
M  V30 5589 H 541.069 4.38414 -1.42528 0
M  V30 5590 H 544.613 5.0501 -4.81259 0
M  V30 5591 H 540.51 5.34815 -3.61446 0
M  V30 5592 H 541.278 5.97591 -5.5931 0
M  V30 5593 N 543.941 0.601185 1.45683 0
M  V30 5594 C 544.889 -0.133955 2.32214 0
M  V30 5595 C 545.883 -0.866034 1.45589 0
M  V30 5596 O 547.089 -0.782326 1.6211 0
M  V30 5597 H 543.464 -0.0620613 0.749435 0
M  V30 5598 H 545.435 0.614389 2.92007 0
M  V30 5599 C 544.184 -1.12216 3.29094 0
M  V30 5600 H 543.507 -0.568273 3.95741 0
M  V30 5601 H 544.947 -1.60659 3.92383 0
M  V30 5602 C 543.406 -2.19251 2.55794 0
M  V30 5603 O 543.936 -3.26894 2.33459 0
M  V30 5604 N 542.142 -1.9436 2.16039 0
M  V30 5605 H 541.689 -1.06829 2.34404 0
M  V30 5606 H 541.647 -2.66181 1.67318 0
M  V30 5607 N 545.419 -1.53889 0.339982 0
M  V30 5608 C 546.366 -2.24902 -0.518452 0
M  V30 5609 C 547.336 -1.24593 -1.09844 0
M  V30 5610 O 548.521 -1.53317 -1.13572 0
M  V30 5611 C 545.661 -3.02262 -1.66529 0
M  V30 5612 C 544.774 -4.17418 -1.11295 0
M  V30 5613 C 543.909 -4.82273 -2.2268 0
M  V30 5614 C 542.948 -5.89503 -1.6478 0
M  V30 5615 N 542.085 -6.48153 -2.69893 0
M  V30 5616 H 546.925 -2.97853 0.0936579 0
M  V30 5617 H 544.462 -1.46986 0.0579924 0
M  V30 5618 H 546.42 -3.45371 -2.3404 0
M  V30 5619 H 545.05 -2.31614 -2.24844 0
M  V30 5620 H 544.102 -3.78976 -0.328886 0
M  V30 5621 H 545.414 -4.94554 -0.649414 0
M  V30 5622 H 544.568 -5.28435 -2.98063 0
M  V30 5623 H 543.307 -4.04552 -2.72376 0
M  V30 5624 H 542.312 -5.42728 -0.879004 0
M  V30 5625 H 543.537 -6.6913 -1.1594 0
M  V30 5626 H 541.483 -5.73298 -3.1885 0
M  V30 5627 H 541.4 -7.20752 -2.28151 0
M  V30 5628 H 542.668 -6.98968 -3.45056 0
M  V30 5629 N 546.897 -0.0685191 -1.57451 0
M  V30 5630 C 547.844 0.899861 -2.12535 0
M  V30 5631 C 548.814 1.29749 -1.03703 0
M  V30 5632 O 549.999 1.38392 -1.31348 0
M  V30 5633 C 547.139 2.16328 -2.6888 0
M  V30 5634 C 546.252 1.81857 -3.91857 0
M  V30 5635 C 545.387 3.02786 -4.36457 0
M  V30 5636 C 544.426 2.64317 -5.5209 0
M  V30 5637 N 543.563 3.77994 -5.91663 0
M  V30 5638 H 548.403 0.423243 -2.94979 0
M  V30 5639 H 545.94 0.197268 -1.45771 0
M  V30 5640 H 547.898 2.90281 -2.99655 0
M  V30 5641 H 546.528 2.61536 -1.89206 0
M  V30 5642 H 545.58 0.979808 -3.67565 0
M  V30 5643 H 546.892 1.49553 -4.75852 0
M  V30 5644 H 546.046 3.85021 -4.68875 0
M  V30 5645 H 544.785 3.38281 -3.51308 0
M  V30 5646 H 543.79 1.80503 -5.19325 0
M  V30 5647 H 545.015 2.29995 -6.38967 0
M  V30 5648 H 542.961 4.13258 -5.09464 0
M  V30 5649 H 542.878 3.49447 -6.7039 0
M  V30 5650 H 544.146 4.60818 -6.28703 0
M  V30 5651 N 548.375 1.56261 0.205012 0
M  V30 5652 C 549.305 1.96779 1.257 0
M  V30 5653 C 550.286 0.838309 1.48008 0
M  V30 5654 O 551.471 1.10189 1.59913 0
M  V30 5655 C 548.601 2.29876 2.60335 0
M  V30 5656 C 547.555 3.45469 2.52656 0
M  V30 5657 C 546.881 3.64215 3.91473 0
M  V30 5658 C 548.181 4.79954 2.06014 0
M  V30 5659 H 549.875 2.84904 0.920338 0
M  V30 5660 H 547.421 1.37072 0.441277 0
M  V30 5661 H 549.374 2.56814 3.34102 0
M  V30 5662 H 548.098 1.38622 2.95722 0
M  V30 5663 H 546.757 3.18605 1.81345 0
M  V30 5664 H 546.405 2.70309 4.24196 0
M  V30 5665 H 546.105 4.41973 3.87213 0
M  V30 5666 H 547.629 3.93519 4.66878 0
M  V30 5667 H 549.043 5.05989 2.69533 0
M  V30 5668 H 547.44 5.61111 2.12777 0
M  V30 5669 H 548.51 4.74201 1.01297 0
M  V30 5670 N 549.853 -0.472356 1.50355 0
M  V30 5671 C 551.083 -1.24603 1.64796 0
M  V30 5672 C 551.491 -1.86297 0.330156 0
M  V30 5673 O 550.834 -1.69934 -0.697728 0
M  V30 5674 C 550.896 -2.39578 2.68035 0
M  V30 5675 C 550.56 -1.98531 4.11624 0
M  V30 5676 C 551.557 -1.50856 4.97532 0
M  V30 5677 C 549.242 -2.0729 4.57532 0
M  V30 5678 C 551.236 -1.12481 6.27397 0
M  V30 5679 C 548.923 -1.68527 5.87403 0
M  V30 5680 C 549.921 -1.212 6.7216 0
M  V30 5681 O 549.609 -0.829728 7.99607 0
M  V30 5682 H 549.341 -0.383035 0.55701 0
M  V30 5683 H 551.895 -0.570392 1.97321 0
M  V30 5684 H 550.125 -3.10309 2.30749 0
M  V30 5685 H 551.814 -3.01544 2.71709 0
M  V30 5686 H 552.58 -1.43511 4.63281 0
M  V30 5687 H 548.459 -2.43076 3.91708 0
M  V30 5688 H 552.003 -0.754698 6.93506 0
M  V30 5689 H 547.9 -1.7553 6.21176 0
M  V30 5690 H 548.668 -0.958689 8.12866 0
M  V30 5691 N 551.331 -1.39911 -0.725443 0
M  V30 5692 C 552.577 -1.37858 -1.48738 0
M  V30 5693 C 552.91 0.0224187 -1.94187 0
M  V30 5694 O 552.185 0.989204 -1.67466 0
M  V30 5695 C 552.468 -2.3594 -2.72038 0
M  V30 5696 C 552.321 -3.85023 -2.32546 0
M  V30 5697 C 553.64 -2.31704 -3.74167 0
M  V30 5698 H 550.759 -0.502074 -0.539528 0
M  V30 5699 H 553.401 -1.70974 -0.828728 0
M  V30 5700 H 551.551 -2.0783 -3.28236 0
M  V30 5701 H 553.223 -4.2392 -1.81905 0
M  V30 5702 H 551.466 -4.01334 -1.64661 0
M  V30 5703 H 552.137 -4.49152 -3.20884 0
M  V30 5704 H 554.613 -2.5658 -3.27576 0
M  V30 5705 H 553.489 -3.02395 -4.58092 0
M  V30 5706 H 553.75 -1.3253 -4.21768 0
M  V30 5707 N 552.809 0.956637 -1.25245 0
M  V30 5708 C 553.756 2.053 -1.05454 0
M  V30 5709 C 554.726 1.66062 0.0356889 0
M  V30 5710 O 555.911 1.90415 -0.121099 0
M  V30 5711 C 553.051 3.38391 -0.677191 0
M  V30 5712 C 552.164 3.90758 -1.84206 0
M  V30 5713 C 551.299 5.12165 -1.40926 0
M  V30 5714 C 550.338 5.56757 -2.54338 0
M  V30 5715 N 549.475 6.69376 -2.11848 0
M  V30 5716 H 554.315 2.21562 -1.99284 0
M  V30 5717 H 551.852 1.08578 -0.992434 0
M  V30 5718 H 553.81 4.1488 -0.43938 0
M  V30 5719 H 552.44 3.22021 0.224127 0
M  V30 5720 H 551.492 3.10808 -2.19323 0
M  V30 5721 H 552.804 4.19802 -2.69383 0
M  V30 5722 H 551.958 5.96065 -1.13098 0
M  V30 5723 H 550.697 4.84832 -0.528175 0
M  V30 5724 H 549.702 4.71423 -2.82913 0
M  V30 5725 H 550.927 5.861 -3.43022 0
M  V30 5726 H 548.873 6.43756 -1.26153 0
M  V30 5727 H 548.79 6.97927 -2.90574 0
M  V30 5728 H 550.058 7.5669 -1.87191 0
M  V30 5729 N 554.287 1.06798 1.15896 0
M  V30 5730 C 555.533 0.788934 1.86825 0
M  V30 5731 C 555.866 -0.683084 1.8179 0
M  V30 5732 O 555.141 -1.50086 1.23711 0
M  V30 5733 C 555.424 1.29065 3.36176 0
M  V30 5734 C 555.277 2.8268 3.49874 0
M  V30 5735 C 556.596 0.902655 4.30744 0
M  V30 5736 H 553.715 0.288066 0.678371 0
M  V30 5737 H 556.357 1.32479 1.36195 0
M  V30 5738 H 554.507 0.834806 3.79425 0
M  V30 5739 H 556.179 3.36511 3.15528 0
M  V30 5740 H 554.422 3.21157 2.91617 0
M  V30 5741 H 555.093 3.12852 4.54783 0
M  V30 5742 H 557.569 1.29535 3.95424 0
M  V30 5743 H 556.445 1.28111 5.3374 0
M  V30 5744 H 556.706 -0.191951 4.41683 0
M  V30 5745 N 555.766 -1.3263 0.851289 0
M  V30 5746 C 557.012 -1.9766 0.453694 0
M  V30 5747 C 557.345 -1.67225 -0.987396 0
M  V30 5748 O 556.62 -0.958693 -1.69232 0
M  V30 5749 C 556.903 -3.5344 0.68936 0
M  V30 5750 C 556.756 -3.93517 2.17862 0
M  V30 5751 C 558.075 -4.39866 0.143555 0
M  V30 5752 H 555.194 -0.717989 0.166314 0
M  V30 5753 H 557.836 -1.57068 1.06909 0
M  V30 5754 H 555.986 -3.88147 0.165546 0
M  V30 5755 H 557.658 -3.69006 2.76826 0
M  V30 5756 H 555.901 -3.42798 2.65841 0
M  V30 5757 H 556.572 -5.02065 2.29422 0
M  V30 5758 H 559.048 -4.11875 0.591451 0
M  V30 5759 H 557.924 -5.47858 0.338043 0
M  V30 5760 H 558.185 -4.31696 -0.953466 0
M  V30 5761 N 557.244 -0.608902 -1.45362 0
M  V30 5762 C 558.521 -0.0365378 -1.95566 0
M  V30 5763 C 558.901 1.43169 -1.55131 0
M  V30 5764 O 558.249 2.1349 -0.814513 0
M  V30 5765 C 558.459 -0.236026 -3.48201 0
M  V30 5766 C 559.807 -0.117518 -4.24437 0
M  V30 5767 O 560.831 -0.166217 -3.55812 0
M  V30 5768 O 559.69 -0.00372127 -5.465 0
M  V30 5769 H 556.784 0.0349874 -0.82626 0
M  V30 5770 H 559.33 -0.679055 -1.55521 0
M  V30 5771 H 558.102 -1.25569 -3.70605 0
M  V30 5772 H 557.725 0.441691 -3.95139 0
M  V30 5773 N 558.722 1.53707 -0.348139 0
M  V30 5774 C 559.672 2.2193 0.522592 0
M  V30 5775 C 560.656 1.20831 1.06248 0
M  V30 5776 O 561.848 1.46357 0.995415 0
M  V30 5777 C 558.977 2.99904 1.6707 0
M  V30 5778 C 558.063 4.08364 1.14454 0
M  V30 5779 N 558.454 5.04656 0.339958 0
M  V30 5780 C 556.752 4.22757 1.421 0
M  V30 5781 C 557.453 5.81675 0.0538806 0
M  V30 5782 N 556.429 5.39739 0.646776 0
M  V30 5783 H 560.231 2.93733 -0.099135 0
M  V30 5784 H 557.745 1.61656 -0.15524 0
M  V30 5785 H 559.742 3.47284 2.30651 0
M  V30 5786 H 558.402 2.29629 2.29566 0
M  V30 5787 H 559.413 5.17896 -0.0193552 0
M  V30 5788 H 556.09 3.63704 2.05002 0
M  V30 5789 H 557.48 6.69256 -0.595443 0
M  V30 5790 N 560.2 0.0768682 1.57412 0
M  V30 5791 C 561.425 -0.603404 1.98428 0
M  V30 5792 C 561.85 -1.62047 0.955108 0
M  V30 5793 O 561.208 -1.81129 -0.0786778 0
M  V30 5794 C 561.256 -1.24396 3.38464 0
M  V30 5795 O 560.36 -2.35982 3.3821 0
M  V30 5796 H 559.701 -0.154741 0.645718 0
M  V30 5797 H 562.231 0.152885 2.04028 0
M  V30 5798 H 562.241 -1.5896 3.7576 0
M  V30 5799 H 560.916 -0.498735 4.12899 0
M  V30 5800 H 559.493 -2.03173 3.1269 0
M  V30 5801 N 561.678 -1.56367 -0.196722 0
M  V30 5802 C 562.626 -1.95304 -1.2633 0
M  V30 5803 C 563.62 -0.838252 -1.47206 0
M  V30 5804 O 564.826 -1.02325 -1.48087 0
M  V30 5805 H 561.201 -0.621013 -0.424083 0
M  V30 5806 H 563.172 -2.84254 -0.907879 0
M  V30 5807 C 561.921 -2.3074 -2.60104 0
M  V30 5808 H 561.244 -3.16047 -2.44856 0
M  V30 5809 H 562.684 -2.61849 -3.33484 0
M  V30 5810 C 561.143 -1.14143 -3.16975 0
M  V30 5811 O 561.673 -0.415602 -3.99544 0
M  V30 5812 N 559.879 -0.91867 -2.75697 0
M  V30 5813 H 559.426 -1.51065 -2.08656 0
M  V30 5814 H 559.384 -0.140321 -3.14087 0
M  V30 5815 N 563.156 0.464375 -1.50603 0
M  V30 5816 C 564.066 1.58723 -1.72754 0
M  V30 5817 C 565.082 1.62925 -0.610844 0
M  V30 5818 O 566.258 1.8067 -0.889963 0
M  V30 5819 C 563.323 2.94897 -1.82309 0
M  V30 5820 C 562.384 3.0103 -3.06071 0
M  V30 5821 C 561.617 4.30708 -3.1516 0
M  V30 5822 O 561.84 5.2159 -2.30868 0
M  V30 5823 O 560.774 4.42571 -4.0794 0
M  V30 5824 H 564.6 1.42954 -2.67951 0
M  V30 5825 H 562.185 0.644579 -1.3478 0
M  V30 5826 H 564.067 3.75764 -1.90735 0
M  V30 5827 H 562.742 3.10851 -0.902967 0
M  V30 5828 H 561.649 2.19217 -3.03142 0
M  V30 5829 H 562.982 2.90014 -3.97684 0
M  V30 5830 N 564.634 1.40294 0.718013 0
M  V30 5831 C 565.597 1.4012 1.81381 0
M  V30 5832 C 566.597 0.295405 1.58063 0
M  V30 5833 O 567.787 0.554187 1.6515 0
M  V30 5834 C 564.919 1.19056 3.19435 0
M  V30 5835 H 566.112 2.37645 1.82933 0
M  V30 5836 H 563.665 1.26107 0.923405 0
M  V30 5837 H 564.4 0.222809 3.23534 0
M  V30 5838 H 564.185 1.99152 3.37758 0
M  V30 5839 H 565.675 1.21716 3.99468 0
M  V30 5840 N 566.112 -0.949982 1.2575 0
M  V30 5841 C 567.337 -1.73503 1.13628 0
M  V30 5842 C 567.762 -1.85601 -0.30559 0
M  V30 5843 O 567.12 -1.33984 -1.22139 0
M  V30 5844 C 567.168 -3.1243 1.80055 0
M  V30 5845 O 566.272 -3.97916 1.08336 0
M  V30 5846 H 565.613 -0.532665 0.396439 0
M  V30 5847 H 568.143 -1.19043 1.66403 0
M  V30 5848 H 568.153 -3.62866 1.86527 0
M  V30 5849 H 566.828 -3.02941 2.84956 0
M  V30 5850 H 565.405 -3.56375 1.09777 0
M  V30 5851 N 567.59 -1.07411 -1.15328 0
M  V30 5852 C 568.839 -0.792643 -1.85473 0
M  V30 5853 C 569.152 0.683789 -1.83259 0
M  V30 5854 O 570.358 1.08005 -2.49093 0
M  V30 5855 C 568.814 -1.36787 -3.32892 0
M  V30 5856 C 568.422 -2.87536 -3.43551 0
M  V30 5857 C 570.166 -1.16444 -4.08217 0
M  V30 5858 C 568.073 -3.38247 -4.85122 0
M  V30 5859 H 567.003 -0.292838 -0.694811 0
M  V30 5860 H 569.654 -1.29426 -1.30082 0
M  V30 5861 H 568.036 -0.793993 -3.87958 0
M  V30 5862 H 569.21 -3.50973 -2.98588 0
M  V30 5863 H 567.525 -3.06676 -2.81672 0
M  V30 5864 H 570.122 -1.51808 -5.12697 0
M  V30 5865 H 570.465 -0.10353 -4.16171 0
M  V30 5866 H 570.998 -1.70472 -3.59422 0
M  V30 5867 H 567.737 -4.43866 -4.82351 0
M  V30 5868 H 567.257 -2.79564 -5.30664 0
M  V30 5869 H 568.936 -3.34238 -5.5398 0
M  V30 5870 N 569.068 1.32177 -0.85831 0
M  V30 5871 C 570.031 2.27086 -0.310588 0
M  V30 5872 C 571.031 1.51751 0.531806 0
M  V30 5873 O 572.221 1.70794 0.34279 0
M  V30 5874 C 569.353 3.36266 0.560179 0
M  V30 5875 H 570.546 2.77045 -1.1483 0
M  V30 5876 H 568.099 1.42911 -0.632942 0
M  V30 5877 H 568.834 2.9158 1.41956 0
M  V30 5878 H 568.619 3.92077 -0.0428473 0
M  V30 5879 H 570.109 4.06974 0.936056 0
M  V30 5880 N 570.547 0.616602 1.45037 0
M  V30 5881 C 571.793 0.115501 2.02471 0
M  V30 5882 C 572.126 -1.25406 1.4828 0
M  V30 5883 O 571.401 -1.82922 0.661051 0
M  V30 5884 C 571.684 0.0863588 3.59996 0
M  V30 5885 C 571.537 1.48723 4.24501 0
M  V30 5886 C 572.856 -0.596762 4.36035 0
M  V30 5887 H 569.975 0.0434461 0.735718 0
M  V30 5888 H 572.617 0.7903 1.72784 0
M  V30 5889 H 570.767 -0.488277 3.85419 0
M  V30 5890 H 572.439 2.10964 4.10234 0
M  V30 5891 H 570.682 2.04534 3.82555 0
M  V30 5892 H 571.353 1.419 5.3345 0
M  V30 5893 H 573.829 -0.10824 4.15959 0
M  V30 5894 H 572.705 -0.586289 5.4576 0
M  V30 5895 H 572.966 -1.66451 4.09569 0
M  V30 5896 N 572.025 -1.5352 0.356285 0
M  V30 5897 C 573.302 -1.93405 -0.292223 0
M  V30 5898 C 573.682 -1.28901 -1.67176 0
M  V30 5899 O 573.03 -0.444632 -2.24132 0
M  V30 5900 C 573.24 -3.47223 -0.35175 0
M  V30 5901 C 574.588 -4.20389 -0.596534 0
M  V30 5902 O 575.612 -3.53554 -0.433344 0
M  V30 5903 O 574.471 -5.3881 -0.913589 0
M  V30 5904 H 571.565 -0.808666 -0.173172 0
M  V30 5905 H 574.111 -1.64713 0.408391 0
M  V30 5906 H 572.883 -3.86423 0.615841 0
M  V30 5907 H 572.506 -3.8212 -1.09864 0
M  V30 5908 N 573.503 -0.0852151 -1.57369 0
M  V30 5909 C 574.728 0.592872 -1.98746 0
M  V30 5910 C 575.153 1.61538 -0.963689 0
M  V30 5911 O 574.511 1.81168 0.069071 0
M  V30 5912 C 574.559 1.22599 -3.39119 0
M  V30 5913 O 573.663 2.34185 -3.39457 0
M  V30 5914 H 573.004 0.151314 -0.646529 0
M  V30 5915 H 575.534 -0.163703 -2.03944 0
M  V30 5916 H 575.544 1.56965 -3.76598 0
M  V30 5917 H 574.219 0.476831 -4.13158 0
M  V30 5918 H 572.796 2.01512 -3.13763 0
M  V30 5919 N 574.981 1.5647 0.188427 0
M  V30 5920 C 576.228 1.81013 0.907779 0
M  V30 5921 C 576.556 0.65953 1.82977 0
M  V30 5922 O 575.811 -0.354308 1.92466 0
M  V30 5923 C 576.11 3.11596 1.7505 0
M  V30 5924 C 575.776 4.40145 0.978922 0
M  V30 5925 C 574.438 4.75066 0.765912 0
M  V30 5926 C 576.79 5.19369 0.436498 0
M  V30 5927 C 574.118 5.867 -0.00089868 0
M  V30 5928 C 576.47 6.31805 -0.317136 0
M  V30 5929 C 575.134 6.65303 -0.541103 0
M  V30 5930 H 574.404 0.662373 0.33218 0
M  V30 5931 H 577.051 1.9071 0.173732 0
M  V30 5932 H 575.356 2.97165 2.55343 0
M  V30 5933 H 577.053 3.27793 2.30983 0
M  V30 5934 H 573.643 4.12745 1.15497 0
M  V30 5935 H 577.827 4.92799 0.588449 0
M  V30 5936 H 573.083 6.11122 -0.184329 0
M  V30 5937 H 577.257 6.92406 -0.744788 0
M  V30 5938 H 574.884 7.51646 -1.13718 0
M  V30 5939 N 576.459 -0.456382 1.50847 0
M  V30 5940 C 577.391 -1.57033 1.66953 0
M  V30 5941 C 578.404 -1.53207 0.550593 0
M  V30 5942 O 579.593 -1.58328 0.824285 0
M  V30 5943 C 576.693 -2.95937 1.65149 0
M  V30 5944 C 575.866 -3.24475 2.93317 0
M  V30 5945 C 574.925 -4.43007 2.83957 0
M  V30 5946 O 573.951 -4.42592 3.57912 0
M  V30 5947 N 575.153 -5.45503 1.9851 0
M  V30 5948 H 577.918 -1.43629 2.63042 0
M  V30 5949 H 575.479 -0.645037 1.48495 0
M  V30 5950 H 577.471 -3.73224 1.56481 0
M  V30 5951 H 576.041 -3.03036 0.767343 0
M  V30 5952 H 575.261 -2.35664 3.16 0
M  V30 5953 H 576.549 -3.4036 3.78196 0
M  V30 5954 H 575.947 -5.48668 1.37766 0
M  V30 5955 H 574.504 -6.21716 1.95735 0
M  V30 5956 N 577.937 -1.40673 -0.710563 0
M  V30 5957 C 578.9 -1.4108 -1.80635 0
M  V30 5958 C 579.9 -0.303783 -1.57904 0
M  V30 5959 O 581.09 -0.562937 -1.64853 0
M  V30 5960 C 578.222 -1.20748 -3.18799 0
M  V30 5961 H 579.415 -2.38612 -1.81671 0
M  V30 5962 H 576.968 -1.26595 -0.916704 0
M  V30 5963 H 577.703 -0.239964 -3.23411 0
M  V30 5964 H 577.488 -2.00941 -3.36698 0
M  V30 5965 H 578.978 -1.23833 -3.98817 0
M  V30 5966 N 579.415 0.9433 -1.26252 0
M  V30 5967 C 580.64 1.72898 -1.14547 0
M  V30 5968 C 581.065 1.85761 0.295743 0
M  V30 5969 O 580.423 1.3463 1.21427 0
M  V30 5970 C 580.471 3.11471 -1.8171 0
M  V30 5971 O 579.575 3.97336 -1.10445 0
M  V30 5972 H 578.916 0.530555 -0.399259 0
M  V30 5973 H 581.446 1.18159 -1.67032 0
M  V30 5974 H 581.456 3.61872 -1.88449 0
M  V30 5975 H 580.131 3.01425 -2.86558 0
M  V30 5976 H 578.708 3.55788 -1.11666 0
M  V30 5977 N 580.893 1.08022 1.14757 0
M  V30 5978 C 582.17 0.720386 1.81851 0
M  V30 5979 C 582.55 -0.796375 1.95502 0
M  V30 5980 O 581.898 -1.71339 1.51179 0
M  V30 5981 C 582.108 1.44273 3.17783 0
M  V30 5982 C 583.456 1.59925 3.93331 0
M  V30 5983 O 584.48 1.40407 3.2736 0
M  V30 5984 O 583.339 1.92096 5.11626 0
M  V30 5985 H 580.433 0.257142 0.786007 0
M  V30 5986 H 582.979 1.18155 1.21809 0
M  V30 5987 H 581.751 2.47618 3.02987 0
M  V30 5988 H 581.374 0.97279 3.85516 0
M  V30 5989 N 582.371 -1.3172 0.865308 0
M  V30 5990 C 583.787 -1.4958 0.556596 0
M  V30 5991 C 583.987 -1.79763 -0.910353 0
M  V30 5992 O 583.043 -1.87351 -1.6928 0
M  V30 5993 C 584.356 -2.63277 1.45279 0
M  V30 5994 C 585.904 -2.77161 1.45433 0
M  V30 5995 C 586.379 -3.93949 2.33598 0
M  V30 5996 N 587.87 -4.01228 2.31453 0
M  V30 5997 C 588.605 -4.90855 2.96393 0
M  V30 5998 N 588.101 -5.85416 3.70486 0
M  V30 5999 N 589.894 -4.84063 2.85726 0
M  V30 6000 H 582.045 -1.10396 1.81456 0
M  V30 6001 H 584.308 -0.54507 0.775631 0
M  V30 6002 H 584.014 -2.47734 2.49641 0
M  V30 6003 H 583.888 -3.59309 1.14792 0
M  V30 6004 H 586.275 -2.9212 0.41831 0
M  V30 6005 H 586.356 -1.8181 1.79941 0
M  V30 6006 H 586 -3.79748 3.37274 0
M  V30 6007 H 585.93 -4.88598 1.96417 0
M  V30 6008 H 588.421 -3.3357 1.77593 0
M  V30 6009 H 588.734 -6.50525 4.17178 0
M  V30 6010 H 587.079 -5.85409 3.74594 0
M  V30 6011 H 590.27 -4.09163 2.27384 0
M  V30 6012 H 590.443 -5.53708 3.36617 0
M  V30 6013 N 583.85 -0.624285 -1.44708 0
M  V30 6014 C 585.098 -0.125802 -2.01708 0
M  V30 6015 C 585.418 1.2543 -1.49306 0
M  V30 6016 O 584.689 1.83198 -0.693924 0
M  V30 6017 H 583.269 -0.0435161 -0.745731 0
M  V30 6018 H 585.931 -0.809446 -1.77296 0
M  V30 6019 H 585.027 -0.0882734 -3.11975 0
M  V30 6020 N 585.328 1.53329 -0.364422 0
M  V30 6021 C 586.556 2.05657 0.226424 0
M  V30 6022 C 586.971 1.23801 1.42544 0
M  V30 6023 O 586.328 0.27839 1.80364 0
M  V30 6024 C 586.379 3.56125 0.621056 0
M  V30 6025 O 586.1 4.34879 -0.530304 0
M  V30 6026 C 587.601 4.24706 1.27041 0
M  V30 6027 H 584.821 0.669806 0.0400056 0
M  V30 6028 H 587.365 1.97714 -0.522456 0
M  V30 6029 H 585.52 3.64223 1.31985 0
M  V30 6030 H 585.934 5.24073 -0.211546 0
M  V30 6031 H 587.408 5.3131 1.49711 0
M  V30 6032 H 587.885 3.78354 2.23036 0
M  V30 6033 H 588.491 4.20858 0.613079 0
M  V30 6034 N 586.806 0.0935595 1.57322 0
M  V30 6035 C 588.055 -0.570191 1.93473 0
M  V30 6036 C 588.368 -1.69434 0.977318 0
M  V30 6037 O 589.574 -2.41914 1.23248 0
M  V30 6038 C 588.03 -1.06564 3.43762 0
M  V30 6039 C 587.638 0.0286723 4.47991 0
M  V30 6040 C 589.382 -1.70221 3.88877 0
M  V30 6041 C 587.289 -0.482046 5.89432 0
M  V30 6042 H 586.219 -0.216764 0.72217 0
M  V30 6043 H 588.87 0.169313 1.82717 0
M  V30 6044 H 587.252 -1.85878 3.49664 0
M  V30 6045 H 588.426 0.804106 4.5373 0
M  V30 6046 H 586.741 0.570336 4.12476 0
M  V30 6047 H 589.338 -2.09502 4.91948 0
M  V30 6048 H 589.681 -2.57078 3.27439 0
M  V30 6049 H 590.214 -0.974919 3.85668 0
M  V30 6050 H 586.953 0.349871 6.54566 0
M  V30 6051 H 586.473 -1.22452 5.87167 0
M  V30 6052 H 588.152 -0.951508 6.39965 0
M  V30 6053 N 588.284 -1.56567 -0.180126 0
M  V30 6054 C 589.531 -1.81492 -0.898167 0
M  V30 6055 C 589.859 -0.669225 -1.82624 0
M  V30 6056 O 589.114 0.344096 -1.92651 0
M  V30 6057 C 589.413 -3.1252 -1.73395 0
M  V30 6058 C 589.079 -4.40658 -0.955567 0
M  V30 6059 C 587.741 -4.75465 -0.740707 0
M  V30 6060 C 590.093 -5.19593 -0.408948 0
M  V30 6061 C 587.421 -5.86691 0.0320128 0
M  V30 6062 C 589.773 -6.31627 0.350638 0
M  V30 6063 C 588.437 -6.65007 0.576378 0
M  V30 6064 H 587.707 -0.664125 -0.328662 0
M  V30 6065 H 590.354 -1.908 -0.163616 0
M  V30 6066 H 588.659 -2.98515 -2.53763 0
M  V30 6067 H 590.356 -3.29013 -2.29241 0
M  V30 6068 H 586.946 -4.13352 -1.13306 0
M  V30 6069 H 591.13 -4.93104 -0.562307 0
M  V30 6070 H 586.386 -6.11016 0.216735 0
M  V30 6071 H 590.56 -6.92001 0.781497 0
M  V30 6072 H 588.187 -7.51033 1.17703 0
M  V30 6073 N 589.762 0.448376 -1.51087 0
M  V30 6074 C 590.992 1.21965 -1.66757 0
M  V30 6075 C 591.4 1.85748 -0.359753 0
M  V30 6076 O 590.743 1.71022 0.670604 0
M  V30 6077 C 590.805 2.35284 -2.71812 0
M  V30 6078 C 590.469 1.91957 -4.1473 0
M  V30 6079 C 591.466 1.42921 -4.9987 0
M  V30 6080 C 589.151 1.99985 -4.60772 0
M  V30 6081 C 591.145 1.02485 -6.29107 0
M  V30 6082 C 588.832 1.5916 -5.90009 0
M  V30 6083 C 589.83 1.10491 -6.74004 0
M  V30 6084 O 589.518 0.702413 -8.00825 0
M  V30 6085 H 589.25 0.374125 -0.563034 0
M  V30 6086 H 591.804 0.538927 -1.98204 0
M  V30 6087 H 590.034 3.06599 -2.35657 0
M  V30 6088 H 591.723 2.97184 -2.76472 0
M  V30 6089 H 592.489 1.36123 -4.65506 0
M  V30 6090 H 588.368 2.36814 -3.95525 0
M  V30 6091 H 591.912 0.644271 -6.94619 0
M  V30 6092 H 587.809 1.65626 -6.2389 0
M  V30 6093 H 588.577 0.829248 -8.14288 0
M  V30 6094 N 591.24 1.41047 0.703093 0
M  V30 6095 C 592.17 1.45067 1.82969 0
M  V30 6096 C 593.151 0.31016 1.67248 0
M  V30 6097 O 594.336 0.520548 1.87093 0
M  V30 6098 C 591.466 1.32478 3.2104 0
M  V30 6099 C 590.42 2.44262 3.51454 0
M  V30 6100 C 589.746 2.16742 4.88801 0
M  V30 6101 C 591.046 3.86606 3.51189 0
M  V30 6102 H 592.74 2.39353 1.79863 0
M  V30 6103 H 590.286 1.15206 0.863919 0
M  V30 6104 H 592.239 1.33904 3.99559 0
M  V30 6105 H 590.963 0.346735 3.24754 0
M  V30 6106 H 589.622 2.42107 2.75282 0
M  V30 6107 H 589.27 1.17299 4.89132 0
M  V30 6108 H 588.97 2.91643 5.10116 0
M  V30 6109 H 590.494 2.19872 5.69639 0
M  V30 6110 H 591.908 3.90517 4.19725 0
M  V30 6111 H 590.305 4.61128 3.84033 0
M  V30 6112 H 591.375 4.15296 2.50315 0
M  V30 6113 N 592.718 -0.936591 1.26751 0
M  V30 6114 C 593.666 -2.0573 1.08527 0
M  V30 6115 C 594.66 -1.69397 0.0108784 0
M  V30 6116 O 595.866 -1.79215 0.167915 0
M  V30 6117 H 592.241 -0.673691 0.334133 0
M  V30 6118 H 594.212 -2.1825 2.03493 0
M  V30 6119 C 592.961 -3.39738 0.739845 0
M  V30 6120 H 592.284 -3.68174 1.55845 0
M  V30 6121 H 593.724 -4.18955 0.652149 0
M  V30 6122 C 592.183 -3.32292 -0.555288 0
M  V30 6123 O 592.713 -3.68794 -1.59229 0
M  V30 6124 N 590.919 -2.85394 -0.54762 0
M  V30 6125 H 590.466 -2.55886 0.296667 0
M  V30 6126 H 590.424 -2.80795 -1.41427 0
M  V30 6127 N 594.196 -1.08629 -1.14182 0
M  V30 6128 C 595.126 -0.740003 -2.21464 0
M  V30 6129 C 596.107 0.278591 -1.67803 0
M  V30 6130 O 597.292 0.148461 -1.93632 0
M  V30 6131 C 594.422 -0.150952 -3.46972 0
M  V30 6132 C 593.376 -1.09815 -4.13672 0
M  V30 6133 C 592.702 -0.3712 -5.3341 0
M  V30 6134 C 594.002 -2.43722 -4.61949 0
M  V30 6135 H 595.696 -1.63697 -2.50686 0
M  V30 6136 H 593.242 -0.788526 -1.20492 0
M  V30 6137 H 595.195 0.103325 -4.21273 0
M  V30 6138 H 593.919 0.781164 -3.1712 0
M  V30 6139 H 592.578 -1.33756 -3.41328 0
M  V30 6140 H 592.226 0.564792 -4.99819 0
M  V30 6141 H 591.926 -1.00267 -5.78982 0
M  V30 6142 H 593.45 -0.12503 -6.10472 0
M  V30 6143 H 594.864 -2.24034 -5.27714 0
M  V30 6144 H 593.261 -3.02582 -5.18232 0
M  V30 6145 H 594.331 -3.05082 -3.76899 0
M  V30 6146 N 595.674 1.31259 -0.872281 0
M  V30 6147 C 596.951 1.91362 -0.404943 0
M  V30 6148 C 597.331 1.79362 1.11321 0
M  V30 6149 O 596.679 1.20277 1.94283 0
M  V30 6150 C 596.889 3.3749 -0.888893 0
M  V30 6151 C 598.237 4.14593 -0.916384 0
M  V30 6152 O 599.261 3.46282 -0.834701 0
M  V30 6153 O 598.12 5.3661 -1.03498 0
M  V30 6154 H 595.214 0.818016 -0.121569 0
M  V30 6155 H 597.76 1.39912 -0.960346 0
M  V30 6156 H 596.532 3.40249 -1.93251 0
M  V30 6157 H 596.155 3.96375 -0.311932 0
M  V30 6158 N 597.152 0.631951 1.44375 0
M  V30 6159 C 598.062 -0.073674 2.34484 0
M  V30 6160 C 599.078 -0.834825 1.52665 0
M  V30 6161 O 600.254 -0.786902 1.85391 0
M  V30 6162 C 597.319 -1.04247 3.30656 0
M  V30 6163 C 596.38 -0.280602 4.28382 0
M  V30 6164 C 595.613 -1.20325 5.19959 0
M  V30 6165 O 595.836 -2.44199 5.15484 0
M  V30 6166 O 594.77 -0.687128 5.97965 0
M  V30 6167 H 598.596 0.667477 2.96274 0
M  V30 6168 H 596.181 0.392144 1.44162 0
M  V30 6169 H 598.063 -1.59981 3.89851 0
M  V30 6170 H 596.738 -1.76422 2.71398 0
M  V30 6171 H 595.645 0.319804 3.72731 0
M  V30 6172 H 596.978 0.401144 4.90563 0
M  V30 6173 N 598.631 -1.53133 0.372548 0
M  V30 6174 C 599.879 -2.00958 -0.214534 0
M  V30 6175 C 600.2 -1.26135 -1.48711 0
M  V30 6176 O 599.47 -0.376597 -1.92246 0
M  V30 6177 H 598.05 -0.742456 -0.0822664 0
M  V30 6178 H 600.712 -1.88367 0.500385 0
M  V30 6179 H 599.808 -3.09031 -0.436605 0
M  V30 6180 N 600.109 -0.101901 -1.5727 0
M  V30 6181 C 601.072 0.840129 -2.13247 0
M  V30 6182 C 602.072 1.20625 -1.06331 0
M  V30 6183 O 603.262 1.13456 -1.32186 0
M  V30 6184 C 600.394 2.13372 -2.65867 0
M  V30 6185 H 601.587 0.353945 -2.97804 0
M  V30 6186 H 599.14 0.147167 -1.55606 0
M  V30 6187 H 599.875 2.66461 -1.84849 0
M  V30 6188 H 599.66 1.88085 -3.44044 0
M  V30 6189 H 601.15 2.80748 -3.09145 0
M  V30 6190 N 601.587 1.56661 0.17182 0
M  V30 6191 C 602.835 1.81606 0.886774 0
M  V30 6192 C 603.156 0.678818 1.82803 0
M  V30 6193 O 602.426 -0.301354 1.93568 0
M  V30 6194 H 601.006 0.669934 0.330451 0
M  V30 6195 H 603.668 1.94142 0.171757 0
M  V30 6196 H 602.764 2.75634 1.46398 0
M  V30 6197 N 603.065 -0.440357 1.51323 0
M  V30 6198 C 604.012 -1.53429 1.72419 0
M  V30 6199 C 604.982 -1.56165 0.565826 0
M  V30 6200 O 606.167 -1.73222 0.799917 0
M  V30 6201 C 603.307 -2.91169 1.85242 0
M  V30 6202 C 602.42 -2.97985 3.12777 0
M  V30 6203 C 601.555 -4.26829 3.16212 0
M  V30 6204 C 600.594 -4.27501 4.38074 0
M  V30 6205 N 599.731 -5.47866 4.39076 0
M  V30 6206 H 604.571 -1.34743 2.65797 0
M  V30 6207 H 602.108 -0.654608 1.31732 0
M  V30 6208 H 604.066 -3.71087 1.90658 0
M  V30 6209 H 602.696 -3.0842 0.952744 0
M  V30 6210 H 601.748 -2.10749 3.16685 0
M  V30 6211 H 603.06 -2.94342 4.02696 0
M  V30 6212 H 602.214 -5.15118 3.20527 0
M  V30 6213 H 600.953 -4.33124 2.24176 0
M  V30 6214 H 599.958 -3.37606 4.33938 0
M  V30 6215 H 601.183 -4.22873 5.31371 0
M  V30 6216 H 599.129 -5.54887 3.49909 0
M  V30 6217 H 599.046 -5.46091 5.22801 0
M  V30 6218 H 600.314 -6.38195 4.4758 0
M  V30 6219 N 604.543 -1.41418 -0.695603 0
M  V30 6220 C 605.49 -1.43264 -1.80954 0
M  V30 6221 C 606.46 -0.287016 -1.63601 0
M  V30 6222 O 607.645 -0.488054 -1.84452 0
M  V30 6223 C 604.785 -1.32054 -3.18835 0
M  V30 6224 C 603.898 -2.56485 -3.4762 0
M  V30 6225 C 603.033 -2.3757 -4.75115 0
M  V30 6226 C 602.072 -3.57477 -4.96867 0
M  V30 6227 N 601.209 -3.37632 -6.15588 0
M  V30 6228 H 606.049 -2.38467 -1.78711 0
M  V30 6229 H 603.586 -1.18415 -0.872715 0
M  V30 6230 H 605.544 -1.23558 -3.98484 0
M  V30 6231 H 604.174 -0.404592 -3.20254 0
M  V30 6232 H 603.226 -2.75432 -2.62376 0
M  V30 6233 H 604.538 -3.45678 -3.59594 0
M  V30 6234 H 603.692 -2.2654 -5.62818 0
M  V30 6235 H 602.431 -1.45834 -4.65386 0
M  V30 6236 H 601.436 -3.68961 -4.07612 0
M  V30 6237 H 602.661 -4.50167 -5.08455 0
M  V30 6238 H 600.607 -2.48596 -6.07072 0
M  V30 6239 H 600.524 -4.20401 -6.2833 0
M  V30 6240 H 601.792 -3.30375 -7.06026 0
M  V30 6241 N 606.021 0.929856 -1.27246 0
M  V30 6242 C 606.984 2.01172 -1.09829 0
M  V30 6243 C 607.984 1.60743 -0.0429687 0
M  V30 6244 O 609.174 1.71813 -0.287373 0
M  V30 6245 C 606.306 3.34191 -0.673003 0
M  V30 6246 H 607.499 2.18054 -2.05895 0
M  V30 6247 H 605.052 1.11036 -1.10003 0
M  V30 6248 H 605.787 3.23009 0.289134 0
M  V30 6249 H 605.572 3.64892 -1.43515 0
M  V30 6250 H 607.062 4.13646 -0.573323 0
M  V30 6251 N 607.499 1.09233 1.13605 0
M  V30 6252 C 608.429 0.751738 2.21068 0
M  V30 6253 C 609.41 -0.269688 1.67948 0
M  V30 6254 O 610.595 -0.13819 1.93708 0
M  V30 6255 C 607.725 0.16935 3.46887 0
M  V30 6256 C 606.679 1.12007 4.13084 0
M  V30 6257 C 606.005 0.399483 5.33206 0
M  V30 6258 C 607.305 2.46168 4.6065 0
M  V30 6259 H 608.999 1.65024 2.49815 0
M  V30 6260 H 606.545 0.794905 1.20072 0
M  V30 6261 H 608.498 -0.0809824 4.21322 0
M  V30 6262 H 607.222 -0.764335 3.1753 0
M  V30 6263 H 605.881 1.35564 3.40614 0
M  V30 6264 H 605.529 -0.538277 5.00112 0
M  V30 6265 H 605.229 1.03337 5.78442 0
M  V30 6266 H 606.753 0.157403 6.10397 0
M  V30 6267 H 608.167 2.26829 5.26518 0
M  V30 6268 H 606.564 3.05326 5.1662 0
M  V30 6269 H 607.634 3.07076 3.75276 0
M  V30 6270 N 608.977 -1.30795 0.87923 0
M  V30 6271 C 609.887 -2.32041 0.345565 0
M  V30 6272 C 610.903 -1.65103 -0.549265 0
M  V30 6273 O 612.079 -1.9645 -0.443763 0
M  V30 6274 C 609.144 -3.43944 -0.436245 0
M  V30 6275 C 608.205 -4.26521 0.48765 0
M  V30 6276 C 607.438 -5.33081 -0.256943 0
M  V30 6277 O 607.661 -5.50762 -1.48381 0
M  V30 6278 O 606.595 -6.00635 0.389985 0
M  V30 6279 H 610.421 -2.79627 1.18501 0
M  V30 6280 H 608.006 -1.3486 0.642885 0
M  V30 6281 H 609.888 -4.12128 -0.879119 0
M  V30 6282 H 608.563 -2.98504 -1.25208 0
M  V30 6283 H 607.47 -3.61057 0.979216 0
M  V30 6284 H 608.803 -4.75551 1.26933 0
M  V30 6285 N 610.455 -0.639598 -1.44038 0
M  V30 6286 C 611.402 0.0602458 -2.30721 0
M  V30 6287 C 612.372 0.828352 -1.43971 0
M  V30 6288 O 613.557 0.807693 -1.72861 0
M  V30 6289 C 610.697 1.03008 -3.29368 0
M  V30 6290 C 609.81 0.259502 -4.3122 0
M  V30 6291 C 608.945 1.22191 -5.16955 0
M  V30 6292 C 607.984 0.440978 -6.10509 0
M  V30 6293 N 607.121 1.35428 -6.88915 0
M  V30 6294 H 611.961 -0.684867 -2.90023 0
M  V30 6295 H 609.498 -0.349509 -1.42888 0
M  V30 6296 H 611.456 1.60583 -3.85057 0
M  V30 6297 H 610.086 1.74222 -2.71747 0
M  V30 6298 H 609.138 -0.432317 -3.77935 0
M  V30 6299 H 610.45 -0.348347 -4.97582 0
M  V30 6300 H 609.604 1.86873 -5.77203 0
M  V30 6301 H 608.343 1.86367 -4.50687 0
M  V30 6302 H 607.348 -0.219279 -5.49363 0
M  V30 6303 H 608.573 -0.196192 -6.78817 0
M  V30 6304 H 606.519 1.9831 -6.25307 0
M  V30 6305 H 606.436 0.800657 -7.51748 0
M  V30 6306 H 607.704 1.98967 -7.53679 0
M  V30 6307 N 611.933 1.52934 -0.380664 0
M  V30 6308 C 613.179 2.01765 0.20458 0
M  V30 6309 C 613.512 1.26696 1.47179 0
M  V30 6310 O 612.787 0.364936 1.91046 0
M  V30 6311 C 613.07 3.56869 0.481269 0
M  V30 6312 C 612.923 4.42617 -0.800629 0
M  V30 6313 C 614.242 4.2121 1.27554 0
M  V30 6314 H 611.361 0.733388 0.0728803 0
M  V30 6315 H 614.003 1.83068 -0.50853 0
M  V30 6316 H 612.153 3.72932 1.08875 0
M  V30 6317 H 613.825 4.38323 -1.43773 0
M  V30 6318 H 612.068 4.09977 -1.4178 0
M  V30 6319 H 612.739 5.49134 -0.561791 0
M  V30 6320 H 615.215 4.09072 0.761514 0
M  V30 6321 H 614.091 5.29732 1.43788 0
M  V30 6322 H 614.352 3.78269 2.28833 0
M  V30 6323 N 613.412 0.11024 1.57214 0
M  V30 6324 C 614.362 -0.854147 2.11396 0
M  V30 6325 C 615.346 -1.23394 1.03261 0
M  V30 6326 O 616.538 -1.20649 1.2951 0
M  V30 6327 C 613.667 -2.10752 2.70995 0
M  V30 6328 C 612.753 -1.75249 3.86198 0
M  V30 6329 N 613.144 -1.10377 4.9361 0
M  V30 6330 C 611.442 -2.04763 3.96217 0
M  V30 6331 C 612.143 -0.938199 5.74084 0
M  V30 6332 N 611.119 -1.46039 5.23616 0
M  V30 6333 H 614.921 -0.348897 2.91822 0
M  V30 6334 H 612.435 -0.0925071 1.62136 0
M  V30 6335 H 614.432 -2.80801 3.0815 0
M  V30 6336 H 613.092 -2.61829 1.9203 0
M  V30 6337 H 614.103 -0.768785 5.12162 0
M  V30 6338 H 610.78 -2.57948 3.28282 0
M  V30 6339 H 612.17 -0.429678 6.70525 0
M  V30 6340 N 614.89 -1.56749 -0.16351 0
M  V30 6341 C 615.838 -1.97939 -1.22159 0
M  V30 6342 C 616.832 -0.869288 -1.45395 0
M  V30 6343 O 618.038 -1.05443 -1.45883 0
M  V30 6344 H 614.413 -0.629869 -0.410815 0
M  V30 6345 H 616.384 -2.86115 -0.847381 0
M  V30 6346 C 615.133 -2.36206 -2.55151 0
M  V30 6347 H 614.456 -3.2117 -2.38097 0
M  V30 6348 H 615.896 -2.68863 -3.27854 0
M  V30 6349 C 614.355 -1.20841 -3.14482 0
M  V30 6350 O 614.885 -0.500258 -3.98573 0
M  V30 6351 N 613.091 -0.976943 -2.73686 0
M  V30 6352 H 612.638 -1.55457 -2.05404 0
M  V30 6353 H 612.596 -0.206912 -3.13718 0
M  V30 6354 N 616.368 0.432326 -1.51554 0
M  V30 6355 C 617.298 1.53242 -1.76179 0
M  V30 6356 C 618.279 1.58717 -0.611801 0
M  V30 6357 O 619.464 1.74364 -0.855033 0
M  V30 6358 C 616.594 2.91278 -1.89141 0
M  V30 6359 C 615.548 3.00663 -3.04608 0
M  V30 6360 C 614.874 4.40728 -3.02759 0
M  V30 6361 C 616.174 2.74281 -4.44485 0
M  V30 6362 H 617.868 1.32886 -2.68294 0
M  V30 6363 H 615.414 0.637841 -1.29103 0
M  V30 6364 H 617.367 3.68203 -2.04951 0
M  V30 6365 H 616.091 3.12877 -0.936785 0
M  V30 6366 H 614.75 2.26179 -2.88511 0
M  V30 6367 H 614.398 4.59301 -2.05065 0
M  V30 6368 H 614.098 4.47936 -3.80299 0
M  V30 6369 H 615.622 5.19619 -3.20669 0
M  V30 6370 H 617.036 3.40936 -4.60907 0
M  V30 6371 H 615.433 2.92893 -5.23769 0
M  V30 6372 H 616.503 1.69856 -4.54177 0
M  V30 6373 N 617.846 1.41785 0.688094 0
M  V30 6374 C 619.262 1.24419 0.999608 0
M  V30 6375 C 619.462 0.138868 2.01021 0
M  V30 6376 O 618.518 -0.494283 2.47615 0
M  V30 6377 C 619.831 2.59625 1.51709 0
M  V30 6378 C 621.379 2.66869 1.63554 0
M  V30 6379 C 621.854 4.0241 2.18702 0
M  V30 6380 N 623.345 4.04295 2.26053 0
M  V30 6381 C 624.08 5.05977 2.69768 0
M  V30 6382 N 623.576 6.18047 3.13033 0
M  V30 6383 N 625.369 4.93336 2.69398 0
M  V30 6384 H 617.52 2.12392 0.0187427 0
M  V30 6385 H 619.783 0.945347 0.0708673 0
M  V30 6386 H 619.489 3.41297 0.849059 0
M  V30 6387 H 619.363 2.82628 2.49803 0
M  V30 6388 H 621.75 1.8555 2.29467 0
M  V30 6389 H 621.831 2.47668 0.639857 0
M  V30 6390 H 621.475 4.8418 1.53402 0
M  V30 6391 H 621.405 4.18955 3.19037 0
M  V30 6392 H 623.896 3.23383 1.9553 0
M  V30 6393 H 624.209 6.91498 3.45038 0
M  V30 6394 H 622.554 6.21572 3.10923 0
M  V30 6395 H 625.745 4.04865 2.34952 0
M  V30 6396 H 625.918 5.72717 3.03148 0
M  V30 6397 N 619.324 -0.923095 1.27737 0
M  V30 6398 C 620.274 -2.01061 1.0751 0
M  V30 6399 C 621.258 -1.609 0.00165451 0
M  V30 6400 O 622.45 -1.75618 0.220724 0
M  V30 6401 C 619.579 -3.35467 0.729162 0
M  V30 6402 C 618.665 -3.82059 1.84098 0
M  V30 6403 N 619.056 -4.01115 3.08124 0
M  V30 6404 C 617.354 -4.11135 1.7287 0
M  V30 6405 C 618.055 -4.39989 3.80506 0
M  V30 6406 N 617.031 -4.47721 3.08297 0
M  V30 6407 H 620.833 -2.13832 2.01626 0
M  V30 6408 H 618.347 -1.11027 1.18519 0
M  V30 6409 H 620.344 -4.13049 0.565355 0
M  V30 6410 H 619.004 -3.24056 -0.204334 0
M  V30 6411 H 620.015 -3.87294 3.43836 0
M  V30 6412 H 616.692 -4.08412 0.866352 0
M  V30 6413 H 618.082 -4.62773 4.87125 0
M  V30 6414 N 620.802 -1.09834 -1.13024 0
M  V30 6415 C 622.079 -0.749225 -1.80682 0
M  V30 6416 C 622.459 0.765171 -1.96744 0
M  V30 6417 O 621.807 1.68912 -1.53886 0
M  V30 6418 C 622.017 -1.49311 -3.15448 0
M  V30 6419 C 623.365 -1.66162 -3.90737 0
M  V30 6420 O 624.389 -1.45597 -3.25085 0
M  V30 6421 O 623.248 -2.00211 -5.08505 0
M  V30 6422 H 620.342 -0.269614 -0.781817 0
M  V30 6423 H 622.888 -1.20078 -1.19914 0
M  V30 6424 H 621.66 -2.52407 -2.99009 0
M  V30 6425 H 621.283 -1.034 -3.8392 0
M  V30 6426 N 622.28 1.30327 -0.886154 0
M  V30 6427 C 623.526 1.96388 -0.505941 0
M  V30 6428 C 623.859 1.69784 0.942712 0
M  V30 6429 O 623.134 1.00322 1.6663 0
M  V30 6430 C 623.417 3.51488 -0.782826 0
M  V30 6431 C 623.27 3.87603 -2.28219 0
M  V30 6432 C 624.589 4.39331 -0.260128 0
M  V30 6433 H 621.708 0.713327 -0.185292 0
M  V30 6434 H 624.35 1.54178 -1.11036 0
M  V30 6435 H 622.5 3.87572 -0.268399 0
M  V30 6436 H 624.172 3.61537 -2.86512 0
M  V30 6437 H 622.415 3.3563 -2.74837 0
M  V30 6438 H 623.086 4.95806 -2.42653 0
M  V30 6439 H 625.562 4.10162 -0.700444 0
M  V30 6440 H 624.438 5.46769 -0.483179 0
M  V30 6441 H 624.699 4.34072 0.838674 0
M  V30 6442 N 623.758 0.647228 1.43697 0
M  V30 6443 C 624.706 -0.0600105 2.32523 0
M  V30 6444 C 625.7 -0.819277 1.48271 0
M  V30 6445 O 626.906 -0.730356 1.64517 0
M  V30 6446 H 623.281 -0.0381872 0.75103 0
M  V30 6447 H 625.252 0.706978 2.89904 0
M  V30 6448 C 624.001 -1.0169 3.32497 0
M  V30 6449 H 623.324 -0.442083 3.97348 0
M  V30 6450 H 624.764 -1.48095 3.97296 0
M  V30 6451 C 623.223 -2.11002 2.6264 0
M  V30 6452 O 623.753 -3.19302 2.4374 0
M  V30 6453 N 621.959 -1.87388 2.22113 0
M  V30 6454 H 621.506 -0.993174 2.37684 0
M  V30 6455 H 621.464 -2.60723 1.75701 0
M  V30 6456 N 625.236 -1.5273 0.388769 0
M  V30 6457 C 626.466 -2.05693 -0.193397 0
M  V30 6458 C 626.874 -1.26038 -1.41107 0
M  V30 6459 O 626.217 -0.30001 -1.81234 0
M  V30 6460 C 626.279 -3.53962 -0.628561 0
M  V30 6461 C 625.943 -4.54519 0.475576 0
M  V30 6462 C 626.94 -5.02526 1.33281 0
M  V30 6463 C 624.625 -4.98174 0.642453 0
M  V30 6464 C 626.619 -5.92812 2.34205 0
M  V30 6465 C 624.306 -5.88262 1.65503 0
M  V30 6466 C 625.304 -6.35473 2.50325 0
M  V30 6467 O 624.992 -7.23781 3.49852 0
M  V30 6468 H 624.724 -0.675197 -0.0329395 0
M  V30 6469 H 627.278 -1.97835 0.552326 0
M  V30 6470 H 625.508 -3.59437 -1.42625 0
M  V30 6471 H 627.197 -3.89669 -1.13633 0
M  V30 6472 H 627.963 -4.6953 1.21519 0
M  V30 6473 H 623.842 -4.60999 -0.00805093 0
M  V30 6474 H 627.386 -6.29585 3.00447 0
M  V30 6475 H 623.283 -6.20672 1.77304 0
M  V30 6476 H 624.051 -7.4184 3.45855 0
M  V30 6477 N 626.714 -0.118576 -1.57153 0
M  V30 6478 C 627.96 0.540326 -1.95469 0
M  V30 6479 C 628.293 1.66356 -1.00196 0
M  V30 6480 O 627.568 1.94461 -0.039104 0
M  V30 6481 C 627.851 1.07342 -3.43729 0
M  V30 6482 C 627.704 -0.0463732 -4.49776 0
M  V30 6483 C 629.023 1.96442 -3.93826 0
M  V30 6484 H 626.142 0.19494 -0.710751 0
M  V30 6485 H 628.784 -0.19405 -1.89006 0
M  V30 6486 H 626.934 1.69925 -3.49368 0
M  V30 6487 H 628.606 -0.681648 -4.56236 0
M  V30 6488 H 626.849 -0.709574 -4.27957 0
M  V30 6489 H 627.52 0.367856 -5.50773 0
M  V30 6490 H 629.996 1.43731 -3.90488 0
M  V30 6491 H 628.872 2.3066 -4.98084 0
M  V30 6492 H 629.133 2.89077 -3.34495 0
M  V30 6493 N 628.193 1.56834 0.155195 0
M  V30 6494 C 629.44 1.82898 0.869179 0
M  V30 6495 C 629.768 0.698194 1.81537 0
M  V30 6496 O 629.023 -0.313404 1.93174 0
M  V30 6497 C 629.322 3.15239 1.68402 0
M  V30 6498 C 628.988 4.42123 0.885341 0
M  V30 6499 C 627.65 4.76583 0.664971 0
M  V30 6500 C 630.002 5.20178 0.326234 0
M  V30 6501 C 627.33 5.86566 -0.125346 0
M  V30 6502 C 629.682 6.3099 -0.45108 0
M  V30 6503 C 628.346 6.64006 -0.682102 0
M  V30 6504 H 627.616 0.66927 0.318055 0
M  V30 6505 H 630.263 1.91036 0.133241 0
M  V30 6506 H 628.568 3.02515 2.48982 0
M  V30 6507 H 630.265 3.32618 2.23978 0
M  V30 6508 H 626.855 4.15102 1.06716 0
M  V30 6509 H 631.039 4.93936 0.483787 0
M  V30 6510 H 626.295 6.10594 -0.313915 0
M  V30 6511 H 630.469 6.9067 -0.89149 0
M  V30 6512 H 628.096 7.49065 -1.29636 0
M  V30 6513 N 629.671 -0.424282 1.51781 0
M  V30 6514 C 630.619 -1.53649 1.74628 0
M  V30 6515 C 631.613 -1.57923 0.612922 0
M  V30 6516 O 632.819 -1.61511 0.794618 0
M  V30 6517 H 629.194 -0.510706 0.551981 0
M  V30 6518 H 631.165 -1.31558 2.67834 0
M  V30 6519 C 629.914 -2.91177 1.9003 0
M  V30 6520 H 629.237 -2.88625 2.76651 0
M  V30 6521 H 630.677 -3.6833 2.10021 0
M  V30 6522 C 629.136 -3.30303 0.663435 0
M  V30 6523 O 629.666 -4.01315 -0.175812 0
M  V30 6524 N 627.872 -2.86201 0.503723 0
M  V30 6525 H 627.419 -2.28583 1.18776 0
M  V30 6526 H 627.377 -3.12741 -0.322575 0
M  V30 6527 N 631.149 -1.42148 -0.680565 0
M  V30 6528 C 632.097 -1.45401 -1.81552 0
M  V30 6529 C 633.091 -0.33036 -1.66147 0
M  V30 6530 O 634.297 -0.503103 -1.72826 0
M  V30 6531 H 630.672 -0.455265 -0.59853 0
M  V30 6532 H 632.643 -2.41024 -1.75926 0
M  V30 6533 C 631.392 -1.36769 -3.19671 0
M  V30 6534 H 630.715 -2.22525 -3.32149 0
M  V30 6535 H 632.155 -1.43106 -3.9912 0
M  V30 6536 C 630.614 -0.0817752 -3.36801 0
M  V30 6537 O 631.144 0.867707 -3.92216 0
M  V30 6538 N 629.35 -0.000799811 -2.906 0
M  V30 6539 H 628.897 -0.774231 -2.4569 0
M  V30 6540 H 628.855 0.858961 -3.02439 0
M  V30 6541 N 632.627 0.916307 -1.28225 0
M  V30 6542 C 633.59 1.99996 -1.11957 0
M  V30 6543 C 634.59 1.60688 -0.0600152 0
M  V30 6544 O 635.78 1.71499 -0.30558 0
M  V30 6545 C 632.912 3.33458 -0.708411 0
M  V30 6546 H 634.105 2.15858 -2.08196 0
M  V30 6547 H 631.658 1.09863 -1.11175 0
M  V30 6548 H 632.393 3.23297 0.254859 0
M  V30 6549 H 632.178 3.63349 -1.47377 0
M  V30 6550 H 633.668 4.13014 -0.617164 0
M  V30 6551 N 634.105 1.10431 1.1244 0
M  V30 6552 C 635.521 0.836096 1.35947 0
M  V30 6553 C 635.721 -0.544475 1.94004 0
M  V30 6554 O 634.777 -1.29735 2.16622 0
M  V30 6555 C 636.09 1.93575 2.30107 0
M  V30 6556 C 637.638 1.9642 2.43697 0
M  V30 6557 C 638.113 3.05559 3.41171 0
M  V30 6558 N 639.604 3.04865 3.48728 0
M  V30 6559 C 640.339 3.85954 4.24061 0
M  V30 6560 N 639.835 4.76977 5.02458 0
M  V30 6561 N 641.628 3.74172 4.19466 0
M  V30 6562 H 633.779 1.9942 0.731124 0
M  V30 6563 H 636.042 0.866607 0.384312 0
M  V30 6564 H 635.748 2.92943 1.94621 0
M  V30 6565 H 635.622 1.8229 3.30227 0
M  V30 6566 H 638.009 0.97685 2.78463 0
M  V30 6567 H 638.09 2.11782 1.43465 0
M  V30 6568 H 637.734 4.04513 3.07135 0
M  V30 6569 H 637.664 2.87438 4.41234 0
M  V30 6570 H 640.155 2.38908 2.92799 0
M  V30 6571 H 640.468 5.35409 5.57277 0
M  V30 6572 H 638.813 4.81006 5.01655 0
M  V30 6573 H 642.004 3.02412 3.57302 0
M  V30 6574 H 642.177 4.37602 4.77921 0
M  V30 6575 N 635.583 -1.29855 0.893053 0
M  V30 6576 C 636.813 -1.99686 0.530019 0
M  V30 6577 C 637.221 -1.67066 -0.888012 0
M  V30 6578 O 636.564 -0.908366 -1.5967 0
M  V30 6579 C 636.626 -3.53855 0.63457 0
M  V30 6580 C 636.29 -4.10013 2.01837 0
M  V30 6581 C 637.287 -4.25406 2.98874 0
M  V30 6582 C 634.972 -4.45202 2.32595 0
M  V30 6583 C 636.966 -4.7521 4.24799 0
M  V30 6584 C 634.653 -4.94704 3.58763 0
M  V30 6585 C 635.651 -5.09662 4.5468 0
M  V30 6586 O 635.339 -5.58093 5.78608 0
M  V30 6587 H 635.071 -0.644913 0.20264 0
M  V30 6588 H 637.625 -1.66518 1.20253 0
M  V30 6589 H 635.855 -3.86583 -0.0949477 0
M  V30 6590 H 637.544 -4.04922 0.281648 0
M  V30 6591 H 638.31 -3.98515 2.76425 0
M  V30 6592 H 634.189 -4.32822 1.58701 0
M  V30 6593 H 637.733 -4.86801 4.99671 0
M  V30 6594 H 633.63 -5.21032 3.81046 0
M  V30 6595 H 634.398 -5.7642 5.81104 0
M  V30 6596 N 637.061 -0.65484 -1.43351 0
M  V30 6597 C 637.994 0.0855537 -2.2804 0
M  V30 6598 C 638.972 0.828301 -1.39921 0
M  V30 6599 O 640.156 0.827539 -1.69364 0
M  V30 6600 C 637.283 1.12792 -3.19368 0
M  V30 6601 C 636.329 0.483037 -4.23756 0
M  V30 6602 S 637.162 -0.744605 -5.30298 0
M  V30 6603 C 638.318 0.297187 -6.25194 0
M  V30 6604 H 638.551 -0.632831 -2.90487 0
M  V30 6605 H 636.084 -0.44373 -1.47886 0
M  V30 6606 H 638.042 1.7243 -3.72529 0
M  V30 6607 H 636.703 1.81863 -2.56095 0
M  V30 6608 H 635.896 1.26888 -4.87766 0
M  V30 6609 H 635.498 -0.0392713 -3.73979 0
M  V30 6610 H 637.79 1.1629 -6.67445 0
M  V30 6611 H 638.733 -0.30793 -7.0743 0
M  V30 6612 H 639.141 0.633721 -5.60932 0
M  V30 6613 N 638.539 1.52521 -0.396863 0
M  V30 6614 C 639.502 2.2527 0.422604 0
M  V30 6615 C 640.502 1.27184 0.983913 0
M  V30 6616 O 641.692 1.51222 0.864723 0
M  V30 6617 C 638.824 3.01356 1.59365 0
M  V30 6618 H 640.017 2.99133 -0.214416 0
M  V30 6619 H 637.57 1.55587 -0.149128 0
M  V30 6620 H 638.305 2.31813 2.26789 0
M  V30 6621 H 638.09 3.73357 1.19779 0
M  V30 6622 H 639.58 3.56571 2.17363 0
M  V30 6623 N 640.017 0.126909 1.57088 0
M  V30 6624 C 641.242 -0.53997 2.00248 0
M  V30 6625 C 641.667 -1.58927 1.00618 0
M  V30 6626 O 641.025 -1.81288 -0.0210131 0
M  V30 6627 C 641.073 -1.13565 3.4225 0
M  V30 6628 O 640.177 -2.25103 3.45547 0
M  V30 6629 H 639.518 -0.13412 0.650314 0
M  V30 6630 H 642.048 0.217718 2.03438 0
M  V30 6631 H 642.058 -1.46925 3.80627 0
M  V30 6632 H 640.733 -0.367122 4.14277 0
M  V30 6633 H 639.31 -1.93123 3.18995 0
M  V30 6634 N 641.495 -1.56914 -0.146875 0
M  V30 6635 C 642.442 -1.98275 -1.18134 0
M  V30 6636 C 643.412 -0.850367 -1.42681 0
M  V30 6637 O 644.597 -1.11244 -1.55014 0
M  V30 6638 C 641.737 -2.36861 -2.5098 0
M  V30 6639 C 640.85 -3.63391 -2.33605 0
M  V30 6640 C 639.985 -3.91079 -3.59486 0
M  V30 6641 C 639.024 -5.10879 -3.37149 0
M  V30 6642 N 638.161 -5.34577 -4.55161 0
M  V30 6643 H 643.001 -2.8645 -0.821622 0
M  V30 6644 H 640.538 -1.41718 -0.394248 0
M  V30 6645 H 642.496 -2.57262 -3.28439 0
M  V30 6646 H 641.126 -1.51766 -2.84898 0
M  V30 6647 H 640.178 -3.50766 -1.47199 0
M  V30 6648 H 641.49 -4.51007 -2.13059 0
M  V30 6649 H 640.644 -4.11979 -4.45374 0
M  V30 6650 H 639.383 -3.01885 -3.83036 0
M  V30 6651 H 638.388 -4.89853 -2.49649 0
M  V30 6652 H 639.613 -6.01626 -3.14997 0
M  V30 6653 H 637.559 -4.48337 -4.78884 0
M  V30 6654 H 637.476 -6.16463 -4.37618 0
M  V30 6655 H 638.744 -5.59975 -5.42263 0
M  V30 6656 N 642.974 0.416227 -1.52004 0
M  V30 6657 C 644.251 1.17637 -1.56272 0
M  V30 6658 C 644.631 2.08352 -0.339493 0
M  V30 6659 O 643.979 2.1833 0.674124 0
M  V30 6660 C 644.189 1.95986 -2.88774 0
M  V30 6661 C 645.537 2.52299 -3.41512 0
M  V30 6662 O 646.561 2.06174 -2.90467 0
M  V30 6663 O 645.42 3.3648 -4.30631 0
M  V30 6664 H 642.514 0.536726 -0.629169 0
M  V30 6665 H 645.06 0.423583 -1.64329 0
M  V30 6666 H 643.832 1.29487 -3.69254 0
M  V30 6667 H 643.455 2.78285 -2.83978 0
M  V30 6668 N 644.452 1.42507 0.673017 0
M  V30 6669 C 645.863 1.38347 1.25367 0
M  V30 6670 C 646.214 0.0776327 1.96046 0
M  V30 6671 O 645.339 -0.823571 2.00116 0
M  V30 6672 C 645.934 2.506 2.28002 0
M  V30 6673 C 644.493 2.49767 2.81591 0
M  V30 6674 C 643.64 2.293 1.55938 0
M  V30 6675 H 646.591 1.51695 0.466288 0
M  V30 6676 H 646.612 2.20953 3.09774 0
M  V30 6677 H 646.124 3.45627 1.76532 0
M  V30 6678 H 644.225 1.58563 3.37177 0
M  V30 6679 H 644.338 3.46867 3.30485 0
M  V30 6680 H 642.702 1.77594 1.82572 0
M  V30 6681 H 643.485 3.26385 1.06431 0
M  V30 6682 N 645.93 -0.909495 1.28709 0
M  V30 6683 C 647.346 -1.18862 1.06508 0
M  V30 6684 C 647.546 -2.00604 -0.189864 0
M  V30 6685 O 646.602 -2.36281 -0.890355 0
M  V30 6686 C 647.915 -1.91908 2.31499 0
M  V30 6687 C 649.463 -2.04773 2.36721 0
M  V30 6688 C 649.938 -2.81228 3.6149 0
M  V30 6689 N 651.429 -2.88787 3.62155 0
M  V30 6690 C 652.164 -3.48455 4.55375 0
M  V30 6691 N 651.66 -4.09369 5.58918 0
M  V30 6692 N 653.453 -3.46035 4.42963 0
M  V30 6693 H 645.604 -0.363867 2.0926 0
M  V30 6694 H 647.867 -0.223649 0.921241 0
M  V30 6695 H 647.573 -1.39275 3.22948 0
M  V30 6696 H 647.447 -2.92436 2.38245 0
M  V30 6697 H 649.834 -2.56585 1.45767 0
M  V30 6698 H 649.915 -1.03408 2.33967 0
M  V30 6699 H 649.559 -2.30094 4.5279 0
M  V30 6700 H 649.489 -3.82917 3.61499 0
M  V30 6701 H 651.98 -2.45514 2.87283 0
M  V30 6702 H 652.293 -4.52891 6.26187 0
M  V30 6703 H 650.638 -4.0786 5.62739 0
M  V30 6704 H 653.829 -2.9766 3.6127 0
M  V30 6705 H 654.002 -3.92244 5.15799 0
M  V30 6706 N 647.408 -1.11026 -1.11852 0
M  V30 6707 C 648.654 -0.867633 -1.83967 0
M  V30 6708 C 649.009 0.600309 -1.82795 0
M  V30 6709 O 648.302 1.43731 -1.26696 0
M  V30 6710 C 648.496 -1.35777 -3.30604 0
M  V30 6711 C 648.325 -2.87183 -3.46058 0
M  V30 6712 C 647.095 -3.55256 -3.59334 0
M  V30 6713 C 649.293 -3.85258 -3.40706 0
M  V30 6714 N 647.275 -4.94923 -3.63215 0
M  V30 6715 C 648.646 -5.1097 -3.51155 0
M  V30 6716 C 650.701 -3.77879 -3.2421 0
M  V30 6717 C 649.404 -6.30171 -3.46809 0
M  V30 6718 C 651.43 -4.96586 -3.2118 0
M  V30 6719 C 650.792 -6.21149 -3.32196 0
M  V30 6720 H 646.891 -0.370574 -0.688621 0
M  V30 6721 H 649.475 -1.41379 -1.33865 0
M  V30 6722 H 647.646 -0.83885 -3.79233 0
M  V30 6723 H 649.378 -1.05874 -3.90606 0
M  V30 6724 H 646.133 -3.05714 -3.61713 0
M  V30 6725 H 646.557 -5.67726 -3.68804 0
M  V30 6726 H 651.199 -2.82485 -3.14582 0
M  V30 6727 H 648.917 -7.25847 -3.55206 0
M  V30 6728 H 652.503 -4.92591 -3.09589 0
M  V30 6729 H 651.383 -7.11463 -3.29834 0
M  V30 6730 N 648.886 1.2938 -0.899927 0
M  V30 6731 C 650.114 1.99691 -0.541386 0
M  V30 6732 C 650.529 1.67355 0.873936 0
M  V30 6733 O 649.886 0.918728 1.57688 0
M  V30 6734 C 649.937 3.54168 -0.72438 0
M  V30 6735 O 649.658 3.85359 -2.08399 0
M  V30 6736 C 651.159 4.41746 -0.370819 0
M  V30 6737 H 648.379 0.638037 -0.207726 0
M  V30 6738 H 650.923 1.6491 -1.20934 0
M  V30 6739 H 649.078 3.87261 -0.103607 0
M  V30 6740 H 649.492 4.80032 -2.11352 0
M  V30 6741 H 650.966 5.49256 -0.549693 0
M  V30 6742 H 651.443 4.33712 0.692148 0
M  V30 6743 H 652.049 4.14125 -0.968543 0
M  V30 6744 N 650.364 0.662433 1.43002 0
M  V30 6745 C 651.775 0.258315 1.84904 0
M  V30 6746 C 652.126 -1.19703 1.55453 0
M  V30 6747 O 651.251 -1.91484 1.00811 0
M  V30 6748 C 651.846 0.462047 3.35635 0
M  V30 6749 C 650.405 0.112165 3.76233 0
M  V30 6750 C 649.552 0.760479 2.66668 0
M  V30 6751 H 652.503 0.865467 1.33024 0
M  V30 6752 H 652.524 -0.289646 3.79396 0
M  V30 6753 H 652.036 1.52135 3.57039 0
M  V30 6754 H 650.137 -0.944179 3.60439 0
M  V30 6755 H 650.25 0.544058 4.76001 0
M  V30 6756 H 648.614 0.192887 2.53969 0
M  V30 6757 H 649.397 1.82299 2.90898 0
M  V30 6758 N 651.842 -1.52309 0.404946 0
M  V30 6759 C 653.258 -1.59503 0.0556255 0
M  V30 6760 C 653.458 -1.41805 -1.43156 0
M  V30 6761 O 652.514 -1.2429 -2.19792 0
M  V30 6762 C 653.827 -2.95687 0.546801 0
M  V30 6763 C 655.375 -3.08909 0.504413 0
M  V30 6764 C 655.85 -4.47566 0.97203 0
M  V30 6765 N 657.341 -4.53795 0.928679 0
M  V30 6766 C 658.076 -5.59346 1.26174 0
M  V30 6767 N 657.572 -6.72469 1.66604 0
M  V30 6768 N 659.365 -5.49532 1.18198 0
M  V30 6769 H 651.516 -1.6206 1.37296 0
M  V30 6770 H 653.779 -0.762161 0.563751 0
M  V30 6771 H 653.485 -3.13905 1.58609 0
M  V30 6772 H 653.359 -3.77172 -0.0457905 0
M  V30 6773 H 655.746 -2.90378 -0.525819 0
M  V30 6774 H 655.827 -2.2934 1.13301 0
M  V30 6775 H 655.471 -4.6684 2.00057 0
M  V30 6776 H 655.401 -5.25625 0.320292 0
M  V30 6777 H 657.892 -3.72588 0.631369 0
M  V30 6778 H 658.205 -7.48993 1.9034 0
M  V30 6779 H 656.55 -6.73761 1.70504 0
M  V30 6780 H 659.741 -4.60038 0.865011 0
M  V30 6781 H 659.914 -6.31687 1.44485 0
M  V30 6782 N 653.32 -0.135238 -1.57019 0
M  V30 6783 C 654.568 0.51777 -1.95355 0
M  V30 6784 C 654.889 1.6617 -1.02042 0
M  V30 6785 O 654.159 1.95738 -0.0797343 0
M  V30 6786 H 652.739 0.194264 -0.721298 0
M  V30 6787 H 655.401 -0.207983 -1.93787 0
M  V30 6788 H 654.497 0.901675 -2.98791 0
M  V30 6789 N 654.798 1.5699 0.138552 0
M  V30 6790 C 656.047 1.82998 0.848205 0
M  V30 6791 C 656.36 0.717829 1.81952 0
M  V30 6792 O 657.566 0.863756 2.57394 0
M  V30 6793 C 656.022 3.24379 1.55904 0
M  V30 6794 C 655.63 4.43552 0.62971 0
M  V30 6795 C 657.374 3.59654 2.25498 0
M  V30 6796 C 655.281 5.75957 1.34266 0
M  V30 6797 H 654.211 0.682495 0.320495 0
M  V30 6798 H 656.862 1.83222 0.100924 0
M  V30 6799 H 655.244 3.18567 2.35226 0
M  V30 6800 H 656.418 4.6062 -0.128882 0
M  V30 6801 H 654.733 4.16379 0.0417526 0
M  V30 6802 H 657.33 4.55837 2.79493 0
M  V30 6803 H 657.673 2.86124 3.02388 0
M  V30 6804 H 658.206 3.67164 1.53087 0
M  V30 6805 H 654.945 6.52604 0.615441 0
M  V30 6806 H 654.465 5.62811 2.07375 0
M  V30 6807 H 656.144 6.19046 1.88126 0
M  V30 6808 N 656.276 -0.40816 1.52223 0
M  V30 6809 C 657.223 -1.49737 1.75635 0
M  V30 6810 C 658.193 -1.5493 0.598824 0
M  V30 6811 O 659.378 -1.71487 0.83648 0
M  V30 6812 C 656.518 -2.87174 1.91376 0
M  V30 6813 C 655.631 -2.91283 3.19027 0
M  V30 6814 C 654.766 -4.20026 3.25195 0
M  V30 6815 C 653.805 -4.18113 4.47044 0
M  V30 6816 N 652.942 -5.38429 4.50598 0
M  V30 6817 H 657.782 -1.29075 2.68596 0
M  V30 6818 H 655.319 -0.626518 1.33091 0
M  V30 6819 H 657.277 -3.66959 1.98486 0
M  V30 6820 H 655.907 -3.06329 1.01795 0
M  V30 6821 H 654.959 -2.03984 3.21084 0
M  V30 6822 H 656.271 -2.85734 4.08849 0
M  V30 6823 H 655.425 -5.08204 3.31382 0
M  V30 6824 H 654.164 -4.28271 2.33313 0
M  V30 6825 H 653.169 -3.28325 4.41002 0
M  V30 6826 H 654.394 -4.11507 5.40221 0
M  V30 6827 H 652.34 -5.4734 3.616 0
M  V30 6828 H 652.257 -5.34879 5.34266 0
M  V30 6829 H 653.525 -6.28557 4.61016 0
M  V30 6830 N 657.755 -1.42862 -0.66545 0
M  V30 6831 C 659.003 -1.43546 -1.42264 0
M  V30 6832 C 659.324 -0.0563116 -1.94919 0
M  V30 6833 O 658.594 0.906568 -1.73661 0
M  V30 6834 H 657.174 -0.528464 -0.527953 0
M  V30 6835 H 659.836 -1.78363 -0.785665 0
M  V30 6836 H 658.932 -2.14079 -2.27105 0
M  V30 6837 N 659.233 0.902656 -1.29189 0
M  V30 6838 C 660.481 1.6496 -1.16758 0
M  V30 6839 C 660.802 1.92952 0.28188 0
M  V30 6840 O 660.072 1.55351 1.19344 0
M  V30 6841 H 658.652 0.611447 -0.429118 0
M  V30 6842 H 661.314 1.0825 -1.62074 0
M  V30 6843 H 660.41 2.60728 -1.71544 0
M  V30 6844 N 660.711 1.11618 1.11262 0
M  V30 6845 C 661.674 0.779447 2.15539 0
M  V30 6846 C 662.674 -0.202081 1.59525 0
M  V30 6847 O 663.864 0.0226356 1.74185 0
M  V30 6848 C 660.996 0.15674 3.40539 0
M  V30 6849 H 662.189 1.70324 2.4684 0
M  V30 6850 H 659.742 0.918298 1.26479 0
M  V30 6851 H 660.477 -0.777186 3.1485 0
M  V30 6852 H 660.262 0.863308 3.82478 0
M  V30 6853 H 661.752 -0.062661 4.17553 0
M  V30 6854 N 662.189 -1.289 0.906776 0
M  V30 6855 C 663.119 -2.29932 0.406659 0
M  V30 6856 C 664.1 -1.6189 -0.522061 0
M  V30 6857 O 665.285 -1.8935 -0.431283 0
M  V30 6858 C 662.415 -3.45425 -0.360366 0
M  V30 6859 C 661.369 -4.25316 0.478574 0
M  V30 6860 C 660.695 -5.33076 -0.416373 0
M  V30 6861 C 661.995 -4.92739 1.7322 0
M  V30 6862 H 663.689 -2.72013 1.25097 0
M  V30 6863 H 661.235 -1.30768 0.602977 0
M  V30 6864 H 663.188 -4.15186 -0.721029 0
M  V30 6865 H 661.912 -3.02206 -1.23852 0
M  V30 6866 H 660.571 -3.57273 0.821662 0
M  V30 6867 H 660.219 -4.86101 -1.29287 0
M  V30 6868 H 659.919 -5.8743 0.141309 0
M  V30 6869 H 661.443 -6.05686 -0.773072 0
M  V30 6870 H 662.857 -5.54898 1.44086 0
M  V30 6871 H 661.254 -5.57057 2.23175 0
M  V30 6872 H 662.324 -4.17625 2.46408 0
M  V30 6873 N 663.667 -0.670007 -1.42649 0
M  V30 6874 C 664.597 -0.00258501 -2.335 0
M  V30 6875 C 665.578 0.794364 -1.50412 0
M  V30 6876 O 666.763 0.75248 -1.79029 0
M  V30 6877 C 663.893 0.952748 -3.33976 0
M  V30 6878 C 662.847 0.264733 -4.2718 0
M  V30 6879 C 662.173 1.33267 -5.17826 0
M  V30 6880 C 663.473 -0.853289 -5.15283 0
M  V30 6881 H 665.167 -0.761326 -2.89559 0
M  V30 6882 H 662.713 -0.367561 -1.3923 0
M  V30 6883 H 664.666 1.4287 -3.96442 0
M  V30 6884 H 663.39 1.74285 -2.7621 0
M  V30 6885 H 662.049 -0.190938 -3.66102 0
M  V30 6886 H 661.697 2.11464 -4.5639 0
M  V30 6887 H 661.397 0.877476 -5.81011 0
M  V30 6888 H 662.921 1.80965 -5.83167 0
M  V30 6889 H 664.335 -0.458763 -5.71462 0
M  V30 6890 H 662.732 -1.23398 -5.87276 0
M  V30 6891 H 663.802 -1.70412 -4.53969 0
M  V30 6892 N 665.145 1.52092 -0.413018 0
M  V30 6893 C 666.392 2.01855 0.161497 0
M  V30 6894 C 666.72 1.29845 1.44812 0
M  V30 6895 O 665.975 0.394471 1.91683 0
M  V30 6896 C 666.274 3.54529 0.4521 0
M  V30 6897 C 665.94 4.4469 -0.745788 0
M  V30 6898 C 664.602 4.69053 -1.07435 0
M  V30 6899 C 666.954 4.97742 -1.54604 0
M  V30 6900 C 664.282 5.43717 -2.20429 0
M  V30 6901 C 666.634 5.73642 -2.66678 0
M  V30 6902 C 665.298 5.96277 -3.00016 0
M  V30 6903 H 664.568 0.73864 0.0590961 0
M  V30 6904 H 667.215 1.83274 -0.555234 0
M  V30 6905 H 665.52 3.7131 1.25045 0
M  V30 6906 H 667.217 3.90546 0.909647 0
M  V30 6907 H 663.807 4.25907 -0.479725 0
M  V30 6908 H 667.991 4.78824 -1.30543 0
M  V30 6909 H 663.247 5.59462 -2.46602 0
M  V30 6910 H 667.421 6.13746 -3.29072 0
M  V30 6911 H 665.048 6.53913 -3.87688 0
M  V30 6912 N 666.623 0.143563 1.56945 0
M  V30 6913 C 667.9 -0.553285 1.87612 0
M  V30 6914 C 668.28 -1.83195 1.04894 0
M  V30 6915 O 667.628 -2.28102 0.134773 0
M  V30 6916 C 667.838 -0.822055 3.3918 0
M  V30 6917 C 669.186 -1.16435 4.08324 0
M  V30 6918 O 670.21 -0.911522 3.4434 0
M  V30 6919 O 669.069 -1.63996 5.21313 0
M  V30 6920 H 666.163 -0.281851 0.777489 0
M  V30 6921 H 668.709 0.179916 1.68744 0
M  V30 6922 H 667.481 0.0830265 3.91212 0
M  V30 6923 H 667.104 -1.60956 3.63564 0
M  V30 6924 N 668.101 -1.57061 -0.130224 0
M  V30 6925 C 669.349 -1.83893 -0.838313 0
M  V30 6926 C 669.67 -0.727046 -1.80939 0
M  V30 6927 O 668.94 0.249927 -1.94299 0
M  V30 6928 H 667.52 -0.67846 -0.312573 0
M  V30 6929 H 670.182 -1.94529 -0.120224 0
M  V30 6930 H 669.278 -2.79419 -1.39038 0
M  V30 6931 N 669.579 0.400081 -1.52437 0
M  V30 6932 C 670.804 1.17221 -1.71096 0
M  V30 6933 C 671.229 1.83269 -0.423565 0
M  V30 6934 O 670.587 1.70378 0.619751 0
M  V30 6935 C 670.635 2.20425 -2.85386 0
M  V30 6936 O 669.739 3.26769 -2.51586 0
M  V30 6937 H 669.08 0.341766 -0.569291 0
M  V30 6938 H 671.61 0.467772 -1.99181 0
M  V30 6939 H 671.62 2.64605 -3.10561 0
M  V30 6940 H 670.295 1.71737 -3.78786 0
M  V30 6941 H 668.872 2.87804 -2.37114 0
M  V30 6942 N 671.057 1.43213 0.657864 0
M  V30 6943 C 672.282 1.48227 1.45064 0
M  V30 6944 C 672.707 0.0999939 1.87834 0
M  V30 6945 O 672.065 -0.905269 1.57081 0
M  V30 6946 C 672.113 2.42931 2.6649 0
M  V30 6947 O 671.217 1.91237 3.6538 0
M  V30 6948 H 670.558 0.501551 0.435135 0
M  V30 6949 H 673.088 1.8808 0.805431 0
M  V30 6950 H 673.098 2.6008 3.1436 0
M  V30 6951 H 671.773 3.43348 2.34701 0
M  V30 6952 H 670.35 1.83726 3.24498 0
M  V30 6953 N 672.536 -0.895792 1.29666 0
M  V30 6954 C 673.484 -2.02173 1.15017 0
M  V30 6955 C 674.478 -1.69276 0.0647651 0
M  V30 6956 O 675.684 -1.7859 0.224846 0
M  V30 6957 H 672.059 -0.662719 0.355397 0
M  V30 6958 H 674.03 -2.11666 2.10334 0
M  V30 6959 C 672.779 -3.37212 0.847555 0
M  V30 6960 H 672.102 -3.6303 1.67479 0
M  V30 6961 H 673.542 -4.16668 0.785106 0
M  V30 6962 C 672.001 -3.33891 -0.44929 0
M  V30 6963 O 672.531 -3.73673 -1.47415 0
M  V30 6964 N 670.737 -2.86991 -0.456547 0
M  V30 6965 H 670.284 -2.54813 0.377925 0
M  V30 6966 H 670.242 -2.85152 -1.32423 0
M  V30 6967 N 674.014 -1.12206 -1.10668 0
M  V30 6968 C 675.244 -0.897332 -1.86095 0
M  V30 6969 C 675.652 0.556778 -1.80822 0
M  V30 6970 O 674.995 1.39658 -1.19337 0
M  V30 6971 C 675.057 -1.29095 -3.35522 0
M  V30 6972 C 674.721 -2.75586 -3.64556 0
M  V30 6973 C 675.718 -3.73785 -3.6136 0
M  V30 6974 C 673.403 -3.12432 -3.93309 0
M  V30 6975 C 675.397 -5.06845 -3.86506 0
M  V30 6976 C 673.084 -4.45675 -4.18111 0
M  V30 6977 C 674.082 -5.42691 -4.147 0
M  V30 6978 O 673.77 -6.73532 -4.38873 0
M  V30 6979 H 673.502 -0.320704 -0.595084 0
M  V30 6980 H 676.056 -1.49517 -1.40833 0
M  V30 6981 H 674.286 -0.636299 -3.81429 0
M  V30 6982 H 675.975 -1.04073 -3.92331 0
M  V30 6983 H 676.741 -3.46664 -3.39189 0
M  V30 6984 H 672.62 -2.3753 -3.95096 0
M  V30 6985 H 676.164 -5.82559 -3.83758 0
M  V30 6986 H 672.061 -4.72526 -4.39761 0
M  V30 6987 H 672.829 -6.79442 -4.564 0
M  V30 6988 N 675.492 1.28418 -0.913599 0
M  V30 6989 C 676.741 1.94265 -0.542572 0
M  V30 6990 C 677.054 1.72709 0.918207 0
M  V30 6991 O 678.26 2.32778 1.39738 0
M  V30 6992 C 676.716 3.47956 -0.919507 0
M  V30 6993 C 676.324 3.78291 -2.4 0
M  V30 6994 C 678.068 4.19962 -0.619057 0
M  V30 6995 C 675.975 5.2529 -2.71707 0
M  V30 6996 H 674.905 0.727213 -0.199192 0
M  V30 6997 H 677.556 1.45931 -1.11249 0
M  V30 6998 H 675.938 3.9502 -0.278372 0
M  V30 6999 H 677.112 3.42035 -3.08786 0
M  V30 7000 H 675.427 3.19456 -2.67089 0
M  V30 7001 H 678.024 5.28178 -0.832623 0
M  V30 7002 H 678.367 4.13935 0.443126 0
M  V30 7003 H 678.9 3.78674 -1.21865 0
M  V30 7004 H 675.639 5.36394 -3.76778 0
M  V30 7005 H 675.159 5.62743 -2.07559 0
M  V30 7006 H 676.838 5.93027 -2.58703 0
M  V30 7007 N 676.97 0.677563 1.42291 0
M  V30 7008 C 677.88 0.000962654 2.346 0
M  V30 7009 C 678.896 -0.785833 1.55244 0
M  V30 7010 O 680.072 -0.727523 1.87801 0
M  V30 7011 C 677.137 -0.936746 3.33805 0
M  V30 7012 C 676.198 -0.144173 4.29058 0
M  V30 7013 C 675.431 -1.03722 5.23524 0
M  V30 7014 O 675.654 -2.27675 5.22992 0
M  V30 7015 O 674.588 -0.496542 5.99848 0
M  V30 7016 H 678.414 0.761397 2.94001 0
M  V30 7017 H 675.999 0.43781 1.42841 0
M  V30 7018 H 677.881 -1.47497 3.94744 0
M  V30 7019 H 676.556 -1.67698 2.76874 0
M  V30 7020 H 675.463 0.438224 3.71524 0
M  V30 7021 H 676.796 0.55701 4.89038 0
M  V30 7022 N 678.448 -1.51871 0.421078 0
M  V30 7023 C 679.694 -2.02237 -0.151014 0
M  V30 7024 C 680.027 -1.30554 -1.43768 0
M  V30 7025 O 679.302 -0.41546 -1.90011 0
M  V30 7026 C 679.585 -3.5802 -0.386482 0
M  V30 7027 C 679.438 -4.40339 0.9177 0
M  V30 7028 C 680.757 -4.24444 -1.16342 0
M  V30 7029 H 677.876 -0.735062 -0.0534102 0
M  V30 7030 H 680.518 -1.81656 0.556888 0
M  V30 7031 H 678.668 -3.75688 -0.989494 0
M  V30 7032 H 680.34 -4.34357 1.55344 0
M  V30 7033 H 678.583 -4.06073 1.526 0
M  V30 7034 H 679.254 -5.47451 0.707187 0
M  V30 7035 H 681.73 -4.10948 -0.652788 0
M  V30 7036 H 680.606 -5.33358 -1.29693 0
M  V30 7037 H 680.867 -3.84204 -2.18724 0
M  V30 7038 N 679.926 -0.151884 -1.56866 0
M  V30 7039 C 680.874 0.80299 -2.183 0
M  V30 7040 C 681.868 1.25174 -1.14139 0
M  V30 7041 O 683.074 1.21966 -1.3238 0
M  V30 7042 H 679.449 0.277169 -0.699057 0
M  V30 7043 H 681.42 0.260699 -2.97259 0
M  V30 7044 C 680.169 2.03009 -2.82281 0
M  V30 7045 H 679.492 1.69377 -3.62148 0
M  V30 7046 H 680.932 2.67753 -3.28762 0
M  V30 7047 C 679.391 2.84123 -1.81041 0
M  V30 7048 O 679.921 3.8063 -1.28388 0
M  V30 7049 N 678.127 2.48753 -1.50234 0
M  V30 7050 H 677.674 1.70337 -1.93244 0
M  V30 7051 H 677.632 3.03316 -0.827445 0
M  V30 7052 N 681.404 1.57128 0.121893 0
M  V30 7053 C 682.367 1.99197 1.13372 0
M  V30 7054 C 683.367 0.881728 1.3447 0
M  V30 7055 O 684.557 1.14783 1.31036 0
M  V30 7056 C 681.689 2.32963 2.4888 0
M  V30 7057 H 682.882 2.89788 0.772204 0
M  V30 7058 H 680.435 1.51952 0.366093 0
M  V30 7059 H 681.17 1.45243 2.89957 0
M  V30 7060 H 680.955 3.13934 2.34921 0
M  V30 7061 H 682.445 2.66261 3.21706 0
M  V30 7062 N 682.882 -0.391992 1.52647 0
M  V30 7063 C 683.83 -1.4991 1.77848 0
M  V30 7064 C 684.824 -1.56587 0.646282 0
M  V30 7065 O 686.03 -1.59789 0.828698 0
M  V30 7066 H 682.405 -0.498883 0.56269 0
M  V30 7067 H 684.376 -1.25847 2.70564 0
M  V30 7068 C 683.125 -2.87081 1.96163 0
M  V30 7069 H 682.448 -2.82692 2.82711 0
M  V30 7070 H 683.888 -3.63792 2.17787 0
M  V30 7071 C 682.347 -3.28822 0.733348 0
M  V30 7072 O 682.877 -4.01598 -0.0906481 0
M  V30 7073 N 681.083 -2.85068 0.564317 0
M  V30 7074 H 680.63 -2.26012 1.23598 0
M  V30 7075 H 680.588 -3.13355 -0.256166 0
M  V30 7076 N 684.36 -1.4356 -0.65026 0
M  V30 7077 C 685.606 -1.45549 -1.41221 0
M  V30 7078 C 685.939 -0.0805472 -1.94033 0
M  V30 7079 O 685.214 0.899043 -1.72475 0
M  V30 7080 C 685.497 -2.50028 -2.59148 0
M  V30 7081 C 685.35 -3.96808 -2.1181 0
M  V30 7082 C 686.669 -2.51212 -3.61359 0
M  V30 7083 H 683.788 -0.529967 -0.512156 0
M  V30 7084 H 686.43 -1.75127 -0.736933 0
M  V30 7085 H 684.58 -2.24937 -3.16758 0
M  V30 7086 H 686.252 -4.32966 -1.59178 0
M  V30 7087 H 684.495 -4.09498 -1.43156 0
M  V30 7088 H 685.166 -4.6553 -2.96625 0
M  V30 7089 H 687.642 -2.73583 -3.13515 0
M  V30 7090 H 686.518 -3.26252 -4.41419 0
M  V30 7091 H 686.779 -1.54701 -4.1415 0
M  V30 7092 N 685.838 0.888903 -1.30139 0
M  V30 7093 C 687.066 1.67358 -1.21651 0
M  V30 7094 C 687.481 1.87499 0.221246 0
M  V30 7095 O 686.838 1.41969 1.14677 0
M  V30 7096 C 686.889 3.05213 -1.93719 0
M  V30 7097 O 686.61 2.85984 -3.31881 0
M  V30 7098 C 688.111 3.9964 -1.9184 0
M  V30 7099 H 685.331 0.522365 -0.42116 0
M  V30 7100 H 687.875 1.11086 -1.71698 0
M  V30 7101 H 686.03 3.5823 -1.4748 0
M  V30 7102 H 686.444 3.73411 -3.68327 0
M  V30 7103 H 687.918 4.93749 -2.46811 0
M  V30 7104 H 688.395 4.29955 -0.896409 0
M  V30 7105 H 689.001 3.52558 -2.37872 0
M  V30 7106 N 687.317 1.12792 1.10072 0
M  V30 7107 C 688.563 0.886857 1.82381 0
M  V30 7108 C 688.896 -0.58576 1.85155 0
M  V30 7109 O 688.171 -1.43317 1.31493 0
M  V30 7110 C 688.454 1.46703 3.28862 0
M  V30 7111 C 688.307 3.00829 3.34398 0
M  V30 7112 C 689.626 1.12971 4.25353 0
M  V30 7113 H 686.745 0.32362 0.662148 0
M  V30 7114 H 689.387 1.39513 1.28982 0
M  V30 7115 H 687.537 1.03476 3.74466 0
M  V30 7116 H 689.209 3.52764 2.97247 0
M  V30 7117 H 687.452 3.36164 2.74183 0
M  V30 7118 H 688.123 3.36519 4.3756 0
M  V30 7119 H 690.599 1.50313 3.88001 0
M  V30 7120 H 689.475 1.56223 5.26199 0
M  V30 7121 H 689.736 0.0424452 4.4208 0
M  V30 7122 N 688.795 -1.27931 0.920396 0
M  V30 7123 C 690.206 -1.76707 0.602616 0
M  V30 7124 C 690.557 -1.75249 -0.882159 0
M  V30 7125 O 689.682 -1.35135 -1.69019 0
M  V30 7126 C 690.277 -3.20884 1.08714 0
M  V30 7127 C 688.836 -3.67356 0.820157 0
M  V30 7128 C 687.983 -2.47525 1.25006 0
M  V30 7129 H 690.934 -1.14301 1.10095 0
M  V30 7130 H 690.955 -3.78045 0.431535 0
M  V30 7131 H 690.467 -3.21913 2.1678 0
M  V30 7132 H 688.568 -3.7178 -0.247012 0
M  V30 7133 H 688.681 -4.57181 1.43257 0
M  V30 7134 H 687.045 -2.45765 0.668698 0
M  V30 7135 H 687.828 -2.51269 2.3392 0
M  V30 7136 N 690.273 -0.685099 -1.4193 0
M  V30 7137 C 691.519 -0.211971 -2.01689 0
M  V30 7138 C 691.852 1.18189 -1.54094 0
M  V30 7139 O 691.127 1.79559 -0.747572 0
M  V30 7140 C 691.41 -0.258019 -3.59174 0
M  V30 7141 C 691.263 -1.68807 -4.16922 0
M  V30 7142 C 692.582 0.388044 -4.38386 0
M  V30 7143 H 689.701 -0.0784987 -0.732808 0
M  V30 7144 H 692.343 -0.871837 -1.68816 0
M  V30 7145 H 690.493 0.303832 -3.8731 0
M  V30 7146 H 692.165 -2.30296 -3.99702 0
M  V30 7147 H 690.408 -2.22553 -3.72361 0
M  V30 7148 H 691.079 -1.6719 -5.26072 0
M  V30 7149 H 693.555 -0.0903432 -4.16002 0
M  V30 7150 H 692.431 0.325232 -5.47936 0
M  V30 7151 H 692.692 1.4672 -4.17044 0
M  V30 7152 N 691.751 1.51645 -0.429126 0
M  V30 7153 C 692.976 2.06917 0.141399 0
M  V30 7154 C 693.401 1.29527 1.36398 0
M  V30 7155 O 692.759 0.33094 1.78254 0
M  V30 7156 C 692.807 3.57776 0.4504 0
M  V30 7157 O 691.911 3.82639 1.53821 0
M  V30 7158 H 691.252 0.663978 0.0054647 0
M  V30 7159 H 693.782 1.95355 -0.608093 0
M  V30 7160 H 693.792 4.01894 0.703249 0
M  V30 7161 H 692.467 4.13532 -0.443213 0
M  V30 7162 H 691.044 3.5039 1.27597 0
M  V30 7163 N 693.229 0.160201 1.56784 0
M  V30 7164 C 694.506 -0.533355 1.88188 0
M  V30 7165 C 694.886 -1.82072 1.06831 0
M  V30 7166 O 694.234 -2.27946 0.158959 0
M  V30 7167 C 694.444 -0.786034 3.40033 0
M  V30 7168 C 695.792 -1.12097 4.09536 0
M  V30 7169 O 696.816 -0.874949 3.45287 0
M  V30 7170 O 695.675 -1.58457 5.23023 0
M  V30 7171 H 692.769 -0.273589 0.780434 0
M  V30 7172 H 695.315 0.197803 1.68543 0
M  V30 7173 H 694.087 0.124515 3.91102 0
M  V30 7174 H 693.71 -1.57091 3.65251 0
M  V30 7175 N 694.707 -1.5719 -0.113559 0
M  V30 7176 C 695.67 -1.99796 -1.12314 0
M  V30 7177 C 696.67 -0.888847 -1.34001 0
M  V30 7178 O 697.86 -1.15476 -1.30426 0
M  V30 7179 C 694.992 -2.34279 -2.47641 0
M  V30 7180 H 696.185 -2.90193 -0.756825 0
M  V30 7181 H 693.738 -1.52144 -0.358029 0
M  V30 7182 H 694.473 -1.46778 -2.89183 0
M  V30 7183 H 694.258 -3.15175 -2.33253 0
M  V30 7184 H 695.748 -2.67963 -3.2029 0
M  V30 7185 N 696.185 0.383891 -1.52853 0
M  V30 7186 C 697.115 1.47559 -1.80965 0
M  V30 7187 C 698.096 1.5669 -0.661986 0
M  V30 7188 O 699.281 1.71556 -0.910072 0
M  V30 7189 C 696.411 2.85114 -1.98312 0
M  V30 7190 C 695.365 2.9082 -3.14019 0
M  V30 7191 C 694.691 4.30873 -3.16627 0
M  V30 7192 C 695.991 2.60001 -4.52986 0
M  V30 7193 H 697.685 1.24283 -2.72386 0
M  V30 7194 H 695.231 0.596445 -1.31067 0
M  V30 7195 H 697.184 3.61496 -2.16561 0
M  V30 7196 H 695.908 3.09738 -1.03585 0
M  V30 7197 H 694.567 2.16886 -2.9556 0
M  V30 7198 H 694.215 4.52545 -2.19573 0
M  V30 7199 H 693.915 4.3561 -3.94357 0
M  V30 7200 H 695.439 5.09154 -3.37038 0
M  V30 7201 H 696.853 3.261 -4.71521 0
M  V30 7202 H 695.25 2.76081 -5.32822 0
M  V30 7203 H 696.32 1.5532 -4.59351 0
M  V30 7204 N 697.663 1.43903 0.642637 0
M  V30 7205 C 698.891 1.4954 1.42988 0
M  V30 7206 C 699.306 0.116588 1.8844 0
M  V30 7207 O 698.663 -0.875285 1.60141 0
M  V30 7208 C 698.714 2.45031 2.65785 0
M  V30 7209 O 698.435 3.77551 2.22232 0
M  V30 7210 C 699.936 2.60017 3.59035 0
M  V30 7211 H 697.156 0.507544 0.438907 0
M  V30 7212 H 699.7 1.88752 0.786942 0
M  V30 7213 H 697.855 2.08985 3.26196 0
M  V30 7214 H 698.269 4.29001 3.01759 0
M  V30 7215 H 699.743 3.30887 4.41835 0
M  V30 7216 H 700.22 1.64861 4.07084 0
M  V30 7217 H 700.826 2.96918 3.045 0
M  V30 7218 N 699.141 -0.881989 1.30609 0
M  V30 7219 C 700.39 -1.62878 1.18969 0
M  V30 7220 C 700.703 -1.93946 -0.253859 0
M  V30 7221 O 701.909 -2.67008 -0.491813 0
M  V30 7222 C 700.365 -2.93573 2.0819 0
M  V30 7223 C 699.973 -2.70034 3.57471 0
M  V30 7224 C 701.717 -3.71543 2.0532 0
M  V30 7225 C 699.624 -3.96563 4.38739 0
M  V30 7226 H 698.554 -0.611092 0.441682 0
M  V30 7227 H 701.205 -0.976201 1.55379 0
M  V30 7228 H 699.587 -3.6014 1.64666 0
M  V30 7229 H 700.761 -2.11949 4.09163 0
M  V30 7230 H 699.076 -2.05435 3.62195 0
M  V30 7231 H 701.673 -4.65386 2.63288 0
M  V30 7232 H 702.016 -4.03167 1.03739 0
M  V30 7233 H 702.549 -3.11842 2.46981 0
M  V30 7234 H 699.288 -3.70095 5.41027 0
M  V30 7235 H 698.808 -4.54142 3.9181 0
M  V30 7236 H 700.487 -4.64557 4.50329 0
M  V30 7237 N 700.619 -1.13374 -1.09472 0
M  V30 7238 C 701.529 -0.824029 -2.19652 0
M  V30 7239 C 702.545 0.19118 -1.72947 0
M  V30 7240 O 703.721 0.0223464 -2.01388 0
M  V30 7241 C 700.786 -0.294009 -3.45451 0
M  V30 7242 C 699.847 -1.3704 -4.0684 0
M  V30 7243 C 699.08 -0.86558 -5.26634 0
M  V30 7244 O 699.303 0.29702 -5.69626 0
M  V30 7245 O 698.237 -1.63968 -5.79136 0
M  V30 7246 H 702.063 -1.74454 -2.48595 0
M  V30 7247 H 699.648 -0.911155 -1.18399 0
M  V30 7248 H 701.53 -0.00381039 -4.214 0
M  V30 7249 H 700.205 0.598921 -3.18111 0
M  V30 7250 H 699.112 -1.71391 -3.3253 0
M  V30 7251 H 700.445 -2.23746 -4.38405 0
M  V30 7252 N 702.098 1.27442 -0.927168 0
M  V30 7253 C 703.061 2.2512 -0.430525 0
M  V30 7254 C 704.061 1.54357 0.450619 0
M  V30 7255 O 705.251 1.72371 0.251774 0
M  V30 7256 C 702.383 3.38763 0.381144 0
M  V30 7257 H 703.576 2.70569 -1.29354 0
M  V30 7258 H 701.129 1.39355 -0.707806 0
M  V30 7259 H 701.864 2.98695 1.263 0
M  V30 7260 H 701.649 3.91298 -0.250618 0
M  V30 7261 H 703.139 4.11364 0.719012 0
M  V30 7262 N 703.576 0.692616 1.41565 0
M  V30 7263 C 704.822 0.231408 2.02079 0
M  V30 7264 C 705.177 -1.15514 1.53864 0
M  V30 7265 O 704.47 -1.76786 0.73873 0
M  V30 7266 C 704.664 0.225073 3.56691 0
M  V30 7267 C 704.493 1.60947 4.19912 0
M  V30 7268 C 703.263 2.2116 4.54331 0
M  V30 7269 C 705.461 2.55553 4.46315 0
M  V30 7270 N 703.443 3.52195 5.02824 0
M  V30 7271 C 704.814 3.71263 4.96552 0
M  V30 7272 C 706.869 2.53857 4.28323 0
M  V30 7273 C 705.572 4.85555 5.30687 0
M  V30 7274 C 707.598 3.67259 4.63546 0
M  V30 7275 C 706.96 4.81699 5.13951 0
M  V30 7276 H 703.059 0.130001 0.771119 0
M  V30 7277 H 705.643 0.909459 1.72154 0
M  V30 7278 H 703.814 -0.422453 3.86096 0
M  V30 7279 H 705.546 -0.250685 4.03923 0
M  V30 7280 H 702.301 1.73474 4.40685 0
M  V30 7281 H 702.725 4.19354 5.3148 0
M  V30 7282 H 707.367 1.66598 3.88594 0
M  V30 7283 H 705.085 5.73477 5.69341 0
M  V30 7284 H 708.671 3.67195 4.51286 0
M  V30 7285 H 707.551 5.67995 5.40695 0
M  V30 7286 N 705.054 -1.51416 0.437162 0
M  V30 7287 C 706.3 -2.02386 -0.129555 0
M  V30 7288 C 706.633 -1.32071 -1.42376 0
M  V30 7289 O 705.908 -0.43559 -1.8956 0
M  V30 7290 C 706.191 -3.5841 -0.348487 0
M  V30 7291 C 706.044 -4.39341 0.964352 0
M  V30 7292 C 707.363 -4.25654 -1.11834 0
M  V30 7293 H 704.482 -0.735587 -0.0456109 0
M  V30 7294 H 707.124 -1.81055 0.576124 0
M  V30 7295 H 705.274 -3.76716 -0.949592 0
M  V30 7296 H 706.946 -4.32685 1.59942 0
M  V30 7297 H 705.189 -4.04432 1.56898 0
M  V30 7298 H 705.86 -5.4667 0.765212 0
M  V30 7299 H 708.336 -4.11617 -0.609165 0
M  V30 7300 H 707.212 -5.34704 -1.24029 0
M  V30 7301 H 707.473 -3.86502 -2.14636 0
M  V30 7302 N 706.532 -0.168513 -1.56696 0
M  V30 7303 C 707.495 0.748928 -2.16619 0
M  V30 7304 C 708.495 1.16007 -1.11351 0
M  V30 7305 O 709.685 1.07748 -1.3688 0
M  V30 7306 C 706.817 2.01904 -2.74677 0
M  V30 7307 H 708.01 0.227317 -2.99037 0
M  V30 7308 H 705.563 0.0810372 -1.5609 0
M  V30 7309 H 706.298 2.58381 -1.95985 0
M  V30 7310 H 706.083 1.73323 -3.51712 0
M  V30 7311 H 707.573 2.67383 -3.20774 0
M  V30 7312 N 708.01 1.57248 0.105221 0
M  V30 7313 C 709.421 1.74612 0.660865 0
M  V30 7314 C 709.772 0.789231 1.79626 0
M  V30 7315 O 708.897 -0.0346611 2.16372 0
M  V30 7316 C 709.492 3.16624 1.20559 0
M  V30 7317 C 708.051 3.35447 1.7074 0
M  V30 7318 C 707.198 2.70445 0.612764 0
M  V30 7319 H 710.149 1.5824 -0.12079 0
M  V30 7320 H 710.17 3.18937 2.07508 0
M  V30 7321 H 709.682 3.86245 0.379012 0
M  V30 7322 H 707.783 2.7089 2.5583 0
M  V30 7323 H 707.896 4.43702 1.80736 0
M  V30 7324 H 706.26 2.32061 1.04975 0
M  V30 7325 H 707.043 3.42699 -0.203066 0
M  V30 7326 N 709.488 -0.375779 1.53054 0
M  V30 7327 C 710.904 -0.716764 1.426 0
M  V30 7328 C 711.104 -1.93651 0.556931 0
M  V30 7329 O 710.16 -2.52475 0.0354461 0
M  V30 7330 C 711.473 -0.939499 2.85646 0
M  V30 7331 C 713.021 -1.04015 2.95212 0
M  V30 7332 C 713.496 -1.29543 4.39298 0
M  V30 7333 N 714.987 -1.36335 4.42682 0
M  V30 7334 C 715.722 -1.57778 5.51266 0
M  V30 7335 N 715.218 -1.76604 6.69913 0
M  V30 7336 N 717.011 -1.60065 5.38828 0
M  V30 7337 H 709.162 0.42664 2.08071 0
M  V30 7338 H 711.425 0.128758 0.939215 0
M  V30 7339 H 711.131 -0.115189 3.51511 0
M  V30 7340 H 711.005 -1.85048 3.2869 0
M  V30 7341 H 713.392 -1.85501 2.29507 0
M  V30 7342 H 713.473 -0.106785 2.55577 0
M  V30 7343 H 713.117 -0.485611 5.05573 0
M  V30 7344 H 713.047 -2.24184 4.76497 0
M  V30 7345 H 715.538 -1.23441 3.5717 0
M  V30 7346 H 715.851 -1.9251 7.48438 0
M  V30 7347 H 714.196 -1.73802 6.72917 0
M  V30 7348 H 717.387 -1.44917 4.45103 0
M  V30 7349 H 717.56 -1.76435 6.23518 0
M  V30 7350 N 710.966 -1.44241 -0.634997 0
M  V30 7351 C 712.191 -1.50516 -1.42687 0
M  V30 7352 C 712.616 -0.129864 -1.87651 0
M  V30 7353 O 711.974 0.880164 -1.58502 0
M  V30 7354 C 712.022 -2.4714 -2.62591 0
M  V30 7355 O 711.126 -1.97025 -3.62291 0
M  V30 7356 H 710.467 -0.50841 -0.427101 0
M  V30 7357 H 712.997 -1.89337 -0.775408 0
M  V30 7358 H 713.007 -2.65048 -3.10183 0
M  V30 7359 H 711.682 -3.47039 -2.29209 0
M  V30 7360 H 710.259 -1.88866 -3.21534 0
M  V30 7361 N 712.444 0.87505 -1.31075 0
M  V30 7362 C 713.674 1.65818 -1.2324 0
M  V30 7363 C 714.082 1.8808 0.205536 0
M  V30 7364 O 713.425 1.43548 1.14628 0
M  V30 7365 C 713.487 3.05131 -1.90093 0
M  V30 7366 C 713.151 3.05999 -3.39432 0
M  V30 7367 C 714.148 2.84328 -4.35263 0
M  V30 7368 C 711.833 3.27281 -3.81041 0
M  V30 7369 C 713.827 2.83912 -5.70678 0
M  V30 7370 C 711.514 3.26493 -5.16571 0
M  V30 7371 C 712.512 3.04834 -6.112 0
M  V30 7372 O 712.2 3.03882 -7.44252 0
M  V30 7373 H 711.932 0.52387 -0.427242 0
M  V30 7374 H 714.486 1.10086 -1.73408 0
M  V30 7375 H 712.716 3.62568 -1.34468 0
M  V30 7376 H 714.405 3.65641 -1.76242 0
M  V30 7377 H 715.171 2.67673 -4.04445 0
M  V30 7378 H 711.05 3.43171 -3.07822 0
M  V30 7379 H 714.594 2.66925 -6.44513 0
M  V30 7380 H 710.491 3.42687 -5.47025 0
M  V30 7381 H 711.259 3.19979 -7.53363 0
M  V30 7382 N 713.922 1.13953 1.08869 0
M  V30 7383 C 714.832 0.835666 2.19212 0
M  V30 7384 C 715.848 -0.182005 1.73045 0
M  V30 7385 O 717.024 -0.0116661 2.01397 0
M  V30 7386 C 714.089 0.312325 3.4529 0
M  V30 7387 C 713.15 1.39196 4.06107 0
M  V30 7388 C 712.383 0.893496 5.26168 0
M  V30 7389 O 712.606 -0.266807 5.69776 0
M  V30 7390 O 711.54 1.67037 5.78258 0
M  V30 7391 H 715.366 1.75769 2.47667 0
M  V30 7392 H 712.951 0.917421 1.17914 0
M  V30 7393 H 714.833 0.0261582 4.21392 0
M  V30 7394 H 713.508 -0.582042 3.18424 0
M  V30 7395 H 712.415 1.73152 3.31616 0
M  V30 7396 H 713.748 2.26068 4.37212 0
M  V30 7397 N 715.4 -1.26948 0.933913 0
M  V30 7398 C 716.646 -1.94716 0.587985 0
M  V30 7399 C 717.001 -1.71994 -0.862312 0
M  V30 7400 O 716.294 -1.04208 -1.60783 0
M  V30 7401 C 716.488 -3.46963 0.857406 0
M  V30 7402 C 716.317 -3.84489 2.33234 0
M  V30 7403 C 715.087 -4.07621 2.98618 0
M  V30 7404 C 717.285 -3.93602 3.31031 0
M  V30 7405 N 715.267 -4.31976 4.362 0
M  V30 7406 C 716.638 -4.22404 4.53845 0
M  V30 7407 C 718.693 -3.76201 3.26155 0
M  V30 7408 C 717.396 -4.35615 5.72391 0
M  V30 7409 C 719.422 -3.90641 4.4402 0
M  V30 7410 C 718.784 -4.19835 5.65613 0
M  V30 7411 H 714.883 -0.735586 0.2654 0
M  V30 7412 H 717.467 -1.53181 1.20182 0
M  V30 7413 H 715.638 -3.87442 0.27268 0
M  V30 7414 H 717.37 -4.01921 0.47348 0
M  V30 7415 H 714.125 -4.02696 2.49264 0
M  V30 7416 H 714.549 -4.48199 5.07392 0
M  V30 7417 H 719.191 -3.52665 2.3321 0
M  V30 7418 H 716.909 -4.57975 6.65796 0
M  V30 7419 H 720.495 -3.78589 4.41771 0
M  V30 7420 H 719.375 -4.30765 6.55295 0
M  V30 7421 N 716.879 -0.700114 -1.41195 0
M  V30 7422 C 718.127 -0.232546 -2.00758 0
M  V30 7423 C 718.448 1.1734 -1.55745 0
M  V30 7424 O 717.718 1.79262 -0.790058 0
M  V30 7425 H 716.298 -0.0829845 -0.742376 0
M  V30 7426 H 718.96 -0.902289 -1.72756 0
M  V30 7427 H 718.056 -0.253521 -3.11069 0
M  V30 7428 N 718.357 1.51182 -0.445186 0
M  V30 7429 C 719.634 1.9478 0.178965 0
M  V30 7430 C 720.014 1.38428 1.59376 0
M  V30 7431 O 719.362 0.574552 2.21159 0
M  V30 7432 C 719.572 3.48683 0.148711 0
M  V30 7433 C 720.92 4.23152 0.35042 0
M  V30 7434 O 721.944 3.55479 0.226474 0
M  V30 7435 O 720.803 5.4322 0.597893 0
M  V30 7436 H 717.897 0.817387 0.12573 0
M  V30 7437 H 720.443 1.62051 -0.503729 0
M  V30 7438 H 719.215 3.82176 -0.84009 0
M  V30 7439 H 718.838 3.87875 0.873979 0
M  V30 7440 N 719.835 0.176821 1.56605 0
M  V30 7441 C 721.083 -0.465793 1.96659 0
M  V30 7442 C 721.404 -1.63406 1.06412 0
M  V30 7443 O 720.674 -1.95457 0.131603 0
M  V30 7444 H 719.254 -0.175072 0.726195 0
M  V30 7445 H 721.916 0.25929 1.93168 0
M  V30 7446 H 721.012 -0.822138 3.01077 0
M  V30 7447 N 721.313 -1.57302 -0.09688 0
M  V30 7448 C 722.261 -2.02942 -1.13654 0
M  V30 7449 C 723.255 -0.930173 -1.41577 0
M  V30 7450 O 724.461 -1.11535 -1.41279 0
M  V30 7451 H 720.836 -0.646726 -0.383731 0
M  V30 7452 H 722.807 -2.89452 -0.725267 0
M  V30 7453 C 721.556 -2.46815 -2.44903 0
M  V30 7454 H 720.879 -3.30979 -2.24261 0
M  V30 7455 H 722.319 -2.82527 -3.16156 0
M  V30 7456 C 720.778 -1.34071 -3.09074 0
M  V30 7457 O 721.308 -0.668856 -3.96092 0
M  V30 7458 N 719.514 -1.09214 -2.69296 0
M  V30 7459 H 719.061 -1.64029 -1.98626 0
M  V30 7460 H 719.019 -0.339785 -3.12559 0
M  V30 7461 N 722.791 0.367657 -1.53252 0
M  V30 7462 C 723.738 1.45028 -1.79543 0
M  V30 7463 C 724.708 1.53288 -0.63969 0
M  V30 7464 O 725.893 1.69209 -0.881653 0
M  V30 7465 C 723.033 2.82 -1.98923 0
M  V30 7466 C 722.146 2.82722 -3.26638 0
M  V30 7467 C 721.281 4.11257 -3.36216 0
M  V30 7468 C 720.32 4.06113 -4.57972 0
M  V30 7469 N 719.457 5.26293 -4.64715 0
M  V30 7470 H 724.297 1.21908 -2.71923 0
M  V30 7471 H 721.834 0.591011 -1.34705 0
M  V30 7472 H 723.792 3.61568 -2.08146 0
M  V30 7473 H 722.422 3.03523 -1.09881 0
M  V30 7474 H 721.474 1.95399 -3.26379 0
M  V30 7475 H 722.786 2.74794 -4.16281 0
M  V30 7476 H 721.94 4.99239 -3.44739 0
M  V30 7477 H 720.679 4.21935 -2.44586 0
M  V30 7478 H 719.684 3.16517 -4.49552 0
M  V30 7479 H 720.909 3.97039 -5.50942 0
M  V30 7480 H 718.855 5.37561 -3.75985 0
M  V30 7481 H 718.772 5.20526 -5.4826 0
M  V30 7482 H 720.04 6.16113 -4.77519 0
M  V30 7483 N 724.269 1.44576 0.627338 0
M  V30 7484 C 725.199 1.54562 1.75022 0
M  V30 7485 C 726.18 0.398378 1.65369 0
M  V30 7486 O 727.365 0.61899 1.84071 0
M  V30 7487 C 724.495 1.49309 3.13567 0
M  V30 7488 C 723.449 2.62549 3.38012 0
M  V30 7489 C 722.775 2.42348 4.76625 0
M  V30 7490 C 724.075 4.04678 3.30202 0
M  V30 7491 H 725.769 2.4855 1.66922 0
M  V30 7492 H 723.315 1.19624 0.801636 0
M  V30 7493 H 725.268 1.54895 3.919 0
M  V30 7494 H 723.992 0.518392 3.2246 0
M  V30 7495 H 722.651 2.56358 2.62061 0
M  V30 7496 H 722.299 1.43062 4.82226 0
M  V30 7497 H 721.999 3.18273 4.93939 0
M  V30 7498 H 723.523 2.49758 5.57183 0
M  V30 7499 H 724.937 4.12217 3.98435 0
M  V30 7500 H 723.334 4.80836 3.5905 0
M  V30 7501 H 724.404 4.2798 2.27949 0
M  V30 7502 N 725.747 -0.868086 1.31537 0
M  V30 7503 C 726.972 -1.65926 1.24432 0
M  V30 7504 C 727.397 -1.87169 -0.186936 0
M  V30 7505 O 726.755 -1.4148 -1.13371 0
M  V30 7506 C 726.803 -3.00347 1.9956 0
M  V30 7507 O 725.907 -3.90221 1.33422 0
M  V30 7508 H 725.248 -0.506375 0.429512 0
M  V30 7509 H 727.778 -1.0822 1.73637 0
M  V30 7510 H 727.788 -3.50269 2.09226 0
M  V30 7511 H 726.463 -2.84205 3.03645 0
M  V30 7512 H 725.04 -3.48672 1.32219 0
M  V30 7513 N 727.225 -1.14528 -1.08264 0
M  V30 7514 C 728.188 -0.83632 -2.13397 0
M  V30 7515 C 729.188 0.159715 -1.60005 0
M  V30 7516 O 730.378 -0.0688098 -1.74064 0
M  V30 7517 C 727.51 -0.246973 -3.40004 0
M  V30 7518 H 728.703 -1.76808 -2.42237 0
M  V30 7519 H 726.256 -0.951509 -1.24 0
M  V30 7520 H 726.991 0.693436 -3.168 0
M  V30 7521 H 726.776 -0.964412 -3.80055 0
M  V30 7522 H 728.266 -0.0480679 -4.17572 0
M  V30 7523 N 728.703 1.26451 -0.940633 0
M  V30 7524 C 729.952 1.93071 -0.583656 0
M  V30 7525 C 730.265 1.74618 0.881366 0
M  V30 7526 O 731.471 2.35689 1.34769 0
M  V30 7527 C 729.927 3.45927 -0.993106 0
M  V30 7528 C 729.535 3.73115 -2.4797 0
M  V30 7529 C 731.279 4.18554 -0.707998 0
M  V30 7530 C 729.186 5.19408 -2.82788 0
M  V30 7531 H 728.116 0.722824 -0.214572 0
M  V30 7532 H 730.767 1.43538 -1.1432 0
M  V30 7533 H 729.149 3.94341 -0.362099 0
M  V30 7534 H 730.323 3.35408 -3.15971 0
M  V30 7535 H 728.638 3.13719 -2.73805 0
M  V30 7536 H 731.235 5.26293 -0.94447 0
M  V30 7537 H 731.578 4.14782 0.355225 0
M  V30 7538 H 732.111 3.76003 -1.2987 0
M  V30 7539 H 728.85 5.28281 -3.88071 0
M  V30 7540 H 728.37 5.58214 -2.19449 0
M  V30 7541 H 730.049 5.87407 -2.71224 0
M  V30 7542 N 730.181 0.707592 1.40822 0
M  V30 7543 C 731.427 0.244031 2.01326 0
M  V30 7544 C 731.76 -1.15722 1.55955 0
M  V30 7545 O 731.035 -1.78347 0.776044 0
M  V30 7546 C 731.318 0.315128 3.58718 0
M  V30 7547 C 731.171 1.75419 4.14184 0
M  V30 7548 C 732.49 -0.318251 4.38948 0
M  V30 7549 H 729.609 0.0901471 0.731466 0
M  V30 7550 H 732.251 0.898584 1.67408 0
M  V30 7551 H 730.401 -0.242176 3.87744 0
M  V30 7552 H 732.073 2.36626 3.95987 0
M  V30 7553 H 730.316 2.28449 3.68773 0
M  V30 7554 H 730.987 1.75538 5.23345 0
M  V30 7555 H 733.463 0.156514 4.15806 0
M  V30 7556 H 732.339 -0.238019 5.48384 0
M  V30 7557 H 732.6 -1.40067 4.19325 0
M  V30 7558 N 731.66 -1.50943 0.453197 0
M  V30 7559 C 732.608 -2.29728 -0.364419 0
M  V30 7560 C 733.602 -1.36246 -1.00664 0
M  V30 7561 O 734.808 -1.53518 -0.939794 0
M  V30 7562 H 731.183 -0.739536 -0.136347 0
M  V30 7563 H 733.154 -2.96672 0.320696 0
M  V30 7564 C 731.903 -3.1629 -1.44415 0
M  V30 7565 H 731.226 -3.88119 -0.959343 0
M  V30 7566 H 732.666 -3.74444 -1.98917 0
M  V30 7567 C 731.125 -2.32702 -2.43622 0
M  V30 7568 O 731.655 -1.99763 -3.48508 0
M  V30 7569 N 729.861 -1.95621 -2.14897 0
M  V30 7570 H 729.408 -2.22607 -1.29629 0
M  V30 7571 H 729.366 -1.39993 -2.81513 0
M  V30 7572 N 733.138 -0.185124 -1.56509 0
M  V30 7573 C 734.07 0.771401 -2.15829 0
M  V30 7574 C 735.083 1.18392 -1.11747 0
M  V30 7575 O 736.272 1.12137 -1.38879 0
M  V30 7576 C 733.372 2.05169 -2.69739 0
M  V30 7577 C 732.545 1.80056 -3.98621 0
M  V30 7578 C 731.604 2.92435 -4.37456 0
M  V30 7579 O 730.63 2.62473 -5.05071 0
M  V30 7580 N 731.832 4.20554 -4.00143 0
M  V30 7581 H 734.597 0.264184 -2.98533 0
M  V30 7582 H 732.158 -0.00281069 -1.619 0
M  V30 7583 H 734.15 2.7947 -2.92709 0
M  V30 7584 H 732.72 2.47041 -1.91545 0
M  V30 7585 H 731.94 0.895862 -3.83885 0
M  V30 7586 H 733.228 1.60662 -4.82768 0
M  V30 7587 H 732.626 4.47753 -3.45736 0
M  V30 7588 H 731.183 4.91514 -4.28085 0
M  V30 7589 N 734.616 1.57351 0.0885366 0
M  V30 7590 C 735.841 1.91011 0.80805 0
M  V30 7591 C 736.266 0.780009 1.71165 0
M  V30 7592 O 735.624 -0.268083 1.79307 0
M  V30 7593 C 735.672 3.23562 1.59185 0
M  V30 7594 O 734.776 3.11615 2.7013 0
M  V30 7595 H 734.117 0.625943 0.221565 0
M  V30 7596 H 736.647 2.04507 0.0617954 0
M  V30 7597 H 736.657 3.5703 1.97468 0
M  V30 7598 H 735.332 4.05398 0.928741 0
M  V30 7599 H 733.909 2.89673 2.34827 0
M  V30 7600 N 736.094 -0.359525 1.53444 0
M  V30 7601 C 737.371 -1.11756 1.6053 0
M  V30 7602 C 737.751 -2.06949 0.416587 0
M  V30 7603 O 737.099 -2.20681 -0.592628 0
M  V30 7604 C 737.309 -1.85133 2.95849 0
M  V30 7605 C 738.657 -2.3945 3.50641 0
M  V30 7606 O 739.681 -1.95251 2.97918 0
M  V30 7607 O 738.54 -3.20266 4.42823 0
M  V30 7608 H 735.634 -0.513005 0.648656 0
M  V30 7609 H 738.18 -0.362301 1.65787 0
M  V30 7610 H 736.952 -1.15694 3.73806 0
M  V30 7611 H 736.575 -2.67554 2.9411 0
M  V30 7612 N 737.572 -1.44907 -0.619662 0
M  V30 7613 C 738.504 -1.48652 -1.74457 0
M  V30 7614 C 739.517 -0.378596 -1.58337 0
M  V30 7615 O 740.706 -0.644987 -1.6644 0
M  V30 7616 C 737.806 -1.31568 -3.12319 0
M  V30 7617 C 736.979 -2.55816 -3.54792 0
M  V30 7618 C 736.038 -2.33465 -4.71573 0
M  V30 7619 O 735.064 -3.07015 -4.79302 0
M  V30 7620 N 736.266 -1.37254 -5.6404 0
M  V30 7621 H 739.031 -2.45632 -1.71712 0
M  V30 7622 H 736.592 -1.40492 -0.804582 0
M  V30 7623 H 738.584 -1.14445 -3.88181 0
M  V30 7624 H 737.154 -0.429095 -3.09641 0
M  V30 7625 H 736.374 -2.88137 -2.69018 0
M  V30 7626 H 737.662 -3.38431 -3.79924 0
M  V30 7627 H 737.06 -0.765309 -5.60499 0
M  V30 7628 H 735.617 -1.26106 -6.39485 0
M  V30 7629 N 739.05 0.861098 -1.31996 0
M  V30 7630 C 740.327 1.59788 -1.12814 0
M  V30 7631 C 740.707 2.08753 0.313882 0
M  V30 7632 O 740.055 1.87258 1.30946 0
M  V30 7633 C 740.265 2.74901 -2.15012 0
M  V30 7634 C 741.613 3.44643 -2.48004 0
M  V30 7635 O 742.637 2.85119 -2.13508 0
M  V30 7636 O 741.496 4.52044 -3.07113 0
M  V30 7637 H 738.59 0.703408 -0.434909 0
M  V30 7638 H 741.136 0.905788 -1.43505 0
M  V30 7639 H 739.908 2.36198 -3.11971 0
M  V30 7640 H 739.531 3.51792 -1.85279 0
M  V30 7641 N 740.528 1.15101 1.07655 0
M  V30 7642 C 741.475 0.844958 2.14777 0
M  V30 7643 C 742.445 -0.200798 1.64882 0
M  V30 7644 O 743.63 -0.0690278 1.90675 0
M  V30 7645 C 740.77 0.337018 3.4345 0
M  V30 7646 C 739.883 1.44398 4.07153 0
M  V30 7647 C 739.018 0.892487 5.23649 0
M  V30 7648 C 738.057 1.9766 5.79307 0
M  V30 7649 N 737.194 1.44171 6.87138 0
M  V30 7650 H 742.034 1.76242 2.40297 0
M  V30 7651 H 739.571 0.879435 1.17917 0
M  V30 7652 H 741.529 0.024256 4.17193 0
M  V30 7653 H 740.159 -0.543531 3.18191 0
M  V30 7654 H 739.211 1.87299 3.31094 0
M  V30 7655 H 740.523 2.26262 4.4453 0
M  V30 7656 H 739.677 0.532083 6.04362 0
M  V30 7657 H 738.416 0.0429854 4.87681 0
M  V30 7658 H 737.421 2.34586 4.97242 0
M  V30 7659 H 738.646 2.82982 6.17331 0
M  V30 7660 H 736.592 0.614518 6.53115 0
M  V30 7661 H 736.509 2.19665 7.23383 0
M  V30 7662 H 737.777 1.10945 7.71564 0
M  V30 7663 N 742.006 -1.2595 0.947325 0
M  V30 7664 C 742.969 -2.24407 0.466285 0
M  V30 7665 C 743.969 -1.55054 -0.426005 0
M  V30 7666 O 745.159 -1.7275 -0.224319 0
M  V30 7667 C 742.291 -3.39326 -0.327201 0
M  V30 7668 H 743.484 -2.68477 1.33642 0
M  V30 7669 H 741.037 -1.38211 0.729887 0
M  V30 7670 H 741.772 -3.00667 -1.21532 0
M  V30 7671 H 741.557 -3.9085 0.312839 0
M  V30 7672 H 743.047 -4.12455 -0.653477 0
M  V30 7673 N 743.484 -0.715051 -1.40445 0
M  V30 7674 C 744.394 -0.0631624 -2.34515 0
M  V30 7675 C 745.41 0.744397 -1.57273 0
M  V30 7676 O 746.586 0.677475 -1.89663 0
M  V30 7677 C 743.651 0.847915 -3.36172 0
M  V30 7678 C 742.712 0.0303655 -4.29289 0
M  V30 7679 C 741.945 0.898051 -5.2609 0
M  V30 7680 O 742.168 2.13729 -5.28844 0
M  V30 7681 O 741.102 0.337328 -6.00954 0
M  V30 7682 H 744.928 -0.839078 -2.91879 0
M  V30 7683 H 742.513 -0.475527 -1.4163 0
M  V30 7684 H 744.395 1.3698 -3.98515 0
M  V30 7685 H 743.07 1.60299 -2.81222 0
M  V30 7686 H 741.977 -0.536573 -3.70232 0
M  V30 7687 H 743.31 -0.686474 -4.87389 0
M  V30 7688 N 744.962 1.50701 -0.461195 0
M  V30 7689 C 746.21 2.01867 0.0970051 0
M  V30 7690 C 746.531 1.34591 1.41104 0
M  V30 7691 O 745.801 0.488041 1.89723 0
M  V30 7692 H 744.381 0.74599 0.0388392 0
M  V30 7693 H 747.043 1.85129 -0.609357 0
M  V30 7694 H 746.139 3.11051 0.255688 0
M  V30 7695 N 746.441 0.193421 1.56409 0
M  V30 7696 C 747.688 -0.445789 1.97532 0
M  V30 7697 C 748.016 -1.61744 1.08024 0
M  V30 7698 O 747.271 -1.95338 0.118982 0
M  V30 7699 C 747.57 -0.949718 3.44551 0
M  V30 7700 C 747.236 0.108383 4.5077 0
M  V30 7701 C 745.898 0.399126 4.79542 0
M  V30 7702 C 748.25 0.825423 5.14622 0
M  V30 7703 C 745.578 1.41192 5.69457 0
M  V30 7704 C 747.93 1.82735 6.05632 0
M  V30 7705 C 746.594 2.12531 6.32761 0
M  V30 7706 H 745.864 -0.163126 0.722822 0
M  V30 7707 H 748.511 0.290035 1.89291 0
M  V30 7708 H 746.816 -1.76378 3.49854 0
M  V30 7709 H 748.513 -1.45367 3.73724 0
M  V30 7710 H 745.103 -0.128392 4.28408 0
M  V30 7711 H 749.287 0.61403 4.92487 0
M  V30 7712 H 744.543 1.6487 5.88751 0
M  V30 7713 H 748.717 2.3882 6.5417 0
M  V30 7714 H 746.344 2.91155 7.02234 0
M  V30 7715 N 747.919 -1.57396 -0.0801906 0
M  V30 7716 C 749.144 -1.91437 -0.797909 0
M  V30 7717 C 749.569 -0.789075 -1.70749 0
M  V30 7718 O 748.927 0.25857 -1.79447 0
M  V30 7719 C 748.975 -3.24402 -1.57467 0
M  V30 7720 O 748.079 -3.13043 -2.68473 0
M  V30 7721 H 747.42 -0.627109 -0.218243 0
M  V30 7722 H 749.95 -2.04537 -0.050949 0
M  V30 7723 H 749.96 -3.58072 -1.95571 0
M  V30 7724 H 748.635 -4.05884 -0.907229 0
M  V30 7725 H 747.212 -2.90915 -2.33287 0
M  V30 7726 N 749.397 0.351382 -1.53633 0
M  V30 7727 C 750.327 1.43688 -1.84055 0
M  V30 7728 C 751.308 1.55251 -0.695073 0
M  V30 7729 O 752.493 1.69587 -0.946257 0
M  V30 7730 C 749.623 2.80843 -2.04315 0
M  V30 7731 C 748.577 2.84094 -3.20117 0
M  V30 7732 C 747.903 4.2406 -3.25696 0
M  V30 7733 C 749.203 2.50334 -4.58399 0
M  V30 7734 H 750.897 1.18478 -2.74961 0
M  V30 7735 H 748.443 0.568509 -1.32303 0
M  V30 7736 H 750.396 3.56821 -2.2418 0
M  V30 7737 H 749.12 3.07471 -1.10132 0
M  V30 7738 H 747.779 2.10568 -3.00094 0
M  V30 7739 H 747.427 4.47785 -2.29123 0
M  V30 7740 H 747.127 4.27147 -4.03509 0
M  V30 7741 H 748.651 5.0189 -3.47762 0
M  V30 7742 H 750.065 3.16025 -4.78332 0
M  V30 7743 H 748.462 2.64717 -5.38558 0
M  V30 7744 H 749.532 1.45542 -4.62543 0
M  V30 7745 N 750.875 1.45233 0.611969 0
M  V30 7746 C 752.123 1.48727 1.36838 0
M  V30 7747 C 752.444 0.128616 1.94575 0
M  V30 7748 O 751.714 -0.84149 1.76906 0
M  V30 7749 H 750.294 0.547695 0.507976 0
M  V30 7750 H 752.956 1.81156 0.718925 0
M  V30 7751 H 752.052 2.2236 2.19003 0
M  V30 7752 N 752.353 -0.854086 1.3245 0
M  V30 7753 C 753.286 -1.96654 1.15768 0
M  V30 7754 C 754.264 -1.625 0.0569975 0
M  V30 7755 O 755.448 -1.87254 0.216412 0
M  V30 7756 C 752.575 -3.29776 0.772361 0
M  V30 7757 C 751.621 -3.82909 1.87837 0
M  V30 7758 S 752.454 -4.0643 3.48675 0
M  V30 7759 C 753.61 -5.42526 3.12116 0
M  V30 7760 H 753.843 -2.10504 2.09942 0
M  V30 7761 H 751.376 -1.00612 1.17118 0
M  V30 7762 H 753.334 -4.06706 0.556809 0
M  V30 7763 H 751.995 -3.13739 -0.150519 0
M  V30 7764 H 751.188 -4.79192 1.56177 0
M  V30 7765 H 750.79 -3.12825 2.0498 0
M  V30 7766 H 753.082 -6.24792 2.61996 0
M  V30 7767 H 754.025 -5.79148 4.07422 0
M  V30 7768 H 754.433 -5.06556 2.49121 0
M  V30 7769 N 753.831 -1.1567 -1.07043 0
M  V30 7770 C 755.061 -0.956083 -1.83146 0
M  V30 7771 C 755.469 0.498969 -1.82502 0
M  V30 7772 O 754.812 1.35791 -1.23719 0
M  V30 7773 C 754.874 -1.39704 -3.31245 0
M  V30 7774 C 754.538 -2.87045 -3.55604 0
M  V30 7775 C 755.535 -3.85092 -3.49285 0
M  V30 7776 C 753.22 -3.24787 -3.8317 0
M  V30 7777 C 755.214 -5.18885 -3.70185 0
M  V30 7778 C 752.901 -4.58751 -4.03721 0
M  V30 7779 C 753.899 -5.55609 -3.97224 0
M  V30 7780 O 753.587 -6.87154 -4.17223 0
M  V30 7781 H 753.319 -0.339473 -0.58458 0
M  V30 7782 H 755.873 -1.53922 -1.36005 0
M  V30 7783 H 754.103 -0.757326 -3.79212 0
M  V30 7784 H 755.792 -1.16503 -3.88821 0
M  V30 7785 H 756.558 -3.5728 -3.27988 0
M  V30 7786 H 752.437 -2.49979 -3.87339 0
M  V30 7787 H 755.981 -5.94473 -3.6503 0
M  V30 7788 H 751.878 -4.86277 -4.24505 0
M  V30 7789 H 752.646 -6.93618 -4.34553 0
M  V30 7790 N 755.309 1.25446 -0.953992 0
M  V30 7791 C 756.725 1.4539 -0.658316 0
M  V30 7792 C 756.925 1.85607 0.784356 0
M  V30 7793 O 755.981 1.98568 1.55972 0
M  V30 7794 C 757.294 2.52643 -1.6307 0
M  V30 7795 C 758.842 2.66484 -1.64181 0
M  V30 7796 C 759.317 3.76921 -2.60182 0
M  V30 7797 N 760.808 3.84331 -2.58542 0
M  V30 7798 C 761.543 4.69271 -3.29503 0
M  V30 7799 N 761.039 5.58503 -4.09934 0
M  V30 7800 N 762.832 4.6323 -3.18393 0
M  V30 7801 H 754.983 0.976337 -1.8863 0
M  V30 7802 H 757.246 0.490343 -0.811337 0
M  V30 7803 H 756.952 2.29949 -2.66114 0
M  V30 7804 H 756.826 3.50547 -1.39271 0
M  V30 7805 H 759.213 2.88545 -0.618552 0
M  V30 7806 H 759.294 1.68982 -1.92038 0
M  V30 7807 H 758.938 3.55612 -3.62633 0
M  V30 7808 H 758.868 4.73906 -2.29609 0
M  V30 7809 H 761.359 3.20544 -2.0015 0
M  V30 7810 H 761.672 6.20241 -4.61 0
M  V30 7811 H 760.017 5.58214 -4.14032 0
M  V30 7812 H 763.208 3.92527 -2.5503 0
M  V30 7813 H 763.381 5.29204 -3.73961 0
M  V30 7814 N 756.787 0.722489 1.40064 0
M  V30 7815 C 757.737 0.0506801 2.27944 0
M  V30 7816 C 758.721 -0.725493 1.43615 0
M  V30 7817 O 759.913 -0.596559 1.66644 0
M  V30 7818 C 757.042 -0.865195 3.32219 0
M  V30 7819 C 756.128 -0.0838393 4.24017 0
M  V30 7820 N 756.519 0.936516 4.97054 0
M  V30 7821 C 754.817 -0.315371 4.44884 0
M  V30 7822 C 755.518 1.4066 5.64437 0
M  V30 7823 N 754.494 0.727485 5.3871 0
M  V30 7824 H 758.296 0.832609 2.8186 0
M  V30 7825 H 755.81 0.555691 1.52597 0
M  V30 7826 H 757.807 -1.36186 3.94029 0
M  V30 7827 H 756.467 -1.64642 2.79862 0
M  V30 7828 H 757.478 1.31755 5.0086 0
M  V30 7829 H 754.155 -1.07238 4.03492 0
M  V30 7830 H 755.545 2.25482 6.32936 0
M  V30 7831 N 758.265 -1.50454 0.469181 0
M  V30 7832 C 759.513 -2.01916 -0.0862982 0
M  V30 7833 C 759.834 -1.35337 -1.40388 0
M  V30 7834 O 759.104 -0.498096 -1.89462 0
M  V30 7835 H 757.684 -0.746185 -0.0348825 0
M  V30 7836 H 760.346 -1.84804 0.619167 0
M  V30 7837 H 759.442 -3.11182 -0.239189 0
M  V30 7838 N 759.743 -0.201713 -1.56304 0
M  V30 7839 C 760.971 0.440723 -2.02152 0
M  V30 7840 C 761.386 1.54735 -1.08179 0
M  V30 7841 O 760.743 1.82289 -0.0878196 0
M  V30 7842 C 760.794 0.990884 -3.47655 0
M  V30 7843 O 760.515 -0.0715937 -4.38041 0
M  V30 7844 C 762.016 1.70854 -4.09052 0
M  V30 7845 H 759.236 0.109987 -0.661924 0
M  V30 7846 H 761.78 -0.312358 -2.021 0
M  V30 7847 H 759.935 1.69432 -3.48384 0
M  V30 7848 H 760.349 0.338892 -5.23404 0
M  V30 7849 H 761.823 2.04572 -5.12693 0
M  V30 7850 H 762.3 2.61462 -3.52894 0
M  V30 7851 H 762.906 1.0508 -4.12114 0
M  V30 7852 N 761.222 1.57436 0.0718424 0
M  V30 7853 C 762.468 1.88388 0.766904 0
M  V30 7854 C 762.823 0.7954 1.75189 0
M  V30 7855 O 762.116 -0.200438 1.90549 0
M  V30 7856 C 762.31 3.23723 1.51455 0
M  V30 7857 C 762.139 4.45632 0.603475 0
M  V30 7858 C 760.909 5.04728 0.240437 0
M  V30 7859 C 763.107 5.14203 -0.0997624 0
M  V30 7860 N 761.089 6.10163 -0.676363 0
M  V30 7861 C 762.46 6.13812 -0.873755 0
M  V30 7862 C 764.515 4.97605 -0.171238 0
M  V30 7863 C 763.218 6.98615 -1.71258 0
M  V30 7864 C 765.244 5.82935 -0.997041 0
M  V30 7865 C 764.606 6.82082 -1.75908 0
M  V30 7866 H 760.705 0.738888 0.256064 0
M  V30 7867 H 763.289 1.94679 0.0284273 0
M  V30 7868 H 761.46 3.1844 2.22375 0
M  V30 7869 H 763.192 3.42324 2.15862 0
M  V30 7870 H 759.947 4.69869 0.593284 0
M  V30 7871 H 760.371 6.67537 -1.12801 0
M  V30 7872 H 765.013 4.20869 0.403586 0
M  V30 7873 H 762.731 7.74726 -2.29838 0
M  V30 7874 H 766.317 5.72149 -1.05532 0
M  V30 7875 H 765.197 7.46964 -2.38778 0
M  V30 7876 N 762.7 -0.34323 1.53817 0
M  V30 7877 C 763.925 -1.1079 1.75329 0
M  V30 7878 C 764.35 -1.81571 0.491293 0
M  V30 7879 O 763.708 -1.72561 -0.556089 0
M  V30 7880 C 763.756 -2.09681 2.9337 0
M  V30 7881 O 762.86 -3.17207 2.63541 0
M  V30 7882 H 762.201 -0.320402 0.581583 0
M  V30 7883 H 764.731 -0.393525 2.0078 0
M  V30 7884 H 764.741 -2.52897 3.20168 0
M  V30 7885 H 763.416 -1.5756 3.84899 0
M  V30 7886 H 761.993 -2.78806 2.47632 0
M  V30 7887 N 764.178 -1.45556 -0.604258 0
M  V30 7888 C 765.111 -1.48975 -1.72863 0
M  V30 7889 C 766.089 -0.345803 -1.5888 0
M  V30 7890 O 767.273 -0.546796 -1.80395 0
M  V30 7891 C 764.4 -1.34794 -3.10722 0
M  V30 7892 C 763.446 -2.53096 -3.43285 0
M  V30 7893 S 764.279 -4.15551 -3.37754 0
M  V30 7894 C 765.435 -4.03842 -4.78187 0
M  V30 7895 H 765.668 -2.44108 -1.69701 0
M  V30 7896 H 763.201 -1.33179 -0.781194 0
M  V30 7897 H 765.159 -1.273 -3.90263 0
M  V30 7898 H 763.82 -0.411254 -3.11396 0
M  V30 7899 H 763.013 -2.39109 -4.4367 0
M  V30 7900 H 762.615 -2.57469 -2.71267 0
M  V30 7901 H 764.907 -3.69191 -5.6807 0
M  V30 7902 H 765.85 -5.0415 -4.97231 0
M  V30 7903 H 766.258 -3.35443 -4.54025 0
M  V30 7904 N 765.656 0.84705 -1.32902 0
M  V30 7905 C 766.588 1.96308 -1.18304 0
M  V30 7906 C 767.601 1.62386 -0.116082 0
M  V30 7907 O 768.79 1.74713 -0.365751 0
M  V30 7908 C 765.89 3.29556 -0.790305 0
M  V30 7909 C 765.063 3.91668 -1.94717 0
M  V30 7910 C 764.122 5.0326 -1.53674 0
M  V30 7911 O 763.148 5.22847 -2.24989 0
M  V30 7912 N 764.35 5.78852 -0.437075 0
M  V30 7913 H 767.115 2.09369 -2.14441 0
M  V30 7914 H 764.676 1.02233 -1.25539 0
M  V30 7915 H 766.668 4.01624 -0.49799 0
M  V30 7916 H 765.238 3.12497 0.0801286 0
M  V30 7917 H 764.458 3.12292 -2.40557 0
M  V30 7918 H 765.746 4.299 -2.72146 0
M  V30 7919 H 765.144 5.65484 0.156316 0
M  V30 7920 H 763.701 6.51479 -0.204399 0
M  V30 7921 N 767.134 1.16236 1.06428 0
M  V30 7922 C 768.38 0.944431 1.79467 0
M  V30 7923 C 768.713 -0.526558 1.86925 0
M  V30 7924 O 767.988 -1.39061 1.35986 0
M  V30 7925 C 768.271 1.57092 3.24028 0
M  V30 7926 C 768.124 3.11315 3.24658 0
M  V30 7927 C 769.443 1.26447 4.21544 0
M  V30 7928 H 766.562 0.344521 0.651517 0
M  V30 7929 H 769.204 1.43545 1.24478 0
M  V30 7930 H 767.354 1.15337 3.70985 0
M  V30 7931 H 769.026 3.62042 2.85873 0
M  V30 7932 H 767.269 3.44716 2.6335 0
M  V30 7933 H 767.94 3.50269 4.26633 0
M  V30 7934 H 770.416 1.62581 3.83023 0
M  V30 7935 H 769.292 1.72885 5.20963 0
M  V30 7936 H 769.553 0.183068 4.41721 0
M  V30 7937 N 768.612 -1.24939 0.960631 0
M  V30 7938 C 769.86 -1.92437 0.617441 0
M  V30 7939 C 770.181 -1.75543 -0.849101 0
M  V30 7940 O 769.451 -1.12269 -1.60538 0
M  V30 7941 H 768.031 -0.712192 0.225371 0
M  V30 7942 H 770.693 -1.5198 1.22017 0
M  V30 7943 H 769.789 -3.00247 0.851933 0
M  V30 7944 N 770.09 -0.729906 -1.39679 0
M  V30 7945 C 771.339 -0.272534 -1.9985 0
M  V30 7946 C 771.652 1.14519 -1.58571 0
M  V30 7947 O 772.858 1.70182 -2.11543 0
M  V30 7948 C 771.314 -0.436322 -3.57245 0
M  V30 7949 C 770.922 -1.86161 -4.0749 0
M  V30 7950 C 772.666 -0.0404679 -4.24481 0
M  V30 7951 C 770.573 -1.97522 -5.5744 0
M  V30 7952 H 769.503 -0.0981428 -0.747585 0
M  V30 7953 H 772.154 -0.903056 -1.59741 0
M  V30 7954 H 770.536 0.263015 -3.95126 0
M  V30 7955 H 771.71 -2.59248 -3.80955 0
M  V30 7956 H 770.025 -2.21021 -3.529 0
M  V30 7957 H 772.622 -0.104437 -5.34598 0
M  V30 7958 H 772.965 1.00357 -4.04023 0
M  V30 7959 H 773.498 -0.690774 -3.91757 0
M  V30 7960 H 770.237 -3.00096 -5.82771 0
M  V30 7961 H 769.757 -1.28864 -5.85794 0
M  V30 7962 H 771.436 -1.754 -6.22771 0
M  V30 7963 N 771.568 1.50203 -0.477153 0
M  V30 7964 C 772.816 2.01959 0.0755889 0
M  V30 7965 C 773.137 1.3608 1.39668 0
M  V30 7966 O 772.407 0.508136 1.89195 0
M  V30 7967 H 770.987 0.74636 0.0309248 0
M  V30 7968 H 773.649 1.84473 -0.628959 0
M  V30 7969 H 772.745 3.11305 0.222683 0
M  V30 7970 N 773.046 0.209999 1.56195 0
M  V30 7971 C 774.294 -0.423974 1.97603 0
M  V30 7972 C 774.615 -1.61112 1.09854 0
M  V30 7973 O 773.885 -1.95134 0.173032 0
M  V30 7974 H 772.465 -0.159629 0.729745 0
M  V30 7975 H 775.127 0.300205 1.92574 0
M  V30 7976 H 774.223 -0.75809 3.02753 0
M  V30 7977 N 774.524 -1.57472 -0.0634922 0
M  V30 7978 C 775.456 -2.00999 -1.10145 0
M  V30 7979 C 776.469 -0.917219 -1.34503 0
M  V30 7980 O 777.658 -1.19501 -1.32596 0
M  V30 7981 C 774.758 -2.34089 -2.45063 0
M  V30 7982 C 773.931 -3.65317 -2.40546 0
M  V30 7983 C 772.99 -3.85982 -3.57637 0
M  V30 7984 O 772.016 -4.5747 -3.38689 0
M  V30 7985 N 773.218 -3.28971 -4.78287 0
M  V30 7986 H 775.983 -2.90656 -0.730714 0
M  V30 7987 H 773.544 -1.59926 -0.252017 0
M  V30 7988 H 775.536 -2.4508 -3.22053 0
M  V30 7989 H 774.106 -1.50279 -2.74107 0
M  V30 7990 H 773.326 -3.65003 -1.48885 0
M  V30 7991 H 774.614 -4.51468 -2.34636 0
M  V30 7992 H 774.012 -2.70962 -4.96584 0
M  V30 7993 H 772.569 -3.45398 -5.5276 0
M  V30 7994 N 776.003 0.335068 -1.53997 0
M  V30 7995 C 777.249 1.07222 -1.72844 0
M  V30 7996 C 777.604 1.86054 -0.490075 0
M  V30 7997 O 776.897 1.84481 0.517416 0
M  V30 7998 C 777.091 2.0364 -2.9371 0
M  V30 7999 C 776.92 1.34287 -4.29182 0
M  V30 8000 C 775.69 1.08417 -4.93532 0
M  V30 8001 C 777.888 0.764703 -5.08583 0
M  V30 8002 N 775.87 0.357342 -6.12859 0
M  V30 8003 C 777.241 0.168876 -6.1977 0
M  V30 8004 C 779.296 0.666383 -4.9342 0
M  V30 8005 C 777.999 -0.515716 -7.17449 0
M  V30 8006 C 780.025 -0.0044859 -5.914 0
M  V30 8007 C 779.387 -0.589305 -7.01931 0
M  V30 8008 H 775.486 0.376448 -0.685427 0
M  V30 8009 H 778.07 0.354778 -1.9144 0
M  V30 8010 H 776.241 2.72668 -2.76599 0
M  V30 8011 H 777.973 2.70256 -3.01237 0
M  V30 8012 H 774.728 1.37351 -4.53246 0
M  V30 8013 H 775.152 0.00840481 -6.76999 0
M  V30 8014 H 779.794 1.10426 -4.08125 0
M  V30 8015 H 777.512 -0.965457 -8.02312 0
M  V30 8016 H 781.098 -0.0800446 -5.81745 0
M  V30 8017 H 779.978 -1.10019 -7.76444 0
M  V30 8018 N 777.481 1.45874 0.596531 0
M  V30 8019 C 778.73 1.49737 1.35135 0
M  V30 8020 C 779.043 0.147755 1.95041 0
M  V30 8021 O 780.249 0.0640984 2.71424 0
M  V30 8022 C 778.705 2.6378 2.44843 0
M  V30 8023 C 778.313 4.05102 1.91301 0
M  V30 8024 C 780.057 2.769 3.21755 0
M  V30 8025 C 777.964 5.10508 2.98557 0
M  V30 8026 H 776.894 0.557219 0.507959 0
M  V30 8027 H 779.545 1.72046 0.638147 0
M  V30 8028 H 777.927 2.34774 3.189 0
M  V30 8029 H 779.101 4.43836 1.2388 0
M  V30 8030 H 777.416 3.96528 1.271 0
M  V30 8031 H 780.013 3.52819 4.01775 0
M  V30 8032 H 780.356 1.83924 3.73467 0
M  V30 8033 H 780.889 3.05485 2.54802 0
M  V30 8034 H 777.628 6.0523 2.51749 0
M  V30 8035 H 777.148 4.76332 3.6451 0
M  V30 8036 H 778.827 5.35745 3.62748 0
M  V30 8037 N 778.959 -0.83999 1.33349 0
M  V30 8038 C 779.891 -1.95678 1.19344 0
M  V30 8039 C 780.904 -1.62322 0.124692 0
M  V30 8040 O 782.093 -1.74516 0.375012 0
M  V30 8041 C 779.193 -3.29133 0.807771 0
M  V30 8042 C 778.366 -3.9063 1.96792 0
M  V30 8043 C 777.425 -5.02438 1.56341 0
M  V30 8044 O 776.451 -5.21646 2.27759 0
M  V30 8045 N 777.653 -5.78612 0.467767 0
M  V30 8046 H 780.418 -2.08229 2.15548 0
M  V30 8047 H 777.979 -1.01566 1.26079 0
M  V30 8048 H 779.971 -4.01355 0.519282 0
M  V30 8049 H 778.541 -3.12535 -0.063555 0
M  V30 8050 H 777.761 -3.11011 2.4221 0
M  V30 8051 H 779.049 -4.2845 2.74422 0
M  V30 8052 H 778.447 -5.65559 -0.126324 0
M  V30 8053 H 777.004 -6.51362 0.238945 0
M  V30 8054 N 780.437 -1.16799 -1.0581 0
M  V30 8055 C 781.683 -0.953935 -1.78963 0
M  V30 8056 C 782.016 0.516638 -1.87202 0
M  V30 8057 O 781.291 1.38338 -1.36721 0
M  V30 8058 C 781.574 -1.58808 -3.23191 0
M  V30 8059 C 781.427 -3.13032 -3.23003 0
M  V30 8060 C 782.746 -1.2868 -4.20867 0
M  V30 8061 H 779.865 -0.347972 -0.64968 0
M  V30 8062 H 782.507 -1.44204 -1.23715 0
M  V30 8063 H 780.657 -1.17303 -3.70368 0
M  V30 8064 H 782.329 -3.63553 -2.83949 0
M  V30 8065 H 780.572 -3.46108 -2.61518 0
M  V30 8066 H 781.243 -3.52527 -4.24769 0
M  V30 8067 H 783.719 -1.6461 -3.82155 0
M  V30 8068 H 782.595 -1.75645 -5.20038 0
M  V30 8069 H 782.856 -0.206491 -4.41618 0
M  V30 8070 N 781.915 1.24427 -0.967243 0
M  V30 8071 C 783.161 1.93089 -0.639404 0
M  V30 8072 C 783.516 1.7422 0.816407 0
M  V30 8073 O 782.809 1.08435 1.57964 0
M  V30 8074 C 783.003 3.44568 -0.949096 0
M  V30 8075 C 782.832 3.7817 -2.43346 0
M  V30 8076 C 781.602 3.99561 -3.09321 0
M  V30 8077 C 783.8 3.84687 -3.41351 0
M  V30 8078 N 781.782 4.20259 -4.475 0
M  V30 8079 C 783.153 4.10223 -4.64884 0
M  V30 8080 C 785.208 3.67421 -3.36015 0
M  V30 8081 C 783.911 4.20286 -5.8374 0
M  V30 8082 C 785.937 3.78731 -4.54221 0
M  V30 8083 C 785.299 4.04691 -5.76545 0
M  V30 8084 H 781.398 0.728291 -0.284809 0
M  V30 8085 H 783.982 1.49941 -1.24201 0
M  V30 8086 H 782.153 3.86582 -0.375308 0
M  V30 8087 H 783.885 4.00524 -0.579876 0
M  V30 8088 H 780.64 3.95946 -2.59853 0
M  V30 8089 H 781.064 4.34588 -5.19097 0
M  V30 8090 H 785.706 3.46358 -2.42479 0
M  V30 8091 H 783.424 4.40162 -6.77704 0
M  V30 8092 H 787.01 3.66743 -4.51653 0
M  V30 8093 H 785.89 4.1324 -6.66485 0
M  V30 8094 N 783.393 0.737304 1.3929 0
M  V30 8095 C 784.639 0.286681 2.00763 0
M  V30 8096 C 784.972 -1.12388 1.58375 0
M  V30 8097 O 784.247 -1.76661 0.813699 0
M  V30 8098 C 784.53 0.391147 3.57969 0
M  V30 8099 C 784.383 1.84165 4.1037 0
M  V30 8100 C 785.702 -0.225072 4.39524 0
M  V30 8101 H 782.821 0.105642 0.729389 0
M  V30 8102 H 785.463 0.933892 1.65464 0
M  V30 8103 H 783.613 -0.159875 3.88171 0
M  V30 8104 H 785.285 2.44972 3.90879 0
M  V30 8105 H 783.528 2.3622 3.63844 0
M  V30 8106 H 784.199 1.866 5.19504 0
M  V30 8107 H 786.675 0.244677 4.1538 0
M  V30 8108 H 785.551 -0.121646 5.48765 0
M  V30 8109 H 785.812 -1.31141 4.22202 0
M  V30 8110 N 784.871 -1.49948 0.485112 0
M  V30 8111 C 785.818 -2.28819 -0.301729 0
M  V30 8112 C 786.788 -1.34496 -0.974683 0
M  V30 8113 O 787.973 -1.63444 -0.984418 0
M  V30 8114 C 785.113 -3.16758 -1.36961 0
M  V30 8115 C 784.226 -4.26125 -0.710027 0
M  V30 8116 C 783.361 -5.01302 -1.75699 0
M  V30 8117 C 782.4 -6.02525 -1.07841 0
M  V30 8118 N 781.537 -6.70927 -2.06886 0
M  V30 8119 H 786.377 -2.95604 0.377127 0
M  V30 8120 H 783.914 -1.45764 0.197826 0
M  V30 8121 H 785.872 -3.66106 -2.00056 0
M  V30 8122 H 784.502 -2.51991 -2.01744 0
M  V30 8123 H 783.554 -3.80385 0.0338278 0
M  V30 8124 H 784.866 -4.98493 -0.175079 0
M  V30 8125 H 784.02 -5.54438 -2.46339 0
M  V30 8126 H 782.759 -4.28672 -2.32577 0
M  V30 8127 H 781.764 -5.48635 -0.357706 0
M  V30 8128 H 782.989 -6.77134 -0.516345 0
M  V30 8129 H 780.935 -6.01079 -2.62755 0
M  V30 8130 H 780.852 -7.39216 -1.58414 0
M  V30 8131 H 782.12 -7.28675 -2.76863 0
M  V30 8132 N 786.349 -0.21828 -1.56081 0
M  V30 8133 C 787.626 0.463143 -1.90038 0
M  V30 8134 C 788.006 1.77982 -1.13515 0
M  V30 8135 O 787.354 2.27199 -0.24345 0
M  V30 8136 C 787.564 0.659292 -3.42716 0
M  V30 8137 C 788.912 0.968203 -4.13414 0
M  V30 8138 O 789.936 0.746195 -3.48296 0
M  V30 8139 O 788.795 1.38936 -5.28544 0
M  V30 8140 H 785.889 0.244435 -0.790051 0
M  V30 8141 H 788.435 -0.260221 -1.67693 0
M  V30 8142 H 787.207 -0.269584 -3.9037 0
M  V30 8143 H 786.83 1.43426 -3.7083 0
M  V30 8144 N 787.827 1.57504 0.0551401 0
M  V30 8145 C 788.777 2.0128 1.071 0
M  V30 8146 C 789.761 0.897592 1.33537 0
M  V30 8147 O 790.953 1.16151 1.33558 0
M  V30 8148 C 788.082 2.47414 2.37994 0
M  V30 8149 C 787.168 3.65703 2.14761 0
M  V30 8150 N 787.559 4.79323 1.61504 0
M  V30 8151 C 785.857 3.72574 2.45162 0
M  V30 8152 C 786.558 5.61089 1.53472 0
M  V30 8153 N 785.534 5.05426 2.00114 0
M  V30 8154 H 789.336 2.86558 0.652829 0
M  V30 8155 H 786.85 1.60274 0.26193 0
M  V30 8156 H 788.847 2.77023 3.11551 0
M  V30 8157 H 787.507 1.6353 2.80514 0
M  V30 8158 H 788.518 5.01284 1.30134 0
M  V30 8159 H 785.195 2.99439 2.90934 0
M  V30 8160 H 786.585 6.62328 1.13008 0
M  V30 8161 N 789.305 -0.326896 1.54172 0
M  V30 8162 C 790.716 -0.901533 1.63491 0
M  V30 8163 C 791.067 -1.88994 0.52684 0
M  V30 8164 O 790.192 -2.137 -0.340794 0
M  V30 8165 C 790.787 -1.64192 2.96355 0
M  V30 8166 C 789.346 -2.16533 3.07881 0
M  V30 8167 C 788.493 -0.98966 2.59039 0
M  V30 8168 H 791.444 -0.104568 1.58355 0
M  V30 8169 H 791.465 -2.50592 2.86328 0
M  V30 8170 H 790.977 -0.922291 3.76982 0
M  V30 8171 H 789.078 -2.91622 2.31922 0
M  V30 8172 H 789.191 -2.41762 4.13628 0
M  V30 8173 H 787.555 -1.36787 2.14852 0
M  V30 8174 H 788.338 -0.284401 3.4212 0
M  V30 8175 N 790.784 -1.46188 -0.588786 0
M  V30 8176 C 791.714 -1.59148 -1.70863 0
M  V30 8177 C 792.695 -0.442083 -1.64255 0
M  V30 8178 O 793.88 -0.667575 -1.82365 0
M  V30 8179 C 791.01 -1.5757 -3.09498 0
M  V30 8180 C 789.964 -2.71418 -3.30932 0
M  V30 8181 C 789.29 -2.549 -4.70032 0
M  V30 8182 C 790.59 -4.1329 -3.19356 0
M  V30 8183 H 792.284 -2.52889 -1.60274 0
M  V30 8184 H 789.83 -1.21707 -0.769638 0
M  V30 8185 H 791.783 -1.65231 -3.87655 0
M  V30 8186 H 790.507 -0.603705 -3.20972 0
M  V30 8187 H 789.166 -2.63216 -2.55172 0
M  V30 8188 H 788.814 -1.55797 -4.78264 0
M  V30 8189 H 788.514 -3.31257 -4.85327 0
M  V30 8190 H 790.038 -2.64443 -5.50366 0
M  V30 8191 H 791.452 -4.22636 -3.87365 0
M  V30 8192 H 789.849 -4.90187 -3.46175 0
M  V30 8193 H 790.919 -4.33874 -2.16522 0
M  V30 8194 N 792.262 0.832906 -1.33792 0
M  V30 8195 C 793.172 1.97514 -1.26592 0
M  V30 8196 C 794.188 1.73114 -0.175391 0
M  V30 8197 O 795.364 1.97387 -0.400062 0
M  V30 8198 C 792.429 3.31625 -1.01121 0
M  V30 8199 C 791.49 3.69101 -2.19233 0
M  V30 8200 C 790.723 4.96813 -1.94968 0
M  V30 8201 O 790.946 5.63208 -0.902955 0
M  V30 8202 O 789.88 5.31932 -2.8166 0
M  V30 8203 H 793.706 2.0653 -2.22664 0
M  V30 8204 H 791.291 0.966826 -1.13898 0
M  V30 8205 H 793.173 4.11968 -0.886571 0
M  V30 8206 H 791.848 3.23599 -0.080822 0
M  V30 8207 H 790.755 2.89243 -2.37253 0
M  V30 8208 H 792.088 3.818 -3.10628 0
M  V30 8209 N 793.74 1.17359 1.05189 0
M  V30 8210 C 794.687 0.890325 2.12936 0
M  V30 8211 C 795.657 -0.165779 1.65271 0
M  V30 8212 O 796.842 -0.0285672 1.90779 0
M  V30 8213 C 793.982 0.409793 3.42658 0
M  V30 8214 C 793.095 1.53002 4.03998 0
M  V30 8215 C 792.23 1.00336 5.21638 0
M  V30 8216 C 791.269 2.09903 5.74984 0
M  V30 8217 N 790.406 1.58714 6.83926 0
M  V30 8218 H 795.246 1.81299 2.36505 0
M  V30 8219 H 792.783 0.904249 1.16025 0
M  V30 8220 H 794.741 0.112743 4.17048 0
M  V30 8221 H 793.371 -0.475915 3.19272 0
M  V30 8222 H 792.423 1.9428 3.27047 0
M  V30 8223 H 793.735 2.3564 4.39631 0
M  V30 8224 H 792.889 0.660158 6.03098 0
M  V30 8225 H 791.628 0.14642 4.8748 0
M  V30 8226 H 790.633 2.45081 4.92154 0
M  V30 8227 H 791.858 2.96013 6.1119 0
M  V30 8228 H 789.804 0.752915 6.51665 0
M  V30 8229 H 789.721 2.34959 7.18561 0
M  V30 8230 H 790.989 1.27287 7.69037 0
M  V30 8231 N 795.218 -1.23913 0.973828 0
M  V30 8232 C 796.448 -1.95911 0.655938 0
M  V30 8233 C 796.856 -1.72375 -0.779967 0
M  V30 8234 O 796.199 -1.00807 -1.5357 0
M  V30 8235 C 796.261 -3.49103 0.858324 0
M  V30 8236 C 795.925 -3.96347 2.27504 0
M  V30 8237 C 796.922 -4.05537 3.25324 0
M  V30 8238 C 794.607 -4.29509 2.60437 0
M  V30 8239 C 796.601 -4.47233 4.5416 0
M  V30 8240 C 794.288 -4.70887 3.89498 0
M  V30 8241 C 795.286 -4.79714 4.86172 0
M  V30 8242 O 794.974 -5.20166 6.1293 0
M  V30 8243 H 794.706 -0.630721 0.243244 0
M  V30 8244 H 797.26 -1.58534 1.30599 0
M  V30 8245 H 795.49 -3.86405 0.151097 0
M  V30 8246 H 797.179 -4.02311 0.538592 0
M  V30 8247 H 797.945 -3.80128 3.0121 0
M  V30 8248 H 793.824 -4.21853 1.85906 0
M  V30 8249 H 797.368 -4.54038 5.29618 0
M  V30 8250 H 793.265 -4.95744 4.1341 0
M  V30 8251 H 794.033 -5.38298 6.16586 0
M  V30 8252 N 796.696 -0.74468 -1.38897 0
M  V30 8253 C 797.643 -0.111064 -2.30533 0
M  V30 8254 C 798.613 0.719276 -1.49719 0
M  V30 8255 O 799.798 0.677244 -1.78376 0
M  V30 8256 C 796.938 0.78292 -3.36102 0
M  V30 8257 C 796.051 -0.0610817 -4.31957 0
M  V30 8258 C 795.186 0.835075 -5.24595 0
M  V30 8259 C 794.225 -0.0130974 -6.12099 0
M  V30 8260 N 793.362 0.839525 -6.97063 0
M  V30 8261 H 798.202 -0.898113 -2.84144 0
M  V30 8262 H 795.739 -0.454537 -1.39901 0
M  V30 8263 H 797.697 1.31578 -3.95908 0
M  V30 8264 H 796.327 1.53585 -2.83922 0
M  V30 8265 H 795.379 -0.711469 -3.73687 0
M  V30 8266 H 796.691 -0.716482 -4.93627 0
M  V30 8267 H 795.845 1.43542 -5.89475 0
M  V30 8268 H 794.584 1.52423 -4.63269 0
M  V30 8269 H 793.589 -0.626179 -5.46223 0
M  V30 8270 H 794.814 -0.699181 -6.75491 0
M  V30 8271 H 792.76 1.5138 -6.38295 0
M  V30 8272 H 792.677 0.240823 -7.55616 0
M  V30 8273 H 793.945 1.42513 -7.66362 0
M  V30 8274 N 798.174 1.49689 -0.493057 0
M  V30 8275 C 799.42 2.03347 0.0463792 0
M  V30 8276 C 799.775 1.36671 1.35421 0
M  V30 8277 O 799.068 0.4907 1.8521 0
M  V30 8278 C 799.262 3.56427 0.263536 0
M  V30 8279 C 799.091 4.3794 -1.02169 0
M  V30 8280 C 797.861 4.8025 -1.57125 0
M  V30 8281 C 800.059 4.77 -1.9229 0
M  V30 8282 N 798.041 5.46162 -2.80321 0
M  V30 8283 C 799.412 5.42549 -3.00067 0
M  V30 8284 C 801.467 4.58945 -1.93064 0
M  V30 8285 C 800.17 5.91954 -4.08635 0
M  V30 8286 C 802.196 5.09306 -3.00602 0
M  V30 8287 C 801.558 5.74849 -4.07097 0
M  V30 8288 H 797.657 0.781644 -0.0236097 0
M  V30 8289 H 800.241 1.82949 -0.666151 0
M  V30 8290 H 798.412 3.76725 0.945118 0
M  V30 8291 H 800.144 3.96729 0.79927 0
M  V30 8292 H 796.899 4.60228 -1.11746 0
M  V30 8293 H 797.323 5.83711 -3.42944 0
M  V30 8294 H 801.965 4.07685 -1.12039 0
M  V30 8295 H 799.683 6.4224 -4.90463 0
M  V30 8296 H 803.269 4.97152 -3.0221 0
M  V30 8297 H 802.149 6.13113 -4.88939 0
M  V30 8298 N 799.652 0.226554 1.55963 0
M  V30 8299 C 800.6 -0.697922 2.21882 0
M  V30 8300 C 801.594 -1.19586 1.19981 0
M  V30 8301 O 802.8 -1.15511 1.38048 0
M  V30 8302 H 799.175 -0.243501 0.711485 0
M  V30 8303 H 801.146 -0.118576 2.98164 0
M  V30 8304 C 799.895 -1.89309 2.91646 0
M  V30 8305 H 799.218 -1.51906 3.69817 0
M  V30 8306 H 800.658 -2.51762 3.41162 0
M  V30 8307 C 799.117 -2.75162 1.94391 0
M  V30 8308 O 799.647 -3.74071 1.46402 0
M  V30 8309 N 797.853 -2.41302 1.61932 0
M  V30 8310 H 797.4 -1.60923 2.01151 0
M  V30 8311 H 797.358 -2.99023 0.971219 0
M  V30 8312 N 801.13 -1.57531 -0.0467866 0
M  V30 8313 C 802.36 -1.92417 -0.752279 0
M  V30 8314 C 802.768 -0.823134 -1.70356 0
M  V30 8315 O 802.111 0.210598 -1.82489 0
M  V30 8316 C 802.173 -3.22974 -1.57887 0
M  V30 8317 C 801.837 -4.50045 -0.794285 0
M  V30 8318 C 802.834 -5.19799 -0.102368 0
M  V30 8319 C 800.519 -4.96608 -0.754061 0
M  V30 8320 C 802.513 -6.34385 0.619267 0
M  V30 8321 C 800.2 -6.11093 -0.0286682 0
M  V30 8322 C 801.198 -6.79835 0.656772 0
M  V30 8323 O 800.886 -7.92133 1.37042 0
M  V30 8324 H 800.618 -0.640029 -0.217576 0
M  V30 8325 H 803.172 -2.05395 -0.0137438 0
M  V30 8326 H 801.402 -3.06273 -2.3608 0
M  V30 8327 H 803.091 -3.43319 -2.16533 0
M  V30 8328 H 803.857 -4.8484 -0.124589 0
M  V30 8329 H 799.736 -4.42958 -1.27706 0
M  V30 8330 H 803.28 -6.87975 1.15483 0
M  V30 8331 H 799.177 -6.455 -0.00446214 0
M  V30 8332 H 799.945 -8.08394 1.28227 0
M  V30 8333 N 802.608 0.318715 -1.54344 0
M  V30 8334 C 803.854 1.05765 -1.73037 0
M  V30 8335 C 804.187 1.87514 -0.505181 0
M  V30 8336 O 803.462 1.88021 0.497838 0
M  V30 8337 C 803.745 1.97836 -3.00887 0
M  V30 8338 C 803.598 1.19384 -4.33668 0
M  V30 8339 C 804.917 2.97285 -3.24514 0
M  V30 8340 H 802.036 0.383104 -0.629603 0
M  V30 8341 H 804.678 0.333864 -1.87044 0
M  V30 8342 H 802.828 2.59552 -2.89076 0
M  V30 8343 H 804.5 0.600906 -4.57369 0
M  V30 8344 H 802.743 0.496198 -4.30953 0
M  V30 8345 H 803.414 1.87014 -5.19355 0
M  V30 8346 H 805.89 2.45693 -3.35819 0
M  V30 8347 H 804.766 3.58887 -4.15321 0
M  V30 8348 H 805.027 3.70003 -2.41971 0
M  V30 8349 N 804.086 1.46499 0.581025 0
M  V30 8350 C 805.049 1.5677 1.672 0
M  V30 8351 C 806.049 0.444716 1.54528 0
M  V30 8352 O 807.239 0.709074 1.59116 0
M  V30 8353 C 804.371 1.4896 3.06633 0
M  V30 8354 H 805.564 2.54 1.5945 0
M  V30 8355 H 803.117 1.34334 0.799003 0
M  V30 8356 H 803.852 0.530168 3.19937 0
M  V30 8357 H 803.637 2.30439 3.17239 0
M  V30 8358 H 805.127 1.59237 3.86048 0
M  V30 8359 N 805.565 -0.825799 1.34232 0
M  V30 8360 C 806.528 -1.91808 1.25468 0
M  V30 8361 C 807.528 -1.59893 0.170567 0
M  V30 8362 O 808.718 -1.68986 0.422996 0
M  V30 8363 C 805.85 -3.27786 0.93644 0
M  V30 8364 H 807.043 -2.01003 2.22571 0
M  V30 8365 H 804.596 -1.01944 1.18479 0
M  V30 8366 H 805.331 -3.24285 -0.0315408 0
M  V30 8367 H 805.116 -3.52333 1.72057 0
M  V30 8368 H 806.606 -4.07782 0.900214 0
M  V30 8369 N 807.043 -1.17915 -1.04565 0
M  V30 8370 C 808.271 -0.99616 -1.8134 0
M  V30 8371 C 808.686 0.455509 -1.83223 0
M  V30 8372 O 808.043 1.31636 -1.26405 0
M  V30 8373 C 808.094 -1.53758 -3.27171 0
M  V30 8374 O 807.815 -2.93241 -3.25486 0
M  V30 8375 C 809.316 -1.40007 -4.2061 0
M  V30 8376 H 806.536 -0.352055 -0.571225 0
M  V30 8377 H 809.08 -1.56349 -1.31815 0
M  V30 8378 H 807.235 -1.01213 -3.73945 0
M  V30 8379 H 807.649 -3.18392 -4.16805 0
M  V30 8380 H 809.123 -1.82695 -5.2089 0
M  V30 8381 H 809.6 -0.348054 -4.37819 0
M  V30 8382 H 810.206 -1.916 -3.79697 0
M  V30 8383 N 808.521 1.23394 -0.980386 0
M  V30 8384 C 809.768 1.91809 -0.649261 0
M  V30 8385 C 810.096 1.765 0.817197 0
M  V30 8386 O 809.351 1.11979 1.60497 0
M  V30 8387 C 809.65 3.43542 -0.985588 0
M  V30 8388 C 809.316 3.79031 -2.44225 0
M  V30 8389 C 807.978 3.88429 -2.84035 0
M  V30 8390 C 810.33 3.96145 -3.38702 0
M  V30 8391 C 807.658 4.12368 -4.17336 0
M  V30 8392 C 810.01 4.21583 -4.71646 0
M  V30 8393 C 808.674 4.29203 -5.11215 0
M  V30 8394 H 807.944 0.70188 -0.237581 0
M  V30 8395 H 810.591 1.4642 -1.23424 0
M  V30 8396 H 808.896 3.90503 -0.318521 0
M  V30 8397 H 810.593 3.94708 -0.707596 0
M  V30 8398 H 807.183 3.7229 -2.12362 0
M  V30 8399 H 811.367 3.88274 -3.09123 0
M  V30 8400 H 806.623 4.1649 -4.47601 0
M  V30 8401 H 810.797 4.33769 -5.4481 0
M  V30 8402 H 808.424 4.47505 -6.14527 0
M  V30 8403 N 809.999 0.752036 1.385 0
M  V30 8404 C 811.224 0.316993 2.04963 0
M  V30 8405 C 811.649 -1.04582 1.56346 0
M  V30 8406 O 811.007 -1.66616 0.714755 0
M  V30 8407 C 811.055 0.347235 3.58924 0
M  V30 8408 O 810.159 -0.659296 4.07096 0
M  V30 8409 H 809.5 0.140652 0.648932 0
M  V30 8410 H 812.03 1.02272 1.77205 0
M  V30 8411 H 812.04 0.19757 4.07521 0
M  V30 8412 H 810.715 1.34157 3.93668 0
M  V30 8413 H 809.292 -0.474371 3.6987 0
M  V30 8414 N 811.477 -1.49425 0.500989 0
M  V30 8415 C 812.424 -2.29126 -0.277443 0
M  V30 8416 C 813.394 -1.35522 -0.960363 0
M  V30 8417 O 814.579 -1.64479 -0.967027 0
M  V30 8418 C 811.719 -3.18193 -1.33593 0
M  V30 8419 C 810.832 -4.26854 -0.664791 0
M  V30 8420 C 809.967 -5.03137 -1.70372 0
M  V30 8421 C 809.006 -6.03635 -1.01445 0
M  V30 8422 N 808.143 -6.73083 -1.99758 0
M  V30 8423 H 812.983 -2.95187 0.408458 0
M  V30 8424 H 810.52 -1.45546 0.213275 0
M  V30 8425 H 812.478 -3.68207 -1.96161 0
M  V30 8426 H 811.108 -2.54116 -1.9906 0
M  V30 8427 H 810.16 -3.80328 0.0741708 0
M  V30 8428 H 811.472 -4.9865 -0.122197 0
M  V30 8429 H 810.626 -5.5702 -2.40445 0
M  V30 8430 H 809.365 -4.31114 -2.28017 0
M  V30 8431 H 808.37 -5.48984 -0.299496 0
M  V30 8432 H 809.595 -6.77644 -0.444497 0
M  V30 8433 H 807.541 -6.03832 -2.56365 0
M  V30 8434 H 807.458 -7.40855 -1.50565 0
M  V30 8435 H 808.726 -7.3157 -2.69119 0
M  V30 8436 N 812.955 -0.234822 -1.55841 0
M  V30 8437 C 813.865 0.680828 -2.24504 0
M  V30 8438 C 814.881 1.20306 -1.25708 0
M  V30 8439 O 816.057 1.24188 -1.58554 0
M  V30 8440 C 813.122 1.86636 -2.92178 0
M  V30 8441 C 812.183 1.3848 -4.06352 0
M  V30 8442 C 811.416 2.51382 -4.70789 0
M  V30 8443 O 811.639 3.69831 -4.34259 0
M  V30 8444 O 810.573 2.21828 -5.59532 0
M  V30 8445 H 814.399 0.12583 -3.03439 0
M  V30 8446 H 811.984 -0.00381817 -1.494 0
M  V30 8447 H 813.866 2.55845 -3.34845 0
M  V30 8448 H 812.541 2.40921 -2.16192 0
M  V30 8449 H 811.448 0.660341 -3.68226 0
M  V30 8450 H 812.781 0.888177 -4.8412 0
M  V30 8451 N 814.433 1.57553 0.0384317 0
M  V30 8452 C 815.71 1.79977 0.766002 0
M  V30 8453 C 816.09 0.830625 1.94072 0
M  V30 8454 O 815.438 -0.129243 2.28134 0
M  V30 8455 C 815.648 3.27434 1.20781 0
M  V30 8456 C 816.996 3.92167 1.62758 0
M  V30 8457 O 818.02 3.31527 1.30263 0
M  V30 8458 O 816.879 4.98917 2.23035 0
M  V30 8459 H 813.973 0.739787 0.369654 0
M  V30 8460 H 816.519 1.69693 0.0159312 0
M  V30 8461 H 815.291 3.89558 0.368792 0
M  V30 8462 H 814.914 3.42571 2.01819 0
M  V30 8463 N 815.911 -0.310526 1.54511 0
M  V30 8464 C 817.159 -1.04484 1.72996 0
M  V30 8465 C 817.48 -1.88118 0.513479 0
M  V30 8466 O 816.75 -1.90119 -0.472384 0
M  V30 8467 H 815.33 -0.388747 0.637875 0
M  V30 8468 H 817.992 -0.343811 1.91844 0
M  V30 8469 H 817.088 -1.70341 2.61515 0
M  V30 8470 N 817.389 -1.46805 -0.573248 0
M  V30 8471 C 818.336 -1.58084 -1.68161 0
M  V30 8472 C 819.306 -0.424636 -1.6058 0
M  V30 8473 O 820.491 -0.642623 -1.79652 0
M  V30 8474 C 817.631 -1.58601 -3.06496 0
M  V30 8475 C 816.744 -2.85023 -3.24632 0
M  V30 8476 C 815.879 -2.76981 -4.53271 0
M  V30 8477 C 814.918 -3.983 -4.64783 0
M  V30 8478 N 814.055 -3.88589 -5.84759 0
M  V30 8479 H 818.895 -2.52755 -1.57858 0
M  V30 8480 H 816.432 -1.25385 -0.769218 0
M  V30 8481 H 818.39 -1.56885 -3.86579 0
M  V30 8482 H 817.02 -0.674553 -3.15673 0
M  V30 8483 H 816.072 -2.96678 -2.38089 0
M  V30 8484 H 817.384 -3.7491 -3.29004 0
M  V30 8485 H 816.538 -2.73424 -5.41594 0
M  V30 8486 H 815.277 -1.84751 -4.51352 0
M  V30 8487 H 814.282 -4.02179 -3.74876 0
M  V30 8488 H 815.507 -4.91639 -4.68474 0
M  V30 8489 H 813.453 -2.99151 -5.83819 0
M  V30 8490 H 813.37 -4.7214 -5.90441 0
M  V30 8491 H 814.638 -3.89022 -6.75486 0
M  V30 8492 N 818.867 0.818669 -1.34668 0
M  V30 8493 C 820.116 1.57017 -1.26604 0
M  V30 8494 C 820.429 1.94936 0.161036 0
M  V30 8495 O 821.635 2.69051 0.36386 0
M  V30 8496 C 820.091 2.83305 -2.2196 0
M  V30 8497 C 819.699 2.52671 -3.69948 0
M  V30 8498 C 821.443 3.61324 -2.22813 0
M  V30 8499 C 819.35 3.75178 -4.5716 0
M  V30 8500 H 818.28 0.589323 -0.470335 0
M  V30 8501 H 820.931 0.900956 -1.59859 0
M  V30 8502 H 819.313 3.51874 -1.81661 0
M  V30 8503 H 820.487 1.92186 -4.18809 0
M  V30 8504 H 818.802 1.8792 -3.71584 0
M  V30 8505 H 821.399 4.52294 -2.85192 0
M  V30 8506 H 821.742 3.97759 -1.22857 0
M  V30 8507 H 822.275 2.99703 -2.61578 0
M  V30 8508 H 819.014 3.43861 -5.58068 0
M  V30 8509 H 818.534 4.34931 -4.13031 0
M  V30 8510 H 820.213 4.42542 -4.71981 0
M  V30 8511 N 820.346 1.18468 1.03938 0
M  V30 8512 C 821.293 0.912859 2.1198 0
M  V30 8513 C 822.263 -0.14824 1.65437 0
M  V30 8514 O 823.448 -0.008331 1.90798 0
M  V30 8515 C 820.588 0.446114 3.42204 0
M  V30 8516 C 819.701 1.57278 4.02353 0
M  V30 8517 C 818.836 1.05863 5.20544 0
M  V30 8518 C 817.875 2.1599 5.72726 0
M  V30 8519 N 817.012 1.65959 6.82204 0
M  V30 8520 H 821.852 1.83798 2.34569 0
M  V30 8521 H 819.389 0.916504 1.15059 0
M  V30 8522 H 821.347 0.15697 4.16905 0
M  V30 8523 H 819.977 -0.442025 3.19759 0
M  V30 8524 H 819.029 1.97737 3.24968 0
M  V30 8525 H 820.341 2.40289 4.37107 0
M  V30 8526 H 819.495 0.724087 6.02364 0
M  V30 8527 H 818.234 0.198116 4.87297 0
M  V30 8528 H 817.239 2.50287 4.89527 0
M  V30 8529 H 818.464 3.02479 6.08016 0
M  V30 8530 H 816.41 0.82199 6.5083 0
M  V30 8531 H 816.327 2.42567 7.16029 0
M  V30 8532 H 817.595 1.35436 7.67644 0
M  V30 8533 N 821.824 -1.22873 0.986916 0
M  V30 8534 C 822.754 -2.2688 0.552064 0
M  V30 8535 C 823.735 -1.64883 -0.418048 0
M  V30 8536 O 824.92 -1.9171 -0.30999 0
M  V30 8537 C 822.05 -3.47018 -0.139959 0
M  V30 8538 C 821.004 -4.21411 0.748091 0
M  V30 8539 C 820.33 -5.34645 -0.0765132 0
M  V30 8540 C 821.63 -4.80726 2.04206 0
M  V30 8541 H 823.324 -2.63507 1.42143 0
M  V30 8542 H 820.87 -1.26668 0.68492 0
M  V30 8543 H 822.823 -4.18931 -0.455527 0
M  V30 8544 H 821.547 -3.0947 -1.04382 0
M  V30 8545 H 820.206 -3.51325 1.04721 0
M  V30 8546 H 819.854 -4.93339 -0.981109 0
M  V30 8547 H 819.554 -5.85342 0.514606 0
M  V30 8548 H 821.078 -6.09377 -0.386313 0
M  V30 8549 H 822.492 -5.44612 1.79083 0
M  V30 8550 H 820.889 -5.41737 2.5815 0
M  V30 8551 H 821.959 -4.01109 2.72469 0
M  V30 8552 N 823.302 -0.75937 -1.38099 0
M  V30 8553 C 824.532 -0.328634 -2.0397 0
M  V30 8554 C 824.94 1.04989 -1.57398 0
M  V30 8555 O 824.283 1.67918 -0.744932 0
M  V30 8556 C 824.345 -0.279216 -3.58414 0
M  V30 8557 C 824.009 -1.60025 -4.28067 0
M  V30 8558 C 825.006 -2.55048 -4.53041 0
M  V30 8559 C 822.691 -1.87128 -4.66142 0
M  V30 8560 C 824.685 -3.7539 -5.15132 0
M  V30 8561 C 822.372 -3.07742 -5.27956 0
M  V30 8562 C 823.37 -4.01694 -5.52387 0
M  V30 8563 O 823.058 -5.20186 -6.12912 0
M  V30 8564 H 822.79 -0.137443 -0.66188 0
M  V30 8565 H 825.344 -1.03082 -1.77661 0
M  V30 8566 H 823.574 0.479254 -3.83719 0
M  V30 8567 H 825.263 0.122781 -4.05714 0
M  V30 8568 H 826.029 -2.35387 -4.24049 0
M  V30 8569 H 821.908 -1.14833 -4.46469 0
M  V30 8570 H 825.452 -4.48737 -5.34117 0
M  V30 8571 H 821.349 -3.27294 -5.56371 0
M  V30 8572 H 822.117 -5.20846 -6.31397 0
M  V30 8573 N 824.78 1.49157 -0.508906 0
M  V30 8574 C 825.71 2.32109 0.254469 0
M  V30 8575 C 826.691 1.40754 0.955111 0
M  V30 8576 O 827.876 1.69658 0.944983 0
M  V30 8577 C 825.006 3.21458 1.3146 0
M  V30 8578 C 823.96 4.2167 0.733368 0
M  V30 8579 C 823.286 5.00009 1.8946 0
M  V30 8580 C 824.586 5.21544 -0.280875 0
M  V30 8581 H 826.28 2.9618 -0.43795 0
M  V30 8582 H 823.826 1.4243 -0.212062 0
M  V30 8583 H 825.779 3.78305 1.85643 0
M  V30 8584 H 824.503 2.55346 2.03632 0
M  V30 8585 H 823.162 3.65979 0.213231 0
M  V30 8586 H 822.81 4.30338 2.60419 0
M  V30 8587 H 822.51 5.67821 1.51173 0
M  V30 8588 H 824.034 5.59702 2.44061 0
M  V30 8589 H 825.448 5.73039 0.173095 0
M  V30 8590 H 823.845 5.97291 -0.580006 0
M  V30 8591 H 824.915 4.69969 -1.19404 0
M  V30 8592 N 826.258 0.243083 1.55714 0
M  V30 8593 C 827.206 -0.674349 2.2261 0
M  V30 8594 C 828.2 -1.18307 1.21243 0
M  V30 8595 O 829.406 -1.1404 1.39265 0
M  V30 8596 H 825.781 -0.235941 0.714028 0
M  V30 8597 H 827.752 -0.0869446 2.98273 0
M  V30 8598 C 826.501 -1.86206 2.93637 0
M  V30 8599 H 825.824 -1.47975 3.71407 0
M  V30 8600 H 827.264 -2.4813 3.43813 0
M  V30 8601 C 825.723 -2.73084 1.97298 0
M  V30 8602 O 826.253 -3.72497 1.50361 0
M  V30 8603 N 824.459 -2.39571 1.64482 0
M  V30 8604 H 824.006 -1.5878 2.02846 0
M  V30 8605 H 823.964 -2.97976 1.00288 0
M  V30 8606 N 827.736 -1.57571 -0.0300757 0
M  V30 8607 C 828.984 -1.88852 -0.719666 0
M  V30 8608 C 829.305 -0.840645 -1.75949 0
M  V30 8609 O 828.575 0.125854 -1.95495 0
M  V30 8610 H 827.155 -0.696965 -0.268792 0
M  V30 8611 H 829.817 -1.949 0.00373285 0
M  V30 8612 H 828.913 -2.87695 -1.20987 0
M  V30 8613 N 829.214 0.302327 -1.54673 0
M  V30 8614 C 830.124 1.39542 -1.88587 0
M  V30 8615 C 831.14 1.55543 -0.779895 0
M  V30 8616 O 832.316 1.70233 -1.07623 0
M  V30 8617 C 829.381 2.7394 -2.12504 0
M  V30 8618 C 828.442 2.66935 -3.3622 0
M  V30 8619 C 827.675 3.94923 -3.58987 0
M  V30 8620 O 827.898 4.94218 -2.84789 0
M  V30 8621 O 826.832 3.96896 -4.52501 0
M  V30 8622 H 830.658 1.13784 -2.81579 0
M  V30 8623 H 828.243 0.49827 -1.40846 0
M  V30 8624 H 830.125 3.5346 -2.29443 0
M  V30 8625 H 828.8 2.99544 -1.22698 0
M  V30 8626 H 827.707 1.85892 -3.24646 0
M  V30 8627 H 829.04 2.46283 -4.26152 0
M  V30 8628 N 830.692 1.47107 0.565454 0
M  V30 8629 C 831.602 1.61591 1.70075 0
M  V30 8630 C 832.618 0.498931 1.66693 0
M  V30 8631 O 833.794 0.765372 1.8629 0
M  V30 8632 C 830.859 1.61887 3.06583 0
M  V30 8633 C 829.92 2.84949 3.21096 0
M  V30 8634 C 829.153 2.85221 4.51093 0
M  V30 8635 O 829.376 1.94959 5.36048 0
M  V30 8636 O 828.31 3.76982 4.69221 0
M  V30 8637 H 832.136 2.57638 1.60799 0
M  V30 8638 H 829.721 1.30097 0.73451 0
M  V30 8639 H 831.603 1.64809 3.87835 0
M  V30 8640 H 830.278 0.69005 3.16259 0
M  V30 8641 H 829.185 2.87575 2.39273 0
M  V30 8642 H 830.518 3.77098 3.1632 0
M  V30 8643 N 832.17 -0.811516 1.35101 0
M  V30 8644 C 833.416 -1.57068 1.28287 0
M  V30 8645 C 833.749 -1.93667 -0.143808 0
M  V30 8646 O 833.024 -1.60953 -1.09199 0
M  V30 8647 C 833.307 -2.86259 2.18466 0
M  V30 8648 C 833.16 -2.56168 3.69727 0
M  V30 8649 C 834.479 -3.87924 2.07852 0
M  V30 8650 H 831.598 -0.569869 0.467353 0
M  V30 8651 H 834.24 -0.934023 1.65457 0
M  V30 8652 H 832.39 -3.4059 1.86898 0
M  V30 8653 H 834.062 -2.08059 4.11715 0
M  V30 8654 H 832.305 -1.89436 3.90252 0
M  V30 8655 H 832.976 -3.48344 4.28206 0
M  V30 8656 H 835.452 -3.4298 2.35593 0
M  V30 8657 H 834.328 -4.76106 2.73157 0
M  V30 8658 H 834.589 -4.2923 1.05896 0
M  V30 8659 N 833.648 -1.19017 -1.03309 0
M  V30 8660 C 834.611 -0.926076 -2.09658 0
M  V30 8661 C 835.611 0.0917077 -1.60538 0
M  V30 8662 O 836.801 -0.142574 -1.73616 0
M  V30 8663 C 833.933 -0.390958 -3.38651 0
M  V30 8664 H 835.126 -1.86923 -2.3452 0
M  V30 8665 H 832.679 -1.00325 -1.19853 0
M  V30 8666 H 833.414 0.558446 -3.19456 0
M  V30 8667 H 833.199 -1.12474 -3.75622 0
M  V30 8668 H 834.689 -0.225131 -4.16993 0
M  V30 8669 N 835.127 1.22348 -0.993418 0
M  V30 8670 C 836.352 1.95666 -0.687727 0
M  V30 8671 C 836.777 1.72883 0.741161 0
M  V30 8672 O 836.135 1.00837 1.50671 0
M  V30 8673 C 836.183 3.46457 -0.99998 0
M  V30 8674 O 835.287 4.12281 -0.0989386 0
M  V30 8675 H 834.628 0.612102 -0.257346 0
M  V30 8676 H 837.158 1.55428 -1.33054 0
M  V30 8677 H 837.168 3.96976 -0.942035 0
M  V30 8678 H 835.843 3.62365 -2.04118 0
M  V30 8679 H 834.42 3.72295 -0.212413 0
M  V30 8680 N 836.605 0.766683 1.37694 0
M  V30 8681 C 837.537 0.107798 2.28946 0
M  V30 8682 C 838.55 -0.669701 1.48387 0
M  V30 8683 O 839.739 -0.508629 1.711 0
M  V30 8684 C 836.839 -0.871084 3.27514 0
M  V30 8685 C 836.012 -0.148471 4.37148 0
M  V30 8686 C 835.071 -1.03998 5.1582 0
M  V30 8687 O 834.097 -0.505639 5.6695 0
M  V30 8688 N 835.299 -2.36679 5.3006 0
M  V30 8689 H 838.064 0.89154 2.86132 0
M  V30 8690 H 835.625 0.618593 1.49616 0
M  V30 8691 H 837.617 -1.47081 3.77027 0
M  V30 8692 H 836.187 -1.55582 2.71133 0
M  V30 8693 H 835.407 0.632117 3.89099 0
M  V30 8694 H 836.695 0.351045 5.07588 0
M  V30 8695 H 836.093 -2.82532 4.90094 0
M  V30 8696 H 834.65 -2.9167 5.82899 0
M  V30 8697 N 838.083 -1.48885 0.516809 0
M  V30 8698 C 839.046 -2.27916 -0.242256 0
M  V30 8699 C 840.046 -1.34601 -0.879735 0
M  V30 8700 O 841.236 -1.57616 -0.74182 0
M  V30 8701 C 838.368 -3.13067 -1.34914 0
M  V30 8702 H 839.561 -2.96483 0.451444 0
M  V30 8703 H 837.114 -1.5391 0.272294 0
M  V30 8704 H 837.849 -2.49102 -2.07651 0
M  V30 8705 H 837.634 -3.81695 -0.897313 0
M  V30 8706 H 839.124 -3.72716 -1.88341 0
M  V30 8707 N 839.561 -0.251338 -1.55583 0
M  V30 8708 C 840.789 0.376187 -2.03451 0
M  V30 8709 C 841.204 1.51215 -1.13047 0
M  V30 8710 O 840.561 1.81917 -0.145769 0
M  V30 8711 C 840.612 0.879779 -3.50631 0
M  V30 8712 O 840.333 -0.210917 -4.37592 0
M  V30 8713 C 841.834 1.57754 -4.14281 0
M  V30 8714 H 839.054 0.0888722 -0.665089 0
M  V30 8715 H 841.598 -0.376497 -2.01004 0
M  V30 8716 H 839.753 1.58263 -3.53598 0
M  V30 8717 H 840.167 0.172203 -5.24217 0
M  V30 8718 H 841.641 1.88158 -5.18942 0
M  V30 8719 H 842.118 2.50103 -3.61034 0
M  V30 8720 H 842.724 0.919154 -4.15249 0
M  V30 8721 N 841.039 1.57585 0.0217189 0
M  V30 8722 C 842.45 1.7787 0.567377 0
M  V30 8723 C 842.801 0.883337 1.7519 0
M  V30 8724 O 841.926 0.0800819 2.16252 0
M  V30 8725 C 842.521 3.2257 1.03606 0
M  V30 8726 C 841.08 3.44026 1.52718 0
M  V30 8727 C 840.227 2.73313 0.468545 0
M  V30 8728 H 843.178 1.57377 -0.2045 0
M  V30 8729 H 843.199 3.29488 1.9031 0
M  V30 8730 H 842.711 3.87711 0.173739 0
M  V30 8731 H 840.812 2.8407 2.41111 0
M  V30 8732 H 840.925 4.52659 1.56962 0
M  V30 8733 H 839.289 2.37299 0.925263 0
M  V30 8734 H 840.072 3.41141 -0.384438 0
M  V30 8735 N 842.517 -0.29412 1.54831 0
M  V30 8736 C 843.763 -1.02999 1.74697 0
M  V30 8737 C 844.096 -1.86687 0.534949 0
M  V30 8738 O 843.371 -1.88789 -0.467863 0
M  V30 8739 C 843.654 -1.93024 3.03996 0
M  V30 8740 C 843.507 -1.1247 4.35512 0
M  V30 8741 C 844.826 -2.92085 3.29203 0
M  V30 8742 H 841.945 -0.373039 0.635618 0
M  V30 8743 H 844.587 -0.304065 1.87551 0
M  V30 8744 H 842.737 -2.5492 2.93169 0
M  V30 8745 H 844.409 -0.528067 4.58268 0
M  V30 8746 H 842.652 -0.427574 4.31688 0
M  V30 8747 H 843.323 -1.78728 5.22265 0
M  V30 8748 H 845.799 -2.40319 3.39685 0
M  V30 8749 H 844.675 -3.52234 4.20978 0
M  V30 8750 H 844.936 -3.66107 2.47827 0
M  V30 8751 N 843.995 -1.47404 -0.557645 0
M  V30 8752 C 844.943 -1.60265 -1.68576 0
M  V30 8753 C 845.937 -0.469982 -1.6275 0
M  V30 8754 O 847.143 -0.647764 -1.67941 0
M  V30 8755 H 843.518 -0.504353 -0.557792 0
M  V30 8756 H 845.489 -2.55066 -1.54867 0
M  V30 8757 C 844.238 -1.63369 -3.0693 0
M  V30 8758 H 843.561 -2.49874 -3.12095 0
M  V30 8759 H 845.001 -1.76417 -3.85556 0
M  V30 8760 C 843.46 -0.366921 -3.34896 0
M  V30 8761 O 843.99 0.53218 -3.98159 0
M  V30 8762 N 842.196 -0.247082 -2.89548 0
M  V30 8763 H 841.743 -0.979669 -2.38244 0
M  V30 8764 H 841.701 0.599552 -3.0863 0
M  V30 8765 N 845.473 0.80434 -1.35529 0
M  V30 8766 C 846.719 1.56385 -1.29118 0
M  V30 8767 C 847.052 1.9374 0.133536 0
M  V30 8768 O 846.327 1.6153 1.08344 0
M  V30 8769 C 846.61 2.85097 -2.19981 0
M  V30 8770 C 846.463 2.54204 -3.7108 0
M  V30 8771 C 847.782 3.86817 -2.09907 0
M  V30 8772 H 844.901 0.567382 -0.470368 0
M  V30 8773 H 847.543 0.925235 -1.6595 0
M  V30 8774 H 845.693 3.39594 -1.88701 0
M  V30 8775 H 847.365 2.05872 -4.12813 0
M  V30 8776 H 845.608 1.87364 -3.91251 0
M  V30 8777 H 846.279 3.46068 -4.30048 0
M  V30 8778 H 848.755 3.41725 -2.37409 0
M  V30 8779 H 847.631 4.7465 -2.75678 0
M  V30 8780 H 847.892 4.28663 -1.08171 0
M  V30 8781 N 846.951 1.19563 1.02676 0
M  V30 8782 C 848.362 1.00158 1.57561 0
M  V30 8783 C 848.713 -0.444922 1.91089 0
M  V30 8784 O 847.838 -1.32466 1.71119 0
M  V30 8785 C 848.433 1.81181 2.86284 0
M  V30 8786 C 846.992 1.66171 3.37734 0
M  V30 8787 C 846.139 1.7975 2.11152 0
M  V30 8788 H 849.09 1.33904 0.85179 0
M  V30 8789 H 849.111 1.30916 3.57269 0
M  V30 8790 H 848.623 2.86454 2.6185 0
M  V30 8791 H 846.724 0.634927 3.6715 0
M  V30 8792 H 846.837 2.46832 4.10622 0
M  V30 8793 H 845.201 1.22833 2.23123 0
M  V30 8794 H 845.984 2.86487 1.89157 0
M  V30 8795 N 848.429 -1.21819 0.999893 0
M  V30 8796 C 849.678 -1.90066 0.675108 0
M  V30 8797 C 849.991 -1.78624 -0.79705 0
M  V30 8798 O 851.197 -2.41851 -1.23371 0
M  V30 8799 C 849.653 -3.40795 1.15702 0
M  V30 8800 C 849.261 -3.60859 2.6549 0
M  V30 8801 C 851.005 -4.147 0.906889 0
M  V30 8802 C 848.912 -5.05324 3.07248 0
M  V30 8803 H 847.842 -0.711763 0.248815 0
M  V30 8804 H 850.493 -1.3792 1.21038 0
M  V30 8805 H 848.875 -3.92164 0.549832 0
M  V30 8806 H 850.049 -3.19951 3.31614 0
M  V30 8807 H 848.364 -3.00298 2.88461 0
M  V30 8808 H 850.961 -5.21187 1.1945 0
M  V30 8809 H 851.304 -4.16004 -0.156923 0
M  V30 8810 H 851.837 -3.69379 1.47662 0
M  V30 8811 H 848.576 -5.09164 4.12834 0
M  V30 8812 H 848.096 -5.47108 2.45832 0
M  V30 8813 H 849.775 -5.73797 2.98941 0
M  V30 8814 N 849.908 -0.773975 -1.37286 0
M  V30 8815 C 851.136 -0.350758 -2.03905 0
M  V30 8816 C 851.551 1.02779 -1.58373 0
M  V30 8817 O 850.908 1.65646 -0.766009 0
M  V30 8818 C 850.959 -0.387335 -3.59419 0
M  V30 8819 O 850.68 -1.7115 -4.03286 0
M  V30 8820 C 852.181 0.047198 -4.43275 0
M  V30 8821 H 849.401 -0.146663 -0.654775 0
M  V30 8822 H 851.945 -1.04852 -1.75574 0
M  V30 8823 H 850.1 0.261865 -3.86514 0
M  V30 8824 H 850.514 -1.65166 -4.97816 0
M  V30 8825 H 851.988 -0.0295474 -5.51992 0
M  V30 8826 H 852.465 1.09786 -4.25257 0
M  V30 8827 H 853.071 -0.573899 -4.2141 0
M  V30 8828 N 851.386 1.48609 -0.524698 0
M  V30 8829 C 852.797 1.86516 -0.0828846 0
M  V30 8830 C 853.148 1.43478 1.33822 0
M  V30 8831 O 852.273 0.823139 2.00133 0
M  V30 8832 C 852.868 3.38495 -0.143639 0
M  V30 8833 C 851.427 3.75615 0.242951 0
M  V30 8834 C 850.574 2.72649 -0.505747 0
M  V30 8835 H 853.525 1.40589 -0.736233 0
M  V30 8836 H 853.546 3.74977 0.645955 0
M  V30 8837 H 853.058 3.69789 -1.17805 0
M  V30 8838 H 851.159 3.49935 1.27971 0
M  V30 8839 H 851.272 4.7901 -0.0929834 0
M  V30 8840 H 849.636 2.54656 0.0473482 0
M  V30 8841 H 850.419 3.06786 -1.54069 0
M  V30 8842 N 852.864 0.259585 1.55447 0
M  V30 8843 C 854.089 -0.368317 2.04103 0
M  V30 8844 C 854.514 -1.49827 1.13725 0
M  V30 8845 O 853.872 -1.80814 0.132705 0
M  V30 8846 C 853.92 -0.841506 3.50644 0
M  V30 8847 O 853.024 -1.95008 3.63381 0
M  V30 8848 H 852.365 -0.0785227 0.659341 0
M  V30 8849 H 854.895 0.389349 2.00861 0
M  V30 8850 H 854.905 -1.14138 3.9171 0
M  V30 8851 H 853.58 -0.0147001 4.15897 0
M  V30 8852 H 852.157 -1.65393 3.34215 0
M  V30 8853 N 854.342 -1.57594 -0.0133615 0
M  V30 8854 C 855.57 -1.94251 -0.712328 0
M  V30 8855 C 855.985 -0.86063 -1.68043 0
M  V30 8856 O 855.342 0.161632 -1.81783 0
M  V30 8857 C 855.393 -3.30891 -1.45581 0
M  V30 8858 O 855.114 -4.34924 -0.526539 0
M  V30 8859 C 856.615 -3.81926 -2.2505 0
M  V30 8860 H 853.835 -0.640737 -0.199241 0
M  V30 8861 H 856.379 -2.04472 0.0337855 0
M  V30 8862 H 854.534 -3.22019 -2.15366 0
M  V30 8863 H 854.948 -5.1389 -1.04962 0
M  V30 8864 H 856.422 -4.79999 -2.72589 0
M  V30 8865 H 856.899 -3.13934 -3.07152 0
M  V30 8866 H 857.505 -3.93931 -1.60308 0
M  V30 8867 N 855.82 0.285905 -1.54985 0
M  V30 8868 C 856.73 1.37534 -1.90057 0
M  V30 8869 C 857.746 1.54707 -0.796348 0
M  V30 8870 O 858.922 1.69082 -1.09423 0
M  V30 8871 C 855.987 2.7167 -2.15398 0
M  V30 8872 C 855.048 2.63354 -3.39033 0
M  V30 8873 C 854.281 3.91093 -3.63155 0
M  V30 8874 O 854.504 4.91169 -2.90015 0
M  V30 8875 O 853.438 3.92075 -4.56685 0
M  V30 8876 H 857.264 1.10791 -2.8277 0
M  V30 8877 H 854.849 0.483303 -1.41367 0
M  V30 8878 H 856.731 3.51006 -2.33179 0
M  V30 8879 H 855.406 2.98226 -1.25868 0
M  V30 8880 H 854.313 1.82438 -3.26599 0
M  V30 8881 H 855.646 2.41749 -4.2874 0
M  V30 8882 N 857.298 1.47698 0.54982 0
M  V30 8883 C 858.523 1.58579 1.33669 0
M  V30 8884 C 858.948 0.239049 1.86575 0
M  V30 8885 O 858.306 -0.786256 1.63364 0
M  V30 8886 C 858.354 2.62029 2.47736 0
M  V30 8887 O 857.458 2.17813 3.50188 0
M  V30 8888 H 856.799 0.532447 0.396732 0
M  V30 8889 H 859.329 1.93536 0.6637 0
M  V30 8890 H 859.339 2.82682 2.94202 0
M  V30 8891 H 858.014 3.59812 2.08586 0
M  V30 8892 H 856.591 2.07291 3.09976 0
M  V30 8893 N 858.776 -0.797141 1.35954 0
M  V30 8894 C 859.706 -1.92387 1.32323 0
M  V30 8895 C 860.687 -1.68967 0.196007 0
M  V30 8896 O 861.872 -1.90193 0.39245 0
M  V30 8897 C 859.002 -3.29286 1.10398 0
M  V30 8898 C 857.956 -3.67212 2.19862 0
M  V30 8899 C 857.282 -5.02377 1.8309 0
M  V30 8900 C 858.582 -3.76602 3.61896 0
M  V30 8901 H 860.276 -1.95683 2.26602 0
M  V30 8902 H 857.822 -0.94007 1.09081 0
M  V30 8903 H 859.775 -4.07721 1.06495 0
M  V30 8904 H 858.499 -3.26358 0.125668 0
M  V30 8905 H 857.158 -2.91069 2.22878 0
M  V30 8906 H 856.806 -4.95961 0.838527 0
M  V30 8907 H 856.506 -5.28722 2.56372 0
M  V30 8908 H 858.03 -5.8324 1.80729 0
M  V30 8909 H 859.444 -4.45246 3.6115 0
M  V30 8910 H 857.841 -4.14425 4.34018 0
M  V30 8911 H 858.911 -2.77906 3.97361 0
M  V30 8912 N 860.254 -1.20106 -1.0204 0
M  V30 8913 C 861.503 -1.00316 -1.74985 0
M  V30 8914 C 861.816 0.465814 -1.89972 0
M  V30 8915 O 863.022 0.782749 -2.59972 0
M  V30 8916 C 861.478 -1.74608 -3.14706 0
M  V30 8917 C 861.086 -3.25573 -3.07744 0
M  V30 8918 C 862.83 -1.63172 -3.91887 0
M  V30 8919 C 860.737 -3.92419 -4.42449 0
M  V30 8920 H 859.667 -0.371728 -0.655999 0
M  V30 8921 H 862.318 -1.43688 -1.14131 0
M  V30 8922 H 860.7 -1.24021 -3.76078 0
M  V30 8923 H 861.874 -3.83345 -2.55702 0
M  V30 8924 H 860.189 -3.3738 -2.44057 0
M  V30 8925 H 862.786 -2.10457 -4.9154 0
M  V30 8926 H 863.129 -0.58728 -4.12137 0
M  V30 8927 H 863.662 -2.11152 -3.37135 0
M  V30 8928 H 860.401 -4.96998 -4.27403 0
M  V30 8929 H 859.921 -3.39436 -4.94513 0
M  V30 8930 H 861.6 -3.96453 -5.11306 0
M  V30 8931 N 861.732 1.21287 -1.00634 0
M  V30 8932 C 862.981 1.89706 -0.685178 0
M  V30 8933 C 863.294 1.79044 0.787566 0
M  V30 8934 O 864.5 2.42502 1.22086 0
M  V30 8935 C 862.956 3.40176 -1.17508 0
M  V30 8936 C 862.564 3.59446 -2.674 0
M  V30 8937 C 864.308 4.14213 -0.928869 0
M  V30 8938 C 862.215 5.03688 -3.09923 0
M  V30 8939 H 861.145 0.710434 -0.252586 0
M  V30 8940 H 863.796 1.37277 -1.21768 0
M  V30 8941 H 862.178 3.91867 -0.570622 0
M  V30 8942 H 863.352 3.18188 -3.33306 0
M  V30 8943 H 861.667 2.98764 -2.9005 0
M  V30 8944 H 864.264 5.20546 -1.22212 0
M  V30 8945 H 864.607 4.16082 0.134859 0
M  V30 8946 H 865.14 3.68591 -1.49619 0
M  V30 8947 H 861.879 5.06968 -4.15529 0
M  V30 8948 H 861.399 5.45796 -2.4873 0
M  V30 8949 H 863.078 5.72204 -3.0198 0
M  V30 8950 N 863.21 0.781244 1.36873 0
M  V30 8951 C 864.458 0.349198 1.9906 0
M  V30 8952 C 864.779 -1.0806 1.62321 0
M  V30 8953 O 864.049 -1.74351 0.893229 0
M  V30 8954 H 862.629 0.126126 0.736275 0
M  V30 8955 H 865.291 1.00148 1.67202 0
M  V30 8956 H 864.387 0.434451 3.09061 0
M  V30 8957 N 864.689 -1.48329 0.532571 0
M  V30 8958 C 865.636 -2.29663 -0.228779 0
M  V30 8959 C 866.606 -1.37529 -0.931401 0
M  V30 8960 O 867.791 -1.66493 -0.931921 0
M  V30 8961 C 864.931 -3.20955 -1.26814 0
M  V30 8962 C 864.044 -4.28168 -0.574099 0
M  V30 8963 C 863.179 -5.06638 -1.59661 0
M  V30 8964 C 862.218 -6.05651 -0.88618 0
M  V30 8965 N 861.355 -6.77169 -1.85436 0
M  V30 8966 H 866.195 -2.94255 0.47098 0
M  V30 8967 H 863.732 -1.45061 0.2441 0
M  V30 8968 H 865.69 -3.72285 -1.88307 0
M  V30 8969 H 864.32 -2.58281 -1.93625 0
M  V30 8970 H 863.372 -3.80085 0.154827 0
M  V30 8971 H 864.684 -4.98797 -0.0163984 0
M  V30 8972 H 863.838 -5.61995 -2.28576 0
M  V30 8973 H 862.577 -4.35854 -2.18821 0
M  V30 8974 H 861.582 -5.49495 -0.182981 0
M  V30 8975 H 862.807 -6.78434 -0.300659 0
M  V30 8976 H 860.753 -6.09134 -2.43499 0
M  V30 8977 H 860.67 -7.43882 -1.34816 0
M  V30 8978 H 861.938 -7.37114 -2.53541 0
M  V30 8979 N 866.167 -0.267825 -1.55308 0
M  V30 8980 C 867.115 0.638848 -2.23655 0
M  V30 8981 C 868.109 1.16363 -1.2311 0
M  V30 8982 O 869.315 1.1181 -1.41062 0
M  V30 8983 H 865.69 0.224551 -0.717691 0
M  V30 8984 H 867.661 0.0394809 -2.98374 0
M  V30 8985 C 866.41 1.8151 -2.96562 0
M  V30 8986 H 865.733 1.42048 -3.73715 0
M  V30 8987 H 867.173 2.42629 -3.47717 0
M  V30 8988 C 865.632 2.69911 -2.01618 0
M  V30 8989 O 866.162 3.70058 -1.56268 0
M  V30 8990 N 864.368 2.36924 -1.68272 0
M  V30 8991 H 863.915 1.55533 -2.05347 0
M  V30 8992 H 863.873 2.96343 -1.05016 0
M  V30 8993 N 867.645 1.57599 0.00500368 0
M  V30 8994 C 868.593 2.09223 1.01628 0
M  V30 8995 C 869.587 1.01113 1.35913 0
M  V30 8996 O 870.793 1.19583 1.34536 0
M  V30 8997 H 867.168 0.667999 0.345372 0
M  V30 8998 H 869.139 2.93188 0.555274 0
M  V30 8999 C 867.888 2.60674 2.30097 0
M  V30 9000 H 867.211 3.43491 2.04582 0
M  V30 9001 H 868.651 3.00479 2.99146 0
M  V30 9002 C 867.11 1.51862 3.00731 0
M  V30 9003 O 867.64 0.898651 3.91519 0
M  V30 9004 N 865.846 1.24729 2.62471 0
M  V30 9005 H 865.393 1.7533 1.88725 0
M  V30 9006 H 865.351 0.521437 3.10046 0
M  V30 9007 N 869.123 -0.277682 1.55134 0
M  V30 9008 C 870.07 -1.34313 1.87693 0
M  V30 9009 C 871.04 -1.49298 0.727973 0
M  V30 9010 O 872.225 -1.6378 0.978807 0
M  V30 9011 C 869.365 -2.69922 2.15026 0
M  V30 9012 C 868.478 -2.63197 3.42565 0
M  V30 9013 C 867.613 -3.90955 3.59622 0
M  V30 9014 C 866.652 -3.78722 4.8087 0
M  V30 9015 N 865.789 -4.98303 4.94609 0
M  V30 9016 H 870.629 -1.05847 2.78569 0
M  V30 9017 H 868.166 -0.511469 1.37922 0
M  V30 9018 H 870.124 -3.48817 2.28872 0
M  V30 9019 H 868.754 -2.966 1.2739 0
M  V30 9020 H 867.806 -1.76038 3.37216 0
M  V30 9021 H 869.118 -2.50056 4.31594 0
M  V30 9022 H 868.272 -4.78291 3.7326 0
M  V30 9023 H 867.011 -4.06957 2.6877 0
M  V30 9024 H 866.016 -2.89769 4.67241 0
M  V30 9025 H 867.241 -3.64242 5.73153 0
M  V30 9026 H 865.187 -5.14725 4.06687 0
M  V30 9027 H 865.104 -4.87675 5.77676 0
M  V30 9028 H 866.372 -5.87225 5.12628 0
M  V30 9029 N 870.601 -1.47988 -0.541979 0
M  V30 9030 C 872.012 -1.49073 -1.12402 0
M  V30 9031 C 872.363 -0.253825 -1.94551 0
M  V30 9032 O 871.488 0.640056 -2.06718 0
M  V30 9033 C 872.083 -2.7011 -2.04514 0
M  V30 9034 C 870.642 -2.74105 -2.5796 0
M  V30 9035 C 869.789 -2.42409 -1.3466 0
M  V30 9036 H 872.74 -1.55277 -0.327818 0
M  V30 9037 H 872.761 -2.47946 -2.88623 0
M  V30 9038 H 872.273 -3.60117 -1.44697 0
M  V30 9039 H 870.374 -1.88276 -3.21532 0
M  V30 9040 H 870.487 -3.75213 -2.97913 0
M  V30 9041 H 868.851 -1.9331 -1.65841 0
M  V30 9042 H 869.634 -3.34642 -0.766133 0
M  V30 9043 N 872.079 0.78992 -1.36375 0
M  V30 9044 C 873.325 1.55007 -1.3077 0
M  V30 9045 C 873.658 1.93871 0.112979 0
M  V30 9046 O 872.933 1.6267 1.06625 0
M  V30 9047 C 873.216 2.82748 -2.22993 0
M  V30 9048 C 873.069 2.50253 -3.73756 0
M  V30 9049 C 874.388 3.84569 -2.13998 0
M  V30 9050 H 871.507 0.562362 -0.476359 0
M  V30 9051 H 874.149 0.907582 -1.66922 0
M  V30 9052 H 872.299 3.37573 -1.92292 0
M  V30 9053 H 873.971 2.01482 -4.14973 0
M  V30 9054 H 872.214 1.83203 -3.93216 0
M  V30 9055 H 872.885 3.41487 -4.33694 0
M  V30 9056 H 875.361 3.39188 -2.4102 0
M  V30 9057 H 874.237 4.717 -2.80697 0
M  V30 9058 H 874.498 4.27491 -1.12711 0
M  V30 9059 N 873.557 1.20646 1.01402 0
M  V30 9060 C 874.467 0.973385 2.13453 0
M  V30 9061 C 875.483 -0.0715865 1.73853 0
M  V30 9062 O 876.659 0.116438 2.01063 0
M  V30 9063 C 873.724 0.531285 3.42605 0
M  V30 9064 C 872.785 1.64741 3.96433 0
M  V30 9065 C 872.018 1.22631 5.1942 0
M  V30 9066 O 872.241 0.0960891 5.70319 0
M  V30 9067 O 871.175 2.03474 5.66465 0
M  V30 9068 H 875.001 1.91164 2.35987 0
M  V30 9069 H 872.586 0.990553 1.11841 0
M  V30 9070 H 874.468 0.294095 4.20373 0
M  V30 9071 H 873.143 -0.378358 3.21481 0
M  V30 9072 H 872.05 1.93891 3.19933 0
M  V30 9073 H 873.383 2.53415 4.2195 0
M  V30 9074 N 875.035 -1.20752 1.01276 0
M  V30 9075 C 875.965 -2.25658 0.600064 0
M  V30 9076 C 876.946 -1.65733 -0.38298 0
M  V30 9077 O 878.131 -1.92324 -0.269256 0
M  V30 9078 C 875.261 -3.47237 -0.0663197 0
M  V30 9079 C 874.215 -4.1973 0.83731 0
M  V30 9080 C 873.541 -5.34687 0.0369102 0
M  V30 9081 C 874.841 -4.76286 2.14357 0
M  V30 9082 H 876.535 -2.60432 1.477 0
M  V30 9083 H 874.081 -1.25187 0.711634 0
M  V30 9084 H 876.034 -4.19803 -0.366563 0
M  V30 9085 H 874.758 -3.11615 -0.977944 0
M  V30 9086 H 873.417 -3.49024 1.1215 0
M  V30 9087 H 873.065 -4.95309 -0.876244 0
M  V30 9088 H 872.765 -5.84119 0.63865 0
M  V30 9089 H 874.289 -6.10059 -0.256968 0
M  V30 9090 H 875.703 -5.40691 1.90595 0
M  V30 9091 H 874.1 -5.36139 2.69583 0
M  V30 9092 H 875.17 -3.9524 2.80916 0
M  V30 9093 N 876.513 -0.788492 -1.36457 0
M  V30 9094 C 877.476 -0.192209 -2.28393 0
M  V30 9095 C 878.476 0.609916 -1.48784 0
M  V30 9096 O 879.666 0.431046 -1.68783 0
M  V30 9097 C 876.798 0.734096 -3.32902 0
M  V30 9098 H 877.991 -1.00284 -2.82636 0
M  V30 9099 H 875.544 -0.557852 -1.46006 0
M  V30 9100 H 876.279 1.5691 -2.83813 0
M  V30 9101 H 876.064 0.160875 -3.9177 0
M  V30 9102 H 877.554 1.1462 -4.01562 0
M  V30 9103 N 877.991 1.48044 -0.54043 0
M  V30 9104 C 879.239 2.02097 -0.0101367 0
M  V30 9105 C 879.56 1.41881 1.33771 0
M  V30 9106 O 878.83 0.587923 1.8687 0
M  V30 9107 H 877.41 0.747 -0.000758716 0
M  V30 9108 H 880.072 1.81639 -0.706634 0
M  V30 9109 H 879.168 3.11969 0.0904474 0
M  V30 9110 N 879.47 0.276058 1.55163 0
M  V30 9111 C 880.716 -0.340959 1.99913 0
M  V30 9112 C 881.049 -1.55434 1.16422 0
M  V30 9113 O 880.324 -1.93081 0.234517 0
M  V30 9114 C 880.607 -0.722211 3.52783 0
M  V30 9115 C 880.46 0.498575 4.47028 0
M  V30 9116 C 881.779 -1.5583 4.11589 0
M  V30 9117 H 878.898 -0.122455 0.726756 0
M  V30 9118 H 881.54 0.38319 1.86096 0
M  V30 9119 H 879.69 -1.33919 3.64689 0
M  V30 9120 H 881.362 1.13713 4.47065 0
M  V30 9121 H 879.605 1.13646 4.18649 0
M  V30 9122 H 880.276 0.188041 5.5168 0
M  V30 9123 H 882.752 -1.03722 4.02965 0
M  V30 9124 H 881.628 -1.79387 5.1876 0
M  V30 9125 H 881.889 -2.53963 3.61877 0
M  V30 9126 N 880.948 -1.576 0.00335426 0
M  V30 9127 C 882.195 -1.90713 -0.680791 0
M  V30 9128 C 882.523 -0.877263 -1.73592 0
M  V30 9129 O 881.778 0.117497 -1.95347 0
M  V30 9130 C 882.077 -3.3058 -1.35837 0
M  V30 9131 C 881.743 -4.48786 -0.436111 0
M  V30 9132 C 880.405 -4.80855 -0.182195 0
M  V30 9133 C 882.757 -5.20821 0.198677 0
M  V30 9134 C 880.085 -5.8233 0.714747 0
M  V30 9135 C 882.437 -6.23252 1.08351 0
M  V30 9136 C 881.101 -6.53776 1.34658 0
M  V30 9137 H 880.371 -0.697869 -0.249119 0
M  V30 9138 H 883.018 -1.91407 0.0596011 0
M  V30 9139 H 881.323 -3.26026 -2.17289 0
M  V30 9140 H 883.02 -3.53462 -1.89383 0
M  V30 9141 H 879.61 -4.23731 -0.644186 0
M  V30 9142 H 883.794 -4.96298 0.0155259 0
M  V30 9143 H 879.05 -6.04339 0.926529 0
M  V30 9144 H 883.224 -6.78199 1.58172 0
M  V30 9145 H 880.851 -7.32225 2.04328 0
M  V30 9146 N 882.426 0.269451 -1.5528 0
M  V30 9147 C 883.651 1.02299 -1.80415 0
M  V30 9148 C 884.076 1.7902 -0.577363 0
M  V30 9149 O 883.434 1.75018 0.473125 0
M  V30 9150 C 883.482 1.95445 -3.0304 0
M  V30 9151 O 882.586 3.04271 -2.78375 0
M  V30 9152 H 881.927 0.292289 -0.596207 0
M  V30 9153 H 884.457 0.297282 -2.02429 0
M  V30 9154 H 884.467 2.37333 -3.31869 0
M  V30 9155 H 883.142 1.39017 -3.91978 0
M  V30 9156 H 881.719 2.66673 -2.60653 0
M  V30 9157 N 883.904 1.48273 0.534124 0
M  V30 9158 C 885.151 1.56079 1.29017 0
M  V30 9159 C 885.479 0.232912 1.931 0
M  V30 9160 O 884.734 -0.77642 1.79639 0
M  V30 9161 C 885.033 2.64468 2.40398 0
M  V30 9162 C 884.699 4.07034 1.93995 0
M  V30 9163 C 883.361 4.45838 1.81058 0
M  V30 9164 C 885.713 4.96395 1.58877 0
M  V30 9165 C 883.041 5.71812 1.31331 0
M  V30 9166 C 885.393 6.22854 1.10614 0
M  V30 9167 C 884.057 6.60518 0.962895 0
M  V30 9168 H 883.327 0.571135 0.472108 0
M  V30 9169 H 885.974 1.81973 0.5965 0
M  V30 9170 H 884.279 2.32419 3.15418 0
M  V30 9171 H 885.976 2.67725 2.98537 0
M  V30 9172 H 882.566 3.76387 2.05015 0
M  V30 9173 H 886.75 4.67096 1.67734 0
M  V30 9174 H 882.006 5.99722 1.18924 0
M  V30 9175 H 886.18 6.91495 0.825095 0
M  V30 9176 H 883.807 7.58019 0.575369 0
M  V30 9177 N 885.382 -0.782676 1.36792 0
M  V30 9178 C 886.33 -1.91698 1.31737 0
M  V30 9179 C 887.324 -1.68118 0.207994 0
M  V30 9180 O 888.53 -1.76042 0.375393 0
M  V30 9181 H 884.905 -0.630215 0.410284 0
M  V30 9182 H 886.876 -1.93078 2.27516 0
M  V30 9183 C 885.625 -3.28816 1.13029 0
M  V30 9184 H 884.948 -3.4753 1.97643 0
M  V30 9185 H 886.388 -4.08515 1.13541 0
M  V30 9186 C 884.847 -3.36497 -0.1647 0
M  V30 9187 O 885.377 -3.84822 -1.15216 0
M  V30 9188 N 883.583 -2.89828 -0.211678 0
M  V30 9189 H 883.13 -2.50693 0.59252 0
M  V30 9190 H 883.088 -2.95349 -1.07779 0
M  V30 9191 N 886.86 -1.21182 -1.00761 0
M  V30 9192 C 887.793 -0.912033 -2.09182 0
M  V30 9193 C 888.771 0.139421 -1.62001 0
M  V30 9194 O 889.955 0.0110272 -1.88497 0
M  V30 9195 C 887.082 -0.368957 -3.36684 0
M  V30 9196 C 886.128 -1.4028 -4.0277 0
M  V30 9197 S 886.961 -2.97108 -4.45519 0
M  V30 9198 C 888.117 -2.444 -5.76211 0
M  V30 9199 H 888.35 -1.83019 -2.34289 0
M  V30 9200 H 885.883 -1.04127 -1.14004 0
M  V30 9201 H 887.841 -0.0621883 -4.10453 0
M  V30 9202 H 886.502 0.527841 -3.09633 0
M  V30 9203 H 885.695 -0.97238 -4.94531 0
M  V30 9204 H 885.297 -1.65752 -3.35265 0
M  V30 9205 H 887.589 -1.84723 -6.51831 0
M  V30 9206 H 888.532 -3.34593 -6.24062 0
M  V30 9207 H 888.94 -1.86203 -5.32906 0
M  V30 9208 N 888.338 1.20213 -1.01915 0
M  V30 9209 C 889.585 1.89647 -0.709955 0
M  V30 9210 C 889.913 1.7901 0.760631 0
M  V30 9211 O 889.168 1.17028 1.56853 0
M  V30 9212 C 889.467 3.40232 -1.09438 0
M  V30 9213 C 889.133 3.7107 -2.5616 0
M  V30 9214 C 887.795 3.79196 -2.96249 0
M  V30 9215 C 890.147 3.85169 -3.51133 0
M  V30 9216 C 887.475 3.98882 -4.30244 0
M  V30 9217 C 889.827 4.06365 -4.8482 0
M  V30 9218 C 888.491 4.12722 -5.24611 0
M  V30 9219 H 887.761 0.693967 -0.259791 0
M  V30 9220 H 890.408 1.42419 -1.2802 0
M  V30 9221 H 888.713 3.89292 -0.442596 0
M  V30 9222 H 890.41 3.92257 -0.832811 0
M  V30 9223 H 887 3.65346 -2.24099 0
M  V30 9224 H 891.184 3.78243 -3.21319 0
M  V30 9225 H 886.44 4.02039 -4.60624 0
M  V30 9226 H 890.614 4.16216 -5.58334 0
M  V30 9227 H 888.241 4.27728 -6.28453 0
M  V30 9228 N 889.816 0.795718 1.36037 0
M  V30 9229 C 891.041 0.38204 2.03851 0
M  V30 9230 C 891.466 -0.995553 1.59594 0
M  V30 9231 O 890.824 -1.64258 0.767401 0
M  V30 9232 C 890.872 0.461248 3.57638 0
M  V30 9233 O 889.976 -0.529448 4.08987 0
M  V30 9234 H 889.317 0.161227 0.644129 0
M  V30 9235 H 891.847 1.07858 1.73861 0
M  V30 9236 H 891.857 0.32712 4.06687 0
M  V30 9237 H 890.532 1.46613 3.89201 0
M  V30 9238 H 889.109 -0.35646 3.71192 0
M  V30 9239 N 891.294 -1.47756 0.548274 0
M  V30 9240 C 892.542 -2.02089 0.0208542 0
M  V30 9241 C 892.863 -1.42589 -1.33017 0
M  V30 9242 O 892.133 -0.597825 -1.86555 0
M  V30 9243 H 890.713 -0.746985 0.00472023 0
M  V30 9244 H 893.375 -1.81262 0.716257 0
M  V30 9245 H 892.471 -3.12012 -0.0739016 0
M  V30 9246 N 892.772 -0.284283 -1.55015 0
M  V30 9247 C 893.702 0.592663 -2.25853 0
M  V30 9248 C 894.683 1.15151 -1.25197 0
M  V30 9249 O 895.868 1.18395 -1.53936 0
M  V30 9250 C 892.998 1.77254 -2.98661 0
M  V30 9251 C 891.952 1.34482 -4.06323 0
M  V30 9252 C 891.278 2.60853 -4.66754 0
M  V30 9253 C 892.578 0.488288 -5.20013 0
M  V30 9254 H 894.272 0.00187041 -2.994 0
M  V30 9255 H 891.818 -0.000540402 -1.44 0
M  V30 9256 H 893.771 2.39199 -3.46932 0
M  V30 9257 H 892.495 2.38931 -2.22664 0
M  V30 9258 H 891.154 0.748519 -3.58877 0
M  V30 9259 H 890.802 3.20808 -3.87416 0
M  V30 9260 H 890.502 2.32942 -5.39455 0
M  V30 9261 H 892.026 3.23631 -5.1778 0
M  V30 9262 H 893.44 1.01298 -5.6428 0
M  V30 9263 H 891.837 0.303669 -5.99331 0
M  V30 9264 H 892.907 -0.490727 -4.8241 0
M  V30 9265 N 894.251 1.57596 -0.0117121 0
M  V30 9266 C 895.181 2.12188 0.9746 0
M  V30 9267 C 896.162 1.03379 1.35081 0
M  V30 9268 O 897.347 1.31123 1.4325 0
M  V30 9269 C 894.477 2.63477 2.26268 0
M  V30 9270 C 893.431 3.76917 2.02774 0
M  V30 9271 C 892.757 4.14566 3.37697 0
M  V30 9272 C 894.057 5.03715 1.38089 0
M  V30 9273 H 895.751 2.9485 0.520007 0
M  V30 9274 H 893.297 1.41836 0.248685 0
M  V30 9275 H 895.25 3.00299 2.95633 0
M  V30 9276 H 893.974 1.77953 2.73862 0
M  V30 9277 H 892.633 3.40507 1.35832 0
M  V30 9278 H 892.281 3.26048 3.83016 0
M  V30 9279 H 891.981 4.91 3.22789 0
M  V30 9280 H 893.505 4.53956 4.08358 0
M  V30 9281 H 894.919 5.38233 1.97428 0
M  V30 9282 H 893.316 5.85032 1.33634 0
M  V30 9283 H 894.386 4.83624 0.351575 0
M  V30 9284 N 895.729 -0.261212 1.5542 0
M  V30 9285 C 897.006 -1.01321 1.67312 0
M  V30 9286 C 897.386 -2.0388 0.547356 0
M  V30 9287 O 896.734 -2.24003 -0.451083 0
M  V30 9288 C 896.944 -1.65943 3.07024 0
M  V30 9289 C 898.292 -2.16666 3.65159 0
M  V30 9290 O 899.316 -1.75909 3.09733 0
M  V30 9291 O 898.175 -2.91455 4.62294 0
M  V30 9292 H 895.269 -0.470714 0.679968 0
M  V30 9293 H 897.815 -0.256133 1.67756 0
M  V30 9294 H 896.587 -0.916868 3.80407 0
M  V30 9295 H 896.21 -2.48308 3.1053 0
M  V30 9296 N 897.207 -1.48554 -0.526253 0
M  V30 9297 C 898.117 -1.66044 -1.65731 0
M  V30 9298 C 899.133 -0.542951 -1.65312 0
M  V30 9299 O 900.309 -0.814495 -1.84195 0
M  V30 9300 C 897.374 -1.69959 -3.02184 0
M  V30 9301 C 896.435 -2.93362 -3.13428 0
M  V30 9302 C 895.668 -2.97081 -4.43372 0
M  V30 9303 O 895.891 -2.09103 -5.3069 0
M  V30 9304 O 894.825 -3.8929 -4.59061 0
M  V30 9305 H 898.651 -2.61811 -1.53912 0
M  V30 9306 H 896.236 -1.31999 -0.699759 0
M  V30 9307 H 898.118 -1.75033 -3.83329 0
M  V30 9308 H 896.793 -0.773658 -3.14319 0
M  V30 9309 H 895.7 -2.93818 -2.31564 0
M  V30 9310 H 897.033 -3.85352 -3.06211 0
M  V30 9311 N 898.685 0.775411 -1.37205 0
M  V30 9312 C 899.931 1.53611 -1.32407 0
M  V30 9313 C 900.264 1.9398 0.0924103 0
M  V30 9314 O 899.539 1.63791 1.04893 0
M  V30 9315 C 899.822 2.80367 -2.25979 0
M  V30 9316 C 899.675 2.46275 -3.76389 0
M  V30 9317 C 900.994 3.82277 -2.18064 0
M  V30 9318 H 898.113 0.557278 -0.482297 0
M  V30 9319 H 900.755 0.889826 -1.67875 0
M  V30 9320 H 898.905 3.35515 -1.95862 0
M  V30 9321 H 900.577 1.9707 -4.17087 0
M  V30 9322 H 898.82 1.79023 -3.95137 0
M  V30 9323 H 899.491 3.36868 -4.37291 0
M  V30 9324 H 901.967 3.36613 -2.44604 0
M  V30 9325 H 900.843 4.68696 -2.85684 0
M  V30 9326 H 901.104 4.26272 -1.17239 0
M  V30 9327 N 900.163 1.21714 1.00117 0
M  V30 9328 C 901.11 0.979837 2.08968 0
M  V30 9329 C 902.08 -0.0955324 1.65825 0
M  V30 9330 O 903.265 0.0523742 1.90728 0
M  V30 9331 C 900.405 0.554758 3.40612 0
M  V30 9332 C 899.518 1.69999 3.97145 0
M  V30 9333 C 898.653 1.2237 5.16913 0
M  V30 9334 C 897.692 2.34101 5.65564 0
M  V30 9335 N 896.829 1.87579 6.76579 0
M  V30 9336 H 901.669 1.91167 2.28602 0
M  V30 9337 H 899.206 0.952645 1.12085 0
M  V30 9338 H 901.164 0.289526 4.16194 0
M  V30 9339 H 899.794 -0.340073 3.21004 0
M  V30 9340 H 898.846 2.07976 3.18512 0
M  V30 9341 H 900.158 2.54074 4.29241 0
M  V30 9342 H 899.312 0.915358 5.99755 0
M  V30 9343 H 898.051 0.353045 4.8642 0
M  V30 9344 H 897.056 2.65734 4.81316 0
M  V30 9345 H 898.281 3.21669 5.98085 0
M  V30 9346 H 896.227 1.02863 6.47885 0
M  V30 9347 H 896.144 2.65225 7.07949 0
M  V30 9348 H 897.412 1.5979 7.62947 0
M  V30 9349 N 901.641 -1.19671 1.02551 0
M  V30 9350 C 902.571 -2.25009 0.623965 0
M  V30 9351 C 903.552 -1.66129 -0.36538 0
M  V30 9352 O 904.737 -1.92599 -0.248842 0
M  V30 9353 C 901.867 -3.47287 -0.0294869 0
M  V30 9354 C 900.821 -4.18818 0.881781 0
M  V30 9355 C 900.147 -5.34618 0.0936189 0
M  V30 9356 C 901.447 -4.73986 2.19396 0
M  V30 9357 H 903.141 -2.58851 1.50454 0
M  V30 9358 H 900.687 -1.24425 0.724872 0
M  V30 9359 H 902.64 -4.20168 -0.322016 0
M  V30 9360 H 901.364 -3.12635 -0.944838 0
M  V30 9361 H 900.023 -3.47815 1.15845 0
M  V30 9362 H 899.671 -4.9621 -0.823661 0
M  V30 9363 H 899.371 -5.83409 0.700568 0
M  V30 9364 H 900.895 -6.10297 -0.192249 0
M  V30 9365 H 902.309 -5.38639 1.96319 0
M  V30 9366 H 900.706 -5.3325 2.75254 0
M  V30 9367 H 901.776 -3.92238 2.85092 0
M  V30 9368 N 903.119 -0.802921 -1.35613 0
M  V30 9369 C 904.069 -0.183492 -2.2726 0
M  V30 9370 C 905.053 0.640527 -1.47601 0
M  V30 9371 O 906.245 0.498386 -1.69838 0
M  V30 9372 C 903.374 0.67003 -3.36698 0
M  V30 9373 C 902.46 -0.163517 -4.23785 0
M  V30 9374 N 902.851 -1.22472 -4.90749 0
M  V30 9375 C 901.149 0.0554547 -4.45966 0
M  V30 9376 C 901.85 -1.73329 -5.55276 0
M  V30 9377 N 900.826 -1.04033 -5.33552 0
M  V30 9378 H 904.628 -0.995525 -2.76526 0
M  V30 9379 H 902.142 -0.643714 -1.49098 0
M  V30 9380 H 904.139 1.12981 -4.01299 0
M  V30 9381 H 902.799 1.48045 -2.88986 0
M  V30 9382 H 903.81 -1.60733 -4.92327 0
M  V30 9383 H 900.487 0.835312 -4.09058 0
M  V30 9384 H 901.877 -2.62 -6.18713 0
M  V30 9385 N 904.597 1.47463 -0.556102 0
M  V30 9386 C 905.545 2.31692 0.205299 0
M  V30 9387 C 906.539 1.42857 0.910394 0
M  V30 9388 O 907.745 1.59628 0.831806 0
M  V30 9389 H 904.12 0.747172 0.0850775 0
M  V30 9390 H 906.091 2.93758 -0.524305 0
M  V30 9391 C 904.84 3.25487 1.22283 0
M  V30 9392 H 904.163 3.93806 0.689697 0
M  V30 9393 H 905.603 3.87257 1.7265 0
M  V30 9394 C 904.062 2.48931 2.27013 0
M  V30 9395 O 904.592 2.23296 3.33919 0
M  V30 9396 N 902.798 2.0996 2.00911 0
M  V30 9397 H 902.345 2.31008 1.13986 0
M  V30 9398 H 902.303 1.59053 2.712 0
M  V30 9399 N 906.075 0.2925 1.54862 0
M  V30 9400 C 907.022 -0.587365 2.23201 0
M  V30 9401 C 907.992 -1.13623 1.21157 0
M  V30 9402 O 909.177 -1.18233 1.49752 0
M  V30 9403 C 906.317 -1.75745 2.96998 0
M  V30 9404 C 905.43 -1.24078 4.13798 0
M  V30 9405 C 904.565 -2.37405 4.75197 0
M  V30 9406 C 903.604 -1.82829 5.84157 0
M  V30 9407 N 902.741 -2.89696 6.39547 0
M  V30 9408 H 907.581 0.00202207 2.98 0
M  V30 9409 H 905.118 0.012766 1.47094 0
M  V30 9410 H 907.076 -2.44549 3.38011 0
M  V30 9411 H 905.706 -2.3186 2.24591 0
M  V30 9412 H 904.758 -0.445268 3.77785 0
M  V30 9413 H 906.07 -0.801186 4.92324 0
M  V30 9414 H 905.224 -3.14172 5.19019 0
M  V30 9415 H 903.963 -2.84688 3.95985 0
M  V30 9416 H 902.968 -1.04548 5.39768 0
M  V30 9417 H 904.193 -1.36461 6.65248 0
M  V30 9418 H 902.139 -3.36328 5.63222 0
M  V30 9419 H 902.056 -2.50206 7.13395 0
M  V30 9420 H 903.324 -3.66386 6.88027 0
M  V30 9421 N 907.553 -1.57587 0.0200696 0
M  V30 9422 C 908.516 -2.08595 -0.949767 0
M  V30 9423 C 909.516 -0.999215 -1.25985 0
M  V30 9424 O 910.706 -1.26115 -1.2017 0
M  V30 9425 C 907.838 -2.54424 -2.26895 0
M  V30 9426 H 909.031 -2.95563 -0.508161 0
M  V30 9427 H 906.584 -1.54631 -0.227798 0
M  V30 9428 H 907.319 -1.70758 -2.75703 0
M  V30 9429 H 907.104 -3.3381 -2.05702 0
M  V30 9430 H 908.594 -2.94144 -2.96427 0
M  V30 9431 N 909.032 0.252966 -1.55557 0
M  V30 9432 C 909.962 1.31691 -1.9282 0
M  V30 9433 C 910.943 1.50516 -0.7924 0
M  V30 9434 O 912.128 1.63225 -1.05219 0
M  V30 9435 C 909.258 2.67281 -2.21762 0
M  V30 9436 C 908.212 2.6316 -3.37536 0
M  V30 9437 C 907.538 4.02488 -3.52005 0
M  V30 9438 C 908.838 2.20675 -4.73392 0
M  V30 9439 H 910.532 1.00751 -2.81939 0
M  V30 9440 H 908.078 0.483219 -1.3565 0
M  V30 9441 H 910.031 3.41842 -2.46419 0
M  V30 9442 H 908.755 2.99845 -1.29463 0
M  V30 9443 H 907.414 1.91057 -3.12878 0
M  V30 9444 H 907.062 4.32307 -2.57137 0
M  V30 9445 H 906.762 4.00621 -4.29857 0
M  V30 9446 H 908.286 4.78758 -3.78977 0
M  V30 9447 H 909.7 2.84965 -4.97461 0
M  V30 9448 H 908.097 2.29931 -5.54303 0
M  V30 9449 H 909.167 1.15831 -4.70862 0
M  V30 9450 N 910.51 1.48831 0.518367 0
M  V30 9451 C 911.738 1.6112 1.298 0
M  V30 9452 C 912.153 0.275872 1.86774 0
M  V30 9453 O 911.51 -0.736416 1.66983 0
M  V30 9454 C 911.561 2.66675 2.44063 0
M  V30 9455 O 911.282 3.95027 1.89434 0
M  V30 9456 C 912.783 2.8951 3.35706 0
M  V30 9457 H 910.003 0.542916 0.394314 0
M  V30 9458 H 912.547 1.94743 0.624142 0
M  V30 9459 H 910.702 2.35879 3.07311 0
M  V30 9460 H 911.116 4.53031 2.64316 0
M  V30 9461 H 912.59 3.67142 4.12202 0
M  V30 9462 H 913.067 1.98768 3.91648 0
M  V30 9463 H 913.673 3.21656 2.7824 0
M  V30 9464 N 911.988 -0.768124 1.37614 0
M  V30 9465 C 912.936 -1.9029 1.33763 0
M  V30 9466 C 913.93 -1.67888 0.225814 0
M  V30 9467 O 915.136 -1.75634 0.394043 0
M  V30 9468 H 911.511 -0.625828 0.416945 0
M  V30 9469 H 913.482 -1.90654 2.29551 0
M  V30 9470 C 912.231 -3.27598 1.16511 0
M  V30 9471 H 911.554 -3.45414 2.01318 0
M  V30 9472 H 912.994 -4.07288 1.17867 0
M  V30 9473 C 911.453 -3.36653 -0.129001 0
M  V30 9474 O 911.983 -3.86023 -1.11128 0
M  V30 9475 N 910.189 -2.90036 -0.180926 0
M  V30 9476 H 909.736 -2.5005 0.619076 0
M  V30 9477 H 909.694 -2.96475 -1.04641 0
M  V30 9478 N 913.466 -1.22244 -0.994698 0
M  V30 9479 C 914.398 -0.948706 -2.08644 0
M  V30 9480 C 915.411 0.0720049 -1.62641 0
M  V30 9481 O 916.6 -0.161778 -1.77765 0
M  V30 9482 C 913.7 -0.404885 -3.36473 0
M  V30 9483 C 912.873 -1.48239 -4.11514 0
M  V30 9484 C 911.932 -0.94597 -5.17627 0
M  V30 9485 O 910.958 -1.63177 -5.45309 0
M  V30 9486 N 912.16 0.23355 -5.8003 0
M  V30 9487 H 914.925 -1.88858 -2.32707 0
M  V30 9488 H 912.486 -1.12908 -1.16032 0
M  V30 9489 H 914.478 -0.0313903 -4.04688 0
M  V30 9490 H 913.048 0.440061 -3.09487 0
M  V30 9491 H 912.268 -2.02928 -3.37955 0
M  V30 9492 H 913.556 -2.20741 -4.58422 0
M  V30 9493 H 912.954 0.80756 -5.59906 0
M  V30 9494 H 911.511 0.54845 -6.49488 0
M  V30 9495 N 914.944 1.19125 -1.03184 0
M  V30 9496 C 915.854 2.26112 -0.625329 0
M  V30 9497 C 916.87 1.7056 0.344298 0
M  V30 9498 O 918.046 2.0039 0.20144 0
M  V30 9499 C 915.111 3.46697 0.0145169 0
M  V30 9500 C 914.172 4.17419 -1.00299 0
M  V30 9501 C 913.405 5.32247 -0.393581 0
M  V30 9502 O 913.628 5.64724 0.802659 0
M  V30 9503 O 912.562 5.91428 -1.1179 0
M  V30 9504 H 916.388 2.63131 -1.51643 0
M  V30 9505 H 913.973 1.26036 -0.802197 0
M  V30 9506 H 915.855 4.19762 0.371139 0
M  V30 9507 H 914.53 3.11521 0.879581 0
M  V30 9508 H 913.437 3.4646 -1.41125 0
M  V30 9509 H 914.77 4.56573 -1.83852 0
M  V30 9510 N 916.422 0.810101 1.35185 0
M  V30 9511 C 917.671 0.388589 1.97921 0
M  V30 9512 C 917.984 -1.05079 1.64978 0
M  V30 9513 O 919.19 -1.57559 2.21105 0
M  V30 9514 C 917.646 0.643864 3.54094 0
M  V30 9515 C 917.254 2.09602 3.95943 0
M  V30 9516 C 918.998 0.287883 4.23523 0
M  V30 9517 C 916.905 2.29686 5.44976 0
M  V30 9518 H 915.835 0.141562 0.740592 0
M  V30 9519 H 918.486 0.994653 1.54204 0
M  V30 9520 H 916.868 -0.0321978 3.95987 0
M  V30 9521 H 918.042 2.81018 3.65192 0
M  V30 9522 H 916.357 2.4122 3.39414 0
M  V30 9523 H 918.954 0.415946 5.3308 0
M  V30 9524 H 919.297 -0.766305 4.09186 0
M  V30 9525 H 919.83 0.918004 3.87063 0
M  V30 9526 H 916.569 3.33563 5.64284 0
M  V30 9527 H 916.089 1.62798 5.77284 0
M  V30 9528 H 917.768 2.11411 6.11485 0
M  V30 9529 N 917.9 -1.47166 0.563914 0
M  V30 9530 C 918.83 -2.32894 -0.168148 0
M  V30 9531 C 919.811 -1.44202 -0.902214 0
M  V30 9532 O 920.996 -1.73048 -0.881365 0
M  V30 9533 C 918.126 -3.26116 -1.19439 0
M  V30 9534 C 917.08 -4.24101 -0.576363 0
M  V30 9535 C 916.406 -5.06696 -1.70772 0
M  V30 9536 C 917.706 -5.20142 0.47425 0
M  V30 9537 H 919.4 -2.9435 0.547573 0
M  V30 9538 H 916.946 -1.41545 0.264778 0
M  V30 9539 H 918.899 -3.84935 -1.71474 0
M  V30 9540 H 917.623 -2.62728 -1.94014 0
M  V30 9541 H 916.282 -3.66519 -0.0772534 0
M  V30 9542 H 915.93 -4.39707 -2.44268 0
M  V30 9543 H 915.63 -5.7304 -1.29994 0
M  V30 9544 H 917.154 -5.68375 -2.2312 0
M  V30 9545 H 918.568 -5.73286 0.0397035 0
M  V30 9546 H 916.965 -5.94726 0.801287 0
M  V30 9547 H 918.035 -4.65214 1.36764 0
M  V30 9548 N 919.378 -0.300708 -1.54705 0
M  V30 9549 C 920.341 0.562648 -2.22187 0
M  V30 9550 C 921.341 1.06152 -1.20782 0
M  V30 9551 O 922.531 0.957596 -1.45519 0
M  V30 9552 C 919.663 1.77899 -2.908 0
M  V30 9553 H 920.856 -0.0269361 -2.99888 0
M  V30 9554 H 918.409 -0.0515412 -1.56215 0
M  V30 9555 H 919.144 2.40841 -2.17177 0
M  V30 9556 H 918.929 1.42892 -3.65136 0
M  V30 9557 H 920.419 2.39236 -3.42281 0
M  V30 9558 N 920.856 1.57574 -0.0284266 0
M  V30 9559 C 922.104 1.91393 0.649079 0
M  V30 9560 C 922.425 0.905368 1.72708 0
M  V30 9561 O 921.695 -0.0532107 1.95828 0
M  V30 9562 H 920.275 0.70646 0.24274 0
M  V30 9563 H 922.937 1.94752 -0.076066 0
M  V30 9564 H 922.033 2.91988 1.10226 0
M  V30 9565 N 922.334 -0.244713 1.55689 0
M  V30 9566 C 923.564 -0.988508 1.81417 0
M  V30 9567 C 923.972 -1.79362 0.602143 0
M  V30 9568 O 923.315 -1.78386 -0.438639 0
M  V30 9569 C 923.377 -1.97287 3.0053 0
M  V30 9570 C 923.041 -1.35448 4.36466 0
M  V30 9571 C 924.038 -0.755874 5.14376 0
M  V30 9572 C 921.723 -1.37319 4.83165 0
M  V30 9573 C 923.717 -0.184218 6.37134 0
M  V30 9574 C 921.404 -0.797681 6.05871 0
M  V30 9575 C 922.402 -0.204224 6.82695 0
M  V30 9576 O 922.09 0.362392 8.03083 0
M  V30 9577 H 921.822 -0.296412 0.607549 0
M  V30 9578 H 924.376 -0.272185 2.03589 0
M  V30 9579 H 922.606 -2.72756 2.74119 0
M  V30 9580 H 924.295 -2.58028 3.13331 0
M  V30 9581 H 925.061 -0.733912 4.79415 0
M  V30 9582 H 920.94 -1.8245 4.23359 0
M  V30 9583 H 924.484 0.279624 6.97039 0
M  V30 9584 H 920.381 -0.816978 6.40309 0
M  V30 9585 H 921.149 0.254467 8.18104 0
M  V30 9586 N 923.813 -1.49104 -0.510467 0
M  V30 9587 C 924.723 -1.67792 -1.6396 0
M  V30 9588 C 925.739 -0.560454 -1.64727 0
M  V30 9589 O 926.915 -0.833985 -1.83321 0
M  V30 9590 C 923.98 -1.73154 -3.00364 0
M  V30 9591 C 923.041 -2.9667 -3.10299 0
M  V30 9592 C 922.274 -3.01767 -4.40196 0
M  V30 9593 O 922.497 -2.1472 -5.28443 0
M  V30 9594 O 921.431 -3.94137 -4.54906 0
M  V30 9595 H 925.257 -2.63428 -1.51126 0
M  V30 9596 H 922.842 -1.32734 -0.685719 0
M  V30 9597 H 924.724 -1.79089 -3.81451 0
M  V30 9598 H 923.399 -0.806952 -3.1348 0
M  V30 9599 H 922.306 -2.96257 -2.28435 0
M  V30 9600 H 923.639 -3.88578 -3.02106 0
M  V30 9601 N 925.291 0.760815 -1.38019 0
M  V30 9602 C 926.516 1.55513 -1.37224 0
M  V30 9603 C 926.941 1.88062 0.037611 0
M  V30 9604 O 926.299 1.50042 1.0177 0
M  V30 9605 C 926.347 2.83539 -2.22796 0
M  V30 9606 O 925.451 3.78384 -1.64009 0
M  V30 9607 H 924.792 0.470642 -0.468393 0
M  V30 9608 H 927.322 0.940792 -1.81687 0
M  V30 9609 H 927.332 3.32535 -2.36399 0
M  V30 9610 H 926.007 2.59178 -3.25269 0
M  V30 9611 H 924.584 3.37063 -1.59508 0
M  V30 9612 N 926.769 1.22769 0.988202 0
M  V30 9613 C 928.015 1.05665 1.73097 0
M  V30 9614 C 928.348 -0.406615 1.89895 0
M  V30 9615 O 927.623 -1.30132 1.44554 0
M  V30 9616 C 927.906 1.77381 3.13382 0
M  V30 9617 C 927.759 3.31332 3.04203 0
M  V30 9618 C 929.078 1.52999 4.12649 0
M  V30 9619 H 926.197 0.385258 0.628288 0
M  V30 9620 H 928.839 1.51171 1.15097 0
M  V30 9621 H 926.989 1.38696 3.62899 0
M  V30 9622 H 928.661 3.79489 2.6227 0
M  V30 9623 H 926.904 3.60767 2.40894 0
M  V30 9624 H 927.575 3.76692 4.03493 0
M  V30 9625 H 930.051 1.86611 3.71908 0
M  V30 9626 H 928.927 2.05666 5.08913 0
M  V30 9627 H 929.188 0.463615 4.39662 0
M  V30 9628 N 928.247 -1.18576 1.03814 0
M  V30 9629 C 929.194 -2.2212 0.626988 0
M  V30 9630 C 930.164 -1.62064 -0.363912 0
M  V30 9631 O 931.349 -1.89041 -0.258469 0
M  V30 9632 C 928.489 -3.45099 -0.00650133 0
M  V30 9633 C 927.602 -4.19503 1.03156 0
M  V30 9634 C 926.737 -5.29932 0.366852 0
M  V30 9635 C 925.776 -5.96104 1.39018 0
M  V30 9636 N 924.913 -6.98076 0.750625 0
M  V30 9637 H 929.753 -2.56646 1.51449 0
M  V30 9638 H 927.29 -1.26084 0.757702 0
M  V30 9639 H 929.248 -4.15363 -0.391108 0
M  V30 9640 H 927.878 -3.11201 -0.857536 0
M  V30 9641 H 926.93 -3.48092 1.53414 0
M  V30 9642 H 928.242 -4.64843 1.80893 0
M  V30 9643 H 927.396 -6.06657 -0.0720979 0
M  V30 9644 H 926.135 -4.85687 -0.442631 0
M  V30 9645 H 925.14 -5.18122 1.8393 0
M  V30 9646 H 926.365 -6.42432 2.20132 0
M  V30 9647 H 924.311 -6.55989 -0.0385981 0
M  V30 9648 H 924.228 -7.41655 1.46574 0
M  V30 9649 H 925.496 -7.78776 0.335986 0
M  V30 9650 N 929.725 -0.817259 -1.34754 0
M  V30 9651 C 930.688 -0.240611 -2.27934 0
M  V30 9652 C 931.688 0.578219 -1.50044 0
M  V30 9653 O 932.878 0.395148 -1.69659 0
M  V30 9654 C 930.01 0.663318 -3.34384 0
M  V30 9655 H 931.203 -1.06257 -2.80445 0
M  V30 9656 H 928.756 -0.588697 -1.4479 0
M  V30 9657 H 929.491 1.50855 -2.87077 0
M  V30 9658 H 929.276 0.0777388 -3.92023 0
M  V30 9659 H 930.766 1.06076 -4.03903 0
M  V30 9660 N 931.203 1.46865 -0.571711 0
M  V30 9661 C 932.133 2.3298 0.155795 0
M  V30 9662 C 933.114 1.44678 0.894553 0
M  V30 9663 O 934.299 1.73513 0.872176 0
M  V30 9664 C 931.429 3.26745 1.17708 0
M  V30 9665 C 930.383 4.24401 0.553863 0
M  V30 9666 C 929.709 5.07595 1.68083 0
M  V30 9667 C 931.009 5.19884 -0.501827 0
M  V30 9668 H 932.703 2.94056 -0.563176 0
M  V30 9669 H 930.249 1.41402 -0.27228 0
M  V30 9670 H 932.202 3.85838 1.6943 0
M  V30 9671 H 930.926 2.63753 1.92618 0
M  V30 9672 H 929.585 3.66554 0.057815 0
M  V30 9673 H 929.233 4.40996 2.41933 0
M  V30 9674 H 928.933 5.73722 1.26953 0
M  V30 9675 H 930.457 5.6955 2.20103 0
M  V30 9676 H 931.871 5.73257 -0.0701057 0
M  V30 9677 H 930.268 5.94293 -0.832815 0
M  V30 9678 H 931.338 4.64482 -1.39229 0
M  V30 9679 N 932.681 0.308908 1.54543 0
M  V30 9680 C 933.631 -0.578902 2.20528 0
M  V30 9681 C 934.615 -1.09288 1.18088 0
M  V30 9682 O 935.807 -1.03234 1.43777 0
M  V30 9683 C 932.936 -1.74649 2.95555 0
M  V30 9684 C 932.022 -1.24809 4.05319 0
M  V30 9685 N 932.413 -0.46828 5.03628 0
M  V30 9686 C 930.711 -1.52813 4.19004 0
M  V30 9687 C 931.412 -0.201896 5.8135 0
M  V30 9688 N 930.388 -0.783927 5.37918 0
M  V30 9689 H 934.19 0.0243496 2.9389 0
M  V30 9690 H 931.704 0.114049 1.61999 0
M  V30 9691 H 933.701 -2.39414 3.41301 0
M  V30 9692 H 932.361 -2.35336 2.23712 0
M  V30 9693 H 933.372 -0.112453 5.17778 0
M  V30 9694 H 930.049 -2.14191 3.58369 0
M  V30 9695 H 931.439 0.424929 6.70555 0
M  V30 9696 N 934.159 -1.57557 0.0367827 0
M  V30 9697 C 935.407 -1.91735 -0.63892 0
M  V30 9698 C 935.728 -0.914515 -1.72226 0
M  V30 9699 O 934.998 0.0428248 -1.95853 0
M  V30 9700 H 933.578 -0.707738 -0.23899 0
M  V30 9701 H 936.24 -1.94708 0.0863931 0
M  V30 9702 H 935.336 -2.92568 -1.08676 0
M  V30 9703 N 935.637 0.236453 -1.55816 0
M  V30 9704 C 936.885 0.96111 -1.77784 0
M  V30 9705 C 937.206 1.85454 -0.602648 0
M  V30 9706 O 936.476 1.92157 0.381137 0
M  V30 9707 H 935.056 0.35787 -0.655697 0
M  V30 9708 H 937.718 0.251888 -1.93265 0
M  V30 9709 H 936.814 1.5767 -2.69345 0
M  V30 9710 N 937.115 1.49373 0.502552 0
M  V30 9711 C 938.34 1.62752 1.28556 0
M  V30 9712 C 938.765 0.298285 1.8572 0
M  V30 9713 O 938.123 -0.733885 1.65782 0
M  V30 9714 C 938.171 2.69778 2.39274 0
M  V30 9715 O 937.275 2.28843 3.43081 0
M  V30 9716 H 936.616 0.544799 0.379592 0
M  V30 9717 H 939.146 1.9555 0.601792 0
M  V30 9718 H 939.156 2.91899 2.8506 0
M  V30 9719 H 937.831 3.66266 1.97033 0
M  V30 9720 H 936.408 2.17047 3.03224 0
M  V30 9721 N 938.594 -0.753485 1.38421 0
M  V30 9722 C 939.843 -1.50797 1.33952 0
M  V30 9723 C 940.156 -1.95482 -0.0678464 0
M  V30 9724 O 941.362 -2.7048 -0.235078 0
M  V30 9725 C 939.818 -2.72393 2.35224 0
M  V30 9726 C 939.426 -2.34733 3.81582 0
M  V30 9727 C 941.17 -3.50281 2.39798 0
M  V30 9728 C 939.077 -3.52939 4.7454 0
M  V30 9729 H 938.007 -0.566211 0.497916 0
M  V30 9730 H 940.658 -0.823659 1.63976 0
M  V30 9731 H 939.04 -3.42806 1.98243 0
M  V30 9732 H 940.214 -1.71985 4.27502 0
M  V30 9733 H 938.529 -1.69978 3.80127 0
M  V30 9734 H 941.126 -4.38172 3.06447 0
M  V30 9735 H 941.469 -3.91444 1.41695 0
M  V30 9736 H 942.002 -2.86881 2.75579 0
M  V30 9737 H 938.741 -3.16843 5.73839 0
M  V30 9738 H 938.261 -4.1473 4.33312 0
M  V30 9739 H 939.94 -4.19519 4.92557 0
M  V30 9740 N 940.072 -1.23292 -0.981677 0
M  V30 9741 C 941.483 -1.05936 -1.53735 0
M  V30 9742 C 941.834 0.373695 -1.92608 0
M  V30 9743 O 940.959 1.26024 -1.75917 0
M  V30 9744 C 941.554 -1.91682 -2.79363 0
M  V30 9745 C 940.113 -1.78591 -3.31334 0
M  V30 9746 C 939.26 -1.87463 -2.04335 0
M  V30 9747 H 942.211 -1.36973 -0.801505 0
M  V30 9748 H 942.232 -1.44085 -3.52164 0
M  V30 9749 H 941.744 -2.95975 -2.51039 0
M  V30 9750 H 939.845 -0.770755 -3.64541 0
M  V30 9751 H 939.958 -2.61902 -4.01179 0
M  V30 9752 H 938.322 -1.3103 -2.18411 0
M  V30 9753 H 939.105 -2.9331 -1.78394 0
M  V30 9754 N 941.55 1.18024 -1.04442 0
M  V30 9755 C 942.497 2.21785 -0.638759 0
M  V30 9756 C 943.467 1.62255 0.355312 0
M  V30 9757 O 944.652 1.89176 0.24844 0
M  V30 9758 C 941.792 3.45098 -0.0118002 0
M  V30 9759 C 940.905 4.1895 -1.05379 0
M  V30 9760 C 940.04 5.2973 -0.394951 0
M  V30 9761 C 939.079 5.95359 -1.42178 0
M  V30 9762 N 938.216 6.97668 -0.787635 0
M  V30 9763 H 943.056 2.55839 -1.52808 0
M  V30 9764 H 940.593 1.25681 -0.764378 0
M  V30 9765 H 942.551 4.15564 0.369075 0
M  V30 9766 H 941.181 3.11652 0.84102 0
M  V30 9767 H 940.233 3.47274 -1.55258 0
M  V30 9768 H 941.545 4.63877 -1.83355 0
M  V30 9769 H 940.699 6.06687 0.0399244 0
M  V30 9770 H 939.438 4.85915 0.416867 0
M  V30 9771 H 938.443 5.17139 -1.86675 0
M  V30 9772 H 939.668 6.41255 -2.23536 0
M  V30 9773 H 937.614 6.56 0.00380893 0
M  V30 9774 H 937.531 7.40867 -1.50505 0
M  V30 9775 H 938.799 7.78586 -0.377282 0
M  V30 9776 N 943.028 0.824394 1.34319 0
M  V30 9777 C 944.277 0.40956 1.97498 0
M  V30 9778 C 944.59 -1.03323 1.66083 0
M  V30 9779 O 945.796 -1.55205 2.22764 0
M  V30 9780 C 944.252 0.681384 3.53391 0
M  V30 9781 C 943.86 2.1379 3.93698 0
M  V30 9782 C 945.604 0.332788 4.23194 0
M  V30 9783 C 943.511 2.35453 5.42509 0
M  V30 9784 H 942.441 0.149409 0.739049 0
M  V30 9785 H 945.092 1.01095 1.5314 0
M  V30 9786 H 943.474 0.00980375 3.95999 0
M  V30 9787 H 944.648 2.84876 3.62191 0
M  V30 9788 H 942.963 2.44807 3.36836 0
M  V30 9789 H 945.56 0.472463 5.32609 0
M  V30 9790 H 945.903 -0.722862 4.09976 0
M  V30 9791 H 946.436 0.959005 3.86067 0
M  V30 9792 H 943.175 3.39529 5.60714 0
M  V30 9793 H 942.695 1.68912 5.75525 0
M  V30 9794 H 944.374 2.17885 6.09209 0
M  V30 9795 N 944.506 -1.46559 0.579492 0
M  V30 9796 C 945.917 -1.8608 0.152052 0
M  V30 9797 C 946.268 -1.48346 -1.28405 0
M  V30 9798 O 945.393 -0.89685 -1.9694 0
M  V30 9799 C 945.988 -3.37729 0.269171 0
M  V30 9800 C 944.547 -3.76258 -0.103376 0
M  V30 9801 C 943.694 -2.70584 0.60659 0
M  V30 9802 H 946.645 -1.3776 0.787904 0
M  V30 9803 H 946.666 -3.77116 -0.506339 0
M  V30 9804 H 946.178 -3.65162 1.31448 0
M  V30 9805 H 944.279 -3.54443 -1.14895 0
M  V30 9806 H 944.392 -4.78335 0.270701 0
M  V30 9807 H 942.756 -2.54656 0.0471984 0
M  V30 9808 H 943.539 -3.00856 1.65349 0
M  V30 9809 N 945.984 -0.3171 -1.54377 0
M  V30 9810 C 946.932 0.567371 -2.25574 0
M  V30 9811 C 947.926 1.12387 -1.2675 0
M  V30 9812 O 949.132 1.07266 -1.44548 0
M  V30 9813 H 945.507 0.201605 -0.724472 0
M  V30 9814 H 947.478 -0.0554644 -2.98348 0
M  V30 9815 C 946.227 1.71984 -3.02187 0
M  V30 9816 H 945.55 1.30086 -3.78044 0
M  V30 9817 H 946.99 2.31443 -3.5526 0
M  V30 9818 C 945.449 2.6336 -2.10103 0
M  V30 9819 O 945.979 3.64899 -1.67962 0
M  V30 9820 N 944.185 2.3145 -1.75725 0
M  V30 9821 H 943.732 1.48921 -2.10191 0
M  V30 9822 H 943.69 2.92852 -1.14391 0
M  V30 9823 N 947.462 1.57535 -0.0451378 0
M  V30 9824 C 948.425 2.1008 0.916461 0
M  V30 9825 C 949.425 1.01913 1.2438 0
M  V30 9826 O 950.615 1.2801 1.18148 0
M  V30 9827 C 947.747 2.58001 2.22818 0
M  V30 9828 H 948.94 2.96334 0.461076 0
M  V30 9829 H 946.493 1.54974 0.203169 0
M  V30 9830 H 947.228 1.75123 2.72951 0
M  V30 9831 H 947.013 3.3704 2.00366 0
M  V30 9832 H 948.503 2.98822 2.9171 0
M  V30 9833 N 948.94 -0.228186 1.55939 0
M  V30 9834 C 950.217 -0.977492 1.69424 0
M  V30 9835 C 950.597 -2.02674 0.590479 0
M  V30 9836 O 949.945 -2.2491 -0.403467 0
M  V30 9837 C 950.155 -1.59394 3.10475 0
M  V30 9838 C 951.503 -2.08871 3.69673 0
M  V30 9839 O 952.527 -1.693 3.13394 0
M  V30 9840 O 951.386 -2.81584 4.68372 0
M  V30 9841 H 948.48 -0.456185 0.6898 0
M  V30 9842 H 951.026 -0.220492 1.68261 0
M  V30 9843 H 949.798 -0.835971 3.82266 0
M  V30 9844 H 949.421 -2.41665 3.15727 0
M  V30 9845 N 950.418 -1.49637 -0.494624 0
M  V30 9846 C 951.667 -1.58691 -1.24499 0
M  V30 9847 C 951.98 -0.281763 -1.9356 0
M  V30 9848 O 953.186 -0.250925 -2.70338 0
M  V30 9849 C 951.642 -2.8002 -2.26091 0
M  V30 9850 C 951.25 -4.17318 -1.6294 0
M  V30 9851 C 952.994 -2.98407 -3.01916 0
M  V30 9852 C 950.901 -5.29862 -2.62679 0
M  V30 9853 H 949.831 -0.590888 -0.468367 0
M  V30 9854 H 952.482 -1.76034 -0.518112 0
M  V30 9855 H 950.864 -2.56185 -3.01969 0
M  V30 9856 H 952.038 -4.51315 -0.930108 0
M  V30 9857 H 950.353 -4.04342 -0.994819 0
M  V30 9858 H 952.95 -3.79658 -3.76516 0
M  V30 9859 H 953.293 -2.09214 -3.5991 0
M  V30 9860 H 953.826 -3.22312 -2.33152 0
M  V30 9861 H 950.565 -6.21134 -2.09458 0
M  V30 9862 H 950.085 -5.00311 -3.3083 0
M  V30 9863 H 951.764 -5.59461 -3.2498 0
M  V30 9864 N 951.896 0.746133 -1.38819 0
M  V30 9865 C 953.173 1.49652 -1.25951 0
M  V30 9866 C 953.553 2.10663 0.135833 0
M  V30 9867 O 952.901 1.97682 1.14604 0
M  V30 9868 C 953.111 2.5569 -2.37537 0
M  V30 9869 C 954.459 3.22385 -2.76321 0
M  V30 9870 O 955.483 2.65998 -2.36904 0
M  V30 9871 O 954.342 4.2439 -3.44319 0
M  V30 9872 H 951.436 0.664019 -0.492958 0
M  V30 9873 H 953.982 0.780908 -1.50665 0
M  V30 9874 H 952.754 2.08908 -3.30867 0
M  V30 9875 H 952.377 3.34823 -2.14427 0
M  V30 9876 N 953.375 1.23811 0.975125 0
M  V30 9877 C 954.285 1.0408 2.10249 0
M  V30 9878 C 955.301 -0.0162404 1.73992 0
M  V30 9879 O 956.477 0.180346 2.00591 0
M  V30 9880 C 953.542 0.640013 3.40741 0
M  V30 9881 C 952.603 1.7727 3.90991 0
M  V30 9882 C 951.836 1.39094 5.15256 0
M  V30 9883 O 952.059 0.277483 5.69725 0
M  V30 9884 O 950.993 2.21392 5.59704 0
M  V30 9885 H 954.819 1.98575 2.29786 0
M  V30 9886 H 952.404 1.02563 1.08633 0
M  V30 9887 H 954.286 0.427684 4.19224 0
M  V30 9888 H 952.961 -0.27589 3.22522 0
M  V30 9889 H 951.868 2.03971 3.13602 0
M  V30 9890 H 953.201 2.66711 4.13674 0
M  V30 9891 N 954.853 -1.17469 1.05066 0
M  V30 9892 C 956.13 -1.83625 0.673872 0
M  V30 9893 C 956.51 -1.93412 -0.845871 0
M  V30 9894 O 955.858 -1.4677 -1.75131 0
M  V30 9895 C 956.068 -3.21352 1.36139 0
M  V30 9896 C 957.416 -3.97274 1.49863 0
M  V30 9897 O 958.44 -3.30827 1.3203 0
M  V30 9898 O 957.299 -5.16349 1.79013 0
M  V30 9899 H 954.393 -0.792297 0.237055 0
M  V30 9900 H 956.939 -1.24776 1.15017 0
M  V30 9901 H 955.711 -3.0919 2.39827 0
M  V30 9902 H 955.334 -3.87867 0.874364 0
M  V30 9903 N 956.331 -0.831506 -1.3388 0
M  V30 9904 C 957.742 -0.481375 -1.80388 0
M  V30 9905 C 958.093 0.998993 -1.68863 0
M  V30 9906 O 957.218 1.77795 -1.2336 0
M  V30 9907 C 957.813 -0.86699 -3.27519 0
M  V30 9908 C 956.372 -0.569105 -3.72073 0
M  V30 9909 C 955.519 -1.07929 -2.55434 0
M  V30 9910 H 958.47 -1.02089 -1.21505 0
M  V30 9911 H 958.491 -0.174128 -3.80101 0
M  V30 9912 H 958.003 -1.94447 -3.35875 0
M  V30 9913 H 956.104 0.498607 -3.69249 0
M  V30 9914 H 956.217 -1.11918 -4.65845 0
M  V30 9915 H 954.581 -0.500465 -2.49735 0
M  V30 9916 H 955.364 -2.16339 -2.66556 0
M  V30 9917 N 957.809 1.4625 -0.587256 0
M  V30 9918 C 959.034 2.07252 -0.0784517 0
M  V30 9919 C 959.459 1.43239 1.21919 0
M  V30 9920 O 958.817 0.517791 1.73749 0
M  V30 9921 C 958.865 3.60534 0.0691037 0
M  V30 9922 O 957.969 3.96773 1.12448 0
M  V30 9923 H 957.31 0.660825 -0.064859 0
M  V30 9924 H 959.84 1.87819 -0.811491 0
M  V30 9925 H 959.85 4.0708 0.273826 0
M  V30 9926 H 958.525 4.06516 -0.878514 0
M  V30 9927 H 957.102 3.6193 0.897852 0
M  V30 9928 N 959.287 0.325282 1.54207 0
M  V30 9929 C 960.533 -0.277185 2.00897 0
M  V30 9930 C 960.866 -1.51651 1.21308 0
M  V30 9931 O 960.141 -1.92237 0.295825 0
M  V30 9932 C 960.424 -0.60961 3.54902 0
M  V30 9933 C 960.277 0.640542 4.45216 0
M  V30 9934 C 961.596 -1.42656 4.16338 0
M  V30 9935 H 958.715 -0.0992722 0.730284 0
M  V30 9936 H 961.357 0.442201 1.84783 0
M  V30 9937 H 959.507 -1.22249 3.68765 0
M  V30 9938 H 961.179 1.27878 4.43221 0
M  V30 9939 H 959.422 1.26908 4.14821 0
M  V30 9940 H 960.093 0.363459 5.50802 0
M  V30 9941 H 962.569 -0.908494 4.06061 0
M  V30 9942 H 961.445 -1.62792 5.24204 0
M  V30 9943 H 961.706 -2.42321 3.69774 0
M  V30 9944 N 960.765 -1.57509 0.0534917 0
M  V30 9945 C 962.012 -1.92782 -0.619772 0
M  V30 9946 C 962.34 -0.932046 -1.70714 0
M  V30 9947 O 961.595 0.0552891 -1.95622 0
M  V30 9948 C 961.894 -3.34734 -1.25251 0
M  V30 9949 C 961.56 -4.49946 -0.293113 0
M  V30 9950 C 960.222 -4.81191 -0.0291223 0
M  V30 9951 C 962.574 -5.19925 0.364271 0
M  V30 9952 C 959.902 -5.79761 0.899649 0
M  V30 9953 C 962.254 -6.19489 1.28125 0
M  V30 9954 C 960.918 -6.49161 1.55389 0
M  V30 9955 H 960.188 -0.705441 -0.226791 0
M  V30 9956 H 962.835 -1.91121 0.120466 0
M  V30 9957 H 961.14 -3.32774 -2.06807 0
M  V30 9958 H 962.837 -3.59308 -1.78042 0
M  V30 9959 H 959.427 -4.25566 -0.509053 0
M  V30 9960 H 963.611 -4.95997 0.173411 0
M  V30 9961 H 958.867 -6.01085 1.11833 0
M  V30 9962 H 963.041 -6.72824 1.79669 0
M  V30 9963 H 960.668 -7.25354 2.2752 0
M  V30 9964 N 962.243 0.219913 -1.56058 0
M  V30 9965 C 963.52 0.968493 -1.6994 0
M  V30 9966 C 963.9 2.02358 -0.601219 0
M  V30 9967 O 963.248 2.25121 0.391534 0
M  V30 9968 C 963.458 1.57745 -3.11316 0
M  V30 9969 C 964.806 2.06908 -3.70775 0
M  V30 9970 O 965.83 1.67636 -3.14288 0
M  V30 9971 O 964.689 2.79096 -4.69859 0
M  V30 9972 H 961.783 0.452521 -0.692209 0
M  V30 9973 H 964.329 0.211566 -1.68376 0
M  V30 9974 H 963.101 0.815687 -3.82704 0
M  V30 9975 H 962.724 2.39987 -3.17005 0
M  V30 9976 N 963.721 1.49897 0.486681 0
M  V30 9977 C 964.969 1.59789 1.23742 0
M  V30 9978 C 965.29 0.293056 1.92785 0
M  V30 9979 O 964.56 -0.688534 1.83401 0
M  V30 9980 H 963.14 0.588775 0.459731 0
M  V30 9981 H 965.802 1.86597 0.562808 0
M  V30 9982 H 964.898 2.40121 1.9937 0
M  V30 9983 N 965.199 -0.738761 1.39212 0
M  V30 9984 C 966.476 -1.48982 1.26742 0
M  V30 9985 C 966.856 -2.10732 -0.12466 0
M  V30 9986 O 966.204 -1.98287 -1.13554 0
M  V30 9987 C 966.414 -2.54427 2.38889 0
M  V30 9988 C 967.762 -3.20915 2.78027 0
M  V30 9989 O 968.786 -2.64738 2.38311 0
M  V30 9990 O 967.645 -4.22558 3.46565 0
M  V30 9991 H 964.739 -0.661395 0.496473 0
M  V30 9992 H 967.285 -0.772907 1.51077 0
M  V30 9993 H 966.057 -2.07151 3.3197 0
M  V30 9994 H 965.68 -3.33682 2.162 0
M  V30 9995 N 966.677 -1.24326 -0.968545 0
M  V30 9996 C 967.609 -0.992749 -2.06584 0
M  V30 9997 C 968.622 0.0374902 -1.62757 0
M  V30 9998 O 969.811 -0.199448 -1.77382 0
M  V30 9999 C 966.911 -0.476165 -3.35538 0
M  V30 10000 C 966.084 -1.56934 -4.08277 0
M  V30 10001 C 965.143 -1.05555 -5.15504 0
M  V30 10002 O 964.169 -1.74707 -5.41725 0
M  V30 10003 N 965.371 0.110465 -5.80395 0
M  V30 10004 H 968.136 -1.93752 -2.28649 0
M  V30 10005 H 965.697 -1.15344 -1.13611 0
M  V30 10006 H 967.689 -0.117223 -4.0453 0
M  V30 10007 H 966.259 0.374315 -3.10351 0
M  V30 10008 H 965.479 -2.10051 -3.33575 0
M  V30 10009 H 966.767 -2.30415 -4.53637 0
M  V30 10010 H 966.165 0.688614 -5.61493 0
M  V30 10011 H 964.722 0.41056 -6.50506 0
M  V30 10012 N 968.156 1.1691 -1.05688 0
M  V30 10013 C 969.106 2.19056 -0.632339 0
M  V30 10014 C 970.09 1.574 0.333797 0
M  V30 10015 O 971.282 1.76361 0.150223 0
M  V30 10016 C 968.411 3.43297 -0.0138209 0
M  V30 10017 C 967.497 4.12042 -1.00408 0
M  V30 10018 N 967.888 4.56535 -2.17737 0
M  V30 10019 C 966.186 4.38139 -0.833663 0
M  V30 10020 C 966.887 5.09644 -2.80425 0
M  V30 10021 N 965.863 5.02153 -2.08191 0
M  V30 10022 H 969.665 2.51165 -1.52621 0
M  V30 10023 H 967.179 1.33294 -0.927707 0
M  V30 10024 H 969.176 4.1576 0.308117 0
M  V30 10025 H 967.836 3.12677 0.87538 0
M  V30 10026 H 968.847 4.50463 -2.55546 0
M  V30 10027 H 965.524 4.175 0.00406684 0
M  V30 10028 H 966.914 5.54153 -3.79952 0
M  V30 10029 N 969.634 0.838594 1.33437 0
M  V30 10030 C 971.05 0.526347 1.50671 0
M  V30 10031 C 971.25 -0.946387 1.77893 0
M  V30 10032 O 970.306 -1.7302 1.83903 0
M  V30 10033 C 971.619 1.39945 2.6615 0
M  V30 10034 C 973.167 1.3982 2.80035 0
M  V30 10035 C 973.642 2.25614 3.98576 0
M  V30 10036 N 975.133 2.23322 4.0581 0
M  V30 10037 C 975.868 2.86443 4.96727 0
M  V30 10038 N 975.364 3.58616 5.92762 0
M  V30 10039 N 977.157 2.75915 4.89722 0
M  V30 10040 H 969.308 1.79195 1.1403 0
M  V30 10041 H 971.571 0.764491 0.560586 0
M  V30 10042 H 971.277 2.44599 2.52714 0
M  V30 10043 H 971.151 1.07529 3.61548 0
M  V30 10044 H 973.538 0.35937 2.92904 0
M  V30 10045 H 973.619 1.76241 1.85399 0
M  V30 10046 H 973.263 3.29555 3.86466 0
M  V30 10047 H 973.193 1.86533 4.92456 0
M  V30 10048 H 975.684 1.70836 3.37081 0
M  V30 10049 H 975.997 4.03987 6.58798 0
M  V30 10050 H 974.342 3.62724 5.92838 0
M  V30 10051 H 977.533 2.19094 4.13661 0
M  V30 10052 H 977.706 3.25393 5.60378 0
M  V30 10053 N 971.112 -1.45937 0.595003 0
M  V30 10054 C 972.523 -1.85908 0.171779 0
M  V30 10055 C 972.874 -1.497 -1.26824 0
M  V30 10056 O 971.999 -0.917688 -1.95978 0
M  V30 10057 C 972.594 -3.37425 0.304976 0
M  V30 10058 C 971.153 -3.76346 -0.0634635 0
M  V30 10059 C 970.3 -2.69926 0.635255 0
M  V30 10060 H 973.251 -1.36916 0.802471 0
M  V30 10061 H 973.272 -3.77632 -0.466313 0
M  V30 10062 H 972.784 -3.63747 1.35314 0
M  V30 10063 H 970.885 -3.55642 -1.11129 0
M  V30 10064 H 970.998 -4.78021 0.321419 0
M  V30 10065 H 969.362 -2.54592 0.0742054 0
M  V30 10066 H 970.145 -2.99086 1.68531 0
M  V30 10067 N 972.59 -0.333456 -1.54032 0
M  V30 10068 C 973.522 0.562174 -2.22199 0
M  V30 10069 C 974.535 1.07202 -1.22522 0
M  V30 10070 O 975.724 0.983897 -1.48935 0
M  V30 10071 C 972.824 1.78525 -2.88066 0
M  V30 10072 C 971.997 1.41242 -4.13968 0
M  V30 10073 C 971.056 2.49408 -4.63338 0
M  V30 10074 O 970.082 2.13138 -5.27789 0
M  V30 10075 N 971.284 3.805 -4.38406 0
M  V30 10076 H 974.049 -0.0215629 -2.99692 0
M  V30 10077 H 971.61 -0.157111 -1.61136 0
M  V30 10078 H 973.602 2.50298 -3.18014 0
M  V30 10079 H 972.172 2.2766 -2.14219 0
M  V30 10080 H 971.392 0.525887 -3.90676 0
M  V30 10081 H 972.68 1.13916 -4.95884 0
M  V30 10082 H 972.078 4.12761 -3.86839 0
M  V30 10083 H 970.635 4.48474 -4.72984 0
M  V30 10084 N 974.068 1.57479 -0.061844 0
M  V30 10085 C 975.298 1.97142 0.61794 0
M  V30 10086 C 975.706 0.938533 1.64281 0
M  V30 10087 O 975.049 -0.084385 1.83506 0
M  V30 10088 C 975.111 3.33083 1.35263 0
M  V30 10089 C 974.775 4.54447 0.482372 0
M  V30 10090 C 975.772 5.1927 -0.255954 0
M  V30 10091 C 973.457 5.00623 0.410167 0
M  V30 10092 C 975.451 6.28612 -1.05481 0
M  V30 10093 C 973.138 6.09839 -0.392369 0
M  V30 10094 C 974.136 6.73696 -1.12354 0
M  V30 10095 O 973.824 7.80811 -1.91285 0
M  V30 10096 H 973.556 0.653497 0.172969 0
M  V30 10097 H 976.11 2.05002 -0.127781 0
M  V30 10098 H 974.34 3.21808 2.14421 0
M  V30 10099 H 976.029 3.5742 1.92368 0
M  V30 10100 H 976.795 4.84546 -0.209703 0
M  V30 10101 H 972.674 4.50704 0.968883 0
M  V30 10102 H 976.218 6.78385 -1.62602 0
M  V30 10103 H 972.115 6.43997 -0.44022 0
M  V30 10104 H 972.883 7.9764 -1.83611 0
M  V30 10105 N 975.546 -0.211634 1.56173 0
M  V30 10106 C 976.496 -1.26602 1.8962 0
M  V30 10107 C 977.48 -1.41808 0.760222 0
M  V30 10108 O 978.672 -1.44456 1.02281 0
M  V30 10109 C 975.801 -2.61438 2.22497 0
M  V30 10110 C 974.887 -2.50094 3.42511 0
M  V30 10111 N 975.278 -2.0841 4.60868 0
M  V30 10112 C 973.576 -2.81028 3.46322 0
M  V30 10113 C 974.277 -2.08557 5.43028 0
M  V30 10114 N 973.253 -2.49427 4.82998 0
M  V30 10115 H 977.055 -0.934806 2.78637 0
M  V30 10116 H 974.569 -0.420154 1.56871 0
M  V30 10117 H 976.566 -3.37577 2.44638 0
M  V30 10118 H 975.226 -2.95397 1.34798 0
M  V30 10119 H 976.237 -1.79382 4.85842 0
M  V30 10120 H 972.914 -3.19294 2.68994 0
M  V30 10121 H 974.304 -1.7837 6.47791 0
M  V30 10122 N 977.024 -1.50153 -0.478725 0
M  V30 10123 C 977.987 -1.67916 -1.56003 0
M  V30 10124 C 978.987 -0.550111 -1.51097 0
M  V30 10125 O 980.177 -0.817001 -1.53853 0
M  V30 10126 C 977.309 -1.6973 -2.95643 0
M  V30 10127 H 978.502 -2.6438 -1.41573 0
M  V30 10128 H 976.055 -1.39519 -0.704565 0
M  V30 10129 H 976.79 -0.749306 -3.15525 0
M  V30 10130 H 976.575 -2.51745 -3.00611 0
M  V30 10131 H 978.065 -1.85453 -3.74162 0
M  V30 10132 N 978.502 0.731368 -1.39602 0
M  V30 10133 C 979.435 1.85433 -1.33004 0
M  V30 10134 C 980.413 1.61327 -0.20307 0
M  V30 10135 O 981.597 1.84545 -0.384124 0
M  V30 10136 C 978.724 3.21483 -1.06613 0
M  V30 10137 C 977.77 3.64443 -2.21549 0
M  V30 10138 S 978.603 3.73387 -3.83852 0
M  V30 10139 C 979.759 5.12222 -3.59694 0
M  V30 10140 H 979.992 1.90747 -2.28041 0
M  V30 10141 H 977.525 0.89659 -1.25701 0
M  V30 10142 H 979.483 4.00041 -0.920719 0
M  V30 10143 H 978.144 3.1382 -0.132563 0
M  V30 10144 H 977.337 4.63185 -1.98686 0
M  V30 10145 H 976.939 2.93099 -2.32312 0
M  V30 10146 H 979.231 5.98666 -3.17184 0
M  V30 10147 H 980.174 5.40115 -4.5791 0
M  V30 10148 H 980.582 4.8207 -2.93716 0
M  V30 10149 N 979.98 1.24838 0.961938 0
M  V30 10150 C 981.391 1.08369 1.5203 0
M  V30 10151 C 981.742 -0.343005 1.93178 0
M  V30 10152 O 980.867 -1.2321 1.779 0
M  V30 10153 C 981.462 1.96102 2.76278 0
M  V30 10154 C 980.021 1.8384 3.28451 0
M  V30 10155 C 979.168 1.9069 2.01327 0
M  V30 10156 H 982.119 1.38231 0.779613 0
M  V30 10157 H 982.14 1.4967 3.49827 0
M  V30 10158 H 981.652 2.99931 2.46298 0
M  V30 10159 H 979.753 0.828653 3.63269 0
M  V30 10160 H 979.866 2.68251 3.96961 0
M  V30 10161 H 978.23 1.34488 2.16299 0
M  V30 10162 H 979.013 2.96111 1.73705 0
M  V30 10163 N 981.458 -1.16348 1.06306 0
M  V30 10164 C 982.869 -1.68491 0.80422 0
M  V30 10165 C 983.22 -1.84327 -0.672159 0
M  V30 10166 O 982.345 -1.53892 -1.52139 0
M  V30 10167 C 982.94 -3.06048 1.45328 0
M  V30 10168 C 981.499 -3.55311 1.24221 0
M  V30 10169 C 980.646 -2.31291 1.5297 0
M  V30 10170 H 983.597 -1.00708 1.22652 0
M  V30 10171 H 983.618 -3.70451 0.868674 0
M  V30 10172 H 983.13 -2.9449 2.52779 0
M  V30 10173 H 981.231 -3.72128 0.187447 0
M  V30 10174 H 981.344 -4.37397 1.95502 0
M  V30 10175 H 979.708 -2.3631 0.950241 0
M  V30 10176 H 980.491 -2.22331 2.6158 0
M  V30 10177 N 982.937 -0.845659 -1.3299 0
M  V30 10178 C 983.869 -0.241097 -2.27928 0
M  V30 10179 C 984.882 0.582048 -1.5204 0
M  V30 10180 O 986.071 0.408008 -1.73774 0
M  V30 10181 C 983.171 0.678652 -3.32035 0
M  V30 10182 C 982.344 -0.106652 -4.3727 0
M  V30 10183 C 981.403 0.737478 -5.21006 0
M  V30 10184 O 980.429 0.174231 -5.68933 0
M  V30 10185 N 981.631 2.05372 -5.42957 0
M  V30 10186 H 984.396 -1.05685 -2.80448 0
M  V30 10187 H 981.957 -0.704771 -1.45755 0
M  V30 10188 H 983.949 1.24849 -3.84961 0
M  V30 10189 H 982.519 1.3951 -2.79742 0
M  V30 10190 H 981.739 -0.857897 -3.84752 0
M  V30 10191 H 983.027 -0.646386 -5.04677 0
M  V30 10192 H 982.425 2.53478 -5.05733 0
M  V30 10193 H 980.982 2.5719 -5.98913 0
M  V30 10194 N 984.415 1.45619 -0.602734 0
M  V30 10195 C 985.363 2.32228 0.131484 0
M  V30 10196 C 986.357 1.45681 0.864484 0
M  V30 10197 O 987.563 1.62193 0.7806 0
M  V30 10198 H 983.938 0.7495 0.0612638 0
M  V30 10199 H 985.909 2.91941 -0.617496 0
M  V30 10200 C 984.658 3.29213 1.11866 0
M  V30 10201 H 983.981 3.95801 0.564061 0
M  V30 10202 H 985.421 3.92554 1.60242 0
M  V30 10203 C 983.88 2.56028 2.18978 0
M  V30 10204 O 984.41 2.33806 3.26646 0
M  V30 10205 N 982.616 2.16245 1.94129 0
M  V30 10206 H 982.163 2.34518 1.06579 0
M  V30 10207 H 982.121 1.67601 2.66003 0
M  V30 10208 N 985.893 0.34162 1.53853 0
M  V30 10209 C 987.139 -0.248546 2.01876 0
M  V30 10210 C 987.494 -1.48352 1.22513 0
M  V30 10211 O 986.787 -1.89174 0.303919 0
M  V30 10212 C 986.981 -0.616989 3.52034 0
M  V30 10213 C 986.81 0.580727 4.45935 0
M  V30 10214 C 985.58 1.08544 4.93504 0
M  V30 10215 C 987.778 1.43858 4.93771 0
M  V30 10216 N 985.76 2.24568 5.71351 0
M  V30 10217 C 987.131 2.44575 5.69722 0
M  V30 10218 C 989.186 1.46425 4.75882 0
M  V30 10219 C 987.889 3.47687 6.29688 0
M  V30 10220 C 989.915 2.48416 5.36697 0
M  V30 10221 C 989.277 3.4786 6.12514 0
M  V30 10222 H 985.376 -0.0543067 0.780112 0
M  V30 10223 H 987.96 0.480749 1.88671 0
M  V30 10224 H 986.131 -1.31539 3.65448 0
M  V30 10225 H 987.863 -1.19018 3.86803 0
M  V30 10226 H 984.618 0.653832 4.69065 0
M  V30 10227 H 985.042 2.83143 6.14946 0
M  V30 10228 H 989.684 0.709044 4.16812 0
M  V30 10229 H 987.402 4.24103 6.87868 0
M  V30 10230 H 990.988 2.51227 5.24763 0
M  V30 10231 H 989.868 4.25486 6.58734 0
M  V30 10232 N 987.371 -1.57444 0.0701946 0
M  V30 10233 C 988.304 -2.08232 -0.93352 0
M  V30 10234 C 989.282 -0.987073 -1.29212 0
M  V30 10235 O 990.466 -1.26035 -1.40169 0
M  V30 10236 C 987.593 -2.53866 -2.2421 0
M  V30 10237 C 986.639 -3.7481 -2.03518 0
M  V30 10238 S 987.472 -5.1958 -1.29601 0
M  V30 10239 C 988.628 -5.68544 -2.61742 0
M  V30 10240 H 988.861 -2.93042 -0.501354 0
M  V30 10241 H 986.394 -1.53741 -0.142533 0
M  V30 10242 H 988.352 -2.80818 -2.99419 0
M  V30 10243 H 987.013 -1.69327 -2.64551 0
M  V30 10244 H 986.206 -4.04724 -3.00358 0
M  V30 10245 H 985.808 -3.48222 -1.36445 0
M  V30 10246 H 988.1 -5.75291 -3.57836 0
M  V30 10247 H 989.043 -6.67459 -2.3644 0
M  V30 10248 H 989.451 -4.96354 -2.68873 0
M  V30 10249 N 988.849 0.203349 -1.56283 0
M  V30 10250 C 989.797 1.27157 -1.94766 0
M  V30 10251 C 990.791 1.4756 -0.832005 0
M  V30 10252 O 991.997 1.48519 -1.01696 0
M  V30 10253 H 988.372 0.426712 -0.61921 0
M  V30 10254 H 990.343 0.919921 -2.83866 0
M  V30 10255 C 989.092 2.6108 -2.29636 0
M  V30 10256 H 988.415 2.46193 -3.15006 0
M  V30 10257 H 989.855 3.34591 -2.60433 0
M  V30 10258 C 988.314 3.17456 -1.12799 0
M  V30 10259 O 988.844 3.99717 -0.398661 0
M  V30 10260 N 987.05 2.76084 -0.906975 0
M  V30 10261 H 986.597 2.09294 -1.50179 0
M  V30 10262 H 986.555 3.14143 -0.127005 0
M  V30 10263 N 990.327 1.50405 0.470755 0
M  V30 10264 C 991.237 1.7208 1.59454 0
M  V30 10265 C 992.253 0.603932 1.63183 0
M  V30 10266 O 993.429 0.882296 1.81046 0
M  V30 10267 C 990.494 1.81057 2.95667 0
M  V30 10268 C 989.555 3.04792 3.02324 0
M  V30 10269 C 988.788 3.13332 4.3204 0
M  V30 10270 O 989.011 2.28655 5.22564 0
M  V30 10271 O 987.945 4.0606 4.44296 0
M  V30 10272 H 991.771 2.67343 1.44089 0
M  V30 10273 H 989.356 1.34505 0.650286 0
M  V30 10274 H 991.238 1.8914 3.76569 0
M  V30 10275 H 989.913 0.889782 3.11231 0
M  V30 10276 H 988.82 3.0221 2.205 0
M  V30 10277 H 990.153 3.96451 2.91698 0
M  V30 10278 N 991.805 -0.723954 1.39988 0
M  V30 10279 C 992.768 -1.81973 1.3935 0
M  V30 10280 C 993.768 -1.58187 0.288702 0
M  V30 10281 O 994.958 -1.65383 0.547181 0
M  V30 10282 C 992.09 -3.19937 1.177 0
M  V30 10283 H 993.283 -1.83939 2.36868 0
M  V30 10284 H 990.836 -0.928742 1.25714 0
M  V30 10285 H 991.571 -3.23625 0.209093 0
M  V30 10286 H 991.356 -3.386 1.97719 0
M  V30 10287 H 992.846 -3.99981 1.20022 0
M  V30 10288 N 993.283 -1.25346 -0.955304 0
M  V30 10289 C 994.233 -1.02358 -2.03732 0
M  V30 10290 C 995.217 0.0392941 -1.60852 0
M  V30 10291 O 996.409 -0.175959 -1.76123 0
M  V30 10292 C 993.538 -0.643552 -3.37214 0
M  V30 10293 C 992.624 -1.74315 -3.8662 0
M  V30 10294 N 993.015 -2.97816 -4.08827 0
M  V30 10295 C 991.313 -1.62351 -4.15401 0
M  V30 10296 C 992.014 -3.69185 -4.4953 0
M  V30 10297 N 990.99 -2.96803 -4.55422 0
M  V30 10298 H 994.792 -1.96119 -2.18894 0
M  V30 10299 H 992.306 -1.15655 -1.14007 0
M  V30 10300 H 994.303 -0.460053 -4.14354 0
M  V30 10301 H 992.963 0.286738 -3.23431 0
M  V30 10302 H 993.974 -3.33868 -3.95919 0
M  V30 10303 H 990.651 -0.762133 -4.10485 0
M  V30 10304 H 992.041 -4.7519 -4.7502 0
M  V30 10305 N 994.761 1.15782 -1.06922 0
M  V30 10306 C 995.724 2.18578 -0.689654 0
M  V30 10307 C 996.724 1.58553 0.267872 0
M  V30 10308 O 997.914 1.7413 0.0494097 0
M  V30 10309 C 995.046 3.40896 -0.0157919 0
M  V30 10310 H 996.239 2.53672 -1.59971 0
M  V30 10311 H 993.792 1.30168 -0.865214 0
M  V30 10312 H 994.527 3.11367 0.906712 0
M  V30 10313 H 994.312 3.85721 -0.704415 0
M  V30 10314 H 995.802 4.16937 0.235266 0
M  V30 10315 N 996.239 0.8527 1.3254 0
M  V30 10316 C 997.65 0.510012 1.79599 0
M  V30 10317 C 998.001 -0.972002 1.70431 0
M  V30 10318 O 997.126 -1.7581 1.26173 0
M  V30 10319 C 997.721 0.918986 3.26098 0
M  V30 10320 C 996.28 0.628227 3.7112 0
M  V30 10321 C 995.427 1.11979 2.53685 0
M  V30 10322 H 998.378 1.04009 1.19866 0
M  V30 10323 H 998.399 0.234577 3.79776 0
M  V30 10324 H 997.911 1.99765 3.32739 0
M  V30 10325 H 996.012 -0.4398 3.69995 0
M  V30 10326 H 996.125 1.19315 4.64005 0
M  V30 10327 H 994.489 0.540133 2.48907 0
M  V30 10328 H 995.272 2.20552 2.63081 0
M  V30 10329 N 997.718 -1.45297 0.610449 0
M  V30 10330 C 998.967 -2.0143 0.104323 0
M  V30 10331 C 999.28 -1.48431 -1.27388 0
M  V30 10332 O 1000.49 -1.96558 -1.87289 0
M  V30 10333 C 998.942 -3.59644 0.135812 0
M  V30 10334 C 998.55 -4.2164 1.51405 0
M  V30 10335 C 1000.29 -4.2333 -0.314922 0
M  V30 10336 C 998.201 -5.72015 1.50176 0
M  V30 10337 H 997.131 -0.753176 0.035233 0
M  V30 10338 H 999.782 -1.66738 0.7662 0
M  V30 10339 H 998.164 -3.91538 -0.592773 0
M  V30 10340 H 999.338 -4.01315 2.26457 0
M  V30 10341 H 997.653 -3.70159 1.90712 0
M  V30 10342 H 1000.25 -5.33597 -0.343335 0
M  V30 10343 H 1000.59 -3.94206 -1.33817 0
M  V30 10344 H 1001.13 -3.96163 0.360489 0
M  V30 10345 H 997.865 -6.05842 2.50271 0
M  V30 10346 H 997.385 -5.94523 0.793869 0
M  V30 10347 H 999.064 -6.35266 1.22665 0
M  V30 10348 N 999.196 -0.349774 -1.5367 0
M  V30 10349 C 1000.43 0.245682 -2.05134 0
M  V30 10350 C 1000.83 1.44269 -1.22406 0
M  V30 10351 O 1000.18 1.81938 -0.25379 0
M  V30 10352 C 1000.24 0.718439 -3.52248 0
M  V30 10353 C 999.903 -0.35975 -4.55582 0
M  V30 10354 C 1000.9 -1.20449 -5.05755 0
M  V30 10355 C 998.585 -0.515463 -4.99648 0
M  V30 10356 C 1000.58 -2.19043 -5.98581 0
M  V30 10357 C 998.266 -1.50479 -5.92283 0
M  V30 10358 C 999.264 -2.34072 -6.41638 0
M  V30 10359 O 998.952 -3.31319 -7.3245 0
M  V30 10360 H 998.684 0.0501122 -0.67414 0
M  V30 10361 H 1001.24 -0.5018 -1.99176 0
M  V30 10362 H 999.468 1.51727 -3.55691 0
M  V30 10363 H 1001.16 1.23513 -3.86651 0
M  V30 10364 H 1001.92 -1.09531 -4.7247 0
M  V30 10365 H 997.802 0.12537 -4.60829 0
M  V30 10366 H 1001.35 -2.84327 -6.37027 0
M  V30 10367 H 997.243 -1.61451 -6.24983 0
M  V30 10368 H 998.011 -3.26863 -7.50402 0
M  V30 10369 N 1000.67 1.57404 -0.0785433 0
M  V30 10370 C 1001.9 1.97787 0.596995 0
M  V30 10371 C 1002.31 0.955904 1.63276 0
M  V30 10372 O 1001.65 -0.0649169 1.83585 0
M  V30 10373 C 1001.72 3.34499 1.31723 0
M  V30 10374 C 1001.38 4.54933 0.434144 0
M  V30 10375 C 1002.38 5.18969 -0.311015 0
M  V30 10376 C 1000.06 5.01029 0.357046 0
M  V30 10377 C 1002.06 6.27457 -1.12142 0
M  V30 10378 C 999.744 6.09389 -0.457029 0
M  V30 10379 C 1000.74 6.72466 -1.19493 0
M  V30 10380 O 1000.43 7.78738 -1.99556 0
M  V30 10381 H 1000.16 0.655294 0.166028 0
M  V30 10382 H 1002.72 2.04855 -0.149517 0
M  V30 10383 H 1000.95 3.24064 2.10996 0
M  V30 10384 H 1002.63 3.5944 1.88567 0
M  V30 10385 H 1003.4 4.84297 -0.261084 0
M  V30 10386 H 999.28 4.51706 0.921026 0
M  V30 10387 H 1002.82 6.76622 -1.69788 0
M  V30 10388 H 998.721 6.43494 -0.508499 0
M  V30 10389 H 999.489 7.95648 -1.9206 0
M  V30 10390 N 1002.15 -0.195058 1.56388 0
M  V30 10391 C 1003.1 -1.26122 1.95438 0
M  V30 10392 C 1004.09 -1.47117 0.839818 0
M  V30 10393 O 1005.3 -1.47978 1.02482 0
M  V30 10394 H 1001.67 -0.423422 0.621464 0
M  V30 10395 H 1003.65 -0.904854 2.8435 0
M  V30 10396 C 1002.39 -2.59858 2.31017 0
M  V30 10397 H 1001.72 -2.44519 3.16308 0
M  V30 10398 H 1003.16 -3.33205 2.62203 0
M  V30 10399 C 1001.62 -3.16853 1.14481 0
M  V30 10400 O 1002.15 -3.995 0.419853 0
M  V30 10401 N 1000.35 -2.75599 0.921604 0
M  V30 10402 H 999.9 -2.08495 1.51287 0
M  V30 10403 H 999.858 -3.14072 0.143663 0
M  V30 10404 N 1003.63 -1.50653 -0.462772 0
M  V30 10405 C 1004.88 -1.61737 -1.21184 0
M  V30 10406 C 1005.2 -0.32369 -1.92295 0
M  V30 10407 O 1004.47 0.659269 -1.84473 0
M  V30 10408 H 1003.05 -0.596015 -0.450306 0
M  V30 10409 H 1005.71 -1.87469 -0.533051 0
M  V30 10410 H 1004.81 -2.43262 -1.95525 0
M  V30 10411 N 1005.11 0.71652 -1.4037 0
M  V30 10412 C 1006.06 1.8306 -1.40562 0
M  V30 10413 C 1007.03 1.64009 -0.262697 0
M  V30 10414 O 1008.21 1.85157 -0.460619 0
M  V30 10415 C 1005.35 3.2076 -1.27307 0
M  V30 10416 C 1004.46 3.51389 -2.51296 0
M  V30 10417 C 1003.6 4.78589 -2.30491 0
M  V30 10418 C 1002.64 5.02119 -3.50061 0
M  V30 10419 N 1001.77 6.20533 -3.28457 0
M  V30 10420 H 1006.61 1.82231 -2.35788 0
M  V30 10421 H 1004.15 0.890198 -1.17106 0
M  V30 10422 H 1006.11 4.00274 -1.17628 0
M  V30 10423 H 1004.74 3.2082 -0.357005 0
M  V30 10424 H 1003.79 2.66436 -2.71507 0
M  V30 10425 H 1005.1 3.64686 -3.40302 0
M  V30 10426 H 1004.26 5.66119 -2.1816 0
M  V30 10427 H 1003 4.67499 -1.38909 0
M  V30 10428 H 1002 4.13044 -3.6287 0
M  V30 10429 H 1003.23 5.15082 -4.42569 0
M  V30 10430 H 1001.17 6.10695 -2.39556 0
M  V30 10431 H 1001.09 6.34502 -4.11027 0
M  V30 10432 H 1002.36 7.10853 -3.19857 0
M  V30 10433 N 1006.59 1.25851 0.948643 0
M  V30 10434 C 1007.82 1.13546 1.726 0
M  V30 10435 C 1008.22 -0.312857 1.86595 0
M  V30 10436 O 1007.57 -1.22657 1.36751 0
M  V30 10437 C 1007.63 1.72315 3.15512 0
M  V30 10438 C 1007.29 3.2136 3.24926 0
M  V30 10439 C 1008.29 4.18274 3.08777 0
M  V30 10440 C 1005.98 3.61683 3.48555 0
M  V30 10441 C 1007.97 5.53491 3.16112 0
M  V30 10442 C 1005.66 4.97035 3.55526 0
M  V30 10443 C 1006.65 5.92749 3.3932 0
M  V30 10444 O 1006.34 7.25637 3.45985 0
M  V30 10445 H 1006.07 0.396555 0.547467 0
M  V30 10446 H 1008.63 1.66822 1.19832 0
M  V30 10447 H 1006.86 1.13494 3.6967 0
M  V30 10448 H 1008.55 1.55024 3.7513 0
M  V30 10449 H 1009.31 3.88461 2.90385 0
M  V30 10450 H 1005.19 2.87674 3.60229 0
M  V30 10451 H 1008.74 6.28177 3.0338 0
M  V30 10452 H 1004.63 5.26512 3.73437 0
M  V30 10453 H 1005.4 7.33812 3.62577 0
M  V30 10454 N 1008.06 -1.15214 1.07534 0
M  V30 10455 C 1009.01 -2.18022 0.667108 0
M  V30 10456 C 1010 -1.57911 -0.308714 0
M  V30 10457 O 1011.19 -1.76578 -0.122147 0
M  V30 10458 C 1008.32 -3.43232 0.0684348 0
M  V30 10459 C 1007.41 -4.10393 1.06951 0
M  V30 10460 N 1007.8 -4.53013 2.24973 0
M  V30 10461 C 1006.09 -4.36758 0.903262 0
M  V30 10462 C 1006.8 -5.05118 2.88498 0
M  V30 10463 N 1005.77 -4.98777 2.16153 0
M  V30 10464 H 1009.57 -2.48706 1.56597 0
M  V30 10465 H 1007.09 -1.31801 0.948796 0
M  V30 10466 H 1009.08 -4.16197 -0.241934 0
M  V30 10467 H 1007.74 -3.14031 -0.825525 0
M  V30 10468 H 1008.76 -4.4634 2.6268 0
M  V30 10469 H 1005.43 -4.17453 0.0623543 0
M  V30 10470 H 1006.82 -5.48039 3.8872 0
M  V30 10471 N 1009.54 -0.859717 -1.32086 0
M  V30 10472 C 1010.47 -0.323502 -2.31248 0
M  V30 10473 C 1011.45 0.580085 -1.59903 0
M  V30 10474 O 1012.64 0.499265 -1.87673 0
M  V30 10475 C 1009.77 0.484661 -3.43902 0
M  V30 10476 C 1008.72 -0.324933 -4.26765 0
M  V30 10477 C 1008.05 0.608281 -5.31229 0
M  V30 10478 C 1009.35 -1.55344 -4.98664 0
M  V30 10479 H 1011.04 -1.15209 -2.76346 0
M  V30 10480 H 1008.59 -0.555442 -1.32856 0
M  V30 10481 H 1010.54 0.870238 -4.12316 0
M  V30 10482 H 1009.27 1.34666 -2.97544 0
M  V30 10483 H 1007.92 -0.692328 -3.60003 0
M  V30 10484 H 1007.57 1.46727 -4.81124 0
M  V30 10485 H 1007.27 0.0705571 -5.87558 0
M  V30 10486 H 1008.8 0.990925 -6.02506 0
M  V30 10487 H 1010.21 -1.23987 -5.59732 0
M  V30 10488 H 1008.61 -2.02947 -5.64741 0
M  V30 10489 H 1009.68 -2.31192 -4.26237 0
M  V30 10490 N 1011.02 1.44971 -0.618145 0
M  V30 10491 C 1012.27 2.02159 -0.117482 0
M  V30 10492 C 1012.6 1.48517 1.2559 0
M  V30 10493 O 1011.85 0.654192 1.84442 0
M  V30 10494 C 1012.15 3.57378 -0.0394861 0
M  V30 10495 C 1011.82 4.30218 -1.34993 0
M  V30 10496 C 1010.48 4.49835 -1.70886 0
M  V30 10497 C 1012.83 4.71768 -2.21551 0
M  V30 10498 C 1010.16 5.08258 -2.9307 0
M  V30 10499 C 1012.51 5.31543 -3.42993 0
M  V30 10500 C 1011.17 5.49381 -3.79126 0
M  V30 10501 H 1010.44 0.739752 -0.0429897 0
M  V30 10502 H 1013.09 1.73903 -0.801871 0
M  V30 10503 H 1011.4 3.84973 0.728217 0
M  V30 10504 H 1013.09 3.99343 0.364213 0
M  V30 10505 H 1009.68 4.15271 -1.06057 0
M  V30 10506 H 1013.87 4.56336 -1.95117 0
M  V30 10507 H 1009.12 5.20257 -3.21158 0
M  V30 10508 H 1013.3 5.62691 -4.10308 0
M  V30 10509 H 1010.92 5.94419 -4.73888 0
M  V30 10510 N 1012.5 0.357919 1.53482 0
M  V30 10511 C 1013.73 -0.234799 2.05261 0
M  V30 10512 C 1014.14 -1.43618 1.23169 0
M  V30 10513 O 1013.48 -1.81801 0.263435 0
M  V30 10514 C 1013.54 -0.699748 3.52624 0
M  V30 10515 C 1013.21 0.383905 4.55385 0
M  V30 10516 C 1014.2 1.23129 5.05109 0
M  V30 10517 C 1011.89 0.541953 4.99368 0
M  V30 10518 C 1013.88 2.22214 5.97411 0
M  V30 10519 C 1011.57 1.53618 5.91477 0
M  V30 10520 C 1012.57 2.37471 6.40388 0
M  V30 10521 O 1012.25 3.35199 7.30682 0
M  V30 10522 H 1011.99 -0.0465364 0.674396 0
M  V30 10523 H 1014.54 0.512355 1.98907 0
M  V30 10524 H 1012.77 -1.49838 3.5649 0
M  V30 10525 H 1014.46 -1.21461 3.87301 0
M  V30 10526 H 1015.23 1.12035 4.71883 0
M  V30 10527 H 1011.1 -0.100929 4.6089 0
M  V30 10528 H 1014.65 2.87702 6.35511 0
M  V30 10529 H 1010.55 1.64763 6.24118 0
M  V30 10530 H 1011.31 3.30838 7.48658 0
M  V30 10531 N 1013.98 -1.5736 0.0868897 0
M  V30 10532 C 1014.91 -2.10582 -0.904858 0
M  V30 10533 C 1015.92 -1.04124 -1.25148 0
M  V30 10534 O 1017.11 -1.31595 -1.20603 0
M  V30 10535 C 1014.21 -2.56381 -2.21635 0
M  V30 10536 C 1013.38 -3.86581 -2.04631 0
M  V30 10537 C 1012.44 -4.18313 -3.19219 0
M  V30 10538 O 1011.47 -4.87669 -2.93544 0
M  V30 10539 N 1012.67 -3.73061 -4.44754 0
M  V30 10540 H 1015.44 -2.96297 -0.450352 0
M  V30 10541 H 1013 -1.616 -0.0984376 0
M  V30 10542 H 1014.99 -2.7466 -2.97227 0
M  V30 10543 H 1013.56 -1.75721 -2.58536 0
M  V30 10544 H 1012.78 -3.77532 -1.13417 0
M  V30 10545 H 1014.07 -4.71777 -1.90537 0
M  V30 10546 H 1013.46 -3.1706 -4.68497 0
M  V30 10547 H 1012.02 -3.96511 -5.17322 0
M  V30 10548 N 1015.45 0.186762 -1.56489 0
M  V30 10549 C 1016.4 1.2357 -1.9161 0
M  V30 10550 C 1017.39 1.4058 -0.782686 0
M  V30 10551 O 1018.58 1.42811 -1.04566 0
M  V30 10552 C 1015.71 2.57865 -2.26628 0
M  V30 10553 C 1014.8 2.44613 -3.46447 0
M  V30 10554 N 1015.19 2.01052 -4.64125 0
M  V30 10555 C 1013.48 2.75483 -3.50749 0
M  V30 10556 C 1014.19 1.99891 -5.46277 0
M  V30 10557 N 1013.16 2.41711 -4.86905 0
M  V30 10558 H 1016.96 0.890359 -2.80089 0
M  V30 10559 H 1014.48 0.395144 -1.57519 0
M  V30 10560 H 1016.47 3.33642 -2.49977 0
M  V30 10561 H 1015.13 2.93215 -1.39481 0
M  V30 10562 H 1016.15 1.7163 -4.88634 0
M  V30 10563 H 1012.82 3.14974 -2.7404 0
M  V30 10564 H 1014.21 1.68042 -6.50547 0
M  V30 10565 N 1016.93 1.50896 0.454776 0
M  V30 10566 C 1017.88 1.71497 1.57136 0
M  V30 10567 C 1018.87 0.58098 1.59126 0
M  V30 10568 O 1020.08 0.761916 1.63079 0
M  V30 10569 H 1016.46 0.54158 0.521724 0
M  V30 10570 H 1018.43 2.65129 1.36928 0
M  V30 10571 C 1017.18 1.84125 2.94947 0
M  V30 10572 H 1016.5 2.7078 2.9414 0
M  V30 10573 H 1017.94 2.02558 3.72487 0
M  V30 10574 C 1016.4 0.596752 3.31573 0
M  V30 10575 O 1016.93 -0.256632 4.00879 0
M  V30 10576 N 1015.13 0.445958 2.87158 0
M  V30 10577 H 1014.68 1.14146 2.30929 0
M  V30 10578 H 1014.64 -0.385519 3.12027 0
M  V30 10579 N 1018.41 -0.709066 1.40748 0
M  V30 10580 C 1019.82 -1.28847 1.35112 0
M  V30 10581 C 1020.17 -1.9618 0.0277149 0
M  V30 10582 O 1019.3 -1.97955 -0.874233 0
M  V30 10583 C 1019.89 -2.34306 2.44716 0
M  V30 10584 C 1018.45 -2.87856 2.4252 0
M  V30 10585 C 1017.6 -1.61723 2.25257 0
M  V30 10586 H 1020.55 -0.504742 1.50459 0
M  V30 10587 H 1020.57 -3.15297 2.12998 0
M  V30 10588 H 1020.08 -1.85271 3.41022 0
M  V30 10589 H 1018.18 -3.41103 1.49931 0
M  V30 10590 H 1018.3 -3.39205 3.38344 0
M  V30 10591 H 1016.66 -1.87032 1.7289 0
M  V30 10592 H 1017.44 -1.14703 3.23571 0
M  V30 10593 N 1019.89 -1.26353 -0.941956 0
M  V30 10594 C 1020.82 -1.03634 -2.04432 0
M  V30 10595 C 1021.83 0.00295864 -1.628 0
M  V30 10596 O 1023.02 -0.237029 -1.76919 0
M  V30 10597 C 1020.12 -0.547231 -3.34453 0
M  V30 10598 C 1019.3 -1.65559 -4.04857 0
M  V30 10599 C 1018.36 -1.16466 -5.13149 0
M  V30 10600 O 1017.38 -1.86158 -5.37898 0
M  V30 10601 N 1018.58 -0.0126703 -5.80499 0
M  V30 10602 H 1021.35 -1.98558 -2.24488 0
M  V30 10603 H 1018.91 -1.17728 -1.11138 0
M  V30 10604 H 1020.9 -0.203004 -4.04191 0
M  V30 10605 H 1019.47 0.308401 -3.11075 0
M  V30 10606 H 1018.69 -2.17079 -3.29044 0
M  V30 10607 H 1019.98 -2.39985 -4.48647 0
M  V30 10608 H 1019.38 0.569358 -5.62828 0
M  V30 10609 H 1017.93 0.272486 -6.5123 0
M  V30 10610 N 1021.37 1.14642 -1.08144 0
M  V30 10611 C 1022.62 1.8525 -0.807885 0
M  V30 10612 C 1022.94 1.83194 0.668213 0
M  V30 10613 O 1022.21 1.27848 1.48431 0
M  V30 10614 H 1020.79 0.685909 -0.295868 0
M  V30 10615 H 1023.45 1.38935 -1.36686 0
M  V30 10616 H 1022.54 2.90155 -1.14964 0
M  V30 10617 N 1022.85 0.866709 1.31628 0
M  V30 10618 C 1024.26 0.529032 1.79048 0
M  V30 10619 C 1024.61 -0.953871 1.71452 0
M  V30 10620 O 1023.73 -1.74462 1.28031 0
M  V30 10621 C 1024.33 0.953522 3.25105 0
M  V30 10622 C 1022.89 0.667554 3.70433 0
M  V30 10623 C 1022.03 1.14664 2.52483 0
M  V30 10624 H 1024.98 1.05275 1.18756 0
M  V30 10625 H 1025.01 0.274844 3.79506 0
M  V30 10626 H 1024.52 2.03283 3.30602 0
M  V30 10627 H 1022.62 -0.400532 3.70441 0
M  V30 10628 H 1022.73 1.2423 4.62714 0
M  V30 10629 H 1021.1 0.566502 2.4832 0
M  V30 10630 H 1021.88 2.2333 2.60727 0
M  V30 10631 N 1024.32 -1.44642 0.625825 0
M  V30 10632 C 1025.57 -2.02094 0.128201 0
M  V30 10633 C 1025.9 -1.49181 -1.24801 0
M  V30 10634 O 1025.15 -0.663965 -1.84092 0
M  V30 10635 C 1025.45 -3.57352 0.0584381 0
M  V30 10636 C 1025.12 -4.29496 1.37272 0
M  V30 10637 C 1023.78 -4.48922 1.7327 0
M  V30 10638 C 1026.13 -4.70586 2.2405 0
M  V30 10639 C 1023.46 -5.06697 2.95762 0
M  V30 10640 C 1025.81 -5.29717 3.45807 0
M  V30 10641 C 1024.48 -5.47363 3.82034 0
M  V30 10642 H 1023.75 -0.739514 0.0469122 0
M  V30 10643 H 1026.39 -1.73475 0.811083 0
M  V30 10644 H 1024.7 -3.85354 -0.707791 0
M  V30 10645 H 1026.4 -3.9953 -0.34303 0
M  V30 10646 H 1022.99 -4.14702 1.08258 0
M  V30 10647 H 1027.17 -4.55295 1.97535 0
M  V30 10648 H 1022.43 -5.18546 3.23913 0
M  V30 10649 H 1026.6 -5.60507 4.13286 0
M  V30 10650 H 1024.23 -5.91898 4.77033 0
M  V30 10651 N 1025.8 -0.366053 -1.5329 0
M  V30 10652 C 1027.05 0.216398 -2.02246 0
M  V30 10653 C 1027.4 1.46384 -1.24858 0
M  V30 10654 O 1026.7 1.88667 -0.333977 0
M  V30 10655 C 1026.89 0.560906 -3.52971 0
M  V30 10656 C 1026.72 -0.651598 -4.44954 0
M  V30 10657 C 1025.49 -1.16381 -4.91715 0
M  V30 10658 C 1027.69 -1.51695 -4.91419 0
M  V30 10659 N 1025.67 -2.33629 -5.67706 0
M  V30 10660 C 1027.04 -2.53608 -5.65759 0
M  V30 10661 C 1029.09 -1.53977 -4.73493 0
M  V30 10662 C 1027.8 -3.57661 -6.24076 0
M  V30 10663 C 1029.82 -2.56923 -5.32677 0
M  V30 10664 C 1029.19 -3.5756 -6.06902 0
M  V30 10665 H 1025.28 0.0418889 -0.780877 0
M  V30 10666 H 1027.87 -0.510704 -1.87883 0
M  V30 10667 H 1026.04 1.25708 -3.67494 0
M  V30 10668 H 1027.77 1.12849 -3.88648 0
M  V30 10669 H 1024.53 -0.728374 -4.67965 0
M  V30 10670 H 1024.95 -2.92891 -6.10364 0
M  V30 10671 H 1029.59 -0.775265 -4.15631 0
M  V30 10672 H 1027.31 -4.34993 -6.81034 0
M  V30 10673 H 1030.9 -2.59544 -5.207 0
M  V30 10674 H 1029.78 -4.35912 -6.51882 0
M  V30 10675 N 1027.28 1.57312 -0.0952337 0
M  V30 10676 C 1028.23 2.10571 0.87428 0
M  V30 10677 C 1029.21 1.02079 1.24374 0
M  V30 10678 O 1030.41 1.28353 1.2188 0
M  V30 10679 C 1027.53 2.68972 2.13329 0
M  V30 10680 C 1026.62 3.84508 1.78926 0
M  V30 10681 N 1027.01 4.92534 1.15082 0
M  V30 10682 C 1025.31 3.94245 2.08535 0
M  V30 10683 C 1026.01 5.73163 0.992937 0
M  V30 10684 N 1024.99 5.22198 1.51029 0
M  V30 10685 H 1028.79 2.91476 0.376727 0
M  V30 10686 H 1026.3 1.62041 0.107974 0
M  V30 10687 H 1028.3 3.05457 2.83728 0
M  V30 10688 H 1026.96 1.89523 2.6365 0
M  V30 10689 H 1027.97 5.11405 0.817621 0
M  V30 10690 H 1024.65 3.25805 2.61069 0
M  V30 10691 H 1026.04 6.70084 0.493641 0
M  V30 10692 N 1028.76 -0.17846 1.56586 0
M  V30 10693 C 1029.69 -1.24547 1.92408 0
M  V30 10694 C 1030.7 -1.40849 0.816421 0
M  V30 10695 O 1031.89 -1.40979 1.09486 0
M  V30 10696 C 1028.99 -2.61523 2.15544 0
M  V30 10697 C 1028.16 -2.66613 3.46751 0
M  V30 10698 C 1027.22 -3.84901 3.588 0
M  V30 10699 O 1026.25 -3.71231 4.31482 0
M  V30 10700 N 1027.45 -5.0106 2.9312 0
M  V30 10701 H 1030.22 -0.941275 2.84535 0
M  V30 10702 H 1027.78 -0.368275 1.57656 0
M  V30 10703 H 1029.77 -3.3911 2.20876 0
M  V30 10704 H 1028.34 -2.84362 1.29835 0
M  V30 10705 H 1027.56 -1.75174 3.5314 0
M  V30 10706 H 1028.85 -2.67018 4.33104 0
M  V30 10707 H 1028.25 -5.15067 2.33928 0
M  V30 10708 H 1026.8 -5.76535 3.04057 0
M  V30 10709 N 1030.24 -1.51135 -0.446768 0
M  V30 10710 C 1031.48 -1.62571 -1.19388 0
M  V30 10711 C 1031.8 -0.3432 -1.92566 0
M  V30 10712 O 1033 -0.336804 -2.69403 0
M  V30 10713 C 1031.46 -2.87071 -2.17068 0
M  V30 10714 C 1031.07 -4.22291 -1.49581 0
M  V30 10715 C 1032.81 -3.07862 -2.9227 0
M  V30 10716 C 1030.72 -5.3795 -2.45689 0
M  V30 10717 H 1029.65 -0.60549 -0.449331 0
M  V30 10718 H 1032.3 -1.77593 -0.461846 0
M  V30 10719 H 1030.68 -2.65662 -2.93666 0
M  V30 10720 H 1031.86 -4.54046 -0.786054 0
M  V30 10721 H 1030.17 -4.07302 -0.865677 0
M  V30 10722 H 1032.77 -3.91444 -3.64246 0
M  V30 10723 H 1033.11 -2.20559 -3.53072 0
M  V30 10724 H 1033.64 -3.29566 -2.2278 0
M  V30 10725 H 1030.38 -6.27484 -1.89591 0
M  V30 10726 H 1029.9 -5.10583 -3.14746 0
M  V30 10727 H 1031.58 -5.69517 -3.07017 0
M  V30 10728 N 1031.71 0.701592 -1.41122 0
M  V30 10729 C 1032.66 1.80755 -1.38966 0
M  V30 10730 C 1033.65 1.58703 -0.264964 0
M  V30 10731 O 1034.84 1.69638 -0.505168 0
M  V30 10732 C 1031.97 3.1901 -1.26836 0
M  V30 10733 C 1031.05 3.46777 -2.44144 0
M  V30 10734 N 1031.45 3.45278 -3.69617 0
M  V30 10735 C 1029.74 3.77299 -2.37826 0
M  V30 10736 C 1030.44 3.71782 -4.47385 0
M  V30 10737 N 1029.42 3.91228 -3.77415 0
M  V30 10738 H 1033.22 1.7795 -2.33904 0
M  V30 10739 H 1030.74 0.901325 -1.35092 0
M  V30 10740 H 1032.73 3.98227 -1.23373 0
M  V30 10741 H 1031.39 3.23031 -0.328777 0
M  V30 10742 H 1032.4 3.258 -4.02585 0
M  V30 10743 H 1029.08 3.88727 -1.52309 0
M  V30 10744 H 1030.47 3.7681 -5.56295 0
M  V30 10745 N 1033.19 1.2685 0.935242 0
M  V30 10746 C 1034.44 1.13921 1.68504 0
M  V30 10747 C 1034.79 -0.313201 1.89834 0
M  V30 10748 O 1034.09 -1.22626 1.47219 0
M  V30 10749 C 1034.28 1.8482 3.05903 0
M  V30 10750 C 1034.11 3.36806 2.9798 0
M  V30 10751 C 1032.88 4.06109 3.00672 0
M  V30 10752 C 1035.08 4.32904 2.77667 0
M  V30 10753 N 1033.06 5.44722 2.83111 0
M  V30 10754 C 1034.43 5.58732 2.68735 0
M  V30 10755 C 1036.48 4.23084 2.62496 0
M  V30 10756 C 1035.19 6.75861 2.4618 0
M  V30 10757 C 1037.21 5.39926 2.41317 0
M  V30 10758 C 1036.58 6.64706 2.33121 0
M  V30 10759 H 1032.67 0.471689 0.623725 0
M  V30 10760 H 1035.26 1.60217 1.10628 0
M  V30 10761 H 1033.43 1.40989 3.61907 0
M  V30 10762 H 1035.16 1.64461 3.69777 0
M  V30 10763 H 1031.92 3.57516 3.10611 0
M  V30 10764 H 1032.34 6.17522 2.77481 0
M  V30 10765 H 1036.98 3.27341 2.67596 0
M  V30 10766 H 1034.7 7.71694 2.39821 0
M  V30 10767 H 1038.29 5.34203 2.30475 0
M  V30 10768 H 1037.17 7.53592 2.16952 0
M  V30 10769 N 1034.67 -1.14067 1.0875 0
M  V30 10770 C 1035.92 -1.84819 0.817698 0
M  V30 10771 C 1036.24 -1.83545 -0.658488 0
M  V30 10772 O 1035.51 -1.28633 -1.47751 0
M  V30 10773 H 1034.09 -0.68433 0.299502 0
M  V30 10774 H 1036.75 -1.38208 1.37421 0
M  V30 10775 H 1035.85 -2.89541 1.16501 0
M  V30 10776 N 1036.15 -0.873678 -1.31166 0
M  V30 10777 C 1037.1 -0.303699 -2.25968 0
M  V30 10778 C 1038.08 0.561387 -1.50789 0
M  V30 10779 O 1039.27 0.407658 -1.72242 0
M  V30 10780 C 1036.4 0.490612 -3.39776 0
M  V30 10781 C 1035.49 -0.387927 -4.22322 0
M  V30 10782 N 1035.88 -1.48313 -4.83567 0
M  V30 10783 C 1034.18 -0.18102 -4.45632 0
M  V30 10784 C 1034.88 -2.0252 -5.45308 0
M  V30 10785 N 1033.86 -1.32169 -5.27288 0
M  V30 10786 H 1037.66 -1.14071 -2.7086 0
M  V30 10787 H 1035.17 -0.721843 -1.45476 0
M  V30 10788 H 1037.17 0.9155 -4.06724 0
M  V30 10789 H 1035.83 1.32519 -2.96427 0
M  V30 10790 H 1036.84 -1.86604 -4.83114 0
M  V30 10791 H 1033.52 0.617304 -4.12911 0
M  V30 10792 H 1034.91 -2.94429 -6.03955 0
M  V30 10793 N 1037.63 1.44308 -0.633487 0
M  V30 10794 C 1038.87 2.02863 -0.14765 0
M  V30 10795 C 1039.23 1.48956 1.21778 0
M  V30 10796 O 1038.52 0.664997 1.7969 0
M  V30 10797 C 1038.71 3.57316 -0.0773886 0
M  V30 10798 C 1038.54 4.26208 -1.43446 0
M  V30 10799 C 1037.31 4.63087 -2.02184 0
M  V30 10800 C 1039.51 4.56501 -2.36879 0
M  V30 10801 N 1037.49 5.16957 -3.31102 0
M  V30 10802 C 1038.86 5.11479 -3.50413 0
M  V30 10803 C 1040.92 4.38454 -2.35929 0
M  V30 10804 C 1039.62 5.50311 -4.63196 0
M  V30 10805 C 1041.65 4.78336 -3.47777 0
M  V30 10806 C 1041.01 5.3343 -4.60035 0
M  V30 10807 H 1037.11 0.775835 -0.0980038 0
M  V30 10808 H 1039.69 1.75767 -0.837495 0
M  V30 10809 H 1037.86 3.84019 0.581743 0
M  V30 10810 H 1039.6 4.02541 0.417494 0
M  V30 10811 H 1036.35 4.47482 -1.55103 0
M  V30 10812 H 1036.78 5.48366 -3.97019 0
M  V30 10813 H 1041.42 3.9515 -1.50387 0
M  V30 10814 H 1039.14 5.92568 -5.49444 0
M  V30 10815 H 1042.72 4.66084 -3.4822 0
M  V30 10816 H 1041.6 5.63719 -5.45151 0
M  V30 10817 N 1039.1 0.374177 1.53094 0
M  V30 10818 C 1040.35 -0.213131 2.01677 0
M  V30 10819 C 1040.68 -1.47715 1.26071 0
M  V30 10820 O 1039.96 -1.91199 0.356834 0
M  V30 10821 C 1040.24 -0.496392 3.56662 0
M  V30 10822 C 1040.09 0.781859 4.42953 0
M  V30 10823 C 1041.41 -1.29339 4.20666 0
M  V30 10824 H 1038.53 -0.0759885 0.733072 0
M  V30 10825 H 1041.17 0.500765 1.83282 0
M  V30 10826 H 1039.32 -1.10455 3.72467 0
M  V30 10827 H 1041 1.41914 4.38928 0
M  V30 10828 H 1039.24 1.40041 4.10574 0
M  V30 10829 H 1039.91 0.538508 5.49367 0
M  V30 10830 H 1042.39 -0.778848 4.08746 0
M  V30 10831 H 1041.26 -1.46033 5.29118 0
M  V30 10832 H 1041.52 -2.30435 3.77296 0
M  V30 10833 N 1040.58 -1.57259 0.103575 0
M  V30 10834 C 1041.81 -1.99424 -0.569638 0
M  V30 10835 C 1042.23 -0.982475 -1.60403 0
M  V30 10836 O 1041.59 0.0479231 -1.81237 0
M  V30 10837 C 1041.64 -3.40527 -1.18633 0
M  V30 10838 O 1040.74 -3.42167 -2.30208 0
M  V30 10839 H 1040.08 -0.648251 -0.143759 0
M  V30 10840 H 1042.61 -2.03739 0.187493 0
M  V30 10841 H 1042.62 -3.78404 -1.5256 0
M  V30 10842 H 1041.3 -4.13686 -0.428582 0
M  V30 10843 H 1039.88 -3.16093 -1.97837 0
M  V30 10844 N 1042.06 0.170153 -1.56679 0
M  V30 10845 C 1043.34 0.913938 -1.72935 0
M  V30 10846 C 1043.72 2.00342 -0.665293 0
M  V30 10847 O 1043.07 2.26252 0.319715 0
M  V30 10848 C 1043.28 1.47761 -3.16177 0
M  V30 10849 C 1044.62 1.95007 -3.7717 0
M  V30 10850 O 1045.65 1.57552 -3.19462 0
M  V30 10851 O 1044.51 2.64007 -4.78501 0
M  V30 10852 H 1041.6 0.43027 -0.706256 0
M  V30 10853 H 1044.15 0.157891 -1.68964 0
M  V30 10854 H 1042.92 0.69352 -3.85105 0
M  V30 10855 H 1042.54 2.2978 -3.24479 0
M  V30 10856 N 1043.54 1.5137 0.438746 0
M  V30 10857 C 1044.82 1.54508 1.19944 0
M  V30 10858 C 1045.2 0.308525 2.08833 0
M  V30 10859 O 1044.54 -0.706461 2.17305 0
M  V30 10860 C 1044.75 2.85833 2.00251 0
M  V30 10861 C 1046.1 3.37729 2.5734 0
M  V30 10862 O 1047.13 2.87374 2.10463 0
M  V30 10863 O 1045.98 4.25589 3.42836 0
M  V30 10864 H 1043.08 0.621132 0.546007 0
M  V30 10865 H 1045.62 1.63682 0.447931 0
M  V30 10866 H 1044.4 3.67291 1.34955 0
M  V30 10867 H 1044.02 2.79815 2.8247 0
M  V30 10868 N 1045.02 -0.694098 1.41492 0
M  V30 10869 C 1045.95 -1.81841 1.37873 0
M  V30 10870 C 1046.93 -1.60732 0.245772 0
M  V30 10871 O 1048.11 -1.83461 0.432917 0
M  V30 10872 C 1045.24 -3.18543 1.15099 0
M  V30 10873 C 1044.28 -3.5844 2.31133 0
M  V30 10874 S 1045.12 -3.63079 3.93617 0
M  V30 10875 C 1046.27 -5.02505 3.73148 0
M  V30 10876 H 1046.51 -1.84634 2.33018 0
M  V30 10877 H 1044.04 -0.862948 1.28033 0
M  V30 10878 H 1046 -3.9746 1.02646 0
M  V30 10879 H 1044.66 -3.13358 0.21572 0
M  V30 10880 H 1043.85 -4.57754 2.10896 0
M  V30 10881 H 1043.45 -2.86837 2.40002 0
M  V30 10882 H 1045.75 -5.90046 3.32945 0
M  V30 10883 H 1046.69 -5.27784 4.72069 0
M  V30 10884 H 1047.1 -4.74113 3.06394 0
M  V30 10885 N 1046.49 -1.27344 -0.928501 0
M  V30 10886 C 1047.74 -1.13804 -1.67859 0
M  V30 10887 C 1048.07 0.31555 -1.91619 0
M  V30 10888 O 1047.35 1.23087 -1.50599 0
M  V30 10889 C 1047.63 -1.9213 -3.04562 0
M  V30 10890 C 1047.48 -3.45468 -2.88048 0
M  V30 10891 C 1048.8 -1.72513 -4.04879 0
M  V30 10892 H 1045.92 -0.414796 -0.609191 0
M  V30 10893 H 1048.56 -1.5649 -1.07753 0
M  V30 10894 H 1046.71 -1.55853 -3.55868 0
M  V30 10895 H 1048.39 -3.9157 -2.43865 0
M  V30 10896 H 1046.63 -3.71849 -2.23407 0
M  V30 10897 H 1047.3 -3.95515 -3.85061 0
M  V30 10898 H 1049.78 -2.04143 -3.62581 0
M  V30 10899 H 1048.65 -2.29713 -4.98521 0
M  V30 10900 H 1048.91 -0.672856 -4.3695 0
M  V30 10901 N 1047.97 1.13488 -1.09353 0
M  V30 10902 C 1048.92 2.20949 -0.726923 0
M  V30 10903 C 1049.91 1.67205 0.271816 0
M  V30 10904 O 1051.12 1.79505 0.133356 0
M  V30 10905 H 1047.5 0.719985 -0.217086 0
M  V30 10906 H 1049.47 2.49134 -1.6424 0
M  V30 10907 C 1048.22 3.47319 -0.162822 0
M  V30 10908 H 1047.54 3.89011 -0.922527 0
M  V30 10909 H 1048.98 4.23963 0.0557734 0
M  V30 10910 C 1047.44 3.18376 1.10175 0
M  V30 10911 O 1047.97 3.3707 2.18511 0
M  V30 10912 N 1046.17 2.72262 1.01597 0
M  V30 10913 H 1045.72 2.5725 0.134289 0
M  V30 10914 H 1045.68 2.53272 1.86281 0
M  V30 10915 N 1049.45 0.880621 1.30701 0
M  V30 10916 C 1050.7 0.506967 1.96981 0
M  V30 10917 C 1051.05 -0.932694 1.68281 0
M  V30 10918 O 1050.35 -1.64954 0.974709 0
M  V30 10919 C 1050.54 0.713203 3.50212 0
M  V30 10920 C 1050.37 2.17136 3.93805 0
M  V30 10921 C 1049.14 2.81508 4.19621 0
M  V30 10922 C 1051.34 3.14473 4.06954 0
M  V30 10923 N 1049.32 4.17965 4.49643 0
M  V30 10924 C 1050.69 4.3599 4.40809 0
M  V30 10925 C 1052.74 3.1032 3.89366 0
M  V30 10926 C 1051.45 5.53889 4.58911 0
M  V30 10927 C 1053.47 4.27487 4.08667 0
M  V30 10928 C 1052.84 5.47769 4.42864 0
M  V30 10929 H 1048.93 0.234756 0.745931 0
M  V30 10930 H 1051.52 1.13745 1.5802 0
M  V30 10931 H 1049.69 0.112239 3.88238 0
M  V30 10932 H 1051.42 0.30688 4.03535 0
M  V30 10933 H 1048.18 2.32399 4.12659 0
M  V30 10934 H 1048.6 4.88425 4.68796 0
M  V30 10935 H 1053.24 2.18428 3.62007 0
M  V30 10936 H 1050.96 6.46289 4.85114 0
M  V30 10937 H 1054.55 4.25738 3.96533 0
M  V30 10938 H 1053.43 6.36922 4.57493 0
M  V30 10939 N 1050.93 -1.4397 0.641131 0
M  V30 10940 C 1051.84 -2.34526 -0.058742 0
M  V30 10941 C 1052.86 -1.53194 -0.825088 0
M  V30 10942 O 1054.03 -1.85888 -0.775081 0
M  V30 10943 C 1051.1 -3.31313 -1.02139 0
M  V30 10944 C 1050.16 -4.28552 -0.253319 0
M  V30 10945 C 1049.39 -5.20715 -1.17012 0
M  V30 10946 O 1049.61 -5.17028 -2.40911 0
M  V30 10947 O 1048.55 -5.9839 -0.649039 0
M  V30 10948 H 1052.37 -2.95843 0.686329 0
M  V30 10949 H 1049.96 -1.43909 0.401316 0
M  V30 10950 H 1051.84 -3.90862 -1.57496 0
M  V30 10951 H 1050.52 -2.72516 -1.7469 0
M  V30 10952 H 1049.42 -3.72519 0.343531 0
M  V30 10953 H 1050.76 -4.90297 0.432372 0
M  V30 10954 N 1052.41 -0.382291 -1.52893 0
M  V30 10955 C 1053.36 0.471187 -2.27778 0
M  V30 10956 C 1054.35 1.0691 -1.31402 0
M  V30 10957 O 1055.56 1.01038 -1.48967 0
M  V30 10958 H 1051.93 0.170696 -0.732371 0
M  V30 10959 H 1053.9 -0.181954 -2.97845 0
M  V30 10960 C 1052.65 1.59012 -3.09209 0
M  V30 10961 H 1051.97 1.13935 -3.83222 0
M  V30 10962 H 1053.41 2.16167 -3.64757 0
M  V30 10963 C 1051.87 2.54212 -2.21084 0
M  V30 10964 O 1052.4 3.57447 -1.83288 0
M  V30 10965 N 1050.61 2.23789 -1.85383 0
M  V30 10966 H 1050.16 1.39872 -2.16318 0
M  V30 10967 H 1050.11 2.87737 -1.26708 0
M  V30 10968 N 1053.89 1.57202 -0.111913 0
M  V30 10969 C 1055.13 1.95239 0.548607 0
M  V30 10970 C 1055.46 0.994897 1.6678 0
M  V30 10971 O 1054.74 0.0308603 1.94476 0
M  V30 10972 C 1055.02 3.43271 1.08798 0
M  V30 10973 C 1054.88 4.49792 -0.0273064 0
M  V30 10974 C 1056.19 3.92989 1.98109 0
M  V30 10975 H 1053.31 0.709919 0.197951 0
M  V30 10976 H 1055.96 1.89087 -0.186036 0
M  V30 10977 H 1054.11 3.48644 1.71404 0
M  V30 10978 H 1055.78 4.56521 -0.662302 0
M  V30 10979 H 1054.02 4.28254 -0.691426 0
M  V30 10980 H 1054.69 5.50612 0.391201 0
M  V30 10981 H 1057.17 3.89875 1.45385 0
M  V30 10982 H 1056.04 4.97101 2.32769 0
M  V30 10983 H 1056.3 3.33267 2.90492 0
M  V30 10984 N 1055.36 -0.161842 1.56767 0
M  V30 10985 C 1056.78 -0.51396 1.51098 0
M  V30 10986 C 1056.98 -1.84158 0.817815 0
M  V30 10987 O 1056.04 -2.49592 0.382133 0
M  V30 10988 C 1057.35 -0.537966 2.95849 0
M  V30 10989 C 1058.9 -0.624512 3.06706 0
M  V30 10990 C 1059.37 -0.679322 4.52934 0
M  V30 10991 N 1060.86 -0.741953 4.57219 0
M  V30 10992 C 1061.6 -0.805096 5.6772 0
M  V30 10993 N 1061.09 -0.828492 6.87828 0
M  V30 10994 N 1062.89 -0.844843 5.55715 0
M  V30 10995 H 1055.04 0.708581 2.00232 0
M  V30 10996 H 1057.3 0.25663 0.912603 0
M  V30 10997 H 1057.01 0.369052 3.49758 0
M  V30 10998 H 1056.88 -1.38113 3.51005 0
M  V30 10999 H 1059.27 -1.52195 2.52825 0
M  V30 11000 H 1059.35 0.245515 2.54619 0
M  V30 11001 H 1058.99 0.213901 5.07449 0
M  V30 11002 H 1058.92 -1.56563 5.02788 0
M  V30 11003 H 1061.41 -0.731772 3.70747 0
M  V30 11004 H 1061.73 -0.878109 7.67795 0
M  V30 11005 H 1060.07 -0.796612 6.9042 0
M  V30 11006 H 1063.26 -0.823632 4.60797 0
M  V30 11007 H 1063.44 -0.890588 6.41851 0
M  V30 11008 N 1056.84 -1.516 -0.430713 0
M  V30 11009 C 1058.25 -1.57 -1.01035 0
M  V30 11010 C 1058.6 -0.397439 -1.92132 0
M  V30 11011 O 1057.73 0.484954 -2.10896 0
M  V30 11012 C 1058.32 -2.84536 -1.83915 0
M  V30 11013 C 1056.88 -2.92485 -2.36917 0
M  V30 11014 C 1056.03 -2.5173 -1.16308 0
M  V30 11015 H 1058.98 -1.57281 -0.211734 0
M  V30 11016 H 1059 -2.68672 -2.69435 0
M  V30 11017 H 1058.51 -3.69858 -1.17586 0
M  V30 11018 H 1056.61 -2.11608 -3.0668 0
M  V30 11019 H 1056.73 -3.96277 -2.6926 0
M  V30 11020 H 1055.09 -2.05079 -1.51045 0
M  V30 11021 H 1055.87 -3.39403 -0.515793 0
M  V30 11022 N 1058.32 0.686584 -1.41858 0
M  V30 11023 C 1059.28 1.78214 -1.44126 0
M  V30 11024 C 1060.28 1.57366 -0.330541 0
M  V30 11025 O 1061.47 1.63874 -0.590837 0
M  V30 11026 C 1058.6 3.16704 -1.26142 0
M  V30 11027 H 1059.8 1.77594 -2.41661 0
M  V30 11028 H 1057.35 0.895085 -1.28132 0
M  V30 11029 H 1058.09 3.22957 -0.294823 0
M  V30 11030 H 1057.87 3.33238 -2.06627 0
M  V30 11031 H 1059.36 3.96658 -1.30584 0
M  V30 11032 N 1059.8 1.27835 0.921735 0
M  V30 11033 C 1060.73 1.136 2.04003 0
M  V30 11034 C 1061.71 0.0358756 1.70062 0
M  V30 11035 O 1062.89 0.211438 1.93046 0
M  V30 11036 C 1060.02 0.788697 3.38226 0
M  V30 11037 C 1058.98 1.84272 3.863 0
M  V30 11038 C 1058.3 1.34923 5.17397 0
M  V30 11039 C 1059.6 3.24788 4.09035 0
M  V30 11040 H 1061.3 2.07149 2.1617 0
M  V30 11041 H 1058.84 0.997349 1.0387 0
M  V30 11042 H 1060.8 0.675911 4.15944 0
M  V30 11043 H 1059.52 -0.182499 3.2609 0
M  V30 11044 H 1058.18 1.94451 3.1078 0
M  V30 11045 H 1057.83 0.367328 5.01657 0
M  V30 11046 H 1057.53 2.05397 5.50532 0
M  V30 11047 H 1059.05 1.24951 5.97678 0
M  V30 11048 H 1060.47 3.17575 4.77304 0
M  V30 11049 H 1058.86 3.93025 4.53488 0
M  V30 11050 H 1059.93 3.69398 3.14122 0
M  V30 11051 N 1061.28 -1.12907 1.09954 0
M  V30 11052 C 1062.24 -2.16673 0.747364 0
M  V30 11053 C 1063.24 -1.59208 -0.225741 0
M  V30 11054 O 1064.43 -1.742 -0.00322482 0
M  V30 11055 C 1061.56 -3.40735 0.106169 0
M  V30 11056 H 1062.75 -2.49341 1.6664 0
M  V30 11057 H 1060.31 -1.27828 0.899421 0
M  V30 11058 H 1061.04 -3.13661 -0.82384 0
M  V30 11059 H 1060.83 -3.83717 0.806434 0
M  V30 11060 H 1062.32 -4.17414 -0.12464 0
M  V30 11061 N 1062.75 -0.88754 -1.30232 0
M  V30 11062 C 1064.16 -0.55745 -1.78184 0
M  V30 11063 C 1064.52 0.926474 -1.72948 0
M  V30 11064 O 1063.64 1.72403 -1.3079 0
M  V30 11065 C 1064.24 -1.00512 -3.23547 0
M  V30 11066 C 1062.79 -0.726402 -3.69324 0
M  V30 11067 C 1061.94 -1.18666 -2.50627 0
M  V30 11068 H 1064.89 -1.07151 -1.17066 0
M  V30 11069 H 1064.91 -0.335185 -3.79021 0
M  V30 11070 H 1064.43 -2.08517 -3.27326 0
M  V30 11071 H 1062.53 0.341548 -3.71031 0
M  V30 11072 H 1062.64 -1.31575 -4.60679 0
M  V30 11073 H 1061 -0.605936 -2.47387 0
M  V30 11074 H 1061.79 -2.2745 -2.57141 0
M  V30 11075 N 1064.23 1.43628 -0.648757 0
M  V30 11076 C 1065.14 2.34554 0.0463037 0
M  V30 11077 C 1066.16 1.53629 0.816952 0
M  V30 11078 O 1067.33 1.86297 0.765212 0
M  V30 11079 C 1064.4 3.3185 1.00381 0
M  V30 11080 C 1063.46 4.2868 0.230589 0
M  V30 11081 C 1062.69 5.21328 1.14249 0
M  V30 11082 O 1062.92 5.18298 2.38166 0
M  V30 11083 O 1061.85 5.98726 0.617296 0
M  V30 11084 H 1065.68 2.95475 -0.702008 0
M  V30 11085 H 1063.26 1.43694 -0.408942 0
M  V30 11086 H 1065.14 3.91692 1.5542 0
M  V30 11087 H 1063.82 2.73439 1.73243 0
M  V30 11088 H 1062.73 3.72332 -0.363282 0
M  V30 11089 H 1064.06 4.90061 -0.458368 0
M  V30 11090 N 1065.71 0.390394 1.52688 0
M  V30 11091 C 1066.67 -0.432149 2.25089 0
M  V30 11092 C 1067.67 -0.989296 1.26766 0
M  V30 11093 O 1068.86 -0.871126 1.50854 0
M  V30 11094 C 1066 -1.60642 3.00678 0
M  V30 11095 H 1067.19 0.201734 2.99221 0
M  V30 11096 H 1064.74 0.142531 1.55649 0
M  V30 11097 H 1065.48 -2.2777 2.3085 0
M  V30 11098 H 1065.26 -1.21361 3.72846 0
M  V30 11099 H 1066.75 -2.18873 3.55647 0
M  V30 11100 N 1067.19 -1.57141 0.120249 0
M  V30 11101 C 1068.44 -1.94852 -0.536387 0
M  V30 11102 C 1068.76 -1.00452 -1.67136 0
M  V30 11103 O 1068.03 -0.061053 -1.95805 0
M  V30 11104 H 1066.61 -0.719411 -0.201138 0
M  V30 11105 H 1069.27 -1.93977 0.189482 0
M  V30 11106 H 1068.37 -2.97917 -0.930145 0
M  V30 11107 N 1068.67 0.153526 -1.5685 0
M  V30 11108 C 1069.89 0.882335 -1.87143 0
M  V30 11109 C 1070.31 1.75034 -0.707702 0
M  V30 11110 O 1069.67 1.79624 0.32273 0
M  V30 11111 C 1069.72 1.74444 -3.16625 0
M  V30 11112 O 1069.44 0.911419 -4.28515 0
M  V30 11113 C 1070.94 2.58139 -3.60388 0
M  V30 11114 H 1068.16 0.25546 -0.620469 0
M  V30 11115 H 1070.7 0.148275 -2.03962 0
M  V30 11116 H 1068.86 2.43163 -3.0158 0
M  V30 11117 H 1069.27 1.50268 -5.02513 0
M  V30 11118 H 1070.75 3.14215 -4.53842 0
M  V30 11119 H 1071.22 3.33865 -2.85361 0
M  V30 11120 H 1071.83 1.94721 -3.78105 0
M  V30 11121 N 1070.14 1.51827 0.422667 0
M  V30 11122 C 1071.07 1.77152 1.52117 0
M  V30 11123 C 1072.06 0.621895 1.58324 0
M  V30 11124 O 1073.24 0.866118 1.73816 0
M  V30 11125 C 1070.37 1.90991 2.90068 0
M  V30 11126 C 1069.32 3.06516 2.98717 0
M  V30 11127 C 1068.65 3.05559 4.38791 0
M  V30 11128 C 1069.95 4.46223 2.71445 0
M  V30 11129 H 1071.64 2.69135 1.31175 0
M  V30 11130 H 1069.19 1.29507 0.629607 0
M  V30 11131 H 1071.14 2.07291 3.6689 0
M  V30 11132 H 1069.87 0.956688 3.12274 0
M  V30 11133 H 1068.53 2.89945 2.24338 0
M  V30 11134 H 1068.17 2.07985 4.57986 0
M  V30 11135 H 1067.87 3.83144 4.45505 0
M  V30 11136 H 1069.4 3.23971 5.17566 0
M  V30 11137 H 1070.81 4.63069 3.37994 0
M  V30 11138 H 1069.21 5.25623 2.89552 0
M  V30 11139 H 1070.28 4.5525 1.6696 0
M  V30 11140 N 1071.62 -0.679052 1.4222 0
M  V30 11141 C 1072.9 -1.43473 1.32947 0
M  V30 11142 C 1073.28 -2.11071 -0.0351689 0
M  V30 11143 O 1072.63 -2.02925 -1.05042 0
M  V30 11144 C 1072.84 -2.44065 2.49466 0
M  V30 11145 C 1074.19 -3.08834 2.91387 0
M  V30 11146 O 1075.21 -2.54392 2.49325 0
M  V30 11147 O 1074.07 -4.07478 3.64175 0
M  V30 11148 H 1071.16 -0.639743 0.524078 0
M  V30 11149 H 1073.71 -0.708134 1.54219 0
M  V30 11150 H 1072.48 -1.92884 3.40457 0
M  V30 11151 H 1072.1 -3.24212 2.30158 0
M  V30 11152 N 1073.1 -1.28322 -0.914942 0
M  V30 11153 C 1074.51 -1.13937 -1.47903 0
M  V30 11154 C 1074.86 0.271072 -1.94318 0
M  V30 11155 O 1073.99 1.16522 -1.8235 0
M  V30 11156 C 1074.58 -2.06221 -2.68809 0
M  V30 11157 C 1073.14 -1.95903 -3.21402 0
M  V30 11158 C 1072.29 -1.98031 -1.94111 0
M  V30 11159 H 1075.24 -1.41029 -0.727772 0
M  V30 11160 H 1075.26 -1.6255 -3.44031 0
M  V30 11161 H 1074.77 -3.08866 -2.34997 0
M  V30 11162 H 1072.87 -0.962907 -3.59943 0
M  V30 11163 H 1072.99 -2.82799 -3.86732 0
M  V30 11164 H 1071.35 -1.42423 -2.11158 0
M  V30 11165 H 1072.13 -3.02354 -1.62595 0
M  V30 11166 N 1074.58 1.12322 -1.10551 0
M  V30 11167 C 1075.86 1.80201 -0.760715 0
M  V30 11168 C 1076.24 1.97228 0.752628 0
M  V30 11169 O 1075.58 1.54958 1.67929 0
M  V30 11170 C 1075.79 3.14491 -1.51316 0
M  V30 11171 C 1077.14 3.89671 -1.68647 0
M  V30 11172 O 1078.17 3.24151 -1.47664 0
M  V30 11173 O 1077.02 5.0722 -2.03445 0
M  V30 11174 H 1074.12 0.780084 -0.274587 0
M  V30 11175 H 1076.66 1.19147 -1.20839 0
M  V30 11176 H 1075.44 2.97396 -2.54306 0
M  V30 11177 H 1075.06 3.83253 -1.05842 0
M  V30 11178 N 1076.06 0.894434 1.2976 0
M  V30 11179 C 1077.3 0.516646 1.95385 0
M  V30 11180 C 1077.63 -0.939141 1.70895 0
M  V30 11181 O 1076.9 -1.66153 1.03778 0
M  V30 11182 H 1075.48 0.188072 0.722937 0
M  V30 11183 H 1078.14 1.13958 1.58113 0
M  V30 11184 H 1077.23 0.694819 3.04267 0
M  V30 11185 N 1077.53 -1.43282 0.656365 0
M  V30 11186 C 1078.76 -2.06125 0.178879 0
M  V30 11187 C 1079.18 -1.49216 -1.15672 0
M  V30 11188 O 1078.53 -0.624693 -1.71475 0
M  V30 11189 C 1078.59 -3.614 0.0851785 0
M  V30 11190 O 1078.31 -4.16194 1.36798 0
M  V30 11191 C 1079.81 -4.41325 -0.41801 0
M  V30 11192 H 1077.03 -0.664753 0.0913504 0
M  V30 11193 H 1079.57 -1.83733 0.897901 0
M  V30 11194 H 1077.73 -3.82966 -0.584421 0
M  V30 11195 H 1078.14 -5.09892 1.22924 0
M  V30 11196 H 1079.61 -5.50303 -0.432519 0
M  V30 11197 H 1080.09 -4.14577 -1.44991 0
M  V30 11198 H 1080.7 -4.24735 0.219208 0
M  V30 11199 N 1079.01 -0.398486 -1.52479 0
M  V30 11200 C 1080.26 0.17345 -2.02659 0
M  V30 11201 C 1080.61 1.43702 -1.27935 0
M  V30 11202 O 1079.91 1.87916 -0.37392 0
M  V30 11203 C 1080.1 0.485909 -3.54081 0
M  V30 11204 C 1079.93 -0.745833 -4.43472 0
M  V30 11205 C 1078.7 -1.26785 -4.89136 0
M  V30 11206 C 1080.9 -1.62085 -4.88091 0
M  V30 11207 N 1078.88 -2.45619 -5.62623 0
M  V30 11208 C 1080.25 -2.65552 -5.60252 0
M  V30 11209 C 1082.31 -1.63986 -4.7012 0
M  V30 11210 C 1081.01 -3.70818 -6.1635 0
M  V30 11211 C 1083.04 -2.68164 -5.27107 0
M  V30 11212 C 1082.4 -3.70353 -5.99181 0
M  V30 11213 H 1078.5 0.0253159 -0.78159 0
M  V30 11214 H 1081.08 -0.550442 -1.86757 0
M  V30 11215 H 1079.25 1.17885 -3.70078 0
M  V30 11216 H 1080.98 1.0458 -3.90954 0
M  V30 11217 H 1077.74 -0.827472 -4.66315 0
M  V30 11218 H 1078.16 -3.05771 -6.04014 0
M  V30 11219 H 1082.8 -0.863253 -4.13893 0
M  V30 11220 H 1080.52 -4.49341 -6.71653 0
M  V30 11221 H 1084.11 -2.7053 -5.15077 0
M  V30 11222 H 1082.99 -4.49642 -6.42489 0
M  V30 11223 N 1080.49 1.57075 -0.12858 0
M  V30 11224 C 1081.72 2.00305 0.537839 0
M  V30 11225 C 1082.14 1.00787 1.58819 0
M  V30 11226 O 1081.5 -0.0190839 1.8129 0
M  V30 11227 C 1081.55 3.42371 1.13201 0
M  V30 11228 O 1080.65 3.45786 2.24735 0
M  V30 11229 H 1079.99 0.650456 0.133428 0
M  V30 11230 H 1082.52 2.03415 -0.219882 0
M  V30 11231 H 1082.53 3.80783 1.4652 0
M  V30 11232 H 1081.21 4.14315 0.362713 0
M  V30 11233 H 1079.78 3.19201 1.92783 0
M  V30 11234 N 1081.97 -0.145205 1.5693 0
M  V30 11235 C 1083.22 -0.855822 1.83085 0
M  V30 11236 C 1083.54 -1.81625 0.709747 0
M  V30 11237 O 1082.81 -1.94052 -0.268456 0
M  V30 11238 H 1081.39 -0.319032 0.675446 0
M  V30 11239 H 1084.05 -0.138781 1.94405 0
M  V30 11240 H 1083.15 -1.41698 2.78079 0
M  V30 11241 N 1083.45 -1.52049 -0.414609 0
M  V30 11242 C 1084.67 -1.6997 -1.18848 0
M  V30 11243 C 1085.1 -0.406058 -1.83665 0
M  V30 11244 O 1084.46 0.635981 -1.69779 0
M  V30 11245 C 1084.5 -2.8327 -2.23138 0
M  V30 11246 O 1083.61 -2.48457 -3.29155 0
M  V30 11247 H 1082.95 -0.566003 -0.347183 0
M  V30 11248 H 1085.48 -1.98726 -0.486757 0
M  V30 11249 H 1085.49 -3.08022 -2.67557 0
M  V30 11250 H 1084.16 -3.7713 -1.75344 0
M  V30 11251 H 1082.74 -2.34357 -2.90054 0
M  V30 11252 N 1084.93 0.6715 -1.42579 0
M  V30 11253 C 1085.89 1.76676 -1.46008 0
M  V30 11254 C 1086.89 1.57007 -0.347213 0
M  V30 11255 O 1088.08 1.63238 -0.608185 0
M  V30 11256 C 1085.21 3.15348 -1.29494 0
M  V30 11257 H 1086.4 1.75021 -2.43531 0
M  V30 11258 H 1083.96 0.881444 -1.29075 0
M  V30 11259 H 1084.69 3.22626 -0.32906 0
M  V30 11260 H 1084.48 3.31028 -2.10149 0
M  V30 11261 H 1085.97 3.95251 -1.34784 0
M  V30 11262 N 1086.4 1.28806 0.908124 0
M  V30 11263 C 1087.37 1.13228 1.99279 0
M  V30 11264 C 1088.37 0.0702456 1.60646 0
M  V30 11265 O 1089.56 0.316494 1.71301 0
M  V30 11266 C 1086.69 0.729629 3.33 0
M  V30 11267 H 1087.88 2.09566 2.14528 0
M  V30 11268 H 1085.43 1.11872 1.09153 0
M  V30 11269 H 1086.17 -0.234268 3.23453 0
M  V30 11270 H 1085.95 1.49688 3.62403 0
M  V30 11271 H 1087.44 0.643449 4.12613 0
M  V30 11272 N 1087.88 -1.11734 1.11145 0
M  V30 11273 C 1089.11 -1.86943 0.879534 0
M  V30 11274 C 1089.52 -1.80283 -0.574007 0
M  V30 11275 O 1088.86 -1.17998 -1.40791 0
M  V30 11276 C 1088.92 -3.36738 1.25887 0
M  V30 11277 C 1088.59 -3.67169 2.72095 0
M  V30 11278 C 1089.59 -3.6491 3.7032 0
M  V30 11279 C 1087.27 -3.96272 3.08665 0
M  V30 11280 C 1089.26 -3.91325 5.03134 0
M  V30 11281 C 1086.95 -4.22345 4.41665 0
M  V30 11282 C 1087.95 -4.19859 5.38709 0
M  V30 11283 O 1087.64 -4.4528 6.69314 0
M  V30 11284 H 1087.37 -0.598117 0.315011 0
M  V30 11285 H 1089.92 -1.42253 1.48166 0
M  V30 11286 H 1088.15 -3.82019 0.599873 0
M  V30 11287 H 1089.84 -3.93306 1.00325 0
M  V30 11288 H 1090.61 -3.42481 3.43412 0
M  V30 11289 H 1086.49 -3.97344 2.33749 0
M  V30 11290 H 1090.03 -3.893 5.78871 0
M  V30 11291 H 1085.93 -4.4425 4.68308 0
M  V30 11292 H 1086.7 -4.62863 6.75056 0
M  V30 11293 N 1089.36 -0.901303 -1.29284 0
M  V30 11294 C 1090.64 -0.44747 -1.90413 0
M  V30 11295 C 1091.02 1.07298 -1.81797 0
M  V30 11296 O 1090.36 1.91555 -1.24574 0
M  V30 11297 C 1090.57 -0.963849 -3.35427 0
M  V30 11298 C 1091.92 -1.00851 -4.12449 0
M  V30 11299 O 1092.95 -0.91163 -3.44337 0
M  V30 11300 O 1091.81 -1.15426 -5.34171 0
M  V30 11301 H 1088.9 -0.13976 -0.815105 0
M  V30 11302 H 1091.45 -0.991274 -1.37738 0
M  V30 11303 H 1090.22 -2.00782 -3.3586 0
M  V30 11304 H 1089.84 -0.400149 -3.95581 0
M  V30 11305 N 1090.84 1.42931 -0.663954 0
M  V30 11306 C 1092.25 1.56098 -0.332496 0
M  V30 11307 C 1092.45 1.64564 1.16279 0
M  V30 11308 O 1091.51 1.6066 1.94794 0
M  V30 11309 C 1092.82 2.81649 -1.05329 0
M  V30 11310 C 1094.37 2.95408 -1.03457 0
M  V30 11311 C 1094.85 4.23805 -1.73647 0
M  V30 11312 N 1096.34 4.30693 -1.70462 0
M  V30 11313 C 1097.07 5.28833 -2.21637 0
M  V30 11314 N 1096.57 6.33189 -2.81147 0
M  V30 11315 N 1098.36 5.20558 -2.12075 0
M  V30 11316 H 1090.51 1.3568 -1.63416 0
M  V30 11317 H 1092.77 0.652361 -0.687844 0
M  V30 11318 H 1092.48 2.81494 -2.10842 0
M  V30 11319 H 1092.35 3.72208 -0.611626 0
M  V30 11320 H 1094.74 2.95097 0.0121936 0
M  V30 11321 H 1094.82 2.06109 -1.51502 0
M  V30 11322 H 1094.47 4.24876 -2.78285 0
M  V30 11323 H 1094.4 5.12019 -1.2306 0
M  V30 11324 H 1096.89 3.55904 -1.27046 0
M  V30 11325 H 1097.2 7.04411 -3.17844 0
M  V30 11326 H 1095.55 6.33781 -2.85212 0
M  V30 11327 H 1098.74 4.3795 -1.6528 0
M  V30 11328 H 1098.91 5.96881 -2.52264 0
M  V30 11329 N 1092.32 0.406567 1.52266 0
M  V30 11330 C 1093.26 -0.43489 2.28498 0
M  V30 11331 C 1094.26 -1.04806 1.33086 0
M  V30 11332 O 1095.46 -0.986557 1.50556 0
M  V30 11333 H 1091.84 -0.159023 0.734994 0
M  V30 11334 H 1093.81 0.229316 2.97518 0
M  V30 11335 C 1092.56 -1.54073 3.117 0
M  V30 11336 H 1091.88 -1.07824 3.84986 0
M  V30 11337 H 1093.32 -2.10337 3.6815 0
M  V30 11338 C 1091.78 -2.50662 2.251 0
M  V30 11339 O 1092.31 -3.54486 1.88951 0
M  V30 11340 N 1090.52 -2.20811 1.8892 0
M  V30 11341 H 1090.06 -1.36413 2.18516 0
M  V30 11342 H 1090.02 -2.85684 1.3127 0
M  V30 11343 N 1093.79 -1.57004 0.136909 0
M  V30 11344 C 1095.04 -1.9541 -0.51569 0
M  V30 11345 C 1095.36 -1.02219 -1.66061 0
M  V30 11346 O 1094.63 -0.0818172 -1.95729 0
M  V30 11347 H 1093.21 -0.721504 -0.193497 0
M  V30 11348 H 1095.88 -1.93765 0.210046 0
M  V30 11349 H 1094.97 -2.98887 -0.898494 0
M  V30 11350 N 1095.27 0.136881 -1.57004 0
M  V30 11351 C 1096.22 1.18782 -1.99984 0
M  V30 11352 C 1097.21 1.43899 -0.893841 0
M  V30 11353 O 1098.42 1.44072 -1.07904 0
M  V30 11354 H 1094.8 0.400065 -0.636751 0
M  V30 11355 H 1096.77 0.798696 -2.87512 0
M  V30 11356 C 1095.52 2.51105 -2.40502 0
M  V30 11357 H 1094.84 2.32611 -3.25165 0
M  V30 11358 H 1096.28 3.23244 -2.74389 0
M  V30 11359 C 1094.74 3.12386 -1.26161 0
M  V30 11360 O 1095.27 3.97666 -0.567836 0
M  V30 11361 N 1093.47 2.71989 -1.02326 0
M  V30 11362 H 1093.02 2.02736 -1.58921 0
M  V30 11363 H 1092.98 3.13322 -0.26013 0
M  V30 11364 N 1096.75 1.52266 0.40654 0
M  V30 11365 C 1098.16 1.58587 0.985241 0
M  V30 11366 C 1098.51 0.427955 1.91476 0
M  V30 11367 O 1097.64 -0.451341 2.11641 0
M  V30 11368 C 1098.23 2.87426 1.79365 0
M  V30 11369 C 1096.79 2.96217 2.32233 0
M  V30 11370 C 1095.94 2.53548 1.12288 0
M  V30 11371 H 1098.89 1.57598 0.186685 0
M  V30 11372 H 1098.91 2.72925 2.65127 0
M  V30 11373 H 1098.42 3.71682 1.11687 0
M  V30 11374 H 1096.52 2.1646 3.03275 0
M  V30 11375 H 1096.64 4.00511 2.62922 0
M  V30 11376 H 1095 2.07457 1.47763 0
M  V30 11377 H 1095.78 3.40181 0.461731 0
M  V30 11378 N 1098.23 -0.663929 1.42933 0
M  V30 11379 C 1099.47 -1.42603 1.44195 0
M  V30 11380 C 1099.81 -1.94101 0.0620284 0
M  V30 11381 O 1099.08 -1.71609 -0.91546 0
M  V30 11382 C 1099.37 -2.61522 2.47544 0
M  V30 11383 C 1099.22 -2.15587 3.94769 0
M  V30 11384 C 1100.54 -3.6374 2.47753 0
M  V30 11385 H 1097.66 -0.517189 0.525056 0
M  V30 11386 H 1100.3 -0.75361 1.74415 0
M  V30 11387 H 1098.45 -3.1889 2.21904 0
M  V30 11388 H 1100.12 -1.63303 4.31428 0
M  V30 11389 H 1098.36 -1.47057 4.08114 0
M  V30 11390 H 1099.03 -3.01053 4.62678 0
M  V30 11391 H 1101.51 -3.16111 2.70579 0
M  V30 11392 H 1100.39 -4.44512 3.22025 0
M  V30 11393 H 1100.65 -4.15607 1.50742 0
M  V30 11394 N 1099.71 -1.29285 -0.901281 0
M  V30 11395 C 1100.64 -1.16832 -2.0217 0
M  V30 11396 C 1101.62 -0.0629265 -1.69984 0
M  V30 11397 O 1102.8 -0.242123 -1.92685 0
M  V30 11398 C 1099.93 -0.842406 -3.36929 0
M  V30 11399 C 1098.89 -1.90394 -3.8332 0
M  V30 11400 C 1098.21 -1.43138 -5.15185 0
M  V30 11401 C 1099.51 -3.31254 -4.03817 0
M  V30 11402 H 1101.21 -2.10562 -2.12847 0
M  V30 11403 H 1098.75 -1.01375 -1.0227 0
M  V30 11404 H 1100.71 -0.741999 -4.14816 0
M  V30 11405 H 1099.43 0.130598 -3.26339 0
M  V30 11406 H 1098.09 -1.99371 -3.07647 0
M  V30 11407 H 1097.74 -0.447091 -5.01009 0
M  V30 11408 H 1097.44 -2.14129 -5.47195 0
M  V30 11409 H 1098.96 -1.34444 -5.95615 0
M  V30 11410 H 1100.37 -3.25129 -4.72191 0
M  V30 11411 H 1098.77 -4.00189 -4.47178 0
M  V30 11412 H 1099.84 -3.74349 -3.08206 0
M  V30 11413 N 1101.18 1.11143 -1.11736 0
M  V30 11414 C 1102.43 1.82948 -0.868127 0
M  V30 11415 C 1102.76 1.84813 0.606182 0
M  V30 11416 O 1102.01 1.29901 1.4637 0
M  V30 11417 C 1102.31 3.29733 -1.3788 0
M  V30 11418 C 1101.98 3.48025 -2.86687 0
M  V30 11419 C 1100.64 3.52725 -3.2732 0
M  V30 11420 C 1102.99 3.54024 -3.82513 0
M  V30 11421 C 1100.32 3.60983 -4.62502 0
M  V30 11422 C 1102.67 3.63814 -5.17515 0
M  V30 11423 C 1101.34 3.66776 -5.57702 0
M  V30 11424 H 1100.61 0.669452 -0.31767 0
M  V30 11425 H 1103.25 1.31057 -1.3963 0
M  V30 11426 H 1101.56 3.8414 -0.77093 0
M  V30 11427 H 1103.26 3.83787 -1.16225 0
M  V30 11428 H 1099.85 3.45039 -2.54256 0
M  V30 11429 H 1104.03 3.4965 -3.52219 0
M  V30 11430 H 1099.29 3.61554 -4.9304 0
M  V30 11431 H 1103.46 3.674 -5.916 0
M  V30 11432 H 1101.09 3.72927 -6.62442 0
M  V30 11433 N 1102.66 0.908147 1.28804 0
M  V30 11434 C 1103.89 0.553287 1.99054 0
M  V30 11435 C 1104.3 -0.868455 1.68091 0
M  V30 11436 O 1103.64 -1.58599 0.926939 0
M  V30 11437 C 1103.71 0.675823 3.5309 0
M  V30 11438 C 1103.37 2.06608 4.0763 0
M  V30 11439 C 1104.37 3.03819 4.21889 0
M  V30 11440 C 1102.05 2.37775 4.42457 0
M  V30 11441 C 1104.05 4.30316 4.7022 0
M  V30 11442 C 1101.73 3.64512 4.90484 0
M  V30 11443 C 1102.73 4.60597 5.04321 0
M  V30 11444 O 1102.42 5.85082 5.51302 0
M  V30 11445 H 1102.15 0.210152 0.642504 0
M  V30 11446 H 1104.7 1.22188 1.65104 0
M  V30 11447 H 1102.93 -0.0498253 3.86668 0
M  V30 11448 H 1104.62 0.328884 4.04565 0
M  V30 11449 H 1105.39 2.81057 3.95262 0
M  V30 11450 H 1101.27 1.63742 4.3094 0
M  V30 11451 H 1104.81 5.05318 4.80936 0
M  V30 11452 H 1100.71 3.87101 5.1655 0
M  V30 11453 H 1101.48 5.87791 5.69599 0
M  V30 11454 N 1104.14 -1.42577 0.671525 0
M  V30 11455 C 1105.37 -2.05924 0.200731 0
M  V30 11456 C 1105.78 -1.50434 -1.14083 0
M  V30 11457 O 1105.14 -0.642845 -1.70803 0
M  V30 11458 C 1105.19 -3.61289 0.123505 0
M  V30 11459 O 1104.91 -4.1472 1.41205 0
M  V30 11460 C 1106.41 -4.41743 -0.371178 0
M  V30 11461 H 1103.63 -0.663746 0.0983958 0
M  V30 11462 H 1106.18 -1.82771 0.917338 0
M  V30 11463 H 1104.33 -3.83565 -0.543769 0
M  V30 11464 H 1104.75 -5.0856 1.28325 0
M  V30 11465 H 1106.22 -5.50731 -0.374128 0
M  V30 11466 H 1106.7 -4.16092 -1.40585 0
M  V30 11467 H 1107.3 -4.24478 0.264244 0
M  V30 11468 N 1105.62 -0.414636 -1.52048 0
M  V30 11469 C 1106.58 0.396285 -2.25748 0
M  V30 11470 C 1107.58 0.969003 -1.28324 0
M  V30 11471 O 1108.77 0.847016 -1.52221 0
M  V30 11472 C 1105.9 1.55838 -3.03195 0
M  V30 11473 H 1107.1 -0.249311 -2.98862 0
M  V30 11474 H 1104.65 -0.167276 -1.55402 0
M  V30 11475 H 1105.38 2.24068 -2.34444 0
M  V30 11476 H 1105.17 1.15414 -3.74729 0
M  V30 11477 H 1106.66 2.13187 -3.59084 0
M  V30 11478 N 1107.1 1.56929 -0.145233 0
M  V30 11479 C 1108.34 1.95681 0.50532 0
M  V30 11480 C 1108.67 1.03098 1.65516 0
M  V30 11481 O 1107.94 0.0921961 1.95683 0
M  V30 11482 H 1106.52 0.72252 0.189668 0
M  V30 11483 H 1109.18 1.93651 -0.220318 0
M  V30 11484 H 1108.27 2.99359 0.882631 0
M  V30 11485 N 1108.58 -0.128553 1.57075 0
M  V30 11486 C 1109.52 -1.17719 2.00611 0
M  V30 11487 C 1110.52 -1.43423 0.90146 0
M  V30 11488 O 1111.72 -1.43498 1.08666 0
M  V30 11489 H 1108.1 -0.396683 0.638864 0
M  V30 11490 H 1110.07 -0.783437 2.87932 0
M  V30 11491 C 1108.82 -2.49826 2.41831 0
M  V30 11492 H 1108.14 -2.30883 3.26394 0
M  V30 11493 H 1109.58 -3.21784 2.761 0
M  V30 11494 C 1108.04 -3.11712 1.27816 0
M  V30 11495 O 1108.57 -3.9736 0.588917 0
M  V30 11496 N 1106.78 -2.71442 1.03767 0
M  V30 11497 H 1106.32 -2.01891 1.59994 0
M  V30 11498 H 1106.28 -3.1318 0.276743 0
M  V30 11499 N 1110.05 -1.5248 -0.398459 0
M  V30 11500 C 1111.33 -1.57634 -1.15805 0
M  V30 11501 C 1111.71 -0.363785 -2.07942 0
M  V30 11502 O 1111.06 0.648598 -2.19101 0
M  V30 11503 C 1111.27 -2.91042 -1.92602 0
M  V30 11504 C 1112.62 -3.44433 -2.48296 0
M  V30 11505 O 1113.64 -2.92853 -2.0277 0
M  V30 11506 O 1112.5 -4.34529 -3.31432 0
M  V30 11507 H 1109.59 -0.63539 -0.529347 0
M  V30 11508 H 1112.14 -1.64812 -0.404376 0
M  V30 11509 H 1110.91 -3.7074 -1.25169 0
M  V30 11510 H 1110.53 -2.87206 -2.74952 0
M  V30 11511 N 1111.53 0.65634 -1.43283 0
M  V30 11512 C 1112.76 1.44906 -1.48382 0
M  V30 11513 C 1113.18 1.87823 -0.101993 0
M  V30 11514 O 1112.54 1.57178 0.903597 0
M  V30 11515 C 1112.59 2.66231 -2.43215 0
M  V30 11516 O 1111.69 3.65176 -1.91625 0
M  V30 11517 H 1111.03 0.434601 -0.502014 0
M  V30 11518 H 1113.56 0.803429 -1.88165 0
M  V30 11519 H 1113.57 3.14083 -2.60414 0
M  V30 11520 H 1112.25 2.34336 -3.43598 0
M  V30 11521 H 1110.82 3.24302 -1.84072 0
M  V30 11522 N 1113.01 1.29761 0.894412 0
M  V30 11523 C 1113.94 1.17902 2.01547 0
M  V30 11524 C 1114.92 0.0719402 1.69948 0
M  V30 11525 O 1116.11 0.252338 1.92554 0
M  V30 11526 C 1113.24 0.860262 3.36477 0
M  V30 11527 C 1112.19 1.92424 3.82305 0
M  V30 11528 C 1111.52 1.45868 5.14419 0
M  V30 11529 C 1112.82 3.33391 4.02054 0
M  V30 11530 H 1114.51 2.11688 2.11727 0
M  V30 11531 H 1112.06 1.01916 1.01731 0
M  V30 11532 H 1114.01 0.763987 4.14417 0
M  V30 11533 H 1112.73 -0.113289 3.26403 0
M  V30 11534 H 1111.39 2.00999 3.06586 0
M  V30 11535 H 1111.04 0.473654 5.00765 0
M  V30 11536 H 1110.74 2.17028 5.46052 0
M  V30 11537 H 1112.26 1.37601 5.94894 0
M  V30 11538 H 1113.68 3.27628 4.7046 0
M  V30 11539 H 1112.07 4.02555 4.4505 0
M  V30 11540 H 1113.14 3.75978 3.06216 0
M  V30 11541 N 1114.49 -1.10549 1.12324 0
M  V30 11542 C 1115.71 -1.8681 0.900927 0
M  V30 11543 C 1116.14 -1.80049 -0.54443 0
M  V30 11544 O 1115.5 -1.16957 -1.38531 0
M  V30 11545 C 1115.54 -3.33197 1.37883 0
M  V30 11546 O 1114.65 -4.08628 0.556529 0
M  V30 11547 H 1113.99 -0.579709 0.32378 0
M  V30 11548 H 1116.52 -1.39678 1.49503 0
M  V30 11549 H 1116.53 -3.84047 1.37739 0
M  V30 11550 H 1115.2 -3.37435 2.43127 0
M  V30 11551 H 1113.78 -3.67627 0.62486 0
M  V30 11552 N 1115.97 -0.914965 -1.28321 0
M  V30 11553 C 1117.38 -0.59512 -1.76961 0
M  V30 11554 C 1117.73 0.88958 -1.74874 0
M  V30 11555 O 1116.85 1.6959 -1.34418 0
M  V30 11556 C 1117.45 -1.07353 -3.21342 0
M  V30 11557 C 1116.01 -0.804577 -3.677 0
M  V30 11558 C 1115.15 -1.23955 -2.48053 0
M  V30 11559 H 1118.1 -1.0961 -1.14767 0
M  V30 11560 H 1118.13 -0.415506 -3.78225 0
M  V30 11561 H 1117.64 -2.15413 -3.22829 0
M  V30 11562 H 1115.74 0.26277 -3.71672 0
M  V30 11563 H 1115.85 -1.41317 -4.57784 0
M  V30 11564 H 1114.22 -0.658274 -2.46046 0
M  V30 11565 H 1115 -2.32853 -2.52258 0
M  V30 11566 N 1117.44 1.42219 -0.679077 0
M  V30 11567 C 1118.39 2.32599 0.00820028 0
M  V30 11568 C 1119.39 1.50059 0.786046 0
M  V30 11569 O 1120.59 1.66103 0.693528 0
M  V30 11570 H 1116.97 0.751694 0.0214483 0
M  V30 11571 H 1118.94 2.88257 -0.77138 0
M  V30 11572 C 1117.69 3.3468 0.942581 0
M  V30 11573 H 1117.01 3.98234 0.353463 0
M  V30 11574 H 1118.45 4.00496 1.39208 0
M  V30 11575 C 1116.91 2.67275 2.05099 0
M  V30 11576 O 1117.44 2.50793 3.13793 0
M  V30 11577 N 1115.64 2.26232 1.82394 0
M  V30 11578 H 1115.19 2.39838 0.939983 0
M  V30 11579 H 1115.15 1.81465 2.56744 0
M  V30 11580 N 1118.92 0.422693 1.51826 0
M  V30 11581 C 1119.85 -0.43167 2.25098 0
M  V30 11582 C 1120.87 -0.998758 1.28564 0
M  V30 11583 O 1122.06 -0.89539 1.54418 0
M  V30 11584 C 1119.16 -1.61426 2.97985 0
M  V30 11585 C 1118.33 -1.16866 4.21499 0
M  V30 11586 C 1117.39 -2.2197 4.77091 0
M  V30 11587 O 1116.41 -1.82004 5.39317 0
M  V30 11588 N 1117.62 -3.54293 4.59844 0
M  V30 11589 H 1120.38 0.196255 2.99057 0
M  V30 11590 H 1117.94 0.25079 1.59946 0
M  V30 11591 H 1119.93 -2.31331 3.32066 0
M  V30 11592 H 1118.5 -2.14783 2.27128 0
M  V30 11593 H 1117.72 -0.297217 3.93078 0
M  V30 11594 H 1119.01 -0.848106 5.01682 0
M  V30 11595 H 1118.41 -3.89505 4.10247 0
M  V30 11596 H 1116.97 -4.20135 4.98327 0
M  V30 11597 N 1120.4 -1.5685 0.153553 0
M  V30 11598 C 1121.82 -1.58306 -0.202801 0
M  V30 11599 C 1122.02 -1.16813 -1.64186 0
M  V30 11600 O 1121.07 -0.871468 -2.36985 0
M  V30 11601 C 1122.38 -3.00636 0.0619012 0
M  V30 11602 C 1123.93 -3.13 -0.00129219 0
M  V30 11603 C 1124.41 -4.57391 0.236164 0
M  V30 11604 N 1125.9 -4.62837 0.18332 0
M  V30 11605 C 1126.63 -5.72382 0.341471 0
M  V30 11606 N 1126.13 -6.90552 0.557704 0
M  V30 11607 N 1127.92 -5.61409 0.278615 0
M  V30 11608 H 1120.07 -1.82113 1.09309 0
M  V30 11609 H 1122.34 -0.843228 0.433209 0
M  V30 11610 H 1122.04 -3.35406 1.0581 0
M  V30 11611 H 1121.92 -3.71477 -0.654555 0
M  V30 11612 H 1124.3 -2.78068 -0.98805 0
M  V30 11613 H 1124.38 -2.44632 0.747596 0
M  V30 11614 H 1124.03 -4.93029 1.22005 0
M  V30 11615 H 1123.96 -5.23894 -0.533125 0
M  V30 11616 H 1126.45 -3.77894 0.0211138 0
M  V30 11617 H 1126.76 -7.69905 0.66831 0
M  V30 11618 H 1125.11 -6.92456 0.594105 0
M  V30 11619 H 1128.3 -4.6797 0.110401 0
M  V30 11620 H 1128.47 -6.46731 0.4053 0
M  V30 11621 N 1121.88 0.120221 -1.57141 0
M  V30 11622 C 1123.11 0.842441 -1.88972 0
M  V30 11623 C 1123.52 1.73494 -0.744671 0
M  V30 11624 O 1122.88 1.80268 0.284557 0
M  V30 11625 C 1122.93 1.67688 -3.20254 0
M  V30 11626 O 1122.65 0.820319 -4.30351 0
M  V30 11627 C 1124.15 2.50436 -3.65782 0
M  V30 11628 H 1121.37 0.242241 -0.625748 0
M  V30 11629 H 1123.91 0.104978 -2.0423 0
M  V30 11630 H 1122.07 2.36712 -3.0667 0
M  V30 11631 H 1122.48 1.39575 -5.05588 0
M  V30 11632 H 1123.96 3.04518 -4.60405 0
M  V30 11633 H 1124.43 3.27737 -2.92378 0
M  V30 11634 H 1125.04 1.86657 -3.82151 0
M  V30 11635 N 1123.36 1.52689 0.390367 0
M  V30 11636 C 1124.6 1.67335 1.13329 0
M  V30 11637 C 1124.93 0.415068 1.90531 0
M  V30 11638 O 1124.2 -0.570504 1.87409 0
M  V30 11639 H 1122.78 0.616821 0.421356 0
M  V30 11640 H 1125.44 1.89799 0.443 0
M  V30 11641 H 1124.53 2.52314 1.83696 0
M  V30 11642 N 1124.83 -0.648732 1.43629 0
M  V30 11643 C 1125.76 -1.77298 1.51947 0
M  V30 11644 C 1126.75 -1.65942 0.373785 0
M  V30 11645 O 1127.93 -1.8497 0.591596 0
M  V30 11646 C 1125.06 -3.15749 1.44638 0
M  V30 11647 C 1124.01 -3.41872 2.57502 0
M  V30 11648 C 1123.34 -4.8017 2.35246 0
M  V30 11649 C 1124.64 -3.36173 3.99731 0
M  V30 11650 H 1126.33 -1.70594 2.46045 0
M  V30 11651 H 1123.88 -0.819306 1.1842 0
M  V30 11652 H 1125.83 -3.94156 1.4906 0
M  V30 11653 H 1124.56 -3.23194 0.470466 0
M  V30 11654 H 1123.22 -2.65838 2.5244 0
M  V30 11655 H 1122.86 -4.84297 1.35887 0
M  V30 11656 H 1122.56 -4.9861 3.10906 0
M  V30 11657 H 1124.09 -5.6083 2.41459 0
M  V30 11658 H 1125.5 -4.0451 4.06257 0
M  V30 11659 H 1123.9 -3.66148 4.75453 0
M  V30 11660 H 1124.97 -2.34277 4.24549 0
M  V30 11661 N 1126.31 -1.30234 -0.887518 0
M  V30 11662 C 1127.28 -1.16384 -1.97452 0
M  V30 11663 C 1128.28 -0.0957942 -1.60514 0
M  V30 11664 O 1129.47 -0.343706 -1.70776 0
M  V30 11665 C 1126.6 -0.782514 -3.31797 0
M  V30 11666 H 1127.79 -2.12952 -2.11167 0
M  V30 11667 H 1125.34 -1.13594 -1.07359 0
M  V30 11668 H 1126.08 0.18278 -3.23785 0
M  V30 11669 H 1125.86 -1.55434 -3.59976 0
M  V30 11670 H 1127.35 -0.709011 -4.11537 0
M  V30 11671 N 1127.79 1.09952 -1.12909 0
M  V30 11672 C 1129.02 1.8579 -0.910483 0
M  V30 11673 C 1129.43 1.80898 0.540484 0
M  V30 11674 O 1128.79 1.20126 1.3739 0
M  V30 11675 C 1128.84 3.33987 -1.38329 0
M  V30 11676 O 1128.56 3.38811 -2.77739 0
M  V30 11677 C 1130.06 4.26683 -1.20234 0
M  V30 11678 H 1127.28 0.587026 -0.325025 0
M  V30 11679 H 1129.83 1.38965 -1.5003 0
M  V30 11680 H 1127.98 3.78259 -0.836592 0
M  V30 11681 H 1128.4 4.31204 -2.98603 0
M  V30 11682 H 1129.87 5.28846 -1.58197 0
M  V30 11683 H 1130.35 4.38966 -0.14344 0
M  V30 11684 H 1130.95 3.88221 -1.73679 0
M  V30 11685 N 1129.27 0.921757 1.27833 0
M  V30 11686 C 1130.68 0.604496 1.76643 0
M  V30 11687 C 1131.03 -0.880294 1.75343 0
M  V30 11688 O 1130.16 -1.68875 1.35315 0
M  V30 11689 C 1130.75 1.09055 3.20768 0
M  V30 11690 C 1129.31 0.824066 3.67268 0
M  V30 11691 C 1128.46 1.25269 2.47392 0
M  V30 11692 H 1131.41 1.10217 1.14184 0
M  V30 11693 H 1131.43 0.435558 3.77999 0
M  V30 11694 H 1130.94 2.17122 3.21682 0
M  V30 11695 H 1129.04 -0.243055 3.71806 0
M  V30 11696 H 1129.15 1.43743 4.57028 0
M  V30 11697 H 1127.52 0.671313 2.45694 0
M  V30 11698 H 1128.3 2.34188 2.5102 0
M  V30 11699 N 1130.75 -1.41857 0.686609 0
M  V30 11700 C 1131.71 -2.29187 0.0247022 0
M  V30 11701 C 1132.71 -1.43926 -0.717069 0
M  V30 11702 O 1133.9 -1.65179 -0.5533 0
M  V30 11703 C 1131.03 -3.26644 -0.975537 0
M  V30 11704 H 1132.22 -2.89212 0.793503 0
M  V30 11705 H 1129.78 -1.49694 0.449605 0
M  V30 11706 H 1130.51 -2.7158 -1.77242 0
M  V30 11707 H 1130.3 -3.89545 -0.446892 0
M  V30 11708 H 1131.79 -3.92107 -1.43673 0
M  V30 11709 N 1132.22 -0.430739 -1.51599 0
M  V30 11710 C 1133.5 0.197543 -1.946 0
M  V30 11711 C 1133.88 1.6069 -1.36901 0
M  V30 11712 O 1133.23 2.21697 -0.553422 0
M  V30 11713 C 1133.44 0.181976 -3.48525 0
M  V30 11714 C 1134.79 0.390783 -4.22798 0
M  V30 11715 O 1135.81 0.260384 -3.55247 0
M  V30 11716 O 1134.67 0.649701 -5.42624 0
M  V30 11717 H 1131.76 0.133524 -0.81615 0
M  V30 11718 H 1134.31 -0.488243 -1.62525 0
M  V30 11719 H 1133.08 -0.803584 -3.8296 0
M  V30 11720 H 1132.71 0.910952 -3.87024 0
M  V30 11721 N 1133.7 1.56767 -0.161869 0
M  V30 11722 C 1134.63 2.20511 0.767918 0
M  V30 11723 C 1135.61 1.15783 1.24612 0
M  V30 11724 O 1136.8 1.44179 1.301 0
M  V30 11725 C 1133.93 2.83844 2.00125 0
M  V30 11726 C 1132.88 3.94528 1.65926 0
M  V30 11727 C 1132.21 4.44866 2.96646 0
M  V30 11728 C 1133.51 5.14583 0.894497 0
M  V30 11729 H 1135.2 2.98464 0.236607 0
M  V30 11730 H 1132.75 1.43561 0.112363 0
M  V30 11731 H 1134.7 3.27109 2.65664 0
M  V30 11732 H 1133.43 2.03246 2.55654 0
M  V30 11733 H 1132.08 3.51904 1.02759 0
M  V30 11734 H 1131.73 3.61071 3.50196 0
M  V30 11735 H 1131.43 5.19531 2.74521 0
M  V30 11736 H 1132.96 4.90812 3.6323 0
M  V30 11737 H 1134.37 5.54601 1.45228 0
M  V30 11738 H 1132.77 5.95105 0.772636 0
M  V30 11739 H 1133.84 4.84773 -0.110986 0
M  V30 11740 N 1135.18 -0.111886 1.57202 0
M  V30 11741 C 1136.41 -0.836317 1.89791 0
M  V30 11742 C 1136.83 -1.72304 0.754513 0
M  V30 11743 O 1136.19 -1.78889 -0.294672 0
M  V30 11744 C 1136.24 -1.63971 3.21164 0
M  V30 11745 O 1135.34 -2.74726 3.0757 0
M  V30 11746 H 1134.68 -0.230833 0.622585 0
M  V30 11747 H 1137.21 -0.0921478 2.04392 0
M  V30 11748 H 1137.22 -2.02746 3.54059 0
M  V30 11749 H 1135.9 -0.98882 4.03974 0
M  V30 11750 H 1134.47 -2.39101 2.86156 0
M  V30 11751 N 1136.66 -1.52894 -0.382264 0
M  V30 11752 C 1137.94 -1.58853 -1.14127 0
M  V30 11753 C 1138.32 -0.38582 -2.07544 0
M  V30 11754 O 1137.66 0.625323 -2.19777 0
M  V30 11755 C 1137.87 -2.93068 -1.89504 0
M  V30 11756 C 1139.22 -3.47048 -2.44629 0
M  V30 11757 O 1140.25 -2.94987 -1.99652 0
M  V30 11758 O 1139.1 -4.3802 -3.26804 0
M  V30 11759 H 1136.2 -0.640969 -0.522578 0
M  V30 11760 H 1138.74 -1.65231 -0.386873 0
M  V30 11761 H 1137.52 -3.72047 -1.2123 0
M  V30 11762 H 1137.14 -2.90106 -2.7189 0
M  V30 11763 N 1138.14 0.641106 -1.43971 0
M  V30 11764 C 1139.55 1.22254 -1.41106 0
M  V30 11765 C 1139.9 1.95825 -0.121284 0
M  V30 11766 O 1139.02 2.01901 0.77879 0
M  V30 11767 C 1139.62 2.22364 -2.55617 0
M  V30 11768 C 1138.18 2.75957 -2.55978 0
M  V30 11769 C 1137.33 1.50792 -2.32717 0
M  V30 11770 H 1140.28 0.432381 -1.52696 0
M  V30 11771 H 1140.3 3.04775 -2.27799 0
M  V30 11772 H 1139.81 1.68789 -3.49474 0
M  V30 11773 H 1137.91 3.33562 -1.66034 0
M  V30 11774 H 1138.02 3.22676 -3.54142 0
M  V30 11775 H 1136.39 1.7857 -1.81617 0
M  V30 11776 H 1137.17 0.991343 -3.28675 0
M  V30 11777 N 1139.62 1.30703 0.880598 0
M  V30 11778 C 1140.85 1.22536 1.66339 0
M  V30 11779 C 1141.25 -0.213507 1.87991 0
M  V30 11780 O 1140.6 -1.15236 1.43061 0
M  V30 11781 C 1140.66 1.88798 3.05934 0
M  V30 11782 C 1140.32 3.38131 3.07435 0
M  V30 11783 C 1141.32 4.34053 2.86171 0
M  V30 11784 C 1139 3.79651 3.28893 0
M  V30 11785 C 1141 5.69469 2.86328 0
M  V30 11786 C 1138.69 5.15182 3.2868 0
M  V30 11787 C 1139.68 6.09902 3.07423 0
M  V30 11788 O 1139.37 7.42957 3.07034 0
M  V30 11789 H 1139.1 0.425018 0.525677 0
M  V30 11790 H 1141.66 1.72939 1.1082 0
M  V30 11791 H 1139.89 1.3293 3.63134 0
M  V30 11792 H 1141.58 1.74691 3.66385 0
M  V30 11793 H 1142.34 4.03307 2.69385 0
M  V30 11794 H 1138.22 3.06365 3.44473 0
M  V30 11795 H 1141.77 6.43375 2.69655 0
M  V30 11796 H 1137.66 5.45567 3.45002 0
M  V30 11797 H 1138.43 7.52 3.23169 0
M  V30 11798 N 1141.09 -1.09351 1.1349 0
M  V30 11799 C 1142.02 -2.18037 0.835588 0
M  V30 11800 C 1143 -1.68856 -0.205373 0
M  V30 11801 O 1144.19 -1.94094 -0.0641357 0
M  V30 11802 C 1141.32 -3.45987 0.301661 0
M  V30 11803 C 1140.27 -4.08507 1.27696 0
M  V30 11804 C 1139.6 -5.31292 0.602758 0
M  V30 11805 C 1140.9 -4.50916 2.63575 0
M  V30 11806 H 1142.59 -2.43332 1.74441 0
M  V30 11807 H 1140.14 -1.1695 0.840166 0
M  V30 11808 H 1142.09 -4.21324 0.079928 0
M  V30 11809 H 1140.82 -3.20217 -0.642552 0
M  V30 11810 H 1139.48 -3.3519 1.4847 0
M  V30 11811 H 1139.12 -5.01802 -0.346953 0
M  V30 11812 H 1138.82 -5.74075 1.25345 0
M  V30 11813 H 1140.35 -6.09351 0.390325 0
M  V30 11814 H 1141.76 -5.17474 2.46765 0
M  V30 11815 H 1140.16 -5.04586 3.24827 0
M  V30 11816 H 1141.23 -3.63279 3.2118 0
M  V30 11817 N 1142.57 -0.928524 -1.27343 0
M  V30 11818 C 1143.48 -0.433901 -2.30553 0
M  V30 11819 C 1144.5 0.485832 -1.6708 0
M  V30 11820 O 1145.67 0.36844 -1.98001 0
M  V30 11821 C 1142.74 0.304617 -3.45359 0
M  V30 11822 C 1141.8 -0.650131 -4.24349 0
M  V30 11823 C 1141.03 0.0532372 -5.33673 0
M  V30 11824 O 1141.26 1.27246 -5.56026 0
M  V30 11825 O 1140.19 -0.619009 -5.98709 0
M  V30 11826 H 1144.02 -1.2909 -2.74899 0
M  V30 11827 H 1141.6 -0.693903 -1.32308 0
M  V30 11828 H 1143.48 0.721137 -4.15184 0
M  V30 11829 H 1142.16 1.13721 -3.03066 0
M  V30 11830 H 1141.06 -1.11635 -3.57055 0
M  V30 11831 H 1142.4 -1.44996 -4.70358 0
M  V30 11832 N 1144.05 1.41491 -0.694123 0
M  V30 11833 C 1145 2.30783 -0.0278824 0
M  V30 11834 C 1145.97 1.47028 0.772783 0
M  V30 11835 O 1147.15 1.75819 0.74111 0
M  V30 11836 C 1144.29 3.33061 0.903579 0
M  V30 11837 C 1143.4 4.31896 0.0946823 0
M  V30 11838 C 1142.54 5.21243 1.02365 0
M  V30 11839 C 1141.58 6.11748 0.207578 0
M  V30 11840 N 1140.72 6.93583 1.09028 0
M  V30 11841 H 1145.56 2.87197 -0.795092 0
M  V30 11842 H 1143.09 1.41449 -0.403806 0
M  V30 11843 H 1145.05 3.90907 1.45765 0
M  V30 11844 H 1143.68 2.782 1.6372 0
M  V30 11845 H 1142.73 3.76009 -0.576289 0
M  V30 11846 H 1144.04 4.95889 -0.538059 0
M  V30 11847 H 1143.2 5.83917 1.647 0
M  V30 11848 H 1141.94 4.57473 1.69025 0
M  V30 11849 H 1140.94 5.48125 -0.428854 0
M  V30 11850 H 1142.17 6.77573 -0.455206 0
M  V30 11851 H 1140.11 6.32422 1.74292 0
M  V30 11852 H 1140.03 7.54257 0.513073 0
M  V30 11853 H 1141.3 7.60726 1.70048 0
M  V30 11854 N 1145.53 0.438773 1.51369 0
M  V30 11855 C 1146.77 -0.119657 2.03048 0
M  V30 11856 C 1147.13 -1.4026 1.317 0
M  V30 11857 O 1146.42 -1.86858 0.423612 0
M  V30 11858 C 1146.62 -0.39186 3.55245 0
M  V30 11859 C 1146.44 0.863149 4.41339 0
M  V30 11860 C 1145.21 1.39709 4.85602 0
M  V30 11861 C 1147.41 1.74969 4.83622 0
M  V30 11862 N 1145.39 2.60449 5.55913 0
M  V30 11863 C 1146.77 2.80313 5.53014 0
M  V30 11864 C 1148.82 1.76393 4.65607 0
M  V30 11865 C 1147.52 3.87029 6.06301 0
M  V30 11866 C 1149.55 2.82045 5.19812 0
M  V30 11867 C 1148.91 3.86109 5.89151 0
M  V30 11868 H 1145.01 -0.00458455 0.781987 0
M  V30 11869 H 1147.59 0.599764 1.85232 0
M  V30 11870 H 1145.77 -1.08032 3.73073 0
M  V30 11871 H 1147.5 -0.941775 3.93589 0
M  V30 11872 H 1144.25 0.950817 4.63957 0
M  V30 11873 H 1144.68 3.21678 5.95695 0
M  V30 11874 H 1149.32 0.972686 4.11459 0
M  V30 11875 H 1147.04 4.66991 6.59504 0
M  V30 11876 H 1150.62 2.84091 5.07724 0
M  V30 11877 H 1149.5 4.66518 6.30342 0
M  V30 11878 N 1147.01 -1.56678 0.170181 0
M  V30 11879 C 1147.92 -2.21496 -0.773079 0
M  V30 11880 C 1148.93 -1.20626 -1.25401 0
M  V30 11881 O 1150.11 -1.53283 -1.30638 0
M  V30 11882 C 1147.17 -2.8421 -1.98558 0
M  V30 11883 C 1146.23 -4.00278 -1.55164 0
M  V30 11884 C 1145.47 -4.59992 -2.70634 0
M  V30 11885 O 1145.69 -4.18595 -3.87472 0
M  V30 11886 O 1144.62 -5.49881 -2.44775 0
M  V30 11887 H 1148.45 -3.02659 -0.251195 0
M  V30 11888 H 1146.03 -1.49288 -0.0579621 0
M  V30 11889 H 1147.92 -3.2398 -2.69472 0
M  V30 11890 H 1146.59 -2.06045 -2.49654 0
M  V30 11891 H 1145.5 -3.6518 -0.812038 0
M  V30 11892 H 1146.83 -4.80033 -1.0876 0
M  V30 11893 N 1148.48 0.103547 -1.57259 0
M  V30 11894 C 1149.43 1.12621 -2.01458 0
M  V30 11895 C 1150.4 1.40282 -0.889391 0
M  V30 11896 O 1151.59 1.51887 -1.15477 0
M  V30 11897 C 1148.73 2.44352 -2.43692 0
M  V30 11898 C 1147.84 2.23495 -3.69695 0
M  V30 11899 C 1146.97 3.48565 -4.00844 0
M  V30 11900 C 1146.01 3.22932 -5.19982 0
M  V30 11901 N 1145.15 4.40246 -5.46926 0
M  V30 11902 H 1149.99 0.742315 -2.88606 0
M  V30 11903 H 1147.53 0.355016 -1.42752 0
M  V30 11904 H 1149.48 3.2122 -2.66221 0
M  V30 11905 H 1148.11 2.80605 -1.59565 0
M  V30 11906 H 1147.17 1.3747 -3.54692 0
M  V30 11907 H 1148.48 2.0054 -4.56711 0
M  V30 11908 H 1147.63 4.33844 -4.24104 0
M  V30 11909 H 1146.37 3.74565 -3.12333 0
M  V30 11910 H 1145.38 2.36045 -4.96551 0
M  V30 11911 H 1146.6 2.98286 -6.10084 0
M  V30 11912 H 1144.55 4.66338 -4.61373 0
M  V30 11913 H 1144.46 4.20452 -6.28296 0
M  V30 11914 H 1145.73 5.26614 -5.74716 0
M  V30 11915 N 1149.96 1.53094 0.37415 0
M  V30 11916 C 1151.19 1.72508 1.13687 0
M  V30 11917 C 1151.6 0.449922 1.83773 0
M  V30 11918 O 1150.94 -0.586391 1.74089 0
M  V30 11919 C 1151 2.82965 2.21746 0
M  V30 11920 C 1150.67 4.23599 1.71501 0
M  V30 11921 C 1151.67 5.06245 1.1837 0
M  V30 11922 C 1149.35 4.69978 1.77273 0
M  V30 11923 C 1151.34 6.33357 0.71679 0
M  V30 11924 C 1149.03 5.9707 1.30194 0
M  V30 11925 C 1150.03 6.7859 0.774856 0
M  V30 11926 O 1149.72 8.03298 0.310981 0
M  V30 11927 H 1149.45 0.580611 0.346218 0
M  V30 11928 H 1152 2.00596 0.441614 0
M  V30 11929 H 1150.23 2.5033 2.9474 0
M  V30 11930 H 1151.92 2.90638 2.83345 0
M  V30 11931 H 1152.69 4.71591 1.13256 0
M  V30 11932 H 1148.57 4.06605 2.17241 0
M  V30 11933 H 1152.11 6.96934 0.30471 0
M  V30 11934 H 1148.01 6.31225 1.34999 0
M  V30 11935 H 1148.78 8.17364 0.431098 0
M  V30 11936 N 1151.44 -0.633461 1.44309 0
M  V30 11937 C 1152.85 -1.21504 1.41752 0
M  V30 11938 C 1153.2 -1.95758 0.131667 0
M  V30 11939 O 1152.33 -2.02311 -0.768072 0
M  V30 11940 C 1152.92 -2.21005 2.56792 0
M  V30 11941 C 1151.48 -2.74596 2.57438 0
M  V30 11942 C 1150.63 -1.49555 2.33513 0
M  V30 11943 H 1153.58 -0.424277 1.52923 0
M  V30 11944 H 1153.6 -3.03563 2.29412 0
M  V30 11945 H 1153.11 -1.66934 3.50364 0
M  V30 11946 H 1151.21 -3.32676 1.67801 0
M  V30 11947 H 1151.33 -3.20794 3.55849 0
M  V30 11948 H 1149.69 -1.77605 1.82561 0
M  V30 11949 H 1150.47 -0.973899 3.29196 0
M  V30 11950 N 1152.92 -1.31168 -0.873655 0
M  V30 11951 C 1153.87 -1.18507 -1.98052 0
M  V30 11952 C 1154.84 -0.0717583 -1.65945 0
M  V30 11953 O 1156.02 -0.243965 -1.89234 0
M  V30 11954 C 1153.16 -0.894571 -3.33304 0
M  V30 11955 C 1152.27 -2.09086 -3.7803 0
M  V30 11956 C 1151.41 -1.73747 -5.01982 0
M  V30 11957 C 1150.45 -2.89805 -5.39147 0
M  V30 11958 N 1149.58 -2.54686 -6.54278 0
M  V30 11959 H 1154.42 -2.13193 -2.08213 0
M  V30 11960 H 1151.96 -1.06056 -1.01934 0
M  V30 11961 H 1153.92 -0.706714 -4.11171 0
M  V30 11962 H 1152.55 0.0154449 -3.22796 0
M  V30 11963 H 1151.6 -2.38961 -2.95976 0
M  V30 11964 H 1152.91 -2.95963 -4.01506 0
M  V30 11965 H 1152.07 -1.51402 -5.87505 0
M  V30 11966 H 1150.81 -0.840553 -4.80402 0
M  V30 11967 H 1149.81 -3.12803 -4.52144 0
M  V30 11968 H 1151.04 -3.802 -5.62694 0
M  V30 11969 H 1148.98 -1.67513 -6.34252 0
M  V30 11970 H 1148.9 -3.35093 -6.77679 0
M  V30 11971 H 1150.17 -2.35725 -7.43003 0
M  V30 11972 N 1154.4 1.08748 -1.14068 0
M  V30 11973 C 1155.81 1.62551 -0.918379 0
M  V30 11974 C 1156.16 1.8852 0.543583 0
M  V30 11975 O 1155.28 1.64007 1.41176 0
M  V30 11976 C 1155.88 2.95309 -1.66066 0
M  V30 11977 C 1154.44 3.4591 -1.48403 0
M  V30 11978 C 1153.58 2.20204 -1.6854 0
M  V30 11979 H 1156.54 0.920196 -1.29298 0
M  V30 11980 H 1156.56 3.63587 -1.12181 0
M  V30 11981 H 1156.07 2.76377 -2.72465 0
M  V30 11982 H 1154.17 3.69953 -0.443353 0
M  V30 11983 H 1154.28 4.2289 -2.25169 0
M  V30 11984 H 1152.65 2.29203 -1.11077 0
M  V30 11985 H 1153.43 2.03783 -2.76274 0
M  V30 11986 N 1155.87 0.935264 1.26849 0
M  V30 11987 C 1157.12 0.580548 1.94313 0
M  V30 11988 C 1157.45 -0.877205 1.73259 0
M  V30 11989 O 1156.73 -1.62679 1.06611 0
M  V30 11990 C 1157.01 0.916445 3.48243 0
M  V30 11991 C 1156.86 2.42851 3.78607 0
M  V30 11992 C 1158.18 0.427665 4.38017 0
M  V30 11993 H 1155.3 0.21239 0.705733 0
M  V30 11994 H 1157.94 1.16841 1.49827 0
M  V30 11995 H 1156.09 0.416169 3.86265 0
M  V30 11996 H 1157.77 3.00106 3.50335 0
M  V30 11997 H 1156.01 2.8745 3.24892 0
M  V30 11998 H 1156.68 2.61405 4.8618 0
M  V30 11999 H 1159.16 0.856525 4.07189 0
M  V30 12000 H 1158.03 0.691571 5.44526 0
M  V30 12001 H 1158.29 -0.672344 4.36958 0
M  V30 12002 N 1157.35 -1.41121 0.701616 0
M  V30 12003 C 1158.58 -2.05452 0.244365 0
M  V30 12004 C 1159 -1.5282 -1.10866 0
M  V30 12005 O 1158.35 -0.67893 -1.69401 0
M  V30 12006 C 1158.4 -3.60946 0.200112 0
M  V30 12007 O 1158.12 -4.11632 1.4997 0
M  V30 12008 C 1159.63 -4.42431 -0.277394 0
M  V30 12009 H 1156.85 -0.66151 0.112453 0
M  V30 12010 H 1159.39 -1.80784 0.9559 0
M  V30 12011 H 1157.54 -3.84632 -0.462287 0
M  V30 12012 H 1157.96 -5.05723 1.39084 0
M  V30 12013 H 1159.43 -5.514 -0.257225 0
M  V30 12014 H 1159.91 -4.1898 -1.31728 0
M  V30 12015 H 1160.52 -4.23822 0.354223 0
M  V30 12016 N 1158.83 -0.446794 -1.51134 0
M  V30 12017 C 1159.74 0.36579 -2.31731 0
M  V30 12018 C 1160.76 1.01886 -1.41051 0
M  V30 12019 O 1161.93 1.01216 -1.74119 0
M  V30 12020 C 1159 1.44705 -3.15058 0
M  V30 12021 C 1158.06 0.813129 -4.21529 0
M  V30 12022 C 1157.29 1.84287 -5.00873 0
M  V30 12023 O 1157.51 3.06633 -4.8097 0
M  V30 12024 O 1156.45 1.42816 -5.84711 0
M  V30 12025 H 1160.27 -0.292436 -3.02289 0
M  V30 12026 H 1157.86 -0.209129 -1.47929 0
M  V30 12027 H 1159.74 2.07393 -3.66833 0
M  V30 12028 H 1158.42 2.08919 -2.47254 0
M  V30 12029 H 1157.32 0.147953 -3.73807 0
M  V30 12030 H 1158.66 0.214331 -4.91733 0
M  V30 12031 N 1160.31 1.56586 -0.178487 0
M  V30 12032 C 1161.24 2.155 0.780543 0
M  V30 12033 C 1162.25 1.11244 1.18864 0
M  V30 12034 O 1163.44 1.38403 1.12725 0
M  V30 12035 C 1160.54 2.68867 2.0631 0
M  V30 12036 C 1159.72 3.97854 1.81744 0
M  V30 12037 C 1158.77 4.36213 2.94287 0
M  V30 12038 O 1157.8 5.03954 2.64612 0
M  V30 12039 N 1159 3.98356 4.22247 0
M  V30 12040 H 1161.77 2.98419 0.276836 0
M  V30 12041 H 1159.33 1.61899 0.00405241 0
M  V30 12042 H 1161.32 2.91522 2.80708 0
M  V30 12043 H 1159.89 1.90496 2.47851 0
M  V30 12044 H 1159.11 3.83502 0.912127 0
M  V30 12045 H 1160.4 4.82083 1.62707 0
M  V30 12046 H 1159.8 3.43835 4.49215 0
M  V30 12047 H 1158.35 4.25998 4.93325 0
M  V30 12048 N 1161.79 -0.095206 1.57312 0
M  V30 12049 C 1162.73 -1.13438 2.03063 0
M  V30 12050 C 1163.73 -1.41478 0.931679 0
M  V30 12051 O 1164.93 -1.41161 1.11686 0
M  V30 12052 H 1161.31 -0.383042 0.647134 0
M  V30 12053 H 1163.28 -0.722186 2.89529 0
M  V30 12054 C 1162.03 -2.44641 2.47075 0
M  V30 12055 H 1161.35 -2.23908 3.31218 0
M  V30 12056 H 1162.79 -3.15855 2.82863 0
M  V30 12057 C 1161.25 -3.08931 1.34399 0
M  V30 12058 O 1161.78 -3.96021 0.673071 0
M  V30 12059 N 1159.99 -2.6918 1.09501 0
M  V30 12060 H 1159.53 -1.98451 1.6424 0
M  V30 12061 H 1159.49 -3.12522 0.34311 0
M  V30 12062 N 1163.26 -1.53291 -0.366026 0
M  V30 12063 C 1164.51 -1.69117 -1.10653 0
M  V30 12064 C 1164.83 -0.445327 -1.89847 0
M  V30 12065 O 1164.1 0.540616 -1.88293 0
M  V30 12066 H 1162.68 -0.623446 -0.41149 0
M  V30 12067 H 1165.35 -1.90479 -0.412749 0
M  V30 12068 H 1164.44 -2.55205 -1.79658 0
M  V30 12069 N 1164.74 0.6258 -1.44643 0
M  V30 12070 C 1165.69 1.73751 -1.51919 0
M  V30 12071 C 1166.66 1.62007 -0.36647 0
M  V30 12072 O 1167.84 1.81852 -0.577439 0
M  V30 12073 C 1164.98 3.12015 -1.47448 0
M  V30 12074 C 1164.1 3.34696 -2.73135 0
M  V30 12075 C 1163.23 4.62962 -2.6046 0
M  V30 12076 C 1162.27 4.7884 -3.81286 0
M  V30 12077 N 1161.41 5.98388 -3.67255 0
M  V30 12078 H 1166.25 1.66867 -2.46899 0
M  V30 12079 H 1163.79 0.813921 -1.22531 0
M  V30 12080 H 1165.74 3.91983 -1.42846 0
M  V30 12081 H 1164.37 3.179 -0.560312 0
M  V30 12082 H 1163.43 2.4863 -2.87901 0
M  V30 12083 H 1164.74 3.42306 -3.62806 0
M  V30 12084 H 1163.89 5.51099 -2.53722 0
M  V30 12085 H 1162.63 4.57719 -1.68359 0
M  V30 12086 H 1161.64 3.89131 -3.88403 0
M  V30 12087 H 1162.86 4.85893 -4.74431 0
M  V30 12088 H 1160.81 5.94224 -2.77909 0
M  V30 12089 H 1160.72 6.07078 -4.50547 0
M  V30 12090 H 1161.99 6.89072 -3.64417 0
M  V30 12091 N 1166.22 1.31629 0.866686 0
M  V30 12092 C 1167.47 1.21263 1.61678 0
M  V30 12093 C 1167.79 -0.228562 1.93656 0
M  V30 12094 O 1167.06 -1.15014 1.58583 0
M  V30 12095 H 1165.64 0.445817 0.59938 0
M  V30 12096 H 1168.3 1.64998 1.03739 0
M  V30 12097 H 1167.4 1.78669 2.55898 0
M  V30 12098 N 1167.7 -1.08142 1.14644 0
M  V30 12099 C 1168.95 -1.79959 0.910908 0
M  V30 12100 C 1169.26 -1.87296 -0.563866 0
M  V30 12101 O 1170.47 -2.55555 -0.916735 0
M  V30 12102 C 1168.92 -3.23351 1.58025 0
M  V30 12103 C 1168.53 -3.2424 3.09148 0
M  V30 12104 C 1170.28 -3.99834 1.42595 0
M  V30 12105 C 1168.18 -4.62236 3.68906 0
M  V30 12106 H 1167.11 -0.674423 0.33715 0
M  V30 12107 H 1169.76 -1.21441 1.37566 0
M  V30 12108 H 1168.15 -3.82013 1.04318 0
M  V30 12109 H 1169.32 -2.75269 3.69545 0
M  V30 12110 H 1167.63 -2.61253 3.24246 0
M  V30 12111 H 1170.23 -5.01809 1.8464 0
M  V30 12112 H 1170.57 -4.14631 0.372402 0
M  V30 12113 H 1171.11 -3.47648 1.93354 0
M  V30 12114 H 1167.85 -4.52642 4.74126 0
M  V30 12115 H 1167.37 -5.11477 3.1329 0
M  V30 12116 H 1169.05 -5.3121 3.69358 0
M  V30 12117 N 1169.18 -0.941978 -1.26351 0
M  V30 12118 C 1170.13 -0.423053 -2.24041 0
M  V30 12119 C 1171.11 0.480668 -1.53553 0
M  V30 12120 O 1172.3 0.315783 -1.7416 0
M  V30 12121 C 1169.43 0.309814 -3.41899 0
M  V30 12122 C 1168.52 -0.611245 -4.19672 0
M  V30 12123 N 1168.91 -1.73738 -4.75025 0
M  V30 12124 C 1167.21 -0.416985 -4.44046 0
M  V30 12125 C 1167.91 -2.31141 -5.33806 0
M  V30 12126 N 1166.88 -1.59934 -5.1954 0
M  V30 12127 H 1170.69 -1.28268 -2.64433 0
M  V30 12128 H 1168.2 -0.797941 -1.41445 0
M  V30 12129 H 1170.2 0.698618 -4.11005 0
M  V30 12130 H 1168.86 1.1662 -3.03035 0
M  V30 12131 H 1169.87 -2.1195 -4.72544 0
M  V30 12132 H 1166.55 0.397561 -4.15603 0
M  V30 12133 H 1167.94 -3.26029 -5.87499 0
M  V30 12134 N 1170.66 1.40747 -0.709091 0
M  V30 12135 C 1171.6 2.32564 -0.0411392 0
M  V30 12136 C 1172.6 1.51692 0.75404 0
M  V30 12137 O 1173.8 1.67537 0.658139 0
M  V30 12138 H 1170.18 0.75198 0.00549889 0
M  V30 12139 H 1172.15 2.86556 -0.83235 0
M  V30 12140 C 1170.9 3.36604 0.871378 0
M  V30 12141 H 1170.22 3.98895 0.268912 0
M  V30 12142 H 1171.66 4.03359 1.30682 0
M  V30 12143 C 1170.12 2.71566 1.99384 0
M  V30 12144 O 1170.65 2.57392 3.08403 0
M  V30 12145 N 1168.86 2.3005 1.77554 0
M  V30 12146 H 1168.4 2.41778 0.888898 0
M  V30 12147 H 1168.36 1.8687 2.52838 0
M  V30 12148 N 1172.13 0.454803 1.50895 0
M  V30 12149 C 1173.04 -0.353495 2.31921 0
M  V30 12150 C 1174.06 -1.01136 1.41589 0
M  V30 12151 O 1175.24 -1.00291 1.74653 0
M  V30 12152 C 1172.3 -1.43032 3.15821 0
M  V30 12153 C 1171.36 -0.790763 4.21954 0
M  V30 12154 C 1170.59 -1.81628 5.01843 0
M  V30 12155 O 1170.82 -3.04078 4.8259 0
M  V30 12156 O 1169.75 -1.39713 5.8546 0
M  V30 12157 H 1173.58 0.308463 3.02129 0
M  V30 12158 H 1171.16 0.216971 1.47816 0
M  V30 12159 H 1173.04 -2.05444 3.67927 0
M  V30 12160 H 1171.72 -2.07605 2.48358 0
M  V30 12161 H 1170.63 -0.128127 3.73881 0
M  V30 12162 H 1171.96 -0.188251 4.9184 0
M  V30 12163 N 1173.61 -1.56489 0.186789 0
M  V30 12164 C 1174.86 -1.97341 -0.454158 0
M  V30 12165 C 1175.19 -1.07337 -1.622 0
M  V30 12166 O 1174.44 -0.1107 -1.95387 0
M  V30 12167 C 1174.74 -3.44145 -0.964315 0
M  V30 12168 C 1174.41 -4.50812 0.0892734 0
M  V30 12169 C 1173.07 -4.79707 0.378794 0
M  V30 12170 C 1175.42 -5.14968 0.8036 0
M  V30 12171 C 1172.75 -5.70051 1.38776 0
M  V30 12172 C 1175.1 -6.06402 1.80166 0
M  V30 12173 C 1173.76 -6.33657 2.09847 0
M  V30 12174 H 1173.03 -0.722124 -0.166188 0
M  V30 12175 H 1175.68 -1.89412 0.282008 0
M  V30 12176 H 1173.99 -3.49103 -1.7786 0
M  V30 12177 H 1175.68 -3.73104 -1.4695 0
M  V30 12178 H 1172.27 -4.28349 -0.146552 0
M  V30 12179 H 1176.46 -4.92743 0.593147 0
M  V30 12180 H 1171.71 -5.89445 1.62373 0
M  V30 12181 H 1175.89 -6.55176 2.36045 0
M  V30 12182 H 1173.51 -7.03462 2.88175 0
M  V30 12183 N 1175.09 0.086862 -1.5736 0
M  V30 12184 C 1176.51 0.441284 -1.53378 0
M  V30 12185 C 1176.71 1.80046 -0.904748 0
M  V30 12186 O 1175.76 2.47484 -0.500781 0
M  V30 12187 C 1177.07 0.3962 -2.98078 0
M  V30 12188 C 1178.62 0.477468 -3.09337 0
M  V30 12189 C 1179.1 0.462448 -4.55659 0
M  V30 12190 N 1180.59 0.522963 -4.60238 0
M  V30 12191 C 1181.32 0.533313 -5.70914 0
M  V30 12192 N 1180.82 0.499376 -6.90998 0
M  V30 12193 N 1182.61 0.578742 -5.59113 0
M  V30 12194 H 1174.76 -0.803308 -1.96623 0
M  V30 12195 H 1177.03 -0.299879 -0.89932 0
M  V30 12196 H 1176.73 -0.535505 -3.47599 0
M  V30 12197 H 1176.61 1.21209 -3.57195 0
M  V30 12198 H 1178.99 1.39959 -2.59799 0
M  V30 12199 H 1179.07 -0.366717 -2.53158 0
M  V30 12200 H 1178.72 -0.455768 -5.05851 0
M  V30 12201 H 1178.65 1.32396 -5.09685 0
M  V30 12202 H 1181.14 0.554051 -3.73816 0
M  V30 12203 H 1181.45 0.510784 -7.7111 0
M  V30 12204 H 1179.8 0.466296 -6.93434 0
M  V30 12205 H 1182.99 0.602841 -4.64202 0
M  V30 12206 H 1183.16 0.583339 -6.45369 0
M  V30 12207 N 1176.57 1.53483 0.357892 0
M  V30 12208 C 1177.84 1.60649 1.11585 0
M  V30 12209 C 1178.22 0.418789 2.06904 0
M  V30 12210 O 1177.57 -0.590279 2.20744 0
M  V30 12211 C 1177.78 2.96046 1.84818 0
M  V30 12212 C 1179.13 3.50895 2.39076 0
M  V30 12213 O 1180.15 2.98126 1.94934 0
M  V30 12214 O 1179.01 4.43163 3.19794 0
M  V30 12215 H 1176.11 0.649202 0.512315 0
M  V30 12216 H 1178.65 1.65826 0.360537 0
M  V30 12217 H 1177.43 3.73929 1.15296 0
M  V30 12218 H 1177.05 2.94395 2.6724 0
M  V30 12219 N 1178.05 -0.61812 1.44973 0
M  V30 12220 C 1179.46 -1.19994 1.43033 0
M  V30 12221 C 1179.81 -1.95607 0.152422 0
M  V30 12222 O 1178.93 -2.03114 -0.746571 0
M  V30 12223 C 1179.53 -2.18269 2.59122 0
M  V30 12224 C 1178.09 -2.7185 2.60336 0
M  V30 12225 C 1177.23 -1.4707 2.35086 0
M  V30 12226 H 1180.18 -0.408034 1.53365 0
M  V30 12227 H 1180.21 -3.01113 2.32619 0
M  V30 12228 H 1179.72 -1.63208 3.52115 0
M  V30 12229 H 1177.82 -3.30878 1.7132 0
M  V30 12230 H 1177.93 -3.17001 3.59231 0
M  V30 12231 H 1176.3 -1.75658 1.84435 0
M  V30 12232 H 1177.08 -0.938928 3.30211 0
M  V30 12233 N 1179.52 -1.32087 -0.859693 0
M  V30 12234 C 1180.77 -1.2236 -1.61351 0
M  V30 12235 C 1181.1 0.215796 -1.93299 0
M  V30 12236 O 1180.35 1.16742 -1.57066 0
M  V30 12237 C 1180.65 -2.0234 -2.94607 0
M  V30 12238 C 1180.32 -3.51746 -2.82109 0
M  V30 12239 C 1178.98 -3.92482 -2.78408 0
M  V30 12240 C 1181.33 -4.46776 -2.68403 0
M  V30 12241 C 1178.66 -5.265 -2.58873 0
M  V30 12242 C 1181.01 -5.80931 -2.50404 0
M  V30 12243 C 1179.68 -6.20875 -2.45092 0
M  V30 12244 H 1178.95 -0.447748 -0.590426 0
M  V30 12245 H 1181.59 -1.63461 -0.997637 0
M  V30 12246 H 1179.9 -1.53952 -3.60286 0
M  V30 12247 H 1181.6 -1.92187 -3.51945 0
M  V30 12248 H 1178.19 -3.19389 -2.85812 0
M  V30 12249 H 1182.37 -4.16228 -2.70311 0
M  V30 12250 H 1177.63 -5.5651 -2.53192 0
M  V30 12251 H 1181.8 -6.54185 -2.38777 0
M  V30 12252 H 1179.43 -7.24662 -2.29714 0
M  V30 12253 N 1181 1.07532 -1.15215 0
M  V30 12254 C 1182.25 1.8036 -0.927263 0
M  V30 12255 C 1182.58 1.86414 0.544371 0
M  V30 12256 O 1181.86 1.34653 1.40353 0
M  V30 12257 C 1182.14 3.25512 -1.53992 0
M  V30 12258 C 1181.99 3.27614 -3.08203 0
M  V30 12259 C 1183.31 4.22731 -1.22418 0
M  V30 12260 H 1180.43 0.654775 -0.338289 0
M  V30 12261 H 1183.07 1.25842 -1.42351 0
M  V30 12262 H 1181.22 3.72068 -1.11791 0
M  V30 12263 H 1182.89 2.89315 -3.59297 0
M  V30 12264 H 1181.14 2.66627 -3.42188 0
M  V30 12265 H 1181.81 4.29956 -3.46182 0
M  V30 12266 H 1184.28 3.84557 -1.58919 0
M  V30 12267 H 1183.16 5.22589 -1.67906 0
M  V30 12268 H 1183.42 4.41875 -0.14091 0
M  V30 12269 N 1182.48 0.948665 1.2585 0
M  V30 12270 C 1183.73 0.610669 1.94016 0
M  V30 12271 C 1184.08 -0.842181 1.72989 0
M  V30 12272 O 1183.37 -1.59556 1.06078 0
M  V30 12273 C 1183.57 0.89784 3.45939 0
M  V30 12274 C 1183.4 2.37705 3.81741 0
M  V30 12275 C 1182.17 3.03355 4.04109 0
M  V30 12276 C 1184.37 3.35602 3.89712 0
M  V30 12277 N 1182.35 4.41211 4.26856 0
M  V30 12278 C 1183.72 4.58743 4.17079 0
M  V30 12279 C 1185.77 3.30523 3.72369 0
M  V30 12280 C 1184.48 5.77436 4.28906 0
M  V30 12281 C 1186.5 4.48548 3.85433 0
M  V30 12282 C 1185.86 5.70474 4.13205 0
M  V30 12283 H 1181.96 0.273966 0.732439 0
M  V30 12284 H 1184.55 1.21961 1.51768 0
M  V30 12285 H 1182.72 0.317878 3.87097 0
M  V30 12286 H 1184.45 0.520353 4.01341 0
M  V30 12287 H 1181.21 2.53947 3.9976 0
M  V30 12288 H 1181.63 5.12589 4.42247 0
M  V30 12289 H 1186.27 2.3731 3.4992 0
M  V30 12290 H 1183.99 6.71095 4.50174 0
M  V30 12291 H 1187.58 4.46159 3.73408 0
M  V30 12292 H 1186.46 6.60277 4.23088 0
M  V30 12293 N 1183.96 -1.40369 0.716545 0
M  V30 12294 C 1185.19 -2.04884 0.265757 0
M  V30 12295 C 1185.6 -1.54095 -1.09779 0
M  V30 12296 O 1184.94 -0.692944 -1.70129 0
M  V30 12297 C 1185 -3.59103 0.16887 0
M  V30 12298 C 1184.67 -4.32785 1.46786 0
M  V30 12299 C 1185.66 -4.6067 2.40997 0
M  V30 12300 C 1183.35 -4.71676 1.72705 0
M  V30 12301 C 1185.34 -5.26432 3.59372 0
M  V30 12302 C 1183.03 -5.3717 2.91362 0
M  V30 12303 C 1184.03 -5.64478 3.84517 0
M  V30 12304 O 1183.71 -6.28618 5.01093 0
M  V30 12305 H 1183.45 -0.665794 0.117025 0
M  V30 12306 H 1186 -1.80746 0.975698 0
M  V30 12307 H 1184.23 -3.82064 -0.597023 0
M  V30 12308 H 1185.92 -4.05145 -0.247483 0
M  V30 12309 H 1186.69 -4.31087 2.22236 0
M  V30 12310 H 1182.56 -4.49789 1.0105 0
M  V30 12311 H 1186.11 -5.47663 4.321 0
M  V30 12312 H 1182.01 -5.66173 3.1003 0
M  V30 12313 H 1182.77 -6.47115 5.01183 0
M  V30 12314 N 1185.44 -0.462799 -1.50652 0
M  V30 12315 C 1186.71 0.156221 -1.94975 0
M  V30 12316 C 1187.09 1.5775 -1.40279 0
M  V30 12317 O 1186.44 2.20473 -0.600323 0
M  V30 12318 C 1186.65 0.108008 -3.48833 0
M  V30 12319 C 1188 0.301013 -4.23532 0
M  V30 12320 O 1189.02 0.184973 -3.55719 0
M  V30 12321 O 1187.88 0.534457 -5.4388 0
M  V30 12322 H 1184.98 0.116182 -0.818798 0
M  V30 12323 H 1187.52 -0.522607 -1.61453 0
M  V30 12324 H 1186.29 -0.884634 -3.81169 0
M  V30 12325 H 1185.92 0.828653 -3.88869 0
M  V30 12326 N 1186.91 1.56388 -0.195085 0
M  V30 12327 C 1187.86 2.19091 0.725793 0
M  V30 12328 C 1188.83 1.13814 1.20977 0
M  V30 12329 O 1190.02 1.42065 1.27366 0
M  V30 12330 C 1187.16 2.85427 1.93973 0
M  V30 12331 C 1186.27 4.05229 1.49712 0
M  V30 12332 C 1185.4 4.59421 2.66656 0
M  V30 12333 C 1184.44 5.71581 2.19001 0
M  V30 12334 N 1183.58 6.2018 3.29123 0
M  V30 12335 H 1188.42 2.97429 0.184334 0
M  V30 12336 H 1185.96 1.46886 0.0792434 0
M  V30 12337 H 1187.92 3.22057 2.65208 0
M  V30 12338 H 1186.55 2.09652 2.4545 0
M  V30 12339 H 1185.6 3.74261 0.680641 0
M  V30 12340 H 1186.91 4.8635 1.10749 0
M  V30 12341 H 1186.06 4.98357 3.46014 0
M  V30 12342 H 1184.8 3.77407 3.08893 0
M  V30 12343 H 1183.81 5.32174 1.38097 0
M  V30 12344 H 1185.03 6.55413 1.77795 0
M  V30 12345 H 1182.98 5.41088 3.70891 0
M  V30 12346 H 1182.9 6.96353 2.94328 0
M  V30 12347 H 1184.16 6.63769 4.08694 0
M  V30 12348 N 1188.39 -0.0785156 1.57404 0
M  V30 12349 C 1189.3 -1.11203 2.0657 0
M  V30 12350 C 1190.32 -1.42822 0.993872 0
M  V30 12351 O 1191.49 -1.53133 1.30814 0
M  V30 12352 C 1188.56 -2.40812 2.4942 0
M  V30 12353 C 1187.62 -2.16225 3.70871 0
M  V30 12354 C 1186.85 -3.39654 4.11668 0
M  V30 12355 O 1187.08 -4.48521 3.524 0
M  V30 12356 O 1186.01 -3.28263 5.04507 0
M  V30 12357 H 1189.84 -0.724381 2.94935 0
M  V30 12358 H 1187.42 -0.292184 1.46515 0
M  V30 12359 H 1189.3 -3.17101 2.77534 0
M  V30 12360 H 1187.98 -2.7897 1.64187 0
M  V30 12361 H 1186.89 -1.37663 3.4785 0
M  V30 12362 H 1188.22 -1.82951 4.56935 0
M  V30 12363 N 1189.87 -1.5367 -0.349747 0
M  V30 12364 C 1191.12 -1.7087 -1.0923 0
M  V30 12365 C 1191.45 -0.467299 -1.88494 0
M  V30 12366 O 1190.72 0.535619 -1.8698 0
M  V30 12367 C 1191.01 -2.9684 -2.03858 0
M  V30 12368 C 1190.86 -4.31174 -1.28097 0
M  V30 12369 C 1192.18 -3.18459 -3.03763 0
M  V30 12370 H 1189.3 -0.621757 -0.395711 0
M  V30 12371 H 1191.94 -1.86333 -0.371481 0
M  V30 12372 H 1190.09 -2.83788 -2.65323 0
M  V30 12373 H 1191.76 -4.56066 -0.692933 0
M  V30 12374 H 1190.01 -4.29866 -0.582924 0
M  V30 12375 H 1190.68 -5.15482 -1.9744 0
M  V30 12376 H 1193.15 -3.30801 -2.52409 0
M  V30 12377 H 1192.03 -4.08006 -3.67182 0
M  V30 12378 H 1192.29 -2.34467 -3.74803 0
M  V30 12379 N 1191.35 0.610423 -1.45298 0
M  V30 12380 C 1192.63 1.36966 -1.39641 0
M  V30 12381 C 1193.01 2.10998 -0.0655757 0
M  V30 12382 O 1192.35 2.07705 0.952407 0
M  V30 12383 C 1192.56 2.31885 -2.60826 0
M  V30 12384 C 1193.91 2.9458 -3.05791 0
M  V30 12385 O 1194.94 2.42207 -2.61179 0
M  V30 12386 O 1193.79 3.89639 -3.83202 0
M  V30 12387 H 1190.89 0.61401 -0.554004 0
M  V30 12388 H 1193.43 0.633748 -1.57422 0
M  V30 12389 H 1192.21 1.76421 -3.49272 0
M  V30 12390 H 1191.83 3.12861 -2.45364 0
M  V30 12391 N 1192.83 1.32541 0.852676 0
M  V30 12392 C 1193.77 1.21643 1.96142 0
M  V30 12393 C 1194.74 0.0981496 1.6581 0
M  V30 12394 O 1195.93 0.27404 1.88822 0
M  V30 12395 C 1193.07 0.947483 3.31838 0
M  V30 12396 C 1192.18 2.15074 3.74656 0
M  V30 12397 C 1191.32 1.81711 4.99154 0
M  V30 12398 C 1190.36 2.98346 5.34468 0
M  V30 12399 N 1189.49 2.65062 6.50143 0
M  V30 12400 H 1194.33 2.16479 2.04795 0
M  V30 12401 H 1191.87 1.07664 1.00234 0
M  V30 12402 H 1193.83 0.772038 4.09994 0
M  V30 12403 H 1192.46 0.0359112 3.2278 0
M  V30 12404 H 1191.51 2.43639 2.92137 0
M  V30 12405 H 1192.82 3.02314 3.96747 0
M  V30 12406 H 1191.98 1.60729 5.85022 0
M  V30 12407 H 1190.71 0.916875 4.79004 0
M  V30 12408 H 1189.72 3.19956 4.47111 0
M  V30 12409 H 1190.94 3.89104 5.56574 0
M  V30 12410 H 1188.89 1.77582 6.31507 0
M  V30 12411 H 1188.81 3.45832 6.72262 0
M  V30 12412 H 1190.08 2.47516 7.39159 0
M  V30 12413 N 1194.3 -1.0692 1.15784 0
M  V30 12414 C 1195.55 -1.8002 0.946795 0
M  V30 12415 C 1195.91 -1.85232 -0.520268 0
M  V30 12416 O 1195.2 -1.32825 -1.38087 0
M  V30 12417 C 1195.39 -3.24389 1.50022 0
M  V30 12418 C 1195.22 -3.33245 3.01957 0
M  V30 12419 C 1193.99 -3.43549 3.70543 0
M  V30 12420 C 1196.19 -3.23634 3.99707 0
M  V30 12421 N 1194.17 -3.41354 5.10246 0
M  V30 12422 C 1195.54 -3.28608 5.25754 0
M  V30 12423 C 1197.6 -3.07475 3.91617 0
M  V30 12424 C 1196.3 -3.19084 6.44653 0
M  V30 12425 C 1198.33 -2.99286 5.1008 0
M  V30 12426 C 1197.69 -3.04876 6.35004 0
M  V30 12427 H 1193.79 -0.671859 0.400162 0
M  V30 12428 H 1196.37 -1.27592 1.47066 0
M  V30 12429 H 1194.54 -3.75228 1.00293 0
M  V30 12430 H 1196.27 -3.85633 1.22756 0
M  V30 12431 H 1193.03 -3.48079 3.21151 0
M  V30 12432 H 1193.45 -3.43772 5.83223 0
M  V30 12433 H 1198.1 -3.02004 2.95895 0
M  V30 12434 H 1195.81 -3.23313 7.40604 0
M  V30 12435 H 1199.4 -2.8788 5.05585 0
M  V30 12436 H 1198.28 -2.9859 7.2513 0
M  V30 12437 N 1195.78 -0.955326 -1.25345 0
M  V30 12438 C 1197.01 -0.626783 -1.96863 0
M  V30 12439 C 1197.42 0.80547 -1.71198 0
M  V30 12440 O 1196.76 1.55049 -0.985163 0
M  V30 12441 C 1196.83 -0.806404 -3.50339 0
M  V30 12442 C 1196.49 -2.21595 -3.99681 0
M  V30 12443 C 1197.49 -3.19268 -4.10322 0
M  V30 12444 C 1195.17 -2.54032 -4.33328 0
M  V30 12445 C 1197.17 -4.47471 -4.53926 0
M  V30 12446 C 1194.85 -3.82465 -4.76617 0
M  V30 12447 C 1195.85 -4.78997 -4.86879 0
M  V30 12448 O 1195.54 -6.0514 -5.29208 0
M  V30 12449 H 1195.27 -0.233854 -0.634262 0
M  V30 12450 H 1197.82 -1.28232 -1.60455 0
M  V30 12451 H 1196.05 -0.0937184 -3.86586 0
M  V30 12452 H 1197.74 -0.47881 -4.03066 0
M  V30 12453 H 1198.51 -2.95534 -3.84558 0
M  V30 12454 H 1194.39 -1.79623 -4.24566 0
M  V30 12455 H 1197.93 -5.22819 -4.6185 0
M  V30 12456 H 1193.83 -4.06005 -5.01827 0
M  V30 12457 H 1194.6 -6.08527 -5.47392 0
M  V30 12458 N 1197.26 1.39987 -0.723979 0
M  V30 12459 C 1198.19 2.2917 -0.0373445 0
M  V30 12460 C 1199.21 1.46258 0.715015 0
M  V30 12461 O 1200.4 1.69455 0.561003 0
M  V30 12462 C 1197.5 3.2468 0.971384 0
M  V30 12463 C 1196.67 4.36485 0.282826 0
M  V30 12464 C 1195.73 5.12379 1.19811 0
M  V30 12465 O 1194.75 5.65127 0.67974 0
M  V30 12466 N 1195.96 5.22531 2.52866 0
M  V30 12467 H 1198.72 2.88738 -0.803131 0
M  V30 12468 H 1196.28 1.51448 -0.572292 0
M  V30 12469 H 1198.27 3.72326 1.58606 0
M  V30 12470 H 1196.84 2.6622 1.63846 0
M  V30 12471 H 1196.06 3.90859 -0.512167 0
M  V30 12472 H 1197.35 5.08427 -0.194793 0
M  V30 12473 H 1196.75 4.81174 2.97469 0
M  V30 12474 H 1195.31 5.73655 3.09457 0
M  V30 12475 N 1198.74 0.470782 1.50404 0
M  V30 12476 C 1199.67 -0.313458 2.31386 0
M  V30 12477 C 1200.65 -0.990623 1.38278 0
M  V30 12478 O 1201.84 -0.987854 1.67198 0
M  V30 12479 C 1198.97 -1.39599 3.18009 0
M  V30 12480 C 1197.92 -0.840443 4.19667 0
M  V30 12481 C 1197.25 -2.02124 4.95025 0
M  V30 12482 C 1198.55 0.148055 5.2209 0
M  V30 12483 H 1200.24 0.362432 2.97198 0
M  V30 12484 H 1197.79 0.175745 1.42924 0
M  V30 12485 H 1199.74 -1.9521 3.73458 0
M  V30 12486 H 1198.46 -2.10064 2.50081 0
M  V30 12487 H 1197.12 -0.306302 3.65318 0
M  V30 12488 H 1196.77 -2.71286 4.23571 0
M  V30 12489 H 1196.47 -1.65574 5.6379 0
M  V30 12490 H 1197.99 -2.58226 5.5331 0
M  V30 12491 H 1199.41 -0.318874 5.72413 0
M  V30 12492 H 1197.8 0.427811 5.98573 0
M  V30 12493 H 1198.87 1.07404 4.72855 0
M  V30 12494 N 1200.22 -1.56282 0.203376 0
M  V30 12495 C 1201.46 -1.98105 -0.433844 0
M  V30 12496 C 1201.8 -1.09044 -1.60695 0
M  V30 12497 O 1201.07 -0.144193 -1.93965 0
M  V30 12498 C 1201.35 -3.4903 -0.885992 0
M  V30 12499 C 1201.21 -4.48867 0.289501 0
M  V30 12500 C 1202.53 -4.03871 -1.7486 0
M  V30 12501 H 1199.65 -0.720252 -0.156224 0
M  V30 12502 H 1202.29 -1.87681 0.295963 0
M  V30 12503 H 1200.44 -3.58045 -1.50785 0
M  V30 12504 H 1202.11 -4.51883 0.92734 0
M  V30 12505 H 1200.35 -4.23495 0.939934 0
M  V30 12506 H 1201.02 -5.51956 -0.0695128 0
M  V30 12507 H 1203.5 -3.97688 -1.22407 0
M  V30 12508 H 1202.38 -5.09827 -2.03391 0
M  V30 12509 H 1202.64 -3.49637 -2.70567 0
M  V30 12510 N 1201.7 0.070167 -1.57444 0
M  V30 12511 C 1202.92 0.781894 -1.91557 0
M  V30 12512 C 1203.34 1.71037 -0.799489 0
M  V30 12513 O 1202.7 1.81082 0.227062 0
M  V30 12514 C 1202.75 1.57415 -3.25427 0
M  V30 12515 O 1202.47 0.682991 -4.32743 0
M  V30 12516 C 1203.97 2.38673 -3.73564 0
M  V30 12517 H 1201.19 0.222211 -0.633138 0
M  V30 12518 H 1203.73 0.0399504 -2.04461 0
M  V30 12519 H 1201.89 2.26835 -3.14045 0
M  V30 12520 H 1202.3 1.2342 -5.09772 0
M  V30 12521 H 1203.78 2.89716 -4.6986 0
M  V30 12522 H 1204.25 3.18269 -3.02657 0
M  V30 12523 H 1204.86 1.74405 -3.87896 0
M  V30 12524 N 1203.17 1.53854 0.341593 0
M  V30 12525 C 1204.4 1.75447 1.10604 0
M  V30 12526 C 1204.82 0.493225 1.81518 0
M  V30 12527 O 1204.18 -0.554253 1.7262 0
M  V30 12528 C 1204.23 2.93593 2.09369 0
M  V30 12529 O 1203.33 2.63878 3.16926 0
M  V30 12530 H 1202.67 0.581923 0.319783 0
M  V30 12531 H 1205.2 2.00822 0.391388 0
M  V30 12532 H 1205.21 3.20437 2.52556 0
M  V30 12533 H 1203.89 3.85067 1.57151 0
M  V30 12534 H 1202.47 2.47929 2.78542 0
M  V30 12535 N 1204.65 -0.602709 1.4562 0
M  V30 12536 C 1205.9 -1.35889 1.49595 0
M  V30 12537 C 1206.22 -1.9449 0.141002 0
M  V30 12538 O 1205.49 -1.77438 -0.830209 0
M  V30 12539 H 1204.07 -0.504478 0.550918 0
M  V30 12540 H 1206.73 -0.707376 1.8161 0
M  V30 12541 H 1205.83 -2.17583 2.2375 0
M  V30 12542 N 1206.13 -1.32992 -0.845635 0
M  V30 12543 C 1207.06 -1.25301 -1.97033 0
M  V30 12544 C 1208.04 -0.134966 -1.69564 0
M  V30 12545 O 1209.23 -0.323629 -1.91484 0
M  V30 12546 C 1206.36 -0.984551 -3.33052 0
M  V30 12547 C 1205.31 -2.06481 -3.749 0
M  V30 12548 C 1204.64 -1.6486 -5.08651 0
M  V30 12549 C 1205.94 -3.48083 -3.89404 0
M  V30 12550 H 1207.63 -2.194 -2.03725 0
M  V30 12551 H 1205.18 -1.05621 -0.978783 0
M  V30 12552 H 1207.13 -0.917269 -4.11296 0
M  V30 12553 H 1205.85 -0.00793116 -3.26599 0
M  V30 12554 H 1204.51 -2.1224 -2.98915 0
M  V30 12555 H 1204.16 -0.659183 -4.98662 0
M  V30 12556 H 1203.86 -2.37145 -5.37621 0
M  V30 12557 H 1205.38 -1.59585 -5.89377 0
M  V30 12558 H 1206.8 -3.44863 -4.57976 0
M  V30 12559 H 1205.19 -4.18796 -4.29802 0
M  V30 12560 H 1206.26 -3.87084 -2.92051 0
M  V30 12561 N 1207.61 1.06304 -1.1635 0
M  V30 12562 C 1209.02 1.60566 -0.952652 0
M  V30 12563 C 1209.37 1.8963 0.503473 0
M  V30 12564 O 1208.49 1.66964 1.37666 0
M  V30 12565 C 1209.09 2.9172 -1.72292 0
M  V30 12566 C 1207.65 3.42684 -1.55707 0
M  V30 12567 C 1206.8 2.16579 -1.73172 0
M  V30 12568 H 1209.75 0.892563 -1.31221 0
M  V30 12569 H 1209.77 3.61126 -1.19868 0
M  V30 12570 H 1209.28 2.70535 -2.78267 0
M  V30 12571 H 1207.38 3.68929 -0.521726 0
M  V30 12572 H 1207.49 4.18018 -2.34088 0
M  V30 12573 H 1205.86 2.26795 -1.15914 0
M  V30 12574 H 1206.64 1.97877 -2.80535 0
M  V30 12575 N 1209.09 0.96196 1.24836 0
M  V30 12576 C 1210.36 0.537809 1.88061 0
M  V30 12577 C 1210.74 -0.985023 1.8671 0
M  V30 12578 O 1210.09 -1.85394 1.33572 0
M  V30 12579 C 1210.3 1.12279 3.30446 0
M  V30 12580 C 1211.65 1.20414 4.07168 0
M  V30 12581 O 1212.67 1.07488 3.39595 0
M  V30 12582 O 1211.53 1.4078 5.28056 0
M  V30 12583 H 1208.63 0.178491 0.807509 0
M  V30 12584 H 1211.17 1.05586 1.32852 0
M  V30 12585 H 1209.94 2.16578 3.25898 0
M  V30 12586 H 1209.57 0.58843 3.93222 0
M  V30 12587 N 1210.56 -1.39601 0.731392 0
M  V30 12588 C 1211.81 -2.00586 0.277756 0
M  V30 12589 C 1212.14 -1.58027 -1.13391 0
M  V30 12590 O 1211.39 -0.798691 -1.7866 0
M  V30 12591 C 1211.69 -3.55934 0.323352 0
M  V30 12592 C 1211.36 -4.18131 1.68753 0
M  V30 12593 C 1210.02 -4.34833 2.06092 0
M  V30 12594 C 1212.37 -4.5267 2.58339 0
M  V30 12595 C 1209.7 -4.83362 3.32532 0
M  V30 12596 C 1212.05 -5.02607 3.84148 0
M  V30 12597 C 1210.72 -5.17517 4.21584 0
M  V30 12598 H 1209.99 -0.733996 0.101638 0
M  V30 12599 H 1212.63 -1.66981 0.937528 0
M  V30 12600 H 1210.94 -3.89542 -0.419995 0
M  V30 12601 H 1212.64 -4.00974 -0.0457235 0
M  V30 12602 H 1209.23 -4.0553 1.38722 0
M  V30 12603 H 1213.41 -4.39388 2.30763 0
M  V30 12604 H 1208.67 -4.93091 3.61485 0
M  V30 12605 H 1212.84 -5.28306 4.53724 0
M  V30 12606 H 1210.47 -5.54882 5.19625 0
M  V30 12607 N 1212.04 -0.478751 -1.50152 0
M  V30 12608 C 1213.27 0.0732929 -2.0727 0
M  V30 12609 C 1213.69 1.32066 -1.33941 0
M  V30 12610 O 1213.05 1.7707 -0.389367 0
M  V30 12611 C 1213.1 0.332528 -3.59064 0
M  V30 12612 O 1212.2 1.41158 -3.8749 0
M  V30 12613 H 1211.54 -0.0163684 -0.663798 0
M  V30 12614 H 1214.07 -0.671993 -1.9325 0
M  V30 12615 H 1214.08 0.570735 -4.03988 0
M  V30 12616 H 1212.76 -0.578934 -4.11851 0
M  V30 12617 H 1211.34 1.16008 -3.54396 0
M  V30 12618 N 1213.52 1.56172 -0.211661 0
M  V30 12619 C 1214.75 2.02874 0.430905 0
M  V30 12620 C 1215.17 1.09064 1.53254 0
M  V30 12621 O 1214.53 0.0770408 1.81136 0
M  V30 12622 C 1214.58 3.4789 0.948933 0
M  V30 12623 O 1213.68 3.57213 2.0609 0
M  V30 12624 H 1213.02 0.656614 0.0987607 0
M  V30 12625 H 1215.55 2.01964 -0.327399 0
M  V30 12626 H 1215.56 3.88015 1.2613 0
M  V30 12627 H 1214.24 4.15656 0.142584 0
M  V30 12628 H 1212.81 3.28971 1.75592 0
M  V30 12629 N 1215 -0.0618163 1.57479 0
M  V30 12630 C 1216.25 -0.757569 1.87364 0
M  V30 12631 C 1216.57 -1.77607 0.805025 0
M  V30 12632 O 1215.84 -1.95202 -0.165216 0
M  V30 12633 H 1214.42 -0.28278 0.691408 0
M  V30 12634 H 1217.08 -0.0355354 1.94868 0
M  V30 12635 H 1216.18 -1.26758 2.85199 0
M  V30 12636 N 1216.48 -1.54033 -0.333429 0
M  V30 12637 C 1217.7 -1.75716 -1.09232 0
M  V30 12638 C 1218.12 -0.501076 -1.82029 0
M  V30 12639 O 1217.48 0.527772 -1.74702 0
M  V30 12640 C 1217.53 -2.9439 -2.09802 0
M  V30 12641 O 1217.25 -4.15141 -1.39963 0
M  V30 12642 C 1218.75 -3.28206 -2.97987 0
M  V30 12643 H 1215.97 -0.586859 -0.325326 0
M  V30 12644 H 1218.51 -2.0089 -0.382555 0
M  V30 12645 H 1216.67 -2.71518 -2.76327 0
M  V30 12646 H 1217.08 -4.81826 -2.0723 0
M  V30 12647 H 1218.56 -4.14568 -3.64469 0
M  V30 12648 H 1219.03 -2.44944 -3.64553 0
M  V30 12649 H 1219.64 -3.5312 -2.37036 0
M  V30 12650 N 1217.95 0.594978 -1.45938 0
M  V30 12651 C 1218.92 1.68688 -1.55168 0
M  V30 12652 C 1219.92 1.54945 -0.429951 0
M  V30 12653 O 1221.11 1.59785 -0.693859 0
M  V30 12654 C 1218.24 3.0804 -1.46027 0
M  V30 12655 H 1219.43 1.61866 -2.52467 0
M  V30 12656 H 1216.99 0.811785 -1.33565 0
M  V30 12657 H 1217.72 3.20428 -0.499614 0
M  V30 12658 H 1217.51 3.19423 -2.27401 0
M  V30 12659 H 1219 3.8755 -1.55546 0
M  V30 12660 N 1219.43 1.33438 0.838571 0
M  V30 12661 C 1220.36 1.26344 1.96365 0
M  V30 12662 C 1221.34 0.143956 1.6949 0
M  V30 12663 O 1222.53 0.333779 1.9131 0
M  V30 12664 C 1219.66 1.0022 3.32526 0
M  V30 12665 C 1218.61 2.08466 3.73799 0
M  V30 12666 C 1217.94 1.67555 5.07769 0
M  V30 12667 C 1219.24 3.50144 3.87552 0
M  V30 12668 H 1220.93 2.20478 2.02558 0
M  V30 12669 H 1218.48 1.06139 0.973168 0
M  V30 12670 H 1220.43 0.939068 4.10803 0
M  V30 12671 H 1219.16 0.0252514 3.2659 0
M  V30 12672 H 1217.81 2.13822 2.97785 0
M  V30 12673 H 1217.46 0.685619 4.98305 0
M  V30 12674 H 1217.16 2.39993 5.36356 0
M  V30 12675 H 1218.69 1.62708 5.88522 0
M  V30 12676 H 1220.1 3.47287 4.56141 0
M  V30 12677 H 1218.5 4.21069 4.27575 0
M  V30 12678 H 1219.57 3.88628 2.89994 0
M  V30 12679 N 1220.91 -1.05686 1.16912 0
M  V30 12680 C 1222.16 -1.78862 0.955839 0
M  V30 12681 C 1222.49 -1.87257 -0.514645 0
M  V30 12682 O 1221.76 -1.36869 -1.38193 0
M  V30 12683 C 1222.05 -3.23021 1.59152 0
M  V30 12684 C 1221.9 -3.22669 3.13376 0
M  V30 12685 C 1223.22 -4.2073 1.29128 0
M  V30 12686 H 1220.34 -0.64931 0.348663 0
M  V30 12687 H 1222.98 -1.23561 1.44335 0
M  V30 12688 H 1221.13 -3.70243 1.17697 0
M  V30 12689 H 1222.8 -2.83562 3.63855 0
M  V30 12690 H 1221.05 -2.61149 3.46386 0
M  V30 12691 H 1221.72 -4.24394 3.52979 0
M  V30 12692 H 1224.19 -3.8198 1.65017 0
M  V30 12693 H 1223.07 -5.19851 1.76198 0
M  V30 12694 H 1223.33 -4.41595 0.21119 0
M  V30 12695 N 1222.39 -0.968567 -1.24324 0
M  V30 12696 C 1223.62 -0.647628 -1.96187 0
M  V30 12697 C 1224.03 0.787267 -1.72043 0
M  V30 12698 O 1223.37 1.53996 -1.00155 0
M  V30 12699 C 1223.43 -0.843517 -3.49464 0
M  V30 12700 C 1223.1 -2.25822 -3.97308 0
M  V30 12701 C 1224.09 -3.23602 -4.06913 0
M  V30 12702 C 1221.78 -2.58614 -4.30609 0
M  V30 12703 C 1223.77 -4.5226 -4.49154 0
M  V30 12704 C 1221.46 -3.87499 -4.72534 0
M  V30 12705 C 1222.46 -4.84134 -4.81771 0
M  V30 12706 O 1222.14 -6.10719 -5.2276 0
M  V30 12707 H 1221.88 -0.240568 -0.631746 0
M  V30 12708 H 1224.43 -1.29926 -1.59086 0
M  V30 12709 H 1222.66 -0.134716 -3.86465 0
M  V30 12710 H 1224.35 -0.521533 -4.02536 0
M  V30 12711 H 1225.12 -2.99596 -3.81402 0
M  V30 12712 H 1220.99 -1.84116 -4.22637 0
M  V30 12713 H 1224.54 -5.27689 -4.56279 0
M  V30 12714 H 1220.44 -4.11305 -4.97492 0
M  V30 12715 H 1221.2 -6.14298 -5.40906 0
M  V30 12716 N 1223.87 1.39211 -0.738786 0
M  V30 12717 C 1225.11 2.00733 -0.288817 0
M  V30 12718 C 1225.45 1.58494 1.1222 0
M  V30 12719 O 1224.72 0.815579 1.76575 0
M  V30 12720 C 1225 3.57928 -0.394956 0
M  V30 12721 C 1224.86 4.10174 -1.84601 0
M  V30 12722 C 1226.18 4.39548 0.220395 0
M  V30 12723 H 1223.29 0.729276 -0.106418 0
M  V30 12724 H 1225.94 1.65365 -0.935652 0
M  V30 12725 H 1224.09 3.88188 0.155744 0
M  V30 12726 H 1225.76 3.90618 -2.45388 0
M  V30 12727 H 1224 3.63593 -2.36607 0
M  V30 12728 H 1224.67 5.19305 -1.87152 0
M  V30 12729 H 1227.15 4.15354 -0.249098 0
M  V30 12730 H 1226.02 5.48778 0.115806 0
M  V30 12731 H 1226.29 4.22341 1.30691 0
M  V30 12732 N 1225.34 0.486708 1.49896 0
M  V30 12733 C 1226.57 -0.0622999 2.07306 0
M  V30 12734 C 1226.99 -1.31353 1.3464 0
M  V30 12735 O 1226.35 -1.76861 0.398752 0
M  V30 12736 C 1226.4 -0.313481 3.59235 0
M  V30 12737 O 1225.5 -1.39101 3.88233 0
M  V30 12738 H 1224.85 0.0198885 0.663702 0
M  V30 12739 H 1227.38 0.682232 1.92891 0
M  V30 12740 H 1227.39 -0.549302 4.04285 0
M  V30 12741 H 1226.06 0.600767 4.11538 0
M  V30 12742 H 1224.64 -1.14127 3.55006 0
M  V30 12743 N 1226.82 -1.56058 0.219941 0
M  V30 12744 C 1228.1 -1.90087 -0.46112 0
M  V30 12745 C 1228.48 -1.13705 -1.77861 0
M  V30 12746 O 1227.83 -0.245868 -2.27173 0
M  V30 12747 C 1228.04 -3.42786 -0.655644 0
M  V30 12748 C 1229.39 -4.13517 -0.963803 0
M  V30 12749 O 1230.41 -3.48376 -0.742488 0
M  V30 12750 O 1229.27 -5.28692 -1.38374 0
M  V30 12751 H 1226.36 -0.790311 -0.243595 0
M  V30 12752 H 1228.91 -1.67665 0.262005 0
M  V30 12753 H 1227.68 -3.90341 0.273738 0
M  V30 12754 H 1227.3 -3.70982 -1.43032 0
M  V30 12755 N 1228.3 0.053464 -1.57509 0
M  V30 12756 C 1229.58 0.783141 -1.79238 0
M  V30 12757 C 1229.96 1.94855 -0.812069 0
M  V30 12758 O 1229.31 2.28 0.151006 0
M  V30 12759 C 1229.52 1.239 -3.26266 0
M  V30 12760 C 1230.86 1.66492 -3.90596 0
M  V30 12761 O 1231.89 1.33421 -3.30269 0
M  V30 12762 O 1230.75 2.27785 -4.96766 0
M  V30 12763 H 1227.84 0.376696 -0.736226 0
M  V30 12764 H 1230.39 0.0321229 -1.6967 0
M  V30 12765 H 1229.16 0.405948 -3.89189 0
M  V30 12766 H 1228.78 2.05078 -3.4063 0
M  V30 12767 N 1229.78 1.54207 0.325255 0
M  V30 12768 C 1230.71 1.78318 1.42401 0
M  V30 12769 C 1231.69 0.633078 1.49769 0
M  V30 12770 O 1232.87 0.870324 1.67205 0
M  V30 12771 C 1230 1.89823 2.80509 0
M  V30 12772 C 1229.05 3.12102 2.9068 0
M  V30 12773 S 1229.88 4.70746 2.55262 0
M  V30 12774 C 1231.04 4.85154 3.95444 0
M  V30 12775 H 1231.27 2.71234 1.21736 0
M  V30 12776 H 1228.8 1.45309 0.521993 0
M  V30 12777 H 1230.76 1.97136 3.60066 0
M  V30 12778 H 1229.42 0.978873 2.98458 0
M  V30 12779 H 1228.61 3.16881 3.91921 0
M  V30 12780 H 1228.22 3.03109 2.19091 0
M  V30 12781 H 1230.51 4.67687 4.90178 0
M  V30 12782 H 1231.45 5.87254 3.95649 0
M  V30 12783 H 1231.86 4.13471 3.8432 0
M  V30 12784 N 1231.26 -0.58723 1.46251 0
M  V30 12785 C 1232.49 -1.36976 1.54665 0
M  V30 12786 C 1232.9 -1.88293 0.185079 0
M  V30 12787 O 1232.24 -1.64028 -0.82707 0
M  V30 12788 C 1232.3 -2.59591 2.48702 0
M  V30 12789 C 1231.96 -2.29773 3.95036 0
M  V30 12790 C 1232.96 -1.88885 4.84374 0
M  V30 12791 C 1230.65 -2.42057 4.40129 0
M  V30 12792 C 1232.64 -1.60669 6.16818 0
M  V30 12793 C 1230.33 -2.13454 5.72609 0
M  V30 12794 C 1231.33 -1.72824 6.60773 0
M  V30 12795 O 1231.01 -1.44569 7.90794 0
M  V30 12796 H 1230.75 -0.424968 0.525717 0
M  V30 12797 H 1233.3 -0.721298 1.92319 0
M  V30 12798 H 1231.53 -3.27226 2.06058 0
M  V30 12799 H 1233.22 -3.21656 2.47573 0
M  V30 12800 H 1233.98 -1.78913 4.50794 0
M  V30 12801 H 1229.86 -2.72644 3.71734 0
M  V30 12802 H 1233.41 -1.28882 6.85591 0
M  V30 12803 H 1229.3 -2.23048 6.05739 0
M  V30 12804 H 1230.07 -1.58452 8.03016 0
M  V30 12805 N 1232.74 -1.33881 -0.831482 0
M  V30 12806 C 1233.68 -1.24741 -1.96322 0
M  V30 12807 C 1234.68 -0.147251 -1.68759 0
M  V30 12808 O 1235.88 -0.311684 -1.77281 0
M  V30 12809 H 1232.26 -0.387298 -0.644596 0
M  V30 12810 H 1234.23 -2.20407 -2.01155 0
M  V30 12811 C 1232.98 -1.01102 -3.32677 0
M  V30 12812 H 1232.3 -1.84986 -3.54429 0
M  V30 12813 H 1233.74 -0.987398 -4.12343 0
M  V30 12814 C 1232.2 0.285903 -3.35685 0
M  V30 12815 O 1232.73 1.29014 -3.80419 0
M  V30 12816 N 1230.94 0.316026 -2.88877 0
M  V30 12817 H 1230.48 -0.501758 -2.52666 0
M  V30 12818 H 1230.44 1.18357 -2.91271 0
M  V30 12819 N 1234.21 1.05064 -1.1747 0
M  V30 12820 C 1235.46 1.78491 -0.975314 0
M  V30 12821 C 1235.81 1.86036 0.490734 0
M  V30 12822 O 1235.11 1.35005 1.35956 0
M  V30 12823 C 1235.3 3.21961 -1.55164 0
M  V30 12824 C 1235.13 3.28399 -3.0722 0
M  V30 12825 C 1233.9 3.37611 -3.75962 0
M  V30 12826 C 1236.1 3.17234 -4.04805 0
M  V30 12827 N 1234.08 3.33193 -5.15612 0
M  V30 12828 C 1235.45 3.20202 -5.30915 0
M  V30 12829 C 1237.51 3.01205 -3.96459 0
M  V30 12830 C 1236.21 3.08787 -6.49648 0
M  V30 12831 C 1238.24 2.91133 -5.14777 0
M  V30 12832 C 1237.6 2.94735 -6.39774 0
M  V30 12833 H 1233.7 0.665407 -0.4108 0
M  V30 12834 H 1236.28 1.25236 -1.49077 0
M  V30 12835 H 1234.45 3.73585 -1.0625 0
M  V30 12836 H 1236.18 3.83632 -1.28876 0
M  V30 12837 H 1232.94 3.42926 -3.26648 0
M  V30 12838 H 1233.36 3.3445 -5.88619 0
M  V30 12839 H 1238 2.97258 -3.00662 0
M  V30 12840 H 1235.72 3.11489 -7.45654 0
M  V30 12841 H 1239.31 2.798 -5.10101 0
M  V30 12842 H 1238.19 2.87016 -7.29789 0
M  V30 12843 N 1235.69 0.975146 1.23809 0
M  V30 12844 C 1236.64 0.510761 2.25077 0
M  V30 12845 C 1237.61 -0.447605 1.59955 0
M  V30 12846 O 1238.79 -0.356318 1.87443 0
M  V30 12847 C 1235.93 -0.185755 3.446 0
M  V30 12848 C 1235.05 0.812254 4.24295 0
M  V30 12849 C 1234.18 0.0910835 5.31122 0
M  V30 12850 C 1233.22 1.07866 6.02521 0
M  V30 12851 N 1232.36 0.386995 7.01033 0
M  V30 12852 H 1237.2 1.37913 2.64166 0
M  V30 12853 H 1234.73 0.691184 1.2985 0
M  V30 12854 H 1236.69 -0.606341 4.1277 0
M  V30 12855 H 1235.32 -1.01803 3.06327 0
M  V30 12856 H 1234.37 1.35125 3.55592 0
M  V30 12857 H 1235.69 1.56502 4.73612 0
M  V30 12858 H 1234.84 -0.387129 6.05464 0
M  V30 12859 H 1233.58 -0.694324 4.82732 0
M  V30 12860 H 1232.58 1.56767 5.26976 0
M  V30 12861 H 1233.81 1.86464 6.52999 0
M  V30 12862 H 1231.76 -0.3793 6.54903 0
M  V30 12863 H 1231.67 1.0785 7.48268 0
M  V30 12864 H 1232.94 -0.0690036 7.79469 0
M  V30 12865 N 1237.17 -1.38817 0.746158 0
M  V30 12866 C 1238.4 -2.04274 0.309156 0
M  V30 12867 C 1238.81 -1.56389 -1.06486 0
M  V30 12868 O 1238.15 -0.728875 -1.68621 0
M  V30 12869 C 1238.21 -3.58664 0.245003 0
M  V30 12870 C 1237.88 -4.29574 1.55933 0
M  V30 12871 C 1238.87 -4.55454 2.50714 0
M  V30 12872 C 1236.56 -4.67907 1.82671 0
M  V30 12873 C 1238.55 -5.18691 3.70458 0
M  V30 12874 C 1236.24 -5.30869 3.0269 0
M  V30 12875 C 1237.24 -5.56195 3.96404 0
M  V30 12876 O 1236.93 -6.17848 5.14314 0
M  V30 12877 H 1236.66 -0.663162 0.131121 0
M  V30 12878 H 1239.21 -1.78636 1.01382 0
M  V30 12879 H 1237.44 -3.83244 -0.515847 0
M  V30 12880 H 1239.13 -4.05579 -0.16149 0
M  V30 12881 H 1239.9 -4.26276 2.3133 0
M  V30 12882 H 1235.78 -4.47544 1.10568 0
M  V30 12883 H 1239.32 -5.38375 4.4362 0
M  V30 12884 H 1235.22 -5.59469 3.2197 0
M  V30 12885 H 1235.98 -6.36338 5.14797 0
M  V30 12886 N 1238.65 -0.49465 -1.49636 0
M  V30 12887 C 1239.59 0.287153 -2.29007 0
M  V30 12888 C 1240.56 0.966099 -1.35114 0
M  V30 12889 O 1241.75 0.973991 -1.64067 0
M  V30 12890 C 1238.89 1.34941 -3.17624 0
M  V30 12891 C 1238 0.682879 -4.26569 0
M  V30 12892 C 1237.14 1.72503 -5.0241 0
M  V30 12893 C 1236.18 1.04003 -6.032 0
M  V30 12894 N 1235.31 2.0261 -6.7223 0
M  V30 12895 H 1240.15 -0.395941 -2.95358 0
M  V30 12896 H 1237.69 -0.207103 -1.45635 0
M  V30 12897 H 1239.65 1.9772 -3.67372 0
M  V30 12898 H 1238.28 2.00135 -2.5327 0
M  V30 12899 H 1237.33 -0.0580477 -3.80356 0
M  V30 12900 H 1238.64 0.143334 -4.98594 0
M  V30 12901 H 1237.8 2.42804 -5.55996 0
M  V30 12902 H 1236.54 2.29843 -4.30144 0
M  V30 12903 H 1235.54 0.322765 -5.48852 0
M  V30 12904 H 1236.77 0.473219 -6.77449 0
M  V30 12905 H 1234.71 2.58922 -6.0274 0
M  V30 12906 H 1234.63 1.53704 -7.4021 0
M  V30 12907 H 1235.9 2.72218 -7.30423 0
M  V30 12908 N 1240.13 1.55939 -0.228214 0
M  V30 12909 C 1241.37 1.98084 0.400884 0
M  V30 12910 C 1241.69 1.11727 1.59819 0
M  V30 12911 O 1240.96 0.195794 1.94919 0
M  V30 12912 H 1239.54 0.731558 0.151102 0
M  V30 12913 H 1242.21 1.92211 -0.322659 0
M  V30 12914 H 1241.3 3.03617 0.722706 0
M  V30 12915 N 1241.6 -0.0451101 1.57535 0
M  V30 12916 C 1243.02 -0.59372 1.77008 0
M  V30 12917 C 1243.37 -1.76482 0.857233 0
M  V30 12918 O 1242.49 -2.16347 0.0479703 0
M  V30 12919 C 1243.09 -1.08383 3.20996 0
M  V30 12920 C 1241.65 -1.57808 3.41721 0
M  V30 12921 C 1240.79 -0.509067 2.72587 0
M  V30 12922 H 1243.74 0.181114 1.57663 0
M  V30 12923 H 1243.76 -1.95181 3.26626 0
M  V30 12924 H 1243.28 -0.231276 3.8741 0
M  V30 12925 H 1241.38 -2.45302 2.8046 0
M  V30 12926 H 1241.49 -1.63664 4.50279 0
M  V30 12927 H 1239.85 -0.960389 2.359 0
M  V30 12928 H 1240.64 0.333753 3.41674 0
M  V30 12929 N 1243.08 -1.54377 -0.317073 0
M  V30 12930 C 1244.01 -1.8721 -1.39552 0
M  V30 12931 C 1244.99 -0.729483 -1.53664 0
M  V30 12932 O 1246.18 -0.983799 -1.67437 0
M  V30 12933 C 1243.31 -2.1052 -2.76222 0
M  V30 12934 C 1242.26 -3.26366 -2.76892 0
M  V30 12935 C 1241.59 -3.35061 -4.16699 0
M  V30 12936 C 1242.89 -4.63862 -2.40061 0
M  V30 12937 H 1244.58 -2.77532 -1.12323 0
M  V30 12938 H 1242.13 -1.33536 -0.538897 0
M  V30 12939 H 1244.08 -2.32073 -3.51739 0
M  V30 12940 H 1242.81 -1.16953 -3.04942 0
M  V30 12941 H 1241.46 -3.0471 -2.03831 0
M  V30 12942 H 1241.11 -2.39041 -4.4257 0
M  V30 12943 H 1240.81 -4.12923 -4.18053 0
M  V30 12944 H 1242.34 -3.58856 -4.94019 0
M  V30 12945 H 1243.75 -4.85252 -3.05292 0
M  V30 12946 H 1242.15 -5.44321 -2.52655 0
M  V30 12947 H 1243.22 -4.6567 -1.35202 0
M  V30 12948 N 1244.56 0.579466 -1.4656 0
M  V30 12949 C 1245.79 1.36153 -1.55389 0
M  V30 12950 C 1246.2 1.88192 -0.195062 0
M  V30 12951 O 1245.54 1.64464 0.81836 0
M  V30 12952 C 1245.6 2.58269 -2.50075 0
M  V30 12953 C 1245.27 2.27675 -3.96249 0
M  V30 12954 C 1246.26 1.86313 -4.85369 0
M  V30 12955 C 1243.95 2.39719 -4.41407 0
M  V30 12956 C 1245.94 1.57395 -6.17661 0
M  V30 12957 C 1243.63 2.10414 -5.73733 0
M  V30 12958 C 1244.63 1.69317 -6.6168 0
M  V30 12959 O 1244.32 1.40373 -7.9155 0
M  V30 12960 H 1244.05 0.422174 -0.527963 0
M  V30 12961 H 1246.6 0.711089 -1.92698 0
M  V30 12962 H 1244.83 3.26129 -2.0779 0
M  V30 12963 H 1246.52 3.20339 -2.49275 0
M  V30 12964 H 1247.29 1.7652 -4.51736 0
M  V30 12965 H 1243.17 2.70669 -3.73175 0
M  V30 12966 H 1246.71 1.25244 -6.86265 0
M  V30 12967 H 1242.61 2.19833 -6.06913 0
M  V30 12968 H 1243.38 1.54191 -8.03845 0
M  V30 12969 N 1246.04 1.3432 0.824371 0
M  V30 12970 C 1247.28 1.26783 1.58284 0
M  V30 12971 C 1247.62 -0.162282 1.93521 0
M  V30 12972 O 1246.89 -1.1073 1.59903 0
M  V30 12973 C 1247.18 2.15725 2.88331 0
M  V30 12974 C 1247.03 3.67266 2.59684 0
M  V30 12975 C 1248.35 2.04141 3.8989 0
M  V30 12976 H 1245.47 0.461893 0.574303 0
M  V30 12977 H 1248.11 1.64558 0.949769 0
M  V30 12978 H 1246.26 1.83639 3.42358 0
M  V30 12979 H 1247.93 4.09711 2.11978 0
M  V30 12980 H 1246.17 3.88426 1.93151 0
M  V30 12981 H 1246.84 4.24863 3.52414 0
M  V30 12982 H 1249.32 2.3231 3.45212 0
M  V30 12983 H 1248.2 2.68601 4.7869 0
M  V30 12984 H 1248.46 1.01795 4.30221 0
M  V30 12985 N 1247.52 -1.0444 1.18026 0
M  V30 12986 C 1248.74 -1.81772 0.998684 0
M  V30 12987 C 1249.17 -1.82682 -0.448225 0
M  V30 12988 O 1248.52 -1.24136 -1.32136 0
M  V30 12989 C 1248.57 -3.2542 1.55352 0
M  V30 12990 O 1247.68 -4.05103 0.772351 0
M  V30 12991 H 1247.02 -0.561731 0.354054 0
M  V30 12992 H 1249.55 -1.31557 1.56697 0
M  V30 12993 H 1249.56 -3.76206 1.57903 0
M  V30 12994 H 1248.23 -3.24073 2.60672 0
M  V30 12995 H 1246.81 -3.63798 0.818852 0
M  V30 12996 N 1248.99 -0.981699 -1.2329 0
M  V30 12997 C 1250.27 -0.567659 -1.87182 0
M  V30 12998 C 1250.65 0.955194 -1.88253 0
M  V30 12999 O 1250 1.83245 -1.36504 0
M  V30 13000 C 1250.21 -1.17522 -3.28618 0
M  V30 13001 C 1251.56 -1.26877 -4.052 0
M  V30 13002 O 1252.58 -1.12877 -3.37842 0
M  V30 13003 O 1251.44 -1.49163 -5.2575 0
M  V30 13004 H 1248.53 -0.191315 -0.804567 0
M  V30 13005 H 1251.08 -1.07686 -1.31155 0
M  V30 13006 H 1249.85 -2.21735 -3.22411 0
M  V30 13007 H 1249.48 -0.650913 -3.92236 0
M  V30 13008 N 1250.47 1.3842 -0.753509 0
M  V30 13009 C 1251.89 1.53668 -0.431095 0
M  V30 13010 C 1252.09 1.71626 1.05578 0
M  V30 13011 O 1251.14 1.72723 1.84182 0
M  V30 13012 C 1252.46 2.74381 -1.23027 0
M  V30 13013 C 1254.01 2.8823 -1.22034 0
M  V30 13014 C 1254.48 4.11904 -2.00248 0
M  V30 13015 N 1255.97 4.18981 -1.97508 0
M  V30 13016 C 1256.71 5.13667 -2.5482 0
M  V30 13017 N 1256.2 6.14027 -3.20846 0
M  V30 13018 N 1258 5.06017 -2.44751 0
M  V30 13019 H 1250.15 1.25012 -1.71714 0
M  V30 13020 H 1252.41 0.607296 -0.727939 0
M  V30 13021 H 1252.12 2.67515 -2.28317 0
M  V30 13022 H 1251.99 3.67565 -0.847098 0
M  V30 13023 H 1254.38 2.94578 -0.175502 0
M  V30 13024 H 1254.46 1.96057 -1.64303 0
M  V30 13025 H 1254.1 4.06318 -3.04742 0
M  V30 13026 H 1254.03 5.03157 -1.55373 0
M  V30 13027 H 1256.52 3.47104 -1.49423 0
M  V30 13028 H 1256.84 6.82771 -3.61999 0
M  V30 13029 H 1255.18 6.1436 -3.24941 0
M  V30 13030 H 1258.37 4.26552 -1.92797 0
M  V30 13031 H 1258.54 5.7963 -2.89713 0
M  V30 13032 N 1251.95 0.502579 1.49372 0
M  V30 13033 C 1253.2 -0.0432341 2.01654 0
M  V30 13034 C 1253.51 -1.379 1.38719 0
M  V30 13035 O 1254.72 -2.01159 1.82338 0
M  V30 13036 C 1253.17 -0.127509 3.59674 0
M  V30 13037 C 1252.78 1.20171 4.31582 0
M  V30 13038 C 1254.53 -0.623603 4.19895 0
M  V30 13039 C 1252.43 1.07951 5.81464 0
M  V30 13040 H 1251.36 -0.0199308 0.753737 0
M  V30 13041 H 1254.01 0.642237 1.71894 0
M  V30 13042 H 1252.4 -0.877465 3.86156 0
M  V30 13043 H 1253.57 1.96508 4.16799 0
M  V30 13044 H 1251.89 1.63136 3.83113 0
M  V30 13045 H 1254.48 -0.732562 5.29658 0
M  V30 13046 H 1254.83 -1.62282 3.83367 0
M  V30 13047 H 1255.36 0.0698641 3.97739 0
M  V30 13048 H 1252.1 2.05304 6.22519 0
M  V30 13049 H 1251.62 0.357051 5.98736 0
M  V30 13050 H 1253.3 0.758885 6.42534 0
M  V30 13051 N 1253.43 -1.55816 0.23648 0
M  V30 13052 C 1254.84 -1.59159 -0.118601 0
M  V30 13053 C 1255.04 -1.25352 -1.57763 0
M  V30 13054 O 1254.1 -0.995863 -2.32032 0
M  V30 13055 C 1255.41 -2.99885 0.221175 0
M  V30 13056 C 1256.96 -3.12567 0.164624 0
M  V30 13057 C 1257.44 -4.55496 0.478285 0
M  V30 13058 N 1258.93 -4.61215 0.428402 0
M  V30 13059 C 1259.66 -5.69768 0.644398 0
M  V30 13060 N 1259.16 -6.86624 0.922966 0
M  V30 13061 N 1260.95 -5.59143 0.575814 0
M  V30 13062 H 1253.1 -1.76063 1.18809 0
M  V30 13063 H 1255.37 -0.819079 0.477297 0
M  V30 13064 H 1255.07 -3.29326 1.2344 0
M  V30 13065 H 1254.95 -3.74425 -0.456723 0
M  V30 13066 H 1257.33 -2.82914 -0.839263 0
M  V30 13067 H 1257.41 -2.40325 0.876219 0
M  V30 13068 H 1257.06 -4.85868 1.47968 0
M  V30 13069 H 1256.99 -5.25984 -0.254671 0
M  V30 13070 H 1259.48 -3.77251 0.221398 0
M  V30 13071 H 1259.79 -7.6528 1.07548 0
M  V30 13072 H 1258.14 -6.88333 0.960325 0
M  V30 13073 H 1261.33 -4.66727 0.358307 0
M  V30 13074 H 1261.5 -6.43674 0.747548 0
M  V30 13075 N 1254.91 0.036755 -1.57557 0
M  V30 13076 C 1256.14 0.740011 -1.92892 0
M  V30 13077 C 1256.54 1.69828 -0.833964 0
M  V30 13078 O 1255.89 1.82619 0.198974 0
M  V30 13079 C 1255.95 1.55827 -3.23972 0
M  V30 13080 C 1255.61 0.765613 -4.50541 0
M  V30 13081 C 1256.61 0.0692686 -5.19854 0
M  V30 13082 C 1254.3 0.722425 -4.97078 0
M  V30 13083 C 1256.29 -0.659649 -6.33977 0
M  V30 13084 C 1253.98 -0.0102431 -6.11099 0
M  V30 13085 C 1254.97 -0.700047 -6.79403 0
M  V30 13086 O 1254.66 -1.42084 -7.91244 0
M  V30 13087 H 1254.39 0.213496 -0.641401 0
M  V30 13088 H 1256.95 0.000665152 -2.054 0
M  V30 13089 H 1255.18 2.34125 -3.0777 0
M  V30 13090 H 1256.87 2.14343 -3.44691 0
M  V30 13091 H 1257.63 0.0937148 -4.84909 0
M  V30 13092 H 1253.51 1.24883 -4.43763 0
M  V30 13093 H 1257.06 -1.19861 -6.87226 0
M  V30 13094 H 1252.95 -0.0366395 -6.4549 0
M  V30 13095 H 1253.72 -1.33372 -8.07561 0
M  V30 13096 N 1256.39 1.54543 0.308881 0
M  V30 13097 C 1257.8 1.64532 0.882392 0
M  V30 13098 C 1258.15 0.54886 1.88367 0
M  V30 13099 O 1257.27 -0.315832 2.14083 0
M  V30 13100 C 1257.87 2.98251 1.60722 0
M  V30 13101 C 1256.43 3.10387 2.12925 0
M  V30 13102 C 1255.57 2.60176 0.959362 0
M  V30 13103 H 1258.52 1.58466 0.0860803 0
M  V30 13104 H 1258.55 2.89233 2.47233 0
M  V30 13105 H 1258.06 3.78033 0.878233 0
M  V30 13106 H 1256.16 2.35309 2.88895 0
M  V30 13107 H 1256.27 4.16421 2.36918 0
M  V30 13108 H 1254.64 2.16434 1.3427 0
M  V30 13109 H 1255.42 3.42429 0.244454 0
M  V30 13110 N 1257.86 -0.571685 1.46866 0
M  V30 13111 C 1258.77 -1.70758 1.60869 0
M  V30 13112 C 1259.79 -1.66903 0.49186 0
M  V30 13113 O 1260.97 -1.86613 0.757468 0
M  V30 13114 C 1258.03 -3.07267 1.60586 0
M  V30 13115 C 1257.09 -3.22301 2.83585 0
M  V30 13116 C 1256.32 -4.52298 2.83306 0
M  V30 13117 O 1256.55 -5.36869 1.92685 0
M  V30 13118 O 1255.48 -4.70814 3.7499 0
M  V30 13119 H 1259.31 -1.6189 2.56954 0
M  V30 13120 H 1256.89 -0.740018 1.29785 0
M  V30 13121 H 1258.77 -3.8853 1.63163 0
M  V30 13122 H 1257.45 -3.16549 0.676637 0
M  V30 13123 H 1256.36 -2.4049 2.86558 0
M  V30 13124 H 1257.69 -3.17916 3.75753 0
M  V30 13125 N 1259.34 -1.34755 -0.817236 0
M  V30 13126 C 1260.27 -1.29452 -1.94331 0
M  V30 13127 C 1261.25 -0.170902 -1.69239 0
M  V30 13128 O 1262.44 -0.364173 -1.90755 0
M  V30 13129 C 1259.57 -1.05497 -3.30889 0
M  V30 13130 C 1258.52 -2.14386 -3.70436 0
M  V30 13131 C 1257.85 -1.75612 -5.05039 0
M  V30 13132 C 1259.15 -3.56265 -3.81933 0
M  V30 13133 H 1260.84 -2.23672 -1.99025 0
M  V30 13134 H 1258.39 -1.07674 -0.956159 0
M  V30 13135 H 1260.34 -1.0043 -4.09257 0
M  V30 13136 H 1259.06 -0.0772059 -3.26509 0
M  V30 13137 H 1257.72 -2.18532 -2.94345 0
M  V30 13138 H 1257.37 -0.764809 -4.97152 0
M  V30 13139 H 1257.07 -2.48495 -5.3247 0
M  V30 13140 H 1258.6 -1.72051 -5.85859 0
M  V30 13141 H 1260.01 -3.545 -4.50558 0
M  V30 13142 H 1258.41 -4.27818 -4.20822 0
M  V30 13143 H 1259.48 -3.93192 -2.83775 0
M  V30 13144 N 1260.82 1.03812 -1.18578 0
M  V30 13145 C 1262.07 1.76706 -0.980776 0
M  V30 13146 C 1262.39 1.88729 0.490562 0
M  V30 13147 O 1261.66 1.41413 1.35569 0
M  V30 13148 H 1260.24 0.654586 -0.359898 0
M  V30 13149 H 1262.9 1.25274 -1.49306 0
M  V30 13150 H 1262 2.77876 -1.42096 0
M  V30 13151 N 1262.3 0.988223 1.22768 0
M  V30 13152 C 1263.53 0.679743 1.95415 0
M  V30 13153 C 1263.94 -0.754731 1.73059 0
M  V30 13154 O 1263.3 -1.50876 1.02678 0
M  V30 13155 C 1263.35 0.970344 3.48234 0
M  V30 13156 O 1263.07 2.34845 3.69837 0
M  V30 13157 C 1264.57 0.67891 4.3807 0
M  V30 13158 H 1261.79 0.251847 0.621944 0
M  V30 13159 H 1264.33 1.32173 1.56047 0
M  V30 13160 H 1262.49 0.374241 3.85588 0
M  V30 13161 H 1262.9 2.44412 4.64072 0
M  V30 13162 H 1264.38 0.932549 5.44066 0
M  V30 13163 H 1264.85 -0.387073 4.37491 0
M  V30 13164 H 1265.46 1.25585 4.06335 0
M  V30 13165 N 1263.78 -1.38018 0.760839 0
M  V30 13166 C 1265.02 -2.00248 0.320716 0
M  V30 13167 C 1265.35 -1.60259 -1.09684 0
M  V30 13168 O 1264.63 -0.843567 -1.75255 0
M  V30 13169 C 1264.91 -3.57254 0.451849 0
M  V30 13170 C 1264.77 -4.07185 1.91103 0
M  V30 13171 C 1266.08 -4.39843 -0.150439 0
M  V30 13172 H 1263.2 -0.727491 0.118007 0
M  V30 13173 H 1265.85 -1.63855 0.961842 0
M  V30 13174 H 1264 -3.88386 -0.0939672 0
M  V30 13175 H 1265.67 -3.86665 2.51571 0
M  V30 13176 H 1263.91 -3.59782 2.42362 0
M  V30 13177 H 1264.58 -5.16262 1.9539 0
M  V30 13178 H 1267.06 -4.14905 0.315145 0
M  V30 13179 H 1265.93 -5.48893 -0.0284853 0
M  V30 13180 H 1266.19 -4.24367 -1.23956 0
M  V30 13181 N 1265.25 -0.510493 -1.49103 0
M  V30 13182 C 1266.5 0.0226445 -2.03387 0
M  V30 13183 C 1266.85 1.33817 -1.38242 0
M  V30 13184 O 1266.15 1.84625 -0.512282 0
M  V30 13185 C 1266.34 0.221921 -3.5671 0
M  V30 13186 C 1266.17 -1.07273 -4.36718 0
M  V30 13187 C 1264.94 -1.62719 -4.78383 0
M  V30 13188 C 1267.14 -1.97844 -4.74723 0
M  V30 13189 N 1265.12 -2.86676 -5.42854 0
M  V30 13190 C 1266.49 -3.06378 -5.3901 0
M  V30 13191 C 1268.55 -1.98407 -4.56661 0
M  V30 13192 C 1267.25 -4.15515 -5.87145 0
M  V30 13193 C 1269.28 -3.06525 -5.05763 0
M  V30 13194 C 1268.64 -4.13778 -5.70059 0
M  V30 13195 H 1264.74 -0.0327303 -0.781315 0
M  V30 13196 H 1267.32 -0.687457 -1.8216 0
M  V30 13197 H 1265.49 0.901088 -3.77803 0
M  V30 13198 H 1267.22 0.752916 -3.97635 0
M  V30 13199 H 1263.98 -1.17109 -4.58893 0
M  V30 13200 H 1264.4 -3.49733 -5.79669 0
M  V30 13201 H 1269.04 -1.16789 -4.0635 0
M  V30 13202 H 1266.76 -4.97925 -6.36472 0
M  V30 13203 H 1270.35 -3.07992 -4.93591 0
M  V30 13204 H 1269.23 -4.96061 -6.07366 0
M  V30 13205 N 1266.73 1.55688 -0.24474 0
M  V30 13206 C 1267.64 2.24933 0.666519 0
M  V30 13207 C 1268.66 1.26471 1.19503 0
M  V30 13208 O 1269.83 1.59342 1.23176 0
M  V30 13209 C 1266.9 2.9336 1.84772 0
M  V30 13210 C 1265.96 4.07225 1.35889 0
M  V30 13211 C 1265.19 4.72381 2.48379 0
M  V30 13212 O 1265.42 4.36605 3.67059 0
M  V30 13213 O 1264.35 5.60933 2.18261 0
M  V30 13214 H 1268.18 3.03513 0.106507 0
M  V30 13215 H 1265.76 1.49394 -0.0133309 0
M  V30 13216 H 1267.64 3.36468 2.53708 0
M  V30 13217 H 1266.32 2.17721 2.39539 0
M  V30 13218 H 1265.22 3.68639 0.636881 0
M  V30 13219 H 1266.56 4.84676 0.857333 0
M  V30 13220 N 1268.21 -0.0283989 1.57574 0
M  V30 13221 C 1269.14 -1.02828 2.09639 0
M  V30 13222 C 1270.12 -1.37668 0.999076 0
M  V30 13223 O 1271.31 -1.4654 1.27435 0
M  V30 13224 C 1268.44 -2.329 2.57633 0
M  V30 13225 C 1267.39 -2.12301 3.71635 0
M  V30 13226 C 1266.72 -3.48138 4.05837 0
M  V30 13227 C 1268.02 -1.50864 5.00037 0
M  V30 13228 H 1269.71 -0.594876 2.93431 0
M  V30 13229 H 1267.26 -0.284701 1.41158 0
M  V30 13230 H 1269.21 -3.03179 2.92678 0
M  V30 13231 H 1267.93 -2.78302 1.70926 0
M  V30 13232 H 1266.59 -1.44454 3.3694 0
M  V30 13233 H 1266.24 -3.9119 3.16195 0
M  V30 13234 H 1265.94 -3.3518 4.82626 0
M  V30 13235 H 1267.46 -4.19779 4.43417 0
M  V30 13236 H 1268.88 -2.11062 5.33035 0
M  V30 13237 H 1267.27 -1.48479 5.81441 0
M  V30 13238 H 1268.34 -0.474541 4.82572 0
M  V30 13239 N 1269.69 -1.54705 -0.300681 0
M  V30 13240 C 1271.1 -1.64998 -0.873654 0
M  V30 13241 C 1271.45 -0.558842 -1.88073 0
M  V30 13242 O 1270.57 0.304474 -2.14247 0
M  V30 13243 C 1271.17 -2.99099 -1.59138 0
M  V30 13244 C 1269.73 -3.11512 -2.11276 0
M  V30 13245 C 1268.88 -2.60681 -0.945551 0
M  V30 13246 H 1271.83 -1.5851 -0.0776752 0
M  V30 13247 H 1271.85 -2.9054 -2.45696 0
M  V30 13248 H 1271.36 -3.78493 -0.858172 0
M  V30 13249 H 1269.46 -2.36838 -2.87643 0
M  V30 13250 H 1269.57 -4.17672 -2.34707 0
M  V30 13251 H 1267.94 -2.17143 -1.33121 0
M  V30 13252 H 1268.72 -3.42553 -0.226291 0
M  V30 13253 N 1271.17 0.563888 -1.47167 0
M  V30 13254 C 1272.41 1.32331 -1.53676 0
M  V30 13255 C 1272.75 1.93213 -0.195593 0
M  V30 13256 O 1272.02 1.77508 0.795068 0
M  V30 13257 C 1272.3 2.43848 -2.64972 0
M  V30 13258 C 1272.16 1.8788 -4.08682 0
M  V30 13259 C 1273.48 3.45809 -2.72221 0
M  V30 13260 H 1270.59 0.479791 -0.559437 0
M  V30 13261 H 1273.24 0.631669 -1.79192 0
M  V30 13262 H 1271.39 3.02846 -2.43345 0
M  V30 13263 H 1273.06 1.33195 -4.41652 0
M  V30 13264 H 1271.3 1.18593 -4.17275 0
M  V30 13265 H 1271.97 2.68465 -4.82318 0
M  V30 13266 H 1274.45 2.9672 -2.91713 0
M  V30 13267 H 1273.32 4.21272 -3.51882 0
M  V30 13268 H 1273.59 4.04236 -1.79014 0
M  V30 13269 N 1272.64 1.35187 0.810078 0
M  V30 13270 C 1273.57 1.30481 1.93641 0
M  V30 13271 C 1274.56 0.179875 1.69146 0
M  V30 13272 O 1275.74 0.374284 1.90559 0
M  V30 13273 C 1272.87 1.07251 3.30325 0
M  V30 13274 C 1271.82 2.16348 3.69293 0
M  V30 13275 C 1271.15 1.78288 5.04101 0
M  V30 13276 C 1272.45 3.58285 3.80038 0
M  V30 13277 H 1274.14 2.24725 1.97836 0
M  V30 13278 H 1271.69 1.08179 0.950436 0
M  V30 13279 H 1273.64 1.02599 4.08719 0
M  V30 13280 H 1272.37 0.0945203 3.26463 0
M  V30 13281 H 1271.03 2.2009 2.93182 0
M  V30 13282 H 1270.67 0.791163 4.96739 0
M  V30 13283 H 1270.37 2.51315 5.31144 0
M  V30 13284 H 1271.9 1.75155 5.84938 0
M  V30 13285 H 1273.31 3.56884 4.48672 0
M  V30 13286 H 1271.71 4.30044 4.18548 0
M  V30 13287 H 1272.78 3.94691 2.81685 0
M  V30 13288 N 1274.12 -1.03182 1.19127 0
M  V30 13289 C 1275.05 -2.13301 0.94999 0
M  V30 13290 C 1276.03 -1.69707 -0.115577 0
M  V30 13291 O 1277.22 -1.94161 0.0388395 0
M  V30 13292 C 1274.35 -3.43902 0.484637 0
M  V30 13293 C 1273.3 -4.01164 1.4917 0
M  V30 13294 C 1272.63 -5.2735 0.883537 0
M  V30 13295 C 1273.93 -4.36311 2.87107 0
M  V30 13296 H 1275.62 -2.33743 1.87095 0
M  V30 13297 H 1273.17 -1.12332 0.900977 0
M  V30 13298 H 1275.12 -4.20308 0.30315 0
M  V30 13299 H 1273.85 -3.23173 -0.471909 0
M  V30 13300 H 1272.5 -3.26849 1.66028 0
M  V30 13301 H 1272.15 -5.02936 -0.0804712 0
M  V30 13302 H 1271.85 -5.66624 1.55599 0
M  V30 13303 H 1273.38 -6.06425 0.71278 0
M  V30 13304 H 1274.79 -5.03666 2.73848 0
M  V30 13305 H 1273.19 -4.86659 3.51117 0
M  V30 13306 H 1274.26 -3.45743 3.39985 0
M  V30 13307 N 1275.6 -0.99472 -1.22242 0
M  V30 13308 C 1277.01 -0.706456 -1.72818 0
M  V30 13309 C 1277.36 0.776566 -1.80177 0
M  V30 13310 O 1276.49 1.60698 -1.44931 0
M  V30 13311 C 1277.08 -1.27571 -3.13865 0
M  V30 13312 C 1275.64 -1.03679 -3.61839 0
M  V30 13313 C 1274.79 -1.3948 -2.39668 0
M  V30 13314 H 1277.74 -1.16687 -1.07564 0
M  V30 13315 H 1277.76 -0.655202 -3.74816 0
M  V30 13316 H 1277.27 -2.35508 -3.08476 0
M  V30 13317 H 1275.37 0.0258679 -3.72591 0
M  V30 13318 H 1275.49 -1.70145 -4.4787 0
M  V30 13319 H 1273.85 -0.813418 -2.41362 0
M  V30 13320 H 1274.63 -2.48425 -2.36939 0
M  V30 13321 N 1277.08 1.37613 -0.768148 0
M  V30 13322 C 1278.01 2.3291 -0.165911 0
M  V30 13323 C 1278.99 1.556 0.687205 0
M  V30 13324 O 1280.17 1.83854 0.625407 0
M  V30 13325 C 1277.3 3.39822 0.7168 0
M  V30 13326 C 1276.26 4.27986 -0.0347264 0
M  V30 13327 C 1275.58 5.2588 0.967192 0
M  V30 13328 C 1276.88 5.08052 -1.21164 0
M  V30 13329 H 1278.58 2.83524 -0.962006 0
M  V30 13330 H 1276.12 1.36318 -0.464051 0
M  V30 13331 H 1278.08 4.05464 1.14789 0
M  V30 13332 H 1276.8 2.87725 1.54538 0
M  V30 13333 H 1275.46 3.6387 -0.446557 0
M  V30 13334 H 1275.11 4.70064 1.79022 0
M  V30 13335 H 1274.81 5.85726 0.468913 0
M  V30 13336 H 1276.33 5.94397 1.3973 0
M  V30 13337 H 1277.75 5.66853 -0.857373 0
M  V30 13338 H 1276.14 5.77206 -1.64176 0
M  V30 13339 H 1277.21 4.40936 -2.0175 0
M  V30 13340 N 1278.56 0.518393 1.4883 0
M  V30 13341 C 1279.8 -0.019866 2.0209 0
M  V30 13342 C 1280.13 -1.35863 1.3988 0
M  V30 13343 O 1279.4 -1.87722 0.560117 0
M  V30 13344 H 1277.98 -0.0103306 0.746929 0
M  V30 13345 H 1280.64 0.679591 1.82668 0
M  V30 13346 H 1279.73 -0.136749 3.118 0
M  V30 13347 N 1280.03 -1.55556 0.252993 0
M  V30 13348 C 1281.26 -2.03491 -0.374022 0
M  V30 13349 C 1281.68 -1.13208 -1.51094 0
M  V30 13350 O 1281.03 -0.147705 -1.81901 0
M  V30 13351 C 1281.09 -3.50724 -0.876047 0
M  V30 13352 O 1280.81 -4.37569 0.215574 0
M  V30 13353 C 1282.31 -4.14448 -1.57313 0
M  V30 13354 H 1279.53 -0.665183 -0.0881644 0
M  V30 13355 H 1282.07 -2.00964 0.378636 0
M  V30 13356 H 1280.23 -3.53766 -1.57886 0
M  V30 13357 H 1280.64 -5.24235 -0.166625 0
M  V30 13358 H 1282.11 -5.19142 -1.87606 0
M  V30 13359 H 1282.59 -3.61299 -2.49719 0
M  V30 13360 H 1283.2 -4.15346 -0.914735 0
M  V30 13361 N 1281.51 0.0200419 -1.57587 0
M  V30 13362 C 1282.79 0.744946 -1.80859 0
M  V30 13363 C 1283.17 1.93089 -0.853218 0
M  V30 13364 O 1282.52 2.28269 0.10261 0
M  V30 13365 C 1282.73 1.16952 -3.28821 0
M  V30 13366 C 1284.08 1.5817 -3.9404 0
M  V30 13367 O 1285.1 1.26385 -3.33024 0
M  V30 13368 O 1283.96 2.17197 -5.01486 0
M  V30 13369 H 1281.05 0.360995 -0.744051 0
M  V30 13370 H 1283.6 -0.00387374 -1.697 0
M  V30 13371 H 1282.37 0.323304 -3.89962 0
M  V30 13372 H 1281.99 1.97807 -3.44903 0
M  V30 13373 N 1282.99 1.54862 0.292472 0
M  V30 13374 C 1284.22 1.78877 1.04966 0
M  V30 13375 C 1284.64 0.550724 1.79857 0
M  V30 13376 O 1284 -0.499054 1.74296 0
M  V30 13377 C 1284.05 3.00106 1.99922 0
M  V30 13378 O 1283.15 2.73827 3.0837 0
M  V30 13379 H 1282.49 0.591802 0.301108 0
M  V30 13380 H 1285.02 2.01965 0.3273 0
M  V30 13381 H 1285.03 3.28309 2.42233 0
M  V30 13382 H 1283.71 3.89872 1.44821 0
M  V30 13383 H 1282.28 2.56665 2.70513 0
M  V30 13384 N 1284.47 -0.556076 1.47464 0
M  V30 13385 C 1285.7 -1.33858 1.57764 0
M  V30 13386 C 1286.11 -1.87415 0.22825 0
M  V30 13387 O 1285.47 -1.65054 -0.778674 0
M  V30 13388 C 1285.52 -2.5077 2.60378 0
M  V30 13389 O 1285.24 -1.99426 3.90078 0
M  V30 13390 C 1286.74 -3.42965 2.80873 0
M  V30 13391 H 1283.96 -0.408003 0.532705 0
M  V30 13392 H 1286.51 -0.673501 1.93091 0
M  V30 13393 H 1284.66 -3.13214 2.27982 0
M  V30 13394 H 1285.07 -2.75759 4.46158 0
M  V30 13395 H 1286.55 -4.21412 3.56533 0
M  V30 13396 H 1287.03 -3.96579 1.88737 0
M  V30 13397 H 1287.63 -2.86336 3.14471 0
M  V30 13398 N 1285.95 -1.35615 -0.802897 0
M  V30 13399 C 1287.2 -1.28839 -1.55708 0
M  V30 13400 C 1287.52 0.135906 -1.94526 0
M  V30 13401 O 1286.79 1.07317 -1.6389 0
M  V30 13402 H 1285.37 -0.473906 -0.577427 0
M  V30 13403 H 1288.03 -1.69759 -0.957487 0
M  V30 13404 H 1287.12 -1.90675 -2.47082 0
M  V30 13405 N 1287.43 1.02549 -1.19673 0
M  V30 13406 C 1288.37 2.109 -0.937536 0
M  V30 13407 C 1289.34 1.65599 0.128923 0
M  V30 13408 O 1290.53 1.90795 -0.0139366 0
M  V30 13409 C 1287.67 3.4166 -0.48602 0
M  V30 13410 C 1286.78 4.0049 -1.61963 0
M  V30 13411 C 1285.92 5.19273 -1.11931 0
M  V30 13412 C 1284.95 5.70166 -2.22659 0
M  V30 13413 N 1284.09 6.80221 -1.73909 0
M  V30 13414 H 1288.93 2.32408 -1.86523 0
M  V30 13415 H 1286.47 1.13982 -0.929869 0
M  V30 13416 H 1288.43 4.16693 -0.205614 0
M  V30 13417 H 1287.06 3.20253 0.404678 0
M  V30 13418 H 1286.11 3.22638 -2.01516 0
M  V30 13419 H 1287.42 4.34273 -2.45374 0
M  V30 13420 H 1286.57 6.01478 -0.794336 0
M  V30 13421 H 1285.31 4.87033 -0.254972 0
M  V30 13422 H 1284.32 4.86572 -2.55983 0
M  V30 13423 H 1285.54 6.04444 -3.09554 0
M  V30 13424 H 1283.49 6.49826 -0.897889 0
M  V30 13425 H 1283.41 7.13149 -2.50907 0
M  V30 13426 H 1284.67 7.66011 -1.44386 0
M  V30 13427 N 1288.9 1.00119 1.21713 0
M  V30 13428 C 1289.84 0.516633 2.23301 0
M  V30 13429 C 1290.85 -0.392732 1.57992 0
M  V30 13430 O 1292.04 -0.19354 1.77448 0
M  V30 13431 C 1289.14 -0.269612 3.37826 0
M  V30 13432 C 1288.31 0.637898 4.32723 0
M  V30 13433 C 1287.37 -0.0980745 5.26109 0
M  V30 13434 O 1286.4 0.519302 5.66826 0
M  V30 13435 N 1287.6 -1.37783 5.63911 0
M  V30 13436 H 1290.36 1.39022 2.65505 0
M  V30 13437 H 1287.92 0.87688 1.36097 0
M  V30 13438 H 1289.92 -0.770826 3.97291 0
M  V30 13439 H 1288.49 -1.04436 2.94638 0
M  V30 13440 H 1287.71 1.31966 3.71455 0
M  V30 13441 H 1288.99 1.25564 4.93063 0
M  V30 13442 H 1288.39 -1.90061 5.32817 0
M  V30 13443 H 1286.95 -1.82407 6.25756 0
M  V30 13444 N 1290.38 -1.37203 0.775435 0
M  V30 13445 C 1291.33 -2.30228 0.162388 0
M  V30 13446 C 1292.3 -1.51284 -0.685747 0
M  V30 13447 O 1293.48 -1.7984 -0.637342 0
M  V30 13448 C 1290.62 -3.37762 -0.707858 0
M  V30 13449 C 1289.74 -4.31714 0.157287 0
M  V30 13450 C 1288.87 -5.26325 -0.718012 0
M  V30 13451 C 1287.91 -6.11918 0.149442 0
M  V30 13452 N 1287.05 -6.9876 -0.684043 0
M  V30 13453 H 1291.89 -2.82073 0.961184 0
M  V30 13454 H 1289.42 -1.38854 0.485587 0
M  V30 13455 H 1291.38 -3.98741 -1.22726 0
M  V30 13456 H 1290.01 -2.87273 -1.47222 0
M  V30 13457 H 1289.06 -3.7201 0.794533 0
M  V30 13458 H 1290.38 -4.91909 0.826262 0
M  V30 13459 H 1289.53 -5.92526 -1.30376 0
M  V30 13460 H 1288.27 -4.6655 -1.42066 0
M  V30 13461 H 1287.27 -5.44692 0.747697 0
M  V30 13462 H 1288.5 -6.73766 0.849476 0
M  V30 13463 H 1286.45 -6.41508 -1.37124 0
M  V30 13464 H 1286.36 -7.55965 -0.0724464 0
M  V30 13465 H 1287.63 -7.69346 -1.25407 0
M  V30 13466 N 1291.86 -0.526279 -1.48553 0
M  V30 13467 C 1293.09 0.00522012 -2.06599 0
M  V30 13468 C 1293.5 1.29039 -1.38368 0
M  V30 13469 O 1292.84 1.77747 -0.463854 0
M  V30 13470 C 1292.9 0.303512 -3.58216 0
M  V30 13471 C 1292.57 -0.887635 -4.48297 0
M  V30 13472 C 1293.56 -1.78504 -4.88295 0
M  V30 13473 C 1291.25 -1.09359 -4.90251 0
M  V30 13474 C 1293.24 -2.87233 -5.69013 0
M  V30 13475 C 1290.93 -2.18402 -5.7074 0
M  V30 13476 C 1291.93 -3.07172 -6.10028 0
M  V30 13477 O 1291.62 -4.14329 -6.88902 0
M  V30 13478 H 1291.35 -0.0287033 -0.67539 0
M  V30 13479 H 1293.9 -0.730244 -1.91981 0
M  V30 13480 H 1292.13 1.0929 -3.70935 0
M  V30 13481 H 1293.82 0.776647 -3.98401 0
M  V30 13482 H 1294.59 -1.63785 -4.56508 0
M  V30 13483 H 1290.47 -0.411922 -4.59156 0
M  V30 13484 H 1294.01 -3.56549 -5.99599 0
M  V30 13485 H 1289.91 -2.33106 -6.0194 0
M  V30 13486 H 1290.67 -4.11993 -7.07251 0
M  V30 13487 N 1293.34 1.5542 -0.261239 0
M  V30 13488 C 1294.59 1.9846 0.360052 0
M  V30 13489 C 1294.9 1.15288 1.58013 0
M  V30 13490 O 1296.11 1.48408 2.27348 0
M  V30 13491 C 1294.56 3.53185 0.691964 0
M  V30 13492 C 1294.17 4.45116 -0.507521 0
M  V30 13493 C 1295.91 4.04848 1.27665 0
M  V30 13494 C 1293.82 5.91207 -0.150966 0
M  V30 13495 H 1292.75 0.741207 0.138303 0
M  V30 13496 H 1295.4 1.79859 -0.363712 0
M  V30 13497 H 1293.78 3.67535 1.47425 0
M  V30 13498 H 1294.96 4.42531 -1.28465 0
M  V30 13499 H 1293.27 4.04013 -1.0081 0
M  V30 13500 H 1295.87 5.11529 1.55699 0
M  V30 13501 H 1296.21 3.5305 2.20593 0
M  V30 13502 H 1296.75 3.93882 0.556955 0
M  V30 13503 H 1293.48 6.47072 -1.04776 0
M  V30 13504 H 1293 5.96894 0.589671 0
M  V30 13505 H 1294.68 6.4647 0.261772 0
M  V30 13506 N 1294.82 -0.0116844 1.57596 0
M  V30 13507 C 1296.06 -0.698958 1.90055 0
M  V30 13508 C 1296.39 -1.74422 0.860659 0
M  V30 13509 O 1295.65 -1.95226 -0.136132 0
M  V30 13510 C 1295.94 -1.38985 3.29269 0
M  V30 13511 C 1295.61 -0.478916 4.48349 0
M  V30 13512 C 1294.27 -0.228071 4.80659 0
M  V30 13513 C 1296.62 0.14897 5.20987 0
M  V30 13514 C 1293.95 0.659147 5.82986 0
M  V30 13515 C 1296.3 1.02399 6.24257 0
M  V30 13516 C 1294.97 1.28413 6.55032 0
M  V30 13517 H 1294.24 -0.255767 0.69546 0
M  V30 13518 H 1296.89 0.0413339 1.91455 0
M  V30 13519 H 1295.19 -2.2039 3.23937 0
M  V30 13520 H 1296.89 -1.92747 3.51638 0
M  V30 13521 H 1293.48 -0.68459 4.23097 0
M  V30 13522 H 1297.66 -0.0318326 4.9629 0
M  V30 13523 H 1292.92 0.86882 6.05195 0
M  V30 13524 H 1297.09 1.51694 6.79678 0
M  V30 13525 H 1294.72 1.97332 7.34142 0
M  V30 13526 N 1296.29 -1.55015 -0.284256 0
M  V30 13527 C 1297.23 -1.82031 -1.37623 0
M  V30 13528 C 1298.2 -0.672564 -1.48038 0
M  V30 13529 O 1299.39 -0.914349 -1.64839 0
M  V30 13530 C 1296.52 -1.97193 -2.75377 0
M  V30 13531 C 1295.56 -3.19699 -2.82303 0
M  V30 13532 S 1296.39 -4.77348 -2.42691 0
M  V30 13533 C 1297.55 -4.95468 -3.82442 0
M  V30 13534 H 1297.78 -2.74366 -1.14502 0
M  V30 13535 H 1295.32 -1.46642 -0.483283 0
M  V30 13536 H 1297.27 -2.06614 -3.54713 0
M  V30 13537 H 1295.94 -1.05766 -2.95757 0
M  V30 13538 H 1295.13 -3.27161 -3.83382 0
M  V30 13539 H 1294.73 -3.08811 -2.10978 0
M  V30 13540 H 1297.02 -4.80519 -4.77606 0
M  V30 13541 H 1297.97 -5.97538 -3.7994 0
M  V30 13542 H 1298.37 -4.23516 -3.73222 0
M  V30 13543 N 1297.77 0.548248 -1.47757 0
M  V30 13544 C 1299.02 1.30139 -1.54099 0
M  V30 13545 C 1299.33 1.9445 -0.2118 0
M  V30 13546 O 1300.54 2.71067 -0.153302 0
M  V30 13547 C 1299 2.36039 -2.71687 0
M  V30 13548 C 1298.6 1.77879 -4.11173 0
M  V30 13549 C 1300.35 3.12478 -2.87329 0
M  V30 13550 C 1298.25 2.81611 -5.20047 0
M  V30 13551 H 1297.18 0.489364 -0.573619 0
M  V30 13552 H 1299.84 0.581237 -1.74051 0
M  V30 13553 H 1298.22 3.11008 -2.45132 0
M  V30 13554 H 1299.39 1.09221 -4.47669 0
M  V30 13555 H 1297.71 1.13994 -4.00493 0
M  V30 13556 H 1300.3 3.89958 -3.65837 0
M  V30 13557 H 1300.65 3.67218 -1.96103 0
M  V30 13558 H 1301.18 2.4462 -3.13697 0
M  V30 13559 H 1297.92 2.31714 -6.13179 0
M  V30 13560 H 1297.44 3.48652 -4.88059 0
M  V30 13561 H 1299.12 3.44938 -5.47382 0
M  V30 13562 N 1299.25 1.36039 0.795694 0
M  V30 13563 C 1300.2 1.29902 1.92946 0
M  V30 13564 C 1301.19 0.191943 1.68309 0
M  V30 13565 O 1302.4 0.358577 1.76392 0
M  V30 13566 H 1298.77 0.404252 0.634101 0
M  V30 13567 H 1300.74 2.25663 1.95241 0
M  V30 13568 C 1299.49 1.09887 3.29879 0
M  V30 13569 H 1298.82 1.94318 3.494 0
M  V30 13570 H 1300.26 1.09638 4.0958 0
M  V30 13571 C 1298.71 -0.196802 3.36325 0
M  V30 13572 O 1299.24 -1.18883 3.83705 0
M  V30 13573 N 1297.45 -0.239325 2.89613 0
M  V30 13574 H 1297 0.568571 2.51247 0
M  V30 13575 H 1296.96 -1.10593 2.94307 0
M  V30 13576 N 1300.73 -1.01913 1.20215 0
M  V30 13577 C 1302.14 -1.5692 1.01159 0
M  V30 13578 C 1302.49 -1.91368 -0.432746 0
M  V30 13579 O 1301.62 -1.71959 -1.31374 0
M  V30 13580 C 1302.21 -2.85125 1.83001 0
M  V30 13581 C 1300.77 -3.36669 1.68318 0
M  V30 13582 C 1299.92 -2.10003 1.81091 0
M  V30 13583 H 1302.87 -0.843246 1.34443 0
M  V30 13584 H 1302.89 -3.56428 1.33188 0
M  V30 13585 H 1302.4 -2.60021 2.88116 0
M  V30 13586 H 1300.5 -3.66739 0.658292 0
M  V30 13587 H 1300.61 -4.09042 2.49442 0
M  V30 13588 H 1298.98 -2.22337 1.24252 0
M  V30 13589 H 1299.76 -1.87329 2.87685 0
M  V30 13590 N 1302.21 -1.00763 -1.2118 0
M  V30 13591 C 1303.16 -0.541218 -2.21483 0
M  V30 13592 C 1304.14 0.398597 -1.55885 0
M  V30 13593 O 1305.33 0.22302 -1.75589 0
M  V30 13594 C 1302.46 0.128145 -3.43061 0
M  V30 13595 C 1301.55 -0.832845 -4.15842 0
M  V30 13596 N 1301.94 -1.98673 -4.65148 0
M  V30 13597 C 1300.24 -0.651779 -4.41212 0
M  V30 13598 C 1300.94 -2.59112 -5.20803 0
M  V30 13599 N 1299.91 -1.87249 -5.10332 0
M  V30 13600 H 1303.72 -1.42105 -2.57262 0
M  V30 13601 H 1301.23 -0.871796 -1.37016 0
M  V30 13602 H 1303.23 0.479771 -4.1413 0
M  V30 13603 H 1301.89 1.00392 -3.0879 0
M  V30 13604 H 1302.9 -2.36701 -4.60644 0
M  V30 13605 H 1299.57 0.1767 -4.17126 0
M  V30 13606 H 1300.96 -3.56713 -5.69391 0
M  V30 13607 N 1303.68 1.3679 -0.7827 0
M  V30 13608 C 1304.59 2.33928 -0.17747 0
M  V30 13609 C 1305.61 1.60716 0.666802 0
M  V30 13610 O 1306.79 1.92742 0.584162 0
M  V30 13611 C 1303.85 3.39907 0.68294 0
M  V30 13612 C 1302.91 4.28926 -0.179053 0
M  V30 13613 C 1302.15 5.29844 0.640386 0
M  V30 13614 O 1302.37 5.38639 1.87681 0
M  V30 13615 O 1301.3 6.01884 0.0438164 0
M  V30 13616 H 1305.13 2.87439 -0.980441 0
M  V30 13617 H 1302.71 1.39142 -0.54404 0
M  V30 13618 H 1304.6 4.04722 1.17379 0
M  V30 13619 H 1303.27 2.88706 1.46391 0
M  V30 13620 H 1302.18 3.67174 -0.716512 0
M  V30 13621 H 1303.51 4.83461 -0.923377 0
M  V30 13622 N 1305.16 0.53415 1.48272 0
M  V30 13623 C 1306.11 -0.226335 2.29688 0
M  V30 13624 C 1307.08 -0.929937 1.37628 0
M  V30 13625 O 1308.26 -0.930149 1.66592 0
M  V30 13626 C 1305.4 -1.26472 3.2109 0
M  V30 13627 C 1304.52 -0.569542 4.28229 0
M  V30 13628 C 1303.65 -1.59122 5.06807 0
M  V30 13629 C 1302.69 -0.879734 6.05745 0
M  V30 13630 N 1301.83 -1.84715 6.77366 0
M  V30 13631 H 1306.67 0.474111 2.94204 0
M  V30 13632 H 1304.21 0.245643 1.45034 0
M  V30 13633 H 1306.16 -1.87911 3.72485 0
M  V30 13634 H 1304.79 -1.9335 2.58487 0
M  V30 13635 H 1303.85 0.158872 3.80068 0
M  V30 13636 H 1305.16 -0.0110904 4.98799 0
M  V30 13637 H 1304.31 -2.27977 5.62238 0
M  V30 13638 H 1303.05 -2.18357 4.36086 0
M  V30 13639 H 1302.06 -0.177134 5.49515 0
M  V30 13640 H 1303.28 -0.293439 6.78466 0
M  V30 13641 H 1301.23 -2.42851 6.09393 0
M  V30 13642 H 1301.14 -1.34025 7.44025 0
M  V30 13643 H 1302.41 -2.52756 7.37384 0
M  V30 13644 N 1306.64 -1.55279 0.269478 0
M  V30 13645 C 1308.05 -1.85286 -0.229372 0
M  V30 13646 C 1308.4 -1.19148 -1.55879 0
M  V30 13647 O 1307.53 -0.4778 -2.11059 0
M  V30 13648 C 1308.12 -3.3615 -0.42296 0
M  V30 13649 C 1306.68 -3.66301 -0.866047 0
M  V30 13650 C 1305.83 -2.77265 0.0439028 0
M  V30 13651 H 1308.78 -1.509 0.491427 0
M  V30 13652 H 1308.8 -3.5895 -1.26234 0
M  V30 13653 H 1308.31 -3.84258 0.544768 0
M  V30 13654 H 1306.41 -3.23688 -1.84545 0
M  V30 13655 H 1306.53 -4.73851 -0.707274 0
M  V30 13656 H 1304.89 -2.50299 -0.471433 0
M  V30 13657 H 1305.67 -3.28186 1.00741 0
M  V30 13658 N 1308.12 0.00332656 -1.576 0
M  V30 13659 C 1309.03 1.01221 -2.1164 0
M  V30 13660 C 1310.04 1.37918 -1.06088 0
M  V30 13661 O 1311.22 1.46717 -1.37971 0
M  V30 13662 C 1308.29 2.28638 -2.60626 0
M  V30 13663 C 1307.35 1.98284 -3.80765 0
M  V30 13664 C 1306.58 3.19626 -4.27405 0
M  V30 13665 O 1306.8 4.31196 -3.73398 0
M  V30 13666 O 1305.74 3.03819 -5.19594 0
M  V30 13667 H 1309.56 0.582839 -2.98055 0
M  V30 13668 H 1307.15 0.221947 -1.47742 0
M  V30 13669 H 1309.03 3.03498 -2.92347 0
M  V30 13670 H 1307.7 2.70819 -1.7731 0
M  V30 13671 H 1306.61 1.2091 -3.54022 0
M  V30 13672 H 1307.94 1.60942 -4.65144 0
M  V30 13673 N 1309.6 1.55164 0.276031 0
M  V30 13674 C 1310.55 1.84223 1.34335 0
M  V30 13675 C 1311.53 0.700934 1.4483 0
M  V30 13676 O 1312.72 0.962204 1.48562 0
M  V30 13677 C 1309.85 2.11496 2.70415 0
M  V30 13678 C 1308.94 3.31877 2.64043 0
M  V30 13679 N 1309.33 4.51856 2.27289 0
M  V30 13680 C 1307.63 3.34406 2.95108 0
M  V30 13681 C 1308.33 5.33939 2.30833 0
M  V30 13682 N 1307.3 4.72271 2.69186 0
M  V30 13683 H 1311.11 2.74533 1.04922 0
M  V30 13684 H 1308.62 1.54999 0.484661 0
M  V30 13685 H 1310.62 2.3047 3.47404 0
M  V30 13686 H 1309.28 1.22468 3.00719 0
M  V30 13687 H 1310.29 4.78009 1.99318 0
M  V30 13688 H 1306.96 2.55561 3.30144 0
M  V30 13689 H 1308.35 6.39862 2.05004 0
M  V30 13690 N 1311.07 -0.540404 1.48045 0
M  V30 13691 C 1312.32 -1.2987 1.55762 0
M  V30 13692 C 1312.65 -1.92877 0.226307 0
M  V30 13693 O 1311.93 -1.7875 -0.766727 0
M  V30 13694 C 1312.21 -2.39602 2.68817 0
M  V30 13695 C 1312.06 -1.81354 4.1162 0
M  V30 13696 C 1313.38 -3.41434 2.77688 0
M  V30 13697 H 1310.5 -0.47083 0.566999 0
M  V30 13698 H 1313.14 -0.603081 1.80175 0
M  V30 13699 H 1311.29 -2.98936 2.48132 0
M  V30 13700 H 1312.97 -1.26151 4.43716 0
M  V30 13701 H 1311.21 -1.1194 4.19108 0
M  V30 13702 H 1311.88 -2.60758 4.86528 0
M  V30 13703 H 1314.36 -2.92042 2.96396 0
M  V30 13704 H 1313.23 -4.15621 3.5854 0
M  V30 13705 H 1313.49 -4.01336 1.85422 0
M  V30 13706 N 1312.55 -1.36459 -0.788468 0
M  V30 13707 C 1313.96 -1.27515 -1.3637 0
M  V30 13708 C 1314.31 0.0846251 -1.96017 0
M  V30 13709 O 1313.44 0.98611 -1.92626 0
M  V30 13710 C 1314.03 -2.30903 -2.4793 0
M  V30 13711 C 1312.59 -2.25645 -3.01266 0
M  V30 13712 C 1311.74 -2.15631 -1.74352 0
M  V30 13713 H 1314.69 -1.47324 -0.590039 0
M  V30 13714 H 1314.71 -1.94601 -3.26972 0
M  V30 13715 H 1314.22 -3.29858 -2.04487 0
M  V30 13716 H 1312.33 -1.3016 -3.49126 0
M  V30 13717 H 1312.44 -3.18373 -3.58016 0
M  V30 13718 H 1310.8 -1.61901 -1.96622 0
M  V30 13719 H 1311.59 -3.16475 -1.33036 0
M  V30 13720 N 1314.03 1.01274 -1.20754 0
M  V30 13721 C 1315.44 1.56381 -1.0199 0
M  V30 13722 C 1315.79 1.91595 0.422591 0
M  V30 13723 O 1314.92 1.72653 1.3046 0
M  V30 13724 C 1315.51 2.8415 -1.8451 0
M  V30 13725 C 1314.07 3.35772 -1.70101 0
M  V30 13726 C 1313.22 2.0904 -1.82202 0
M  V30 13727 H 1316.17 0.836105 -1.34889 0
M  V30 13728 H 1316.19 3.55717 -1.35076 0
M  V30 13729 H 1315.7 2.5849 -2.8949 0
M  V30 13730 H 1313.8 3.66384 -0.677732 0
M  V30 13731 H 1313.92 4.07714 -2.51607 0
M  V30 13732 H 1312.28 2.21675 -1.25429 0
M  V30 13733 H 1313.06 1.858 -2.88675 0
M  V30 13734 N 1315.51 1.01404 1.20644 0
M  V30 13735 C 1316.47 0.586941 2.21557 0
M  V30 13736 C 1317.47 -0.341543 1.57131 0
M  V30 13737 O 1318.66 -0.130585 1.7371 0
M  V30 13738 C 1315.79 -0.143248 3.40599 0
M  V30 13739 H 1316.99 1.47964 2.60858 0
M  V30 13740 H 1314.54 0.803551 1.34063 0
M  V30 13741 H 1315.28 -1.05097 3.06798 0
M  V30 13742 H 1315.06 0.523716 3.88587 0
M  V30 13743 H 1316.55 -0.429504 4.15385 0
M  V30 13744 N 1316.99 -1.36373 0.789944 0
M  V30 13745 C 1317.94 -2.31928 0.17666 0
M  V30 13746 C 1318.93 -1.55831 -0.664316 0
M  V30 13747 O 1320.14 -1.71089 -0.559341 0
M  V30 13748 H 1316.51 -0.751021 0.038353 0
M  V30 13749 H 1318.48 -2.81216 0.998004 0
M  V30 13750 C 1317.23 -3.41112 -0.673646 0
M  V30 13751 H 1316.55 -3.99784 -0.0358875 0
M  V30 13752 H 1317.99 -4.10292 -1.06942 0
M  V30 13753 C 1316.45 -2.82728 -1.83211 0
M  V30 13754 O 1316.98 -2.74935 -2.92871 0
M  V30 13755 N 1315.19 -2.4001 -1.6384 0
M  V30 13756 H 1314.74 -2.46549 -0.746423 0
M  V30 13757 H 1314.69 -2.01294 -2.41512 0
M  V30 13758 N 1318.47 -0.542005 -1.47987 0
M  V30 13759 C 1319.74 0.0526494 -1.95529 0
M  V30 13760 C 1320.12 1.50092 -1.48444 0
M  V30 13761 O 1319.47 2.16981 -0.716347 0
M  V30 13762 C 1319.68 -0.0770524 -3.48915 0
M  V30 13763 C 1321.03 0.0760849 -4.24532 0
M  V30 13764 O 1322.05 -0.00384644 -3.562 0
M  V30 13765 O 1320.91 0.245406 -5.45949 0
M  V30 13766 H 1318.01 0.0726163 -0.823806 0
M  V30 13767 H 1320.55 -0.607454 -1.58455 0
M  V30 13768 H 1319.32 -1.08544 -3.75944 0
M  V30 13769 H 1318.95 0.621357 -3.92715 0
M  V30 13770 N 1319.94 1.55134 -0.277709 0
M  V30 13771 C 1321.19 1.99949 0.338831 0
M  V30 13772 C 1321.52 1.16587 1.5531 0
M  V30 13773 O 1320.8 0.236572 1.93056 0
M  V30 13774 C 1321.08 3.5286 0.718457 0
M  V30 13775 C 1320.93 4.46975 -0.503332 0
M  V30 13776 C 1322.25 4.11754 1.55392 0
M  V30 13777 H 1319.37 0.726885 0.121682 0
M  V30 13778 H 1322.01 1.86055 -0.385171 0
M  V30 13779 H 1320.16 3.64831 1.33531 0
M  V30 13780 H 1321.84 4.46944 -1.14188 0
M  V30 13781 H 1320.08 4.18528 -1.14092 0
M  V30 13782 H 1320.75 5.51659 -0.193912 0
M  V30 13783 H 1323.23 4.03075 1.03293 0
M  V30 13784 H 1322.1 5.1895 1.78835 0
M  V30 13785 H 1322.36 3.62147 2.53578 0
M  V30 13786 N 1321.42 0.00503138 1.57599 0
M  V30 13787 C 1322.35 -1.01302 2.05598 0
M  V30 13788 C 1323.37 -1.30388 0.974829 0
M  V30 13789 O 1324.56 -1.27275 1.25153 0
M  V30 13790 C 1321.66 -2.34654 2.44522 0
M  V30 13791 C 1320.83 -2.24436 3.7543 0
M  V30 13792 C 1319.89 -3.40517 4.01166 0
M  V30 13793 O 1318.91 -3.18479 4.71762 0
M  V30 13794 N 1320.12 -4.63532 3.49454 0
M  V30 13795 H 1322.88 -0.603656 2.93558 0
M  V30 13796 H 1320.44 -0.182248 1.60871 0
M  V30 13797 H 1322.43 -3.11093 2.5885 0
M  V30 13798 H 1321 -2.67315 1.62055 0
M  V30 13799 H 1320.22 -1.32875 3.71131 0
M  V30 13800 H 1321.51 -2.14786 4.61242 0
M  V30 13801 H 1320.91 -4.84334 2.92296 0
M  V30 13802 H 1319.47 -5.37221 3.69103 0
M  V30 13803 N 1322.9 -1.55308 -0.267798 0
M  V30 13804 C 1324.32 -1.47264 -0.61526 0
M  V30 13805 C 1324.52 -0.691025 -1.8928 0
M  V30 13806 O 1323.57 -0.211964 -2.51609 0
M  V30 13807 C 1324.88 -2.91519 -0.73739 0
M  V30 13808 C 1326.43 -3.01764 -0.831102 0
M  V30 13809 C 1326.91 -4.47283 -0.984965 0
M  V30 13810 N 1328.4 -4.51134 -1.05036 0
M  V30 13811 C 1329.13 -5.60952 -1.1883 0
M  V30 13812 N 1328.63 -6.80625 -1.29311 0
M  V30 13813 N 1330.42 -5.48705 -1.21982 0
M  V30 13814 H 1322.57 -2.04577 0.57114 0
M  V30 13815 H 1324.84 -0.927908 0.194141 0
M  V30 13816 H 1324.54 -3.51456 0.130974 0
M  V30 13817 H 1324.42 -3.40829 -1.61603 0
M  V30 13818 H 1326.8 -2.4192 -1.68993 0
M  V30 13819 H 1326.88 -2.55698 0.0722509 0
M  V30 13820 H 1326.53 -5.07732 -0.130776 0
M  V30 13821 H 1326.46 -4.91011 -1.90305 0
M  V30 13822 H 1328.95 -3.6493 -0.981551 0
M  V30 13823 H 1329.26 -7.60071 -1.39685 0
M  V30 13824 H 1327.61 -6.83426 -1.26306 0
M  V30 13825 H 1330.8 -4.5415 -1.13428 0
M  V30 13826 H 1330.97 -6.34332 -1.32388 0
M  V30 13827 N 1324.38 0.532545 -1.4833 0
M  V30 13828 C 1325.65 1.29371 -1.46705 0
M  V30 13829 C 1326.03 2.10354 -0.177329 0
M  V30 13830 O 1325.38 2.12462 0.840968 0
M  V30 13831 C 1325.59 2.17733 -2.72751 0
M  V30 13832 C 1326.94 2.77956 -3.20976 0
M  V30 13833 O 1327.96 2.28022 -2.7365 0
M  V30 13834 O 1326.82 3.68779 -4.03317 0
M  V30 13835 H 1323.92 0.58378 -0.585773 0
M  V30 13836 H 1326.46 0.549411 -1.6056 0
M  V30 13837 H 1325.24 1.57659 -3.58133 0
M  V30 13838 H 1324.86 2.99415 -2.61603 0
M  V30 13839 N 1325.86 1.36875 0.78122 0
M  V30 13840 C 1327.1 1.31754 1.54171 0
M  V30 13841 C 1327.43 -0.100632 1.93939 0
M  V30 13842 O 1326.71 -1.05587 1.63345 0
M  V30 13843 C 1326.99 2.24789 2.81322 0
M  V30 13844 C 1326.85 3.75342 2.47868 0
M  V30 13845 C 1328.16 2.16442 3.83198 0
M  V30 13846 H 1325.28 0.479931 0.559317 0
M  V30 13847 H 1327.93 1.67497 0.896935 0
M  V30 13848 H 1326.08 1.94438 3.36342 0
M  V30 13849 H 1327.75 4.16247 1.98836 0
M  V30 13850 H 1325.99 3.94375 1.80696 0
M  V30 13851 H 1326.66 4.3586 3.38719 0
M  V30 13852 H 1329.14 2.43175 3.37647 0
M  V30 13853 H 1328.01 2.83695 4.69903 0
M  V30 13854 H 1328.27 1.15431 4.26765 0
M  V30 13855 N 1327.33 -1.00632 1.21289 0
M  V30 13856 C 1328.24 -2.12829 0.986957 0
M  V30 13857 C 1329.26 -1.73895 -0.0605152 0
M  V30 13858 O 1330.44 -2.00985 0.129238 0
M  V30 13859 C 1327.5 -3.4226 0.553089 0
M  V30 13860 C 1326.56 -3.95376 1.67262 0
M  V30 13861 C 1325.79 -5.18629 1.25936 0
M  V30 13862 O 1326.02 -5.70246 0.132402 0
M  V30 13863 O 1324.95 -5.65157 2.07077 0
M  V30 13864 H 1328.78 -2.34765 1.92663 0
M  V30 13865 H 1326.36 -1.11208 0.997654 0
M  V30 13866 H 1328.24 -4.20177 0.320856 0
M  V30 13867 H 1326.92 -3.21716 -0.357881 0
M  V30 13868 H 1325.83 -3.18692 1.95924 0
M  V30 13869 H 1327.16 -4.20328 2.56097 0
M  V30 13870 N 1328.81 -1.02043 -1.20104 0
M  V30 13871 C 1330.06 -0.713027 -1.89852 0
M  V30 13872 C 1330.39 0.755767 -1.7889 0
M  V30 13873 O 1329.67 1.54948 -1.17564 0
M  V30 13874 C 1329.95 -1.15417 -3.41103 0
M  V30 13875 C 1329.8 -2.68355 -3.60979 0
M  V30 13876 C 1331.12 -0.728389 -4.34031 0
M  V30 13877 H 1328.24 -0.260502 -0.689426 0
M  V30 13878 H 1330.88 -1.26885 -1.41422 0
M  V30 13879 H 1329.03 -0.68127 -3.8248 0
M  V30 13880 H 1330.7 -3.23526 -3.28829 0
M  V30 13881 H 1328.95 -3.09148 -3.04319 0
M  V30 13882 H 1329.62 -2.94276 -4.67018 0
M  V30 13883 H 1332.09 -1.13499 -4.00321 0
M  V30 13884 H 1330.97 -1.06504 -5.38468 0
M  V30 13885 H 1331.23 0.369736 -4.40551 0
M  V30 13886 N 1330.29 1.35952 -0.797165 0
M  V30 13887 C 1331.54 1.99032 -0.373142 0
M  V30 13888 C 1331.87 1.63257 1.05723 0
M  V30 13889 O 1331.12 0.883022 1.74646 0
M  V30 13890 C 1331.42 3.53986 -0.492805 0
M  V30 13891 C 1331.09 4.09603 -1.88511 0
M  V30 13892 C 1329.75 4.24505 -2.26604 0
M  V30 13893 C 1332.1 4.39829 -2.79643 0
M  V30 13894 C 1329.43 4.66946 -3.55215 0
M  V30 13895 C 1331.78 4.83706 -4.0769 0
M  V30 13896 C 1330.44 4.96813 -4.45795 0
M  V30 13897 H 1329.71 0.728311 -0.136542 0
M  V30 13898 H 1332.36 1.62318 -1.01613 0
M  V30 13899 H 1330.67 3.91103 0.233661 0
M  V30 13900 H 1332.36 4.00735 -0.145638 0
M  V30 13901 H 1328.95 3.98449 -1.57912 0
M  V30 13902 H 1333.14 4.27878 -2.51464 0
M  V30 13903 H 1328.39 4.75282 -3.84599 0
M  V30 13904 H 1332.57 5.06057 -4.78414 0
M  V30 13905 H 1330.19 5.29458 -5.45507 0
M  V30 13906 N 1331.77 0.549846 1.47697 0
M  V30 13907 C 1333 0.0276487 2.06581 0
M  V30 13908 C 1333.41 -1.26821 1.40403 0
M  V30 13909 O 1332.75 -1.76987 0.492073 0
M  V30 13910 C 1332.81 -0.246484 3.58654 0
M  V30 13911 C 1332.48 0.958843 4.46828 0
M  V30 13912 C 1333.47 1.86249 4.85394 0
M  V30 13913 C 1331.16 1.17144 4.88449 0
M  V30 13914 C 1333.15 2.96249 5.64372 0
M  V30 13915 C 1330.84 2.27454 5.67193 0
M  V30 13916 C 1331.84 3.16838 6.05064 0
M  V30 13917 O 1331.52 4.25237 6.82224 0
M  V30 13918 H 1331.26 0.0394446 0.674848 0
M  V30 13919 H 1333.81 0.760694 1.90795 0
M  V30 13920 H 1332.04 -1.03375 3.72627 0
M  V30 13921 H 1333.73 -0.713167 3.99586 0
M  V30 13922 H 1334.5 1.71027 4.53844 0
M  V30 13923 H 1330.37 0.484917 4.58443 0
M  V30 13924 H 1333.92 3.66043 5.9385 0
M  V30 13925 H 1329.82 2.42653 5.98155 0
M  V30 13926 H 1330.58 4.23193 7.00607 0
M  V30 13927 N 1333.25 -1.54984 0.285932 0
M  V30 13928 C 1334.49 -2.00848 -0.321162 0
M  V30 13929 C 1334.85 -1.17086 -1.52672 0
M  V30 13930 O 1334.14 -0.235523 -1.90147 0
M  V30 13931 C 1334.33 -3.49581 -0.7435 0
M  V30 13932 C 1334.16 -4.47738 0.419586 0
M  V30 13933 C 1332.93 -4.97096 0.906821 0
M  V30 13934 C 1335.13 -4.98636 1.25963 0
M  V30 13935 N 1333.11 -5.79076 2.03824 0
M  V30 13936 C 1334.48 -5.78169 2.23878 0
M  V30 13937 C 1336.54 -4.80852 1.29174 0
M  V30 13938 C 1335.24 -6.41813 3.2476 0
M  V30 13939 C 1337.27 -5.45303 2.28906 0
M  V30 13940 C 1336.63 -6.24656 3.25552 0
M  V30 13941 H 1332.73 -0.777647 -0.0823951 0
M  V30 13942 H 1335.31 -1.90282 0.412418 0
M  V30 13943 H 1333.48 -3.60468 -1.44628 0
M  V30 13944 H 1335.22 -3.82261 -1.32885 0
M  V30 13945 H 1331.97 -4.71117 0.484305 0
M  V30 13946 H 1332.4 -6.24754 2.6079 0
M  V30 13947 H 1337.04 -4.19097 0.558318 0
M  V30 13948 H 1334.76 -7.0271 3.99029 0
M  V30 13949 H 1338.34 -5.33479 2.32145 0
M  V30 13950 H 1337.22 -6.73645 4.01462 0
M  V30 13951 N 1334.72 -0.0133892 -1.57594 0
M  V30 13952 C 1335.97 0.667896 -1.90321 0
M  V30 13953 C 1336.29 1.74187 -0.88984 0
M  V30 13954 O 1337.49 2.47871 -1.10779 0
M  V30 13955 C 1335.95 1.23917 -3.37894 0
M  V30 13956 C 1335.56 0.199313 -4.47556 0
M  V30 13957 C 1337.3 1.89788 -3.79712 0
M  V30 13958 C 1335.21 0.781339 -5.86216 0
M  V30 13959 H 1334.14 0.253229 -0.710205 0
M  V30 13960 H 1336.79 -0.0761229 -1.83342 0
M  V30 13961 H 1335.17 2.03429 -3.39754 0
M  V30 13962 H 1336.34 -0.572196 -4.57234 0
M  V30 13963 H 1334.66 -0.359719 -4.14843 0
M  V30 13964 H 1337.26 2.34262 -4.80651 0
M  V30 13965 H 1337.6 2.73406 -3.13934 0
M  V30 13966 H 1338.13 1.16989 -3.80208 0
M  V30 13967 H 1334.87 -0.0163598 -6.55498 0
M  V30 13968 H 1334.39 1.5217 -5.80176 0
M  V30 13969 H 1336.07 1.2759 -6.34295 0
M  V30 13970 N 1336.2 1.55448 0.259558 0
M  V30 13971 C 1337.45 1.76337 0.987396 0
M  V30 13972 C 1337.77 0.57505 1.86328 0
M  V30 13973 O 1337.04 -0.409621 1.9157 0
M  V30 13974 H 1335.62 0.650312 0.367565 0
M  V30 13975 H 1338.28 1.9287 0.280551 0
M  V30 13976 H 1337.38 2.66975 1.61651 0
M  V30 13977 N 1337.68 -0.524672 1.4861 0
M  V30 13978 C 1338.91 -1.30482 1.60568 0
M  V30 13979 C 1339.32 -1.86889 0.267952 0
M  V30 13980 O 1338.68 -1.66669 -0.743488 0
M  V30 13981 C 1338.73 -2.45191 2.65638 0
M  V30 13982 O 1338.45 -1.91107 3.9422 0
M  V30 13983 C 1339.95 -3.36931 2.88084 0
M  V30 13984 H 1337.17 -0.396612 0.541239 0
M  V30 13985 H 1339.72 -0.632392 1.94476 0
M  V30 13986 H 1337.87 -3.08308 2.34574 0
M  V30 13987 H 1338.29 -2.66234 4.51907 0
M  V30 13988 H 1339.76 -4.13755 3.65391 0
M  V30 13989 H 1340.24 -3.92487 1.97106 0
M  V30 13990 H 1340.84 -2.79601 3.20473 0
M  V30 13991 N 1339.16 -1.37287 -0.77395 0
M  V30 13992 C 1340.4 -1.33577 -1.53391 0
M  V30 13993 C 1340.76 0.0798979 -1.92234 0
M  V30 13994 O 1340.05 1.03803 -1.61045 0
M  V30 13995 C 1340.25 -2.20667 -2.81142 0
M  V30 13996 C 1340.08 -3.70559 -2.54786 0
M  V30 13997 C 1338.85 -4.39675 -2.49025 0
M  V30 13998 C 1341.04 -4.63472 -2.22932 0
M  V30 13999 N 1339.03 -5.75121 -2.14729 0
M  V30 14000 C 1340.4 -5.87279 -1.98756 0
M  V30 14001 C 1342.45 -4.51879 -2.09068 0
M  V30 14002 C 1341.15 -7.00793 -1.62117 0
M  V30 14003 C 1343.18 -5.65276 -1.7383 0
M  V30 14004 C 1342.54 -6.88132 -1.50513 0
M  V30 14005 H 1338.64 -0.544075 -0.561699 0
M  V30 14006 H 1341.23 -1.72487 -0.903115 0
M  V30 14007 H 1339.4 -1.83976 -3.42063 0
M  V30 14008 H 1341.13 -2.08231 -3.47019 0
M  V30 14009 H 1337.88 -3.92653 -2.64804 0
M  V30 14010 H 1338.31 -6.46696 -2.00284 0
M  V30 14011 H 1342.95 -3.57468 -2.25779 0
M  V30 14012 H 1340.67 -7.9514 -1.44145 0
M  V30 14013 H 1344.25 -5.58276 -1.63765 0
M  V30 14014 H 1343.13 -7.74391 -1.23648 0
M  V30 14015 N 1340.64 0.999871 -1.21821 0
M  V30 14016 C 1341.91 1.71135 -0.947213 0
M  V30 14017 C 1342.29 2.04087 0.539601 0
M  V30 14018 O 1341.64 1.71866 1.5058 0
M  V30 14019 C 1341.85 2.96704 -1.8376 0
M  V30 14020 C 1343.2 3.69627 -2.08952 0
M  V30 14021 O 1344.22 3.06697 -1.81151 0
M  V30 14022 O 1343.08 4.82832 -2.55999 0
M  V30 14023 H 1340.18 0.746631 -0.355628 0
M  V30 14024 H 1342.72 1.05684 -1.32774 0
M  V30 14025 H 1341.49 2.68802 -2.84361 0
M  V30 14026 H 1341.12 3.69894 -1.45821 0
M  V30 14027 N 1342.11 1.02678 1.19562 0
M  V30 14028 C 1343.53 0.743467 1.41226 0
M  V30 14029 C 1343.73 -0.672786 1.89936 0
M  V30 14030 O 1342.79 -1.43908 2.07477 0
M  V30 14031 C 1344.1 1.77781 2.42517 0
M  V30 14032 C 1345.65 1.79711 2.56267 0
M  V30 14033 C 1346.12 2.82099 3.60811 0
M  V30 14034 N 1347.61 2.80902 3.68304 0
M  V30 14035 C 1348.35 3.5678 4.48882 0
M  V30 14036 N 1347.84 4.42367 5.33182 0
M  V30 14037 N 1349.64 3.45331 4.43512 0
M  V30 14038 H 1341.79 1.94094 0.862635 0
M  V30 14039 H 1344.05 0.839015 0.441313 0
M  V30 14040 H 1343.76 2.79295 2.13745 0
M  V30 14041 H 1343.63 1.59836 3.41661 0
M  V30 14042 H 1346.02 0.788756 2.84364 0
M  V30 14043 H 1346.1 2.01731 1.57284 0
M  V30 14044 H 1345.74 3.83104 3.33457 0
M  V30 14045 H 1345.67 2.57338 4.5944 0
M  V30 14046 H 1348.16 2.18826 3.08097 0
M  V30 14047 H 1348.48 4.97008 5.9178 0
M  V30 14048 H 1346.82 4.4644 5.3265 0
M  V30 14049 H 1350.01 2.77883 3.76695 0
M  V30 14050 H 1350.19 4.04718 5.06071 0
M  V30 14051 N 1343.59 -1.35528 0.804364 0
M  V30 14052 C 1344.87 -1.93175 0.307049 0
M  V30 14053 C 1345.25 -1.73466 -1.20303 0
M  V30 14054 O 1344.6 -1.10235 -2.00151 0
M  V30 14055 C 1344.81 -3.41576 0.716018 0
M  V30 14056 C 1346.16 -4.18719 0.704242 0
M  V30 14057 O 1347.18 -3.50081 0.657423 0
M  V30 14058 O 1346.04 -5.41181 0.760601 0
M  V30 14059 H 1343.13 -0.823142 0.0797888 0
M  V30 14060 H 1345.68 -1.44617 0.887912 0
M  V30 14061 H 1344.45 -3.49642 1.75688 0
M  V30 14062 H 1344.07 -3.97448 0.109843 0
M  V30 14063 N 1345.07 -0.557671 -1.47404 0
M  V30 14064 C 1346.02 0.202834 -2.31714 0
M  V30 14065 C 1347.01 0.908873 -1.42954 0
M  V30 14066 O 1348.22 0.830106 -1.59716 0
M  V30 14067 H 1344.59 0.0842824 -0.747262 0
M  V30 14068 H 1346.57 -0.527431 -2.93702 0
M  V30 14069 C 1345.31 1.21937 -3.25617 0
M  V30 14070 H 1344.64 0.685506 -3.93879 0
M  V30 14071 H 1346.08 1.72237 -3.87441 0
M  V30 14072 C 1344.54 2.26748 -2.49173 0
M  V30 14073 O 1345.07 3.33681 -2.23651 0
M  V30 14074 N 1343.27 2.00687 -2.10174 0
M  V30 14075 H 1342.82 1.13741 -2.3113 0
M  V30 14076 H 1342.78 2.71031 -1.59342 0
M  V30 14077 N 1346.55 1.54831 -0.294147 0
M  V30 14078 C 1347.8 2.00001 0.317135 0
M  V30 14079 C 1348.12 1.18256 1.54421 0
M  V30 14080 O 1347.38 0.245035 1.9416 0
M  V30 14081 C 1347.68 3.4997 0.72495 0
M  V30 14082 C 1347.34 4.49126 -0.399616 0
M  V30 14083 C 1346.01 4.75958 -0.708354 0
M  V30 14084 C 1348.36 5.08208 -1.15644 0
M  V30 14085 C 1345.69 5.59137 -1.77716 0
M  V30 14086 C 1348.04 5.9255 -2.21512 0
M  V30 14087 C 1346.7 6.17695 -2.52999 0
M  V30 14088 H 1345.97 0.731856 0.116048 0
M  V30 14089 H 1348.62 1.87019 -0.41182 0
M  V30 14090 H 1346.92 3.60526 1.53388 0
M  V30 14091 H 1348.62 3.82341 1.20898 0
M  V30 14092 H 1345.21 4.28341 -0.148877 0
M  V30 14093 H 1349.4 4.87486 -0.931178 0
M  V30 14094 H 1344.65 5.76859 -2.02592 0
M  V30 14095 H 1348.83 6.37359 -2.80617 0
M  V30 14096 H 1346.45 6.81939 -3.35951 0
M  V30 14097 N 1348.03 0.0217466 1.57585 0
M  V30 14098 C 1348.97 -0.962559 2.0977 0
M  V30 14099 C 1349.94 -1.32771 0.998053 0
M  V30 14100 O 1351.13 -1.42231 1.27181 0
M  V30 14101 C 1348.27 -2.24214 2.62339 0
M  V30 14102 C 1347.38 -1.9341 3.86286 0
M  V30 14103 C 1346.52 -3.15609 4.27275 0
M  V30 14104 C 1345.56 -2.8059 5.43999 0
M  V30 14105 N 1344.69 -3.95392 5.8018 0
M  V30 14106 H 1349.53 -0.510626 2.93593 0
M  V30 14107 H 1347.07 -0.240456 1.45121 0
M  V30 14108 H 1349.03 -2.99049 2.90905 0
M  V30 14109 H 1347.66 -2.67037 1.81358 0
M  V30 14110 H 1346.71 -1.08849 3.64494 0
M  V30 14111 H 1348.02 -1.63614 4.71203 0
M  V30 14112 H 1347.18 -3.9877 4.57239 0
M  V30 14113 H 1345.92 -3.48561 3.41111 0
M  V30 14114 H 1344.92 -1.9584 5.13738 0
M  V30 14115 H 1346.15 -2.48863 6.31858 0
M  V30 14116 H 1344.09 -4.282 4.96971 0
M  V30 14117 H 1344.01 -3.69195 6.59721 0
M  V30 14118 H 1345.28 -4.79279 6.14746 0
M  V30 14119 N 1349.51 -1.55583 -0.251311 0
M  V30 14120 C 1350.75 -1.77209 -0.979966 0
M  V30 14121 C 1351.08 -0.585279 -1.85485 0
M  V30 14122 O 1350.34 0.431559 -1.90882 0
M  V30 14123 C 1350.63 -3.04291 -1.87461 0
M  V30 14124 C 1350.3 -4.35844 -1.15545 0
M  V30 14125 C 1348.96 -4.71594 -0.956679 0
M  V30 14126 C 1351.31 -5.17189 -0.645381 0
M  V30 14127 C 1348.64 -5.86227 -0.235465 0
M  V30 14128 C 1350.99 -6.32569 0.0623441 0
M  V30 14129 C 1349.66 -6.66943 0.272634 0
M  V30 14130 H 1348.93 -0.648452 -0.358595 0
M  V30 14131 H 1351.58 -1.89856 -0.250423 0
M  V30 14132 H 1349.88 -2.86637 -2.67108 0
M  V30 14133 H 1351.58 -3.18221 -2.44001 0
M  V30 14134 H 1348.17 -4.07757 -1.32031 0
M  V30 14135 H 1352.35 -4.90028 -0.786505 0
M  V30 14136 H 1347.61 -6.11369 -0.0620232 0
M  V30 14137 H 1351.78 -6.94844 0.465234 0
M  V30 14138 H 1349.41 -7.55617 0.833442 0
M  V30 14139 N 1350.98 0.516783 -1.48886 0
M  V30 14140 C 1352.23 1.26841 -1.56825 0
M  V30 14141 C 1352.55 1.93957 -0.252998 0
M  V30 14142 O 1353.75 2.70681 -0.210765 0
M  V30 14143 C 1352.21 2.30223 -2.76633 0
M  V30 14144 C 1351.82 1.69117 -4.14853 0
M  V30 14145 C 1353.56 3.06313 -2.93893 0
M  V30 14146 C 1351.47 2.70516 -5.25904 0
M  V30 14147 H 1350.4 0.477087 -0.58387 0
M  V30 14148 H 1353.05 0.544187 -1.75245 0
M  V30 14149 H 1351.43 3.05739 -2.51674 0
M  V30 14150 H 1352.6 0.997003 -4.49885 0
M  V30 14151 H 1350.92 1.05473 -4.0282 0
M  V30 14152 H 1353.52 3.8211 -3.74027 0
M  V30 14153 H 1353.86 3.62976 -2.03848 0
M  V30 14154 H 1354.39 2.37911 -3.18815 0
M  V30 14155 H 1351.13 2.18655 -6.17956 0
M  V30 14156 H 1350.65 3.38221 -4.95345 0
M  V30 14157 H 1352.33 3.3325 -5.54575 0
M  V30 14158 N 1352.46 1.37696 0.766659 0
M  V30 14159 C 1353.87 1.29668 1.34324 0
M  V30 14160 C 1354.22 -0.0534297 1.96127 0
M  V30 14161 O 1353.35 -0.95534 1.94171 0
M  V30 14162 C 1353.94 2.34818 2.44225 0
M  V30 14163 C 1352.5 2.3041 2.97638 0
M  V30 14164 C 1351.65 2.18378 1.70899 0
M  V30 14165 H 1354.6 1.48244 0.566526 0
M  V30 14166 H 1354.62 1.99778 3.23835 0
M  V30 14167 H 1354.13 3.3307 1.99214 0
M  V30 14168 H 1352.23 1.35698 3.47011 0
M  V30 14169 H 1352.35 3.24028 3.52906 0
M  V30 14170 H 1350.71 1.65008 1.94021 0
M  V30 14171 H 1351.49 3.18551 1.27985 0
M  V30 14172 N 1353.94 -0.993397 1.22349 0
M  V30 14173 C 1355.22 -1.7063 0.956275 0
M  V30 14174 C 1355.6 -2.0437 -0.52877 0
M  V30 14175 O 1354.94 -1.72662 -1.49667 0
M  V30 14176 C 1355.15 -2.95725 1.85331 0
M  V30 14177 C 1356.5 -3.68514 2.10909 0
M  V30 14178 O 1357.53 -3.05732 1.82775 0
M  V30 14179 O 1356.39 -4.81468 2.58556 0
M  V30 14180 H 1353.48 -0.744734 0.359583 0
M  V30 14181 H 1356.03 -1.04979 1.33333 0
M  V30 14182 H 1354.8 -2.6729 2.85782 0
M  V30 14183 H 1354.42 -3.69116 1.47781 0
M  V30 14184 N 1355.42 -1.03311 -1.19015 0
M  V30 14185 C 1356.35 -0.575655 -2.21853 0
M  V30 14186 C 1357.36 0.350705 -1.58978 0
M  V30 14187 O 1358.55 0.146425 -1.77898 0
M  V30 14188 C 1355.65 0.179949 -3.38422 0
M  V30 14189 C 1354.82 -0.752403 -4.3088 0
M  V30 14190 C 1353.88 -0.0414484 -5.26184 0
M  V30 14191 O 1352.91 -0.669403 -5.6525 0
M  V30 14192 N 1354.11 1.22783 -5.67366 0
M  V30 14193 H 1356.88 -1.46013 -2.61726 0
M  V30 14194 H 1354.44 -0.912655 -1.33724 0
M  V30 14195 H 1356.43 0.66522 -3.99195 0
M  V30 14196 H 1355 0.965879 -2.97304 0
M  V30 14197 H 1354.22 -1.41768 -3.67825 0
M  V30 14198 H 1355.51 -1.38592 -4.89561 0
M  V30 14199 H 1354.91 1.75867 -5.37668 0
M  V30 14200 H 1353.46 1.65752 -6.30372 0
M  V30 14201 N 1356.9 1.35099 -0.81154 0
M  V30 14202 C 1357.81 2.33499 -0.22705 0
M  V30 14203 C 1358.82 1.62095 0.632562 0
M  V30 14204 O 1360 1.93938 0.543147 0
M  V30 14205 C 1357.06 3.41279 0.610687 0
M  V30 14206 C 1356.12 4.2845 -0.269994 0
M  V30 14207 C 1355.36 5.31083 0.527854 0
M  V30 14208 O 1355.58 5.42499 1.76213 0
M  V30 14209 O 1354.51 6.01842 -0.083862 0
M  V30 14210 H 1358.34 2.85294 -1.04119 0
M  V30 14211 H 1355.92 1.37957 -0.573432 0
M  V30 14212 H 1357.81 4.07121 1.08768 0
M  V30 14213 H 1356.48 2.91746 1.40235 0
M  V30 14214 H 1355.39 3.65572 -0.794234 0
M  V30 14215 H 1356.72 4.81394 -1.02572 0
M  V30 14216 N 1358.37 0.56548 1.47106 0
M  V30 14217 C 1359.34 -0.167191 2.28589 0
M  V30 14218 C 1360.34 -0.835005 1.3742 0
M  V30 14219 O 1361.53 -0.689598 1.59969 0
M  V30 14220 C 1358.66 -1.24548 3.17333 0
M  V30 14221 H 1359.85 0.548677 2.94838 0
M  V30 14222 H 1357.4 0.322749 1.52931 0
M  V30 14223 H 1358.14 -1.99348 2.55794 0
M  V30 14224 H 1357.92 -0.771335 3.84438 0
M  V30 14225 H 1359.41 -1.75985 3.78707 0
M  V30 14226 N 1359.85 -1.54672 0.302354 0
M  V30 14227 C 1361.26 -1.85731 -0.190019 0
M  V30 14228 C 1361.61 -1.22427 -1.53317 0
M  V30 14229 O 1360.74 -0.522461 -2.09998 0
M  V30 14230 C 1361.33 -3.36971 -0.351562 0
M  V30 14231 C 1359.89 -3.68056 -0.788155 0
M  V30 14232 C 1359.04 -2.7711 0.102705 0
M  V30 14233 H 1361.99 -1.49823 0.523324 0
M  V30 14234 H 1362.01 -3.61547 -1.18592 0
M  V30 14235 H 1361.52 -3.83016 0.626152 0
M  V30 14236 H 1359.63 -3.2753 -1.77637 0
M  V30 14237 H 1359.74 -4.75244 -0.606604 0
M  V30 14238 H 1358.1 -2.51243 -0.418235 0
M  V30 14239 H 1358.89 -3.25975 1.0768 0
M  V30 14240 N 1361.33 -0.0301034 -1.57571 0
M  V30 14241 C 1362.56 0.662045 -1.9655 0
M  V30 14242 C 1362.98 1.64811 -0.906581 0
M  V30 14243 O 1362.34 1.80816 0.132415 0
M  V30 14244 C 1362.39 1.34389 -3.34622 0
M  V30 14245 O 1361.49 2.45919 -3.31056 0
M  V30 14246 H 1360.83 0.173842 -0.640839 0
M  V30 14247 H 1363.36 -0.092248 -2.04392 0
M  V30 14248 H 1363.37 1.70045 -3.70875 0
M  V30 14249 H 1362.05 0.621092 -4.11236 0
M  V30 14250 H 1360.62 2.12367 -3.06521 0
M  V30 14251 N 1362.81 1.55714 0.243056 0
M  V30 14252 C 1363.76 1.90638 1.30099 0
M  V30 14253 C 1364.73 0.761049 1.47639 0
M  V30 14254 O 1365.91 1.01505 1.61559 0
M  V30 14255 C 1363.05 2.20985 2.65065 0
M  V30 14256 C 1362.16 3.48343 2.55501 0
M  V30 14257 C 1361.3 3.68241 3.82847 0
M  V30 14258 C 1360.34 4.89187 3.67916 0
M  V30 14259 N 1359.47 5.05586 4.87162 0
M  V30 14260 H 1364.31 2.80857 0.996155 0
M  V30 14261 H 1361.85 1.39027 0.480619 0
M  V30 14262 H 1363.81 2.36585 3.43632 0
M  V30 14263 H 1362.44 1.33966 2.93689 0
M  V30 14264 H 1361.49 3.41054 1.68483 0
M  V30 14265 H 1362.8 4.37057 2.4038 0
M  V30 14266 H 1361.96 3.83822 4.69857 0
M  V30 14267 H 1360.7 2.77768 4.00869 0
M  V30 14268 H 1359.7 4.7358 2.79289 0
M  V30 14269 H 1360.93 5.81124 3.51385 0
M  V30 14270 H 1358.87 4.18051 5.05538 0
M  V30 14271 H 1358.79 5.88395 4.74686 0
M  V30 14272 H 1360.06 5.25582 5.7566 0
M  V30 14273 N 1364.29 -0.50888 1.49158 0
M  V30 14274 C 1365.22 -1.62869 1.5984 0
M  V30 14275 C 1366.2 -1.56312 0.447809 0
M  V30 14276 O 1367.38 -1.76482 0.662292 0
M  V30 14277 C 1364.51 -3.01356 1.54603 0
M  V30 14278 C 1363.55 -3.26202 2.74763 0
M  V30 14279 S 1364.39 -3.10178 4.3652 0
M  V30 14280 C 1365.54 -4.51075 4.33915 0
M  V30 14281 H 1365.78 -1.53562 2.5457 0
M  V30 14282 H 1363.31 -0.693448 1.37952 0
M  V30 14283 H 1365.27 -3.81215 1.52267 0
M  V30 14284 H 1363.93 -3.08085 0.611737 0
M  V30 14285 H 1363.12 -4.27281 2.67296 0
M  V30 14286 H 1362.72 -2.54052 2.7447 0
M  V30 14287 H 1365.02 -5.4301 4.05149 0
M  V30 14288 H 1365.96 -4.63593 5.35245 0
M  V30 14289 H 1366.37 -4.31385 3.64097 0
M  V30 14290 N 1365.76 -1.381 -0.759346 0
M  V30 14291 C 1367.04 -1.24517 -1.50847 0
M  V30 14292 C 1367.42 0.155929 -2.10523 0
M  V30 14293 O 1366.77 1.16485 -1.96579 0
M  V30 14294 C 1366.98 -2.35086 -2.57945 0
M  V30 14295 C 1368.33 -2.73232 -3.25007 0
M  V30 14296 O 1369.35 -2.34355 -2.68247 0
M  V30 14297 O 1368.21 -3.40254 -4.27656 0
M  V30 14298 H 1365.3 -0.486599 -0.668693 0
M  V30 14299 H 1367.85 -1.49913 -0.795249 0
M  V30 14300 H 1366.62 -3.28858 -2.12056 0
M  V30 14301 H 1366.25 -2.11222 -3.36854 0
M  V30 14302 N 1367.24 0.986894 -1.22875 0
M  V30 14303 C 1368.49 1.72985 -1.05849 0
M  V30 14304 C 1368.82 1.89939 0.404594 0
M  V30 14305 O 1368.1 1.44693 1.29978 0
M  V30 14306 C 1368.38 3.13193 -1.77714 0
M  V30 14307 C 1368.23 3.0385 -3.31655 0
M  V30 14308 C 1369.55 4.12486 -1.53438 0
M  V30 14309 H 1366.67 0.627877 -0.385926 0
M  V30 14310 H 1369.31 1.14936 -1.51294 0
M  V30 14311 H 1367.46 3.62751 -1.39083 0
M  V30 14312 H 1369.13 2.61866 -3.79768 0
M  V30 14313 H 1367.38 2.4051 -3.61023 0
M  V30 14314 H 1368.05 4.03092 -3.77122 0
M  V30 14315 H 1370.52 3.71709 -1.87007 0
M  V30 14316 H 1369.4 5.08694 -2.06207 0
M  V30 14317 H 1369.66 4.39613 -0.468294 0
M  V30 14318 N 1368.72 1.0394 1.18466 0
M  V30 14319 C 1369.97 0.740576 1.88042 0
M  V30 14320 C 1370.29 -0.733822 1.80666 0
M  V30 14321 O 1369.56 -1.52943 1.22414 0
M  V30 14322 H 1368.14 0.270949 0.696129 0
M  V30 14323 H 1370.8 1.31588 1.43772 0
M  V30 14324 H 1369.9 1.04429 2.94111 0
M  V30 14325 N 1370.2 -1.34667 0.818693 0
M  V30 14326 C 1371.48 -1.92838 0.327521 0
M  V30 14327 C 1371.86 -1.74732 -1.18457 0
M  V30 14328 O 1371.2 -1.12352 -1.98971 0
M  V30 14329 C 1371.41 -3.40797 0.752207 0
M  V30 14330 C 1372.76 -4.17948 0.748613 0
M  V30 14331 O 1373.79 -3.49364 0.694517 0
M  V30 14332 O 1372.64 -5.40344 0.817958 0
M  V30 14333 H 1369.74 -0.822249 0.0885148 0
M  V30 14334 H 1372.28 -1.43668 0.9032 0
M  V30 14335 H 1371.06 -3.47759 1.79387 0
M  V30 14336 H 1370.68 -3.97309 0.151992 0
M  V30 14337 N 1371.68 -0.573274 -1.46804 0
M  V30 14338 C 1372.92 -0.0551522 -2.02025 0
M  V30 14339 C 1373.25 1.30577 -1.44826 0
M  V30 14340 O 1372.52 1.85514 -0.629403 0
M  V30 14341 H 1371.1 -0.0173982 -0.746797 0
M  V30 14342 H 1373.76 -0.746919 -1.8002 0
M  V30 14343 H 1372.85 0.0209326 -3.12093 0
M  V30 14344 N 1373.15 1.5451 -0.310553 0
M  V30 14345 C 1374.38 2.04442 0.297807 0
M  V30 14346 C 1374.79 1.18695 1.47337 0
M  V30 14347 O 1374.14 0.207405 1.82525 0
M  V30 14348 C 1374.2 3.50306 0.807851 0
M  V30 14349 C 1373.86 4.5635 -0.24369 0
M  V30 14350 C 1374.86 5.08656 -1.07539 0
M  V30 14351 C 1372.54 5.00798 -0.388138 0
M  V30 14352 C 1374.54 6.03961 -2.03738 0
M  V30 14353 C 1372.22 5.95921 -1.35357 0
M  V30 14354 C 1373.22 6.47387 -2.17667 0
M  V30 14355 O 1372.91 7.40644 -3.12571 0
M  V30 14356 H 1372.64 0.672646 0.0672525 0
M  V30 14357 H 1375.2 2.00389 -0.450948 0
M  V30 14358 H 1373.43 3.51714 1.6073 0
M  V30 14359 H 1375.12 3.83383 1.33314 0
M  V30 14360 H 1375.88 4.75105 -0.97471 0
M  V30 14361 H 1371.76 4.60361 0.242608 0
M  V30 14362 H 1375.3 6.44057 -2.68023 0
M  V30 14363 H 1371.2 6.2889 -1.45493 0
M  V30 14364 H 1371.97 7.58477 -3.0766 0
M  V30 14365 N 1374.63 0.0384594 1.57553 0
M  V30 14366 C 1375.56 -0.938444 2.13812 0
M  V30 14367 C 1376.54 -1.33307 1.05657 0
M  V30 14368 O 1377.73 -1.41003 1.33535 0
M  V30 14369 C 1374.86 -2.21764 2.67279 0
M  V30 14370 C 1373.81 -1.96347 3.80305 0
M  V30 14371 C 1373.14 -3.30612 4.20238 0
M  V30 14372 C 1374.44 -1.2952 5.05986 0
M  V30 14373 H 1376.13 -0.469887 2.9569 0
M  V30 14374 H 1373.68 -0.224576 1.42238 0
M  V30 14375 H 1375.63 -2.90493 3.05273 0
M  V30 14376 H 1374.36 -2.70802 1.82576 0
M  V30 14377 H 1373.02 -1.30033 3.42764 0
M  V30 14378 H 1372.66 -3.77427 3.32502 0
M  V30 14379 H 1372.36 -3.14409 4.96408 0
M  V30 14380 H 1373.89 -4.00594 4.60822 0
M  V30 14381 H 1375.3 -1.88264 5.41507 0
M  V30 14382 H 1373.7 -1.23685 5.87216 0
M  V30 14383 H 1374.77 -0.269439 4.84151 0
M  V30 14384 N 1376.11 -1.55841 -0.234795 0
M  V30 14385 C 1377.34 -1.82307 -0.978355 0
M  V30 14386 C 1377.75 -0.615825 -1.78474 0
M  V30 14387 O 1377.11 0.4156 -1.77705 0
M  V30 14388 C 1377.16 -3.07136 -1.90655 0
M  V30 14389 O 1376.88 -4.23202 -1.13278 0
M  V30 14390 C 1378.38 -3.46492 -2.76511 0
M  V30 14391 H 1375.6 -0.606361 -0.287345 0
M  V30 14392 H 1378.15 -2.02916 -0.254023 0
M  V30 14393 H 1376.3 -2.88542 -2.58501 0
M  V30 14394 H 1376.72 -4.94029 -1.76168 0
M  V30 14395 H 1378.19 -4.36908 -3.37366 0
M  V30 14396 H 1378.67 -2.67633 -3.48238 0
M  V30 14397 H 1379.27 -3.6748 -2.14099 0
M  V30 14398 N 1377.59 0.500963 -1.49426 0
M  V30 14399 C 1378.55 1.58478 -1.65582 0
M  V30 14400 C 1379.55 1.51897 -0.52762 0
M  V30 14401 O 1380.74 1.55049 -0.794071 0
M  V30 14402 C 1377.87 2.9813 -1.65322 0
M  V30 14403 H 1379.07 1.45483 -2.6225 0
M  V30 14404 H 1376.62 0.725199 -1.38458 0
M  V30 14405 H 1377.36 3.16602 -0.702384 0
M  V30 14406 H 1377.14 3.04315 -2.47255 0
M  V30 14407 H 1378.63 3.76874 -1.79878 0
M  V30 14408 N 1379.07 1.38501 0.752011 0
M  V30 14409 C 1379.98 1.38094 1.8965 0
M  V30 14410 C 1380.99 0.277851 1.71767 0
M  V30 14411 O 1382.17 0.516536 1.94663 0
M  V30 14412 C 1379.23 1.2063 3.25037 0
M  V30 14413 C 1378.3 2.40758 3.55435 0
M  V30 14414 C 1377.53 2.24118 4.84362 0
M  V30 14415 O 1377.75 1.23571 5.56854 0
M  V30 14416 O 1376.69 3.12741 5.14273 0
M  V30 14417 H 1380.51 2.34532 1.92947 0
M  V30 14418 H 1378.1 1.19437 0.897504 0
M  V30 14419 H 1379.98 1.12957 4.05979 0
M  V30 14420 H 1378.65 0.272785 3.22549 0
M  V30 14421 H 1377.56 2.54006 2.74648 0
M  V30 14422 H 1378.89 3.32745 3.62686 0
M  V30 14423 N 1380.55 -0.980364 1.23396 0
M  V30 14424 C 1381.77 -1.76223 1.09363 0
M  V30 14425 C 1382.2 -1.84801 -0.350759 0
M  V30 14426 O 1381.55 -1.30966 -1.2537 0
M  V30 14427 C 1381.6 -3.16728 1.72383 0
M  V30 14428 O 1380.71 -4.00439 0.986002 0
M  V30 14429 H 1380.05 -0.542174 0.383332 0
M  V30 14430 H 1382.58 -1.23066 1.6345 0
M  V30 14431 H 1382.59 -3.67307 1.77623 0
M  V30 14432 H 1381.26 -3.098 2.77483 0
M  V30 14433 H 1379.84 -3.58946 1.01054 0
M  V30 14434 N 1382.02 -1.04567 -1.17913 0
M  V30 14435 C 1383.27 -0.750538 -1.87647 0
M  V30 14436 C 1383.59 0.72423 -1.81052 0
M  V30 14437 O 1382.86 1.52292 -1.23223 0
M  V30 14438 H 1381.44 -0.274636 -0.694683 0
M  V30 14439 H 1384.1 -1.32349 -1.43072 0
M  V30 14440 H 1383.2 -1.05987 -2.93553 0
M  V30 14441 N 1383.5 1.34231 -0.825823 0
M  V30 14442 C 1384.43 2.31997 -0.264546 0
M  V30 14443 C 1385.41 1.58375 0.620592 0
M  V30 14444 O 1386.6 1.86341 0.546865 0
M  V30 14445 C 1383.73 3.42557 0.572025 0
M  V30 14446 C 1382.68 4.27454 -0.216219 0
M  V30 14447 C 1382.01 5.29509 0.743279 0
M  V30 14448 C 1383.31 5.02456 -1.42603 0
M  V30 14449 H 1385 2.79189 -1.08139 0
M  V30 14450 H 1382.55 1.34227 -0.521451 0
M  V30 14451 H 1384.5 4.09968 0.974889 0
M  V30 14452 H 1383.22 2.94021 1.42195 0
M  V30 14453 H 1381.88 3.61649 -0.600485 0
M  V30 14454 H 1381.53 4.77234 1.58924 0
M  V30 14455 H 1381.23 5.87188 0.220064 0
M  V30 14456 H 1382.76 5.99789 1.14394 0
M  V30 14457 H 1384.17 5.62706 -1.09702 0
M  V30 14458 H 1382.57 5.69723 -1.88509 0
M  V30 14459 H 1383.64 4.31983 -2.2027 0
M  V30 14460 N 1384.98 0.581051 1.46498 0
M  V30 14461 C 1386.23 0.0660934 2.02692 0
M  V30 14462 C 1386.56 -1.28985 1.45178 0
M  V30 14463 O 1385.83 -1.84479 0.616247 0
M  V30 14464 C 1386.12 -0.00145411 3.601 0
M  V30 14465 C 1385.97 1.38327 4.28002 0
M  V30 14466 C 1387.29 -0.702914 4.3445 0
M  V30 14467 H 1384.41 0.0254923 0.736559 0
M  V30 14468 H 1387.05 0.74793 1.7466 0
M  V30 14469 H 1385.2 -0.582118 3.84114 0
M  V30 14470 H 1386.87 2.00897 4.15257 0
M  V30 14471 H 1385.11 1.95144 3.87429 0
M  V30 14472 H 1385.79 1.28849 5.36751 0
M  V30 14473 H 1388.26 -0.209641 4.15572 0
M  V30 14474 H 1387.14 -0.719202 5.44168 0
M  V30 14475 H 1387.4 -1.76389 4.05388 0
M  V30 14476 N 1386.46 -1.54343 0.318742 0
M  V30 14477 C 1387.69 -2.04894 -0.287378 0
M  V30 14478 C 1388.1 -1.19514 -1.46157 0
M  V30 14479 O 1387.46 -0.224722 -1.81111 0
M  V30 14480 C 1387.51 -3.54124 -0.726505 0
M  V30 14481 O 1387.23 -4.36261 0.400968 0
M  V30 14482 C 1388.73 -4.20748 -1.39594 0
M  V30 14483 H 1385.95 -0.668323 -0.0598724 0
M  V30 14484 H 1388.49 -1.99177 0.463531 0
M  V30 14485 H 1386.65 -3.60145 -1.4274 0
M  V30 14486 H 1387.06 -5.2447 0.0558714 0
M  V30 14487 H 1388.54 -5.26632 -1.65418 0
M  V30 14488 H 1389.01 -3.71566 -2.3417 0
M  V30 14489 H 1389.62 -4.18852 -0.737749 0
M  V30 14490 N 1387.94 -0.0468143 -1.5753 0
M  V30 14491 C 1389.35 0.489509 -1.80169 0
M  V30 14492 C 1389.7 1.71184 -0.958669 0
M  V30 14493 O 1388.82 2.15699 -0.174025 0
M  V30 14494 C 1389.42 0.894838 -3.26769 0
M  V30 14495 C 1387.98 1.37617 -3.50341 0
M  V30 14496 C 1387.12 0.349275 -2.75092 0
M  V30 14497 H 1390.07 -0.272728 -1.56339 0
M  V30 14498 H 1390.1 1.75805 -3.3745 0
M  V30 14499 H 1389.61 0.00501096 -3.881 0
M  V30 14500 H 1387.71 2.28533 -2.94285 0
M  V30 14501 H 1387.82 1.37133 -4.59055 0
M  V30 14502 H 1386.19 0.821219 -2.41098 0
M  V30 14503 H 1386.97 -0.532391 -3.39147 0
M  V30 14504 N 1389.41 1.55964 0.226527 0
M  V30 14505 C 1390.69 1.69528 0.975689 0
M  V30 14506 C 1391.07 0.592635 2.02611 0
M  V30 14507 O 1390.42 -0.401073 2.24953 0
M  V30 14508 C 1390.63 3.10644 1.59063 0
M  V30 14509 C 1391.98 3.69895 2.08478 0
M  V30 14510 O 1393 3.13574 1.68966 0
M  V30 14511 O 1391.86 4.68672 2.81085 0
M  V30 14512 H 1388.95 0.690285 0.455451 0
M  V30 14513 H 1391.5 1.68285 0.218702 0
M  V30 14514 H 1390.27 3.82355 0.831903 0
M  V30 14515 H 1389.9 3.15984 2.41329 0
M  V30 14516 N 1390.89 -0.493031 1.4969 0
M  V30 14517 C 1392.14 -1.24418 1.59263 0
M  V30 14518 C 1392.46 -1.92908 0.284882 0
M  V30 14519 O 1391.73 -1.83108 -0.696302 0
M  V30 14520 H 1390.31 -0.462223 0.586821 0
M  V30 14521 H 1392.97 -0.570713 1.86357 0
M  V30 14522 H 1392.07 -2.00386 2.39274 0
M  V30 14523 N 1392.37 -1.38898 -0.744656 0
M  V30 14524 C 1393.79 -1.20291 -1.04892 0
M  V30 14525 C 1393.99 -0.0577705 -2.01417 0
M  V30 14526 O 1393.04 0.593638 -2.45422 0
M  V30 14527 C 1394.36 -2.53302 -1.62045 0
M  V30 14528 C 1395.9 -2.60063 -1.74173 0
M  V30 14529 C 1396.38 -3.93272 -2.34736 0
M  V30 14530 N 1397.87 -3.9486 -2.42157 0
M  V30 14531 C 1398.6 -4.94698 -2.89933 0
M  V30 14532 N 1398.1 -6.04934 -3.37678 0
M  V30 14533 N 1399.89 -4.82083 -2.89055 0
M  V30 14534 H 1392.04 -2.12144 -0.104294 0
M  V30 14535 H 1394.31 -0.941725 -0.108895 0
M  V30 14536 H 1394.01 -3.376 -0.985868 0
M  V30 14537 H 1393.89 -2.72335 -2.60986 0
M  V30 14538 H 1396.27 -1.76155 -2.36756 0
M  V30 14539 H 1396.36 -2.44889 -0.739115 0
M  V30 14540 H 1396 -4.77607 -1.72784 0
M  V30 14541 H 1395.93 -4.05762 -3.35656 0
M  V30 14542 H 1398.42 -3.15243 -2.08399 0
M  V30 14543 H 1398.73 -6.77036 -3.72616 0
M  V30 14544 H 1397.08 -6.08541 -3.35712 0
M  V30 14545 H 1400.27 -3.9507 -2.51072 0
M  V30 14546 H 1400.44 -5.60039 -3.25975 0
M  V30 14547 N 1393.85 0.973806 -1.23914 0
M  V30 14548 C 1395.08 1.75107 -1.10206 0
M  V30 14549 C 1395.49 1.85604 0.345935 0
M  V30 14550 O 1394.85 1.33996 1.239 0
M  V30 14551 C 1394.9 3.17466 -1.72909 0
M  V30 14552 O 1394.62 3.07504 -3.12047 0
M  V30 14553 C 1396.12 4.11557 -1.6473 0
M  V30 14554 H 1393.34 0.549318 -0.385345 0
M  V30 14555 H 1395.89 1.22301 -1.63898 0
M  V30 14556 H 1394.04 3.67277 -1.23234 0
M  V30 14557 H 1394.45 3.97169 -3.42575 0
M  V30 14558 H 1395.93 5.09126 -2.13295 0
M  V30 14559 H 1396.41 4.3498 -0.607352 0
M  V30 14560 H 1397.01 3.67653 -2.13802 0
M  V30 14561 N 1395.33 1.05191 1.17357 0
M  V30 14562 C 1396.57 0.763113 1.87895 0
M  V30 14563 C 1396.91 -0.708071 1.80831 0
M  V30 14564 O 1396.18 -1.51777 1.21631 0
M  V30 14565 C 1396.46 1.2442 3.37923 0
M  V30 14566 C 1396.32 2.77832 3.53737 0
M  V30 14567 C 1397.64 0.843209 4.31947 0
M  V30 14568 H 1394.75 0.27869 0.682276 0
M  V30 14569 H 1397.4 1.3059 1.38008 0
M  V30 14570 H 1395.55 0.782438 3.80539 0
M  V30 14571 H 1397.22 3.32131 3.20135 0
M  V30 14572 H 1395.46 3.17108 2.96015 0
M  V30 14573 H 1396.13 3.06555 4.59052 0
M  V30 14574 H 1398.61 1.24073 3.97171 0
M  V30 14575 H 1397.48 1.20743 5.35455 0
M  V30 14576 H 1397.75 -0.252802 4.41377 0
M  V30 14577 N 1396.8 -1.33791 0.83293 0
M  V30 14578 C 1398.05 -1.98266 0.426412 0
M  V30 14579 C 1398.38 -1.65848 -1.01035 0
M  V30 14580 O 1397.66 -0.93528 -1.70537 0
M  V30 14581 C 1397.94 -3.54356 0.640586 0
M  V30 14582 C 1397.79 -3.96482 2.12419 0
M  V30 14583 C 1399.11 -4.40022 0.0829237 0
M  V30 14584 H 1396.23 -0.720213 0.156404 0
M  V30 14585 H 1398.87 -1.58527 1.04735 0
M  V30 14586 H 1397.02 -3.88338 0.11204 0
M  V30 14587 H 1398.7 -3.72786 2.71714 0
M  V30 14588 H 1396.94 -3.46429 2.61092 0
M  V30 14589 H 1397.61 -5.05179 2.22482 0
M  V30 14590 H 1400.09 -4.12651 0.534634 0
M  V30 14591 H 1398.96 -5.48272 0.262511 0
M  V30 14592 H 1399.22 -4.30341 -1.01287 0
M  V30 14593 N 1398.28 -0.588812 -1.46187 0
M  V30 14594 C 1399.53 -0.076728 -2.02355 0
M  V30 14595 C 1399.86 1.28557 -1.45956 0
M  V30 14596 O 1399.11 1.85722 -0.616899 0
M  V30 14597 C 1399.41 0.0325249 -3.57385 0
M  V30 14598 C 1399.08 -1.26298 -4.32851 0
M  V30 14599 C 1397.74 -1.61789 -4.53186 0
M  V30 14600 C 1400.09 -2.12001 -4.76136 0
M  V30 14601 C 1397.42 -2.82771 -5.1406 0
M  V30 14602 C 1399.77 -3.32214 -5.38346 0
M  V30 14603 C 1398.44 -3.6798 -5.56908 0
M  V30 14604 H 1397.71 -0.0280768 -0.740468 0
M  V30 14605 H 1400.35 -0.766671 -1.75483 0
M  V30 14606 H 1398.66 0.805632 -3.83428 0
M  V30 14607 H 1400.35 0.444597 -3.98528 0
M  V30 14608 H 1396.94 -0.976692 -4.17323 0
M  V30 14609 H 1401.13 -1.85884 -4.60175 0
M  V30 14610 H 1396.38 -3.10611 -5.26622 0
M  V30 14611 H 1400.56 -3.98888 -5.70843 0
M  V30 14612 H 1398.19 -4.61815 -6.03846 0
M  V30 14613 N 1399.76 1.54172 -0.326923 0
M  V30 14614 C 1400.99 2.05512 0.279231 0
M  V30 14615 C 1401.41 1.20131 1.44741 0
M  V30 14616 O 1400.77 0.211191 1.80066 0
M  V30 14617 C 1400.82 3.53971 0.688263 0
M  V30 14618 O 1399.92 3.71516 1.79025 0
M  V30 14619 H 1399.26 0.662131 0.0497826 0
M  V30 14620 H 1401.79 1.98979 -0.476309 0
M  V30 14621 H 1401.8 3.96302 0.970002 0
M  V30 14622 H 1400.48 4.15568 -0.166132 0
M  V30 14623 H 1399.05 3.4109 1.50706 0
M  V30 14624 N 1401.24 0.0551678 1.57503 0
M  V30 14625 C 1402.17 -0.953348 2.07332 0
M  V30 14626 C 1403.15 -1.30148 0.974699 0
M  V30 14627 O 1404.33 -1.41366 1.24692 0
M  V30 14628 C 1401.46 -2.26622 2.51715 0
M  V30 14629 C 1400.51 -2.07085 3.72851 0
M  V30 14630 S 1401.34 -1.34553 5.1832 0
M  V30 14631 C 1402.5 -2.67155 5.6602 0
M  V30 14632 H 1402.73 -0.529294 2.9255 0
M  V30 14633 H 1400.26 -0.157196 1.53598 0
M  V30 14634 H 1402.22 -3.02085 2.77948 0
M  V30 14635 H 1400.88 -2.66155 1.66795 0
M  V30 14636 H 1400.07 -3.04206 4.01839 0
M  V30 14637 H 1399.68 -1.39761 3.46905 0
M  V30 14638 H 1401.97 -3.63309 5.7185 0
M  V30 14639 H 1402.91 -2.42798 6.65173 0
M  V30 14640 H 1403.32 -2.73597 4.93766 0
M  V30 14641 N 1402.72 -1.56081 -0.218252 0
M  V30 14642 C 1403.96 -1.79513 -0.943553 0
M  V30 14643 C 1404.3 -0.625367 -1.83855 0
M  V30 14644 O 1403.57 0.375226 -1.90846 0
M  V30 14645 C 1403.85 -3.13049 -1.77967 0
M  V30 14646 C 1403.71 -4.40479 -0.910939 0
M  V30 14647 C 1405.03 -3.43057 -2.7568 0
M  V30 14648 H 1402.14 -0.653057 -0.341593 0
M  V30 14649 H 1404.79 -1.88811 -0.212226 0
M  V30 14650 H 1402.94 -3.05254 -2.40318 0
M  V30 14651 H 1404.61 -4.60298 -0.303922 0
M  V30 14652 H 1402.85 -4.33259 -0.216513 0
M  V30 14653 H 1403.52 -5.3036 -1.53042 0
M  V30 14654 H 1406 -3.51002 -2.23465 0
M  V30 14655 H 1404.87 -4.37657 -3.31282 0
M  V30 14656 H 1405.14 -2.65389 -3.53584 0
M  V30 14657 N 1404.2 0.485086 -1.49949 0
M  V30 14658 C 1405.13 1.60191 -1.63926 0
M  V30 14659 C 1406.14 1.5423 -0.521256 0
M  V30 14660 O 1407.33 1.59872 -0.79392 0
M  V30 14661 C 1404.43 2.99035 -1.59472 0
M  V30 14662 C 1403.6 3.30014 -2.87071 0
M  V30 14663 C 1402.66 4.48345 -2.75451 0
M  V30 14664 O 1401.69 4.49342 -3.494 0
M  V30 14665 N 1402.89 5.49192 -1.88064 0
M  V30 14666 H 1405.65 1.48622 -2.60253 0
M  V30 14667 H 1403.22 0.673258 -1.47237 0
M  V30 14668 H 1405.21 3.76142 -1.4933 0
M  V30 14669 H 1403.78 3.04445 -0.709373 0
M  V30 14670 H 1403 2.41652 -3.11445 0
M  V30 14671 H 1404.29 3.47515 -3.71632 0
M  V30 14672 H 1403.68 5.51198 -1.2727 0
M  V30 14673 H 1402.24 6.25338 -1.83835 0
M  V30 14674 N 1405.67 1.39291 0.737279 0
M  V30 14675 C 1406.62 1.37969 1.87263 0
M  V30 14676 C 1407.62 0.263156 1.67344 0
M  V30 14677 O 1408.82 0.433069 1.74713 0
M  V30 14678 H 1405.2 0.430782 0.616385 0
M  V30 14679 H 1407.17 2.33741 1.85494 0
M  V30 14680 C 1405.92 1.23779 3.24922 0
M  V30 14681 H 1405.24 2.08963 3.40844 0
M  V30 14682 H 1406.68 1.26911 4.04561 0
M  V30 14683 C 1405.14 -0.0539778 3.36857 0
M  V30 14684 O 1405.67 -1.02501 3.88402 0
M  V30 14685 N 1403.87 -0.116275 2.90367 0
M  V30 14686 H 1403.42 0.674622 2.48609 0
M  V30 14687 H 1403.38 -0.980107 2.98733 0
M  V30 14688 N 1407.15 -0.967221 1.24429 0
M  V30 14689 C 1408.4 -1.71279 1.08588 0
M  V30 14690 C 1408.73 -1.90558 -0.374325 0
M  V30 14691 O 1408.01 -1.46742 -1.27659 0
M  V30 14692 C 1408.29 -3.10326 1.82674 0
M  V30 14693 C 1408.14 -2.98535 3.36447 0
M  V30 14694 C 1409.46 -4.09993 1.59981 0
M  V30 14695 H 1406.58 -0.621658 0.395867 0
M  V30 14696 H 1409.22 -1.12514 1.53103 0
M  V30 14697 H 1407.37 -3.60492 1.44836 0
M  V30 14698 H 1409.04 -2.55791 3.83886 0
M  V30 14699 H 1407.29 -2.34736 3.64803 0
M  V30 14700 H 1407.96 -3.97041 3.83487 0
M  V30 14701 H 1410.43 -3.68687 1.92897 0
M  V30 14702 H 1409.31 -5.05349 2.14274 0
M  V30 14703 H 1409.57 -4.38812 0.538173 0
M  V30 14704 N 1408.63 -1.05812 -1.16797 0
M  V30 14705 C 1410.05 -0.780649 -1.39205 0
M  V30 14706 C 1410.25 0.622191 -1.91653 0
M  V30 14707 O 1409.3 1.38357 -2.11219 0
M  V30 14708 C 1410.61 -1.84148 -2.37718 0
M  V30 14709 C 1412.16 -1.86442 -2.51413 0
M  V30 14710 C 1412.64 -2.91566 -3.53204 0
M  V30 14711 N 1414.13 -2.90568 -3.60727 0
M  V30 14712 C 1414.86 -3.68556 -4.39265 0
M  V30 14713 N 1414.36 -4.56348 -5.21266 0
M  V30 14714 N 1416.15 -3.56969 -4.342 0
M  V30 14715 H 1408.3 -1.96313 -0.810871 0
M  V30 14716 H 1410.57 -0.850421 -0.418913 0
M  V30 14717 H 1410.27 -2.84864 -2.06265 0
M  V30 14718 H 1410.15 -1.68838 -3.37303 0
M  V30 14719 H 1412.53 -0.863873 -2.82172 0
M  V30 14720 H 1412.61 -2.0583 -1.5188 0
M  V30 14721 H 1412.26 -3.91811 -3.23182 0
M  V30 14722 H 1412.19 -2.69429 -4.52455 0
M  V30 14723 H 1414.68 -2.26918 -3.02186 0
M  V30 14724 H 1414.99 -5.12523 -5.78394 0
M  V30 14725 H 1413.34 -4.60406 -5.20626 0
M  V30 14726 H 1416.53 -2.87772 -3.69195 0
M  V30 14727 H 1416.7 -4.17993 -4.95162 0
M  V30 14728 N 1410.11 1.33347 -0.840014 0
M  V30 14729 C 1411.34 2.01952 -0.449793 0
M  V30 14730 C 1411.75 1.63197 0.949317 0
M  V30 14731 O 1411.11 0.84589 1.61713 0
M  V30 14732 C 1411.16 3.57102 -0.562178 0
M  V30 14733 O 1410.88 3.94458 -1.90616 0
M  V30 14734 C 1412.38 4.42978 -0.169062 0
M  V30 14735 H 1409.6 0.646843 -0.178425 0
M  V30 14736 H 1412.14 1.70251 -1.1329 0
M  V30 14737 H 1410.3 3.87331 0.0730345 0
M  V30 14738 H 1410.71 4.89167 -1.8925 0
M  V30 14739 H 1412.19 5.51191 -0.298742 0
M  V30 14740 H 1412.66 4.30106 0.889137 0
M  V30 14741 H 1413.27 4.18109 -0.778756 0
M  V30 14742 N 1411.59 0.596556 1.45873 0
M  V30 14743 C 1413 0.173758 1.8589 0
M  V30 14744 C 1413.35 -1.26665 1.49835 0
M  V30 14745 O 1412.47 -1.9588 0.919773 0
M  V30 14746 C 1413.07 0.308567 3.37392 0
M  V30 14747 C 1411.63 -0.0594585 3.76353 0
M  V30 14748 C 1410.77 0.638127 2.69858 0
M  V30 14749 H 1413.72 0.803928 1.36831 0
M  V30 14750 H 1413.75 -0.462294 3.77681 0
M  V30 14751 H 1413.26 1.35701 3.63603 0
M  V30 14752 H 1411.36 -1.1075 3.5576 0
M  V30 14753 H 1411.47 0.326506 4.77986 0
M  V30 14754 H 1409.84 0.0769147 2.54584 0
M  V30 14755 H 1410.62 1.68849 2.98906 0
M  V30 14756 N 1413.06 -1.53996 0.335095 0
M  V30 14757 C 1414 -2.22258 -0.559809 0
M  V30 14758 C 1415.01 -1.22636 -1.07071 0
M  V30 14759 O 1416.2 -1.4904 -0.982312 0
M  V30 14760 C 1413.3 -2.88256 -1.78218 0
M  V30 14761 C 1412.47 -4.14118 -1.40801 0
M  V30 14762 C 1411.53 -4.63603 -2.48915 0
M  V30 14763 O 1410.56 -5.28015 -2.12576 0
M  V30 14764 N 1411.76 -4.3881 -3.80034 0
M  V30 14765 H 1414.52 -2.9969 0.0247521 0
M  V30 14766 H 1412.08 -1.61119 0.158826 0
M  V30 14767 H 1414.08 -3.1828 -2.4996 0
M  V30 14768 H 1412.65 -2.14461 -2.27431 0
M  V30 14769 H 1411.87 -3.90732 -0.521729 0
M  V30 14770 H 1413.15 -4.96005 -1.13388 0
M  V30 14771 H 1412.55 -3.87278 -4.12349 0
M  V30 14772 H 1411.11 -4.73461 -4.47971 0
M  V30 14773 N 1414.54 -0.0635198 -1.57472 0
M  V30 14774 C 1415.5 0.891881 -2.11135 0
M  V30 14775 C 1416.5 1.23182 -1.03358 0
M  V30 14776 O 1417.69 1.16646 -1.2938 0
M  V30 14777 C 1414.83 2.19792 -2.60584 0
M  V30 14778 H 1416.02 0.426461 -2.96852 0
M  V30 14779 H 1413.57 0.185069 -1.552 0
M  V30 14780 H 1414.31 2.70889 -1.78297 0
M  V30 14781 H 1414.09 1.96419 -3.39355 0
M  V30 14782 H 1415.58 2.88203 -3.02206 0
M  V30 14783 N 1416.02 1.56195 0.209972 0
M  V30 14784 C 1416.93 1.96539 1.28101 0
M  V30 14785 C 1417.95 0.870858 1.50639 0
M  V30 14786 O 1419.12 1.17539 1.63544 0
M  V30 14787 C 1416.19 2.28392 2.60841 0
M  V30 14788 C 1415.25 3.51474 2.46505 0
M  V30 14789 C 1414.48 3.81798 3.72915 0
M  V30 14790 O 1414.7 3.13627 4.76439 0
M  V30 14791 O 1413.64 4.75264 3.69334 0
M  V30 14792 H 1417.46 2.87838 0.968671 0
M  V30 14793 H 1415.05 1.43556 0.413777 0
M  V30 14794 H 1416.93 2.50022 3.39215 0
M  V30 14795 H 1415.61 1.40264 2.91732 0
M  V30 14796 H 1414.51 3.35109 1.66292 0
M  V30 14797 H 1415.85 4.40021 2.2055 0
M  V30 14798 N 1417.5 -0.477127 1.50204 0
M  V30 14799 C 1418.73 -1.25126 1.64399 0
M  V30 14800 C 1419.14 -1.86401 0.32424 0
M  V30 14801 O 1418.48 -1.69711 -0.703119 0
M  V30 14802 C 1418.54 -2.40428 2.67273 0
M  V30 14803 C 1418.2 -1.99837 4.10992 0
M  V30 14804 C 1419.2 -1.52435 4.97051 0
M  V30 14805 C 1416.89 -2.08742 4.56872 0
M  V30 14806 C 1418.88 -1.14472 6.27037 0
M  V30 14807 C 1416.57 -1.70391 5.86865 0
M  V30 14808 C 1417.57 -1.23333 6.71772 0
M  V30 14809 O 1417.25 -0.855111 7.99339 0
M  V30 14810 H 1416.99 -0.384801 0.555791 0
M  V30 14811 H 1419.54 -0.576654 1.97139 0
M  V30 14812 H 1417.77 -3.1104 2.29763 0
M  V30 14813 H 1419.46 -3.02406 2.7075 0
M  V30 14814 H 1420.22 -1.44981 4.62823 0
M  V30 14815 H 1416.1 -2.44319 3.90934 0
M  V30 14816 H 1419.65 -0.776712 6.93263 0
M  V30 14817 H 1415.54 -1.77501 6.20615 0
M  V30 14818 H 1416.31 -0.984492 8.12558 0
M  V30 14819 N 1418.98 -1.3968 -0.729882 0
M  V30 14820 C 1419.91 -1.34713 -1.85432 0
M  V30 14821 C 1420.92 -0.254999 -1.60791 0
M  V30 14822 O 1422.11 -0.514324 -1.7093 0
M  V30 14823 C 1419.21 -1.07019 -3.21559 0
M  V30 14824 C 1418.38 -2.27609 -3.73515 0
M  V30 14825 C 1417.44 -1.96292 -4.88217 0
M  V30 14826 O 1416.47 -2.69025 -5.01612 0
M  V30 14827 N 1417.67 -0.932181 -5.72967 0
M  V30 14828 H 1420.44 -2.31616 -1.90195 0
M  V30 14829 H 1418 -1.33849 -0.910834 0
M  V30 14830 H 1419.99 -0.84079 -3.9587 0
M  V30 14831 H 1418.56 -0.188323 -3.12032 0
M  V30 14832 H 1417.78 -2.66468 -2.90497 0
M  V30 14833 H 1419.07 -3.08033 -4.04961 0
M  V30 14834 H 1418.46 -0.329507 -5.6474 0
M  V30 14835 H 1417.02 -0.762684 -6.47322 0
M  V30 14836 N 1420.45 0.960609 -1.2494 0
M  V30 14837 C 1421.68 1.7446 -1.12153 0
M  V30 14838 C 1422.1 1.85335 0.321315 0
M  V30 14839 O 1421.46 1.32944 1.23271 0
M  V30 14840 C 1421.51 3.13945 -1.774 0
M  V30 14841 O 1420.61 3.9882 -1.04958 0
M  V30 14842 H 1419.96 0.536007 -0.391909 0
M  V30 14843 H 1422.49 1.2045 -1.65388 0
M  V30 14844 H 1422.5 3.64434 -1.83444 0
M  V30 14845 H 1421.17 3.05346 -2.82377 0
M  V30 14846 H 1419.75 3.57293 -1.06752 0
M  V30 14847 N 1421.93 1.0643 1.16234 0
M  V30 14848 C 1423.18 0.780296 1.86429 0
M  V30 14849 C 1423.5 -0.695335 1.82181 0
M  V30 14850 O 1422.77 -1.50312 1.2563 0
M  V30 14851 H 1421.35 0.285654 0.690225 0
M  V30 14852 H 1424.01 1.34609 1.40949 0
M  V30 14853 H 1423.11 1.10644 2.91829 0
M  V30 14854 N 1423.41 -1.329 0.847073 0
M  V30 14855 C 1424.66 -1.98207 0.456672 0
M  V30 14856 C 1425.01 -1.65853 -0.975219 0
M  V30 14857 O 1424.3 -0.932413 -1.67382 0
M  V30 14858 C 1424.5 -3.51913 0.623845 0
M  V30 14859 C 1424.33 -3.99203 2.07043 0
M  V30 14860 C 1423.1 -4.26649 2.70737 0
M  V30 14861 C 1425.3 -4.14825 3.04014 0
M  V30 14862 N 1423.28 -4.60134 4.06386 0
M  V30 14863 C 1424.65 -4.51762 4.2463 0
M  V30 14864 C 1426.7 -3.97137 3.0031 0
M  V30 14865 C 1425.41 -4.72859 5.4203 0
M  V30 14866 C 1427.43 -4.19414 4.16948 0
M  V30 14867 C 1426.79 -4.56661 5.36321 0
M  V30 14868 H 1422.89 -0.751664 0.215696 0
M  V30 14869 H 1425.48 -1.60863 1.09687 0
M  V30 14870 H 1423.65 -3.88398 0.0133985 0
M  V30 14871 H 1425.38 -4.04185 0.204083 0
M  V30 14872 H 1422.14 -4.1844 2.21822 0
M  V30 14873 H 1422.56 -4.81074 4.76337 0
M  V30 14874 H 1427.2 -3.67449 2.09144 0
M  V30 14875 H 1424.92 -5.01405 6.33734 0
M  V30 14876 H 1428.51 -4.07239 4.15509 0
M  V30 14877 H 1427.39 -4.73554 6.25073 0
M  V30 14878 N 1424.89 -0.604284 -1.45555 0
M  V30 14879 C 1425.85 0.106526 -2.28952 0
M  V30 14880 C 1426.85 0.798277 -1.39586 0
M  V30 14881 O 1428.04 0.646943 -1.61741 0
M  V30 14882 C 1425.17 1.16091 -3.20524 0
M  V30 14883 H 1426.37 -0.626655 -2.9328 0
M  V30 14884 H 1423.92 -0.363183 -1.52022 0
M  V30 14885 H 1424.65 1.92496 -2.6099 0
M  V30 14886 H 1424.44 0.669137 -3.86348 0
M  V30 14887 H 1425.93 1.65882 -3.8324 0
M  V30 14888 N 1426.37 1.53816 -0.343257 0
M  V30 14889 C 1427.32 2.21763 0.529635 0
M  V30 14890 C 1428.3 1.20494 1.06631 0
M  V30 14891 O 1429.49 1.46041 1.00006 0
M  V30 14892 C 1426.62 2.99372 1.68022 0
M  V30 14893 C 1425.71 4.07999 1.1575 0
M  V30 14894 N 1426.1 5.04546 0.355979 0
M  V30 14895 C 1424.4 4.22304 1.43442 0
M  V30 14896 C 1425.1 5.81655 0.0723481 0
M  V30 14897 N 1424.07 5.39531 0.66391 0
M  V30 14898 H 1427.88 2.93763 -0.0898087 0
M  V30 14899 H 1425.39 1.61705 -0.150107 0
M  V30 14900 H 1427.39 3.4655 2.31752 0
M  V30 14901 H 1426.05 2.28899 2.30294 0
M  V30 14902 H 1427.06 5.179 -0.00291228 0
M  V30 14903 H 1423.73 3.63051 2.06155 0
M  V30 14904 H 1425.12 6.69442 -0.574192 0
M  V30 14905 N 1427.84 0.0718701 1.57436 0
M  V30 14906 C 1428.79 -0.913026 2.13931 0
M  V30 14907 C 1429.79 -1.3082 1.07622 0
M  V30 14908 O 1430.99 -1.28544 1.26002 0
M  V30 14909 H 1427.37 -0.31238 0.684049 0
M  V30 14910 H 1429.34 -0.411613 2.95547 0
M  V30 14911 C 1428.09 -2.17109 2.71586 0
M  V30 14912 H 1427.41 -1.87585 3.53061 0
M  V30 14913 H 1428.85 -2.84134 3.14712 0
M  V30 14914 C 1427.31 -2.92967 1.6635 0
M  V30 14915 O 1427.84 -3.8667 1.08854 0
M  V30 14916 N 1426.05 -2.56075 1.37383 0
M  V30 14917 H 1425.59 -1.79949 1.84326 0
M  V30 14918 H 1425.55 -3.07134 0.672039 0
M  V30 14919 N 1429.32 -1.56304 -0.201686 0
M  V30 14920 C 1430.25 -1.97046 -1.25281 0
M  V30 14921 C 1431.23 -0.841458 -1.47829 0
M  V30 14922 O 1432.42 -1.10529 -1.59678 0
M  V30 14923 C 1429.55 -2.30429 -2.59845 0
M  V30 14924 C 1428.5 -3.46006 -2.5192 0
M  V30 14925 C 1427.83 -3.65047 -3.90697 0
M  V30 14926 C 1429.13 -4.80391 -2.04992 0
M  V30 14927 H 1430.82 -2.85099 -0.914272 0
M  V30 14928 H 1428.37 -1.37166 -0.438359 0
M  V30 14929 H 1430.32 -2.57525 -3.33555 0
M  V30 14930 H 1429.05 -1.39251 -2.95426 0
M  V30 14931 H 1427.7 -3.18991 -1.80667 0
M  V30 14932 H 1427.35 -2.71211 -4.2362 0
M  V30 14933 H 1427.05 -4.42796 -3.86271 0
M  V30 14934 H 1428.58 -3.94512 -4.66039 0
M  V30 14935 H 1429.99 -5.06561 -2.68456 0
M  V30 14936 H 1428.39 -5.61563 -2.11582 0
M  V30 14937 H 1429.46 -4.74416 -1.00288 0
M  V30 14938 N 1430.8 0.469154 -1.50455 0
M  V30 14939 C 1432.03 1.24899 -1.65575 0
M  V30 14940 C 1432.45 1.85009 -0.339581 0
M  V30 14941 O 1431.81 1.67376 0.696774 0
M  V30 14942 C 1431.86 2.33205 -2.75041 0
M  V30 14943 O 1430.96 3.37898 -2.36429 0
M  V30 14944 H 1430.3 0.367362 -0.553119 0
M  V30 14945 H 1432.83 0.558083 -1.96842 0
M  V30 14946 H 1432.84 2.78487 -2.98176 0
M  V30 14947 H 1431.52 1.88826 -3.70564 0
M  V30 14948 H 1430.09 2.98314 -2.23748 0
M  V30 14949 N 1432.28 1.40065 0.722464 0
M  V30 14950 C 1433.21 1.42532 1.84951 0
M  V30 14951 C 1434.19 0.287082 1.6766 0
M  V30 14952 O 1435.37 0.494715 1.87793 0
M  V30 14953 C 1432.5 1.28041 3.22836 0
M  V30 14954 C 1431.46 2.39396 3.54787 0
M  V30 14955 C 1430.78 2.09986 4.91742 0
M  V30 14956 C 1432.08 3.81729 3.56483 0
M  V30 14957 H 1433.78 2.36851 1.83144 0
M  V30 14958 H 1431.32 1.14005 0.879714 0
M  V30 14959 H 1433.28 1.28385 4.01367 0
M  V30 14960 H 1432 0.301947 3.25201 0
M  V30 14961 H 1430.66 2.3829 2.78592 0
M  V30 14962 H 1430.31 1.10547 4.90702 0
M  V30 14963 H 1430.01 2.84586 5.14086 0
M  V30 14964 H 1431.53 2.12 5.72615 0
M  V30 14965 H 1432.95 3.84696 4.25067 0
M  V30 14966 H 1431.34 4.55791 3.90351 0
M  V30 14967 H 1432.41 4.11807 2.56014 0
M  V30 14968 N 1433.76 -0.95397 1.25448 0
M  V30 14969 C 1435.17 -1.51337 1.09335 0
M  V30 14970 C 1435.52 -1.93393 -0.330698 0
M  V30 14971 O 1434.64 -1.78681 -1.22074 0
M  V30 14972 C 1435.24 -2.75024 1.97857 0
M  V30 14973 C 1433.8 -3.27274 1.85927 0
M  V30 14974 C 1432.95 -2.00108 1.91969 0
M  V30 14975 H 1435.9 -0.770795 1.38724 0
M  V30 14976 H 1435.92 -3.48867 1.51894 0
M  V30 14977 H 1435.43 -2.44383 3.01494 0
M  V30 14978 H 1433.53 -3.62734 0.851767 0
M  V30 14979 H 1433.64 -3.95245 2.70773 0
M  V30 14980 H 1432.01 -2.15438 1.35862 0
M  V30 14981 H 1432.79 -1.71816 2.97211 0
M  V30 14982 N 1435.24 -1.07045 -1.15668 0
M  V30 14983 C 1436.48 -0.792908 -1.86657 0
M  V30 14984 C 1436.81 0.679213 -1.81935 0
M  V30 14985 O 1436.09 1.49822 -1.2403 0
M  V30 14986 C 1436.37 -1.2978 -3.35901 0
M  V30 14987 C 1436.23 -2.83424 -3.49272 0
M  V30 14988 C 1437.54 -0.911821 -4.30551 0
M  V30 14989 H 1434.66 -0.289509 -0.677756 0
M  V30 14990 H 1437.31 -1.32769 -1.35913 0
M  V30 14991 H 1435.46 -0.84288 -3.79246 0
M  V30 14992 H 1437.13 -3.37182 -3.14811 0
M  V30 14993 H 1435.37 -3.21777 -2.90933 0
M  V30 14994 H 1436.04 -3.13819 -4.54116 0
M  V30 14995 H 1438.52 -1.30376 -3.95147 0
M  V30 14996 H 1437.39 -1.29247 -5.33467 0
M  V30 14997 H 1437.65 0.18255 -4.41723 0
M  V30 14998 N 1436.71 1.32449 -0.85411 0
M  V30 14999 C 1437.94 2.01997 -0.470307 0
M  V30 15000 C 1438.36 1.63772 0.925225 0
M  V30 15001 O 1437.72 0.838089 1.60766 0
M  V30 15002 C 1437.77 3.55294 -0.616301 0
M  V30 15003 O 1436.87 4.10902 0.351133 0
M  V30 15004 H 1436.21 0.63651 -0.189079 0
M  V30 15005 H 1438.74 1.69008 -1.15315 0
M  V30 15006 H 1438.75 4.0488 -0.503624 0
M  V30 15007 H 1437.43 3.82459 -1.63396 0
M  V30 15008 H 1436.01 3.72391 0.194741 0
M  V30 15009 N 1438.19 0.611994 1.45232 0
M  V30 15010 C 1439.12 -0.0914869 2.33321 0
M  V30 15011 C 1440.1 -0.854315 1.4709 0
M  V30 15012 O 1441.29 -0.823994 1.75852 0
M  V30 15013 C 1438.42 -1.08652 3.29867 0
M  V30 15014 C 1437.37 -0.436615 4.25767 0
M  V30 15015 C 1436.7 -1.54021 5.12037 0
M  V30 15016 C 1438 0.645005 5.18302 0
M  V30 15017 H 1439.69 0.644053 2.92391 0
M  V30 15018 H 1437.24 0.311171 1.40598 0
M  V30 15019 H 1439.19 -1.58726 3.90364 0
M  V30 15020 H 1437.91 -1.85271 2.68965 0
M  V30 15021 H 1436.57 0.0432918 3.66574 0
M  V30 15022 H 1436.22 -2.29679 4.475 0
M  V30 15023 H 1435.92 -1.11084 5.77005 0
M  V30 15024 H 1437.45 -2.04313 5.75403 0
M  V30 15025 H 1438.86 0.228166 5.72846 0
M  V30 15026 H 1437.26 0.996387 5.9177 0
M  V30 15027 H 1438.33 1.51985 4.60466 0
M  V30 15028 N 1439.67 -1.53632 0.351409 0
M  V30 15029 C 1440.89 -2.0593 -0.246501 0
M  V30 15030 C 1441.32 -1.22419 -1.42812 0
M  V30 15031 O 1440.68 -0.239811 -1.79707 0
M  V30 15032 C 1440.73 -3.55021 -0.631862 0
M  V30 15033 O 1439.83 -3.74317 -1.73092 0
M  V30 15034 H 1439.17 -0.662839 -0.0392424 0
M  V30 15035 H 1441.7 -1.98196 0.507904 0
M  V30 15036 H 1441.71 -3.97795 -0.906831 0
M  V30 15037 H 1440.39 -4.15251 0.232224 0
M  V30 15038 H 1438.96 -3.43444 -1.4526 0
M  V30 15039 N 1441.15 -0.0802183 -1.57396 0
M  V30 15040 C 1442.08 0.881426 -2.16225 0
M  V30 15041 C 1443.06 1.30459 -1.09154 0
M  V30 15042 O 1444.24 1.37413 -1.37227 0
M  V30 15043 C 1441.37 2.14599 -2.73065 0
M  V30 15044 C 1440.33 1.86195 -3.85377 0
M  V30 15045 C 1439.65 3.19354 -4.28856 0
M  V30 15046 C 1440.95 1.16059 -5.09242 0
M  V30 15047 H 1442.65 0.391325 -2.96832 0
M  V30 15048 H 1440.19 0.186785 -1.42783 0
M  V30 15049 H 1442.15 2.82297 -3.12868 0
M  V30 15050 H 1440.87 2.65866 -1.89691 0
M  V30 15051 H 1439.53 1.209 -3.46091 0
M  V30 15052 H 1439.18 3.68479 -3.42392 0
M  V30 15053 H 1438.88 3.01137 -5.04569 0
M  V30 15054 H 1440.4 3.88235 -4.71281 0
M  V30 15055 H 1441.82 1.7384 -5.46308 0
M  V30 15056 H 1440.21 1.08072 -5.90288 0
M  V30 15057 H 1441.28 0.14098 -4.84695 0
M  V30 15058 N 1442.63 1.56409 0.193394 0
M  V30 15059 C 1443.9 1.71559 0.93951 0
M  V30 15060 C 1444.28 0.635478 2.01308 0
M  V30 15061 O 1443.63 -0.353267 2.25753 0
M  V30 15062 C 1443.84 3.13948 1.52438 0
M  V30 15063 C 1445.19 3.74234 2.00585 0
M  V30 15064 O 1446.21 3.17088 1.62277 0
M  V30 15065 O 1445.07 4.74529 2.71081 0
M  V30 15066 H 1442.17 0.69979 0.440707 0
M  V30 15067 H 1444.71 1.68711 0.182957 0
M  V30 15068 H 1443.48 3.84033 0.750613 0
M  V30 15069 H 1443.11 3.21032 2.34572 0
M  V30 15070 N 1444.1 -0.461169 1.50702 0
M  V30 15071 C 1445.05 -1.5579 1.70288 0
M  V30 15072 C 1446.02 -1.5693 0.544251 0
M  V30 15073 O 1447.21 -1.74308 0.77597 0
M  V30 15074 C 1444.35 -2.93694 1.81212 0
M  V30 15075 C 1443.46 -3.02267 3.0864 0
M  V30 15076 C 1442.59 -4.31147 3.103 0
M  V30 15077 C 1441.63 -4.33498 4.32141 0
M  V30 15078 N 1440.77 -5.53864 4.31484 0
M  V30 15079 H 1445.61 -1.38393 2.63915 0
M  V30 15080 H 1443.15 -0.6727 1.30817 0
M  V30 15081 H 1445.1 -3.73679 1.85526 0
M  V30 15082 H 1443.73 -3.09703 0.91015 0
M  V30 15083 H 1442.79 -2.15093 3.1375 0
M  V30 15084 H 1444.1 -2.99864 3.98601 0
M  V30 15085 H 1443.25 -5.19487 3.13398 0
M  V30 15086 H 1441.99 -4.36172 2.18186 0
M  V30 15087 H 1441 -3.43554 4.29245 0
M  V30 15088 H 1442.22 -4.30156 5.25493 0
M  V30 15089 H 1440.17 -5.59657 3.42229 0
M  V30 15090 H 1440.08 -5.53244 5.15225 0
M  V30 15091 H 1441.35 -6.44302 4.38742 0
M  V30 15092 N 1445.58 -1.40446 -0.715026 0
M  V30 15093 C 1446.81 -1.41864 -1.50193 0
M  V30 15094 C 1447.22 -0.0168144 -1.89193 0
M  V30 15095 O 1446.56 0.969732 -1.56019 0
M  V30 15096 C 1446.62 -2.24619 -2.80689 0
M  V30 15097 C 1446.29 -3.73026 -2.64009 0
M  V30 15098 C 1447.29 -4.65648 -2.31232 0
M  V30 15099 C 1444.97 -4.16847 -2.80256 0
M  V30 15100 C 1446.96 -6.00076 -2.14912 0
M  V30 15101 C 1444.65 -5.51346 -2.63554 0
M  V30 15102 C 1445.65 -6.42776 -2.3093 0
M  V30 15103 O 1445.34 -7.74795 -2.14355 0
M  V30 15104 H 1445.07 -0.485821 -0.470058 0
M  V30 15105 H 1447.62 -1.85138 -0.88955 0
M  V30 15106 H 1445.85 -1.76126 -3.44262 0
M  V30 15107 H 1447.54 -2.17972 -3.42408 0
M  V30 15108 H 1448.31 -4.33087 -2.18312 0
M  V30 15109 H 1444.19 -3.46001 -3.04637 0
M  V30 15110 H 1447.73 -6.71405 -1.8937 0
M  V30 15111 H 1443.63 -5.83491 -2.76058 0
M  V30 15112 H 1444.4 -7.85734 -2.2927 0
M  V30 15113 N 1447.06 0.947303 -1.25952 0
M  V30 15114 C 1448.34 1.66964 -1.01894 0
M  V30 15115 C 1448.72 2.06192 0.452555 0
M  V30 15116 O 1448.06 1.78098 1.43156 0
M  V30 15117 C 1448.27 2.88643 -1.96179 0
M  V30 15118 C 1449.62 3.60432 -2.24441 0
M  V30 15119 O 1450.65 2.98737 -1.93996 0
M  V30 15120 O 1449.51 4.7154 -2.76247 0
M  V30 15121 H 1446.6 0.730875 -0.386976 0
M  V30 15122 H 1449.15 0.999577 -1.37137 0
M  V30 15123 H 1447.92 2.565 -2.95506 0
M  V30 15124 H 1447.54 3.63377 -1.61379 0
M  V30 15125 N 1448.54 1.07657 1.15099 0
M  V30 15126 C 1449.49 0.699678 2.19939 0
M  V30 15127 C 1450.46 -0.310432 1.63173 0
M  V30 15128 O 1451.64 -0.196177 1.89789 0
M  V30 15129 C 1448.78 0.106963 3.44934 0
M  V30 15130 C 1447.89 1.16892 4.15885 0
M  V30 15131 C 1447.03 0.540884 5.28439 0
M  V30 15132 C 1446.07 1.58542 5.91211 0
M  V30 15133 N 1445.2 0.979731 6.95231 0
M  V30 15134 H 1450.04 1.59805 2.51528 0
M  V30 15135 H 1447.58 0.798746 1.23525 0
M  V30 15136 H 1449.54 -0.254335 4.16424 0
M  V30 15137 H 1448.17 -0.754756 3.13852 0
M  V30 15138 H 1447.22 1.64775 3.4286 0
M  V30 15139 H 1448.53 1.96078 4.58645 0
M  V30 15140 H 1447.69 0.127397 6.06566 0
M  V30 15141 H 1446.43 -0.282708 4.8688 0
M  V30 15142 H 1445.43 2.00865 5.11794 0
M  V30 15143 H 1446.66 2.41135 6.34847 0
M  V30 15144 H 1444.6 0.177098 6.55761 0
M  V30 15145 H 1444.52 1.70878 7.36435 0
M  V30 15146 H 1445.79 0.591849 7.7725 0
M  V30 15147 N 1450.02 -1.31994 0.861122 0
M  V30 15148 C 1450.95 -2.31214 0.325963 0
M  V30 15149 C 1451.93 -1.59965 -0.578383 0
M  V30 15150 O 1453.11 -1.87726 -0.497268 0
M  V30 15151 C 1450.24 -3.43953 -0.481001 0
M  V30 15152 C 1449.2 -4.2673 0.329474 0
M  V30 15153 C 1448.52 -5.31293 -0.602627 0
M  V30 15154 C 1449.82 -4.98498 1.55874 0
M  V30 15155 H 1451.52 -2.76223 1.15503 0
M  V30 15156 H 1449.06 -1.32797 0.556856 0
M  V30 15157 H 1451.02 -4.12409 -0.86585 0
M  V30 15158 H 1449.74 -2.97687 -1.3435 0
M  V30 15159 H 1448.4 -3.59929 0.696159 0
M  V30 15160 H 1448.05 -4.8128 -1.46215 0
M  V30 15161 H 1447.75 -5.87565 -0.0643044 0
M  V30 15162 H 1449.27 -6.02611 -0.984512 0
M  V30 15163 H 1450.68 -5.596 1.24583 0
M  V30 15164 H 1449.08 -5.64525 2.03548 0
M  V30 15165 H 1450.15 -4.25991 2.31646 0
M  V30 15166 N 1451.49 -0.619688 -1.44906 0
M  V30 15167 C 1452.44 0.113696 -2.27716 0
M  V30 15168 C 1453.43 0.82709 -1.38015 0
M  V30 15169 O 1454.62 0.715083 -1.61912 0
M  V30 15170 C 1451.75 1.10233 -3.25121 0
M  V30 15171 C 1450.84 0.389147 -4.22311 0
M  V30 15172 N 1451.23 -0.575929 -5.0251 0
M  V30 15173 C 1449.52 0.635112 -4.41455 0
M  V30 15174 C 1450.23 -0.996243 -5.73105 0
M  V30 15175 N 1449.2 -0.337427 -5.42552 0
M  V30 15176 H 1453 -0.627351 -2.87126 0
M  V30 15177 H 1450.52 -0.444293 -1.56204 0
M  V30 15178 H 1452.51 1.64223 -3.83192 0
M  V30 15179 H 1451.17 1.8438 -2.67272 0
M  V30 15180 H 1452.19 -0.953232 -5.09052 0
M  V30 15181 H 1448.86 1.36033 -3.94717 0
M  V30 15182 H 1450.25 -1.7929 -6.47537 0
M  V30 15183 N 1452.97 1.53444 -0.359552 0
M  V30 15184 C 1454.22 2.00348 0.233109 0
M  V30 15185 C 1454.53 1.25104 1.50361 0
M  V30 15186 O 1455.74 1.62566 2.1745 0
M  V30 15187 C 1454.2 3.56871 0.465951 0
M  V30 15188 C 1453.8 4.40987 -0.789571 0
M  V30 15189 C 1455.55 4.12148 1.0166 0
M  V30 15190 C 1453.46 5.8905 -0.526646 0
M  V30 15191 H 1452.39 0.748502 0.0908851 0
M  V30 15192 H 1455.04 1.77182 -0.47736 0
M  V30 15193 H 1453.42 3.76167 1.23753 0
M  V30 15194 H 1454.59 4.33465 -1.56348 0
M  V30 15195 H 1452.91 3.96784 -1.263 0
M  V30 15196 H 1455.5 5.20395 1.22853 0
M  V30 15197 H 1455.85 3.66364 1.97694 0
M  V30 15198 H 1456.38 3.96626 0.305334 0
M  V30 15199 H 1453.12 6.39099 -1.45715 0
M  V30 15200 H 1452.64 5.99436 0.208875 0
M  V30 15201 H 1454.32 6.46826 -0.149889 0
M  V30 15202 N 1454.45 0.0885642 1.57351 0
M  V30 15203 C 1455.36 -0.887092 2.17182 0
M  V30 15204 C 1456.38 -1.31498 1.13949 0
M  V30 15205 O 1457.55 -1.38424 1.4629 0
M  V30 15206 C 1454.62 -2.13053 2.73513 0
M  V30 15207 C 1453.68 -1.75747 3.91678 0
M  V30 15208 C 1452.91 -2.94163 4.45313 0
M  V30 15209 O 1453.13 -4.08693 3.97903 0
M  V30 15210 O 1452.07 -2.73008 5.36424 0
M  V30 15211 H 1455.89 -0.408073 3.00946 0
M  V30 15212 H 1453.48 -0.135431 1.48785 0
M  V30 15213 H 1455.36 -2.85937 3.09545 0
M  V30 15214 H 1454.04 -2.6002 1.92798 0
M  V30 15215 H 1452.94 -1.00064 3.60469 0
M  V30 15216 H 1454.28 -1.33549 4.73736 0
M  V30 15217 N 1455.93 -1.56509 -0.185096 0
M  V30 15218 C 1457.34 -1.71024 -0.748856 0
M  V30 15219 C 1457.69 -0.69681 -1.83409 0
M  V30 15220 O 1456.82 0.144711 -2.15916 0
M  V30 15221 C 1457.41 -3.1008 -1.36513 0
M  V30 15222 C 1455.97 -3.26325 -1.87587 0
M  V30 15223 C 1455.12 -2.66977 -0.749579 0
M  V30 15224 H 1458.07 -1.58649 0.0401175 0
M  V30 15225 H 1458.09 -3.07965 -2.23468 0
M  V30 15226 H 1457.6 -3.83816 -0.575051 0
M  V30 15227 H 1455.7 -2.57522 -2.69283 0
M  V30 15228 H 1455.81 -4.33931 -2.03078 0
M  V30 15229 H 1454.18 -2.26419 -1.16647 0
M  V30 15230 H 1454.96 -3.43288 0.0284301 0
M  V30 15231 N 1457.41 0.45317 -1.50944 0
M  V30 15232 C 1458.66 1.20076 -1.62064 0
M  V30 15233 C 1458.97 1.92709 -0.335034 0
M  V30 15234 O 1460.17 2.69543 -0.32538 0
M  V30 15235 C 1458.63 2.18283 -2.86148 0
M  V30 15236 C 1458.24 1.5137 -4.21653 0
M  V30 15237 C 1459.98 2.93572 -3.0662 0
M  V30 15238 C 1457.89 2.47968 -5.36904 0
M  V30 15239 H 1456.82 0.451894 -0.603579 0
M  V30 15240 H 1459.47 0.46937 -1.77396 0
M  V30 15241 H 1457.85 2.94789 -2.64415 0
M  V30 15242 H 1459.03 0.805295 -4.53709 0
M  V30 15243 H 1457.34 0.882935 -4.06931 0
M  V30 15244 H 1459.94 3.65903 -3.89897 0
M  V30 15245 H 1460.28 3.54003 -2.1906 0
M  V30 15246 H 1460.81 2.24175 -3.28619 0
M  V30 15247 H 1457.55 1.92249 -6.26674 0
M  V30 15248 H 1457.07 3.16907 -5.09244 0
M  V30 15249 H 1458.75 3.09428 -5.6821 0
M  V30 15250 N 1458.88 1.40823 0.707568 0
M  V30 15251 C 1459.83 1.41724 1.82162 0
M  V30 15252 C 1460.8 0.273135 1.63839 0
M  V30 15253 O 1461.99 0.472399 1.84859 0
M  V30 15254 C 1459.13 1.29347 3.19943 0
M  V30 15255 C 1458.24 2.53529 3.49782 0
M  V30 15256 C 1457.37 2.33533 4.77112 0
M  V30 15257 C 1456.41 3.53252 4.9988 0
M  V30 15258 N 1455.55 3.32401 6.18429 0
M  V30 15259 H 1460.39 2.36943 1.80726 0
M  V30 15260 H 1457.93 1.17671 0.882723 0
M  V30 15261 H 1459.89 1.20175 3.99517 0
M  V30 15262 H 1458.52 0.377426 3.20586 0
M  V30 15263 H 1457.57 2.73198 2.64702 0
M  V30 15264 H 1458.88 3.42617 3.62512 0
M  V30 15265 H 1458.03 2.2176 5.64719 0
M  V30 15266 H 1456.77 1.41883 4.66605 0
M  V30 15267 H 1455.78 3.65492 4.10725 0
M  V30 15268 H 1457 4.4584 5.12253 0
M  V30 15269 H 1454.95 2.4344 6.09158 0
M  V30 15270 H 1454.87 4.15059 6.31872 0
M  V30 15271 H 1456.13 3.24377 7.08802 0
M  V30 15272 N 1460.36 -0.94061 1.26453 0
M  V30 15273 C 1461.27 -2.07298 1.09839 0
M  V30 15274 C 1462.29 -1.73971 0.0317477 0
M  V30 15275 O 1463.46 -2.00017 0.235594 0
M  V30 15276 C 1460.53 -3.38847 0.733736 0
M  V30 15277 C 1459.59 -3.85954 1.87985 0
M  V30 15278 C 1458.82 -5.11224 1.5325 0
M  V30 15279 O 1459.05 -5.68743 0.434491 0
M  V30 15280 O 1457.98 -5.53386 2.36743 0
M  V30 15281 H 1461.81 -2.24222 2.04837 0
M  V30 15282 H 1459.39 -1.05763 1.0552 0
M  V30 15283 H 1461.27 -4.17885 0.543131 0
M  V30 15284 H 1459.95 -3.2316 -0.186843 0
M  V30 15285 H 1458.86 -3.07858 2.12542 0
M  V30 15286 H 1460.19 -4.06162 2.78017 0
M  V30 15287 N 1461.84 -1.08266 -1.14527 0
M  V30 15288 C 1462.77 -0.732968 -2.21698 0
M  V30 15289 C 1463.75 0.283917 -1.67714 0
M  V30 15290 O 1464.94 0.154607 -1.93584 0
M  V30 15291 C 1462.07 -0.139935 -3.47018 0
M  V30 15292 C 1461.02 -1.08501 -4.14019 0
M  V30 15293 C 1460.35 -0.354263 -5.33525 0
M  V30 15294 C 1461.65 -2.42254 -4.62721 0
M  V30 15295 H 1463.34 -1.629 -2.51205 0
M  V30 15296 H 1460.89 -0.784696 -1.20742 0
M  V30 15297 H 1462.84 0.1167 -4.21238 0
M  V30 15298 H 1461.56 0.791228 -3.16871 0
M  V30 15299 H 1460.22 -1.32672 -3.41751 0
M  V30 15300 H 1459.87 0.580658 -4.99637 0
M  V30 15301 H 1459.57 -0.984287 -5.79297 0
M  V30 15302 H 1461.09 -0.105648 -6.10509 0
M  V30 15303 H 1462.51 -2.22357 -5.28422 0
M  V30 15304 H 1460.91 -3.00935 -5.1919 0
M  V30 15305 H 1461.98 -3.03884 -3.77866 0
M  V30 15306 N 1463.32 1.31536 -0.86811 0
M  V30 15307 C 1464.25 2.27486 -0.279749 0
M  V30 15308 C 1465.26 1.53006 0.556158 0
M  V30 15309 O 1466.45 1.74442 0.378454 0
M  V30 15310 C 1463.55 3.33139 0.622197 0
M  V30 15311 C 1462.73 4.37026 -0.180855 0
M  V30 15312 C 1461.79 5.22183 0.64894 0
M  V30 15313 O 1460.81 5.69147 0.0776395 0
M  V30 15314 N 1462.01 5.46365 1.96127 0
M  V30 15315 H 1464.78 2.78613 -1.1043 0
M  V30 15316 H 1462.34 1.44538 -0.729409 0
M  V30 15317 H 1464.33 3.87024 1.18297 0
M  V30 15318 H 1462.9 2.8207 1.34742 0
M  V30 15319 H 1462.12 3.8324 -0.923078 0
M  V30 15320 H 1463.41 5.03508 -0.731953 0
M  V30 15321 H 1462.81 5.09962 2.44857 0
M  V30 15322 H 1461.36 6.03192 2.46987 0
M  V30 15323 N 1464.8 0.627364 1.44575 0
M  V30 15324 C 1466.02 0.135576 2.06956 0
M  V30 15325 C 1466.45 -1.17922 1.46547 0
M  V30 15326 O 1465.81 -1.72255 0.565509 0
M  V30 15327 C 1465.85 0.030347 3.60587 0
M  V30 15328 O 1464.96 -1.01464 3.99724 0
M  V30 15329 H 1464.3 0.083058 0.658785 0
M  V30 15330 H 1466.83 0.862977 1.8551 0
M  V30 15331 H 1466.84 -0.161461 4.0768 0
M  V30 15332 H 1465.51 0.990285 4.03938 0
M  V30 15333 H 1464.09 -0.797701 3.64268 0
M  V30 15334 N 1466.28 -1.53251 0.367684 0
M  V30 15335 C 1467.21 -2.28728 -0.469676 0
M  V30 15336 C 1468.19 -1.3124 -1.08213 0
M  V30 15337 O 1469.37 -1.60112 -1.09898 0
M  V30 15338 C 1466.5 -3.07808 -1.60846 0
M  V30 15339 C 1465.46 -4.13 -1.12315 0
M  V30 15340 C 1464.78 -4.80176 -2.35234 0
M  V30 15341 C 1466.08 -5.21892 -0.2064 0
M  V30 15342 H 1467.78 -2.98972 0.160019 0
M  V30 15343 H 1465.32 -1.43786 0.0784011 0
M  V30 15344 H 1467.27 -3.59358 -2.20091 0
M  V30 15345 H 1466 -2.35258 -2.26542 0
M  V30 15346 H 1464.66 -3.62399 -0.553378 0
M  V30 15347 H 1464.31 -4.04196 -2.99391 0
M  V30 15348 H 1464.01 -5.51261 -2.03433 0
M  V30 15349 H 1465.53 -5.34521 -2.9516 0
M  V30 15350 H 1466.94 -5.68932 -0.706386 0
M  V30 15351 H 1465.34 -6.00096 0.0208362 0
M  V30 15352 H 1466.41 -4.79051 0.750851 0
M  V30 15353 N 1467.75 -0.0969077 -1.57302 0
M  V30 15354 C 1469.17 0.25974 -1.57472 0
M  V30 15355 C 1469.37 1.6829 -1.10818 0
M  V30 15356 O 1468.43 2.39972 -0.785466 0
M  V30 15357 C 1469.74 0.0465211 -3.00664 0
M  V30 15358 C 1471.29 0.114131 -3.12792 0
M  V30 15359 C 1471.76 -0.0711175 -4.57945 0
M  V30 15360 N 1473.25 -0.0163438 -4.63197 0
M  V30 15361 C 1473.99 -0.1349 -5.73241 0
M  V30 15362 N 1473.48 -0.308391 -6.92113 0
M  V30 15363 N 1475.28 -0.0760411 -5.62049 0
M  V30 15364 H 1467.43 -1.02673 -1.85935 0
M  V30 15365 H 1469.69 -0.402528 -0.858298 0
M  V30 15366 H 1469.4 -0.936496 -3.39002 0
M  V30 15367 H 1469.27 0.78805 -3.68876 0
M  V30 15368 H 1471.66 1.08765 -2.74325 0
M  V30 15369 H 1471.74 -0.658918 -2.47168 0
M  V30 15370 H 1471.38 -1.04152 -4.97106 0
M  V30 15371 H 1471.31 0.721647 -5.21632 0
M  V30 15372 H 1473.8 0.115134 -3.77725 0
M  V30 15373 H 1474.12 -0.390318 -7.71814 0
M  V30 15374 H 1472.46 -0.344082 -6.94148 0
M  V30 15375 H 1475.65 0.0583778 -4.68064 0
M  V30 15376 H 1475.83 -0.171884 -6.47772 0
M  V30 15377 N 1469.23 1.56605 0.176793 0
M  V30 15378 C 1470.48 1.81324 0.892535 0
M  V30 15379 C 1470.8 0.67301 1.83018 0
M  V30 15380 O 1470.07 -0.307498 1.93472 0
M  V30 15381 H 1468.65 0.668881 0.332576 0
M  V30 15382 H 1471.31 1.94086 0.17792 0
M  V30 15383 H 1470.41 2.75168 1.47272 0
M  V30 15384 N 1470.71 -0.445159 1.51182 0
M  V30 15385 C 1471.62 -1.5651 1.74762 0
M  V30 15386 C 1472.64 -1.62134 0.631542 0
M  V30 15387 O 1473.81 -1.79522 0.912898 0
M  V30 15388 C 1470.88 -2.92552 1.86049 0
M  V30 15389 C 1469.94 -2.97108 3.0988 0
M  V30 15390 C 1469.17 -4.2666 3.2062 0
M  V30 15391 O 1469.39 -5.18608 2.37491 0
M  V30 15392 O 1468.33 -4.3734 4.13542 0
M  V30 15393 H 1472.15 -1.3953 2.6975 0
M  V30 15394 H 1469.74 -0.627363 1.3559 0
M  V30 15395 H 1471.62 -3.73304 1.95504 0
M  V30 15396 H 1470.3 -3.09676 0.94248 0
M  V30 15397 H 1469.2 -2.15338 3.05909 0
M  V30 15398 H 1470.54 -2.84927 4.01345 0
M  V30 15399 N 1472.19 -1.41197 -0.700089 0
M  V30 15400 C 1473.13 -1.42688 -1.81407 0
M  V30 15401 C 1474.1 -0.28182 -1.63692 0
M  V30 15402 O 1475.29 -0.482196 -1.84606 0
M  V30 15403 C 1472.43 -1.31041 -3.19252 0
M  V30 15404 C 1471.54 -2.5538 -3.48432 0
M  V30 15405 C 1470.68 -2.3606 -4.75867 0
M  V30 15406 C 1469.72 -3.55898 -4.97999 0
M  V30 15407 N 1468.85 -3.35676 -6.16657 0
M  V30 15408 H 1473.69 -2.37898 -1.79467 0
M  V30 15409 H 1471.23 -1.18137 -0.87647 0
M  V30 15410 H 1473.19 -1.22292 -3.98874 0
M  V30 15411 H 1471.82 -0.394422 -3.20381 0
M  V30 15412 H 1470.87 -2.74598 -2.6325 0
M  V30 15413 H 1472.18 -3.44535 -3.6069 0
M  V30 15414 H 1471.34 -2.24752 -5.63535 0
M  V30 15415 H 1470.08 -1.44355 -4.65846 0
M  V30 15416 H 1469.08 -3.67665 -4.08781 0
M  V30 15417 H 1470.31 -4.4855 -5.09882 0
M  V30 15418 H 1468.25 -2.46667 -6.07858 0
M  V30 15419 H 1468.17 -4.18404 -6.29662 0
M  V30 15420 H 1469.44 -3.28132 -7.07071 0
M  V30 15421 N 1473.67 0.933891 -1.2695 0
M  V30 15422 C 1474.91 1.68383 -1.141 0
M  V30 15423 C 1475.27 1.89867 0.311181 0
M  V30 15424 O 1474.56 1.47349 1.2247 0
M  V30 15425 C 1474.75 3.05706 -1.85145 0
M  V30 15426 C 1474.58 2.97621 -3.37123 0
M  V30 15427 C 1473.35 3.00239 -4.06429 0
M  V30 15428 C 1475.55 2.77206 -4.33199 0
M  V30 15429 N 1473.53 2.82531 -5.45023 0
M  V30 15430 C 1474.9 2.6814 -5.59018 0
M  V30 15431 C 1476.96 2.62046 -4.23363 0
M  V30 15432 C 1475.66 2.45461 -6.76122 0
M  V30 15433 C 1477.69 2.40742 -5.40182 0
M  V30 15434 C 1477.05 2.32414 -6.64953 0
M  V30 15435 H 1473.15 0.623223 -0.472353 0
M  V30 15436 H 1475.73 1.10457 -1.60335 0
M  V30 15437 H 1473.9 3.61757 -1.41374 0
M  V30 15438 H 1475.64 3.69601 -1.64854 0
M  V30 15439 H 1472.39 3.10231 -3.57846 0
M  V30 15440 H 1472.81 2.76824 -6.17817 0
M  V30 15441 H 1477.46 2.67247 -3.27626 0
M  V30 15442 H 1475.17 2.39 -7.71949 0
M  V30 15443 H 1478.76 2.29906 -5.34448 0
M  V30 15444 H 1477.64 2.1615 -7.53823 0
M  V30 15445 N 1475.14 1.08871 1.13951 0
M  V30 15446 C 1476.39 0.822504 1.85372 0
M  V30 15447 C 1476.72 -0.650183 1.82993 0
M  V30 15448 O 1476 -1.4783 1.26398 0
M  V30 15449 C 1476.28 1.35107 3.33793 0
M  V30 15450 C 1476.13 2.88945 3.44719 0
M  V30 15451 C 1477.45 0.980203 4.29045 0
M  V30 15452 H 1474.57 0.300255 0.673065 0
M  V30 15453 H 1477.21 1.34914 1.33784 0
M  V30 15454 H 1475.36 0.903108 3.77857 0
M  V30 15455 H 1477.04 3.42148 3.09407 0
M  V30 15456 H 1475.28 3.26365 2.85777 0
M  V30 15457 H 1475.95 3.21004 4.49066 0
M  V30 15458 H 1478.43 1.36646 3.93023 0
M  V30 15459 H 1477.3 1.37717 5.31343 0
M  V30 15460 H 1477.56 -0.112253 4.41957 0
M  V30 15461 N 1476.62 -1.31073 0.875073 0
M  V30 15462 C 1477.9 -1.91276 0.409015 0
M  V30 15463 C 1478.28 -1.79599 -1.10939 0
M  V30 15464 O 1477.63 -1.2069 -1.94026 0
M  V30 15465 C 1477.84 -3.373 0.896074 0
M  V30 15466 C 1479.18 -4.14397 0.925205 0
M  V30 15467 O 1480.21 -3.46104 0.842069 0
M  V30 15468 O 1479.07 -5.36389 1.0464 0
M  V30 15469 H 1476.16 -0.817755 0.12331 0
M  V30 15470 H 1478.71 -1.39708 0.963322 0
M  V30 15471 H 1477.48 -3.39837 1.93975 0
M  V30 15472 H 1477.1 -3.96307 0.320367 0
M  V30 15473 N 1478.1 -0.635022 -1.4424 0
M  V30 15474 C 1479.35 -0.141067 -2.02008 0
M  V30 15475 C 1479.68 1.23849 -1.49973 0
M  V30 15476 O 1478.93 1.83666 -0.675673 0
M  V30 15477 C 1479.23 -0.081191 -3.57308 0
M  V30 15478 C 1478.9 -1.40004 -4.28614 0
M  V30 15479 C 1477.56 -1.76125 -4.4781 0
M  V30 15480 C 1479.91 -2.27041 -4.6915 0
M  V30 15481 C 1477.24 -2.98982 -5.04804 0
M  V30 15482 C 1479.59 -3.49173 -5.27504 0
M  V30 15483 C 1478.25 -3.85512 -5.44919 0
M  V30 15484 H 1477.52 -0.05162 -0.7392 0
M  V30 15485 H 1480.17 -0.822112 -1.72955 0
M  V30 15486 H 1478.48 0.68324 -3.85797 0
M  V30 15487 H 1480.17 0.317584 -3.9974 0
M  V30 15488 H 1476.76 -1.10897 -4.14005 0
M  V30 15489 H 1480.95 -2.0043 -4.54028 0
M  V30 15490 H 1476.2 -3.27208 -5.16473 0
M  V30 15491 H 1480.38 -4.16847 -5.57864 0
M  V30 15492 H 1478 -4.80793 -5.88848 0
M  V30 15493 N 1479.58 1.53054 -0.375806 0
M  V30 15494 C 1480.8 2.06296 0.213708 0
M  V30 15495 C 1481.23 1.24675 1.40846 0
M  V30 15496 O 1480.59 0.268371 1.79303 0
M  V30 15497 C 1480.63 3.55981 0.575301 0
M  V30 15498 O 1479.74 3.77023 1.67115 0
M  V30 15499 H 1479.08 0.66338 0.0286922 0
M  V30 15500 H 1481.61 1.97362 -0.539371 0
M  V30 15501 H 1481.62 3.99187 0.843431 0
M  V30 15502 H 1480.29 4.14829 -0.298258 0
M  V30 15503 H 1478.87 3.45712 1.39778 0
M  V30 15504 N 1481.06 0.105248 1.57248 0
M  V30 15505 C 1482.33 -0.598871 1.86207 0
M  V30 15506 C 1482.71 -1.85698 1.00396 0
M  V30 15507 O 1482.06 -2.28363 0.0791093 0
M  V30 15508 C 1482.27 -0.904522 3.37075 0
M  V30 15509 C 1483.62 -1.26357 4.05363 0
M  V30 15510 O 1484.64 -0.99522 3.42014 0
M  V30 15511 O 1483.5 -1.76659 5.17159 0
M  V30 15512 H 1480.6 -0.300727 0.770384 0
M  V30 15513 H 1483.14 0.138713 1.69132 0
M  V30 15514 H 1481.91 -0.0123974 3.91298 0
M  V30 15515 H 1481.54 -1.69774 3.59531 0
M  V30 15516 N 1482.53 -1.56697 -0.168486 0
M  V30 15517 C 1483.48 -1.96628 -1.20855 0
M  V30 15518 C 1484.45 -0.830623 -1.4384 0
M  V30 15519 O 1485.64 -1.09097 -1.56533 0
M  V30 15520 C 1482.78 -2.3338 -2.5422 0
M  V30 15521 C 1481.89 -3.60137 -2.3859 0
M  V30 15522 C 1481.02 -3.86088 -3.64842 0
M  V30 15523 C 1480.06 -5.06184 -3.44157 0
M  V30 15524 N 1479.2 -5.28254 -4.62485 0
M  V30 15525 H 1484.04 -2.8529 -0.86102 0
M  V30 15526 H 1481.58 -1.41162 -0.413741 0
M  V30 15527 H 1483.54 -2.52711 -3.31953 0
M  V30 15528 H 1482.17 -1.47825 -2.86963 0
M  V30 15529 H 1481.22 -3.48704 -1.52019 0
M  V30 15530 H 1482.53 -4.48028 -2.19254 0
M  V30 15531 H 1481.68 -4.05802 -4.5101 0
M  V30 15532 H 1480.42 -2.96578 -3.8716 0
M  V30 15533 H 1479.43 -4.86366 -2.56376 0
M  V30 15534 H 1480.65 -5.97228 -3.23258 0
M  V30 15535 H 1478.6 -4.41695 -4.85017 0
M  V30 15536 H 1478.52 -6.10373 -4.46072 0
M  V30 15537 H 1479.78 -5.52448 -5.49928 0
M  V30 15538 N 1484.01 0.437135 -1.51416 0
M  V30 15539 C 1484.96 1.55124 -1.73319 0
M  V30 15540 C 1485.95 1.58437 -0.599511 0
M  V30 15541 O 1487.16 1.62179 -0.780896 0
M  V30 15542 H 1483.54 0.515368 -0.547632 0
M  V30 15543 H 1485.51 1.33824 -2.66709 0
M  V30 15544 C 1484.26 2.92778 -1.87554 0
M  V30 15545 H 1483.58 2.9096 -2.74194 0
M  V30 15546 H 1485.02 3.70097 -2.06891 0
M  V30 15547 C 1483.48 3.30854 -0.635408 0
M  V30 15548 O 1484.01 4.01152 0.20983 0
M  V30 15549 N 1482.21 2.86618 -0.47944 0
M  V30 15550 H 1481.76 2.29582 -1.16834 0
M  V30 15551 H 1481.72 3.12456 0.349078 0
M  V30 15552 N 1485.49 1.41566 0.692592 0
M  V30 15553 C 1486.42 1.46423 1.81886 0
M  V30 15554 C 1487.4 0.32258 1.67013 0
M  V30 15555 O 1488.59 0.534437 1.86701 0
M  V30 15556 C 1485.72 1.3486 3.20047 0
M  V30 15557 C 1484.67 2.46867 3.49629 0
M  V30 15558 C 1484 2.20369 4.87177 0
M  V30 15559 C 1485.3 3.89205 3.48306 0
M  V30 15560 H 1486.99 2.40683 1.78079 0
M  V30 15561 H 1484.54 1.15845 0.855334 0
M  V30 15562 H 1486.49 1.36869 3.98553 0
M  V30 15563 H 1485.21 0.370859 3.24488 0
M  V30 15564 H 1483.87 2.44146 2.73475 0
M  V30 15565 H 1483.52 1.20931 4.88247 0
M  V30 15566 H 1483.22 2.95426 5.07934 0
M  V30 15567 H 1484.74 2.24099 5.6799 0
M  V30 15568 H 1486.16 3.93626 4.16811 0
M  V30 15569 H 1484.56 4.63969 3.80595 0
M  V30 15570 H 1485.63 4.17144 2.47222 0
M  V30 15571 N 1486.97 -0.927146 1.27443 0
M  V30 15572 C 1487.88 -2.06122 1.12031 0
M  V30 15573 C 1488.89 -1.73928 0.0501979 0
M  V30 15574 O 1490.07 -1.99756 0.256796 0
M  V30 15575 C 1487.14 -3.3805 0.769634 0
M  V30 15576 C 1486.2 -3.83938 1.92068 0
M  V30 15577 C 1485.43 -5.0957 1.58664 0
M  V30 15578 O 1485.65 -5.6825 0.494789 0
M  V30 15579 O 1484.59 -5.50844 2.42599 0
M  V30 15580 H 1488.41 -2.22037 2.07203 0
M  V30 15581 H 1486 -1.04638 1.06636 0
M  V30 15582 H 1487.88 -4.17286 0.587423 0
M  V30 15583 H 1486.55 -3.2334 -0.152557 0
M  V30 15584 H 1485.46 -3.05587 2.15795 0
M  V30 15585 H 1486.79 -4.0319 2.8231 0
M  V30 15586 N 1488.45 -1.09474 -1.13372 0
M  V30 15587 C 1489.67 -0.853093 -1.89043 0
M  V30 15588 C 1490.1 0.590075 -1.78605 0
M  V30 15589 O 1489.45 1.41462 -1.13394 0
M  V30 15590 C 1489.5 -1.29359 -3.36599 0
M  V30 15591 O 1488.61 -0.452355 -4.09912 0
M  V30 15592 H 1487.95 -0.308922 -0.587761 0
M  V30 15593 H 1490.48 -1.459 -1.43437 0
M  V30 15594 H 1490.49 -1.27921 -3.87428 0
M  V30 15595 H 1489.16 -2.3446 -3.43513 0
M  V30 15596 H 1487.74 -0.531098 -3.69099 0
M  V30 15597 N 1489.92 1.30607 -0.882012 0
M  V30 15598 C 1490.89 2.26489 -0.351498 0
M  V30 15599 C 1491.89 1.52686 0.504348 0
M  V30 15600 O 1493.08 1.71385 0.311928 0
M  V30 15601 C 1490.21 3.37222 0.499435 0
M  V30 15602 H 1491.4 2.74929 -1.19809 0
M  V30 15603 H 1488.96 1.41746 -0.658616 0
M  V30 15604 H 1489.69 2.94093 1.36673 0
M  V30 15605 H 1489.48 3.91936 -0.11356 0
M  V30 15606 H 1490.97 4.08596 0.862497 0
M  V30 15607 N 1491.4 0.642663 1.43901 0
M  V30 15608 C 1492.35 -0.0673926 2.32502 0
M  V30 15609 C 1493.34 -0.823981 1.4801 0
M  V30 15610 O 1494.55 -0.735575 1.64284 0
M  V30 15611 H 1490.93 -0.0405715 0.750905 0
M  V30 15612 H 1492.9 0.69777 2.90127 0
M  V30 15613 C 1491.65 -1.02745 3.32173 0
M  V30 15614 H 1490.97 -0.454697 3.97206 0
M  V30 15615 H 1492.41 -1.49355 3.96824 0
M  V30 15616 C 1490.87 -2.11835 2.61969 0
M  V30 15617 O 1491.4 -3.20074 2.42725 0
M  V30 15618 N 1489.6 -1.88092 2.21517 0
M  V30 15619 H 1489.15 -1.00072 2.37368 0
M  V30 15620 H 1489.11 -2.61279 1.74873 0
M  V30 15621 N 1492.88 -1.52852 0.383918 0
M  V30 15622 C 1493.81 -2.23927 -0.488816 0
M  V30 15623 C 1494.83 -1.2598 -1.03115 0
M  V30 15624 O 1496.02 -1.5209 -0.934398 0
M  V30 15625 C 1493.12 -2.9378 -1.68957 0
M  V30 15626 C 1492.29 -4.18388 -1.27555 0
M  V30 15627 C 1491.35 -4.71287 -2.3404 0
M  V30 15628 O 1490.37 -5.34511 -1.9567 0
M  V30 15629 N 1491.58 -4.50679 -3.65881 0
M  V30 15630 H 1494.34 -2.99459 0.120084 0
M  V30 15631 H 1491.9 -1.60532 0.210004 0
M  V30 15632 H 1493.89 -3.26071 -2.39707 0
M  V30 15633 H 1492.46 -2.21588 -2.20493 0
M  V30 15634 H 1491.68 -3.92194 -0.397157 0
M  V30 15635 H 1492.97 -4.99361 -0.975506 0
M  V30 15636 H 1492.37 -4.00201 -3.9982 0
M  V30 15637 H 1490.93 -4.87473 -4.32681 0
M  V30 15638 N 1494.36 -0.113586 -1.5719 0
M  V30 15639 C 1495.29 0.835363 -2.18046 0
M  V30 15640 C 1496.27 1.28114 -1.11897 0
M  V30 15641 O 1497.46 1.34472 -1.40111 0
M  V30 15642 C 1494.59 2.08759 -2.77556 0
M  V30 15643 C 1493.54 1.77979 -3.8924 0
M  V30 15644 C 1492.87 3.10185 -4.35533 0
M  V30 15645 C 1494.17 1.05231 -5.11589 0
M  V30 15646 H 1495.86 0.328275 -2.97595 0
M  V30 15647 H 1493.41 0.156456 -1.43148 0
M  V30 15648 H 1495.36 2.75597 -3.18785 0
M  V30 15649 H 1494.08 2.61783 -1.95288 0
M  V30 15650 H 1492.74 1.13532 -3.48577 0
M  V30 15651 H 1492.39 3.61133 -3.50131 0
M  V30 15652 H 1492.09 2.90367 -5.10843 0
M  V30 15653 H 1493.61 3.78151 -4.7941 0
M  V30 15654 H 1495.03 1.62213 -5.49872 0
M  V30 15655 H 1493.42 0.955269 -5.92448 0
M  V30 15656 H 1494.49 0.038137 -4.84885 0
M  V30 15657 N 1495.84 1.56784 0.160173 0
M  V30 15658 C 1497.09 1.81812 0.873344 0
M  V30 15659 C 1497.4 0.692686 1.82924 0
M  V30 15660 O 1498.61 0.828202 2.5856 0
M  V30 15661 C 1497.06 3.222 1.6036 0
M  V30 15662 C 1496.67 4.42642 0.690776 0
M  V30 15663 C 1498.41 3.56512 2.30433 0
M  V30 15664 C 1496.32 5.74052 1.4219 0
M  V30 15665 H 1495.25 0.678013 0.32987 0
M  V30 15666 H 1497.9 1.83066 0.126164 0
M  V30 15667 H 1496.28 3.15295 2.39593 0
M  V30 15668 H 1497.46 4.60754 -0.0653914 0
M  V30 15669 H 1495.77 4.16282 0.09913 0
M  V30 15670 H 1498.37 4.51942 2.85749 0
M  V30 15671 H 1498.71 2.8193 3.06303 0
M  V30 15672 H 1499.25 3.65019 1.58132 0
M  V30 15673 H 1495.98 6.51694 0.705318 0
M  V30 15674 H 1495.5 5.59899 2.15111 0
M  V30 15675 H 1497.18 6.16395 1.96639 0
M  V30 15676 N 1497.32 -0.429099 1.51646 0
M  V30 15677 C 1498.26 -1.52143 1.73554 0
M  V30 15678 C 1499.23 -1.55741 0.577416 0
M  V30 15679 O 1500.42 -1.72623 0.812768 0
M  V30 15680 C 1497.56 -2.89785 1.874 0
M  V30 15681 C 1496.67 -2.95652 3.14982 0
M  V30 15682 C 1495.81 -4.24468 3.19375 0
M  V30 15683 C 1494.84 -4.24234 4.41239 0
M  V30 15684 N 1493.98 -5.44587 4.43135 0
M  V30 15685 H 1498.82 -1.32764 2.66791 0
M  V30 15686 H 1496.36 -0.6448 1.32215 0
M  V30 15687 H 1498.32 -3.6966 1.9341 0
M  V30 15688 H 1496.95 -3.07703 0.975638 0
M  V30 15689 H 1496 -2.0839 3.18242 0
M  V30 15690 H 1497.31 -2.91342 4.04872 0
M  V30 15691 H 1496.46 -5.12722 3.24347 0
M  V30 15692 H 1495.2 -4.31446 2.27389 0
M  V30 15693 H 1494.21 -3.34371 4.36435 0
M  V30 15694 H 1495.43 -4.18913 5.34499 0
M  V30 15695 H 1493.38 -5.52271 3.54023 0
M  V30 15696 H 1493.3 -5.42191 5.26845 0
M  V30 15697 H 1494.56 -6.34851 4.5231 0
M  V30 15698 N 1498.79 -1.41931 -0.685074 0
M  V30 15699 C 1499.74 -1.44824 -1.82013 0
M  V30 15700 C 1500.74 -0.325083 -1.66252 0
M  V30 15701 O 1501.94 -0.497614 -1.72985 0
M  V30 15702 H 1498.32 -0.453362 -0.599972 0
M  V30 15703 H 1500.29 -2.40464 -1.76691 0
M  V30 15704 C 1499.04 -1.35753 -3.20104 0
M  V30 15705 H 1498.36 -2.21469 -3.32854 0
M  V30 15706 H 1499.8 -1.41838 -3.99572 0
M  V30 15707 C 1498.26 -0.0710816 -3.36825 0
M  V30 15708 O 1498.79 0.880155 -3.91939 0
M  V30 15709 N 1496.99 0.00842652 -2.90599 0
M  V30 15710 H 1496.54 -0.766427 -2.45934 0
M  V30 15711 H 1496.5 0.868559 -3.02165 0
M  V30 15712 N 1500.27 0.920374 -1.27933 0
M  V30 15713 C 1501.52 1.67131 -1.1487 0
M  V30 15714 C 1501.85 1.91816 0.303343 0
M  V30 15715 O 1501.13 1.51379 1.22125 0
M  V30 15716 C 1501.41 3.03332 -1.94066 0
M  V30 15717 C 1501.26 2.85842 -3.47296 0
M  V30 15718 C 1502.58 4.03773 -1.75087 0
M  V30 15719 H 1499.7 0.606537 -0.418666 0
M  V30 15720 H 1502.34 1.06755 -1.57173 0
M  V30 15721 H 1500.49 3.54869 -1.58116 0
M  V30 15722 H 1502.16 2.41367 -3.93115 0
M  V30 15723 H 1500.41 2.21035 -3.73264 0
M  V30 15724 H 1501.08 3.82535 -3.97958 0
M  V30 15725 H 1503.55 3.61274 -2.06447 0
M  V30 15726 H 1502.43 4.97048 -2.32882 0
M  V30 15727 H 1502.69 4.36512 -0.700665 0
M  V30 15728 N 1501.75 1.10074 1.1279 0
M  V30 15729 C 1502.7 0.746173 2.18405 0
M  V30 15730 C 1503.67 -0.275751 1.63795 0
M  V30 15731 O 1504.85 -0.155876 1.90162 0
M  V30 15732 C 1501.99 0.180105 3.4463 0
M  V30 15733 C 1501.1 1.25688 4.13312 0
M  V30 15734 C 1500.24 0.652852 5.27173 0
M  V30 15735 C 1499.28 1.71046 5.87716 0
M  V30 15736 N 1498.42 1.12698 6.92996 0
M  V30 15737 H 1503.26 1.65105 2.48081 0
M  V30 15738 H 1500.79 0.824768 1.21803 0
M  V30 15739 H 1502.75 -0.165948 4.1687 0
M  V30 15740 H 1501.38 -0.688014 3.15383 0
M  V30 15741 H 1500.43 1.72011 3.39288 0
M  V30 15742 H 1501.74 2.05762 4.54382 0
M  V30 15743 H 1500.9 0.25603 6.0616 0
M  V30 15744 H 1499.64 -0.17937 4.8737 0
M  V30 15745 H 1498.64 2.11676 5.07418 0
M  V30 15746 H 1499.87 2.54547 6.29589 0
M  V30 15747 H 1497.81 0.316154 6.55238 0
M  V30 15748 H 1497.73 1.86461 7.32645 0
M  V30 15749 H 1499 0.756582 7.7582 0
M  V30 15750 N 1503.23 -1.30138 0.888926 0
M  V30 15751 C 1504.48 -1.95602 0.508359 0
M  V30 15752 C 1504.8 -1.70495 -0.946377 0
M  V30 15753 O 1504.07 -1.03073 -1.66592 0
M  V30 15754 H 1502.65 -0.723728 0.185006 0
M  V30 15755 H 1505.31 -1.58594 1.13286 0
M  V30 15756 H 1504.4 -3.04559 0.681915 0
M  V30 15757 N 1504.71 -0.650285 -1.43559 0
M  V30 15758 C 1505.98 -0.0925343 -1.95381 0
M  V30 15759 C 1506.36 1.38668 -1.59168 0
M  V30 15760 O 1505.71 2.11069 -0.875324 0
M  V30 15761 C 1505.92 -0.335657 -3.47382 0
M  V30 15762 C 1507.27 -0.239032 -4.23927 0
M  V30 15763 O 1508.29 -0.268056 -3.5519 0
M  V30 15764 O 1507.15 -0.160241 -5.46265 0
M  V30 15765 H 1504.25 0.0113084 -0.826923 0
M  V30 15766 H 1506.79 -0.723319 -1.53513 0
M  V30 15767 H 1505.56 -1.36132 -3.66857 0
M  V30 15768 H 1505.19 0.328339 -3.96242 0
M  V30 15769 N 1506.18 1.52647 -0.392018 0
M  V30 15770 C 1507.12 2.22965 0.486007 0
M  V30 15771 C 1508.09 1.23138 1.06188 0
M  V30 15772 O 1509.28 1.52133 1.113 0
M  V30 15773 C 1506.41 2.94498 1.67298 0
M  V30 15774 C 1505.45 4.08616 1.22211 0
M  V30 15775 S 1506.28 5.35121 0.201397 0
M  V30 15776 C 1507.44 6.10177 1.39409 0
M  V30 15777 H 1507.67 2.97092 -0.111111 0
M  V30 15778 H 1505.21 1.53391 -0.176221 0
M  V30 15779 H 1507.16 3.3632 2.3537 0
M  V30 15780 H 1505.83 2.20045 2.24141 0
M  V30 15781 H 1505.02 4.57778 2.10844 0
M  V30 15782 H 1504.62 3.68821 0.620272 0
M  V30 15783 H 1506.91 6.36514 2.3207 0
M  V30 15784 H 1507.86 7.01788 0.943337 0
M  V30 15785 H 1508.26 5.4099 1.61213 0
M  V30 15786 N 1507.66 0.121921 1.57128 0
M  V30 15787 C 1508.59 -0.823788 2.18486 0
M  V30 15788 C 1509.57 -1.27519 1.12574 0
M  V30 15789 O 1510.76 -1.33727 1.40822 0
M  V30 15790 C 1507.89 -2.07284 2.78659 0
M  V30 15791 C 1506.84 -1.75912 3.90178 0
M  V30 15792 C 1506.17 -3.07871 4.37172 0
M  V30 15793 C 1507.47 -1.02517 5.1214 0
M  V30 15794 H 1509.16 -0.312488 2.97765 0
M  V30 15795 H 1506.71 -0.148862 1.43228 0
M  V30 15796 H 1508.66 -2.73903 3.20242 0
M  V30 15797 H 1507.39 -2.60743 1.96673 0
M  V30 15798 H 1506.04 -1.11681 3.49174 0
M  V30 15799 H 1505.69 -3.59271 3.52041 0
M  V30 15800 H 1505.39 -2.87653 5.12376 0
M  V30 15801 H 1506.92 -3.75604 4.81409 0
M  V30 15802 H 1508.33 -1.59295 5.50725 0
M  V30 15803 H 1506.73 -0.923836 5.92946 0
M  V30 15804 H 1507.8 -0.0124219 4.84898 0
M  V30 15805 N 1509.14 -1.56867 -0.151857 0
M  V30 15806 C 1510.05 -2.01157 -1.20718 0
M  V30 15807 C 1511.07 -0.926166 -1.47303 0
M  V30 15808 O 1512.24 -1.23528 -1.59069 0
M  V30 15809 C 1509.31 -2.37915 -2.52185 0
M  V30 15810 C 1508.37 -3.60381 -2.3329 0
M  V30 15811 C 1507.6 -3.95376 -3.58488 0
M  V30 15812 O 1507.82 -3.31093 -4.64471 0
M  V30 15813 O 1506.76 -4.88645 -3.5144 0
M  V30 15814 H 1510.58 -2.91234 -0.861175 0
M  V30 15815 H 1508.17 -1.44993 -0.360213 0
M  V30 15816 H 1510.05 -2.6244 -3.29702 0
M  V30 15817 H 1508.73 -1.50995 -2.86325 0
M  V30 15818 H 1507.63 -3.4105 -1.5374 0
M  V30 15819 H 1508.97 -4.47903 -2.04067 0
M  V30 15820 N 1510.62 0.421051 -1.51871 0
M  V30 15821 C 1511.87 1.16611 -1.64574 0
M  V30 15822 C 1512.18 1.91955 -0.375835 0
M  V30 15823 O 1513.39 2.68792 -0.382481 0
M  V30 15824 C 1511.84 2.12164 -2.90714 0
M  V30 15825 C 1511.45 1.42392 -4.24769 0
M  V30 15826 C 1513.19 2.87002 -3.12778 0
M  V30 15827 C 1511.1 2.36523 -5.42043 0
M  V30 15828 H 1510.03 0.438989 -0.613029 0
M  V30 15829 H 1512.68 0.431636 -1.78351 0
M  V30 15830 H 1511.06 2.89114 -2.70608 0
M  V30 15831 H 1512.24 0.708875 -4.55315 0
M  V30 15832 H 1510.55 0.796421 -4.08713 0
M  V30 15833 H 1513.15 3.5755 -3.9757 0
M  V30 15834 H 1513.49 3.49277 -2.2652 0
M  V30 15835 H 1514.03 2.17154 -3.333 0
M  V30 15836 H 1510.77 1.78913 -6.30611 0
M  V30 15837 H 1510.29 3.06034 -5.15852 0
M  V30 15838 H 1511.96 2.97306 -5.74646 0
M  V30 15839 N 1512.1 1.42293 0.677538 0
M  V30 15840 C 1513.34 1.42827 1.43973 0
M  V30 15841 C 1513.68 0.0435041 1.94151 0
M  V30 15842 O 1512.95 -0.931794 1.70727 0
M  V30 15843 C 1513.23 2.45037 2.63873 0
M  V30 15844 C 1513.09 3.92694 2.19344 0
M  V30 15845 C 1514.41 2.4427 3.66087 0
M  V30 15846 H 1511.52 0.520097 0.522176 0
M  V30 15847 H 1514.17 1.73688 0.770219 0
M  V30 15848 H 1512.32 2.18851 3.20993 0
M  V30 15849 H 1513.99 4.2985 1.67412 0
M  V30 15850 H 1512.23 4.06692 1.50944 0
M  V30 15851 H 1512.9 4.59784 3.05455 0
M  V30 15852 H 1515.38 2.67551 3.18678 0
M  V30 15853 H 1514.25 3.17769 4.47564 0
M  V30 15854 H 1514.52 1.46769 4.17027 0
M  V30 15855 N 1513.57 -0.913576 1.28419 0
M  V30 15856 C 1514.51 -2.01727 1.06683 0
M  V30 15857 C 1515.49 -1.62591 -0.0171379 0
M  V30 15858 O 1516.67 -1.88045 0.130827 0
M  V30 15859 C 1513.8 -3.32954 0.621229 0
M  V30 15860 C 1512.84 -3.91074 1.70187 0
M  V30 15861 S 1513.68 -4.21902 3.29786 0
M  V30 15862 C 1514.83 -5.5619 2.8706 0
M  V30 15863 H 1515.06 -2.19855 2.00127 0
M  V30 15864 H 1512.6 -1.05846 1.1241 0
M  V30 15865 H 1514.56 -4.08822 0.370832 0
M  V30 15866 H 1513.22 -3.12727 -0.293381 0
M  V30 15867 H 1512.41 -4.85813 1.3417 0
M  V30 15868 H 1512.01 -3.21843 1.90507 0
M  V30 15869 H 1514.3 -6.36085 2.33242 0
M  V30 15870 H 1515.25 -5.97119 3.80598 0
M  V30 15871 H 1515.65 -5.17386 2.25771 0
M  V30 15872 N 1515.05 -1.1067 -1.12204 0
M  V30 15873 C 1515.96 -0.770221 -2.21596 0
M  V30 15874 C 1516.98 0.233297 -1.72429 0
M  V30 15875 O 1518.15 0.0714493 -2.01273 0
M  V30 15876 C 1515.22 -0.209682 -3.46065 0
M  V30 15877 C 1514.28 -1.27079 -4.1006 0
M  V30 15878 C 1513.51 -0.736899 -5.28588 0
M  V30 15879 O 1513.74 0.435838 -5.68732 0
M  V30 15880 O 1512.67 -1.49797 -5.82962 0
M  V30 15881 H 1516.5 -1.6834 -2.52776 0
M  V30 15882 H 1514.08 -0.882012 -1.20586 0
M  V30 15883 H 1515.96 0.0989516 -4.21284 0
M  V30 15884 H 1514.64 0.676316 -3.16556 0
M  V30 15885 H 1513.55 -1.63231 -3.3661 0
M  V30 15886 H 1514.88 -2.12989 -4.4373 0
M  V30 15887 N 1516.53 1.29665 -0.895815 0
M  V30 15888 C 1517.78 1.94995 -0.515749 0
M  V30 15889 C 1518.09 1.71427 0.94192 0
M  V30 15890 O 1519.3 2.3083 1.42933 0
M  V30 15891 C 1517.75 3.4919 -0.871468 0
M  V30 15892 C 1517.36 3.81562 -2.34764 0
M  V30 15893 C 1519.11 4.20775 -0.561123 0
M  V30 15894 C 1517.01 5.28984 -2.64442 0
M  V30 15895 H 1515.94 0.729889 -0.189151 0
M  V30 15896 H 1518.59 1.4745 -1.09228 0
M  V30 15897 H 1516.98 3.95366 -0.223908 0
M  V30 15898 H 1518.15 3.46258 -3.04043 0
M  V30 15899 H 1516.47 3.23107 -2.62661 0
M  V30 15900 H 1519.06 5.29275 -0.759755 0
M  V30 15901 H 1519.41 4.13285 0.500129 0
M  V30 15902 H 1519.94 3.80317 -1.16635 0
M  V30 15903 H 1516.68 5.41535 -3.69351 0
M  V30 15904 H 1516.2 5.6555 -1.99784 0
M  V30 15905 H 1517.88 5.96536 -2.50506 0
M  V30 15906 N 1518.01 0.657889 1.43212 0
M  V30 15907 C 1519.29 0.102895 1.95329 0
M  V30 15908 C 1519.67 -1.37821 1.59901 0
M  V30 15909 O 1519.01 -2.10602 0.886505 0
M  V30 15910 C 1519.22 0.354075 3.47199 0
M  V30 15911 C 1520.57 0.261511 4.23794 0
M  V30 15912 O 1521.6 0.286889 3.55043 0
M  V30 15913 O 1520.45 0.189209 5.46172 0
M  V30 15914 H 1517.55 -0.00692284 0.826971 0
M  V30 15915 H 1520.09 0.73145 1.53127 0
M  V30 15916 H 1518.87 1.38075 3.6613 0
M  V30 15917 H 1518.49 -0.307321 3.96411 0
M  V30 15918 N 1519.49 -1.52437 0.400108 0
M  V30 15919 C 1520.9 -1.86563 -0.0715162 0
M  V30 15920 C 1521.25 -1.3193 -1.4522 0
M  V30 15921 O 1520.37 -0.654955 -2.06251 0
M  V30 15922 C 1520.97 -3.38525 -0.13655 0
M  V30 15923 C 1519.53 -3.72323 -0.55249 0
M  V30 15924 C 1518.67 -2.75896 0.278729 0
M  V30 15925 H 1521.63 -1.46192 0.617547 0
M  V30 15926 H 1521.65 -3.68357 -0.953588 0
M  V30 15927 H 1521.16 -3.78258 0.868468 0
M  V30 15928 H 1519.26 -3.38164 -1.56448 0
M  V30 15929 H 1519.37 -4.7814 -0.303139 0
M  V30 15930 H 1517.74 -2.53394 -0.257608 0
M  V30 15931 H 1518.52 -3.18467 1.28193 0
M  V30 15932 N 1520.96 -0.130252 -1.57061 0
M  V30 15933 C 1522.38 0.226279 -1.57988 0
M  V30 15934 C 1522.58 1.65902 -1.14363 0
M  V30 15935 O 1521.64 2.38252 -0.836191 0
M  V30 15936 C 1522.95 -0.0172647 -3.00695 0
M  V30 15937 C 1524.5 0.0477572 -3.12964 0
M  V30 15938 C 1524.97 -0.168238 -4.57691 0
M  V30 15939 N 1526.46 -0.114591 -4.63058 0
M  V30 15940 C 1527.2 -0.256462 -5.72826 0
M  V30 15941 N 1526.69 -0.455129 -6.91303 0
M  V30 15942 N 1528.49 -0.195243 -5.61761 0
M  V30 15943 H 1520.64 -1.06594 -1.83716 0
M  V30 15944 H 1522.9 -0.420643 -0.849567 0
M  V30 15945 H 1522.61 -1.00819 -3.3694 0
M  V30 15946 H 1522.48 0.709629 -3.70465 0
M  V30 15947 H 1524.87 1.02922 -2.7657 0
M  V30 15948 H 1524.95 -0.711198 -2.45714 0
M  V30 15949 H 1524.59 -1.14673 -4.94785 0
M  V30 15950 H 1524.52 0.610839 -5.23045 0
M  V30 15951 H 1527.01 0.0349873 -3.77884 0
M  V30 15952 H 1527.33 -0.553943 -7.70812 0
M  V30 15953 H 1525.67 -0.491244 -6.93262 0
M  V30 15954 H 1528.86 -0.0409186 -4.68082 0
M  V30 15955 H 1529.04 -0.309248 -6.47262 0
M  V30 15956 N 1522.44 1.56945 0.143535 0
M  V30 15957 C 1523.35 2.01795 1.1965 0
M  V30 15958 C 1524.37 0.933965 1.4681 0
M  V30 15959 O 1525.55 1.2437 1.58411 0
M  V30 15960 C 1522.61 2.39249 2.5092 0
M  V30 15961 C 1521.67 3.61613 2.31376 0
M  V30 15962 C 1520.9 3.97271 3.56386 0
M  V30 15963 O 1521.13 3.33552 4.62709 0
M  V30 15964 O 1520.06 4.90501 3.48844 0
M  V30 15965 H 1523.89 2.91687 0.845718 0
M  V30 15966 H 1521.47 1.45182 0.352518 0
M  V30 15967 H 1523.35 2.64184 3.28306 0
M  V30 15968 H 1522.03 1.52511 2.85521 0
M  V30 15969 H 1520.94 3.4186 1.51929 0
M  V30 15970 H 1522.27 4.48979 2.01689 0
M  V30 15971 N 1523.92 -0.412991 1.52093 0
M  V30 15972 C 1524.88 -1.48555 1.7454 0
M  V30 15973 C 1525.88 -1.48563 0.615283 0
M  V30 15974 O 1527.07 -1.50155 0.883119 0
M  V30 15975 C 1524.21 -2.87984 1.82423 0
M  V30 15976 H 1525.4 -1.29945 2.70285 0
M  V30 15977 H 1522.95 -0.643241 1.4245 0
M  V30 15978 H 1523.69 -3.11969 0.885777 0
M  V30 15979 H 1523.47 -2.89381 2.64577 0
M  V30 15980 H 1524.96 -3.65745 2.01545 0
M  V30 15981 N 1525.4 -1.4265 -0.669982 0
M  V30 15982 C 1526.33 -1.42457 -1.79551 0
M  V30 15983 C 1527.34 -0.322966 -1.59564 0
M  V30 15984 O 1528.53 -0.586359 -1.68594 0
M  V30 15985 C 1525.63 -1.20561 -3.16731 0
M  V30 15986 C 1524.81 -2.43246 -3.63525 0
M  V30 15987 C 1523.87 -2.16823 -4.79452 0
M  V30 15988 O 1522.89 -2.90058 -4.8975 0
M  V30 15989 N 1524.09 -1.17436 -5.68497 0
M  V30 15990 H 1526.86 -2.39474 -1.80201 0
M  V30 15991 H 1524.42 -1.37591 -0.853244 0
M  V30 15992 H 1526.41 -1.00794 -3.91947 0
M  V30 15993 H 1524.98 -0.320497 -3.10953 0
M  V30 15994 H 1524.2 -2.78549 -2.78934 0
M  V30 15995 H 1525.49 -3.24931 -3.91532 0
M  V30 15996 H 1524.89 -0.568736 -5.62834 0
M  V30 15997 H 1523.44 -1.03655 -6.43505 0
M  V30 15998 N 1526.88 0.906753 -1.28902 0
M  V30 15999 C 1527.82 2.01004 -1.13429 0
M  V30 16000 C 1528.79 1.66074 -0.0295031 0
M  V30 16001 O 1529.98 1.89793 -0.195727 0
M  V30 16002 C 1527.12 3.35473 -0.809457 0
M  V30 16003 C 1526.23 3.83229 -1.99398 0
M  V30 16004 C 1525.37 5.06241 -1.60915 0
M  V30 16005 C 1524.41 5.46348 -2.7599 0
M  V30 16006 N 1523.54 6.60548 -2.37952 0
M  V30 16007 H 1528.38 2.13571 -2.07825 0
M  V30 16008 H 1525.92 1.046 -1.03428 0
M  V30 16009 H 1527.88 4.12836 -0.601845 0
M  V30 16010 H 1526.51 3.22652 0.0975896 0
M  V30 16011 H 1525.56 3.01962 -2.31351 0
M  V30 16012 H 1526.87 4.08908 -2.85649 0
M  V30 16013 H 1526.03 5.91168 -1.36401 0
M  V30 16014 H 1524.77 4.82385 -0.718021 0
M  V30 16015 H 1523.77 4.59959 -3.01195 0
M  V30 16016 H 1525 5.72188 -3.65757 0
M  V30 16017 H 1522.94 6.38309 -1.51318 0
M  V30 16018 H 1522.86 6.85987 -3.17738 0
M  V30 16019 H 1524.13 7.48762 -2.1674 0
M  V30 16020 N 1528.36 1.11264 1.11616 0
M  V30 16021 C 1529.6 0.860364 1.83314 0
M  V30 16022 C 1529.93 -0.614011 1.84554 0
M  V30 16023 O 1529.19 -1.4692 1.29279 0
M  V30 16024 C 1529.48 1.36481 3.30315 0
M  V30 16025 C 1529.15 2.85209 3.49237 0
M  V30 16026 C 1527.81 3.25822 3.54109 0
M  V30 16027 C 1530.16 3.81009 3.55642 0
M  V30 16028 C 1527.49 4.60968 3.62941 0
M  V30 16029 C 1529.84 5.15968 3.66005 0
M  V30 16030 C 1528.51 5.56142 3.69137 0
M  V30 16031 H 1527.78 0.314829 0.670793 0
M  V30 16032 H 1530.43 1.39073 1.31647 0
M  V30 16033 H 1528.73 0.754639 3.84464 0
M  V30 16034 H 1530.43 1.14597 3.84276 0
M  V30 16035 H 1527.02 2.52791 3.46114 0
M  V30 16036 H 1531.2 3.50734 3.5114 0
M  V30 16037 H 1526.46 4.91503 3.63641 0
M  V30 16038 H 1530.63 5.90037 3.69904 0
M  V30 16039 H 1528.26 6.60855 3.75732 0
M  V30 16040 N 1529.83 -1.29188 0.902679 0
M  V30 16041 C 1531.08 -1.95052 0.529076 0
M  V30 16042 C 1531.4 -1.7149 -0.92824 0
M  V30 16043 O 1530.67 -1.04834 -1.65489 0
M  V30 16044 H 1529.25 -0.721725 0.192671 0
M  V30 16045 H 1531.91 -1.57384 1.14962 0
M  V30 16046 H 1531.01 -3.03819 0.714179 0
M  V30 16047 N 1531.31 -0.665475 -1.42861 0
M  V30 16048 C 1532.24 0.00482845 -2.335 0
M  V30 16049 C 1533.22 0.799135 -1.50159 0
M  V30 16050 O 1534.41 0.75816 -1.78789 0
M  V30 16051 C 1531.54 0.963347 -3.33672 0
M  V30 16052 C 1530.49 0.278294 -4.27094 0
M  V30 16053 C 1529.82 1.34911 -5.174 0
M  V30 16054 C 1531.12 -0.836925 -5.15551 0
M  V30 16055 H 1532.81 -0.752129 -2.89799 0
M  V30 16056 H 1530.36 -0.363139 -1.39346 0
M  V30 16057 H 1532.31 1.44128 -3.95986 0
M  V30 16058 H 1531.03 1.75161 -2.75656 0
M  V30 16059 H 1529.69 -0.179314 -3.66161 0
M  V30 16060 H 1529.34 2.12912 -4.55716 0
M  V30 16061 H 1529.04 0.895919 -5.8073 0
M  V30 16062 H 1530.57 1.82816 -5.8259 0
M  V30 16063 H 1531.98 -0.440617 -5.71604 0
M  V30 16064 H 1530.38 -1.21533 -5.87665 0
M  V30 16065 H 1531.45 -1.6897 -4.54507 0
M  V30 16066 N 1532.79 1.52222 -0.408187 0
M  V30 16067 C 1533.74 2.26988 0.417767 0
M  V30 16068 C 1534.71 1.29362 1.04185 0
M  V30 16069 O 1535.89 1.58223 1.06631 0
M  V30 16070 C 1533.03 3.09379 1.52901 0
M  V30 16071 C 1532.14 4.2196 0.92593 0
M  V30 16072 C 1531.28 4.91712 2.00979 0
M  V30 16073 C 1530.32 5.96258 1.3836 0
M  V30 16074 N 1529.46 6.59531 2.40756 0
M  V30 16075 H 1534.3 2.9714 -0.226228 0
M  V30 16076 H 1531.83 1.46581 -0.123402 0
M  V30 16077 H 1533.79 3.55452 2.18425 0
M  V30 16078 H 1532.42 2.41399 2.14304 0
M  V30 16079 H 1531.47 3.80064 0.159765 0
M  V30 16080 H 1532.78 4.96956 0.428497 0
M  V30 16081 H 1531.94 5.41186 2.74231 0
M  V30 16082 H 1530.68 4.16282 2.54087 0
M  V30 16083 H 1529.68 5.46104 0.636402 0
M  V30 16084 H 1530.91 6.7363 0.860218 0
M  V30 16085 H 1528.85 5.86931 2.92999 0
M  V30 16086 H 1528.77 7.30198 1.95822 0
M  V30 16087 H 1530.04 7.13643 3.13581 0
M  V30 16088 N 1534.27 0.138579 1.5699 0
M  V30 16089 C 1535.51 -0.51539 1.96142 0
M  V30 16090 C 1535.85 -1.65067 1.02306 0
M  V30 16091 O 1535.12 -1.94395 0.0638645 0
M  V30 16092 C 1535.4 -1.02956 3.45068 0
M  V30 16093 C 1535.26 0.103646 4.49681 0
M  V30 16094 C 1536.58 -1.91411 3.96295 0
M  V30 16095 H 1533.7 -0.185873 0.713176 0
M  V30 16096 H 1536.34 0.218103 1.88744 0
M  V30 16097 H 1534.49 -1.65462 3.51503 0
M  V30 16098 H 1536.16 0.739693 4.55331 0
M  V30 16099 H 1534.4 0.764014 4.27019 0
M  V30 16100 H 1535.07 -0.297688 5.51197 0
M  V30 16101 H 1537.55 -1.38746 3.92286 0
M  V30 16102 H 1536.43 -2.24298 5.0098 0
M  V30 16103 H 1536.69 -2.84793 3.38149 0
M  V30 16104 N 1535.75 -1.57019 -0.13521 0
M  V30 16105 C 1537.16 -1.51949 -0.48824 0
M  V30 16106 C 1537.36 -0.848955 -1.82743 0
M  V30 16107 O 1536.42 -0.424441 -2.48907 0
M  V30 16108 C 1537.73 -2.96719 -0.487673 0
M  V30 16109 C 1539.28 -3.07722 -0.572365 0
M  V30 16110 C 1539.75 -4.54022 -0.602347 0
M  V30 16111 N 1541.24 -4.58413 -0.664242 0
M  V30 16112 C 1541.98 -5.69005 -0.70862 0
M  V30 16113 N 1541.48 -6.89135 -0.711626 0
M  V30 16114 N 1543.27 -5.57069 -0.750399 0
M  V30 16115 H 1535.42 -1.99001 0.742465 0
M  V30 16116 H 1537.68 -0.908116 0.272083 0
M  V30 16117 H 1537.39 -3.49082 0.428363 0
M  V30 16118 H 1537.26 -3.53299 -1.32136 0
M  V30 16119 H 1539.65 -2.55372 -1.47882 0
M  V30 16120 H 1539.73 -2.54166 0.288696 0
M  V30 16121 H 1539.37 -5.07013 0.3 0
M  V30 16122 H 1539.3 -5.05373 -1.48006 0
M  V30 16123 H 1541.8 -3.71936 -0.668739 0
M  V30 16124 H 1542.11 -7.69175 -0.747663 0
M  V30 16125 H 1540.45 -6.91672 -0.679311 0
M  V30 16126 H 1543.64 -4.62129 -0.745301 0
M  V30 16127 H 1543.82 -6.4327 -0.781518 0
M  V30 16128 N 1537.22 0.404919 -1.52309 0
M  V30 16129 C 1538.64 0.743846 -1.41206 0
M  V30 16130 C 1538.84 1.94678 -0.519874 0
M  V30 16131 O 1537.9 2.52497 0.0127417 0
M  V30 16132 C 1539.21 0.99384 -2.83802 0
M  V30 16133 C 1540.76 1.0963 -2.93173 0
M  V30 16134 C 1541.23 1.37902 -4.36746 0
M  V30 16135 N 1542.72 1.44758 -4.39999 0
M  V30 16136 C 1543.46 1.68269 -5.48154 0
M  V30 16137 N 1542.95 1.89356 -6.6642 0
M  V30 16138 N 1544.75 1.70318 -5.35675 0
M  V30 16139 H 1536.9 -0.386855 -2.08847 0
M  V30 16140 H 1539.16 -0.110811 -0.941501 0
M  V30 16141 H 1538.87 0.182249 -3.51227 0
M  V30 16142 H 1538.74 1.91287 -3.25099 0
M  V30 16143 H 1541.13 1.89847 -2.25925 0
M  V30 16144 H 1541.21 0.155539 -2.55327 0
M  V30 16145 H 1540.85 0.582004 -5.04554 0
M  V30 16146 H 1540.78 2.33237 -4.72132 0
M  V30 16147 H 1543.27 1.30235 -3.5475 0
M  V30 16148 H 1543.59 2.06758 -7.44628 0
M  V30 16149 H 1541.93 1.86612 -6.69478 0
M  V30 16150 H 1545.12 1.53385 -4.42256 0
M  V30 16151 H 1545.3 1.88302 -6.20037 0
M  V30 16152 N 1538.7 1.43003 0.662408 0
M  V30 16153 C 1539.93 1.47766 1.45533 0
M  V30 16154 C 1540.35 0.0940298 1.87865 0
M  V30 16155 O 1539.71 -0.910252 1.56793 0
M  V30 16156 C 1539.76 2.42084 2.6726 0
M  V30 16157 O 1538.86 1.90076 3.65985 0
M  V30 16158 H 1538.2 0.500167 0.436725 0
M  V30 16159 H 1540.73 1.87823 0.811399 0
M  V30 16160 H 1540.74 2.5908 3.15185 0
M  V30 16161 H 1539.42 3.42601 2.3579 0
M  V30 16162 H 1538 1.82695 3.2508 0
M  V30 16163 N 1540.18 -0.899904 1.29381 0
M  V30 16164 C 1541.09 -2.03699 1.16378 0
M  V30 16165 C 1542.11 -1.73782 0.0870792 0
M  V30 16166 O 1543.28 -1.99167 0.299109 0
M  V30 16167 C 1540.35 -3.36341 0.841166 0
M  V30 16168 C 1539.41 -3.79778 2.00168 0
M  V30 16169 C 1538.64 -5.0609 1.69437 0
M  V30 16170 O 1538.86 -5.67073 0.615212 0
M  V30 16171 O 1537.8 -5.45574 2.54229 0
M  V30 16172 H 1541.62 -2.17592 2.11866 0
M  V30 16173 H 1539.21 -1.02353 1.08831 0
M  V30 16174 H 1541.09 -4.15946 0.675803 0
M  V30 16175 H 1539.77 -3.23591 -0.0839376 0
M  V30 16176 H 1538.67 -3.00941 2.22229 0
M  V30 16177 H 1540.01 -3.97111 2.90798 0
M  V30 16178 N 1541.66 -1.11854 -1.11024 0
M  V30 16179 C 1542.61 -0.780825 -2.17191 0
M  V30 16180 C 1543.58 0.249657 -1.64213 0
M  V30 16181 O 1544.76 0.125603 -1.90386 0
M  V30 16182 C 1541.9 -0.23491 -3.443 0
M  V30 16183 C 1541.01 -1.32247 -4.1126 0
M  V30 16184 C 1540.15 -0.736638 -5.26068 0
M  V30 16185 C 1539.19 -1.80375 -5.8492 0
M  V30 16186 N 1538.32 -1.23709 -6.91115 0
M  V30 16187 H 1543.16 -1.69031 -2.45423 0
M  V30 16188 H 1540.7 -0.844041 -1.20476 0
M  V30 16189 H 1542.66 0.0996064 -4.17081 0
M  V30 16190 H 1541.29 0.637752 -3.16437 0
M  V30 16191 H 1540.34 -1.77387 -3.36509 0
M  V30 16192 H 1541.65 -2.12965 -4.51051 0
M  V30 16193 H 1540.81 -0.352432 -6.05675 0
M  V30 16194 H 1539.55 0.101811 -4.87594 0
M  V30 16195 H 1538.55 -2.19721 -5.03987 0
M  V30 16196 H 1539.78 -2.64531 -6.2546 0
M  V30 16197 H 1537.72 -0.420357 -6.54652 0
M  V30 16198 H 1537.64 -1.98093 -7.29586 0
M  V30 16199 H 1538.91 -0.879912 -7.74518 0
M  V30 16200 N 1543.14 1.28707 -0.909517 0
M  V30 16201 C 1544.38 1.94768 -0.539413 0
M  V30 16202 C 1544.71 1.7198 0.919133 0
M  V30 16203 O 1543.98 1.0571 1.64931 0
M  V30 16204 H 1542.56 0.720693 -0.196496 0
M  V30 16205 H 1545.22 1.56772 -1.15795 0
M  V30 16206 H 1544.31 3.03436 -0.730281 0
M  V30 16207 N 1544.61 0.673042 1.42506 0
M  V30 16208 C 1545.55 -0.0452975 2.29155 0
M  V30 16209 C 1546.56 -0.767277 1.43585 0
M  V30 16210 O 1547.75 -0.621728 1.67322 0
M  V30 16211 C 1544.85 -1.0878 3.20967 0
M  V30 16212 C 1544.02 -0.439999 4.35181 0
M  V30 16213 C 1543.08 -1.38205 5.07726 0
M  V30 16214 O 1542.11 -0.883031 5.62309 0
M  V30 16215 N 1543.31 -2.7154 5.13075 0
M  V30 16216 H 1546.07 0.698517 2.91446 0
M  V30 16217 H 1543.63 0.517322 1.53412 0
M  V30 16218 H 1545.63 -1.71925 3.66366 0
M  V30 16219 H 1544.2 -1.73337 2.6014 0
M  V30 16220 H 1543.42 0.370926 3.92451 0
M  V30 16221 H 1544.7 0.0113738 5.08799 0
M  V30 16222 H 1544.1 -3.14623 4.70137 0
M  V30 16223 H 1542.66 -3.29937 5.62126 0
M  V30 16224 N 1546.09 -1.52004 0.416254 0
M  V30 16225 C 1547 -2.30947 -0.412403 0
M  V30 16226 C 1548.02 -1.38969 -1.04707 0
M  V30 16227 O 1549.19 -1.72044 -1.04703 0
M  V30 16228 C 1546.26 -3.12078 -1.51024 0
M  V30 16229 C 1545.32 -4.19805 -0.897892 0
M  V30 16230 C 1544.55 -4.97059 -1.94341 0
M  V30 16231 O 1544.78 -4.74695 -3.16261 0
M  V30 16232 O 1543.71 -5.81715 -1.54567 0
M  V30 16233 H 1547.54 -3.02817 0.231473 0
M  V30 16234 H 1545.12 -1.4832 0.179283 0
M  V30 16235 H 1547 -3.6258 -2.14741 0
M  V30 16236 H 1545.68 -2.42995 -2.13858 0
M  V30 16237 H 1544.59 -3.73433 -0.223236 0
M  V30 16238 H 1545.92 -4.91201 -0.31336 0
M  V30 16239 N 1547.57 -0.146903 -1.56914 0
M  V30 16240 C 1548.48 0.805875 -2.20324 0
M  V30 16241 C 1549.5 1.27178 -1.18751 0
M  V30 16242 O 1550.67 1.32899 -1.51327 0
M  V30 16243 C 1547.74 2.02755 -2.81232 0
M  V30 16244 C 1546.8 1.61089 -3.97931 0
M  V30 16245 C 1546.03 2.77433 -4.55924 0
M  V30 16246 O 1546.25 3.93643 -4.12797 0
M  V30 16247 O 1545.19 2.52911 -5.46187 0
M  V30 16248 H 1549.01 0.296098 -3.02253 0
M  V30 16249 H 1546.6 0.0801175 -1.49185 0
M  V30 16250 H 1548.48 2.74252 -3.19944 0
M  V30 16251 H 1547.16 2.52686 -2.02316 0
M  V30 16252 H 1546.06 0.86616 -3.63935 0
M  V30 16253 H 1547.4 1.15874 -4.78366 0
M  V30 16254 N 1549.05 1.57088 0.126881 0
M  V30 16255 C 1550.28 1.88614 0.850444 0
M  V30 16256 C 1550.69 0.737309 1.73808 0
M  V30 16257 O 1550.05 -0.292196 1.80146 0
M  V30 16258 C 1550.1 3.19541 1.69044 0
M  V30 16259 O 1549.82 4.3 0.838555 0
M  V30 16260 C 1551.32 3.64717 2.51985 0
M  V30 16261 H 1548.54 0.624715 0.244892 0
M  V30 16262 H 1551.09 2.04184 0.113634 0
M  V30 16263 H 1549.24 3.05664 2.38009 0
M  V30 16264 H 1549.65 5.04992 1.41717 0
M  V30 16265 H 1551.13 4.5911 3.06467 0
M  V30 16266 H 1551.61 2.90986 3.28974 0
M  V30 16267 H 1552.21 3.81356 1.88276 0
M  V30 16268 N 1550.53 -0.396836 1.52522 0
M  V30 16269 C 1551.46 -1.49088 1.79708 0
M  V30 16270 C 1552.44 -1.57246 0.648678 0
M  V30 16271 O 1553.62 -1.72321 0.895495 0
M  V30 16272 C 1550.75 -2.86785 1.95887 0
M  V30 16273 C 1549.71 -2.93472 3.11542 0
M  V30 16274 C 1549.03 -4.33542 3.12963 0
M  V30 16275 C 1550.33 -2.63832 4.50766 0
M  V30 16276 H 1552.03 -1.26588 2.71322 0
M  V30 16277 H 1549.57 -0.607535 1.30557 0
M  V30 16278 H 1551.53 -3.63319 2.13489 0
M  V30 16279 H 1550.25 -3.10605 1.00955 0
M  V30 16280 H 1548.91 -2.19384 2.93711 0
M  V30 16281 H 1548.56 -4.5439 2.15729 0
M  V30 16282 H 1548.26 -4.38938 3.9065 0
M  V30 16283 H 1549.78 -5.11993 3.32709 0
M  V30 16284 H 1551.19 -3.30086 4.68739 0
M  V30 16285 H 1549.59 -2.80589 5.30462 0
M  V30 16286 H 1550.66 -1.59209 4.58018 0
M  V30 16287 N 1552.01 -1.43353 -0.654814 0
M  V30 16288 C 1553.25 -1.44172 -1.41058 0
M  V30 16289 C 1553.57 -0.0690586 -1.95478 0
M  V30 16290 O 1554.77 0.0453021 -2.71462 0
M  V30 16291 C 1553.23 -2.53701 -2.55272 0
M  V30 16292 C 1552.84 -3.97066 -2.07466 0
M  V30 16293 C 1554.58 -2.63713 -3.3265 0
M  V30 16294 C 1552.49 -4.98065 -3.18881 0
M  V30 16295 H 1551.42 -0.536303 -0.529995 0
M  V30 16296 H 1554.07 -1.69336 -0.706941 0
M  V30 16297 H 1552.45 -2.21736 -3.28099 0
M  V30 16298 H 1553.63 -4.38485 -1.4166 0
M  V30 16299 H 1551.94 -3.91086 -1.42972 0
M  V30 16300 H 1554.54 -3.36346 -4.15663 0
M  V30 16301 H 1554.88 -1.68729 -3.80574 0
M  V30 16302 H 1555.41 -2.94971 -2.66902 0
M  V30 16303 H 1552.15 -5.94596 -2.75927 0
M  V30 16304 H 1551.67 -4.61261 -3.83404 0
M  V30 16305 H 1553.35 -5.20696 -3.84037 0
M  V30 16306 N 1553.48 0.89303 -1.29857 0
M  V30 16307 C 1554.71 1.675 -1.20943 0
M  V30 16308 C 1555.12 1.87779 0.231435 0
M  V30 16309 O 1554.46 1.41955 1.16596 0
M  V30 16310 C 1554.53 3.07722 -1.8587 0
M  V30 16311 C 1554.19 3.10647 -3.35182 0
M  V30 16312 C 1555.19 2.903 -4.31303 0
M  V30 16313 C 1552.87 3.32501 -3.76495 0
M  V30 16314 C 1554.87 2.91749 -5.66711 0
M  V30 16315 C 1552.55 3.33581 -5.12022 0
M  V30 16316 C 1553.55 3.13228 -6.06941 0
M  V30 16317 O 1553.24 3.14109 -7.39994 0
M  V30 16318 H 1552.97 0.529708 -0.419982 0
M  V30 16319 H 1555.53 1.12466 -1.71874 0
M  V30 16320 H 1553.76 3.64386 -1.29459 0
M  V30 16321 H 1555.44 3.68035 -1.71187 0
M  V30 16322 H 1556.21 2.73221 -4.00718 0
M  V30 16323 H 1552.09 3.47381 -3.03064 0
M  V30 16324 H 1555.63 2.75782 -6.40773 0
M  V30 16325 H 1551.53 3.50193 -5.4225 0
M  V30 16326 H 1552.3 3.3033 -7.48882 0
M  V30 16327 N 1554.96 1.12442 1.10429 0
M  V30 16328 C 1556.19 0.901291 1.85904 0
M  V30 16329 C 1556.6 -0.552928 1.8094 0
M  V30 16330 O 1555.94 -1.39404 1.19633 0
M  V30 16331 C 1556 1.29808 3.35246 0
M  V30 16332 C 1555.67 2.76361 3.63969 0
M  V30 16333 C 1556.67 3.74553 3.60564 0
M  V30 16334 C 1554.35 3.13268 3.92643 0
M  V30 16335 C 1556.34 5.07667 3.85426 0
M  V30 16336 C 1554.03 4.46564 4.17162 0
M  V30 16337 C 1555.03 5.43572 4.13544 0
M  V30 16338 O 1554.72 6.74465 4.37439 0
M  V30 16339 H 1554.45 0.321969 0.5944 0
M  V30 16340 H 1557 1.49816 1.40514 0
M  V30 16341 H 1555.23 0.644416 3.81293 0
M  V30 16342 H 1556.92 1.04908 3.92108 0
M  V30 16343 H 1557.69 3.47385 3.3845 0
M  V30 16344 H 1553.57 2.3837 3.94589 0
M  V30 16345 H 1557.11 5.83375 3.82518 0
M  V30 16346 H 1553.01 4.73461 4.38754 0
M  V30 16347 H 1553.78 6.80412 4.54953 0
M  V30 16348 N 1556.44 -1.28223 0.91633 0
M  V30 16349 C 1557.72 -1.89878 0.469661 0
M  V30 16350 C 1558.1 -1.83037 -1.05169 0
M  V30 16351 O 1557.44 -1.26801 -1.90088 0
M  V30 16352 C 1557.65 -3.34279 1.00293 0
M  V30 16353 C 1559 -4.11244 1.05657 0
M  V30 16354 O 1560.03 -3.43249 0.951753 0
M  V30 16355 O 1558.89 -5.32788 1.21652 0
M  V30 16356 H 1555.98 -0.813418 0.149263 0
M  V30 16357 H 1558.53 -1.36572 1.00728 0
M  V30 16358 H 1557.3 -3.33494 2.04688 0
M  V30 16359 H 1556.92 -3.95087 0.446287 0
M  V30 16360 N 1557.92 -0.68059 -1.42147 0
M  V30 16361 C 1558.86 -0.00585926 -2.30799 0
M  V30 16362 C 1559.83 0.786778 -1.46284 0
M  V30 16363 O 1561.02 0.757853 -1.75103 0
M  V30 16364 C 1558.16 0.935319 -3.32183 0
M  V30 16365 C 1557.27 0.13589 -4.31786 0
M  V30 16366 C 1556.41 1.07335 -5.20243 0
M  V30 16367 C 1555.45 0.265943 -6.11522 0
M  V30 16368 N 1554.58 1.15641 -6.92511 0
M  V30 16369 H 1559.42 -0.767651 -2.87943 0
M  V30 16370 H 1556.96 -0.39029 -1.41828 0
M  V30 16371 H 1558.92 1.49489 -3.89498 0
M  V30 16372 H 1557.55 1.66368 -2.76626 0
M  V30 16373 H 1556.6 -0.540383 -3.76542 0
M  V30 16374 H 1557.91 -0.490716 -4.9638 0
M  V30 16375 H 1557.07 1.70265 -5.82319 0
M  V30 16376 H 1555.81 1.73383 -4.55839 0
M  V30 16377 H 1554.81 -0.376531 -5.48509 0
M  V30 16378 H 1556.04 -0.39053 -6.77976 0
M  V30 16379 H 1553.98 1.80319 -6.30731 0
M  V30 16380 H 1553.9 0.585022 -7.53733 0
M  V30 16381 H 1555.17 1.773 -7.59069 0
M  V30 16382 N 1559.4 1.51781 -0.424309 0
M  V30 16383 C 1560.34 2.27418 0.393668 0
M  V30 16384 C 1561.31 1.3046 1.02808 0
M  V30 16385 O 1562.5 1.59345 1.04946 0
M  V30 16386 C 1559.64 3.10983 1.49611 0
M  V30 16387 C 1558.75 4.22919 0.881123 0
M  V30 16388 C 1557.89 4.93816 1.95752 0
M  V30 16389 C 1556.92 5.97691 1.32028 0
M  V30 16390 N 1556.06 6.62047 2.33747 0
M  V30 16391 H 1560.9 2.96883 -0.257731 0
M  V30 16392 H 1558.44 1.46442 -0.138942 0
M  V30 16393 H 1560.4 3.57749 2.14642 0
M  V30 16394 H 1559.03 2.43658 2.11732 0
M  V30 16395 H 1558.08 3.80212 0.119445 0
M  V30 16396 H 1559.39 4.97383 0.375764 0
M  V30 16397 H 1558.54 5.44064 2.68476 0
M  V30 16398 H 1557.28 4.18954 2.49658 0
M  V30 16399 H 1556.29 5.46749 0.578444 0
M  V30 16400 H 1557.51 6.74504 0.788722 0
M  V30 16401 H 1555.46 5.90005 2.86757 0
M  V30 16402 H 1555.38 7.32234 1.88066 0
M  V30 16403 H 1556.64 7.16929 3.05995 0
M  V30 16404 N 1560.87 0.155222 1.56834 0
M  V30 16405 C 1561.82 -0.798342 2.1847 0
M  V30 16406 C 1562.82 -1.24931 1.14405 0
M  V30 16407 O 1564.02 -1.21684 1.32639 0
M  V30 16408 H 1560.4 -0.275681 0.699646 0
M  V30 16409 H 1562.37 -0.254371 2.97314 0
M  V30 16410 C 1561.12 -2.02407 2.82713 0
M  V30 16411 H 1560.44 -1.68606 3.62508 0
M  V30 16412 H 1561.88 -2.67053 3.29331 0
M  V30 16413 C 1560.34 -2.83737 1.81645 0
M  V30 16414 O 1560.87 -3.80356 1.29198 0
M  V30 16415 N 1559.07 -2.48433 1.50764 0
M  V30 16416 H 1558.62 -1.69925 1.93606 0
M  V30 16417 H 1558.58 -3.03139 0.833899 0
M  V30 16418 N 1562.35 -1.57153 -0.118549 0
M  V30 16419 C 1563.6 -1.84511 -0.824623 0
M  V30 16420 C 1563.92 -0.740473 -1.80394 0
M  V30 16421 O 1563.19 0.235481 -1.9448 0
M  V30 16422 H 1561.77 -0.680764 -0.307522 0
M  V30 16423 H 1564.43 -1.94613 -0.105764 0
M  V30 16424 H 1563.53 -2.80444 -1.36958 0
M  V30 16425 N 1563.83 0.388742 -1.5273 0
M  V30 16426 C 1565.06 1.15495 -1.71664 0
M  V30 16427 C 1565.47 1.83717 -0.435127 0
M  V30 16428 O 1564.83 1.72686 0.590411 0
M  V30 16429 C 1564.88 2.20279 -2.86635 0
M  V30 16430 O 1564.6 1.54838 -4.09825 0
M  V30 16431 C 1566.1 3.09625 -3.1725 0
M  V30 16432 H 1563.32 0.346271 -0.57475 0
M  V30 16433 H 1565.87 0.454729 -1.9938 0
M  V30 16434 H 1564.02 2.85936 -2.61379 0
M  V30 16435 H 1564.44 2.24466 -4.74042 0
M  V30 16436 H 1565.91 3.79177 -4.01159 0
M  V30 16437 H 1566.39 3.73147 -2.31643 0
M  V30 16438 H 1566.99 2.49612 -3.44345 0
M  V30 16439 N 1565.31 1.43698 0.647203 0
M  V30 16440 C 1566.55 1.45633 1.40703 0
M  V30 16441 C 1566.88 0.0828643 1.94323 0
M  V30 16442 O 1566.14 -0.913033 1.73096 0
M  V30 16443 C 1566.44 2.45083 2.60133 0
M  V30 16444 C 1566.1 3.9081 2.24896 0
M  V30 16445 C 1564.76 4.30499 2.14998 0
M  V30 16446 C 1567.12 4.8262 1.96794 0
M  V30 16447 C 1564.44 5.59942 1.75163 0
M  V30 16448 C 1566.8 6.12433 1.58456 0
M  V30 16449 C 1565.46 6.51092 1.47088 0
M  V30 16450 H 1564.73 0.53291 0.514867 0
M  V30 16451 H 1567.38 1.76814 0.735458 0
M  V30 16452 H 1565.68 2.07327 3.3245 0
M  V30 16453 H 1567.38 2.43833 3.1835 0
M  V30 16454 H 1563.97 3.59403 2.33512 0
M  V30 16455 H 1568.15 4.52724 2.03359 0
M  V30 16456 H 1563.41 5.88728 1.64952 0
M  V30 16457 H 1567.58 6.83042 1.35745 0
M  V30 16458 H 1565.21 7.51299 1.15992 0
M  V30 16459 N 1566.79 -0.886131 1.30328 0
M  V30 16460 C 1567.73 -2.01312 1.16516 0
M  V30 16461 C 1568.73 -1.69223 0.0773431 0
M  V30 16462 O 1569.93 -1.78418 0.238111 0
M  V30 16463 H 1566.31 -0.66006 0.360312 0
M  V30 16464 H 1568.28 -2.10097 2.11901 0
M  V30 16465 C 1567.03 -3.36573 0.872592 0
M  V30 16466 H 1566.35 -3.61775 1.70172 0
M  V30 16467 H 1567.79 -4.16073 0.816049 0
M  V30 16468 C 1566.25 -3.34215 -0.424465 0
M  V30 16469 O 1566.78 -3.74758 -1.44634 0
M  V30 16470 N 1564.99 -2.87323 -0.435207 0
M  V30 16471 H 1564.53 -2.54525 0.396851 0
M  V30 16472 H 1564.49 -2.86128 -1.303 0
M  V30 16473 N 1568.26 -1.13026 -1.09832 0
M  V30 16474 C 1569.51 -0.890736 -1.82191 0
M  V30 16475 C 1569.84 0.581818 -1.8528 0
M  V30 16476 O 1569.12 1.43037 -1.31798 0
M  V30 16477 C 1569.4 -1.47403 -3.28549 0
M  V30 16478 C 1569.25 -3.0154 -3.33757 0
M  V30 16479 C 1570.57 -1.13876 -4.25112 0
M  V30 16480 H 1567.69 -0.325028 -0.661457 0
M  V30 16481 H 1570.33 -1.39787 -1.28684 0
M  V30 16482 H 1568.48 -1.04272 -3.74245 0
M  V30 16483 H 1570.16 -3.53395 -2.96495 0
M  V30 16484 H 1568.4 -3.36746 -2.73467 0
M  V30 16485 H 1569.07 -3.37449 -4.36843 0
M  V30 16486 H 1571.55 -1.51139 -3.87681 0
M  V30 16487 H 1570.42 -1.57343 -5.25865 0
M  V30 16488 H 1570.68 -0.051854 -4.4207 0
M  V30 16489 N 1569.74 1.27735 -0.923117 0
M  V30 16490 C 1571.02 1.89626 -0.479724 0
M  V30 16491 C 1571.4 1.83592 1.04197 0
M  V30 16492 O 1570.75 1.27808 1.89413 0
M  V30 16493 C 1570.96 3.33742 -1.02064 0
M  V30 16494 C 1572.31 4.10678 -1.07837 0
M  V30 16495 O 1573.33 3.4274 -0.969943 0
M  V30 16496 O 1572.19 5.32135 -1.24476 0
M  V30 16497 H 1569.28 0.812615 -0.153575 0
M  V30 16498 H 1571.83 1.36036 -1.01451 0
M  V30 16499 H 1570.6 3.32404 -2.06454 0
M  V30 16500 H 1570.22 3.94845 -0.467234 0
M  V30 16501 N 1571.22 0.688118 1.41784 0
M  V30 16502 C 1572.64 0.358943 1.55511 0
M  V30 16503 C 1572.84 -1.13469 1.66514 0
M  V30 16504 O 1571.89 -1.92039 1.63943 0
M  V30 16505 C 1573.21 1.10094 2.79821 0
M  V30 16506 C 1574.75 1.08456 2.93609 0
M  V30 16507 C 1575.23 1.80815 4.20797 0
M  V30 16508 N 1576.72 1.77748 4.27738 0
M  V30 16509 C 1577.45 2.30581 5.24995 0
M  V30 16510 N 1576.95 2.91854 6.28326 0
M  V30 16511 N 1578.74 2.2088 5.16884 0
M  V30 16512 H 1570.89 1.65695 1.32886 0
M  V30 16513 H 1573.16 0.698818 0.640592 0
M  V30 16514 H 1572.86 2.15589 2.77874 0
M  V30 16515 H 1572.74 0.674713 3.71117 0
M  V30 16516 H 1575.12 0.0378955 2.95076 0
M  V30 16517 H 1575.21 1.54978 2.03508 0
M  V30 16518 H 1574.85 2.85457 4.20092 0
M  V30 16519 H 1574.78 1.31732 5.09857 0
M  V30 16520 H 1577.27 1.33069 3.53696 0
M  V30 16521 H 1577.58 3.29755 6.98915 0
M  V30 16522 H 1575.93 2.95929 6.28849 0
M  V30 16523 H 1579.12 1.72689 4.35082 0
M  V30 16524 H 1579.29 2.62359 5.92513 0
M  V30 16525 N 1572.7 -1.51554 0.432352 0
M  V30 16526 C 1573.93 -2.06462 -0.1346 0
M  V30 16527 C 1574.34 -1.30027 -1.36889 0
M  V30 16528 O 1573.7 -0.358447 -1.78945 0
M  V30 16529 C 1573.75 -3.58538 -0.461822 0
M  V30 16530 O 1573.47 -4.32085 0.723471 0
M  V30 16531 C 1574.97 -4.29943 -1.07999 0
M  V30 16532 H 1572.19 -0.670923 -0.0101329 0
M  V30 16533 H 1574.74 -1.9519 0.609999 0
M  V30 16534 H 1572.89 -3.6974 -1.15632 0
M  V30 16535 H 1573.3 -5.22611 0.444757 0
M  V30 16536 H 1574.78 -5.37451 -1.25898 0
M  V30 16537 H 1575.26 -3.87912 -2.05963 0
M  V30 16538 H 1575.86 -4.23171 -0.425022 0
M  V30 16539 N 1574.18 -0.163538 -1.56749 0
M  V30 16540 C 1575.12 0.769787 -2.17584 0
M  V30 16541 C 1576.09 1.23246 -1.11354 0
M  V30 16542 O 1577.28 1.30203 -1.3947 0
M  V30 16543 C 1574.42 1.99685 -2.81461 0
M  V30 16544 C 1573.53 1.57846 -4.0213 0
M  V30 16545 C 1572.67 2.75858 -4.53955 0
M  V30 16546 C 1571.71 2.30473 -5.67053 0
M  V30 16547 N 1570.84 3.41551 -6.13423 0
M  V30 16548 H 1575.68 0.244221 -2.96998 0
M  V30 16549 H 1573.22 0.108821 -1.46697 0
M  V30 16550 H 1575.18 2.71643 -3.16648 0
M  V30 16551 H 1573.81 2.49624 -2.04664 0
M  V30 16552 H 1572.86 0.755907 -3.72814 0
M  V30 16553 H 1574.17 1.20525 -4.8402 0
M  V30 16554 H 1573.33 3.55984 -4.91284 0
M  V30 16555 H 1572.06 3.16434 -3.71107 0
M  V30 16556 H 1571.07 1.48791 -5.29284 0
M  V30 16557 H 1572.29 1.90964 -6.51698 0
M  V30 16558 H 1570.24 3.81717 -5.33506 0
M  V30 16559 H 1570.16 3.08298 -6.90281 0
M  V30 16560 H 1571.43 4.21985 -6.554 0
M  V30 16561 N 1575.65 1.57214 0.110213 0
M  V30 16562 C 1576.88 1.8988 0.834297 0
M  V30 16563 C 1577.3 0.756347 1.72224 0
M  V30 16564 O 1576.66 -0.292768 1.78921 0
M  V30 16565 C 1576.71 3.21338 1.63629 0
M  V30 16566 O 1575.81 3.07862 2.74399 0
M  V30 16567 H 1575.16 0.62283 0.23017 0
M  V30 16568 H 1577.69 2.04402 0.0899726 0
M  V30 16569 H 1577.7 3.54275 2.02369 0
M  V30 16570 H 1576.37 4.04079 0.984521 0
M  V30 16571 H 1574.95 2.8641 2.38797 0
M  V30 16572 N 1577.13 -0.380637 1.52934 0
M  V30 16573 C 1578.36 -1.15033 1.72575 0
M  V30 16574 C 1578.78 -1.82715 0.446869 0
M  V30 16575 O 1578.14 -1.71154 -0.598004 0
M  V30 16576 C 1578.19 -2.16773 2.8817 0
M  V30 16577 O 1577.29 -3.23539 2.55727 0
M  V30 16578 H 1576.63 -0.334489 0.573597 0
M  V30 16579 H 1579.16 -0.442369 1.9976 0
M  V30 16580 H 1579.17 -2.60629 3.13905 0
M  V30 16581 H 1577.85 -1.669 3.80943 0
M  V30 16582 H 1576.43 -2.84761 2.4076 0
M  V30 16583 N 1578.61 -1.44039 -0.639573 0
M  V30 16584 C 1579.86 -1.4566 -1.39521 0
M  V30 16585 C 1580.17 -0.0897878 -1.95394 0
M  V30 16586 O 1581.38 0.0165074 -2.71495 0
M  V30 16587 C 1579.83 -2.56395 -2.52566 0
M  V30 16588 C 1579.44 -3.99245 -2.03243 0
M  V30 16589 C 1581.19 -2.67226 -3.29834 0
M  V30 16590 C 1579.09 -5.01419 -3.1358 0
M  V30 16591 H 1578.02 -0.541894 -0.524277 0
M  V30 16592 H 1580.67 -1.70076 -0.688941 0
M  V30 16593 H 1579.06 -2.25204 -3.25729 0
M  V30 16594 H 1580.23 -4.39963 -1.37002 0
M  V30 16595 H 1578.55 -3.9258 -1.38816 0
M  V30 16596 H 1581.14 -3.40736 -4.12072 0
M  V30 16597 H 1581.49 -1.72756 -3.78763 0
M  V30 16598 H 1582.02 -2.97786 -2.63758 0
M  V30 16599 H 1578.76 -5.97489 -2.69605 0
M  V30 16600 H 1578.28 -4.65301 -3.7849 0
M  V30 16601 H 1579.96 -5.2474 -3.78493 0
M  V30 16602 N 1580.09 0.879207 -1.30796 0
M  V30 16603 C 1581.37 1.61328 -1.10602 0
M  V30 16604 C 1581.75 2.08301 0.342621 0
M  V30 16605 O 1581.09 1.85436 1.33514 0
M  V30 16606 C 1581.3 2.77838 -2.11203 0
M  V30 16607 C 1582.65 3.48028 -2.43231 0
M  V30 16608 O 1583.68 2.88034 -2.09559 0
M  V30 16609 O 1582.53 4.56233 -3.00854 0
M  V30 16610 H 1579.63 0.709335 -0.425174 0
M  V30 16611 H 1582.17 0.925478 -1.42243 0
M  V30 16612 H 1580.95 2.40475 -3.08687 0
M  V30 16613 H 1580.57 3.54312 -1.80414 0
M  V30 16614 N 1581.57 1.13606 1.09231 0
M  V30 16615 C 1582.98 0.91148 1.62938 0
M  V30 16616 C 1583.33 -0.55157 1.88287 0
M  V30 16617 O 1582.45 -1.4187 1.63407 0
M  V30 16618 C 1583.05 1.64812 2.96011 0
M  V30 16619 C 1581.61 1.46935 3.46536 0
M  V30 16620 C 1580.76 1.67605 2.20916 0
M  V30 16621 H 1583.71 1.28907 0.925669 0
M  V30 16622 H 1583.73 1.10638 3.6406 0
M  V30 16623 H 1583.24 2.71291 2.77529 0
M  V30 16624 H 1581.34 0.427667 3.70138 0
M  V30 16625 H 1581.45 2.23374 4.2384 0
M  V30 16626 H 1579.82 1.10105 2.29672 0
M  V30 16627 H 1580.6 2.75408 2.04952 0
M  V30 16628 N 1583.05 -1.27244 0.929878 0
M  V30 16629 C 1584.32 -1.89369 0.489774 0
M  V30 16630 C 1584.7 -1.84142 -1.03222 0
M  V30 16631 O 1584.05 -1.2881 -1.88733 0
M  V30 16632 C 1584.26 -3.33196 1.03833 0
M  V30 16633 C 1585.61 -4.101 1.10013 0
M  V30 16634 O 1586.63 -3.42221 0.988106 0
M  V30 16635 O 1585.49 -5.31468 1.27296 0
M  V30 16636 H 1582.59 -0.811789 0.157882 0
M  V30 16637 H 1585.13 -1.35496 1.02171 0
M  V30 16638 H 1583.9 -3.31304 2.08214 0
M  V30 16639 H 1583.53 -3.94592 0.488167 0
M  V30 16640 N 1584.52 -0.695628 -1.41417 0
M  V30 16641 C 1585.77 -0.226954 -2.01526 0
M  V30 16642 C 1586.1 1.1704 -1.54968 0
M  V30 16643 O 1585.38 1.78999 -0.760895 0
M  V30 16644 C 1585.66 -0.284704 -3.58973 0
M  V30 16645 C 1585.51 -1.71901 -4.15656 0
M  V30 16646 C 1586.83 0.355454 -4.38662 0
M  V30 16647 H 1583.95 -0.0839425 -0.732204 0
M  V30 16648 H 1586.59 -0.884359 -1.68164 0
M  V30 16649 H 1584.74 0.275041 -3.87525 0
M  V30 16650 H 1586.42 -2.3326 -3.97979 0
M  V30 16651 H 1584.66 -2.25314 -3.70696 0
M  V30 16652 H 1585.33 -1.71095 -5.24815 0
M  V30 16653 H 1587.81 -0.121256 -4.15923 0
M  V30 16654 H 1586.68 0.284503 -5.48162 0
M  V30 16655 H 1586.94 1.43617 -4.18123 0
M  V30 16656 N 1586 1.51322 -0.440383 0
M  V30 16657 C 1587.42 1.5933 -0.0928372 0
M  V30 16658 C 1587.62 1.45107 1.39807 0
M  V30 16659 O 1586.67 1.29385 2.16831 0
M  V30 16660 C 1587.99 2.9433 -0.615663 0
M  V30 16661 C 1589.53 3.07647 -0.576373 0
M  V30 16662 C 1590.01 4.45176 -1.07622 0
M  V30 16663 N 1591.5 4.51504 -1.03434 0
M  V30 16664 C 1592.24 5.56249 -1.39194 0
M  V30 16665 N 1591.73 6.68398 -1.82254 0
M  V30 16666 N 1593.52 5.46624 -1.30991 0
M  V30 16667 H 1585.68 1.58812 -1.41041 0
M  V30 16668 H 1587.94 0.748795 -0.581386 0
M  V30 16669 H 1587.64 3.10117 -1.65892 0
M  V30 16670 H 1587.52 3.77176 -0.0422513 0
M  V30 16671 H 1589.91 2.91526 0.457904 0
M  V30 16672 H 1589.99 2.26633 -1.18622 0
M  V30 16673 H 1589.63 4.62044 -2.10898 0
M  V30 16674 H 1589.56 5.24734 -0.442882 0
M  V30 16675 H 1592.05 3.71013 -0.718156 0
M  V30 16676 H 1592.36 7.44347 -2.07769 0
M  V30 16677 H 1590.71 6.69598 -1.86183 0
M  V30 16678 H 1593.9 4.57894 -0.972145 0
M  V30 16679 H 1594.07 6.28143 -1.59188 0
M  V30 16680 N 1587.48 0.171848 1.5666 0
M  V30 16681 C 1588.73 -0.473669 1.97191 0
M  V30 16682 C 1589.06 -1.6286 1.05784 0
M  V30 16683 O 1588.33 -1.94216 0.105084 0
M  V30 16684 C 1588.62 -0.956134 3.47174 0
M  V30 16685 C 1588.47 0.199007 4.4936 0
M  V30 16686 C 1589.79 -1.82962 4.00266 0
M  V30 16687 H 1586.91 -0.170704 0.716958 0
M  V30 16688 H 1589.55 0.25809 1.88239 0
M  V30 16689 H 1587.7 -1.57969 3.54934 0
M  V30 16690 H 1589.37 0.836109 4.53659 0
M  V30 16691 H 1587.61 0.85442 4.25302 0
M  V30 16692 H 1588.29 -0.180704 5.51704 0
M  V30 16693 H 1590.76 -1.30394 3.95141 0
M  V30 16694 H 1589.64 -2.13621 5.05625 0
M  V30 16695 H 1589.9 -2.77557 3.44114 0
M  V30 16696 N 1588.96 -1.5727 -0.101874 0
M  V30 16697 C 1590.23 -1.76745 -0.837888 0
M  V30 16698 C 1590.61 -0.751766 -1.9726 0
M  V30 16699 O 1589.96 0.221046 -2.27428 0
M  V30 16700 C 1590.17 -3.22302 -1.33875 0
M  V30 16701 C 1591.52 -3.85292 -1.78425 0
M  V30 16702 O 1592.54 -3.2601 -1.43514 0
M  V30 16703 O 1591.4 -4.89526 -2.42953 0
M  V30 16704 H 1588.5 -0.724294 -0.399157 0
M  V30 16705 H 1591.04 -1.69491 -0.0842821 0
M  V30 16706 H 1589.82 -3.87756 -0.525434 0
M  V30 16707 H 1589.44 -3.34162 -2.15456 0
M  V30 16708 N 1590.44 0.372521 -1.53134 0
M  V30 16709 C 1591.68 1.11368 -1.68646 0
M  V30 16710 C 1592 1.90034 -0.437275 0
M  V30 16711 O 1591.27 1.88062 0.548593 0
M  V30 16712 H 1589.85 0.414129 -0.621696 0
M  V30 16713 H 1592.52 0.42082 -1.90303 0
M  V30 16714 H 1591.61 1.80738 -2.54441 0
M  V30 16715 N 1591.91 1.44376 0.631925 0
M  V30 16716 C 1593.16 1.46398 1.38747 0
M  V30 16717 C 1593.48 0.100149 1.95343 0
M  V30 16718 O 1594.68 -0.00210908 2.715 0
M  V30 16719 C 1593.14 2.57731 2.51203 0
M  V30 16720 C 1592.75 4.00317 2.01123 0
M  V30 16721 C 1594.49 2.68972 3.28412 0
M  V30 16722 C 1592.4 5.03075 3.10917 0
M  V30 16723 H 1591.33 0.544667 0.521396 0
M  V30 16724 H 1593.98 1.70439 0.679912 0
M  V30 16725 H 1592.36 2.26928 3.2453 0
M  V30 16726 H 1593.53 4.40683 1.34666 0
M  V30 16727 H 1591.85 3.93311 1.36732 0
M  V30 16728 H 1594.45 3.42916 4.10259 0
M  V30 16729 H 1594.79 1.74762 3.77841 0
M  V30 16730 H 1595.32 2.9918 2.62176 0
M  V30 16731 H 1592.06 5.98911 2.66433 0
M  V30 16732 H 1591.58 4.67302 3.76017 0
M  V30 16733 H 1593.26 5.2674 3.75705 0
M  V30 16734 N 1593.39 -0.872258 1.31261 0
M  V30 16735 C 1594.32 -1.9853 1.14537 0
M  V30 16736 C 1595.34 -1.62578 0.0850723 0
M  V30 16737 O 1596.53 -1.75379 0.332343 0
M  V30 16738 C 1593.63 -3.31005 0.72727 0
M  V30 16739 C 1592.8 -3.95313 1.87208 0
M  V30 16740 C 1591.86 -5.06101 1.44042 0
M  V30 16741 O 1590.88 -5.27045 2.1497 0
M  V30 16742 N 1592.09 -5.79581 0.32653 0
M  V30 16743 H 1594.85 -2.13423 2.10406 0
M  V30 16744 H 1592.41 -1.0461 1.23565 0
M  V30 16745 H 1594.4 -4.02502 0.421255 0
M  V30 16746 H 1592.97 -3.12287 -0.13975 0
M  V30 16747 H 1592.19 -3.16825 2.34553 0
M  V30 16748 H 1593.48 -4.35015 2.63893 0
M  V30 16749 H 1592.88 -5.65083 -0.264202 0
M  V30 16750 H 1591.44 -6.51751 0.0800358 0
M  V30 16751 N 1594.87 -1.14184 -1.08627 0
M  V30 16752 C 1596.12 -0.906869 -1.80611 0
M  V30 16753 C 1596.44 0.568182 -1.86539 0
M  V30 16754 O 1595.71 1.41301 -1.35687 0
M  V30 16755 H 1594.29 -0.332523 -0.668908 0
M  V30 16756 H 1596.95 -1.43998 -1.31341 0
M  V30 16757 H 1596.05 -1.30484 -2.83514 0
M  V30 16758 N 1596.35 1.26749 -0.936613 0
M  V30 16759 C 1597.6 1.9358 -0.580605 0
M  V30 16760 C 1597.92 1.7389 0.882446 0
M  V30 16761 O 1597.19 1.09185 1.62652 0
M  V30 16762 H 1595.77 0.716363 -0.211739 0
M  V30 16763 H 1598.43 1.54281 -1.19095 0
M  V30 16764 H 1597.53 3.01819 -0.79448 0
M  V30 16765 N 1597.83 0.703118 1.41046 0
M  V30 16766 C 1599.06 0.246194 2.05128 0
M  V30 16767 C 1599.46 -1.11245 1.5304 0
M  V30 16768 O 1598.81 -1.70783 0.676678 0
M  V30 16769 C 1598.87 0.134596 3.59248 0
M  V30 16770 C 1598.53 1.4265 4.34166 0
M  V30 16771 C 1599.53 2.3659 4.62948 0
M  V30 16772 C 1597.22 1.68196 4.73303 0
M  V30 16773 C 1599.21 3.54332 5.29837 0
M  V30 16774 C 1596.9 2.86223 5.39926 0
M  V30 16775 C 1597.89 3.79114 5.68121 0
M  V30 16776 O 1597.58 4.95072 6.33371 0
M  V30 16777 H 1597.31 0.110667 0.66688 0
M  V30 16778 H 1599.87 0.958407 1.81669 0
M  V30 16779 H 1598.1 -0.633453 3.81476 0
M  V30 16780 H 1599.79 -0.286131 4.0489 0
M  V30 16781 H 1600.55 2.18113 4.33188 0
M  V30 16782 H 1596.43 0.96753 4.50733 0
M  V30 16783 H 1599.98 4.26855 5.51762 0
M  V30 16784 H 1595.87 3.04614 5.69105 0
M  V30 16785 H 1596.64 4.94986 6.51868 0
M  V30 16786 N 1599.3 -1.51086 0.448402 0
M  V30 16787 C 1600.55 -2.02476 -0.114511 0
M  V30 16788 C 1600.88 -1.33126 -1.4139 0
M  V30 16789 O 1600.16 -0.449665 -1.89231 0
M  V30 16790 C 1600.44 -3.58659 -0.321842 0
M  V30 16791 C 1600.29 -4.38612 0.996975 0
M  V30 16792 C 1601.61 -4.26473 -1.08667 0
M  V30 16793 H 1598.73 -0.735906 -0.0401431 0
M  V30 16794 H 1601.37 -1.80622 0.589563 0
M  V30 16795 H 1599.52 -3.77411 -0.92157 0
M  V30 16796 H 1601.2 -4.31484 1.63154 0
M  V30 16797 H 1599.44 -4.03255 1.599 0
M  V30 16798 H 1600.11 -5.46087 0.805817 0
M  V30 16799 H 1602.59 -4.12058 -0.578559 0
M  V30 16800 H 1601.46 -5.35611 -1.20051 0
M  V30 16801 H 1601.72 -3.88086 -2.11758 0
M  V30 16802 N 1600.78 -0.180154 -1.56567 0
M  V30 16803 C 1602.06 0.509347 -1.88852 0
M  V30 16804 C 1602.44 1.80697 -1.09141 0
M  V30 16805 O 1601.79 2.27726 -0.187974 0
M  V30 16806 C 1602 0.742669 -3.41006 0
M  V30 16807 C 1603.35 1.06873 -4.1093 0
M  V30 16808 O 1604.37 0.830907 -3.46373 0
M  V30 16809 O 1603.23 1.51784 -5.24999 0
M  V30 16810 H 1600.32 0.263629 -0.783855 0
M  V30 16811 H 1602.87 -0.219251 -1.68278 0
M  V30 16812 H 1601.64 -0.17431 -3.90912 0
M  V30 16813 H 1601.26 1.52427 -3.67222 0
M  V30 16814 N 1602.26 1.57322 0.0935319 0
M  V30 16815 C 1603.19 2.05208 1.11409 0
M  V30 16816 C 1604.17 0.941295 1.41681 0
M  V30 16817 O 1605.36 1.21266 1.51684 0
M  V30 16818 C 1602.49 2.47782 2.43354 0
M  V30 16819 C 1601.44 3.62538 2.27486 0
M  V30 16820 C 1600.77 3.91095 3.64622 0
M  V30 16821 C 1602.07 4.93371 1.71412 0
M  V30 16822 H 1603.76 2.9072 0.715702 0
M  V30 16823 H 1601.31 1.3986 0.342827 0
M  V30 16824 H 1603.26 2.79891 3.15022 0
M  V30 16825 H 1601.98 1.59272 2.85132 0
M  V30 16826 H 1600.64 3.30679 1.58263 0
M  V30 16827 H 1600.29 2.99749 4.0393 0
M  V30 16828 H 1599.99 4.68353 3.5485 0
M  V30 16829 H 1601.51 4.25679 4.37755 0
M  V30 16830 H 1602.93 5.23851 2.32922 0
M  V30 16831 H 1601.33 5.74804 1.72395 0
M  V30 16832 H 1602.4 4.80197 0.67368 0
M  V30 16833 N 1603.74 -0.364395 1.53329 0
M  V30 16834 C 1604.65 -1.47027 1.82812 0
M  V30 16835 C 1605.66 -1.58559 0.716598 0
M  V30 16836 O 1606.84 -1.7443 1.00678 0
M  V30 16837 C 1603.91 -2.82278 2.01295 0
M  V30 16838 C 1602.97 -2.80264 3.25193 0
M  V30 16839 C 1602.2 -4.09065 3.42785 0
M  V30 16840 O 1602.42 -5.0529 2.64648 0
M  V30 16841 O 1601.36 -4.14804 4.36144 0
M  V30 16842 H 1605.18 -1.25035 2.76767 0
M  V30 16843 H 1602.77 -0.554608 1.38724 0
M  V30 16844 H 1604.65 -3.62416 2.15017 0
M  V30 16845 H 1603.32 -3.04244 1.10531 0
M  V30 16846 H 1602.23 -1.9882 3.16893 0
M  V30 16847 H 1603.56 -2.63252 4.15884 0
M  V30 16848 N 1605.22 -1.44709 -0.62426 0
M  V30 16849 C 1606.46 -1.47561 -1.38094 0
M  V30 16850 C 1606.79 -0.112115 -1.94677 0
M  V30 16851 O 1606.06 0.856458 -1.76186 0
M  V30 16852 H 1604.64 -0.543368 -0.512601 0
M  V30 16853 H 1607.3 -1.8054 -0.734258 0
M  V30 16854 H 1606.39 -2.20496 -2.2088 0
M  V30 16855 N 1606.69 0.865285 -1.31722 0
M  V30 16856 C 1607.6 2.00542 -1.21738 0
M  V30 16857 C 1608.62 1.7349 -0.133124 0
M  V30 16858 O 1609.8 1.98303 -0.351809 0
M  V30 16859 C 1606.86 3.33993 -0.930045 0
M  V30 16860 C 1605.92 3.74337 -2.10167 0
M  V30 16861 C 1605.16 5.0142 -1.82795 0
M  V30 16862 O 1605.38 5.65242 -0.765345 0
M  V30 16863 O 1604.31 5.38642 -2.68604 0
M  V30 16864 H 1608.14 2.11898 -2.17561 0
M  V30 16865 H 1605.72 0.994313 -1.11507 0
M  V30 16866 H 1607.61 4.14008 -0.785846 0
M  V30 16867 H 1606.28 3.237 -0.00188642 0
M  V30 16868 H 1605.19 2.94943 -2.3013 0
M  V30 16869 H 1606.52 3.89261 -3.01225 0
M  V30 16870 N 1608.17 1.14759 1.0802 0
M  V30 16871 C 1609.12 0.833824 2.17141 0
M  V30 16872 C 1610.11 -0.189939 1.68332 0
M  V30 16873 O 1611.32 -0.0456447 1.79942 0
M  V30 16874 H 1607.7 0.251944 0.70854 0
M  V30 16875 H 1609.67 1.76196 2.40827 0
M  V30 16876 C 1608.42 0.33203 3.46111 0
M  V30 16877 H 1607.74 1.11117 3.84048 0
M  V30 16878 H 1609.18 0.151078 4.23731 0
M  V30 16879 C 1607.64 -0.945153 3.2337 0
M  V30 16880 O 1608.17 -2.0181 3.47326 0
M  V30 16881 N 1606.37 -0.881963 2.76893 0
M  V30 16882 H 1605.92 -0.00865768 2.57599 0
M  V30 16883 H 1605.88 -1.73706 2.62056 0
M  V30 16884 N 1609.65 -1.26251 0.943322 0
M  V30 16885 C 1610.58 -2.28673 0.472347 0
M  V30 16886 C 1611.56 -1.63319 -0.475481 0
M  V30 16887 O 1612.75 -1.90508 -0.376875 0
M  V30 16888 C 1609.88 -3.46316 -0.261286 0
M  V30 16889 C 1608.83 -4.23771 0.600192 0
M  V30 16890 C 1608.16 -5.3405 -0.263525 0
M  V30 16891 C 1609.46 -4.87576 1.87262 0
M  V30 16892 H 1611.15 -2.68319 1.32836 0
M  V30 16893 H 1608.7 -1.28987 0.640182 0
M  V30 16894 H 1610.65 -4.1708 -0.601821 0
M  V30 16895 H 1609.37 -3.05629 -1.15146 0
M  V30 16896 H 1608.03 -3.54774 0.923651 0
M  V30 16897 H 1607.68 -4.89604 -1.15312 0
M  V30 16898 H 1607.38 -5.86784 0.309495 0
M  V30 16899 H 1608.9 -6.07652 -0.599281 0
M  V30 16900 H 1610.32 -5.50544 1.59919 0
M  V30 16901 H 1608.72 -5.50437 2.39038 0
M  V30 16902 H 1609.79 -4.10397 2.58268 0
M  V30 16903 N 1611.13 -0.710588 -1.40671 0
M  V30 16904 C 1612.08 -0.0548139 -2.30735 0
M  V30 16905 C 1613.05 0.755572 -1.4792 0
M  V30 16906 O 1614.23 0.720541 -1.76672 0
M  V30 16907 C 1611.37 0.864648 -3.34093 0
M  V30 16908 C 1610.48 0.0442717 -4.31977 0
M  V30 16909 C 1609.62 0.962752 -5.22403 0
M  V30 16910 C 1608.66 0.13617 -6.11949 0
M  V30 16911 N 1607.8 1.00926 -6.94808 0
M  V30 16912 H 1612.64 -0.828555 -2.8625 0
M  V30 16913 H 1610.17 -0.420286 -1.40968 0
M  V30 16914 H 1612.13 1.41193 -3.92582 0
M  V30 16915 H 1610.76 1.60462 -2.80092 0
M  V30 16916 H 1609.81 -0.620132 -3.75311 0
M  V30 16917 H 1611.12 -0.595895 -4.95228 0
M  V30 16918 H 1610.28 1.57874 -5.85799 0
M  V30 16919 H 1609.02 1.63675 -4.59415 0
M  V30 16920 H 1608.02 -0.492793 -5.47587 0
M  V30 16921 H 1609.25 -0.534251 -6.76995 0
M  V30 16922 H 1607.19 1.669 -6.34413 0
M  V30 16923 H 1607.11 0.425013 -7.54804 0
M  V30 16924 H 1608.38 1.61159 -7.62659 0
M  V30 16925 N 1612.61 1.50847 -0.456408 0
M  V30 16926 C 1613.54 2.31077 0.335523 0
M  V30 16927 C 1614.52 1.37326 1.00377 0
M  V30 16928 O 1615.7 1.66247 1.00376 0
M  V30 16929 C 1612.83 3.16662 1.42627 0
M  V30 16930 C 1611.79 4.18846 0.88045 0
M  V30 16931 C 1611.11 4.93074 2.06838 0
M  V30 16932 C 1612.41 5.22208 -0.0982288 0
M  V30 16933 H 1614.11 2.97531 -0.334056 0
M  V30 16934 H 1611.65 1.43085 -0.162099 0
M  V30 16935 H 1613.61 3.71578 1.98765 0
M  V30 16936 H 1612.33 2.48066 2.12441 0
M  V30 16937 H 1610.99 3.65009 0.341147 0
M  V30 16938 H 1610.64 4.20963 2.75316 0
M  V30 16939 H 1610.34 5.62184 1.70947 0
M  V30 16940 H 1611.86 5.5082 2.63494 0
M  V30 16941 H 1613.28 5.72082 0.373481 0
M  V30 16942 H 1611.67 5.98954 -0.370674 0
M  V30 16943 H 1612.74 4.73859 -1.02887 0
M  V30 16944 N 1614.09 0.188454 1.56469 0
M  V30 16945 C 1615.04 -0.747732 2.1539 0
M  V30 16946 C 1616.02 -1.18094 1.09282 0
M  V30 16947 O 1617.21 -1.14045 1.35362 0
M  V30 16948 C 1614.34 -1.96985 2.81162 0
M  V30 16949 C 1613.43 -1.55784 3.94452 0
M  V30 16950 N 1613.82 -0.8564 4.98497 0
M  V30 16951 C 1612.12 -1.84762 4.0593 0
M  V30 16952 C 1612.82 -0.650927 5.78047 0
M  V30 16953 N 1611.79 -1.19762 5.30243 0
M  V30 16954 H 1615.59 -0.203028 2.93198 0
M  V30 16955 H 1613.11 -0.0115881 1.62396 0
M  V30 16956 H 1615.11 -2.65094 3.21762 0
M  V30 16957 H 1613.77 -2.51934 2.0484 0
M  V30 16958 H 1614.78 -0.512583 5.15357 0
M  V30 16959 H 1611.45 -2.41267 3.40729 0
M  V30 16960 H 1612.84 -0.0949739 6.71833 0
M  V30 16961 N 1615.56 -1.5737 -0.0851874 0
M  V30 16962 C 1616.81 -1.85772 -0.785604 0
M  V30 16963 C 1617.13 -0.779172 -1.79411 0
M  V30 16964 O 1618.33 -0.950621 -2.54314 0
M  V30 16965 C 1616.79 -3.29484 -1.44805 0
M  V30 16966 C 1616.4 -4.45434 -0.478799 0
M  V30 16967 C 1618.14 -3.671 -2.13161 0
M  V30 16968 C 1616.05 -5.80183 -1.1464 0
M  V30 16969 H 1614.98 -0.69298 -0.297145 0
M  V30 16970 H 1617.63 -1.83459 -0.0386776 0
M  V30 16971 H 1616.01 -3.26367 -2.24278 0
M  V30 16972 H 1617.18 -4.59917 0.285148 0
M  V30 16973 H 1615.5 -4.16281 0.0995964 0
M  V30 16974 H 1618.1 -4.65061 -2.6386 0
M  V30 16975 H 1618.44 -2.96223 -2.92503 0
M  V30 16976 H 1618.97 -3.72148 -1.40536 0
M  V30 16977 H 1615.71 -6.54317 -0.393583 0
M  V30 16978 H 1615.23 -5.69525 -1.88153 0
M  V30 16979 H 1616.91 -6.25074 -1.67006 0
M  V30 16980 N 1617.04 0.356258 -1.53521 0
M  V30 16981 C 1618.29 1.0979 -1.70154 0
M  V30 16982 C 1618.62 1.89028 -0.458124 0
M  V30 16983 O 1617.87 1.87516 0.560033 0
M  V30 16984 C 1618.17 2.07669 -2.90875 0
M  V30 16985 C 1617.84 1.4484 -4.27004 0
M  V30 16986 C 1616.5 1.27434 -4.64019 0
M  V30 16987 C 1618.85 0.994684 -5.1162 0
M  V30 16988 C 1616.18 0.632539 -5.8328 0
M  V30 16989 C 1618.53 0.366847 -6.31535 0
M  V30 16990 C 1617.19 0.180356 -6.67256 0
M  V30 16991 H 1616.46 0.401751 -0.622637 0
M  V30 16992 H 1619.11 0.378618 -1.8772 0
M  V30 16993 H 1617.42 2.85934 -2.6786 0
M  V30 16994 H 1619.11 2.65023 -3.00939 0
M  V30 16995 H 1615.7 1.59384 -3.97863 0
M  V30 16996 H 1619.89 1.11706 -4.83565 0
M  V30 16997 H 1615.14 0.476548 -6.0954 0
M  V30 16998 H 1619.32 0.00712378 -6.964 0
M  V30 16999 H 1616.94 -0.319016 -7.5953 0
M  V30 17000 N 1618.52 1.45038 0.616577 0
M  V30 17001 C 1619.45 1.55858 1.73869 0
M  V30 17002 C 1620.43 0.410657 1.65069 0
M  V30 17003 O 1621.62 0.632652 1.83606 0
M  V30 17004 C 1618.75 1.51635 3.12448 0
M  V30 17005 C 1617.7 2.65053 3.36052 0
M  V30 17006 C 1617.03 2.45883 4.74811 0
M  V30 17007 C 1618.33 4.07121 3.27185 0
M  V30 17008 H 1620.02 2.49784 1.6507 0
M  V30 17009 H 1617.57 1.20216 0.792724 0
M  V30 17010 H 1619.52 1.57803 3.90738 0
M  V30 17011 H 1618.24 0.542342 3.22066 0
M  V30 17012 H 1616.9 2.58299 2.60149 0
M  V30 17013 H 1616.55 1.46641 4.8115 0
M  V30 17014 H 1616.25 3.21935 4.9156 0
M  V30 17015 H 1617.77 2.53892 5.55312 0
M  V30 17016 H 1619.19 4.15167 3.9536 0
M  V30 17017 H 1617.58 4.83491 3.55466 0
M  V30 17018 H 1618.65 4.29663 2.24762 0
M  V30 17019 N 1620 -0.858287 1.32179 0
M  V30 17020 C 1621.27 -1.59548 1.13154 0
M  V30 17021 C 1621.65 -2.0882 -0.309439 0
M  V30 17022 O 1621 -1.87536 -1.30547 0
M  V30 17023 C 1621.21 -2.74443 2.15597 0
M  V30 17024 C 1622.56 -3.44115 2.48737 0
M  V30 17025 O 1623.58 -2.84664 2.14114 0
M  V30 17026 O 1622.44 -4.51389 3.08074 0
M  V30 17027 H 1619.54 -0.702481 0.436405 0
M  V30 17028 H 1622.08 -0.902731 1.43697 0
M  V30 17029 H 1620.86 -2.35533 3.12473 0
M  V30 17030 H 1620.48 -3.51397 1.86028 0
M  V30 17031 N 1621.48 -1.1533 -1.07409 0
M  V30 17032 C 1622.89 -0.895817 -1.32088 0
M  V30 17033 C 1623.09 0.457526 -1.96237 0
M  V30 17034 O 1622.15 1.19958 -2.22185 0
M  V30 17035 C 1623.46 -2.03632 -2.21256 0
M  V30 17036 C 1625.01 -2.07079 -2.34707 0
M  V30 17037 C 1625.48 -3.20451 -3.27223 0
M  V30 17038 N 1626.97 -3.20095 -3.34804 0
M  V30 17039 C 1627.71 -4.04458 -4.0645 0
M  V30 17040 N 1627.21 -4.98883 -4.80715 0
M  V30 17041 N 1629 -3.92483 -4.02385 0
M  V30 17042 H 1621.15 -2.02478 -0.641578 0
M  V30 17043 H 1623.41 -0.882864 -0.345332 0
M  V30 17044 H 1623.12 -3.0132 -1.81381 0
M  V30 17045 H 1622.99 -1.96817 -3.21781 0
M  V30 17046 H 1625.38 -1.09991 -2.73836 0
M  V30 17047 H 1625.46 -2.17962 -1.3389 0
M  V30 17048 H 1625.1 -4.17791 -2.88813 0
M  V30 17049 H 1625.03 -3.06805 -4.27993 0
M  V30 17050 H 1627.53 -2.51712 -2.81868 0
M  V30 17051 H 1627.84 -5.59698 -5.32877 0
M  V30 17052 H 1626.18 -5.02872 -4.79734 0
M  V30 17053 H 1629.37 -3.18026 -3.43478 0
M  V30 17054 H 1629.55 -4.58454 -4.57956 0
M  V30 17055 N 1622.95 1.25748 -0.950004 0
M  V30 17056 C 1624.18 1.97952 -0.618848 0
M  V30 17057 C 1624.6 1.70184 0.801194 0
M  V30 17058 O 1623.96 0.955032 1.54107 0
M  V30 17059 C 1624.01 3.49744 -0.878151 0
M  V30 17060 O 1623.11 4.12375 0.0453685 0
M  V30 17061 H 1622.45 0.620731 -0.235773 0
M  V30 17062 H 1624.98 1.59988 -1.27534 0
M  V30 17063 H 1624.99 4.00029 -0.802567 0
M  V30 17064 H 1623.67 3.69285 -1.91315 0
M  V30 17065 H 1622.25 3.7281 -0.0820265 0
M  V30 17066 N 1624.43 0.718038 1.40292 0
M  V30 17067 C 1625.68 0.258986 2.0114 0
M  V30 17068 C 1626.01 -1.1456 1.56811 0
M  V30 17069 O 1625.29 -1.77766 0.789276 0
M  V30 17070 C 1625.57 0.341778 3.58474 0
M  V30 17071 C 1625.42 1.78492 4.12869 0
M  V30 17072 C 1626.74 -0.285622 4.39172 0
M  V30 17073 H 1623.86 0.0955806 0.730776 0
M  V30 17074 H 1626.5 0.911 1.66736 0
M  V30 17075 H 1624.65 -0.213354 3.87914 0
M  V30 17076 H 1626.32 2.39562 3.94218 0
M  V30 17077 H 1624.57 2.31183 3.67065 0
M  V30 17078 H 1625.24 1.79423 5.22026 0
M  V30 17079 H 1627.71 0.187411 4.15678 0
M  V30 17080 H 1626.59 -0.19726 5.48545 0
M  V30 17081 H 1626.85 -1.36947 4.20355 0
M  V30 17082 N 1625.91 -1.50602 0.464402 0
M  V30 17083 C 1627.16 -2.01478 -0.0945398 0
M  V30 17084 C 1627.47 -1.35165 -1.41386 0
M  V30 17085 O 1628.68 -1.7716 -2.05735 0
M  V30 17086 C 1627.13 -3.59233 -0.219003 0
M  V30 17087 C 1626.74 -4.345 1.09148 0
M  V30 17088 C 1628.49 -4.18172 -0.730262 0
M  V30 17089 C 1626.39 -5.84023 0.931179 0
M  V30 17090 H 1625.32 -0.752985 -0.0391065 0
M  V30 17091 H 1627.97 -1.73473 0.598283 0
M  V30 17092 H 1626.36 -3.83798 -0.975455 0
M  V30 17093 H 1627.53 -4.21665 1.85837 0
M  V30 17094 H 1625.85 -3.8714 1.53334 0
M  V30 17095 H 1628.44 -5.27622 -0.867119 0
M  V30 17096 H 1628.79 -3.79113 -1.71986 0
M  V30 17097 H 1629.32 -3.97788 -0.0313808 0
M  V30 17098 H 1626.06 -6.27543 1.89395 0
M  V30 17099 H 1625.58 -5.99451 0.20456 0
M  V30 17100 H 1627.26 -6.44257 0.595118 0
M  V30 17101 N 1627.39 -0.19675 -1.56367 0
M  V30 17102 C 1628.3 0.735372 -2.22777 0
M  V30 17103 C 1629.31 1.23336 -1.22737 0
M  V30 17104 O 1630.49 1.28017 -1.55479 0
M  V30 17105 C 1627.56 1.93706 -2.8754 0
M  V30 17106 C 1626.62 1.48348 -4.02854 0
M  V30 17107 C 1625.85 2.62788 -4.64519 0
M  V30 17108 O 1626.07 3.80311 -4.25111 0
M  V30 17109 O 1625.01 2.35406 -5.53956 0
M  V30 17110 H 1628.83 0.199788 -3.03042 0
M  V30 17111 H 1626.42 0.0326149 -1.49364 0
M  V30 17112 H 1628.3 2.63934 -3.28507 0
M  V30 17113 H 1626.97 2.46121 -2.10252 0
M  V30 17114 H 1625.88 0.749939 -3.66506 0
M  V30 17115 H 1627.21 1.00597 -4.8181 0
M  V30 17116 N 1628.87 1.57413 0.0768405 0
M  V30 17117 C 1629.83 2.02363 1.0762 0
M  V30 17118 C 1630.83 0.919879 1.3189 0
M  V30 17119 O 1632.02 1.18489 1.27695 0
M  V30 17120 C 1629.15 2.39995 2.42106 0
M  V30 17121 H 1630.34 2.91881 0.688889 0
M  V30 17122 H 1627.9 1.52938 0.322422 0
M  V30 17123 H 1628.63 1.53488 2.85678 0
M  V30 17124 H 1628.42 3.20534 2.25833 0
M  V30 17125 H 1629.91 2.75365 3.13948 0
M  V30 17126 N 1630.34 -0.348112 1.53707 0
M  V30 17127 C 1631.59 -1.08886 1.70734 0
M  V30 17128 C 1631.92 -1.88782 0.468142 0
M  V30 17129 O 1631.17 -1.8781 -0.550081 0
M  V30 17130 C 1631.47 -2.06123 2.91973 0
M  V30 17131 C 1631.14 -1.42574 4.27766 0
M  V30 17132 C 1629.8 -1.24971 4.64689 0
M  V30 17133 C 1632.15 -0.967538 5.12141 0
M  V30 17134 C 1629.48 -0.601597 5.83607 0
M  V30 17135 C 1631.83 -0.33335 6.31721 0
M  V30 17136 C 1630.5 -0.144967 6.67343 0
M  V30 17137 H 1629.77 -0.398444 0.624759 0
M  V30 17138 H 1632.41 -0.368657 1.87918 0
M  V30 17139 H 1630.72 -2.84509 2.69373 0
M  V30 17140 H 1632.42 -2.63423 3.0234 0
M  V30 17141 H 1629.01 -1.57271 3.98702 0
M  V30 17142 H 1633.19 -1.0914 4.84151 0
M  V30 17143 H 1628.45 -0.444216 6.09784 0
M  V30 17144 H 1632.62 0.0298081 6.96394 0
M  V30 17145 H 1630.25 0.359291 7.5935 0
M  V30 17146 N 1631.82 -1.45363 -0.608876 0
M  V30 17147 C 1632.79 -1.53551 -1.70161 0
M  V30 17148 C 1633.79 -0.415146 -1.55349 0
M  V30 17149 O 1634.98 -0.67858 -1.6044 0
M  V30 17150 C 1632.11 -1.43081 -3.0942 0
M  V30 17151 H 1633.3 -2.5091 -1.64268 0
M  V30 17152 H 1630.85 -1.32785 -0.824493 0
M  V30 17153 H 1631.59 -0.469016 -3.20891 0
M  V30 17154 H 1631.37 -2.24343 -3.21579 0
M  V30 17155 H 1632.86 -1.51841 -3.89017 0
M  V30 17156 N 1633.3 0.851265 -1.32632 0
M  V30 17157 C 1634.25 1.98152 -1.21813 0
M  V30 17158 C 1635.24 1.68959 -0.122182 0
M  V30 17159 O 1636.45 1.77724 -0.285332 0
M  V30 17160 H 1632.82 0.650275 -0.377686 0
M  V30 17161 H 1634.79 2.04405 -2.17397 0
M  V30 17162 C 1633.54 3.34141 -0.961521 0
M  V30 17163 H 1632.87 3.57136 -1.79704 0
M  V30 17164 H 1634.31 4.13763 -0.926077 0
M  V30 17165 C 1632.77 3.35223 0.335704 0
M  V30 17166 O 1633.3 3.78461 1.34647 0
M  V30 17167 N 1631.5 2.88376 0.358875 0
M  V30 17168 H 1631.05 2.53383 -0.464194 0
M  V30 17169 H 1631.01 2.89482 1.22668 0
M  V30 17170 N 1634.78 1.15898 1.06796 0
M  V30 17171 C 1636.01 0.959978 1.82943 0
M  V30 17172 C 1636.42 -0.495084 1.82608 0
M  V30 17173 O 1635.76 -1.35528 1.24008 0
M  V30 17174 C 1635.82 1.40408 3.30947 0
M  V30 17175 C 1635.49 2.87801 3.54993 0
M  V30 17176 C 1636.48 3.85834 3.48465 0
M  V30 17177 C 1634.17 3.25601 3.82478 0
M  V30 17178 C 1636.16 5.19672 3.6908 0
M  V30 17179 C 1633.85 4.59609 4.02744 0
M  V30 17180 C 1634.85 5.56454 3.96041 0
M  V30 17181 O 1634.53 6.8804 4.1576 0
M  V30 17182 H 1634.27 0.340717 0.583856 0
M  V30 17183 H 1636.82 1.54211 1.35677 0
M  V30 17184 H 1635.05 0.765395 3.7905 0
M  V30 17185 H 1636.74 1.1733 3.88572 0
M  V30 17186 H 1637.51 3.57977 3.27227 0
M  V30 17187 H 1633.38 2.50803 3.86806 0
M  V30 17188 H 1636.93 5.95249 3.63764 0
M  V30 17189 H 1632.83 4.8718 4.23469 0
M  V30 17190 H 1633.59 6.94541 4.33076 0
M  V30 17191 N 1636.26 -1.25243 0.956659 0
M  V30 17192 C 1637.2 -2.25811 0.477292 0
M  V30 17193 C 1638.17 -1.59273 -0.471301 0
M  V30 17194 O 1639.36 -1.86894 -0.384105 0
M  V30 17195 C 1636.5 -3.44286 -0.236891 0
M  V30 17196 C 1635.61 -4.25454 0.749177 0
M  V30 17197 C 1634.75 -5.31199 0.012228 0
M  V30 17198 C 1633.79 -6.04056 0.989094 0
M  V30 17199 N 1632.92 -7.0153 0.282883 0
M  V30 17200 H 1637.76 -2.66185 1.33977 0
M  V30 17201 H 1635.3 -1.30862 0.671832 0
M  V30 17202 H 1637.26 -4.11825 -0.66755 0
M  V30 17203 H 1635.89 -3.04781 -1.06339 0
M  V30 17204 H 1634.94 -3.57558 1.29831 0
M  V30 17205 H 1636.25 -4.75883 1.49454 0
M  V30 17206 H 1635.41 -6.04822 -0.476968 0
M  V30 17207 H 1634.14 -4.81648 -0.76591 0
M  V30 17208 H 1633.15 -5.29245 1.48927 0
M  V30 17209 H 1634.37 -6.55695 1.76749 0
M  V30 17210 H 1632.32 -6.54267 -0.476479 0
M  V30 17211 H 1632.24 -7.49786 0.967304 0
M  V30 17212 H 1633.51 -7.79281 -0.184709 0
M  V30 17213 N 1637.73 -0.725468 -1.3991 0
M  V30 17214 C 1638.68 -0.0792833 -2.30664 0
M  V30 17215 C 1639.65 0.73984 -1.48713 0
M  V30 17216 O 1640.84 0.701762 -1.77426 0
M  V30 17217 C 1637.98 0.829164 -3.34991 0
M  V30 17218 C 1637.09 -0.00154779 -4.32 0
M  V30 17219 C 1636.22 0.907291 -5.23394 0
M  V30 17220 C 1635.26 0.0712573 -6.12059 0
M  V30 17221 N 1634.4 0.935508 -6.9584 0
M  V30 17222 H 1639.24 -0.858869 -2.85355 0
M  V30 17223 H 1636.78 -0.435214 -1.40514 0
M  V30 17224 H 1638.74 1.37021 -3.94057 0
M  V30 17225 H 1637.37 1.57483 -2.81778 0
M  V30 17226 H 1636.42 -0.659903 -3.74632 0
M  V30 17227 H 1637.73 -0.648387 -4.94568 0
M  V30 17228 H 1636.88 1.51652 -5.87441 0
M  V30 17229 H 1635.62 1.58793 -4.61125 0
M  V30 17230 H 1634.63 -0.550844 -5.47034 0
M  V30 17231 H 1635.85 -0.606025 -6.76391 0
M  V30 17232 H 1633.8 1.60162 -6.36148 0
M  V30 17233 H 1633.72 0.344932 -7.55213 0
M  V30 17234 H 1634.98 1.53061 -7.64325 0
M  V30 17235 N 1639.21 1.50354 -0.472382 0
M  V30 17236 C 1640.16 2.28555 0.321118 0
M  V30 17237 C 1641.13 1.33665 0.98605 0
M  V30 17238 O 1642.31 1.62603 0.998239 0
M  V30 17239 C 1639.45 3.15586 1.39641 0
M  V30 17240 C 1638.57 4.25508 0.746129 0
M  V30 17241 C 1637.7 4.99794 1.79943 0
M  V30 17242 C 1636.74 6.01589 1.12946 0
M  V30 17243 N 1635.88 6.69149 2.12567 0
M  V30 17244 H 1640.72 2.95913 -0.352051 0
M  V30 17245 H 1638.26 1.45926 -0.185461 0
M  V30 17246 H 1640.21 3.64397 2.03152 0
M  V30 17247 H 1638.84 2.50271 2.03873 0
M  V30 17248 H 1637.9 3.804 -0.00157718 0
M  V30 17249 H 1639.21 4.98326 0.217335 0
M  V30 17250 H 1638.36 5.5233 2.51031 0
M  V30 17251 H 1637.1 4.26684 2.36203 0
M  V30 17252 H 1636.11 5.48312 0.404207 0
M  V30 17253 H 1637.33 6.76672 0.573735 0
M  V30 17254 H 1635.28 5.9883 2.67841 0
M  V30 17255 H 1635.19 7.37847 1.64676 0
M  V30 17256 H 1636.46 7.26301 2.83031 0
M  V30 17257 N 1640.69 0.205039 1.56261 0
M  V30 17258 C 1641.62 -0.706815 2.22545 0
M  V30 17259 C 1642.6 -1.21372 1.19176 0
M  V30 17260 O 1643.79 -1.26074 1.47712 0
M  V30 17261 C 1640.92 -1.92221 2.89255 0
M  V30 17262 C 1639.87 -1.54982 3.98954 0
M  V30 17263 C 1639.2 -2.84265 4.52877 0
M  V30 17264 C 1640.5 -0.75225 5.16854 0
M  V30 17265 H 1642.19 -0.15421 2.99003 0
M  V30 17266 H 1639.74 -0.0727309 1.43816 0
M  V30 17267 H 1641.69 -2.56542 3.34311 0
M  V30 17268 H 1640.41 -2.49952 2.10218 0
M  V30 17269 H 1639.07 -0.930155 3.54604 0
M  V30 17270 H 1638.72 -3.40105 3.70591 0
M  V30 17271 H 1638.42 -2.60089 5.26904 0
M  V30 17272 H 1639.95 -3.49557 5.00642 0
M  V30 17273 H 1641.36 -1.29878 5.58395 0
M  V30 17274 H 1639.76 -0.60823 5.9701 0
M  V30 17275 H 1640.83 0.24463 4.84283 0
M  V30 17276 N 1642.17 -1.57451 -0.0684915 0
M  V30 17277 C 1643.4 -1.9164 -0.779855 0
M  V30 17278 C 1643.81 -0.801309 -1.70952 0
M  V30 17279 O 1643.17 0.225134 -1.81106 0
M  V30 17280 C 1643.22 -3.25594 -1.57068 0
M  V30 17281 O 1642.94 -4.32816 -0.678385 0
M  V30 17282 C 1644.44 -3.73818 -2.38275 0
M  V30 17283 H 1641.66 -0.633374 -0.221537 0
M  V30 17284 H 1644.21 -2.04465 -0.0377746 0
M  V30 17285 H 1642.36 -3.14287 -2.26501 0
M  V30 17286 H 1642.78 -5.09903 -1.22877 0
M  V30 17287 H 1644.25 -4.70168 -2.89216 0
M  V30 17288 H 1644.73 -3.02995 -3.17947 0
M  V30 17289 H 1645.33 -3.88081 -1.73992 0
M  V30 17290 N 1643.65 0.339955 -1.5389 0
M  V30 17291 C 1644.88 1.09975 -1.75251 0
M  V30 17292 C 1645.29 1.8224 -0.493355 0
M  V30 17293 O 1644.65 1.74477 0.535173 0
M  V30 17294 C 1644.7 2.11048 -2.93498 0
M  V30 17295 O 1644.42 1.41721 -4.14544 0
M  V30 17296 C 1645.92 2.99375 -3.26939 0
M  V30 17297 H 1643.14 0.327811 -0.585475 0
M  V30 17298 H 1645.68 0.391068 -2.00726 0
M  V30 17299 H 1643.84 2.77476 -2.70344 0
M  V30 17300 H 1644.25 2.09271 -4.80943 0
M  V30 17301 H 1645.73 3.66223 -4.13019 0
M  V30 17302 H 1646.2 3.65588 -2.43397 0
M  V30 17303 H 1646.81 2.38531 -3.52112 0
M  V30 17304 N 1645.13 1.45684 0.601159 0
M  V30 17305 C 1646.54 1.30232 0.922598 0
M  V30 17306 C 1646.74 0.260086 1.99814 0
M  V30 17307 O 1645.8 -0.343753 2.50149 0
M  V30 17308 C 1647.11 2.68318 1.35743 0
M  V30 17309 C 1648.66 2.76264 1.47129 0
M  V30 17310 C 1649.13 4.1489 1.93986 0
M  V30 17311 N 1650.62 4.17216 2.01209 0
M  V30 17312 C 1651.36 5.21354 2.387 0
M  V30 17313 N 1650.86 6.35833 2.75114 0
M  V30 17314 N 1652.65 5.08714 2.39095 0
M  V30 17315 H 1644.8 2.12117 -0.109634 0
M  V30 17316 H 1647.06 0.947902 0.0136129 0
M  V30 17317 H 1646.77 3.45804 0.64127 0
M  V30 17318 H 1646.64 2.97206 2.32268 0
M  V30 17319 H 1649.03 1.99077 2.17835 0
M  V30 17320 H 1649.11 2.51082 0.489028 0
M  V30 17321 H 1648.75 4.92565 1.23864 0
M  V30 17322 H 1648.68 4.37468 2.93137 0
M  V30 17323 H 1651.18 3.34607 1.75632 0
M  V30 17324 H 1651.49 7.11084 3.02622 0
M  V30 17325 H 1649.83 6.39224 2.72795 0
M  V30 17326 H 1653.02 4.18322 2.10057 0
M  V30 17327 H 1653.2 5.89989 2.67987 0
M  V30 17328 N 1646.6 -0.84422 1.33082 0
M  V30 17329 C 1647.85 -1.60149 1.24419 0
M  V30 17330 C 1648.18 -1.93259 -0.190992 0
M  V30 17331 O 1647.46 -1.58242 -1.13092 0
M  V30 17332 C 1647.74 -2.91502 2.11421 0
M  V30 17333 C 1647.59 -2.65108 3.6337 0
M  V30 17334 C 1648.91 -3.92878 1.98331 0
M  V30 17335 H 1646.03 -0.581096 0.453317 0
M  V30 17336 H 1648.67 -0.974093 1.6313 0
M  V30 17337 H 1646.82 -3.45046 1.78537 0
M  V30 17338 H 1648.5 -2.18037 4.06519 0
M  V30 17339 H 1646.74 -1.98896 3.85516 0
M  V30 17340 H 1647.41 -3.58682 4.19584 0
M  V30 17341 H 1649.89 -3.48623 2.27159 0
M  V30 17342 H 1648.76 -4.82625 2.61466 0
M  V30 17343 H 1649.02 -4.31685 0.953972 0
M  V30 17344 N 1648.08 -1.16463 -1.0618 0
M  V30 17345 C 1649.31 -0.969667 -1.82431 0
M  V30 17346 C 1649.72 0.485393 -1.82868 0
M  V30 17347 O 1649.06 1.34868 -1.24725 0
M  V30 17348 C 1649.12 -1.42161 -3.30198 0
M  V30 17349 C 1648.79 -2.89679 -3.53461 0
M  V30 17350 C 1649.79 -3.87677 -3.46414 0
M  V30 17351 C 1647.47 -3.27625 -3.80745 0
M  V30 17352 C 1649.46 -5.21622 -3.66319 0
M  V30 17353 C 1647.15 -4.61739 -4.003 0
M  V30 17354 C 1648.15 -5.58546 -3.93084 0
M  V30 17355 O 1647.84 -6.90235 -4.12105 0
M  V30 17356 H 1647.57 -0.343808 -0.582041 0
M  V30 17357 H 1650.12 -1.54928 -1.34857 0
M  V30 17358 H 1648.35 -0.785486 -3.78638 0
M  V30 17359 H 1650.04 -1.19389 -3.87945 0
M  V30 17360 H 1650.81 -3.59707 -3.25324 0
M  V30 17361 H 1646.69 -2.52851 -3.85471 0
M  V30 17362 H 1650.23 -5.9717 -3.60602 0
M  V30 17363 H 1646.13 -4.89418 -4.2088 0
M  V30 17364 H 1646.9 -6.96828 -4.29387 0
M  V30 17365 N 1649.56 1.24734 -0.963288 0
M  V30 17366 C 1650.81 1.92971 -0.623688 0
M  V30 17367 C 1651.14 1.7517 0.838393 0
M  V30 17368 O 1650.41 1.10208 1.60264 0
M  V30 17369 C 1650.7 3.46115 -0.99379 0
M  V30 17370 C 1650.55 3.73104 -2.51224 0
M  V30 17371 C 1651.87 4.36956 -0.525128 0
M  V30 17372 H 1648.99 0.700827 -0.228058 0
M  V30 17373 H 1651.63 1.47187 -1.2015 0
M  V30 17374 H 1649.78 3.85242 -0.502108 0
M  V30 17375 H 1651.45 3.43563 -3.07835 0
M  V30 17376 H 1649.69 3.18409 -2.94616 0
M  V30 17377 H 1650.37 4.80237 -2.7217 0
M  V30 17378 H 1652.84 4.0518 -0.947015 0
M  V30 17379 H 1651.72 5.4285 -0.812695 0
M  V30 17380 H 1651.98 4.38347 0.574843 0
M  V30 17381 N 1651.04 0.732878 1.39523 0
M  V30 17382 C 1652.29 0.279338 2.0016 0
M  V30 17383 C 1652.61 -1.13673 1.58441 0
M  V30 17384 O 1651.88 -1.77369 0.831681 0
M  V30 17385 H 1650.46 0.100288 0.740237 0
M  V30 17386 H 1653.12 0.942363 1.70603 0
M  V30 17387 H 1652.21 0.326053 3.10392 0
M  V30 17388 N 1652.52 -1.50101 0.480349 0
M  V30 17389 C 1653.93 -1.59028 0.135048 0
M  V30 17390 C 1654.13 -1.48763 -1.35911 0
M  V30 17391 O 1653.19 -1.35089 -2.13324 0
M  V30 17392 C 1654.5 -2.92594 0.693483 0
M  V30 17393 C 1656.05 -3.06011 0.657737 0
M  V30 17394 C 1656.52 -4.42166 1.19388 0
M  V30 17395 N 1658.01 -4.48603 1.15368 0
M  V30 17396 C 1658.75 -5.52363 1.53893 0
M  V30 17397 N 1658.25 -6.6333 1.99911 0
M  V30 17398 N 1660.04 -5.42959 1.45438 0
M  V30 17399 H 1652.19 -1.55017 1.45202 0
M  V30 17400 H 1654.45 -0.733118 0.601034 0
M  V30 17401 H 1654.16 -3.0561 1.74056 0
M  V30 17402 H 1654.03 -3.76932 0.142238 0
M  V30 17403 H 1656.42 -2.92637 -0.38045 0
M  V30 17404 H 1656.5 -2.23408 1.24589 0
M  V30 17405 H 1656.14 -4.5629 2.23074 0
M  V30 17406 H 1656.07 -5.23376 0.58185 0
M  V30 17407 H 1658.57 -3.68979 0.816271 0
M  V30 17408 H 1658.88 -7.38576 2.27431 0
M  V30 17409 H 1657.22 -6.64426 2.03871 0
M  V30 17410 H 1660.41 -4.55156 1.09321 0
M  V30 17411 H 1660.59 -6.23701 1.75786 0
M  V30 17412 N 1653.99 -0.213323 -1.5615 0
M  V30 17413 C 1655.22 0.425071 -2.0218 0
M  V30 17414 C 1655.63 1.54471 -1.09249 0
M  V30 17415 O 1654.97 1.83465 -0.0928585 0
M  V30 17416 C 1655.04 1.02533 -3.44568 0
M  V30 17417 C 1654.7 0.0421613 -4.56981 0
M  V30 17418 C 1655.7 -0.755199 -5.14386 0
M  V30 17419 C 1653.38 -0.0742081 -5.02245 0
M  V30 17420 C 1655.38 -1.65571 -6.1552 0
M  V30 17421 C 1653.06 -0.978264 -6.03219 0
M  V30 17422 C 1654.06 -1.76757 -6.59732 0
M  V30 17423 O 1653.75 -2.65644 -7.58741 0
M  V30 17424 H 1653.48 0.109184 -0.667124 0
M  V30 17425 H 1656.04 -0.324754 -2.02816 0
M  V30 17426 H 1654.27 1.82409 -3.40975 0
M  V30 17427 H 1655.95 1.57027 -3.74296 0
M  V30 17428 H 1656.72 -0.6757 -4.8027 0
M  V30 17429 H 1652.6 0.530016 -4.57943 0
M  V30 17430 H 1656.14 -2.27223 -6.59557 0
M  V30 17431 H 1652.04 -1.05881 -6.36757 0
M  V30 17432 H 1652.81 -2.59627 -7.76232 0
M  V30 17433 N 1655.47 1.57485 0.0601405 0
M  V30 17434 C 1656.75 1.78904 0.790732 0
M  V30 17435 C 1657.13 0.803802 1.95198 0
M  V30 17436 O 1656.48 -0.16067 2.27934 0
M  V30 17437 C 1656.69 3.25738 1.25282 0
M  V30 17438 C 1658.04 3.89887 1.68147 0
M  V30 17439 O 1659.06 3.297 1.3482 0
M  V30 17440 O 1657.92 4.95796 2.29889 0
M  V30 17441 H 1655.01 0.734623 0.379814 0
M  V30 17442 H 1657.56 1.69654 0.0393151 0
M  V30 17443 H 1656.33 3.89013 0.422442 0
M  V30 17444 H 1655.95 3.39757 2.06521 0
M  V30 17445 N 1656.95 -0.331789 1.54068 0
M  V30 17446 C 1658.18 -1.09484 1.76148 0
M  V30 17447 C 1658.6 -1.81201 0.504772 0
M  V30 17448 O 1657.96 -1.7297 -0.54325 0
M  V30 17449 C 1658.01 -2.07495 2.94921 0
M  V30 17450 O 1657.11 -3.15239 2.65891 0
M  V30 17451 H 1656.45 -0.316071 0.583948 0
M  V30 17452 H 1658.98 -0.378593 2.01067 0
M  V30 17453 H 1658.99 -2.5051 3.22038 0
M  V30 17454 H 1657.67 -1.54696 3.8606 0
M  V30 17455 H 1656.24 -2.76958 2.49697 0
M  V30 17456 N 1658.43 -1.46001 -0.593424 0
M  V30 17457 C 1659.36 -1.58605 -1.71367 0
M  V30 17458 C 1660.34 -0.436866 -1.64394 0
M  V30 17459 O 1661.52 -0.661782 -1.82576 0
M  V30 17460 C 1658.65 -1.56587 -3.09996 0
M  V30 17461 C 1657.61 -2.70366 -3.31792 0
M  V30 17462 C 1656.93 -2.53406 -4.70839 0
M  V30 17463 C 1658.23 -4.12274 -3.20667 0
M  V30 17464 H 1659.93 -2.52379 -1.61076 0
M  V30 17465 H 1657.47 -1.21462 -0.773499 0
M  V30 17466 H 1659.43 -1.64 -3.88178 0
M  V30 17467 H 1658.15 -0.593511 -3.21162 0
M  V30 17468 H 1656.81 -2.62405 -2.56006 0
M  V30 17469 H 1656.46 -1.54278 -4.78756 0
M  V30 17470 H 1656.16 -3.29715 -4.86376 0
M  V30 17471 H 1657.68 -2.62694 -5.51203 0
M  V30 17472 H 1659.1 -4.21404 -3.88705 0
M  V30 17473 H 1657.49 -4.89085 -3.47729 0
M  V30 17474 H 1658.56 -4.33184 -2.17898 0
M  V30 17475 N 1659.91 0.83715 -1.33527 0
M  V30 17476 C 1661.15 1.58937 -1.24834 0
M  V30 17477 C 1661.48 1.94117 0.185368 0
M  V30 17478 O 1660.75 1.61105 1.11453 0
M  V30 17479 H 1659.33 0.589301 -0.459057 0
M  V30 17480 H 1661.99 1.00038 -1.67267 0
M  V30 17481 H 1661.08 2.51855 -1.84325 0
M  V30 17482 N 1661.38 1.17024 1.05561 0
M  V30 17483 C 1662.31 0.906823 2.15172 0
M  V30 17484 C 1663.3 -0.149745 1.6944 0
M  V30 17485 O 1664.48 -0.000287092 1.942 0
M  V30 17486 C 1661.61 0.415251 3.44809 0
M  V30 17487 C 1660.56 1.41058 4.04088 0
M  V30 17488 C 1659.89 0.777109 5.29023 0
M  V30 17489 C 1661.19 2.78258 4.42007 0
M  V30 17490 H 1662.88 1.82347 2.37466 0
M  V30 17491 H 1660.43 0.878162 1.14124 0
M  V30 17492 H 1662.38 0.218407 4.20834 0
M  V30 17493 H 1661.11 -0.536924 3.22156 0
M  V30 17494 H 1659.77 1.5941 3.30127 0
M  V30 17495 H 1659.41 -0.181784 5.02671 0
M  V30 17496 H 1659.11 1.44151 5.69644 0
M  V30 17497 H 1660.64 0.590455 6.07738 0
M  V30 17498 H 1662.05 2.63645 5.09082 0
M  V30 17499 H 1660.45 3.41241 4.93634 0
M  V30 17500 H 1661.52 3.3295 3.52523 0
M  V30 17501 N 1662.86 -1.24221 0.969889 0
M  V30 17502 C 1663.79 -2.24544 0.459636 0
M  V30 17503 C 1664.81 -1.56941 -0.432813 0
M  V30 17504 O 1666 -1.76898 -0.238637 0
M  V30 17505 C 1663.1 -3.3703 -0.3555 0
M  V30 17506 C 1662.27 -4.34207 0.527566 0
M  V30 17507 C 1661.33 -5.25689 -0.231934 0
M  V30 17508 O 1660.35 -5.67964 0.37488 0
M  V30 17509 N 1661.56 -5.60222 -1.5209 0
M  V30 17510 H 1664.32 -2.68957 1.3222 0
M  V30 17511 H 1661.88 -1.38285 0.84196 0
M  V30 17512 H 1663.87 -3.95201 -0.871685 0
M  V30 17513 H 1662.44 -2.91885 -1.11901 0
M  V30 17514 H 1661.66 -3.74693 1.2247 0
M  V30 17515 H 1662.95 -4.96099 1.12975 0
M  V30 17516 H 1662.35 -5.27807 -2.03559 0
M  V30 17517 H 1660.91 -6.20911 -1.98273 0
M  V30 17518 N 1664.34 -0.740267 -1.39132 0
M  V30 17519 C 1665.59 -0.287379 -1.99642 0
M  V30 17520 C 1665.9 1.13337 -1.59418 0
M  V30 17521 O 1667.11 1.68605 -2.12802 0
M  V30 17522 C 1665.56 -0.462859 -3.56911 0
M  V30 17523 C 1665.17 -1.89184 -4.06095 0
M  V30 17524 C 1666.92 -0.0720122 -4.24439 0
M  V30 17525 C 1664.82 -2.01659 -5.55957 0
M  V30 17526 H 1663.75 -0.103696 -0.746835 0
M  V30 17527 H 1666.4 -0.914902 -1.59065 0
M  V30 17528 H 1664.79 0.233644 -3.9531 0
M  V30 17529 H 1665.96 -2.62072 -3.79018 0
M  V30 17530 H 1664.28 -2.23638 -3.51248 0
M  V30 17531 H 1666.87 -0.144163 -5.34506 0
M  V30 17532 H 1667.22 0.973516 -4.04757 0
M  V30 17533 H 1667.75 -0.719868 -3.91232 0
M  V30 17534 H 1664.49 -3.04419 -5.80525 0
M  V30 17535 H 1664.01 -1.33214 -5.8482 0
M  V30 17536 H 1665.69 -1.80023 -6.2145 0
M  V30 17537 N 1665.82 1.49844 -0.488302 0
M  V30 17538 C 1667.06 2.03331 0.052835 0
M  V30 17539 C 1667.42 1.3624 1.35854 0
M  V30 17540 O 1666.71 0.484818 1.85365 0
M  V30 17541 C 1666.91 3.56342 0.274851 0
M  V30 17542 C 1666.74 4.38262 -1.00779 0
M  V30 17543 C 1665.51 4.80746 -1.55599 0
M  V30 17544 C 1667.7 4.77608 -1.90774 0
M  V30 17545 N 1665.69 5.4705 -2.78586 0
M  V30 17546 C 1667.06 5.43499 -2.98343 0
M  V30 17547 C 1669.11 4.59556 -1.91606 0
M  V30 17548 C 1667.81 5.93249 -4.06753 0
M  V30 17549 C 1669.84 5.10258 -2.98983 0
M  V30 17550 C 1669.2 5.76138 -4.0527 0
M  V30 17551 H 1665.3 0.781715 -0.021128 0
M  V30 17552 H 1667.89 1.8316 -0.66034 0
M  V30 17553 H 1666.06 3.76424 0.957074 0
M  V30 17554 H 1667.79 3.96473 0.811862 0
M  V30 17555 H 1664.54 4.6058 -1.10284 0
M  V30 17556 H 1664.97 5.84796 -3.4109 0
M  V30 17557 H 1669.61 4.08039 -1.10744 0
M  V30 17558 H 1667.33 6.43794 -4.88421 0
M  V30 17559 H 1670.91 4.98109 -3.00631 0
M  V30 17560 H 1669.79 6.14663 -4.8699 0
M  V30 17561 N 1667.3 0.221601 1.56034 0
M  V30 17562 C 1668.26 -0.674973 2.19036 0
M  V30 17563 C 1669.26 -1.1216 1.15225 0
M  V30 17564 O 1670.45 -1.0304 1.40458 0
M  V30 17565 C 1667.58 -1.92465 2.81372 0
M  V30 17566 H 1668.77 -0.125689 2.99637 0
M  V30 17567 H 1666.33 -0.0280114 1.56275 0
M  V30 17568 H 1667.06 -2.5158 2.04641 0
M  V30 17569 H 1666.85 -1.61286 3.57392 0
M  V30 17570 H 1668.34 -2.56342 3.29664 0
M  V30 17571 N 1668.77 -1.57515 -0.0517878 0
M  V30 17572 C 1670.05 -1.79321 -0.781233 0
M  V30 17573 C 1670.43 -0.814142 -1.94769 0
M  V30 17574 O 1669.78 0.14858 -2.28016 0
M  V30 17575 C 1669.99 -3.26398 -1.23553 0
M  V30 17576 C 1671.34 -3.90773 -1.66077 0
M  V30 17577 O 1672.36 -3.3041 -1.33069 0
M  V30 17578 O 1671.22 -4.97008 -2.27257 0
M  V30 17579 H 1668.31 -0.736627 -0.375912 0
M  V30 17580 H 1670.86 -1.69673 -0.0303173 0
M  V30 17581 H 1669.63 -3.89232 -0.401806 0
M  V30 17582 H 1669.26 -3.40848 -2.04716 0
M  V30 17583 N 1670.25 0.323614 -1.54242 0
M  V30 17584 C 1671.5 1.05947 -1.72104 0
M  V30 17585 C 1671.82 1.88547 -0.497512 0
M  V30 17586 O 1671.09 1.89712 0.488485 0
M  V30 17587 H 1669.67 0.394141 -0.634557 0
M  V30 17588 H 1672.33 0.360063 -1.91545 0
M  V30 17589 H 1671.43 1.72552 -2.60062 0
M  V30 17590 N 1671.73 1.46313 0.585673 0
M  V30 17591 C 1673.01 1.41946 1.34576 0
M  V30 17592 C 1673.39 0.101379 2.10856 0
M  V30 17593 O 1672.74 -0.917016 2.09292 0
M  V30 17594 C 1672.95 2.64724 2.27425 0
M  V30 17595 C 1674.29 3.10746 2.89347 0
M  V30 17596 O 1675.32 2.65252 2.37739 0
M  V30 17597 O 1674.18 3.8976 3.83079 0
M  V30 17598 H 1671.27 0.564346 0.604519 0
M  V30 17599 H 1673.82 1.58475 0.606937 0
M  V30 17600 H 1672.59 3.52217 1.70467 0
M  V30 17601 H 1672.21 2.50639 3.08652 0
M  V30 17602 N 1673.21 -0.830057 1.33969 0
M  V30 17603 C 1674.46 -1.58084 1.25269 0
M  V30 17604 C 1674.77 -1.94792 -0.177557 0
M  V30 17605 O 1675.98 -2.68733 -0.386657 0
M  V30 17606 C 1674.43 -2.85177 2.1955 0
M  V30 17607 C 1674.04 -2.55798 3.67792 0
M  V30 17608 C 1675.79 -3.632 2.19741 0
M  V30 17609 C 1673.69 -3.79041 4.53963 0
M  V30 17610 H 1672.62 -0.593289 0.465321 0
M  V30 17611 H 1675.27 -0.914476 1.5909 0
M  V30 17612 H 1673.66 -3.53401 1.78672 0
M  V30 17613 H 1674.83 -1.9573 4.17165 0
M  V30 17614 H 1673.14 -1.91064 3.69978 0
M  V30 17615 H 1675.74 -4.54695 2.81347 0
M  V30 17616 H 1676.08 -3.98786 1.1948 0
M  V30 17617 H 1676.62 -3.0191 2.59028 0
M  V30 17618 H 1673.36 -3.4858 5.55133 0
M  V30 17619 H 1672.88 -4.38417 4.09329 0
M  V30 17620 H 1674.56 -4.46527 4.68212 0
M  V30 17621 N 1674.69 -1.17582 -1.04939 0
M  V30 17622 C 1675.64 -0.891102 -2.14854 0
M  V30 17623 C 1676.63 0.145242 -1.68776 0
M  V30 17624 O 1677.84 -0.00207978 -1.8 0
M  V30 17625 H 1674.21 -0.270641 -0.701611 0
M  V30 17626 H 1676.18 -1.82519 -2.36071 0
M  V30 17627 C 1674.93 -0.423679 -3.45109 0
M  V30 17628 H 1674.25 -1.2126 -3.80967 0
M  V30 17629 H 1675.69 -0.263369 -4.23181 0
M  V30 17630 C 1674.15 0.859085 -3.25763 0
M  V30 17631 O 1674.68 1.9253 -3.52555 0
M  V30 17632 N 1672.89 0.80824 -2.79134 0
M  V30 17633 H 1672.44 -0.0596431 -2.57531 0
M  V30 17634 H 1672.39 1.66697 -2.6657 0
M  V30 17635 N 1676.17 1.23705 -0.976463 0
M  V30 17636 C 1677.41 1.9132 -0.638714 0
M  V30 17637 C 1677.73 1.7707 0.830993 0
M  V30 17638 O 1678.93 2.39453 1.27964 0
M  V30 17639 C 1677.39 3.42941 -1.09178 0
M  V30 17640 C 1677 3.6586 -2.58555 0
M  V30 17641 C 1678.74 4.16355 -0.827585 0
M  V30 17642 C 1676.65 5.11096 -2.97549 0
M  V30 17643 H 1675.58 0.716382 -0.235187 0
M  V30 17644 H 1678.23 1.40205 -1.18384 0
M  V30 17645 H 1676.61 3.93142 -0.474893 0
M  V30 17646 H 1677.79 3.26221 -3.25448 0
M  V30 17647 H 1676.1 3.05748 -2.82678 0
M  V30 17648 H 1678.7 5.23372 -1.09482 0
M  V30 17649 H 1679.04 4.15629 0.236282 0
M  V30 17650 H 1679.57 3.7213 -1.40586 0
M  V30 17651 H 1676.31 5.1695 -4.03042 0
M  V30 17652 H 1675.83 5.51699 -2.35346 0
M  V30 17653 H 1677.51 5.79397 -2.87937 0
M  V30 17654 N 1677.64 0.747635 1.38738 0
M  V30 17655 C 1678.59 0.11597 2.30508 0
M  V30 17656 C 1679.56 -0.716088 1.49871 0
M  V30 17657 O 1680.75 -0.673446 1.7852 0
M  V30 17658 C 1677.89 -0.775765 3.36268 0
M  V30 17659 C 1677 0.070275 4.31943 0
M  V30 17660 C 1676.13 -0.823908 5.24772 0
M  V30 17661 C 1675.17 0.0261249 6.12094 0
M  V30 17662 N 1674.31 -0.824688 6.9724 0
M  V30 17663 H 1679.15 0.904158 2.83952 0
M  V30 17664 H 1676.69 0.457513 1.39804 0
M  V30 17665 H 1678.64 -1.30735 3.96187 0
M  V30 17666 H 1677.27 -1.5298 2.84248 0
M  V30 17667 H 1676.33 0.719421 3.73535 0
M  V30 17668 H 1677.64 0.726987 4.93474 0
M  V30 17669 H 1676.79 -1.42287 5.89779 0
M  V30 17670 H 1675.53 -1.51437 4.63593 0
M  V30 17671 H 1674.54 0.637803 5.46088 0
M  V30 17672 H 1675.76 0.713556 6.75341 0
M  V30 17673 H 1673.71 -1.50021 6.38616 0
M  V30 17674 H 1673.62 -0.22474 7.55666 0
M  V30 17675 H 1674.89 -1.40882 7.66663 0
M  V30 17676 N 1679.12 -1.49583 0.496242 0
M  V30 17677 C 1680.35 -2.07342 -0.0490986 0
M  V30 17678 C 1680.77 -1.35474 -1.30493 0
M  V30 17679 O 1680.13 -0.410005 -1.76603 0
M  V30 17680 C 1680.18 -3.59427 -0.290601 0
M  V30 17681 O 1679.28 -3.89111 -1.36626 0
M  V30 17682 H 1678.62 -0.663562 0.0241141 0
M  V30 17683 H 1681.15 -1.92452 0.6945 0
M  V30 17684 H 1681.16 -4.04627 -0.523549 0
M  V30 17685 H 1679.84 -4.11147 0.626959 0
M  V30 17686 H 1678.41 -3.55726 -1.11864 0
M  V30 17687 N 1680.6 -0.229873 -1.55915 0
M  V30 17688 C 1681.53 0.717016 -2.16643 0
M  V30 17689 C 1682.51 1.18509 -1.1133 0
M  V30 17690 O 1683.69 1.26632 -1.3963 0
M  V30 17691 C 1680.82 1.97243 -2.75342 0
M  V30 17692 C 1679.87 1.64364 -3.93556 0
M  V30 17693 S 1680.7 0.76114 -5.30063 0
M  V30 17694 C 1681.86 2.02593 -5.92205 0
M  V30 17695 H 1682.09 0.200879 -2.96621 0
M  V30 17696 H 1679.62 -0.0144837 -1.54393 0
M  V30 17697 H 1681.58 2.69323 -3.09799 0
M  V30 17698 H 1680.24 2.45969 -1.95341 0
M  V30 17699 H 1679.43 2.57662 -4.33159 0
M  V30 17700 H 1679.04 1.00341 -3.60288 0
M  V30 17701 H 1681.33 2.97504 -6.08685 0
M  V30 17702 H 1682.27 1.67367 -6.88036 0
M  V30 17703 H 1682.68 2.17026 -5.21114 0
M  V30 17704 N 1682.08 1.5754 0.0434337 0
M  V30 17705 C 1683.01 2.02385 1.07577 0
M  V30 17706 C 1684.02 0.934273 1.33324 0
M  V30 17707 O 1685.21 1.2118 1.31064 0
M  V30 17708 C 1682.31 2.3719 2.42062 0
M  V30 17709 C 1681.48 3.68351 2.35874 0
M  V30 17710 C 1680.54 3.90506 3.52692 0
M  V30 17711 O 1679.57 4.61746 3.32836 0
M  V30 17712 N 1680.77 3.35035 4.74059 0
M  V30 17713 H 1683.54 2.91563 0.693641 0
M  V30 17714 H 1681.1 1.60234 0.231631 0
M  V30 17715 H 1683.09 2.49161 3.18906 0
M  V30 17716 H 1681.66 1.53758 2.72171 0
M  V30 17717 H 1680.88 3.66869 1.44224 0
M  V30 17718 H 1682.17 4.54419 2.28868 0
M  V30 17719 H 1681.57 2.77264 4.93094 0
M  V30 17720 H 1680.12 3.52409 5.48317 0
M  V30 17721 N 1683.56 -0.31543 1.54411 0
M  V30 17722 C 1684.8 -1.05396 1.73261 0
M  V30 17723 C 1685.13 -1.87406 0.509171 0
M  V30 17724 O 1684.41 -1.88126 -0.493836 0
M  V30 17725 C 1684.69 -1.97195 3.01308 0
M  V30 17726 C 1684.55 -1.18461 4.33921 0
M  V30 17727 C 1685.86 -2.96594 3.25146 0
M  V30 17728 H 1682.98 -0.381763 0.630417 0
M  V30 17729 H 1685.63 -0.329882 1.87114 0
M  V30 17730 H 1683.78 -2.58936 2.89628 0
M  V30 17731 H 1685.45 -0.591171 4.57496 0
M  V30 17732 H 1683.69 -0.487025 4.31057 0
M  V30 17733 H 1684.36 -1.85909 5.19752 0
M  V30 17734 H 1686.84 -2.44977 3.36341 0
M  V30 17735 H 1685.71 -3.58002 4.16084 0
M  V30 17736 H 1685.97 -3.69487 2.42758 0
M  V30 17737 N 1685.03 -1.46622 -0.577906 0
M  V30 17738 C 1686.28 -1.53392 -1.33575 0
M  V30 17739 C 1686.64 -0.185083 -1.91508 0
M  V30 17740 O 1685.93 0.806821 -1.73784 0
M  V30 17741 C 1686.12 -2.57215 -2.48144 0
M  V30 17742 C 1685.95 -4.02062 -2.01435 0
M  V30 17743 C 1684.72 -4.69731 -1.86229 0
M  V30 17744 C 1686.92 -4.89714 -1.57112 0
M  V30 17745 N 1684.9 -5.99177 -1.33642 0
M  V30 17746 C 1686.27 -6.09023 -1.16149 0
M  V30 17747 C 1688.33 -4.76327 -1.44974 0
M  V30 17748 C 1687.03 -7.16424 -0.642558 0
M  V30 17749 C 1689.06 -5.83804 -0.944837 0
M  V30 17750 C 1688.42 -7.02288 -0.545014 0
M  V30 17751 H 1684.52 -0.616116 -0.481586 0
M  V30 17752 H 1687.1 -1.83264 -0.657462 0
M  V30 17753 H 1685.27 -2.29246 -3.1353 0
M  V30 17754 H 1687 -2.53952 -3.15104 0
M  V30 17755 H 1683.76 -4.25323 -2.08321 0
M  V30 17756 H 1684.18 -6.68087 -1.09496 0
M  V30 17757 H 1688.83 -3.85109 -1.74503 0
M  V30 17758 H 1686.54 -8.07406 -0.334864 0
M  V30 17759 H 1690.13 -5.75487 -0.854761 0
M  V30 17760 H 1689.01 -7.84036 -0.16036 0
M  V30 17761 N 1686.51 0.822941 -1.34408 0
M  V30 17762 C 1687.79 1.56492 -1.17345 0
M  V30 17763 C 1688.17 2.09567 0.253965 0
M  V30 17764 O 1687.52 1.90931 1.25529 0
M  V30 17765 C 1687.73 2.6863 -2.22797 0
M  V30 17766 C 1689.08 3.37399 -2.57773 0
M  V30 17767 O 1690.1 2.78887 -2.21587 0
M  V30 17768 O 1688.96 4.43063 -3.19934 0
M  V30 17769 H 1686.05 0.690664 -0.454876 0
M  V30 17770 H 1688.6 0.864315 -1.4604 0
M  V30 17771 H 1687.37 2.27166 -3.18608 0
M  V30 17772 H 1686.99 3.46341 -1.95279 0
M  V30 17773 N 1687.99 1.18137 1.04314 0
M  V30 17774 C 1688.92 0.849531 2.11798 0
M  V30 17775 C 1689.9 -0.187452 1.61516 0
M  V30 17776 O 1691.09 -0.0669812 1.88381 0
M  V30 17777 C 1688.21 0.268844 3.37631 0
M  V30 17778 C 1687.26 1.28262 4.06757 0
M  V30 17779 S 1688.09 2.83751 4.54143 0
M  V30 17780 C 1689.25 2.27186 5.83213 0
M  V30 17781 H 1689.48 1.75983 2.39619 0
M  V30 17782 H 1687.01 1.00697 1.17045 0
M  V30 17783 H 1688.97 -0.0596899 4.10457 0
M  V30 17784 H 1687.63 -0.619529 3.0793 0
M  V30 17785 H 1686.83 0.825141 4.972 0
M  V30 17786 H 1686.43 1.55726 3.40038 0
M  V30 17787 H 1688.72 1.6529 6.57028 0
M  V30 17788 H 1689.66 3.15919 6.3372 0
M  V30 17789 H 1690.07 1.70301 5.38199 0
M  V30 17790 N 1689.47 -1.23186 0.98301 0
M  V30 17791 C 1690.42 -2.26762 0.517846 0
M  V30 17792 C 1691.41 -1.63944 -0.426459 0
M  V30 17793 O 1692.62 -1.77481 -0.300065 0
M  V30 17794 H 1688.99 -0.737082 0.149042 0
M  V30 17795 H 1690.96 -2.63356 1.40307 0
M  V30 17796 C 1689.71 -3.47324 -0.16157 0
M  V30 17797 H 1689.03 -3.95915 0.555973 0
M  V30 17798 H 1690.47 -4.21598 -0.450644 0
M  V30 17799 C 1688.93 -3.06722 -1.39366 0
M  V30 17800 O 1689.46 -3.15239 -2.48973 0
M  V30 17801 N 1687.67 -2.61609 -1.26528 0
M  V30 17802 H 1687.22 -2.54879 -0.373449 0
M  V30 17803 H 1687.17 -2.34809 -2.09074 0
M  V30 17804 N 1690.95 -0.754982 -1.38339 0
M  V30 17805 C 1691.91 -0.136457 -2.28793 0
M  V30 17806 C 1692.91 0.646016 -1.47252 0
M  V30 17807 O 1694.1 0.472077 -1.67681 0
M  V30 17808 C 1691.23 0.815058 -3.31013 0
M  V30 17809 H 1692.42 -0.933619 -2.84997 0
M  V30 17810 H 1689.98 -0.522082 -1.47323 0
M  V30 17811 H 1690.71 1.63785 -2.79902 0
M  V30 17812 H 1690.5 0.256363 -3.91261 0
M  V30 17813 H 1691.99 1.24378 -3.98648 0
M  V30 17814 N 1692.42 1.49318 -0.504168 0
M  V30 17815 C 1693.35 2.32027 0.261837 0
M  V30 17816 C 1694.34 1.4045 0.959575 0
M  V30 17817 O 1695.52 1.69357 0.950365 0
M  V30 17818 C 1692.65 3.21039 1.3248 0
M  V30 17819 C 1691.6 4.21435 0.746752 0
M  V30 17820 C 1690.93 4.99405 1.91047 0
M  V30 17821 C 1692.23 5.21631 -0.264315 0
M  V30 17822 H 1693.92 2.96317 -0.428544 0
M  V30 17823 H 1691.47 1.42497 -0.207539 0
M  V30 17824 H 1693.42 3.77714 1.86843 0
M  V30 17825 H 1692.15 2.54699 2.04441 0
M  V30 17826 H 1690.81 3.6591 0.22485 0
M  V30 17827 H 1690.45 4.29509 2.61784 0
M  V30 17828 H 1690.15 5.67338 1.52975 0
M  V30 17829 H 1691.68 5.58924 2.45837 0
M  V30 17830 H 1693.09 5.72981 0.191288 0
M  V30 17831 H 1691.49 5.97472 -0.561039 0
M  V30 17832 H 1692.56 4.70346 -1.17911 0
M  V30 17833 N 1693.9 0.238138 1.5579 0
M  V30 17834 C 1695.13 -0.393422 2.03125 0
M  V30 17835 C 1695.55 -1.52168 1.11761 0
M  V30 17836 O 1694.9 -1.82034 0.130341 0
M  V30 17837 C 1694.95 -0.909474 3.49873 0
M  V30 17838 O 1694.67 0.17381 4.37755 0
M  V30 17839 C 1696.18 -1.61261 4.12928 0
M  V30 17840 H 1693.4 -0.0945077 0.664311 0
M  V30 17841 H 1695.94 0.359442 2.01316 0
M  V30 17842 H 1694.09 -1.61255 3.52244 0
M  V30 17843 H 1694.51 -0.216641 5.24052 0
M  V30 17844 H 1695.98 -1.92551 5.17328 0
M  V30 17845 H 1696.46 -2.53155 3.589 0
M  V30 17846 H 1697.07 -0.954326 4.14455 0
M  V30 17847 N 1695.38 -1.57561 -0.0350783 0
M  V30 17848 C 1696.63 -1.88623 -0.725659 0
M  V30 17849 C 1696.95 -0.835055 -1.76215 0
M  V30 17850 O 1696.22 0.13206 -1.95454 0
M  V30 17851 H 1694.8 -0.696108 -0.271004 0
M  V30 17852 H 1697.46 -1.949 -0.00245508 0
M  V30 17853 H 1696.56 -2.8731 -1.21899 0
M  V30 17854 N 1696.86 0.307236 -1.54576 0
M  V30 17855 C 1697.81 1.3787 -1.85096 0
M  V30 17856 C 1698.78 1.5066 -0.69935 0
M  V30 17857 O 1699.96 1.65618 -0.947373 0
M  V30 17858 C 1697.1 2.73976 -2.09836 0
M  V30 17859 C 1696.21 2.69687 -3.3748 0
M  V30 17860 C 1695.35 3.97746 -3.52096 0
M  V30 17861 C 1694.39 3.87829 -4.73556 0
M  V30 17862 N 1693.52 5.07651 -4.8501 0
M  V30 17863 H 1698.36 1.11144 -2.76498 0
M  V30 17864 H 1695.9 0.537696 -1.36921 0
M  V30 17865 H 1697.86 3.53121 -2.22174 0
M  V30 17866 H 1696.49 2.98977 -1.21707 0
M  V30 17867 H 1695.54 1.82441 -3.33795 0
M  V30 17868 H 1696.85 2.58247 -4.26743 0
M  V30 17869 H 1696.01 4.85327 -3.64065 0
M  V30 17870 H 1694.75 4.12012 -2.60955 0
M  V30 17871 H 1693.75 2.98633 -4.61626 0
M  V30 17872 H 1694.98 3.75114 -5.66098 0
M  V30 17873 H 1692.92 5.22393 -3.9679 0
M  V30 17874 H 1692.84 4.9861 -5.68264 0
M  V30 17875 H 1694.11 5.969 -5.01328 0
M  V30 17876 N 1698.34 1.46926 0.570122 0
M  V30 17877 C 1699.75 1.469 1.15227 0
M  V30 17878 C 1700.1 0.216651 1.95 0
M  V30 17879 O 1699.22 -0.679388 2.05459 0
M  V30 17880 C 1699.82 2.66158 2.09632 0
M  V30 17881 C 1698.38 2.69133 2.63144 0
M  V30 17882 C 1697.52 2.39795 1.39262 0
M  V30 17883 H 1700.48 1.54623 0.35739 0
M  V30 17884 H 1700.5 2.42393 2.93302 0
M  V30 17885 H 1700.01 3.5729 1.51543 0
M  V30 17886 H 1698.11 1.82106 3.25066 0
M  V30 17887 H 1698.22 3.69459 3.05019 0
M  V30 17888 H 1696.59 1.9011 1.695 0
M  V30 17889 H 1697.37 3.33119 0.829855 0
M  V30 17890 N 1699.82 -0.815801 1.34842 0
M  V30 17891 C 1700.78 -1.90871 1.2689 0
M  V30 17892 C 1701.78 -1.59762 0.182445 0
M  V30 17893 O 1702.97 -1.68667 0.435543 0
M  V30 17894 C 1700.1 -3.27081 0.960774 0
M  V30 17895 H 1701.29 -1.99343 2.24059 0
M  V30 17896 H 1698.85 -1.0106 1.19233 0
M  V30 17897 H 1699.58 -3.24299 -0.00744059 0
M  V30 17898 H 1699.37 -3.51045 1.74671 0
M  V30 17899 H 1700.86 -4.07101 0.930494 0
M  V30 17900 N 1701.29 -1.18689 -1.03686 0
M  V30 17901 C 1702.26 -0.919415 -2.09951 0
M  V30 17902 C 1703.26 0.0968042 -1.60508 0
M  V30 17903 O 1704.45 -0.137062 -1.7366 0
M  V30 17904 C 1701.58 -0.380204 -3.38773 0
M  V30 17905 H 1702.77 -1.86178 -2.35112 0
M  V30 17906 H 1700.32 -0.999435 -1.20171 0
M  V30 17907 H 1701.06 0.568586 -3.19277 0
M  V30 17908 H 1700.84 -1.11281 -3.75977 0
M  V30 17909 H 1702.33 -0.211891 -4.17062 0
M  V30 17910 N 1702.77 1.22662 -0.989529 0
M  V30 17911 C 1704.18 1.73116 -0.699124 0
M  V30 17912 C 1704.53 1.79847 0.784197 0
M  V30 17913 O 1703.66 1.44248 1.61311 0
M  V30 17914 C 1704.25 3.14403 -1.2624 0
M  V30 17915 C 1702.81 3.62275 -1.02144 0
M  V30 17916 C 1701.96 2.40257 -1.38463 0
M  V30 17917 H 1704.91 1.08057 -1.1623 0
M  V30 17918 H 1704.93 3.75091 -0.639307 0
M  V30 17919 H 1704.44 3.09472 -2.34198 0
M  V30 17920 H 1702.54 3.72577 0.0416622 0
M  V30 17921 H 1702.66 4.48587 -1.68245 0
M  V30 17922 H 1701.02 2.41705 -0.803179 0
M  V30 17923 H 1701.8 2.3799 -2.47418 0
M  V30 17924 N 1704.25 0.762308 1.37937 0
M  V30 17925 C 1705.5 0.322846 2.00214 0
M  V30 17926 C 1705.83 -1.09513 1.60376 0
M  V30 17927 O 1705.1 -1.75165 0.845432 0
M  V30 17928 C 1705.39 0.455651 3.57206 0
M  V30 17929 C 1705.24 1.91537 4.06981 0
M  V30 17930 C 1706.56 -0.145758 4.39859 0
M  V30 17931 H 1703.68 0.118781 0.727365 0
M  V30 17932 H 1706.32 0.963585 1.63753 0
M  V30 17933 H 1704.47 -0.0898341 3.88396 0
M  V30 17934 H 1706.14 2.51983 3.86397 0
M  V30 17935 H 1704.38 2.42744 3.59524 0
M  V30 17936 H 1705.06 1.9594 5.16054 0
M  V30 17937 H 1707.53 0.31956 4.14871 0
M  V30 17938 H 1706.41 -0.0226441 5.48895 0
M  V30 17939 H 1706.67 -1.23504 4.24499 0
M  V30 17940 N 1705.73 -1.49049 0.51208 0
M  V30 17941 C 1706.96 -2.06585 -0.024934 0
M  V30 17942 C 1707.37 -1.3713 -1.30353 0
M  V30 17943 O 1706.71 -0.446872 -1.78182 0
M  V30 17944 C 1706.77 -3.57911 -0.33768 0
M  V30 17945 C 1706.43 -4.49123 0.844817 0
M  V30 17946 C 1707.43 -4.89977 1.73836 0
M  V30 17947 C 1705.12 -4.91272 1.04675 0
M  V30 17948 C 1707.11 -5.71728 2.8179 0
M  V30 17949 C 1704.8 -5.72798 2.12946 0
M  V30 17950 C 1705.8 -6.12932 3.01337 0
M  V30 17951 O 1705.48 -6.92825 4.07737 0
M  V30 17952 H 1705.22 -0.675633 0.0222573 0
M  V30 17953 H 1707.77 -1.92669 0.711891 0
M  V30 17954 H 1706 -3.69875 -1.12825 0
M  V30 17955 H 1707.69 -3.97641 -0.814628 0
M  V30 17956 H 1708.45 -4.5805 1.59421 0
M  V30 17957 H 1704.33 -4.59528 0.368089 0
M  V30 17958 H 1707.88 -6.02974 3.50811 0
M  V30 17959 H 1703.77 -6.04137 2.27351 0
M  V30 17960 H 1704.54 -7.1115 4.05226 0
M  V30 17961 N 1707.21 -0.246397 -1.55662 0
M  V30 17962 C 1708.45 0.379047 -1.99226 0
M  V30 17963 C 1708.78 1.57627 -1.13434 0
M  V30 17964 O 1708.06 1.93493 -0.197627 0
M  V30 17965 C 1708.34 0.789403 -3.51341 0
M  V30 17966 C 1708.2 -0.413176 -4.47898 0
M  V30 17967 C 1709.51 1.63656 -4.0854 0
M  V30 17968 H 1706.63 0.136302 -0.724286 0
M  V30 17969 H 1709.28 -0.347607 -1.86793 0
M  V30 17970 H 1707.43 1.40854 -3.62067 0
M  V30 17971 H 1709.1 -1.0516 -4.49154 0
M  V30 17972 H 1707.34 -1.05636 -4.20741 0
M  V30 17973 H 1708.01 -0.0827267 -5.51938 0
M  V30 17974 H 1710.49 1.11393 -4.00912 0
M  V30 17975 H 1709.36 1.89254 -5.15242 0
M  V30 17976 H 1709.62 2.60823 -3.56965 0
M  V30 17977 N 1708.68 1.57577 0.026722 0
M  V30 17978 C 1710.09 1.77689 0.573022 0
M  V30 17979 C 1710.45 0.877771 1.7547 0
M  V30 17980 O 1709.57 0.0732156 2.16276 0
M  V30 17981 C 1710.17 3.22239 1.0463 0
M  V30 17982 C 1708.72 3.4354 1.5381 0
M  V30 17983 C 1707.87 2.73163 0.47722 0
M  V30 17984 H 1710.82 1.57441 -0.199502 0
M  V30 17985 H 1710.84 3.28882 1.91355 0
M  V30 17986 H 1710.36 3.87654 0.186047 0
M  V30 17987 H 1708.46 2.83304 2.42012 0
M  V30 17988 H 1708.57 4.52158 1.58398 0
M  V30 17989 H 1706.93 2.37004 0.932793 0
M  V30 17990 H 1707.72 3.41261 -0.373605 0
M  V30 17991 N 1710.16 -0.299034 1.54737 0
M  V30 17992 C 1711.44 -1.05371 1.64792 0
M  V30 17993 C 1711.82 -2.05155 0.497475 0
M  V30 17994 O 1711.17 -2.22837 -0.505573 0
M  V30 17995 C 1711.38 -1.73381 3.02886 0
M  V30 17996 C 1712.72 -2.25506 3.59767 0
M  V30 17997 O 1713.75 -1.8341 3.05351 0
M  V30 17998 O 1712.61 -3.02642 4.55049 0
M  V30 17999 H 1709.7 -0.487156 0.668287 0
M  V30 18000 H 1712.25 -0.296965 1.67081 0
M  V30 18001 H 1711.02 -1.00936 3.78058 0
M  V30 18002 H 1710.64 -2.55806 3.04383 0
M  V30 18003 N 1711.64 -1.47227 -0.562322 0
M  V30 18004 C 1712.59 -1.59329 -1.66981 0
M  V30 18005 C 1713.56 -0.436558 -1.6026 0
M  V30 18006 O 1714.74 -0.655956 -1.7917 0
M  V30 18007 C 1711.88 -1.60874 -3.05309 0
M  V30 18008 C 1710.99 -2.87428 -3.22505 0
M  V30 18009 C 1710.13 -2.80342 -4.512 0
M  V30 18010 C 1709.17 -4.01744 -4.6181 0
M  V30 18011 N 1708.31 -3.92924 -5.81855 0
M  V30 18012 H 1713.15 -2.53921 -1.55975 0
M  V30 18013 H 1710.68 -1.25953 -0.759879 0
M  V30 18014 H 1712.64 -1.59753 -3.85402 0
M  V30 18015 H 1711.27 -0.697994 -3.15163 0
M  V30 18016 H 1710.32 -2.98439 -2.35878 0
M  V30 18017 H 1711.63 -3.77345 -3.26209 0
M  V30 18018 H 1710.79 -2.77442 -5.39547 0
M  V30 18019 H 1709.53 -1.881 -4.49966 0
M  V30 18020 H 1708.53 -4.04954 -3.71877 0
M  V30 18021 H 1709.76 -4.95107 -4.64807 0
M  V30 18022 H 1707.7 -3.03481 -5.8158 0
M  V30 18023 H 1707.62 -4.76514 -5.86916 0
M  V30 18024 H 1708.89 -3.94031 -6.72577 0
M  V30 18025 N 1713.12 0.808639 -1.35273 0
M  V30 18026 C 1714.36 1.56741 -1.2963 0
M  V30 18027 C 1714.72 1.91968 0.128794 0
M  V30 18028 O 1714.01 1.58351 1.07868 0
M  V30 18029 C 1714.21 2.86667 -2.1344 0
M  V30 18030 C 1714.03 2.64134 -3.63955 0
M  V30 18031 C 1712.8 2.60134 -4.33195 0
M  V30 18032 C 1715 2.34654 -4.57648 0
M  V30 18033 N 1712.98 2.29296 -5.6947 0
M  V30 18034 C 1714.36 2.13637 -5.8203 0
M  V30 18035 C 1716.41 2.20501 -4.46412 0
M  V30 18036 C 1715.11 1.799 -6.9644 0
M  V30 18037 C 1717.14 1.88159 -5.60669 0
M  V30 18038 C 1716.5 1.67976 -6.84078 0
M  V30 18039 H 1712.6 0.575364 -0.529604 0
M  V30 18040 H 1715.18 0.946719 -1.70133 0
M  V30 18041 H 1713.36 3.46635 -1.75211 0
M  V30 18042 H 1715.09 3.52206 -1.99332 0
M  V30 18043 H 1711.84 2.74711 -3.85786 0
M  V30 18044 H 1712.27 2.16677 -6.41389 0
M  V30 18045 H 1716.91 2.34803 -3.51607 0
M  V30 18046 H 1714.63 1.64334 -7.91214 0
M  V30 18047 H 1718.21 1.77919 -5.53928 0
M  V30 18048 H 1717.09 1.43316 -7.70993 0
M  V30 18049 N 1714.6 1.19237 1.03055 0
M  V30 18050 C 1715.87 0.903353 1.7349 0
M  V30 18051 C 1716.25 -0.591365 2.02648 0
M  V30 18052 O 1715.6 -1.54906 1.67978 0
M  V30 18053 C 1715.81 1.7615 3.01284 0
M  V30 18054 C 1717.16 1.99477 3.74825 0
M  V30 18055 O 1718.18 1.73287 3.11207 0
M  V30 18056 O 1717.04 2.43628 4.89191 0
M  V30 18057 H 1714.14 0.336512 0.755439 0
M  V30 18058 H 1716.68 1.30041 1.09029 0
M  V30 18059 H 1715.45 2.77428 2.75952 0
M  V30 18060 H 1715.08 1.36361 3.73486 0
M  V30 18061 N 1716.07 -1.22136 0.99602 0
M  V30 18062 C 1717.02 -2.262 0.541868 0
M  V30 18063 C 1718.02 -1.64387 -0.409047 0
M  V30 18064 O 1719.22 -1.7779 -0.281224 0
M  V30 18065 H 1715.6 -0.73546 0.156851 0
M  V30 18066 H 1717.57 -2.61853 1.43092 0
M  V30 18067 C 1716.32 -3.47476 -0.124723 0
M  V30 18068 H 1715.64 -3.95303 0.597934 0
M  V30 18069 H 1717.08 -4.22053 -0.405902 0
M  V30 18070 C 1715.54 -3.08183 -1.36105 0
M  V30 18071 O 1716.07 -3.17862 -2.45615 0
M  V30 18072 N 1714.28 -2.62936 -1.23746 0
M  V30 18073 H 1713.82 -2.5526 -0.346394 0
M  V30 18074 H 1713.78 -2.37014 -2.06572 0
M  V30 18075 N 1717.55 -0.769612 -1.37531 0
M  V30 18076 C 1718.78 -0.343069 -2.04543 0
M  V30 18077 C 1719.2 1.02583 -1.57665 0
M  V30 18078 O 1718.56 1.65692 -0.735915 0
M  V30 18079 C 1718.61 -0.392914 -3.58453 0
M  V30 18080 O 1717.71 0.607401 -4.07902 0
M  V30 18081 H 1717.05 -0.148905 -0.647088 0
M  V30 18082 H 1719.58 -1.04521 -1.75888 0
M  V30 18083 H 1719.59 -0.24945 -4.07237 0
M  V30 18084 H 1718.27 -1.39159 -3.91928 0
M  V30 18085 H 1716.85 0.427231 -3.70445 0
M  V30 18086 N 1719.03 1.48775 -0.519977 0
M  V30 18087 C 1720.28 2.02792 0.0177768 0
M  V30 18088 C 1720.61 1.3972 1.34878 0
M  V30 18089 O 1719.88 0.539438 1.8687 0
M  V30 18090 C 1720.17 3.59786 0.150355 0
M  V30 18091 C 1720.02 4.33356 -1.20511 0
M  V30 18092 C 1721.34 4.31172 0.881959 0
M  V30 18093 H 1718.46 0.736983 0.00498634 0
M  V30 18094 H 1721.1 1.77603 -0.675069 0
M  V30 18095 H 1719.25 3.81378 0.740452 0
M  V30 18096 H 1720.92 4.23209 -1.83554 0
M  V30 18097 H 1719.17 3.95167 -1.78957 0
M  V30 18098 H 1719.84 5.4162 -1.06544 0
M  V30 18099 H 1722.31 4.14349 0.381302 0
M  V30 18100 H 1721.19 5.40729 0.943601 0
M  V30 18101 H 1721.45 3.97747 1.93001 0
M  V30 18102 N 1720.51 0.254649 1.55529 0
M  V30 18103 C 1721.74 -0.371317 2.03236 0
M  V30 18104 C 1722.15 -1.5152 1.13306 0
M  V30 18105 O 1721.49 -1.83154 0.141468 0
M  V30 18106 C 1721.55 -0.933614 3.47166 0
M  V30 18107 C 1721.22 0.0790139 4.56932 0
M  V30 18108 C 1722.21 0.891314 5.12203 0
M  V30 18109 C 1719.9 0.207343 5.01872 0
M  V30 18110 C 1721.89 1.81833 6.10914 0
M  V30 18111 C 1719.58 1.13785 6.00413 0
M  V30 18112 C 1720.58 1.94186 6.54813 0
M  V30 18113 O 1720.26 2.85667 7.51432 0
M  V30 18114 H 1720 -0.0914583 0.669785 0
M  V30 18115 H 1722.55 0.378413 2.01884 0
M  V30 18116 H 1720.78 -1.73305 3.45691 0
M  V30 18117 H 1722.47 -1.47048 3.78327 0
M  V30 18118 H 1723.24 0.802797 4.7831 0
M  V30 18119 H 1719.11 -0.408414 4.59187 0
M  V30 18120 H 1722.66 2.4463 6.53301 0
M  V30 18121 H 1718.56 1.22726 6.33726 0
M  V30 18122 H 1719.32 2.80116 7.69075 0
M  V30 18123 N 1721.99 -1.57589 -0.0183649 0
M  V30 18124 C 1722.93 -2.07252 -1.01563 0
M  V30 18125 C 1723.9 -0.963941 -1.35268 0
M  V30 18126 O 1725.09 -1.2352 -1.45421 0
M  V30 18127 C 1722.23 -2.56548 -2.30818 0
M  V30 18128 C 1721.34 -3.81238 -2.03178 0
M  V30 18129 C 1720.48 -4.19105 -3.26381 0
M  V30 18130 C 1719.52 -5.36682 -2.94344 0
M  V30 18131 N 1718.65 -5.6993 -4.1003 0
M  V30 18132 H 1723.49 -2.92198 -0.585179 0
M  V30 18133 H 1721.03 -1.44462 -0.27731 0
M  V30 18134 H 1722.99 -2.832 -3.06355 0
M  V30 18135 H 1721.62 -1.74504 -2.71566 0
M  V30 18136 H 1720.67 -3.61606 -1.1809 0
M  V30 18137 H 1721.98 -4.66886 -1.75552 0
M  V30 18138 H 1721.14 -4.46942 -4.10278 0
M  V30 18139 H 1719.87 -3.32129 -3.57129 0
M  V30 18140 H 1718.88 -5.08587 -2.08851 0
M  V30 18141 H 1720.1 -6.2532 -2.64862 0
M  V30 18142 H 1718.05 -4.85913 -4.40709 0
M  V30 18143 H 1717.97 -6.50111 -3.85865 0
M  V30 18144 H 1719.24 -6.02349 -4.94768 0
M  V30 18145 N 1723.46 0.290824 -1.54893 0
M  V30 18146 C 1724.74 1.04495 -1.65348 0
M  V30 18147 C 1725.12 2.04888 -0.508348 0
M  V30 18148 O 1724.47 2.23102 0.493749 0
M  V30 18149 C 1724.68 1.71772 -3.03801 0
M  V30 18150 C 1726.03 2.23595 -3.60958 0
M  V30 18151 O 1727.05 1.81788 -3.06319 0
M  V30 18152 O 1725.91 3.00225 -4.56648 0
M  V30 18153 H 1723 0.483605 -0.670862 0
M  V30 18154 H 1725.55 0.288101 -1.67237 0
M  V30 18155 H 1724.32 0.989296 -3.78588 0
M  V30 18156 H 1723.95 2.54188 -3.05735 0
M  V30 18157 N 1724.94 1.47523 0.554506 0
M  V30 18158 C 1726.19 1.53546 1.30791 0
M  V30 18159 C 1726.5 0.203555 1.94538 0
M  V30 18160 O 1727.71 0.14181 2.71129 0
M  V30 18161 C 1726.17 2.70684 2.37188 0
M  V30 18162 C 1725.77 4.10415 1.7962 0
M  V30 18163 C 1727.52 2.86002 3.13693 0
M  V30 18164 C 1725.43 5.18849 2.83813 0
M  V30 18165 H 1724.36 0.571539 0.491792 0
M  V30 18166 H 1727.01 1.73803 0.58861 0
M  V30 18167 H 1725.39 2.43812 3.12045 0
M  V30 18168 H 1726.56 4.47202 1.11117 0
M  V30 18169 H 1724.88 4.00006 1.15691 0
M  V30 18170 H 1727.47 3.64181 3.91505 0
M  V30 18171 H 1727.82 1.94545 3.68046 0
M  V30 18172 H 1728.35 3.12657 2.45948 0
M  V30 18173 H 1725.09 6.12192 2.34311 0
M  V30 18174 H 1724.61 4.86577 3.50718 0
M  V30 18175 H 1726.29 5.45915 3.47255 0
M  V30 18176 N 1726.42 -0.801453 1.357 0
M  V30 18177 C 1727.65 -1.59001 1.32386 0
M  V30 18178 C 1728.06 -1.88548 -0.0975432 0
M  V30 18179 O 1727.42 -1.49199 -1.05099 0
M  V30 18180 C 1727.47 -2.91822 2.13359 0
M  V30 18181 O 1727.19 -2.63554 3.49958 0
M  V30 18182 C 1728.69 -3.86169 2.17689 0
M  V30 18183 H 1725.91 -0.493557 0.45458 0
M  V30 18184 H 1728.46 -0.995616 1.78627 0
M  V30 18185 H 1726.61 -3.47763 1.70704 0
M  V30 18186 H 1727.03 -3.48397 3.92071 0
M  V30 18187 H 1728.5 -4.76461 2.78727 0
M  V30 18188 H 1728.98 -4.23134 1.17704 0
M  V30 18189 H 1729.58 -3.36163 2.60527 0
M  V30 18190 N 1727.9 -1.19782 -1.02421 0
M  V30 18191 C 1728.81 -0.955253 -2.14271 0
M  V30 18192 C 1729.82 0.0863233 -1.73786 0
M  V30 18193 O 1731 -0.0993878 -2.01155 0
M  V30 18194 C 1728.07 -0.502219 -3.43043 0
M  V30 18195 C 1727.13 -1.61374 -3.97815 0
M  V30 18196 C 1726.36 -1.18223 -5.20441 0
M  V30 18197 O 1726.58 -0.0477334 -5.7038 0
M  V30 18198 O 1725.52 -1.98664 -5.68169 0
M  V30 18199 H 1729.34 -1.89157 -2.37599 0
M  V30 18200 H 1726.93 -0.981035 -1.12677 0
M  V30 18201 H 1728.81 -0.258445 -4.20607 0
M  V30 18202 H 1727.48 0.4056 -3.21149 0
M  V30 18203 H 1726.39 -1.91172 -3.21565 0
M  V30 18204 H 1727.72 -2.49829 -4.24083 0
M  V30 18205 N 1729.38 1.21606 -1.00248 0
M  V30 18206 C 1730.31 2.26159 -0.580911 0
M  V30 18207 C 1731.29 1.65402 0.397017 0
M  V30 18208 O 1732.47 1.92089 0.285552 0
M  V30 18209 C 1729.6 3.47168 0.0957564 0
M  V30 18210 C 1728.56 4.20425 -0.801695 0
M  V30 18211 C 1727.88 5.34699 0.00842241 0
M  V30 18212 C 1729.18 4.78086 -2.10311 0
M  V30 18213 H 1730.88 2.61675 -1.45487 0
M  V30 18214 H 1728.42 1.25786 -0.700995 0
M  V30 18215 H 1730.38 4.19477 0.402141 0
M  V30 18216 H 1729.1 3.10775 1.00433 0
M  V30 18217 H 1727.76 3.49963 -1.09187 0
M  V30 18218 H 1727.41 4.94548 0.918206 0
M  V30 18219 H 1727.11 5.84639 -0.589105 0
M  V30 18220 H 1728.63 6.09819 0.30868 0
M  V30 18221 H 1730.05 5.42287 -1.86004 0
M  V30 18222 H 1728.44 5.38405 -2.65028 0
M  V30 18223 H 1729.51 3.97607 -2.77555 0
M  V30 18224 N 1730.86 0.776895 1.37121 0
M  V30 18225 C 1732.27 0.408311 1.8218 0
M  V30 18226 C 1732.62 -1.06621 1.64701 0
M  V30 18227 O 1731.74 -1.82621 1.16097 0
M  V30 18228 C 1732.34 0.734339 3.30746 0
M  V30 18229 C 1730.9 0.418746 3.74063 0
M  V30 18230 C 1730.04 0.97551 2.59575 0
M  V30 18231 H 1732.99 0.971111 1.25519 0
M  V30 18232 H 1733.02 0.0208557 3.80494 0
M  V30 18233 H 1732.53 1.80757 3.43436 0
M  V30 18234 H 1730.63 -0.646961 3.6694 0
M  V30 18235 H 1730.74 0.930597 4.69975 0
M  V30 18236 H 1729.11 0.399449 2.51548 0
M  V30 18237 H 1729.89 2.05425 2.75056 0
M  V30 18238 N 1732.33 -1.48497 0.527859 0
M  V30 18239 C 1733.28 -2.31258 -0.249477 0
M  V30 18240 C 1734.28 -1.41094 -0.93749 0
M  V30 18241 O 1735.48 -1.58011 -0.862117 0
M  V30 18242 H 1731.86 -0.745412 -0.0993208 0
M  V30 18243 H 1733.83 -2.94705 0.46815 0
M  V30 18244 C 1732.58 -3.23095 -1.28472 0
M  V30 18245 H 1731.9 -3.92418 -0.764724 0
M  V30 18246 H 1733.34 -3.83892 -1.80008 0
M  V30 18247 C 1731.8 -2.44554 -2.31722 0
M  V30 18248 O 1732.33 -2.16883 -3.38119 0
M  V30 18249 N 1730.53 -2.06088 -2.04881 0
M  V30 18250 H 1730.08 -2.28791 -1.18374 0
M  V30 18251 H 1730.04 -1.53849 -2.74186 0
M  V30 18252 N 1733.81 -0.262893 -1.55392 0
M  V30 18253 C 1734.76 0.644115 -2.18712 0
M  V30 18254 C 1735.75 1.12746 -1.14792 0
M  V30 18255 O 1736.94 1.07457 -1.40649 0
M  V30 18256 C 1734.07 1.83346 -2.9024 0
M  V30 18257 C 1733.15 1.36787 -4.01435 0
M  V30 18258 N 1733.54 0.617586 -5.02015 0
M  V30 18259 C 1731.84 1.65185 -4.14283 0
M  V30 18260 C 1732.54 0.374392 -5.80494 0
M  V30 18261 N 1731.52 0.943273 -5.35353 0
M  V30 18262 H 1735.32 0.062908 -2.93833 0
M  V30 18263 H 1732.83 -0.0659062 -1.62266 0
M  V30 18264 H 1734.83 2.49441 -3.34043 0
M  V30 18265 H 1733.49 2.41874 -2.16627 0
M  V30 18266 H 1734.5 0.266115 -5.17216 0
M  V30 18267 H 1731.18 2.24736 -3.51852 0
M  V30 18268 H 1732.57 -0.225674 -6.71521 0
M  V30 18269 N 1735.29 1.57597 0.0100073 0
M  V30 18270 C 1736.57 1.81329 0.733415 0
M  V30 18271 C 1736.95 0.865495 1.92542 0
M  V30 18272 O 1736.29 -0.088073 2.2833 0
M  V30 18273 C 1736.5 3.29559 1.14856 0
M  V30 18274 C 1737.85 3.95039 1.55658 0
M  V30 18275 O 1738.88 3.33822 1.24262 0
M  V30 18276 O 1737.74 5.02858 2.13999 0
M  V30 18277 H 1734.83 0.746334 0.35625 0
M  V30 18278 H 1737.38 1.69694 -0.0146791 0
M  V30 18279 H 1736.15 3.9016 0.298467 0
M  V30 18280 H 1735.77 3.46156 1.95607 0
M  V30 18281 N 1736.77 -0.282606 1.55045 0
M  V30 18282 C 1738.01 -1.01547 1.75198 0
M  V30 18283 C 1738.34 -1.86627 0.54779 0
M  V30 18284 O 1737.6 -1.89974 -0.46993 0
M  V30 18285 C 1737.9 -1.93554 3.00452 0
M  V30 18286 C 1737.56 -1.24303 4.33428 0
M  V30 18287 C 1736.22 -1.0515 4.69571 0
M  V30 18288 C 1738.58 -0.749451 5.15784 0
M  V30 18289 C 1735.9 -0.353528 5.85634 0
M  V30 18290 C 1738.26 -0.0651157 6.32566 0
M  V30 18291 C 1736.92 0.138206 6.67357 0
M  V30 18292 H 1736.19 -0.371587 0.641096 0
M  V30 18293 H 1738.84 -0.288623 1.89312 0
M  V30 18294 H 1737.14 -2.72828 2.81197 0
M  V30 18295 H 1738.84 -2.50363 3.1324 0
M  V30 18296 H 1735.43 -1.4022 4.05014 0
M  V30 18297 H 1739.61 -0.885074 4.88344 0
M  V30 18298 H 1734.87 -0.185186 6.11119 0
M  V30 18299 H 1739.04 0.325146 6.95641 0
M  V30 18300 H 1736.67 0.681034 7.57143 0
M  V30 18301 N 1738.25 -1.47815 -0.546675 0
M  V30 18302 C 1739.21 -1.6063 -1.63495 0
M  V30 18303 C 1740.21 -0.480661 -1.53448 0
M  V30 18304 O 1741.4 -0.746017 -1.57417 0
M  V30 18305 C 1738.53 -1.56076 -3.03073 0
M  V30 18306 H 1739.72 -2.57652 -1.53478 0
M  V30 18307 H 1737.28 -1.36162 -0.767433 0
M  V30 18308 H 1738.01 -0.604694 -3.18613 0
M  V30 18309 H 1737.8 -2.3778 -3.11774 0
M  V30 18310 H 1739.29 -1.68204 -3.82227 0
M  V30 18311 N 1739.72 0.794246 -1.36123 0
M  V30 18312 C 1740.95 1.58297 -1.33228 0
M  V30 18313 C 1741.37 1.88597 0.0875426 0
M  V30 18314 O 1740.72 1.49754 1.04307 0
M  V30 18315 C 1740.77 2.90687 -2.14904 0
M  V30 18316 O 1740.5 2.61695 -3.51351 0
M  V30 18317 C 1742 3.85009 -2.19734 0
M  V30 18318 H 1739.22 0.491139 -0.457191 0
M  V30 18319 H 1741.76 0.986129 -1.79153 0
M  V30 18320 H 1739.92 3.46852 -1.72546 0
M  V30 18321 H 1740.33 3.46313 -3.93913 0
M  V30 18322 H 1741.8 4.74976 -2.8125 0
M  V30 18323 H 1742.28 4.22504 -1.19946 0
M  V30 18324 H 1742.89 3.34777 -2.62307 0
M  V30 18325 N 1741.2 1.20323 1.01785 0
M  V30 18326 C 1742.45 1.01063 1.75016 0
M  V30 18327 C 1742.77 -0.458458 1.89534 0
M  V30 18328 O 1742.04 -1.3315 1.43694 0
M  V30 18329 H 1740.62 0.370957 0.648383 0
M  V30 18330 H 1743.28 1.51411 1.22722 0
M  V30 18331 H 1742.38 1.46792 2.75424 0
M  V30 18332 N 1742.68 -1.21073 1.00892 0
M  V30 18333 C 1743.96 -1.85871 0.609214 0
M  V30 18334 C 1744.34 -1.90334 -0.913023 0
M  V30 18335 O 1743.68 -1.40552 -1.80159 0
M  V30 18336 C 1743.89 -3.25918 1.24813 0
M  V30 18337 C 1745.24 -4.02274 1.35871 0
M  V30 18338 O 1746.27 -3.35244 1.20375 0
M  V30 18339 O 1745.13 -5.22296 1.60838 0
M  V30 18340 H 1742.22 -0.800105 0.20919 0
M  V30 18341 H 1744.77 -1.28724 1.10581 0
M  V30 18342 H 1743.54 -3.17392 2.28862 0
M  V30 18343 H 1743.16 -3.90688 0.738124 0
M  V30 18344 N 1744.16 -0.784156 -1.36707 0
M  V30 18345 C 1745.09 -0.193081 -2.327 0
M  V30 18346 C 1746.07 0.668999 -1.56392 0
M  V30 18347 O 1747.25 0.603908 -1.84571 0
M  V30 18348 C 1744.38 0.677092 -3.40636 0
M  V30 18349 C 1743.34 -0.0846718 -4.27916 0
M  V30 18350 C 1742.66 0.905754 -5.26973 0
M  V30 18351 C 1743.96 -1.27085 -5.06603 0
M  V30 18352 H 1745.66 -0.995029 -2.82382 0
M  V30 18353 H 1743.2 -0.479929 -1.35767 0
M  V30 18354 H 1745.16 1.1005 -4.06776 0
M  V30 18355 H 1743.88 1.51169 -2.89509 0
M  V30 18356 H 1742.54 -0.488992 -3.63324 0
M  V30 18357 H 1742.19 1.73524 -4.72121 0
M  V30 18358 H 1741.89 0.400524 -5.86233 0
M  V30 18359 H 1743.41 1.32784 -5.95987 0
M  V30 18360 H 1744.83 -0.923469 -5.65814 0
M  V30 18361 H 1743.22 -1.70901 -5.7525 0
M  V30 18362 H 1744.29 -2.06882 -4.38552 0
M  V30 18363 N 1745.64 1.48215 -0.535727 0
M  V30 18364 C 1746.86 2.06898 -0.0079465 0
M  V30 18365 C 1747.28 1.39148 1.27606 0
M  V30 18366 O 1746.64 0.480867 1.76051 0
M  V30 18367 C 1746.69 3.60868 0.213736 0
M  V30 18368 O 1746.41 4.26075 -1.01941 0
M  V30 18369 C 1747.91 4.36362 0.781245 0
M  V30 18370 H 1745.13 0.670028 -0.0361097 0
M  V30 18371 H 1747.67 1.90524 -0.743012 0
M  V30 18372 H 1745.83 3.76828 0.898866 0
M  V30 18373 H 1746.24 5.18306 -0.803716 0
M  V30 18374 H 1747.72 5.44847 0.885753 0
M  V30 18375 H 1748.19 4.01179 1.78751 0
M  V30 18376 H 1748.8 4.25094 0.132499 0
M  V30 18377 N 1747.11 0.27113 1.5525 0
M  V30 18378 C 1748.36 -0.346106 1.99114 0
M  V30 18379 C 1748.68 -1.56677 1.16092 0
M  V30 18380 O 1747.95 -1.94305 0.249472 0
M  V30 18381 H 1746.53 -0.13087 0.735447 0
M  V30 18382 H 1749.2 0.375542 1.91248 0
M  V30 18383 H 1748.29 -0.638703 3.05495 0
M  V30 18384 N 1748.59 -1.576 -0.00164943 0
M  V30 18385 C 1749.84 -1.91617 -0.682236 0
M  V30 18386 C 1750.19 -0.872639 -1.71472 0
M  V30 18387 O 1749.49 0.11537 -1.91252 0
M  V30 18388 C 1749.68 -3.30147 -1.36886 0
M  V30 18389 C 1749.51 -4.47878 -0.404393 0
M  V30 18390 C 1748.28 -5.05298 -0.0153944 0
M  V30 18391 C 1750.48 -5.13249 0.328688 0
M  V30 18392 N 1748.46 -6.06545 0.947457 0
M  V30 18393 C 1749.83 -6.09311 1.14628 0
M  V30 18394 C 1751.89 -4.96349 0.392701 0
M  V30 18395 C 1750.59 -6.90294 2.02204 0
M  V30 18396 C 1752.61 -5.77916 1.25569 0
M  V30 18397 C 1751.98 -6.7357 2.06113 0
M  V30 18398 H 1748.08 -0.74956 -0.2229 0
M  V30 18399 H 1750.66 -1.94613 0.0583106 0
M  V30 18400 H 1748.83 -3.28029 -2.07971 0
M  V30 18401 H 1750.56 -3.51599 -2.00401 0
M  V30 18402 H 1747.32 -4.72045 -0.383417 0
M  V30 18403 H 1747.74 -6.6185 1.4242 0
M  V30 18404 H 1752.38 -4.22249 -0.215731 0
M  V30 18405 H 1750.1 -7.6372 2.64116 0
M  V30 18406 H 1753.69 -5.66881 1.30911 0
M  V30 18407 H 1752.57 -7.35587 2.71811 0
M  V30 18408 N 1750.07 0.274379 -1.55193 0
M  V30 18409 C 1751 1.36461 -1.82903 0
M  V30 18410 C 1751.98 1.47607 -0.681977 0
M  V30 18411 O 1753.17 1.64253 -0.924827 0
M  V30 18412 C 1750.29 2.74116 -1.98942 0
M  V30 18413 C 1749.34 2.80261 -3.2149 0
M  V30 18414 S 1750.17 2.39647 -4.78884 0
M  V30 18415 C 1751.33 3.79279 -4.97894 0
M  V30 18416 H 1751.56 1.12752 -2.75089 0
M  V30 18417 H 1749.09 0.473936 -1.46946 0
M  V30 18418 H 1751.05 3.5339 -2.08868 0
M  V30 18419 H 1749.71 2.95078 -1.07647 0
M  V30 18420 H 1748.91 3.81291 -3.29595 0
M  V30 18421 H 1748.51 2.09007 -3.10148 0
M  V30 18422 H 1750.8 4.74537 -4.83551 0
M  V30 18423 H 1751.74 3.76127 -5.99945 0
M  V30 18424 H 1752.15 3.70518 -4.25883 0
M  V30 18425 N 1751.55 1.48103 0.538828 0
M  V30 18426 C 1752.78 1.59316 1.32008 0
M  V30 18427 C 1753.19 0.250107 1.87136 0
M  V30 18428 O 1752.55 -0.759358 1.65952 0
M  V30 18429 C 1752.6 2.63287 2.47714 0
M  V30 18430 O 1752.32 3.92379 1.9486 0
M  V30 18431 C 1753.82 2.84856 3.39664 0
M  V30 18432 H 1751.04 0.53743 0.401758 0
M  V30 18433 H 1753.59 1.93864 0.65092 0
M  V30 18434 H 1751.74 2.31621 3.10532 0
M  V30 18435 H 1752.15 4.49346 2.70534 0
M  V30 18436 H 1753.63 3.61426 4.17223 0
M  V30 18437 H 1754.11 1.93352 3.9435 0
M  V30 18438 H 1754.71 3.17791 2.82647 0
M  V30 18439 N 1753.03 -0.787016 1.36542 0
M  V30 18440 C 1753.94 -1.93103 1.33223 0
M  V30 18441 C 1754.95 -1.72419 0.234047 0
M  V30 18442 O 1756.13 -1.95915 0.466828 0
M  V30 18443 C 1753.19 -3.28002 1.12319 0
M  V30 18444 C 1752.25 -3.61447 2.31635 0
M  V30 18445 C 1751.49 -4.89909 2.11719 0
M  V30 18446 O 1751.71 -5.59818 1.0936 0
M  V30 18447 O 1750.64 -5.22065 2.99552 0
M  V30 18448 H 1754.47 -1.98853 2.29545 0
M  V30 18449 H 1752.06 -0.92761 1.17114 0
M  V30 18450 H 1753.94 -4.08722 1.02589 0
M  V30 18451 H 1752.61 -3.23138 0.19061 0
M  V30 18452 H 1751.52 -2.81024 2.46934 0
M  V30 18453 H 1752.85 -3.71037 3.23407 0
M  V30 18454 N 1754.5 -1.20861 -1.01145 0
M  V30 18455 C 1755.75 -1.0199 -1.74478 0
M  V30 18456 C 1756.07 0.4484 -1.89775 0
M  V30 18457 O 1755.34 1.32386 -1.44398 0
M  V30 18458 H 1753.92 -0.37439 -0.646406 0
M  V30 18459 H 1756.59 -1.5206 -1.21917 0
M  V30 18460 H 1755.68 -1.48251 -2.74642 0
M  V30 18461 N 1755.98 1.20536 -1.01532 0
M  V30 18462 C 1757.26 1.85545 -0.619063 0
M  V30 18463 C 1757.64 1.90816 0.902916 0
M  V30 18464 O 1756.99 1.41506 1.79411 0
M  V30 18465 C 1757.2 3.25252 -1.26539 0
M  V30 18466 C 1758.55 4.01547 -1.38003 0
M  V30 18467 O 1759.57 3.34601 -1.22151 0
M  V30 18468 O 1758.43 5.21436 -1.63605 0
M  V30 18469 H 1755.52 0.798985 -0.21343 0
M  V30 18470 H 1758.07 1.28136 -1.11262 0
M  V30 18471 H 1756.84 3.16174 -2.30542 0
M  V30 18472 H 1756.46 3.90292 -0.758833 0
M  V30 18473 N 1757.46 0.791395 1.36289 0
M  V30 18474 C 1758.42 0.197069 2.28351 0
M  V30 18475 C 1759.42 -0.606748 1.48913 0
M  V30 18476 O 1760.61 -0.427453 1.68874 0
M  V30 18477 C 1757.75 -0.727009 3.33058 0
M  V30 18478 H 1758.94 1.00885 2.82422 0
M  V30 18479 H 1756.49 0.560959 1.45887 0
M  V30 18480 H 1757.23 -1.56306 2.84146 0
M  V30 18481 H 1757.01 -0.152537 3.91803 0
M  V30 18482 H 1758.5 -1.13765 4.01805 0
M  V30 18483 N 1758.94 -1.47929 0.54358 0
M  V30 18484 C 1760.19 -2.02495 0.0144665 0
M  V30 18485 C 1760.51 -1.41934 -1.32985 0
M  V30 18486 O 1759.77 -0.559497 -1.87532 0
M  V30 18487 C 1760.07 -3.57116 -0.142408 0
M  V30 18488 C 1759.73 -4.3653 1.12927 0
M  V30 18489 C 1758.4 -4.57947 1.47776 0
M  V30 18490 C 1760.75 -4.8243 1.97259 0
M  V30 18491 C 1758.08 -5.22512 2.66829 0
M  V30 18492 C 1760.43 -5.48307 3.15503 0
M  V30 18493 C 1759.09 -5.6796 3.50681 0
M  V30 18494 H 1758.36 -0.740981 0.00529368 0
M  V30 18495 H 1761.01 -1.77758 0.712347 0
M  V30 18496 H 1759.31 -3.80769 -0.923157 0
M  V30 18497 H 1761.01 -3.96972 -0.566937 0
M  V30 18498 H 1757.6 -4.20129 0.847901 0
M  V30 18499 H 1761.79 -4.65673 1.71645 0
M  V30 18500 H 1757.04 -5.35924 2.9427 0
M  V30 18501 H 1761.22 -5.82839 3.81145 0
M  V30 18502 H 1758.84 -6.17762 4.43028 0
M  V30 18503 N 1760.42 -0.27936 -1.55104 0
M  V30 18504 C 1761.35 0.639572 -2.20096 0
M  V30 18505 C 1762.36 1.11423 -1.18696 0
M  V30 18506 O 1763.55 1.0354 -1.45402 0
M  V30 18507 C 1760.65 1.88494 -2.81644 0
M  V30 18508 C 1759.82 1.55639 -4.08773 0
M  V30 18509 C 1758.88 2.65466 -4.54328 0
M  V30 18510 O 1757.91 2.31473 -5.20008 0
M  V30 18511 N 1759.11 3.95606 -4.24825 0
M  V30 18512 H 1761.88 0.0833048 -2.99584 0
M  V30 18513 H 1759.44 -0.100637 -1.61587 0
M  V30 18514 H 1761.43 2.61272 -3.09062 0
M  V30 18515 H 1760 2.35015 -2.06123 0
M  V30 18516 H 1759.22 0.662253 -3.88597 0
M  V30 18517 H 1760.51 1.31196 -4.91594 0
M  V30 18518 H 1759.91 4.26043 -3.72161 0
M  V30 18519 H 1758.46 4.64748 -4.57004 0
M  V30 18520 N 1761.9 1.57599 -0.0067085 0
M  V30 18521 C 1762.84 2.09973 1.00071 0
M  V30 18522 C 1763.84 1.02121 1.35158 0
M  V30 18523 O 1765.04 1.20579 1.33644 0
M  V30 18524 H 1761.42 0.670547 0.340398 0
M  V30 18525 H 1763.39 2.93593 0.533471 0
M  V30 18526 C 1762.14 2.62376 2.28153 0
M  V30 18527 H 1761.46 3.45002 2.02024 0
M  V30 18528 H 1762.9 3.02694 2.96905 0
M  V30 18529 C 1761.36 1.54093 2.99595 0
M  V30 18530 O 1761.89 0.927722 3.9084 0
M  V30 18531 N 1760.1 1.26676 2.61537 0
M  V30 18532 H 1759.64 1.76728 1.87417 0
M  V30 18533 H 1759.6 0.544464 3.0965 0
M  V30 18534 N 1763.37 -0.266145 1.55336 0
M  V30 18535 C 1764.62 -0.998308 1.76527 0
M  V30 18536 C 1764.95 -1.85691 0.568535 0
M  V30 18537 O 1764.23 -1.89602 -0.433735 0
M  V30 18538 C 1764.51 -1.87509 3.07429 0
M  V30 18539 C 1764.36 -1.04596 4.3747 0
M  V30 18540 C 1765.68 -2.86099 3.34418 0
M  V30 18541 H 1762.8 -0.361514 0.642244 0
M  V30 18542 H 1765.44 -0.270186 1.88069 0
M  V30 18543 H 1763.59 -2.49591 2.97719 0
M  V30 18544 H 1765.27 -0.445323 4.59145 0
M  V30 18545 H 1763.51 -0.349641 4.32389 0
M  V30 18546 H 1764.18 -1.69279 5.25403 0
M  V30 18547 H 1766.66 -2.34153 3.43965 0
M  V30 18548 H 1765.53 -3.44584 4.27262 0
M  V30 18549 H 1765.79 -3.61577 2.5439 0
M  V30 18550 N 1764.85 -1.48386 -0.530967 0
M  V30 18551 C 1765.8 -1.59236 -1.6318 0
M  V30 18552 C 1766.79 -0.449549 -1.54492 0
M  V30 18553 O 1767.98 -0.700935 -1.6253 0
M  V30 18554 C 1765.11 -1.6343 -3.01903 0
M  V30 18555 C 1764.19 -2.83188 -3.15699 0
M  V30 18556 N 1764.58 -4.07616 -2.99471 0
M  V30 18557 C 1762.88 -2.80499 -3.46751 0
M  V30 18558 C 1763.58 -4.87959 -3.16657 0
M  V30 18559 N 1762.56 -4.20757 -3.44186 0
M  V30 18560 H 1766.36 -2.53187 -1.49243 0
M  V30 18561 H 1763.87 -1.44744 -0.7364 0
M  V30 18562 H 1765.87 -1.69297 -3.80978 0
M  V30 18563 H 1764.53 -0.705948 -3.16933 0
M  V30 18564 H 1765.54 -4.38068 -2.76255 0
M  V30 18565 H 1762.22 -1.96916 -3.68145 0
M  V30 18566 H 1763.61 -5.96705 -3.08857 0
M  V30 18567 N 1766.33 0.779763 -1.36958 0
M  V30 18568 C 1767.58 1.54031 -1.31918 0
M  V30 18569 C 1767.91 1.9395 0.0985685 0
M  V30 18570 O 1767.18 1.63458 1.05413 0
M  V30 18571 C 1767.47 2.81083 -2.25088 0
M  V30 18572 C 1767.32 2.47469 -3.75605 0
M  V30 18573 C 1768.64 3.82968 -2.1685 0
M  V30 18574 H 1765.76 0.558806 -0.480526 0
M  V30 18575 H 1768.4 0.895152 -1.67592 0
M  V30 18576 H 1766.55 3.36135 -1.94796 0
M  V30 18577 H 1768.22 1.98393 -4.16459 0
M  V30 18578 H 1766.46 1.80276 -3.94567 0
M  V30 18579 H 1767.14 3.38255 -4.3622 0
M  V30 18580 H 1769.61 3.37388 -2.43534 0
M  V30 18581 H 1768.49 4.69601 -2.84194 0
M  V30 18582 H 1768.75 4.26642 -1.15885 0
M  V30 18583 N 1767.81 1.21396 1.00503 0
M  V30 18584 C 1769.04 1.05714 1.77855 0
M  V30 18585 C 1769.45 -0.393058 1.84663 0
M  V30 18586 O 1768.81 -1.2727 1.308 0
M  V30 18587 C 1768.86 1.64774 3.21763 0
M  V30 18588 O 1768.58 3.0412 3.15346 0
M  V30 18589 C 1770.08 1.54202 4.15616 0
M  V30 18590 H 1767.3 0.371241 0.558947 0
M  V30 18591 H 1769.84 1.60733 1.26433 0
M  V30 18592 H 1768 1.13847 3.70294 0
M  V30 18593 H 1768.41 3.32356 4.05758 0
M  V30 18594 H 1769.89 2.00269 5.14389 0
M  V30 18595 H 1770.36 0.496455 4.36385 0
M  V30 18596 H 1770.97 2.04377 3.72975 0
M  V30 18597 N 1769.29 -1.19996 1.0217 0
M  V30 18598 C 1770.23 -2.25 0.589726 0
M  V30 18599 C 1771.23 -1.65218 -0.374086 0
M  V30 18600 O 1772.43 -1.78346 -0.243449 0
M  V30 18601 H 1768.81 -0.731968 0.172416 0
M  V30 18602 H 1770.78 -2.58759 1.48615 0
M  V30 18603 C 1769.53 -3.47663 -0.0509896 0
M  V30 18604 H 1768.85 -3.93946 0.681649 0
M  V30 18605 H 1770.29 -4.22819 -0.316287 0
M  V30 18606 C 1768.75 -3.11001 -1.29538 0
M  V30 18607 O 1769.28 -3.23 -2.38818 0
M  V30 18608 N 1767.49 -2.65502 -1.18141 0
M  V30 18609 H 1767.03 -2.55938 -0.292172 0
M  V30 18610 H 1766.99 -2.41342 -2.01498 0
M  V30 18611 N 1770.76 -0.798611 -1.35867 0
M  V30 18612 C 1771.99 -0.387479 -2.03239 0
M  V30 18613 C 1772.41 0.999052 -1.60201 0
M  V30 18614 O 1771.76 1.64237 -0.795763 0
M  V30 18615 C 1771.81 -0.452101 -3.58662 0
M  V30 18616 O 1771.54 -1.78396 -4.00133 0
M  V30 18617 C 1773.04 -0.0327638 -4.43288 0
M  V30 18618 H 1770.26 -0.15845 -0.652024 0
M  V30 18619 H 1772.8 -1.08002 -1.73655 0
M  V30 18620 H 1770.96 0.192107 -3.86923 0
M  V30 18621 H 1771.37 -1.74118 -4.94756 0
M  V30 18622 H 1772.84 -0.129106 -5.51849 0
M  V30 18623 H 1773.32 1.02098 -4.27168 0
M  V30 18624 H 1773.93 -0.649817 -4.20306 0
M  V30 18625 N 1772.24 1.47639 -0.551417 0
M  V30 18626 C 1773.17 2.27972 0.236919 0
M  V30 18627 C 1774.19 1.3666 0.884752 0
M  V30 18628 O 1775.38 1.61532 0.75958 0
M  V30 18629 C 1772.48 3.10738 1.3526 0
M  V30 18630 C 1771.65 4.29972 0.802659 0
M  V30 18631 C 1770.71 4.94379 1.80212 0
M  V30 18632 O 1769.73 5.52946 1.35053 0
M  V30 18633 N 1770.94 4.8855 3.13526 0
M  V30 18634 H 1773.7 2.9627 -0.452154 0
M  V30 18635 H 1771.26 1.57204 -0.387116 0
M  V30 18636 H 1773.25 3.50692 2.01983 0
M  V30 18637 H 1771.82 2.44721 1.945 0
M  V30 18638 H 1771.04 3.94178 -0.0411825 0
M  V30 18639 H 1772.33 5.07109 0.41448 0
M  V30 18640 H 1771.73 4.42157 3.52865 0
M  V30 18641 H 1770.29 5.32541 3.75823 0
M  V30 18642 N 1773.72 0.287581 1.54954 0
M  V30 18643 C 1774.97 -0.32561 1.99865 0
M  V30 18644 C 1775.3 -1.54921 1.176 0
M  V30 18645 O 1774.55 -1.94262 0.236802 0
M  V30 18646 C 1774.85 -0.739779 3.4966 0
M  V30 18647 C 1774.52 0.380573 4.49291 0
M  V30 18648 C 1773.18 0.688172 4.76254 0
M  V30 18649 C 1775.53 1.13489 5.08694 0
M  V30 18650 C 1772.86 1.75344 5.59885 0
M  V30 18651 C 1775.21 2.18998 5.93484 0
M  V30 18652 C 1773.87 2.50379 6.18762 0
M  V30 18653 H 1773.14 -0.119149 0.731358 0
M  V30 18654 H 1775.79 0.403889 1.87192 0
M  V30 18655 H 1774.1 -1.54915 3.59873 0
M  V30 18656 H 1775.79 -1.22518 3.81825 0
M  V30 18657 H 1772.38 0.130718 4.28401 0
M  V30 18658 H 1776.57 0.910505 4.87877 0
M  V30 18659 H 1771.82 2.00145 5.77713 0
M  V30 18660 H 1776 2.77913 6.38543 0
M  V30 18661 H 1773.62 3.33057 6.83357 0
M  V30 18662 N 1775.2 -1.57593 0.0150662 0
M  V30 18663 C 1776.45 -1.91214 -0.666599 0
M  V30 18664 C 1776.77 -0.890139 -1.72936 0
M  V30 18665 O 1776.03 0.102976 -1.95429 0
M  V30 18666 C 1776.33 -3.3158 -1.33376 0
M  V30 18667 C 1775.99 -4.49098 -0.402748 0
M  V30 18668 C 1774.66 -4.80977 -0.146455 0
M  V30 18669 C 1777.01 -5.20659 0.237376 0
M  V30 18670 C 1774.34 -5.81783 0.758003 0
M  V30 18671 C 1776.69 -6.22429 1.1298 0
M  V30 18672 C 1775.35 -6.52758 1.39513 0
M  V30 18673 H 1774.62 -0.699701 -0.243926 0
M  V30 18674 H 1777.27 -1.91358 0.073824 0
M  V30 18675 H 1775.57 -3.27632 -2.1486 0
M  V30 18676 H 1777.27 -3.54859 -1.86751 0
M  V30 18677 H 1773.86 -4.24198 -0.612678 0
M  V30 18678 H 1778.04 -4.96272 0.052408 0
M  V30 18679 H 1773.3 -6.03634 0.971415 0
M  V30 18680 H 1777.47 -6.77005 1.63208 0
M  V30 18681 H 1775.1 -7.30687 2.09764 0
M  V30 18682 N 1776.68 0.257904 -1.55475 0
M  V30 18683 C 1777.92 0.984747 -1.77973 0
M  V30 18684 C 1778.28 1.8338 -0.58219 0
M  V30 18685 O 1777.57 1.86831 0.424833 0
M  V30 18686 C 1777.76 1.8875 -3.03494 0
M  V30 18687 C 1777.59 1.12731 -4.35341 0
M  V30 18688 C 1776.36 0.836863 -4.98322 0
M  V30 18689 C 1778.56 0.51029 -5.11762 0
M  V30 18690 N 1776.54 0.0514671 -6.13878 0
M  V30 18691 C 1777.91 -0.140209 -6.19841 0
M  V30 18692 C 1779.97 0.419648 -4.96128 0
M  V30 18693 C 1778.67 -0.872631 -7.13987 0
M  V30 18694 C 1780.7 -0.299217 -5.90643 0
M  V30 18695 C 1780.06 -0.938395 -6.98121 0
M  V30 18696 H 1776.16 0.341821 -0.703337 0
M  V30 18697 H 1778.74 0.258929 -1.92971 0
M  V30 18698 H 1776.91 2.58544 -2.89844 0
M  V30 18699 H 1778.65 2.54908 -3.14331 0
M  V30 18700 H 1775.4 1.14592 -4.59528 0
M  V30 18701 H 1775.83 -0.329003 -6.762 0
M  V30 18702 H 1780.47 0.899487 -4.13121 0
M  V30 18703 H 1778.19 -1.36411 -7.96503 0
M  V30 18704 H 1781.77 -0.36987 -5.80623 0
M  V30 18705 H 1780.65 -1.48578 -7.69996 0
M  V30 18706 N 1778.15 1.48666 0.52309 0
M  V30 18707 C 1779.43 1.47526 1.28435 0
M  V30 18708 C 1779.81 0.190719 2.10237 0
M  V30 18709 O 1779.16 -0.827423 2.12993 0
M  V30 18710 C 1779.37 2.74132 2.15992 0
M  V30 18711 C 1780.72 3.22739 2.75907 0
M  V30 18712 O 1781.74 2.75097 2.26275 0
M  V30 18713 O 1780.6 4.05657 3.66203 0
M  V30 18714 H 1777.69 0.589478 0.580039 0
M  V30 18715 H 1780.24 1.60907 0.539176 0
M  V30 18716 H 1779.01 3.5913 1.55375 0
M  V30 18717 H 1778.64 2.63505 2.97743 0
M  V30 18718 N 1779.63 -0.772489 1.37369 0
M  V30 18719 C 1780.58 -1.90713 1.33158 0
M  V30 18720 C 1781.57 -1.67959 0.220482 0
M  V30 18721 O 1782.78 -1.75758 0.388465 0
M  V30 18722 H 1779.16 -0.627149 0.414956 0
M  V30 18723 H 1781.13 -1.91382 2.28944 0
M  V30 18724 C 1779.88 -3.27966 1.1547 0
M  V30 18725 H 1779.2 -3.46052 2.00221 0
M  V30 18726 H 1780.64 -4.0766 1.16574 0
M  V30 18727 C 1779.1 -3.3661 -0.139688 0
M  V30 18728 O 1779.63 -3.85668 -1.12353 0
M  V30 18729 N 1777.83 -2.89977 -0.190134 0
M  V30 18730 H 1777.38 -2.50246 0.611134 0
M  V30 18731 H 1777.34 -2.96142 -1.05582 0
M  V30 18732 N 1781.11 -1.21927 -0.998575 0
M  V30 18733 C 1782.36 -1.03456 -1.73147 0
M  V30 18734 C 1782.67 0.431472 -1.90782 0
M  V30 18735 O 1783.88 0.73573 -2.61341 0
M  V30 18736 C 1782.33 -1.80256 -3.11506 0
M  V30 18737 C 1781.94 -3.31071 -3.01821 0
M  V30 18738 C 1783.69 -1.70214 -3.8888 0
M  V30 18739 C 1781.59 -4.00335 -4.35299 0
M  V30 18740 H 1780.52 -0.3835 -0.649187 0
M  V30 18741 H 1783.17 -1.45724 -1.11521 0
M  V30 18742 H 1781.56 -1.30784 -3.7378 0
M  V30 18743 H 1782.73 -3.87895 -2.48746 0
M  V30 18744 H 1781.05 -3.41727 -2.37932 0
M  V30 18745 H 1783.64 -2.19289 -4.87664 0
M  V30 18746 H 1783.99 -0.661522 -4.1101 0
M  V30 18747 H 1784.52 -2.17199 -3.33271 0
M  V30 18748 H 1781.26 -5.04626 -4.18369 0
M  V30 18749 H 1780.78 -3.48301 -4.8831 0
M  V30 18750 H 1782.46 -4.05611 -5.04072 0
M  V30 18751 N 1782.59 1.19452 -1.02805 0
M  V30 18752 C 1783.84 1.89114 -0.724029 0
M  V30 18753 C 1784.16 1.79571 0.747307 0
M  V30 18754 O 1783.42 1.18191 1.55979 0
M  V30 18755 C 1783.72 3.3941 -1.11964 0
M  V30 18756 C 1783.38 3.69156 -2.58911 0
M  V30 18757 C 1782.05 3.76984 -2.99059 0
M  V30 18758 C 1784.4 3.82549 -3.53986 0
M  V30 18759 C 1781.73 3.95673 -4.33197 0
M  V30 18760 C 1784.08 4.02751 -4.87826 0
M  V30 18761 C 1782.74 4.08812 -5.27664 0
M  V30 18762 H 1782.01 0.692017 -0.264941 0
M  V30 18763 H 1784.66 1.41463 -1.29075 0
M  V30 18764 H 1782.96 3.88952 -0.471514 0
M  V30 18765 H 1784.66 3.91627 -0.861939 0
M  V30 18766 H 1781.25 3.6367 -2.26808 0
M  V30 18767 H 1785.43 3.75845 -3.24121 0
M  V30 18768 H 1780.69 3.98605 -4.63599 0
M  V30 18769 H 1784.86 4.12056 -5.61412 0
M  V30 18770 H 1782.49 4.23046 -6.31614 0
M  V30 18771 N 1784.07 0.805805 1.35442 0
M  V30 18772 C 1785.31 0.385808 1.98791 0
M  V30 18773 C 1785.64 -1.04681 1.63927 0
M  V30 18774 O 1784.9 -1.7408 0.894125 0
M  V30 18775 C 1785.2 0.515335 3.53665 0
M  V30 18776 C 1784.86 1.91115 4.08394 0
M  V30 18777 C 1783.52 2.29302 4.23053 0
M  V30 18778 C 1785.88 2.82437 4.38039 0
M  V30 18779 C 1783.2 3.58182 4.64675 0
M  V30 18780 C 1785.56 4.10762 4.811 0
M  V30 18781 C 1784.22 4.48949 4.93964 0
M  V30 18782 H 1783.49 0.141177 0.727427 0
M  V30 18783 H 1786.14 1.02644 1.61667 0
M  V30 18784 H 1784.44 -0.208753 3.91243 0
M  V30 18785 H 1786.14 0.171152 4.00635 0
M  V30 18786 H 1782.73 1.60446 3.97436 0
M  V30 18787 H 1786.91 2.54183 4.26268 0
M  V30 18788 H 1782.17 3.87618 4.72824 0
M  V30 18789 H 1786.34 4.81626 5.03 0
M  V30 18790 H 1783.97 5.48867 5.25974 0
M  V30 18791 N 1785.54 -1.47344 0.559239 0
M  V30 18792 C 1786.49 -2.31735 -0.200368 0
M  V30 18793 C 1787.49 -1.43051 -0.907351 0
M  V30 18794 O 1788.69 -1.59804 -0.828406 0
M  V30 18795 H 1785.07 -0.747351 -0.0834871 0
M  V30 18796 H 1787.04 -2.93645 0.530556 0
M  V30 18797 C 1785.79 -3.25747 -1.2159 0
M  V30 18798 H 1785.11 -3.93952 -0.681314 0
M  V30 18799 H 1786.55 -3.87624 -1.71825 0
M  V30 18800 C 1785.01 -2.49414 -2.26482 0
M  V30 18801 O 1785.54 -2.24006 -3.33443 0
M  V30 18802 N 1783.75 -2.10387 -2.00464 0
M  V30 18803 H 1783.29 -2.3125 -1.13495 0
M  V30 18804 H 1783.25 -1.5963 -2.70861 0
M  V30 18805 N 1787.02 -0.295795 -1.54799 0
M  V30 18806 C 1788.43 0.19789 -1.85648 0
M  V30 18807 C 1788.78 1.53834 -1.21776 0
M  V30 18808 O 1787.91 2.10218 -0.513554 0
M  V30 18809 C 1788.5 0.365844 -3.36819 0
M  V30 18810 C 1787.06 0.80375 -3.67718 0
M  V30 18811 C 1786.21 -0.0909572 -2.77151 0
M  V30 18812 H 1789.16 -0.516968 -1.50044 0
M  V30 18813 H 1789.18 1.20123 -3.61041 0
M  V30 18814 H 1788.69 -0.60991 -3.83278 0
M  V30 18815 H 1786.8 1.79024 -3.26774 0
M  V30 18816 H 1786.91 0.626745 -4.74983 0
M  V30 18817 H 1785.27 0.428882 -2.51063 0
M  V30 18818 H 1786.06 -1.06297 -3.26429 0
M  V30 18819 N 1788.5 1.57583 -0.0234236 0
M  V30 18820 C 1789.73 1.96267 0.670371 0
M  V30 18821 C 1790.15 0.899586 1.65194 0
M  V30 18822 O 1789.51 -0.140079 1.80758 0
M  V30 18823 C 1789.56 3.34049 1.35806 0
M  V30 18824 O 1788.66 3.3001 2.4732 0
M  V30 18825 H 1788 0.640097 0.176557 0
M  V30 18826 H 1790.53 2.04429 -0.0835829 0
M  V30 18827 H 1790.54 3.70151 1.71616 0
M  V30 18828 H 1789.22 4.10969 0.63852 0
M  V30 18829 H 1787.79 3.05618 2.13664 0
M  V30 18830 N 1789.98 -0.249655 1.5561 0
M  V30 18831 C 1790.93 -1.31189 1.86477 0
M  V30 18832 C 1791.91 -1.43619 0.725415 0
M  V30 18833 O 1793.11 -1.46907 0.987281 0
M  V30 18834 C 1790.23 -2.66786 2.16056 0
M  V30 18835 C 1789.32 -2.58371 3.36311 0
M  V30 18836 N 1789.71 -2.19587 4.55648 0
M  V30 18837 C 1788.01 -2.8939 3.39366 0
M  V30 18838 C 1788.71 -2.21737 5.3778 0
M  V30 18839 N 1787.69 -2.61131 4.76772 0
M  V30 18840 H 1791.49 -1.00248 2.76275 0
M  V30 18841 H 1789 -0.458283 1.558 0
M  V30 18842 H 1791 -3.43442 2.36333 0
M  V30 18843 H 1789.66 -2.98597 1.27555 0
M  V30 18844 H 1790.67 -1.91176 4.81323 0
M  V30 18845 H 1787.35 -3.25758 2.61128 0
M  V30 18846 H 1788.74 -1.94114 6.43249 0
M  V30 18847 N 1791.46 -1.48941 -0.515198 0
M  V30 18848 C 1792.4 -1.64561 -1.61828 0
M  V30 18849 C 1793.37 -0.487323 -1.5879 0
M  V30 18850 O 1794.56 -0.712626 -1.76992 0
M  V30 18851 C 1791.7 -1.70506 -3.00036 0
M  V30 18852 C 1790.81 -2.97543 -3.13197 0
M  V30 18853 C 1789.95 -2.94555 -4.42053 0
M  V30 18854 C 1788.99 -4.16232 -4.48795 0
M  V30 18855 N 1788.12 -4.11236 -5.6906 0
M  V30 18856 H 1792.96 -2.58754 -1.47818 0
M  V30 18857 H 1790.5 -1.28307 -0.719423 0
M  V30 18858 H 1792.46 -1.71934 -3.80125 0
M  V30 18859 H 1791.09 -0.797907 -3.12783 0
M  V30 18860 H 1790.14 -3.05792 -2.26264 0
M  V30 18861 H 1791.45 -3.87532 -3.14039 0
M  V30 18862 H 1790.61 -2.94466 -5.30447 0
M  V30 18863 H 1789.35 -2.0232 -4.43754 0
M  V30 18864 H 1788.35 -4.1658 -3.58805 0
M  V30 18865 H 1789.58 -5.09644 -4.48821 0
M  V30 18866 H 1787.52 -3.2183 -5.7163 0
M  V30 18867 H 1787.44 -4.94945 -5.71459 0
M  V30 18868 H 1788.71 -4.15229 -6.59701 0
M  V30 18869 N 1792.94 0.765193 -1.37777 0
M  V30 18870 C 1794.18 1.51928 -1.32668 0
M  V30 18871 C 1794.5 1.95418 0.0844172 0
M  V30 18872 O 1795.7 2.70271 0.258001 0
M  V30 18873 C 1794.16 2.74377 -2.32906 0
M  V30 18874 C 1793.77 2.37959 -3.79578 0
M  V30 18875 C 1795.51 3.52302 -2.3682 0
M  V30 18876 C 1793.42 3.5695 -4.7153 0
M  V30 18877 H 1792.35 0.570412 -0.493098 0
M  V30 18878 H 1795 0.837531 -1.63272 0
M  V30 18879 H 1793.38 3.44474 -1.95329 0
M  V30 18880 H 1794.56 1.75603 -4.26028 0
M  V30 18881 H 1792.87 1.73194 -3.78672 0
M  V30 18882 H 1795.47 4.40754 -3.02721 0
M  V30 18883 H 1795.81 3.92631 -1.38371 0
M  V30 18884 H 1796.34 2.89207 -2.73137 0
M  V30 18885 H 1793.08 3.21697 -5.71132 0
M  V30 18886 H 1792.6 4.18388 -4.2978 0
M  V30 18887 H 1794.28 4.2368 -4.88983 0
M  V30 18888 N 1794.41 1.22455 0.992094 0
M  V30 18889 C 1795.82 1.04629 1.54627 0
M  V30 18890 C 1796.18 -0.390011 1.92285 0
M  V30 18891 O 1795.3 -1.27511 1.74842 0
M  V30 18892 C 1795.9 1.89306 2.80978 0
M  V30 18893 C 1794.45 1.75775 3.32836 0
M  V30 18894 C 1793.6 1.85724 2.05917 0
M  V30 18895 H 1796.55 1.36288 0.813089 0
M  V30 18896 H 1796.57 1.41095 3.53373 0
M  V30 18897 H 1796.09 2.93836 2.53539 0
M  V30 18898 H 1794.19 0.739821 3.65181 0
M  V30 18899 H 1794.3 2.58491 4.03385 0
M  V30 18900 H 1792.66 1.29173 2.19514 0
M  V30 18901 H 1793.45 2.91787 1.80874 0
M  V30 18902 N 1795.89 -1.18905 1.03437 0
M  V30 18903 C 1797.14 -1.88354 0.732598 0
M  V30 18904 C 1797.46 -1.80353 -0.741474 0
M  V30 18905 O 1796.73 -1.21764 -1.53461 0
M  V30 18906 H 1795.31 -0.697272 0.267995 0
M  V30 18907 H 1797.97 -1.44329 1.30978 0
M  V30 18908 H 1797.07 -2.94551 1.03181 0
M  V30 18909 N 1797.37 -0.812977 -1.35013 0
M  V30 18910 C 1798.59 -0.407969 -2.03348 0
M  V30 18911 C 1799.02 0.975148 -1.60849 0
M  V30 18912 O 1798.38 1.63267 -0.788256 0
M  V30 18913 C 1798.43 -0.506754 -3.57022 0
M  V30 18914 O 1797.53 0.477322 -4.09628 0
M  V30 18915 H 1796.87 -0.169416 -0.642023 0
M  V30 18916 H 1799.4 -1.10064 -1.72474 0
M  V30 18917 H 1799.41 -0.378883 -4.06237 0
M  V30 18918 H 1798.09 -1.51557 -3.87302 0
M  V30 18919 H 1796.66 0.309161 -3.71616 0
M  V30 18920 N 1798.85 1.47045 -0.567045 0
M  V30 18921 C 1800.08 2.06535 -0.0517558 0
M  V30 18922 C 1800.49 1.41873 1.25174 0
M  V30 18923 O 1799.83 0.512695 1.764 0
M  V30 18924 C 1799.89 3.58917 0.204611 0
M  V30 18925 C 1799.55 4.45678 -1.01092 0
M  V30 18926 C 1800.55 4.83187 -1.91902 0
M  V30 18927 C 1798.24 4.87049 -1.22837 0
M  V30 18928 C 1800.23 5.60876 -3.02815 0
M  V30 18929 C 1797.92 5.645 -2.34058 0
M  V30 18930 C 1798.92 6.01325 -3.23878 0
M  V30 18931 O 1798.6 6.77214 -4.3317 0
M  V30 18932 H 1798.34 0.674342 -0.0473177 0
M  V30 18933 H 1800.89 1.89894 -0.782909 0
M  V30 18934 H 1799.12 3.73808 0.990192 0
M  V30 18935 H 1800.81 4.00391 0.666485 0
M  V30 18936 H 1801.57 4.51818 -1.76312 0
M  V30 18937 H 1797.45 4.57845 -0.538387 0
M  V30 18938 H 1801 5.89538 -3.72948 0
M  V30 18939 H 1796.89 5.95283 -2.49617 0
M  V30 18940 H 1797.66 6.9562 -4.31341 0
M  V30 18941 N 1800.33 0.304 1.5464 0
M  V30 18942 C 1801.28 -0.585901 2.20343 0
M  V30 18943 C 1802.26 -1.09663 1.17741 0
M  V30 18944 O 1803.45 -1.0369 1.43448 0
M  V30 18945 C 1800.58 -1.75586 2.94999 0
M  V30 18946 C 1799.67 -1.26096 4.04921 0
M  V30 18947 N 1800.06 -0.484268 5.03476 0
M  V30 18948 C 1798.36 -1.54143 4.18517 0
M  V30 18949 C 1799.06 -0.220353 5.81282 0
M  V30 18950 N 1798.03 -0.801002 5.37666 0
M  V30 18951 H 1801.83 0.0150187 2.93896 0
M  V30 18952 H 1799.35 0.108905 1.62034 0
M  V30 18953 H 1801.35 -2.40496 3.40539 0
M  V30 18954 H 1800.01 -2.36045 2.22964 0
M  V30 18955 H 1801.02 -0.128891 5.1774 0
M  V30 18956 H 1797.69 -2.15328 3.57687 0
M  V30 18957 H 1799.08 0.403637 6.70687 0
M  V30 18958 N 1801.8 -1.57568 0.0317802 0
M  V30 18959 C 1802.73 -2.13412 -0.947499 0
M  V30 18960 C 1803.71 -1.05091 -1.33753 0
M  V30 18961 O 1804.9 -1.32936 -1.41568 0
M  V30 18962 C 1802.03 -2.66337 -2.22895 0
M  V30 18963 C 1800.98 -3.79469 -1.97958 0
M  V30 18964 C 1800.31 -4.18833 -3.3239 0
M  V30 18965 C 1801.61 -5.05432 -1.31664 0
M  V30 18966 H 1803.3 -2.95488 -0.482417 0
M  V30 18967 H 1800.85 -1.42142 -0.230603 0
M  V30 18968 H 1802.8 -3.04039 -2.91784 0
M  V30 18969 H 1801.53 -1.81426 -2.71574 0
M  V30 18970 H 1800.19 -3.42209 -1.31485 0
M  V30 18971 H 1799.83 -3.30899 -3.78833 0
M  V30 18972 H 1799.53 -4.95071 -3.16511 0
M  V30 18973 H 1801.06 -4.5912 -4.02544 0
M  V30 18974 H 1802.47 -5.40704 -1.90558 0
M  V30 18975 H 1800.87 -5.86686 -1.26173 0
M  V30 18976 H 1801.94 -4.84032 -0.28996 0
M  V30 18977 N 1803.28 0.241399 -1.5574 0
M  V30 18978 C 1804.53 0.965816 -1.79007 0
M  V30 18979 C 1804.88 1.82752 -0.601607 0
M  V30 18980 O 1804.18 1.87271 0.404993 0
M  V30 18981 C 1804.37 1.8552 -3.05478 0
M  V30 18982 C 1804.2 1.08108 -4.36512 0
M  V30 18983 C 1802.97 0.783962 -4.99181 0
M  V30 18984 C 1805.17 0.455982 -5.12275 0
M  V30 18985 N 1803.15 -0.0136458 -6.13898 0
M  V30 18986 C 1804.52 -0.205944 -6.19658 0
M  V30 18987 C 1806.58 0.367003 -4.96546 0
M  V30 18988 C 1805.28 -0.94831 -7.13021 0
M  V30 18989 C 1807.3 -0.361846 -5.90292 0
M  V30 18990 C 1806.67 -1.01239 -6.97087 0
M  V30 18991 H 1802.77 0.334342 -0.706923 0
M  V30 18992 H 1805.35 0.238447 -1.93234 0
M  V30 18993 H 1803.52 2.55455 -2.9257 0
M  V30 18994 H 1805.25 2.51559 -3.17017 0
M  V30 18995 H 1802.01 1.09711 -4.60717 0
M  V30 18996 H 1802.43 -0.400704 -6.75813 0
M  V30 18997 H 1807.07 0.85562 -4.14052 0
M  V30 18998 H 1804.79 -1.44851 -7.95012 0
M  V30 18999 H 1808.38 -0.431432 -5.80198 0
M  V30 19000 H 1807.26 -1.56736 -7.68377 0
M  V30 19001 N 1804.76 1.49212 0.507292 0
M  V30 19002 C 1806.01 1.58068 1.25932 0
M  V30 19003 C 1806.33 0.266461 1.93171 0
M  V30 19004 O 1805.6 -0.713743 1.82435 0
M  V30 19005 H 1804.18 0.582384 0.467801 0
M  V30 19006 H 1806.84 1.85804 0.58847 0
M  V30 19007 H 1805.94 2.37351 2.0266 0
M  V30 19008 N 1806.24 -0.757876 1.38181 0
M  V30 19009 C 1807.49 -1.51688 1.34153 0
M  V30 19010 C 1807.81 -1.94375 -0.0697487 0
M  V30 19011 O 1807.07 -1.65404 -1.04594 0
M  V30 19012 C 1807.37 -2.78548 2.23933 0
M  V30 19013 C 1807.03 -2.54845 3.71975 0
M  V30 19014 C 1805.7 -2.48089 4.12317 0
M  V30 19015 C 1808.05 -2.34027 4.65704 0
M  V30 19016 C 1805.38 -2.18526 5.44485 0
M  V30 19017 C 1807.73 -2.05986 5.98124 0
M  V30 19018 C 1806.39 -1.97683 6.37556 0
M  V30 19019 H 1805.66 -0.555064 0.490902 0
M  V30 19020 H 1808.31 -0.871823 1.70504 0
M  V30 19021 H 1806.61 -3.47682 1.80623 0
M  V30 19022 H 1808.31 -3.36487 2.18122 0
M  V30 19023 H 1804.9 -2.60972 3.39988 0
M  V30 19024 H 1809.08 -2.38228 4.35386 0
M  V30 19025 H 1804.34 -2.10603 5.73983 0
M  V30 19026 H 1808.51 -1.8888 6.70296 0
M  V30 19027 H 1806.14 -1.7454 7.39892 0
M  V30 19028 N 1807.72 -1.22979 -0.985586 0
M  V30 19029 C 1808.66 -1.00374 -2.09828 0
M  V30 19030 C 1809.66 0.0555734 -1.69309 0
M  V30 19031 O 1810.86 -0.0974909 -1.79736 0
M  V30 19032 H 1807.24 -0.307451 -0.686278 0
M  V30 19033 H 1809.21 -1.94776 -2.26064 0
M  V30 19034 C 1807.96 -0.606018 -3.42378 0
M  V30 19035 H 1807.28 -1.41284 -3.74004 0
M  V30 19036 H 1808.72 -0.487318 -4.2119 0
M  V30 19037 C 1807.18 0.685197 -3.29859 0
M  V30 19038 O 1807.71 1.73572 -3.62265 0
M  V30 19039 N 1805.92 0.65914 -2.83026 0
M  V30 19040 H 1805.46 -0.196071 -2.56853 0
M  V30 19041 H 1805.42 1.52332 -2.75031 0
M  V30 19042 N 1809.19 1.18355 -1.04066 0
M  V30 19043 C 1810.1 2.25641 -0.642115 0
M  V30 19044 C 1811.12 1.70811 0.331614 0
M  V30 19045 O 1812.3 2.00534 0.186542 0
M  V30 19046 C 1809.36 3.46698 -0.0112485 0
M  V30 19047 C 1808.42 4.16662 -1.03398 0
M  V30 19048 C 1807.66 5.3194 -0.433125 0
M  V30 19049 O 1807.88 5.65305 0.760669 0
M  V30 19050 O 1806.81 5.90581 -1.16182 0
M  V30 19051 H 1810.64 2.61997 -1.53595 0
M  V30 19052 H 1808.22 1.25437 -0.811542 0
M  V30 19053 H 1810.11 4.20027 0.339934 0
M  V30 19054 H 1808.78 3.12166 0.856405 0
M  V30 19055 H 1807.69 3.45402 -1.43696 0
M  V30 19056 H 1809.02 4.55194 -1.8724 0
M  V30 19057 N 1810.67 0.820125 1.3458 0
M  V30 19058 C 1811.6 0.197556 2.28347 0
M  V30 19059 C 1812.62 -0.610956 1.50901 0
M  V30 19060 O 1813.81 -0.441096 1.72964 0
M  V30 19061 C 1810.91 -0.741893 3.3068 0
M  V30 19062 C 1810.08 0.0231854 4.37394 0
M  V30 19063 C 1809.14 -0.83677 5.19504 0
M  V30 19064 O 1808.16 -0.282772 5.68497 0
M  V30 19065 N 1809.37 -2.15696 5.38939 0
M  V30 19066 H 1812.13 1.00314 2.82413 0
M  V30 19067 H 1809.69 0.676827 1.47074 0
M  V30 19068 H 1811.68 -1.32173 3.82508 0
M  V30 19069 H 1810.25 -1.44823 2.77029 0
M  V30 19070 H 1809.47 0.784316 3.86319 0
M  V30 19071 H 1810.76 0.549958 5.05819 0
M  V30 19072 H 1810.16 -2.63083 5.00803 0
M  V30 19073 H 1808.72 -2.68572 5.93896 0
M  V30 19074 N 1812.15 -1.46743 0.574835 0
M  V30 19075 C 1813.11 -2.28691 -0.152633 0
M  V30 19076 C 1814.11 -1.37949 -0.826238 0
M  V30 19077 O 1815.3 -1.60405 -0.679398 0
M  V30 19078 C 1812.44 -3.1812 -1.22525 0
M  V30 19079 H 1813.63 -2.94483 0.567439 0
M  V30 19080 H 1811.18 -1.52723 0.33248 0
M  V30 19081 H 1811.92 -2.57058 -1.97716 0
M  V30 19082 H 1811.7 -3.84922 -0.746841 0
M  V30 19083 H 1813.19 -3.7982 -1.7357 0
M  V30 19084 N 1813.63 -0.312197 -1.54477 0
M  V30 19085 C 1814.88 0.293192 -1.99962 0
M  V30 19086 C 1815.2 1.53544 -1.20205 0
M  V30 19087 O 1814.47 1.93575 -0.300901 0
M  V30 19088 H 1813.05 0.111325 -0.738658 0
M  V30 19089 H 1815.71 -0.426116 -1.90185 0
M  V30 19090 H 1814.81 0.557482 -3.07081 0
M  V30 19091 N 1815.11 1.57549 -0.040136 0
M  V30 19092 C 1816.35 1.9187 0.634838 0
M  V30 19093 C 1816.68 0.918178 1.7203 0
M  V30 19094 O 1815.95 -0.0386563 1.95862 0
M  V30 19095 H 1814.53 0.708245 0.237483 0
M  V30 19096 H 1817.19 1.9469 -0.0905369 0
M  V30 19097 H 1816.28 2.92799 1.08053 0
M  V30 19098 N 1816.58 -0.233136 1.55866 0
M  V30 19099 C 1817.86 -0.982866 1.69113 0
M  V30 19100 C 1818.24 -2.0286 0.584041 0
M  V30 19101 O 1817.59 -2.24781 -0.410606 0
M  V30 19102 C 1817.8 -1.60378 3.09967 0
M  V30 19103 C 1819.15 -2.10044 3.69008 0
M  V30 19104 O 1820.17 -1.70294 3.12855 0
M  V30 19105 O 1819.03 -2.8307 4.67476 0
M  V30 19106 H 1816.12 -0.458373 0.688348 0
M  V30 19107 H 1818.67 -0.225833 1.68191 0
M  V30 19108 H 1817.44 -0.848104 3.81999 0
M  V30 19109 H 1817.07 -2.42666 3.14959 0
M  V30 19110 N 1818.06 -1.49479 -0.499372 0
M  V30 19111 C 1819.29 -1.63025 -1.28209 0
M  V30 19112 C 1819.71 -0.302238 -1.85656 0
M  V30 19113 O 1819.07 0.730355 -1.65938 0
M  V30 19114 C 1819.12 -2.70287 -2.38699 0
M  V30 19115 O 1818.22 -2.29573 -3.42593 0
M  V30 19116 H 1817.56 -0.545605 -0.378432 0
M  V30 19117 H 1820.09 -1.95677 -0.597628 0
M  V30 19118 H 1820.1 -2.92505 -2.84438 0
M  V30 19119 H 1818.78 -3.66684 -1.96253 0
M  V30 19120 H 1817.36 -2.17692 -3.02761 0
M  V30 19121 N 1819.54 0.750537 -1.38581 0
M  V30 19122 C 1820.47 1.87785 -1.38777 0
M  V30 19123 C 1821.45 1.68204 -0.253244 0
M  V30 19124 O 1822.64 1.88752 -0.456779 0
M  V30 19125 C 1819.77 3.2535 -1.21511 0
M  V30 19126 C 1818.72 3.59538 -2.32199 0
M  V30 19127 C 1818.05 4.95873 -2.00036 0
M  V30 19128 C 1819.35 3.64102 -3.74469 0
M  V30 19129 H 1821.04 1.87879 -2.33113 0
M  V30 19130 H 1818.59 0.902504 -1.12209 0
M  V30 19131 H 1820.54 4.03872 -1.20272 0
M  V30 19132 H 1819.26 3.25744 -0.236366 0
M  V30 19133 H 1817.92 2.83336 -2.32629 0
M  V30 19134 H 1817.57 4.9283 -1.00638 0
M  V30 19135 H 1817.27 5.19716 -2.7417 0
M  V30 19136 H 1818.8 5.7677 -2.00421 0
M  V30 19137 H 1820.21 4.32731 -3.76054 0
M  V30 19138 H 1818.61 3.99455 -4.47834 0
M  V30 19139 H 1819.68 2.64259 -4.06565 0
M  V30 19140 N 1821.02 1.235 0.979051 0
M  V30 19141 C 1822.25 1.09462 1.75572 0
M  V30 19142 C 1822.66 -0.3538 1.85455 0
M  V30 19143 O 1822.02 -1.24467 1.3347 0
M  V30 19144 C 1822.07 1.71562 3.18196 0
M  V30 19145 O 1821.79 3.1074 3.08824 0
M  V30 19146 C 1823.29 1.62984 4.12251 0
M  V30 19147 H 1820.51 0.383013 0.550946 0
M  V30 19148 H 1823.06 1.63378 1.22995 0
M  V30 19149 H 1821.21 1.21676 3.67796 0
M  V30 19150 H 1821.63 3.40888 3.98617 0
M  V30 19151 H 1823.1 2.11135 5.10025 0
M  V30 19152 H 1823.58 0.588907 4.35234 0
M  V30 19153 H 1824.18 2.12242 3.68556 0
M  V30 19154 N 1822.5 -1.17802 1.04693 0
M  V30 19155 C 1823.75 -1.87567 0.752534 0
M  V30 19156 C 1824.07 -1.81129 -0.722303 0
M  V30 19157 O 1823.34 -1.23385 -1.52161 0
M  V30 19158 H 1821.92 -0.69439 0.275376 0
M  V30 19159 H 1824.58 -1.42932 1.32501 0
M  V30 19160 H 1823.67 -2.9344 1.06299 0
M  V30 19161 N 1823.98 -0.827251 -1.34143 0
M  V30 19162 C 1824.94 -0.257543 -2.27748 0
M  V30 19163 C 1825.94 0.567053 -1.5047 0
M  V30 19164 O 1827.13 0.382529 -1.69948 0
M  V30 19165 C 1824.26 0.638449 -3.34868 0
M  V30 19166 H 1825.45 -1.08338 -2.79648 0
M  V30 19167 H 1823.01 -0.599441 -1.44348 0
M  V30 19168 H 1823.74 1.48717 -2.8819 0
M  V30 19169 H 1823.53 0.0486033 -3.9207 0
M  V30 19170 H 1825.02 1.03071 -4.0468 0
M  V30 19171 N 1825.45 1.46436 -0.582609 0
M  V30 19172 C 1826.38 2.33089 0.138477 0
M  V30 19173 C 1827.36 1.45339 0.883777 0
M  V30 19174 O 1828.55 1.74156 0.859257 0
M  V30 19175 C 1825.68 3.27611 1.15276 0
M  V30 19176 C 1824.63 4.24801 0.522308 0
M  V30 19177 C 1823.96 5.0883 1.64306 0
M  V30 19178 C 1825.26 5.19496 -0.540449 0
M  V30 19179 H 1826.95 2.93629 -0.585013 0
M  V30 19180 H 1824.5 1.41196 -0.282781 0
M  V30 19181 H 1826.45 3.87087 1.66558 0
M  V30 19182 H 1825.18 2.65177 1.90653 0
M  V30 19183 H 1823.84 3.66587 0.0305728 0
M  V30 19184 H 1823.48 4.42782 2.38649 0
M  V30 19185 H 1823.18 5.74649 1.22686 0
M  V30 19186 H 1824.71 5.7117 2.15864 0
M  V30 19187 H 1826.12 5.73189 -0.112706 0
M  V30 19188 H 1824.52 5.93658 -0.876957 0
M  V30 19189 H 1825.59 4.63434 -1.42677 0
M  V30 19190 N 1826.93 0.320385 1.54309 0
M  V30 19191 C 1828.35 -0.0323699 1.59567 0
M  V30 19192 C 1828.55 -1.50754 1.33699 0
M  V30 19193 O 1827.6 -2.26308 1.11987 0
M  V30 19194 C 1828.92 0.383001 2.98251 0
M  V30 19195 C 1830.46 0.33339 3.11219 0
M  V30 19196 C 1830.94 0.723874 4.52243 0
M  V30 19197 N 1832.43 0.677156 4.58224 0
M  V30 19198 C 1833.17 0.951531 5.6545 0
M  V30 19199 N 1832.66 1.29288 6.8063 0
M  V30 19200 N 1834.45 0.877303 5.55211 0
M  V30 19201 H 1826.61 1.28155 1.69381 0
M  V30 19202 H 1828.87 0.520887 0.792074 0
M  V30 19203 H 1828.57 1.41067 3.22169 0
M  V30 19204 H 1828.45 -0.253601 3.76347 0
M  V30 19205 H 1830.84 -0.685063 2.87038 0
M  V30 19206 H 1830.92 1.00488 2.35236 0
M  V30 19207 H 1830.56 1.74023 4.77157 0
M  V30 19208 H 1830.49 0.0301039 5.26591 0
M  V30 19209 H 1832.98 0.425055 3.75502 0
M  V30 19210 H 1833.29 1.4877 7.58345 0
M  V30 19211 H 1831.64 1.33111 6.82134 0
M  V30 19212 H 1834.83 0.610144 4.64107 0
M  V30 19213 H 1835 1.09449 6.3869 0
M  V30 19214 N 1828.41 -1.57525 0.0484906 0
M  V30 19215 C 1829.63 -1.97309 -0.639062 0
M  V30 19216 C 1830.06 -0.925753 -1.63742 0
M  V30 19217 O 1829.42 0.111304 -1.80958 0
M  V30 19218 C 1829.47 -3.36168 -1.30475 0
M  V30 19219 O 1828.57 -3.33903 -2.42038 0
M  V30 19220 H 1827.91 -0.642824 -0.166351 0
M  V30 19221 H 1830.44 -2.0427 0.116095 0
M  V30 19222 H 1830.45 -3.72835 -1.65705 0
M  V30 19223 H 1829.13 -4.11933 -0.573057 0
M  V30 19224 H 1827.7 -3.08978 -2.08775 0
M  V30 19225 N 1829.89 0.224867 -1.55988 0
M  V30 19226 C 1830.82 1.30204 -1.88626 0
M  V30 19227 C 1831.83 1.4321 -0.774248 0
M  V30 19228 O 1833.02 1.44167 -1.05253 0
M  V30 19229 C 1830.12 2.67806 -2.07685 0
M  V30 19230 C 1829.29 2.76789 -3.38684 0
M  V30 19231 C 1828.35 3.95383 -3.47216 0
M  V30 19232 O 1827.38 3.83876 -4.20271 0
M  V30 19233 N 1828.58 5.09541 -2.78116 0
M  V30 19234 H 1831.35 1.02533 -2.81615 0
M  V30 19235 H 1828.91 0.414916 -1.56493 0
M  V30 19236 H 1830.9 3.45518 -2.10712 0
M  V30 19237 H 1829.47 2.88091 -1.21336 0
M  V30 19238 H 1828.69 1.8558 -3.47784 0
M  V30 19239 H 1829.98 2.79758 -4.24986 0
M  V30 19240 H 1829.38 5.21785 -2.18535 0
M  V30 19241 H 1827.93 5.85307 -2.86808 0
M  V30 19242 N 1831.37 1.49742 0.491438 0
M  V30 19243 C 1832.31 1.67614 1.61271 0
M  V30 19244 C 1833.31 0.542004 1.60495 0
M  V30 19245 O 1834.51 0.721922 1.64889 0
M  V30 19246 H 1830.89 0.528696 0.534775 0
M  V30 19247 H 1832.86 2.61711 1.43352 0
M  V30 19248 C 1831.61 1.76877 2.99349 0
M  V30 19249 H 1830.93 2.63526 3.00656 0
M  V30 19250 H 1832.37 1.93414 3.77315 0
M  V30 19251 C 1830.83 0.515719 3.32929 0
M  V30 19252 O 1831.36 -0.354312 4.00134 0
M  V30 19253 N 1829.57 0.3758 2.8816 0
M  V30 19254 H 1829.11 1.08481 2.33644 0
M  V30 19255 H 1829.07 -0.461494 3.10995 0
M  V30 19256 N 1832.84 -0.743177 1.38977 0
M  V30 19257 C 1834.09 -1.50256 1.35755 0
M  V30 19258 C 1834.42 -1.94438 -0.0491287 0
M  V30 19259 O 1833.67 -1.66505 -1.02834 0
M  V30 19260 C 1833.97 -2.76157 2.26874 0
M  V30 19261 C 1833.64 -2.50885 3.74657 0
M  V30 19262 C 1832.3 -2.43702 4.14925 0
M  V30 19263 C 1834.65 -2.29075 4.6816 0
M  V30 19264 C 1831.98 -2.12738 5.46772 0
M  V30 19265 C 1834.33 -1.9963 6.00275 0
M  V30 19266 C 1833 -1.9091 6.39617 0
M  V30 19267 H 1832.27 -0.549827 0.496761 0
M  V30 19268 H 1834.91 -0.85369 1.71419 0
M  V30 19269 H 1833.22 -3.45746 1.84301 0
M  V30 19270 H 1834.92 -3.34155 2.21679 0
M  V30 19271 H 1831.51 -2.57351 3.42737 0
M  V30 19272 H 1835.69 -2.33597 4.37888 0
M  V30 19273 H 1830.95 -2.04504 5.76184 0
M  V30 19274 H 1835.12 -1.8176 6.72262 0
M  V30 19275 H 1832.75 -1.66683 7.41701 0
M  V30 19276 N 1834.32 -1.24018 -0.972487 0
M  V30 19277 C 1835.57 -1.07861 -1.71738 0
M  V30 19278 C 1835.9 0.382399 -1.90398 0
M  V30 19279 O 1835.18 1.2828 -1.462 0
M  V30 19280 C 1835.46 -1.81357 -3.11098 0
M  V30 19281 C 1835.31 -3.35179 -2.99959 0
M  V30 19282 C 1836.63 -1.58242 -4.10667 0
M  V30 19283 H 1833.75 -0.393228 -0.623331 0
M  V30 19284 H 1836.39 -1.52625 -1.13162 0
M  V30 19285 H 1834.54 -1.43307 -3.61103 0
M  V30 19286 H 1836.21 -3.82798 -2.57416 0
M  V30 19287 H 1834.46 -3.63805 -2.3628 0
M  V30 19288 H 1835.13 -3.818 -3.98664 0
M  V30 19289 H 1837.6 -1.91332 -3.69501 0
M  V30 19290 H 1836.48 -2.1213 -5.06253 0
M  V30 19291 H 1836.74 -0.519567 -4.39036 0
M  V30 19292 N 1835.8 1.17245 -1.05316 0
M  V30 19293 C 1836.73 2.23491 -0.67631 0
M  V30 19294 C 1837.71 1.66937 0.326507 0
M  V30 19295 O 1838.9 1.93127 0.203823 0
M  V30 19296 C 1836.03 3.47262 -0.0515755 0
M  V30 19297 C 1834.98 4.16646 -0.97929 0
M  V30 19298 C 1834.31 5.34254 -0.218369 0
M  V30 19299 C 1835.61 4.68736 -2.30399 0
M  V30 19300 H 1837.3 2.55269 -1.56455 0
M  V30 19301 H 1834.85 1.22699 -0.753714 0
M  V30 19302 H 1836.8 4.20805 0.223865 0
M  V30 19303 H 1835.52 3.14755 0.871614 0
M  V30 19304 H 1834.18 3.45017 -1.23931 0
M  V30 19305 H 1833.83 4.97998 0.707624 0
M  V30 19306 H 1833.53 5.81615 -0.83654 0
M  V30 19307 H 1835.05 6.1058 0.0497574 0
M  V30 19308 H 1836.47 5.3391 -2.08837 0
M  V30 19309 H 1834.87 5.2668 -2.87625 0
M  V30 19310 H 1835.94 3.85477 -2.94169 0
M  V30 19311 N 1837.28 0.834353 1.33702 0
M  V30 19312 C 1838.53 0.427042 1.97537 0
M  V30 19313 C 1838.85 -1.01607 1.66436 0
M  V30 19314 O 1838.12 -1.70711 0.960958 0
M  V30 19315 H 1836.7 0.154921 0.730759 0
M  V30 19316 H 1839.36 1.06632 1.63143 0
M  V30 19317 H 1838.46 0.555396 3.07118 0
M  V30 19318 N 1838.76 -1.46125 0.590367 0
M  V30 19319 C 1840 -2.01947 0.0787256 0
M  V30 19320 C 1840.33 -1.4634 -1.28878 0
M  V30 19321 O 1839.6 -0.651011 -1.84767 0
M  V30 19322 H 1838.18 -0.746543 0.0261125 0
M  V30 19323 H 1840.84 -1.79136 0.767877 0
M  V30 19324 H 1839.93 -3.12096 0.0154914 0
M  V30 19325 N 1840.23 -0.328564 -1.54137 0
M  V30 19326 C 1841.18 0.550592 -2.25989 0
M  V30 19327 C 1842.18 1.11442 -1.27581 0
M  V30 19328 O 1843.38 1.06189 -1.45341 0
M  V30 19329 H 1839.76 0.196215 -0.72595 0
M  V30 19330 H 1841.73 -0.0776348 -2.98299 0
M  V30 19331 C 1840.48 1.69733 -3.03457 0
M  V30 19332 H 1839.8 1.27273 -3.79001 0
M  V30 19333 H 1841.24 2.28797 -3.56971 0
M  V30 19334 C 1839.7 2.61791 -2.12054 0
M  V30 19335 O 1840.23 3.63641 -1.7067 0
M  V30 19336 N 1838.44 2.30138 -1.7744 0
M  V30 19337 H 1837.98 1.47355 -2.11292 0
M  V30 19338 H 1837.94 2.91994 -1.16564 0
M  V30 19339 N 1841.71 1.57497 -0.0568439 0
M  V30 19340 C 1842.96 1.92533 0.614452 0
M  V30 19341 C 1843.28 0.936373 1.71047 0
M  V30 19342 O 1842.55 -0.0178803 1.95892 0
M  V30 19343 H 1841.13 0.710724 0.229958 0
M  V30 19344 H 1843.79 1.94583 -0.111181 0
M  V30 19345 H 1842.89 2.93928 1.04941 0
M  V30 19346 N 1843.19 -0.216591 1.56105 0
M  V30 19347 C 1844.14 -1.26844 1.92819 0
M  V30 19348 C 1845.11 -1.46326 0.785999 0
M  V30 19349 O 1846.29 -1.59813 1.04232 0
M  V30 19350 C 1843.43 -2.61276 2.25452 0
M  V30 19351 C 1842.55 -2.49552 3.5263 0
M  V30 19352 C 1841.68 -3.76541 3.74686 0
M  V30 19353 C 1840.72 -3.5956 4.95362 0
M  V30 19354 N 1839.86 -4.7851 5.13782 0
M  V30 19355 H 1844.7 -0.948341 2.82508 0
M  V30 19356 H 1842.23 -0.456953 1.39823 0
M  V30 19357 H 1844.19 -3.39567 2.42384 0
M  V30 19358 H 1842.82 -2.91373 1.38931 0
M  V30 19359 H 1841.87 -1.6267 3.43864 0
M  V30 19360 H 1843.19 -2.32927 4.41074 0
M  V30 19361 H 1842.34 -4.63275 3.91741 0
M  V30 19362 H 1841.08 -3.96097 2.84532 0
M  V30 19363 H 1840.08 -2.71211 4.78252 0
M  V30 19364 H 1841.31 -3.41471 5.87005 0
M  V30 19365 H 1839.25 -4.9837 4.26572 0
M  V30 19366 H 1839.17 -4.64631 5.96368 0
M  V30 19367 H 1840.44 -5.66656 5.35277 0
M  V30 19368 N 1844.67 -1.5 -0.48349 0
M  V30 19369 C 1845.92 -1.59612 -1.23317 0
M  V30 19370 C 1846.23 -0.29614 -1.93345 0
M  V30 19371 O 1847.44 -0.271008 -2.70144 0
M  V30 19372 C 1845.89 -2.81692 -2.24003 0
M  V30 19373 C 1845.5 -4.18518 -1.59834 0
M  V30 19374 C 1847.24 -3.00643 -2.9969 0
M  V30 19375 C 1845.15 -5.31799 -2.58735 0
M  V30 19376 H 1844.08 -0.594352 -0.463963 0
M  V30 19377 H 1846.73 -1.76414 -0.505016 0
M  V30 19378 H 1845.11 -2.58422 -3.00057 0
M  V30 19379 H 1846.29 -4.51994 -0.896542 0
M  V30 19380 H 1844.6 -4.0507 -0.964743 0
M  V30 19381 H 1847.2 -3.82445 -3.73684 0
M  V30 19382 H 1847.54 -2.11883 -3.58345 0
M  V30 19383 H 1848.08 -3.24035 -2.30751 0
M  V30 19384 H 1844.82 -6.22674 -2.04836 0
M  V30 19385 H 1844.34 -5.02756 -3.27103 0
M  V30 19386 H 1846.01 -5.61861 -3.20814 0
M  V30 19387 N 1846.15 0.735796 -1.39369 0
M  V30 19388 C 1847.09 1.87116 -1.38168 0
M  V30 19389 C 1848.09 1.67315 -0.264936 0
M  V30 19390 O 1849.29 1.74666 -0.434928 0
M  V30 19391 H 1845.67 0.615926 -0.431438 0
M  V30 19392 H 1847.64 1.85245 -2.33938 0
M  V30 19393 C 1846.39 3.2479 -1.24125 0
M  V30 19394 H 1845.71 3.40621 -2.09325 0
M  V30 19395 H 1847.15 4.04426 -1.27341 0
M  V30 19396 C 1845.61 3.36862 0.050393 0
M  V30 19397 O 1846.14 3.88511 1.02088 0
M  V30 19398 N 1844.35 2.90379 0.113184 0
M  V30 19399 H 1843.89 2.48537 -0.677267 0
M  V30 19400 H 1843.85 2.98837 0.976928 0
M  V30 19401 N 1847.63 1.24532 0.965897 0
M  V30 19402 C 1848.87 1.08609 1.7091 0
M  V30 19403 C 1849.2 -0.374781 1.90855 0
M  V30 19404 O 1848.46 -1.29321 1.46883 0
M  V30 19405 C 1848.75 1.77305 3.10319 0
M  V30 19406 C 1848.42 3.27233 3.10209 0
M  V30 19407 C 1847.08 3.68136 3.09887 0
M  V30 19408 C 1849.43 4.23071 3.04402 0
M  V30 19409 C 1846.76 5.03309 3.01492 0
M  V30 19410 C 1849.11 5.58254 2.9755 0
M  V30 19411 C 1847.78 5.985 2.95557 0
M  V30 19412 H 1847.05 0.39743 0.625404 0
M  V30 19413 H 1849.7 1.54658 1.12929 0
M  V30 19414 H 1848 1.23655 3.71775 0
M  V30 19415 H 1849.7 1.62449 3.66622 0
M  V30 19416 H 1846.29 2.9468 3.11226 0
M  V30 19417 H 1850.47 3.92469 3.03779 0
M  V30 19418 H 1845.73 5.33686 2.98311 0
M  V30 19419 H 1849.9 6.32218 2.92016 0
M  V30 19420 H 1847.53 7.03203 2.88807 0
M  V30 19421 N 1849.1 -1.16685 1.05936 0
M  V30 19422 C 1850.03 -2.23129 0.688153 0
M  V30 19423 C 1851.01 -1.67108 -0.31765 0
M  V30 19424 O 1852.2 -1.93233 -0.193578 0
M  V30 19425 C 1849.33 -3.47229 0.069991 0
M  V30 19426 C 1848.28 -4.16121 1.00137 0
M  V30 19427 C 1847.61 -5.34131 0.246699 0
M  V30 19428 C 1848.91 -4.67508 2.32882 0
M  V30 19429 H 1850.6 -2.54436 1.57806 0
M  V30 19430 H 1848.15 -1.22298 0.76021 0
M  V30 19431 H 1850.1 -4.20918 -0.201545 0
M  V30 19432 H 1848.83 -3.15212 -0.854909 0
M  V30 19433 H 1847.49 -3.44355 1.25759 0
M  V30 19434 H 1847.13 -4.98366 -0.681204 0
M  V30 19435 H 1846.83 -5.81163 0.867373 0
M  V30 19436 H 1848.36 -6.10598 -0.0173762 0
M  V30 19437 H 1849.77 -5.32795 2.11666 0
M  V30 19438 H 1848.17 -5.25147 2.90414 0
M  V30 19439 H 1849.24 -3.83912 2.96209 0
M  V30 19440 N 1850.58 -0.841432 -1.33258 0
M  V30 19441 C 1851.83 -0.434677 -1.96961 0
M  V30 19442 C 1852.14 1.012 -1.67386 0
M  V30 19443 O 1853.35 1.52356 -2.24722 0
M  V30 19444 C 1851.81 -0.726332 -3.52495 0
M  V30 19445 C 1851.41 -2.18786 -3.90943 0
M  V30 19446 C 1853.16 -0.386652 -4.22735 0
M  V30 19447 C 1851.06 -2.42343 -5.39466 0
M  V30 19448 H 1849.99 -0.158809 -0.737086 0
M  V30 19449 H 1852.65 -1.03037 -1.51841 0
M  V30 19450 H 1851.03 -0.0602315 -3.95954 0
M  V30 19451 H 1852.2 -2.89465 -3.58534 0
M  V30 19452 H 1850.52 -2.49076 -3.33691 0
M  V30 19453 H 1853.11 -0.540249 -5.31964 0
M  V30 19454 H 1853.46 0.670595 -4.10863 0
M  V30 19455 H 1853.99 -1.00809 -3.84815 0
M  V30 19456 H 1850.73 -3.46642 -5.56345 0
M  V30 19457 H 1850.25 -1.76227 -5.73327 0
M  V30 19458 H 1851.93 -2.25625 -6.06385 0
M  V30 19459 N 1852.06 1.4581 -0.598108 0
M  V30 19460 C 1853.28 2.07188 -0.0938515 0
M  V30 19461 C 1853.71 1.44141 1.20851 0
M  V30 19462 O 1853.07 0.530689 1.73359 0
M  V30 19463 C 1853.12 3.60575 0.0423086 0
M  V30 19464 O 1852.22 3.97598 1.09496 0
M  V30 19465 H 1851.56 0.660324 -0.0697682 0
M  V30 19466 H 1854.09 1.87211 -0.825426 0
M  V30 19467 H 1854.1 4.07272 0.243566 0
M  V30 19468 H 1852.78 4.05852 -0.9087 0
M  V30 19469 H 1851.35 3.62587 0.87093 0
M  V30 19470 N 1853.54 0.336733 1.53961 0
M  V30 19471 C 1854.79 -0.261343 2.00403 0
M  V30 19472 C 1855.11 -1.51612 1.22633 0
M  V30 19473 O 1854.38 -1.93072 0.331659 0
M  V30 19474 H 1852.96 -0.0995594 0.740336 0
M  V30 19475 H 1855.62 0.456319 1.89483 0
M  V30 19476 H 1854.71 -0.508557 3.07929 0
M  V30 19477 N 1855.02 -1.57465 0.0651956 0
M  V30 19478 C 1856.26 -1.92856 -0.604233 0
M  V30 19479 C 1856.58 -0.945431 -1.70548 0
M  V30 19480 O 1855.85 0.00749144 -1.95899 0
M  V30 19481 H 1854.43 -0.711933 -0.226185 0
M  V30 19482 H 1857.1 -1.94521 0.121499 0
M  V30 19483 H 1856.19 -2.94481 -1.03381 0
M  V30 19484 N 1856.49 0.20831 -1.56217 0
M  V30 19485 C 1857.91 0.55859 -1.49506 0
M  V30 19486 C 1858.11 1.86504 -0.762784 0
M  V30 19487 O 1857.17 2.50616 -0.307868 0
M  V30 19488 C 1858.48 0.625557 -2.94121 0
M  V30 19489 C 1860.03 0.715289 -3.04717 0
M  V30 19490 C 1860.5 0.813485 -4.50718 0
M  V30 19491 N 1861.99 0.87736 -4.54815 0
M  V30 19492 C 1862.73 0.973279 -5.65079 0
M  V30 19493 N 1862.22 1.03232 -6.85066 0
M  V30 19494 N 1864.02 1.00944 -5.52962 0
M  V30 19495 H 1856.17 -0.648826 -2.02247 0
M  V30 19496 H 1858.43 -0.229425 -0.91982 0
M  V30 19497 H 1858.14 -0.265056 -3.507 0
M  V30 19498 H 1858.01 1.48473 -3.4675 0
M  V30 19499 H 1860.4 1.59634 -2.48196 0
M  V30 19500 H 1860.48 -0.169818 -2.55236 0
M  V30 19501 H 1860.12 -0.0631602 -5.07861 0
M  V30 19502 H 1860.05 1.7142 -4.97918 0
M  V30 19503 H 1862.54 0.841513 -3.68411 0
M  V30 19504 H 1862.86 1.10566 -7.6485 0
M  V30 19505 H 1861.2 1.00122 -6.8775 0
M  V30 19506 H 1864.39 0.960065 -4.58149 0
M  V30 19507 H 1864.57 1.08074 -6.38924 0
M  V30 19508 N 1857.97 1.50255 0.475528 0
M  V30 19509 C 1859.25 1.51537 1.23676 0
M  V30 19510 C 1859.63 0.257508 2.09524 0
M  V30 19511 O 1858.98 -0.759242 2.15517 0
M  V30 19512 C 1859.19 2.80865 2.07162 0
M  V30 19513 C 1860.53 3.31353 2.655 0
M  V30 19514 O 1861.56 2.82156 2.17408 0
M  V30 19515 O 1860.42 4.17102 3.53112 0
M  V30 19516 H 1857.51 0.607633 0.560991 0
M  V30 19517 H 1860.06 1.62541 0.487712 0
M  V30 19518 H 1858.83 3.63891 1.43871 0
M  V30 19519 H 1858.45 2.72844 2.89209 0
M  V30 19520 N 1859.45 -0.728395 1.39758 0
M  V30 19521 C 1860.7 -1.48357 1.3665 0
M  V30 19522 C 1861.01 -1.95573 -0.0325759 0
M  V30 19523 O 1862.22 -2.7086 -0.186252 0
M  V30 19524 C 1860.67 -2.68105 2.40099 0
M  V30 19525 C 1860.28 -2.27812 3.85754 0
M  V30 19526 C 1862.03 -3.45899 2.46077 0
M  V30 19527 C 1859.93 -3.44322 4.80828 0
M  V30 19528 H 1858.86 -0.557138 0.508048 0
M  V30 19529 H 1861.51 -0.793948 1.65435 0
M  V30 19530 H 1859.9 -3.39174 2.04394 0
M  V30 19531 H 1861.07 -1.64246 4.30534 0
M  V30 19532 H 1859.38 -1.63094 3.83131 0
M  V30 19533 H 1861.98 -4.32573 3.143 0
M  V30 19534 H 1862.32 -3.88824 1.48732 0
M  V30 19535 H 1862.86 -2.81864 2.80709 0
M  V30 19536 H 1859.6 -3.06441 5.7946 0
M  V30 19537 H 1859.12 -4.06847 4.40722 0
M  V30 19538 H 1860.8 -4.10567 5.00044 0
M  V30 19539 N 1860.93 -1.25042 -0.959279 0
M  V30 19540 C 1862.2 -1.00297 -1.67928 0
M  V30 19541 C 1862.58 0.47221 -2.05751 0
M  V30 19542 O 1861.93 1.44849 -1.76723 0
M  V30 19543 C 1862.14 -1.93416 -2.90502 0
M  V30 19544 C 1863.49 -2.20992 -3.62557 0
M  V30 19545 O 1864.51 -1.91136 -3.00575 0
M  V30 19546 O 1863.37 -2.71735 -4.74154 0
M  V30 19547 H 1860.47 -0.379984 -0.734535 0
M  V30 19548 H 1863.01 -1.36177 -1.01262 0
M  V30 19549 H 1861.79 -2.93045 -2.59308 0
M  V30 19550 H 1861.41 -1.57904 -3.649 0
M  V30 19551 N 1862.41 1.16121 -1.06553 0
M  V30 19552 C 1863.82 1.38705 -0.789497 0
M  V30 19553 C 1864.02 1.92046 0.609975 0
M  V30 19554 O 1863.08 2.12096 1.37009 0
M  V30 19555 C 1864.39 2.36541 -1.85658 0
M  V30 19556 C 1865.94 2.5022 -1.88039 0
M  V30 19557 C 1866.41 3.51341 -2.93809 0
M  V30 19558 N 1867.91 3.5887 -2.92859 0
M  V30 19559 C 1868.64 4.3691 -3.71346 0
M  V30 19560 N 1868.14 5.1835 -4.59657 0
M  V30 19561 N 1869.93 4.31918 -3.59726 0
M  V30 19562 H 1862.08 0.798355 -1.96825 0
M  V30 19563 H 1864.34 0.41349 -0.853071 0
M  V30 19564 H 1864.05 2.04447 -2.86172 0
M  V30 19565 H 1863.92 3.36221 -1.70983 0
M  V30 19566 H 1866.31 2.81617 -0.881822 0
M  V30 19567 H 1866.39 1.50567 -2.06793 0
M  V30 19568 H 1866.04 3.20681 -3.93861 0
M  V30 19569 H 1865.97 4.50731 -2.72304 0
M  V30 19570 H 1868.46 3.00735 -2.28838 0
M  V30 19571 H 1868.77 5.75119 -5.16196 0
M  V30 19572 H 1867.11 5.17684 -4.63711 0
M  V30 19573 H 1870.31 3.67355 -2.90117 0
M  V30 19574 H 1870.48 4.92491 -4.21137 0
M  V30 19575 N 1863.88 0.848487 1.3281 0
M  V30 19576 C 1864.81 0.303885 2.31514 0
M  V30 19577 C 1865.8 -0.593621 1.59406 0
M  V30 19578 O 1866.98 -0.515158 1.87243 0
M  V30 19579 C 1864.11 -0.5138 3.43478 0
M  V30 19580 C 1863.06 0.28874 4.27025 0
M  V30 19581 C 1862.39 -0.653297 5.30694 0
M  V30 19582 C 1863.69 1.51111 4.99963 0
M  V30 19583 H 1865.38 1.12862 2.77313 0
M  V30 19584 H 1862.93 0.544158 1.33323 0
M  V30 19585 H 1864.88 -0.905164 4.11564 0
M  V30 19586 H 1863.61 -1.37184 2.96392 0
M  V30 19587 H 1862.27 0.661782 3.60577 0
M  V30 19588 H 1861.91 -1.50801 4.79863 0
M  V30 19589 H 1861.61 -0.120368 5.87477 0
M  V30 19590 H 1863.14 -1.04197 6.01644 0
M  V30 19591 H 1864.55 1.19237 5.60763 0
M  V30 19592 H 1862.95 1.98152 5.66441 0
M  V30 19593 H 1864.02 2.2757 4.28182 0
M  V30 19594 N 1865.36 -1.4549 0.605832 0
M  V30 19595 C 1866.59 -2.06325 0.106497 0
M  V30 19596 C 1867 -1.45142 -1.21369 0
M  V30 19597 O 1866.34 -0.559284 -1.74979 0
M  V30 19598 C 1866.41 -3.59334 -0.109378 0
M  V30 19599 C 1866.07 -4.42842 1.12873 0
M  V30 19600 C 1867.07 -4.77929 2.04645 0
M  V30 19601 C 1864.75 -4.83621 1.35707 0
M  V30 19602 C 1866.75 -5.5265 3.1758 0
M  V30 19603 C 1864.43 -5.58096 2.48943 0
M  V30 19604 C 1865.43 -5.92527 3.39707 0
M  V30 19605 O 1865.12 -6.65492 4.50973 0
M  V30 19606 H 1864.85 -0.67285 0.06518 0
M  V30 19607 H 1867.4 -1.87751 0.83298 0
M  V30 19608 H 1865.63 -3.76301 -0.890735 0
M  V30 19609 H 1867.32 -4.02017 -0.560094 0
M  V30 19610 H 1868.09 -4.46984 1.88229 0
M  V30 19611 H 1863.97 -4.56257 0.659587 0
M  V30 19612 H 1867.51 -5.79443 3.88448 0
M  V30 19613 H 1863.41 -5.88455 2.65312 0
M  V30 19614 H 1864.18 -6.8394 4.49632 0
M  V30 19615 N 1866.84 -0.344893 -1.5378 0
M  V30 19616 C 1868.09 0.25158 -2.01233 0
M  V30 19617 C 1868.42 1.50094 -1.23229 0
M  V30 19618 O 1867.69 1.91845 -0.320282 0
M  V30 19619 C 1867.98 0.564366 -3.5565 0
M  V30 19620 C 1867.83 -0.697186 -4.44364 0
M  V30 19621 C 1869.15 1.37343 -4.18121 0
M  V30 19622 H 1866.27 0.0899643 -0.731488 0
M  V30 19623 H 1868.91 -0.465697 -1.84204 0
M  V30 19624 H 1867.06 1.17543 -3.70292 0
M  V30 19625 H 1868.73 -1.33512 -4.41557 0
M  V30 19626 H 1866.98 -1.3218 -4.13172 0
M  V30 19627 H 1867.65 -0.433571 -5.50295 0
M  V30 19628 H 1870.12 0.85671 -4.07185 0
M  V30 19629 H 1869 1.56103 -5.26235 0
M  V30 19630 H 1869.26 2.37593 -3.7283 0
M  V30 19631 N 1868.32 1.57428 -0.0735454 0
M  V30 19632 C 1869.28 2.11699 0.878419 0
M  V30 19633 C 1870.28 1.0414 1.22521 0
M  V30 19634 O 1871.47 1.30121 1.1582 0
M  V30 19635 C 1868.6 2.61979 2.18129 0
M  V30 19636 H 1869.8 2.97118 0.40755 0
M  V30 19637 H 1867.35 1.55315 0.175183 0
M  V30 19638 H 1868.08 1.80018 2.69748 0
M  V30 19639 H 1867.87 3.40599 1.94254 0
M  V30 19640 H 1869.36 3.04035 2.86273 0
M  V30 19641 N 1869.8 -0.200022 1.56326 0
M  V30 19642 C 1870.73 -1.25071 1.97179 0
M  V30 19643 C 1871.71 -1.4774 0.84303 0
M  V30 19644 O 1872.89 -1.5956 1.10699 0
M  V30 19645 C 1870.02 -2.596 2.30706 0
M  V30 19646 C 1868.98 -2.51552 3.46274 0
M  V30 19647 C 1868.3 -3.90309 3.65463 0
M  V30 19648 C 1869.6 -2.0448 4.80609 0
M  V30 19649 H 1871.3 -0.911238 2.85196 0
M  V30 19650 H 1868.84 -0.436899 1.37212 0
M  V30 19651 H 1870.8 -3.33281 2.5788 0
M  V30 19652 H 1869.52 -2.95278 1.39565 0
M  V30 19653 H 1868.18 -1.80327 3.19183 0
M  V30 19654 H 1867.83 -4.23331 2.71662 0
M  V30 19655 H 1867.53 -3.858 4.43207 0
M  V30 19656 H 1869.05 -4.65619 3.95008 0
M  V30 19657 H 1870.46 -2.67917 5.06847 0
M  V30 19658 H 1868.86 -2.10985 5.61788 0
M  V30 19659 H 1869.93 -0.997828 4.74522 0
M  V30 19660 N 1871.27 -1.50505 -0.467553 0
M  V30 19661 C 1872.52 -1.6191 -1.22118 0
M  V30 19662 C 1872.85 -0.320112 -1.91544 0
M  V30 19663 O 1872.13 0.678631 -1.82277 0
M  V30 19664 C 1872.41 -2.80184 -2.26206 0
M  V30 19665 C 1872.26 -4.19975 -1.61062 0
M  V30 19666 C 1873.58 -2.94011 -3.27484 0
M  V30 19667 H 1870.7 -0.589289 -0.442615 0
M  V30 19668 H 1873.34 -1.82902 -0.514484 0
M  V30 19669 H 1871.49 -2.62417 -2.86478 0
M  V30 19670 H 1873.17 -4.4934 -1.04359 0
M  V30 19671 H 1871.41 -4.24069 -0.91365 0
M  V30 19672 H 1872.08 -4.98667 -2.36718 0
M  V30 19673 H 1874.56 -3.10288 -2.77238 0
M  V30 19674 H 1873.43 -3.78384 -3.97639 0
M  V30 19675 H 1873.69 -2.04777 -3.91815 0
M  V30 19676 N 1872.75 0.720973 -1.40142 0
M  V30 19677 C 1874.17 1.02835 -1.22054 0
M  V30 19678 C 1874.37 2.0129 -0.091949 0
M  V30 19679 O 1873.42 2.46395 0.551897 0
M  V30 19680 C 1874.74 1.57722 -2.56016 0
M  V30 19681 C 1876.29 1.69734 -2.62982 0
M  V30 19682 C 1876.76 2.28027 -3.972 0
M  V30 19683 N 1878.25 2.3542 -3.98913 0
M  V30 19684 C 1878.99 2.81495 -4.99548 0
M  V30 19685 N 1878.48 3.27362 -6.10578 0
M  V30 19686 N 1880.28 2.80831 -4.86919 0
M  V30 19687 H 1872.43 0.068271 -2.1229 0
M  V30 19688 H 1874.69 0.0928952 -0.943438 0
M  V30 19689 H 1874.4 0.928424 -3.39224 0
M  V30 19690 H 1874.27 2.56326 -2.76725 0
M  V30 19691 H 1876.66 2.33732 -1.80148 0
M  V30 19692 H 1876.74 0.697443 -2.46108 0
M  V30 19693 H 1876.38 1.64653 -4.80471 0
M  V30 19694 H 1876.31 3.28721 -4.114 0
M  V30 19695 H 1878.8 2.03019 -3.18735 0
M  V30 19696 H 1879.12 3.61071 -6.83263 0
M  V30 19697 H 1877.46 3.25335 -6.14152 0
M  V30 19698 H 1880.65 2.4433 -3.99275 0
M  V30 19699 H 1880.82 3.16423 -5.65492 0
M  V30 19700 N 1874.23 1.25549 0.952634 0
M  V30 19701 C 1875.19 1.06186 2.03119 0
M  V30 19702 C 1876.19 0.0139966 1.60794 0
M  V30 19703 O 1877.38 0.256367 1.72303 0
M  V30 19704 C 1874.52 0.612674 3.35349 0
M  V30 19705 H 1875.71 2.01932 2.21729 0
M  V30 19706 H 1873.26 1.07984 1.13 0
M  V30 19707 H 1874 -0.347292 3.22435 0
M  V30 19708 H 1873.78 1.36917 3.67418 0
M  V30 19709 H 1875.27 0.498693 4.14612 0
M  V30 19710 N 1875.71 -1.15554 1.07168 0
M  V30 19711 C 1876.93 -1.90723 0.814832 0
M  V30 19712 C 1877.36 -1.7738 -0.62594 0
M  V30 19713 O 1876.72 -1.10521 -1.43718 0
M  V30 19714 C 1876.76 -3.39137 1.22551 0
M  V30 19715 O 1875.87 -4.1074 0.369677 0
M  V30 19716 H 1875.21 -0.593866 0.297017 0
M  V30 19717 H 1877.74 -1.46348 1.42981 0
M  V30 19718 H 1877.75 -3.89926 1.20089 0
M  V30 19719 H 1876.42 -3.48167 2.27492 0
M  V30 19720 H 1875 -3.70094 0.456626 0
M  V30 19721 N 1877.19 -0.855519 -1.32358 0
M  V30 19722 C 1878.46 -0.380575 -1.91862 0
M  V30 19723 C 1878.84 1.13593 -1.77932 0
M  V30 19724 O 1878.19 1.95797 -1.17796 0
M  V30 19725 C 1878.4 -0.845902 -3.38593 0
M  V30 19726 C 1879.75 -0.863586 -4.15725 0
M  V30 19727 O 1880.77 -0.790597 -3.47315 0
M  V30 19728 O 1879.63 -0.966658 -5.37883 0
M  V30 19729 H 1876.73 -0.111156 -0.819496 0
M  V30 19730 H 1879.27 -0.942476 -1.41122 0
M  V30 19731 H 1878.05 -1.88909 -3.42679 0
M  V30 19732 H 1877.67 -0.2615 -3.96739 0
M  V30 19733 N 1878.67 1.45167 -0.61354 0
M  V30 19734 C 1879.94 1.95553 -0.042781 0
M  V30 19735 C 1880.32 1.55588 1.42673 0
M  V30 19736 O 1879.67 0.821325 2.13229 0
M  V30 19737 C 1879.88 3.48124 -0.247141 0
M  V30 19738 C 1881.23 4.24398 -0.131068 0
M  V30 19739 O 1882.25 3.55757 -0.177576 0
M  V30 19740 O 1881.11 5.46496 -0.0211683 0
M  V30 19741 H 1878.21 0.826367 0.0323494 0
M  V30 19742 H 1880.75 1.55304 -0.684017 0
M  V30 19743 H 1879.52 3.70202 -1.26751 0
M  V30 19744 H 1879.15 3.95278 0.429074 0
M  V30 19745 N 1880.14 0.353044 1.53595 0
M  V30 19746 C 1881.09 -0.499326 2.25334 0
M  V30 19747 C 1882.06 -1.08781 1.25522 0
M  V30 19748 O 1883.25 -1.12265 1.54276 0
M  V30 19749 C 1880.39 -1.63955 3.03666 0
M  V30 19750 C 1879.5 -1.07745 4.18348 0
M  V30 19751 C 1878.63 -2.18575 4.84147 0
M  V30 19752 C 1877.67 -1.59765 5.90882 0
M  V30 19753 N 1876.81 -2.64376 6.50423 0
M  V30 19754 H 1881.65 0.118959 2.97762 0
M  V30 19755 H 1879.19 0.0704777 1.46931 0
M  V30 19756 H 1881.14 -2.31097 3.47347 0
M  V30 19757 H 1879.77 -2.22868 2.33516 0
M  V30 19758 H 1878.83 -0.296678 3.79241 0
M  V30 19759 H 1880.14 -0.607375 4.95088 0
M  V30 19760 H 1879.29 -2.93563 5.30948 0
M  V30 19761 H 1878.03 -2.68929 4.06852 0
M  V30 19762 H 1877.04 -0.832863 5.43455 0
M  V30 19763 H 1878.26 -1.10251 6.70091 0
M  V30 19764 H 1876.21 -3.13968 5.75986 0
M  V30 19765 H 1876.12 -2.22019 7.22664 0
M  V30 19766 H 1877.39 -3.39105 7.01875 0
M  V30 19767 N 1881.62 -1.57387 0.0818932 0
M  V30 19768 C 1882.53 -2.16804 -0.89629 0
M  V30 19769 C 1883.55 -1.1339 -1.3198 0
M  V30 19770 O 1884.72 -1.45702 -1.39042 0
M  V30 19771 C 1881.79 -2.72607 -2.14211 0
M  V30 19772 C 1880.85 -3.90929 -1.77406 0
M  V30 19773 C 1880.08 -4.44062 -2.96049 0
M  V30 19774 O 1880.31 -3.96166 -4.10376 0
M  V30 19775 O 1879.24 -5.35261 -2.75279 0
M  V30 19776 H 1883.07 -3.0077 -0.420827 0
M  V30 19777 H 1880.65 -1.48726 -0.141737 0
M  V30 19778 H 1882.53 -3.0833 -2.87247 0
M  V30 19779 H 1881.21 -1.91694 -2.60835 0
M  V30 19780 H 1880.11 -3.60042 -1.01591 0
M  V30 19781 H 1881.45 -4.73165 -1.35556 0
M  V30 19782 N 1883.1 0.191729 -1.56429 0
M  V30 19783 C 1884.03 1.24024 -1.97839 0
M  V30 19784 C 1885.01 1.47291 -0.850853 0
M  V30 19785 O 1886.2 1.58971 -1.11543 0
M  V30 19786 C 1883.33 2.58373 -2.32079 0
M  V30 19787 C 1882.28 2.49712 -3.47603 0
M  V30 19788 C 1881.61 3.88365 -3.67528 0
M  V30 19789 C 1882.91 2.01929 -4.81687 0
M  V30 19790 H 1884.6 0.8961 -2.85675 0
M  V30 19791 H 1882.15 0.429616 -1.37442 0
M  V30 19792 H 1884.1 3.31908 -2.59643 0
M  V30 19793 H 1882.82 2.94534 -1.41129 0
M  V30 19794 H 1881.48 1.78632 -3.20135 0
M  V30 19795 H 1881.13 4.21884 -2.73903 0
M  V30 19796 H 1880.83 3.83444 -4.45246 0
M  V30 19797 H 1882.35 4.63518 -3.97472 0
M  V30 19798 H 1883.77 2.65225 -5.0826 0
M  V30 19799 H 1882.16 2.08002 -5.62899 0
M  V30 19800 H 1883.23 0.972649 -4.75045 0
M  V30 19801 N 1884.58 1.50751 0.459565 0
M  V30 19802 C 1885.82 1.62315 1.21078 0
M  V30 19803 C 1886.15 0.328859 1.917 0
M  V30 19804 O 1885.41 -0.685929 1.83285 0
M  V30 19805 C 1885.71 2.7612 2.26919 0
M  V30 19806 C 1885.37 4.16196 1.73469 0
M  V30 19807 C 1884.03 4.54307 1.58613 0
M  V30 19808 C 1886.39 5.03696 1.33941 0
M  V30 19809 C 1883.71 5.77647 1.0267 0
M  V30 19810 C 1886.07 6.27593 0.794349 0
M  V30 19811 C 1884.73 6.64496 0.632515 0
M  V30 19812 H 1884 0.593954 0.443057 0
M  V30 19813 H 1886.65 1.8472 0.505069 0
M  V30 19814 H 1884.95 2.47849 3.03443 0
M  V30 19815 H 1886.65 2.8227 2.84824 0
M  V30 19816 H 1883.24 3.86136 1.86002 0
M  V30 19817 H 1887.42 4.74875 1.44247 0
M  V30 19818 H 1882.68 6.04904 0.888879 0
M  V30 19819 H 1886.85 6.94748 0.479449 0
M  V30 19820 H 1884.48 7.59945 0.196879 0
M  V30 19821 N 1886.06 -0.713531 1.40522 0
M  V30 19822 C 1887 -1.82761 1.40951 0
M  V30 19823 C 1887.97 -1.63953 0.266188 0
M  V30 19824 O 1889.16 -1.85058 0.464558 0
M  V30 19825 C 1886.3 -3.20488 1.27989 0
M  V30 19826 C 1885.41 -3.50853 2.52044 0
M  V30 19827 C 1884.55 -4.78097 2.31509 0
M  V30 19828 C 1883.58 -5.01373 3.51129 0
M  V30 19829 N 1882.72 -6.19832 3.29777 0
M  V30 19830 H 1887.56 -1.81729 2.36175 0
M  V30 19831 H 1885.1 -0.887703 1.17296 0
M  V30 19832 H 1887.06 -4.00023 1.1848 0
M  V30 19833 H 1885.69 -3.20743 0.363832 0
M  V30 19834 H 1884.74 -2.65858 2.72073 0
M  V30 19835 H 1886.05 -3.63961 3.41077 0
M  V30 19836 H 1885.2 -5.65654 2.19365 0
M  V30 19837 H 1883.94 -4.67203 1.39903 0
M  V30 19838 H 1882.95 -4.12271 3.63748 0
M  V30 19839 H 1884.17 -5.14139 4.43664 0
M  V30 19840 H 1882.12 -6.10184 2.40855 0
M  V30 19841 H 1882.04 -6.33626 4.12376 0
M  V30 19842 H 1883.3 -7.1017 3.2137 0
M  V30 19843 N 1887.53 -1.26053 -0.945962 0
M  V30 19844 C 1888.44 -1.08959 -2.07762 0
M  V30 19845 C 1889.46 -0.0243726 -1.73983 0
M  V30 19846 O 1890.64 -0.227113 -2.00115 0
M  V30 19847 C 1887.7 -0.719365 -3.39155 0
M  V30 19848 C 1886.76 -1.86347 -3.86747 0
M  V30 19849 C 1885.99 -1.51082 -5.11869 0
M  V30 19850 O 1886.22 -0.410377 -5.68922 0
M  V30 19851 O 1885.15 -2.34395 -5.54385 0
M  V30 19852 H 1888.98 -2.03884 -2.25089 0
M  V30 19853 H 1886.56 -1.05071 -1.0621 0
M  V30 19854 H 1888.44 -0.525412 -4.18112 0
M  V30 19855 H 1887.12 0.20054 -3.23078 0
M  V30 19856 H 1886.03 -2.11235 -3.08756 0
M  V30 19857 H 1887.36 -2.76293 -4.07336 0
M  V30 19858 N 1889.01 1.14984 -1.07779 0
M  V30 19859 C 1890.24 1.89747 -0.824844 0
M  V30 19860 C 1890.65 1.78246 0.622385 0
M  V30 19861 O 1890.01 1.13739 1.42723 0
M  V30 19862 C 1890.06 3.39946 -1.2296 0
M  V30 19863 O 1889.78 3.5112 -2.62005 0
M  V30 19864 C 1891.28 4.31721 -1.00658 0
M  V30 19865 H 1888.5 0.601232 -0.297928 0
M  V30 19866 H 1891.05 1.4566 -1.43539 0
M  V30 19867 H 1889.2 3.81679 -0.663292 0
M  V30 19868 H 1889.62 4.44367 -2.78636 0
M  V30 19869 H 1891.09 5.35507 -1.33925 0
M  V30 19870 H 1891.57 4.39163 0.0568131 0
M  V30 19871 H 1892.17 3.95735 -1.55801 0
M  V30 19872 N 1890.49 0.862526 1.31902 0
M  V30 19873 C 1891.45 0.317836 2.26986 0
M  V30 19874 C 1892.45 -0.526959 1.5192 0
M  V30 19875 O 1893.64 -0.337336 1.70903 0
M  V30 19876 C 1890.77 -0.549441 3.36443 0
M  V30 19877 H 1891.97 1.15714 2.76677 0
M  V30 19878 H 1889.52 0.637501 1.42708 0
M  V30 19879 H 1890.26 -1.41024 2.92032 0
M  V30 19880 H 1890.04 0.0553642 3.92061 0
M  V30 19881 H 1891.53 -0.923059 4.07271 0
M  V30 19882 N 1891.97 -1.4484 0.62123 0
M  V30 19883 C 1893.2 -2.065 0.128561 0
M  V30 19884 C 1893.61 -1.46351 -1.19277 0
M  V30 19885 O 1892.97 -0.582692 -1.72948 0
M  V30 19886 C 1893.02 -3.615 -0.00297622 0
M  V30 19887 O 1892.74 -4.19407 1.26609 0
M  V30 19888 C 1894.24 -4.40174 -0.525505 0
M  V30 19889 H 1891.46 -0.666783 0.0751128 0
M  V30 19890 H 1894.01 -1.85868 0.852829 0
M  V30 19891 H 1892.16 -3.81427 -0.677635 0
M  V30 19892 H 1892.57 -5.12738 1.10454 0
M  V30 19893 H 1894.05 -5.49085 -0.566585 0
M  V30 19894 H 1894.53 -4.10918 -1.55057 0
M  V30 19895 H 1895.13 -4.25143 0.115568 0
M  V30 19896 N 1893.45 -0.361184 -1.53405 0
M  V30 19897 C 1894.39 0.502532 -2.27107 0
M  V30 19898 C 1895.39 1.08711 -1.29916 0
M  V30 19899 O 1896.59 1.03082 -1.47561 0
M  V30 19900 H 1892.97 0.180773 -0.729949 0
M  V30 19901 H 1894.94 -0.140891 -2.98067 0
M  V30 19902 C 1893.69 1.63258 -3.06989 0
M  V30 19903 H 1893.01 1.19205 -3.81615 0
M  V30 19904 H 1894.45 2.21174 -3.61743 0
M  V30 19905 C 1892.91 2.57234 -2.17559 0
M  V30 19906 O 1893.44 3.59939 -1.78345 0
M  V30 19907 N 1891.65 2.26322 -1.82282 0
M  V30 19908 H 1891.19 1.4284 -2.1437 0
M  V30 19909 H 1891.15 2.89455 -1.22731 0
M  V30 19910 N 1894.92 1.57341 -0.0902386 0
M  V30 19911 C 1896.15 1.98225 0.58228 0
M  V30 19912 C 1896.56 0.968012 1.62561 0
M  V30 19913 O 1895.91 -0.0512719 1.83628 0
M  V30 19914 C 1895.97 3.35468 1.29233 0
M  V30 19915 C 1895.63 4.55243 0.400324 0
M  V30 19916 C 1896.63 5.18723 -0.349573 0
M  V30 19917 C 1894.31 5.01281 0.319802 0
M  V30 19918 C 1896.31 6.26607 -1.16802 0
M  V30 19919 C 1893.99 6.09032 -0.502303 0
M  V30 19920 C 1894.99 6.71559 -1.24487 0
M  V30 19921 O 1894.68 7.77233 -2.05338 0
M  V30 19922 H 1894.41 0.65651 0.161154 0
M  V30 19923 H 1896.97 2.04738 -0.164737 0
M  V30 19924 H 1895.2 3.25623 2.08582 0
M  V30 19925 H 1896.89 3.60832 1.8589 0
M  V30 19926 H 1897.65 4.84089 -0.297067 0
M  V30 19927 H 1893.53 4.52378 0.887432 0
M  V30 19928 H 1897.07 6.75342 -1.74811 0
M  V30 19929 H 1892.97 6.43098 -0.556307 0
M  V30 19930 H 1893.74 7.94198 -1.97968 0
M  V30 19931 N 1896.4 -0.183431 1.56529 0
M  V30 19932 C 1897.31 -1.24746 1.98684 0
M  V30 19933 C 1898.33 -1.49139 0.8963 0
M  V30 19934 O 1899.5 -1.61525 1.20298 0
M  V30 19935 C 1896.57 -2.56927 2.32786 0
M  V30 19936 C 1895.63 -2.40503 3.55607 0
M  V30 19937 C 1894.86 -3.66381 3.88073 0
M  V30 19938 O 1895.09 -4.71048 3.21668 0
M  V30 19939 O 1894.02 -3.61214 4.81465 0
M  V30 19940 H 1897.85 -0.919676 2.8944 0
M  V30 19941 H 1895.43 -0.389352 1.44237 0
M  V30 19942 H 1897.31 -3.34923 2.55744 0
M  V30 19943 H 1895.99 -2.89309 1.45196 0
M  V30 19944 H 1894.9 -1.6058 3.37883 0
M  V30 19945 H 1896.23 -2.1305 4.43701 0
M  V30 19946 N 1897.88 -1.50992 -0.451564 0
M  V30 19947 C 1898.79 -1.74097 -1.5725 0
M  V30 19948 C 1899.81 -0.624663 -1.62401 0
M  V30 19949 O 1900.98 -0.90528 -1.79907 0
M  V30 19950 C 1898.05 -1.84808 -2.93338 0
M  V30 19951 C 1897.11 -3.08618 -2.98418 0
M  V30 19952 C 1896.34 -3.18808 -4.28015 0
M  V30 19953 O 1896.56 -2.35291 -5.1961 0
M  V30 19954 O 1895.5 -4.11685 -4.39089 0
M  V30 19955 H 1899.32 -2.69156 -1.40673 0
M  V30 19956 H 1896.91 -1.35322 -0.633105 0
M  V30 19957 H 1898.79 -1.9392 -3.7413 0
M  V30 19958 H 1897.47 -0.929344 -3.10072 0
M  V30 19959 H 1896.37 -3.04993 -2.16633 0
M  V30 19960 H 1897.71 -4.00133 -2.86625 0
M  V30 19961 N 1899.36 0.706069 -1.40899 0
M  V30 19962 C 1900.59 1.49287 -1.42818 0
M  V30 19963 C 1901 1.89178 -0.0288607 0
M  V30 19964 O 1900.34 1.56633 0.959778 0
M  V30 19965 C 1900.4 2.79254 -2.26402 0
M  V30 19966 C 1900.07 2.61629 -3.74699 0
M  V30 19967 C 1901.06 2.28262 -4.67111 0
M  V30 19968 C 1898.75 2.77597 -4.18623 0
M  V30 19969 C 1900.74 2.11087 -6.01433 0
M  V30 19970 C 1898.43 2.60038 -5.53013 0
M  V30 19971 C 1899.43 2.26832 -6.44233 0
M  V30 19972 O 1899.11 2.09417 -7.76144 0
M  V30 19973 H 1898.85 0.466955 -0.488804 0
M  V30 19974 H 1901.4 0.877744 -1.85701 0
M  V30 19975 H 1899.63 3.43134 -1.78314 0
M  V30 19976 H 1901.32 3.41013 -2.20148 0
M  V30 19977 H 1902.09 2.1555 -4.34469 0
M  V30 19978 H 1897.96 3.02428 -3.47934 0
M  V30 19979 H 1901.51 1.85091 -6.72597 0
M  V30 19980 H 1897.41 2.72337 -5.85237 0
M  V30 19981 H 1898.17 2.24263 -7.87178 0
M  V30 19982 N 1900.84 1.26553 0.939264 0
M  V30 19983 C 1901.77 1.04069 2.04211 0
M  V30 19984 C 1902.78 0.000506291 1.628 0
M  V30 19985 O 1903.97 0.240794 1.76868 0
M  V30 19986 C 1901.07 0.554348 3.34335 0
M  V30 19987 C 1900.24 1.6642 4.04503 0
M  V30 19988 C 1899.3 1.17558 5.129 0
M  V30 19989 O 1898.33 1.87303 5.375 0
M  V30 19990 N 1899.53 0.0250252 5.80495 0
M  V30 19991 H 1902.3 1.99036 2.24065 0
M  V30 19992 H 1899.86 1.17964 1.10888 0
M  V30 19993 H 1901.85 0.211606 4.04146 0
M  V30 19994 H 1900.42 -0.301779 3.1114 0
M  V30 19995 H 1899.64 2.17779 3.28582 0
M  V30 19996 H 1900.93 2.4094 4.48136 0
M  V30 19997 H 1900.32 -0.557378 5.62947 0
M  V30 19998 H 1898.88 -0.258625 6.51287 0
M  V30 19999 N 1902.31 -1.14411 1.08387 0
M  V30 20000 C 1903.73 -1.37432 0.811464 0
M  V30 20001 C 1903.93 -1.92992 -0.579345 0
M  V30 20002 O 1902.99 -2.14249 -1.33618 0
M  V30 20003 C 1904.3 -2.33557 1.89398 0
M  V30 20004 C 1905.85 -2.47197 1.91996 0
M  V30 20005 C 1906.32 -3.46622 2.99361 0
M  V30 20006 N 1907.81 -3.54165 2.98532 0
M  V30 20007 C 1908.55 -4.30946 3.78249 0
M  V30 20008 N 1908.04 -5.10972 4.67846 0
M  V30 20009 N 1909.84 -4.26141 3.66552 0
M  V30 20010 H 1901.99 -0.76694 1.9807 0
M  V30 20011 H 1904.25 -0.399866 0.859541 0
M  V30 20012 H 1903.96 -1.99868 2.89388 0
M  V30 20013 H 1903.83 -3.33459 1.7631 0
M  V30 20014 H 1906.22 -2.80178 0.926513 0
M  V30 20015 H 1906.3 -1.47258 2.09162 0
M  V30 20016 H 1905.94 -3.14374 3.98913 0
M  V30 20017 H 1905.87 -4.46341 2.7944 0
M  V30 20018 H 1908.36 -2.97057 2.33593 0
M  V30 20019 H 1908.68 -5.66834 5.2528 0
M  V30 20020 H 1907.02 -5.10241 4.71889 0
M  V30 20021 H 1910.21 -3.62693 2.95925 0
M  V30 20022 H 1910.39 -4.85729 4.28919 0
M  V30 20023 N 1903.79 -0.869509 -1.31443 0
M  V30 20024 C 1904.74 -0.323034 -2.28528 0
M  V30 20025 C 1905.71 0.578245 -1.5571 0
M  V30 20026 O 1906.89 0.509983 -1.83858 0
M  V30 20027 C 1904.03 0.469861 -3.41886 0
M  V30 20028 C 1903.15 -0.458883 -4.29556 0
M  V30 20029 C 1902.28 0.348092 -5.30058 0
M  V30 20030 C 1901.32 -0.577109 -6.09373 0
M  V30 20031 N 1900.46 0.193589 -7.01833 0
M  V30 20032 H 1905.3 -1.15614 -2.74659 0
M  V30 20033 H 1902.84 -0.581526 -1.35117 0
M  V30 20034 H 1904.79 0.945338 -4.06349 0
M  V30 20035 H 1903.42 1.26767 -2.96867 0
M  V30 20036 H 1902.48 -1.05281 -3.65541 0
M  V30 20037 H 1903.79 -1.16833 -4.84924 0
M  V30 20038 H 1902.94 0.886098 -6.00194 0
M  V30 20039 H 1901.68 1.09083 -4.75344 0
M  V30 20040 H 1900.69 -1.12687 -5.38128 0
M  V30 20041 H 1901.91 -1.31869 -6.66174 0
M  V30 20042 H 1899.86 0.919147 -6.49529 0
M  V30 20043 H 1899.77 -0.456525 -7.5462 0
M  V30 20044 H 1901.04 0.71284 -7.76234 0
M  V30 20045 N 1905.27 1.44508 -0.628902 0
M  V30 20046 C 1906.52 2.01281 -0.129966 0
M  V30 20047 C 1906.83 1.50041 1.25488 0
M  V30 20048 O 1908.04 1.98927 1.84771 0
M  V30 20049 C 1906.49 3.59442 -0.1816 0
M  V30 20050 C 1906.1 4.19678 -1.56762 0
M  V30 20051 C 1907.85 4.23697 0.260988 0
M  V30 20052 C 1905.75 5.70056 -1.57449 0
M  V30 20053 H 1904.68 0.752667 -0.0448215 0
M  V30 20054 H 1907.33 1.65749 -0.787372 0
M  V30 20055 H 1905.72 3.92261 0.542864 0
M  V30 20056 H 1906.89 3.98399 -2.31549 0
M  V30 20057 H 1905.21 3.67701 -1.9541 0
M  V30 20058 H 1907.8 5.33991 0.275356 0
M  V30 20059 H 1908.15 3.95878 1.28787 0
M  V30 20060 H 1908.68 3.95672 -0.410909 0
M  V30 20061 H 1905.42 6.02606 -2.57966 0
M  V30 20062 H 1904.94 5.93464 -0.869514 0
M  V30 20063 H 1906.62 6.33652 -1.30745 0
M  V30 20064 N 1906.75 0.369315 1.53212 0
M  V30 20065 C 1908 -0.212093 2.02291 0
M  V30 20066 C 1908.35 -1.46118 1.25169 0
M  V30 20067 O 1907.64 -1.88595 0.337991 0
M  V30 20068 C 1907.84 -0.553392 3.5309 0
M  V30 20069 C 1907.67 0.661066 4.44815 0
M  V30 20070 C 1906.44 1.17428 4.91466 0
M  V30 20071 C 1908.63 1.52741 4.91095 0
M  V30 20072 N 1906.62 2.34837 5.67208 0
M  V30 20073 C 1907.99 2.54812 5.65218 0
M  V30 20074 C 1910.04 1.54985 4.73164 0
M  V30 20075 C 1908.75 3.58988 6.23314 0
M  V30 20076 C 1910.77 2.58056 5.32129 0
M  V30 20077 C 1910.13 3.58851 6.0614 0
M  V30 20078 H 1906.23 -0.0402269 0.780965 0
M  V30 20079 H 1908.82 0.514701 1.87774 0
M  V30 20080 H 1906.99 -1.24926 3.67761 0
M  V30 20081 H 1908.72 -1.12021 3.88887 0
M  V30 20082 H 1905.47 0.738332 4.67809 0
M  V30 20083 H 1905.9 2.94189 6.09739 0
M  V30 20084 H 1910.54 0.78411 4.15465 0
M  V30 20085 H 1908.26 4.36441 6.80106 0
M  V30 20086 H 1911.84 2.60651 5.20146 0
M  V30 20087 H 1910.72 4.37299 6.50953 0
M  V30 20088 N 1908.23 -1.57291 0.0985816 0
M  V30 20089 C 1909.5 -1.85951 -0.606759 0
M  V30 20090 C 1909.88 -0.996077 -1.86122 0
M  V30 20091 O 1909.23 -0.0694281 -2.28394 0
M  V30 20092 C 1909.44 -3.36688 -0.918803 0
M  V30 20093 C 1910.79 -4.04824 -1.28074 0
M  V30 20094 O 1911.81 -3.41589 -1.00971 0
M  V30 20095 O 1910.67 -5.16406 -1.7885 0
M  V30 20096 H 1907.77 -0.769103 -0.30399 0
M  V30 20097 H 1910.31 -1.69189 0.131543 0
M  V30 20098 H 1909.09 -3.91289 -0.0289848 0
M  V30 20099 H 1908.71 -3.58808 -1.71296 0
M  V30 20100 N 1909.71 0.175127 -1.56624 0
M  V30 20101 C 1910.67 1.20064 -1.95237 0
M  V30 20102 C 1911.67 1.37384 -0.835603 0
M  V30 20103 O 1912.86 1.34855 -1.10272 0
M  V30 20104 C 1909.99 2.5664 -2.24386 0
M  V30 20105 H 1911.18 0.870066 -2.87001 0
M  V30 20106 H 1908.74 0.41743 -1.50623 0
M  V30 20107 H 1909.47 2.94717 -1.35322 0
M  V30 20108 H 1909.26 2.45436 -3.05784 0
M  V30 20109 H 1910.75 3.30554 -2.55194 0
M  V30 20110 N 1911.18 1.5123 0.44355 0
M  V30 20111 C 1912.41 1.67389 1.21609 0
M  V30 20112 C 1912.83 0.368612 1.85167 0
M  V30 20113 O 1912.18 -0.652282 1.70445 0
M  V30 20114 C 1912.23 2.78507 2.30469 0
M  V30 20115 O 1911.96 4.03977 1.69512 0
M  V30 20116 C 1913.46 3.05881 3.20861 0
M  V30 20117 H 1910.68 0.561893 0.366766 0
M  V30 20118 H 1913.22 1.97611 0.526312 0
M  V30 20119 H 1911.38 2.50901 2.95173 0
M  V30 20120 H 1911.79 4.65641 2.41409 0
M  V30 20121 H 1913.26 3.87229 3.93393 0
M  V30 20122 H 1913.74 2.1804 3.81255 0
M  V30 20123 H 1914.35 3.35123 2.61864 0
M  V30 20124 N 1912.66 -0.698586 1.41271 0
M  V30 20125 C 1913.94 -1.45291 1.30957 0
M  V30 20126 C 1914.32 -2.11002 -0.0642533 0
M  V30 20127 O 1913.67 -2.01458 -1.07829 0
M  V30 20128 C 1913.88 -2.4748 2.46078 0
M  V30 20129 C 1915.22 -3.1282 2.87104 0
M  V30 20130 O 1916.25 -2.57804 2.45796 0
M  V30 20131 O 1915.11 -4.12458 3.58525 0
M  V30 20132 H 1912.2 -0.646905 0.515212 0
M  V30 20133 H 1914.75 -0.72932 1.53229 0
M  V30 20134 H 1913.52 -1.97558 3.37767 0
M  V30 20135 H 1913.14 -3.27353 2.25668 0
M  V30 20136 N 1914.14 -1.27049 -0.93254 0
M  V30 20137 C 1915.37 -1.15735 -1.7114 0
M  V30 20138 C 1915.78 0.289069 -1.86979 0
M  V30 20139 O 1915.12 1.20906 -1.38302 0
M  V30 20140 C 1915.18 -1.76319 -3.13292 0
M  V30 20141 C 1914.85 -3.25471 -3.20808 0
M  V30 20142 C 1915.84 -4.22172 -3.03425 0
M  V30 20143 C 1913.53 -3.66092 -3.43921 0
M  V30 20144 C 1915.52 -5.57471 -3.09038 0
M  V30 20145 C 1913.21 -5.01522 -3.49168 0
M  V30 20146 C 1914.21 -5.97022 -3.31744 0
M  V30 20147 O 1913.9 -7.29985 -3.36716 0
M  V30 20148 H 1913.63 -0.403495 -0.542372 0
M  V30 20149 H 1916.18 -1.68334 -1.17698 0
M  V30 20150 H 1914.41 -1.18192 -3.68195 0
M  V30 20151 H 1916.1 -1.59788 -3.73125 0
M  V30 20152 H 1916.87 -3.92127 -2.85415 0
M  V30 20153 H 1912.75 -2.92238 -3.56536 0
M  V30 20154 H 1916.29 -6.3199 -2.95356 0
M  V30 20155 H 1912.19 -5.31225 -3.66702 0
M  V30 20156 H 1912.95 -7.3837 -3.53203 0
M  V30 20157 N 1915.62 1.13835 -1.08993 0
M  V30 20158 C 1916.87 1.84361 -0.818161 0
M  V30 20159 C 1917.18 1.84185 0.658437 0
M  V30 20160 O 1918.39 2.50559 1.04558 0
M  V30 20161 C 1916.84 3.30973 -1.41367 0
M  V30 20162 C 1916.45 3.3955 -2.92249 0
M  V30 20163 C 1918.19 4.06571 -1.22066 0
M  V30 20164 C 1916.1 4.80408 -3.44908 0
M  V30 20165 H 1915.03 0.690704 -0.302397 0
M  V30 20166 H 1917.68 1.28283 -1.31208 0
M  V30 20167 H 1916.06 3.86826 -0.84745 0
M  V30 20168 H 1917.24 2.93716 -3.5506 0
M  V30 20169 H 1915.55 2.77413 -3.10533 0
M  V30 20170 H 1918.15 5.10554 -1.58868 0
M  V30 20171 H 1918.49 4.15989 -0.160946 0
M  V30 20172 H 1919.03 3.57036 -1.75415 0
M  V30 20173 H 1915.76 4.76181 -4.5048 0
M  V30 20174 H 1915.28 5.26756 -2.86859 0
M  V30 20175 H 1916.96 5.49315 -3.4185 0
M  V30 20176 N 1917.1 0.876467 1.3098 0
M  V30 20177 C 1918.34 0.489671 1.96078 0
M  V30 20178 C 1918.66 -0.962603 1.69585 0
M  V30 20179 O 1917.93 -1.67568 1.01478 0
M  V30 20180 H 1916.51 0.178091 0.72546 0
M  V30 20181 H 1919.18 1.11768 1.59668 0
M  V30 20182 H 1918.27 0.652822 3.05196 0
M  V30 20183 N 1918.57 -1.44173 0.636557 0
M  V30 20184 C 1919.48 -2.34507 -0.0661877 0
M  V30 20185 C 1920.5 -1.52931 -0.829947 0
M  V30 20186 O 1921.68 -1.85641 -0.780979 0
M  V30 20187 C 1918.74 -3.30987 -1.03191 0
M  V30 20188 C 1917.8 -4.28469 -0.266924 0
M  V30 20189 C 1917.03 -5.20341 -1.18664 0
M  V30 20190 O 1917.26 -5.1626 -2.42552 0
M  V30 20191 O 1916.19 -5.98181 -0.668035 0
M  V30 20192 H 1920.02 -2.9606 0.676932 0
M  V30 20193 H 1917.6 -1.44036 0.396744 0
M  V30 20194 H 1919.48 -3.9036 -1.58736 0
M  V30 20195 H 1918.16 -2.7196 -1.75555 0
M  V30 20196 H 1917.07 -3.72627 0.331702 0
M  V30 20197 H 1918.4 -4.90432 0.416803 0
M  V30 20198 N 1920.05 -0.377435 -1.53014 0
M  V30 20199 C 1920.96 0.471045 -2.29822 0
M  V30 20200 C 1921.98 1.0821 -1.36259 0
M  V30 20201 O 1923.15 1.09048 -1.69324 0
M  V30 20202 C 1920.22 1.58917 -3.08134 0
M  V30 20203 C 1919.28 1.00444 -4.17384 0
M  V30 20204 C 1918.51 2.06928 -4.91952 0
M  V30 20205 O 1918.74 3.2824 -4.66492 0
M  V30 20206 O 1917.67 1.69321 -5.77593 0
M  V30 20207 H 1921.5 -0.154333 -3.03308 0
M  V30 20208 H 1919.08 -0.141478 -1.48729 0
M  V30 20209 H 1920.96 2.23899 -3.56997 0
M  V30 20210 H 1919.64 2.19973 -2.37473 0
M  V30 20211 H 1918.54 0.3182 -3.72744 0
M  V30 20212 H 1919.88 0.438266 -4.90245 0
M  V30 20213 N 1921.53 1.57237 -0.106922 0
M  V30 20214 C 1922.46 2.1769 0.844599 0
M  V30 20215 C 1923.44 1.11352 1.28587 0
M  V30 20216 O 1924.63 1.39539 1.35065 0
M  V30 20217 C 1921.76 2.76668 2.09933 0
M  V30 20218 C 1920.71 3.88482 1.79627 0
M  V30 20219 C 1920.04 4.34214 3.12029 0
M  V30 20220 C 1921.34 5.11139 1.07399 0
M  V30 20221 H 1923.03 2.97453 0.340887 0
M  V30 20222 H 1920.58 1.4308 0.162523 0
M  V30 20223 H 1922.53 3.17614 2.76946 0
M  V30 20224 H 1921.25 1.94176 2.62608 0
M  V30 20225 H 1919.91 3.48093 1.15008 0
M  V30 20226 H 1919.56 3.48597 3.62614 0
M  V30 20227 H 1919.26 5.09608 2.9253 0
M  V30 20228 H 1920.78 4.77803 3.8018 0
M  V30 20229 H 1922.2 5.4918 1.64543 0
M  V30 20230 H 1920.6 5.92038 0.980375 0
M  V30 20231 H 1921.67 4.84864 0.0586914 0
M  V30 20232 N 1923.01 -0.166818 1.56715 0
M  V30 20233 C 1924.24 -0.896867 1.86118 0
M  V30 20234 C 1924.65 -1.76139 0.690784 0
M  V30 20235 O 1923.99 -1.80351 -0.349191 0
M  V30 20236 C 1924.05 -1.82064 3.09989 0
M  V30 20237 C 1923.72 -1.13527 4.42674 0
M  V30 20238 C 1924.71 -0.498585 5.17504 0
M  V30 20239 C 1922.4 -1.13069 4.89409 0
M  V30 20240 C 1924.39 0.13354 6.3726 0
M  V30 20241 C 1922.08 -0.494741 6.09094 0
M  V30 20242 C 1923.08 0.136265 6.82864 0
M  V30 20243 O 1922.76 0.762174 8.00279 0
M  V30 20244 H 1922.5 -0.265765 0.621567 0
M  V30 20245 H 1925.05 -0.170384 2.04692 0
M  V30 20246 H 1923.28 -2.58756 2.87372 0
M  V30 20247 H 1924.97 -2.42092 3.25801 0
M  V30 20248 H 1925.74 -0.494073 4.82477 0
M  V30 20249 H 1921.61 -1.61124 4.31926 0
M  V30 20250 H 1925.16 0.626661 6.9478 0
M  V30 20251 H 1921.06 -0.496852 6.43585 0
M  V30 20252 H 1921.82 0.66187 8.1582 0
M  V30 20253 N 1924.49 -1.51463 -0.435524 0
M  V30 20254 C 1925.74 -1.63454 -1.18176 0
M  V30 20255 C 1926.05 -0.357501 -1.92305 0
M  V30 20256 O 1927.25 -0.356815 -2.69145 0
M  V30 20257 C 1925.71 -2.88676 -2.14928 0
M  V30 20258 C 1925.32 -4.23391 -1.46438 0
M  V30 20259 C 1927.06 -3.10025 -2.89974 0
M  V30 20260 C 1924.97 -5.39761 -2.41685 0
M  V30 20261 H 1923.9 -0.608812 -0.444819 0
M  V30 20262 H 1926.55 -1.77931 -0.448635 0
M  V30 20263 H 1924.93 -2.67837 -2.91683 0
M  V30 20264 H 1926.11 -4.54618 -0.75229 0
M  V30 20265 H 1924.42 -4.07934 -0.835385 0
M  V30 20266 H 1927.02 -3.9414 -3.61327 0
M  V30 20267 H 1927.36 -2.23177 -3.51423 0
M  V30 20268 H 1927.89 -3.31213 -2.20325 0
M  V30 20269 H 1924.63 -6.28875 -1.84922 0
M  V30 20270 H 1924.15 -5.12908 -3.10943 0
M  V30 20271 H 1925.83 -5.71783 -3.02776 0
M  V30 20272 N 1925.96 0.691085 -1.4164 0
M  V30 20273 C 1926.91 1.80495 -1.43841 0
M  V30 20274 C 1927.88 1.63509 -0.292237 0
M  V30 20275 O 1929.07 1.84296 -0.493941 0
M  V30 20276 C 1926.21 3.18412 -1.33072 0
M  V30 20277 C 1925.32 3.46799 -2.57594 0
M  V30 20278 C 1924.45 4.74354 -2.39085 0
M  V30 20279 C 1923.49 4.95723 -3.59061 0
M  V30 20280 N 1922.63 6.14507 -3.39596 0
M  V30 20281 H 1927.47 1.77949 -2.39036 0
M  V30 20282 H 1925.01 0.86893 -1.18693 0
M  V30 20283 H 1926.97 3.98087 -1.24829 0
M  V30 20284 H 1925.6 3.20124 -0.414814 0
M  V30 20285 H 1924.65 2.61496 -2.76268 0
M  V30 20286 H 1925.96 3.58489 -3.46824 0
M  V30 20287 H 1925.11 5.62092 -2.28336 0
M  V30 20288 H 1923.85 4.64918 -1.47319 0
M  V30 20289 H 1922.86 4.06432 -3.70261 0
M  V30 20290 H 1924.08 5.07015 -4.51788 0
M  V30 20291 H 1922.03 6.06275 -2.50532 0
M  V30 20292 H 1921.95 6.26985 -4.22405 0
M  V30 20293 H 1923.21 7.04968 -3.32627 0
M  V30 20294 N 1927.44 1.27542 0.925789 0
M  V30 20295 C 1928.69 1.14161 1.67616 0
M  V30 20296 C 1929.02 -0.311471 1.91686 0
M  V30 20297 O 1928.3 -1.22766 1.5086 0
M  V30 20298 C 1928.58 1.92778 3.04152 0
M  V30 20299 C 1928.43 3.46081 2.87312 0
M  V30 20300 C 1929.75 1.73374 4.04511 0
M  V30 20301 H 1926.87 0.416091 0.608307 0
M  V30 20302 H 1929.51 1.56719 1.0742 0
M  V30 20303 H 1927.66 1.5661 3.55536 0
M  V30 20304 H 1929.33 3.92089 2.43031 0
M  V30 20305 H 1927.58 3.72324 2.22615 0
M  V30 20306 H 1928.25 3.96333 3.84219 0
M  V30 20307 H 1930.72 2.04914 3.62146 0
M  V30 20308 H 1929.6 2.30773 4.98031 0
M  V30 20309 H 1929.86 0.682154 4.36806 0
M  V30 20310 N 1928.92 -1.13255 1.09595 0
M  V30 20311 C 1930.17 -1.84844 0.83429 0
M  V30 20312 C 1930.5 -1.83403 -0.638518 0
M  V30 20313 O 1929.77 -1.27337 -1.47022 0
M  V30 20314 C 1930.06 -3.32926 1.3723 0
M  V30 20315 C 1929.91 -3.42872 2.91134 0
M  V30 20316 C 1931.23 -4.28413 1.0075 0
M  V30 20317 H 1928.35 -0.671139 0.304534 0
M  V30 20318 H 1930.99 -1.32922 1.35764 0
M  V30 20319 H 1929.14 -3.77275 0.927149 0
M  V30 20320 H 1930.81 -3.07222 3.44111 0
M  V30 20321 H 1929.06 -2.83693 3.28178 0
M  V30 20322 H 1929.73 -4.47013 3.23857 0
M  V30 20323 H 1932.2 -3.92145 1.39146 0
M  V30 20324 H 1931.08 -5.30455 1.41098 0
M  V30 20325 H 1931.34 -4.4202 -0.0841095 0
M  V30 20326 N 1930.4 -0.883401 -1.30514 0
M  V30 20327 C 1931.68 -0.421186 -1.91011 0
M  V30 20328 C 1932.06 1.09793 -1.80301 0
M  V30 20329 O 1931.4 1.93254 -1.21923 0
M  V30 20330 C 1931.61 -0.917533 -3.36723 0
M  V30 20331 C 1932.96 -0.951573 -4.138 0
M  V30 20332 O 1933.99 -0.86409 -3.4556 0
M  V30 20333 O 1932.84 -1.08053 -5.35711 0
M  V30 20334 H 1929.94 -0.128514 -0.816954 0
M  V30 20335 H 1932.48 -0.972198 -1.39091 0
M  V30 20336 H 1931.26 -1.96135 -3.38595 0
M  V30 20337 H 1930.88 -0.345595 -3.96095 0
M  V30 20338 N 1931.88 1.43833 -0.644194 0
M  V30 20339 C 1932.83 2.27877 0.0750292 0
M  V30 20340 C 1933.81 1.39399 0.803545 0
M  V30 20341 O 1935 1.63103 0.687499 0
M  V30 20342 C 1932.13 3.26945 1.04698 0
M  V30 20343 C 1931.22 4.22911 0.317411 0
M  V30 20344 N 1931.61 5.0146 -0.661138 0
M  V30 20345 C 1929.91 4.42469 0.560091 0
M  V30 20346 C 1930.61 5.71332 -1.09337 0
M  V30 20347 N 1929.58 5.41901 -0.429466 0
M  V30 20348 H 1933.39 2.8602 -0.675995 0
M  V30 20349 H 1930.9 1.55428 -0.470742 0
M  V30 20350 H 1932.9 3.85924 1.57696 0
M  V30 20351 H 1931.56 2.70363 1.79817 0
M  V30 20352 H 1932.57 5.07361 -1.0395 0
M  V30 20353 H 1929.24 3.96969 1.29314 0
M  V30 20354 H 1930.63 6.44401 -1.90255 0
M  V30 20355 N 1933.35 0.385544 1.52811 0
M  V30 20356 C 1934.58 -0.200568 2.06428 0
M  V30 20357 C 1935 -1.40049 1.2557 0
M  V30 20358 O 1934.36 -1.79128 0.279782 0
M  V30 20359 C 1934.41 -0.552623 3.5634 0
M  V30 20360 O 1933.51 -1.64711 3.7808 0
M  V30 20361 H 1932.86 -0.0244676 0.663549 0
M  V30 20362 H 1935.39 0.551927 1.97015 0
M  V30 20363 H 1935.4 -0.817996 3.99716 0
M  V30 20364 H 1934.07 0.324665 4.14631 0
M  V30 20365 H 1932.65 -1.37574 3.46595 0
M  V30 20366 N 1934.83 -1.57178 0.115259 0
M  V30 20367 C 1935.78 -2.15114 -0.836331 0
M  V30 20368 C 1936.75 -1.07511 -1.26612 0
M  V30 20369 O 1937.93 -1.354 -1.3443 0
M  V30 20370 C 1935.07 -2.75187 -2.08245 0
M  V30 20371 C 1934.19 -3.97086 -1.70137 0
M  V30 20372 C 1933.32 -4.45258 -2.89687 0
M  V30 20373 C 1932.36 -5.59697 -2.47801 0
M  V30 20374 N 1931.5 -6.0263 -3.60252 0
M  V30 20375 H 1936.34 -2.96106 -0.335434 0
M  V30 20376 H 1933.88 -1.46293 -0.15388 0
M  V30 20377 H 1935.83 -3.08145 -2.81252 0
M  V30 20378 H 1934.46 -1.96891 -2.558 0
M  V30 20379 H 1933.52 -3.70313 -0.870192 0
M  V30 20380 H 1934.83 -4.80085 -1.35352 0
M  V30 20381 H 1933.98 -4.80105 -3.70923 0
M  V30 20382 H 1932.72 -3.61201 -3.27696 0
M  V30 20383 H 1931.73 -5.24458 -1.64997 0
M  V30 20384 H 1932.95 -6.45517 -2.10913 0
M  V30 20385 H 1930.9 -5.21515 -3.97942 0
M  V30 20386 H 1930.81 -6.80474 -3.29379 0
M  V30 20387 H 1932.08 -6.42114 -4.41939 0
M  V30 20388 N 1936.31 0.158505 -1.56801 0
M  V30 20389 C 1937.56 0.871313 -1.82353 0
M  V30 20390 C 1937.88 1.8222 -0.694324 0
M  V30 20391 O 1937.15 1.93817 0.284899 0
M  V30 20392 H 1935.73 0.324747 -0.672717 0
M  V30 20393 H 1938.39 0.155257 -1.94281 0
M  V30 20394 H 1937.49 1.44051 -2.76868 0
M  V30 20395 N 1937.79 1.51692 0.427485 0
M  V30 20396 C 1939.04 1.64521 1.17376 0
M  V30 20397 C 1939.36 0.368482 1.91487 0
M  V30 20398 O 1938.63 -0.616035 1.85962 0
M  V30 20399 H 1937.21 0.606362 0.436273 0
M  V30 20400 H 1939.87 1.88662 0.489152 0
M  V30 20401 H 1938.97 2.47759 1.89794 0
M  V30 20402 N 1939.27 -0.683564 1.42004 0
M  V30 20403 C 1940.51 -1.44363 1.42005 0
M  V30 20404 C 1940.84 -1.94471 0.0333832 0
M  V30 20405 O 1940.1 -1.70716 -0.95679 0
M  V30 20406 C 1940.4 -2.66286 2.38383 0
M  V30 20407 C 1940.06 -2.34769 3.8496 0
M  V30 20408 C 1938.72 -2.25884 4.24888 0
M  V30 20409 C 1941.08 -2.09012 4.77455 0
M  V30 20410 C 1938.4 -1.89356 5.55303 0
M  V30 20411 C 1940.76 -1.73991 6.08202 0
M  V30 20412 C 1939.42 -1.6361 6.47138 0
M  V30 20413 H 1938.69 -0.528262 0.519634 0
M  V30 20414 H 1941.34 -0.780217 1.74885 0
M  V30 20415 H 1939.64 -3.37618 1.98799 0
M  V30 20416 H 1941.34 -3.24452 2.35652 0
M  V30 20417 H 1937.93 -2.42583 3.53343 0
M  V30 20418 H 1942.11 -2.14814 4.47402 0
M  V30 20419 H 1937.37 -1.79882 5.84339 0
M  V30 20420 H 1941.54 -1.53084 6.79366 0
M  V30 20421 H 1939.17 -1.35075 7.48103 0
M  V30 20422 N 1940.75 -1.28031 -0.919012 0
M  V30 20423 C 1941.99 -1.14651 -1.66432 0
M  V30 20424 C 1942.31 0.306395 -1.92578 0
M  V30 20425 O 1941.58 1.2131 -1.5382 0
M  V30 20426 H 1940.16 -0.421307 -0.616854 0
M  V30 20427 H 1942.83 -1.60684 -1.10302 0
M  V30 20428 H 1941.92 -1.68214 -2.62888 0
M  V30 20429 N 1942.22 1.12672 -1.10194 0
M  V30 20430 C 1943.17 2.16406 -0.717811 0
M  V30 20431 C 1944.16 1.58588 0.271775 0
M  V30 20432 O 1945.35 1.76815 0.0809013 0
M  V30 20433 C 1942.48 3.42979 -0.148524 0
M  V30 20434 C 1941.56 4.07785 -1.165 0
M  V30 20435 N 1941.96 4.47639 -2.35485 0
M  V30 20436 C 1940.25 4.3453 -1.00495 0
M  V30 20437 C 1940.95 4.98247 -3.00208 0
M  V30 20438 N 1939.93 4.93596 -2.27736 0
M  V30 20439 H 1943.73 2.44983 -1.62359 0
M  V30 20440 H 1941.25 1.29551 -0.979299 0
M  V30 20441 H 1943.24 4.16649 0.144731 0
M  V30 20442 H 1941.9 3.15872 0.752008 0
M  V30 20443 H 1942.91 4.40088 -2.73026 0
M  V30 20444 H 1939.59 4.17194 -0.159768 0
M  V30 20445 H 1940.98 5.38817 -4.01405 0
M  V30 20446 N 1943.7 0.89031 1.30043 0
M  V30 20447 C 1944.95 0.507478 1.95212 0
M  V30 20448 C 1945.26 -0.949179 1.71026 0
M  V30 20449 O 1946.47 -1.4391 2.30222 0
M  V30 20450 C 1944.93 0.856657 3.49556 0
M  V30 20451 C 1944.53 2.33145 3.82554 0
M  V30 20452 C 1946.28 0.543281 4.21009 0
M  V30 20453 C 1944.18 2.62198 5.301 0
M  V30 20454 H 1943.11 0.186056 0.730684 0
M  V30 20455 H 1945.77 1.08602 1.47912 0
M  V30 20456 H 1944.15 0.207146 3.95458 0
M  V30 20457 H 1945.32 3.02572 3.47544 0
M  V30 20458 H 1943.64 2.61289 3.24217 0
M  V30 20459 H 1946.23 0.737312 5.29592 0
M  V30 20460 H 1946.58 -0.517644 4.13069 0
M  V30 20461 H 1947.11 1.15022 3.80808 0
M  V30 20462 H 1943.85 3.67052 5.43096 0
M  V30 20463 H 1943.37 1.97385 5.66392 0
M  V30 20464 H 1945.05 2.47975 5.97593 0
M  V30 20465 N 1945.18 -1.43489 0.651812 0
M  V30 20466 C 1946.13 -2.32541 -0.0525869 0
M  V30 20467 C 1947.12 -1.48532 -0.81454 0
M  V30 20468 O 1948.33 -1.64749 -0.7251 0
M  V30 20469 H 1944.7 -0.751148 -0.0357894 0
M  V30 20470 H 1946.67 -2.89677 0.716229 0
M  V30 20471 C 1945.42 -3.3282 -1.00628 0
M  V30 20472 H 1944.75 -3.97487 -0.429396 0
M  V30 20473 H 1946.19 -3.97767 -1.46826 0
M  V30 20474 C 1944.64 -2.63313 -2.10162 0
M  V30 20475 O 1945.17 -2.44759 -3.18522 0
M  V30 20476 N 1943.38 -2.2271 -1.86678 0
M  V30 20477 H 1942.93 -2.38 -0.985581 0
M  V30 20478 H 1942.89 -1.76533 -2.60161 0
M  V30 20479 N 1946.66 -0.393643 -1.52605 0
M  V30 20480 C 1947.9 0.187431 -2.01932 0
M  V30 20481 C 1948.24 1.46098 -1.27942 0
M  V30 20482 O 1947.51 1.90729 -0.381154 0
M  V30 20483 C 1947.79 0.450933 -3.57265 0
M  V30 20484 C 1947.65 -0.838204 -4.41921 0
M  V30 20485 C 1948.97 1.23971 -4.22278 0
M  V30 20486 H 1946.09 0.0666471 -0.73398 0
M  V30 20487 H 1948.73 -0.524064 -1.8263 0
M  V30 20488 H 1946.88 1.05703 -3.73844 0
M  V30 20489 H 1948.55 -1.47492 -4.37086 0
M  V30 20490 H 1946.79 -1.45258 -4.08757 0
M  V30 20491 H 1947.46 -0.608424 -5.48637 0
M  V30 20492 H 1949.94 0.726733 -4.09705 0
M  V30 20493 H 1948.82 1.39283 -5.30935 0
M  V30 20494 H 1949.08 2.25611 -3.802 0
M  V30 20495 N 1948.14 1.57115 -0.123593 0
M  V30 20496 C 1949.41 1.86893 0.577099 0
M  V30 20497 C 1949.79 1.02556 1.84514 0
M  V30 20498 O 1949.14 0.105755 2.28255 0
M  V30 20499 C 1949.35 3.38107 0.865122 0
M  V30 20500 C 1950.7 4.0681 1.21618 0
M  V30 20501 O 1951.72 3.43153 0.955237 0
M  V30 20502 O 1950.58 5.19186 1.70612 0
M  V30 20503 H 1947.68 0.773842 0.291716 0
M  V30 20504 H 1950.22 1.68959 -0.158443 0
M  V30 20505 H 1948.99 3.91286 -0.0332696 0
M  V30 20506 H 1948.62 3.61488 1.65566 0
M  V30 20507 N 1949.61 -0.150187 1.56883 0
M  V30 20508 C 1950.89 -0.891842 1.74085 0
M  V30 20509 C 1951.27 -1.99479 0.690751 0
M  V30 20510 O 1950.62 -2.26641 -0.290877 0
M  V30 20511 C 1950.83 -1.43722 3.18033 0
M  V30 20512 C 1952.18 -1.90188 3.79623 0
M  V30 20513 O 1953.2 -1.53471 3.21442 0
M  V30 20514 O 1952.06 -2.57892 4.81824 0
M  V30 20515 H 1949.15 -0.421241 0.711678 0
M  V30 20516 H 1951.7 -0.136362 1.69151 0
M  V30 20517 H 1950.47 -0.644422 3.85957 0
M  V30 20518 H 1950.09 -2.2563 3.27379 0
M  V30 20519 N 1951.09 -1.51916 -0.419434 0
M  V30 20520 C 1952.34 -1.65468 -1.16732 0
M  V30 20521 C 1952.67 -0.379569 -1.9076 0
M  V30 20522 O 1951.92 0.637093 -1.8504 0
M  V30 20523 C 1952.22 -2.82039 -2.19519 0
M  V30 20524 C 1951.89 -4.20649 -1.62373 0
M  V30 20525 C 1950.55 -4.58353 -1.46512 0
M  V30 20526 C 1952.9 -5.0707 -1.20539 0
M  V30 20527 C 1950.23 -5.80166 -0.873185 0
M  V30 20528 C 1952.58 -6.29478 -0.627675 0
M  V30 20529 C 1951.25 -6.6594 -0.456114 0
M  V30 20530 H 1950.52 -0.605492 -0.427154 0
M  V30 20531 H 1953.16 -1.85994 -0.455916 0
M  V30 20532 H 1951.47 -2.55808 -2.96765 0
M  V30 20533 H 1953.16 -2.89722 -2.7724 0
M  V30 20534 H 1949.75 -3.90932 -1.75699 0
M  V30 20535 H 1953.94 -4.78533 -1.31606 0
M  V30 20536 H 1949.19 -6.07048 -0.728187 0
M  V30 20537 H 1953.37 -6.95775 -0.29508 0
M  V30 20538 H 1951 -7.602 0.00467585 0
M  V30 20539 N 1952.57 0.676023 -1.42365 0
M  V30 20540 C 1953.52 1.81087 -1.4598 0
M  V30 20541 C 1954.51 1.66041 -0.335662 0
M  V30 20542 O 1955.72 1.72665 -0.508618 0
M  V30 20543 H 1952.09 0.597073 -0.457173 0
M  V30 20544 H 1954.06 1.75156 -2.41584 0
M  V30 20545 C 1952.81 3.19233 -1.37789 0
M  V30 20546 H 1952.14 3.31437 -2.23584 0
M  V30 20547 H 1953.58 3.98661 -1.4438 0
M  V30 20548 C 1952.04 3.36773 -0.0925272 0
M  V30 20549 O 1952.57 3.92491 0.855181 0
M  V30 20550 N 1950.77 2.90598 -0.0100772 0
M  V30 20551 H 1950.32 2.45441 -0.782071 0
M  V30 20552 H 1950.28 3.02711 0.849301 0
M  V30 20553 N 1954.05 1.28517 0.912209 0
M  V30 20554 C 1955.29 1.15932 1.66396 0
M  V30 20555 C 1955.63 -0.291123 1.92006 0
M  V30 20556 O 1954.9 -1.21159 1.52154 0
M  V30 20557 C 1955.19 1.95993 3.0209 0
M  V30 20558 C 1955.04 3.49109 2.83625 0
M  V30 20559 C 1956.36 1.77655 4.0265 0
M  V30 20560 H 1953.48 0.42252 0.603859 0
M  V30 20561 H 1956.12 1.5785 1.05752 0
M  V30 20562 H 1954.27 1.60372 3.53855 0
M  V30 20563 H 1955.94 3.94644 2.38859 0
M  V30 20564 H 1954.18 3.74664 2.18653 0
M  V30 20565 H 1954.85 4.00386 3.79993 0
M  V30 20566 H 1957.33 2.08743 3.59952 0
M  V30 20567 H 1956.21 2.36043 4.95555 0
M  V30 20568 H 1956.47 0.728445 4.36057 0
M  V30 20569 N 1955.53 -1.12086 1.1079 0
M  V30 20570 C 1956.94 -1.65205 0.869718 0
M  V30 20571 C 1957.29 -1.86823 -0.599309 0
M  V30 20572 O 1956.41 -1.59743 -1.45983 0
M  V30 20573 C 1957.01 -3.00109 1.57226 0
M  V30 20574 C 1955.57 -3.50163 1.38068 0
M  V30 20575 C 1954.71 -2.2511 1.61928 0
M  V30 20576 H 1957.67 -0.958175 1.2651 0
M  V30 20577 H 1957.69 -3.66757 1.01337 0
M  V30 20578 H 1957.2 -2.84344 2.64141 0
M  V30 20579 H 1955.3 -3.71106 0.33333 0
M  V30 20580 H 1955.41 -4.29388 2.12515 0
M  V30 20581 H 1953.78 -2.32399 1.04224 0
M  V30 20582 H 1954.56 -2.11895 2.70103 0
M  V30 20583 N 1957 -0.897194 -1.29569 0
M  V30 20584 C 1958.25 -0.522607 -1.95951 0
M  V30 20585 C 1958.58 0.928254 -1.70579 0
M  V30 20586 O 1957.86 1.65772 -1.01734 0
M  V30 20587 C 1958.14 -0.812659 -3.5081 0
M  V30 20588 C 1957.99 -2.31504 -3.8565 0
M  V30 20589 C 1959.31 -0.297442 -4.39094 0
M  V30 20590 H 1956.43 -0.191346 -0.711727 0
M  V30 20591 H 1959.07 -1.12342 -1.5323 0
M  V30 20592 H 1957.22 -0.301316 -3.8733 0
M  V30 20593 H 1958.9 -2.89573 -3.59089 0
M  V30 20594 H 1957.14 -2.77678 -3.33283 0
M  V30 20595 H 1957.81 -2.46857 -4.93726 0
M  V30 20596 H 1960.29 -0.735265 -4.09552 0
M  V30 20597 H 1959.16 -0.529614 -5.46339 0
M  V30 20598 H 1959.42 0.801767 -4.34769 0
M  V30 20599 N 1958.48 1.43142 -0.659413 0
M  V30 20600 C 1959.41 2.29102 0.0671619 0
M  V30 20601 C 1960.43 1.42846 0.780943 0
M  V30 20602 O 1961.62 1.66722 0.637666 0
M  V30 20603 C 1958.72 3.19915 1.11838 0
M  V30 20604 C 1957.89 4.34742 0.481505 0
M  V30 20605 C 1956.95 5.06384 1.43043 0
M  V30 20606 O 1955.97 5.61441 0.936648 0
M  V30 20607 N 1957.18 5.10461 2.76423 0
M  V30 20608 H 1959.94 2.92099 -0.670674 0
M  V30 20609 H 1957.5 1.53899 -0.50266 0
M  V30 20610 H 1959.49 3.64708 1.75413 0
M  V30 20611 H 1958.06 2.58474 1.75812 0
M  V30 20612 H 1957.28 3.92787 -0.333461 0
M  V30 20613 H 1958.57 5.08786 0.0371775 0
M  V30 20614 H 1957.97 4.67114 3.19095 0
M  V30 20615 H 1956.53 5.58952 3.35285 0
M  V30 20616 N 1959.96 0.40173 1.52394 0
M  V30 20617 C 1961.21 -0.17672 2.02029 0
M  V30 20618 C 1961.54 -1.45417 1.28715 0
M  V30 20619 O 1960.81 -1.90524 0.391263 0
M  V30 20620 C 1961.1 -0.43198 3.575 0
M  V30 20621 C 1960.95 0.861628 4.4147 0
M  V30 20622 C 1962.27 -1.2173 4.2293 0
M  V30 20623 H 1959.39 -0.0627536 0.734323 0
M  V30 20624 H 1962.03 0.533742 1.82349 0
M  V30 20625 H 1960.18 -1.03719 3.74399 0
M  V30 20626 H 1961.85 1.49808 4.36297 0
M  V30 20627 H 1960.1 1.47424 4.07981 0
M  V30 20628 H 1960.77 0.637511 5.48306 0
M  V30 20629 H 1963.24 -0.704996 4.10084 0
M  V30 20630 H 1962.12 -1.36465 5.31666 0
M  V30 20631 H 1962.38 -2.23592 3.81391 0
M  V30 20632 N 1961.44 -1.57047 0.131923 0
M  V30 20633 C 1962.39 -2.15989 -0.813469 0
M  V30 20634 C 1963.36 -1.08848 -1.25464 0
M  V30 20635 O 1964.54 -1.36819 -1.32986 0
M  V30 20636 C 1961.68 -2.7738 -2.05315 0
M  V30 20637 C 1960.79 -3.98868 -1.65916 0
M  V30 20638 C 1959.93 -4.48305 -2.84948 0
M  V30 20639 C 1958.97 -5.62294 -2.41851 0
M  V30 20640 N 1958.1 -6.06417 -3.53841 0
M  V30 20641 H 1962.94 -2.96445 -0.304009 0
M  V30 20642 H 1960.48 -1.46448 -0.138355 0
M  V30 20643 H 1962.44 -3.11111 -2.77967 0
M  V30 20644 H 1961.07 -1.99593 -2.53697 0
M  V30 20645 H 1960.12 -3.71215 -0.830867 0
M  V30 20646 H 1961.43 -4.81493 -1.30252 0
M  V30 20647 H 1960.59 -4.84012 -3.6581 0
M  V30 20648 H 1959.33 -3.64657 -3.23847 0
M  V30 20649 H 1958.33 -5.26178 -1.59425 0
M  V30 20650 H 1959.56 -6.47718 -2.04055 0
M  V30 20651 H 1957.5 -5.25707 -3.92388 0
M  V30 20652 H 1957.42 -6.8393 -3.22143 0
M  V30 20653 H 1958.69 -6.46765 -4.35104 0
M  V30 20654 N 1962.92 0.141865 -1.5696 0
M  V30 20655 C 1963.86 1.175 -1.98651 0
M  V30 20656 C 1964.83 1.42409 -0.854918 0
M  V30 20657 O 1966.02 1.54658 -1.11738 0
M  V30 20658 C 1963.16 2.50222 -2.37661 0
M  V30 20659 C 1962.27 2.32443 -3.64135 0
M  V30 20660 C 1961.41 3.58236 -3.92225 0
M  V30 20661 C 1960.45 3.35516 -5.11952 0
M  V30 20662 N 1959.58 4.53452 -5.36027 0
M  V30 20663 H 1964.42 0.812473 -2.8671 0
M  V30 20664 H 1961.96 0.389721 -1.41844 0
M  V30 20665 H 1963.92 3.27616 -2.58309 0
M  V30 20666 H 1962.55 2.84412 -1.52675 0
M  V30 20667 H 1961.6 1.46078 -3.51234 0
M  V30 20668 H 1962.91 2.11618 -4.51685 0
M  V30 20669 H 1962.07 4.44057 -4.13399 0
M  V30 20670 H 1960.8 3.8207 -3.03106 0
M  V30 20671 H 1959.81 2.48084 -4.90647 0
M  V30 20672 H 1961.03 3.13075 -6.02628 0
M  V30 20673 H 1958.98 4.7745 -4.49864 0
M  V30 20674 H 1958.9 4.35648 -6.17856 0
M  V30 20675 H 1960.17 5.40472 -5.61703 0
M  V30 20676 N 1964.39 1.52136 0.411372 0
M  V30 20677 C 1965.34 1.75318 1.50107 0
M  V30 20678 C 1966.31 0.595552 1.55056 0
M  V30 20679 O 1967.5 0.832859 1.71663 0
M  V30 20680 C 1964.64 1.9077 2.87578 0
M  V30 20681 C 1963.75 3.18411 2.91956 0
M  V30 20682 C 1962.88 3.24307 4.20712 0
M  V30 20683 C 1961.92 4.4616 4.19056 0
M  V30 20684 N 1961.06 4.49461 5.39379 0
M  V30 20685 H 1965.9 2.68323 1.29642 0
M  V30 20686 H 1963.44 1.32958 0.629326 0
M  V30 20687 H 1965.4 1.97711 3.67377 0
M  V30 20688 H 1964.03 1.01148 3.06543 0
M  V30 20689 H 1963.08 3.20652 2.04661 0
M  V30 20690 H 1964.39 4.08245 2.86597 0
M  V30 20691 H 1963.54 3.30308 5.08902 0
M  V30 20692 H 1962.28 2.32408 4.28763 0
M  V30 20693 H 1961.29 4.40308 3.29255 0
M  V30 20694 H 1962.51 5.39351 4.12646 0
M  V30 20695 H 1960.46 3.60444 5.48102 0
M  V30 20696 H 1960.38 5.33136 5.36005 0
M  V30 20697 H 1961.64 4.59688 6.29529 0
M  V30 20698 N 1965.87 -0.668464 1.42721 0
M  V30 20699 C 1967.1 -1.45659 1.46939 0
M  V30 20700 C 1967.52 -1.88619 0.0826133 0
M  V30 20701 O 1966.87 -1.58537 -0.904 0
M  V30 20702 C 1966.92 -2.70158 2.40202 0
M  V30 20703 O 1966.65 -2.28999 3.73485 0
M  V30 20704 C 1968.15 -3.63662 2.53505 0
M  V30 20705 H 1965.37 -0.447982 0.499553 0
M  V30 20706 H 1967.91 -0.820826 1.87304 0
M  V30 20707 H 1966.07 -3.29909 2.03074 0
M  V30 20708 H 1966.48 -3.09441 4.23493 0
M  V30 20709 H 1967.95 -4.47726 3.22871 0
M  V30 20710 H 1968.43 -4.09989 1.57498 0
M  V30 20711 H 1969.04 -3.09801 2.91382 0
M  V30 20712 N 1967.35 -1.28999 -0.905381 0
M  V30 20713 C 1968.3 -1.13515 -2.0302 0
M  V30 20714 C 1969.29 -0.0522132 -1.6932 0
M  V30 20715 O 1970.5 -0.211599 -1.78752 0
M  V30 20716 H 1966.87 -0.350474 -0.665336 0
M  V30 20717 H 1968.85 -2.08758 -2.13219 0
M  V30 20718 C 1967.59 -0.822531 -3.37831 0
M  V30 20719 H 1966.92 -1.64783 -3.64262 0
M  V30 20720 H 1968.36 -0.754193 -4.17238 0
M  V30 20721 C 1966.82 0.474033 -3.33548 0
M  V30 20722 O 1967.35 1.50182 -3.7257 0
M  V30 20723 N 1965.55 0.477812 -2.86645 0
M  V30 20724 H 1965.1 -0.359023 -2.55086 0
M  V30 20725 H 1965.06 1.34533 -2.84162 0
M  V30 20726 N 1968.83 1.11497 -1.11383 0
M  V30 20727 C 1969.78 2.19602 -0.766658 0
M  V30 20728 C 1970.77 1.67668 0.241612 0
M  V30 20729 O 1971.98 1.79717 0.100956 0
M  V30 20730 H 1968.35 0.715952 -0.230037 0
M  V30 20731 H 1970.32 2.46131 -1.68707 0
M  V30 20732 C 1969.07 3.46968 -0.225442 0
M  V30 20733 H 1968.4 3.87284 -0.992544 0
M  V30 20734 H 1969.84 4.23995 -0.0207066 0
M  V30 20735 C 1968.29 3.20311 1.04414 0
M  V30 20736 O 1968.82 3.40956 2.12395 0
M  V30 20737 N 1967.03 2.7405 0.966692 0
M  V30 20738 H 1966.58 2.5745 0.0878667 0
M  V30 20739 H 1966.54 2.56591 1.81682 0
M  V30 20740 O 1970.35 1.0363 1.23867 0
M  V30 20741 H 1971.04 0.705286 1.80403 0
M  V30 END ATOM
M  V30 BEGIN BOND
M  V30 END BOND
M  V30 END CTAB
M  END
$$$$
