drugbank_target|Q9F6D4 3-oxoacyl-[acyl-carrier-protein] synthase 3 (DB01992)
 OpenBabel12092120233D

  0  0  0     0  0            999 V3000
M  V30 BEGIN CTAB
M  V30 COUNTS 4962 5010 0 0 0
M  V30 BEGIN ATOM
M  V30 1 H -0.908 1.98254 -0.117106 0
M  V30 2 N 0 1.576 0 0
M  V30 3 C 0.933 2.03868 1.02534 0
M  V30 4 C 1.911 0.928543 1.3348 0
M  V30 5 O 3.095 1.19667 1.45644 0
M  V30 6 C 0.222 2.43627 2.35294 0
M  V30 7 C -0.732 3.65373 2.2001 0
M  V30 8 S 0.101 5.13292 1.52614 0
M  V30 9 C 1.257 5.56322 2.86805 0
M  V30 10 H 1.49 2.90518 0.631377 0
M  V30 11 H -0.977 1.52953 0.210867 0
M  V30 12 H 0.981 2.67203 3.11629 0
M  V30 13 H -0.358 1.57376 2.7183 0
M  V30 14 H -1.165 3.90944 3.18086 0
M  V30 15 H -1.563 3.418 1.51819 0
M  V30 16 H 0.729 5.58782 3.83104 0
M  V30 17 H 1.672 6.56266 2.65933 0
M  V30 18 H 2.08 4.83886 2.90714 0
M  V30 19 N 1.4781 -0.272755 1.55222 0
M  V30 20 C 2.8891 -0.84378 1.66545 0
M  V30 21 C 3.2401 -1.87035 0.592641 0
M  V30 22 O 2.3651 -2.14761 -0.265818 0
M  V30 23 C 2.9601 -1.53723 3.01918 0
M  V30 24 C 1.5191 -2.05628 3.15268 0
M  V30 25 C 0.6661 -0.898424 2.62343 0
M  V30 26 H 3.6171 -0.0490998 1.58624 0
M  V30 27 H 3.6381 -2.40421 2.94921 0
M  V30 28 H 3.1501 -0.78983 3.79978 0
M  V30 29 H 1.2511 -2.83329 2.41983 0
M  V30 30 H 1.3641 -2.27142 4.21833 0
M  V30 31 H -0.2719 -1.29186 2.19506 0
M  V30 32 H 0.5111 -0.164528 3.42906 0
M  V30 33 N 2.9562 -1.48159 -0.537278 0
M  V30 34 C 4.2042 -1.55497 -1.29094 0
M  V30 35 C 4.5252 -0.227454 -1.93669 0
M  V30 36 O 3.7952 0.750386 -1.80959 0
M  V30 37 H 2.3752 -0.572832 -0.47945 0
M  V30 38 H 5.0372 -1.84579 -0.625818 0
M  V30 39 H 4.1332 -2.33216 -2.07405 0
M  V30 40 N 4.4343 0.785586 -1.36625 0
M  V30 41 C 5.3643 1.91259 -1.33949 0
M  V30 42 C 6.3453 1.68795 -0.210325 0
M  V30 43 O 7.5303 1.89854 -0.408561 0
M  V30 44 C 4.6603 3.28339 -1.13186 0
M  V30 45 C 3.6143 3.65335 -2.22967 0
M  V30 46 C 2.9403 5.00806 -1.87342 0
M  V30 47 C 4.2403 3.7352 -3.65075 0
M  V30 48 H 5.9343 1.93755 -2.28253 0
M  V30 49 H 3.4803 0.930788 -1.09874 0
M  V30 50 H 5.4333 4.06804 -1.09948 0
M  V30 51 H 4.1573 3.2624 -0.153332 0
M  V30 52 H 2.8163 2.89169 -2.25337 0
M  V30 53 H 2.4643 4.95233 -0.880545 0
M  V30 54 H 2.1643 5.26529 -2.60846 0
M  V30 55 H 3.6883 5.81687 -1.85667 0
M  V30 56 H 5.1023 4.42168 -3.64911 0
M  V30 57 H 3.4993 4.10731 -4.37516 0
M  V30 58 H 4.5693 2.74527 -3.99703 0
M  V30 59 N 5.9124 1.20967 1.01018 0
M  V30 60 C 7.3284 0.965905 1.27053 0
M  V30 61 C 7.5284 -0.350785 1.98423 0
M  V30 62 O 6.5844 -1.07773 2.28344 0
M  V30 63 C 7.8974 2.15294 2.09926 0
M  V30 64 C 9.4454 2.19463 2.23171 0
M  V30 65 C 9.9204 3.3767 3.09424 0
M  V30 66 N 11.4114 3.37724 3.17012 0
M  V30 67 C 12.1464 4.25837 3.83993 0
M  V30 68 N 11.6424 5.24138 4.53047 0
M  V30 69 N 13.4354 4.1366 3.80581 0
M  V30 70 H 5.5864 2.0565 0.531194 0
M  V30 71 H 7.8494 0.90024 0.297106 0
M  V30 72 H 7.5554 3.10684 1.64828 0
M  V30 73 H 7.4294 2.13923 3.10672 0
M  V30 74 H 9.8164 1.24632 2.6749 0
M  V30 75 H 9.8974 2.2488 1.21912 0
M  V30 76 H 9.5414 4.32791 2.65808 0
M  V30 77 H 9.4714 3.29491 4.10784 0
M  V30 78 H 11.9624 2.6658 2.6785 0
M  V30 79 H 12.2754 5.87684 5.01844 0
M  V30 80 H 10.6204 5.28068 4.5185 0
M  V30 81 H 13.8114 3.36127 3.25785 0
M  V30 82 H 13.9844 4.82538 4.32505 0
M  V30 83 N 7.3905 -1.2043 1.01659 0
M  V30 84 C 8.6365 -1.90079 0.706963 0
M  V30 85 C 8.9695 -1.78648 -0.761474 0
M  V30 86 O 8.2445 -1.17069 -1.55323 0
M  V30 87 C 8.5275 -3.41469 1.14327 0
M  V30 88 C 8.3805 -3.61833 2.67201 0
M  V30 89 C 9.6995 -4.34261 0.714529 0
M  V30 90 H 6.8185 -0.690254 0.2583 0
M  V30 91 H 9.4605 -1.41826 1.26433 0
M  V30 92 H 7.6105 -3.82696 0.669056 0
M  V30 93 H 9.2825 -3.2986 3.22475 0
M  V30 94 H 7.5255 -3.05304 3.08175 0
M  V30 95 H 8.1965 -4.67955 2.92783 0
M  V30 96 H 10.6725 -4.00682 1.12221 0
M  V30 97 H 9.5485 -5.38806 1.04784 0
M  V30 98 H 9.8095 -4.40431 -0.383799 0
M  V30 99 N 8.8686 -0.792821 -1.36206 0
M  V30 100 C 10.2796 -0.429513 -1.81692 0
M  V30 101 C 10.6306 1.04695 -1.65932 0
M  V30 102 O 9.7556 1.81256 -1.18218 0
M  V30 103 C 10.3506 -0.772831 -3.29868 0
M  V30 104 C 8.9096 -0.462307 -3.7355 0
M  V30 105 C 8.0566 -1.00569 -2.5842 0
M  V30 106 H 11.0076 -0.985672 -1.24379 0
M  V30 107 H 11.0286 -0.0651928 -3.80444 0
M  V30 108 H 10.5406 -1.84747 -3.41307 0
M  V30 109 H 8.6416 0.604158 -3.67669 0
M  V30 110 H 8.7546 -0.985299 -4.68859 0
M  V30 111 H 7.1186 -0.428734 -2.51066 0
M  V30 112 H 7.9016 -2.08616 -2.72643 0
M  V30 113 N 10.3467 1.47872 -0.545128 0
M  V30 114 C 11.2567 2.33633 0.212746 0
M  V30 115 C 12.2727 1.4744 0.923983 0
M  V30 116 O 13.4487 1.80393 0.895572 0
M  V30 117 C 10.5137 3.23884 1.23693 0
M  V30 118 C 9.5747 4.25961 0.534417 0
M  V30 119 C 8.8077 5.11899 1.5098 0
M  V30 120 O 9.0307 5.00077 2.7437 0
M  V30 121 O 7.9647 5.92831 1.0409 0
M  V30 122 H 11.7907 2.99714 -0.490416 0
M  V30 123 H 9.3757 1.46235 -0.305871 0
M  V30 124 H 11.2577 3.79666 1.82843 0
M  V30 125 H 9.9327 2.60446 1.92222 0
M  V30 126 H 8.8397 3.73972 -0.0979679 0
M  V30 127 H 10.1727 4.92079 -0.109213 0
M  V30 128 N 11.8248 0.280983 1.55075 0
M  V30 129 C 13.2408 -0.0729964 1.59433 0
M  V30 130 C 13.4408 -1.5411 1.29817 0
M  V30 131 O 12.4968 -2.29086 1.06187 0
M  V30 132 C 13.8098 0.306921 2.9913 0
M  V30 133 C 15.3578 0.254023 3.11968 0
M  V30 134 C 15.8328 0.608467 4.5394 0
M  V30 135 N 17.3238 0.560241 4.59799 0
M  V30 136 C 18.0588 0.80722 5.6769 0
M  V30 137 N 17.5548 1.11912 6.83701 0
M  V30 138 N 19.3478 0.735623 5.57266 0
M  V30 139 H 11.4988 1.238 1.7259 0
M  V30 140 H 13.7618 0.500547 0.805082 0
M  V30 141 H 13.4678 1.32816 3.25657 0
M  V30 142 H 13.3418 -0.349363 3.75579 0
M  V30 143 H 15.7288 -0.75794 2.852 0
M  V30 144 H 15.8098 0.944649 2.37718 0
M  V30 145 H 15.4538 1.61814 4.81434 0
M  V30 146 H 15.3838 -0.104013 5.26497 0
M  V30 147 H 17.8748 0.329288 3.76463 0
M  V30 148 H 18.1878 1.29409 7.61888 0
M  V30 149 H 16.5328 1.15695 6.85303 0
M  V30 150 H 19.7238 0.491752 4.6551 0
M  V30 151 H 19.8968 0.931482 6.4127 0
M  V30 152 N 13.3029 -1.57598 0.00835791 0
M  V30 153 C 14.7189 -1.55764 -0.347822 0
M  V30 154 C 14.9189 -1.01186 -1.74252 0
M  V30 155 O 13.9749 -0.649371 -2.44007 0
M  V30 156 C 15.2879 -2.99927 -0.215407 0
M  V30 157 C 16.8359 -3.11656 -0.289725 0
M  V30 158 C 17.3109 -4.57621 -0.18634 0
M  V30 159 N 18.8019 -4.62557 -0.243978 0
M  V30 160 C 19.5369 -5.73094 -0.18745 0
M  V30 161 N 19.0329 -6.92753 -0.0810331 0
M  V30 162 N 20.8259 -5.61588 -0.239925 0
M  V30 163 H 12.9769 -1.91411 0.92062 0
M  V30 164 H 15.2399 -0.879562 0.353659 0
M  V30 165 H 14.9459 -3.43729 0.744512 0
M  V30 166 H 14.8199 -3.63865 -0.994097 0
M  V30 167 H 17.2069 -2.67779 -1.24009 0
M  V30 168 H 17.2879 -2.5048 0.51898 0
M  V30 169 H 16.9319 -5.02174 0.760519 0
M  V30 170 H 16.8619 -5.16752 -1.01364 0
M  V30 171 H 19.3529 -3.76481 -0.327217 0
M  V30 172 H 19.6659 -7.72787 -0.0440241 0
M  V30 173 H 18.0109 -6.94984 -0.0465419 0
M  V30 174 H 21.2019 -4.66996 -0.321317 0
M  V30 175 H 21.3749 -6.47714 -0.192407 0
M  V30 176 N 14.781 0.264519 -1.55364 0
M  V30 177 C 16.028 0.994986 -1.7637 0
M  V30 178 C 16.356 1.85976 -0.5695 0
M  V30 179 O 15.611 1.90509 0.44776 0
M  V30 180 C 15.91 1.9004 -3.02687 0
M  V30 181 C 15.576 1.19243 -4.34847 0
M  V30 182 C 14.238 0.996709 -4.70764 0
M  V30 183 C 16.59 0.689296 -5.16622 0
M  V30 184 C 13.918 0.285261 -5.86006 0
M  V30 185 C 16.27 -0.00860079 -6.32599 0
M  V30 186 C 14.934 -0.215963 -6.67151 0
M  V30 187 H 14.204 0.364091 -0.645383 0
M  V30 188 H 16.851 0.266543 -1.89636 0
M  V30 189 H 15.156 2.69533 -2.84357 0
M  V30 190 H 16.853 2.46695 -3.16137 0
M  V30 191 H 13.443 1.3549 -4.06621 0
M  V30 192 H 17.627 0.828108 -4.89342 0
M  V30 193 H 12.883 0.113961 -6.11294 0
M  V30 194 H 17.057 -0.406186 -6.95214 0
M  V30 195 H 14.684 -0.769217 -7.56298 0
M  V30 196 N 16.2591 1.48442 0.529413 0
M  V30 197 C 17.4841 1.60406 1.31471 0
M  V30 198 C 17.9091 0.264738 1.86228 0
M  V30 199 O 17.2671 -0.763668 1.64432 0
M  V30 200 C 17.3151 2.65419 2.44101 0
M  V30 201 O 16.4191 2.22618 3.47153 0
M  V30 202 H 15.7601 0.537863 0.389357 0
M  V30 203 H 18.2901 1.94432 0.636965 0
M  V30 204 H 18.3001 2.86709 2.90279 0
M  V30 205 H 16.9751 3.62652 2.03608 0
M  V30 206 H 15.5521 2.11543 3.0709 0
M  V30 207 N 17.7372 -0.778329 1.37039 0
M  V30 208 C 19.1532 -1.07796 1.17695 0
M  V30 209 C 19.3532 -2.01498 0.00860115 0
M  V30 210 O 18.4092 -2.43901 -0.653352 0
M  V30 211 C 19.7222 -1.68178 2.49272 0
M  V30 212 C 21.2702 -1.80467 2.55735 0
M  V30 213 C 21.7452 -2.44263 3.87427 0
M  V30 214 N 23.2362 -2.51721 3.88833 0
M  V30 215 C 23.9712 -3.01919 4.87476 0
M  V30 216 N 23.4672 -3.5234 5.96513 0
M  V30 217 N 25.2602 -3.00733 4.74885 0
M  V30 218 H 17.4112 -0.156032 2.11826 0
M  V30 219 H 19.6742 -0.131844 0.938787 0
M  V30 220 H 19.3802 -1.06796 3.35093 0
M  V30 221 H 19.2542 -2.67554 2.65885 0
M  V30 222 H 21.6412 -2.40984 1.70325 0
M  V30 223 H 21.7222 -0.798656 2.43013 0
M  V30 224 H 21.3662 -1.84388 4.73248 0
M  V30 225 H 21.2962 -3.45458 3.9745 0
M  V30 226 H 23.7872 -2.1603 3.10063 0
M  V30 227 H 24.1002 -3.89027 6.67741 0
M  V30 228 H 22.4452 -3.50462 6.00168 0
M  V30 229 H 25.6362 -2.60638 3.88826 0
M  V30 230 H 25.8092 -3.39545 5.51918 0
M  V30 231 N 19.2153 -1.21501 -1.00376 0
M  V30 232 C 20.4613 -1.03452 -1.74429 0
M  V30 233 C 20.7943 0.430764 -1.89362 0
M  V30 234 O 20.0693 1.31962 -1.42886 0
M  V30 235 C 20.3523 -1.73375 -3.15615 0
M  V30 236 C 20.2053 -3.27431 -3.08397 0
M  V30 237 C 21.5243 -1.47732 -4.14564 0
M  V30 238 H 18.6433 -0.377226 -0.633143 0
M  V30 239 H 21.2853 -1.49693 -1.17013 0
M  V30 240 H 19.4353 -1.34064 -3.64636 0
M  V30 241 H 21.1073 -3.76119 -2.67081 0
M  V30 242 H 19.3503 -3.5767 -2.45468 0
M  V30 243 H 20.0213 -3.71524 -4.08258 0
M  V30 244 H 22.4973 -1.8186 -3.74254 0
M  V30 245 H 21.3733 -1.99169 -5.11491 0
M  V30 246 H 21.6343 -0.407589 -4.40217 0
M  V30 247 N 20.6934 1.19889 -1.02296 0
M  V30 248 C 21.6234 2.25141 -0.619174 0
M  V30 249 C 22.6044 1.66051 0.368915 0
M  V30 250 O 23.7894 1.92546 0.252941 0
M  V30 251 C 20.9194 3.4728 0.0368783 0
M  V30 252 C 19.8734 4.19005 -0.872865 0
M  V30 253 C 19.1994 5.34637 -0.0822402 0
M  V30 254 C 20.4994 4.74452 -2.18387 0
M  V30 255 H 22.1934 2.59171 -1.49903 0
M  V30 256 H 19.7394 1.24579 -0.722222 0
M  V30 257 H 21.6924 4.20098 0.330958 0
M  V30 258 H 20.4164 3.12433 0.95149 0
M  V30 259 H 19.0754 3.48061 -1.15105 0
M  V30 260 H 18.7234 4.96034 0.83422 0
M  V30 261 H 18.4234 5.83557 -0.688149 0
M  V30 262 H 19.9474 6.10255 0.205238 0
M  V30 263 H 21.3614 5.39055 -1.95172 0
M  V30 264 H 19.7584 5.33834 -2.74119 0
M  V30 265 H 20.8284 3.92844 -2.84257 0
M  V30 266 N 22.1715 0.800033 1.35784 0
M  V30 267 C 23.4195 0.376597 1.9856 0
M  V30 268 C 23.7405 -1.05812 1.63795 0
M  V30 269 O 23.0105 -1.73103 0.917171 0
M  V30 270 H 21.5905 0.136261 0.734467 0
M  V30 271 H 24.2525 1.02442 1.65806 0
M  V30 272 H 23.3485 0.477002 3.08433 0
M  V30 273 N 23.6496 -1.47581 0.552962 0
M  V30 274 C 24.8956 -2.02782 0.0273648 0
M  V30 275 C 25.2286 -1.42687 -1.31734 0
M  V30 276 O 24.5036 -0.580897 -1.85623 0
M  V30 277 C 24.7866 -3.60031 -0.0702371 0
M  V30 278 C 24.6396 -4.30566 1.30126 0
M  V30 279 C 25.9586 -4.33028 -0.785771 0
M  V30 280 H 23.0776 -0.736912 0.0114185 0
M  V30 281 H 25.7196 -1.76056 0.714432 0
M  V30 282 H 23.8696 -3.82932 -0.655382 0
M  V30 283 H 25.5416 -4.19018 1.92929 0
M  V30 284 H 23.7846 -3.91086 1.87709 0
M  V30 285 H 24.4556 -5.39114 1.18573 0
M  V30 286 H 26.9316 -4.15095 -0.288982 0
M  V30 287 H 25.8076 -5.42695 -0.823013 0
M  V30 288 H 26.0686 -4.01945 -1.841 0
M  V30 289 N 25.1277 -0.289203 -1.54924 0
M  V30 290 C 26.3757 0.322879 -1.99504 0
M  V30 291 C 26.6967 1.55313 -1.1791 0
M  V30 292 O 25.9667 1.94001 -0.272097 0
M  V30 293 H 24.5467 0.122291 -0.736922 0
M  V30 294 H 27.2087 -0.397802 -1.90797 0
M  V30 295 H 26.3047 0.603061 -3.06218 0
M  V30 296 N 26.6058 1.57591 -0.0167156 0
M  V30 297 C 27.8308 1.9598 0.67872 0
M  V30 298 C 28.2558 0.892546 1.65575 0
M  V30 299 O 27.6138 -0.147772 1.80697 0
M  V30 300 C 27.6618 3.33468 1.37227 0
M  V30 301 O 26.7658 3.28954 2.48722 0
M  V30 302 H 26.1068 0.639339 0.17928 0
M  V30 303 H 28.6368 2.04463 -0.0748802 0
M  V30 304 H 28.6468 3.69417 1.7319 0
M  V30 305 H 27.3218 4.10694 0.656007 0
M  V30 306 H 25.8988 3.04705 2.14963 0
M  V30 307 N 28.0839 -0.256276 1.55502 0
M  V30 308 C 29.3139 -1.00196 1.80677 0
M  V30 309 C 29.7219 -1.79805 0.588797 0
M  V30 310 O 29.0649 -1.78055 -0.451883 0
M  V30 311 C 29.1269 -1.99515 2.99055 0
M  V30 312 C 28.7909 -1.38688 4.35448 0
M  V30 313 C 29.7879 -0.794079 5.138 0
M  V30 314 C 27.4729 -1.40906 4.82132 0
M  V30 315 C 29.4669 -0.231562 6.36979 0
M  V30 316 C 27.1539 -0.842684 6.05262 0
M  V30 317 C 28.1519 -0.254953 6.82524 0
M  V30 318 O 27.8399 0.3027 8.0333 0
M  V30 319 H 27.5719 -0.300919 0.60533 0
M  V30 320 H 30.1259 -0.287307 2.03381 0
M  V30 321 H 28.3559 -2.74785 2.72084 0
M  V30 322 H 30.0449 -2.60349 3.11405 0
M  V30 323 H 30.8109 -0.769519 4.78856 0
M  V30 324 H 26.6899 -1.85591 4.21992 0
M  V30 325 H 30.2339 0.227816 6.97228 0
M  V30 326 H 26.1309 -0.86454 6.39684 0
M  V30 327 H 26.8989 0.193662 8.18271 0
M  V30 328 N 29.562 -1.4872 -0.521534 0
M  V30 329 C 30.978 -1.35028 -0.850855 0
M  V30 330 C 31.178 -0.367712 -1.98116 0
M  V30 331 O 30.234 0.208037 -2.51642 0
M  V30 332 C 31.547 -2.75263 -1.21041 0
M  V30 333 C 33.095 -2.83813 -1.31981 0
M  V30 334 C 33.57 -4.24769 -1.71276 0
M  V30 335 N 35.061 -4.27482 -1.78363 0
M  V30 336 C 35.796 -5.33494 -2.1017 0
M  V30 337 N 35.292 -6.49775 -2.40343 0
M  V30 338 N 37.085 -5.20894 -2.11248 0
M  V30 339 H 29.236 -2.11214 0.22413 0
M  V30 340 H 31.499 -0.947252 0.0376439 0
M  V30 341 H 31.205 -3.48765 -0.453415 0
M  V30 342 H 31.079 -3.09327 -2.15863 0
M  V30 343 H 33.466 -2.10561 -2.06756 0
M  V30 344 H 33.547 -2.53358 -0.352596 0
M  V30 345 H 33.191 -4.9854 -0.970588 0
M  V30 346 H 33.121 -4.52673 -2.69062 0
M  V30 347 H 35.612 -3.43611 -1.57288 0
M  V30 348 H 35.925 -7.26402 -2.63743 0
M  V30 349 H 34.27 -6.53035 -2.37844 0
M  V30 350 H 37.461 -4.29065 -1.87139 0
M  V30 351 H 37.634 -6.03612 -2.35704 0
M  V30 352 N 31.0401 0.771051 -1.3745 0
M  V30 353 C 32.4511 1.34737 -1.29239 0
M  V30 354 C 32.8021 1.96109 0.0596908 0
M  V30 355 O 31.9271 1.93865 0.961534 0
M  V30 356 C 32.5221 2.44973 -2.34037 0
M  V30 357 C 31.0811 2.98372 -2.29458 0
M  V30 358 C 30.2281 1.71595 -2.17831 0
M  V30 359 H 33.1791 0.571256 -1.48062 0
M  V30 360 H 33.2001 3.24471 -1.98744 0
M  V30 361 H 32.7121 2.00276 -3.32432 0
M  V30 362 H 30.8131 3.47443 -1.34589 0
M  V30 363 H 30.9261 3.53939 -3.229 0
M  V30 364 H 29.2901 1.94547 -1.64388 0
M  V30 365 H 30.0731 1.29001 -3.18141 0
M  V30 366 N 32.5182 1.22032 0.997298 0
M  V30 367 C 33.9342 0.979326 1.26021 0
M  V30 368 C 34.1342 -0.32972 1.98784 0
M  V30 369 O 33.1902 -1.05345 2.29475 0
M  V30 370 C 34.5032 2.17509 2.07631 0
M  V30 371 C 36.0512 2.21817 2.2083 0
M  V30 372 C 36.5262 3.40933 3.05825 0
M  V30 373 N 38.0172 3.41067 3.13412 0
M  V30 374 C 38.7522 4.29885 3.79455 0
M  V30 375 N 38.2482 5.28914 4.47462 0
M  V30 376 N 40.0412 4.17673 3.76173 0
M  V30 377 H 32.1922 2.06202 0.509352 0
M  V30 378 H 34.4552 0.90334 0.287541 0
M  V30 379 H 34.1612 3.12415 1.61524 0
M  V30 380 H 34.0352 2.17206 3.08385 0
M  V30 381 H 36.4222 1.27462 2.66153 0
M  V30 382 H 36.5032 2.2616 1.1952 0
M  V30 383 H 36.1472 4.35586 2.61203 0
M  V30 384 H 36.0772 3.33829 4.07266 0
M  V30 385 H 38.5682 2.69406 2.65007 0
M  V30 386 H 38.8812 5.92973 4.95583 0
M  V30 387 H 37.2262 5.32831 4.46224 0
M  V30 388 H 40.4172 3.39564 3.22202 0
M  V30 389 H 40.5902 4.87098 4.27363 0
M  V30 390 N 33.9963 -1.19345 1.0293 0
M  V30 391 C 35.4123 -1.41069 0.746446 0
M  V30 392 C 35.6123 -1.90078 -0.668776 0
M  V30 393 O 34.6683 -2.0778 -1.4347 0
M  V30 394 C 35.9813 -2.42141 1.78292 0
M  V30 395 C 37.5293 -2.55887 1.80252 0
M  V30 396 C 38.0043 -3.60214 2.8286 0
M  V30 397 N 39.4953 -3.67711 2.81679 0
M  V30 398 C 40.2303 -4.48128 3.57727 0
M  V30 399 N 39.7263 -5.32248 4.43491 0
M  V30 400 N 41.5193 -4.42782 3.46267 0
M  V30 401 H 33.6703 -0.858536 1.94275 0
M  V30 402 H 35.9333 -0.439541 0.839945 0
M  V30 403 H 35.6393 -2.13155 2.79746 0
M  V30 404 H 35.5133 -3.41323 1.60557 0
M  V30 405 H 37.9003 -2.84196 0.794757 0
M  V30 406 H 37.9813 -1.56858 2.02062 0
M  V30 407 H 37.6253 -3.32647 3.83807 0
M  V30 408 H 37.5553 -4.58895 2.58307 0
M  V30 409 H 40.0463 -3.07634 2.19476 0
M  V30 410 H 40.3593 -5.90729 4.98256 0
M  V30 411 H 38.7043 -5.31707 4.47564 0
M  V30 412 H 41.8953 -3.76107 2.78677 0
M  V30 413 H 42.0683 -5.05215 4.05785 0
M  V30 414 N 35.4744 -0.807222 -1.35358 0
M  V30 415 C 36.3844 -0.219594 -2.3357 0
M  V30 416 C 37.4004 0.637734 -1.61892 0
M  V30 417 O 38.5764 0.549336 -1.93763 0
M  V30 418 C 35.6414 0.62158 -3.41083 0
M  V30 419 C 34.7024 -0.256315 -4.28534 0
M  V30 420 C 33.9354 0.544807 -5.30912 0
M  V30 421 O 34.1584 1.77944 -5.41934 0
M  V30 422 O 33.0924 -0.0646478 -6.01865 0
M  V30 423 H 36.9184 -1.03208 -2.85625 0
M  V30 424 H 34.5034 -0.569025 -1.38139 0
M  V30 425 H 36.3854 1.10067 -4.06772 0
M  V30 426 H 35.0604 1.41165 -2.91297 0
M  V30 427 H 33.9674 -0.782559 -3.65823 0
M  V30 428 H 35.3004 -1.01034 -4.81719 0
M  V30 429 N 36.9525 1.47285 -0.560781 0
M  V30 430 C 38.1985 2.02764 -0.0381184 0
M  V30 431 C 38.5315 1.43384 1.30976 0
M  V30 432 O 37.8065 0.590733 1.85312 0
M  V30 433 C 38.0895 3.60064 0.0511427 0
M  V30 434 C 37.9425 4.2987 -1.32408 0
M  V30 435 C 39.2615 4.33439 0.762795 0
M  V30 436 H 36.3805 0.736841 -0.0153264 0
M  V30 437 H 39.0225 1.75675 -0.723759 0
M  V30 438 H 37.1725 3.83274 0.635065 0
M  V30 439 H 38.8445 4.17989 -1.95148 0
M  V30 440 H 37.0875 3.90085 -1.8978 0
M  V30 441 H 37.7585 5.38478 -1.21431 0
M  V30 442 H 40.2345 4.15243 0.266965 0
M  V30 443 H 39.1105 5.43124 0.794221 0
M  V30 444 H 39.3715 4.02915 1.81966 0
M  V30 445 N 38.4306 0.297415 1.54768 0
M  V30 446 C 39.6556 -0.318435 2.04941 0
M  V30 447 C 40.0806 -1.4701 1.17345 0
M  V30 448 O 39.4386 -1.80436 0.176758 0
M  V30 449 C 39.4866 -0.755749 3.52592 0
M  V30 450 O 38.5906 -1.86088 3.68028 0
M  V30 451 H 37.9316 -0.062421 0.661059 0
M  V30 452 H 40.4616 0.438215 1.99852 0
M  V30 453 H 40.4716 -1.04552 3.94376 0
M  V30 454 H 39.1466 0.0867233 4.1581 0
M  V30 455 H 37.7236 -1.57193 3.38149 0
M  V30 456 N 39.9087 -1.5758 0.0250728 0
M  V30 457 C 40.8567 -2.11125 -0.97617 0
M  V30 458 C 41.8507 -1.03689 -1.33959 0
M  V30 459 O 43.0567 -1.22128 -1.3223 0
M  V30 460 H 39.4317 -0.674468 -0.332561 0
M  V30 461 H 41.4027 -2.94194 -0.499223 0
M  V30 462 C 40.1517 -2.65017 -2.2508 0
M  V30 463 H 39.4747 -3.47333 -1.9799 0
M  V30 464 H 40.9147 -3.06133 -2.93357 0
M  V30 465 C 39.3737 -1.57574 -2.97779 0
M  V30 466 O 39.9037 -0.973203 -3.89733 0
M  V30 467 N 38.1097 -1.29716 -2.60043 0
M  V30 468 H 37.6567 -1.789 -1.85345 0
M  V30 469 H 37.6147 -0.58051 -3.08994 0
M  V30 470 N 41.3868 0.248026 -1.55636 0
M  V30 471 C 42.3338 1.30707 -1.90222 0
M  V30 472 C 43.3038 1.47881 -0.756332 0
M  V30 473 O 44.4888 1.61883 -1.00988 0
M  V30 474 C 41.6288 2.65769 -2.20138 0
M  V30 475 C 40.7418 2.56612 -3.47526 0
M  V30 476 C 39.8768 3.8402 -3.67017 0
M  V30 477 C 38.9158 3.69476 -4.8801 0
M  V30 478 N 38.0528 4.88774 -5.04029 0
M  V30 479 H 42.8928 1.00512 -2.80538 0
M  V30 480 H 40.4298 0.485055 -1.38873 0
M  V30 481 H 42.3878 3.44386 -2.35487 0
M  V30 482 H 41.0178 2.94115 -1.33027 0
M  V30 483 H 40.0698 1.69571 -3.40514 0
M  V30 484 H 41.3818 2.41774 -4.36287 0
M  V30 485 H 40.5358 4.7108 -3.8232 0
M  V30 486 H 39.2748 4.01754 -2.76487 0
M  V30 487 H 38.2798 2.80799 -4.72686 0
M  V30 488 H 39.5048 3.53238 -5.8 0
M  V30 489 H 37.4508 5.0687 -4.16435 0
M  V30 490 H 37.3678 4.76562 -5.86877 0
M  V30 491 H 38.6358 5.77335 -5.23741 0
M  V30 492 N 42.8649 1.48995 0.513639 0
M  V30 493 C 43.7749 1.67443 1.64317 0
M  V30 494 C 44.7909 0.556947 1.64846 0
M  V30 495 O 45.9669 0.830082 1.83498 0
M  V30 496 C 43.0319 1.72515 3.00732 0
M  V30 497 C 42.0929 2.96009 3.1093 0
M  V30 498 C 41.3259 3.00829 4.40837 0
M  V30 499 O 41.5489 2.13594 5.28898 0
M  V30 500 O 40.4829 3.93168 4.55744 0
M  V30 501 H 44.3089 2.63106 1.51687 0
M  V30 502 H 41.8939 1.32588 0.688543 0
M  V30 503 H 43.7759 1.78277 3.81831 0
M  V30 504 H 42.4509 0.800278 3.13651 0
M  V30 505 H 41.3579 2.9577 2.29065 0
M  V30 506 H 42.6909 3.87934 3.02933 0
M  V30 507 N 44.343 -0.763751 1.37857 0
M  V30 508 C 45.589 -1.52483 1.33704 0
M  V30 509 C 45.922 -1.94051 -0.0759612 0
M  V30 510 O 45.197 -1.64675 -1.03501 0
M  V30 511 C 45.48 -2.78441 2.28348 0
M  V30 512 C 45.333 -2.43075 3.78463 0
M  V30 513 C 46.652 -3.80415 2.21298 0
M  V30 514 H 43.771 -0.553169 0.487005 0
M  V30 515 H 46.413 -0.875562 1.68624 0
M  V30 516 H 44.563 -3.33842 1.987 0
M  V30 517 H 46.235 -1.93527 4.18742 0
M  V30 518 H 44.478 -1.75666 3.96641 0
M  V30 519 H 45.149 -3.33149 4.40132 0
M  V30 520 H 47.625 -3.34527 2.47449 0
M  V30 521 H 46.501 -4.66257 2.89647 0
M  V30 522 H 46.762 -4.25262 1.20849 0
M  V30 523 N 45.8211 -1.22559 -0.990812 0
M  V30 524 C 47.0611 -1.06302 -1.74583 0
M  V30 525 C 47.4251 0.394737 -1.87898 0
M  V30 526 O 48.6261 0.678214 -2.60103 0
M  V30 527 C 46.8971 -1.75699 -3.11231 0
M  V30 528 S 48.4561 -1.74882 -4.02445 0
M  V30 529 H 45.2741 -0.380639 -0.600529 0
M  V30 530 H 47.8761 -1.55532 -1.18449 0
M  V30 531 H 46.5801 -2.80923 -2.99183 0
M  V30 532 H 46.1111 -1.26708 -3.72436 0
M  V30 533 H 48.1261 -0.799997 -4.89709 0
M  V30 534 N 47.2992 1.18797 -1.03562 0
M  V30 535 C 48.5272 1.92599 -0.755869 0
M  V30 536 C 48.9422 1.75886 0.686271 0
M  V30 537 O 48.2992 1.08517 1.46732 0
M  V30 538 C 48.3502 3.44159 -1.10619 0
M  V30 539 O 48.0712 3.60341 -2.4917 0
M  V30 540 C 49.5722 4.3507 -0.850214 0
M  V30 541 H 46.7922 0.611587 -0.276048 0
M  V30 542 H 49.3362 1.50742 -1.38192 0
M  V30 543 H 47.4912 3.83823 -0.525194 0
M  V30 544 H 47.9052 4.54128 -2.62427 0
M  V30 545 H 49.3792 5.39989 -1.14523 0
M  V30 546 H 49.8562 4.38673 0.215176 0
M  V30 547 H 50.4622 4.01097 -1.41426 0
M  V30 548 N 48.7773 0.814389 1.34928 0
M  V30 549 C 50.0233 0.408167 1.99263 0
M  V30 550 C 50.3783 -1.0154 1.63424 0
M  V30 551 O 49.6713 -1.69607 0.891289 0
M  V30 552 C 49.8653 0.537781 3.53331 0
M  V30 553 C 49.6943 1.9724 4.04137 0
M  V30 554 C 48.4643 2.60245 4.33129 0
M  V30 555 C 50.6623 2.93801 4.2212 0
M  V30 556 N 48.6443 3.95036 4.69914 0
M  V30 557 C 50.0153 4.1348 4.6199 0
M  V30 558 C 52.0703 2.9053 4.04348 0
M  V30 559 C 50.7733 5.3033 4.85945 0
M  V30 560 C 52.7993 4.06589 4.29464 0
M  V30 561 C 52.1613 5.25017 4.69613 0
M  V30 562 H 48.2603 0.197289 0.756704 0
M  V30 563 H 50.8443 1.05728 1.63492 0
M  V30 564 H 49.0153 -0.0813868 3.88315 0
M  V30 565 H 50.7473 0.105389 4.04563 0
M  V30 566 H 47.5023 2.11545 4.23728 0
M  V30 567 H 47.9263 4.64455 4.92555 0
M  V30 568 H 52.5683 2.00115 3.72443 0
M  V30 569 H 50.2863 6.21309 5.16721 0
M  V30 570 H 53.8723 4.05447 4.17257 0
M  V30 571 H 52.7523 6.1333 4.88667 0
M  V30 572 N 50.2554 -1.46986 0.568584 0
M  V30 573 C 51.5044 -2.01646 0.0465894 0
M  V30 574 C 51.8174 -1.44721 -1.31587 0
M  V30 575 O 53.0234 -1.91113 -1.92842 0
M  V30 576 C 51.4794 -3.59885 0.032752 0
M  V30 577 C 51.0874 -4.25804 1.39266 0
M  V30 578 C 52.8314 -4.22255 -0.436038 0
M  V30 579 C 50.7384 -5.76081 1.33732 0
M  V30 580 H 49.6684 -0.753876 0.013647 0
M  V30 581 H 52.3194 -1.68864 0.718131 0
M  V30 582 H 50.7014 -3.8968 -0.704669 0
M  V30 583 H 51.8754 -4.07637 2.1487 0
M  V30 584 H 50.1904 -3.7547 1.80032 0
M  V30 585 H 52.7874 -5.32394 -0.49602 0
M  V30 586 H 53.1304 -3.90212 -1.45053 0
M  V30 587 H 53.6634 -3.97033 0.246877 0
M  V30 588 H 50.4024 -6.12761 2.32817 0
M  V30 589 H 49.9224 -5.96553 0.623267 0
M  V30 590 H 51.6014 -6.38518 1.0442 0
M  V30 591 N 51.7335 -0.305618 -1.54608 0
M  V30 592 C 53.0105 0.355652 -1.92339 0
M  V30 593 C 53.3905 1.71324 -1.23335 0
M  V30 594 O 52.7385 2.25473 -0.370702 0
M  V30 595 C 52.9485 0.46572 -3.45879 0
M  V30 596 C 54.2965 0.734426 -4.182 0
M  V30 597 O 55.3205 0.54935 -3.51938 0
M  V30 598 O 54.1795 1.09024 -5.35515 0
M  V30 599 H 51.2735 0.199666 -0.802535 0
M  V30 600 H 53.8195 -0.354017 -1.65966 0
M  V30 601 H 52.5915 -0.488461 -3.88239 0
M  V30 602 H 52.2145 1.22367 -3.78301 0
M  V30 603 N 53.2116 1.57565 -0.0334293 0
M  V30 604 C 54.4366 1.96689 0.657895 0
M  V30 605 C 54.8616 0.910057 1.64619 0
M  V30 606 O 54.2196 -0.128598 1.80843 0
M  V30 607 C 54.2676 3.34905 1.33683 0
M  V30 608 O 53.3716 3.31574 2.45219 0
M  V30 609 H 52.7126 0.641205 0.172489 0
M  V30 610 H 55.2426 2.04372 -0.0965621 0
M  V30 611 H 55.2526 3.71234 1.69262 0
M  V30 612 H 53.9276 4.11366 0.612411 0
M  V30 613 H 52.5046 3.06968 2.11719 0
M  V30 614 N 54.6897 -0.239769 1.55765 0
M  V30 615 C 55.9177 -0.98417 1.81994 0
M  V30 616 C 56.3327 -1.7867 0.610124 0
M  V30 617 O 55.6897 -1.77571 -0.421271 0
M  V30 618 C 55.7407 -1.91635 3.06526 0
M  V30 619 O 55.4617 -1.14629 4.22838 0
M  V30 620 C 56.9627 -2.77616 3.45607 0
M  V30 621 H 54.1827 -0.28928 0.605441 0
M  V30 622 H 56.7267 -0.260499 2.02834 0
M  V30 623 H 54.8817 -2.5942 2.87715 0
M  V30 624 H 55.2957 -1.77745 4.93464 0
M  V30 625 H 56.7697 -3.38759 4.35828 0
M  V30 626 H 57.2467 -3.4909 2.6652 0
M  V30 627 H 57.8527 -2.15271 3.66795 0
M  V30 628 N 56.1678 -1.49265 -0.50573 0
M  V30 629 C 57.0778 -1.68312 -1.63427 0
M  V30 630 C 58.0938 -0.565682 -1.64548 0
M  V30 631 O 59.2698 -0.839801 -1.83055 0
M  V30 632 C 56.3348 -1.74107 -2.99813 0
M  V30 633 C 55.3958 -2.97653 -3.09356 0
M  V30 634 C 54.6288 -3.03163 -4.39236 0
M  V30 635 O 54.8518 -2.16396 -5.27758 0
M  V30 636 O 53.7858 -3.9558 -4.53652 0
M  V30 637 H 57.6118 -2.63907 -1.50289 0
M  V30 638 H 55.1968 -1.32951 -0.681502 0
M  V30 639 H 57.0788 -1.803 -3.80881 0
M  V30 640 H 55.7538 -0.816901 -3.13223 0
M  V30 641 H 54.6608 -2.96981 -2.27493 0
M  V30 642 H 55.9938 -3.89535 -3.00871 0
M  V30 643 N 57.6459 0.756429 -1.3826 0
M  V30 644 C 58.5559 1.9009 -1.37488 0
M  V30 645 C 59.5719 1.71855 -0.272366 0
M  V30 646 O 60.7479 1.94827 -0.510318 0
M  V30 647 C 57.8129 3.25421 -1.19592 0
M  V30 648 C 56.8739 3.56202 -2.39622 0
M  V30 649 C 56.1069 4.85075 -2.2257 0
M  V30 650 O 56.3299 5.57246 -1.21793 0
M  V30 651 O 55.2639 5.15269 -3.11098 0
M  V30 652 H 59.0899 1.93695 -2.33914 0
M  V30 653 H 56.6749 0.901313 -1.1915 0
M  V30 654 H 58.5569 4.06337 -1.11661 0
M  V30 655 H 57.2319 3.22634 -0.262486 0
M  V30 656 H 56.1389 2.75458 -2.53128 0
M  V30 657 H 57.4719 3.63747 -3.31586 0
M  V30 658 N 59.124 1.23083 0.984299 0
M  V30 659 C 60.37 1.07221 1.72845 0
M  V30 660 C 60.725 -0.387453 1.88458 0
M  V30 661 O 60.018 -1.28309 1.42293 0
M  V30 662 C 60.212 1.72673 3.1292 0
M  V30 663 C 60.041 3.24853 3.10967 0
M  V30 664 C 58.811 3.93998 3.16376 0
M  V30 665 C 61.009 4.21674 2.94441 0
M  V30 666 N 58.991 5.33192 3.04268 0
M  V30 667 C 60.362 5.47756 2.90453 0
M  V30 668 C 62.417 4.12457 2.78897 0
M  V30 669 C 61.12 6.6568 2.72512 0
M  V30 670 C 63.146 5.3004 2.62319 0
M  V30 671 C 62.508 6.55046 2.59026 0
M  V30 672 H 58.607 0.44685 0.641755 0
M  V30 673 H 61.191 1.55753 1.16829 0
M  V30 674 H 59.362 1.26679 3.67161 0
M  V30 675 H 61.094 1.49824 3.75945 0
M  V30 676 H 57.849 3.45052 3.24401 0
M  V30 677 H 58.273 6.06157 3.015 0
M  V30 678 H 62.915 3.16588 2.80235 0
M  V30 679 H 60.633 7.61689 2.69919 0
M  V30 680 H 64.219 5.24747 2.5126 0
M  V30 681 H 63.099 7.44498 2.46357 0
M  V30 682 N 60.6021 -1.18246 1.0419 0
M  V30 683 C 61.8511 -1.87588 0.741194 0
M  V30 684 C 62.1641 -1.81303 -0.734066 0
M  V30 685 O 63.3701 -2.46019 -1.14834 0
M  V30 686 C 61.8261 -3.36538 1.27555 0
M  V30 687 C 61.4341 -3.51349 2.77953 0
M  V30 688 C 63.1781 -4.11273 1.05143 0
M  V30 689 C 61.0851 -4.94265 3.2474 0
M  V30 690 H 60.0151 -0.702622 0.273565 0
M  V30 691 H 62.6661 -1.33601 1.25789 0
M  V30 692 H 61.0481 -3.9 0.686703 0
M  V30 693 H 62.2221 -3.08153 3.42605 0
M  V30 694 H 60.5371 -2.90022 2.98791 0
M  V30 695 H 63.1341 -5.16689 1.37611 0
M  V30 696 H 63.4771 -4.16298 -0.0112774 0
M  V30 697 H 64.0101 -3.63987 1.60495 0
M  V30 698 H 60.7491 -4.94408 4.30396 0
M  V30 699 H 60.2691 -5.38172 2.64823 0
M  V30 700 H 61.9481 -5.62987 3.18834 0
M  V30 701 N 62.0802 -0.821533 -1.34494 0
M  V30 702 C 62.9902 -0.244355 -2.33324 0
M  V30 703 C 64.0062 0.620527 -1.62559 0
M  V30 704 O 65.1822 0.528754 -1.94335 0
M  V30 705 C 62.2472 0.585368 -3.41723 0
M  V30 706 C 61.3082 -0.301752 -4.28238 0
M  V30 707 C 60.5412 0.488466 -5.3146 0
M  V30 708 O 60.7642 1.72186 -5.4379 0
M  V30 709 O 59.6982 -0.12848 -6.01763 0
M  V30 710 H 63.5242 -1.06231 -2.84515 0
M  V30 711 H 61.1092 -0.583645 -1.37528 0
M  V30 712 H 62.9912 1.05747 -4.07916 0
M  V30 713 H 61.6662 1.38068 -2.92778 0
M  V30 714 H 60.5732 -0.821315 -3.64973 0
M  V30 715 H 61.9062 -1.06138 -4.8062 0
M  V30 716 N 63.5583 1.46682 -0.576371 0
M  V30 717 C 64.7863 2.06798 -0.0649635 0
M  V30 718 C 65.2013 1.42612 1.23723 0
M  V30 719 O 64.5583 0.529203 1.74659 0
M  V30 720 C 64.6093 3.6132 0.114202 0
M  V30 721 O 64.3303 4.23104 -1.13644 0
M  V30 722 C 65.8313 4.38349 0.66069 0
M  V30 723 H 63.0513 0.668778 -0.0545616 0
M  V30 724 H 65.5953 1.88404 -0.795237 0
M  V30 725 H 63.7503 3.79162 0.794673 0
M  V30 726 H 64.1643 5.15894 -0.946253 0
M  V30 727 H 65.6383 5.47081 0.73526 0
M  V30 728 H 66.1153 4.05953 1.67627 0
M  V30 729 H 66.7213 4.25297 0.0152951 0
M  V30 730 N 65.0364 0.313813 1.54444 0
M  V30 731 C 66.4524 -0.0391619 1.59552 0
M  V30 732 C 66.6524 -1.51322 1.33056 0
M  V30 733 O 65.7084 -2.26782 1.11022 0
M  V30 734 C 67.0214 0.370302 2.98411 0
M  V30 735 C 68.5694 0.320139 3.11358 0
M  V30 736 C 69.0444 0.704617 4.52547 0
M  V30 737 N 70.5354 0.657645 4.58508 0
M  V30 738 C 71.2704 0.927453 5.6585 0
M  V30 739 N 70.7664 1.26389 6.81174 0
M  V30 740 N 72.5594 0.853662 5.5558 0
M  V30 741 H 64.7104 1.27433 1.69925 0
M  V30 742 H 66.9734 0.517511 0.794284 0
M  V30 743 H 66.6794 1.39694 3.22767 0
M  V30 744 H 66.5534 -0.269619 3.76235 0
M  V30 745 H 68.9404 -0.697275 2.86744 0
M  V30 746 H 69.0214 0.99486 2.35661 0
M  V30 747 H 68.6654 1.7199 4.77893 0
M  V30 748 H 68.5954 0.00768843 5.26599 0
M  V30 749 H 71.0864 0.409067 3.75679 0
M  V30 750 H 71.3994 1.4554 7.58972 0
M  V30 751 H 69.7444 1.30206 6.82694 0
M  V30 752 H 72.9354 0.590383 4.64362 0
M  V30 753 H 73.1084 1.0673 6.3915 0
M  V30 754 N 66.5145 -1.57545 0.0417849 0
M  V30 755 C 67.7425 -1.96624 -0.643928 0
M  V30 756 C 68.1575 -0.918897 -1.64929 0
M  V30 757 O 67.5145 0.0979323 -1.82237 0
M  V30 758 C 67.5655 -3.35781 -1.33914 0
M  V30 759 O 67.2865 -4.365 -0.374048 0
M  V30 760 C 68.7875 -3.89566 -2.1155 0
M  V30 761 H 66.0075 -0.647316 -0.176702 0
M  V30 762 H 68.5515 -2.04229 0.105304 0
M  V30 763 H 66.7065 -3.29357 -2.03968 0
M  V30 764 H 67.1205 -5.17248 -0.869179 0
M  V30 765 H 68.5945 -4.89242 -2.55628 0
M  V30 766 H 69.0715 -3.24488 -2.9598 0
M  V30 767 H 69.6775 -3.99298 -1.46427 0
M  V30 768 N 67.9926 0.231505 -1.5589 0
M  V30 769 C 69.2406 0.955461 -1.78088 0
M  V30 770 C 69.5616 1.85262 -0.608533 0
M  V30 771 O 68.8316 1.92277 0.375035 0
M  V30 772 H 67.4116 0.355787 -0.656829 0
M  V30 773 H 70.0736 0.245751 -1.93344 0
M  V30 774 H 69.1696 1.56814 -2.69844 0
M  V30 775 N 69.4707 1.49531 0.497807 0
M  V30 776 C 70.7197 1.58426 1.24837 0
M  V30 777 C 71.0327 0.277643 1.93619 0
M  V30 778 O 72.2387 0.24517 2.70391 0
M  V30 779 C 70.6947 2.79538 2.26686 0
M  V30 780 C 70.3027 4.16971 1.63828 0
M  V30 781 C 72.0467 2.97764 3.0255 0
M  V30 782 C 69.9537 5.29301 2.63807 0
M  V30 783 H 68.8837 0.58989 0.469623 0
M  V30 784 H 71.5347 1.75923 0.521857 0
M  V30 785 H 69.9167 2.55542 3.02514 0
M  V30 786 H 71.0907 4.51116 0.939711 0
M  V30 787 H 69.4057 4.04129 1.00342 0
M  V30 788 H 72.0027 3.78856 3.77323 0
M  V30 789 H 72.3457 2.08448 3.60354 0
M  V30 790 H 72.8787 3.21815 2.33838 0
M  V30 791 H 69.6177 6.20687 2.10779 0
M  V30 792 H 69.1377 4.99606 3.31894 0
M  V30 793 H 70.8167 5.58768 3.2617 0
M  V30 794 N 70.9488 -0.749086 1.3866 0
M  V30 795 C 72.3648 -1.05276 1.19955 0
M  V30 796 C 72.5648 -2.01435 0.05134 0
M  V30 797 O 71.6208 -2.45232 -0.60147 0
M  V30 798 C 72.9338 -1.62853 2.52783 0
M  V30 799 C 74.4818 -1.75002 2.59506 0
M  V30 800 C 74.9568 -2.35991 3.92521 0
M  V30 801 N 76.4478 -2.43416 3.94085 0
M  V30 802 C 77.1828 -2.91511 4.9377 0
M  V30 803 N 76.6788 -3.39608 6.03853 0
M  V30 804 N 78.4718 -2.90592 4.81157 0
M  V30 805 H 70.6228 -0.111066 2.12109 0
M  V30 806 H 72.8858 -0.111901 0.941373 0
M  V30 807 H 72.5918 -0.99664 3.37283 0
M  V30 808 H 72.4658 -2.61854 2.715 0
M  V30 809 H 74.8528 -2.37317 1.75398 0
M  V30 810 H 74.9338 -0.74693 2.44652 0
M  V30 811 H 74.5778 -1.74308 4.77053 0
M  V30 812 H 74.5078 -3.3695 4.04688 0
M  V30 813 H 76.9988 -2.09405 3.14576 0
M  V30 814 H 77.3118 -3.74775 6.75843 0
M  V30 815 H 75.6568 -3.37653 6.07466 0
M  V30 816 H 78.8478 -2.52332 3.94267 0
M  V30 817 H 79.0208 -3.27762 5.58996 0
M  V30 818 N 72.4269 -1.23603 -0.977757 0
M  V30 819 C 73.6519 -1.09735 -1.75991 0
M  V30 820 C 74.0769 0.346858 -1.84874 0
M  V30 821 O 73.4349 1.25093 -1.3123 0
M  V30 822 C 73.4829 -1.73051 -3.16363 0
M  V30 823 O 72.5869 -0.994452 -4.0023 0
M  V30 824 H 71.9279 -0.384476 -0.541364 0
M  V30 825 H 74.4579 -1.6371 -1.2272 0
M  V30 826 H 74.4679 -1.78398 -3.66931 0
M  V30 827 H 73.1429 -2.78137 -3.09213 0
M  V30 828 H 71.7199 -1.01812 -3.58732 0
M  V30 829 N 73.905 1.17692 -1.04816 0
M  V30 830 C 75.321 1.39863 -0.768794 0
M  V30 831 C 75.521 1.91118 0.638451 0
M  V30 832 O 74.577 2.10036 1.40146 0
M  V30 833 C 75.89 2.39274 -1.82122 0
M  V30 834 C 77.438 2.52987 -1.843 0
M  V30 835 C 77.913 3.55669 -2.88555 0
M  V30 836 N 79.404 3.63183 -2.87493 0
M  V30 837 C 80.139 4.42381 -3.64811 0
M  V30 838 N 79.635 5.25125 -4.51903 0
M  V30 839 N 81.428 4.37217 -3.53267 0
M  V30 840 H 73.579 0.82752 -1.95617 0
M  V30 841 H 75.842 0.426123 -0.846831 0
M  V30 842 H 75.548 2.08678 -2.83102 0
M  V30 843 H 75.422 3.38725 -1.65967 0
M  V30 844 H 77.809 2.82896 -0.839869 0
M  V30 845 H 77.89 1.53623 -2.04532 0
M  V30 846 H 77.534 3.26499 -3.89051 0
M  V30 847 H 77.464 4.54728 -2.65575 0
M  V30 848 H 79.955 3.04103 -2.24343 0
M  V30 849 H 80.268 5.82728 -5.07591 0
M  V30 850 H 78.613 5.24519 -4.55966 0
M  V30 851 H 81.804 3.71626 -2.84625 0
M  V30 852 H 81.977 4.98696 -4.13771 0
M  V30 853 N 75.3831 0.828654 1.34056 0
M  V30 854 C 76.7991 0.515135 1.51058 0
M  V30 855 C 76.9991 -0.959581 1.77184 0
M  V30 856 O 76.0551 -1.74382 1.82612 0
M  V30 857 C 77.3681 1.37963 2.67183 0
M  V30 858 C 78.9161 1.37735 2.81066 0
M  V30 859 C 79.3911 2.22645 4.00241 0
M  V30 860 N 80.8821 2.203 4.07458 0
M  V30 861 C 81.6171 2.82744 4.98842 0
M  V30 862 N 81.1131 3.54201 5.9541 0
M  V30 863 N 82.9061 2.72268 4.91759 0
M  V30 864 H 75.0571 1.78343 1.15358 0
M  V30 865 H 77.3201 0.760304 0.566252 0
M  V30 866 H 77.0261 2.42714 2.54525 0
M  V30 867 H 76.9001 1.0484 3.62338 0
M  V30 868 H 79.2871 0.337593 2.93163 0
M  V30 869 H 79.3681 1.74859 1.86703 0
M  V30 870 H 79.0121 3.26674 3.88905 0
M  V30 871 H 78.9421 1.82869 4.93829 0
M  V30 872 H 81.4331 1.68327 3.38341 0
M  V30 873 H 81.7461 3.9908 6.61782 0
M  V30 874 H 80.0911 3.58308 5.95517 0
M  V30 875 H 83.2821 2.16014 4.15278 0
M  V30 876 H 83.4551 3.21219 5.62781 0
M  V30 877 N 76.8612 -1.46375 0.584142 0
M  V30 878 C 78.1102 -2.01585 0.0679741 0
M  V30 879 C 78.4232 -1.46109 -1.30045 0
M  V30 880 O 79.6292 -1.93148 -1.90804 0
M  V30 881 C 78.0852 -3.5983 0.0709207 0
M  V30 882 C 77.6932 -4.24303 1.43775 0
M  V30 883 C 79.4372 -4.22693 -0.391228 0
M  V30 884 C 77.3442 -5.74631 1.39834 0
M  V30 885 H 76.2742 -0.753689 0.0216421 0
M  V30 886 H 78.9252 -1.68093 0.736001 0
M  V30 887 H 77.3072 -3.90405 -0.663299 0
M  V30 888 H 78.4812 -4.05335 2.19181 0
M  V30 889 H 76.7962 -3.73539 1.84004 0
M  V30 890 H 79.3932 -5.3289 -0.439524 0
M  V30 891 H 79.7362 -3.91728 -1.40906 0
M  V30 892 H 80.2692 -3.96749 0.288974 0
M  V30 893 H 77.0082 -6.10258 2.39303 0
M  V30 894 H 76.5282 -5.95858 0.686505 0
M  V30 895 H 78.2072 -6.37375 1.11187 0
M  V30 896 N 78.3393 -0.321999 -1.54275 0
M  V30 897 C 79.3023 0.531975 -2.22941 0
M  V30 898 C 80.3023 1.04478 -1.22234 0
M  V30 899 O 81.4923 0.937452 -1.46825 0
M  V30 900 C 78.6243 1.73874 -2.93224 0
M  V30 901 H 79.8173 -0.0682612 -2.99822 0
M  V30 902 H 77.3703 -0.0730644 -1.56129 0
M  V30 903 H 78.1053 2.37825 -2.20476 0
M  V30 904 H 77.8903 1.37847 -3.6707 0
M  V30 905 H 79.3803 2.34496 -3.45545 0
M  V30 906 N 79.8174 1.5752 -0.0501392 0
M  V30 907 C 80.7274 2.14952 0.939827 0
M  V30 908 C 81.7434 1.10706 1.34239 0
M  V30 909 O 82.9194 1.42869 1.41952 0
M  V30 910 C 79.9844 2.68232 2.19665 0
M  V30 911 C 79.0454 3.87272 1.85253 0
M  V30 912 C 78.2784 4.38002 3.04943 0
M  V30 913 O 78.5014 3.87811 4.18281 0
M  V30 914 O 77.4354 5.29602 2.86017 0
M  V30 915 H 81.2614 2.9986 0.481392 0
M  V30 916 H 78.8464 1.4841 0.171699 0
M  V30 917 H 80.7284 3.02475 2.93406 0
M  V30 918 H 79.4034 1.86395 2.64648 0
M  V30 919 H 78.3104 3.5792 1.0883 0
M  V30 920 H 79.6434 4.70336 1.4507 0
M  V30 921 N 81.2955 -0.223234 1.56011 0
M  V30 922 C 82.7065 -0.790368 1.69145 0
M  V30 923 C 83.0575 -1.85055 0.651845 0
M  V30 924 O 82.1825 -2.15498 -0.197359 0
M  V30 925 C 82.7775 -1.4404 3.06656 0
M  V30 926 C 81.3365 -1.95494 3.2165 0
M  V30 927 C 80.4835 -0.814506 2.65068 0
M  V30 928 H 83.4345 0.00139011 1.587 0
M  V30 929 H 83.4555 -2.30916 3.0242 0
M  V30 930 H 82.9675 -0.668543 3.82298 0
M  V30 931 H 81.0685 -2.75487 2.50874 0
M  V30 932 H 81.1815 -2.13607 4.28846 0
M  V30 933 H 79.5455 -1.22137 2.23505 0
M  V30 934 H 80.3285 -0.0553515 3.43255 0
M  V30 935 N 82.7736 -1.49793 -0.48987 0
M  V30 936 C 84.0506 -1.50348 -1.25119 0
M  V30 937 C 84.4306 -0.237466 -2.0976 0
M  V30 938 O 83.7786 0.77981 -2.14782 0
M  V30 939 C 83.9886 -2.78872 -2.09837 0
M  V30 940 C 85.3366 -3.288 -2.68655 0
M  V30 941 O 86.3606 -2.80065 -2.20096 0
M  V30 942 O 85.2196 -4.13707 -3.57083 0
M  V30 943 H 82.3136 -0.602242 -0.566775 0
M  V30 944 H 84.8596 -1.62067 -0.503229 0
M  V30 945 H 83.6316 -3.62499 -1.47343 0
M  V30 946 H 83.2546 -2.70066 -2.91805 0
M  V30 947 N 84.2517 0.741722 -1.39055 0
M  V30 948 C 85.1617 1.88621 -1.39496 0
M  V30 949 C 86.1777 1.71557 -0.290578 0
M  V30 950 O 87.3537 1.94275 -0.530954 0
M  V30 951 C 84.4187 3.24134 -1.23037 0
M  V30 952 C 83.4797 3.5364 -2.43387 0
M  V30 953 C 82.7127 4.82687 -2.27703 0
M  V30 954 O 82.9357 5.55922 -1.27696 0
M  V30 955 O 81.8697 5.1194 -3.16545 0
M  V30 956 H 85.6957 1.91203 -2.35956 0
M  V30 957 H 83.2807 0.888625 -1.20099 0
M  V30 958 H 85.1627 4.0513 -1.15964 0
M  V30 959 H 83.8377 3.22337 -0.296691 0
M  V30 960 H 82.7447 2.72758 -2.56035 0
M  V30 961 H 84.0777 3.60209 -3.35425 0
M  V30 962 N 85.7298 1.2412 0.971189 0
M  V30 963 C 86.9578 1.10575 1.74874 0
M  V30 964 C 87.3728 -0.342017 1.85676 0
M  V30 965 O 86.7298 -1.23617 1.34258 0
M  V30 966 C 86.7808 1.73579 3.171 0
M  V30 967 O 86.5018 3.12695 3.06844 0
M  V30 968 C 88.0028 1.65598 4.11208 0
M  V30 969 H 85.2228 0.386504 0.548503 0
M  V30 970 H 87.7668 1.64156 1.21955 0
M  V30 971 H 85.9218 1.24009 3.67016 0
M  V30 972 H 86.3358 3.43412 3.96445 0
M  V30 973 H 87.8098 2.1437 5.08674 0
M  V30 974 H 88.2868 0.616532 4.34851 0
M  V30 975 H 88.8928 2.14578 3.67201 0
M  V30 976 N 87.2079 -1.17134 1.05439 0
M  V30 977 C 88.4569 -1.86791 0.761049 0
M  V30 978 C 88.7699 -1.82072 -0.714795 0
M  V30 979 O 89.9759 -2.47223 -1.12218 0
M  V30 980 C 88.4319 -3.35166 1.31117 0
M  V30 981 C 88.0399 -3.48381 2.81664 0
M  V30 982 C 89.7839 -4.10134 1.09499 0
M  V30 983 C 87.6909 -4.90793 3.29964 0
M  V30 984 H 86.6209 -0.699681 0.281002 0
M  V30 985 H 89.2719 -1.3226 1.27199 0
M  V30 986 H 87.6539 -3.8925 0.72803 0
M  V30 987 H 88.8279 -3.04502 3.45855 0
M  V30 988 H 87.1429 -2.86836 3.01851 0
M  V30 989 H 89.7399 -5.152 1.43084 0
M  V30 990 H 90.0829 -4.16287 0.0328772 0
M  V30 991 H 90.6159 -3.62264 1.64346 0
M  V30 992 H 87.3549 -4.89816 4.35616 0
M  V30 993 H 86.8749 -5.35333 2.70516 0
M  V30 994 H 88.5539 -5.59573 3.24787 0
M  V30 995 N 88.686 -0.835752 -1.33615 0
M  V30 996 C 89.618 -0.224151 -2.28101 0
M  V30 997 C 90.631 0.593331 -1.51603 0
M  V30 998 O 91.82 0.420911 -1.73466 0
M  V30 999 C 88.92 0.703309 -3.31522 0
M  V30 1000 C 88.093 -0.0741528 -4.37337 0
M  V30 1001 C 87.152 0.776176 -5.20444 0
M  V30 1002 O 86.178 0.216506 -5.68788 0
M  V30 1003 N 87.38 2.09401 -5.41416 0
M  V30 1004 H 90.145 -1.03598 -2.81225 0
M  V30 1005 H 87.706 -0.69392 -1.46275 0
M  V30 1006 H 89.698 1.27707 -3.84022 0
M  V30 1007 H 88.268 1.41585 -2.78698 0
M  V30 1008 H 87.488 -0.82928 -3.85378 0
M  V30 1009 H 88.776 -0.608863 -5.05144 0
M  V30 1010 H 88.174 2.57229 -5.03835 0
M  V30 1011 H 86.731 2.61633 -5.96985 0
M  V30 1012 N 90.1641 1.46063 -0.591896 0
M  V30 1013 C 91.4101 2.02638 -0.0811191 0
M  V30 1014 C 91.7431 1.4613 1.27905 0
M  V30 1015 O 91.0181 0.629908 1.84017 0
M  V30 1016 C 91.3011 3.60091 -0.0252436 0
M  V30 1017 C 91.1541 4.26965 -1.41496 0
M  V30 1018 C 92.4731 4.3496 0.670685 0
M  V30 1019 H 89.5921 0.73635 -0.0309524 0
M  V30 1020 H 92.2341 1.741 -0.760859 0
M  V30 1021 H 90.3841 3.84535 0.553624 0
M  V30 1022 H 92.0561 4.13756 -2.0397 0
M  V30 1023 H 90.2991 3.85971 -1.98011 0
M  V30 1024 H 90.9701 5.35781 -1.32825 0
M  V30 1025 H 93.4461 4.15716 0.178825 0
M  V30 1026 H 92.3221 5.44686 0.678837 0
M  V30 1027 H 92.5831 4.06685 1.73379 0
M  V30 1028 N 91.6422 0.330177 1.54103 0
M  V30 1029 C 92.5752 -0.575477 2.20825 0
M  V30 1030 C 93.5532 -1.11064 1.18758 0
M  V30 1031 O 94.7372 -1.17341 1.47524 0
M  V30 1032 C 91.8642 -1.79032 2.87516 0
M  V30 1033 C 90.9102 -1.38581 4.03358 0
M  V30 1034 S 91.7432 -0.416911 5.33875 0
M  V30 1035 C 92.8992 -1.63889 6.04062 0
M  V30 1036 H 93.1322 -0.00872114 2.97299 0
M  V30 1037 H 90.6652 0.114254 1.53977 0
M  V30 1038 H 92.6232 -2.48734 3.2656 0
M  V30 1039 H 91.2842 -2.32827 2.10832 0
M  V30 1040 H 90.4772 -2.29123 4.48908 0
M  V30 1041 H 90.0792 -0.768419 3.66021 0
M  V30 1042 H 92.3712 -2.57536 6.26643 0
M  V30 1043 H 93.3142 -1.22542 6.97416 0
M  V30 1044 H 93.7222 -1.82887 5.34053 0
M  V30 1045 N 93.1203 -1.57491 0.0584922 0
M  V30 1046 C 94.3683 -1.92597 -0.612436 0
M  V30 1047 C 94.6893 -0.938162 -1.70949 0
M  V30 1048 O 93.9593 0.0158301 -1.95894 0
M  V30 1049 H 92.5393 -0.710964 -0.229214 0
M  V30 1050 H 95.2013 -1.94571 0.113218 0
M  V30 1051 H 94.2973 -2.94038 -1.04633 0
M  V30 1052 N 94.5984 0.214957 -1.56127 0
M  V30 1053 C 95.8444 0.939762 -1.79712 0
M  V30 1054 C 96.1774 1.83723 -0.629247 0
M  V30 1055 O 95.4524 1.90925 0.371197 0
M  V30 1056 C 95.7354 1.77306 -3.13424 0
M  V30 1057 C 95.5884 0.90164 -4.40671 0
M  V30 1058 C 96.9074 2.74956 -3.43638 0
M  V30 1059 H 94.0264 0.340214 -0.653776 0
M  V30 1060 H 96.6684 0.20824 -1.88855 0
M  V30 1061 H 94.8184 2.39673 -3.0576 0
M  V30 1062 H 96.4904 0.294206 -4.60361 0
M  V30 1063 H 94.7334 0.207368 -4.33304 0
M  V30 1064 H 95.4044 1.51923 -5.30682 0
M  V30 1065 H 97.8804 2.22724 -3.51473 0
M  V30 1066 H 96.7564 3.30358 -4.38355 0
M  V30 1067 H 97.0174 3.53023 -2.66134 0
M  V30 1068 N 96.0765 1.50051 0.48192 0
M  V30 1069 C 97.0395 1.67584 1.5636 0
M  V30 1070 C 98.0395 0.546894 1.51214 0
M  V30 1071 O 99.2295 0.813725 1.54026 0
M  V30 1072 C 96.3615 1.691 2.96003 0
M  V30 1073 H 97.5545 2.64078 1.42136 0
M  V30 1074 H 95.1075 1.39369 0.707533 0
M  V30 1075 H 95.8425 0.742589 3.15684 0
M  V30 1076 H 95.6275 2.51105 3.01146 0
M  V30 1077 H 97.1175 1.84656 3.74556 0
M  V30 1078 N 97.5546 -0.734337 1.39446 0
M  V30 1079 C 98.5176 -1.83004 1.37994 0
M  V30 1080 C 99.5176 -1.58397 0.276938 0
M  V30 1081 O 100.708 -1.65785 0.534875 0
M  V30 1082 C 97.8396 -3.20802 1.1532 0
M  V30 1083 H 99.0326 -1.85694 2.35494 0
M  V30 1084 H 96.5856 -0.938059 1.25021 0
M  V30 1085 H 97.3206 -3.23772 0.185036 0
M  V30 1086 H 97.1056 -3.4006 1.95197 0
M  V30 1087 H 98.5956 -4.00862 1.17046 0
M  V30 1088 N 99.0327 -1.24633 -0.964593 0
M  V30 1089 C 100.258 -1.11596 -1.74818 0
M  V30 1090 C 100.683 0.32723 -1.85232 0
M  V30 1091 O 100.041 1.23695 -1.32549 0
M  V30 1092 C 100.089 -1.76397 -3.1451 0
M  V30 1093 O 99.1927 -1.03685 -3.99153 0
M  V30 1094 H 98.5337 -0.390196 -0.537255 0
M  V30 1095 H 101.064 -1.65002 -1.20977 0
M  V30 1096 H 101.074 -1.8228 -3.65018 0
M  V30 1097 H 99.7487 -2.81401 -3.06246 0
M  V30 1098 H 98.3257 -1.05611 -3.57632 0
M  V30 1099 N 100.511 1.16574 -1.06058 0
M  V30 1100 C 101.927 1.3904 -0.783585 0
M  V30 1101 C 102.127 1.91784 0.618145 0
M  V30 1102 O 101.183 2.11511 1.37911 0
M  V30 1103 C 102.496 2.37329 -1.84649 0
M  V30 1104 C 104.044 2.51018 -1.86973 0
M  V30 1105 C 104.519 3.52588 -2.92311 0
M  V30 1106 N 106.01 3.60113 -2.91329 0
M  V30 1107 C 106.745 4.38486 -3.69482 0
M  V30 1108 N 106.241 5.20302 -4.57447 0
M  V30 1109 N 108.034 4.33446 -3.57885 0
M  V30 1110 H 100.185 0.806725 -1.96483 0
M  V30 1111 H 102.448 0.417117 -0.851303 0
M  V30 1112 H 102.154 2.05663 -2.85299 0
M  V30 1113 H 102.028 3.36946 -1.6955 0
M  V30 1114 H 104.415 2.81989 -0.869827 0
M  V30 1115 H 104.496 1.51445 -2.0615 0
M  V30 1116 H 104.14 3.22354 -3.92492 0
M  V30 1117 H 104.07 4.51886 -2.70383 0
M  V30 1118 H 106.561 3.01707 -2.27555 0
M  V30 1119 H 106.874 5.77311 -5.13743 0
M  V30 1120 H 105.219 5.19653 -4.61503 0
M  V30 1121 H 108.41 3.68586 -2.88551 0
M  V30 1122 H 108.583 4.94279 -4.19037 0
M  V30 1123 N 101.989 0.842826 1.3317 0
M  V30 1124 C 103.405 0.531128 1.50503 0
M  V30 1125 C 103.605 -0.940734 1.78192 0
M  V30 1126 O 102.661 -1.72436 1.84451 0
M  V30 1127 C 103.974 1.40789 2.65705 0
M  V30 1128 C 105.522 1.40708 2.79589 0
M  V30 1129 C 105.997 2.26878 3.97857 0
M  V30 1130 N 107.488 2.24609 4.05099 0
M  V30 1131 C 108.223 2.88019 4.95815 0
M  V30 1132 N 107.719 3.60496 5.9162 0
M  V30 1133 N 109.512 2.77469 4.88843 0
M  V30 1134 H 101.663 1.79557 1.1346 0
M  V30 1135 H 103.926 0.766267 0.558156 0
M  V30 1136 H 103.632 2.454 2.51936 0
M  V30 1137 H 103.506 1.08677 3.61205 0
M  V30 1138 H 105.893 0.368668 2.92788 0
M  V30 1139 H 105.974 1.76829 1.84838 0
M  V30 1140 H 105.618 3.3078 3.85418 0
M  V30 1141 H 105.548 1.88096 4.91861 0
M  V30 1142 H 108.039 1.71906 3.36536 0
M  V30 1143 H 108.352 4.06076 6.57512 0
M  V30 1144 H 106.697 3.64604 5.91683 0
M  V30 1145 H 109.888 2.20406 4.12963 0
M  V30 1146 H 110.061 3.2717 5.59342 0
M  V30 1147 N 103.467 -1.45747 0.599634 0
M  V30 1148 C 104.43 -2.28917 -0.113835 0
M  V30 1149 C 105.43 -1.3933 -0.802729 0
M  V30 1150 O 106.62 -1.61534 -0.652103 0
M  V30 1151 C 103.752 -3.20152 -1.17114 0
M  V30 1152 H 104.945 -2.93478 0.617289 0
M  V30 1153 H 102.498 -1.52137 0.358327 0
M  V30 1154 H 103.233 -2.60374 -1.93329 0
M  V30 1155 H 103.018 -3.86133 -0.681468 0
M  V30 1156 H 104.508 -3.82708 -1.67105 0
M  V30 1157 N 104.945 -0.338344 -1.53925 0
M  V30 1158 C 105.875 0.51328 -2.27789 0
M  V30 1159 C 106.856 1.107 -1.29149 0
M  V30 1160 O 108.041 1.12937 -1.57984 0
M  V30 1161 C 105.171 1.66697 -3.04679 0
M  V30 1162 C 104.125 1.20183 -4.1078 0
M  V30 1163 C 103.451 2.44363 -4.75595 0
M  V30 1164 C 104.751 0.30605 -5.21403 0
M  V30 1165 H 106.445 -0.102883 -2.99223 0
M  V30 1166 H 103.991 -0.0509219 -1.4391 0
M  V30 1167 H 105.944 2.26915 -3.55088 0
M  V30 1168 H 104.668 2.30995 -2.30887 0
M  V30 1169 H 103.327 0.622499 -3.61276 0
M  V30 1170 H 102.975 3.07057 -3.98403 0
M  V30 1171 H 102.675 2.13925 -5.47275 0
M  V30 1172 H 104.199 3.05317 -5.28786 0
M  V30 1173 H 105.613 0.814929 -5.67478 0
M  V30 1174 H 104.01 0.0937929 -6.00027 0
M  V30 1175 H 105.08 -0.65921 -4.80398 0
M  V30 1176 N 106.423 1.57458 -0.0668435 0
M  V30 1177 C 107.333 2.15937 0.916975 0
M  V30 1178 C 108.349 1.12123 1.33058 0
M  V30 1179 O 109.525 1.44366 1.40429 0
M  V30 1180 C 106.59 2.70547 2.16807 0
M  V30 1181 C 105.651 3.89215 1.81135 0
M  V30 1182 C 104.884 4.41211 3.0028 0
M  V30 1183 O 105.107 3.92225 4.14144 0
M  V30 1184 O 104.041 5.32605 2.80384 0
M  V30 1185 H 107.867 3.00354 0.449561 0
M  V30 1186 H 105.452 1.48584 0.155949 0
M  V30 1187 H 107.334 3.0557 2.90181 0
M  V30 1188 H 106.009 1.89192 2.62656 0
M  V30 1189 H 104.916 3.59054 1.05028 0
M  V30 1190 H 106.249 4.71848 1.40073 0
M  V30 1191 N 107.901 -0.206675 1.56239 0
M  V30 1192 C 108.851 -1.26 1.90021 0
M  V30 1193 C 109.835 -1.41566 0.764721 0
M  V30 1194 O 111.027 -1.44131 1.02739 0
M  V30 1195 C 108.156 -2.6073 2.23326 0
M  V30 1196 C 107.242 -2.49005 3.43304 0
M  V30 1197 N 107.633 -2.06946 4.61527 0
M  V30 1198 C 105.931 -2.79927 3.47213 0
M  V30 1199 C 106.632 -2.06832 5.43687 0
M  V30 1200 N 105.608 -2.47892 4.83788 0
M  V30 1201 H 109.41 -0.925955 2.78932 0
M  V30 1202 H 106.924 -0.415172 1.57003 0
M  V30 1203 H 108.921 -3.36798 2.45708 0
M  V30 1204 H 107.581 -2.94968 1.35735 0
M  V30 1205 H 108.592 -1.77839 4.86409 0
M  V30 1206 H 105.269 -3.18438 2.70006 0
M  V30 1207 H 106.659 -1.76312 6.48354 0
M  V30 1208 N 109.379 -1.50304 -0.473955 0
M  V30 1209 C 110.342 -1.6841 -1.55469 0
M  V30 1210 C 111.342 -0.554905 -1.50922 0
M  V30 1211 O 112.532 -0.821882 -1.53593 0
M  V30 1212 C 109.664 -1.70667 -2.95102 0
M  V30 1213 H 110.857 -2.64828 -1.40733 0
M  V30 1214 H 108.41 -1.39742 -0.700132 0
M  V30 1215 H 109.145 -0.75932 -3.15285 0
M  V30 1216 H 108.93 -2.52698 -2.9981 0
M  V30 1217 H 110.42 -1.8664 -3.73571 0
M  V30 1218 N 110.857 0.726932 -1.39834 0
M  V30 1219 C 112.105 1.4837 -1.37225 0
M  V30 1220 C 112.426 1.94979 0.0284857 0
M  V30 1221 O 111.696 1.69555 0.981213 0
M  V30 1222 H 110.276 0.55043 -0.505011 0
M  V30 1223 H 112.938 0.862468 -1.74778 0
M  V30 1224 H 112.034 2.36198 -2.04003 0
M  V30 1225 N 112.336 1.25143 0.95797 0
M  V30 1226 C 113.582 1.09855 1.70469 0
M  V30 1227 C 113.915 -0.360187 1.90831 0
M  V30 1228 O 113.19 -1.26568 1.47685 0
M  V30 1229 C 113.473 1.8497 3.08963 0
M  V30 1230 C 113.326 3.38652 2.96032 0
M  V30 1231 C 114.645 1.63016 4.08795 0
M  V30 1232 H 111.764 0.400465 0.618706 0
M  V30 1233 H 114.406 1.53933 1.11376 0
M  V30 1234 H 112.556 1.47505 3.59409 0
M  V30 1235 H 114.228 3.85772 2.52938 0
M  V30 1236 H 112.471 3.66534 2.32025 0
M  V30 1237 H 113.142 3.8642 3.94187 0
M  V30 1238 H 115.618 1.95625 3.67247 0
M  V30 1239 H 114.494 2.18015 5.03747 0
M  V30 1240 H 114.755 0.570692 4.38401 0
M  V30 1241 N 113.814 -1.1601 1.06675 0
M  V30 1242 C 115.091 -1.82679 0.699114 0
M  V30 1243 C 115.471 -1.94559 -0.819137 0
M  V30 1244 O 114.819 -1.49169 -1.73092 0
M  V30 1245 C 115.029 -3.19445 1.40555 0
M  V30 1246 C 116.377 -3.95171 1.55323 0
M  V30 1247 O 117.401 -3.28976 1.36577 0
M  V30 1248 O 116.26 -5.13833 1.86112 0
M  V30 1249 H 113.354 -0.788954 0.247951 0
M  V30 1250 H 115.9 -1.23179 1.16726 0
M  V30 1251 H 114.672 -3.05856 2.44065 0
M  V30 1252 H 114.295 -3.86625 0.927733 0
M  V30 1253 N 115.292 -0.849877 -1.32721 0
M  V30 1254 C 116.703 -0.506188 -1.79707 0
M  V30 1255 C 117.054 0.975627 -1.70223 0
M  V30 1256 O 116.179 1.76078 -1.25799 0
M  V30 1257 C 116.774 -0.912044 -3.26293 0
M  V30 1258 C 115.333 -0.620326 -3.71253 0
M  V30 1259 C 114.48 -1.11439 -2.53922 0
M  V30 1260 H 117.431 -1.03754 -1.20087 0
M  V30 1261 H 117.452 -0.226493 -3.79825 0
M  V30 1262 H 116.964 -1.99057 -3.33164 0
M  V30 1263 H 115.065 0.447674 -3.69901 0
M  V30 1264 H 115.178 -1.18327 -4.64258 0
M  V30 1265 H 113.542 -0.534834 -2.49021 0
M  V30 1266 H 114.325 -2.19992 -2.6355 0
M  V30 1267 N 116.77 1.45427 -0.607355 0
M  V30 1268 C 117.733 2.28974 0.101693 0
M  V30 1269 C 118.733 1.39754 0.795329 0
M  V30 1270 O 119.923 1.61878 0.643527 0
M  V30 1271 C 117.055 3.20768 1.15414 0
M  V30 1272 H 118.248 2.93147 -0.632844 0
M  V30 1273 H 115.801 1.51945 -0.366391 0
M  V30 1274 H 116.536 2.61395 1.91945 0
M  V30 1275 H 116.321 3.86489 0.66098 0
M  V30 1276 H 117.811 3.83589 1.65073 0
M  V30 1277 N 118.248 0.346503 1.53744 0
M  V30 1278 C 119.158 -0.517293 2.28826 0
M  V30 1279 C 120.174 -1.10935 1.3405 0
M  V30 1280 O 121.35 -1.1244 1.6709 0
M  V30 1281 C 118.415 -1.65098 3.04866 0
M  V30 1282 C 117.476 -1.0884 4.15274 0
M  V30 1283 C 116.709 -2.16806 4.87679 0
M  V30 1284 O 116.932 -3.3758 4.59778 0
M  V30 1285 O 115.866 -1.80934 5.74061 0
M  V30 1286 H 119.692 0.0931396 3.03557 0
M  V30 1287 H 117.277 0.111458 1.48984 0
M  V30 1288 H 119.159 -2.31053 3.5241 0
M  V30 1289 H 117.834 -2.24717 2.32989 0
M  V30 1290 H 116.741 -0.3933 3.72027 0
M  V30 1291 H 118.074 -0.537036 4.89261 0
M  V30 1292 N 119.726 -1.57421 0.075193 0
M  V30 1293 C 120.975 -1.92794 -0.592731 0
M  V30 1294 C 121.288 -0.957478 -1.70563 0
M  V30 1295 O 122.494 -1.20417 -2.43335 0
M  V30 1296 C 120.95 -3.42495 -1.10569 0
M  V30 1297 C 120.558 -4.47994 -0.0236121 0
M  V30 1298 C 122.302 -3.86864 -1.74748 0
M  V30 1299 C 120.209 -5.88829 -0.550803 0
M  V30 1300 H 119.139 -0.719591 -0.225177 0
M  V30 1301 H 121.79 -1.82902 0.147978 0
M  V30 1302 H 120.172 -3.47471 -1.89947 0
M  V30 1303 H 121.346 -4.54637 0.751099 0
M  V30 1304 H 119.661 -4.13113 0.522159 0
M  V30 1305 H 122.258 -4.8947 -2.15229 0
M  V30 1306 H 122.601 -3.24417 -2.60882 0
M  V30 1307 H 123.134 -3.84504 -1.01986 0
M  V30 1308 H 119.873 -6.54929 0.273457 0
M  V30 1309 H 119.393 -5.85698 -1.29296 0
M  V30 1310 H 121.072 -6.38811 -1.02613 0
M  V30 1311 N 121.204 0.198386 -1.56346 0
M  V30 1312 C 122.481 0.944982 -1.71258 0
M  V30 1313 C 122.861 2.0151 -0.629048 0
M  V30 1314 O 122.209 2.25639 0.360473 0
M  V30 1315 C 122.419 1.5344 -3.1346 0
M  V30 1316 C 123.767 2.01778 -3.73591 0
M  V30 1317 O 124.791 1.63288 -3.16568 0
M  V30 1318 O 123.65 2.72594 -4.73661 0
M  V30 1319 H 120.744 0.442939 -0.69838 0
M  V30 1320 H 123.29 0.188342 -1.68652 0
M  V30 1321 H 122.062 0.762869 -3.83792 0
M  V30 1322 H 121.685 2.35596 -3.20282 0
M  V30 1323 N 122.682 1.50554 0.465978 0
M  V30 1324 C 123.612 1.72722 1.57128 0
M  V30 1325 C 124.593 0.576294 1.6004 0
M  V30 1326 O 125.778 0.81598 1.76225 0
M  V30 1327 C 122.908 1.82605 2.95419 0
M  V30 1328 C 121.862 2.97835 3.07373 0
M  V30 1329 C 121.188 2.92867 4.47363 0
M  V30 1330 C 122.488 4.38265 2.84114 0
M  V30 1331 H 124.182 2.65267 1.38829 0
M  V30 1332 H 121.728 1.2765 0.666441 0
M  V30 1333 H 123.681 1.96698 3.72677 0
M  V30 1334 H 122.405 0.866858 3.14886 0
M  V30 1335 H 121.064 2.83401 2.3255 0
M  V30 1336 H 120.712 1.94783 4.63755 0
M  V30 1337 H 120.412 3.70227 4.56296 0
M  V30 1338 H 121.936 3.09015 5.26633 0
M  V30 1339 H 123.35 4.53198 3.51118 0
M  V30 1340 H 121.747 5.17115 3.04487 0
M  V30 1341 H 122.817 4.50281 1.7993 0
M  V30 1342 N 124.16 -0.719506 1.40217 0
M  V30 1343 C 125.406 -1.48152 1.38488 0
M  V30 1344 C 125.739 -1.94195 -0.0141867 0
M  V30 1345 O 125.014 -1.67884 -0.982096 0
M  V30 1346 C 125.297 -2.71035 2.37091 0
M  V30 1347 C 125.15 -2.30912 3.86005 0
M  V30 1348 C 126.469 -3.73182 2.33288 0
M  V30 1349 H 123.588 -0.537395 0.504357 0
M  V30 1350 H 126.23 -0.821472 1.71324 0
M  V30 1351 H 124.38 -3.27352 2.0922 0
M  V30 1352 H 126.052 -1.80107 4.24687 0
M  V30 1353 H 124.295 -1.62958 4.02029 0
M  V30 1354 H 124.966 -3.18978 4.50508 0
M  V30 1355 H 127.442 -3.26485 2.57966 0
M  V30 1356 H 126.318 -4.56806 3.04334 0
M  V30 1357 H 126.579 -4.21202 1.34317 0
M  V30 1358 N 125.638 -1.25649 -0.95132 0
M  V30 1359 C 126.884 -1.10757 -1.69884 0
M  V30 1360 C 127.217 0.350061 -1.91019 0
M  V30 1361 O 126.492 1.25783 -1.48354 0
M  V30 1362 C 126.775 -1.86606 -3.07978 0
M  V30 1363 C 126.628 -3.40217 -2.94232 0
M  V30 1364 C 127.947 -1.65182 -4.07925 0
M  V30 1365 H 125.066 -0.40374 -0.616574 0
M  V30 1366 H 127.708 -1.54521 -1.10558 0
M  V30 1367 H 125.858 -1.49409 -3.58621 0
M  V30 1368 H 127.53 -3.87108 -2.50889 0
M  V30 1369 H 125.773 -3.67759 -2.30078 0
M  V30 1370 H 126.444 -3.88505 -3.92133 0
M  V30 1371 H 128.92 -1.9757 -3.66204 0
M  V30 1372 H 127.796 -2.20683 -5.02583 0
M  V30 1373 H 128.057 -0.593933 -4.38092 0
M  V30 1374 N 127.117 1.15442 -1.07289 0
M  V30 1375 C 128.363 1.86489 -0.796846 0
M  V30 1376 C 128.696 1.82078 0.675371 0
M  V30 1377 O 127.971 1.24346 1.4956 0
M  V30 1378 C 128.254 3.35626 -1.30489 0
M  V30 1379 C 128.107 3.48673 -2.84161 0
M  V30 1380 C 129.426 4.30357 -0.920907 0
M  V30 1381 H 126.545 0.677144 -0.290939 0
M  V30 1382 H 129.187 1.35633 -1.33056 0
M  V30 1383 H 127.337 3.79068 -0.850883 0
M  V30 1384 H 129.009 3.14099 -3.37846 0
M  V30 1385 H 127.252 2.90253 -3.22391 0
M  V30 1386 H 127.923 4.53453 -3.14777 0
M  V30 1387 H 130.399 3.94871 -1.3121 0
M  V30 1388 H 129.275 5.33193 -1.30372 0
M  V30 1389 H 129.536 4.4176 0.173226 0
M  V30 1390 N 128.595 0.856903 1.32268 0
M  V30 1391 C 129.82 0.474569 2.01897 0
M  V30 1392 C 130.245 -0.921766 1.63967 0
M  V30 1393 O 129.603 -1.60589 0.84148 0
M  V30 1394 C 129.651 0.623799 3.55164 0
M  V30 1395 O 128.755 -0.342459 4.10976 0
M  V30 1396 H 128.096 0.190422 0.63611 0
M  V30 1397 H 130.626 1.15672 1.68764 0
M  V30 1398 H 130.636 0.512169 4.04773 0
M  V30 1399 H 129.311 1.64202 3.82113 0
M  V30 1400 H 127.888 -0.18688 3.72431 0
M  V30 1401 N 130.073 -1.45103 0.615059 0
M  V30 1402 C 131.301 -2.06553 0.11977 0
M  V30 1403 C 131.716 -1.45842 -1.19898 0
M  V30 1404 O 131.073 -0.575325 -1.73194 0
M  V30 1405 C 131.124 -3.61495 -0.018364 0
M  V30 1406 O 130.845 -4.19942 1.24822 0
M  V30 1407 C 132.346 -4.39947 -0.544237 0
M  V30 1408 H 129.566 -0.667096 0.0722739 0
M  V30 1409 H 132.11 -1.8623 0.84491 0
M  V30 1410 H 130.265 -3.81135 -0.693865 0
M  V30 1411 H 130.679 -5.13204 1.0827 0
M  V30 1412 H 132.153 -5.48838 -0.589953 0
M  V30 1413 H 132.63 -4.10255 -1.56805 0
M  V30 1414 H 133.236 -4.25188 0.0974703 0
M  V30 1415 N 131.551 -0.354651 -1.53558 0
M  V30 1416 C 132.484 0.540273 -2.21712 0
M  V30 1417 C 133.462 1.09161 -1.2051 0
M  V30 1418 O 134.646 1.14979 -1.49372 0
M  V30 1419 C 131.773 1.74435 -2.90328 0
M  V30 1420 C 130.819 1.32146 -4.05512 0
M  V30 1421 S 131.652 0.331924 -5.3447 0
M  V30 1422 C 132.808 1.54258 -6.06593 0
M  V30 1423 H 133.041 -0.0385776 -2.97275 0
M  V30 1424 H 130.574 -0.138736 -1.53775 0
M  V30 1425 H 132.532 2.43507 -3.30476 0
M  V30 1426 H 131.193 2.29444 -2.1451 0
M  V30 1427 H 130.386 2.21952 -4.52497 0
M  V30 1428 H 129.988 0.710091 -3.67197 0
M  V30 1429 H 132.28 2.47534 -6.30661 0
M  V30 1430 H 133.223 1.11431 -6.99277 0
M  V30 1431 H 133.631 1.74367 -5.36895 0
M  V30 1432 N 133.029 1.57378 -0.0835403 0
M  V30 1433 C 134.257 1.98263 0.59157 0
M  V30 1434 C 134.672 0.962302 1.62435 0
M  V30 1435 O 134.029 -0.049581 1.82433 0
M  V30 1436 C 134.08 3.39214 1.24965 0
M  V30 1437 O 133.801 4.37339 0.258186 0
M  V30 1438 C 135.302 3.95038 2.01147 0
M  V30 1439 H 132.522 0.651773 0.159477 0
M  V30 1440 H 135.066 2.03878 -0.159415 0
M  V30 1441 H 133.221 3.34649 1.95164 0
M  V30 1442 H 133.635 5.19371 0.731734 0
M  V30 1443 H 135.109 4.95848 2.42567 0
M  V30 1444 H 135.586 3.32222 2.87272 0
M  V30 1445 H 136.192 4.0304 1.35789 0
M  V30 1446 N 134.507 -0.190092 1.56449 0
M  V30 1447 C 135.455 -1.25501 1.95837 0
M  V30 1448 C 136.449 -1.4685 0.844485 0
M  V30 1449 O 137.655 -1.47651 1.02952 0
M  V30 1450 H 134.03 -0.421447 0.622805 0
M  V30 1451 H 136.001 -0.895821 2.84636 0
M  V30 1452 C 134.75 -2.59124 2.31841 0
M  V30 1453 H 134.073 -2.43514 3.17082 0
M  V30 1454 H 135.513 -3.32371 2.6326 0
M  V30 1455 C 133.972 -3.16488 1.15486 0
M  V30 1456 O 134.502 -3.99365 0.432535 0
M  V30 1457 N 132.708 -2.75305 0.930349 0
M  V30 1458 H 132.255 -2.08013 1.51948 0
M  V30 1459 H 132.213 -3.14024 0.153634 0
M  V30 1460 N 135.985 -1.50799 -0.457987 0
M  V30 1461 C 137.232 -1.62442 -1.20908 0
M  V30 1462 C 137.56 -0.330865 -1.91665 0
M  V30 1463 O 136.815 0.68401 -1.83357 0
M  V30 1464 C 137.114 -2.76358 -2.2663 0
M  V30 1465 C 136.78 -4.16378 -1.73033 0
M  V30 1466 C 135.442 -4.54473 -1.58138 0
M  V30 1467 C 137.794 -5.03836 -1.33413 0
M  V30 1468 C 135.122 -5.77754 -1.02065 0
M  V30 1469 C 137.474 -6.27676 -0.78778 0
M  V30 1470 C 136.138 -6.64562 -0.625561 0
M  V30 1471 H 135.408 -0.594417 -0.442435 0
M  V30 1472 H 138.055 -1.84772 -0.503136 0
M  V30 1473 H 136.36 -2.48167 -3.03184 0
M  V30 1474 H 138.057 -2.82568 -2.84528 0
M  V30 1475 H 134.647 -3.86331 -1.85598 0
M  V30 1476 H 138.831 -4.75026 -1.4375 0
M  V30 1477 H 134.087 -6.04997 -0.882547 0
M  V30 1478 H 138.261 -6.94797 -0.472177 0
M  V30 1479 H 135.888 -7.59965 -0.188926 0
M  V30 1480 N 137.463 0.71206 -1.40597 0
M  V30 1481 C 138.709 1.47416 -1.39271 0
M  V30 1482 C 139.042 1.942 0.00388791 0
M  V30 1483 O 138.317 1.68403 0.973179 0
M  V30 1484 C 138.6 2.69774 -2.38525 0
M  V30 1485 C 138.453 2.28861 -3.87224 0
M  V30 1486 C 139.772 3.71939 -2.35264 0
M  V30 1487 H 136.891 0.534713 -0.5072 0
M  V30 1488 H 139.533 0.812375 -1.71757 0
M  V30 1489 H 137.683 3.26238 -2.10953 0
M  V30 1490 H 139.355 1.77852 -4.25636 0
M  V30 1491 H 137.598 1.60824 -4.02887 0
M  V30 1492 H 138.269 3.16584 -4.52193 0
M  V30 1493 H 140.745 3.25113 -2.59694 0
M  V30 1494 H 139.621 4.55186 -3.06753 0
M  V30 1495 H 139.882 4.20484 -1.36549 0
M  V30 1496 N 138.941 1.26152 0.944643 0
M  V30 1497 C 139.891 1.04081 2.02857 0
M  V30 1498 C 140.875 -0.0256555 1.6088 0
M  V30 1499 O 142.067 0.190884 1.75968 0
M  V30 1500 C 139.196 0.672118 3.36656 0
M  V30 1501 C 138.282 1.77586 3.85128 0
M  V30 1502 N 138.673 3.01272 4.06287 0
M  V30 1503 C 136.971 1.65867 4.1401 0
M  V30 1504 C 137.672 3.72983 4.46384 0
M  V30 1505 N 136.648 3.00653 4.52889 0
M  V30 1506 H 140.45 1.97968 2.17223 0
M  V30 1507 H 137.964 1.16618 1.13022 0
M  V30 1508 H 139.961 0.495166 4.13949 0
M  V30 1509 H 138.621 -0.259307 3.23663 0
M  V30 1510 H 139.632 3.37213 3.93075 0
M  V30 1511 H 136.309 0.796907 4.09824 0
M  V30 1512 H 137.699 4.792 4.70975 0
M  V30 1513 N 140.419 -1.14872 1.07899 0
M  V30 1514 C 141.647 -1.89661 0.82683 0
M  V30 1515 C 142.062 -1.78312 -0.620519 0
M  V30 1516 O 141.419 -1.13888 -1.42604 0
M  V30 1517 C 141.47 -3.39817 1.23316 0
M  V30 1518 O 141.191 -3.50845 2.62372 0
M  V30 1519 C 142.692 -4.31615 1.0111 0
M  V30 1520 H 139.912 -0.60092 0.298557 0
M  V30 1521 H 142.456 -1.4551 1.43691 0
M  V30 1522 H 140.611 -3.8161 0.667286 0
M  V30 1523 H 141.025 -4.44076 2.79101 0
M  V30 1524 H 142.499 -5.35367 1.34486 0
M  V30 1525 H 142.976 -4.39169 -0.0522168 0
M  V30 1526 H 143.582 -3.95572 1.56215 0
M  V30 1527 N 141.898 -0.863906 -1.31812 0
M  V30 1528 C 143.309 -0.52522 -1.7916 0
M  V30 1529 C 143.66 0.957518 -1.71248 0
M  V30 1530 O 142.785 1.74734 -1.27659 0
M  V30 1531 C 143.38 -0.9466 -3.25307 0
M  V30 1532 C 141.939 -0.659668 -3.70574 0
M  V30 1533 C 141.086 -1.14126 -2.52726 0
M  V30 1534 H 144.037 -1.05022 -1.1898 0
M  V30 1535 H 144.058 -0.266766 -3.79564 0
M  V30 1536 H 143.57 -2.02579 -3.31034 0
M  V30 1537 H 141.671 0.408416 -3.70355 0
M  V30 1538 H 141.784 -1.23245 -4.62977 0
M  V30 1539 H 140.148 -0.561216 -2.4844 0
M  V30 1540 H 140.931 -2.22775 -2.61201 0
M  V30 1541 N 143.376 1.44774 -0.622745 0
M  V30 1542 C 144.787 1.85546 -0.207226 0
M  V30 1543 C 145.138 1.52093 1.23944 0
M  V30 1544 O 144.263 0.95492 1.94191 0
M  V30 1545 C 144.858 3.36781 -0.369313 0
M  V30 1546 C 143.417 3.76399 -0.00836847 0
M  V30 1547 C 142.564 2.68664 -0.686651 0
M  V30 1548 H 145.515 1.3536 -0.828454 0
M  V30 1549 H 145.536 3.78453 0.394162 0
M  V30 1550 H 145.048 3.61098 -1.42231 0
M  V30 1551 H 143.149 3.57698 1.04322 0
M  V30 1552 H 143.262 4.7732 -0.412584 0
M  V30 1553 H 141.626 2.54404 -0.122777 0
M  V30 1554 H 142.409 2.95815 -1.74208 0
M  V30 1555 N 144.854 0.36279 1.53368 0
M  V30 1556 C 145.784 -0.476976 2.28576 0
M  V30 1557 C 146.765 -1.08631 1.30894 0
M  V30 1558 O 147.95 -1.10409 1.59761 0
M  V30 1559 C 145.08 -1.61828 3.07293 0
M  V30 1560 C 144.034 -1.13633 4.1264 0
M  V30 1561 C 143.36 -2.36766 4.79423 0
M  V30 1562 C 144.66 -0.223061 5.21823 0
M  V30 1563 H 146.354 0.150474 2.99022 0
M  V30 1564 H 143.9 0.0738103 1.43811 0
M  V30 1565 H 145.853 -2.21237 3.58653 0
M  V30 1566 H 144.577 -2.27292 2.34533 0
M  V30 1567 H 143.236 -0.564945 3.62221 0
M  V30 1568 H 142.884 -3.0068 4.03238 0
M  V30 1569 H 142.584 -2.05192 5.50609 0
M  V30 1570 H 144.108 -2.96865 5.33576 0
M  V30 1571 H 145.522 -0.724545 5.68703 0
M  V30 1572 H 143.919 0.001678 6.001 0
M  V30 1573 H 144.989 0.735553 4.79289 0
M  V30 1574 N 146.332 -1.57332 0.0918853 0
M  V30 1575 C 147.557 -1.98995 -0.584442 0
M  V30 1576 C 147.982 -0.970528 -1.61128 0
M  V30 1577 O 147.34 0.0613904 -1.81196 0
M  V30 1578 C 147.388 -3.39636 -1.21161 0
M  V30 1579 O 146.492 -3.40447 -2.32744 0
M  V30 1580 H 145.833 -0.647165 -0.148572 0
M  V30 1581 H 148.363 -2.03873 0.172347 0
M  V30 1582 H 148.373 -3.7726 -1.55367 0
M  V30 1583 H 147.048 -4.13356 -0.459313 0
M  V30 1584 H 145.625 -3.14614 -2.0018 0
M  V30 1585 N 147.81 0.181792 -1.56548 0
M  V30 1586 C 149.056 0.901431 -1.81665 0
M  V30 1587 C 149.389 1.82347 -0.668075 0
M  V30 1588 O 148.664 1.91669 0.330615 0
M  V30 1589 C 148.947 1.70618 -3.17115 0
M  V30 1590 C 148.8 0.807964 -4.42484 0
M  V30 1591 C 150.119 2.67605 -3.49393 0
M  V30 1592 H 147.238 0.32627 -0.660846 0
M  V30 1593 H 149.88 0.168134 -1.89255 0
M  V30 1594 H 148.03 2.33133 -3.10775 0
M  V30 1595 H 149.702 0.19649 -4.60881 0
M  V30 1596 H 147.945 0.115411 -4.33646 0
M  V30 1597 H 148.616 1.40632 -5.33785 0
M  V30 1598 H 151.092 2.15218 -3.56118 0
M  V30 1599 H 149.968 3.20985 -4.45264 0
M  V30 1600 H 150.229 3.47298 -2.73563 0
M  V30 1601 N 149.288 1.51039 0.449983 0
M  V30 1602 C 150.251 1.70863 1.5277 0
M  V30 1603 C 151.251 0.578846 1.5002 0
M  V30 1604 O 152.441 0.846213 1.52266 0
M  V30 1605 C 149.573 1.75341 2.9235 0
M  V30 1606 H 150.766 2.67034 1.36502 0
M  V30 1607 H 148.319 1.40838 0.677812 0
M  V30 1608 H 149.054 0.809383 3.14037 0
M  V30 1609 H 148.839 2.57436 2.95752 0
M  V30 1610 H 150.329 1.92559 3.70555 0
M  V30 1611 N 150.766 -0.704594 1.40972 0
M  V30 1612 C 152.015 -1.46018 1.39146 0
M  V30 1613 C 152.328 -1.956 0.000589254 0
M  V30 1614 O 153.534 -2.71137 -0.1403 0
M  V30 1615 C 151.99 -2.63996 2.4461 0
M  V30 1616 C 151.598 -2.21238 3.89561 0
M  V30 1617 C 153.342 -3.41677 2.51907 0
M  V30 1618 C 151.249 -3.3612 4.86598 0
M  V30 1619 H 150.179 -0.548444 0.517422 0
M  V30 1620 H 152.83 -0.765784 1.66757 0
M  V30 1621 H 151.212 -3.3566 2.10115 0
M  V30 1622 H 152.386 -1.56923 4.33257 0
M  V30 1623 H 150.701 -1.56574 3.85841 0
M  V30 1624 H 153.298 -4.27182 3.2159 0
M  V30 1625 H 153.641 -3.86247 1.55303 0
M  V30 1626 H 154.174 -2.77064 2.85448 0
M  V30 1627 H 150.913 -2.96572 5.84573 0
M  V30 1628 H 150.433 -3.99315 4.47557 0
M  V30 1629 H 152.112 -4.02029 5.06934 0
M  V30 1630 N 152.244 -1.26651 -0.937939 0
M  V30 1631 C 153.207 -1.08546 -2.01867 0
M  V30 1632 C 154.207 -0.0327327 -1.60767 0
M  V30 1633 O 155.397 -0.276427 -1.71993 0
M  V30 1634 C 152.529 -0.651711 -3.34613 0
M  V30 1635 H 153.722 -2.04502 -2.1936 0
M  V30 1636 H 151.275 -1.09294 -1.11734 0
M  V30 1637 H 152.01 0.309696 -3.22818 0
M  V30 1638 H 151.795 -1.41189 -3.65798 0
M  V30 1639 H 153.285 -0.546973 -4.14002 0
M  V30 1640 N 153.722 1.14298 -1.08507 0
M  V30 1641 C 154.672 2.17449 -0.685569 0
M  V30 1642 C 155.656 1.58167 0.295315 0
M  V30 1643 O 156.848 1.76675 0.107172 0
M  V30 1644 C 153.977 3.43161 -0.0975318 0
M  V30 1645 C 153.063 4.09471 -1.10426 0
M  V30 1646 N 153.454 4.51089 -2.28806 0
M  V30 1647 C 151.752 4.35976 -0.940258 0
M  V30 1648 C 152.453 5.02654 -2.9277 0
M  V30 1649 N 151.429 4.96927 -2.20374 0
M  V30 1650 H 155.231 2.47369 -1.587 0
M  V30 1651 H 152.745 1.30992 -0.959936 0
M  V30 1652 H 154.742 4.16388 0.20664 0
M  V30 1653 H 153.402 3.14719 0.798872 0
M  V30 1654 H 154.413 4.44097 -2.66455 0
M  V30 1655 H 151.09 4.17386 -0.0977441 0
M  V30 1656 H 152.48 5.44723 -3.93352 0
M  V30 1657 N 155.201 0.870884 1.31352 0
M  V30 1658 C 156.111 0.330783 2.32256 0
M  V30 1659 C 157.127 -0.559767 1.6475 0
M  V30 1660 O 158.303 -0.456263 1.96164 0
M  V30 1661 C 155.368 -0.458137 3.4366 0
M  V30 1662 C 154.429 0.460482 4.26823 0
M  V30 1663 C 153.662 -0.290881 5.32907 0
M  V30 1664 O 153.885 -1.51885 5.49806 0
M  V30 1665 O 152.819 0.351732 6.00871 0
M  V30 1666 H 156.645 1.16718 2.80376 0
M  V30 1667 H 154.23 0.634285 1.35267 0
M  V30 1668 H 156.112 -0.905343 4.1156 0
M  V30 1669 H 154.787 -1.27106 2.97701 0
M  V30 1670 H 153.694 0.956207 3.61673 0
M  V30 1671 H 155.027 1.23903 4.7635 0
M  V30 1672 N 156.679 -1.44442 0.630414 0
M  V30 1673 C 157.609 -2.33418 -0.0618083 0
M  V30 1674 C 158.59 -1.48165 -0.835541 0
M  V30 1675 O 159.775 -1.76886 -0.801564 0
M  V30 1676 C 156.905 -3.31222 -1.04449 0
M  V30 1677 C 155.859 -4.26288 -0.382436 0
M  V30 1678 C 155.185 -5.13954 -1.47497 0
M  V30 1679 C 156.485 -5.1744 0.710865 0
M  V30 1680 H 158.179 -2.91548 0.681184 0
M  V30 1681 H 155.725 -1.40191 0.329026 0
M  V30 1682 H 157.678 -3.92351 -1.53748 0
M  V30 1683 H 156.402 -2.71299 -1.81836 0
M  V30 1684 H 155.061 -3.6649 0.0899054 0
M  V30 1685 H 154.709 -4.50385 -2.2397 0
M  V30 1686 H 154.409 -5.7837 -1.03737 0
M  V30 1687 H 155.933 -5.77955 -1.96979 0
M  V30 1688 H 157.347 -5.72509 0.300996 0
M  V30 1689 H 155.744 -5.90455 1.07156 0
M  V30 1690 H 156.814 -4.58496 1.57829 0
M  V30 1691 N 158.157 -0.370918 -1.53173 0
M  V30 1692 C 159.405 0.216673 -2.00935 0
M  V30 1693 C 159.726 1.48845 -1.25977 0
M  V30 1694 O 158.996 1.92286 -0.374551 0
M  V30 1695 H 157.576 0.0830565 -0.742368 0
M  V30 1696 H 160.238 -0.49838 -1.8842 0
M  V30 1697 H 159.334 0.439893 -3.08984 0
M  V30 1698 N 159.635 1.57281 -0.100228 0
M  V30 1699 C 160.598 2.13158 0.842398 0
M  V30 1700 C 161.598 1.06202 1.20738 0
M  V30 1701 O 162.788 1.32066 1.13597 0
M  V30 1702 C 159.92 2.65639 2.13655 0
M  V30 1703 H 161.113 2.97766 0.357114 0
M  V30 1704 H 158.666 1.5559 0.148823 0
M  V30 1705 H 159.401 1.84566 2.66657 0
M  V30 1706 H 159.186 3.43844 1.88451 0
M  V30 1707 H 160.676 3.08846 2.81077 0
M  V30 1708 N 161.113 -0.173488 1.56642 0
M  V30 1709 C 162.39 -0.917617 1.7274 0
M  V30 1710 C 162.77 -2.00484 0.661027 0
M  V30 1711 O 162.118 -2.26184 -0.32453 0
M  V30 1712 C 162.328 -1.48433 3.15862 0
M  V30 1713 C 163.676 -1.95809 3.76754 0
M  V30 1714 O 164.7 -1.58231 3.19126 0
M  V30 1715 O 163.559 -2.65024 4.77938 0
M  V30 1716 H 160.653 -0.431772 0.705338 0
M  V30 1717 H 163.199 -0.161487 1.6893 0
M  V30 1718 H 161.971 -0.701715 3.84957 0
M  V30 1719 H 161.594 -2.30471 3.23989 0
M  V30 1720 N 162.591 -1.51276 -0.441967 0
M  V30 1721 C 163.539 -1.72823 -1.55676 0
M  V30 1722 C 164.533 -0.59445 -1.58627 0
M  V30 1723 O 165.739 -0.775715 -1.62427 0
M  V30 1724 H 162.114 -0.545983 -0.517113 0
M  V30 1725 H 164.085 -2.6628 -1.34675 0
M  V30 1726 C 162.834 -1.86619 -2.93375 0
M  V30 1727 H 162.157 -2.73264 -2.91834 0
M  V30 1728 H 163.597 -2.05709 -3.70756 0
M  V30 1729 C 162.056 -0.624842 -3.31055 0
M  V30 1730 O 162.586 0.222636 -4.01083 0
M  V30 1731 N 160.792 -0.470288 -2.86769 0
M  V30 1732 H 160.339 -1.161 -2.29953 0
M  V30 1733 H 160.297 0.359051 -3.12343 0
M  V30 1734 N 164.069 0.697108 -1.41344 0
M  V30 1735 C 165.032 1.79281 -1.42797 0
M  V30 1736 C 166.032 1.57607 -0.318837 0
M  V30 1737 O 167.222 1.64309 -0.578642 0
M  V30 1738 C 164.354 3.17632 -1.23785 0
M  V30 1739 H 165.547 1.79385 -2.40335 0
M  V30 1740 H 163.1 0.904582 -1.27464 0
M  V30 1741 H 163.835 3.23167 -0.270814 0
M  V30 1742 H 163.62 3.34765 -2.04144 0
M  V30 1743 H 165.11 3.97617 -1.27633 0
M  V30 1744 N 165.547 1.27147 0.931209 0
M  V30 1745 C 166.795 1.13055 1.6752 0
M  V30 1746 C 167.116 -0.324791 1.92276 0
M  V30 1747 O 166.386 -1.22775 1.52654 0
M  V30 1748 H 164.966 0.415391 0.620854 0
M  V30 1749 H 167.628 1.59623 1.11833 0
M  V30 1750 H 166.724 1.65694 2.64485 0
M  V30 1751 N 167.025 -1.13721 1.09112 0
M  V30 1752 C 168.273 -1.84559 0.823562 0
M  V30 1753 C 168.594 -1.83754 -0.652658 0
M  V30 1754 O 167.864 -1.29102 -1.47342 0
M  V30 1755 H 166.444 -0.683376 0.301673 0
M  V30 1756 H 169.106 -1.37771 1.37859 0
M  V30 1757 H 168.202 -2.8917 1.17419 0
M  V30 1758 N 168.503 -0.877838 -1.30888 0
M  V30 1759 C 169.75 -0.492696 -1.96415 0
M  V30 1760 C 170.078 0.956671 -1.69346 0
M  V30 1761 O 169.333 1.68993 -0.986913 0
M  V30 1762 C 169.632 -0.705748 -3.50363 0
M  V30 1763 C 169.298 -2.1291 -3.97467 0
M  V30 1764 C 167.96 -2.51834 -4.1004 0
M  V30 1765 C 170.312 -3.05702 -4.22132 0
M  V30 1766 C 167.64 -3.82775 -4.44635 0
M  V30 1767 C 169.992 -4.36166 -4.58194 0
M  V30 1768 C 168.656 -4.74993 -4.68975 0
M  V30 1769 H 167.926 -0.18029 -0.718733 0
M  V30 1770 H 170.573 -1.11233 -1.55883 0
M  V30 1771 H 168.878 -0.00303058 -3.918 0
M  V30 1772 H 170.575 -0.387456 -3.99124 0
M  V30 1773 H 167.165 -1.81694 -3.88182 0
M  V30 1774 H 171.349 -2.76853 -4.11906 0
M  V30 1775 H 166.605 -4.12609 -4.51181 0
M  V30 1776 H 170.779 -5.08111 -4.76231 0
M  V30 1777 H 168.406 -5.76495 -4.95537 0
M  V30 1778 N 169.982 1.44106 -0.638065 0
M  V30 1779 C 171.259 1.95453 -0.0759321 0
M  V30 1780 C 171.639 1.57984 1.40015 0
M  V30 1781 O 170.987 0.857361 2.11806 0
M  V30 1782 C 171.197 3.47655 -0.306132 0
M  V30 1783 C 172.545 4.24114 -0.203008 0
M  V30 1784 O 173.569 3.55405 -0.237871 0
M  V30 1785 O 172.428 5.46381 -0.113827 0
M  V30 1786 H 169.522 0.826797 0.0183332 0
M  V30 1787 H 172.068 1.54122 -0.710251 0
M  V30 1788 H 170.84 3.68 -1.3301 0
M  V30 1789 H 170.463 3.95949 0.361991 0
M  V30 1790 N 171.46 0.379036 1.52974 0
M  V30 1791 C 172.39 -0.452706 2.29069 0
M  V30 1792 C 173.371 -1.07237 1.32039 0
M  V30 1793 O 174.556 -1.08708 1.60923 0
M  V30 1794 C 171.686 -1.5856 3.08992 0
M  V30 1795 C 170.64 -1.0925 4.13822 0
M  V30 1796 C 169.966 -2.31668 4.81907 0
M  V30 1797 C 171.266 -0.167702 5.22031 0
M  V30 1798 H 172.96 0.182181 2.98845 0
M  V30 1799 H 170.506 0.0890592 1.43724 0
M  V30 1800 H 172.459 -2.1742 3.6098 0
M  V30 1801 H 171.183 -2.24792 2.36931 0
M  V30 1802 H 169.842 -0.526494 3.628 0
M  V30 1803 H 169.49 -2.96386 4.06404 0
M  V30 1804 H 169.19 -1.9934 5.52754 0
M  V30 1805 H 170.714 -2.91189 5.36695 0
M  V30 1806 H 172.128 -0.664186 5.6944 0
M  V30 1807 H 170.525 0.0653265 6.00064 0
M  V30 1808 H 171.595 0.786347 4.78482 0
M  V30 1809 N 172.938 -1.57226 0.108567 0
M  V30 1810 C 174.163 -1.99604 -0.563303 0
M  V30 1811 C 174.588 -0.987563 -1.6009 0
M  V30 1812 O 173.946 0.0421687 -1.81251 0
M  V30 1813 C 173.994 -3.40902 -1.17552 0
M  V30 1814 O 173.098 -3.42896 -2.2912 0
M  V30 1815 H 172.439 -0.648704 -0.1417 0
M  V30 1816 H 174.969 -2.03679 0.193961 0
M  V30 1817 H 174.979 -3.78886 -1.51357 0
M  V30 1818 H 173.654 -4.1382 -0.415445 0
M  V30 1819 H 172.231 -3.1672 -1.96832 0
M  V30 1820 N 174.416 0.165178 -1.56732 0
M  V30 1821 C 175.379 1.18822 -1.95995 0
M  V30 1822 C 176.379 1.3685 -0.84431 0
M  V30 1823 O 177.569 1.34152 -1.11126 0
M  V30 1824 C 174.701 2.5521 -2.26011 0
M  V30 1825 H 175.894 0.851825 -2.87548 0
M  V30 1826 H 173.447 0.407857 -1.50885 0
M  V30 1827 H 174.182 2.93852 -1.37191 0
M  V30 1828 H 173.967 2.43489 -3.07336 0
M  V30 1829 H 175.457 3.28927 -2.57288 0
M  V30 1830 N 175.894 1.51508 0.433938 0
M  V30 1831 C 176.857 1.72473 1.50949 0
M  V30 1832 C 177.857 0.594725 1.49398 0
M  V30 1833 O 179.047 0.862315 1.5136 0
M  V30 1834 C 176.179 1.78431 2.90474 0
M  V30 1835 H 177.372 2.68467 1.33662 0
M  V30 1836 H 174.925 1.41549 0.662836 0
M  V30 1837 H 175.66 0.842645 3.13161 0
M  V30 1838 H 175.445 2.60558 2.93005 0
M  V30 1839 H 176.935 1.96479 3.68491 0
M  V30 1840 N 177.372 -0.689602 1.41712 0
M  V30 1841 C 178.612 -1.46184 1.42862 0
M  V30 1842 C 178.976 -1.91962 0.0382204 0
M  V30 1843 O 180.177 -2.68694 -0.0755019 0
M  V30 1844 C 178.448 -2.6371 2.4123 0
M  V30 1845 S 180.007 -3.52768 2.6096 0
M  V30 1846 H 176.825 -0.49947 0.506015 0
M  V30 1847 H 179.427 -0.804107 1.78198 0
M  V30 1848 H 178.131 -2.28293 3.41044 0
M  V30 1849 H 177.662 -3.3437 2.07269 0
M  V30 1850 H 179.677 -4.59146 1.88148 0
M  V30 1851 N 178.85 -1.27639 -0.924453 0
M  V30 1852 C 179.813 -1.10681 -2.00705 0
M  V30 1853 C 180.813 -0.0497823 -1.60723 0
M  V30 1854 O 182.003 -0.294654 -1.7169 0
M  V30 1855 C 179.135 -0.687164 -3.33902 0
M  V30 1856 H 180.328 -2.06817 -2.17179 0
M  V30 1857 H 177.881 -1.10473 -1.10569 0
M  V30 1858 H 178.616 0.275439 -3.23128 0
M  V30 1859 H 178.401 -1.45061 -3.6428 0
M  V30 1860 H 179.891 -0.590853 -4.13399 0
M  V30 1861 N 180.328 1.1314 -1.09713 0
M  V30 1862 C 181.576 1.84119 -0.833338 0
M  V30 1863 C 181.897 1.84097 0.642904 0
M  V30 1864 O 181.167 1.29881 1.46655 0
M  V30 1865 H 179.747 0.681766 -0.305293 0
M  V30 1866 H 182.409 1.37038 -1.38588 0
M  V30 1867 H 181.505 2.88543 -1.18951 0
M  V30 1868 N 181.806 0.884767 1.30421 0
M  V30 1869 C 183.053 0.503105 1.96151 0
M  V30 1870 C 183.381 -0.947676 1.69851 0
M  V30 1871 O 182.636 -1.68467 0.995861 0
M  V30 1872 C 182.935 0.724318 3.49983 0
M  V30 1873 C 182.601 2.15015 3.96332 0
M  V30 1874 C 181.263 2.54005 4.08699 0
M  V30 1875 C 183.615 3.07936 4.20505 0
M  V30 1876 C 180.943 3.85128 4.42599 0
M  V30 1877 C 183.295 4.3859 4.55874 0
M  V30 1878 C 181.959 4.77474 4.66449 0
M  V30 1879 H 181.229 0.184099 0.717766 0
M  V30 1880 H 183.876 1.12058 1.55291 0
M  V30 1881 H 182.181 0.0238086 3.91793 0
M  V30 1882 H 183.878 0.408617 3.98913 0
M  V30 1883 H 180.468 1.8375 3.87213 0
M  V30 1884 H 184.652 2.79033 4.10431 0
M  V30 1885 H 179.908 4.14996 4.48986 0
M  V30 1886 H 184.082 5.10629 4.7353 0
M  V30 1887 H 181.709 5.79115 4.92473 0
M  V30 1888 N 183.284 -1.43765 0.645699 0
M  V30 1889 C 184.524 -2.03776 0.159542 0
M  V30 1890 C 184.888 -1.49792 -1.2011 0
M  V30 1891 O 186.089 -2.01398 -1.78023 0
M  V30 1892 C 184.36 -3.57036 0.161251 0
M  V30 1893 S 185.919 -4.3804 -0.258159 0
M  V30 1894 H 182.737 -0.707717 0.0682454 0
M  V30 1895 H 185.339 -1.75941 0.852352 0
M  V30 1896 H 184.043 -3.9383 1.15439 0
M  V30 1897 H 183.574 -3.89503 -0.552339 0
M  V30 1898 H 185.589 -4.7302 -1.49889 0
M  V30 1899 N 184.763 -0.387143 -1.52771 0
M  V30 1900 C 185.713 0.465942 -2.23188 0
M  V30 1901 C 186.697 1.03138 -1.23496 0
M  V30 1902 O 187.889 0.957845 -1.48843 0
M  V30 1903 C 185.018 1.59384 -3.04059 0
M  V30 1904 C 184.104 1.04024 -4.11144 0
M  V30 1905 N 184.495 0.211416 -5.05358 0
M  V30 1906 C 182.793 1.31295 -4.26237 0
M  V30 1907 C 183.494 -0.0941698 -5.81624 0
M  V30 1908 N 182.47 0.509207 -5.4121 0
M  V30 1909 H 186.272 -0.173856 -2.93385 0
M  V30 1910 H 183.786 -0.19633 -1.61209 0
M  V30 1911 H 185.783 2.21738 -3.53041 0
M  V30 1912 H 184.443 2.23648 -2.35397 0
M  V30 1913 H 185.454 -0.151151 -5.17679 0
M  V30 1914 H 182.131 1.95679 -3.68803 0
M  V30 1915 H 183.521 -0.765572 -6.67524 0
M  V30 1916 N 186.241 1.57166 -0.116904 0
M  V30 1917 C 187.204 2.14039 0.819742 0
M  V30 1918 C 188.204 1.07477 1.19605 0
M  V30 1919 O 189.394 1.33263 1.1219 0
M  V30 1920 C 186.526 2.67891 2.10826 0
M  V30 1921 H 187.719 2.98128 0.325511 0
M  V30 1922 H 185.272 1.55739 0.132312 0
M  V30 1923 H 186.007 1.87384 2.64685 0
M  V30 1924 H 185.792 3.45823 1.84793 0
M  V30 1925 H 187.282 3.11809 2.77785 0
M  V30 1926 N 187.719 -0.156864 1.56817 0
M  V30 1927 C 188.649 -1.19589 2.00551 0
M  V30 1928 C 189.63 -1.4536 0.883426 0
M  V30 1929 O 190.815 -1.56449 1.15054 0
M  V30 1930 C 187.945 -2.53143 2.37773 0
M  V30 1931 C 186.899 -2.41913 3.53075 0
M  V30 1932 C 186.225 -3.80088 3.76081 0
M  V30 1933 C 187.525 -1.91157 4.86062 0
M  V30 1934 H 189.219 -0.832293 2.87599 0
M  V30 1935 H 186.765 -0.398918 1.38364 0
M  V30 1936 H 188.718 -3.26047 2.66967 0
M  V30 1937 H 187.442 -2.91319 1.4765 0
M  V30 1938 H 186.101 -1.71462 3.24031 0
M  V30 1939 H 185.749 -4.15683 2.83225 0
M  V30 1940 H 185.449 -3.73439 4.53671 0
M  V30 1941 H 186.973 -4.54556 4.0769 0
M  V30 1942 H 188.387 -2.53846 5.14038 0
M  V30 1943 H 186.784 -1.95422 5.67389 0
M  V30 1944 H 187.854 -0.866673 4.77092 0
M  V30 1945 N 189.197 -1.51736 -0.425897 0
M  V30 1946 C 190.422 -1.69082 -1.20108 0
M  V30 1947 C 190.847 -0.392398 -1.83962 0
M  V30 1948 O 190.205 0.64858 -1.69302 0
M  V30 1949 C 190.253 -2.81604 -2.25237 0
M  V30 1950 O 189.357 -2.46004 -3.30992 0
M  V30 1951 H 188.698 -0.563408 -0.35138 0
M  V30 1952 H 191.228 -1.98358 -0.501512 0
M  V30 1953 H 191.238 -3.06025 -2.69838 0
M  V30 1954 H 189.913 -3.75817 -1.78142 0
M  V30 1955 H 188.49 -2.32195 -2.91787 0
M  V30 1956 N 190.675 0.682077 -1.42076 0
M  V30 1957 C 191.924 1.43786 -1.41451 0
M  V30 1958 C 192.237 1.95574 -0.0317074 0
M  V30 1959 O 193.443 2.71326 0.0971462 0
M  V30 1960 C 191.899 2.60071 -2.48779 0
M  V30 1961 C 191.507 2.15013 -3.93031 0
M  V30 1962 C 193.251 3.37626 -2.57311 0
M  V30 1963 C 191.158 3.28336 -4.91883 0
M  V30 1964 H 190.088 0.540143 -0.526082 0
M  V30 1965 H 192.739 0.739157 -1.67955 0
M  V30 1966 H 191.121 3.32275 -2.15429 0
M  V30 1967 H 192.295 1.5001 -4.35699 0
M  V30 1968 H 190.61 1.50416 -3.88284 0
M  V30 1969 H 193.207 4.22012 -3.28345 0
M  V30 1970 H 193.55 3.83727 -1.61429 0
M  V30 1971 H 194.083 2.72488 -2.89819 0
M  V30 1972 H 190.822 2.87234 -5.89217 0
M  V30 1973 H 190.342 3.92145 -4.53853 0
M  V30 1974 H 192.021 3.93913 -5.13265 0
M  V30 1975 N 192.153 1.28127 0.917671 0
M  V30 1976 C 193.116 1.11744 2.00115 0
M  V30 1977 C 194.116 0.0583052 1.60694 0
M  V30 1978 O 195.306 0.303755 1.71531 0
M  V30 1979 C 192.438 0.704862 3.33533 0
M  V30 1980 H 193.631 2.07966 2.16079 0
M  V30 1981 H 191.184 1.11058 1.09981 0
M  V30 1982 H 191.919 -0.258299 3.2327 0
M  V30 1983 H 191.704 1.4699 3.63505 0
M  V30 1984 H 193.194 0.612768 4.1308 0
M  V30 1985 N 193.631 -1.12557 1.10312 0
M  V30 1986 C 194.594 -2.16434 0.75424 0
M  V30 1987 C 195.594 -1.59278 -0.220685 0
M  V30 1988 O 196.784 -1.742 0.00230591 0
M  V30 1989 C 193.916 -3.40699 0.116987 0
M  V30 1990 H 195.109 -2.48811 1.67431 0
M  V30 1991 H 192.662 -1.27542 0.903475 0
M  V30 1992 H 193.397 -3.13921 -0.813877 0
M  V30 1993 H 193.182 -3.83459 0.818613 0
M  V30 1994 H 194.672 -4.17451 -0.111387 0
M  V30 1995 N 195.109 -0.891671 -1.2995 0
M  V30 1996 C 196.386 -0.433307 -1.9074 0
M  V30 1997 C 196.766 1.08646 -1.80995 0
M  V30 1998 O 196.114 1.92476 -1.23147 0
M  V30 1999 C 196.324 -0.938895 -3.36134 0
M  V30 2000 C 197.672 -0.977829 -4.13187 0
M  V30 2001 O 198.696 -0.886015 -3.45005 0
M  V30 2002 O 197.555 -1.11453 -5.35015 0
M  V30 2003 H 194.649 -0.133699 -0.816121 0
M  V30 2004 H 197.195 -0.981011 -1.38471 0
M  V30 2005 H 195.967 -1.98281 -3.37343 0
M  V30 2006 H 195.59 -0.37074 -3.95868 0
M  V30 2007 N 196.587 1.43421 -0.653314 0
M  V30 2008 C 197.55 2.29182 0.0287951 0
M  V30 2009 C 198.55 1.42213 0.750465 0
M  V30 2010 O 199.74 1.63843 0.591701 0
M  V30 2011 C 196.872 3.24278 1.05151 0
M  V30 2012 H 198.065 2.90985 -0.725786 0
M  V30 2013 H 195.618 1.50702 -0.414545 0
M  V30 2014 H 196.353 2.6737 1.83532 0
M  V30 2015 H 196.138 3.88396 0.537687 0
M  V30 2016 H 197.628 3.88647 1.52786 0
M  V30 2017 N 198.065 0.39524 1.52563 0
M  V30 2018 C 199.311 -0.185318 2.01952 0
M  V30 2019 C 199.644 -1.45964 1.28095 0
M  V30 2020 O 198.919 -1.90689 0.38315 0
M  V30 2021 C 199.202 -0.447193 3.57312 0
M  V30 2022 C 199.055 0.842828 4.41833 0
M  V30 2023 C 200.374 -1.23529 4.22408 0
M  V30 2024 H 197.493 -0.0658788 0.73405 0
M  V30 2025 H 200.135 0.525975 1.82575 0
M  V30 2026 H 198.285 -1.05312 3.73954 0
M  V30 2027 H 199.957 1.4795 4.36931 0
M  V30 2028 H 198.2 1.45686 4.08605 0
M  V30 2029 H 198.871 0.614165 5.48573 0
M  V30 2030 H 201.347 -0.722445 4.0978 0
M  V30 2031 H 200.223 -1.38727 5.3108 0
M  V30 2032 H 200.484 -2.25213 3.80436 0
M  V30 2033 N 199.544 -1.57102 0.125237 0
M  V30 2034 C 200.454 -2.19191 -0.8362 0
M  V30 2035 C 201.47 -1.16985 -1.28805 0
M  V30 2036 O 202.646 -1.49479 -1.34974 0
M  V30 2037 C 199.711 -2.78407 -2.06617 0
M  V30 2038 C 198.772 -3.9567 -1.66565 0
M  V30 2039 C 198.005 -4.52052 -2.83698 0
M  V30 2040 O 198.228 -4.07326 -3.99302 0
M  V30 2041 O 197.162 -5.42645 -2.60423 0
M  V30 2042 H 200.988 -3.01816 -0.337776 0
M  V30 2043 H 198.573 -1.4906 -0.100695 0
M  V30 2044 H 200.455 -3.16129 -2.7864 0
M  V30 2045 H 199.13 -1.9881 -2.55453 0
M  V30 2046 H 198.037 -3.62705 -0.916296 0
M  V30 2047 H 199.37 -4.76722 -1.22464 0
M  V30 2048 N 201.022 0.148545 -1.56898 0
M  V30 2049 C 202.247 0.880385 -1.87787 0
M  V30 2050 C 202.672 1.74018 -0.714093 0
M  V30 2051 O 202.03 1.78153 0.336343 0
M  V30 2052 C 202.078 1.71422 -3.17249 0
M  V30 2053 O 201.182 2.8183 -3.01074 0
M  V30 2054 H 200.523 0.245301 -0.617028 0
M  V30 2055 H 203.053 0.139826 -2.04122 0
M  V30 2056 H 203.063 2.10954 -3.49231 0
M  V30 2057 H 201.738 1.08284 -4.01556 0
M  V30 2058 H 200.315 2.45715 -2.80497 0
M  V30 2059 N 202.5 1.5196 0.417844 0
M  V30 2060 C 203.748 1.65263 1.16329 0
M  V30 2061 C 204.069 0.380634 1.91249 0
M  V30 2062 O 203.339 -0.604214 1.86349 0
M  V30 2063 H 201.919 0.60912 0.432414 0
M  V30 2064 H 204.581 1.88969 0.477162 0
M  V30 2065 H 203.677 2.4896 1.88217 0
M  V30 2066 N 203.978 -0.674533 1.42435 0
M  V30 2067 C 205.226 -1.43175 1.42637 0
M  V30 2068 C 205.547 -1.94951 0.0438992 0
M  V30 2069 O 204.817 -1.7308 -0.917607 0
M  V30 2070 H 203.397 -0.531307 0.525092 0
M  V30 2071 H 206.059 -0.797006 1.77859 0
M  V30 2072 H 205.155 -2.28463 2.12629 0
M  V30 2073 N 205.456 -1.28612 -0.910864 0
M  V30 2074 C 206.681 -1.1891 -1.69927 0
M  V30 2075 C 207.106 0.248372 -1.86453 0
M  V30 2076 O 206.464 1.17961 -1.37676 0
M  V30 2077 C 206.512 -1.89578 -3.06745 0
M  V30 2078 O 205.616 -1.20521 -3.94396 0
M  V30 2079 H 204.957 -0.412632 -0.520222 0
M  V30 2080 H 207.487 -1.69985 -1.1387 0
M  V30 2081 H 207.497 -1.97597 -3.56958 0
M  V30 2082 H 206.172 -2.94136 -2.94035 0
M  V30 2083 H 204.749 -1.20684 -3.52831 0
M  V30 2084 N 206.934 1.1197 -1.10907 0
M  V30 2085 C 208.35 1.35591 -0.841852 0
M  V30 2086 C 208.55 1.94233 0.536246 0
M  V30 2087 O 207.606 2.1717 1.28816 0
M  V30 2088 C 208.919 2.29284 -1.94549 0
M  V30 2089 C 210.467 2.42862 -1.97451 0
M  V30 2090 C 210.942 3.39873 -3.07002 0
M  V30 2091 N 212.433 3.47433 -3.06341 0
M  V30 2092 C 213.168 4.22421 -3.87748 0
M  V30 2093 N 212.664 5.00432 -4.79103 0
M  V30 2094 N 214.457 4.17876 -3.75946 0
M  V30 2095 H 206.608 0.722664 -1.99728 0
M  V30 2096 H 208.871 0.380635 -0.868229 0
M  V30 2097 H 208.577 1.93378 -2.93765 0
M  V30 2098 H 208.451 3.29452 -1.83688 0
M  V30 2099 H 210.838 2.78046 -0.988645 0
M  V30 2100 H 210.919 1.42566 -2.12388 0
M  V30 2101 H 210.563 3.05417 -4.05811 0
M  V30 2102 H 210.493 4.40011 -2.89306 0
M  V30 2103 H 212.984 2.91784 -2.40147 0
M  V30 2104 H 213.297 5.55002 -5.37766 0
M  V30 2105 H 211.642 4.99612 -4.83128 0
M  V30 2106 H 214.833 3.56016 -3.03924 0
M  V30 2107 H 215.006 4.76061 -4.39624 0
M  V30 2108 N 208.412 0.89855 1.29475 0
M  V30 2109 C 209.362 0.346767 2.25348 0
M  V30 2110 C 210.346 -0.532509 1.51833 0
M  V30 2111 O 211.538 -0.374714 1.72988 0
M  V30 2112 C 208.667 -0.425681 3.40651 0
M  V30 2113 C 207.753 0.46845 4.21505 0
M  V30 2114 N 208.144 1.57514 4.80648 0
M  V30 2115 C 206.442 0.26603 4.45206 0
M  V30 2116 C 207.143 2.12889 5.41344 0
M  V30 2117 N 206.119 1.42208 5.24669 0
M  V30 2118 H 209.921 1.19219 2.68634 0
M  V30 2119 H 207.435 0.749473 1.44072 0
M  V30 2120 H 209.432 -0.837716 4.08397 0
M  V30 2121 H 208.092 -1.26838 2.98902 0
M  V30 2122 H 209.103 1.95789 4.79465 0
M  V30 2123 H 205.78 -0.538394 4.14014 0
M  V30 2124 H 207.17 3.05901 5.98226 0
M  V30 2125 N 209.89 -1.43072 0.660911 0
M  V30 2126 C 211.136 -2.0202 0.177708 0
M  V30 2127 C 211.469 -1.52066 -1.20787 0
M  V30 2128 O 210.744 -0.716987 -1.80802 0
M  V30 2129 C 211.027 -3.59561 0.197019 0
M  V30 2130 C 210.88 -4.19727 1.61706 0
M  V30 2131 C 212.199 -4.37664 -0.462396 0
M  V30 2132 H 209.318 -0.734034 0.0660494 0
M  V30 2133 H 211.96 -1.70272 0.843058 0
M  V30 2134 H 210.11 -3.86739 -0.369527 0
M  V30 2135 H 211.782 -4.03553 2.23479 0
M  V30 2136 H 210.025 -3.76084 2.16201 0
M  V30 2137 H 210.696 -5.28834 1.58237 0
M  V30 2138 H 213.172 -4.16095 0.0197215 0
M  V30 2139 H 212.048 -5.47305 -0.418188 0
M  V30 2140 H 212.309 -4.14493 -1.53778 0
M  V30 2141 N 211.368 -0.403325 -1.52352 0
M  V30 2142 C 212.298 0.416205 -2.29761 0
M  V30 2143 C 213.279 1.05123 -1.33728 0
M  V30 2144 O 214.464 1.06134 -1.62632 0
M  V30 2145 C 211.594 1.53624 -3.11475 0
M  V30 2146 C 210.548 1.02653 -4.15507 0
M  V30 2147 C 209.874 2.23971 -4.85532 0
M  V30 2148 C 211.174 0.08463 -5.22231 0
M  V30 2149 H 212.868 -0.229701 -2.98518 0
M  V30 2150 H 210.414 -0.111913 -1.43564 0
M  V30 2151 H 212.367 2.1165 -3.64393 0
M  V30 2152 H 211.091 2.20994 -2.40477 0
M  V30 2153 H 209.75 0.46871 -3.63591 0
M  V30 2154 H 209.398 2.89883 -4.11068 0
M  V30 2155 H 209.098 1.90521 -5.55856 0
M  V30 2156 H 210.622 2.82614 -5.41259 0
M  V30 2157 H 212.036 0.573509 -5.70424 0
M  V30 2158 H 210.433 -0.160783 -5.99885 0
M  V30 2159 H 211.503 -0.86237 -4.7717 0
M  V30 2160 N 212.846 1.57033 -0.133567 0
M  V30 2161 C 214.092 1.95976 0.521649 0
M  V30 2162 C 214.425 1.01779 1.65393 0
M  V30 2163 O 213.7 0.0576581 1.94415 0
M  V30 2164 C 213.983 3.44738 1.04057 0
M  V30 2165 C 213.836 4.49711 -0.0892897 0
M  V30 2166 C 215.155 3.95682 1.92675 0
M  V30 2167 H 212.274 0.712579 0.188149 0
M  V30 2168 H 214.916 1.88813 -0.212076 0
M  V30 2169 H 213.066 3.50973 1.66583 0
M  V30 2170 H 214.738 4.55565 -0.725152 0
M  V30 2171 H 212.981 4.27261 -0.750378 0
M  V30 2172 H 213.652 5.51099 0.315284 0
M  V30 2173 H 216.128 3.91841 1.39998 0
M  V30 2174 H 215.004 5.00262 2.25897 0
M  V30 2175 H 215.265 3.37239 2.85872 0
M  V30 2176 N 214.325 -0.140222 1.56975 0
M  V30 2177 C 215.571 -0.852949 1.83991 0
M  V30 2178 C 215.904 -1.80512 0.716187 0
M  V30 2179 O 215.179 -1.92479 -0.279681 0
M  V30 2180 C 215.462 -1.6215 3.21527 0
M  V30 2181 C 215.315 -0.690363 4.4447 0
M  V30 2182 C 216.634 -2.58247 3.56366 0
M  V30 2183 H 213.753 -0.308634 0.669264 0
M  V30 2184 H 216.395 -0.117898 1.89634 0
M  V30 2185 H 214.545 -2.24812 3.16847 0
M  V30 2186 H 216.217 -0.0742264 4.6124 0
M  V30 2187 H 214.46 -0.000396433 4.338 0
M  V30 2188 H 215.131 -1.2643 5.37326 0
M  V30 2189 H 217.607 -2.05701 3.61699 0
M  V30 2190 H 216.483 -3.09067 4.53617 0
M  V30 2191 H 216.744 -3.39923 2.82674 0
M  V30 2192 N 215.803 -1.52179 -0.40978 0
M  V30 2193 C 216.766 -1.74853 -1.48186 0
M  V30 2194 C 217.766 -0.618417 -1.48433 0
M  V30 2195 O 218.956 -0.886286 -1.49969 0
M  V30 2196 C 216.088 -1.8303 -2.87598 0
M  V30 2197 H 217.281 -2.70559 -1.29374 0
M  V30 2198 H 214.834 -1.42586 -0.640233 0
M  V30 2199 H 215.569 -0.89236 -3.11781 0
M  V30 2200 H 215.354 -2.65187 -2.88822 0
M  V30 2201 H 216.844 -2.02316 -3.65319 0
M  V30 2202 N 217.281 0.66697 -1.42791 0
M  V30 2203 C 218.509 1.45505 -1.47091 0
M  V30 2204 C 218.924 1.8861 -0.0845873 0
M  V30 2205 O 218.281 1.58632 0.90234 0
M  V30 2206 C 218.332 2.69906 -2.40485 0
M  V30 2207 O 218.053 2.28608 -3.73725 0
M  V30 2208 C 219.554 3.63396 -2.53886 0
M  V30 2209 H 216.774 0.447459 -0.500022 0
M  V30 2210 H 219.318 0.818866 -1.8739 0
M  V30 2211 H 217.473 3.29696 -2.03419 0
M  V30 2212 H 217.887 3.08997 -4.23817 0
M  V30 2213 H 219.361 4.47387 -3.2334 0
M  V30 2214 H 219.838 4.09824 -1.57927 0
M  V30 2215 H 220.444 3.09495 -2.91706 0
M  V30 2216 N 218.759 1.29093 0.90403 0
M  V30 2217 C 219.669 1.15727 2.0407 0
M  V30 2218 C 220.685 0.0815308 1.73809 0
M  V30 2219 O 221.861 0.292749 1.99261 0
M  V30 2220 C 218.926 0.830424 3.36608 0
M  V30 2221 C 217.987 1.98955 3.80415 0
M  V30 2222 C 217.22 1.6782 5.06628 0
M  V30 2223 O 217.443 0.597105 5.67266 0
M  V30 2224 O 216.377 2.52486 5.46383 0
M  V30 2225 H 220.203 2.11171 2.18267 0
M  V30 2226 H 217.788 1.08504 1.027 0
M  V30 2227 H 219.67 0.662521 4.16159 0
M  V30 2228 H 218.345 -0.0942678 3.23563 0
M  V30 2229 H 217.252 2.21267 3.01648 0
M  V30 2230 H 218.585 2.89529 3.98037 0
M  V30 2231 N 220.237 -1.11381 1.11499 0
M  V30 2232 C 221.653 -1.35143 0.849031 0
M  V30 2233 C 221.853 -1.94515 -0.525938 0
M  V30 2234 O 220.909 -2.1785 -1.27662 0
M  V30 2235 C 222.222 -2.28249 1.95762 0
M  V30 2236 C 223.77 -2.41812 1.98736 0
M  V30 2237 C 224.245 -3.3824 3.088 0
M  V30 2238 N 225.736 -3.45803 3.08179 0
M  V30 2239 C 226.471 -4.20358 3.89982 0
M  V30 2240 N 225.967 -4.97884 4.8175 0
M  V30 2241 N 227.76 -4.15877 3.78157 0
M  V30 2242 H 219.911 -0.712062 2.00109 0
M  V30 2243 H 222.174 -0.376025 0.870235 0
M  V30 2244 H 221.88 -1.91817 2.94787 0
M  V30 2245 H 221.754 -3.28473 1.85433 0
M  V30 2246 H 224.141 -2.77518 1.00338 0
M  V30 2247 H 224.222 -1.41437 2.13141 0
M  V30 2248 H 223.866 -3.03261 4.07425 0
M  V30 2249 H 223.796 -4.38471 2.91635 0
M  V30 2250 H 226.287 -2.90506 2.41691 0
M  V30 2251 H 226.6 -5.52142 5.40702 0
M  V30 2252 H 224.945 -4.97043 4.85771 0
M  V30 2253 H 228.136 -3.544 3.05808 0
M  V30 2254 H 228.309 -4.73723 4.42143 0
M  V30 2255 N 221.715 -0.905404 -1.28997 0
M  V30 2256 C 222.648 -0.331959 -2.25773 0
M  V30 2257 C 223.626 0.559099 -1.52685 0
M  V30 2258 O 224.81 0.50463 -1.8162 0
M  V30 2259 C 221.937 0.526276 -3.34586 0
M  V30 2260 C 220.983 -0.298249 -4.25456 0
M  V30 2261 S 221.816 -1.69968 -5.0781 0
M  V30 2262 C 222.972 -0.848519 -6.20122 0
M  V30 2263 H 223.205 -1.15222 -2.74064 0
M  V30 2264 H 220.738 -0.706112 -1.37308 0
M  V30 2265 H 222.696 1.01565 -3.97737 0
M  V30 2266 H 221.357 1.32084 -2.84978 0
M  V30 2267 H 220.55 0.357607 -5.0273 0
M  V30 2268 H 220.152 -0.720968 -3.66985 0
M  V30 2269 H 222.444 -0.0744325 -6.77459 0
M  V30 2270 H 223.387 -1.59353 -6.89937 0
M  V30 2271 H 223.795 -0.400383 -5.63078 0
M  V30 2272 N 223.193 1.4272 -0.668489 0
M  V30 2273 C 224.421 2.05966 -0.196348 0
M  V30 2274 C 224.836 1.50191 1.14403 0
M  V30 2275 O 224.193 0.639208 1.7094 0
M  V30 2276 C 224.244 3.61314 -0.115815 0
M  V30 2277 O 223.965 4.1502 -1.40322 0
M  V30 2278 C 225.466 4.41663 0.380579 0
M  V30 2279 H 222.686 0.663954 -0.0969829 0
M  V30 2280 H 225.23 1.82966 -0.913446 0
M  V30 2281 H 223.385 3.83448 0.551931 0
M  V30 2282 H 223.799 5.08832 -1.27243 0
M  V30 2283 H 225.273 5.5065 0.385848 0
M  V30 2284 H 225.75 4.15792 1.41471 0
M  V30 2285 H 226.356 4.24534 -0.255209 0
M  V30 2286 N 224.671 0.411399 1.52136 0
M  V30 2287 C 225.948 -0.222308 1.94333 0
M  V30 2288 C 226.328 -1.6242 1.34844 0
M  V30 2289 O 225.676 -2.22384 0.525145 0
M  V30 2290 C 225.886 -0.226345 3.48265 0
M  V30 2291 C 227.234 -0.444592 4.22266 0
M  V30 2292 O 228.258 -0.305602 3.54887 0
M  V30 2293 O 227.117 -0.718749 5.41753 0
M  V30 2294 H 224.211 -0.143907 0.814383 0
M  V30 2295 H 226.757 0.467506 1.63133 0
M  V30 2296 H 225.529 0.75475 3.83952 0
M  V30 2297 H 225.152 -0.960163 3.85832 0
M  V30 2298 N 226.149 -1.5696 0.141893 0
M  V30 2299 C 227.395 -1.9625 -0.511248 0
M  V30 2300 C 227.728 -1.02654 -1.64851 0
M  V30 2301 O 227.003 -0.0679676 -1.94381 0
M  V30 2302 C 227.286 -3.45285 -1.02227 0
M  V30 2303 C 227.139 -4.49658 0.113138 0
M  V30 2304 C 228.458 -3.96698 -1.90574 0
M  V30 2305 H 225.577 -0.713567 -0.184367 0
M  V30 2306 H 228.219 -1.88698 0.222087 0
M  V30 2307 H 226.369 -3.51852 -1.64719 0
M  V30 2308 H 228.041 -4.55174 0.749302 0
M  V30 2309 H 226.284 -4.26857 0.773026 0
M  V30 2310 H 226.955 -5.51258 -0.286053 0
M  V30 2311 H 229.431 -3.92578 -1.37918 0
M  V30 2312 H 228.307 -5.01453 -2.2324 0
M  V30 2313 H 228.568 -3.3875 -2.84079 0
M  V30 2314 N 227.627 0.131896 -1.57047 0
M  V30 2315 C 228.876 0.84044 -1.83356 0
M  V30 2316 C 229.189 1.81646 -0.725535 0
M  V30 2317 O 230.395 2.57025 -0.874659 0
M  V30 2318 C 228.851 1.54528 -3.25037 0
M  V30 2319 C 228.459 0.610902 -4.43815 0
M  V30 2320 C 230.203 2.23972 -3.60606 0
M  V30 2321 C 228.11 1.31823 -5.76521 0
M  V30 2322 H 227.04 0.317599 -0.683847 0
M  V30 2323 H 229.691 0.0931561 -1.83263 0
M  V30 2324 H 228.073 2.33873 -3.19561 0
M  V30 2325 H 229.247 -0.148407 -4.60561 0
M  V30 2326 H 227.562 0.0241016 -4.16393 0
M  V30 2327 H 230.159 2.77558 -4.57018 0
M  V30 2328 H 230.502 3.01173 -2.87403 0
M  V30 2329 H 231.035 1.51529 -3.6781 0
M  V30 2330 H 227.774 0.587771 -6.52859 0
M  V30 2331 H 227.294 2.04987 -5.63685 0
M  V30 2332 H 228.973 1.855 -6.19838 0
M  V30 2333 N 229.106 1.52395 0.401703 0
M  V30 2334 C 230.383 1.57387 1.16141 0
M  V30 2335 C 230.763 0.359359 2.08019 0
M  V30 2336 O 230.111 -0.65326 2.18963 0
M  V30 2337 C 230.321 2.90631 1.93221 0
M  V30 2338 C 231.669 3.43904 2.49028 0
M  V30 2339 O 232.693 2.92421 2.03393 0
M  V30 2340 O 231.552 4.33823 3.32356 0
M  V30 2341 H 228.646 0.634262 0.530698 0
M  V30 2342 H 231.192 1.64725 0.407883 0
M  V30 2343 H 229.964 3.70473 1.25958 0
M  V30 2344 H 229.587 2.8662 2.75563 0
M  V30 2345 N 230.584 -0.659388 1.43143 0
M  V30 2346 C 231.514 -1.78422 1.50625 0
M  V30 2347 C 232.495 -1.66216 0.361443 0
M  V30 2348 O 233.68 -1.85404 0.577834 0
M  V30 2349 C 230.81 -3.16815 1.42287 0
M  V30 2350 C 229.764 -3.43777 2.54954 0
M  V30 2351 C 229.09 -4.81905 2.31671 0
M  V30 2352 C 230.39 -3.39134 3.97222 0
M  V30 2353 H 232.084 -1.72417 2.44771 0
M  V30 2354 H 229.63 -0.828084 1.17808 0
M  V30 2355 H 231.583 -3.95253 1.46127 0
M  V30 2356 H 230.307 -3.23534 0.446435 0
M  V30 2357 H 228.966 -2.67707 2.50457 0
M  V30 2358 H 228.614 -4.85294 1.32284 0
M  V30 2359 H 228.314 -5.00906 3.07192 0
M  V30 2360 H 229.838 -5.62609 2.37284 0
M  V30 2361 H 231.252 -4.07518 4.03239 0
M  V30 2362 H 229.649 -3.69671 4.72719 0
M  V30 2363 H 230.719 -2.37426 4.22797 0
M  V30 2364 N 232.062 -1.29571 -0.897171 0
M  V30 2365 C 233.025 -1.14913 -1.98312 0
M  V30 2366 C 234.025 -0.0838629 -1.60581 0
M  V30 2367 O 235.215 -0.331006 -1.71026 0
M  V30 2368 C 232.347 -0.757835 -3.3237 0
M  V30 2369 H 233.54 -2.11377 -2.12743 0
M  V30 2370 H 231.093 -1.12793 -1.08201 0
M  V30 2371 H 231.828 0.206837 -3.2364 0
M  V30 2372 H 231.613 -1.52755 -3.61121 0
M  V30 2373 H 233.103 -0.678408 -4.12053 0
M  V30 2374 N 233.54 1.10788 -1.12088 0
M  V30 2375 C 234.817 1.79136 -0.785476 0
M  V30 2376 C 235.197 1.98246 0.725377 0
M  V30 2377 O 234.545 1.57258 1.65778 0
M  V30 2378 C 234.755 3.12375 -1.55636 0
M  V30 2379 C 236.103 3.8731 -1.74001 0
M  V30 2380 O 237.127 3.22085 -1.52117 0
M  V30 2381 O 235.986 5.04369 -2.10415 0
M  V30 2382 H 233.08 0.776226 -0.285311 0
M  V30 2383 H 235.626 1.1747 -1.2247 0
M  V30 2384 H 234.398 2.93863 -2.5838 0
M  V30 2385 H 234.021 3.81758 -1.11114 0
M  V30 2386 N 235.018 0.912232 1.28515 0
M  V30 2387 C 236.434 0.610159 1.47476 0
M  V30 2388 C 236.634 -0.844955 1.82928 0
M  V30 2389 O 235.69 -1.62416 1.93332 0
M  V30 2390 C 237.003 1.54675 2.57868 0
M  V30 2391 C 238.551 1.55331 2.71738 0
M  V30 2392 C 239.026 2.47649 3.85272 0
M  V30 2393 N 240.517 2.45767 3.92623 0
M  V30 2394 C 241.252 3.13896 4.79851 0
M  V30 2395 N 240.748 3.9135 5.71679 0
M  V30 2396 N 242.541 3.02991 4.73448 0
M  V30 2397 H 234.692 1.85318 1.03783 0
M  V30 2398 H 236.955 0.794777 0.516753 0
M  V30 2399 H 236.661 2.5841 2.38574 0
M  V30 2400 H 236.535 1.27671 3.54937 0
M  V30 2401 H 238.922 0.52335 2.90422 0
M  V30 2402 H 239.003 1.86378 1.75205 0
M  V30 2403 H 238.647 3.50745 3.67342 0
M  V30 2404 H 238.577 2.13904 4.81199 0
M  V30 2405 H 241.068 1.89503 3.26951 0
M  V30 2406 H 241.381 4.40359 6.35062 0
M  V30 2407 H 239.726 3.95455 5.71524 0
M  V30 2408 H 242.917 2.41987 4.007 0
M  V30 2409 H 243.09 3.5636 5.41213 0
M  V30 2410 N 236.496 -1.42363 0.676048 0
M  V30 2411 C 237.721 -2.06377 0.205705 0
M  V30 2412 C 238.146 -1.50463 -1.12883 0
M  V30 2413 O 237.504 -0.623619 -1.70237 0
M  V30 2414 C 237.552 -3.60277 0.152655 0
M  V30 2415 O 236.656 -4.02935 -0.87845 0
M  V30 2416 H 235.997 -0.655588 0.105359 0
M  V30 2417 H 238.527 -1.82475 0.925412 0
M  V30 2418 H 238.537 -4.07993 -0.0230675 0
M  V30 2419 H 237.212 -4.00346 1.12675 0
M  V30 2420 H 235.789 -3.66764 -0.673668 0
M  V30 2421 N 237.974 -0.419461 -1.51915 0
M  V30 2422 C 238.904 0.391813 -2.30189 0
M  V30 2423 C 239.885 1.03699 -1.34836 0
M  V30 2424 O 241.07 1.04403 -1.63748 0
M  V30 2425 C 238.2 1.50312 -3.13087 0
M  V30 2426 C 237.154 0.9824 -4.16573 0
M  V30 2427 C 236.48 2.18809 -4.8788 0
M  V30 2428 C 237.78 0.0292356 -5.22292 0
M  V30 2429 H 239.474 -0.26135 -2.98257 0
M  V30 2430 H 237.02 -0.127134 -1.43438 0
M  V30 2431 H 238.973 2.07773 -3.66617 0
M  V30 2432 H 237.697 2.18431 -2.42807 0
M  V30 2433 H 236.356 0.430119 -3.64068 0
M  V30 2434 H 236.004 2.85507 -4.14119 0
M  V30 2435 H 235.704 1.84615 -5.57845 0
M  V30 2436 H 237.228 2.76858 -5.44226 0
M  V30 2437 H 238.642 0.512976 -5.71 0
M  V30 2438 H 237.039 -0.2244 -5.9968 0
M  V30 2439 H 238.109 -0.912931 -4.76228 0
M  V30 2440 N 239.452 1.56882 -0.150215 0
M  V30 2441 C 240.677 2.01027 0.510184 0
M  V30 2442 C 241.102 1.02966 1.57415 0
M  V30 2443 O 240.46 0.00590158 1.81299 0
M  V30 2444 C 240.508 3.43899 1.08472 0
M  V30 2445 O 239.612 3.4885 2.19948 0
M  V30 2446 H 238.953 0.652233 0.124451 0
M  V30 2447 H 241.483 2.03093 -0.247894 0
M  V30 2448 H 241.493 3.82766 1.41259 0
M  V30 2449 H 240.168 4.14776 0.305582 0
M  V30 2450 H 238.745 3.21827 1.88366 0
M  V30 2451 N 240.93 -0.123565 1.57115 0
M  V30 2452 C 242.177 -0.832153 1.84612 0
M  V30 2453 C 242.505 -1.80093 0.734627 0
M  V30 2454 O 241.76 -1.93766 -0.27442 0
M  V30 2455 C 242.059 -1.62016 3.18568 0
M  V30 2456 C 241.725 -0.796084 4.43817 0
M  V30 2457 C 240.387 -0.568816 4.77826 0
M  V30 2458 C 242.739 -0.221364 5.2073 0
M  V30 2459 C 240.067 0.243499 5.86194 0
M  V30 2460 C 242.419 0.578117 6.29953 0
M  V30 2461 C 241.083 0.815744 6.62497 0
M  V30 2462 H 240.353 -0.304507 0.675542 0
M  V30 2463 H 243 -0.0947248 1.91266 0
M  V30 2464 H 241.305 -2.42837 3.0747 0
M  V30 2465 H 243.002 -2.17231 3.37064 0
M  V30 2466 H 239.592 -0.983307 4.17168 0
M  V30 2467 H 243.776 -0.384173 4.94811 0
M  V30 2468 H 239.032 0.436871 6.09837 0
M  V30 2469 H 243.206 1.03046 6.88734 0
M  V30 2470 H 240.833 1.44701 7.46301 0
M  V30 2471 N 242.408 -1.52605 -0.393616 0
M  V30 2472 C 243.338 -1.80022 -1.48709 0
M  V30 2473 C 244.319 -0.651995 -1.57108 0
M  V30 2474 O 245.504 -0.89913 -1.72132 0
M  V30 2475 C 242.634 -1.96492 -2.86371 0
M  V30 2476 C 241.588 -3.12161 -2.92813 0
M  V30 2477 C 240.914 -3.13877 -4.3288 0
M  V30 2478 C 242.214 -4.51322 -2.6288 0
M  V30 2479 H 243.908 -2.71589 -1.26015 0
M  V30 2480 H 241.454 -1.30684 -0.604778 0
M  V30 2481 H 243.407 -2.14255 -3.62867 0
M  V30 2482 H 242.131 -1.01611 -3.10391 0
M  V30 2483 H 240.79 -2.94173 -2.18764 0
M  V30 2484 H 240.438 -2.16687 -4.53933 0
M  V30 2485 H 240.138 -3.91576 -4.38112 0
M  V30 2486 H 241.662 -3.33789 -5.1129 0
M  V30 2487 H 243.076 -4.69435 -3.29096 0
M  V30 2488 H 241.473 -5.31053 -2.79468 0
M  V30 2489 H 242.543 -4.58353 -1.58242 0
M  V30 2490 N 243.887 0.651787 -1.4349 0
M  V30 2491 C 245.134 1.41167 -1.45183 0
M  V30 2492 C 245.462 1.94349 -0.0766601 0
M  V30 2493 O 244.717 1.72804 0.918555 0
M  V30 2494 C 245.016 2.60914 -2.44251 0
M  V30 2495 C 244.682 2.26142 -3.9009 0
M  V30 2496 C 243.344 2.16371 -4.2981 0
M  V30 2497 C 245.696 1.98334 -4.81989 0
M  V30 2498 C 243.024 1.7695 -5.5938 0
M  V30 2499 C 245.376 1.6041 -6.11924 0
M  V30 2500 C 244.04 1.49166 -6.5062 0
M  V30 2501 H 243.31 0.516566 -0.531263 0
M  V30 2502 H 245.957 0.741099 -1.76579 0
M  V30 2503 H 244.262 3.3311 -2.06265 0
M  V30 2504 H 245.959 3.19127 -2.42815 0
M  V30 2505 H 242.549 2.34658 -3.58655 0
M  V30 2506 H 246.733 2.04803 -4.52072 0
M  V30 2507 H 241.989 1.66831 -5.88198 0
M  V30 2508 H 246.163 1.37925 -6.82605 0
M  V30 2509 H 243.79 1.1839 -7.50925 0
M  V30 2510 N 245.365 1.30045 0.890287 0
M  V30 2511 C 246.613 1.18327 1.63839 0
M  V30 2512 C 246.934 -0.263455 1.93212 0
M  V30 2513 O 246.204 -1.17856 1.56482 0
M  V30 2514 H 244.784 0.434933 0.607324 0
M  V30 2515 H 247.446 1.631 1.06698 0
M  V30 2516 H 246.542 1.74024 2.59079 0
M  V30 2517 N 246.843 -1.10192 1.12674 0
M  V30 2518 C 248.12 -1.78717 0.794965 0
M  V30 2519 C 248.5 -1.98628 -0.714853 0
M  V30 2520 O 247.848 -1.58135 -1.64941 0
M  V30 2521 C 248.058 -3.11546 1.5729 0
M  V30 2522 C 249.406 -3.86382 1.76052 0
M  V30 2523 O 250.43 -3.21274 1.53823 0
M  V30 2524 O 249.289 -5.03246 2.13087 0
M  V30 2525 H 246.383 -0.774702 0.289423 0
M  V30 2526 H 248.929 -1.16819 1.23091 0
M  V30 2527 H 247.701 -2.92489 2.59935 0
M  V30 2528 H 247.324 -3.81164 1.13137 0
M  V30 2529 N 248.321 -0.919034 -1.28029 0
M  V30 2530 C 249.569 -0.553838 -1.94363 0
M  V30 2531 C 249.89 0.906357 -1.72656 0
M  V30 2532 O 249.16 1.64143 -1.0693 0
M  V30 2533 H 247.74 -0.201834 -0.719216 0
M  V30 2534 H 250.402 -1.16954 -1.55909 0
M  V30 2535 H 249.498 -0.752758 -3.02886 0
M  V30 2536 N 249.799 1.42003 -0.683588 0
M  V30 2537 C 250.762 2.29191 -0.0198243 0
M  V30 2538 C 251.762 1.43773 0.72013 0
M  V30 2539 O 252.952 1.65061 0.556815 0
M  V30 2540 C 250.084 3.26435 0.982487 0
M  V30 2541 H 251.277 2.8938 -0.787345 0
M  V30 2542 H 248.83 1.49789 -0.446418 0
M  V30 2543 H 249.565 2.71203 1.77819 0
M  V30 2544 H 249.35 3.89449 0.455182 0
M  V30 2545 H 250.84 3.918 1.44508 0
M  V30 2546 N 251.277 0.427512 1.51691 0
M  V30 2547 C 252.525 -0.141948 2.01601 0
M  V30 2548 C 252.846 -1.44067 1.31414 0
M  V30 2549 O 252.116 -1.90763 0.445658 0
M  V30 2550 H 250.696 -0.0554468 0.744939 0
M  V30 2551 H 253.358 0.567968 1.86441 0
M  V30 2552 H 252.454 -0.324913 3.10404 0
M  V30 2553 N 252.755 -1.56801 0.158532 0
M  V30 2554 C 253.718 -2.16138 -0.762705 0
M  V30 2555 C 254.718 -1.1061 -1.16713 0
M  V30 2556 O 255.908 -1.36191 -1.08617 0
M  V30 2557 C 253.04 -2.73386 -2.03649 0
M  V30 2558 H 254.233 -2.98886 -0.246354 0
M  V30 2559 H 251.786 -1.56035 -0.0909744 0
M  V30 2560 H 252.521 -1.94335 -2.59623 0
M  V30 2561 H 252.306 -3.50601 -1.75559 0
M  V30 2562 H 253.796 -3.19065 -2.6942 0
M  V30 2563 N 254.233 0.115231 -1.57178 0
M  V30 2564 C 255.196 1.12526 -1.99676 0
M  V30 2565 C 256.196 1.34095 -0.88742 0
M  V30 2566 O 257.386 1.30548 -1.15337 0
M  V30 2567 C 254.518 2.4789 -2.34015 0
M  V30 2568 H 255.711 0.759912 -2.90113 0
M  V30 2569 H 253.264 0.359648 -1.52106 0
M  V30 2570 H 253.999 2.89339 -1.4647 0
M  V30 2571 H 253.784 2.33588 -3.14927 0
M  V30 2572 H 255.274 3.20575 -2.67622 0
M  V30 2573 N 255.711 1.52812 0.385517 0
M  V30 2574 C 256.957 1.68275 1.13188 0
M  V30 2575 C 257.29 0.423179 1.89533 0
M  V30 2576 O 256.565 -0.579113 1.85679 0
M  V30 2577 C 256.848 2.92001 2.1073 0
M  V30 2578 C 256.701 4.28067 1.38125 0
M  V30 2579 C 258.02 3.11283 3.11113 0
M  V30 2580 H 255.139 0.612352 0.410115 0
M  V30 2581 H 257.781 1.85415 0.414869 0
M  V30 2582 H 255.931 2.77519 2.71874 0
M  V30 2583 H 257.603 4.54324 0.799187 0
M  V30 2584 H 255.846 4.28388 0.683092 0
M  V30 2585 H 256.517 5.10733 2.09417 0
M  V30 2586 H 258.993 3.2482 2.6006 0
M  V30 2587 H 257.869 3.99325 3.76605 0
M  V30 2588 H 258.13 2.25656 3.80173 0
M  V30 2589 N 257.189 -0.644168 1.43834 0
M  V30 2590 C 258.435 -1.40603 1.46146 0
M  V30 2591 C 258.768 -1.93997 0.0887717 0
M  V30 2592 O 258.043 -1.72854 -0.891724 0
M  V30 2593 C 258.326 -2.58086 2.51124 0
M  V30 2594 C 258.179 -2.10126 3.97702 0
M  V30 2595 C 259.498 -3.60291 2.52742 0
M  V30 2596 H 256.617 -0.509905 0.532134 0
M  V30 2597 H 259.259 -0.729502 1.75437 0
M  V30 2598 H 257.409 -3.15801 2.26278 0
M  V30 2599 H 259.081 -1.57342 4.33637 0
M  V30 2600 H 257.324 -1.41419 4.10101 0
M  V30 2601 H 257.995 -2.94649 4.66783 0
M  V30 2602 H 260.471 -3.12352 2.7491 0
M  V30 2603 H 259.347 -4.40032 3.28121 0
M  V30 2604 H 259.608 -4.1349 1.56455 0
M  V30 2605 N 258.668 -1.30515 -0.883378 0
M  V30 2606 C 259.916 -1.19194 -1.63209 0
M  V30 2607 C 260.237 0.253205 -1.93349 0
M  V30 2608 O 259.507 1.17025 -1.57105 0
M  V30 2609 H 258.087 -0.438148 -0.605009 0
M  V30 2610 H 260.749 -1.63663 -1.05832 0
M  V30 2611 H 259.845 -1.75396 -2.58153 0
M  V30 2612 N 260.146 1.09593 -1.13257 0
M  V30 2613 C 261.557 1.63229 -0.906274 0
M  V30 2614 C 261.908 1.8811 0.557578 0
M  V30 2615 O 261.033 1.62953 1.42391 0
M  V30 2616 C 261.628 2.96535 -1.63867 0
M  V30 2617 C 260.187 3.47003 -1.45828 0
M  V30 2618 C 259.334 2.2145 -1.66898 0
M  V30 2619 H 262.285 0.92978 -1.28611 0
M  V30 2620 H 262.306 3.64411 -1.09476 0
M  V30 2621 H 261.818 2.78394 -2.70404 0
M  V30 2622 H 259.919 3.70272 -0.415848 0
M  V30 2623 H 260.032 4.24551 -2.2202 0
M  V30 2624 H 258.396 2.30022 -1.09371 0
M  V30 2625 H 259.179 2.0583 -2.74752 0
M  V30 2626 N 261.624 0.925811 1.2754 0
M  V30 2627 C 262.849 0.580924 1.99098 0
M  V30 2628 C 263.274 -0.833555 1.68622 0
M  V30 2629 O 262.632 -1.55903 0.925422 0
M  V30 2630 C 262.68 0.811186 3.51358 0
M  V30 2631 O 261.784 -0.124129 4.12213 0
M  V30 2632 H 261.125 0.223873 0.625122 0
M  V30 2633 H 263.655 1.24455 1.62395 0
M  V30 2634 H 263.665 0.72601 4.01489 0
M  V30 2635 H 262.34 1.84227 3.72872 0
M  V30 2636 H 260.917 0.0108006 3.72898 0
M  V30 2637 N 263.102 -1.41638 0.69111 0
M  V30 2638 C 264.379 -1.95036 0.148421 0
M  V30 2639 C 264.759 -1.63072 -1.34055 0
M  V30 2640 O 264.107 -0.93538 -2.08478 0
M  V30 2641 C 264.317 -3.46279 0.434951 0
M  V30 2642 C 265.665 -4.23069 0.360275 0
M  V30 2643 O 266.689 -3.54277 0.369613 0
M  V30 2644 O 265.548 -5.45583 0.316534 0
M  V30 2645 H 262.642 -0.826908 0.0123654 0
M  V30 2646 H 265.188 -1.5138 0.766963 0
M  V30 2647 H 263.96 -3.6281 1.46576 0
M  V30 2648 H 263.583 -3.97019 -0.214787 0
M  V30 2649 N 264.58 -0.43555 -1.51462 0
M  V30 2650 C 265.826 0.131709 -2.02372 0
M  V30 2651 C 266.159 1.42516 -1.3192 0
M  V30 2652 O 265.434 1.89606 -0.433573 0
M  V30 2653 C 265.717 0.352301 -3.58373 0
M  V30 2654 C 265.57 -0.959676 -4.39443 0
M  V30 2655 C 266.889 1.12286 -4.25535 0
M  V30 2656 H 264.008 0.0463936 -0.735538 0
M  V30 2657 H 266.65 -0.574197 -1.81116 0
M  V30 2658 H 264.8 0.9536 -3.76615 0
M  V30 2659 H 266.472 -1.59482 -4.32855 0
M  V30 2660 H 264.715 -1.56468 -4.04599 0
M  V30 2661 H 265.386 -0.759394 -5.46752 0
M  V30 2662 H 267.862 0.613545 -4.11552 0
M  V30 2663 H 266.738 1.24598 -5.34571 0
M  V30 2664 H 266.999 2.15048 -3.86273 0
M  V30 2665 N 266.058 1.56714 -0.166846 0
M  V30 2666 C 267.469 1.83378 0.350646 0
M  V30 2667 C 267.82 1.08646 1.63372 0
M  V30 2668 O 266.945 0.338058 2.13743 0
M  V30 2669 C 267.54 3.32643 0.642963 0
M  V30 2670 C 266.099 3.59818 1.10491 0
M  V30 2671 C 265.246 2.76954 0.138411 0
M  V30 2672 H 268.197 1.53803 -0.391193 0
M  V30 2673 H 268.218 3.49878 1.49551 0
M  V30 2674 H 267.73 3.87007 -0.291055 0
M  V30 2675 H 265.831 3.1086 2.05418 0
M  V30 2676 H 265.944 4.68178 1.01716 0
M  V30 2677 H 264.308 2.4666 0.634911 0
M  V30 2678 H 265.091 3.34097 -0.789549 0
M  V30 2679 N 267.536 -0.106894 1.57237 0
M  V30 2680 C 268.784 -0.810921 1.85117 0
M  V30 2681 C 269.105 -1.7984 0.753827 0
M  V30 2682 O 268.375 -1.94649 -0.221056 0
M  V30 2683 H 266.955 -0.302466 0.683025 0
M  V30 2684 H 269.617 -0.0913324 1.94686 0
M  V30 2685 H 268.713 -1.34875 2.81452 0
M  V30 2686 N 269.014 -1.53014 -0.377408 0
M  V30 2687 C 270.263 -1.67845 -1.11853 0
M  V30 2688 C 270.576 -0.430625 -1.90801 0
M  V30 2689 O 271.782 -0.459261 -2.67587 0
M  V30 2690 C 270.238 -2.96668 -2.03756 0
M  V30 2691 C 269.846 -4.28671 -1.30175 0
M  V30 2692 C 271.59 -3.20865 -2.77932 0
M  V30 2693 C 269.497 -5.48591 -2.20911 0
M  V30 2694 H 268.427 -0.625343 -0.421263 0
M  V30 2695 H 271.078 -1.79514 -0.380409 0
M  V30 2696 H 269.46 -2.78773 -2.8125 0
M  V30 2697 H 270.634 -4.57157 -0.578259 0
M  V30 2698 H 268.949 -4.10825 -0.679108 0
M  V30 2699 H 271.546 -4.07642 -3.46024 0
M  V30 2700 H 271.889 -2.36424 -3.4265 0
M  V30 2701 H 272.422 -3.39379 -2.07525 0
M  V30 2702 H 269.161 -6.35474 -1.6079 0
M  V30 2703 H 268.681 -5.244 -2.91144 0
M  V30 2704 H 270.36 -5.8292 -2.80736 0
M  V30 2705 N 270.492 0.636531 -1.44174 0
M  V30 2706 C 271.74 1.39343 -1.46383 0
M  V30 2707 C 272.061 1.94766 -0.0955715 0
M  V30 2708 O 271.331 1.75452 0.871395 0
M  V30 2709 H 269.911 0.517199 -0.538994 0
M  V30 2710 H 272.573 0.74957 -1.7991 0
M  V30 2711 H 271.669 2.22746 -2.18611 0
M  V30 2712 N 271.97 1.30982 0.876444 0
M  V30 2713 C 273.381 1.18277 1.44456 0
M  V30 2714 C 273.732 -0.213265 1.95037 0
M  V30 2715 O 272.857 -1.11057 1.85729 0
M  V30 2716 C 273.452 2.1411 2.62569 0
M  V30 2717 C 272.011 2.05358 3.15444 0
M  V30 2718 C 271.158 2.03706 1.88146 0
M  V30 2719 H 274.109 1.43127 0.685584 0
M  V30 2720 H 274.13 1.72692 3.39054 0
M  V30 2721 H 273.642 3.15706 2.25724 0
M  V30 2722 H 271.743 1.06934 3.56926 0
M  V30 2723 H 271.856 2.94156 3.78166 0
M  V30 2724 H 270.22 1.48629 2.06837 0
M  V30 2725 H 271.003 3.07047 1.53547 0
M  V30 2726 N 273.449 -1.08991 1.13837 0
M  V30 2727 C 274.695 -1.81526 0.90422 0
M  V30 2728 C 275.028 -1.85706 -0.568066 0
M  V30 2729 O 274.303 -1.32855 -1.42056 0
M  V30 2730 C 274.586 -3.27447 1.49835 0
M  V30 2731 C 274.439 -3.31512 3.04006 0
M  V30 2732 C 275.758 -4.24256 1.17025 0
M  V30 2733 H 272.877 -0.659029 0.329923 0
M  V30 2734 H 275.519 -1.27644 1.40737 0
M  V30 2735 H 273.669 -3.73462 1.07044 0
M  V30 2736 H 275.341 -2.93867 3.55584 0
M  V30 2737 H 273.584 -2.70963 3.38765 0
M  V30 2738 H 274.255 -4.34329 3.40679 0
M  V30 2739 H 276.731 -3.86549 1.54009 0
M  V30 2740 H 275.607 -5.24684 1.61237 0
M  V30 2741 H 275.868 -4.42019 0.0846274 0
M  V30 2742 N 274.927 -0.932562 -1.27047 0
M  V30 2743 C 276.173 -0.576412 -1.94436 0
M  V30 2744 C 276.506 0.880891 -1.73072 0
M  V30 2745 O 275.781 1.62905 -1.06264 0
M  V30 2746 C 276.064 -0.909031 -3.48437 0
M  V30 2747 C 275.917 -2.42044 -3.79123 0
M  V30 2748 C 277.236 -0.418341 -4.38107 0
M  V30 2749 H 274.355 -0.210888 -0.706184 0
M  V30 2750 H 276.997 -1.16522 -1.50075 0
M  V30 2751 H 275.147 -0.407947 -3.86352 0
M  V30 2752 H 276.819 -2.99359 -3.50973 0
M  V30 2753 H 275.062 -2.86758 -3.25503 0
M  V30 2754 H 275.733 -2.6037 -4.86736 0
M  V30 2755 H 278.209 -0.847856 -4.0737 0
M  V30 2756 H 277.085 -0.679981 -5.44672 0
M  V30 2757 H 277.346 0.681642 -4.36814 0
M  V30 2758 N 276.405 1.4127 -0.698611 0
M  V30 2759 C 277.821 1.55241 -0.370462 0
M  V30 2760 C 278.021 1.67351 1.12231 0
M  V30 2761 O 277.077 1.65363 1.90818 0
M  V30 2762 C 278.39 2.78997 -1.12165 0
M  V30 2763 C 279.938 2.92797 -1.1063 0
M  V30 2764 C 280.413 4.19445 -1.8393 0
M  V30 2765 N 281.904 4.26409 -1.80914 0
M  V30 2766 C 282.639 5.23271 -2.34467 0
M  V30 2767 N 282.135 6.26145 -2.96504 0
M  V30 2768 N 283.928 5.15232 -2.24706 0
M  V30 2769 H 276.079 1.31654 -1.66676 0
M  V30 2770 H 278.342 0.635393 -0.703548 0
M  V30 2771 H 278.048 2.76268 -2.17644 0
M  V30 2772 H 277.922 3.70606 -0.702209 0
M  V30 2773 H 280.309 2.95039 -0.0597713 0
M  V30 2774 H 280.39 2.02353 -1.56483 0
M  V30 2775 H 280.034 4.17964 -2.88563 0
M  V30 2776 H 279.964 5.08866 -1.35509 0
M  V30 2777 H 282.455 3.527 -1.35687 0
M  V30 2778 H 282.768 6.96451 -3.34927 0
M  V30 2779 H 281.113 6.26638 -3.00583 0
M  V30 2780 H 284.304 4.33789 -1.7591 0
M  V30 2781 H 284.477 5.90552 -2.66745 0
M  V30 2782 N 277.883 0.443576 1.51229 0
M  V30 2783 C 279.131 -0.120557 2.0174 0
M  V30 2784 C 279.452 -1.42665 1.32935 0
M  V30 2785 O 278.722 -1.9028 0.465866 0
M  V30 2786 H 277.302 -0.0475426 0.745486 0
M  V30 2787 H 279.964 0.587711 1.85828 0
M  V30 2788 H 279.06 -0.291972 3.10731 0
M  V30 2789 N 279.361 -1.56624 0.175154 0
M  V30 2790 C 280.61 -1.96173 -0.468921 0
M  V30 2791 C 280.923 -1.06401 -1.64128 0
M  V30 2792 O 282.129 -1.35648 -2.35185 0
M  V30 2793 C 280.585 -3.48833 -0.885633 0
M  V30 2794 C 280.193 -4.47237 0.261343 0
M  V30 2795 C 281.937 -3.97194 -1.49791 0
M  V30 2796 C 279.844 -5.9114 -0.175214 0
M  V30 2797 H 278.774 -0.732455 -0.178958 0
M  V30 2798 H 281.425 -1.81591 0.263997 0
M  V30 2799 H 279.807 -3.58848 -1.67464 0
M  V30 2800 H 280.981 -4.4894 1.03871 0
M  V30 2801 H 279.296 -4.08956 0.783827 0
M  V30 2802 H 281.893 -5.02167 -1.83665 0
M  V30 2803 H 282.236 -3.40351 -2.39722 0
M  V30 2804 H 282.769 -3.90212 -0.773267 0
M  V30 2805 H 279.508 -6.51865 0.689414 0
M  V30 2806 H 279.028 -5.92735 -0.91786 0
M  V30 2807 H 280.707 -6.44044 -0.617792 0
M  V30 2808 N 280.839 0.0985539 -1.57292 0
M  V30 2809 C 282.116 0.834155 -1.76921 0
M  V30 2810 C 282.496 1.97101 -0.755928 0
M  V30 2811 O 281.844 2.27474 0.216245 0
M  V30 2812 C 282.054 1.33194 -3.22584 0
M  V30 2813 C 283.402 1.77611 -3.85668 0
M  V30 2814 O 284.426 1.42825 -3.26312 0
M  V30 2815 O 283.285 2.4192 -4.90038 0
M  V30 2816 H 280.379 0.397628 -0.725135 0
M  V30 2817 H 282.925 0.0807044 -1.69508 0
M  V30 2818 H 281.697 0.517248 -3.87866 0
M  V30 2819 H 281.32 2.1475 -3.34616 0
M  V30 2820 N 282.317 1.53212 0.369288 0
M  V30 2821 C 283.565 1.68881 1.11012 0
M  V30 2822 C 283.886 0.441285 1.89941 0
M  V30 2823 O 283.156 -0.544623 1.88177 0
M  V30 2824 H 281.736 0.622569 0.412816 0
M  V30 2825 H 284.398 1.90391 0.416802 0
M  V30 2826 H 283.494 2.54822 1.80201 0
M  V30 2827 N 283.795 -0.628877 1.44509 0
M  V30 2828 C 285.023 -1.41554 1.50897 0
M  V30 2829 C 285.438 -1.8832 0.134564 0
M  V30 2830 O 284.795 -1.60969 -0.859965 0
M  V30 2831 C 284.846 -2.63435 2.47556 0
M  V30 2832 O 284.567 -2.18619 3.79654 0
M  V30 2833 C 286.068 -3.56537 2.63431 0
M  V30 2834 H 283.288 -0.434044 0.511709 0
M  V30 2835 H 285.832 -0.768895 1.89495 0
M  V30 2836 H 283.987 -3.24187 2.12089 0
M  V30 2837 H 284.401 -2.97652 4.31861 0
M  V30 2838 H 285.875 -4.38657 3.35088 0
M  V30 2839 H 286.352 -4.05493 1.68738 0
M  V30 2840 H 286.958 -3.01653 2.9981 0
M  V30 2841 N 285.273 -1.31445 -0.869486 0
M  V30 2842 C 286.521 -1.20918 -1.61936 0
M  V30 2843 C 286.842 0.232683 -1.93607 0
M  V30 2844 O 286.112 1.15352 -1.58338 0
M  V30 2845 H 284.692 -0.44454 -0.600328 0
M  V30 2846 H 287.354 -1.64776 -1.0409 0
M  V30 2847 H 286.45 -1.78124 -2.56278 0
M  V30 2848 N 286.751 1.08385 -1.14413 0
M  V30 2849 C 287.681 2.17321 -0.854044 0
M  V30 2850 C 288.662 1.69024 0.191049 0
M  V30 2851 O 289.847 1.94141 0.0476779 0
M  V30 2852 C 286.977 3.45719 -0.330983 0
M  V30 2853 C 285.931 4.07409 -1.31155 0
M  V30 2854 C 285.257 5.30762 -0.64778 0
M  V30 2855 C 286.557 4.48665 -2.67388 0
M  V30 2856 H 288.251 2.41845 -1.76498 0
M  V30 2857 H 285.797 1.16233 -0.850051 0
M  V30 2858 H 287.75 4.21241 -0.115645 0
M  V30 2859 H 286.474 3.2075 0.615381 0
M  V30 2860 H 285.133 3.33919 -1.51306 0
M  V30 2861 H 284.781 5.02078 0.304398 0
M  V30 2862 H 284.481 5.72992 -1.30207 0
M  V30 2863 H 286.005 6.08998 -0.441972 0
M  V30 2864 H 287.419 5.15364 -2.51143 0
M  V30 2865 H 285.816 5.01814 -3.29093 0
M  V30 2866 H 286.886 3.60543 -3.24248 0
M  V30 2867 N 288.23 0.939286 1.26551 0
M  V30 2868 C 289.478 0.58469 1.93457 0
M  V30 2869 C 289.799 -0.878774 1.74076 0
M  V30 2870 O 289.069 -1.62421 1.09528 0
M  V30 2871 H 287.649 0.21325 0.715914 0
M  V30 2872 H 290.311 1.1942 1.54029 0
M  V30 2873 H 289.407 0.800849 3.0165 0
M  V30 2874 N 289.708 -1.40897 0.706093 0
M  V30 2875 C 290.933 -2.05895 0.249435 0
M  V30 2876 C 291.358 -1.52823 -1.09666 0
M  V30 2877 O 290.716 -0.659589 -1.68876 0
M  V30 2878 C 290.764 -3.59872 0.22904 0
M  V30 2879 O 289.868 -4.04708 -0.792784 0
M  V30 2880 H 289.209 -0.653206 0.119241 0
M  V30 2881 H 291.739 -1.80471 0.96391 0
M  V30 2882 H 291.749 -4.07951 0.0634791 0
M  V30 2883 H 290.424 -3.97866 1.21141 0
M  V30 2884 H 289.001 -3.68111 -0.59572 0
M  V30 2885 N 291.186 -0.45159 -1.50991 0
M  V30 2886 C 292.116 0.342898 -2.30969 0
M  V30 2887 C 293.097 1.00815 -1.37005 0
M  V30 2888 O 294.282 1.00907 -1.65926 0
M  V30 2889 C 291.412 1.43637 -3.16205 0
M  V30 2890 C 290.366 0.893818 -4.18563 0
M  V30 2891 C 289.692 2.08411 -4.92411 0
M  V30 2892 C 290.992 -0.0815568 -5.22236 0
M  V30 2893 H 292.686 -0.324556 -2.97636 0
M  V30 2894 H 290.232 -0.157531 -1.43136 0
M  V30 2895 H 292.185 1.9995 -3.70942 0
M  V30 2896 H 290.909 2.13232 -2.47386 0
M  V30 2897 H 289.568 0.352798 -3.64898 0
M  V30 2898 H 289.216 2.76658 -4.20082 0
M  V30 2899 H 288.916 1.72741 -5.61636 0
M  V30 2900 H 290.44 2.65251 -5.49976 0
M  V30 2901 H 291.854 0.391742 -5.7196 0
M  V30 2902 H 290.251 -0.351551 -5.99069 0
M  V30 2903 H 291.321 -1.01374 -4.74185 0
M  V30 2904 N 292.664 1.56529 -0.183458 0
M  V30 2905 C 293.614 2.1515 0.754605 0
M  V30 2906 C 294.598 1.08904 1.18443 0
M  V30 2907 O 295.79 1.34997 1.14476 0
M  V30 2908 C 292.919 2.80531 1.97881 0
M  V30 2909 C 292.005 3.93952 1.57043 0
M  V30 2910 N 292.396 4.98221 0.87231 0
M  V30 2911 C 290.694 4.05338 1.86057 0
M  V30 2912 C 291.395 5.77836 0.669377 0
M  V30 2913 N 290.371 5.29858 1.21454 0
M  V30 2914 H 294.173 2.93132 0.212387 0
M  V30 2915 H 291.687 1.62391 0.0167725 0
M  V30 2916 H 293.684 3.20914 2.6612 0
M  V30 2917 H 292.344 2.04035 2.52586 0
M  V30 2918 H 293.355 5.15191 0.529033 0
M  V30 2919 H 290.032 3.39957 2.42354 0
M  V30 2920 H 291.422 6.71799 0.116422 0
M  V30 2921 N 294.142 -0.090211 1.57342 0
M  V30 2922 C 295.075 -1.14035 1.97664 0
M  V30 2923 C 296.053 -1.38576 0.850616 0
M  V30 2924 O 297.237 -1.52255 1.11134 0
M  V30 2925 C 294.364 -2.48854 2.2976 0
M  V30 2926 C 293.41 -2.40564 3.52181 0
M  V30 2927 S 294.243 -1.81745 5.03715 0
M  V30 2928 C 295.399 -3.18178 5.38993 0
M  V30 2929 H 295.632 -0.796636 2.86428 0
M  V30 2930 H 293.165 -0.298072 1.51496 0
M  V30 2931 H 295.123 -3.26413 2.48927 0
M  V30 2932 H 293.784 -2.80393 1.41558 0
M  V30 2933 H 292.977 -3.39942 3.72096 0
M  V30 2934 H 292.579 -1.71135 3.32549 0
M  V30 2935 H 294.871 -4.14461 5.35937 0
M  V30 2936 H 295.814 -3.03062 6.39968 0
M  V30 2937 H 296.222 -3.17935 4.66452 0
M  V30 2938 N 295.62 -1.53406 -0.361157 0
M  V30 2939 C 296.845 -1.74024 -1.12829 0
M  V30 2940 C 297.27 -0.470069 -1.82132 0
M  V30 2941 O 296.628 0.57619 -1.719 0
M  V30 2942 C 296.676 -2.90903 -2.13091 0
M  V30 2943 O 295.78 -2.59821 -3.20261 0
M  V30 2944 H 295.121 -0.577804 -0.327168 0
M  V30 2945 H 297.651 -2.00307 -0.41693 0
M  V30 2946 H 297.661 -3.17194 -2.56616 0
M  V30 2947 H 296.336 -3.83034 -1.62042 0
M  V30 2948 H 294.913 -2.44362 -2.81677 0
M  V30 2949 N 297.098 0.621204 -1.44841 0
M  V30 2950 C 298.323 1.41244 -1.51871 0
M  V30 2951 C 298.748 1.87519 -0.147764 0
M  V30 2952 O 298.106 1.59334 0.865 0
M  V30 2953 C 298.154 2.60221 -2.49634 0
M  V30 2954 O 297.258 3.60395 -2.00473 0
M  V30 2955 H 296.599 0.42223 -0.512463 0
M  V30 2956 H 299.129 0.757305 -1.90069 0
M  V30 2957 H 299.139 3.0764 -2.67996 0
M  V30 2958 H 297.814 2.25887 -3.4921 0
M  V30 2959 H 296.391 3.19717 -1.91925 0
M  V30 2960 N 298.576 1.31904 0.862503 0
M  V30 2961 C 299.801 1.25135 1.65397 0
M  V30 2962 C 300.226 -0.179 1.87246 0
M  V30 2963 O 299.584 -1.1277 1.4196 0
M  V30 2964 C 299.632 2.00832 2.99498 0
M  V30 2965 O 298.736 1.35075 3.89652 0
M  V30 2966 H 298.077 0.431655 0.504549 0
M  V30 2967 H 300.607 1.74094 1.07483 0
M  V30 2968 H 300.617 2.10709 3.49379 0
M  V30 2969 H 299.292 3.04847 2.82916 0
M  V30 2970 H 297.869 1.33696 3.48109 0
M  V30 2971 N 300.054 -1.07777 1.14986 0
M  V30 2972 C 301.3 -1.80719 0.93339 0
M  V30 2973 C 301.655 -1.8484 -0.534019 0
M  V30 2974 O 300.948 -1.31795 -1.3907 0
M  V30 2975 C 301.142 -3.25495 1.47608 0
M  V30 2976 C 300.971 -3.3548 2.99472 0
M  V30 2977 C 299.741 -3.46293 3.6798 0
M  V30 2978 C 301.939 -3.26596 3.97291 0
M  V30 2979 N 299.921 -3.45136 5.07695 0
M  V30 2980 C 301.292 -3.32506 5.23297 0
M  V30 2981 C 303.347 -3.10376 3.89321 0
M  V30 2982 C 302.05 -3.23866 6.42264 0
M  V30 2983 C 304.076 -3.03069 5.07842 0
M  V30 2984 C 303.438 -3.09587 6.32721 0
M  V30 2985 H 299.537 -0.674814 0.395158 0
M  V30 2986 H 302.121 -1.28681 1.46114 0
M  V30 2987 H 300.292 -3.75963 0.975022 0
M  V30 2988 H 302.024 -3.86535 1.19887 0
M  V30 2989 H 298.779 -3.50456 3.18555 0
M  V30 2990 H 299.203 -3.48097 5.80653 0
M  V30 2991 H 303.845 -3.04194 2.93642 0
M  V30 2992 H 301.563 -3.28807 7.38181 0
M  V30 2993 H 305.149 -2.91629 5.03432 0
M  V30 2994 H 304.029 -3.0397 7.22891 0
M  V30 2995 N 301.532 -0.945985 -1.26051 0
M  V30 2996 C 302.809 -0.513816 -1.88731 0
M  V30 2997 C 303.189 1.00872 -1.8544 0
M  V30 2998 O 302.537 1.8708 -1.312 0
M  V30 2999 C 302.747 -1.08062 -3.31849 0
M  V30 3000 C 304.095 -1.1522 -4.08668 0
M  V30 3001 O 305.119 -1.03155 -3.40936 0
M  V30 3002 O 303.978 -1.34044 -5.29806 0
M  V30 3003 H 301.072 -0.168193 -0.809716 0
M  V30 3004 H 303.618 -1.03886 -1.34186 0
M  V30 3005 H 302.39 -2.1241 -3.2863 0
M  V30 3006 H 302.013 -0.538307 -3.93939 0
M  V30 3007 N 303.011 1.40521 -0.713556 0
M  V30 3008 C 303.943 2.29191 -0.0203126 0
M  V30 3009 C 304.956 1.45723 0.725864 0
M  V30 3010 O 306.145 1.69033 0.573581 0
M  V30 3011 C 303.245 3.2395 0.995486 0
M  V30 3012 C 302.418 4.36262 0.315256 0
M  V30 3013 C 301.477 5.11474 1.23616 0
M  V30 3014 O 300.503 5.64606 0.721719 0
M  V30 3015 N 301.705 5.20638 2.56743 0
M  V30 3016 H 304.47 2.89327 -0.781652 0
M  V30 3017 H 302.031 1.51869 -0.561022 0
M  V30 3018 H 304.023 3.71137 1.61368 0
M  V30 3019 H 302.593 2.64995 1.6582 0
M  V30 3020 H 301.813 3.91228 -0.483106 0
M  V30 3021 H 303.101 5.08558 -0.157004 0
M  V30 3022 H 302.499 4.7895 3.01037 0
M  V30 3023 H 301.056 5.71339 3.13712 0
M  V30 3024 N 304.489 0.459591 1.5075 0
M  V30 3025 C 305.719 -0.0972338 2.06371 0
M  V30 3026 C 306.127 -1.35074 1.32483 0
M  V30 3027 O 305.47 -1.79637 0.384226 0
M  V30 3028 C 305.532 -0.462759 3.56509 0
M  V30 3029 C 305.196 0.687084 4.51805 0
M  V30 3030 C 306.193 1.56578 4.95761 0
M  V30 3031 C 303.878 0.874144 4.94635 0
M  V30 3032 C 305.872 2.61604 5.81242 0
M  V30 3033 C 303.559 1.92765 5.79901 0
M  V30 3034 C 304.557 2.79697 6.23104 0
M  V30 3035 O 304.245 3.83235 7.06673 0
M  V30 3036 H 303.977 -0.00140687 0.675999 0
M  V30 3037 H 306.531 0.644011 1.95043 0
M  V30 3038 H 304.761 -1.25703 3.65699 0
M  V30 3039 H 306.45 -0.953323 3.94546 0
M  V30 3040 H 307.216 1.4329 4.6335 0
M  V30 3041 H 303.095 0.207006 4.60535 0
M  V30 3042 H 306.639 3.29489 6.14884 0
M  V30 3043 H 302.536 2.06064 6.11725 0
M  V30 3044 H 303.304 3.80084 7.24899 0
M  V30 3045 N 305.967 -1.56429 0.191757 0
M  V30 3046 C 307.213 -1.97777 -0.448554 0
M  V30 3047 C 307.546 -1.07847 -1.61501 0
M  V30 3048 O 306.821 -0.129774 -1.94067 0
M  V30 3049 C 307.104 -3.48362 -0.911906 0
M  V30 3050 C 306.957 -4.4907 0.256136 0
M  V30 3051 C 308.276 -4.02561 -1.77857 0
M  V30 3052 H 305.395 -0.719071 -0.161572 0
M  V30 3053 H 308.037 -1.87896 0.282007 0
M  V30 3054 H 306.187 -3.56914 -1.53442 0
M  V30 3055 H 307.859 -4.5256 0.893733 0
M  V30 3056 H 306.102 -4.24181 0.908436 0
M  V30 3057 H 306.773 -5.51889 -0.11053 0
M  V30 3058 H 309.249 -3.96767 -1.25359 0
M  V30 3059 H 308.125 -5.08301 -2.07174 0
M  V30 3060 H 308.386 -3.47616 -2.73158 0
M  V30 3061 N 307.445 0.0818655 -1.57387 0
M  V30 3062 C 308.355 1.11642 -2.06333 0
M  V30 3063 C 309.371 1.43033 -0.99083 0
M  V30 3064 O 310.547 1.53411 -1.30488 0
M  V30 3065 C 307.612 2.41342 -2.48907 0
M  V30 3066 C 306.673 2.17014 -3.7041 0
M  V30 3067 C 305.906 3.4053 -4.10944 0
M  V30 3068 O 306.129 4.4927 -3.51444 0
M  V30 3069 O 305.063 3.29336 -5.03807 0
M  V30 3070 H 308.889 0.730657 -2.9478 0
M  V30 3071 H 306.474 0.295301 -1.46452 0
M  V30 3072 H 308.356 3.17691 -2.76858 0
M  V30 3073 H 307.031 2.79319 -1.63593 0
M  V30 3074 H 305.938 1.38403 -3.47556 0
M  V30 3075 H 307.271 1.83923 -4.56545 0
M  V30 3076 N 308.923 1.53595 0.353017 0
M  V30 3077 C 310.2 1.61002 1.11075 0
M  V30 3078 C 310.58 0.425356 2.0677 0
M  V30 3079 O 309.928 -0.583267 2.2093 0
M  V30 3080 C 310.138 2.96631 1.83877 0
M  V30 3081 C 311.486 3.51653 2.37961 0
M  V30 3082 O 312.51 2.98743 1.93987 0
M  V30 3083 O 311.369 4.44177 3.18386 0
M  V30 3084 H 308.463 0.650825 0.510251 0
M  V30 3085 H 311.009 1.6594 0.35527 0
M  V30 3086 H 309.781 3.74293 1.14108 0
M  V30 3087 H 309.404 2.95242 2.66304 0
M  V30 3088 N 310.401 -0.613514 1.45168 0
M  V30 3089 C 311.812 -1.19539 1.43413 0
M  V30 3090 C 312.163 -1.95558 0.158632 0
M  V30 3091 O 311.288 -2.0335 -0.740119 0
M  V30 3092 C 311.883 -2.17445 2.59813 0
M  V30 3093 C 310.442 -2.71022 2.61197 0
M  V30 3094 C 309.589 -1.46323 2.35552 0
M  V30 3095 H 312.54 -0.403163 1.53494 0
M  V30 3096 H 312.561 -3.00373 2.33574 0
M  V30 3097 H 312.073 -1.62089 3.52631 0
M  V30 3098 H 310.174 -3.30332 1.7237 0
M  V30 3099 H 310.287 -3.15859 3.60236 0
M  V30 3100 H 308.651 -1.75072 1.84992 0
M  V30 3101 H 309.434 -0.92844 3.30507 0
M  V30 3102 N 311.879 -1.3236 -0.855495 0
M  V30 3103 C 313.104 -1.2601 -1.64731 0
M  V30 3104 C 313.529 0.169068 -1.87339 0
M  V30 3105 O 312.887 1.12016 -1.42556 0
M  V30 3106 C 312.935 -2.02417 -2.98429 0
M  V30 3107 O 312.039 -1.3714 -3.8893 0
M  V30 3108 H 311.38 -0.434325 -0.502253 0
M  V30 3109 H 313.91 -1.74661 -1.06558 0
M  V30 3110 H 313.92 -2.12559 -3.48257 0
M  V30 3111 H 312.595 -3.06343 -2.81295 0
M  V30 3112 H 311.172 -1.3554 -3.47395 0
M  V30 3113 N 313.357 1.07166 -1.15556 0
M  V30 3114 C 314.603 1.80065 -0.932984 0
M  V30 3115 C 314.936 1.86586 0.53845 0
M  V30 3116 O 314.211 1.35098 1.39924 0
M  V30 3117 C 314.494 3.25022 -1.55025 0
M  V30 3118 C 314.347 3.26634 -3.09242 0
M  V30 3119 C 315.666 4.22341 -1.2376 0
M  V30 3120 H 312.785 0.653697 -0.340366 0
M  V30 3121 H 315.427 1.25389 -1.4275 0
M  V30 3122 H 313.577 3.71712 -1.12972 0
M  V30 3123 H 315.249 2.88173 -3.60214 0
M  V30 3124 H 313.492 2.65539 -3.43033 0
M  V30 3125 H 314.163 4.28854 -3.47546 0
M  V30 3126 H 316.639 3.8405 -1.60139 0
M  V30 3127 H 315.515 5.22053 -1.69564 0
M  V30 3128 H 315.776 4.41828 -0.154938 0
M  V30 3129 N 314.835 0.952656 1.25548 0
M  V30 3130 C 316.083 0.605176 1.92826 0
M  V30 3131 C 316.404 -0.860261 1.74999 0
M  V30 3132 O 315.674 -1.6125 1.11244 0
M  V30 3133 H 314.254 0.220832 0.713612 0
M  V30 3134 H 316.916 1.21047 1.52754 0
M  V30 3135 H 316.012 0.832798 3.00784 0
M  V30 3136 N 316.313 -1.40141 0.720998 0
M  V30 3137 C 317.729 -1.54632 0.395113 0
M  V30 3138 C 317.929 -1.69115 -1.09555 0
M  V30 3139 O 316.985 -1.68377 -1.88163 0
M  V30 3140 C 318.298 -2.77177 1.1659 0
M  V30 3141 C 319.846 -2.91 1.15274 0
M  V30 3142 C 320.321 -4.16465 1.90579 0
M  V30 3143 N 321.812 -4.23476 1.87675 0
M  V30 3144 C 322.547 -5.19475 2.42762 0
M  V30 3145 N 322.043 -6.21348 3.06428 0
M  V30 3146 N 323.836 -5.11592 2.32874 0
M  V30 3147 H 315.987 -1.28986 1.68749 0
M  V30 3148 H 318.25 -0.62412 0.713567 0
M  V30 3149 H 317.956 -2.72771 2.22011 0
M  V30 3150 H 317.83 -3.69442 0.76108 0
M  V30 3151 H 320.217 -2.94907 0.106702 0
M  V30 3152 H 320.298 -1.99838 1.59682 0
M  V30 3153 H 319.942 -4.1332 2.95176 0
M  V30 3154 H 319.872 -5.06646 1.43587 0
M  V30 3155 H 322.363 -3.50497 1.41281 0
M  V30 3156 H 322.676 -6.91034 3.45965 0
M  V30 3157 H 321.021 -6.21777 3.10514 0
M  V30 3158 H 324.212 -4.30936 1.82789 0
M  V30 3159 H 324.385 -5.86233 2.76106 0
M  V30 3160 N 317.792 -0.46758 -1.50504 0
M  V30 3161 C 319.203 -0.0116166 -1.86696 0
M  V30 3162 C 319.554 1.39202 -1.38265 0
M  V30 3163 O 318.679 2.0313 -0.746132 0
M  V30 3164 C 319.274 -0.0143044 -3.38797 0
M  V30 3165 C 317.833 0.386175 -3.74414 0
M  V30 3166 C 316.98 -0.401287 -2.74381 0
M  V30 3167 H 319.931 -0.682022 -1.43297 0
M  V30 3168 H 319.952 0.788641 -3.72237 0
M  V30 3169 H 319.464 -1.03602 -3.74016 0
M  V30 3170 H 317.565 1.41237 -3.44794 0
M  V30 3171 H 317.678 0.0899596 -4.79016 0
M  V30 3172 H 316.042 0.144536 -2.5429 0
M  V30 3173 H 316.825 -1.42244 -3.12444 0
M  V30 3174 N 319.27 1.56325 -0.20005 0
M  V30 3175 C 320.233 2.18084 0.705132 0
M  V30 3176 C 321.233 1.13666 1.1374 0
M  V30 3177 O 322.423 1.39023 1.04968 0
M  V30 3178 C 319.555 2.78689 1.96329 0
M  V30 3179 H 320.748 2.99435 0.167023 0
M  V30 3180 H 318.301 1.56221 0.0495725 0
M  V30 3181 H 319.036 2.0115 2.5438 0
M  V30 3182 H 318.821 3.55133 1.66202 0
M  V30 3183 H 320.311 3.26096 2.60866 0
M  V30 3184 N 320.748 -0.0735177 1.57428 0
M  V30 3185 C 321.678 -1.0879 2.06608 0
M  V30 3186 C 322.659 -1.40473 0.959237 0
M  V30 3187 O 323.844 -1.5013 1.23185 0
M  V30 3188 C 320.974 -2.40183 2.50857 0
M  V30 3189 C 319.928 -2.22858 3.65402 0
M  V30 3190 C 319.254 -3.59619 3.957 0
M  V30 3191 C 320.554 -1.65123 4.95511 0
M  V30 3192 H 322.248 -0.678673 2.91607 0
M  V30 3193 H 319.794 -0.325013 1.40284 0
M  V30 3194 H 321.747 -3.11437 2.83874 0
M  V30 3195 H 320.471 -2.83083 1.62885 0
M  V30 3196 H 319.13 -1.54045 3.32664 0
M  V30 3197 H 318.778 -4.00086 3.04861 0
M  V30 3198 H 318.478 -3.48866 4.72828 0
M  V30 3199 H 320.002 -4.32306 4.31212 0
M  V30 3200 H 321.416 -2.26241 5.26771 0
M  V30 3201 H 319.813 -1.65071 5.7695 0
M  V30 3202 H 320.883 -0.612559 4.81015 0
M  V30 3203 N 322.226 -1.5378 -0.344866 0
M  V30 3204 C 323.472 -1.71216 -1.08687 0
M  V30 3205 C 323.805 -0.473281 -1.88345 0
M  V30 3206 O 323.08 0.52968 -1.87149 0
M  V30 3207 C 323.363 -2.97486 -2.02914 0
M  V30 3208 C 323.216 -4.31579 -1.26727 0
M  V30 3209 C 324.535 -3.19422 -3.0275 0
M  V30 3210 H 321.654 -0.62301 -0.393735 0
M  V30 3211 H 324.296 -1.8645 -0.365563 0
M  V30 3212 H 322.446 -2.84629 -2.64421 0
M  V30 3213 H 324.118 -4.56284 -0.67845 0
M  V30 3214 H 322.361 -4.30049 -0.569273 0
M  V30 3215 H 323.032 -5.16106 -1.95803 0
M  V30 3216 H 325.508 -3.316 -2.51357 0
M  V30 3217 H 324.384 -4.09169 -3.65885 0
M  V30 3218 H 324.645 -2.35656 -3.74057 0
M  V30 3219 N 323.704 0.605807 -1.45491 0
M  V30 3220 C 324.637 1.73022 -1.48791 0
M  V30 3221 C 325.615 1.58917 -0.344112 0
M  V30 3222 O 326.799 1.80453 -0.544876 0
M  V30 3223 C 323.926 3.10865 -1.34463 0
M  V30 3224 C 322.972 3.43554 -2.5273 0
M  V30 3225 S 323.805 3.38196 -4.15191 0
M  V30 3226 C 324.961 4.78616 -4.03333 0
M  V30 3227 H 325.194 1.69961 -2.43928 0
M  V30 3228 H 322.727 0.782611 -1.33096 0
M  V30 3229 H 324.685 3.90398 -1.26884 0
M  V30 3230 H 323.346 3.1144 -0.40794 0
M  V30 3231 H 322.539 4.43924 -2.38637 0
M  V30 3232 H 322.141 2.71541 -2.5718 0
M  V30 3233 H 324.433 5.68463 -3.68587 0
M  V30 3234 H 325.376 4.97767 -5.03621 0
M  V30 3235 H 325.784 4.54381 -3.34959 0
M  V30 3236 N 325.182 1.32811 0.848464 0
M  V30 3237 C 326.459 1.14334 1.58704 0
M  V30 3238 C 326.839 -0.293948 2.09043 0
M  V30 3239 O 326.187 -1.29153 1.88499 0
M  V30 3240 C 326.397 2.17626 2.72837 0
M  V30 3241 C 327.745 2.51282 3.42261 0
M  V30 3242 O 328.769 2.16219 2.83068 0
M  V30 3243 O 327.628 3.11413 4.49093 0
M  V30 3244 H 324.722 0.441601 0.699226 0
M  V30 3245 H 327.268 1.44362 0.892053 0
M  V30 3246 H 326.04 3.14211 2.3321 0
M  V30 3247 H 325.663 1.88628 3.50008 0
M  V30 3248 N 326.66 -1.06551 1.16123 0
M  V30 3249 C 327.908 -1.78947 0.939267 0
M  V30 3250 C 328.229 -1.87532 -0.534476 0
M  V30 3251 O 327.499 -1.38211 -1.38833 0
M  V30 3252 H 326.079 -0.662807 0.344523 0
M  V30 3253 H 328.741 -1.28725 1.46342 0
M  V30 3254 H 327.837 -2.81117 1.35572 0
M  V30 3255 N 328.138 -0.959301 -1.25041 0
M  V30 3256 C 329.085 -0.482057 -2.2571 0
M  V30 3257 C 330.055 0.467939 -1.59372 0
M  V30 3258 O 331.24 0.380159 -1.86974 0
M  V30 3259 C 328.38 0.229623 -3.44335 0
M  V30 3260 C 327.493 -0.758156 -4.25295 0
M  V30 3261 C 326.628 -0.0234403 -5.31195 0
M  V30 3262 C 325.667 -1.00184 -6.03846 0
M  V30 3263 N 324.804 -0.29769 -7.01469 0
M  V30 3264 H 329.644 -1.34538 -2.65901 0
M  V30 3265 H 327.181 -0.674592 -1.3072 0
M  V30 3266 H 329.139 0.658856 -4.11965 0
M  V30 3267 H 327.769 1.05696 -3.05005 0
M  V30 3268 H 326.821 -1.30586 -3.57284 0
M  V30 3269 H 328.133 -1.50458 -4.75567 0
M  V30 3270 H 327.287 0.464201 -6.04922 0
M  V30 3271 H 326.026 0.755741 -4.81809 0
M  V30 3272 H 325.031 -1.50044 -5.2893 0
M  V30 3273 H 326.256 -1.78133 -6.55321 0
M  V30 3274 H 324.202 0.462668 -6.54366 0
M  V30 3275 H 324.119 -0.983128 -7.4958 0
M  V30 3276 H 325.387 0.16826 -7.79318 0
M  V30 3277 N 329.616 1.39756 -0.72842 0
M  V30 3278 C 331.032 1.5442 -0.403308 0
M  V30 3279 C 331.232 1.69694 1.08656 0
M  V30 3280 O 330.288 1.69373 1.87267 0
M  V30 3281 C 331.601 2.76555 -1.18058 0
M  V30 3282 C 333.149 2.90384 -1.16815 0
M  V30 3283 C 333.624 4.15449 -1.92785 0
M  V30 3284 N 335.115 4.22475 -1.89918 0
M  V30 3285 C 335.85 5.1818 -2.45514 0
M  V30 3286 N 335.346 6.19714 -3.09719 0
M  V30 3287 N 337.139 5.1035 -2.35584 0
M  V30 3288 H 329.29 1.28089 -1.69431 0
M  V30 3289 H 331.553 0.620327 -0.716867 0
M  V30 3290 H 331.259 2.7159 -2.23455 0
M  V30 3291 H 331.133 3.69033 -0.780662 0
M  V30 3292 H 333.52 2.94846 -0.12234 0
M  V30 3293 H 333.601 1.98988 -1.6074 0
M  V30 3294 H 333.245 4.11749 -2.97364 0
M  V30 3295 H 333.175 5.05877 -1.46272 0
M  V30 3296 H 335.666 3.49743 -1.43138 0
M  V30 3297 H 335.979 6.8919 -3.49625 0
M  V30 3298 H 334.324 6.20121 -3.13807 0
M  V30 3299 H 337.515 4.2996 -1.85072 0
M  V30 3300 H 337.688 5.84761 -2.79211 0
M  V30 3301 N 331.094 0.475555 1.50254 0
M  V30 3302 C 332.34 -0.0780073 2.0265 0
M  V30 3303 C 332.673 -1.38968 1.35652 0
M  V30 3304 O 331.948 -1.8839 0.483691 0
M  V30 3305 C 332.231 -0.257161 3.59181 0
M  V30 3306 C 332.084 1.07585 4.36744 0
M  V30 3307 C 333.403 -1.00965 4.28362 0
M  V30 3308 H 330.522 -0.0268758 0.73651 0
M  V30 3309 H 333.164 0.622015 1.7953 0
M  V30 3310 H 331.314 -0.853412 3.79011 0
M  V30 3311 H 332.986 1.70902 4.28474 0
M  V30 3312 H 331.229 1.6714 4.00308 0
M  V30 3313 H 331.9 0.904088 5.44546 0
M  V30 3314 H 334.376 -0.504214 4.13034 0
M  V30 3315 H 333.252 -1.10381 5.37687 0
M  V30 3316 H 333.513 -2.04731 3.91839 0
M  V30 3317 N 332.573 -1.56217 0.208337 0
M  V30 3318 C 333.82 -1.97949 -0.42692 0
M  V30 3319 C 334.148 -1.09562 -1.60706 0
M  V30 3320 O 333.403 -0.137616 -1.95216 0
M  V30 3321 C 333.702 -3.45441 -0.916797 0
M  V30 3322 C 333.368 -4.50646 0.151391 0
M  V30 3323 C 332.03 -4.79139 0.444867 0
M  V30 3324 C 334.382 -5.13811 0.874492 0
M  V30 3325 C 331.71 -5.68084 1.46619 0
M  V30 3326 C 334.062 -6.03861 1.88506 0
M  V30 3327 C 332.726 -6.30704 2.18559 0
M  V30 3328 H 331.996 -0.724345 -0.156221 0
M  V30 3329 H 334.643 -1.89006 0.308084 0
M  V30 3330 H 332.948 -3.51521 -1.73032 0
M  V30 3331 H 334.645 -3.75094 -1.41794 0
M  V30 3332 H 331.235 -4.28511 -0.0875068 0
M  V30 3333 H 335.419 -4.91879 0.660996 0
M  V30 3334 H 330.675 -5.87151 1.7048 0
M  V30 3335 H 334.849 -6.51861 2.45051 0
M  V30 3336 H 332.476 -6.99424 2.97843 0
M  V30 3337 N 334.051 0.0651679 -1.57465 0
M  V30 3338 C 335.467 0.420105 -1.53972 0
M  V30 3339 C 335.667 1.78782 -0.929474 0
M  V30 3340 O 334.723 2.46771 -0.534839 0
M  V30 3341 C 336.036 0.355084 -2.98596 0
M  V30 3342 C 337.584 0.434792 -3.09965 0
M  V30 3343 C 338.059 0.399609 -4.56253 0
M  V30 3344 N 339.55 0.459488 -4.60915 0
M  V30 3345 C 340.285 0.454584 -5.71595 0
M  V30 3346 N 339.781 0.404102 -6.9162 0
M  V30 3347 N 341.574 0.501635 -5.59857 0
M  V30 3348 H 333.725 -0.830328 -1.95498 0
M  V30 3349 H 335.988 -0.312244 -0.895102 0
M  V30 3350 H 335.694 -0.583357 -3.46828 0
M  V30 3351 H 335.568 1.16275 -3.58831 0
M  V30 3352 H 337.955 1.36366 -2.61703 0
M  V30 3353 H 338.036 -0.40157 -2.52628 0
M  V30 3354 H 337.68 -0.525436 -5.05175 0
M  V30 3355 H 337.61 1.25359 -5.11461 0
M  V30 3356 H 340.101 0.502482 -3.74544 0
M  V30 3357 H 340.414 0.404468 -7.71741 0
M  V30 3358 H 338.759 0.37069 -6.94011 0
M  V30 3359 H 341.95 0.538812 -4.64989 0
M  V30 3360 H 342.123 0.494345 -6.46112 0
M  V30 3361 N 335.529 1.53961 0.336706 0
M  V30 3362 C 336.775 1.7273 1.07406 0
M  V30 3363 C 337.13 0.488095 1.86106 0
M  V30 3364 O 336.423 -0.519379 1.84426 0
M  V30 3365 C 336.617 2.93493 2.03953 0
M  V30 3366 C 336.446 4.29039 1.34744 0
M  V30 3367 C 335.216 4.93416 1.08942 0
M  V30 3368 C 337.414 5.08501 0.770115 0
M  V30 3369 N 335.396 6.12821 0.363864 0
M  V30 3370 C 336.767 6.19752 0.175472 0
M  V30 3371 C 338.822 4.93349 0.671633 0
M  V30 3372 C 337.525 7.17503 -0.508081 0
M  V30 3373 C 339.551 5.914 0.0018076 0
M  V30 3374 C 338.913 7.01993 -0.581835 0
M  V30 3375 H 335.012 0.685026 0.377177 0
M  V30 3376 H 337.596 1.91403 0.356815 0
M  V30 3377 H 335.767 2.76308 2.72962 0
M  V30 3378 H 337.499 3.00949 2.70577 0
M  V30 3379 H 334.254 4.53099 1.37833 0
M  V30 3380 H 334.678 6.76998 0.0156092 0
M  V30 3381 H 339.32 4.08007 1.1086 0
M  V30 3382 H 337.038 8.02414 -0.956918 0
M  V30 3383 H 340.624 5.81753 -0.0738538 0
M  V30 3384 H 339.504 7.76561 -1.09192 0
M  V30 3385 N 337.007 -0.598083 1.45811 0
M  V30 3386 C 337.97 -1.69018 1.54808 0
M  V30 3387 C 338.97 -1.55037 0.426652 0
M  V30 3388 O 340.16 -1.59932 0.690456 0
M  V30 3389 C 337.292 -3.0835 1.45371 0
M  V30 3390 H 338.485 -1.62403 2.52121 0
M  V30 3391 H 336.038 -0.814626 1.33392 0
M  V30 3392 H 336.773 -3.20534 0.492793 0
M  V30 3393 H 336.558 -3.19907 2.26721 0
M  V30 3394 H 338.048 -3.8788 1.54721 0
M  V30 3395 N 338.485 -1.33259 -0.841409 0
M  V30 3396 C 339.731 -1.24757 -1.59886 0
M  V30 3397 C 340.064 0.186913 -1.93298 0
M  V30 3398 O 339.339 1.12757 -1.5848 0
M  V30 3399 C 339.622 -2.12036 -2.91055 0
M  V30 3400 C 339.475 -3.63929 -2.6434 0
M  V30 3401 C 340.794 -1.9916 -3.92458 0
M  V30 3402 H 337.913 -0.454542 -0.580138 0
M  V30 3403 H 340.555 -1.63335 -0.970647 0
M  V30 3404 H 338.705 -1.79265 -3.44669 0
M  V30 3405 H 340.377 -4.06978 -2.17178 0
M  V30 3406 H 338.62 -3.85935 -1.98082 0
M  V30 3407 H 339.291 -4.20341 -3.57796 0
M  V30 3408 H 341.767 -2.27895 -3.48143 0
M  V30 3409 H 340.643 -2.62484 -4.82072 0
M  V30 3410 H 340.904 -0.963082 -4.31482 0
M  V30 3411 N 339.963 1.05934 -1.16686 0
M  V30 3412 C 340.926 2.11669 -0.879144 0
M  V30 3413 C 341.926 1.60294 0.127445 0
M  V30 3414 O 343.116 1.7389 -0.103865 0
M  V30 3415 C 340.248 3.39438 -0.315425 0
M  V30 3416 H 341.441 2.38626 -1.81653 0
M  V30 3417 H 338.994 1.22058 -0.976299 0
M  V30 3418 H 339.729 3.18132 0.629468 0
M  V30 3419 H 339.514 3.78034 -1.04079 0
M  V30 3420 H 341.004 4.17391 -0.132189 0
M  V30 3421 N 341.441 0.965919 1.2453 0
M  V30 3422 C 342.718 0.543777 1.87889 0
M  V30 3423 C 343.098 -0.97909 1.87021 0
M  V30 3424 O 342.446 -1.84969 1.3416 0
M  V30 3425 C 342.656 1.13327 3.30088 0
M  V30 3426 C 344.004 1.21707 4.06783 0
M  V30 3427 O 345.028 1.08566 3.39252 0
M  V30 3428 O 343.887 1.42456 5.27606 0
M  V30 3429 H 340.981 0.181054 0.806938 0
M  V30 3430 H 343.527 1.06007 1.32516 0
M  V30 3431 H 342.299 2.17612 3.25209 0
M  V30 3432 H 341.922 0.600911 3.93033 0
M  V30 3433 N 342.919 -1.39368 0.735821 0
M  V30 3434 C 344.165 -2.00794 0.284544 0
M  V30 3435 C 344.498 -1.58255 -1.12557 0
M  V30 3436 O 343.773 -0.811819 -1.76748 0
M  V30 3437 C 344.056 -3.58011 0.387337 0
M  V30 3438 C 343.909 -4.10566 1.83728 0
M  V30 3439 C 345.228 -4.395 -0.22975 0
M  V30 3440 H 342.347 -0.729501 0.104866 0
M  V30 3441 H 344.989 -1.65564 0.93213 0
M  V30 3442 H 343.139 -3.88154 -0.164006 0
M  V30 3443 H 344.811 -3.91139 2.44556 0
M  V30 3444 H 343.054 -3.64095 2.35833 0
M  V30 3445 H 343.725 -5.19702 1.86047 0
M  V30 3446 H 346.201 -4.15406 0.240257 0
M  V30 3447 H 345.077 -5.48752 -0.127485 0
M  V30 3448 H 345.338 -4.22062 -1.3159 0
M  V30 3449 N 344.397 -0.483516 -1.5 0
M  V30 3450 C 345.643 0.0672592 -2.02688 0
M  V30 3451 C 345.976 1.38247 -1.36387 0
M  V30 3452 O 345.251 1.88131 -0.493675 0
M  V30 3453 C 345.534 0.238109 -3.59312 0
M  V30 3454 C 345.387 -1.099 -4.36168 0
M  V30 3455 C 346.706 0.986916 -4.28892 0
M  V30 3456 H 343.825 0.0229696 -0.736642 0
M  V30 3457 H 346.467 -0.631527 -1.79197 0
M  V30 3458 H 344.617 0.8333 -3.79458 0
M  V30 3459 H 346.289 -1.73172 -4.27562 0
M  V30 3460 H 344.532 -1.69261 -3.99416 0
M  V30 3461 H 345.203 -0.932954 -5.44059 0
M  V30 3462 H 347.679 0.482302 -4.13295 0
M  V30 3463 H 346.555 1.07527 -5.38265 0
M  V30 3464 H 346.816 2.0265 -3.92919 0
M  V30 3465 N 345.875 1.56104 -0.216619 0
M  V30 3466 C 347.286 1.844 0.292128 0
M  V30 3467 C 347.637 1.13788 1.59833 0
M  V30 3468 O 346.762 0.405888 2.12559 0
M  V30 3469 C 347.357 3.3452 0.53681 0
M  V30 3470 C 345.916 3.63151 0.989876 0
M  V30 3471 C 345.063 2.77255 0.0502302 0
M  V30 3472 H 348.014 1.52481 -0.439926 0
M  V30 3473 H 348.035 3.54459 1.38345 0
M  V30 3474 H 347.547 3.85885 -0.414031 0
M  V30 3475 H 345.648 3.17238 1.95425 0
M  V30 3476 H 345.761 4.71177 0.867698 0
M  V30 3477 H 344.125 2.48555 0.556117 0
M  V30 3478 H 344.908 3.31416 -0.89544 0
M  V30 3479 N 347.353 -0.0568162 1.57498 0
M  V30 3480 C 348.316 -1.05038 2.03715 0
M  V30 3481 C 349.316 -1.30709 0.936577 0
M  V30 3482 O 350.506 -1.26178 1.20103 0
M  V30 3483 C 347.638 -2.39034 2.43055 0
M  V30 3484 H 348.831 -0.651715 2.92733 0
M  V30 3485 H 346.384 -0.302947 1.53336 0
M  V30 3486 H 347.119 -2.83703 1.57108 0
M  V30 3487 H 346.904 -2.21739 3.2338 0
M  V30 3488 H 348.394 -3.10421 2.79336 0
M  V30 3489 N 348.832 -1.54138 -0.328536 0
M  V30 3490 C 349.795 -1.82462 -1.38709 0
M  V30 3491 C 350.795 -0.696229 -1.44946 0
M  V30 3492 O 351.985 -0.964535 -1.4506 0
M  V30 3493 C 349.117 -1.98018 -2.77492 0
M  V30 3494 H 350.31 -2.77037 -1.14851 0
M  V30 3495 H 347.863 -1.45779 -0.563751 0
M  V30 3496 H 348.598 -1.05637 -3.06613 0
M  V30 3497 H 348.383 -2.80124 -2.74359 0
M  V30 3498 H 349.873 -2.21396 -3.54081 0
M  V30 3499 N 350.31 0.590341 -1.46126 0
M  V30 3500 C 351.726 0.912917 -1.30912 0
M  V30 3501 C 351.926 1.99616 -0.274893 0
M  V30 3502 O 350.982 2.50397 0.325197 0
M  V30 3503 C 352.295 1.3375 -2.69317 0
M  V30 3504 C 353.843 1.45077 -2.77348 0
M  V30 3505 C 354.318 1.90904 -4.16317 0
M  V30 3506 N 355.809 1.9811 -4.18696 0
M  V30 3507 C 356.544 2.34828 -5.23109 0
M  V30 3508 N 356.04 2.70393 -6.37856 0
M  V30 3509 N 357.833 2.35317 -5.10473 0
M  V30 3510 H 349.984 -0.125358 -2.1203 0
M  V30 3511 H 352.247 0.00658481 -0.947977 0
M  V30 3512 H 351.953 0.615614 -3.4627 0
M  V30 3513 H 351.827 2.30058 -2.9892 0
M  V30 3514 H 354.214 2.16353 -2.00687 0
M  V30 3515 H 354.295 0.4704 -2.51438 0
M  V30 3516 H 353.939 1.20209 -4.9347 0
M  V30 3517 H 353.869 2.89886 -4.39629 0
M  V30 3518 H 356.36 1.73146 -3.359 0
M  V30 3519 H 356.673 2.97341 -7.13308 0
M  V30 3520 H 355.018 2.68048 -6.41229 0
M  V30 3521 H 358.209 2.0695 -4.19868 0
M  V30 3522 H 358.382 2.63605 -5.9196 0
M  V30 3523 N 351.788 1.33704 0.83433 0
M  V30 3524 C 352.698 1.26382 1.97648 0
M  V30 3525 C 353.714 0.173548 1.73132 0
M  V30 3526 O 354.89 0.397962 1.97429 0
M  V30 3527 C 351.955 1.00769 3.31733 0
M  V30 3528 C 351.016 2.1884 3.69334 0
M  V30 3529 C 350.249 1.9444 4.9702 0
M  V30 3530 O 350.472 0.896961 5.63303 0
M  V30 3531 O 349.406 2.81093 5.32231 0
M  V30 3532 H 353.232 2.22444 2.06767 0
M  V30 3533 H 350.817 1.13795 0.968037 0
M  V30 3534 H 352.699 0.882186 4.12062 0
M  V30 3535 H 351.374 0.0773783 3.23608 0
M  V30 3536 H 350.281 2.36946 2.89495 0
M  V30 3537 H 351.614 3.10221 3.82131 0
M  V30 3538 N 353.266 -1.05314 1.17247 0
M  V30 3539 C 354.229 -2.112 0.890357 0
M  V30 3540 C 355.229 -1.60359 -0.118943 0
M  V30 3541 O 356.419 -1.73833 0.113086 0
M  V30 3542 C 353.551 -3.39266 0.333422 0
M  V30 3543 H 354.744 -2.37659 1.82916 0
M  V30 3544 H 352.297 -1.21538 0.982758 0
M  V30 3545 H 353.032 -3.18462 -0.612587 0
M  V30 3546 H 352.817 -3.77477 1.06082 0
M  V30 3547 H 354.307 -4.17315 0.154322 0
M  V30 3548 N 354.744 -0.972509 -1.24016 0
M  V30 3549 C 355.674 -0.525548 -2.27509 0
M  V30 3550 C 356.655 0.437262 -1.64384 0
M  V30 3551 O 357.84 0.332343 -1.91335 0
M  V30 3552 C 354.97 0.180448 -3.46831 0
M  V30 3553 C 353.924 -0.698859 -4.22256 0
M  V30 3554 C 353.25 0.138903 -5.3452 0
M  V30 3555 C 354.55 -1.98582 -4.83076 0
M  V30 3556 H 356.244 -1.39058 -2.65148 0
M  V30 3557 H 353.79 -0.67009 -1.27459 0
M  V30 3558 H 355.743 0.504387 -4.18371 0
M  V30 3559 H 354.467 1.07987 -3.08231 0
M  V30 3560 H 353.126 -1.00614 -3.52523 0
M  V30 3561 H 352.774 1.03862 -4.9216 0
M  V30 3562 H 352.474 -0.446259 -5.85903 0
M  V30 3563 H 353.998 0.457404 -6.08884 0
M  V30 3564 H 355.412 -1.72715 -5.46665 0
M  V30 3565 H 353.809 -2.5181 -5.44713 0
M  V30 3566 H 354.879 -2.67769 -4.04262 0
M  V30 3567 N 356.222 1.38976 -0.743202 0
M  V30 3568 C 357.132 2.3434 -0.110399 0
M  V30 3569 C 358.148 1.58741 0.712559 0
M  V30 3570 O 359.324 1.9099 0.639125 0
M  V30 3571 C 356.389 3.37812 0.780012 0
M  V30 3572 C 355.45 4.29263 -0.0561319 0
M  V30 3573 C 354.683 5.27793 0.791875 0
M  V30 3574 O 354.906 5.33043 2.03031 0
M  V30 3575 O 353.84 6.01512 0.216183 0
M  V30 3576 H 357.666 2.90129 -0.897714 0
M  V30 3577 H 355.251 1.40643 -0.503966 0
M  V30 3578 H 357.133 4.01194 1.28923 0
M  V30 3579 H 355.808 2.84395 1.546 0
M  V30 3580 H 354.715 3.69076 -0.611056 0
M  V30 3581 H 356.048 4.85907 -0.784531 0
M  V30 3582 N 357.7 0.491464 1.49741 0
M  V30 3583 C 358.946 -0.0565092 2.02721 0
M  V30 3584 C 359.279 -1.37522 1.37118 0
M  V30 3585 O 358.554 -1.87866 0.503645 0
M  V30 3586 C 358.837 -0.219051 3.59433 0
M  V30 3587 C 358.69 1.12211 4.35579 0
M  V30 3588 C 360.009 -0.964157 4.29409 0
M  V30 3589 H 357.128 -0.0190627 0.736753 0
M  V30 3590 H 359.77 0.641021 1.7886 0
M  V30 3591 H 357.92 -0.813165 3.79895 0
M  V30 3592 H 359.592 1.75437 4.26637 0
M  V30 3593 H 357.835 1.71377 3.98513 0
M  V30 3594 H 358.506 0.961794 5.43556 0
M  V30 3595 H 360.982 -0.460378 4.13545 0
M  V30 3596 H 359.858 -1.04671 5.38828 0
M  V30 3597 H 360.119 -2.00563 3.93988 0
M  V30 3598 N 359.178 -1.55987 0.224894 0
M  V30 3599 C 360.141 -2.19178 -0.670348 0
M  V30 3600 C 361.141 -1.15461 -1.11917 0
M  V30 3601 O 362.331 -1.40675 -1.02743 0
M  V30 3602 C 359.463 -2.81777 -1.9187 0
M  V30 3603 H 360.656 -2.99662 -0.119364 0
M  V30 3604 H 358.209 -1.5628 -0.0247128 0
M  V30 3605 H 358.944 -2.05172 -2.51147 0
M  V30 3606 H 358.729 -3.57732 -1.60531 0
M  V30 3607 H 360.219 -3.30205 -2.55645 0
M  V30 3608 N 360.656 0.0484629 -1.57525 0
M  V30 3609 C 361.904 0.741657 -1.88 0
M  V30 3610 C 362.225 1.76918 -0.820054 0
M  V30 3611 O 361.495 1.95335 0.148661 0
M  V30 3612 H 360.075 0.276908 -0.69378 0
M  V30 3613 H 362.737 0.019013 -1.94891 0
M  V30 3614 H 361.833 1.24336 -2.86264 0
M  V30 3615 N 362.134 1.5431 0.320358 0
M  V30 3616 C 363.064 1.86912 1.3995 0
M  V30 3617 C 364.045 0.726211 1.53819 0
M  V30 3618 O 365.23 0.980233 1.67646 0
M  V30 3619 C 362.36 2.09932 2.7667 0
M  V30 3620 C 361.314 3.25776 2.77586 0
M  V30 3621 C 360.64 3.34173 4.17412 0
M  V30 3622 C 361.94 4.6335 2.41048 0
M  V30 3623 H 363.634 2.77292 1.12914 0
M  V30 3624 H 361.18 1.33421 0.541738 0
M  V30 3625 H 363.133 2.31324 3.52232 0
M  V30 3626 H 361.857 1.16304 3.0519 0
M  V30 3627 H 360.516 3.04276 2.04479 0
M  V30 3628 H 360.164 2.38098 4.43078 0
M  V30 3629 H 359.864 4.12033 4.18931 0
M  V30 3630 H 361.388 3.57803 4.94782 0
M  V30 3631 H 362.802 4.84602 3.06324 0
M  V30 3632 H 361.199 5.43782 2.53813 0
M  V30 3633 H 362.269 4.65381 1.36193 0
M  V30 3634 N 363.613 -0.582584 1.46437 0
M  V30 3635 C 364.841 -1.36682 1.55324 0
M  V30 3636 C 365.256 -1.87796 0.194409 0
M  V30 3637 O 364.613 -1.63623 -0.808318 0
M  V30 3638 C 364.664 -2.55426 2.55812 0
M  V30 3639 O 364.385 -2.0643 3.86417 0
M  V30 3640 C 365.886 -3.47976 2.74641 0
M  V30 3641 H 363.106 -0.417545 0.525259 0
M  V30 3642 H 365.65 -0.708219 1.91845 0
M  V30 3643 H 363.805 -3.17275 2.22295 0
M  V30 3644 H 364.219 -2.83762 4.41111 0
M  V30 3645 H 365.693 -4.27775 3.48874 0
M  V30 3646 H 366.17 -3.99919 1.81553 0
M  V30 3647 H 366.776 -2.91962 3.09255 0
M  V30 3648 N 365.091 -1.34144 -0.827227 0
M  V30 3649 C 366.337 -1.26446 -1.58554 0
M  V30 3650 C 366.67 0.1664 -1.93486 0
M  V30 3651 O 365.945 1.1107 -1.59667 0
M  V30 3652 C 366.228 -2.15111 -2.8879 0
M  V30 3653 C 366.081 -3.66712 -2.60465 0
M  V30 3654 C 367.4 -2.03311 -3.90324 0
M  V30 3655 H 364.519 -0.46067 -0.575284 0
M  V30 3656 H 367.161 -1.64356 -0.953269 0
M  V30 3657 H 365.311 -1.8291 -3.42748 0
M  V30 3658 H 366.983 -4.09259 -2.1285 0
M  V30 3659 H 365.226 -3.88014 -1.93978 0
M  V30 3660 H 365.897 -4.24112 -3.53317 0
M  V30 3661 H 368.373 -2.31574 -3.45706 0
M  V30 3662 H 367.249 -2.67582 -4.79261 0
M  V30 3663 H 367.51 -1.00879 -4.30437 0
M  V30 3664 N 366.569 1.04691 -1.17803 0
M  V30 3665 C 367.817 1.7743 -0.967617 0
M  V30 3666 C 368.138 1.88359 0.504574 0
M  V30 3667 O 367.408 1.40402 1.36617 0
M  V30 3668 H 365.988 0.657242 -0.355024 0
M  V30 3669 H 368.65 1.2638 -1.48371 0
M  V30 3670 H 367.746 2.78924 -1.40027 0
M  V30 3671 N 368.047 0.979072 1.23499 0
M  V30 3672 C 369.324 0.563674 1.87302 0
M  V30 3673 C 369.704 -0.959199 1.88049 0
M  V30 3674 O 369.052 -1.83535 1.36114 0
M  V30 3675 C 369.262 1.16822 3.28867 0
M  V30 3676 C 370.61 1.26014 4.0547 0
M  V30 3677 O 371.634 1.12158 3.38082 0
M  V30 3678 O 370.493 1.48044 5.26066 0
M  V30 3679 H 367.587 0.189602 0.804972 0
M  V30 3680 H 370.133 1.07407 1.31384 0
M  V30 3681 H 368.905 2.21049 3.22883 0
M  V30 3682 H 368.528 0.642564 3.92373 0
M  V30 3683 N 369.525 -1.3858 0.750561 0
M  V30 3684 C 370.455 -2.33102 0.136237 0
M  V30 3685 C 371.436 -1.54713 -0.706965 0
M  V30 3686 O 372.621 -1.83043 -0.648769 0
M  V30 3687 C 369.751 -3.38882 -0.760017 0
M  V30 3688 C 368.705 -4.27995 -0.0197785 0
M  V30 3689 C 368.031 -5.24605 -1.03408 0
M  V30 3690 C 369.331 -5.09554 1.14684 0
M  V30 3691 H 371.025 -2.84726 0.925822 0
M  V30 3692 H 368.571 -1.36898 0.446654 0
M  V30 3693 H 370.524 -4.0397 -1.19943 0
M  V30 3694 H 369.248 -2.85734 -1.58189 0
M  V30 3695 H 367.907 -3.64409 0.400184 0
M  V30 3696 H 367.555 -4.67746 -1.84994 0
M  V30 3697 H 367.255 -5.85081 -0.543464 0
M  V30 3698 H 368.779 -5.9257 -1.47288 0
M  V30 3699 H 370.193 -5.67899 0.785118 0
M  V30 3700 H 368.59 -5.7925 1.56812 0
M  V30 3701 H 369.66 -4.4347 1.96118 0
M  V30 3702 N 371.003 -0.499398 -1.49478 0
M  V30 3703 C 372.249 0.0457576 -2.02748 0
M  V30 3704 C 372.582 1.36793 -1.37846 0
M  V30 3705 O 371.857 1.87596 -0.513601 0
M  V30 3706 C 372.14 0.199986 -3.59544 0
M  V30 3707 C 371.993 -1.1452 -4.34977 0
M  V30 3708 C 373.312 0.94137 -4.29914 0
M  V30 3709 H 370.431 0.0151552 -0.736844 0
M  V30 3710 H 373.073 -0.650498 -1.78518 0
M  V30 3711 H 371.223 0.793007 -3.8032 0
M  V30 3712 H 372.895 -1.77697 -4.25701 0
M  V30 3713 H 371.138 -1.73488 -3.97598 0
M  V30 3714 H 371.809 -0.990607 -5.43039 0
M  V30 3715 H 374.285 0.43844 -4.13784 0
M  V30 3716 H 373.161 1.01812 -5.39375 0
M  V30 3717 H 373.422 1.98471 -3.95046 0
M  V30 3718 N 372.481 1.55866 -0.233164 0
M  V30 3719 C 373.444 2.1953 0.658715 0
M  V30 3720 C 374.444 1.16053 1.11303 0
M  V30 3721 O 375.634 1.41218 1.01996 0
M  V30 3722 C 372.766 2.82791 1.90373 0
M  V30 3723 H 373.959 2.99721 0.10347 0
M  V30 3724 H 371.512 1.56291 0.0164245 0
M  V30 3725 H 372.247 2.06501 2.50056 0
M  V30 3726 H 372.032 3.58578 1.58632 0
M  V30 3727 H 373.522 3.31556 2.53891 0
M  V30 3728 N 373.959 -0.0401083 1.57549 0
M  V30 3729 C 375.206 -0.733125 1.88763 0
M  V30 3730 C 375.534 -1.75946 0.829058 0
M  V30 3731 O 374.789 -1.94949 -0.171323 0
M  V30 3732 C 375.088 -1.44902 3.26708 0
M  V30 3733 C 374.754 -0.559707 4.47413 0
M  V30 3734 C 373.416 -0.314731 4.8017 0
M  V30 3735 C 375.768 0.0549743 5.21171 0
M  V30 3736 C 373.096 0.553886 5.8408 0
M  V30 3737 C 375.448 0.911229 6.26003 0
M  V30 3738 C 374.112 1.16577 6.57241 0
M  V30 3739 H 373.382 -0.268269 0.690733 0
M  V30 3740 H 376.029 0.00679408 1.91499 0
M  V30 3741 H 374.334 -2.26197 3.1991 0
M  V30 3742 H 376.031 -1.99058 3.48105 0
M  V30 3743 H 372.621 -0.760793 4.21794 0
M  V30 3744 H 376.805 -0.121344 4.96152 0
M  V30 3745 H 372.061 0.759518 6.06664 0
M  V30 3746 H 376.235 1.3941 6.82303 0
M  V30 3747 H 373.862 1.84058 7.37582 0
M  V30 3748 N 375.437 -1.54477 -0.31217 0
M  V30 3749 C 376.683 -1.73483 -1.0503 0
M  V30 3750 C 377.016 -0.513125 -1.87298 0
M  V30 3751 O 376.291 0.489864 -1.8823 0
M  V30 3752 C 376.574 -3.01723 -1.96558 0
M  V30 3753 C 376.427 -4.3417 -1.17545 0
M  V30 3754 C 377.746 -3.25772 -2.95907 0
M  V30 3755 H 374.865 -0.631222 -0.380432 0
M  V30 3756 H 377.507 -1.87184 -0.325932 0
M  V30 3757 H 375.657 -2.90174 -2.58324 0
M  V30 3758 H 377.329 -4.5762 -0.581513 0
M  V30 3759 H 375.572 -4.31159 -0.477925 0
M  V30 3760 H 376.243 -5.20143 -1.84811 0
M  V30 3761 H 378.719 -3.36857 -2.44267 0
M  V30 3762 H 377.595 -4.16838 -3.57123 0
M  V30 3763 H 377.856 -2.43537 -3.68974 0
M  V30 3764 N 376.915 0.57481 -1.46744 0
M  V30 3765 C 378.326 1.15695 -1.46532 0
M  V30 3766 C 378.677 1.95068 -0.210425 0
M  V30 3767 O 377.802 2.05241 0.685944 0
M  V30 3768 C 378.397 2.1048 -2.65487 0
M  V30 3769 C 376.956 2.64002 -2.68291 0
M  V30 3770 C 376.103 1.40026 -2.39349 0
M  V30 3771 H 379.054 0.362325 -1.54509 0
M  V30 3772 H 379.075 2.94074 -2.41455 0
M  V30 3773 H 378.587 1.52683 -3.56805 0
M  V30 3774 H 376.688 3.25646 -1.81067 0
M  V30 3775 H 376.801 3.06197 -3.68483 0
M  V30 3776 H 375.165 1.70106 -1.89568 0
M  V30 3777 H 375.948 0.840485 -3.32852 0
M  V30 3778 N 378.394 1.34581 0.820102 0
M  V30 3779 C 379.344 1.22943 1.92013 0
M  V30 3780 C 380.328 0.127802 1.60392 0
M  V30 3781 O 381.52 0.357737 1.73347 0
M  V30 3782 C 378.649 0.989938 3.28717 0
M  V30 3783 C 377.735 2.13486 3.66449 0
M  V30 3784 N 378.126 3.38625 3.75722 0
M  V30 3785 C 376.424 2.04573 3.96315 0
M  V30 3786 C 377.125 4.13832 4.08801 0
M  V30 3787 N 376.101 3.42451 4.22171 0
M  V30 3788 H 379.903 2.17771 1.97365 0
M  V30 3789 H 377.417 1.2686 1.01392 0
M  V30 3790 H 379.414 0.887462 4.07345 0
M  V30 3791 H 378.074 0.0503691 3.24661 0
M  V30 3792 H 379.085 3.73143 3.59144 0
M  V30 3793 H 375.762 1.1839 4.00362 0
M  V30 3794 H 377.152 5.21909 4.23156 0
M  V30 3795 N 379.872 -1.04064 1.18357 0
M  V30 3796 C 380.804 -2.12114 0.868358 0
M  V30 3797 C 381.817 -1.62247 -0.134045 0
M  V30 3798 O 383.006 -1.78253 0.0937933 0
M  V30 3799 C 380.106 -3.37773 0.276132 0
M  V30 3800 C 379.279 -4.16874 1.3242 0
M  V30 3801 C 378.338 -5.20861 0.747662 0
M  V30 3802 O 377.364 -5.51141 1.42239 0
M  V30 3803 N 378.566 -5.78715 -0.454823 0
M  V30 3804 H 381.331 -2.39748 1.79836 0
M  V30 3805 H 378.892 -1.20258 1.08396 0
M  V30 3806 H 380.884 -4.04513 -0.123133 0
M  V30 3807 H 379.454 -3.07581 -0.557895 0
M  V30 3808 H 378.674 -3.45456 1.89878 0
M  V30 3809 H 379.962 -4.66516 2.03078 0
M  V30 3810 H 379.36 -5.56415 -1.02073 0
M  V30 3811 H 377.917 -6.46921 -0.79601 0
M  V30 3812 N 381.35 -0.985608 -1.22978 0
M  V30 3813 C 382.313 -0.535071 -2.22867 0
M  V30 3814 C 383.313 0.378123 -1.56291 0
M  V30 3815 O 384.503 0.171092 -1.73358 0
M  V30 3816 C 381.635 0.222702 -3.40172 0
M  V30 3817 H 382.828 -1.41835 -2.6424 0
M  V30 3818 H 380.381 -0.772042 -1.35901 0
M  V30 3819 H 381.116 1.12229 -3.04262 0
M  V30 3820 H 380.901 -0.43288 -3.89703 0
M  V30 3821 H 382.391 0.526335 -4.1427 0
M  V30 3822 N 382.828 1.3818 -0.7579 0
M  V30 3823 C 383.776 2.32277 -0.122482 0
M  V30 3824 C 384.77 1.54238 0.700505 0
M  V30 3825 O 385.976 1.69737 0.599119 0
M  V30 3826 H 382.351 0.751712 -0.0208143 0
M  V30 3827 H 384.322 2.83469 -0.932099 0
M  V30 3828 C 383.071 3.39447 0.753076 0
M  V30 3829 H 382.394 3.99591 0.129184 0
M  V30 3830 H 383.834 4.07684 1.16489 0
M  V30 3831 C 382.293 2.78375 1.8976 0
M  V30 3832 O 382.823 2.68025 2.99208 0
M  V30 3833 N 381.029 2.36121 1.69397 0
M  V30 3834 H 380.576 2.4474 0.803762 0
M  V30 3835 H 380.534 1.95602 2.46145 0
M  V30 3836 N 384.306 0.507319 1.49211 0
M  V30 3837 C 385.236 -0.256939 2.32082 0
M  V30 3838 C 386.217 -0.956609 1.40652 0
M  V30 3839 O 387.402 -0.946788 1.69557 0
M  V30 3840 C 384.532 -1.31802 3.21318 0
M  V30 3841 C 383.486 -0.737855 4.21592 0
M  V30 3842 C 382.812 -1.89992 4.99807 0
M  V30 3843 C 384.112 0.275325 5.21574 0
M  V30 3844 H 385.806 0.434798 2.96226 0
M  V30 3845 H 383.352 0.210546 1.42452 0
M  V30 3846 H 385.305 -1.86045 3.78107 0
M  V30 3847 H 384.029 -2.03903 2.5513 0
M  V30 3848 H 382.688 -0.217126 3.65956 0
M  V30 3849 H 382.336 -2.60877 4.30061 0
M  V30 3850 H 382.036 -1.51777 5.6766 0
M  V30 3851 H 383.56 -2.44657 5.59442 0
M  V30 3852 H 384.974 -0.179193 5.7302 0
M  V30 3853 H 383.371 0.573649 5.97352 0
M  V30 3854 H 384.441 1.18903 4.70096 0
M  V30 3855 N 385.784 -1.5574 0.241426 0
M  V30 3856 C 387.2 -1.59196 -0.113548 0
M  V30 3857 C 387.4 -1.25852 -1.57364 0
M  V30 3858 O 386.456 -1.00322 -2.31715 0
M  V30 3859 C 387.769 -2.99814 0.230695 0
M  V30 3860 C 389.317 -3.12513 0.174547 0
M  V30 3861 C 389.792 -4.55342 0.492744 0
M  V30 3862 N 391.283 -4.61076 0.443043 0
M  V30 3863 C 392.018 -5.6956 0.662484 0
M  V30 3864 N 391.514 -6.86328 0.944761 0
M  V30 3865 N 393.307 -5.58957 0.593564 0
M  V30 3866 H 385.458 -1.75685 1.19368 0
M  V30 3867 H 387.721 -0.81756 0.479896 0
M  V30 3868 H 387.427 -3.28932 1.24485 0
M  V30 3869 H 387.301 -3.74568 -0.444833 0
M  V30 3870 H 389.688 -2.83179 -0.830277 0
M  V30 3871 H 389.769 -2.40045 0.883845 0
M  V30 3872 H 389.413 -4.85396 1.4951 0
M  V30 3873 H 389.343 -5.26062 -0.23797 0
M  V30 3874 H 391.834 -3.77179 0.233374 0
M  V30 3875 H 392.147 -7.64935 1.09977 0
M  V30 3876 H 390.492 -6.88025 0.982175 0
M  V30 3877 H 393.683 -4.66611 0.373123 0
M  V30 3878 H 393.856 -6.43433 0.767981 0
M  V30 3879 N 387.262 0.0317525 -1.57568 0
M  V30 3880 C 388.511 0.722131 -1.8833 0
M  V30 3881 C 388.824 1.76664 -0.839587 0
M  V30 3882 O 390.03 2.50942 -1.03635 0
M  V30 3883 C 388.486 1.33544 -3.34207 0
M  V30 3884 C 388.094 0.327415 -4.46802 0
M  V30 3885 C 389.838 2.00585 -3.7412 0
M  V30 3886 C 387.745 0.948915 -5.83738 0
M  V30 3887 H 386.675 0.273466 -0.702661 0
M  V30 3888 H 389.326 -0.0235811 -1.83485 0
M  V30 3889 H 387.708 2.13077 -3.33788 0
M  V30 3890 H 388.882 -0.441006 -4.58685 0
M  V30 3891 H 387.197 -0.240758 -4.15703 0
M  V30 3892 H 389.794 2.47932 -4.73744 0
M  V30 3893 H 390.137 2.82285 -3.05975 0
M  V30 3894 H 390.67 1.27831 -3.76702 0
M  V30 3895 H 387.409 0.171387 -6.55276 0
M  V30 3896 H 386.929 1.68724 -5.7558 0
M  V30 3897 H 388.608 1.45705 -6.3038 0
M  V30 3898 N 388.74 1.54641 0.303973 0
M  V30 3899 C 389.989 1.7299 1.03717 0
M  V30 3900 C 390.302 0.521168 1.88529 0
M  V30 3901 O 391.508 0.586408 2.65092 0
M  V30 3902 C 389.964 3.06051 1.89369 0
M  V30 3903 C 389.572 4.34393 1.09574 0
M  V30 3904 C 391.316 3.3376 2.62306 0
M  V30 3905 C 389.223 5.58506 1.94486 0
M  V30 3906 H 388.153 0.64473 0.390947 0
M  V30 3907 H 390.804 1.81124 0.294328 0
M  V30 3908 H 389.186 2.91874 2.67629 0
M  V30 3909 H 390.36 4.59396 0.359485 0
M  V30 3910 H 388.675 4.13597 0.482324 0
M  V30 3911 H 391.272 4.23687 3.26181 0
M  V30 3912 H 391.615 2.52503 3.3098 0
M  V30 3913 H 392.148 3.48894 1.91097 0
M  V30 3914 H 388.887 6.42422 1.30287 0
M  V30 3915 H 388.407 5.37694 2.65792 0
M  V30 3916 H 390.086 5.95651 2.52605 0
M  V30 3917 N 390.218 -0.567019 1.47046 0
M  V30 3918 C 391.495 -1.3276 1.43646 0
M  V30 3919 C 391.875 -2.1071 0.128186 0
M  V30 3920 O 391.223 -2.10441 -0.890326 0
M  V30 3921 C 391.433 -2.2404 2.67595 0
M  V30 3922 C 392.781 -2.85372 3.14401 0
M  V30 3923 O 393.805 -2.34346 2.68254 0
M  V30 3924 O 392.664 -3.78091 3.946 0
M  V30 3925 H 389.758 -0.597293 0.571988 0
M  V30 3926 H 392.304 -0.586735 1.59234 0
M  V30 3927 H 391.076 -1.65975 3.54356 0
M  V30 3928 H 390.699 -3.05439 2.54544 0
M  V30 3929 N 391.696 -1.35014 -0.812953 0
M  V30 3930 C 392.942 -1.2812 -1.57204 0
M  V30 3931 C 393.275 0.145869 -1.93651 0
M  V30 3932 O 392.55 1.0937 -1.60836 0
M  V30 3933 C 392.833 -2.18162 -2.86492 0
M  V30 3934 C 392.686 -3.69454 -2.56561 0
M  V30 3935 C 394.005 -2.07439 -3.88145 0
M  V30 3936 H 391.124 -0.466746 -0.570366 0
M  V30 3937 H 393.766 -1.65357 -0.935783 0
M  V30 3938 H 391.916 -1.86535 -3.40789 0
M  V30 3939 H 393.588 -4.11493 -2.08497 0
M  V30 3940 H 391.831 -3.9005 -1.89851 0
M  V30 3941 H 392.502 -4.27835 -3.48799 0
M  V30 3942 H 394.978 -2.35228 -3.4323 0
M  V30 3943 H 393.854 -2.7265 -4.76396 0
M  V30 3944 H 394.115 -1.05439 -4.29343 0
M  V30 3945 N 393.175 1.03435 -1.18907 0
M  V30 3946 C 394.105 2.13503 -0.945448 0
M  V30 3947 C 395.086 1.69682 0.119189 0
M  V30 3948 O 396.271 1.94169 -0.034707 0
M  V30 3949 C 393.401 3.44004 -0.477316 0
M  V30 3950 C 392.355 4.0148 -1.48316 0
M  V30 3951 C 391.681 5.27537 -0.872311 0
M  V30 3952 C 392.981 4.36921 -2.86177 0
M  V30 3953 H 394.675 2.34141 -1.86597 0
M  V30 3954 H 392.221 1.12523 -0.898584 0
M  V30 3955 H 394.174 4.20372 -0.294204 0
M  V30 3956 H 392.898 3.23072 0.478786 0
M  V30 3957 H 391.557 3.27201 -1.65332 0
M  V30 3958 H 391.205 5.02917 0.0911752 0
M  V30 3959 H 390.905 5.66954 -1.54393 0
M  V30 3960 H 392.429 6.06576 -0.699871 0
M  V30 3961 H 393.843 5.04248 -2.72776 0
M  V30 3962 H 392.24 4.87405 -3.50081 0
M  V30 3963 H 393.31 3.46466 -3.39248 0
M  V30 3964 N 394.653 0.992116 1.22453 0
M  V30 3965 C 395.899 0.668523 1.91464 0
M  V30 3966 C 396.232 -0.797313 1.77078 0
M  V30 3967 O 395.507 -1.5765 1.13916 0
M  V30 3968 C 395.79 1.07424 3.43703 0
M  V30 3969 C 395.643 2.59857 3.67143 0
M  V30 3970 C 396.962 0.626891 4.35612 0
M  V30 3971 H 394.081 0.244341 0.695318 0
M  V30 3972 H 396.723 1.2355 1.44345 0
M  V30 3973 H 394.873 0.591816 3.83966 0
M  V30 3974 H 396.545 3.15764 3.3629 0
M  V30 3975 H 394.788 3.01961 3.11451 0
M  V30 3976 H 395.459 2.83296 4.73759 0
M  V30 3977 H 397.935 1.04125 4.02861 0
M  V30 3978 H 396.811 0.939076 5.40807 0
M  V30 3979 H 397.072 -0.472457 4.39568 0
M  V30 3980 N 396.131 -1.37776 0.765217 0
M  V30 3981 C 397.408 -1.93975 0.251596 0
M  V30 3982 C 397.788 -1.69949 -1.25222 0
M  V30 3983 O 397.136 -1.04457 -2.03226 0
M  V30 3984 C 397.346 -3.43487 0.617895 0
M  V30 3985 C 398.694 -4.20564 0.584029 0
M  V30 3986 O 399.718 -3.5182 0.556888 0
M  V30 3987 O 398.577 -5.43138 0.605291 0
M  V30 3988 H 395.671 -0.82509 0.0561806 0
M  V30 3989 H 398.217 -1.47101 0.846128 0
M  V30 3990 H 396.989 -3.5453 1.65602 0
M  V30 3991 H 396.612 -3.976 -0.00403411 0
M  V30 3992 N 397.609 -0.515225 -1.4894 0
M  V30 3993 C 399.025 -0.172099 -1.58669 0
M  V30 3994 C 399.225 1.32405 -1.51892 0
M  V30 3995 O 398.281 2.10116 -1.40027 0
M  V30 3996 C 399.594 -0.761533 -2.90897 0
M  V30 3997 C 401.142 -0.728926 -3.04394 0
M  V30 3998 C 401.617 -1.29667 -4.39261 0
M  V30 3999 N 403.108 -1.25799 -4.4579 0
M  V30 4000 C 403.843 -1.66733 -5.48623 0
M  V30 4001 N 403.339 -2.15327 -6.58488 0
M  V30 4002 N 405.132 -1.58061 -5.39419 0
M  V30 4003 H 397.283 -1.48778 -1.51588 0
M  V30 4004 H 399.546 -0.617968 -0.718901 0
M  V30 4005 H 399.252 -1.81136 -3.01468 0
M  V30 4006 H 399.126 -0.230106 -3.76497 0
M  V30 4007 H 401.513 0.312098 -2.93445 0
M  V30 4008 H 401.594 -1.29766 -2.20442 0
M  V30 4009 H 401.238 -2.33655 -4.50963 0
M  V30 4010 H 401.168 -0.703752 -5.21876 0
M  V30 4011 H 403.659 -0.902102 -3.66975 0
M  V30 4012 H 403.972 -2.44594 -7.33071 0
M  V30 4013 H 402.317 -2.19311 -6.59491 0
M  V30 4014 H 405.508 -1.19906 -4.52482 0
M  V30 4015 H 405.681 -1.90284 -6.19432 0
M  V30 4016 N 399.087 1.5561 -0.249682 0
M  V30 4017 C 400.017 2.24477 0.642826 0
M  V30 4018 C 400.998 1.22601 1.17911 0
M  V30 4019 O 402.183 1.5126 1.21795 0
M  V30 4020 C 399.313 2.94638 1.83863 0
M  V30 4021 C 398.267 4.03227 1.435 0
M  V30 4022 C 397.593 4.60828 2.71186 0
M  V30 4023 C 398.893 5.18796 0.604002 0
M  V30 4024 H 400.587 2.99321 0.0685625 0
M  V30 4025 H 398.133 1.43965 0.0315363 0
M  V30 4026 H 400.086 3.41517 2.46868 0
M  V30 4027 H 398.81 2.17287 2.43832 0
M  V30 4028 H 397.469 3.57121 0.828275 0
M  V30 4029 H 397.117 3.80174 3.29358 0
M  V30 4030 H 396.817 5.34132 2.44901 0
M  V30 4031 H 398.341 5.10442 3.35084 0
M  V30 4032 H 399.755 5.61883 1.13842 0
M  V30 4033 H 398.152 5.98506 0.437097 0
M  V30 4034 H 399.222 4.83384 -0.383147 0
M  V30 4035 N 400.565 -0.0233959 1.57583 0
M  V30 4036 C 401.813 -0.711654 1.89156 0
M  V30 4037 C 402.134 -1.75591 0.848096 0
M  V30 4038 O 401.404 -1.95547 -0.117566 0
M  V30 4039 H 399.984 -0.265835 0.698098 0
M  V30 4040 H 402.646 0.0119948 1.94896 0
M  V30 4041 H 401.742 -1.19766 2.88206 0
M  V30 4042 N 402.043 -1.548 -0.295768 0
M  V30 4043 C 403.289 -1.74588 -1.03184 0
M  V30 4044 C 403.622 -0.532962 -1.86744 0
M  V30 4045 O 402.897 0.469872 -1.88739 0
M  V30 4046 C 403.18 -3.03791 -1.93347 0
M  V30 4047 C 403.033 -4.35392 -1.12933 0
M  V30 4048 C 404.352 -3.28892 -2.92435 0
M  V30 4049 H 401.471 -0.635221 -0.373715 0
M  V30 4050 H 404.113 -1.87519 -0.30606 0
M  V30 4051 H 402.263 -2.92898 -2.55232 0
M  V30 4052 H 403.935 -4.58211 -0.532943 0
M  V30 4053 H 402.178 -4.31642 -0.432168 0
M  V30 4054 H 402.849 -5.22074 -1.79284 0
M  V30 4055 H 405.325 -3.39429 -2.4068 0
M  V30 4056 H 404.201 -4.20603 -3.52682 0
M  V30 4057 H 404.462 -2.47437 -3.6637 0
M  V30 4058 N 403.521 0.559213 -1.47345 0
M  V30 4059 C 404.932 1.14134 -1.47751 0
M  V30 4060 C 405.283 1.94834 -0.231103 0
M  V30 4061 O 404.408 2.05957 0.664137 0
M  V30 4062 C 405.003 2.07653 -2.67705 0
M  V30 4063 C 403.562 2.61141 -2.71076 0
M  V30 4064 C 402.709 1.3748 -2.40821 0
M  V30 4065 H 405.66 0.345917 -1.54884 0
M  V30 4066 H 405.681 2.91497 -2.44561 0
M  V30 4067 H 405.193 1.4889 -3.58404 0
M  V30 4068 H 403.294 3.23707 -1.84511 0
M  V30 4069 H 403.407 3.02272 -3.7171 0
M  V30 4070 H 401.771 1.68086 -1.91362 0
M  V30 4071 H 402.554 0.805135 -3.33725 0
M  V30 4072 N 404.999 1.35443 0.805782 0
M  V30 4073 C 405.909 1.30546 1.94923 0
M  V30 4074 C 406.925 0.210233 1.72725 0
M  V30 4075 O 408.101 0.43975 1.9654 0
M  V30 4076 C 405.166 1.07782 3.29521 0
M  V30 4077 C 404.227 2.26625 3.64609 0
M  V30 4078 C 403.46 2.04938 4.92784 0
M  V30 4079 O 403.683 1.01624 5.61274 0
M  V30 4080 O 402.617 2.9232 5.26149 0
M  V30 4081 H 406.443 2.26779 2.02002 0
M  V30 4082 H 404.028 1.15823 0.943682 0
M  V30 4083 H 405.91 0.969392 4.10098 0
M  V30 4084 H 404.585 0.146003 3.23371 0
M  V30 4085 H 403.492 2.43033 2.84404 0
M  V30 4086 H 404.825 3.18257 3.75464 0
M  V30 4087 N 406.477 -1.02803 1.19454 0
M  V30 4088 C 407.427 -2.0945 0.900827 0
M  V30 4089 C 408.411 -1.60335 -0.134715 0
M  V30 4090 O 409.603 -1.76857 0.0710924 0
M  V30 4091 C 406.732 -3.4044 0.442229 0
M  V30 4092 C 405.818 -3.96286 1.51056 0
M  V30 4093 N 406.209 -4.25785 2.73021 0
M  V30 4094 C 404.507 -4.24307 1.37404 0
M  V30 4095 C 405.208 -4.70654 3.41848 0
M  V30 4096 N 404.184 -4.72238 2.69243 0
M  V30 4097 H 407.986 -2.3015 1.82779 0
M  V30 4098 H 405.5 -1.20672 1.08683 0
M  V30 4099 H 407.497 -4.16354 0.21326 0
M  V30 4100 H 406.157 -3.21159 -0.478238 0
M  V30 4101 H 407.168 -4.15041 3.09776 0
M  V30 4102 H 403.845 -4.14285 0.517103 0
M  V30 4103 H 405.235 -5.02392 4.46152 0
M  V30 4104 N 407.956 -0.998596 -1.21925 0
M  V30 4105 C 409.202 -0.678667 -1.91107 0
M  V30 4106 C 409.535 0.78791 -1.77498 0
M  V30 4107 O 408.81 1.57043 -1.1475 0
M  V30 4108 C 409.093 -1.09245 -3.43129 0
M  V30 4109 C 408.946 -2.61801 -3.6576 0
M  V30 4110 C 410.265 -0.649984 -4.35274 0
M  V30 4111 H 407.384 -0.248025 -0.694012 0
M  V30 4112 H 410.026 -1.24314 -1.43688 0
M  V30 4113 H 408.176 -0.612171 -3.83647 0
M  V30 4114 H 409.848 -3.17543 -3.34611 0
M  V30 4115 H 408.091 -3.03609 -3.09845 0
M  V30 4116 H 408.762 -2.85804 -4.7225 0
M  V30 4117 H 411.238 -1.0626 -4.02303 0
M  V30 4118 H 410.114 -0.967743 -5.40302 0
M  V30 4119 H 410.375 0.449139 -4.39813 0
M  V30 4120 N 409.434 1.37368 -0.772513 0
M  V30 4121 C 410.68 1.99969 -0.337681 0
M  V30 4122 C 411.013 1.61184 1.08321 0
M  V30 4123 O 410.288 0.858395 1.74533 0
M  V30 4124 C 410.571 3.56858 -0.482121 0
M  V30 4125 C 410.424 4.0555 -1.94549 0
M  V30 4126 C 411.743 4.39955 0.113143 0
M  V30 4127 H 408.862 0.726464 -0.124171 0
M  V30 4128 H 411.504 1.63034 -0.975699 0
M  V30 4129 H 409.654 3.88452 0.0610361 0
M  V30 4130 H 411.326 3.84518 -2.54841 0
M  V30 4131 H 409.569 3.57715 -2.45403 0
M  V30 4132 H 410.24 5.14587 -1.9976 0
M  V30 4133 H 412.716 4.14623 -0.35031 0
M  V30 4134 H 411.592 5.48897 -0.0180514 0
M  V30 4135 H 411.853 4.25403 1.20354 0
M  V30 4136 N 410.912 0.523116 1.48665 0
M  V30 4137 C 412.158 -0.0134963 2.02796 0
M  V30 4138 C 412.491 -1.34582 1.40004 0
M  V30 4139 O 411.766 -1.86756 0.543381 0
M  V30 4140 C 412.049 -0.14276 3.59817 0
M  V30 4141 C 411.902 1.21425 4.331 0
M  V30 4142 C 413.221 -0.872856 4.31357 0
M  V30 4143 H 410.34 -0.00343074 0.736992 0
M  V30 4144 H 412.982 0.678816 1.7746 0
M  V30 4145 H 411.132 -0.732401 3.81534 0
M  V30 4146 H 412.804 1.84447 4.2282 0
M  V30 4147 H 411.047 1.79791 3.94788 0
M  V30 4148 H 411.718 1.07687 5.41394 0
M  V30 4149 H 414.194 -0.372555 4.14429 0
M  V30 4150 H 413.07 -0.932185 5.40927 0
M  V30 4151 H 413.331 -1.92161 3.98154 0
M  V30 4152 N 412.39 -1.55475 0.257931 0
M  V30 4153 C 413.615 -2.04064 -0.370488 0
M  V30 4154 C 414.04 -1.13565 -1.49948 0
M  V30 4155 O 413.398 -0.130781 -1.80828 0
M  V30 4156 C 413.446 -3.50554 -0.845237 0
M  V30 4157 O 412.55 -3.63173 -1.95394 0
M  V30 4158 H 411.891 -0.659257 -0.0792243 0
M  V30 4159 H 414.421 -2.00903 0.387212 0
M  V30 4160 H 414.431 -3.91588 -1.14555 0
M  V30 4161 H 413.106 -4.15896 -0.0191259 0
M  V30 4162 H 411.683 -3.34039 -1.65748 0
M  V30 4163 N 413.868 0.0150385 -1.57593 0
M  V30 4164 C 415.284 0.370907 -1.5523 0
M  V30 4165 C 415.484 1.75735 -0.985882 0
M  V30 4166 O 414.54 2.44944 -0.613077 0
M  V30 4167 C 415.853 0.259908 -2.99575 0
M  V30 4168 C 417.401 0.335959 -3.11192 0
M  V30 4169 C 417.876 0.254253 -4.57294 0
M  V30 4170 N 419.367 0.312618 -4.62144 0
M  V30 4171 C 420.102 0.272505 -5.72752 0
M  V30 4172 N 419.598 0.183864 -6.92556 0
M  V30 4173 N 421.391 0.323267 -5.6117 0
M  V30 4174 H 413.542 -0.892104 -1.92757 0
M  V30 4175 H 415.805 -0.340563 -0.884715 0
M  V30 4176 H 415.511 -0.693403 -3.44797 0
M  V30 4177 H 415.385 1.048 -3.62349 0
M  V30 4178 H 417.772 1.27971 -2.65909 0
M  V30 4179 H 417.853 -0.481739 -2.51223 0
M  V30 4180 H 417.497 -0.685887 -5.03247 0
M  V30 4181 H 417.427 1.09024 -5.15191 0
M  V30 4182 H 419.918 0.38307 -3.75953 0
M  V30 4183 H 420.231 0.15874 -7.72637 0
M  V30 4184 H 418.576 0.149708 -6.94839 0
M  V30 4185 H 421.767 0.390607 -4.66467 0
M  V30 4186 H 421.94 0.288539 -6.47357 0
M  V30 4187 N 415.346 1.54954 0.287554 0
M  V30 4188 C 416.623 1.65569 1.04146 0
M  V30 4189 C 417.003 0.512672 2.0478 0
M  V30 4190 O 416.351 -0.489038 2.23205 0
M  V30 4191 C 416.561 3.04163 1.71131 0
M  V30 4192 C 417.909 3.61429 2.22832 0
M  V30 4193 O 418.933 3.06702 1.81141 0
M  V30 4194 O 417.792 4.57281 2.9926 0
M  V30 4195 H 414.886 0.671881 0.482188 0
M  V30 4196 H 417.432 1.67297 0.28457 0
M  V30 4197 H 416.204 3.78796 0.981303 0
M  V30 4198 H 415.827 3.06271 2.53543 0
M  V30 4199 N 416.824 -0.551391 1.4764 0
M  V30 4200 C 417.787 -1.64007 1.60107 0
M  V30 4201 C 418.787 -1.53601 0.47576 0
M  V30 4202 O 419.977 -1.57655 0.740988 0
M  V30 4203 C 417.109 -3.03569 1.55108 0
M  V30 4204 H 418.302 -1.543 2.57161 0
M  V30 4205 H 415.855 -0.771776 1.35917 0
M  V30 4206 H 416.59 -3.18804 0.594519 0
M  V30 4207 H 416.375 -3.12532 2.36783 0
M  V30 4208 H 417.865 -3.82762 1.66982 0
M  V30 4209 N 418.302 -1.35869 -0.798587 0
M  V30 4210 C 419.212 -1.31578 -1.94228 0
M  V30 4211 C 420.228 -0.21939 -1.72611 0
M  V30 4212 O 421.404 -0.450167 -1.96305 0
M  V30 4213 C 418.469 -1.09528 -3.28944 0
M  V30 4214 C 417.53 -2.28556 -3.63402 0
M  V30 4215 C 416.763 -2.07549 -4.9169 0
M  V30 4216 O 416.986 -1.046 -5.60727 0
M  V30 4217 O 415.92 -2.95106 -5.24591 0
M  V30 4218 H 419.746 -2.27847 -2.00796 0
M  V30 4219 H 417.331 -1.16322 -0.937526 0
M  V30 4220 H 419.213 -0.991127 -4.09579 0
M  V30 4221 H 417.888 -0.16315 -3.23289 0
M  V30 4222 H 416.795 -2.44538 -2.83112 0
M  V30 4223 H 418.128 -3.20244 -3.73771 0
M  V30 4224 N 419.78 1.02168 -1.19998 0
M  V30 4225 C 421.057 1.72816 -0.916191 0
M  V30 4226 C 421.437 2.03081 0.576325 0
M  V30 4227 O 420.785 1.69122 1.53656 0
M  V30 4228 C 420.995 2.9997 -1.78378 0
M  V30 4229 C 422.343 3.73336 -2.02251 0
M  V30 4230 O 423.367 3.09914 -1.75589 0
M  V30 4231 O 422.226 4.87371 -2.47249 0
M  V30 4232 H 419.32 0.752924 -0.342103 0
M  V30 4233 H 421.866 1.08062 -1.30846 0
M  V30 4234 H 420.638 2.73888 -2.79466 0
M  V30 4235 H 420.261 3.72464 -1.39126 0
M  V30 4236 N 421.258 1.00505 1.21394 0
M  V30 4237 C 422.486 0.706609 1.9446 0
M  V30 4238 C 422.901 -0.73081 1.74082 0
M  V30 4239 O 422.258 -1.49446 1.04747 0
M  V30 4240 C 422.309 1.01824 3.46863 0
M  V30 4241 O 422.03 2.39919 3.66566 0
M  V30 4242 C 423.531 0.739216 4.37093 0
M  V30 4243 H 420.751 0.260394 0.618414 0
M  V30 4244 H 423.295 1.34311 1.54211 0
M  V30 4245 H 421.45 0.427343 3.85036 0
M  V30 4246 H 421.864 2.50784 4.6066 0
M  V30 4247 H 423.338 1.00744 5.42729 0
M  V30 4248 H 423.815 -0.326746 4.37983 0
M  V30 4249 H 424.421 1.31173 4.04566 0
M  V30 4250 N 422.737 -1.36956 0.779787 0
M  V30 4251 C 423.985 -1.99097 0.347079 0
M  V30 4252 C 424.306 -1.62206 -1.08232 0
M  V30 4253 O 423.576 -0.891373 -1.74446 0
M  V30 4254 H 422.156 -0.736409 0.125342 0
M  V30 4255 H 424.818 -1.67308 0.999696 0
M  V30 4256 H 423.914 -3.09107 0.431162 0
M  V30 4257 N 424.215 -0.530993 -1.48385 0
M  V30 4258 C 425.163 0.244595 -2.3131 0
M  V30 4259 C 426.157 0.93451 -1.41291 0
M  V30 4260 O 427.363 0.85878 -1.58193 0
M  V30 4261 H 423.738 0.0977472 -0.74562 0
M  V30 4262 H 425.709 -0.474369 -2.94605 0
M  V30 4263 C 424.458 1.2779 -3.23365 0
M  V30 4264 H 423.781 0.756439 -3.92579 0
M  V30 4265 H 425.221 1.79198 -3.84271 0
M  V30 4266 C 423.68 2.31205 -2.45042 0
M  V30 4267 O 424.21 3.37661 -2.17596 0
M  V30 4268 N 422.416 2.04446 -2.0652 0
M  V30 4269 H 421.963 1.17891 -2.2904 0
M  V30 4270 H 421.921 2.73861 -1.54427 0
M  V30 4271 N 425.693 1.55336 -0.266172 0
M  V30 4272 C 426.921 2.03801 0.356756 0
M  V30 4273 C 427.336 1.14485 1.50129 0
M  V30 4274 O 426.693 0.163121 1.8177 0
M  V30 4275 C 426.744 3.51455 0.846281 0
M  V30 4276 O 426.465 4.37371 -0.252663 0
M  V30 4277 C 427.966 4.15767 1.53794 0
M  V30 4278 H 425.186 0.665906 0.0825218 0
M  V30 4279 H 427.73 2.00636 -0.39566 0
M  V30 4280 H 425.885 3.55092 1.54881 0
M  V30 4281 H 426.299 5.24358 0.122173 0
M  V30 4282 H 427.773 5.20714 1.83198 0
M  V30 4283 H 428.25 3.63404 2.46646 0
M  V30 4284 H 428.856 4.16107 0.879488 0
M  V30 4285 N 427.171 -0.0066808 1.57599 0
M  V30 4286 C 428.396 -0.707738 1.94951 0
M  V30 4287 C 428.821 -1.66882 0.867868 0
M  V30 4288 O 428.179 -1.80457 -0.17458 0
M  V30 4289 C 428.227 -1.42162 3.31394 0
M  V30 4290 O 427.331 -2.53578 3.25226 0
M  V30 4291 H 426.672 -0.188752 0.636607 0
M  V30 4292 H 429.202 0.0445193 2.04552 0
M  V30 4293 H 429.212 -1.78655 3.66806 0
M  V30 4294 H 427.887 -0.716903 4.09675 0
M  V30 4295 H 426.464 -2.19463 3.01481 0
M  V30 4296 N 428.649 -1.55105 -0.279332 0
M  V30 4297 C 429.874 -1.7976 -1.03446 0
M  V30 4298 C 430.299 -0.565952 -1.79384 0
M  V30 4299 O 429.657 0.484259 -1.74713 0
M  V30 4300 C 429.705 -3.0179 -1.97371 0
M  V30 4301 O 428.809 -2.76432 -3.06038 0
M  V30 4302 H 428.15 -0.594334 -0.29608 0
M  V30 4303 H 430.68 -2.02235 -0.310165 0
M  V30 4304 H 430.69 -3.30351 -2.39441 0
M  V30 4305 H 429.365 -3.91085 -1.4151 0
M  V30 4306 H 427.942 -2.58949 -2.68328 0
M  V30 4307 N 430.127 0.543554 -1.4793 0
M  V30 4308 C 431.09 1.63156 -1.60975 0
M  V30 4309 C 432.09 1.53346 -0.483899 0
M  V30 4310 O 433.28 1.5726 -0.749339 0
M  V30 4311 C 430.412 3.02743 -1.56716 0
M  V30 4312 H 431.605 1.52934 -2.57975 0
M  V30 4313 H 429.158 0.764557 -1.36324 0
M  V30 4314 H 429.893 3.18484 -0.611418 0
M  V30 4315 H 429.678 3.11272 -2.38438 0
M  V30 4316 H 431.168 3.81871 -1.6901 0
M  V30 4317 N 431.605 1.3629 0.791371 0
M  V30 4318 C 432.83 1.33726 1.58531 0
M  V30 4319 C 433.255 -0.0794933 1.87932 0
M  V30 4320 O 432.613 -1.05087 1.47738 0
M  V30 4321 C 432.661 2.16425 2.88431 0
M  V30 4322 O 431.765 1.5554 3.81944 0
M  V30 4323 H 431.106 0.457793 0.480959 0
M  V30 4324 H 433.636 1.79547 0.981031 0
M  V30 4325 H 433.646 2.28933 3.37718 0
M  V30 4326 H 432.321 3.19415 2.66359 0
M  V30 4327 H 430.898 1.51961 3.40532 0
M  V30 4328 N 433.083 -1.0153 1.20538 0
M  V30 4329 C 434.329 -1.75408 1.01783 0
M  V30 4330 C 434.662 -1.88943 -0.448814 0
M  V30 4331 O 433.937 -1.4162 -1.33319 0
M  V30 4332 C 434.22 -3.17255 1.70356 0
M  V30 4333 C 434.073 -3.11508 3.24473 0
M  V30 4334 C 435.392 -4.15955 1.43769 0
M  V30 4335 H 432.511 -0.636713 0.371167 0
M  V30 4336 H 435.153 -1.18436 1.4857 0
M  V30 4337 H 433.303 -3.65898 1.30578 0
M  V30 4338 H 434.975 -2.70658 3.73553 0
M  V30 4339 H 433.218 -2.4887 3.55311 0
M  V30 4340 H 433.889 -4.11784 3.67611 0
M  V30 4341 H 436.365 -3.75973 1.7828 0
M  V30 4342 H 435.241 -5.13368 1.94279 0
M  V30 4343 H 435.502 -4.40586 0.365564 0
M  V30 4344 N 434.561 -1.01147 -1.20859 0
M  V30 4345 C 435.524 -0.582224 -2.21682 0
M  V30 4346 C 436.524 0.344887 -1.57058 0
M  V30 4347 O 437.714 0.134281 -1.73682 0
M  V30 4348 C 434.846 0.150496 -3.40568 0
M  V30 4349 H 436.039 -1.47408 -2.61172 0
M  V30 4350 H 433.592 -0.800695 -1.34233 0
M  V30 4351 H 434.327 1.0575 -3.06574 0
M  V30 4352 H 434.112 -0.515444 -3.88697 0
M  V30 4353 H 435.602 0.438344 -4.15293 0
M  V30 4354 N 436.039 1.36541 -0.78704 0
M  V30 4355 C 436.969 2.32659 -0.197992 0
M  V30 4356 C 437.95 1.56533 0.665697 0
M  V30 4357 O 439.135 1.84698 0.60001 0
M  V30 4358 C 436.265 3.40778 0.669901 0
M  V30 4359 C 435.219 4.27897 -0.0937039 0
M  V30 4360 C 434.545 5.27163 0.894629 0
M  V30 4361 C 435.845 5.06334 -1.28154 0
M  V30 4362 H 437.539 2.82171 -1.00099 0
M  V30 4363 H 435.085 1.35665 -0.482793 0
M  V30 4364 H 437.038 4.07008 1.09191 0
M  V30 4365 H 435.762 2.89827 1.50558 0
M  V30 4366 H 434.421 3.6322 -0.49666 0
M  V30 4367 H 434.069 4.72486 1.72527 0
M  V30 4368 H 433.769 5.86317 0.388149 0
M  V30 4369 H 435.293 5.96266 1.31525 0
M  V30 4370 H 436.707 5.65617 -0.93541 0
M  V30 4371 H 435.104 5.74888 -1.72115 0
M  V30 4372 H 436.174 4.38114 -2.07807 0
M  V30 4373 N 437.518 0.538854 1.48102 0
M  V30 4374 C 438.481 -0.208395 2.28251 0
M  V30 4375 C 439.481 -0.859656 1.35892 0
M  V30 4376 O 440.671 -0.71834 1.58699 0
M  V30 4377 C 437.803 -1.30252 3.15035 0
M  V30 4378 H 438.996 0.495407 2.9578 0
M  V30 4379 H 436.549 0.295112 1.53489 0
M  V30 4380 H 437.284 -2.0393 2.52157 0
M  V30 4381 H 437.069 -0.840551 3.82985 0
M  V30 4382 H 438.559 -1.82787 3.75471 0
M  V30 4383 N 438.996 -1.55193 0.274407 0
M  V30 4384 C 439.926 -2.25471 -0.607032 0
M  V30 4385 C 440.907 -1.24461 -1.15946 0
M  V30 4386 O 442.092 -1.53179 -1.19373 0
M  V30 4387 C 439.222 -2.97526 -1.79153 0
M  V30 4388 C 438.176 -4.05459 -1.37067 0
M  V30 4389 C 437.502 -4.65084 -2.6382 0
M  V30 4390 C 438.802 -5.19691 -0.521389 0
M  V30 4391 H 440.496 -2.99393 -0.0209343 0
M  V30 4392 H 438.042 -1.43997 -0.00862866 0
M  V30 4393 H 439.995 -3.45402 -2.41404 0
M  V30 4394 H 438.719 -2.21138 -2.40344 0
M  V30 4395 H 437.378 -3.58393 -0.771355 0
M  V30 4396 H 437.026 -3.85365 -3.23268 0
M  V30 4397 H 436.726 -5.37961 -2.36372 0
M  V30 4398 H 438.25 -5.15708 -3.26921 0
M  V30 4399 H 439.664 -5.63623 -1.04889 0
M  V30 4400 H 438.061 -5.99126 -0.341825 0
M  V30 4401 H 439.131 -4.82713 0.46 0
M  V30 4402 N 440.474 -0.00167713 -1.576 0
M  V30 4403 C 441.751 0.719951 -1.81868 0
M  V30 4404 C 442.131 1.91895 -0.879747 0
M  V30 4405 O 441.479 2.28389 0.0711423 0
M  V30 4406 C 441.689 1.12409 -3.30402 0
M  V30 4407 C 443.037 1.52724 -3.96182 0
M  V30 4408 O 444.061 1.21784 -3.34734 0
M  V30 4409 O 442.92 2.10265 -5.04431 0
M  V30 4410 H 440.014 0.350707 -0.748955 0
M  V30 4411 H 442.56 -0.0272597 -1.69678 0
M  V30 4412 H 441.332 0.269532 -3.90371 0
M  V30 4413 H 440.955 1.93035 -3.47596 0
M  V30 4414 N 441.952 1.55251 0.271103 0
M  V30 4415 C 443.368 1.47133 0.618393 0
M  V30 4416 C 443.568 0.686994 1.89427 0
M  V30 4417 O 442.624 0.206609 2.51653 0
M  V30 4418 C 443.937 2.91361 0.743593 0
M  V30 4419 C 445.485 3.01587 0.837522 0
M  V30 4420 C 445.96 4.47073 0.994483 0
M  V30 4421 N 447.451 4.50909 1.05996 0
M  V30 4422 C 448.186 5.60698 1.20024 0
M  V30 4423 N 447.682 6.80348 1.30759 0
M  V30 4424 N 449.475 5.48444 1.23149 0
M  V30 4425 H 441.626 2.04698 -0.566784 0
M  V30 4426 H 443.889 0.928319 -0.192165 0
M  V30 4427 H 443.595 3.51483 -0.123493 0
M  V30 4428 H 443.469 3.40484 1.62328 0
M  V30 4429 H 445.856 2.4156 1.69507 0
M  V30 4430 H 445.937 2.55713 -0.0668086 0
M  V30 4431 H 445.581 5.07703 0.141582 0
M  V30 4432 H 445.511 4.90605 1.91349 0
M  V30 4433 H 448.002 3.6472 0.989316 0
M  V30 4434 H 448.315 7.59772 1.41303 0
M  V30 4435 H 446.66 6.83156 1.27761 0
M  V30 4436 H 449.851 4.53907 1.14394 0
M  V30 4437 H 450.024 6.34049 1.33738 0
M  V30 4438 N 443.43 -0.535701 1.48216 0
M  V30 4439 C 444.36 -1.65014 1.65204 0
M  V30 4440 C 445.341 -1.62554 0.501011 0
M  V30 4441 O 446.526 -1.7984 0.732886 0
M  V30 4442 C 443.656 -3.03616 1.68626 0
M  V30 4443 C 442.61 -3.20932 2.83172 0
M  V30 4444 C 441.936 -4.60537 2.71679 0
M  V30 4445 C 443.236 -3.04249 4.24535 0
M  V30 4446 H 444.93 -1.51053 2.58502 0
M  V30 4447 H 442.476 -0.725262 1.24402 0
M  V30 4448 H 444.429 -3.81446 1.79099 0
M  V30 4449 H 443.153 -3.18587 0.719026 0
M  V30 4450 H 441.812 -2.45517 2.72244 0
M  V30 4451 H 441.46 -4.72336 1.72937 0
M  V30 4452 H 441.16 -4.73069 3.48538 0
M  V30 4453 H 442.684 -5.40475 2.84112 0
M  V30 4454 H 444.098 -3.71877 4.36326 0
M  V30 4455 H 442.495 -3.28278 5.02348 0
M  V30 4456 H 443.565 -2.00739 4.41397 0
M  V30 4457 N 444.908 -1.36708 -0.784132 0
M  V30 4458 C 446.154 -1.31426 -1.54451 0
M  V30 4459 C 446.487 0.10476 -1.93917 0
M  V30 4460 O 445.762 1.05934 -1.6312 0
M  V30 4461 C 446.045 -2.24189 -2.818 0
M  V30 4462 C 445.898 -3.74813 -2.48667 0
M  V30 4463 C 447.217 -2.15626 -3.83658 0
M  V30 4464 H 444.336 -0.478739 -0.560337 0
M  V30 4465 H 446.978 -1.67305 -0.900498 0
M  V30 4466 H 445.128 -1.93722 -3.36755 0
M  V30 4467 H 446.8 -4.15823 -1.99722 0
M  V30 4468 H 445.043 -3.93989 -1.81535 0
M  V30 4469 H 445.714 -4.35138 -3.39646 0
M  V30 4470 H 448.19 -2.42456 -3.38163 0
M  V30 4471 H 447.066 -2.82694 -4.70506 0
M  V30 4472 H 447.327 -1.14522 -4.27009 0
M  V30 4473 N 446.386 1.0089 -1.21074 0
M  V30 4474 C 447.802 1.2695 -0.967257 0
M  V30 4475 C 448.002 1.9846 0.348673 0
M  V30 4476 O 447.058 2.28459 1.0753 0
M  V30 4477 C 448.371 2.09697 -2.15517 0
M  V30 4478 C 449.919 2.22937 -2.197 0
M  V30 4479 C 450.394 3.09064 -3.37999 0
M  V30 4480 N 451.885 3.16653 -3.38061 0
M  V30 4481 C 452.62 3.8354 -4.26245 0
M  V30 4482 N 452.116 4.52488 -5.2462 0
M  V30 4483 N 453.909 3.80141 -4.14064 0
M  V30 4484 H 446.06 0.529005 -2.05707 0
M  V30 4485 H 448.323 0.296148 -0.900556 0
M  V30 4486 H 448.029 1.64497 -3.10859 0
M  V30 4487 H 447.903 3.10444 -2.14253 0
M  V30 4488 H 450.29 2.67357 -1.24916 0
M  V30 4489 H 450.371 1.21673 -2.2501 0
M  V30 4490 H 450.015 2.65347 -4.33074 0
M  V30 4491 H 449.945 4.10433 -3.29928 0
M  V30 4492 H 452.436 2.67566 -2.66865 0
M  V30 4493 H 452.749 5.01219 -5.88217 0
M  V30 4494 H 451.094 4.51288 -5.28549 0
M  V30 4495 H 454.285 3.25427 -3.36474 0
M  V30 4496 H 454.458 4.31992 -4.82998 0
M  V30 4497 N 447.864 1.01787 1.20321 0
M  V30 4498 C 449.089 0.727009 1.9424 0
M  V30 4499 C 449.514 -0.706179 1.74341 0
M  V30 4500 O 448.872 -1.48609 1.03852 0
M  V30 4501 C 448.92 1.06958 3.44372 0
M  V30 4502 O 448.024 0.181983 4.11998 0
M  V30 4503 H 447.365 0.269626 0.606793 0
M  V30 4504 H 449.895 1.36158 1.52716 0
M  V30 4505 H 449.905 1.02182 3.94997 0
M  V30 4506 H 448.58 2.11378 3.58179 0
M  V30 4507 H 447.157 0.287378 3.71791 0
M  V30 4508 N 449.342 -1.36122 0.79427 0
M  V30 4509 C 450.59 -1.98718 0.368177 0
M  V30 4510 C 450.911 -1.63345 -1.06506 0
M  V30 4511 O 450.181 -0.909825 -1.73491 0
M  V30 4512 H 448.761 -0.735038 0.133146 0
M  V30 4513 H 451.423 -1.66239 1.01739 0
M  V30 4514 H 450.519 -3.08633 0.463923 0
M  V30 4515 N 450.82 -0.546701 -1.47814 0
M  V30 4516 C 451.783 0.196287 -2.28358 0
M  V30 4517 C 452.783 0.852437 -1.36346 0
M  V30 4518 O 453.973 0.709913 -1.59078 0
M  V30 4519 C 451.105 1.28579 -3.15722 0
M  V30 4520 H 452.298 -0.511086 -2.95513 0
M  V30 4521 H 449.851 -0.303248 -1.5333 0
M  V30 4522 H 450.586 2.0259 -2.53235 0
M  V30 4523 H 450.371 0.820229 -3.83425 0
M  V30 4524 H 451.861 1.80793 -3.76435 0
M  V30 4525 N 452.299 1.55045 -0.282633 0
M  V30 4526 C 453.545 2.00056 0.332481 0
M  V30 4527 C 453.878 1.1708 1.54939 0
M  V30 4528 O 453.153 0.2427 1.9298 0
M  V30 4529 C 453.436 3.53086 0.70725 0
M  V30 4530 C 453.289 4.46813 -0.517521 0
M  V30 4531 C 454.608 4.12245 1.54084 0
M  V30 4532 H 451.727 0.727268 0.119373 0
M  V30 4533 H 454.369 1.85932 -0.391076 0
M  V30 4534 H 452.519 3.65253 1.32372 0
M  V30 4535 H 454.191 4.46579 -1.15607 0
M  V30 4536 H 452.434 4.18163 -1.1542 0
M  V30 4537 H 453.105 5.51595 -0.211426 0
M  V30 4538 H 455.581 4.03401 1.02013 0
M  V30 4539 H 454.457 5.19515 1.77186 0
M  V30 4540 H 454.718 3.62951 2.52427 0
M  V30 4541 N 453.777 0.010035 1.57597 0
M  V30 4542 C 455.188 -0.531426 1.78977 0
M  V30 4543 C 455.539 -1.73375 0.918454 0
M  V30 4544 O 454.664 -2.16047 0.123635 0
M  V30 4545 C 455.259 -0.97086 3.24592 0
M  V30 4546 C 453.818 -1.45756 3.47033 0
M  V30 4547 C 452.965 -0.413384 2.74201 0
M  V30 4548 H 455.916 0.236166 1.56933 0
M  V30 4549 H 455.937 -1.83633 3.33255 0
M  V30 4550 H 455.449 -0.0955893 3.87982 0
M  V30 4551 H 453.55 -2.35339 2.88871 0
M  V30 4552 H 453.663 -1.4781 4.55729 0
M  V30 4553 H 452.027 -0.877266 2.39115 0
M  V30 4554 H 452.81 0.453092 3.40297 0
M  V30 4555 N 455.255 -1.55392 -0.262866 0
M  V30 4556 C 456.503 -1.76127 -0.991147 0
M  V30 4557 C 456.824 -0.571083 -1.8645 0
M  V30 4558 O 456.094 0.413698 -1.91482 0
M  V30 4559 H 454.674 -0.649528 -0.368948 0
M  V30 4560 H 457.336 -1.9281 -0.284655 0
M  V30 4561 H 456.432 -2.6663 -1.62219 0
M  V30 4562 N 456.733 0.527833 -1.48498 0
M  V30 4563 C 457.981 1.28101 -1.56316 0
M  V30 4564 C 458.302 1.9352 -0.239781 0
M  V30 4565 O 457.572 1.81433 0.738849 0
M  V30 4566 H 456.152 0.475793 -0.575873 0
M  V30 4567 H 458.814 0.614052 -1.84974 0
M  V30 4568 H 457.91 2.05916 -2.34532 0
M  V30 4569 N 458.211 1.37122 0.776871 0
M  V30 4570 C 459.459 1.31787 1.53221 0
M  V30 4571 C 459.78 -0.0987589 1.9475 0
M  V30 4572 O 459.05 -1.0417 1.65908 0
M  V30 4573 H 457.63 0.484839 0.568278 0
M  V30 4574 H 460.292 1.71556 0.924917 0
M  V30 4575 H 459.388 1.95355 2.43398 0
M  V30 4576 N 459.689 -1.00246 1.21608 0
M  V30 4577 C 461.1 -1.55511 1.03312 0
M  V30 4578 C 461.451 -1.91946 -0.406332 0
M  V30 4579 O 460.576 -1.73753 -1.28992 0
M  V30 4580 C 461.171 -2.82576 1.86913 0
M  V30 4581 C 459.73 -3.34318 1.72941 0
M  V30 4582 C 458.877 -2.07487 1.83968 0
M  V30 4583 H 461.828 -0.824638 1.35593 0
M  V30 4584 H 461.849 -3.54559 1.38087 0
M  V30 4585 H 461.361 -2.56026 2.91672 0
M  V30 4586 H 459.462 -3.65797 0.70877 0
M  V30 4587 H 459.575 -4.05566 2.55055 0
M  V30 4588 H 457.939 -2.20603 1.27304 0
M  V30 4589 H 458.722 -1.83346 2.9024 0
M  V30 4590 N 461.167 -1.02423 -1.1978 0
M  V30 4591 C 462.13 -0.605703 -2.21052 0
M  V30 4592 C 463.13 0.328209 -1.57415 0
M  V30 4593 O 464.32 0.115853 -1.73814 0
M  V30 4594 C 461.452 0.114366 -3.40708 0
M  V30 4595 H 462.645 -1.5017 -2.59594 0
M  V30 4596 H 460.198 -0.814888 -1.33376 0
M  V30 4597 H 460.933 1.02492 -3.07678 0
M  V30 4598 H 460.718 -0.556641 -3.88129 0
M  V30 4599 H 462.208 0.394272 -4.15735 0
M  V30 4600 N 462.645 1.35699 -0.801477 0
M  V30 4601 C 463.575 2.32436 -0.222658 0
M  V30 4602 C 464.556 1.5723 0.649057 0
M  V30 4603 O 465.741 1.85324 0.580387 0
M  V30 4604 C 462.871 3.41469 0.633719 0
M  V30 4605 C 461.825 4.27774 -0.139083 0
M  V30 4606 C 461.151 5.28082 0.838666 0
M  V30 4607 C 462.451 5.04946 -1.33517 0
M  V30 4608 H 464.145 2.81094 -1.03086 0
M  V30 4609 H 461.691 1.35146 -0.497155 0
M  V30 4610 H 463.644 4.08143 1.04868 0
M  V30 4611 H 462.368 2.91408 1.47475 0
M  V30 4612 H 461.027 3.62673 -0.535156 0
M  V30 4613 H 460.675 4.7429 1.67506 0
M  V30 4614 H 460.375 5.86695 0.32594 0
M  V30 4615 H 461.899 5.97628 1.25194 0
M  V30 4616 H 463.313 5.64593 -0.995349 0
M  V30 4617 H 461.71 5.7303 -1.78202 0
M  V30 4618 H 462.78 4.35886 -2.12442 0
M  V30 4619 N 464.123 0.554532 1.47522 0
M  V30 4620 C 465.056 -0.242442 2.26908 0
M  V30 4621 C 466.034 -0.922722 1.33883 0
M  V30 4622 O 467.218 -0.942244 1.63261 0
M  V30 4623 C 464.345 -1.34525 3.10839 0
M  V30 4624 C 463.391 -0.773805 4.19422 0
M  V30 4625 S 464.224 0.377525 5.34168 0
M  V30 4626 C 465.38 -0.727164 6.21662 0
M  V30 4627 H 465.613 0.431218 2.94156 0
M  V30 4628 H 463.146 0.3408 1.50592 0
M  V30 4629 H 465.104 -1.97683 3.59766 0
M  V30 4630 H 463.765 -1.99073 2.42958 0
M  V30 4631 H 462.958 -1.60187 4.77866 0
M  V30 4632 H 462.56 -0.218448 3.73361 0
M  V30 4633 H 464.852 -1.61992 6.57849 0
M  V30 4634 H 465.795 -0.180135 7.07871 0
M  V30 4635 H 466.203 -1.01863 5.55233 0
M  V30 4636 N 465.601 -1.54893 0.290851 0
M  V30 4637 C 466.85 -1.99111 -0.322113 0
M  V30 4638 C 467.163 -1.18283 -1.55784 0
M  V30 4639 O 468.369 -1.5272 -2.24475 0
M  V30 4640 C 466.825 -3.54442 -0.624438 0
M  V30 4641 C 466.433 -4.44066 0.592373 0
M  V30 4642 C 468.177 -4.07211 -1.19916 0
M  V30 4643 C 466.084 -5.90812 0.263762 0
M  V30 4644 H 465.014 -0.743712 -0.124133 0
M  V30 4645 H 467.665 -1.79132 0.39797 0
M  V30 4646 H 466.047 -3.70281 -1.40384 0
M  V30 4647 H 467.221 -4.39999 1.36886 0
M  V30 4648 H 465.536 -4.02015 1.08502 0
M  V30 4649 H 468.133 -5.14407 -1.45909 0
M  V30 4650 H 468.476 -3.57196 -2.13815 0
M  V30 4651 H 469.009 -3.94873 -0.481687 0
M  V30 4652 H 465.748 -6.44955 1.17105 0
M  V30 4653 H 465.268 -5.97911 -0.475655 0
M  V30 4654 H 466.947 -6.46852 -0.138354 0
M  V30 4655 N 467.08 -0.0183926 -1.57589 0
M  V30 4656 C 468.328 0.661253 -1.90976 0
M  V30 4657 C 468.649 1.73281 -0.894353 0
M  V30 4658 O 467.919 1.9579 0.0656788 0
M  V30 4659 H 466.499 0.247233 -0.704901 0
M  V30 4660 H 469.161 -0.0636639 -1.94796 0
M  V30 4661 H 468.257 1.12083 -2.9128 0
M  V30 4662 N 468.558 1.5553 0.254621 0
M  V30 4663 C 469.805 1.77 0.983736 0
M  V30 4664 C 470.133 0.58133 1.85609 0
M  V30 4665 O 469.388 -0.435621 1.9079 0
M  V30 4666 C 469.687 3.03891 1.88109 0
M  V30 4667 C 469.353 4.35597 1.16472 0
M  V30 4668 C 468.015 4.7139 0.966714 0
M  V30 4669 C 470.367 5.1705 0.656387 0
M  V30 4670 C 467.695 5.86176 0.247942 0
M  V30 4671 C 470.047 6.32581 -0.0488807 0
M  V30 4672 C 468.711 6.67 -0.258438 0
M  V30 4673 H 467.981 0.647688 0.359974 0
M  V30 4674 H 470.628 1.89802 0.254463 0
M  V30 4675 H 468.933 2.86068 2.67717 0
M  V30 4676 H 470.63 3.17701 2.44677 0
M  V30 4677 H 467.22 4.07475 1.32899 0
M  V30 4678 H 471.404 4.8986 0.796933 0
M  V30 4679 H 466.66 6.11354 0.075035 0
M  V30 4680 H 470.834 6.94942 -0.450444 0
M  V30 4681 H 468.461 7.55793 -0.817358 0
M  V30 4682 N 470.036 -0.519951 1.48776 0
M  V30 4683 C 471.284 -1.2727 1.56993 0
M  V30 4684 C 471.605 -1.9339 0.25004 0
M  V30 4685 O 470.875 -1.81822 -0.729216 0
M  V30 4686 H 469.455 -0.472732 0.578389 0
M  V30 4687 H 472.117 -0.604234 1.85297 0
M  V30 4688 H 471.213 -2.04669 2.3562 0
M  V30 4689 N 471.514 -1.37532 -0.769588 0
M  V30 4690 C 472.477 -1.33292 -1.86456 0
M  V30 4691 C 473.477 -0.236537 -1.59051 0
M  V30 4692 O 474.667 -0.492511 -1.67093 0
M  V30 4693 C 471.799 -1.07118 -3.23633 0
M  V30 4694 H 472.992 -2.30692 -1.91628 0
M  V30 4695 H 470.545 -1.22593 -0.969572 0
M  V30 4696 H 471.28 -0.102578 -3.24138 0
M  V30 4697 H 471.065 -1.86479 -3.44917 0
M  V30 4698 H 472.555 -1.06806 -4.03711 0
M  V30 4699 N 472.992 0.995999 -1.22138 0
M  V30 4700 C 474.24 1.73167 -1.042 0
M  V30 4701 C 474.561 1.90329 0.42423 0
M  V30 4702 O 473.831 1.4607 1.30539 0
M  V30 4703 H 472.411 0.641593 -0.38258 0
M  V30 4704 H 475.073 1.19974 -1.53598 0
M  V30 4705 H 474.169 2.72734 -1.51731 0
M  V30 4706 N 474.47 1.03057 1.19235 0
M  V30 4707 C 475.4 0.633497 2.24742 0
M  V30 4708 C 476.381 -0.358335 1.66283 0
M  V30 4709 O 477.566 -0.240676 1.92703 0
M  V30 4710 C 474.696 -0.0147648 3.47297 0
M  V30 4711 C 473.65 0.899527 4.18441 0
M  V30 4712 C 472.976 0.116281 5.34574 0
M  V30 4713 C 474.276 2.21404 4.73051 0
M  V30 4714 H 475.97 1.5155 2.58211 0
M  V30 4715 H 473.516 0.73014 1.24117 0
M  V30 4716 H 475.469 -0.304202 4.20301 0
M  V30 4717 H 474.193 -0.931577 3.13032 0
M  V30 4718 H 472.852 1.17319 3.47321 0
M  V30 4719 H 472.5 -0.802619 4.96555 0
M  V30 4720 H 472.2 0.725293 5.83107 0
M  V30 4721 H 473.724 -0.166376 6.10373 0
M  V30 4722 H 475.138 1.98601 5.37802 0
M  V30 4723 H 473.535 2.77512 5.32078 0
M  V30 4724 H 474.605 2.86752 3.91026 0
M  V30 4725 N 475.948 -1.35272 0.808662 0
M  V30 4726 C 477.173 -2.03477 0.401475 0
M  V30 4727 C 477.598 -1.60537 -0.980279 0
M  V30 4728 O 476.956 -0.78304 -1.63518 0
M  V30 4729 C 477.004 -3.57181 0.495354 0
M  V30 4730 O 476.108 -4.09474 -0.490397 0
M  V30 4731 H 475.449 -0.642561 0.167366 0
M  V30 4732 H 477.979 -1.72824 1.09512 0
M  V30 4733 H 477.989 -4.06356 0.365912 0
M  V30 4734 H 476.664 -3.87784 1.5032 0
M  V30 4735 H 475.241 -3.71516 -0.321023 0
M  V30 4736 N 477.426 -0.562348 -1.47226 0
M  V30 4737 C 478.656 -0.0451619 -2.06551 0
M  V30 4738 C 479.064 1.25626 -1.41473 0
M  V30 4739 O 478.407 1.76563 -0.507061 0
M  V30 4740 C 478.469 0.216068 -3.5885 0
M  V30 4741 C 478.133 -0.996691 -4.45999 0
M  V30 4742 C 479.13 -1.90358 -4.83797 0
M  V30 4743 C 476.815 -1.21281 -4.87438 0
M  V30 4744 C 478.809 -3.01023 -5.6184 0
M  V30 4745 C 476.496 -2.32255 -5.65244 0
M  V30 4746 C 477.494 -3.21956 -6.02356 0
M  V30 4747 O 477.182 -4.31005 -6.78594 0
M  V30 4748 H 476.914 -0.0451646 -0.67449 0
M  V30 4749 H 479.468 -0.776842 -1.90143 0
M  V30 4750 H 477.698 1.00212 -3.7349 0
M  V30 4751 H 479.387 0.679264 -4.00176 0
M  V30 4752 H 480.153 -1.74868 -4.52378 0
M  V30 4753 H 476.032 -0.523767 -4.58015 0
M  V30 4754 H 479.576 -3.71064 -5.90726 0
M  V30 4755 H 475.473 -2.47715 -5.96077 0
M  V30 4756 H 476.241 -4.29118 -6.96994 0
M  V30 4757 N 478.904 1.54736 -0.299062 0
M  V30 4758 C 479.867 2.22127 0.565012 0
M  V30 4759 C 480.867 1.20669 1.06281 0
M  V30 4760 O 482.057 1.45417 0.959145 0
M  V30 4761 C 479.189 2.90611 1.78208 0
M  V30 4762 H 480.382 2.99891 -0.0237448 0
M  V30 4763 H 477.935 1.5622 -0.0498788 0
M  V30 4764 H 478.67 2.16921 2.41072 0
M  V30 4765 H 478.455 3.64984 1.43281 0
M  V30 4766 H 479.945 3.42026 2.396 0
M  V30 4767 N 480.382 0.0267497 1.57577 0
M  V30 4768 C 481.63 -0.651116 1.91324 0
M  V30 4769 C 481.951 -1.72804 0.90353 0
M  V30 4770 O 481.221 -1.95822 -0.0552946 0
M  V30 4771 H 479.801 -0.243491 0.706202 0
M  V30 4772 H 482.463 0.0739935 1.94759 0
M  V30 4773 H 481.559 -1.10536 2.9187 0
M  V30 4774 N 481.861 -1.55662 -0.24637 0
M  V30 4775 C 482.793 -1.86811 -1.32794 0
M  V30 4776 C 483.806 -0.754413 -1.44265 0
M  V30 4777 O 484.995 -1.03253 -1.45606 0
M  V30 4778 C 482.095 -2.0397 -2.70646 0
M  V30 4779 C 481.268 -3.34832 -2.81436 0
M  V30 4780 C 480.327 -3.41727 -4.00136 0
M  V30 4781 O 479.353 -4.14934 -3.89639 0
M  V30 4782 N 480.555 -2.71058 -5.1333 0
M  V30 4783 H 483.32 -2.80174 -1.06409 0
M  V30 4784 H 480.881 -1.55906 -0.43647 0
M  V30 4785 H 482.873 -2.05924 -3.48393 0
M  V30 4786 H 481.443 -1.1735 -2.89738 0
M  V30 4787 H 480.663 -3.4519 -1.90361 0
M  V30 4788 H 481.951 -4.21085 -2.85595 0
M  V30 4789 H 481.349 -2.11314 -5.2475 0
M  V30 4790 H 479.906 -2.78704 -5.89209 0
M  V30 4791 N 483.339 0.512053 -1.4905 0
M  V30 4792 C 484.302 1.59704 -1.64399 0
M  V30 4793 C 485.302 1.52285 -0.516317 0
M  V30 4794 O 486.492 1.55635 -0.782527 0
M  V30 4795 C 483.624 2.9935 -1.63102 0
M  V30 4796 H 484.817 1.47428 -2.61161 0
M  V30 4797 H 482.37 0.735469 -1.37915 0
M  V30 4798 H 483.105 3.17116 -0.678836 0
M  V30 4799 H 482.89 3.06144 -2.44986 0
M  V30 4800 H 484.38 3.782 -1.77072 0
M  V30 4801 N 484.817 1.37938 0.762283 0
M  V30 4802 C 485.747 1.37176 1.88958 0
M  V30 4803 C 486.728 0.238945 1.68413 0
M  V30 4804 O 487.913 0.440726 1.89133 0
M  V30 4805 C 485.043 1.18742 3.2637 0
M  V30 4806 C 483.997 2.29136 3.61498 0
M  V30 4807 C 483.323 1.95816 4.97554 0
M  V30 4808 C 484.623 3.71363 3.6727 0
M  V30 4809 H 486.317 2.31509 1.89853 0
M  V30 4810 H 483.863 1.11438 0.912005 0
M  V30 4811 H 485.816 1.16837 4.04879 0
M  V30 4812 H 484.54 0.208683 3.25933 0
M  V30 4813 H 483.199 2.30213 2.85303 0
M  V30 4814 H 482.847 0.964475 4.93667 0
M  V30 4815 H 482.547 2.69745 5.22026 0
M  V30 4816 H 484.071 1.95513 5.78452 0
M  V30 4817 H 485.485 3.72364 4.35911 0
M  V30 4818 H 483.882 4.44425 4.03245 0
M  V30 4819 H 484.952 4.04305 2.67704 0
M  V30 4820 N 486.295 -0.989507 1.22664 0
M  V30 4821 C 487.225 -2.09847 1.02404 0
M  V30 4822 C 488.206 -1.70007 -0.0561303 0
M  V30 4823 O 489.391 -1.93906 0.106748 0
M  V30 4824 C 486.521 -3.41996 0.604663 0
M  V30 4825 C 485.475 -3.95699 1.63115 0
M  V30 4826 C 484.801 -5.23936 1.0675 0
M  V30 4827 C 486.101 -4.25999 3.02196 0
M  V30 4828 H 487.795 -2.27054 1.95158 0
M  V30 4829 H 485.341 -1.09111 0.939727 0
M  V30 4830 H 487.294 -4.1899 0.45002 0
M  V30 4831 H 486.018 -3.24626 -0.35855 0
M  V30 4832 H 484.677 -3.2084 1.77362 0
M  V30 4833 H 484.325 -5.02909 0.0955422 0
M  V30 4834 H 484.025 -5.60833 1.75328 0
M  V30 4835 H 485.549 -6.0356 0.924516 0
M  V30 4836 H 486.963 -4.93777 2.91303 0
M  V30 4837 H 485.36 -4.74076 3.67929 0
M  V30 4838 H 486.43 -3.33636 3.51873 0
M  V30 4839 N 487.773 -1.03688 -1.18687 0
M  V30 4840 C 488.703 -0.645407 -2.24403 0
M  V30 4841 C 489.684 0.349511 -1.66471 0
M  V30 4842 O 490.869 0.230453 -1.92828 0
M  V30 4843 C 487.999 -0.00365337 -3.473 0
M  V30 4844 C 486.953 -0.921705 -4.17958 0
M  V30 4845 C 486.279 -0.144629 -5.34504 0
M  V30 4846 C 487.579 -2.23909 -4.71871 0
M  V30 4847 H 489.273 -1.52917 -2.57404 0
M  V30 4848 H 486.819 -0.736711 -1.23728 0
M  V30 4849 H 488.772 0.281908 -4.20456 0
M  V30 4850 H 487.496 0.914963 -3.13522 0
M  V30 4851 H 486.155 -1.19159 -3.46694 0
M  V30 4852 H 485.803 0.776274 -4.96974 0
M  V30 4853 H 485.503 -0.756206 -5.82714 0
M  V30 4854 H 487.027 0.134004 -6.10453 0
M  V30 4855 H 488.441 -2.0145 -5.36741 0
M  V30 4856 H 486.838 -2.8033 -5.30599 0
M  V30 4857 H 487.908 -2.88822 -3.895 0
M  V30 4858 N 489.251 1.34841 -0.815825 0
M  V30 4859 C 490.662 1.80937 -0.46029 0
M  V30 4860 C 491.013 1.67685 1.01863 0
M  V30 4861 O 490.138 1.21277 1.79223 0
M  V30 4862 C 490.733 3.28509 -0.828708 0
M  V30 4863 C 489.292 3.72712 -0.525644 0
M  V30 4864 C 488.439 2.56676 -1.04941 0
M  V30 4865 H 491.39 1.22688 -1.00664 0
M  V30 4866 H 491.411 3.80279 -0.129757 0
M  V30 4867 H 490.923 3.38122 -1.90513 0
M  V30 4868 H 489.024 3.68642 0.541666 0
M  V30 4869 H 489.137 4.67119 -1.06474 0
M  V30 4870 H 487.501 2.50302 -0.471286 0
M  V30 4871 H 488.284 2.69063 -2.13214 0
M  V30 4872 N 490.729 0.570148 1.46925 0
M  V30 4873 C 492.006 -0.0153259 1.95594 0
M  V30 4874 C 492.386 -1.47232 1.51281 0
M  V30 4875 O 491.734 -2.15574 0.757624 0
M  V30 4876 C 491.944 0.143624 3.48704 0
M  V30 4877 C 493.292 0.00494484 4.246 0
M  V30 4878 O 494.316 0.0718214 3.56128 0
M  V30 4879 O 493.175 -0.141175 5.46318 0
M  V30 4880 H 490.269 -0.0568819 0.825041 0
M  V30 4881 H 492.815 0.637583 1.57267 0
M  V30 4882 H 491.587 1.15699 3.73804 0
M  V30 4883 H 491.21 -0.5463 3.93829 0
M  V30 4884 N 492.207 -1.54576 0.307264 0
M  V30 4885 C 493.618 -1.8579 -0.184121 0
M  V30 4886 C 493.969 -1.22914 -1.52927 0
M  V30 4887 O 493.094 -0.529126 -2.09831 0
M  V30 4888 C 493.689 -3.37081 -0.340862 0
M  V30 4889 C 492.248 -3.68304 -0.776465 0
M  V30 4890 C 491.395 -2.77076 0.111503 0
M  V30 4891 H 494.346 -1.49656 0.528078 0
M  V30 4892 H 494.367 -3.61922 -1.17443 0
M  V30 4893 H 493.879 -3.82815 0.638309 0
M  V30 4894 H 491.98 -3.28092 -1.76596 0
M  V30 4895 H 492.093 -4.75434 -0.591512 0
M  V30 4896 H 490.457 -2.51374 -0.410256 0
M  V30 4897 H 491.24 -3.25632 1.08714 0
M  V30 4898 N 493.685 -0.035106 -1.57561 0
M  V30 4899 C 495.096 0.502885 -1.798 0
M  V30 4900 C 495.447 1.71892 -0.945921 0
M  V30 4901 O 494.572 2.15822 -0.157991 0
M  V30 4902 C 495.167 0.919097 -3.26095 0
M  V30 4903 C 493.726 1.40216 -3.49308 0
M  V30 4904 C 492.873 0.369709 -2.74824 0
M  V30 4905 H 495.824 -0.261102 -1.56537 0
M  V30 4906 H 495.845 1.78308 -3.36135 0
M  V30 4907 H 495.357 0.0338526 -3.88085 0
M  V30 4908 H 493.458 2.30714 -2.92578 0
M  V30 4909 H 493.571 1.40541 -4.58023 0
M  V30 4910 H 491.935 0.839113 -2.40481 0
M  V30 4911 H 492.718 -0.507173 -3.39533 0
M  V30 4912 N 495.163 1.55791 0.238111 0
M  V30 4913 C 496.388 1.8244 0.986432 0
M  V30 4914 C 496.813 0.613314 1.7782 0
M  V30 4915 O 496.171 -0.437767 1.75935 0
M  V30 4916 C 496.219 3.06917 1.893 0
M  V30 4917 O 495.323 2.84449 2.98601 0
M  V30 4918 H 494.664 0.601975 0.280218 0
M  V30 4919 H 497.194 2.02987 0.256437 0
M  V30 4920 H 497.204 3.36583 2.30598 0
M  V30 4921 H 495.879 3.947 1.31091 0
M  V30 4922 H 494.456 2.65972 2.61368 0
M  V30 4923 N 496.642 -0.504142 1.49319 0
M  V30 4924 C 497.87 -1.28256 1.62351 0
M  V30 4925 C 498.285 -1.86502 0.293682 0
M  V30 4926 O 497.642 -1.67678 -0.720449 0
M  V30 4927 C 497.693 -2.41507 2.68992 0
M  V30 4928 O 497.414 -1.85656 3.96817 0
M  V30 4929 C 498.915 -3.32929 2.927 0
M  V30 4930 H 496.135 -0.389115 0.546654 0
M  V30 4931 H 498.679 -0.605531 1.95329 0
M  V30 4932 H 496.834 -3.05046 2.38801 0
M  V30 4933 H 497.248 -2.59981 4.55533 0
M  V30 4934 H 498.722 -4.0868 3.71058 0
M  V30 4935 H 499.199 -3.89733 2.02496 0
M  V30 4936 H 499.805 -2.75158 3.24296 0
M  V30 4937 N 498.12 -1.38341 -0.754957 0
M  V30 4938 C 499.531 -1.30803 -1.3322 0
M  V30 4939 C 499.882 0.0368 -1.96165 0
M  V30 4940 O 499.007 0.938844 -1.94974 0
M  V30 4941 C 499.602 -2.3688 -2.42225 0
M  V30 4942 C 498.161 -2.32925 -2.95674 0
M  V30 4943 C 497.308 -2.19819 -1.69042 0
M  V30 4944 H 500.259 -1.48719 -0.553937 0
M  V30 4945 H 500.28 -2.02517 -3.22129 0
M  V30 4946 H 499.792 -3.34747 -1.96383 0
M  V30 4947 H 497.893 -1.38635 -3.45848 0
M  V30 4948 H 498.006 -3.27008 -3.50146 0
M  V30 4949 H 496.37 -1.66648 -1.92615 0
M  V30 4950 H 497.153 -3.19625 -1.25279 0
M  V30 4951 N 499.598 0.982988 -1.23187 0
M  V30 4952 C 500.561 2.05649 -1.01198 0
M  V30 4953 C 501.561 1.6078 0.0252464 0
M  V30 4954 O 502.751 1.72878 -0.214243 0
M  V30 4955 C 499.883 3.36744 -0.530656 0
M  V30 4956 H 501.076 2.2659 -1.96461 0
M  V30 4957 H 498.629 1.15602 -1.05195 0
M  V30 4958 H 499.364 3.21492 0.425873 0
M  V30 4959 H 499.149 3.7065 -1.2791 0
M  V30 4960 H 500.639 4.15705 -0.397366 0
M  V30 4961 O 501.115 1.16872 1.1146 0
M  V30 4962 H 501.806 0.903209 1.71353 0
M  V30 END ATOM
M  V30 BEGIN BOND
M  V30 END BOND
M  V30 END CTAB
M  END
$$$$
