drugbank_target|Q9FA38 5,6,7,8-tetrahydromethanopterin hydro-lyase (DB03481)
 OpenBabel12092119583D

  0  0  0     0  0            999 V3000
M  V30 BEGIN CTAB
M  V30 COUNTS 2542 2566 0 0 0
M  V30 BEGIN ATOM
M  V30 1 H -0.908 1.98254 -0.117106 0
M  V30 2 N 0 1.576 0 0
M  V30 3 C 0.933 2.03868 1.02534 0
M  V30 4 C 1.911 0.928543 1.3348 0
M  V30 5 O 3.095 1.19667 1.45644 0
M  V30 6 C 0.222 2.43627 2.35294 0
M  V30 7 C -0.732 3.65373 2.2001 0
M  V30 8 S 0.101 5.13292 1.52614 0
M  V30 9 C 1.257 5.56322 2.86805 0
M  V30 10 H 1.49 2.90518 0.631377 0
M  V30 11 H -0.977 1.52953 0.210867 0
M  V30 12 H 0.981 2.67203 3.11629 0
M  V30 13 H -0.358 1.57376 2.7183 0
M  V30 14 H -1.165 3.90944 3.18086 0
M  V30 15 H -1.563 3.418 1.51819 0
M  V30 16 H 0.729 5.58782 3.83104 0
M  V30 17 H 1.672 6.56266 2.65933 0
M  V30 18 H 2.08 4.83886 2.90714 0
M  V30 19 N 1.4781 -0.272755 1.55222 0
M  V30 20 C 2.4411 -1.32041 1.87344 0
M  V30 21 C 3.4411 -1.42342 0.74803 0
M  V30 22 O 4.6311 -1.41488 1.0162 0
M  V30 23 C 1.7631 -2.70173 2.07893 0
M  V30 24 H 2.9561 -1.04789 2.80997 0
M  V30 25 H 0.5091 -0.51083 1.47717 0
M  V30 26 H 1.2441 -3.02605 1.16622 0
M  V30 27 H 1.0291 -2.64082 2.89833 0
M  V30 28 H 2.5191 -3.45869 2.34017 0
M  V30 29 N 2.9562 -1.48159 -0.537278 0
M  V30 30 C 3.9032 -1.62138 -1.64256 0
M  V30 31 C 4.8732 -0.463668 -1.59497 0
M  V30 32 O 6.0582 -0.686241 -1.78032 0
M  V30 33 C 3.1982 -1.66028 -3.02537 0
M  V30 34 C 2.3112 -2.92855 -3.17585 0
M  V30 35 C 1.4462 -2.87952 -4.46382 0
M  V30 36 C 0.4852 -4.09516 -4.54932 0
M  V30 37 N -0.3778 -4.02733 -5.75109 0
M  V30 38 H 4.4622 -2.56529 -1.51647 0
M  V30 39 H 1.9992 -1.27224 -0.738414 0
M  V30 40 H 3.9572 -1.66265 -3.82638 0
M  V30 41 H 2.5872 -0.751331 -3.13934 0
M  V30 42 H 1.6392 -3.02395 -2.30784 0
M  V30 43 H 2.9512 -3.82822 -3.19764 0
M  V30 44 H 2.1052 -2.8655 -5.34765 0
M  V30 45 H 0.8442 -1.95702 -4.46712 0
M  V30 46 H -0.1508 -4.11201 -3.64957 0
M  V30 47 H 1.0742 -5.02917 -4.56346 0
M  V30 48 H -0.9798 -3.13299 -5.76351 0
M  V30 49 H -1.0628 -4.86397 -5.78752 0
M  V30 50 H 0.2052 -4.05379 -6.65799 0
M  V30 51 N 4.4343 0.785586 -1.36625 0
M  V30 52 C 5.6833 1.53883 -1.30396 0
M  V30 53 C 5.9963 1.95271 0.113452 0
M  V30 54 O 7.2023 2.69858 0.298142 0
M  V30 55 C 5.6583 2.77808 -2.28802 0
M  V30 56 C 5.2663 2.43574 -3.75999 0
M  V30 57 C 7.0103 3.55783 -2.31558 0
M  V30 58 C 4.9173 3.63919 -4.66173 0
M  V30 59 H 3.8473 0.577678 -0.484566 0
M  V30 60 H 6.4983 0.861705 -1.62009 0
M  V30 61 H 4.8803 3.47339 -1.90188 0
M  V30 62 H 6.0543 1.81916 -4.23371 0
M  V30 63 H 4.3693 1.78803 -3.76056 0
M  V30 64 H 6.9663 4.45205 -2.96137 0
M  V30 65 H 7.3093 3.94644 -1.3252 0
M  V30 66 H 7.8423 2.93235 -2.68809 0
M  V30 67 H 4.5813 3.3015 -5.66287 0
M  V30 68 H 4.1013 4.2473 -4.23515 0
M  V30 69 H 5.7803 4.30901 -4.82632 0
M  V30 70 N 5.9124 1.20967 1.01018 0
M  V30 71 C 7.1404 1.04956 1.78303 0
M  V30 72 C 7.5554 -0.400915 1.84494 0
M  V30 73 O 6.9124 -1.27826 1.30257 0
M  V30 74 C 6.9634 1.63403 3.22462 0
M  V30 75 O 6.6844 3.02775 3.16637 0
M  V30 76 C 8.1854 1.52432 4.16268 0
M  V30 77 H 5.4054 0.368858 0.560522 0
M  V30 78 H 7.9494 1.60193 1.27116 0
M  V30 79 H 6.1044 1.1227 3.70775 0
M  V30 80 H 6.5184 3.30626 4.07169 0
M  V30 81 H 7.9924 1.98078 5.15237 0
M  V30 82 H 8.4694 0.477875 4.36592 0
M  V30 83 H 9.0754 2.02787 3.73841 0
M  V30 84 N 7.3905 -1.2043 1.01659 0
M  V30 85 C 8.3375 -2.23215 0.586822 0
M  V30 86 C 9.3075 -1.61382 -0.393085 0
M  V30 87 O 10.4925 -1.88544 -0.292525 0
M  V30 88 C 7.6325 -3.45032 -0.0687464 0
M  V30 89 C 6.7455 -4.21296 0.955724 0
M  V30 90 C 5.8805 -5.30507 0.271208 0
M  V30 91 C 4.9195 -5.98515 1.28244 0
M  V30 92 N 4.0565 -6.99316 0.62459 0
M  V30 93 H 8.8965 -2.59336 1.46796 0
M  V30 94 H 6.4335 -1.27431 0.734836 0
M  V30 95 H 8.3915 -4.1459 -0.465965 0
M  V30 96 H 7.0215 -3.09604 -0.913529 0
M  V30 97 H 6.0735 -3.50803 1.4711 0
M  V30 98 H 7.3855 -4.6803 1.72479 0
M  V30 99 H 6.5395 -6.06428 -0.18151 0
M  V30 100 H 5.2785 -4.8481 -0.530163 0
M  V30 101 H 4.2835 -5.21355 1.74554 0
M  V30 102 H 5.5085 -6.46298 2.08509 0
M  V30 103 H 3.4545 -6.55812 -0.156914 0
M  V30 104 H 3.3715 -7.44178 1.33172 0
M  V30 105 H 4.6395 -7.79255 0.195462 0
M  V30 106 N 8.8686 -0.792821 -1.36206 0
M  V30 107 C 10.1146 -0.36733 -1.99446 0
M  V30 108 C 10.4476 1.05917 -1.62774 0
M  V30 109 O 9.7226 1.7324 -0.88421 0
M  V30 110 C 10.0056 -0.535044 -3.56103 0
M  V30 111 C 9.8586 -2.00548 -4.02617 0
M  V30 112 C 11.1776 0.0478191 -4.40074 0
M  V30 113 H 8.2966 -0.134941 -0.724541 0
M  V30 114 H 10.9386 -0.999794 -1.61568 0
M  V30 115 H 9.0886 0.00336329 -3.885 0
M  V30 116 H 10.7606 -2.60521 -3.80692 0
M  V30 117 H 9.0036 -2.50686 -3.54032 0
M  V30 118 H 9.6746 -2.07377 -5.11565 0
M  V30 119 H 12.1506 -0.411822 -4.14057 0
M  V30 120 H 11.0266 -0.0995336 -5.4881 0
M  V30 121 H 11.2876 1.14025 -4.27142 0
M  V30 122 N 10.3467 1.47872 -0.545128 0
M  V30 123 C 11.2787 2.27869 0.246621 0
M  V30 124 C 12.2917 1.36282 0.890561 0
M  V30 125 O 13.4807 1.61207 0.766449 0
M  V30 126 C 10.5807 3.10159 1.36582 0
M  V30 127 C 9.7537 4.29627 0.820954 0
M  V30 128 C 8.8127 4.93607 1.82314 0
M  V30 129 O 7.8387 5.52366 1.37406 0
M  V30 130 N 9.0407 4.87211 3.15603 0
M  V30 131 H 11.8057 2.96459 -0.439539 0
M  V30 132 H 9.3667 1.57367 -0.380421 0
M  V30 133 H 11.3587 3.49829 2.03474 0
M  V30 134 H 9.9287 2.43891 1.9554 0
M  V30 135 H 9.1487 3.94192 -0.0244032 0
M  V30 136 H 10.4367 5.06928 0.436063 0
M  V30 137 H 9.8347 4.40651 3.54744 0
M  V30 138 H 8.3917 5.30937 3.78087 0
M  V30 139 N 11.8248 0.280983 1.55075 0
M  V30 140 C 13.0708 -0.33461 2.00021 0
M  V30 141 C 13.4038 -1.55063 1.16915 0
M  V30 142 O 12.6788 -1.93006 0.240646 0
M  V30 143 C 12.9618 -0.711007 3.53011 0
M  V30 144 C 12.8148 0.512766 4.46868 0
M  V30 145 C 14.1338 -1.54522 4.12081 0
M  V30 146 H 11.2528 -0.120147 0.727141 0
M  V30 147 H 13.8948 0.389097 1.85973 0
M  V30 148 H 12.0448 -1.32761 3.65112 0
M  V30 149 H 13.7168 1.15131 4.46702 0
M  V30 150 H 11.9598 1.14975 4.18286 0
M  V30 151 H 12.6308 0.205556 5.51617 0
M  V30 152 H 15.1068 -1.02442 4.03293 0
M  V30 153 H 13.9828 -1.77739 5.19327 0
M  V30 154 H 14.2438 -2.52813 3.62682 0
M  V30 155 N 13.3029 -1.57598 0.00835791 0
M  V30 156 C 14.5509 -1.90551 -0.6734 0
M  V30 157 C 14.8719 -0.883301 -1.73847 0
M  V30 158 O 14.1419 0.0781442 -1.95744 0
M  V30 159 H 12.7219 -0.703312 -0.251717 0
M  V30 160 H 15.3839 -1.94833 0.0512592 0
M  V30 161 H 14.4799 -2.9056 -1.13935 0
M  V30 162 N 14.781 0.264519 -1.55364 0
M  V30 163 C 15.691 1.34902 -1.91934 0
M  V30 164 C 16.707 1.53595 -0.817593 0
M  V30 165 O 17.883 1.67558 -1.11742 0
M  V30 166 C 14.948 2.68676 -2.19121 0
M  V30 167 C 14.009 2.58657 -3.4263 0
M  V30 168 C 13.242 3.86051 -3.68511 0
M  V30 169 O 13.465 4.87126 -2.96757 0
M  V30 170 O 12.399 3.85744 -4.62045 0
M  V30 171 H 16.225 1.06883 -2.8427 0
M  V30 172 H 13.81 0.463775 -1.42019 0
M  V30 173 H 15.692 3.47759 -2.37995 0
M  V30 174 H 14.367 2.96463 -1.29966 0
M  V30 175 H 13.274 1.7792 -3.29082 0
M  V30 176 H 14.607 2.35818 -4.32031 0
M  V30 177 N 16.2591 1.48442 0.529413 0
M  V30 178 C 17.2221 1.62524 1.61612 0
M  V30 179 C 18.2221 0.498509 1.52877 0
M  V30 180 O 19.4121 0.76431 1.56537 0
M  V30 181 C 16.5441 1.59597 3.01233 0
M  V30 182 H 17.7371 2.59423 1.50465 0
M  V30 183 H 15.2901 1.37047 0.751514 0
M  V30 184 H 16.0251 0.641781 3.17886 0
M  V30 185 H 15.8101 2.41397 3.08982 0
M  V30 186 H 17.3001 1.72646 3.80241 0
M  V30 187 N 17.7372 -0.778329 1.37039 0
M  V30 188 C 18.6672 -1.90546 1.34962 0
M  V30 189 C 19.6482 -1.68681 0.219274 0
M  V30 190 O 20.8332 -1.89634 0.418624 0
M  V30 191 C 17.9632 -3.27734 1.14925 0
M  V30 192 C 16.9172 -3.64147 2.24902 0
M  V30 193 C 16.2432 -4.99806 1.89996 0
M  V30 194 C 17.5432 -3.71579 3.67051 0
M  V30 195 H 19.2372 -1.92541 2.29277 0
M  V30 196 H 16.7832 -0.924948 1.10366 0
M  V30 197 H 18.7362 -4.06215 1.12104 0
M  V30 198 H 17.4602 -3.26154 0.170631 0
M  V30 199 H 16.1192 -2.8797 2.26868 0
M  V30 200 H 15.7672 -4.94759 0.906796 0
M  V30 201 H 15.4672 -5.25139 2.63634 0
M  V30 202 H 16.9912 -5.80694 1.88749 0
M  V30 203 H 18.4052 -4.40227 3.67251 0
M  V30 204 H 16.8022 -4.08405 4.39688 0
M  V30 205 H 17.8722 -2.72404 4.01154 0
M  V30 206 N 19.2153 -1.21501 -1.00376 0
M  V30 207 C 20.4613 -1.03452 -1.74429 0
M  V30 208 C 20.7943 0.430764 -1.89362 0
M  V30 209 O 20.0693 1.31962 -1.42886 0
M  V30 210 C 20.3523 -1.73375 -3.15615 0
M  V30 211 C 20.2053 -3.27431 -3.08397 0
M  V30 212 C 21.5243 -1.47732 -4.14564 0
M  V30 213 H 18.6433 -0.377226 -0.633143 0
M  V30 214 H 21.2853 -1.49693 -1.17013 0
M  V30 215 H 19.4353 -1.34064 -3.64636 0
M  V30 216 H 21.1073 -3.76119 -2.67081 0
M  V30 217 H 19.3503 -3.5767 -2.45468 0
M  V30 218 H 20.0213 -3.71524 -4.08258 0
M  V30 219 H 22.4973 -1.8186 -3.74254 0
M  V30 220 H 21.3733 -1.99169 -5.11491 0
M  V30 221 H 21.6343 -0.407589 -4.40217 0
M  V30 222 N 20.6934 1.19889 -1.02296 0
M  V30 223 C 21.9414 1.89046 -0.714558 0
M  V30 224 C 22.2624 1.79636 0.758681 0
M  V30 225 O 21.5324 1.20292 1.54618 0
M  V30 226 H 20.1124 0.699802 -0.261317 0
M  V30 227 H 22.7744 1.45574 -1.29592 0
M  V30 228 H 21.8704 2.95524 -1.0036 0
M  V30 229 N 22.1715 0.800033 1.35784 0
M  V30 230 C 23.4485 0.30088 1.93272 0
M  V30 231 C 23.8285 -1.20857 1.73081 0
M  V30 232 O 23.1765 -2.00502 1.09596 0
M  V30 233 C 23.3865 0.70511 3.41803 0
M  V30 234 C 24.7345 0.690871 4.18942 0
M  V30 235 O 25.7585 0.646244 3.50289 0
M  V30 236 O 24.6175 0.74332 5.41421 0
M  V30 237 H 21.7115 0.0771605 0.823393 0
M  V30 238 H 24.2575 0.88329 1.449 0
M  V30 239 H 23.0295 1.74571 3.50201 0
M  V30 240 H 22.6525 0.0971541 3.97481 0
M  V30 241 N 23.6496 -1.47581 0.552962 0
M  V30 242 C 24.8976 -2.02082 0.0272703 0
M  V30 243 C 25.2186 -1.4301 -1.32563 0
M  V30 244 O 24.4886 -0.603745 -1.86365 0
M  V30 245 H 23.0686 -0.746966 0.00709182 0
M  V30 246 H 25.7306 -1.81033 0.722008 0
M  V30 247 H 24.8266 -3.12034 -0.0639951 0
M  V30 248 N 25.1277 -0.289203 -1.54924 0
M  V30 249 C 26.0757 0.607966 -2.24514 0
M  V30 250 C 27.0697 1.14655 -1.24702 0
M  V30 251 O 28.2757 1.09856 -1.4259 0
M  V30 252 H 24.6507 0.21464 -0.720718 0
M  V30 253 H 26.6217 -0.00164182 -2.984 0
M  V30 254 C 25.3707 1.77406 -2.99036 0
M  V30 255 H 24.6937 1.36884 -3.75637 0
M  V30 256 H 26.1337 2.37814 -3.51028 0
M  V30 257 C 24.5927 2.67107 -2.05318 0
M  V30 258 O 25.1227 3.6787 -1.61353 0
M  V30 259 N 23.3287 2.34582 -1.71521 0
M  V30 260 H 22.8757 1.52688 -2.07471 0
M  V30 261 H 22.8337 2.94867 -1.0909 0
M  V30 262 N 26.6058 1.57591 -0.0167156 0
M  V30 263 C 27.5158 2.1291 0.98521 0
M  V30 264 C 28.5318 1.07834 1.36557 0
M  V30 265 O 29.7078 1.39826 1.44951 0
M  V30 266 C 26.7728 2.63512 2.25305 0
M  V30 267 C 25.8338 3.83256 1.93426 0
M  V30 268 C 25.0668 4.31435 3.14165 0
M  V30 269 O 25.2898 3.78851 4.26413 0
M  V30 270 O 24.2238 5.23416 2.97186 0
M  V30 271 H 28.0498 2.98772 0.544888 0
M  V30 272 H 25.6348 1.48012 0.203141 0
M  V30 273 H 27.5168 2.96183 2.99756 0
M  V30 274 H 26.1918 1.8074 2.68542 0
M  V30 275 H 25.0988 3.55531 1.16398 0
M  V30 276 H 26.4318 4.67153 1.55013 0
M  V30 277 N 28.0839 -0.256276 1.55502 0
M  V30 278 C 29.3299 -0.987079 1.77157 0
M  V30 279 C 29.6629 -1.85327 0.580315 0
M  V30 280 O 28.9379 -1.89874 -0.421686 0
M  V30 281 C 29.2209 -1.85553 3.08613 0
M  V30 282 C 29.0739 -1.01816 4.38125 0
M  V30 283 C 30.3929 -2.8397 3.36228 0
M  V30 284 H 27.5119 -0.357428 0.644526 0
M  V30 285 H 30.1539 -0.258239 1.88237 0
M  V30 286 H 28.3039 -2.47695 2.99298 0
M  V30 287 H 29.9759 -0.416159 4.59419 0
M  V30 288 H 28.2189 -0.322178 4.32602 0
M  V30 289 H 28.8899 -1.65939 5.26468 0
M  V30 290 H 31.3659 -2.31964 3.45445 0
M  V30 291 H 30.2419 -3.41864 4.29442 0
M  V30 292 H 30.5029 -3.59955 2.56681 0
M  V30 293 N 29.562 -1.4872 -0.521534 0
M  V30 294 C 30.525 -1.63379 -1.60748 0
M  V30 295 C 31.525 -0.50661 -1.52611 0
M  V30 296 O 32.715 -0.772601 -1.5613 0
M  V30 297 C 29.847 -1.61192 -3.00383 0
M  V30 298 H 31.04 -2.60217 -1.49087 0
M  V30 299 H 28.593 -1.37444 -0.744235 0
M  V30 300 H 29.328 -0.65863 -3.17541 0
M  V30 301 H 29.113 -2.43032 -3.07698 0
M  V30 302 H 30.603 -1.7466 -3.7932 0
M  V30 303 N 31.0401 0.771051 -1.3745 0
M  V30 304 C 31.9901 1.87456 -1.29785 0
M  V30 305 C 32.9741 1.59827 -0.185541 0
M  V30 306 O 34.1661 1.71945 -0.419997 0
M  V30 307 C 31.2951 3.24935 -1.1078 0
M  V30 308 C 30.3811 3.58514 -2.26558 0
M  V30 309 N 30.7721 3.6327 -3.5195 0
M  V30 310 C 29.0701 3.88683 -2.18727 0
M  V30 311 C 29.7711 3.93616 -4.283 0
M  V30 312 N 28.7471 4.09551 -3.57448 0
M  V30 313 H 32.5491 1.89386 -2.24745 0
M  V30 314 H 30.0631 0.967531 -1.30432 0
M  V30 315 H 32.0601 4.03881 -1.03374 0
M  V30 316 H 30.7201 3.24268 -0.16738 0
M  V30 317 H 31.7311 3.45458 -3.85848 0
M  V30 318 H 28.4081 3.95834 -1.32746 0
M  V30 319 H 29.7981 4.04066 -5.36824 0
M  V30 320 N 32.5182 1.22032 0.997298 0
M  V30 321 C 33.7672 1.03637 1.73038 0
M  V30 322 C 34.0802 -0.429475 1.90827 0
M  V30 323 O 35.2862 -0.732995 2.61418 0
M  V30 324 C 33.7422 1.80582 3.11317 0
M  V30 325 C 33.3502 3.31387 3.01474 0
M  V30 326 C 35.0942 1.70621 3.88701 0
M  V30 327 C 33.0012 4.00791 4.3488 0
M  V30 328 H 31.9312 0.384179 0.648785 0
M  V30 329 H 34.5822 1.4584 1.11368 0
M  V30 330 H 32.9642 1.31175 3.73643 0
M  V30 331 H 34.1382 3.88155 2.4834 0
M  V30 332 H 32.4532 3.41976 2.37575 0
M  V30 333 H 35.0502 2.19799 4.87434 0
M  V30 334 H 35.3932 0.665823 4.10941 0
M  V30 335 H 35.9262 2.17547 3.33044 0
M  V30 336 H 32.6652 5.05064 4.1784 0
M  V30 337 H 32.1852 3.48811 4.87945 0
M  V30 338 H 33.8642 4.06139 5.03647 0
M  V30 339 N 33.9963 -1.19345 1.0293 0
M  V30 340 C 35.2733 -1.84811 0.640642 0
M  V30 341 C 35.6533 -1.91855 -0.88062 0
M  V30 342 O 35.0013 -1.43587 -1.7775 0
M  V30 343 C 35.2113 -3.23755 1.30321 0
M  V30 344 C 36.5593 -3.99912 1.42673 0
M  V30 345 O 37.5833 -3.33155 1.26041 0
M  V30 346 O 36.4423 -5.19494 1.6967 0
M  V30 347 H 33.5363 -0.796443 0.222726 0
M  V30 348 H 36.0823 -1.26831 1.12748 0
M  V30 349 H 34.8543 -3.13466 2.34211 0
M  V30 350 H 34.4773 -3.89381 0.804261 0
M  V30 351 N 35.4744 -0.807222 -1.35358 0
M  V30 352 C 36.4044 -0.232509 -2.3234 0
M  V30 353 C 37.3854 0.642386 -1.57504 0
M  V30 354 O 38.5704 0.572526 -1.85569 0
M  V30 355 C 35.7004 0.619238 -3.41735 0
M  V30 356 C 34.6544 -0.157215 -4.27711 0
M  V30 357 C 33.9804 0.816273 -5.28433 0
M  V30 358 C 35.2804 -1.35656 -5.04376 0
M  V30 359 H 36.9744 -1.04276 -2.80654 0
M  V30 360 H 34.5204 -0.50288 -1.34934 0
M  V30 361 H 36.4734 1.03137 -4.08584 0
M  V30 362 H 35.1974 1.46239 -2.92031 0
M  V30 363 H 33.8564 -0.550525 -3.62443 0
M  V30 364 H 33.5044 1.65494 -4.74996 0
M  V30 365 H 33.2044 0.301067 -5.86828 0
M  V30 366 H 34.7284 1.22659 -5.98153 0
M  V30 367 H 36.1424 -1.01927 -5.64166 0
M  V30 368 H 34.5394 -1.8063 -5.7227 0
M  V30 369 H 35.6094 -2.14288 -4.34981 0
M  V30 370 N 36.9525 1.47285 -0.560781 0
M  V30 371 C 38.2015 2.01668 -0.035895 0
M  V30 372 C 38.5145 1.44021 1.32353 0
M  V30 373 O 39.7205 1.90088 1.93853 0
M  V30 374 C 38.1765 3.59897 -0.0136659 0
M  V30 375 C 37.7845 4.26536 -1.37006 0
M  V30 376 C 39.5285 4.22017 0.458425 0
M  V30 377 C 37.4355 5.76782 -1.30675 0
M  V30 378 H 36.3655 0.753938 -0.00964879 0
M  V30 379 H 39.0165 1.69243 -0.709166 0
M  V30 380 H 37.3985 3.89301 0.725325 0
M  V30 381 H 38.5725 4.0877 -2.12705 0
M  V30 382 H 36.8875 3.76419 -1.78038 0
M  V30 383 H 39.4845 5.32124 0.524247 0
M  V30 384 H 39.8275 3.89437 1.4712 0
M  V30 385 H 40.3605 3.97159 -0.225818 0
M  V30 386 H 37.0995 6.13988 -2.29564 0
M  V30 387 H 36.6195 5.96875 -0.591622 0
M  V30 388 H 38.2985 6.39063 -1.01033 0
M  V30 389 N 38.4306 0.297415 1.54768 0
M  V30 390 C 39.6796 -0.313669 1.99246 0
M  V30 391 C 39.9926 -1.55281 1.18942 0
M  V30 392 O 41.1986 -2.23825 1.5367 0
M  V30 393 C 39.6546 -0.609407 3.54703 0
M  V30 394 C 39.2626 0.611192 4.43811 0
M  V30 395 C 41.0066 -1.18188 4.07715 0
M  V30 396 C 38.9136 0.288805 5.90694 0
M  V30 397 H 37.8436 -0.120979 0.744231 0
M  V30 398 H 40.4946 0.40556 1.78962 0
M  V30 399 H 38.8766 -1.38813 3.70873 0
M  V30 400 H 40.0506 1.3875 4.39414 0
M  V30 401 H 38.3656 1.10205 4.01552 0
M  V30 402 H 40.9626 -1.43727 5.15021 0
M  V30 403 H 41.3056 -2.12299 3.58099 0
M  V30 404 H 41.8386 -0.464944 3.95074 0
M  V30 405 H 38.5776 1.19838 6.44453 0
M  V30 406 H 38.0976 -0.450305 5.98107 0
M  V30 407 H 39.7766 -0.110933 6.46905 0
M  V30 408 N 39.9087 -1.5758 0.0250728 0
M  V30 409 C 41.1567 -1.91255 -0.653151 0
M  V30 410 C 41.4777 -0.901691 -1.729 0
M  V30 411 O 40.7477 0.0573785 -1.95816 0
M  V30 412 H 39.3277 -0.705942 -0.244243 0
M  V30 413 H 41.9897 -1.94767 0.0719209 0
M  V30 414 H 41.0857 -2.91752 -1.10847 0
M  V30 415 N 41.3868 0.248026 -1.55636 0
M  V30 416 C 42.7978 0.817177 -1.67866 0
M  V30 417 C 43.1488 1.86069 -0.622322 0
M  V30 418 O 42.2738 2.15157 0.231618 0
M  V30 419 C 42.8688 1.489 -3.04326 0
M  V30 420 C 41.4278 2.00587 -3.185 0
M  V30 421 C 40.5748 0.856573 -2.63739 0
M  V30 422 H 43.5258 0.0238579 -1.58682 0
M  V30 423 H 43.5468 2.35698 -2.98708 0
M  V30 424 H 43.0588 0.729279 -3.81186 0
M  V30 425 H 41.1598 2.79443 -2.4646 0
M  V30 426 H 41.2728 2.20402 -4.25393 0
M  V30 427 H 39.6368 1.25678 -2.21534 0
M  V30 428 H 40.4198 0.109953 -3.43124 0
M  V30 429 N 42.8649 1.48995 0.513639 0
M  V30 430 C 44.2809 1.35478 0.843682 0
M  V30 431 C 44.4809 0.378213 1.97919 0
M  V30 432 O 43.5369 -0.194689 2.51748 0
M  V30 433 C 44.8499 2.75901 1.1958 0
M  V30 434 C 46.3979 2.84509 1.30474 0
M  V30 435 C 46.8729 4.25671 1.69021 0
M  V30 436 N 48.3639 4.28422 1.76094 0
M  V30 437 C 49.0989 5.34601 2.07338 0
M  V30 438 N 48.5949 6.5104 2.36894 0
M  V30 439 N 50.3879 5.22007 2.08483 0
M  V30 440 H 42.5389 2.11092 -0.235328 0
M  V30 441 H 44.8019 0.947039 -0.0426669 0
M  V30 442 H 44.5079 3.49001 0.434913 0
M  V30 443 H 44.3819 3.10467 2.1422 0
M  V30 444 H 46.7689 2.11655 2.05637 0
M  V30 445 H 46.8499 2.53542 0.339155 0
M  V30 446 H 46.4939 4.99048 0.944135 0
M  V30 447 H 46.4239 4.54094 2.66658 0
M  V30 448 H 48.9149 3.44441 1.55464 0
M  V30 449 H 49.2279 7.2779 2.59887 0
M  V30 450 H 47.5729 6.54287 2.34378 0
M  V30 451 H 50.7639 4.30051 1.84861 0
M  V30 452 H 50.9369 6.04854 2.325 0
M  V30 453 N 44.343 -0.763751 1.37857 0
M  V30 454 C 45.591 -1.51957 1.33243 0
M  V30 455 C 45.912 -1.94835 -0.0801709 0
M  V30 456 O 45.182 -1.66894 -1.02582 0
M  V30 457 H 43.762 -0.563626 0.49024 0
M  V30 458 H 46.424 -0.908504 1.7243 0
M  V30 459 H 45.52 -2.41523 1.97669 0
M  V30 460 N 45.8211 -1.22559 -0.990812 0
M  V30 461 C 47.0461 -1.07862 -1.77145 0
M  V30 462 C 47.4711 0.366447 -1.84496 0
M  V30 463 O 46.8291 1.26478 -1.29896 0
M  V30 464 C 46.8771 -1.69686 -3.18181 0
M  V30 465 O 45.9811 -0.951946 -4.01263 0
M  V30 466 H 45.3221 -0.378712 -0.545411 0
M  V30 467 H 47.8521 -1.62399 -1.2445 0
M  V30 468 H 47.8621 -1.74496 -3.68802 0
M  V30 469 H 46.5371 -2.74841 -3.12146 0
M  V30 470 H 45.1141 -0.980011 -3.59792 0
M  V30 471 N 47.2992 1.18797 -1.03562 0
M  V30 472 C 48.7102 1.70322 -0.764676 0
M  V30 473 C 49.0612 1.82708 0.714996 0
M  V30 474 O 48.1862 1.50299 1.55689 0
M  V30 475 C 48.7812 3.09356 -1.38145 0
M  V30 476 C 47.3402 3.58114 -1.15895 0
M  V30 477 C 46.4872 2.34798 -1.4753 0
M  V30 478 H 49.4382 1.03543 -1.20268 0
M  V30 479 H 49.4592 3.72378 -0.781977 0
M  V30 480 H 48.9712 3.00309 -2.45837 0
M  V30 481 H 47.0722 3.72464 -0.100544 0
M  V30 482 H 47.1852 4.4184 -1.8524 0
M  V30 483 H 45.5492 2.38464 -0.894829 0
M  V30 484 H 46.3322 2.28375 -2.56319 0
M  V30 485 N 48.7773 0.814389 1.34928 0
M  V30 486 C 49.7403 0.235759 2.27984 0
M  V30 487 C 50.7403 -0.581412 1.49921 0
M  V30 488 O 51.9303 -0.398758 1.69575 0
M  V30 489 C 49.0623 -0.670433 3.34242 0
M  V30 490 H 50.2553 1.05659 2.80671 0
M  V30 491 H 47.8083 0.585614 1.44915 0
M  V30 492 H 48.5433 -1.51466 2.86755 0
M  V30 493 H 48.3283 -0.0860822 3.92005 0
M  V30 494 H 49.8183 -1.06935 4.03676 0
M  V30 495 N 50.2554 -1.46986 0.568584 0
M  V30 496 C 51.1654 -2.33942 -0.17555 0
M  V30 497 C 52.1814 -1.48891 -0.90041 0
M  V30 498 O 53.3574 -1.81794 -0.86676 0
M  V30 499 C 50.4224 -3.25811 -1.18524 0
M  V30 500 C 49.4834 -4.26757 -0.466582 0
M  V30 501 C 48.7164 -5.14236 -1.42817 0
M  V30 502 O 48.9394 -5.04379 -2.66379 0
M  V30 503 O 47.8734 -5.94412 -0.946453 0
M  V30 504 H 51.6994 -2.98896 0.538036 0
M  V30 505 H 49.2844 -1.4573 0.329097 0
M  V30 506 H 51.1664 -3.82527 -1.76779 0
M  V30 507 H 49.8414 -2.63471 -1.88055 0
M  V30 508 H 48.7484 -3.73769 0.157451 0
M  V30 509 H 50.0814 -4.91843 0.187485 0
M  V30 510 N 51.7335 -0.305618 -1.54608 0
M  V30 511 C 52.9615 0.304775 -2.04643 0
M  V30 512 C 53.3765 1.47167 -1.18268 0
M  V30 513 O 52.7335 1.81296 -0.209328 0
M  V30 514 C 52.7845 0.756564 -3.53495 0
M  V30 515 O 52.5055 -0.36389 -4.36586 0
M  V30 516 C 54.0065 1.43163 -4.19546 0
M  V30 517 H 51.2265 0.0655481 -0.667791 0
M  V30 518 H 53.7705 -0.446592 -1.99564 0
M  V30 519 H 51.9255 1.45794 -3.58919 0
M  V30 520 H 52.3395 -0.0113121 -5.24499 0
M  V30 521 H 53.8135 1.69886 -5.25207 0
M  V30 522 H 54.2905 2.37318 -3.69563 0
M  V30 523 H 54.8965 0.773307 -4.18211 0
M  V30 524 N 53.2116 1.57565 -0.0334293 0
M  V30 525 C 54.1746 2.09393 0.932048 0
M  V30 526 C 55.1746 1.00986 1.25134 0
M  V30 527 O 56.3646 1.27129 1.19096 0
M  V30 528 C 53.4966 2.56338 2.2473 0
M  V30 529 H 54.6896 2.95984 0.483085 0
M  V30 530 H 52.2426 1.54819 0.21468 0
M  V30 531 H 52.9776 1.7309 2.74245 0
M  V30 532 H 52.7626 3.35542 2.02865 0
M  V30 533 H 54.2526 2.96646 2.93923 0
M  V30 534 N 54.6897 -0.239769 1.55765 0
M  V30 535 C 55.9367 -0.966801 1.7793 0
M  V30 536 C 56.2647 -1.85046 0.599015 0
M  V30 537 O 55.5197 -1.91197 -0.417395 0
M  V30 538 C 55.8187 -1.852 3.05672 0
M  V30 539 C 55.4847 -1.1231 4.36689 0
M  V30 540 C 54.1467 -0.921689 4.72291 0
M  V30 541 C 56.4987 -0.607019 5.17653 0
M  V30 542 C 53.8267 -0.191996 5.86386 0
M  V30 543 C 56.1787 0.109241 6.32506 0
M  V30 544 C 54.8427 0.322073 6.66723 0
M  V30 545 H 54.1127 -0.353778 0.651093 0
M  V30 546 H 56.7597 -0.23634 1.90036 0
M  V30 547 H 55.0647 -2.64975 2.8861 0
M  V30 548 H 56.7617 -2.41635 3.20021 0
M  V30 549 H 53.3517 -1.29004 4.08725 0
M  V30 550 H 57.5357 -0.750153 4.90598 0
M  V30 551 H 52.7917 -0.0166949 6.11398 0
M  V30 552 H 56.9657 0.516737 6.9448 0
M  V30 553 H 54.5927 0.88944 7.54979 0
M  V30 554 N 56.1678 -1.49265 -0.50573 0
M  V30 555 C 57.4078 -1.60128 -1.27038 0
M  V30 556 C 57.7718 -0.279557 -1.89954 0
M  V30 557 O 58.9728 -0.263329 -2.67507 0
M  V30 558 C 57.2438 -2.72507 -2.31246 0
M  V30 559 S 58.8028 -3.0329 -3.17113 0
M  V30 560 H 55.6208 -0.564863 -0.4318 0
M  V30 561 H 58.2228 -1.86902 -0.573397 0
M  V30 562 H 56.9268 -3.67068 -1.83546 0
M  V30 563 H 56.4578 -2.4771 -3.05619 0
M  V30 564 H 58.4728 -2.44448 -4.31809 0
M  V30 565 N 57.6459 0.756429 -1.3826 0
M  V30 566 C 58.5939 1.89149 -1.35372 0
M  V30 567 C 59.5879 1.67691 -0.24004 0
M  V30 568 O 60.7939 1.75294 -0.408919 0
M  V30 569 H 57.1689 0.622271 -0.422236 0
M  V30 570 H 59.1399 1.88701 -2.31159 0
M  V30 571 C 57.8889 3.26599 -1.19284 0
M  V30 572 H 57.2119 3.43695 -2.0424 0
M  V30 573 H 58.6519 4.06274 -1.21316 0
M  V30 574 C 57.1109 3.3675 0.100454 0
M  V30 575 O 57.6409 3.86951 1.07851 0
M  V30 576 N 55.8469 2.90179 0.15633 0
M  V30 577 H 55.3939 2.49517 -0.640253 0
M  V30 578 H 55.3519 2.97352 1.02123 0
M  V30 579 N 59.124 1.23083 0.984299 0
M  V30 580 C 60.372 1.05848 1.72165 0
M  V30 581 C 60.693 -0.406049 1.90726 0
M  V30 582 O 59.963 -1.29139 1.47309 0
M  V30 583 H 58.543 0.388685 0.637913 0
M  V30 584 H 61.205 1.54736 1.18503 0
M  V30 585 H 60.301 1.54327 2.71274 0
M  V30 586 N 60.6021 -1.18246 1.0419 0
M  V30 587 C 61.5321 -2.24127 0.654914 0
M  V30 588 C 62.5131 -1.66617 -0.342451 0
M  V30 589 O 63.6981 -1.92924 -0.222277 0
M  V30 590 C 60.8281 -3.47295 0.0183757 0
M  V30 591 C 59.7821 -4.17563 0.939414 0
M  V30 592 C 59.1081 -5.34438 0.167286 0
M  V30 593 C 60.4081 -4.70917 2.25908 0
M  V30 594 H 62.1021 -2.56753 1.54007 0
M  V30 595 H 59.6481 -1.23414 0.74195 0
M  V30 596 H 61.6011 -4.20572 -0.264082 0
M  V30 597 H 60.3251 -3.13907 -0.901664 0
M  V30 598 H 58.9841 -3.46186 1.20628 0
M  V30 599 H 58.6321 -4.97298 -0.7552 0
M  V30 600 H 58.3321 -5.82388 0.780901 0
M  V30 601 H 59.8561 -6.10504 -0.108125 0
M  V30 602 H 61.2701 -5.35882 2.03724 0
M  V30 603 H 59.6671 -5.29406 2.82577 0
M  V30 604 H 60.7371 -3.88272 2.9047 0
M  V30 605 N 62.0802 -0.821533 -1.34494 0
M  V30 606 C 63.3262 -0.409552 -1.98622 0
M  V30 607 C 63.6592 1.0244 -1.64984 0
M  V30 608 O 62.9342 1.71325 -0.920758 0
M  V30 609 C 63.2172 -0.610458 -3.54888 0
M  V30 610 C 63.0702 -2.09043 -3.98273 0
M  V30 611 C 64.3892 -0.0455379 -4.40076 0
M  V30 612 H 61.5082 -0.15028 -0.721516 0
M  V30 613 H 64.1502 -1.03384 -1.59411 0
M  V30 614 H 62.3002 -0.079044 -3.8842 0
M  V30 615 H 63.9722 -2.68537 -3.75081 0
M  V30 616 H 62.2152 -2.58139 -3.48635 0
M  V30 617 H 62.8862 -2.18182 -5.07051 0
M  V30 618 H 65.3622 -0.499557 -4.1309 0
M  V30 619 H 64.2382 -0.215922 -5.48475 0
M  V30 620 H 64.4992 1.04939 -4.29465 0
M  V30 621 N 63.5583 1.46682 -0.576371 0
M  V30 622 C 64.5063 2.31953 0.17335 0
M  V30 623 C 65.5003 1.44098 0.89062 0
M  V30 624 O 66.7063 1.60759 0.809728 0
M  V30 625 H 63.0813 0.748273 0.0747727 0
M  V30 626 H 65.0523 2.93007 -0.564738 0
M  V30 627 C 63.8013 3.27142 1.17786 0
M  V30 628 H 63.1243 3.94719 0.635361 0
M  V30 629 H 64.5643 3.896 1.67296 0
M  V30 630 C 63.0233 2.52036 2.23561 0
M  V30 631 O 63.5533 2.27877 3.3081 0
M  V30 632 N 61.7593 2.12709 1.97998 0
M  V30 633 H 61.3063 2.32557 1.10792 0
M  V30 634 H 61.2643 1.62776 2.68982 0
M  V30 635 N 65.0364 0.313813 1.54444 0
M  V30 636 C 65.9844 -0.572171 2.25453 0
M  V30 637 C 66.9784 -1.12657 1.2651 0
M  V30 638 O 68.1844 -1.07573 1.44319 0
M  V30 639 H 64.5594 -0.203146 0.724041 0
M  V30 640 H 66.5304 0.0491145 2.9836 0
M  V30 641 C 65.2794 -1.72626 3.0182 0
M  V30 642 H 64.6024 -1.30891 3.77767 0
M  V30 643 H 66.0424 -2.32199 3.54767 0
M  V30 644 C 64.5014 -2.63806 2.09542 0
M  V30 645 O 65.0314 -3.65256 1.67185 0
M  V30 646 N 63.2374 -2.31824 1.75232 0
M  V30 647 H 62.7844 -1.49368 2.09873 0
M  V30 648 H 62.7424 -2.93095 1.13767 0
M  V30 649 N 66.5145 -1.57545 0.0417849 0
M  V30 650 C 67.4615 -2.10977 -0.935805 0
M  V30 651 C 68.4315 -1.01486 -1.31491 0
M  V30 652 O 69.6165 -1.2898 -1.40602 0
M  V30 653 C 66.7565 -2.65169 -2.2086 0
M  V30 654 C 65.8695 -3.88714 -1.88482 0
M  V30 655 C 65.0045 -4.31254 -3.1015 0
M  V30 656 C 64.0435 -5.47524 -2.7365 0
M  V30 657 N 63.1805 -5.85162 -3.87982 0
M  V30 658 H 68.0205 -2.94218 -0.473249 0
M  V30 659 H 65.5575 -1.45415 -0.221981 0
M  V30 660 H 67.5155 -2.94685 -2.95325 0
M  V30 661 H 66.1455 -1.8474 -2.64709 0
M  V30 662 H 65.1975 -3.65849 -1.04205 0
M  V30 663 H 66.5095 -4.73245 -1.57608 0
M  V30 664 H 65.6635 -4.62273 -3.92923 0
M  V30 665 H 64.4025 -3.45516 -3.44195 0
M  V30 666 H 63.4075 -5.16187 -1.89291 0
M  V30 667 H 64.6325 -6.34971 -2.40807 0
M  V30 668 H 62.5785 -5.02377 -4.21846 0
M  V30 669 H 62.4955 -6.64362 -3.60775 0
M  V30 670 H 63.7635 -6.20791 -4.71422 0
M  V30 671 N 67.9926 0.231505 -1.5589 0
M  V30 672 C 68.9426 1.29007 -1.87993 0
M  V30 673 C 69.9266 1.42764 -0.742102 0
M  V30 674 O 71.1186 1.45747 -1.00433 0
M  V30 675 C 68.2476 2.6425 -2.1915 0
M  V30 676 C 67.3336 2.54435 -3.39299 0
M  V30 677 N 67.7246 2.14262 -4.58176 0
M  V30 678 C 66.0226 2.85416 -3.42715 0
M  V30 679 C 66.7236 2.15455 -5.40328 0
M  V30 680 N 65.6996 2.55558 -4.79783 0
M  V30 681 H 69.5016 0.970213 -2.77424 0
M  V30 682 H 67.0156 0.440097 -1.56323 0
M  V30 683 H 69.0126 3.40665 -2.40319 0
M  V30 684 H 67.6726 2.9709 -1.31025 0
M  V30 685 H 68.6836 1.85554 -4.83518 0
M  V30 686 H 65.3606 3.22693 -2.64906 0
M  V30 687 H 66.7506 1.86605 -6.45467 0
M  V30 688 N 69.4707 1.49531 0.497807 0
M  V30 689 C 70.7187 1.58865 1.24926 0
M  V30 690 C 71.0397 0.278721 1.92998 0
M  V30 691 O 70.3097 -0.702144 1.82885 0
M  V30 692 H 68.8897 0.585343 0.464094 0
M  V30 693 H 71.5517 1.86174 0.57666 0
M  V30 694 H 70.6477 2.38633 2.01149 0
M  V30 695 N 70.9488 -0.749086 1.3866 0
M  V30 696 C 72.1958 -1.50833 1.35114 0
M  V30 697 C 72.5238 -1.94415 -0.0574049 0
M  V30 698 O 71.7788 -1.66065 -1.03541 0
M  V30 699 C 72.0778 -2.7712 2.25697 0
M  V30 700 C 71.7438 -2.52477 3.73585 0
M  V30 701 C 70.4058 -2.45466 4.13884 0
M  V30 702 C 72.7578 -2.31066 4.67181 0
M  V30 703 C 70.0858 -2.15064 5.45861 0
M  V30 704 C 72.4378 -2.02183 5.9942 0
M  V30 705 C 71.1018 -1.93631 6.38798 0
M  V30 706 H 70.3718 -0.551936 0.494416 0
M  V30 707 H 73.0188 -0.860979 1.71054 0
M  V30 708 H 71.3238 -3.46528 1.82827 0
M  V30 709 H 73.0208 -3.35096 2.20254 0
M  V30 710 H 69.6108 -2.58807 3.41638 0
M  V30 711 H 73.7948 -2.35459 4.3689 0
M  V30 712 H 69.0508 -2.06954 5.75308 0
M  V30 713 H 73.2248 -1.8462 6.71482 0
M  V30 714 H 70.8518 -1.69839 7.40985 0
M  V30 715 N 72.4269 -1.23603 -0.977757 0
M  V30 716 C 73.6549 -1.09646 -1.75458 0
M  V30 717 C 74.0699 0.351859 -1.85492 0
M  V30 718 O 73.4269 1.24327 -1.336 0
M  V30 719 C 73.4779 -1.71895 -3.18016 0
M  V30 720 O 73.1989 -3.11063 -3.08498 0
M  V30 721 C 74.6999 -1.63415 -4.12081 0
M  V30 722 H 71.9199 -0.38359 -0.550545 0
M  V30 723 H 74.4639 -1.63507 -1.22824 0
M  V30 724 H 72.6189 -1.22061 -3.67668 0
M  V30 725 H 73.0329 -3.41305 -3.9826 0
M  V30 726 H 74.5069 -2.11669 -5.09804 0
M  V30 727 H 74.9839 -0.593462 -4.35172 0
M  V30 728 H 75.5899 -2.12628 -3.68334 0
M  V30 729 N 73.905 1.17692 -1.04816 0
M  V30 730 C 75.13 1.92327 -0.776207 0
M  V30 731 C 75.555 1.76082 0.661581 0
M  V30 732 O 74.913 1.076 1.45917 0
M  V30 733 C 74.961 3.41539 -1.15687 0
M  V30 734 O 74.065 4.11402 -0.286775 0
M  V30 735 H 73.406 0.599735 -0.284981 0
M  V30 736 H 75.936 1.49201 -1.4 0
M  V30 737 H 75.946 3.92269 -1.12202 0
M  V30 738 H 74.621 3.52684 -2.20425 0
M  V30 739 H 73.198 3.70939 -0.381903 0
M  V30 740 N 75.3831 0.828654 1.34056 0
M  V30 741 C 76.3131 0.269443 2.3194 0
M  V30 742 C 77.2941 -0.617247 1.58506 0
M  V30 743 O 78.4791 -0.542931 1.86456 0
M  V30 744 C 75.6091 -0.564793 3.42677 0
M  V30 745 C 74.5631 0.225241 4.27407 0
M  V30 746 C 73.8891 -0.7321 5.29664 0
M  V30 747 C 75.1891 1.43663 5.02154 0
M  V30 748 H 76.8831 1.08728 2.7896 0
M  V30 749 H 74.4291 0.524283 1.34117 0
M  V30 750 H 76.3821 -0.966233 4.10173 0
M  V30 751 H 75.1061 -1.41574 2.9432 0
M  V30 752 H 73.7651 0.608117 3.61521 0
M  V30 753 H 73.4131 -1.57916 4.77568 0
M  V30 754 H 73.1131 -0.20767 5.87233 0
M  V30 755 H 74.6371 -1.13128 6.00029 0
M  V30 756 H 76.0511 1.1089 5.62473 0
M  V30 757 H 74.4481 1.89711 5.69324 0
M  V30 758 H 75.5181 2.21181 4.31517 0
M  V30 759 N 76.8612 -1.46375 0.584142 0
M  V30 760 C 77.7912 -2.33103 -0.136037 0
M  V30 761 C 78.7722 -1.45431 -0.882255 0
M  V30 762 O 79.9572 -1.74246 -0.857434 0
M  V30 763 C 77.0872 -3.27731 -1.14933 0
M  V30 764 C 76.0412 -4.24855 -0.517862 0
M  V30 765 C 75.3672 -5.09001 -1.63773 0
M  V30 766 C 76.6672 -5.19439 0.545886 0
M  V30 767 H 78.3612 -2.93568 0.588086 0
M  V30 768 H 75.9072 -1.41166 0.284259 0
M  V30 769 H 77.8602 -3.87261 -1.66153 0
M  V30 770 H 76.5842 -2.65377 -1.90375 0
M  V30 771 H 75.2432 -3.6659 -0.0267361 0
M  V30 772 H 74.8912 -4.43031 -2.38185 0
M  V30 773 H 74.5912 -5.74777 -1.22085 0
M  V30 774 H 76.1152 -5.71396 -2.15266 0
M  V30 775 H 77.5292 -5.73177 0.118704 0
M  V30 776 H 75.9262 -5.93566 0.88317 0
M  V30 777 H 76.9962 -4.63285 1.43162 0
M  V30 778 N 78.3393 -0.321999 -1.54275 0
M  V30 779 C 79.3023 0.531975 -2.22941 0
M  V30 780 C 80.3023 1.04478 -1.22234 0
M  V30 781 O 81.4923 0.937452 -1.46825 0
M  V30 782 C 78.6243 1.73874 -2.93224 0
M  V30 783 H 79.8173 -0.0682612 -2.99822 0
M  V30 784 H 77.3703 -0.0730644 -1.56129 0
M  V30 785 H 78.1053 2.37825 -2.20476 0
M  V30 786 H 77.8903 1.37847 -3.6707 0
M  V30 787 H 79.3803 2.34496 -3.45545 0
M  V30 788 N 79.8174 1.5752 -0.0501392 0
M  V30 789 C 81.0634 1.92936 0.624798 0
M  V30 790 C 81.3964 0.928685 1.70555 0
M  V30 791 O 80.6714 -0.0454779 1.94447 0
M  V30 792 C 80.9544 3.38737 1.22185 0
M  V30 793 C 80.8074 4.49552 0.149218 0
M  V30 794 C 82.1264 3.84913 2.13378 0
M  V30 795 H 79.2454 0.701604 0.225657 0
M  V30 796 H 81.8874 1.89671 -0.111693 0
M  V30 797 H 80.0374 3.4165 1.84953 0
M  V30 798 H 81.7094 4.58768 -0.482648 0
M  V30 799 H 79.9524 4.30638 -0.522841 0
M  V30 800 H 80.6234 5.48653 0.606966 0
M  V30 801 H 83.0994 3.8387 1.60572 0
M  V30 802 H 81.9754 4.87584 2.52097 0
M  V30 803 H 82.2364 3.21611 3.03346 0
M  V30 804 N 81.2955 -0.223234 1.56011 0
M  V30 805 C 82.5445 -0.945912 1.78144 0
M  V30 806 C 82.8575 -1.85567 0.618396 0
M  V30 807 O 84.0635 -2.61688 0.723318 0
M  V30 808 C 82.5195 -1.73216 3.15475 0
M  V30 809 C 82.1275 -0.868619 4.39499 0
M  V30 810 C 83.8715 -2.44615 3.46935 0
M  V30 811 C 81.7785 -1.65212 5.67855 0
M  V30 812 H 80.7085 -0.356929 0.664167 0
M  V30 813 H 83.3595 -0.199845 1.82409 0
M  V30 814 H 81.7415 -2.52107 3.05382 0
M  V30 815 H 82.9155 -0.120366 4.60643 0
M  V30 816 H 81.2305 -0.26683 4.15544 0
M  V30 817 H 83.8275 -3.03732 4.40058 0
M  V30 818 H 84.1705 -3.17417 2.69355 0
M  V30 819 H 84.7035 -1.72715 3.58349 0
M  V30 820 H 81.4425 -0.967407 6.48322 0
M  V30 821 H 80.9625 -2.37503 5.50774 0
M  V30 822 H 82.6415 -2.21322 6.07968 0
M  V30 823 N 82.7736 -1.49793 -0.48987 0
M  V30 824 C 83.7366 -1.66752 -1.57246 0
M  V30 825 C 84.7366 -0.538867 -1.51502 0
M  V30 826 O 85.9266 -0.805545 -1.54456 0
M  V30 827 C 83.0586 -1.67528 -2.96896 0
M  V30 828 H 84.2516 -2.63321 -1.43534 0
M  V30 829 H 81.8046 -1.38992 -0.714914 0
M  V30 830 H 82.5396 -0.725837 -3.16073 0
M  V30 831 H 82.3246 -2.49504 -3.02473 0
M  V30 832 H 83.8146 -1.82667 -3.7553 0
M  V30 833 N 84.2517 0.741722 -1.39055 0
M  V30 834 C 85.6627 1.31966 -1.32068 0
M  V30 835 C 86.0137 1.96192 0.0180797 0
M  V30 836 O 85.1387 1.95861 0.920196 0
M  V30 837 C 85.7337 2.39954 -2.39181 0
M  V30 838 C 84.2927 2.93438 -2.35735 0
M  V30 839 C 83.4397 1.66936 -2.21422 0
M  V30 840 H 86.3907 0.539721 -1.4924 0
M  V30 841 H 86.4117 3.20182 -2.05581 0
M  V30 842 H 85.9237 1.9318 -3.36605 0
M  V30 843 H 84.0247 3.4451 -1.41929 0
M  V30 844 H 84.1377 3.4701 -3.30335 0
M  V30 845 H 82.5017 1.91016 -1.68478 0
M  V30 846 H 83.2847 1.22224 -3.20806 0
M  V30 847 N 85.7298 1.2412 0.971189 0
M  V30 848 C 86.6778 1.02812 2.08644 0
M  V30 849 C 87.6718 -0.0358403 1.69362 0
M  V30 850 O 88.8778 0.118429 1.7961 0
M  V30 851 H 85.2528 0.315428 0.682649 0
M  V30 852 H 87.2238 1.97397 2.23779 0
M  V30 853 C 85.9728 0.645874 3.41649 0
M  V30 854 H 85.2958 1.45632 3.72332 0
M  V30 855 H 86.7358 0.536366 4.20594 0
M  V30 856 C 85.1948 -0.646713 3.30635 0
M  V30 857 O 85.7248 -1.69338 3.64263 0
M  V30 858 N 83.9308 -0.626115 2.83775 0
M  V30 859 H 83.4778 0.225988 2.56607 0
M  V30 860 H 83.4358 -1.49117 2.76788 0
M  V30 861 N 87.2079 -1.17134 1.05439 0
M  V30 862 C 88.1379 -2.2342 0.678649 0
M  V30 863 C 89.1189 -1.66971 -0.32476 0
M  V30 864 O 90.3039 -1.93149 -0.201802 0
M  V30 865 C 87.4339 -3.47256 0.0552099 0
M  V30 866 C 86.3879 -4.16543 0.98365 0
M  V30 867 C 85.7139 -5.34231 0.223961 0
M  V30 868 C 87.0139 -4.68495 2.3089 0
M  V30 869 H 88.7079 -2.55105 1.56722 0
M  V30 870 H 86.2539 -1.2262 0.754998 0
M  V30 871 H 88.2069 -4.20828 -0.21946 0
M  V30 872 H 86.9309 -3.14846 -0.868319 0
M  V30 873 H 85.5899 -3.44887 1.24293 0
M  V30 874 H 85.2379 -4.98071 -0.702412 0
M  V30 875 H 84.9379 -5.81527 0.842627 0
M  V30 876 H 86.4619 -6.10585 -0.0433671 0
M  V30 877 H 87.8759 -5.33691 2.09396 0
M  V30 878 H 86.2729 -5.26379 2.88176 0
M  V30 879 H 87.3429 -3.85169 2.94572 0
M  V30 880 N 88.686 -0.835752 -1.33615 0
M  V30 881 C 90.097 -0.487099 -1.80234 0
M  V30 882 C 90.448 0.993627 -1.69179 0
M  V30 883 O 89.573 1.77403 -1.23924 0
M  V30 884 C 90.168 -0.877385 -3.27242 0
M  V30 885 C 88.727 -0.580915 -3.7189 0
M  V30 886 C 87.874 -1.0874 -2.5509 0
M  V30 887 H 90.825 -1.02474 -1.2118 0
M  V30 888 H 90.846 -0.186195 -3.80044 0
M  V30 889 H 90.358 -1.95512 -3.35256 0
M  V30 890 H 88.459 0.486881 -3.69405 0
M  V30 891 H 88.572 -1.13396 -4.65487 0
M  V30 892 H 86.936 -0.508392 -2.49575 0
M  V30 893 H 87.719 -2.17184 -2.65868 0
M  V30 894 N 90.1641 1.46063 -0.591896 0
M  V30 895 C 91.4041 2.04228 -0.0838014 0
M  V30 896 C 91.7681 1.45231 1.25587 0
M  V30 897 O 92.9691 1.94653 1.85375 0
M  V30 898 C 91.2401 3.57389 -0.0286282 0
M  V30 899 S 92.7991 4.3678 0.420557 0
M  V30 900 H 89.6171 0.709762 -0.0419319 0
M  V30 901 H 92.2191 1.78983 -0.786465 0
M  V30 902 H 90.9231 3.97843 -1.00743 0
M  V30 903 H 90.4541 3.87185 0.69652 0
M  V30 904 H 92.4691 4.67131 1.67341 0
M  V30 905 N 91.6422 0.330177 1.54103 0
M  V30 906 C 92.5892 -0.532762 2.24567 0
M  V30 907 C 93.5592 -1.10635 1.23892 0
M  V30 908 O 94.7442 -1.14546 1.5259 0
M  V30 909 C 91.8842 -1.6845 3.01195 0
M  V30 910 C 90.9972 -1.13951 4.167 0
M  V30 911 C 90.1322 -2.25746 4.80845 0
M  V30 912 C 89.1712 -1.6853 5.88442 0
M  V30 913 N 88.3082 -2.74014 6.46421 0
M  V30 914 H 93.1482 0.0746905 2.97906 0
M  V30 915 H 90.6852 0.048632 1.4702 0
M  V30 916 H 92.6432 -2.36234 3.43874 0
M  V30 917 H 91.2732 -2.26314 2.30178 0
M  V30 918 H 90.3252 -0.35301 3.78758 0
M  V30 919 H 91.6372 -0.680892 4.94131 0
M  V30 920 H 90.7912 -3.01422 5.26526 0
M  V30 921 H 89.5302 -2.74947 4.0281 0
M  V30 922 H 88.5352 -0.913543 5.42157 0
M  V30 923 H 89.7602 -1.20198 6.68378 0
M  V30 924 H 87.7062 -3.22494 5.71256 0
M  V30 925 H 87.6232 -2.32735 7.19285 0
M  V30 926 H 88.8912 -3.49499 6.96757 0
M  V30 927 N 93.1203 -1.57491 0.0584922 0
M  V30 928 C 94.5313 -1.80526 -0.476138 0
M  V30 929 C 94.8823 -0.971334 -1.70469 0
M  V30 930 O 94.0073 -0.190012 -2.15564 0
M  V30 931 C 94.6023 -3.27424 -0.870587 0
M  V30 932 C 93.1613 -3.51351 -1.35015 0
M  V30 933 C 92.3083 -2.75343 -0.32887 0
M  V30 934 H 95.2593 -1.56133 0.284312 0
M  V30 935 H 95.2803 -3.38745 -1.73299 0
M  V30 936 H 94.7923 -3.88093 0.0237627 0
M  V30 937 H 92.8933 -2.95971 -2.26345 0
M  V30 938 H 93.0063 -4.60059 -1.33726 0
M  V30 939 H 91.3703 -2.417 -0.803321 0
M  V30 940 H 92.1533 -3.38743 0.557521 0
M  V30 941 N 94.5984 0.214957 -1.56127 0
M  V30 942 C 95.5464 1.28601 -1.93816 0
M  V30 943 C 96.5404 1.48175 -0.821016 0
M  V30 944 O 97.7464 1.49271 -1.0059 0
M  V30 945 H 94.1214 0.431302 -0.616022 0
M  V30 946 H 96.0924 0.940991 -2.83175 0
M  V30 947 C 94.8414 2.62779 -2.27689 0
M  V30 948 H 94.1644 2.48527 -3.13168 0
M  V30 949 H 95.6044 3.36517 -2.57939 0
M  V30 950 C 94.0634 3.18285 -1.10436 0
M  V30 951 O 94.5934 4.00002 -0.368945 0
M  V30 952 N 92.7994 2.7675 -0.886433 0
M  V30 953 H 92.3464 2.10404 -1.48619 0
M  V30 954 H 92.3044 3.14229 -0.103656 0
M  V30 955 N 96.0765 1.50051 0.48192 0
M  V30 956 C 97.3045 1.64237 1.25832 0
M  V30 957 C 97.7195 0.321336 1.86045 0
M  V30 958 O 97.0765 -0.695478 1.68729 0
M  V30 959 C 97.1275 2.72548 2.37487 0
M  V30 960 O 96.8485 3.99529 1.79745 0
M  V30 961 C 98.3495 2.9761 3.28547 0
M  V30 962 H 95.5695 0.55237 0.380957 0
M  V30 963 H 98.1135 1.96207 0.576467 0
M  V30 964 H 96.2685 2.43303 3.01467 0
M  V30 965 H 96.6825 4.59342 2.5319 0
M  V30 966 H 98.1565 3.77084 4.03127 0
M  V30 967 H 98.6335 2.0826 3.86684 0
M  V30 968 H 99.2395 3.28345 2.70314 0
M  V30 969 N 97.5546 -0.734337 1.39446 0
M  V30 970 C 98.4846 -1.86155 1.40955 0
M  V30 971 C 99.4656 -1.67898 0.272827 0
M  V30 972 O 100.651 -1.88207 0.478743 0
M  V30 973 C 97.7806 -3.23912 1.25294 0
M  V30 974 C 96.7346 -3.56808 2.36373 0
M  V30 975 C 96.0606 -4.93508 2.058 0
M  V30 976 C 97.3606 -3.59713 3.78687 0
M  V30 977 H 99.0546 -1.8515 2.35287 0
M  V30 978 H 96.6006 -0.889367 1.13253 0
M  V30 979 H 98.5536 -4.02443 1.2497 0
M  V30 980 H 97.2776 -3.25446 0.274308 0
M  V30 981 H 95.9366 -2.80606 2.35914 0
M  V30 982 H 95.5846 -4.91623 1.06374 0
M  V30 983 H 95.2846 -5.16486 2.80208 0
M  V30 984 H 96.8086 -5.74396 2.07128 0
M  V30 985 H 98.2226 -4.2832 3.81071 0
M  V30 986 H 96.6196 -3.94209 4.52459 0
M  V30 987 H 97.6896 -2.59504 4.09617 0
M  V30 988 N 99.0327 -1.24633 -0.964593 0
M  V30 989 C 99.9657 -0.984662 -2.05863 0
M  V30 990 C 100.944 0.0826554 -1.6239 0
M  V30 991 O 102.128 -0.0549296 -1.8842 0
M  V30 992 C 99.2547 -0.486529 -3.35187 0
M  V30 993 C 98.3007 -1.54286 -3.97615 0
M  V30 994 S 99.1337 -3.12513 -4.34851 0
M  V30 995 C 100.29 -2.6441 -5.67308 0
M  V30 996 H 100.523 -1.91104 -2.27743 0
M  V30 997 H 98.0557 -1.08052 -1.10291 0
M  V30 998 H 100.014 -0.205757 -4.09984 0
M  V30 999 H 98.6747 0.419186 -3.1129 0
M  V30 1000 H 97.8677 -1.14481 -4.90826 0
M  V30 1001 H 97.4697 -1.7738 -3.2926 0
M  V30 1002 H 99.7617 -2.07416 -6.44969 0
M  V30 1003 H 100.705 -3.56222 -6.11973 0
M  V30 1004 H 101.113 -2.04734 -5.26065 0
M  V30 1005 N 100.511 1.16574 -1.06058 0
M  V30 1006 C 101.758 1.87047 -0.775873 0
M  V30 1007 C 102.086 1.81562 0.697534 0
M  V30 1008 O 101.341 1.22445 1.52662 0
M  V30 1009 C 101.64 3.36195 -1.21275 0
M  V30 1010 C 101.306 3.6188 -2.68986 0
M  V30 1011 C 99.9678 3.68599 -3.09335 0
M  V30 1012 C 102.32 3.72648 -3.64394 0
M  V30 1013 C 99.6478 3.83584 -4.43937 0
M  V30 1014 C 102 3.89154 -4.98741 0
M  V30 1015 C 100.664 3.94114 -5.3873 0
M  V30 1016 H 99.9338 0.684452 -0.283912 0
M  V30 1017 H 102.581 1.37853 -1.32925 0
M  V30 1018 H 100.886 3.87505 -0.578528 0
M  V30 1019 H 102.583 3.89103 -0.969542 0
M  V30 1020 H 99.1728 3.57281 -2.36744 0
M  V30 1021 H 103.357 3.66769 -3.34356 0
M  V30 1022 H 98.6128 3.85677 -4.74409 0
M  V30 1023 H 102.787 3.96427 -5.72554 0
M  V30 1024 H 100.414 4.05478 -6.43033 0
M  V30 1025 N 101.989 0.842826 1.3317 0
M  V30 1026 C 102.937 0.267495 2.31057 0
M  V30 1027 C 103.931 -0.602682 1.58316 0
M  V30 1028 O 105.137 -0.491803 1.73151 0
M  V30 1029 H 101.512 0.0677813 0.748939 0
M  V30 1030 H 103.483 1.10754 2.77085 0
M  V30 1031 C 102.232 -0.539331 3.43492 0
M  V30 1032 H 101.555 0.12095 3.99617 0
M  V30 1033 H 102.995 -0.90767 4.14171 0
M  V30 1034 C 101.454 -1.71981 2.89697 0
M  V30 1035 O 101.984 -2.81862 2.86211 0
M  V30 1036 N 100.19 -1.54299 2.46252 0
M  V30 1037 H 99.7369 -0.649143 2.49287 0
M  V30 1038 H 99.6949 -2.33431 2.10612 0
M  V30 1039 N 103.467 -1.45747 0.599634 0
M  V30 1040 C 104.414 -2.30467 -0.123849 0
M  V30 1041 C 105.384 -1.41632 -0.86774 0
M  V30 1042 O 106.569 -1.70568 -0.855056 0
M  V30 1043 C 103.709 -3.26402 -1.12051 0
M  V30 1044 C 102.822 -4.3034 -0.37832 0
M  V30 1045 C 101.957 -5.13389 -1.364 0
M  V30 1046 C 100.996 -6.09061 -0.609171 0
M  V30 1047 N 100.133 -6.84918 -1.54374 0
M  V30 1048 H 104.973 -2.91802 0.604627 0
M  V30 1049 H 102.51 -1.43797 0.309972 0
M  V30 1050 H 104.468 -3.80482 -1.7114 0
M  V30 1051 H 103.098 -2.66839 -1.8165 0
M  V30 1052 H 102.15 -3.78984 0.327929 0
M  V30 1053 H 103.462 -4.98354 0.210997 0
M  V30 1054 H 102.616 -5.7183 -2.02719 0
M  V30 1055 H 101.355 -4.45376 -1.98725 0
M  V30 1056 H 100.36 -5.49758 0.0676979 0
M  V30 1057 H 101.585 -6.79099 0.00891991 0
M  V30 1058 H 99.531 -6.19601 -2.15478 0
M  V30 1059 H 99.448 -7.49254 -1.00766 0
M  V30 1060 H 100.716 -7.47906 -2.19676 0
M  V30 1061 N 104.945 -0.338344 -1.53925 0
M  V30 1062 C 106.191 0.260143 -2.01125 0
M  V30 1063 C 106.524 1.50617 -1.22589 0
M  V30 1064 O 105.799 1.91979 -0.312113 0
M  V30 1065 C 106.082 0.579499 -3.55407 0
M  V30 1066 C 105.935 -0.678264 -4.44657 0
M  V30 1067 C 107.254 1.39122 -4.17532 0
M  V30 1068 H 104.373 0.0930772 -0.731099 0
M  V30 1069 H 107.015 -0.457852 -1.84401 0
M  V30 1070 H 105.165 1.19118 -3.69788 0
M  V30 1071 H 106.837 -1.31631 -4.42121 0
M  V30 1072 H 105.08 -1.3042 -4.13731 0
M  V30 1073 H 105.751 -0.410143 -5.50474 0
M  V30 1074 H 108.227 0.874035 -4.06817 0
M  V30 1075 H 107.103 1.58342 -5.25565 0
M  V30 1076 H 107.364 2.39178 -3.71815 0
M  V30 1077 N 106.423 1.57458 -0.0668435 0
M  V30 1078 C 107.651 1.97624 0.612565 0
M  V30 1079 C 108.066 0.94502 1.63447 0
M  V30 1080 O 107.423 -0.0689276 1.8237 0
M  V30 1081 C 107.474 3.37869 1.28555 0
M  V30 1082 O 107.195 4.3704 0.304557 0
M  V30 1083 C 108.696 3.92882 2.05325 0
M  V30 1084 H 105.916 0.650045 0.166381 0
M  V30 1085 H 108.46 2.04035 -0.137782 0
M  V30 1086 H 106.615 3.3256 1.98702 0
M  V30 1087 H 107.029 5.18565 0.786779 0
M  V30 1088 H 108.503 4.93247 2.47812 0
M  V30 1089 H 108.98 3.29156 2.9078 0
M  V30 1090 H 109.586 4.01577 1.40056 0
M  V30 1091 N 107.901 -0.206675 1.56239 0
M  V30 1092 C 109.15 -0.926964 1.79138 0
M  V30 1093 C 109.463 -1.84901 0.638043 0
M  V30 1094 O 110.669 -2.60906 0.751033 0
M  V30 1095 C 109.125 -1.6986 3.17294 0
M  V30 1096 C 108.733 -0.821956 4.40395 0
M  V30 1097 C 110.477 -2.40922 3.4951 0
M  V30 1098 C 108.384 -1.59179 5.69575 0
M  V30 1099 H 107.314 -0.349864 0.667915 0
M  V30 1100 H 109.965 -0.180487 1.8261 0
M  V30 1101 H 108.347 -2.48853 3.08039 0
M  V30 1102 H 109.521 -0.0715019 4.60745 0
M  V30 1103 H 107.836 -0.222741 4.15804 0
M  V30 1104 H 110.433 -2.99047 4.43255 0
M  V30 1105 H 110.776 -3.14542 2.72707 0
M  V30 1106 H 111.309 -1.68905 3.60161 0
M  V30 1107 H 108.048 -0.898589 6.49312 0
M  V30 1108 H 107.568 -2.31648 5.53262 0
M  V30 1109 H 109.247 -2.14862 6.10281 0
M  V30 1110 N 109.379 -1.50304 -0.473955 0
M  V30 1111 C 110.327 -1.69482 -1.59307 0
M  V30 1112 C 111.321 -0.560669 -1.59853 0
M  V30 1113 O 112.527 -0.741087 -1.64036 0
M  V30 1114 H 108.902 -0.534892 -0.528578 0
M  V30 1115 H 110.873 -2.63364 -1.40293 0
M  V30 1116 C 109.622 -1.80354 -2.97267 0
M  V30 1117 H 108.945 -2.67012 -2.97564 0
M  V30 1118 H 110.385 -1.97798 -3.75036 0
M  V30 1119 C 108.844 -0.55448 -3.32306 0
M  V30 1120 O 109.374 0.307661 -4.0052 0
M  V30 1121 N 107.58 -0.409354 -2.87702 0
M  V30 1122 H 107.127 -1.11196 -2.32364 0
M  V30 1123 H 107.085 0.425223 -3.11511 0
M  V30 1124 N 110.857 0.726932 -1.39834 0
M  V30 1125 C 112.134 1.47902 -1.28001 0
M  V30 1126 C 112.514 2.1083 0.106789 0
M  V30 1127 O 111.862 1.99242 1.11869 0
M  V30 1128 C 112.072 2.52392 -2.41038 0
M  V30 1129 C 113.42 3.18546 -2.80737 0
M  V30 1130 O 114.444 2.62708 -2.40547 0
M  V30 1131 O 113.303 4.19604 -3.50135 0
M  V30 1132 H 110.397 0.657163 -0.502062 0
M  V30 1133 H 112.943 0.760071 -1.51727 0
M  V30 1134 H 111.715 2.04329 -3.33715 0
M  V30 1135 H 111.338 3.31837 -2.19021 0
M  V30 1136 N 112.336 1.25143 0.95797 0
M  V30 1137 C 113.299 1.05321 2.03569 0
M  V30 1138 C 114.299 0.007152 1.60798 0
M  V30 1139 O 115.489 0.24903 1.72411 0
M  V30 1140 C 112.621 0.598394 3.35607 0
M  V30 1141 H 113.814 2.00986 2.22586 0
M  V30 1142 H 111.367 1.07502 1.13459 0
M  V30 1143 H 112.102 -0.361014 3.22284 0
M  V30 1144 H 111.887 1.35351 3.67998 0
M  V30 1145 H 113.377 0.48104 4.1482 0
M  V30 1146 N 113.814 -1.1601 1.06675 0
M  V30 1147 C 115.23 -1.38622 0.790948 0
M  V30 1148 C 115.43 -1.92109 -0.607965 0
M  V30 1149 O 114.486 -2.12239 -1.36787 0
M  V30 1150 C 115.799 -2.36347 1.85905 0
M  V30 1151 C 117.347 -2.50023 1.88301 0
M  V30 1152 C 117.822 -3.51033 2.94176 0
M  V30 1153 N 119.313 -3.58563 2.93235 0
M  V30 1154 C 120.048 -4.36521 3.71803 0
M  V30 1155 N 119.544 -5.17869 4.602 0
M  V30 1156 N 121.337 -4.31541 3.60178 0
M  V30 1157 H 113.488 -0.796294 1.96908 0
M  V30 1158 H 115.751 -0.412597 0.853503 0
M  V30 1159 H 115.457 -2.04147 2.86386 0
M  V30 1160 H 115.331 -3.36042 1.71334 0
M  V30 1161 H 117.718 -2.81524 0.884769 0
M  V30 1162 H 117.799 -1.5035 2.06951 0
M  V30 1163 H 117.443 -3.20268 3.94196 0
M  V30 1164 H 117.373 -4.50445 2.72776 0
M  V30 1165 H 119.864 -3.00496 2.29152 0
M  V30 1166 H 120.177 -5.74578 5.16797 0
M  V30 1167 H 118.522 -5.17199 4.64253 0
M  V30 1168 H 121.713 -3.67051 2.90502 0
M  V30 1169 H 121.886 -4.9205 4.21653 0
M  V30 1170 N 115.292 -0.849877 -1.32721 0
M  V30 1171 C 116.224 -0.248332 -2.27851 0
M  V30 1172 C 117.237 0.577218 -1.52224 0
M  V30 1173 O 118.426 0.402489 -1.73903 0
M  V30 1174 C 115.526 0.668107 -3.32249 0
M  V30 1175 C 114.699 -0.120534 -4.37234 0
M  V30 1176 C 113.758 0.720932 -5.21238 0
M  V30 1177 O 112.784 0.156166 -5.68986 0
M  V30 1178 N 113.986 2.03647 -5.43607 0
M  V30 1179 H 116.751 -1.06575 -2.80111 0
M  V30 1180 H 114.312 -0.709395 -1.45531 0
M  V30 1181 H 116.304 1.23627 -3.85355 0
M  V30 1182 H 114.874 1.38621 -2.80184 0
M  V30 1183 H 114.094 -0.870108 -3.84477 0
M  V30 1184 H 115.382 -0.662406 -5.0447 0
M  V30 1185 H 114.78 2.51871 -5.06535 0
M  V30 1186 H 113.337 2.55287 -5.99727 0
M  V30 1187 N 116.77 1.45427 -0.607355 0
M  V30 1188 C 117.733 2.28974 0.101693 0
M  V30 1189 C 118.733 1.39754 0.795329 0
M  V30 1190 O 119.923 1.61878 0.643527 0
M  V30 1191 C 117.055 3.20768 1.15414 0
M  V30 1192 H 118.248 2.93147 -0.632844 0
M  V30 1193 H 115.801 1.51945 -0.366391 0
M  V30 1194 H 116.536 2.61395 1.91945 0
M  V30 1195 H 116.321 3.86489 0.66098 0
M  V30 1196 H 117.811 3.83589 1.65073 0
M  V30 1197 N 118.248 0.346503 1.53744 0
M  V30 1198 C 119.494 -0.249473 2.0126 0
M  V30 1199 C 119.827 -1.49965 1.23386 0
M  V30 1200 O 119.102 -1.91811 0.32229 0
M  V30 1201 C 119.385 -0.560643 3.55709 0
M  V30 1202 C 119.238 0.701836 4.44291 0
M  V30 1203 C 120.557 -1.36905 4.18264 0
M  V30 1204 H 117.676 -0.0891987 0.731582 0
M  V30 1205 H 120.318 0.467624 1.84156 0
M  V30 1206 H 118.468 -1.17156 3.70414 0
M  V30 1207 H 120.14 1.33974 4.41417 0
M  V30 1208 H 118.383 1.32612 4.13033 0
M  V30 1209 H 119.054 0.43933 5.50249 0
M  V30 1210 H 121.53 -0.852448 4.07275 0
M  V30 1211 H 120.406 -1.55553 5.26398 0
M  V30 1212 H 120.667 -2.37203 3.73078 0
M  V30 1213 N 119.726 -1.57421 0.075193 0
M  V30 1214 C 120.658 -2.09904 -0.920483 0
M  V30 1215 C 121.671 -1.03191 -1.25918 0
M  V30 1216 O 122.86 -1.30695 -1.21577 0
M  V30 1217 C 119.96 -2.54726 -2.23534 0
M  V30 1218 C 119.133 -3.8505 -2.07498 0
M  V30 1219 C 118.192 -4.15929 -3.22319 0
M  V30 1220 O 117.218 -4.85474 -2.9716 0
M  V30 1221 N 118.42 -3.69745 -4.47514 0
M  V30 1222 H 121.185 -2.95954 -0.472359 0
M  V30 1223 H 118.746 -1.61523 -0.110444 0
M  V30 1224 H 120.738 -2.72443 -2.9926 0
M  V30 1225 H 119.308 -1.73795 -2.59835 0
M  V30 1226 H 118.528 -3.76679 -1.16219 0
M  V30 1227 H 119.816 -4.70348 -1.94038 0
M  V30 1228 H 119.214 -3.13569 -4.7084 0
M  V30 1229 H 117.771 -3.92655 -5.20255 0
M  V30 1230 N 121.204 0.198386 -1.56346 0
M  V30 1231 C 122.137 1.27381 -1.89339 0
M  V30 1232 C 123.115 1.44106 -0.753134 0
M  V30 1233 O 124.299 1.59549 -1.00381 0
M  V30 1234 C 121.426 2.6409 -2.12071 0
M  V30 1235 C 120.472 2.64253 -3.34772 0
M  V30 1236 S 121.305 2.16013 -4.89999 0
M  V30 1237 C 122.461 3.54553 -5.15794 0
M  V30 1238 H 122.694 0.992058 -2.8026 0
M  V30 1239 H 120.227 0.401726 -1.49082 0
M  V30 1240 H 122.185 3.42786 -2.2585 0
M  V30 1241 H 120.846 2.89478 -1.21906 0
M  V30 1242 H 120.039 3.64768 -3.47794 0
M  V30 1243 H 119.641 1.93637 -3.1997 0
M  V30 1244 H 121.933 4.50396 -5.06112 0
M  V30 1245 H 122.876 3.46428 -6.1757 0
M  V30 1246 H 123.284 3.49313 -4.43442 0
M  V30 1247 N 122.682 1.50554 0.465978 0
M  V30 1248 C 123.929 1.61798 1.21768 0
M  V30 1249 C 124.257 0.320696 1.91838 0
M  V30 1250 O 123.512 -0.693724 1.82992 0
M  V30 1251 C 123.811 2.75152 2.28093 0
M  V30 1252 C 123.477 4.15454 1.75239 0
M  V30 1253 C 122.139 4.53628 1.60546 0
M  V30 1254 C 124.491 5.03121 1.36083 0
M  V30 1255 C 121.819 5.77204 1.05128 0
M  V30 1256 C 124.171 6.27249 0.821056 0
M  V30 1257 C 122.835 6.64221 0.660795 0
M  V30 1258 H 122.105 0.592063 0.445582 0
M  V30 1259 H 124.752 1.84503 0.512927 0
M  V30 1260 H 123.057 2.46556 3.04496 0
M  V30 1261 H 124.754 2.81055 2.86023 0
M  V30 1262 H 121.344 3.85341 1.87644 0
M  V30 1263 H 125.528 4.74257 1.46267 0
M  V30 1264 H 120.784 6.0452 0.91462 0
M  V30 1265 H 124.958 6.94537 0.509018 0
M  V30 1266 H 122.585 7.59854 0.229226 0
M  V30 1267 N 124.16 -0.719506 1.40217 0
M  V30 1268 C 125.408 -1.47641 1.3801 0
M  V30 1269 C 125.729 -1.94992 -0.018145 0
M  V30 1270 O 124.999 -1.70073 -0.972207 0
M  V30 1271 H 123.579 -0.547744 0.507923 0
M  V30 1272 H 126.241 -0.853187 1.75233 0
M  V30 1273 H 125.337 -2.35112 2.05253 0
M  V30 1274 N 125.638 -1.25649 -0.95132 0
M  V30 1275 C 127.049 -1.09654 -1.51106 0
M  V30 1276 C 127.4 0.326615 -1.93462 0
M  V30 1277 O 126.525 1.21697 -1.78938 0
M  V30 1278 C 127.12 -1.98437 -2.74605 0
M  V30 1279 C 125.679 -1.86618 -3.2688 0
M  V30 1280 C 124.826 -1.9239 -1.99703 0
M  V30 1281 H 127.777 -1.38887 -0.767865 0
M  V30 1282 H 127.798 -1.5263 -3.48546 0
M  V30 1283 H 127.31 -3.02009 -2.43746 0
M  V30 1284 H 125.411 -0.859421 -3.62553 0
M  V30 1285 H 125.524 -2.71607 -3.94673 0
M  V30 1286 H 123.888 -1.36317 -2.15151 0
M  V30 1287 H 124.671 -2.97573 -1.71188 0
M  V30 1288 N 127.117 1.15442 -1.07289 0
M  V30 1289 C 128.08 2.18358 -0.696591 0
M  V30 1290 C 129.08 1.58637 0.262837 0
M  V30 1291 O 130.27 1.74145 0.0438809 0
M  V30 1292 C 127.402 3.4089 -0.0266151 0
M  V30 1293 H 128.595 2.53162 -1.60776 0
M  V30 1294 H 126.148 1.29893 -0.869342 0
M  V30 1295 H 126.883 3.11653 0.896822 0
M  V30 1296 H 126.668 3.85495 -0.716657 0
M  V30 1297 H 128.158 4.17009 0.222028 0
M  V30 1298 N 128.595 0.856903 1.32268 0
M  V30 1299 C 129.527 0.260412 2.27716 0
M  V30 1300 C 130.54 -0.569137 1.52528 0
M  V30 1301 O 131.729 -0.39326 1.74114 0
M  V30 1302 C 128.829 -0.650477 3.32599 0
M  V30 1303 C 128.002 0.14372 4.37164 0
M  V30 1304 C 127.061 -0.69328 5.21613 0
M  V30 1305 O 126.087 -0.12599 5.69061 0
M  V30 1306 N 127.289 -2.00761 5.44679 0
M  V30 1307 H 130.054 1.08059 2.79541 0
M  V30 1308 H 127.615 0.717103 1.45152 0
M  V30 1309 H 129.607 -1.21581 3.86005 0
M  V30 1310 H 128.177 -1.37133 2.80915 0
M  V30 1311 H 127.397 0.890486 3.8401 0
M  V30 1312 H 128.685 0.68915 5.04111 0
M  V30 1313 H 128.083 -2.49181 5.07863 0
M  V30 1314 H 126.64 -2.52103 6.01072 0
M  V30 1315 N 130.073 -1.45103 0.615059 0
M  V30 1316 C 131.023 -2.27679 -0.120966 0
M  V30 1317 C 132.007 -1.3775 -0.831491 0
M  V30 1318 O 133.199 -1.61683 -0.720249 0
M  V30 1319 C 130.328 -3.24767 -1.1127 0
M  V30 1320 C 129.414 -4.22184 -0.402627 0
M  V30 1321 N 129.805 -5.02692 0.559884 0
M  V30 1322 C 128.103 -4.4125 -0.649202 0
M  V30 1323 C 128.804 -5.73421 0.977942 0
M  V30 1324 N 127.78 -5.42657 0.320104 0
M  V30 1325 H 131.582 -2.87325 0.618181 0
M  V30 1326 H 129.096 -1.56345 0.439304 0
M  V30 1327 H 131.093 -3.82666 -1.65446 0
M  V30 1328 H 129.753 -2.66682 -1.85232 0
M  V30 1329 H 130.764 -5.09354 0.936976 0
M  V30 1330 H 127.441 -3.9428 -1.37293 0
M  V30 1331 H 128.831 -6.48107 1.77222 0
M  V30 1332 N 131.551 -0.354651 -1.53558 0
M  V30 1333 C 132.799 0.237972 -2.00694 0
M  V30 1334 C 133.12 1.50173 -1.24391 0
M  V30 1335 O 132.39 1.92673 -0.354135 0
M  V30 1336 H 130.97 0.0909256 -0.741446 0
M  V30 1337 H 133.632 -0.478368 -1.88938 0
M  V30 1338 H 132.728 0.47264 -3.085 0
M  V30 1339 N 133.029 1.57378 -0.0835403 0
M  V30 1340 C 134.275 1.94217 0.583733 0
M  V30 1341 C 134.608 0.964653 1.68547 0
M  V30 1342 O 133.883 -0.00422258 1.945 0
M  V30 1343 C 134.166 3.41253 1.14972 0
M  V30 1344 C 134.019 4.49768 0.0538277 0
M  V30 1345 C 135.338 3.89352 2.05166 0
M  V30 1346 H 132.457 0.706233 0.210724 0
M  V30 1347 H 135.099 1.89392 -0.1519 0
M  V30 1348 H 133.249 3.45496 1.77665 0
M  V30 1349 H 134.921 4.57641 -0.579851 0
M  V30 1350 H 133.164 4.29432 -0.614068 0
M  V30 1351 H 133.835 5.49817 0.490452 0
M  V30 1352 H 136.311 3.87189 1.52393 0
M  V30 1353 H 135.187 4.92822 2.41698 0
M  V30 1354 H 135.448 3.27973 2.96456 0
M  V30 1355 N 134.507 -0.190092 1.56449 0
M  V30 1356 C 135.47 -1.21925 1.9408 0
M  V30 1357 C 136.47 -1.38176 0.822431 0
M  V30 1358 O 137.66 -1.35903 1.08977 0
M  V30 1359 C 134.792 -2.58773 2.21922 0
M  V30 1360 H 135.985 -0.897464 2.86157 0
M  V30 1361 H 133.538 -0.43181 1.50217 0
M  V30 1362 H 134.273 -2.95998 1.32499 0
M  V30 1363 H 134.058 -2.48348 3.03424 0
M  V30 1364 H 135.548 -3.32978 2.52022 0
M  V30 1365 N 135.985 -1.50799 -0.457987 0
M  V30 1366 C 136.918 -1.65273 -1.57353 0
M  V30 1367 C 137.896 -0.500578 -1.54703 0
M  V30 1368 O 139.08 -0.721781 -1.74134 0
M  V30 1369 C 136.207 -1.64737 -2.95938 0
M  V30 1370 C 135.253 -2.8567 -3.16693 0
M  V30 1371 S 136.086 -4.46791 -2.95191 0
M  V30 1372 C 137.242 -4.48968 -4.36095 0
M  V30 1373 H 137.475 -2.59633 -1.44838 0
M  V30 1374 H 135.008 -1.40225 -0.64625 0
M  V30 1375 H 136.966 -1.65112 -3.7583 0
M  V30 1376 H 135.627 -0.715899 -3.05833 0
M  V30 1377 H 134.82 -2.81637 -4.17967 0
M  V30 1378 H 134.422 -2.8293 -2.44594 0
M  V30 1379 H 136.714 -4.23337 -5.28954 0
M  V30 1380 H 137.657 -5.50664 -4.45168 0
M  V30 1381 H 138.065 -3.78522 -4.18786 0
M  V30 1382 N 137.463 0.71206 -1.40597 0
M  V30 1383 C 138.426 1.80785 -1.40888 0
M  V30 1384 C 139.426 1.57937 -0.302103 0
M  V30 1385 O 140.616 1.64913 -0.561182 0
M  V30 1386 C 137.748 3.18927 -1.20409 0
M  V30 1387 H 138.941 1.81924 -2.38419 0
M  V30 1388 H 136.494 0.91805 -1.26497 0
M  V30 1389 H 137.229 3.23436 -0.236522 0
M  V30 1390 H 137.014 3.36911 -2.00582 0
M  V30 1391 H 138.504 3.98949 -1.23408 0
M  V30 1392 N 138.941 1.26152 0.944643 0
M  V30 1393 C 140.187 1.11657 1.69294 0
M  V30 1394 C 140.52 -0.339926 1.91202 0
M  V30 1395 O 139.795 -1.24994 1.49019 0
M  V30 1396 C 140.078 1.88236 3.06984 0
M  V30 1397 C 139.931 3.41772 2.92424 0
M  V30 1398 C 141.25 1.67343 4.07043 0
M  V30 1399 H 138.369 0.407004 0.614424 0
M  V30 1400 H 141.011 1.55106 1.09737 0
M  V30 1401 H 139.161 1.51308 3.57824 0
M  V30 1402 H 140.833 3.88433 2.48832 0
M  V30 1403 H 139.076 3.68974 2.28124 0
M  V30 1404 H 139.747 3.90579 3.90067 0
M  V30 1405 H 142.223 1.99509 3.65151 0
M  V30 1406 H 141.099 2.23346 5.01406 0
M  V30 1407 H 141.36 0.617158 4.37771 0
M  V30 1408 N 140.419 -1.14872 1.07899 0
M  V30 1409 C 141.351 -2.19425 0.662231 0
M  V30 1410 C 142.364 -1.60231 -0.288079 0
M  V30 1411 O 143.553 -1.78336 -0.076534 0
M  V30 1412 C 140.653 -3.38867 -0.0470695 0
M  V30 1413 C 139.826 -4.27597 0.920831 0
M  V30 1414 C 138.885 -5.25616 0.247805 0
M  V30 1415 O 137.911 -5.62189 0.890599 0
M  V30 1416 N 139.113 -5.71746 -1.00435 0
M  V30 1417 H 141.878 -2.55797 1.56166 0
M  V30 1418 H 139.439 -1.30042 0.964404 0
M  V30 1419 H 141.431 -4.01497 -0.50813 0
M  V30 1420 H 140.001 -3.00864 -0.848523 0
M  V30 1421 H 139.221 -3.61982 1.56087 0
M  V30 1422 H 140.509 -4.83748 1.57688 0
M  V30 1423 H 139.907 -5.44153 -1.54642 0
M  V30 1424 H 138.464 -6.36389 -1.40899 0
M  V30 1425 N 141.898 -0.863906 -1.31812 0
M  V30 1426 C 143.175 -0.39275 -1.91616 0
M  V30 1427 C 143.555 1.12461 -1.7865 0
M  V30 1428 O 142.903 1.95045 -1.19037 0
M  V30 1429 C 143.113 -0.867385 -3.38049 0
M  V30 1430 C 144.461 -0.889966 -4.15168 0
M  V30 1431 O 145.485 -0.812635 -3.46806 0
M  V30 1432 O 144.344 -1.00079 -5.37258 0
M  V30 1433 H 141.438 -0.116358 -0.818773 0
M  V30 1434 H 143.984 -0.951418 -1.40521 0
M  V30 1435 H 142.756 -1.91081 -3.41473 0
M  V30 1436 H 142.379 -0.286687 -3.96565 0
M  V30 1437 N 143.376 1.44774 -0.622745 0
M  V30 1438 C 144.339 2.29069 0.0774015 0
M  V30 1439 C 145.339 1.4059 0.780461 0
M  V30 1440 O 146.529 1.62551 0.626322 0
M  V30 1441 C 143.661 3.21974 1.12006 0
M  V30 1442 H 144.854 2.92459 -0.663901 0
M  V30 1443 H 142.407 1.51548 -0.382486 0
M  V30 1444 H 143.142 2.63417 1.89162 0
M  V30 1445 H 142.927 3.87168 0.619951 0
M  V30 1446 H 144.417 3.85318 1.60995 0
M  V30 1447 N 144.854 0.36279 1.53368 0
M  V30 1448 C 146.1 -0.228113 2.01513 0
M  V30 1449 C 146.433 -1.48648 1.2497 0
M  V30 1450 O 145.708 -1.91459 0.342616 0
M  V30 1451 C 145.991 -0.522884 3.56284 0
M  V30 1452 C 145.844 0.74892 4.43521 0
M  V30 1453 C 147.163 -1.32461 4.19693 0
M  V30 1454 H 144.282 -0.0814343 0.732487 0
M  V30 1455 H 146.924 0.48713 1.83649 0
M  V30 1456 H 145.074 -1.1322 3.71636 0
M  V30 1457 H 146.746 1.38648 4.39971 0
M  V30 1458 H 144.989 1.36986 4.11603 0
M  V30 1459 H 145.66 0.497667 5.49752 0
M  V30 1460 H 148.136 -0.809203 4.08156 0
M  V30 1461 H 147.012 -1.49961 5.28018 0
M  V30 1462 H 147.273 -2.33232 3.75573 0
M  V30 1463 N 146.332 -1.57332 0.0918853 0
M  V30 1464 C 147.295 -2.12708 -0.85369 0
M  V30 1465 C 148.295 -1.05561 -1.213 0
M  V30 1466 O 149.485 -1.31461 -1.14296 0
M  V30 1467 C 146.617 -2.64503 -2.15061 0
M  V30 1468 H 147.81 -2.97573 -0.3729 0
M  V30 1469 H 145.363 -1.55509 -0.157072 0
M  V30 1470 H 146.098 -1.83149 -2.67632 0
M  V30 1471 H 145.883 -3.4284 -1.90272 0
M  V30 1472 H 147.373 -3.07351 -2.82711 0
M  V30 1473 N 147.81 0.181792 -1.56548 0
M  V30 1474 C 148.72 1.24538 -1.98815 0
M  V30 1475 C 149.736 1.49045 -0.897861 0
M  V30 1476 O 150.912 1.61399 -1.20467 0
M  V30 1477 C 147.977 2.56683 -2.33055 0
M  V30 1478 C 147.038 2.40131 -3.55859 0
M  V30 1479 C 146.271 3.65975 -3.88456 0
M  V30 1480 O 146.494 4.70711 -3.22161 0
M  V30 1481 O 145.428 3.6071 -4.81842 0
M  V30 1482 H 149.254 0.916647 -2.89536 0
M  V30 1483 H 146.839 0.387842 -1.44278 0
M  V30 1484 H 148.721 3.34655 -2.56094 0
M  V30 1485 H 147.396 2.89157 -1.45498 0
M  V30 1486 H 146.303 1.60226 -3.38051 0
M  V30 1487 H 147.636 2.12585 -4.43924 0
M  V30 1488 N 149.288 1.51039 0.449983 0
M  V30 1489 C 150.536 1.62759 1.19808 0
M  V30 1490 C 150.857 0.339981 1.92013 0
M  V30 1491 O 150.127 -0.643606 1.85026 0
M  V30 1492 H 148.707 0.599811 0.445237 0
M  V30 1493 H 151.369 1.87914 0.517138 0
M  V30 1494 H 150.465 2.44911 1.93455 0
M  V30 1495 N 150.766 -0.704594 1.40972 0
M  V30 1496 C 152.015 -1.46018 1.39146 0
M  V30 1497 C 152.328 -1.956 0.000589254 0
M  V30 1498 O 153.534 -2.71137 -0.1403 0
M  V30 1499 C 151.99 -2.63996 2.4461 0
M  V30 1500 C 151.598 -2.21238 3.89561 0
M  V30 1501 C 153.342 -3.41677 2.51907 0
M  V30 1502 C 151.249 -3.3612 4.86598 0
M  V30 1503 H 150.179 -0.548444 0.517422 0
M  V30 1504 H 152.83 -0.765784 1.66757 0
M  V30 1505 H 151.212 -3.3566 2.10115 0
M  V30 1506 H 152.386 -1.56923 4.33257 0
M  V30 1507 H 150.701 -1.56574 3.85841 0
M  V30 1508 H 153.298 -4.27182 3.2159 0
M  V30 1509 H 153.641 -3.86247 1.55303 0
M  V30 1510 H 154.174 -2.77064 2.85448 0
M  V30 1511 H 150.913 -2.96572 5.84573 0
M  V30 1512 H 150.433 -3.99315 4.47557 0
M  V30 1513 H 152.112 -4.02029 5.06934 0
M  V30 1514 N 152.244 -1.26651 -0.937939 0
M  V30 1515 C 153.493 -1.11775 -1.67897 0
M  V30 1516 C 153.806 0.33794 -1.92659 0
M  V30 1517 O 155.012 0.607434 -2.64618 0
M  V30 1518 C 153.468 -1.9523 -3.02346 0
M  V30 1519 C 153.076 -3.45393 -2.8532 0
M  V30 1520 C 154.82 -1.88972 -3.80118 0
M  V30 1521 C 152.727 -4.21083 -4.15263 0
M  V30 1522 H 151.657 -0.414696 -0.629717 0
M  V30 1523 H 154.308 -1.50988 -1.04283 0
M  V30 1524 H 152.69 -1.48853 -3.66959 0
M  V30 1525 H 153.864 -3.99561 -2.29537 0
M  V30 1526 H 152.179 -3.52921 -2.20988 0
M  V30 1527 H 154.776 -2.42805 -4.76392 0
M  V30 1528 H 155.119 -0.86113 -4.07296 0
M  V30 1529 H 155.652 -2.33189 -3.22285 0
M  V30 1530 H 152.391 -5.24425 -3.93267 0
M  V30 1531 H 151.911 -3.71695 -4.70747 0
M  V30 1532 H 153.59 -4.29706 -4.83696 0
M  V30 1533 N 153.722 1.14298 -1.08507 0
M  V30 1534 C 155.133 1.66926 -0.836227 0
M  V30 1535 C 155.484 1.85576 0.63686 0
M  V30 1536 O 154.609 1.56767 1.49175 0
M  V30 1537 C 155.204 3.03219 -1.51142 0
M  V30 1538 C 153.763 3.52876 -1.30979 0
M  V30 1539 C 152.91 2.2833 -1.57356 0
M  V30 1540 H 155.861 0.983491 -1.24552 0
M  V30 1541 H 155.882 3.68726 -0.939211 0
M  V30 1542 H 155.394 2.89612 -2.58353 0
M  V30 1543 H 153.495 3.71703 -0.258429 0
M  V30 1544 H 153.608 4.33586 -2.03814 0
M  V30 1545 H 151.972 2.34454 -0.995164 0
M  V30 1546 H 152.755 2.17298 -2.65775 0
M  V30 1547 N 155.201 0.870884 1.31352 0
M  V30 1548 C 156.164 0.332243 2.26779 0
M  V30 1549 C 157.164 -0.517302 1.52252 0
M  V30 1550 O 158.354 -0.326477 1.71113 0
M  V30 1551 C 155.486 -0.528066 3.36785 0
M  V30 1552 H 156.679 1.17469 2.75937 0
M  V30 1553 H 154.232 0.64655 1.423 0
M  V30 1554 H 154.967 -1.39167 2.92922 0
M  V30 1555 H 154.752 0.0802582 3.92018 0
M  V30 1556 H 156.242 -0.897179 4.07849 0
M  V30 1557 N 156.679 -1.44442 0.630414 0
M  V30 1558 C 157.956 -1.9549 0.0655657 0
M  V30 1559 C 158.336 -1.5724 -1.40851 0
M  V30 1560 O 157.684 -0.846116 -2.12257 0
M  V30 1561 C 157.894 -3.47812 0.287691 0
M  V30 1562 C 159.242 -4.24216 0.180513 0
M  V30 1563 O 160.266 -3.55526 0.219019 0
M  V30 1564 O 159.125 -5.46434 0.0848493 0
M  V30 1565 H 156.219 -0.826688 -0.0227177 0
M  V30 1566 H 158.765 -1.54496 0.702068 0
M  V30 1567 H 157.537 -3.687 1.31056 0
M  V30 1568 H 157.16 -3.95751 -0.382984 0
M  V30 1569 N 158.157 -0.370918 -1.53173 0
M  V30 1570 C 159.067 0.480823 -2.2962 0
M  V30 1571 C 160.083 1.08789 -1.35798 0
M  V30 1572 O 161.259 1.09768 -1.68858 0
M  V30 1573 C 158.324 1.60227 -3.07454 0
M  V30 1574 C 157.385 1.0222 -4.16953 0
M  V30 1575 C 156.618 2.0902 -4.91066 0
M  V30 1576 O 156.841 3.30222 -4.65091 0
M  V30 1577 O 155.775 1.71778 -5.76867 0
M  V30 1578 H 159.601 -0.141421 -3.03371 0
M  V30 1579 H 157.186 -0.135146 -1.48787 0
M  V30 1580 H 159.068 2.25417 -3.56041 0
M  V30 1581 H 157.743 2.20982 -2.36535 0
M  V30 1582 H 156.65 0.334064 -3.72605 0
M  V30 1583 H 157.983 0.459131 -4.90054 0
M  V30 1584 N 159.635 1.57281 -0.100228 0
M  V30 1585 C 160.598 2.13158 0.842398 0
M  V30 1586 C 161.598 1.06202 1.20738 0
M  V30 1587 O 162.788 1.32066 1.13597 0
M  V30 1588 C 159.92 2.65639 2.13655 0
M  V30 1589 H 161.113 2.97766 0.357114 0
M  V30 1590 H 158.666 1.5559 0.148823 0
M  V30 1591 H 159.401 1.84566 2.66657 0
M  V30 1592 H 159.186 3.43844 1.88451 0
M  V30 1593 H 160.676 3.08846 2.81077 0
M  V30 1594 N 161.113 -0.173488 1.56642 0
M  V30 1595 C 162.39 -0.917617 1.7274 0
M  V30 1596 C 162.77 -2.00484 0.661027 0
M  V30 1597 O 162.118 -2.26184 -0.32453 0
M  V30 1598 C 162.328 -1.48433 3.15862 0
M  V30 1599 C 163.676 -1.95809 3.76754 0
M  V30 1600 O 164.7 -1.58231 3.19126 0
M  V30 1601 O 163.559 -2.65024 4.77938 0
M  V30 1602 H 160.653 -0.431772 0.705338 0
M  V30 1603 H 163.199 -0.161487 1.6893 0
M  V30 1604 H 161.971 -0.701715 3.84957 0
M  V30 1605 H 161.594 -2.30471 3.23989 0
M  V30 1606 N 162.591 -1.51276 -0.441967 0
M  V30 1607 C 163.868 -1.54252 -1.20273 0
M  V30 1608 C 164.248 -0.30408 -2.08898 0
M  V30 1609 O 163.596 0.711084 -2.17154 0
M  V30 1610 C 163.806 -2.85406 -2.00859 0
M  V30 1611 C 165.154 -3.37181 -2.58059 0
M  V30 1612 O 166.178 -2.86925 -2.11074 0
M  V30 1613 O 165.037 -4.24858 -3.43741 0
M  V30 1614 H 162.131 -0.619969 -0.547328 0
M  V30 1615 H 164.677 -1.63586 -0.451413 0
M  V30 1616 H 163.449 -3.67003 -1.35736 0
M  V30 1617 H 163.072 -2.79213 -2.83065 0
M  V30 1618 N 164.069 0.697108 -1.41344 0
M  V30 1619 C 164.999 1.82353 -1.45841 0
M  V30 1620 C 165.98 1.67115 -0.317247 0
M  V30 1621 O 167.165 1.86871 -0.528474 0
M  V30 1622 C 164.295 3.20476 -1.33838 0
M  V30 1623 C 163.249 3.50415 -2.4575 0
M  V30 1624 C 162.575 4.87878 -2.18813 0
M  V30 1625 C 163.875 3.49546 -3.88091 0
M  V30 1626 H 165.569 1.78846 -2.40113 0
M  V30 1627 H 163.115 0.859028 -1.15571 0
M  V30 1628 H 165.068 3.98988 -1.35596 0
M  V30 1629 H 163.792 3.24604 -0.360498 0
M  V30 1630 H 162.451 2.74253 -2.43271 0
M  V30 1631 H 162.099 4.8863 -1.19371 0
M  V30 1632 H 161.799 5.08875 -2.93803 0
M  V30 1633 H 163.323 5.68702 -2.22284 0
M  V30 1634 H 164.737 4.18066 -3.92293 0
M  V30 1635 H 163.134 3.82075 -4.62751 0
M  V30 1636 H 164.204 2.48552 -4.16353 0
M  V30 1637 N 165.547 1.27147 0.931209 0
M  V30 1638 C 166.777 1.15914 1.71019 0
M  V30 1639 C 167.185 -0.287112 1.87009 0
M  V30 1640 O 166.528 -1.20761 1.38429 0
M  V30 1641 C 166.59 1.76647 3.13107 0
M  V30 1642 C 166.254 3.25807 3.20467 0
M  V30 1643 C 167.251 4.22489 3.02983 0
M  V30 1644 C 164.936 3.66452 3.43538 0
M  V30 1645 C 166.93 5.57794 3.08454 0
M  V30 1646 C 164.617 5.01888 3.48643 0
M  V30 1647 C 165.615 5.97369 3.31119 0
M  V30 1648 O 165.303 7.30337 3.35952 0
M  V30 1649 H 165.035 0.404062 0.54195 0
M  V30 1650 H 167.589 1.68457 1.17521 0
M  V30 1651 H 165.819 1.18578 3.68071 0
M  V30 1652 H 167.508 1.60179 3.72958 0
M  V30 1653 H 168.274 3.92425 2.85004 0
M  V30 1654 H 164.153 2.92611 3.5623 0
M  V30 1655 H 167.697 6.32298 2.94694 0
M  V30 1656 H 163.594 5.31609 3.66145 0
M  V30 1657 H 164.362 7.38739 3.5243 0
M  V30 1658 N 167.025 -1.13721 1.09112 0
M  V30 1659 C 168.271 -1.85198 0.826414 0
M  V30 1660 C 168.604 -1.83129 -0.646319 0
M  V30 1661 O 167.879 -1.2671 -1.47563 0
M  V30 1662 C 168.162 -3.33507 1.35812 0
M  V30 1663 C 168.015 -3.44108 2.89672 0
M  V30 1664 C 169.334 -4.28838 0.989256 0
M  V30 1665 H 166.453 -0.67243 0.301675 0
M  V30 1666 H 169.095 -1.33499 1.35197 0
M  V30 1667 H 167.245 -3.77666 0.911082 0
M  V30 1668 H 168.917 -3.08684 3.428 0
M  V30 1669 H 167.16 -2.85087 3.26967 0
M  V30 1670 H 167.831 -4.48388 3.21951 0
M  V30 1671 H 170.307 -3.92734 1.37475 0
M  V30 1672 H 169.183 -5.31051 1.38838 0
M  V30 1673 H 169.444 -4.4198 -0.102924 0
M  V30 1674 N 168.503 -0.877838 -1.30888 0
M  V30 1675 C 169.433 -0.35534 -2.3078 0
M  V30 1676 C 170.414 0.557994 -1.60687 0
M  V30 1677 O 171.599 0.473355 -1.88343 0
M  V30 1678 C 168.729 0.437221 -3.44537 0
M  V30 1679 C 167.683 -0.383715 -4.26276 0
M  V30 1680 C 167.009 0.535014 -5.32017 0
M  V30 1681 C 168.309 -1.62201 -4.96476 0
M  V30 1682 H 170.003 -1.19007 -2.74732 0
M  V30 1683 H 167.549 -0.573698 -1.32078 0
M  V30 1684 H 169.502 0.813334 -4.13477 0
M  V30 1685 H 168.226 1.30553 -2.99372 0
M  V30 1686 H 166.885 -0.741874 -3.59015 0
M  V30 1687 H 166.533 1.40083 -4.831 0
M  V30 1688 H 166.233 -0.0104211 -5.87599 0
M  V30 1689 H 167.757 0.907799 -6.03814 0
M  V30 1690 H 169.171 -1.31689 -5.5797 0
M  V30 1691 H 167.568 -2.10711 -5.61891 0
M  V30 1692 H 168.638 -2.37044 -4.23011 0
M  V30 1693 N 169.982 1.44106 -0.638065 0
M  V30 1694 C 171.228 2.02277 -0.145546 0
M  V30 1695 C 171.561 1.50125 1.23191 0
M  V30 1696 O 170.836 0.688133 1.8192 0
M  V30 1697 C 171.119 3.59829 -0.139791 0
M  V30 1698 C 170.972 4.22247 -1.55008 0
M  V30 1699 C 172.291 4.36873 0.531966 0
M  V30 1700 H 169.41 0.734992 -0.0543632 0
M  V30 1701 H 172.052 1.71592 -0.815863 0
M  V30 1702 H 170.202 3.86102 0.431007 0
M  V30 1703 H 171.874 4.07057 -2.1703 0
M  V30 1704 H 170.117 3.79476 -2.10191 0
M  V30 1705 H 170.788 5.31284 -1.49804 0
M  V30 1706 H 173.264 4.16074 0.0464781 0
M  V30 1707 H 172.14 5.4657 0.505206 0
M  V30 1708 H 172.401 4.11995 1.60352 0
M  V30 1709 N 171.46 0.379036 1.52974 0
M  V30 1710 C 172.708 -0.206014 2.01047 0
M  V30 1711 C 173.029 -1.48175 1.26765 0
M  V30 1712 O 172.299 -1.92085 0.384743 0
M  V30 1713 H 170.879 -0.0791184 0.742798 0
M  V30 1714 H 173.541 0.508366 1.88153 0
M  V30 1715 H 172.637 -0.423501 3.09213 0
M  V30 1716 N 172.938 -1.57226 0.108567 0
M  V30 1717 C 174.184 -1.95121 -0.552761 0
M  V30 1718 C 174.517 -0.991345 -1.66991 0
M  V30 1719 O 173.792 -0.0267211 -1.94482 0
M  V30 1720 C 174.075 -3.43039 -1.09528 0
M  V30 1721 C 173.928 -4.49797 0.0177332 0
M  V30 1722 C 175.247 -3.92567 -1.98945 0
M  V30 1723 H 172.366 -0.709496 -0.199461 0
M  V30 1724 H 175.008 -1.89126 0.182011 0
M  V30 1725 H 173.158 -3.48279 -1.72146 0
M  V30 1726 H 174.83 -4.56661 0.652584 0
M  V30 1727 H 173.073 -4.284 0.682309 0
M  V30 1728 H 173.744 -5.50528 -0.402919 0
M  V30 1729 H 176.22 -3.89565 -1.46214 0
M  V30 1730 H 175.096 -4.96605 -2.33827 0
M  V30 1731 H 175.357 -3.32648 -2.91201 0
M  V30 1732 N 174.416 0.165178 -1.56732 0
M  V30 1733 C 175.663 0.880807 -1.8234 0
M  V30 1734 C 175.991 1.81977 -0.686621 0
M  V30 1735 O 175.246 1.92971 0.325697 0
M  V30 1736 C 175.545 1.70405 -3.1416 0
M  V30 1737 C 175.211 0.913475 -4.4155 0
M  V30 1738 C 173.873 0.695303 -4.7615 0
M  V30 1739 C 176.225 0.359349 -5.1996 0
M  V30 1740 C 173.553 -0.0879947 -5.86634 0
M  V30 1741 C 175.905 -0.410893 -6.31264 0
M  V30 1742 C 174.569 -0.639808 -6.64427 0
M  V30 1743 H 173.839 0.32231 -0.667231 0
M  V30 1744 H 176.486 0.145402 -1.90947 0
M  V30 1745 H 174.791 2.50903 -3.00923 0
M  V30 1746 H 176.488 2.26091 -3.31186 0
M  V30 1747 H 173.078 1.09357 -4.14414 0
M  V30 1748 H 177.262 0.515228 -4.93618 0
M  V30 1749 H 172.518 -0.27503 -6.10781 0
M  V30 1750 H 176.692 -0.847494 -6.91224 0
M  V30 1751 H 174.319 -1.24864 -7.49875 0
M  V30 1752 N 175.894 1.51508 0.433938 0
M  V30 1753 C 177.143 1.63578 1.18005 0
M  V30 1754 C 177.456 0.359514 1.92268 0
M  V30 1755 O 178.662 0.359632 2.69108 0
M  V30 1756 C 177.118 2.88901 2.14626 0
M  V30 1757 C 176.726 4.23544 1.45995 0
M  V30 1758 C 178.47 3.10328 2.89649 0
M  V30 1759 C 176.377 5.40014 2.4112 0
M  V30 1760 H 175.307 0.609277 0.444182 0
M  V30 1761 H 177.958 1.77978 0.446773 0
M  V30 1762 H 176.34 2.68142 2.91403 0
M  V30 1763 H 177.514 4.54696 0.747532 0
M  V30 1764 H 175.829 4.08021 0.831115 0
M  V30 1765 H 178.426 3.94518 3.60915 0
M  V30 1766 H 178.769 2.23544 3.51189 0
M  V30 1767 H 179.302 3.31443 2.19978 0
M  V30 1768 H 176.041 6.29068 1.84264 0
M  V30 1769 H 175.561 5.13233 3.10406 0
M  V30 1770 H 177.24 5.72099 3.02177 0
M  V30 1771 N 177.372 -0.689602 1.41712 0
M  V30 1772 C 178.322 -1.79571 1.40493 0
M  V30 1773 C 179.306 -1.58473 0.278409 0
M  V30 1774 O 180.498 -1.69204 0.519532 0
M  V30 1775 C 177.627 -3.17923 1.29536 0
M  V30 1776 C 176.713 -3.44695 2.47075 0
M  V30 1777 N 177.104 -3.42132 3.72531 0
M  V30 1778 C 175.402 -3.75269 2.41017 0
M  V30 1779 C 176.103 -3.67976 4.50521 0
M  V30 1780 N 175.079 -3.88014 3.80718 0
M  V30 1781 H 178.881 -1.75961 2.35404 0
M  V30 1782 H 176.395 -0.889839 1.35851 0
M  V30 1783 H 178.392 -3.97167 1.26745 0
M  V30 1784 H 177.052 -3.22741 0.356153 0
M  V30 1785 H 178.063 -3.22375 4.05333 0
M  V30 1786 H 174.74 -3.87421 1.55599 0
M  V30 1787 H 176.13 -3.7208 5.59469 0
M  V30 1788 N 178.85 -1.27639 -0.924453 0
M  V30 1789 C 180.096 -1.15345 -1.67532 0
M  V30 1790 C 180.451 0.297096 -1.90092 0
M  V30 1791 O 179.744 1.21374 -1.48253 0
M  V30 1792 C 179.938 -1.87407 -3.04325 0
M  V30 1793 C 179.767 -3.3932 -2.95114 0
M  V30 1794 C 178.537 -4.08644 -2.97218 0
M  V30 1795 C 180.735 -4.35242 -2.73987 0
M  V30 1796 N 178.717 -5.47102 -2.78482 0
M  V30 1797 C 180.088 -5.6099 -2.63988 0
M  V30 1798 C 182.143 -4.25294 -2.589 0
M  V30 1799 C 180.846 -6.77924 -2.40442 0
M  V30 1800 C 182.872 -5.41952 -2.36731 0
M  V30 1801 C 182.234 -6.66658 -2.27478 0
M  V30 1802 H 178.333 -0.47696 -0.619704 0
M  V30 1803 H 180.917 -1.6115 -1.09265 0
M  V30 1804 H 179.088 -1.44053 -3.60699 0
M  V30 1805 H 180.82 -1.6759 -3.68369 0
M  V30 1806 H 177.575 -3.60136 -3.07569 0
M  V30 1807 H 177.999 -6.19852 -2.72236 0
M  V30 1808 H 182.641 -3.29598 -2.64811 0
M  V30 1809 H 180.359 -7.73699 -2.3327 0
M  V30 1810 H 183.945 -5.36137 -2.25938 0
M  V30 1811 H 182.825 -7.55405 -2.10555 0
M  V30 1812 N 180.328 1.1314 -1.09713 0
M  V30 1813 C 181.238 2.22242 -0.751367 0
M  V30 1814 C 182.254 1.72224 0.247938 0
M  V30 1815 O 183.43 2.01205 0.0885463 0
M  V30 1816 C 180.495 3.46231 -0.180274 0
M  V30 1817 C 179.556 4.11125 -1.2359 0
M  V30 1818 C 178.789 5.29195 -0.691966 0
M  V30 1819 O 179.012 5.68342 0.48414 0
M  V30 1820 O 177.946 5.84214 -1.44838 0
M  V30 1821 H 181.772 2.54197 -1.66186 0
M  V30 1822 H 179.357 1.21331 -0.871735 0
M  V30 1823 H 181.239 4.21185 0.134739 0
M  V30 1824 H 179.914 3.1597 0.703185 0
M  V30 1825 H 178.821 3.37985 -1.60366 0
M  V30 1826 H 180.154 4.45524 -2.09211 0
M  V30 1827 N 181.806 0.884767 1.30421 0
M  V30 1828 C 182.769 0.356277 2.26414 0
M  V30 1829 C 183.769 -0.501124 1.52792 0
M  V30 1830 O 184.959 -0.30831 1.7145 0
M  V30 1831 C 182.091 -0.492316 3.37326 0
M  V30 1832 H 183.284 1.20389 2.74675 0
M  V30 1833 H 180.837 0.661607 1.41607 0
M  V30 1834 H 181.572 -1.36052 2.94381 0
M  V30 1835 H 181.357 0.121832 3.91911 0
M  V30 1836 H 182.847 -0.853871 4.08777 0
M  V30 1837 N 183.284 -1.43765 0.645699 0
M  V30 1838 C 184.247 -2.29163 -0.0409488 0
M  V30 1839 C 185.247 -1.41813 -0.757996 0
M  V30 1840 O 186.437 -1.63527 -0.600382 0
M  V30 1841 C 183.569 -3.23716 -1.06869 0
M  V30 1842 H 184.762 -2.91366 0.710345 0
M  V30 1843 H 182.315 -1.5092 0.406547 0
M  V30 1844 H 183.05 -2.66393 -1.84947 0
M  V30 1845 H 182.835 -3.88105 -0.558277 0
M  V30 1846 H 184.325 -3.87831 -1.54845 0
M  V30 1847 N 184.763 -0.387143 -1.52771 0
M  V30 1848 C 186.04 0.253197 -1.93954 0
M  V30 1849 C 186.42 1.64545 -1.32243 0
M  V30 1850 O 185.768 2.23191 -0.489699 0
M  V30 1851 C 185.978 0.281722 -3.47861 0
M  V30 1852 C 187.326 0.511715 -4.21505 0
M  V30 1853 O 188.35 0.362023 -3.54356 0
M  V30 1854 O 187.209 0.804847 -5.40541 0
M  V30 1855 H 184.303 0.156845 -0.811991 0
M  V30 1856 H 186.849 -0.441494 -1.63856 0
M  V30 1857 H 185.621 -0.693571 -3.85104 0
M  V30 1858 H 185.244 1.02142 -3.84256 0
M  V30 1859 N 186.241 1.57166 -0.116904 0
M  V30 1860 C 187.518 1.86645 0.585049 0
M  V30 1861 C 187.898 1.0177 1.84949 0
M  V30 1862 O 187.246 0.0960379 2.28298 0
M  V30 1863 C 187.456 3.37736 0.879507 0
M  V30 1864 C 188.804 4.06289 1.23348 0
M  V30 1865 O 189.828 3.42743 0.969836 0
M  V30 1866 O 188.687 5.18455 1.7282 0
M  V30 1867 H 185.781 0.772593 0.295007 0
M  V30 1868 H 188.327 1.69025 -0.151249 0
M  V30 1869 H 187.099 3.91296 -0.0166136 0
M  V30 1870 H 186.722 3.6078 1.67103 0
M  V30 1871 N 187.719 -0.156864 1.56817 0
M  V30 1872 C 188.682 -1.17781 1.96622 0
M  V30 1873 C 189.682 -1.36401 0.851555 0
M  V30 1874 O 190.872 -1.33561 1.11836 0
M  V30 1875 C 188.004 -2.54008 2.27361 0
M  V30 1876 H 189.197 -0.836564 2.87996 0
M  V30 1877 H 186.75 -0.39985 1.51099 0
M  V30 1878 H 187.485 -2.9312 1.38748 0
M  V30 1879 H 187.27 -2.41856 3.08623 0
M  V30 1880 H 188.76 -3.27558 2.59029 0
M  V30 1881 N 189.197 -1.51736 -0.425897 0
M  V30 1882 C 190.144 -1.73875 -1.51776 0
M  V30 1883 C 191.114 -0.580702 -1.55618 0
M  V30 1884 O 192.299 -0.81641 -1.72451 0
M  V30 1885 C 189.439 -1.88012 -2.89388 0
M  V30 1886 C 188.552 -3.15606 -2.94986 0
M  V30 1887 C 187.687 -3.20271 -4.23793 0
M  V30 1888 C 186.726 -4.42134 -4.23302 0
M  V30 1889 N 185.863 -4.44284 -5.43651 0
M  V30 1890 H 190.703 -2.67071 -1.32201 0
M  V30 1891 H 188.24 -1.32351 -0.642008 0
M  V30 1892 H 190.198 -1.9419 -3.69251 0
M  V30 1893 H 188.828 -0.98213 -3.07496 0
M  V30 1894 H 187.88 -3.18681 -2.07717 0
M  V30 1895 H 189.192 -4.05486 -2.90486 0
M  V30 1896 H 188.346 -3.25428 -5.12036 0
M  V30 1897 H 187.085 -2.28299 -4.30965 0
M  V30 1898 H 186.09 -4.3714 -3.3345 0
M  V30 1899 H 187.315 -5.35382 -4.17783 0
M  V30 1900 H 185.261 -3.55188 -5.51523 0
M  V30 1901 H 185.178 -5.27988 -5.41078 0
M  V30 1902 H 186.446 -4.53649 -6.33895 0
M  V30 1903 N 190.675 0.682077 -1.42076 0
M  V30 1904 C 191.924 1.43786 -1.41451 0
M  V30 1905 C 192.237 1.95574 -0.0317074 0
M  V30 1906 O 193.443 2.71326 0.0971462 0
M  V30 1907 C 191.899 2.60071 -2.48779 0
M  V30 1908 C 191.507 2.15013 -3.93031 0
M  V30 1909 C 193.251 3.37626 -2.57311 0
M  V30 1910 C 191.158 3.28336 -4.91883 0
M  V30 1911 H 190.088 0.540143 -0.526082 0
M  V30 1912 H 192.739 0.739157 -1.67955 0
M  V30 1913 H 191.121 3.32275 -2.15429 0
M  V30 1914 H 192.295 1.5001 -4.35699 0
M  V30 1915 H 190.61 1.50416 -3.88284 0
M  V30 1916 H 193.207 4.22012 -3.28345 0
M  V30 1917 H 193.55 3.83727 -1.61429 0
M  V30 1918 H 194.083 2.72488 -2.89819 0
M  V30 1919 H 190.822 2.87234 -5.89217 0
M  V30 1920 H 190.342 3.92145 -4.53853 0
M  V30 1921 H 192.021 3.93913 -5.13265 0
M  V30 1922 N 192.153 1.28127 0.917671 0
M  V30 1923 C 193.085 1.07517 2.02417 0
M  V30 1924 C 194.098 0.0281099 1.62776 0
M  V30 1925 O 195.287 0.270748 1.76435 0
M  V30 1926 C 192.387 0.610957 3.33347 0
M  V30 1927 C 191.56 1.73255 4.01624 0
M  V30 1928 C 190.619 1.26238 5.10833 0
M  V30 1929 O 189.645 1.96389 5.34247 0
M  V30 1930 N 190.847 0.123448 5.80369 0
M  V30 1931 H 193.612 2.02806 2.20658 0
M  V30 1932 H 191.173 1.19827 1.08871 0
M  V30 1933 H 193.165 0.280101 4.0373 0
M  V30 1934 H 191.735 -0.24898 3.11607 0
M  V30 1935 H 190.955 2.23319 3.24842 0
M  V30 1936 H 192.243 2.48503 4.43986 0
M  V30 1937 H 191.641 -0.461847 5.63812 0
M  V30 1938 H 190.198 -0.148158 6.51632 0
M  V30 1939 N 193.631 -1.12557 1.10312 0
M  V30 1940 C 194.578 -2.18247 0.750781 0
M  V30 1941 C 195.548 -1.63853 -0.272293 0
M  V30 1942 O 196.733 -1.90195 -0.151862 0
M  V30 1943 C 193.873 -3.44591 0.187379 0
M  V30 1944 C 192.986 -4.13046 1.2656 0
M  V30 1945 C 192.121 -5.27034 0.663978 0
M  V30 1946 C 191.16 -5.87353 1.72287 0
M  V30 1947 N 190.297 -6.92757 1.1416 0
M  V30 1948 H 195.137 -2.47732 1.65628 0
M  V30 1949 H 192.674 -1.21629 0.827337 0
M  V30 1950 H 194.632 -4.16904 -0.157148 0
M  V30 1951 H 193.262 -3.15527 -0.681355 0
M  V30 1952 H 192.314 -3.38924 1.72727 0
M  V30 1953 H 193.626 -4.53947 2.06721 0
M  V30 1954 H 192.78 -6.06104 0.268824 0
M  V30 1955 H 191.519 -4.87407 -0.169082 0
M  V30 1956 H 190.524 -5.06971 2.12746 0
M  V30 1957 H 191.749 -6.29051 2.55875 0
M  V30 1958 H 189.695 -6.5517 0.329984 0
M  V30 1959 H 189.612 -7.3225 1.88007 0
M  V30 1960 H 190.88 -7.75658 0.772956 0
M  V30 1961 N 195.109 -0.891671 -1.2995 0
M  V30 1962 C 196.339 -0.527893 -1.99742 0
M  V30 1963 C 196.747 0.88979 -1.66971 0
M  V30 1964 O 196.09 1.59766 -0.906667 0
M  V30 1965 C 196.152 -0.630804 -3.53922 0
M  V30 1966 C 195.816 -2.01401 -4.10228 0
M  V30 1967 C 196.813 -2.98422 -4.25724 0
M  V30 1968 C 194.498 -2.32121 -4.45449 0
M  V30 1969 C 196.492 -4.24293 -4.75662 0
M  V30 1970 C 194.179 -3.58237 -4.95086 0
M  V30 1971 C 195.177 -4.54137 -5.10146 0
M  V30 1972 O 194.865 -5.78014 -5.58708 0
M  V30 1973 H 194.597 -0.201953 -0.645129 0
M  V30 1974 H 197.151 -1.20076 -1.66646 0
M  V30 1975 H 195.381 0.0990616 -3.86573 0
M  V30 1976 H 197.07 -0.277338 -4.04951 0
M  V30 1977 H 197.836 -2.76001 -3.98809 0
M  V30 1978 H 193.715 -1.5824 -4.32991 0
M  V30 1979 H 197.259 -4.99153 -4.87332 0
M  V30 1980 H 193.156 -3.80491 -5.21437 0
M  V30 1981 H 193.924 -5.8049 -5.77039 0
M  V30 1982 N 196.587 1.43421 -0.653314 0
M  V30 1983 C 197.535 2.32546 0.0501531 0
M  V30 1984 C 198.529 1.48617 0.812985 0
M  V30 1985 O 199.735 1.64825 0.723375 0
M  V30 1986 H 196.11 0.751185 0.0350032 0
M  V30 1987 H 198.081 2.89602 -0.719261 0
M  V30 1988 C 196.83 3.32925 1.00279 0
M  V30 1989 H 196.153 3.97532 0.425236 0
M  V30 1990 H 197.593 3.9792 1.46409 0
M  V30 1991 C 196.052 2.63532 2.09886 0
M  V30 1992 O 196.582 2.45092 3.18265 0
M  V30 1993 N 194.788 2.22905 1.86445 0
M  V30 1994 H 194.335 2.38103 0.98309 0
M  V30 1995 H 194.293 1.76805 2.59976 0
M  V30 1996 N 198.065 0.39524 1.52563 0
M  V30 1997 C 199.295 -0.184675 2.05773 0
M  V30 1998 C 199.703 -1.40571 1.26635 0
M  V30 1999 O 199.046 -1.81105 0.30769 0
M  V30 2000 C 199.108 -0.613551 3.54226 0
M  V30 2001 C 198.772 0.49484 4.54313 0
M  V30 2002 C 199.769 1.3541 5.01956 0
M  V30 2003 C 197.454 0.663565 4.97898 0
M  V30 2004 C 199.448 2.36716 5.91814 0
M  V30 2005 C 197.135 1.67996 5.87555 0
M  V30 2006 C 198.133 2.53017 6.34406 0
M  V30 2007 O 197.821 3.52917 7.22291 0
M  V30 2008 H 197.553 -0.030077 0.675331 0
M  V30 2009 H 200.107 0.560708 1.97599 0
M  V30 2010 H 198.337 -1.411 3.60038 0
M  V30 2011 H 200.026 -1.11981 3.90148 0
M  V30 2012 H 200.792 1.23509 4.6901 0
M  V30 2013 H 196.671 0.0114913 4.60999 0
M  V30 2014 H 200.215 3.03113 6.28306 0
M  V30 2015 H 196.112 1.79933 6.19915 0
M  V30 2016 H 196.88 3.48996 7.40367 0
M  V30 2017 N 199.544 -1.57102 0.125237 0
M  V30 2018 C 200.454 -2.19191 -0.8362 0
M  V30 2019 C 201.47 -1.16985 -1.28805 0
M  V30 2020 O 202.646 -1.49479 -1.34974 0
M  V30 2021 C 199.711 -2.78407 -2.06617 0
M  V30 2022 C 198.772 -3.9567 -1.66565 0
M  V30 2023 C 198.005 -4.52052 -2.83698 0
M  V30 2024 O 198.228 -4.07326 -3.99302 0
M  V30 2025 O 197.162 -5.42645 -2.60423 0
M  V30 2026 H 200.988 -3.01816 -0.337776 0
M  V30 2027 H 198.573 -1.4906 -0.100695 0
M  V30 2028 H 200.455 -3.16129 -2.7864 0
M  V30 2029 H 199.13 -1.9881 -2.55453 0
M  V30 2030 H 198.037 -3.62705 -0.916296 0
M  V30 2031 H 199.37 -4.76722 -1.22464 0
M  V30 2032 N 201.022 0.148545 -1.56898 0
M  V30 2033 C 201.985 1.16736 -1.97244 0
M  V30 2034 C 202.985 1.35947 -0.858777 0
M  V30 2035 O 204.175 1.32966 -1.12542 0
M  V30 2036 C 201.307 2.52798 -2.28705 0
M  V30 2037 H 202.5 0.821279 -2.88435 0
M  V30 2038 H 200.053 0.391831 -1.51309 0
M  V30 2039 H 200.788 2.92381 -1.403 0
M  V30 2040 H 200.573 2.40216 -3.09901 0
M  V30 2041 H 202.063 3.26179 -2.60762 0
M  V30 2042 N 202.5 1.5196 0.417844 0
M  V30 2043 C 203.728 1.69426 1.18753 0
M  V30 2044 C 204.143 0.399955 1.84515 0
M  V30 2045 O 203.5 -0.623288 1.71527 0
M  V30 2046 C 203.551 2.82375 2.25714 0
M  V30 2047 O 203.272 4.06793 1.62638 0
M  V30 2048 C 204.773 3.11277 3.15628 0
M  V30 2049 H 201.993 0.568031 0.357186 0
M  V30 2050 H 204.537 1.98475 0.49273 0
M  V30 2051 H 202.692 2.5587 2.90877 0
M  V30 2052 H 203.106 4.69667 2.3348 0
M  V30 2053 H 204.58 3.93843 3.86771 0
M  V30 2054 H 205.057 2.24473 3.77503 0
M  V30 2055 H 205.663 3.39515 2.56144 0
M  V30 2056 N 203.978 -0.674533 1.42435 0
M  V30 2057 C 204.925 -1.78807 1.45934 0
M  V30 2058 C 205.895 -1.63157 0.311271 0
M  V30 2059 O 207.08 -1.83707 0.515383 0
M  V30 2060 C 204.22 -3.16839 1.36773 0
M  V30 2061 C 203.333 -3.43774 2.61617 0
M  V30 2062 C 202.468 -4.71536 2.44597 0
M  V30 2063 C 201.507 -4.91505 3.64814 0
M  V30 2064 N 200.644 -6.10508 3.46734 0
M  V30 2065 H 205.484 -1.75151 2.41093 0
M  V30 2066 H 203.021 -0.85504 1.19697 0
M  V30 2067 H 204.979 -3.96606 1.29459 0
M  V30 2068 H 203.609 -3.19619 0.452089 0
M  V30 2069 H 202.661 -2.58259 2.79297 0
M  V30 2070 H 203.973 -3.54423 3.50978 0
M  V30 2071 H 203.127 -5.59393 2.3487 0
M  V30 2072 H 201.866 -4.6317 1.52726 0
M  V30 2073 H 200.871 -4.0209 3.74972 0
M  V30 2074 H 202.096 -5.01716 4.57665 0
M  V30 2075 H 200.042 -6.03315 2.5758 0
M  V30 2076 H 199.959 -6.2202 4.29682 0
M  V30 2077 H 201.227 -7.01044 3.40819 0
M  V30 2078 N 205.456 -1.28612 -0.910864 0
M  V30 2079 C 206.386 -1.15326 -2.03032 0
M  V30 2080 C 207.367 -0.0502924 -1.70026 0
M  V30 2081 O 208.552 -0.227797 -1.92859 0
M  V30 2082 C 205.682 -0.817343 -3.37545 0
M  V30 2083 C 204.636 -1.8754 -3.84724 0
M  V30 2084 C 203.962 -1.39305 -5.16235 0
M  V30 2085 C 205.262 -3.28244 -4.06267 0
M  V30 2086 H 206.956 -2.08975 -2.14406 0
M  V30 2087 H 204.502 -1.00612 -1.03021 0
M  V30 2088 H 206.455 -0.711151 -4.15356 0
M  V30 2089 H 205.179 0.154846 -3.26233 0
M  V30 2090 H 203.838 -1.97079 -3.09121 0
M  V30 2091 H 203.486 -0.409846 -5.01328 0
M  V30 2092 H 203.186 -2.10057 -5.48771 0
M  V30 2093 H 204.71 -1.30014 -5.96598 0
M  V30 2094 H 206.124 -3.21611 -4.74594 0
M  V30 2095 H 204.521 -3.96855 -4.5014 0
M  V30 2096 H 205.591 -3.72048 -3.10979 0
M  V30 2097 N 206.934 1.1197 -1.10907 0
M  V30 2098 C 208.159 1.87942 -0.877064 0
M  V30 2099 C 208.584 1.79341 0.567314 0
M  V30 2100 O 207.942 1.15184 1.40009 0
M  V30 2101 C 207.99 3.34926 -1.33629 0
M  V30 2102 O 207.094 4.09303 -0.504447 0
M  V30 2103 H 206.435 0.583785 -0.316371 0
M  V30 2104 H 208.965 1.4157 -1.47712 0
M  V30 2105 H 208.975 3.8577 -1.32837 0
M  V30 2106 H 207.65 3.40504 -2.3881 0
M  V30 2107 H 206.227 3.68393 -0.577993 0
M  V30 2108 N 208.412 0.89855 1.29475 0
M  V30 2109 C 209.661 0.519863 1.94885 0
M  V30 2110 C 209.974 -0.9383 1.71625 0
M  V30 2111 O 211.18 -1.42445 2.31131 0
M  V30 2112 C 209.636 0.878836 3.49005 0
M  V30 2113 C 209.244 2.35569 3.81066 0
M  V30 2114 C 210.988 0.570004 4.20656 0
M  V30 2115 C 208.895 2.65558 5.28425 0
M  V30 2116 H 207.825 0.190692 0.729488 0
M  V30 2117 H 210.476 1.09539 1.47219 0
M  V30 2118 H 208.858 0.232253 3.95318 0
M  V30 2119 H 210.032 3.04773 3.45616 0
M  V30 2120 H 208.347 2.63343 3.22552 0
M  V30 2121 H 210.944 0.770925 5.29113 0
M  V30 2122 H 211.287 -0.491404 4.1339 0
M  V30 2123 H 211.82 1.17438 3.8007 0
M  V30 2124 H 208.559 3.70493 5.40754 0
M  V30 2125 H 208.079 2.00977 5.65127 0
M  V30 2126 H 209.758 2.51765 5.96006 0
M  V30 2127 N 209.89 -1.43072 0.660911 0
M  V30 2128 C 210.822 -2.29108 -0.0647641 0
M  V30 2129 C 211.835 -1.42928 -0.779448 0
M  V30 2130 O 213.024 -1.66788 -0.635921 0
M  V30 2131 C 210.124 -3.20032 -1.11503 0
M  V30 2132 C 209.297 -4.34792 -0.476955 0
M  V30 2133 C 208.356 -5.06534 -1.42513 0
M  V30 2134 O 207.382 -5.61538 -0.930771 0
M  V30 2135 N 208.584 -5.1075 -2.75889 0
M  V30 2136 H 211.349 -2.92029 0.673731 0
M  V30 2137 H 208.91 -1.53846 0.50427 0
M  V30 2138 H 210.902 -3.64892 -1.75032 0
M  V30 2139 H 209.472 -2.58658 -1.75541 0
M  V30 2140 H 208.692 -3.92752 0.337572 0
M  V30 2141 H 209.98 -5.0879 -0.0318525 0
M  V30 2142 H 209.378 -4.67447 -3.18606 0
M  V30 2143 H 207.935 -5.59302 -3.347 0
M  V30 2144 N 211.368 -0.403325 -1.52352 0
M  V30 2145 C 212.784 -0.0539281 -1.59509 0
M  V30 2146 C 212.984 1.43307 -1.41652 0
M  V30 2147 O 212.04 2.19924 -1.24056 0
M  V30 2148 C 213.353 -0.543654 -2.95745 0
M  V30 2149 C 214.901 -0.501125 -3.08962 0
M  V30 2150 C 215.376 -0.967267 -4.47669 0
M  V30 2151 N 216.867 -0.923849 -4.53893 0
M  V30 2152 C 217.602 -1.25578 -5.5948 0
M  V30 2153 N 217.098 -1.65889 -6.72646 0
M  V30 2154 N 218.891 -1.17613 -5.49658 0
M  V30 2155 H 211.042 -1.37123 -1.62206 0
M  V30 2156 H 213.305 -0.56294 -0.76276 0
M  V30 2157 H 213.011 -1.58275 -3.14073 0
M  V30 2158 H 212.885 0.0498042 -3.77167 0
M  V30 2159 H 215.272 0.528909 -2.90321 0
M  V30 2160 H 215.353 -1.13056 -2.2946 0
M  V30 2161 H 214.997 -1.9956 -4.67053 0
M  V30 2162 H 214.927 -0.314698 -5.25659 0
M  V30 2163 H 217.418 -0.627403 -3.72655 0
M  V30 2164 H 217.731 -1.89543 -7.49195 0
M  V30 2165 H 216.076 -1.69787 -6.73942 0
M  V30 2166 H 219.267 -0.860115 -4.6013 0
M  V30 2167 H 219.44 -1.43812 -6.3184 0
M  V30 2168 N 212.846 1.57033 -0.133567 0
M  V30 2169 C 213.809 2.14897 0.796995 0
M  V30 2170 C 214.809 1.0874 1.18458 0
M  V30 2171 O 215.999 1.34446 1.1077 0
M  V30 2172 C 213.131 2.70112 2.07973 0
M  V30 2173 H 214.324 2.98457 0.293873 0
M  V30 2174 H 211.877 1.55871 0.115787 0
M  V30 2175 H 212.612 1.9018 2.62682 0
M  V30 2176 H 212.397 3.47764 1.81115 0
M  V30 2177 H 213.887 3.14738 2.74462 0
M  V30 2178 N 214.325 -0.140222 1.56975 0
M  V30 2179 C 215.571 -0.852949 1.83991 0
M  V30 2180 C 215.904 -1.80512 0.716187 0
M  V30 2181 O 215.179 -1.92479 -0.279681 0
M  V30 2182 C 215.462 -1.6215 3.21527 0
M  V30 2183 C 215.315 -0.690363 4.4447 0
M  V30 2184 C 216.634 -2.58247 3.56366 0
M  V30 2185 H 213.753 -0.308634 0.669264 0
M  V30 2186 H 216.395 -0.117898 1.89634 0
M  V30 2187 H 214.545 -2.24812 3.16847 0
M  V30 2188 H 216.217 -0.0742264 4.6124 0
M  V30 2189 H 214.46 -0.000396433 4.338 0
M  V30 2190 H 215.131 -1.2643 5.37326 0
M  V30 2191 H 217.607 -2.05701 3.61699 0
M  V30 2192 H 216.483 -3.09067 4.53617 0
M  V30 2193 H 216.744 -3.39923 2.82674 0
M  V30 2194 N 215.803 -1.52179 -0.40978 0
M  V30 2195 C 216.751 -1.76086 -1.51975 0
M  V30 2196 C 217.745 -0.627964 -1.57331 0
M  V30 2197 O 218.951 -0.809993 -1.60745 0
M  V30 2198 H 215.326 -0.556829 -0.505416 0
M  V30 2199 H 217.297 -2.69077 -1.28996 0
M  V30 2200 C 216.046 -1.92799 -2.8935 0
M  V30 2201 H 215.369 -2.79392 -2.85972 0
M  V30 2202 H 216.809 -2.13527 -3.66309 0
M  V30 2203 C 215.268 -0.694923 -3.29655 0
M  V30 2204 O 215.798 0.13751 -4.01465 0
M  V30 2205 N 214.004 -0.53101 -2.85707 0
M  V30 2206 H 213.551 -1.20952 -2.27439 0
M  V30 2207 H 213.509 0.292718 -3.13034 0
M  V30 2208 N 217.281 0.66697 -1.42791 0
M  V30 2209 C 218.529 1.42417 -1.43394 0
M  V30 2210 C 218.85 1.94925 -0.0542373 0
M  V30 2211 O 218.12 1.73564 0.908415 0
M  V30 2212 H 216.7 0.528515 -0.527902 0
M  V30 2213 H 219.362 0.787562 -1.78279 0
M  V30 2214 H 218.458 2.27333 -2.13837 0
M  V30 2215 N 218.759 1.29093 0.90403 0
M  V30 2216 C 219.669 1.15727 2.0407 0
M  V30 2217 C 220.685 0.0815308 1.73809 0
M  V30 2218 O 221.861 0.292749 1.99261 0
M  V30 2219 C 218.926 0.830424 3.36608 0
M  V30 2220 C 217.987 1.98955 3.80415 0
M  V30 2221 C 217.22 1.6782 5.06628 0
M  V30 2222 O 217.443 0.597105 5.67266 0
M  V30 2223 O 216.377 2.52486 5.46383 0
M  V30 2224 H 220.203 2.11171 2.18267 0
M  V30 2225 H 217.788 1.08504 1.027 0
M  V30 2226 H 219.67 0.662521 4.16159 0
M  V30 2227 H 218.345 -0.0942678 3.23563 0
M  V30 2228 H 217.252 2.21267 3.01648 0
M  V30 2229 H 218.585 2.89529 3.98037 0
M  V30 2230 N 220.237 -1.11381 1.11499 0
M  V30 2231 C 221.648 -1.6465 0.880191 0
M  V30 2232 C 221.999 -1.87199 -0.587434 0
M  V30 2233 O 221.124 -1.60667 -1.44966 0
M  V30 2234 C 221.719 -2.99105 1.59128 0
M  V30 2235 C 220.278 -3.49279 1.40289 0
M  V30 2236 C 219.425 -2.24077 1.63354 0
M  V30 2237 H 222.376 -0.950123 1.27116 0
M  V30 2238 H 222.397 -3.66107 1.03664 0
M  V30 2239 H 221.909 -2.82661 2.65941 0
M  V30 2240 H 220.01 -3.70887 0.356888 0
M  V30 2241 H 220.123 -4.2803 2.15238 0
M  V30 2242 H 218.487 -2.31733 1.05698 0
M  V30 2243 H 219.27 -2.10175 2.71443 0
M  V30 2244 N 221.715 -0.905404 -1.28997 0
M  V30 2245 C 222.662 -0.385892 -2.27551 0
M  V30 2246 C 223.632 0.535113 -1.57244 0
M  V30 2247 O 224.817 0.459119 -1.85194 0
M  V30 2248 C 221.957 0.375461 -3.43051 0
M  V30 2249 C 221.07 -0.577092 -4.28128 0
M  V30 2250 C 220.205 0.201879 -5.30816 0
M  V30 2251 C 219.244 -0.744829 -6.07551 0
M  V30 2252 N 218.381 9.42587e-05 -7.021 0
M  V30 2253 H 223.221 -1.23139 -2.71368 0
M  V30 2254 H 220.758 -0.618542 -1.33463 0
M  V30 2255 H 222.716 0.832992 -4.088 0
M  V30 2256 H 221.346 1.18537 -3.00248 0
M  V30 2257 H 220.398 -1.15315 -3.62501 0
M  V30 2258 H 221.71 -1.30152 -4.8152 0
M  V30 2259 H 220.864 0.720351 -6.02408 0
M  V30 2260 H 219.603 0.959413 -4.7817 0
M  V30 2261 H 218.608 -1.27475 -5.34818 0
M  V30 2262 H 219.833 -1.50178 -6.62286 0
M  V30 2263 H 217.779 0.739791 -6.51815 0
M  V30 2264 H 217.696 -0.664321 -7.53076 0
M  V30 2265 H 218.964 0.498644 -7.77903 0
M  V30 2266 N 223.193 1.4272 -0.668489 0
M  V30 2267 C 224.156 2.292 0.00448567 0
M  V30 2268 C 225.156 1.43001 0.735339 0
M  V30 2269 O 226.346 1.64461 0.57429 0
M  V30 2270 C 223.478 3.25375 1.01705 0
M  V30 2271 H 224.671 2.90199 -0.756608 0
M  V30 2272 H 222.224 1.50254 -0.430506 0
M  V30 2273 H 222.959 2.69301 1.80686 0
M  V30 2274 H 222.744 3.88944 0.496463 0
M  V30 2275 H 224.234 3.90245 1.48655 0
M  V30 2276 N 224.671 0.411399 1.52136 0
M  V30 2277 C 225.896 -0.165538 2.06738 0
M  V30 2278 C 226.321 -1.379 1.27926 0
M  V30 2279 O 225.679 -1.78628 0.310114 0
M  V30 2280 C 225.727 -0.492124 3.57226 0
M  V30 2281 O 224.831 -1.58276 3.80818 0
M  V30 2282 H 224.172 -0.0132132 0.663869 0
M  V30 2283 H 226.702 0.585253 1.96051 0
M  V30 2284 H 226.712 -0.750104 4.01045 0
M  V30 2285 H 225.387 0.394922 4.14021 0
M  V30 2286 H 223.964 -1.31677 3.48877 0
M  V30 2287 N 226.149 -1.5696 0.141893 0
M  V30 2288 C 227.395 -1.9625 -0.511248 0
M  V30 2289 C 227.728 -1.02654 -1.64851 0
M  V30 2290 O 227.003 -0.0679676 -1.94381 0
M  V30 2291 C 227.286 -3.45285 -1.02227 0
M  V30 2292 C 227.139 -4.49658 0.113138 0
M  V30 2293 C 228.458 -3.96698 -1.90574 0
M  V30 2294 H 225.577 -0.713567 -0.184367 0
M  V30 2295 H 228.219 -1.88698 0.222087 0
M  V30 2296 H 226.369 -3.51852 -1.64719 0
M  V30 2297 H 228.041 -4.55174 0.749302 0
M  V30 2298 H 226.284 -4.26857 0.773026 0
M  V30 2299 H 226.955 -5.51258 -0.286053 0
M  V30 2300 H 229.431 -3.92578 -1.37918 0
M  V30 2301 H 228.307 -5.01453 -2.2324 0
M  V30 2302 H 228.568 -3.3875 -2.84079 0
M  V30 2303 N 227.627 0.131896 -1.57047 0
M  V30 2304 C 228.873 0.843179 -1.84441 0
M  V30 2305 C 229.206 1.80129 -0.725749 0
M  V30 2306 O 228.481 1.92624 0.269469 0
M  V30 2307 C 228.764 1.60442 -3.22382 0
M  V30 2308 C 228.617 0.666782 -4.4483 0
M  V30 2309 C 229.936 2.56354 -3.5773 0
M  V30 2310 H 227.055 0.305081 -0.670891 0
M  V30 2311 H 229.697 0.107839 -1.89694 0
M  V30 2312 H 227.847 2.23128 -3.18035 0
M  V30 2313 H 229.519 0.0497646 -4.61273 0
M  V30 2314 H 227.762 -0.022609 -4.33794 0
M  V30 2315 H 228.433 1.23579 -5.37989 0
M  V30 2316 H 230.909 2.0378 -3.62785 0
M  V30 2317 H 229.785 3.06657 -4.5525 0
M  V30 2318 H 230.046 3.38419 -2.84473 0
M  V30 2319 N 229.106 1.52395 0.401703 0
M  V30 2320 C 230.334 1.70676 1.16949 0
M  V30 2321 C 230.749 0.419503 1.8408 0
M  V30 2322 O 230.106 -0.605061 1.72178 0
M  V30 2323 C 230.157 2.84753 2.22706 0
M  V30 2324 O 229.878 4.08495 1.58314 0
M  V30 2325 C 231.379 3.14608 3.12309 0
M  V30 2326 H 228.599 0.571787 0.351142 0
M  V30 2327 H 231.143 1.98987 0.471652 0
M  V30 2328 H 229.298 2.58941 2.88147 0
M  V30 2329 H 229.712 4.72117 2.28485 0
M  V30 2330 H 231.186 3.97923 3.82572 0
M  V30 2331 H 231.663 2.28464 3.75101 0
M  V30 2332 H 232.269 3.42212 2.52529 0
M  V30 2333 N 230.584 -0.659388 1.43143 0
M  V30 2334 C 231.494 -1.80167 1.50256 0
M  V30 2335 C 232.51 -1.69571 0.390106 0
M  V30 2336 O 233.686 -1.90849 0.643319 0
M  V30 2337 C 230.751 -3.16409 1.41725 0
M  V30 2338 C 229.812 -3.38848 2.63591 0
M  V30 2339 C 229.045 -4.68591 2.55458 0
M  V30 2340 O 229.268 -5.47532 1.59891 0
M  V30 2341 O 228.202 -4.92614 3.45854 0
M  V30 2342 H 232.028 -1.77121 2.46702 0
M  V30 2343 H 229.613 -0.817092 1.25076 0
M  V30 2344 H 231.495 -3.9768 1.39387 0
M  V30 2345 H 230.17 -3.20059 0.484118 0
M  V30 2346 H 229.077 -2.57366 2.71502 0
M  V30 2347 H 230.41 -3.4004 3.55856 0
M  V30 2348 N 232.062 -1.29571 -0.897171 0
M  V30 2349 C 232.994 -1.10724 -2.00681 0
M  V30 2350 C 234.007 -0.0540026 -1.6271 0
M  V30 2351 O 235.196 -0.298783 -1.75982 0
M  V30 2352 C 232.296 -0.663912 -3.32333 0
M  V30 2353 C 231.469 -1.79622 -3.98816 0
M  V30 2354 C 230.528 -1.34349 -5.0876 0
M  V30 2355 O 229.554 -2.04864 -5.31055 0
M  V30 2356 N 230.756 -0.215764 -5.80099 0
M  V30 2357 H 233.521 -2.06291 -2.17403 0
M  V30 2358 H 231.082 -1.21544 -1.06951 0
M  V30 2359 H 233.074 -0.344295 -4.03233 0
M  V30 2360 H 231.644 0.199375 -3.11964 0
M  V30 2361 H 230.864 -2.28459 -3.21248 0
M  V30 2362 H 232.152 -2.55535 -4.39976 0
M  V30 2363 H 231.55 0.372091 -5.64475 0
M  V30 2364 H 230.107 0.0444707 -6.51785 0
M  V30 2365 N 233.54 1.10788 -1.12088 0
M  V30 2366 C 234.956 1.34691 -0.856186 0
M  V30 2367 C 235.156 1.94791 0.515615 0
M  V30 2368 O 234.212 2.18524 1.26505 0
M  V30 2369 C 235.525 2.27208 -1.9697 0
M  V30 2370 C 237.073 2.40755 -2.00016 0
M  V30 2371 C 237.548 3.36598 -3.1059 0
M  V30 2372 N 239.039 3.44164 -3.10008 0
M  V30 2373 C 239.774 4.18284 -3.92206 0
M  V30 2374 N 239.27 4.95322 -4.84384 0
M  V30 2375 N 241.063 4.13865 -3.80357 0
M  V30 2376 H 233.214 0.70144 -2.00483 0
M  V30 2377 H 235.477 0.371405 -0.872217 0
M  V30 2378 H 235.183 1.90251 -2.958 0
M  V30 2379 H 235.057 3.27485 -1.87172 0
M  V30 2380 H 237.444 2.76982 -1.01808 0
M  V30 2381 H 237.525 1.40305 -2.13888 0
M  V30 2382 H 237.169 3.01096 -4.09028 0
M  V30 2383 H 237.099 4.36918 -2.93956 0
M  V30 2384 H 239.59 2.8922 -2.43228 0
M  V30 2385 H 239.903 5.49267 -5.43623 0
M  V30 2386 H 238.248 4.94459 -4.884 0
M  V30 2387 H 241.439 3.52773 -3.07683 0
M  V30 2388 H 241.612 4.71372 -4.44649 0
M  V30 2389 N 235.018 0.912232 1.28515 0
M  V30 2390 C 235.965 0.397954 2.27343 0
M  V30 2391 C 236.935 -0.526766 1.57526 0
M  V30 2392 O 238.12 -0.449292 1.85435 0
M  V30 2393 C 235.26 -0.357263 3.43246 0
M  V30 2394 C 234.373 0.599788 4.27816 0
M  V30 2395 C 233.508 -0.173725 5.30916 0
M  V30 2396 C 232.547 0.777039 6.07148 0
M  V30 2397 N 231.684 0.0371398 7.0209 0
M  V30 2398 H 236.524 1.24577 2.70711 0
M  V30 2399 H 234.061 0.625612 1.33133 0
M  V30 2400 H 236.019 -0.8113 4.09236 0
M  V30 2401 H 234.649 -1.16943 3.00872 0
M  V30 2402 H 233.701 1.17235 3.61884 0
M  V30 2403 H 235.013 1.32704 4.80823 0
M  V30 2404 H 234.167 -0.688394 6.02782 0
M  V30 2405 H 232.906 -0.934041 4.78672 0
M  V30 2406 H 231.911 1.3031 5.34134 0
M  V30 2407 H 233.136 1.53689 6.61481 0
M  V30 2408 H 231.082 -0.705213 6.52198 0
M  V30 2409 H 230.999 0.704249 7.52713 0
M  V30 2410 H 232.267 -0.457383 7.78157 0
M  V30 2411 N 236.496 -1.42363 0.676048 0
M  V30 2412 C 237.721 -2.06377 0.205705 0
M  V30 2413 C 238.146 -1.50463 -1.12883 0
M  V30 2414 O 237.504 -0.623619 -1.70237 0
M  V30 2415 C 237.552 -3.60277 0.152655 0
M  V30 2416 O 236.656 -4.02935 -0.87845 0
M  V30 2417 H 235.997 -0.655588 0.105359 0
M  V30 2418 H 238.527 -1.82475 0.925412 0
M  V30 2419 H 238.537 -4.07993 -0.0230675 0
M  V30 2420 H 237.212 -4.00346 1.12675 0
M  V30 2421 H 235.789 -3.66764 -0.673668 0
M  V30 2422 N 237.974 -0.419461 -1.51915 0
M  V30 2423 C 238.937 0.389116 -2.25873 0
M  V30 2424 C 239.937 0.964924 -1.28631 0
M  V30 2425 O 241.127 0.842179 -1.52489 0
M  V30 2426 C 238.259 1.54874 -3.03689 0
M  V30 2427 H 239.452 -0.258799 -2.98781 0
M  V30 2428 H 237.005 -0.172209 -1.55348 0
M  V30 2429 H 237.74 2.23323 -2.35154 0
M  V30 2430 H 237.525 1.14223 -3.75094 0
M  V30 2431 H 239.015 2.12046 -3.59759 0
M  V30 2432 N 239.452 1.56882 -0.150215 0
M  V30 2433 C 240.68 2.00593 0.506948 0
M  V30 2434 C 241.095 1.03033 1.58208 0
M  V30 2435 O 240.452 0.0278396 1.82479 0
M  V30 2436 C 240.503 3.44209 1.10465 0
M  V30 2437 O 240.224 4.3804 0.0724636 0
M  V30 2438 C 241.725 4.03214 1.84211 0
M  V30 2439 H 238.945 0.65795 0.13169 0
M  V30 2440 H 241.489 2.03018 -0.245743 0
M  V30 2441 H 239.644 3.42625 1.80795 0
M  V30 2442 H 240.058 5.22007 0.510793 0
M  V30 2443 H 241.532 5.0569 2.21318 0
M  V30 2444 H 242.009 3.44107 2.72923 0
M  V30 2445 H 242.615 4.08437 1.18572 0
M  V30 2446 N 240.93 -0.123565 1.57115 0
M  V30 2447 C 241.88 -1.1575 1.96433 0
M  V30 2448 C 242.864 -1.37313 0.838686 0
M  V30 2449 O 244.056 -1.38482 1.10235 0
M  V30 2450 C 241.185 -2.48526 2.36833 0
M  V30 2451 C 240.271 -2.30457 3.5602 0
M  V30 2452 N 240.662 -1.8219 4.71848 0
M  V30 2453 C 238.96 -2.61129 3.61563 0
M  V30 2454 C 239.661 -1.77721 5.53886 0
M  V30 2455 N 238.637 -2.21899 4.96248 0
M  V30 2456 H 242.439 -0.776797 2.83449 0
M  V30 2457 H 239.953 -0.331364 1.58983 0
M  V30 2458 H 241.95 -3.233 2.63216 0
M  V30 2459 H 240.61 -2.87358 1.5118 0
M  V30 2460 H 241.621 -1.51805 4.95152 0
M  V30 2461 H 238.298 -3.03678 2.86507 0
M  V30 2462 H 239.688 -1.41697 6.56789 0
M  V30 2463 N 242.408 -1.52605 -0.393616 0
M  V30 2464 C 243.819 -1.59417 -0.971761 0
M  V30 2465 C 244.17 -0.444173 -1.91106 0
M  V30 2466 O 243.295 0.433382 -2.12016 0
M  V30 2467 C 243.89 -2.88936 -1.76921 0
M  V30 2468 C 242.449 -2.98175 -2.29714 0
M  V30 2469 C 241.596 -2.54491 -1.10135 0
M  V30 2470 H 244.547 -1.57751 -0.173317 0
M  V30 2471 H 244.568 -2.75163 -2.62804 0
M  V30 2472 H 244.08 -3.72616 -1.08532 0
M  V30 2473 H 242.181 -2.19024 -3.01429 0
M  V30 2474 H 242.294 -4.02726 -2.59517 0
M  V30 2475 H 240.658 -2.08702 -1.45999 0
M  V30 2476 H 241.441 -3.4056 -0.432874 0
M  V30 2477 N 243.887 0.651787 -1.4349 0
M  V30 2478 C 245.134 1.41167 -1.45183 0
M  V30 2479 C 245.462 1.94349 -0.0766601 0
M  V30 2480 O 244.717 1.72804 0.918555 0
M  V30 2481 C 245.016 2.60914 -2.44251 0
M  V30 2482 C 244.682 2.26142 -3.9009 0
M  V30 2483 C 243.344 2.16371 -4.2981 0
M  V30 2484 C 245.696 1.98334 -4.81989 0
M  V30 2485 C 243.024 1.7695 -5.5938 0
M  V30 2486 C 245.376 1.6041 -6.11924 0
M  V30 2487 C 244.04 1.49166 -6.5062 0
M  V30 2488 H 243.31 0.516566 -0.531263 0
M  V30 2489 H 245.957 0.741099 -1.76579 0
M  V30 2490 H 244.262 3.3311 -2.06265 0
M  V30 2491 H 245.959 3.19127 -2.42815 0
M  V30 2492 H 242.549 2.34658 -3.58655 0
M  V30 2493 H 246.733 2.04803 -4.52072 0
M  V30 2494 H 241.989 1.66831 -5.88198 0
M  V30 2495 H 246.163 1.37925 -6.82605 0
M  V30 2496 H 243.79 1.1839 -7.50925 0
M  V30 2497 N 245.365 1.30045 0.890287 0
M  V30 2498 C 246.328 1.15963 1.977 0
M  V30 2499 C 247.328 0.0923777 1.60534 0
M  V30 2500 O 248.518 0.340071 1.70848 0
M  V30 2501 C 245.65 0.775451 3.31963 0
M  V30 2502 H 246.843 2.12502 2.11619 0
M  V30 2503 H 244.396 1.13366 1.07601 0
M  V30 2504 H 245.131 -0.189671 3.23745 0
M  V30 2505 H 244.916 1.54668 3.60306 0
M  V30 2506 H 246.406 0.700251 4.11687 0
M  V30 2507 N 246.843 -1.10192 1.12674 0
M  V30 2508 C 247.806 -2.14786 0.799979 0
M  V30 2509 C 248.806 -1.59711 -0.18685 0
M  V30 2510 O 249.996 -1.74156 0.0392558 0
M  V30 2511 C 247.128 -3.40374 0.189228 0
M  V30 2512 H 248.321 -2.45203 1.72671 0
M  V30 2513 H 245.874 -1.25597 0.930326 0
M  V30 2514 H 246.609 -3.15577 -0.747107 0
M  V30 2515 H 246.394 -3.81637 0.899766 0
M  V30 2516 H 247.884 -4.17594 -0.0228143 0
M  V30 2517 N 248.321 -0.919034 -1.28029 0
M  V30 2518 C 249.269 -0.401753 -2.29104 0
M  V30 2519 C 250.263 0.509354 -1.61561 0
M  V30 2520 O 251.469 0.390014 -1.75724 0
M  V30 2521 H 247.844 -0.111331 -0.743713 0
M  V30 2522 H 249.815 -1.2672 -2.70156 0
M  V30 2523 C 248.564 0.338148 -3.46052 0
M  V30 2524 H 247.887 -0.353732 -3.98232 0
M  V30 2525 H 249.327 0.664653 -4.18758 0
M  V30 2526 C 247.786 1.54798 -2.99231 0
M  V30 2527 O 248.316 2.64696 -3.02157 0
M  V30 2528 N 246.522 1.3968 -2.54829 0
M  V30 2529 H 246.069 0.502698 -2.52647 0
M  V30 2530 H 246.027 2.20755 -2.23863 0
M  V30 2531 N 249.799 1.42003 -0.683588 0
M  V30 2532 C 250.762 2.29191 -0.0198243 0
M  V30 2533 C 251.762 1.43773 0.72013 0
M  V30 2534 O 252.952 1.65061 0.556815 0
M  V30 2535 C 250.084 3.26435 0.982487 0
M  V30 2536 H 251.277 2.8938 -0.787345 0
M  V30 2537 H 248.83 1.49789 -0.446418 0
M  V30 2538 H 249.565 2.71203 1.77819 0
M  V30 2539 H 249.35 3.89449 0.455182 0
M  V30 2540 H 250.84 3.918 1.44508 0
M  V30 2541 O 251.316 0.569597 1.51122 0
M  V30 2542 H 252.007 0.0705798 1.93571 0
M  V30 END ATOM
M  V30 BEGIN BOND
M  V30 END BOND
M  V30 END CTAB
M  END
$$$$
