drugbank_target|Q9FBC5 Putative enoyl-(Acyl-carrier-protein) reductase II (DB08657)
 OpenBabel12092120523D

  0  0  0     0  0            999 V3000
M  V30 BEGIN CTAB
M  V30 COUNTS 4854 4888 0 0 0
M  V30 BEGIN ATOM
M  V30 1 H -0.908 1.98254 -0.117106 0
M  V30 2 N 0 1.576 0 0
M  V30 3 C 0.933 2.03868 1.02534 0
M  V30 4 C 1.911 0.928543 1.3348 0
M  V30 5 O 3.095 1.19667 1.45644 0
M  V30 6 C 0.222 2.43627 2.35294 0
M  V30 7 C -0.732 3.65373 2.2001 0
M  V30 8 S 0.101 5.13292 1.52614 0
M  V30 9 C 1.257 5.56322 2.86805 0
M  V30 10 H 1.49 2.90518 0.631377 0
M  V30 11 H -0.977 1.52953 0.210867 0
M  V30 12 H 0.981 2.67203 3.11629 0
M  V30 13 H -0.358 1.57376 2.7183 0
M  V30 14 H -1.165 3.90944 3.18086 0
M  V30 15 H -1.563 3.418 1.51819 0
M  V30 16 H 0.729 5.58782 3.83104 0
M  V30 17 H 1.672 6.56266 2.65933 0
M  V30 18 H 2.08 4.83886 2.90714 0
M  V30 19 N 1.4781 -0.272755 1.55222 0
M  V30 20 C 2.4251 -1.33716 1.88119 0
M  V30 21 C 3.3951 -1.49066 0.73271 0
M  V30 22 O 4.5801 -1.63469 0.984002 0
M  V30 23 C 1.7201 -2.69238 2.15882 0
M  V30 24 C 0.8331 -2.62108 3.43399 0
M  V30 25 C -0.0319 -3.89811 3.60861 0
M  V30 26 C -0.9929 -3.77193 4.8207 0
M  V30 27 N -1.8559 -4.9673 4.96189 0
M  V30 28 H 2.9841 -1.04962 2.78903 0
M  V30 29 H 0.5211 -0.507088 1.38083 0
M  V30 30 H 2.4791 -3.48089 2.29978 0
M  V30 31 H 1.1091 -2.96194 1.28331 0
M  V30 32 H 0.1611 -1.74967 3.37773 0
M  V30 33 H 1.4731 -2.48685 4.32386 0
M  V30 34 H 0.6271 -4.77103 3.74777 0
M  V30 35 H -0.6339 -4.06102 2.7006 0
M  V30 36 H -1.6289 -2.88284 4.68159 0
M  V30 37 H -0.4039 -3.62421 5.74307 0
M  V30 38 H -2.4579 -5.13431 4.08319 0
M  V30 39 H -2.5409 -4.85839 5.79221 0
M  V30 40 H -1.2729 -5.85594 5.1449 0
M  V30 41 N 2.9562 -1.48159 -0.537278 0
M  V30 42 C 4.1842 -1.59454 -1.31841 0
M  V30 43 C 4.5992 -0.252065 -1.8711 0
M  V30 44 O 3.9562 0.757621 -1.66031 0
M  V30 45 C 4.0072 -2.63546 -2.47439 0
M  V30 46 O 3.7282 -3.92583 -1.94449 0
M  V30 47 C 5.2292 -2.85212 -3.39366 0
M  V30 48 H 2.4492 -0.53785 -0.401196 0
M  V30 49 H 4.9932 -1.93932 -0.648891 0
M  V30 50 H 3.1482 -2.31946 -3.1029 0
M  V30 51 H 3.5622 -4.49629 -2.70063 0
M  V30 52 H 5.0362 -3.61863 -4.16844 0
M  V30 53 H 5.5132 -1.93765 -3.94147 0
M  V30 54 H 6.1192 -3.18086 -2.82314 0
M  V30 55 N 4.4343 0.785586 -1.36625 0
M  V30 56 C 5.8503 1.08419 -1.17122 0
M  V30 57 C 6.0503 2.015 0.00208491 0
M  V30 58 O 5.1063 2.43551 0.666278 0
M  V30 59 C 6.4193 1.69498 -2.48377 0
M  V30 60 C 7.9673 1.81821 -2.54775 0
M  V30 61 C 8.4423 2.46315 -3.86126 0
M  V30 62 N 9.9333 2.53779 -3.87492 0
M  V30 63 C 10.6683 3.045 -4.85868 0
M  V30 64 N 10.1643 3.55499 -5.94637 0
M  V30 65 N 11.9573 3.03247 -4.73284 0
M  V30 66 H 4.1083 0.167264 -2.1174 0
M  V30 67 H 6.3713 0.13682 -0.938075 0
M  V30 68 H 6.0773 1.08571 -3.34522 0
M  V30 69 H 5.9513 2.6896 -2.64462 0
M  V30 70 H 8.3383 2.41884 -1.69045 0
M  V30 71 H 8.4193 0.811532 -2.42586 0
M  V30 72 H 8.0633 1.86895 -4.72263 0
M  V30 73 H 7.9933 3.47561 -3.95612 0
M  V30 74 H 10.4843 2.17672 -3.08913 0
M  V30 75 H 10.7973 3.92562 -6.65669 0
M  V30 76 H 9.1423 3.5364 -5.98301 0
M  V30 77 H 12.3333 2.62696 -3.87438 0
M  V30 78 H 12.5063 3.42467 -5.50109 0
M  V30 79 N 5.9124 1.20967 1.01018 0
M  V30 80 C 7.1614 1.01796 1.74128 0
M  V30 81 C 7.4744 -0.449691 1.90361 0
M  V30 82 O 8.6804 -0.76068 2.60626 0
M  V30 83 C 7.1364 1.7727 3.13215 0
M  V30 84 C 6.7444 3.28171 3.04972 0
M  V30 85 C 8.4884 1.66489 3.90489 0
M  V30 86 C 6.3954 3.96156 4.39107 0
M  V30 87 H 5.3254 0.377276 0.652824 0
M  V30 88 H 7.9764 1.44651 1.12909 0
M  V30 89 H 6.3584 1.27205 3.75013 0
M  V30 90 H 7.5324 3.85499 2.52443 0
M  V30 91 H 5.8474 3.39437 2.41188 0
M  V30 92 H 8.4444 2.14617 4.89738 0
M  V30 93 H 8.7874 0.6222 4.11624 0
M  V30 94 H 9.3204 2.14003 3.35332 0
M  V30 95 H 6.0594 5.00604 4.23174 0
M  V30 96 H 5.5794 3.43617 4.91617 0
M  V30 97 H 7.2584 4.00774 5.07926 0
M  V30 98 N 7.3905 -1.2043 1.01659 0
M  V30 99 C 8.6185 -1.93777 0.725132 0
M  V30 100 C 9.0335 -1.74772 -0.714166 0
M  V30 101 O 8.3905 -1.06169 -1.4844 0
M  V30 102 C 8.4415 -3.45876 1.05129 0
M  V30 103 O 8.1625 -3.6426 2.43406 0
M  V30 104 C 9.6635 -4.36368 0.780891 0
M  V30 105 H 6.8835 -0.615901 0.266284 0
M  V30 106 H 9.4275 -1.52922 1.35776 0
M  V30 107 H 7.5825 -3.8461 0.464065 0
M  V30 108 H 7.9965 -4.58246 2.55169 0
M  V30 109 H 9.4705 -5.41743 1.05918 0
M  V30 110 H 9.9475 -4.38275 -0.284937 0
M  V30 111 H 10.5535 -4.03296 1.35027 0
M  V30 112 N 8.8686 -0.792821 -1.36206 0
M  V30 113 C 9.7786 -0.194808 -2.3379 0
M  V30 114 C 10.7946 0.654869 -1.61206 0
M  V30 115 O 11.9706 0.569856 -1.9317 0
M  V30 116 C 9.0356 0.657721 -3.40404 0
M  V30 117 C 8.0966 -0.210849 -4.28782 0
M  V30 118 C 7.3296 0.601086 -5.30304 0
M  V30 119 O 7.5526 1.83682 -5.40016 0
M  V30 120 O 6.4866 -0.000808277 -6.019 0
M  V30 121 H 10.3126 -1.00172 -2.86704 0
M  V30 122 H 7.8976 -0.554341 -1.38735 0
M  V30 123 H 9.7796 1.14375 -4.05581 0
M  V30 124 H 8.4546 1.44247 -2.89784 0
M  V30 125 H 7.3616 -0.743714 -3.66633 0
M  V30 126 H 8.6946 -0.959195 -4.82763 0
M  V30 127 N 10.3467 1.47872 -0.545128 0
M  V30 128 C 11.2767 2.32661 0.197793 0
M  V30 129 C 12.2577 1.43041 0.920504 0
M  V30 130 O 13.4427 1.71912 0.90333 0
M  V30 131 C 10.5727 3.24569 1.23582 0
M  V30 132 C 9.5267 4.23333 0.630323 0
M  V30 133 C 8.8527 5.0448 1.77211 0
M  V30 134 C 10.1527 5.20704 -0.407974 0
M  V30 135 H 11.8467 2.95024 -0.510045 0
M  V30 136 H 9.3927 1.4187 -0.246731 0
M  V30 137 H 11.3457 3.8272 1.76362 0
M  V30 138 H 10.0697 2.60236 1.97344 0
M  V30 139 H 8.7287 3.6639 0.123922 0
M  V30 140 H 8.3767 4.36561 2.49847 0
M  V30 141 H 8.0767 5.71339 1.37281 0
M  V30 142 H 9.6007 5.65487 2.3034 0
M  V30 143 H 11.0147 5.7329 0.033305 0
M  V30 144 H 9.4117 5.95699 -0.725486 0
M  V30 145 H 10.4817 4.66917 -1.30828 0
M  V30 146 N 11.8248 0.280983 1.55075 0
M  V30 147 C 12.7548 -0.597469 2.25727 0
M  V30 148 C 13.7358 -1.15417 1.24952 0
M  V30 149 O 14.9208 -1.18722 1.53684 0
M  V30 150 C 12.0508 -1.7789 2.98283 0
M  V30 151 C 11.0048 -1.35347 4.06036 0
M  V30 152 C 10.3308 -2.61846 4.66198 0
M  V30 153 C 11.6308 -0.499354 5.19907 0
M  V30 154 H 13.3248 -0.00824265 2.99399 0
M  V30 155 H 10.8708 -0.0025244 1.44 0
M  V30 156 H 12.8238 -2.39937 3.46422 0
M  V30 157 H 11.5478 -2.39405 2.22155 0
M  V30 158 H 10.2068 -0.756156 3.58717 0
M  V30 159 H 9.8548 -3.21632 3.86732 0
M  V30 160 H 9.5548 -2.3409 5.38958 0
M  V30 161 H 11.0788 -3.24732 5.1709 0
M  V30 162 H 12.4928 -1.02498 5.64063 0
M  V30 163 H 10.8898 -0.316424 5.99265 0
M  V30 164 H 11.9598 0.480459 4.82514 0
M  V30 165 N 13.3029 -1.57598 0.00835791 0
M  V30 166 C 14.2499 -2.08945 -0.980346 0
M  V30 167 C 15.2199 -0.986738 -1.33614 0
M  V30 168 O 16.4049 -1.25968 -1.43306 0
M  V30 169 C 13.5449 -2.60425 -2.26435 0
M  V30 170 C 12.6579 -3.84628 -1.96685 0
M  V30 171 C 11.7929 -4.24579 -3.19228 0
M  V30 172 C 10.8319 -5.41596 -2.85202 0
M  V30 173 N 9.9689 -5.768 -4.00307 0
M  V30 174 H 14.8089 -2.93148 -0.535551 0
M  V30 175 H 12.3459 -1.44912 -0.252776 0
M  V30 176 H 14.3039 -2.88354 -3.01509 0
M  V30 177 H 12.9339 -1.79083 -2.68568 0
M  V30 178 H 11.9859 -3.63556 -1.11942 0
M  V30 179 H 13.2979 -4.69796 -1.67611 0
M  V30 180 H 12.4519 -4.53834 -4.02641 0
M  V30 181 H 11.1909 -3.38137 -3.51447 0
M  V30 182 H 10.1959 -5.12056 -2.00198 0
M  V30 183 H 11.4209 -6.29721 -2.54222 0
M  V30 184 H 9.3669 -4.93316 -4.32407 0
M  V30 185 H 9.2839 -6.5656 -3.74786 0
M  V30 186 H 10.5519 -6.10652 -4.84484 0
M  V30 187 N 14.781 0.264519 -1.55364 0
M  V30 188 C 16.03 0.992812 -1.75574 0
M  V30 189 C 16.343 1.87142 -0.568979 0
M  V30 190 O 17.549 2.63513 -0.653682 0
M  V30 191 C 16.005 1.81519 -3.10771 0
M  V30 192 C 15.613 0.984839 -4.37041 0
M  V30 193 C 17.357 2.53727 -3.40327 0
M  V30 194 C 15.264 1.80209 -5.63275 0
M  V30 195 H 14.194 0.374412 -0.65447 0
M  V30 196 H 16.845 0.248138 -1.81815 0
M  V30 197 H 15.227 2.60115 -2.98591 0
M  V30 198 H 16.401 0.242455 -4.60162 0
M  V30 199 H 14.716 0.37691 -4.14691 0
M  V30 200 H 17.313 3.15292 -4.3185 0
M  V30 201 H 17.656 3.24447 -2.60845 0
M  V30 202 H 18.189 1.82156 -3.53644 0
M  V30 203 H 14.928 1.13896 -6.45529 0
M  V30 204 H 14.448 2.52022 -5.44284 0
M  V30 205 H 16.127 2.37364 -6.01887 0
M  V30 206 N 16.2591 1.48442 0.529413 0
M  V30 207 C 17.5361 1.46978 1.29062 0
M  V30 208 C 17.9161 0.181769 2.10316 0
M  V30 209 O 17.2641 -0.836481 2.12639 0
M  V30 210 C 17.4741 2.7321 2.17157 0
M  V30 211 C 18.8221 3.21562 2.77278 0
M  V30 212 O 19.8461 2.74131 2.27444 0
M  V30 213 O 18.7051 4.04094 3.67927 0
M  V30 214 H 15.7991 0.587003 0.582543 0
M  V30 215 H 18.3451 1.60676 0.546021 0
M  V30 216 H 17.1171 3.58465 1.56903 0
M  V30 217 H 16.7401 2.62235 2.98862 0
M  V30 218 N 17.7372 -0.778329 1.37039 0
M  V30 219 C 18.9672 -1.56507 1.34868 0
M  V30 220 C 19.3752 -1.89072 -0.0694802 0
M  V30 221 O 18.7182 -1.51434 -1.03987 0
M  V30 222 C 18.7802 -2.90641 2.11585 0
M  V30 223 C 18.4442 -2.80746 3.60598 0
M  V30 224 C 19.4412 -2.52226 4.54618 0
M  V30 225 C 17.1262 -2.98974 4.03633 0
M  V30 226 C 19.1202 -2.42054 5.89651 0
M  V30 227 C 16.8072 -2.88423 5.38754 0
M  V30 228 C 17.8052 -2.60002 6.31576 0
M  V30 229 O 17.4932 -2.49465 7.64214 0
M  V30 230 H 17.2252 -0.491723 0.463879 0
M  V30 231 H 19.7792 -0.973053 1.80889 0
M  V30 232 H 18.0092 -3.51936 1.60243 0
M  V30 233 H 19.6982 -3.51992 2.0213 0
M  V30 234 H 20.4642 -2.37835 4.22681 0
M  V30 235 H 16.3432 -3.20099 3.31749 0
M  V30 236 H 19.8872 -2.19791 6.62071 0
M  V30 237 H 15.7842 -3.0238 5.70295 0
M  V30 238 H 16.5522 -2.64864 7.74461 0
M  V30 239 N 19.2153 -1.21501 -1.00376 0
M  V30 240 C 20.6263 -1.03146 -1.55621 0
M  V30 241 C 20.9773 0.408375 -1.91903 0
M  V30 242 O 20.1023 1.29177 -1.73616 0
M  V30 243 C 20.6973 -1.86612 -2.82775 0
M  V30 244 C 19.2563 -1.72586 -3.34501 0
M  V30 245 C 18.4033 -1.83747 -2.07683 0
M  V30 246 H 21.3543 -1.35505 -0.826081 0
M  V30 247 H 21.3753 -1.3771 -3.54706 0
M  V30 248 H 20.8873 -2.91399 -2.56336 0
M  V30 249 H 18.9883 -0.704877 -3.65872 0
M  V30 250 H 19.1013 -2.54623 -4.05837 0
M  V30 251 H 17.4653 -1.27069 -2.20739 0
M  V30 252 H 18.2483 -2.90044 -1.83655 0
M  V30 253 N 20.6934 1.19889 -1.02296 0
M  V30 254 C 21.9424 1.88743 -0.711257 0
M  V30 255 C 22.2554 1.80112 0.762817 0
M  V30 256 O 23.4614 2.44161 1.18733 0
M  V30 257 C 21.9174 3.38525 -1.22185 0
M  V30 258 C 21.5254 3.55727 -2.72328 0
M  V30 259 C 23.2694 4.12893 -0.985864 0
M  V30 260 C 21.1764 4.99369 -3.16835 0
M  V30 261 H 20.1064 0.706885 -0.262353 0
M  V30 262 H 22.7574 1.35586 -1.23648 0
M  V30 263 H 21.1394 3.91044 -0.624571 0
M  V30 264 H 22.3134 3.13564 -3.3766 0
M  V30 265 H 20.6284 2.94739 -2.9414 0
M  V30 266 H 23.2254 5.18813 -1.29374 0
M  V30 267 H 23.5684 4.16228 0.0775055 0
M  V30 268 H 24.1014 3.66494 -1.54684 0
M  V30 269 H 20.8404 5.01193 -4.22476 0
M  V30 270 H 20.3604 5.42317 -2.56228 0
M  V30 271 H 22.0394 5.67988 -3.09837 0
M  V30 272 N 22.1715 0.800033 1.35784 0
M  V30 273 C 23.4185 0.377342 1.98953 0
M  V30 274 C 23.7465 -1.05378 1.6348 0
M  V30 275 O 23.0015 -1.74459 0.886707 0
M  V30 276 C 23.3005 0.500276 3.53881 0
M  V30 277 C 22.9665 1.89375 4.09204 0
M  V30 278 C 21.6285 2.27499 4.24025 0
M  V30 279 C 23.9805 2.8057 4.39238 0
M  V30 280 C 21.3085 3.562 4.66195 0
M  V30 281 C 23.6605 4.0871 4.82844 0
M  V30 282 C 22.3245 4.46843 4.95871 0
M  V30 283 H 21.5945 0.138079 0.728021 0
M  V30 284 H 24.2415 1.01955 1.62103 0
M  V30 285 H 22.5465 -0.225405 3.91151 0
M  V30 286 H 24.2435 0.154097 4.00704 0
M  V30 287 H 20.8335 1.58753 3.98115 0
M  V30 288 H 25.0175 2.52367 4.27346 0
M  V30 289 H 20.2735 3.85602 4.74469 0
M  V30 290 H 24.4475 4.79481 5.05046 0
M  V30 291 H 22.0745 5.46623 5.28306 0
M  V30 292 N 23.6496 -1.47581 0.552962 0
M  V30 293 C 24.5816 -2.27997 -0.234533 0
M  V30 294 C 25.5946 -1.36753 -0.883321 0
M  V30 295 O 26.7836 -1.61612 -0.757889 0
M  V30 296 C 23.8836 -3.10879 -1.34935 0
M  V30 297 C 23.0566 -4.30056 -0.798158 0
M  V30 298 C 22.1156 -4.94567 -1.79694 0
M  V30 299 O 21.1416 -5.53087 -1.34474 0
M  V30 300 N 22.3436 -4.88878 -3.13015 0
M  V30 301 H 25.1086 -2.96222 0.455255 0
M  V30 302 H 22.6696 -1.57163 0.388761 0
M  V30 303 H 24.6616 -3.50903 -2.01616 0
M  V30 304 H 23.2316 -2.44924 -1.94244 0
M  V30 305 H 22.4516 -3.94174 0.0453079 0
M  V30 306 H 23.7396 -5.07152 -0.409173 0
M  V30 307 H 23.1376 -4.42526 -3.52402 0
M  V30 308 H 21.6946 -5.32934 -3.75266 0
M  V30 309 N 25.1277 -0.289203 -1.54924 0
M  V30 310 C 26.3757 0.322879 -1.99504 0
M  V30 311 C 26.6967 1.55313 -1.1791 0
M  V30 312 O 25.9667 1.94001 -0.272097 0
M  V30 313 H 24.5467 0.122291 -0.736922 0
M  V30 314 H 27.2087 -0.397802 -1.90797 0
M  V30 315 H 26.3047 0.603061 -3.06218 0
M  V30 316 N 26.6058 1.57591 -0.0167156 0
M  V30 317 C 27.8538 1.90906 0.663285 0
M  V30 318 C 28.1748 0.892509 1.73376 0
M  V30 319 O 27.4448 -0.0677623 1.95783 0
M  V30 320 H 26.0248 0.704637 0.247983 0
M  V30 321 H 28.6868 1.94803 -0.0615909 0
M  V30 322 H 27.7828 2.9116 1.12393 0
M  V30 323 N 28.0839 -0.256276 1.55502 0
M  V30 324 C 29.0169 -1.34321 1.84481 0
M  V30 325 C 29.9949 -1.46802 0.699131 0
M  V30 326 O 31.1789 -1.63165 0.943904 0
M  V30 327 C 28.3059 -2.71779 2.02123 0
M  V30 328 C 27.3519 -2.76496 3.24734 0
M  V30 329 S 28.1849 -2.3405 4.81644 0
M  V30 330 C 29.3409 -3.73452 5.02279 0
M  V30 331 H 29.5739 -1.09539 2.76385 0
M  V30 332 H 27.1069 -0.45678 1.47489 0
M  V30 333 H 29.0649 -3.50932 2.12972 0
M  V30 334 H 27.7259 -2.93803 1.11078 0
M  V30 335 H 26.9189 -3.77424 3.34016 0
M  V30 336 H 26.5209 -2.05379 3.12563 0
M  V30 337 H 28.8129 -4.6887 4.89047 0
M  V30 338 H 29.7559 -3.6911 6.04287 0
M  V30 339 H 30.1639 -3.6553 4.30172 0
M  V30 340 N 29.562 -1.4872 -0.521534 0
M  V30 341 C 30.525 -1.63379 -1.60748 0
M  V30 342 C 31.525 -0.50661 -1.52611 0
M  V30 343 O 32.715 -0.772601 -1.5613 0
M  V30 344 C 29.847 -1.61192 -3.00383 0
M  V30 345 H 31.04 -2.60217 -1.49087 0
M  V30 346 H 28.593 -1.37444 -0.744235 0
M  V30 347 H 29.328 -0.65863 -3.17541 0
M  V30 348 H 29.113 -2.43032 -3.07698 0
M  V30 349 H 30.603 -1.7466 -3.7932 0
M  V30 350 N 31.0401 0.771051 -1.3745 0
M  V30 351 C 32.2861 1.53109 -1.339 0
M  V30 352 C 32.6411 1.9225 0.0758401 0
M  V30 353 O 31.9341 1.61264 1.03463 0
M  V30 354 C 32.1281 2.80676 -2.2126 0
M  V30 355 C 31.9571 2.54003 -3.71096 0
M  V30 356 C 30.7271 2.48097 -4.402 0
M  V30 357 C 32.9251 2.21953 -4.63941 0
M  V30 358 N 30.9071 2.13515 -5.75573 0
M  V30 359 C 32.2781 1.97516 -5.87697 0
M  V30 360 C 34.3331 2.08114 -4.5232 0
M  V30 361 C 33.0361 1.60638 -7.01133 0
M  V30 362 C 35.0621 1.72636 -5.65642 0
M  V30 363 C 34.4241 1.4906 -6.88448 0
M  V30 364 H 30.5231 0.56055 -0.54526 0
M  V30 365 H 33.1071 0.899472 -1.72678 0
M  V30 366 H 31.2781 3.41674 -1.84698 0
M  V30 367 H 33.0101 3.46578 -2.08963 0
M  V30 368 H 29.7651 2.63974 -3.93211 0
M  V30 369 H 30.1891 1.98919 -6.47117 0
M  V30 370 H 34.8311 2.25024 -3.57944 0
M  V30 371 H 32.5491 1.42467 -7.95443 0
M  V30 372 H 36.1351 1.62586 -5.58621 0
M  V30 373 H 35.0151 1.22014 -7.7465 0
M  V30 374 N 32.5182 1.22032 0.997298 0
M  V30 375 C 33.7642 1.04376 1.73878 0
M  V30 376 C 34.0972 -0.420716 1.89588 0
M  V30 377 O 33.3722 -1.31202 1.43583 0
M  V30 378 C 33.6552 1.75047 3.14691 0
M  V30 379 C 33.5082 3.29062 3.06656 0
M  V30 380 C 34.8272 1.49928 4.13775 0
M  V30 381 H 31.9462 0.380578 0.631133 0
M  V30 382 H 34.5882 1.50312 1.16217 0
M  V30 383 H 32.7382 1.35996 3.63919 0
M  V30 384 H 34.4102 3.7753 2.65083 0
M  V30 385 H 32.6532 3.58967 2.43568 0
M  V30 386 H 33.3242 3.73683 4.06282 0
M  V30 387 H 35.8002 1.83842 3.73285 0
M  V30 388 H 34.6762 2.01878 5.10428 0
M  V30 389 H 34.9372 0.430929 4.39995 0
M  V30 390 N 33.9963 -1.19345 1.0293 0
M  V30 391 C 34.9593 -2.20793 0.615069 0
M  V30 392 C 35.9593 -1.57553 -0.321533 0
M  V30 393 O 37.1493 -1.73862 -0.108483 0
M  V30 394 C 34.2813 -3.40754 -0.0999222 0
M  V30 395 H 35.4743 -2.58955 1.51269 0
M  V30 396 H 33.0273 -1.3303 0.820534 0
M  V30 397 H 33.7623 -3.0811 -1.01187 0
M  V30 398 H 33.5473 -3.87889 0.57309 0
M  V30 399 H 35.0373 -4.15898 -0.376645 0
M  V30 400 N 35.4744 -0.807222 -1.35358 0
M  V30 401 C 36.7514 -0.311126 -1.9311 0
M  V30 402 C 37.1314 1.19937 -1.73719 0
M  V30 403 O 36.4794 1.99918 -1.10657 0
M  V30 404 C 36.6894 -0.723226 -3.41424 0
M  V30 405 C 38.0374 -0.713078 -4.18569 0
M  V30 406 O 39.0614 -0.664811 -3.49941 0
M  V30 407 O 37.9204 -0.772022 -5.41019 0
M  V30 408 H 35.0144 -0.081526 -0.822972 0
M  V30 409 H 37.5604 -0.890962 -1.4443 0
M  V30 410 H 36.3324 -1.76426 -3.4927 0
M  V30 411 H 35.9554 -0.118232 -3.97424 0
M  V30 412 N 36.9525 1.47285 -0.560781 0
M  V30 413 C 38.2005 2.02064 -0.0379868 0
M  V30 414 C 38.5215 1.43711 1.31803 0
M  V30 415 O 37.7915 0.61362 1.86042 0
M  V30 416 H 36.3715 0.746918 -0.0110531 0
M  V30 417 H 39.0335 1.80648 -0.731598 0
M  V30 418 H 38.1295 3.12064 0.0474463 0
M  V30 419 N 38.4306 0.297415 1.54768 0
M  V30 420 C 39.7076 -0.365847 1.92148 0
M  V30 421 C 40.0876 -1.71975 1.22424 0
M  V30 422 O 39.4356 -2.25666 0.358739 0
M  V30 423 C 39.6456 -0.484056 3.45627 0
M  V30 424 C 40.9936 -0.756594 4.17805 0
M  V30 425 O 42.0176 -0.568007 3.51642 0
M  V30 426 O 40.8766 -1.11863 5.34929 0
M  V30 427 H 37.9706 -0.203919 0.801465 0
M  V30 428 H 40.5166 0.34521 1.66152 0
M  V30 429 H 39.2886 0.467865 3.88493 0
M  V30 430 H 38.9116 -1.24372 3.77647 0
M  V30 431 N 39.9087 -1.5758 0.0250728 0
M  V30 432 C 40.8387 -2.13007 -0.956575 0
M  V30 433 C 41.8197 -1.0452 -1.342 0
M  V30 434 O 43.0047 -1.32332 -1.42133 0
M  V30 435 C 40.1347 -2.65386 -2.24026 0
M  V30 436 C 39.0887 -3.78623 -1.99571 0
M  V30 437 C 38.4147 -4.17414 -3.3417 0
M  V30 438 C 39.7147 -5.04867 -1.33814 0
M  V30 439 H 41.4087 -2.9528 -0.494991 0
M  V30 440 H 38.9547 -1.42042 -0.236651 0
M  V30 441 H 40.9077 -3.02794 -2.93076 0
M  V30 442 H 39.6317 -1.80268 -2.72343 0
M  V30 443 H 38.2907 -3.41646 -1.32941 0
M  V30 444 H 37.9387 -3.29284 -3.80238 0
M  V30 445 H 37.6387 -4.93719 -3.18615 0
M  V30 446 H 39.1627 -4.57402 -4.04495 0
M  V30 447 H 40.5767 -5.39888 -1.92857 0
M  V30 448 H 38.9737 -5.86144 -1.28669 0
M  V30 449 H 40.0437 -4.83904 -0.310561 0
M  V30 450 N 41.3868 0.248026 -1.55636 0
M  V30 451 C 42.3498 1.29044 -1.89421 0
M  V30 452 C 43.3498 1.41134 -0.770581 0
M  V30 453 O 44.5398 1.39854 -1.03858 0
M  V30 454 C 41.6718 2.66831 -2.12165 0
M  V30 455 H 42.8648 1.00305 -2.82629 0
M  V30 456 H 40.4178 0.487265 -1.48511 0
M  V30 457 H 41.1528 3.00711 -1.21422 0
M  V30 458 H 40.9378 2.59438 -2.93997 0
M  V30 459 H 42.4278 3.42103 -2.3949 0
M  V30 460 N 42.8649 1.48995 0.513639 0
M  V30 461 C 44.1129 1.57531 1.26604 0
M  V30 462 C 44.4339 0.258236 1.93283 0
M  V30 463 O 43.7039 -0.721502 1.8213 0
M  V30 464 H 42.2839 0.580387 0.470276 0
M  V30 465 H 44.9459 1.85552 0.596373 0
M  V30 466 H 44.0419 2.36486 2.03669 0
M  V30 467 N 44.343 -0.763751 1.37857 0
M  V30 468 C 45.306 -1.85889 1.34081 0
M  V30 469 C 46.306 -1.58949 0.243277 0
M  V30 470 O 47.496 -1.66882 0.499589 0
M  V30 471 C 44.628 -3.23176 1.08489 0
M  V30 472 H 45.821 -1.90648 2.31502 0
M  V30 473 H 43.374 -0.964367 1.23003 0
M  V30 474 H 44.109 -3.24091 0.116318 0
M  V30 475 H 43.894 -3.44124 1.8794 0
M  V30 476 H 45.384 -4.03254 1.08517 0
M  V30 477 N 45.8211 -1.22559 -0.990812 0
M  V30 478 C 47.0671 -1.05297 -1.73322 0
M  V30 479 C 47.4001 0.410655 -1.89808 0
M  V30 480 O 46.6751 1.30439 -1.44277 0
M  V30 481 C 46.9581 -1.76713 -3.13759 0
M  V30 482 C 46.8111 -3.30684 -3.04907 0
M  V30 483 C 48.1301 -1.52121 -4.12974 0
M  V30 484 H 45.2491 -0.38392 -0.629106 0
M  V30 485 H 47.8911 -1.50926 -1.15418 0
M  V30 486 H 46.0411 -1.37924 -3.63193 0
M  V30 487 H 47.7131 -3.7893 -2.63077 0
M  V30 488 H 45.9561 -3.60253 -2.41661 0
M  V30 489 H 46.6271 -3.75833 -4.04294 0
M  V30 490 H 49.1031 -1.85819 -3.72304 0
M  V30 491 H 47.9791 -2.04582 -5.0935 0
M  V30 492 H 48.2401 -0.454257 -4.3976 0
M  V30 493 N 47.2992 1.18797 -1.03562 0
M  V30 494 C 48.5242 1.9314 -0.755764 0
M  V30 495 C 48.9492 1.7537 0.68022 0
M  V30 496 O 48.3072 1.06046 1.47051 0
M  V30 497 C 48.3552 3.42747 -1.12058 0
M  V30 498 O 47.4592 4.11683 -0.243124 0
M  V30 499 H 46.8002 0.602724 -0.278604 0
M  V30 500 H 49.3302 1.50678 -1.3841 0
M  V30 501 H 49.3402 3.93437 -1.08035 0
M  V30 502 H 48.0152 3.55002 -2.16672 0
M  V30 503 H 46.5922 3.71323 -0.342539 0
M  V30 504 N 48.7773 0.814389 1.34928 0
M  V30 505 C 49.7243 0.22822 2.29669 0
M  V30 506 C 50.6943 -0.642164 1.53184 0
M  V30 507 O 51.8793 -0.585605 1.81591 0
M  V30 508 C 49.0193 -0.61089 3.3965 0
M  V30 509 C 48.1323 0.280792 4.31086 0
M  V30 510 C 47.2673 -0.567067 5.28165 0
M  V30 511 C 46.3063 0.324531 6.11239 0
M  V30 512 N 45.4433 -0.483756 7.00431 0
M  V30 513 H 50.2833 1.04153 2.79206 0
M  V30 514 H 47.8203 0.525133 1.37407 0
M  V30 515 H 49.7783 -1.11263 4.0209 0
M  V30 516 H 48.4083 -1.38939 2.91369 0
M  V30 517 H 47.4603 0.900688 3.69583 0
M  V30 518 H 48.7723 0.966723 4.89342 0
M  V30 519 H 47.9263 -1.13363 5.96015 0
M  V30 520 H 46.6653 -1.28654 4.70425 0
M  V30 521 H 45.6703 0.903298 5.42329 0
M  V30 522 H 46.8953 1.04198 6.71059 0
M  V30 523 H 44.8413 -1.18706 6.45171 0
M  V30 524 H 44.7583 0.143965 7.55863 0
M  V30 525 H 46.0263 -1.03334 7.7262 0
M  V30 526 N 50.2554 -1.46986 0.568584 0
M  V30 527 C 51.2184 -2.28624 -0.162366 0
M  V30 528 C 52.2184 -1.37596 -0.832103 0
M  V30 529 O 53.4084 -1.60115 -0.68622 0
M  V30 530 C 50.5404 -3.17596 -1.23878 0
M  V30 531 H 51.7334 -2.94722 0.554899 0
M  V30 532 H 49.2864 -1.52863 0.325976 0
M  V30 533 H 50.0214 -2.56214 -1.98808 0
M  V30 534 H 49.8064 -3.846 -0.763219 0
M  V30 535 H 51.2964 -3.79078 -1.75185 0
M  V30 536 N 51.7335 -0.305618 -1.54608 0
M  V30 537 C 52.9815 0.301701 -1.99835 0
M  V30 538 C 53.3025 1.54054 -1.19551 0
M  V30 539 O 52.5725 1.93702 -0.292658 0
M  V30 540 H 51.1525 0.114468 -0.738178 0
M  V30 541 H 53.8145 -0.418016 -1.90364 0
M  V30 542 H 52.9105 0.570548 -3.06841 0
M  V30 543 N 53.2116 1.57565 -0.0334293 0
M  V30 544 C 54.4596 1.91598 0.642999 0
M  V30 545 C 54.7806 0.910847 1.7242 0
M  V30 546 O 54.0506 -0.0469931 1.95844 0
M  V30 547 H 52.6306 0.707228 0.240496 0
M  V30 548 H 55.2926 1.94726 -0.0822488 0
M  V30 549 H 54.3886 2.92336 1.09298 0
M  V30 550 N 54.6897 -0.239769 1.55765 0
M  V30 551 C 55.6197 -1.30052 1.9393 0
M  V30 552 C 56.6007 -1.49839 0.805132 0
M  V30 553 O 57.7857 -1.62328 1.06599 0
M  V30 554 C 54.9157 -2.65391 2.2402 0
M  V30 555 C 53.8697 -2.60289 3.39755 0
M  V30 556 C 53.1957 -3.99489 3.55405 0
M  V30 557 C 54.4957 -2.16654 4.75246 0
M  V30 558 H 56.1897 -0.983573 2.82783 0
M  V30 559 H 53.7357 -0.471701 1.36055 0
M  V30 560 H 55.6887 -3.3974 2.49308 0
M  V30 561 H 54.4127 -2.98736 1.32 0
M  V30 562 H 53.0717 -1.88398 3.14487 0
M  V30 563 H 52.7197 -4.30112 2.60793 0
M  V30 564 H 52.4197 -3.96962 4.33238 0
M  V30 565 H 53.9437 -4.75528 3.83022 0
M  V30 566 H 55.3577 -2.80737 4.99859 0
M  V30 567 H 53.7547 -2.25223 5.56232 0
M  V30 568 H 54.8247 -1.11835 4.71827 0
M  V30 569 N 56.1678 -1.49265 -0.50573 0
M  V30 570 C 57.4158 -1.582 -1.25766 0
M  V30 571 C 57.7368 -0.268482 -1.93143 0
M  V30 572 O 57.0068 0.711833 -1.8251 0
M  V30 573 H 55.5868 -0.582873 -0.467191 0
M  V30 574 H 58.2488 -1.85865 -0.586525 0
M  V30 575 H 57.3448 -2.37563 -2.02412 0
M  V30 576 N 57.6459 0.756429 -1.3826 0
M  V30 577 C 58.8949 1.51082 -1.3363 0
M  V30 578 C 59.2079 1.95467 0.0720068 0
M  V30 579 O 60.4139 2.7043 0.240834 0
M  V30 580 C 58.8699 2.72893 -2.34644 0
M  V30 581 C 58.4779 2.35544 -3.81081 0
M  V30 582 C 60.2219 3.50791 -2.39052 0
M  V30 583 C 58.1289 3.53948 -4.73787 0
M  V30 584 H 57.0589 0.56727 -0.49671 0
M  V30 585 H 59.7099 0.827147 -1.638 0
M  V30 586 H 58.0919 3.43227 -1.97513 0
M  V30 587 H 59.2659 1.72894 -4.27135 0
M  V30 588 H 57.5809 1.70786 -3.79764 0
M  V30 589 H 60.1779 4.38823 -3.05513 0
M  V30 590 H 60.5209 3.91745 -1.40861 0
M  V30 591 H 61.0539 2.87467 -2.74968 0
M  V30 592 H 57.7929 3.18064 -5.73163 0
M  V30 593 H 57.3129 4.15651 -4.32428 0
M  V30 594 H 58.9919 4.20566 -4.91663 0
M  V30 595 N 59.124 1.23083 0.984299 0
M  V30 596 C 60.373 1.05466 1.71929 0
M  V30 597 C 60.686 -0.409211 1.91272 0
M  V30 598 O 61.892 -0.705226 2.62181 0
M  V30 599 C 60.348 1.83874 3.09384 0
M  V30 600 C 59.956 3.34566 2.97943 0
M  V30 601 C 61.7 1.74734 3.8687 0
M  V30 602 C 59.607 4.05381 4.30605 0
M  V30 603 H 58.537 0.391039 0.644674 0
M  V30 604 H 61.188 1.47013 1.09815 0
M  V30 605 H 59.57 1.35131 3.72231 0
M  V30 606 H 60.744 3.90767 2.44209 0
M  V30 607 H 59.059 3.44476 2.33934 0
M  V30 608 H 61.656 2.24957 4.85076 0
M  V30 609 H 61.999 0.709372 4.10212 0
M  V30 610 H 62.532 2.21067 3.30717 0
M  V30 611 H 59.271 5.09467 4.1246 0
M  V30 612 H 58.791 3.53967 4.84218 0
M  V30 613 H 60.47 4.11458 4.99311 0
M  V30 614 N 60.6021 -1.18246 1.0419 0
M  V30 615 C 61.8501 -1.87886 0.744543 0
M  V30 616 C 62.1711 -1.8082 -0.730006 0
M  V30 617 O 61.4411 -1.22736 -1.52685 0
M  V30 618 H 60.0211 -0.695556 0.272417 0
M  V30 619 H 62.6831 -1.43494 1.31892 0
M  V30 620 H 61.7791 -2.9389 1.05049 0
M  V30 621 N 62.0802 -0.821533 -1.34494 0
M  V30 622 C 63.3282 -0.408139 -1.97936 0
M  V30 623 C 63.6492 1.03193 -1.65457 0
M  V30 624 O 62.9192 1.71622 -0.944595 0
M  V30 625 H 61.4992 -0.147928 -0.732206 0
M  V30 626 H 64.1612 -1.05067 -1.64155 0
M  V30 627 H 63.2572 -0.52601 -3.07635 0
M  V30 628 N 63.5583 1.46682 -0.576371 0
M  V30 629 C 64.8063 2.02013 -0.0594163 0
M  V30 630 C 65.1273 1.45101 1.30271 0
M  V30 631 O 64.3973 0.633317 1.8538 0
M  V30 632 H 62.9773 0.746759 -0.0189745 0
M  V30 633 H 65.6393 1.79862 -0.750717 0
M  V30 634 H 64.7353 3.12097 0.014345 0
M  V30 635 N 65.0364 0.313813 1.54444 0
M  V30 636 C 65.9844 -0.572171 2.25453 0
M  V30 637 C 66.9784 -1.12657 1.2651 0
M  V30 638 O 68.1844 -1.07573 1.44319 0
M  V30 639 H 64.5594 -0.203146 0.724041 0
M  V30 640 H 66.5304 0.0491145 2.9836 0
M  V30 641 C 65.2794 -1.72626 3.0182 0
M  V30 642 H 64.6024 -1.30891 3.77767 0
M  V30 643 H 66.0424 -2.32199 3.54767 0
M  V30 644 C 64.5014 -2.63806 2.09542 0
M  V30 645 O 65.0314 -3.65256 1.67185 0
M  V30 646 N 63.2374 -2.31824 1.75232 0
M  V30 647 H 62.7844 -1.49368 2.09873 0
M  V30 648 H 62.7424 -2.93095 1.13767 0
M  V30 649 N 66.5145 -1.57545 0.0417849 0
M  V30 650 C 67.4775 -2.09885 -0.92093 0
M  V30 651 C 68.4775 -1.01648 -1.24596 0
M  V30 652 O 69.6675 -1.27759 -1.1842 0
M  V30 653 C 66.7995 -2.57527 -2.23367 0
M  V30 654 H 67.9925 -2.96236 -0.467382 0
M  V30 655 H 65.5455 -1.5493 -0.206467 0
M  V30 656 H 66.2805 -1.74542 -2.73323 0
M  V30 657 H 66.0655 -3.36613 -2.01083 0
M  V30 658 H 67.5555 -2.98201 -2.92346 0
M  V30 659 N 67.9926 0.231505 -1.5589 0
M  V30 660 C 69.4036 0.799327 -1.68724 0
M  V30 661 C 69.7546 1.85398 -0.642022 0
M  V30 662 O 68.8796 2.1539 0.208784 0
M  V30 663 C 69.4746 1.45664 -3.05888 0
M  V30 664 C 68.0336 1.97197 -3.20609 0
M  V30 665 C 67.1806 0.828552 -2.64632 0
M  V30 666 H 70.1316 0.00702616 -1.58698 0
M  V30 667 H 70.1526 2.32517 -3.01191 0
M  V30 668 H 69.6646 0.688808 -3.81939 0
M  V30 669 H 67.7656 2.76813 -2.4941 0
M  V30 670 H 67.8786 2.15878 -4.27707 0
M  V30 671 H 66.2426 1.23321 -2.22854 0
M  V30 672 H 67.0256 0.0735544 -3.43221 0
M  V30 673 N 69.4707 1.49531 0.497807 0
M  V30 674 C 70.4177 1.66436 1.59899 0
M  V30 675 C 71.3877 0.505793 1.58212 0
M  V30 676 O 72.5727 0.733202 1.7615 0
M  V30 677 C 69.7127 1.7399 2.98029 0
M  V30 678 C 68.8257 3.01172 3.09708 0
M  V30 679 C 67.9607 2.99686 4.38591 0
M  V30 680 C 66.9997 4.21434 4.43914 0
M  V30 681 N 66.1367 4.1784 5.64229 0
M  V30 682 H 70.9767 2.60459 1.44793 0
M  V30 683 H 68.5137 1.29137 0.704423 0
M  V30 684 H 70.4717 1.76352 3.78095 0
M  V30 685 H 69.1017 0.834301 3.11832 0
M  V30 686 H 68.1537 3.08408 2.22685 0
M  V30 687 H 69.4657 3.91165 3.09502 0
M  V30 688 H 68.6197 3.00628 5.2698 0
M  V30 689 H 67.3587 2.07477 4.41367 0
M  V30 690 H 66.3637 4.20733 3.53926 0
M  V30 691 H 67.5887 5.14839 4.42851 0
M  V30 692 H 65.5347 3.28469 5.67841 0
M  V30 693 H 65.4517 5.01571 5.65652 0
M  V30 694 H 66.7197 4.22889 6.54817 0
M  V30 695 N 70.9488 -0.749086 1.3866 0
M  V30 696 C 71.8588 -1.89358 1.38494 0
M  V30 697 C 72.8748 -1.71708 0.281476 0
M  V30 698 O 74.0508 -1.94554 0.520643 0
M  V30 699 C 71.1158 -3.24782 1.21316 0
M  V30 700 C 70.1768 -3.54926 2.41508 0
M  V30 701 C 69.4098 -4.83888 2.2514 0
M  V30 702 O 69.6328 -5.56592 1.24746 0
M  V30 703 O 68.5668 -5.13612 3.13826 0
M  V30 704 H 72.3928 -1.92452 2.34938 0
M  V30 705 H 69.9778 -0.894981 1.19626 0
M  V30 706 H 71.8598 -4.05739 1.13814 0
M  V30 707 H 70.5348 -3.2249 0.279592 0
M  V30 708 H 69.4418 -2.74112 2.54585 0
M  V30 709 H 70.7748 -3.61983 3.3351 0
M  V30 710 N 72.4269 -1.23603 -0.977757 0
M  V30 711 C 73.6729 -1.07129 -1.72195 0
M  V30 712 C 74.0059 0.390501 -1.90233 0
M  V30 713 O 73.2809 1.28902 -1.45653 0
M  V30 714 C 73.5639 -1.80031 -3.11867 0
M  V30 715 C 73.4169 -3.33899 -3.01383 0
M  V30 716 C 74.7359 -1.56492 -4.11337 0
M  V30 717 H 71.8549 -0.390571 -0.624999 0
M  V30 718 H 74.4969 -1.52142 -1.13811 0
M  V30 719 H 72.6469 -1.41768 -3.6171 0
M  V30 720 H 74.3189 -3.81699 -2.59043 0
M  V30 721 H 72.5619 -3.62796 -2.37827 0
M  V30 722 H 73.2329 -3.801 -4.00285 0
M  V30 723 H 75.7089 -1.89757 -3.70313 0
M  V30 724 H 74.5849 -2.09973 -5.07151 0
M  V30 725 H 74.8459 -0.500874 -4.39254 0
M  V30 726 N 73.905 1.17692 -1.04816 0
M  V30 727 C 75.151 1.88137 -0.75711 0
M  V30 728 C 75.484 1.80604 0.713841 0
M  V30 729 O 74.759 1.21146 1.52164 0
M  V30 730 C 75.042 3.38318 -1.2334 0
M  V30 731 C 74.895 3.54622 -2.76701 0
M  V30 732 C 76.214 4.32214 -0.829415 0
M  V30 733 H 73.333 0.683163 -0.27651 0
M  V30 734 H 75.975 1.38424 -1.30149 0
M  V30 735 H 74.125 3.80787 -0.770286 0
M  V30 736 H 75.797 3.21194 -3.31107 0
M  V30 737 H 74.04 2.97026 -3.16161 0
M  V30 738 H 74.711 4.60028 -3.05088 0
M  V30 739 H 77.187 3.97565 -1.22805 0
M  V30 740 H 76.063 5.35838 -1.19033 0
M  V30 741 H 76.324 4.41294 0.266891 0
M  V30 742 N 75.3831 0.828654 1.34056 0
M  V30 743 C 76.3301 0.252567 2.29414 0
M  V30 744 C 77.3001 -0.62588 1.53857 0
M  V30 745 O 78.4851 -0.566312 1.82202 0
M  V30 746 C 75.6251 -0.574831 3.40279 0
M  V30 747 C 74.7381 0.326499 4.30764 0
M  V30 748 C 73.8731 -0.511016 5.28736 0
M  V30 749 C 72.9121 0.389342 6.1086 0
M  V30 750 N 72.0491 -0.409439 7.00905 0
M  V30 751 H 76.8891 1.07108 2.78086 0
M  V30 752 H 74.4261 0.539677 1.36843 0
M  V30 753 H 76.3841 -1.06992 4.03248 0
M  V30 754 H 75.0141 -1.35841 2.92826 0
M  V30 755 H 74.0661 0.939837 3.68607 0
M  V30 756 H 75.3781 1.01857 4.88289 0
M  V30 757 H 74.5321 -1.07035 5.97184 0
M  V30 758 H 73.2711 -1.23657 4.71763 0
M  V30 759 H 72.2761 0.960769 5.4134 0
M  V30 760 H 73.5011 1.1131 6.69916 0
M  V30 761 H 71.4471 -1.11856 6.46393 0
M  V30 762 H 71.3641 0.224126 7.55668 0
M  V30 763 H 72.6321 -0.951336 7.73673 0
M  V30 764 N 76.8612 -1.46375 0.584142 0
M  V30 765 C 77.8242 -2.28784 -0.138108 0
M  V30 766 C 78.8242 -1.38471 -0.817462 0
M  V30 767 O 80.0142 -1.60833 -0.669199 0
M  V30 768 C 77.1462 -3.18892 -1.20503 0
M  V30 769 H 78.3392 -2.94117 0.586127 0
M  V30 770 H 75.8922 -1.52509 0.342171 0
M  V30 771 H 76.6272 -2.58309 -1.96079 0
M  V30 772 H 76.4122 -3.85388 -0.722384 0
M  V30 773 H 77.9022 -3.80914 -1.71155 0
M  V30 774 N 78.3393 -0.321999 -1.54275 0
M  V30 775 C 79.2873 0.560206 -2.25753 0
M  V30 776 C 80.2813 1.11984 -1.27106 0
M  V30 777 O 81.4873 1.06806 -1.44888 0
M  V30 778 H 77.8623 0.199304 -0.725108 0
M  V30 779 H 79.8333 -0.0649365 -2.98329 0
M  V30 780 C 78.5823 1.71023 -3.02731 0
M  V30 781 H 77.9053 1.28885 -3.78456 0
M  V30 782 H 79.3453 2.30314 -3.55993 0
M  V30 783 C 77.8043 2.62692 -2.10938 0
M  V30 784 O 78.3343 3.64364 -1.6912 0
M  V30 785 N 76.5403 2.30891 -1.76459 0
M  V30 786 H 76.0873 1.48253 -2.10663 0
M  V30 787 H 76.0453 2.92487 -1.1532 0
M  V30 788 N 79.8174 1.5752 -0.0501392 0
M  V30 789 C 81.0664 1.91827 0.623328 0
M  V30 790 C 81.3794 0.930222 1.72065 0
M  V30 791 O 82.5854 1.1653 2.4522 0
M  V30 792 C 81.0414 3.40692 1.16003 0
M  V30 793 C 80.6494 4.479 0.0948811 0
M  V30 794 C 82.3934 3.84034 1.80881 0
M  V30 795 C 80.3004 5.87879 0.644411 0
M  V30 796 H 79.2304 0.715918 0.236596 0
M  V30 797 H 81.8814 1.83115 -0.118861 0
M  V30 798 H 80.2634 3.44405 1.9545 0
M  V30 799 H 81.4374 4.55775 -0.678675 0
M  V30 800 H 79.7524 4.13892 -0.45637 0
M  V30 801 H 82.3494 4.85984 2.22988 0
M  V30 802 H 82.6924 3.20225 2.6601 0
M  V30 803 H 83.2254 3.82833 1.0809 0
M  V30 804 H 79.9644 6.55282 -0.169229 0
M  V30 805 H 79.4844 5.83567 1.38598 0
M  V30 806 H 81.1634 6.37098 1.12763 0
M  V30 807 N 81.2955 -0.223234 1.56011 0
M  V30 808 C 82.5725 -0.972108 1.69733 0
M  V30 809 C 82.9525 -2.02485 0.59691 0
M  V30 810 O 82.3005 -2.25037 -0.396324 0
M  V30 811 C 82.5105 -1.58407 3.10979 0
M  V30 812 C 83.8585 -2.07696 3.70334 0
M  V30 813 O 84.8825 -1.68304 3.1393 0
M  V30 814 O 83.7415 -2.80096 4.69264 0
M  V30 815 H 80.8355 -0.453993 0.691245 0
M  V30 816 H 83.3815 -0.215149 1.68331 0
M  V30 817 H 82.1535 -0.823831 3.82529 0
M  V30 818 H 81.7765 -2.40661 3.16493 0
M  V30 819 N 82.7736 -1.49793 -0.48987 0
M  V30 820 C 83.7206 -1.67281 -1.59014 0
M  V30 821 C 84.6906 -0.514177 -1.57941 0
M  V30 822 O 85.8756 -0.742533 -1.75759 0
M  V30 823 C 83.0156 -1.75569 -2.97102 0
M  V30 824 C 82.1286 -3.0281 -3.08107 0
M  V30 825 C 81.2636 -3.02008 -4.36995 0
M  V30 826 C 80.3026 -4.23782 -4.41673 0
M  V30 827 N 79.4396 -4.20826 -5.62005 0
M  V30 828 H 84.2796 -2.61224 -1.43409 0
M  V30 829 H 81.8166 -1.29508 -0.697565 0
M  V30 830 H 83.7746 -1.78354 -3.77155 0
M  V30 831 H 82.4046 -0.850827 -3.11385 0
M  V30 832 H 81.4566 -3.09584 -2.21047 0
M  V30 833 H 82.7686 -3.92801 -3.07423 0
M  V30 834 H 81.9226 -3.03418 -5.25378 0
M  V30 835 H 80.6616 -2.09815 -4.4026 0
M  V30 836 H 79.6666 -4.22604 -3.5169 0
M  V30 837 H 80.8916 -5.17181 -4.40115 0
M  V30 838 H 78.8376 -3.31476 -5.66091 0
M  V30 839 H 78.7546 -5.04564 -5.62984 0
M  V30 840 H 80.0226 -4.26355 -6.52565 0
M  V30 841 N 84.2517 0.741722 -1.39055 0
M  V30 842 C 85.5007 1.49656 -1.35225 0
M  V30 843 C 85.8137 1.95533 0.0512708 0
M  V30 844 O 87.0197 2.7067 0.212138 0
M  V30 845 C 85.4757 2.70389 -2.37525 0
M  V30 846 C 85.0837 2.31489 -3.83558 0
M  V30 847 C 86.8277 3.48236 -2.42759 0
M  V30 848 C 84.7347 3.48903 -4.77515 0
M  V30 849 H 83.6647 0.56197 -0.502699 0
M  V30 850 H 86.3157 0.809727 -1.64668 0
M  V30 851 H 84.6977 3.41113 -2.01142 0
M  V30 852 H 85.8717 1.68354 -4.28945 0
M  V30 853 H 84.1867 1.66749 -3.81554 0
M  V30 854 H 86.7837 4.35558 -3.1015 0
M  V30 855 H 87.1267 3.90229 -1.45008 0
M  V30 856 H 87.6597 2.84535 -2.78002 0
M  V30 857 H 84.3987 3.11966 -5.76504 0
M  V30 858 H 83.9187 4.11041 -4.36813 0
M  V30 859 H 85.5977 4.15328 -4.96096 0
M  V30 860 N 85.7298 1.2412 0.971189 0
M  V30 861 C 86.6768 1.0305 2.06517 0
M  V30 862 C 87.6468 -0.0550666 1.66009 0
M  V30 863 O 88.8318 0.0988688 1.90544 0
M  V30 864 C 85.9718 0.637653 3.39158 0
M  V30 865 C 85.0848 1.79633 3.92882 0
M  V30 866 C 84.2198 1.34939 5.13775 0
M  V30 867 C 83.2588 2.47823 5.59687 0
M  V30 868 N 82.3958 2.04022 6.71803 0
M  V30 869 H 87.2358 1.96685 2.23873 0
M  V30 870 H 84.7728 0.979694 1.09729 0
M  V30 871 H 86.7308 0.390931 4.15364 0
M  V30 872 H 85.3608 -0.261693 3.21737 0
M  V30 873 H 84.4128 2.15681 3.13346 0
M  V30 874 H 85.7248 2.64466 4.22918 0
M  V30 875 H 84.8788 1.06134 5.97345 0
M  V30 876 H 83.6178 0.471557 4.85415 0
M  V30 877 H 82.6228 2.77392 4.74693 0
M  V30 878 H 83.8478 3.36158 5.90063 0
M  V30 879 H 81.7938 1.18632 6.45184 0
M  V30 880 H 81.7108 2.82409 7.01271 0
M  V30 881 H 82.9788 1.78347 7.58823 0
M  V30 882 N 87.2079 -1.17134 1.05439 0
M  V30 883 C 88.4329 -1.91913 0.786396 0
M  V30 884 C 88.8579 -1.7643 -0.652234 0
M  V30 885 O 88.2159 -1.08372 -1.45345 0
M  V30 886 C 88.2639 -3.40921 1.17497 0
M  V30 887 O 87.3679 -4.11244 0.308589 0
M  V30 888 H 86.7089 -0.598215 0.288158 0
M  V30 889 H 89.2389 -1.48457 1.4079 0
M  V30 890 H 89.2489 -3.91668 1.14281 0
M  V30 891 H 87.9239 -3.5151 2.22292 0
M  V30 892 H 86.5009 -3.70731 0.40157 0
M  V30 893 N 88.686 -0.835752 -1.33615 0
M  V30 894 C 89.616 -0.281739 -2.31794 0
M  V30 895 C 90.597 0.608833 -1.58831 0
M  V30 896 O 91.782 0.533035 -1.86741 0
M  V30 897 C 88.912 0.546612 -3.42971 0
M  V30 898 C 87.866 -0.247904 -4.27281 0
M  V30 899 C 87.192 0.704001 -5.30045 0
M  V30 900 C 88.492 -1.46324 -5.01385 0
M  V30 901 H 90.186 -1.10206 -2.78379 0
M  V30 902 H 87.732 -0.531388 -1.33837 0
M  V30 903 H 89.685 0.944467 -4.1068 0
M  V30 904 H 88.409 1.40011 -2.95067 0
M  V30 905 H 87.068 -0.627281 -3.61194 0
M  V30 906 H 86.716 1.55381 -4.78399 0
M  V30 907 H 86.416 0.176524 -5.87335 0
M  V30 908 H 87.94 1.09944 -6.0062 0
M  V30 909 H 89.354 -1.13871 -5.61877 0
M  V30 910 H 87.751 -1.92728 -5.6831 0
M  V30 911 H 88.821 -2.23467 -4.30338 0
M  V30 912 N 90.1641 1.46063 -0.591896 0
M  V30 913 C 91.3921 2.06717 -0.0868936 0
M  V30 914 C 91.8071 1.43916 1.22203 0
M  V30 915 O 91.1641 0.547698 1.74088 0
M  V30 916 C 91.2151 3.6142 0.0758725 0
M  V30 917 O 90.9361 4.21874 -1.18126 0
M  V30 918 C 92.4371 4.39025 0.61416 0
M  V30 919 H 89.6571 0.668162 -0.0616518 0
M  V30 920 H 92.2011 1.8755 -0.815175 0
M  V30 921 H 90.3561 3.79983 0.754413 0
M  V30 922 H 90.7701 5.14861 -1.00092 0
M  V30 923 H 92.2441 5.4783 0.677193 0
M  V30 924 H 92.7211 4.07708 1.63312 0
M  V30 925 H 93.3271 4.2529 -0.0298142 0
M  V30 926 N 91.6422 0.330177 1.54103 0
M  V30 927 C 92.9192 -0.325007 1.92881 0
M  V30 928 C 93.2992 -1.6934 1.26045 0
M  V30 929 O 92.6472 -2.24855 0.406526 0
M  V30 930 C 92.8572 -0.410634 3.46576 0
M  V30 931 C 94.2052 -0.667801 4.19316 0
M  V30 932 O 95.2292 -0.49329 3.52768 0
M  V30 933 O 94.0882 -1.00491 5.37181 0
M  V30 934 H 91.1822 -0.186873 0.80561 0
M  V30 935 H 93.7282 0.380376 1.65382 0
M  V30 936 H 92.5002 0.550164 3.87413 0
M  V30 937 H 92.1232 -1.16333 3.802 0
M  V30 938 N 93.1203 -1.57491 0.0584922 0
M  V30 939 C 94.0673 -2.11958 -0.913376 0
M  V30 940 C 95.0373 -1.02875 -1.30407 0
M  V30 941 O 96.2223 -1.30464 -1.39226 0
M  V30 942 C 93.3623 -2.67497 -2.18035 0
M  V30 943 C 92.4753 -3.90691 -1.84349 0
M  V30 944 C 91.6103 -4.3452 -3.05559 0
M  V30 945 C 90.6493 -5.50395 -2.67827 0
M  V30 946 N 89.7863 -5.89244 -3.81754 0
M  V30 947 H 94.6263 -2.94704 -0.442017 0
M  V30 948 H 92.1633 -1.45643 -0.206545 0
M  V30 949 H 94.1213 -2.978 -2.92183 0
M  V30 950 H 92.7513 -1.87537 -2.62735 0
M  V30 951 H 91.8033 -3.66934 -1.00319 0
M  V30 952 H 93.1153 -4.7489 -1.5258 0
M  V30 953 H 92.2693 -4.66414 -3.87998 0
M  V30 954 H 91.0083 -3.49147 -3.40511 0
M  V30 955 H 90.0133 -5.18165 -1.83806 0
M  V30 956 H 91.2383 -6.3749 -2.34059 0
M  V30 957 H 89.1843 -5.06823 -4.16493 0
M  V30 958 H 89.1013 -6.68151 -3.53708 0
M  V30 959 H 90.3693 -6.25756 -4.64811 0
M  V30 960 N 94.5984 0.214957 -1.56127 0
M  V30 961 C 96.0094 0.781386 -1.69562 0
M  V30 962 C 96.3604 1.84707 -0.66165 0
M  V30 963 O 95.4854 2.156 0.185927 0
M  V30 964 C 96.0804 1.42411 -3.07416 0
M  V30 965 C 94.6394 1.93786 -3.22683 0
M  V30 966 C 93.7864 0.800438 -2.65496 0
M  V30 967 H 96.7374 -0.00980633 -1.58697 0
M  V30 968 H 96.7584 2.29309 -3.0364 0
M  V30 969 H 96.2704 0.64826 -3.82648 0
M  V30 970 H 94.3714 2.74152 -2.52332 0
M  V30 971 H 94.4844 2.1133 -4.29973 0
M  V30 972 H 92.8484 1.2095 -2.2415 0
M  V30 973 H 93.6314 0.0371471 -3.4328 0
M  V30 974 N 96.0765 1.50051 0.48192 0
M  V30 975 C 97.3235 1.60498 1.23477 0
M  V30 976 C 97.6515 0.300331 1.92167 0
M  V30 977 O 96.9065 -0.713094 1.82246 0
M  V30 978 C 97.2055 2.72717 2.30998 0
M  V30 979 C 96.8715 4.13572 1.79636 0
M  V30 980 C 95.5335 4.519 1.65348 0
M  V30 981 C 97.8855 5.01649 1.41412 0
M  V30 982 C 95.2135 5.76057 1.11244 0
M  V30 983 C 97.5655 6.26343 0.887538 0
M  V30 984 C 96.2295 6.63483 0.731207 0
M  V30 985 H 95.4995 0.587303 0.451836 0
M  V30 986 H 98.1465 1.83948 0.532468 0
M  V30 987 H 96.4515 2.43312 3.07094 0
M  V30 988 H 98.1485 2.78006 2.88988 0
M  V30 989 H 94.7385 3.83329 1.91721 0
M  V30 990 H 98.9225 4.72679 1.51289 0
M  V30 991 H 94.1785 6.03516 0.978686 0
M  V30 992 H 98.3525 6.93958 0.582654 0
M  V30 993 H 95.9795 7.59568 0.309806 0
M  V30 994 N 97.5546 -0.734337 1.39446 0
M  V30 995 C 98.8026 -1.49096 1.36436 0
M  V30 996 C 99.1236 -1.94961 -0.0388255 0
M  V30 997 O 98.3936 -1.69033 -0.990191 0
M  V30 998 H 96.9736 -0.5531 0.502085 0
M  V30 999 H 99.6356 -0.871725 1.74319 0
M  V30 1000 H 98.7316 -2.37276 2.02747 0
M  V30 1001 N 99.0327 -1.24633 -0.964593 0
M  V30 1002 C 100.279 -1.08949 -1.71049 0
M  V30 1003 C 100.612 0.370302 -1.90637 0
M  V30 1004 O 99.8867 1.27349 -1.47011 0
M  V30 1005 C 100.17 -1.83329 -3.0994 0
M  V30 1006 C 100.023 -3.37077 -2.97824 0
M  V30 1007 C 101.342 -1.60846 -4.09654 0
M  V30 1008 H 98.4607 -0.397178 -0.620821 0
M  V30 1009 H 101.103 -1.5334 -1.12191 0
M  V30 1010 H 99.2527 -1.45597 -3.60186 0
M  V30 1011 H 100.925 -3.84425 -2.5498 0
M  V30 1012 H 99.1677 -3.65298 -2.33965 0
M  V30 1013 H 99.8387 -3.84324 -3.96231 0
M  V30 1014 H 102.315 -1.93674 -3.68279 0
M  V30 1015 H 101.191 -2.1534 -5.04896 0
M  V30 1016 H 101.452 -0.547434 -4.38698 0
M  V30 1017 N 100.511 1.16574 -1.06058 0
M  V30 1018 C 101.459 2.22941 -0.663343 0
M  V30 1019 C 102.453 1.66358 0.319593 0
M  V30 1020 O 103.659 1.7905 0.184713 0
M  V30 1021 H 100.034 0.725907 -0.196376 0
M  V30 1022 H 102.005 2.53736 -1.57037 0
M  V30 1023 C 100.754 3.47642 -0.0632808 0
M  V30 1024 H 100.077 3.91493 -0.810733 0
M  V30 1025 H 101.517 4.2363 0.177177 0
M  V30 1026 C 99.9758 3.1509 1.19248 0
M  V30 1027 O 100.506 3.30673 2.28075 0
M  V30 1028 N 98.7118 2.6924 1.09353 0
M  V30 1029 H 98.2588 2.5676 0.207912 0
M  V30 1030 H 98.2168 2.47833 1.93458 0
M  V30 1031 N 101.989 0.842826 1.3317 0
M  V30 1032 C 103.238 0.436738 1.96915 0
M  V30 1033 C 103.551 -1.01025 1.67491 0
M  V30 1034 O 104.757 -1.5212 2.24881 0
M  V30 1035 C 103.213 0.730021 3.52418 0
M  V30 1036 C 102.821 2.19195 3.90714 0
M  V30 1037 C 104.565 0.391076 4.22695 0
M  V30 1038 C 102.472 2.42907 5.39212 0
M  V30 1039 H 101.402 0.15958 0.736919 0
M  V30 1040 H 104.053 1.03196 1.51733 0
M  V30 1041 H 102.435 0.0643755 3.95948 0
M  V30 1042 H 103.609 2.8984 3.58231 0
M  V30 1043 H 101.924 2.49425 3.33431 0
M  V30 1044 H 104.521 0.545817 5.31907 0
M  V30 1045 H 104.864 -0.666294 4.10933 0
M  V30 1046 H 105.397 1.01212 3.84709 0
M  V30 1047 H 102.136 3.47224 5.55982 0
M  V30 1048 H 101.656 1.76827 5.73142 0
M  V30 1049 H 103.335 2.2626 6.06148 0
M  V30 1050 N 103.467 -1.45747 0.599634 0
M  V30 1051 C 104.4 -2.27547 -0.172552 0
M  V30 1052 C 105.378 -1.36657 -0.881116 0
M  V30 1053 O 106.562 -1.66081 -0.891595 0
M  V30 1054 C 103.689 -3.14829 -1.24903 0
M  V30 1055 C 102.735 -4.21603 -0.644465 0
M  V30 1056 S 103.568 -5.32754 0.541606 0
M  V30 1057 C 104.724 -6.23604 -0.535656 0
M  V30 1058 H 104.957 -2.92691 0.521468 0
M  V30 1059 H 102.49 -1.49473 0.386947 0
M  V30 1060 H 104.448 -3.65675 -1.86527 0
M  V30 1061 H 103.109 -2.48965 -1.91508 0
M  V30 1062 H 102.302 -4.82566 -1.45417 0
M  V30 1063 H 101.904 -3.73857 -0.103534 0
M  V30 1064 H 104.196 -6.62519 -1.41686 0
M  V30 1065 H 105.139 -7.0809 0.0376246 0
M  V30 1066 H 105.547 -5.58103 -0.84741 0
M  V30 1067 N 104.945 -0.338344 -1.53925 0
M  V30 1068 C 105.875 0.51328 -2.27789 0
M  V30 1069 C 106.856 1.107 -1.29149 0
M  V30 1070 O 108.041 1.12937 -1.57984 0
M  V30 1071 C 105.171 1.66697 -3.04679 0
M  V30 1072 C 104.125 1.20183 -4.1078 0
M  V30 1073 C 103.451 2.44363 -4.75595 0
M  V30 1074 C 104.751 0.30605 -5.21403 0
M  V30 1075 H 106.445 -0.102883 -2.99223 0
M  V30 1076 H 103.991 -0.0509219 -1.4391 0
M  V30 1077 H 105.944 2.26915 -3.55088 0
M  V30 1078 H 104.668 2.30995 -2.30887 0
M  V30 1079 H 103.327 0.622499 -3.61276 0
M  V30 1080 H 102.975 3.07057 -3.98403 0
M  V30 1081 H 102.675 2.13925 -5.47275 0
M  V30 1082 H 104.199 3.05317 -5.28786 0
M  V30 1083 H 105.613 0.814929 -5.67478 0
M  V30 1084 H 104.01 0.0937929 -6.00027 0
M  V30 1085 H 105.08 -0.65921 -4.80398 0
M  V30 1086 N 106.423 1.57458 -0.0668435 0
M  V30 1087 C 107.353 2.15468 0.899764 0
M  V30 1088 C 108.334 1.08042 1.31381 0
M  V30 1089 O 109.519 1.36054 1.38574 0
M  V30 1090 C 106.649 2.71232 2.16911 0
M  V30 1091 C 105.603 3.83781 1.89463 0
M  V30 1092 C 104.929 4.26127 3.22986 0
M  V30 1093 C 106.229 5.08238 1.20381 0
M  V30 1094 H 107.923 2.96488 0.416529 0
M  V30 1095 H 105.469 1.4262 0.198908 0
M  V30 1096 H 107.422 3.10458 2.84945 0
M  V30 1097 H 106.146 1.87426 2.67468 0
M  V30 1098 H 104.805 3.45051 1.23836 0
M  V30 1099 H 104.453 3.39249 3.71374 0
M  V30 1100 H 104.153 5.01993 3.05413 0
M  V30 1101 H 105.677 4.67966 3.92225 0
M  V30 1102 H 107.091 5.44811 1.78475 0
M  V30 1103 H 105.488 5.89349 1.13083 0
M  V30 1104 H 106.558 4.84558 0.182153 0
M  V30 1105 N 107.901 -0.206675 1.56239 0
M  V30 1106 C 109.126 -0.949474 1.8439 0
M  V30 1107 C 109.551 -1.76549 0.649016 0
M  V30 1108 O 108.909 -1.76782 -0.402231 0
M  V30 1109 C 108.957 -1.83078 3.10668 0
M  V30 1110 O 108.061 -2.9281 2.90407 0
M  V30 1111 H 107.402 -0.268033 0.607499 0
M  V30 1112 H 109.932 -0.215488 2.03462 0
M  V30 1113 H 109.942 -2.2377 3.41161 0
M  V30 1114 H 108.617 -1.23112 3.97261 0
M  V30 1115 H 107.194 -2.55956 2.71184 0
M  V30 1116 N 109.379 -1.50304 -0.473955 0
M  V30 1117 C 110.79 -1.54042 -1.0549 0
M  V30 1118 C 111.141 -0.342248 -1.93192 0
M  V30 1119 O 110.266 0.545157 -2.09421 0
M  V30 1120 C 110.861 -2.79152 -1.91989 0
M  V30 1121 C 109.42 -2.8558 -2.45196 0
M  V30 1122 C 108.567 -2.48295 -1.2347 0
M  V30 1123 H 111.518 -1.5661 -0.256693 0
M  V30 1124 H 111.539 -2.60845 -2.7702 0
M  V30 1125 H 111.051 -3.66339 -1.28131 0
M  V30 1126 H 109.152 -2.02738 -3.12615 0
M  V30 1127 H 109.265 -3.88403 -2.80499 0
M  V30 1128 H 107.629 -2.00669 -1.56856 0
M  V30 1129 H 108.412 -3.37787 -0.612789 0
M  V30 1130 N 110.857 0.726932 -1.39834 0
M  V30 1131 C 112.104 1.48664 -1.37496 0
M  V30 1132 C 112.432 1.94482 0.0264678 0
M  V30 1133 O 111.687 1.67692 1.00886 0
M  V30 1134 C 111.986 2.73495 -2.30077 0
M  V30 1135 C 111.652 2.46502 -3.77555 0
M  V30 1136 C 110.314 2.3885 -4.17737 0
M  V30 1137 C 112.666 2.23604 -4.70798 0
M  V30 1138 C 109.994 2.06352 -5.49214 0
M  V30 1139 C 112.346 1.92622 -6.02561 0
M  V30 1140 C 111.01 1.83444 -6.41798 0
M  V30 1141 H 110.28 0.544001 -0.503135 0
M  V30 1142 H 112.927 0.833657 -1.72402 0
M  V30 1143 H 111.232 3.43575 -1.88317 0
M  V30 1144 H 112.929 3.31549 -2.25558 0
M  V30 1145 H 109.519 2.5334 -3.45712 0
M  V30 1146 H 113.703 2.28479 -4.40581 0
M  V30 1147 H 108.959 1.97776 -5.78528 0
M  V30 1148 H 113.133 1.73914 -6.74334 0
M  V30 1149 H 110.76 1.58029 -7.43593 0
M  V30 1150 N 112.336 1.25143 0.95797 0
M  V30 1151 C 113.582 1.09855 1.70469 0
M  V30 1152 C 113.915 -0.360187 1.90831 0
M  V30 1153 O 113.19 -1.26568 1.47685 0
M  V30 1154 C 113.473 1.8497 3.08963 0
M  V30 1155 C 113.326 3.38652 2.96032 0
M  V30 1156 C 114.645 1.63016 4.08795 0
M  V30 1157 H 111.764 0.400465 0.618706 0
M  V30 1158 H 114.406 1.53933 1.11376 0
M  V30 1159 H 112.556 1.47505 3.59409 0
M  V30 1160 H 114.228 3.85772 2.52938 0
M  V30 1161 H 112.471 3.66534 2.32025 0
M  V30 1162 H 113.142 3.8642 3.94187 0
M  V30 1163 H 115.618 1.95625 3.67247 0
M  V30 1164 H 114.494 2.18015 5.03747 0
M  V30 1165 H 114.755 0.570692 4.38401 0
M  V30 1166 N 113.814 -1.1601 1.06675 0
M  V30 1167 C 114.724 -2.24156 0.692179 0
M  V30 1168 C 115.74 -1.71507 -0.293513 0
M  V30 1169 O 116.916 -2.009 -0.141861 0
M  V30 1170 C 113.981 -3.46587 0.0884131 0
M  V30 1171 C 113.042 -4.14257 1.12646 0
M  V30 1172 C 112.275 -5.30844 0.551416 0
M  V30 1173 O 112.498 -5.66858 -0.634656 0
M  V30 1174 O 111.432 -5.87848 1.29298 0
M  V30 1175 H 115.258 -2.58513 1.59388 0
M  V30 1176 H 112.843 -1.23599 0.83926 0
M  V30 1177 H 114.725 -4.20679 -0.246361 0
M  V30 1178 H 113.4 -3.13994 -0.786712 0
M  V30 1179 H 112.307 -3.42118 1.51348 0
M  V30 1180 H 113.64 -4.50914 1.97325 0
M  V30 1181 N 115.292 -0.849877 -1.32721 0
M  V30 1182 C 116.569 -0.372405 -1.92022 0
M  V30 1183 C 116.949 1.1435 -1.77447 0
M  V30 1184 O 116.297 1.96296 -1.16962 0
M  V30 1185 C 116.507 -0.831482 -3.3895 0
M  V30 1186 C 117.855 -0.845882 -4.16089 0
M  V30 1187 O 118.879 -0.775806 -3.47649 0
M  V30 1188 O 117.738 -0.943753 -5.38289 0
M  V30 1189 H 114.832 -0.107667 -0.819961 0
M  V30 1190 H 117.378 -0.93646 -1.41522 0
M  V30 1191 H 116.15 -1.87448 -3.4348 0
M  V30 1192 H 115.773 -0.24461 -3.96847 0
M  V30 1193 N 116.77 1.45427 -0.607355 0
M  V30 1194 C 118.019 2.01452 -0.100036 0
M  V30 1195 C 118.332 1.48159 1.27704 0
M  V30 1196 O 119.538 1.96159 1.87707 0
M  V30 1197 C 117.994 3.59672 -0.128158 0
M  V30 1198 C 117.602 4.21962 -1.50507 0
M  V30 1199 C 119.346 4.23262 0.323932 0
M  V30 1200 C 117.253 5.72333 -1.48959 0
M  V30 1201 H 116.183 0.75325 -0.0336299 0
M  V30 1202 H 118.834 1.66901 -0.76265 0
M  V30 1203 H 117.216 3.91411 0.601105 0
M  V30 1204 H 118.39 4.01796 -2.25602 0
M  V30 1205 H 116.705 3.70565 -1.89923 0
M  V30 1206 H 119.302 5.33522 0.354691 0
M  V30 1207 H 119.645 3.93921 1.34656 0
M  V30 1208 H 120.178 3.96239 -0.352056 0
M  V30 1209 H 116.917 6.06373 -2.48981 0
M  V30 1210 H 116.437 5.94691 -0.781214 0
M  V30 1211 H 118.116 6.35525 -1.21313 0
M  V30 1212 N 118.248 0.346503 1.53744 0
M  V30 1213 C 119.494 -0.249473 2.0126 0
M  V30 1214 C 119.827 -1.49965 1.23386 0
M  V30 1215 O 119.102 -1.91811 0.32229 0
M  V30 1216 C 119.385 -0.560643 3.55709 0
M  V30 1217 C 119.238 0.701836 4.44291 0
M  V30 1218 C 120.557 -1.36905 4.18264 0
M  V30 1219 H 117.676 -0.0891987 0.731582 0
M  V30 1220 H 120.318 0.467624 1.84156 0
M  V30 1221 H 118.468 -1.17156 3.70414 0
M  V30 1222 H 120.14 1.33974 4.41417 0
M  V30 1223 H 118.383 1.32612 4.13033 0
M  V30 1224 H 119.054 0.43933 5.50249 0
M  V30 1225 H 121.53 -0.852448 4.07275 0
M  V30 1226 H 120.406 -1.55553 5.26398 0
M  V30 1227 H 120.667 -2.37203 3.73078 0
M  V30 1228 N 119.726 -1.57421 0.075193 0
M  V30 1229 C 121.003 -1.85029 -0.634329 0
M  V30 1230 C 121.383 -0.968305 -1.87582 0
M  V30 1231 O 120.731 -0.0354749 -2.28472 0
M  V30 1232 C 120.941 -3.35286 -0.968742 0
M  V30 1233 C 122.289 -4.02875 -1.34077 0
M  V30 1234 O 123.313 -3.40051 -1.06037 0
M  V30 1235 O 122.172 -5.13691 -1.86506 0
M  V30 1236 H 119.266 -0.7645 -0.315387 0
M  V30 1237 H 121.812 -1.69366 0.106382 0
M  V30 1238 H 120.584 -3.91203 -0.0871376 0
M  V30 1239 H 120.207 -3.56223 -1.7661 0
M  V30 1240 N 121.204 0.198386 -1.56346 0
M  V30 1241 C 122.134 1.24865 -1.9731 0
M  V30 1242 C 123.115 1.47651 -0.844576 0
M  V30 1243 O 124.3 1.59444 -1.10866 0
M  V30 1244 C 121.43 2.59358 -2.30977 0
M  V30 1245 C 120.384 2.5119 -3.46537 0
M  V30 1246 C 119.71 3.89926 -3.65871 0
M  V30 1247 C 121.01 2.03977 -4.80823 0
M  V30 1248 H 122.704 0.908252 -2.85291 0
M  V30 1249 H 120.25 0.435462 -1.37258 0
M  V30 1250 H 122.203 3.33011 -2.58228 0
M  V30 1251 H 120.927 2.95132 -1.39874 0
M  V30 1252 H 119.586 1.79993 -3.19371 0
M  V30 1253 H 119.234 4.23046 -2.72105 0
M  V30 1254 H 118.934 3.85336 -4.4361 0
M  V30 1255 H 120.458 4.65205 -3.95495 0
M  V30 1256 H 121.872 2.67386 -5.07127 0
M  V30 1257 H 120.269 2.10397 -5.62008 0
M  V30 1258 H 121.339 0.992861 -4.74626 0
M  V30 1259 N 122.682 1.50554 0.465978 0
M  V30 1260 C 123.928 1.62038 1.21949 0
M  V30 1261 C 124.261 0.322116 1.9151 0
M  V30 1262 O 123.536 -0.676723 1.82348 0
M  V30 1263 C 123.819 2.80421 2.25912 0
M  V30 1264 C 123.672 4.20144 1.60622 0
M  V30 1265 C 124.991 2.94354 3.27176 0
M  V30 1266 H 122.11 0.589752 0.441998 0
M  V30 1267 H 124.752 1.82956 0.51257 0
M  V30 1268 H 122.902 2.62717 2.86203 0
M  V30 1269 H 124.574 4.49449 1.03889 0
M  V30 1270 H 122.817 4.24165 0.909211 0
M  V30 1271 H 123.488 4.98914 2.36196 0
M  V30 1272 H 125.964 3.10578 2.76913 0
M  V30 1273 H 124.84 3.788 3.97242 0
M  V30 1274 H 125.101 2.05186 3.916 0
M  V30 1275 N 124.16 -0.719506 1.40217 0
M  V30 1276 C 125.409 -1.47486 1.37589 0
M  V30 1277 C 125.722 -1.9559 -0.0201568 0
M  V30 1278 O 126.928 -2.70973 -0.169049 0
M  V30 1279 C 125.384 -2.66575 2.41796 0
M  V30 1280 C 124.992 -2.25358 3.87192 0
M  V30 1281 C 126.736 -3.4433 2.48269 0
M  V30 1282 C 124.643 -3.41262 4.83005 0
M  V30 1283 H 123.573 -0.553901 0.511576 0
M  V30 1284 H 126.224 -0.783427 1.65936 0
M  V30 1285 H 124.606 -3.3787 2.06543 0
M  V30 1286 H 125.78 -1.61509 4.31569 0
M  V30 1287 H 124.095 -1.60657 3.84159 0
M  V30 1288 H 126.692 -4.30569 3.17041 0
M  V30 1289 H 127.035 -3.87872 1.51198 0
M  V30 1290 H 127.568 -2.80076 2.82493 0
M  V30 1291 H 124.307 -3.02755 5.81394 0
M  V30 1292 H 123.827 -4.0404 4.43297 0
M  V30 1293 H 125.506 -4.07383 5.02641 0
M  V30 1294 N 125.638 -1.25649 -0.95132 0
M  V30 1295 C 126.548 -1.08073 -2.08224 0
M  V30 1296 C 127.564 -0.0169666 -1.73992 0
M  V30 1297 O 128.74 -0.218593 -2.0021 0
M  V30 1298 C 125.805 -0.704922 -3.39458 0
M  V30 1299 C 124.866 -1.84699 -3.87537 0
M  V30 1300 C 124.099 -1.48902 -5.12508 0
M  V30 1301 O 124.322 -0.386156 -5.69091 0
M  V30 1302 O 123.256 -2.32033 -5.55378 0
M  V30 1303 H 127.082 -2.02924 -2.25954 0
M  V30 1304 H 124.667 -1.04618 -1.06656 0
M  V30 1305 H 126.549 -0.507609 -4.18332 0
M  V30 1306 H 125.224 0.214291 -3.2299 0
M  V30 1307 H 124.131 -2.09919 -3.09653 0
M  V30 1308 H 125.464 -2.74557 -4.08509 0
M  V30 1309 N 127.117 1.15442 -1.07289 0
M  V30 1310 C 128.027 2.23786 -0.704057 0
M  V30 1311 C 129.043 1.7166 0.284413 0
M  V30 1312 O 130.219 2.00972 0.131205 0
M  V30 1313 C 127.284 3.46535 -0.106792 0
M  V30 1314 C 126.345 4.13654 -1.14842 0
M  V30 1315 C 125.578 5.30544 -0.57956 0
M  V30 1316 O 125.801 5.67187 0.604585 0
M  V30 1317 O 124.735 5.87154 -1.32414 0
M  V30 1318 H 128.561 2.57664 -1.60757 0
M  V30 1319 H 126.146 1.23152 -0.845803 0
M  V30 1320 H 128.028 4.20804 0.224048 0
M  V30 1321 H 126.703 3.14407 0.770049 0
M  V30 1322 H 125.61 3.4131 -1.5316 0
M  V30 1323 H 126.943 4.49861 -1.99714 0
M  V30 1324 N 128.595 0.856903 1.32268 0
M  V30 1325 C 129.843 0.460474 1.96784 0
M  V30 1326 C 130.164 -0.987701 1.68135 0
M  V30 1327 O 129.434 -1.69058 0.989765 0
M  V30 1328 H 128.014 0.167289 0.728027 0
M  V30 1329 H 130.676 1.09383 1.61312 0
M  V30 1330 H 129.772 0.60739 3.06133 0
M  V30 1331 N 130.073 -1.45103 0.615059 0
M  V30 1332 C 131.319 -2.02483 0.113347 0
M  V30 1333 C 131.652 -1.48146 -1.25564 0
M  V30 1334 O 130.927 -0.659104 -1.82992 0
M  V30 1335 C 131.21 -3.60005 0.0825278 0
M  V30 1336 C 131.063 -4.2466 1.48271 0
M  V30 1337 C 132.382 -4.35972 -0.601401 0
M  V30 1338 H 129.501 -0.735764 0.0426632 0
M  V30 1339 H 132.143 -1.72868 0.788461 0
M  V30 1340 H 130.293 -3.85367 -0.492378 0
M  V30 1341 H 131.965 -4.10458 2.10527 0
M  V30 1342 H 130.208 -3.82772 2.04127 0
M  V30 1343 H 130.879 -5.336 1.41332 0
M  V30 1344 H 133.355 -4.15947 -0.112666 0
M  V30 1345 H 132.231 -5.45697 -0.592097 0
M  V30 1346 H 132.492 -4.09391 -1.66887 0
M  V30 1347 N 131.551 -0.354651 -1.53558 0
M  V30 1348 C 132.498 0.496968 -2.25386 0
M  V30 1349 C 133.468 1.0865 -1.25636 0
M  V30 1350 O 134.653 1.12104 -1.54394 0
M  V30 1351 C 131.793 1.63637 -3.03837 0
M  V30 1352 C 130.906 1.07307 -4.18461 0
M  V30 1353 C 130.041 2.18068 -4.84376 0
M  V30 1354 C 129.08 1.59147 -5.91049 0
M  V30 1355 N 128.217 2.63695 -6.50699 0
M  V30 1356 H 133.057 -0.122075 -2.9775 0
M  V30 1357 H 130.594 -0.0720154 -1.46924 0
M  V30 1358 H 132.552 2.30734 -3.47589 0
M  V30 1359 H 131.182 2.22623 -2.33749 0
M  V30 1360 H 130.234 0.292708 -3.79272 0
M  V30 1361 H 131.546 0.602193 -4.95152 0
M  V30 1362 H 130.7 2.93007 -5.31255 0
M  V30 1363 H 129.439 2.68504 -4.07133 0
M  V30 1364 H 128.444 0.827175 -5.43542 0
M  V30 1365 H 129.669 1.09549 -6.70206 0
M  V30 1366 H 127.615 3.13365 -5.76315 0
M  V30 1367 H 127.532 2.21263 -7.22896 0
M  V30 1368 H 128.8 3.3837 -7.02229 0
M  V30 1369 N 133.029 1.57378 -0.0835403 0
M  V30 1370 C 134.275 1.94217 0.583733 0
M  V30 1371 C 134.608 0.964653 1.68547 0
M  V30 1372 O 133.883 -0.00422258 1.945 0
M  V30 1373 C 134.166 3.41253 1.14972 0
M  V30 1374 C 134.019 4.49768 0.0538277 0
M  V30 1375 C 135.338 3.89352 2.05166 0
M  V30 1376 H 132.457 0.706233 0.210724 0
M  V30 1377 H 135.099 1.89392 -0.1519 0
M  V30 1378 H 133.249 3.45496 1.77665 0
M  V30 1379 H 134.921 4.57641 -0.579851 0
M  V30 1380 H 133.164 4.29432 -0.614068 0
M  V30 1381 H 133.835 5.49817 0.490452 0
M  V30 1382 H 136.311 3.87189 1.52393 0
M  V30 1383 H 135.187 4.92822 2.41698 0
M  V30 1384 H 135.448 3.27973 2.96456 0
M  V30 1385 N 134.507 -0.190092 1.56449 0
M  V30 1386 C 135.753 -0.911052 1.81184 0
M  V30 1387 C 136.086 -1.82699 0.658396 0
M  V30 1388 O 135.361 -1.91491 -0.340775 0
M  V30 1389 C 135.644 -1.72297 3.16205 0
M  V30 1390 C 135.497 -0.831419 4.42049 0
M  V30 1391 C 136.816 -2.69454 3.47969 0
M  V30 1392 H 133.935 -0.32977 0.659106 0
M  V30 1393 H 136.577 -0.178169 1.89163 0
M  V30 1394 H 134.727 -2.34778 3.09534 0
M  V30 1395 H 136.399 -0.220929 4.60771 0
M  V30 1396 H 134.642 -0.138406 4.33579 0
M  V30 1397 H 135.313 -1.43461 5.33032 0
M  V30 1398 H 137.789 -2.17104 3.54972 0
M  V30 1399 H 136.665 -3.23342 4.43555 0
M  V30 1400 H 136.926 -3.48744 2.71717 0
M  V30 1401 N 135.985 -1.50799 -0.457987 0
M  V30 1402 C 137.213 -1.66218 -1.23203 0
M  V30 1403 C 137.628 -0.350894 -1.85511 0
M  V30 1404 O 136.985 0.668546 -1.69814 0
M  V30 1405 C 137.036 -2.76291 -2.33121 0
M  V30 1406 O 136.757 -4.02338 -1.73366 0
M  V30 1407 C 138.258 -3.028 -3.2377 0
M  V30 1408 H 135.478 -0.558361 -0.372121 0
M  V30 1409 H 138.022 -1.97099 -0.545179 0
M  V30 1410 H 136.177 -2.48068 -2.97558 0
M  V30 1411 H 136.591 -4.63312 -2.4585 0
M  V30 1412 H 138.065 -3.8345 -3.97077 0
M  V30 1413 H 138.542 -2.14385 -3.83322 0
M  V30 1414 H 139.148 -3.32604 -2.65056 0
M  V30 1415 N 137.463 0.71206 -1.40597 0
M  V30 1416 C 138.691 1.50111 -1.42388 0
M  V30 1417 C 139.106 1.88784 -0.0245395 0
M  V30 1418 O 138.463 1.55681 0.952351 0
M  V30 1419 C 138.514 2.7742 -2.31776 0
M  V30 1420 O 138.235 2.40382 -3.66262 0
M  V30 1421 C 139.736 3.7129 -2.42196 0
M  V30 1422 H 136.956 0.46314 -0.485533 0
M  V30 1423 H 139.5 0.878068 -1.8469 0
M  V30 1424 H 137.655 3.36001 -1.92827 0
M  V30 1425 H 138.069 3.22324 -4.13772 0
M  V30 1426 H 139.543 4.57448 -3.08943 0
M  V30 1427 H 140.02 4.14641 -1.44809 0
M  V30 1428 H 140.626 3.18619 -2.81712 0
M  V30 1429 N 138.941 1.26152 0.944643 0
M  V30 1430 C 140.189 1.11271 1.6871 0
M  V30 1431 C 140.51 -0.345166 1.91921 0
M  V30 1432 O 139.78 -1.24387 1.51343 0
M  V30 1433 H 138.36 0.408783 0.625224 0
M  V30 1434 H 141.022 1.58427 1.1352 0
M  V30 1435 H 140.118 1.62879 2.66227 0
M  V30 1436 N 140.419 -1.14872 1.07899 0
M  V30 1437 C 141.382 -2.17986 0.708161 0
M  V30 1438 C 142.382 -1.58775 -0.25442 0
M  V30 1439 O 143.572 -1.74166 -0.034645 0
M  V30 1440 C 140.704 -3.40871 0.0446929 0
M  V30 1441 H 141.897 -2.52306 1.62116 0
M  V30 1442 H 139.45 -1.2943 0.876218 0
M  V30 1443 H 140.185 -3.12124 -0.880281 0
M  V30 1444 H 139.97 -3.8511 0.737091 0
M  V30 1445 H 141.46 -4.17121 -0.19991 0
M  V30 1446 N 141.898 -0.863906 -1.31812 0
M  V30 1447 C 143.146 -0.470904 -1.96537 0
M  V30 1448 C 143.467 0.978771 -1.68657 0
M  V30 1449 O 142.737 1.6853 -0.998717 0
M  V30 1450 H 141.317 -0.171148 -0.72713 0
M  V30 1451 H 143.979 -1.10236 -1.60729 0
M  V30 1452 H 143.075 -0.623616 -3.05806 0
M  V30 1453 N 143.376 1.44774 -0.622745 0
M  V30 1454 C 144.324 2.32387 0.0994683 0
M  V30 1455 C 145.318 1.46859 0.844326 0
M  V30 1456 O 146.524 1.63254 0.758174 0
M  V30 1457 H 142.899 0.750273 0.0509291 0
M  V30 1458 H 144.87 2.91062 -0.65767 0
M  V30 1459 C 143.619 3.30723 1.07319 0
M  V30 1460 H 142.942 3.96541 0.509462 0
M  V30 1461 H 144.382 3.94725 1.54817 0
M  V30 1462 C 142.841 2.59021 2.15429 0
M  V30 1463 O 143.371 2.38286 3.23393 0
M  V30 1464 N 141.577 2.189 1.91131 0
M  V30 1465 H 141.124 2.35964 1.03337 0
M  V30 1466 H 141.082 1.71251 2.63668 0
M  V30 1467 N 144.854 0.36279 1.53368 0
M  V30 1468 C 146.265 -0.117022 1.86333 0
M  V30 1469 C 146.616 -1.48397 1.28347 0
M  V30 1470 O 145.741 -2.07787 0.604428 0
M  V30 1471 C 146.336 -0.21912 3.38091 0
M  V30 1472 C 144.895 -0.643184 3.70864 0
M  V30 1473 C 144.042 0.211318 2.76494 0
M  V30 1474 H 146.993 0.581687 1.47655 0
M  V30 1475 H 147.014 -1.04319 3.6592 0
M  V30 1476 H 146.526 0.775902 3.80265 0
M  V30 1477 H 144.627 -1.64654 3.34245 0
M  V30 1478 H 144.74 -0.41973 4.77258 0
M  V30 1479 H 143.104 -0.319367 2.5269 0
M  V30 1480 H 143.887 1.20383 3.21501 0
M  V30 1481 N 146.332 -1.57332 0.0918853 0
M  V30 1482 C 147.557 -1.98995 -0.584442 0
M  V30 1483 C 147.982 -0.970528 -1.61128 0
M  V30 1484 O 147.34 0.0613904 -1.81196 0
M  V30 1485 C 147.388 -3.39636 -1.21161 0
M  V30 1486 O 146.492 -3.40447 -2.32744 0
M  V30 1487 H 145.833 -0.647165 -0.148572 0
M  V30 1488 H 148.363 -2.03873 0.172347 0
M  V30 1489 H 148.373 -3.7726 -1.55367 0
M  V30 1490 H 147.048 -4.13356 -0.459313 0
M  V30 1491 H 145.625 -3.14614 -2.0018 0
M  V30 1492 N 147.81 0.181792 -1.56548 0
M  V30 1493 C 148.757 1.22521 -1.95595 0
M  V30 1494 C 149.727 1.4454 -0.818373 0
M  V30 1495 O 150.912 1.57454 -1.07763 0
M  V30 1496 C 148.052 2.56193 -2.31212 0
M  V30 1497 C 147.165 2.41641 -3.58097 0
M  V30 1498 C 146.3 3.68108 -3.82975 0
M  V30 1499 C 145.339 3.48445 -5.03242 0
M  V30 1500 N 144.476 4.66956 -5.24306 0
M  V30 1501 H 149.316 0.885226 -2.84548 0
M  V30 1502 H 146.853 0.425718 -1.40805 0
M  V30 1503 H 148.811 3.34088 -2.49882 0
M  V30 1504 H 147.441 2.88208 -1.45382 0
M  V30 1505 H 146.493 1.54976 -3.474 0
M  V30 1506 H 147.805 2.23052 -4.46149 0
M  V30 1507 H 146.959 4.54441 -4.01956 0
M  V30 1508 H 145.698 3.89666 -2.93278 0
M  V30 1509 H 144.703 2.60499 -4.8417 0
M  V30 1510 H 145.928 3.2832 -5.9446 0
M  V30 1511 H 143.874 4.88752 -4.37559 0
M  V30 1512 H 143.791 4.51242 -6.06561 0
M  V30 1513 H 145.059 5.54602 -5.47756 0
M  V30 1514 N 149.288 1.51039 0.449983 0
M  V30 1515 C 150.518 1.66627 1.22143 0
M  V30 1516 C 150.926 0.357776 1.85786 0
M  V30 1517 O 150.269 -0.672424 1.70951 0
M  V30 1518 C 150.331 2.71562 2.35573 0
M  V30 1519 C 149.995 4.14526 1.92399 0
M  V30 1520 C 150.992 4.99717 1.43453 0
M  V30 1521 C 148.677 4.60559 2.00475 0
M  V30 1522 C 150.671 6.28998 1.03155 0
M  V30 1523 C 148.358 5.8984 1.59788 0
M  V30 1524 C 149.356 6.73886 1.11208 0
M  V30 1525 O 149.044 8.0075 0.710935 0
M  V30 1526 H 148.776 0.562635 0.374724 0
M  V30 1527 H 151.33 1.98146 0.541036 0
M  V30 1528 H 149.56 2.3533 3.06849 0
M  V30 1529 H 151.249 2.76156 2.97478 0
M  V30 1530 H 152.015 4.65361 1.36618 0
M  V30 1531 H 147.894 3.95273 2.37235 0
M  V30 1532 H 151.438 6.9455 0.651663 0
M  V30 1533 H 147.335 6.23713 1.66289 0
M  V30 1534 H 148.103 8.142 0.837913 0
M  V30 1535 N 150.766 -0.704594 1.40972 0
M  V30 1536 C 151.699 -1.82861 1.36518 0
M  V30 1537 C 152.677 -1.6091 0.23382 0
M  V30 1538 O 153.861 -1.83778 0.419271 0
M  V30 1539 C 150.988 -3.1939 1.12729 0
M  V30 1540 C 150.034 -3.60148 2.28463 0
M  V30 1541 S 150.867 -3.65994 3.90907 0
M  V30 1542 C 152.023 -5.05264 3.69403 0
M  V30 1543 H 152.256 -1.86361 2.3164 0
M  V30 1544 H 149.789 -0.872439 1.27389 0
M  V30 1545 H 151.747 -3.98211 0.996893 0
M  V30 1546 H 150.408 -3.1351 0.192427 0
M  V30 1547 H 149.601 -4.59309 2.07489 0
M  V30 1548 H 149.203 -2.88612 2.37863 0
M  V30 1549 H 151.495 -5.92504 3.28551 0
M  V30 1550 H 152.438 -5.31278 4.68134 0
M  V30 1551 H 152.846 -4.76377 3.02862 0
M  V30 1552 N 152.244 -1.26651 -0.937939 0
M  V30 1553 C 153.154 -1.10276 -2.07066 0
M  V30 1554 C 154.17 -0.0354197 -1.73964 0
M  V30 1555 O 155.346 -0.239816 -1.99967 0
M  V30 1556 C 152.411 -0.740887 -3.38691 0
M  V30 1557 C 151.472 -1.88799 -3.85556 0
M  V30 1558 C 150.705 -1.54329 -5.10899 0
M  V30 1559 O 150.928 -0.446494 -5.6865 0
M  V30 1560 O 149.862 -2.37911 -5.52885 0
M  V30 1561 H 153.688 -2.05309 -2.23789 0
M  V30 1562 H 151.273 -1.05743 -1.0554 0
M  V30 1563 H 153.155 -0.55195 -4.1777 0
M  V30 1564 H 151.83 0.180022 -3.23199 0
M  V30 1565 H 150.737 -2.13191 -3.07409 0
M  V30 1566 H 152.07 -2.78874 -4.05574 0
M  V30 1567 N 153.722 1.14298 -1.08507 0
M  V30 1568 C 155.138 1.37347 -0.812901 0
M  V30 1569 C 155.338 1.93052 0.577325 0
M  V30 1570 O 154.394 2.14389 1.33393 0
M  V30 1571 C 155.707 2.33359 -1.89642 0
M  V30 1572 C 157.255 2.46996 -1.92255 0
M  V30 1573 C 157.73 3.46309 -2.99724 0
M  V30 1574 N 159.221 3.53853 -2.98902 0
M  V30 1575 C 159.956 4.3055 -3.787 0
M  V30 1576 N 159.452 5.10482 -4.6838 0
M  V30 1577 N 161.245 4.25757 -3.66998 0
M  V30 1578 H 153.396 0.764867 -1.9815 0
M  V30 1579 H 155.659 0.398966 -0.859959 0
M  V30 1580 H 155.365 1.99565 -2.89597 0
M  V30 1581 H 155.239 3.33274 -1.76659 0
M  V30 1582 H 157.626 2.80081 -0.929445 0
M  V30 1583 H 157.707 1.47039 -2.09316 0
M  V30 1584 H 157.351 3.13957 -3.99241 0
M  V30 1585 H 157.281 4.46049 -2.79907 0
M  V30 1586 H 159.772 2.96812 -2.33904 0
M  V30 1587 H 160.085 5.66284 -5.25873 0
M  V30 1588 H 158.43 5.09747 -4.72422 0
M  V30 1589 H 161.621 3.62383 -2.96304 0
M  V30 1590 H 161.794 4.85279 -4.29427 0
M  V30 1591 N 155.201 0.870884 1.31352 0
M  V30 1592 C 156.448 0.482273 1.96673 0
M  V30 1593 C 156.776 -0.965638 1.68836 0
M  V30 1594 O 156.031 -1.69514 0.977937 0
M  V30 1595 C 156.33 0.687157 3.50732 0
M  V30 1596 C 155.996 2.108 3.9859 0
M  V30 1597 C 154.658 2.49656 4.1137 0
M  V30 1598 C 157.01 3.03459 4.23748 0
M  V30 1599 C 154.338 3.80412 4.46659 0
M  V30 1600 C 156.69 4.3373 4.60501 0
M  V30 1601 C 155.354 4.725 4.71487 0
M  V30 1602 H 154.624 0.176476 0.719679 0
M  V30 1603 H 157.271 1.10405 1.56471 0
M  V30 1604 H 155.576 -0.0177476 3.91796 0
M  V30 1605 H 157.273 0.366284 3.99324 0
M  V30 1606 H 153.863 1.79633 3.8914 0
M  V30 1607 H 158.047 2.74665 4.13368 0
M  V30 1608 H 153.303 4.1021 4.53362 0
M  V30 1609 H 157.477 5.05578 4.78919 0
M  V30 1610 H 155.104 5.73859 4.98588 0
M  V30 1611 N 156.679 -1.44442 0.630414 0
M  V30 1612 C 157.629 -2.27794 -0.0968103 0
M  V30 1613 C 158.613 -1.38624 -0.816834 0
M  V30 1614 O 159.805 -1.62438 -0.70306 0
M  V30 1615 C 156.934 -3.25929 -1.07819 0
M  V30 1616 C 156.02 -4.22588 -0.357826 0
M  V30 1617 N 156.411 -5.0207 0.613169 0
M  V30 1618 C 154.709 -4.41914 -0.602365 0
M  V30 1619 C 155.41 -5.72351 1.03871 0
M  V30 1620 N 154.386 -5.42287 0.377642 0
M  V30 1621 H 158.188 -2.86653 0.648621 0
M  V30 1622 H 155.702 -1.55871 0.455862 0
M  V30 1623 H 157.699 -3.84399 -1.61378 0
M  V30 1624 H 156.359 -2.68631 -1.82393 0
M  V30 1625 H 157.37 -5.08331 0.990947 0
M  V30 1626 H 154.047 -3.95714 -1.33103 0
M  V30 1627 H 155.437 -6.4619 1.84086 0
M  V30 1628 N 158.157 -0.370918 -1.53173 0
M  V30 1629 C 159.067 0.480823 -2.2962 0
M  V30 1630 C 160.083 1.08789 -1.35798 0
M  V30 1631 O 161.259 1.09768 -1.68858 0
M  V30 1632 C 158.324 1.60227 -3.07454 0
M  V30 1633 C 157.385 1.0222 -4.16953 0
M  V30 1634 C 156.618 2.0902 -4.91066 0
M  V30 1635 O 156.841 3.30222 -4.65091 0
M  V30 1636 O 155.775 1.71778 -5.76867 0
M  V30 1637 H 159.601 -0.141421 -3.03371 0
M  V30 1638 H 157.186 -0.135146 -1.48787 0
M  V30 1639 H 159.068 2.25417 -3.56041 0
M  V30 1640 H 157.743 2.20982 -2.36535 0
M  V30 1641 H 156.65 0.334064 -3.72605 0
M  V30 1642 H 157.983 0.459131 -4.90054 0
M  V30 1643 N 159.635 1.57281 -0.100228 0
M  V30 1644 C 160.598 2.13158 0.842398 0
M  V30 1645 C 161.598 1.06202 1.20738 0
M  V30 1646 O 162.788 1.32066 1.13597 0
M  V30 1647 C 159.92 2.65639 2.13655 0
M  V30 1648 H 161.113 2.97766 0.357114 0
M  V30 1649 H 158.666 1.5559 0.148823 0
M  V30 1650 H 159.401 1.84566 2.66657 0
M  V30 1651 H 159.186 3.43844 1.88451 0
M  V30 1652 H 160.676 3.08846 2.81077 0
M  V30 1653 N 161.113 -0.173488 1.56642 0
M  V30 1654 C 162.361 -0.888706 1.81512 0
M  V30 1655 C 162.682 -1.82875 0.676872 0
M  V30 1656 O 161.952 -1.93536 -0.303414 0
M  V30 1657 H 160.532 -0.331164 0.669582 0
M  V30 1658 H 163.194 -0.173823 1.94123 0
M  V30 1659 H 162.29 -1.46691 2.75478 0
M  V30 1660 N 162.591 -1.51276 -0.441967 0
M  V30 1661 C 163.84 -1.6295 -1.18871 0
M  V30 1662 C 164.153 -0.349312 -1.92456 0
M  V30 1663 O 165.359 -0.345355 -2.69295 0
M  V30 1664 C 163.815 -2.87759 -2.16155 0
M  V30 1665 C 163.423 -4.22764 -1.48239 0
M  V30 1666 C 165.167 -3.08788 -2.91291 0
M  V30 1667 C 163.074 -5.38728 -2.4398 0
M  V30 1668 H 162.004 -0.606913 -0.447406 0
M  V30 1669 H 164.655 -1.77739 -0.456205 0
M  V30 1670 H 163.037 -2.66593 -2.92821 0
M  V30 1671 H 164.211 -4.54293 -0.771635 0
M  V30 1672 H 162.526 -4.07575 -0.852741 0
M  V30 1673 H 165.123 -3.92599 -3.63002 0
M  V30 1674 H 165.466 -2.21679 -3.5237 0
M  V30 1675 H 165.999 -3.30272 -2.21733 0
M  V30 1676 H 162.738 -6.28082 -1.87598 0
M  V30 1677 H 162.258 -5.1158 -3.13123 0
M  V30 1678 H 163.937 -5.70489 -3.05207 0
M  V30 1679 N 164.069 0.697108 -1.41344 0
M  V30 1680 C 165.318 1.45279 -1.39918 0
M  V30 1681 C 165.631 1.95597 -0.0109624 0
M  V30 1682 O 166.837 2.71208 0.125919 0
M  V30 1683 C 165.293 2.62695 -2.46007 0
M  V30 1684 C 164.901 2.19169 -3.90729 0
M  V30 1685 C 166.645 3.40336 -2.53715 0
M  V30 1686 C 164.552 3.33535 -4.88373 0
M  V30 1687 H 163.482 0.545692 -0.520323 0
M  V30 1688 H 166.133 0.756929 -1.67161 0
M  V30 1689 H 164.515 3.34541 -2.11892 0
M  V30 1690 H 165.689 1.54623 -4.34083 0
M  V30 1691 H 164.004 1.54525 -3.86666 0
M  V30 1692 H 166.601 4.2547 -3.2385 0
M  V30 1693 H 166.944 3.85418 -1.5735 0
M  V30 1694 H 167.477 2.75546 -2.86913 0
M  V30 1695 H 164.216 2.93468 -5.86137 0
M  V30 1696 H 163.736 3.96936 -4.49668 0
M  V30 1697 H 165.415 3.99335 -5.09059 0
M  V30 1698 N 165.547 1.27147 0.931209 0
M  V30 1699 C 166.793 1.13446 1.68101 0
M  V30 1700 C 167.126 -0.319628 1.91552 0
M  V30 1701 O 166.401 -1.23407 1.50336 0
M  V30 1702 C 166.684 1.91482 3.0497 0
M  V30 1703 C 166.537 3.44855 2.88782 0
M  V30 1704 C 167.856 1.71651 4.05246 0
M  V30 1705 H 164.975 0.413498 0.610072 0
M  V30 1706 H 167.617 1.56261 1.08086 0
M  V30 1707 H 165.767 1.55095 3.56199 0
M  V30 1708 H 167.439 3.9105 2.44698 0
M  V30 1709 H 165.682 3.71373 2.24198 0
M  V30 1710 H 166.353 3.94694 3.85902 0
M  V30 1711 H 168.829 2.0337 3.63015 0
M  V30 1712 H 167.705 2.28651 4.99009 0
M  V30 1713 H 167.966 0.663555 4.37092 0
M  V30 1714 N 167.025 -1.13721 1.09112 0
M  V30 1715 C 168.274 -1.84275 0.82009 0
M  V30 1716 C 168.587 -1.84253 -0.656509 0
M  V30 1717 O 169.793 -2.50668 -1.04296 0
M  V30 1718 C 168.249 -3.30825 1.41714 0
M  V30 1719 C 167.857 -3.39244 2.92605 0
M  V30 1720 C 169.601 -4.06443 1.22492 0
M  V30 1721 C 167.508 -4.80047 3.45411 0
M  V30 1722 H 166.438 -0.690387 0.30312 0
M  V30 1723 H 169.089 -1.28146 1.31343 0
M  V30 1724 H 167.471 -3.86737 0.851498 0
M  V30 1725 H 168.645 -2.93344 3.55367 0
M  V30 1726 H 166.96 -2.77088 3.10823 0
M  V30 1727 H 169.557 -5.10387 1.59402 0
M  V30 1728 H 169.9 -4.15972 0.165299 0
M  V30 1729 H 170.433 -3.56852 1.75788 0
M  V30 1730 H 167.172 -4.75709 4.50978 0
M  V30 1731 H 166.692 -5.26455 2.87411 0
M  V30 1732 H 168.371 -5.48957 3.42425 0
M  V30 1733 N 168.503 -0.877838 -1.30888 0
M  V30 1734 C 169.914 -0.544193 -1.78593 0
M  V30 1735 C 170.265 0.939301 -1.72254 0
M  V30 1736 O 169.39 1.7337 -1.29505 0
M  V30 1737 C 169.985 -0.98105 -3.24285 0
M  V30 1738 C 168.544 -0.698935 -3.69854 0
M  V30 1739 C 167.691 -1.168 -2.51502 0
M  V30 1740 H 170.642 -1.06278 -1.17859 0
M  V30 1741 H 170.663 -0.307009 -3.79259 0
M  V30 1742 H 170.175 -2.06079 -3.28866 0
M  V30 1743 H 168.276 0.369112 -3.70767 0
M  V30 1744 H 168.389 -1.28148 -4.61644 0
M  V30 1745 H 166.753 -0.587535 -2.47831 0
M  V30 1746 H 167.536 -2.25533 -2.58824 0
M  V30 1747 N 169.982 1.44106 -0.638065 0
M  V30 1748 C 171.228 2.02277 -0.145546 0
M  V30 1749 C 171.561 1.50125 1.23191 0
M  V30 1750 O 170.836 0.688133 1.8192 0
M  V30 1751 C 171.119 3.59829 -0.139791 0
M  V30 1752 C 170.972 4.22247 -1.55008 0
M  V30 1753 C 172.291 4.36873 0.531966 0
M  V30 1754 H 169.41 0.734992 -0.0543632 0
M  V30 1755 H 172.052 1.71592 -0.815863 0
M  V30 1756 H 170.202 3.86102 0.431007 0
M  V30 1757 H 171.874 4.07057 -2.1703 0
M  V30 1758 H 170.117 3.79476 -2.10191 0
M  V30 1759 H 170.788 5.31284 -1.49804 0
M  V30 1760 H 173.264 4.16074 0.0464781 0
M  V30 1761 H 172.14 5.4657 0.505206 0
M  V30 1762 H 172.401 4.11995 1.60352 0
M  V30 1763 N 171.46 0.379036 1.52974 0
M  V30 1764 C 172.706 -0.206727 2.01744 0
M  V30 1765 C 173.039 -1.47314 1.26539 0
M  V30 1766 O 172.314 -1.91084 0.362903 0
M  V30 1767 C 172.597 -0.485066 3.56818 0
M  V30 1768 C 172.45 0.795919 4.42702 0
M  V30 1769 C 173.769 -1.28003 4.21074 0
M  V30 1770 H 170.888 -0.0736607 0.73331 0
M  V30 1771 H 173.53 0.506581 1.83122 0
M  V30 1772 H 171.68 -1.09272 3.72816 0
M  V30 1773 H 173.352 1.43307 4.38476 0
M  V30 1774 H 171.595 1.41344 4.10127 0
M  V30 1775 H 172.266 0.555947 5.49193 0
M  V30 1776 H 174.742 -0.765867 4.08991 0
M  V30 1777 H 173.618 -1.44352 5.29579 0
M  V30 1778 H 173.879 -2.29236 3.78026 0
M  V30 1779 N 172.938 -1.57226 0.108567 0
M  V30 1780 C 174.349 -1.8195 -0.418464 0
M  V30 1781 C 174.7 -1.02508 -1.67292 0
M  V30 1782 O 173.825 -0.258496 -2.14851 0
M  V30 1783 C 174.42 -3.30028 -0.765979 0
M  V30 1784 C 172.979 -3.55469 -1.23769 0
M  V30 1785 C 172.126 -2.7625 -0.241106 0
M  V30 1786 H 175.077 -1.55149 0.33384 0
M  V30 1787 H 175.098 -3.44086 -1.62434 0
M  V30 1788 H 174.61 -3.87821 0.147219 0
M  V30 1789 H 172.711 -3.03022 -2.16814 0
M  V30 1790 H 172.824 -4.6408 -1.19022 0
M  V30 1791 H 171.188 -2.44133 -0.72602 0
M  V30 1792 H 171.971 -3.36797 0.665007 0
M  V30 1793 N 174.416 0.165178 -1.56732 0
M  V30 1794 C 175.641 0.900253 -1.86843 0
M  V30 1795 C 176.066 1.74766 -0.695596 0
M  V30 1796 O 175.424 1.77786 0.35522 0
M  V30 1797 C 175.472 1.74777 -3.15413 0
M  V30 1798 O 174.576 2.85007 -2.98068 0
M  V30 1799 H 173.917 0.251832 -0.614391 0
M  V30 1800 H 176.447 0.161468 -2.03962 0
M  V30 1801 H 176.457 2.14646 -3.46974 0
M  V30 1802 H 175.132 1.12537 -4.00385 0
M  V30 1803 H 173.709 2.48676 -2.77875 0
M  V30 1804 N 175.894 1.51508 0.433938 0
M  V30 1805 C 177.14 1.64588 1.18484 0
M  V30 1806 C 177.473 0.362666 1.90784 0
M  V30 1807 O 176.748 -0.637892 1.83742 0
M  V30 1808 C 177.031 2.85149 2.19913 0
M  V30 1809 C 176.884 4.23456 1.51674 0
M  V30 1810 C 178.203 3.01227 3.20858 0
M  V30 1811 H 175.322 0.598994 0.429389 0
M  V30 1812 H 177.964 1.84002 0.473647 0
M  V30 1813 H 176.114 2.68729 2.80566 0
M  V30 1814 H 177.786 4.51552 0.943322 0
M  V30 1815 H 176.029 4.25998 0.819035 0
M  V30 1816 H 176.7 5.03812 2.2556 0
M  V30 1817 H 179.176 3.16382 2.70263 0
M  V30 1818 H 178.052 3.87141 3.89118 0
M  V30 1819 H 178.313 2.13447 3.8716 0
M  V30 1820 N 177.372 -0.689602 1.41712 0
M  V30 1821 C 178.335 -1.78521 1.43746 0
M  V30 1822 C 179.335 -1.57436 0.327191 0
M  V30 1823 O 180.525 -1.64 0.587348 0
M  V30 1824 C 177.657 -3.16971 1.25467 0
M  V30 1825 H 178.85 -1.78108 2.41283 0
M  V30 1826 H 176.403 -0.89781 1.27942 0
M  V30 1827 H 177.138 -3.23019 0.287948 0
M  V30 1828 H 176.923 -3.33678 2.05917 0
M  V30 1829 H 178.413 -3.96935 1.2974 0
M  V30 1830 N 178.85 -1.27639 -0.924453 0
M  V30 1831 C 179.78 -1.13166 -2.04244 0
M  V30 1832 C 180.761 -0.032256 -1.70069 0
M  V30 1833 O 181.946 -0.207328 -1.9309 0
M  V30 1834 C 179.076 -0.781496 -3.38393 0
M  V30 1835 C 178.03 -1.83449 -3.86692 0
M  V30 1836 C 177.356 -1.33822 -5.17683 0
M  V30 1837 C 178.656 -3.23917 -4.09726 0
M  V30 1838 H 180.35 -2.06689 -2.1661 0
M  V30 1839 H 177.896 -0.995136 -1.04082 0
M  V30 1840 H 179.849 -0.667057 -4.16087 0
M  V30 1841 H 178.573 0.189439 -3.2605 0
M  V30 1842 H 177.232 -1.93789 -3.11193 0
M  V30 1843 H 176.88 -0.35665 -5.01734 0
M  V30 1844 H 176.58 -2.04224 -5.50968 0
M  V30 1845 H 178.104 -1.23679 -5.97943 0
M  V30 1846 H 179.518 -3.16559 -4.77978 0
M  V30 1847 H 177.915 -3.92059 -4.54324 0
M  V30 1848 H 178.985 -3.68729 -3.14908 0
M  V30 1849 N 180.328 1.1314 -1.09713 0
M  V30 1850 C 181.291 2.16831 -0.742751 0
M  V30 1851 C 182.291 1.59159 0.229129 0
M  V30 1852 O 183.481 1.74199 0.00693237 0
M  V30 1853 C 180.613 3.40756 -0.0989168 0
M  V30 1854 H 181.806 2.49695 -1.66109 0
M  V30 1855 H 179.359 1.2802 -0.896699 0
M  V30 1856 H 180.094 3.13485 0.830514 0
M  V30 1857 H 179.879 3.83888 -0.798265 0
M  V30 1858 H 181.369 4.17386 0.133524 0
M  V30 1859 N 181.806 0.884767 1.30421 0
M  V30 1860 C 182.753 0.349642 2.28136 0
M  V30 1861 C 183.723 -0.560061 1.56373 0
M  V30 1862 O 184.908 -0.488524 1.8444 0
M  V30 1863 C 182.048 -0.42999 3.42411 0
M  V30 1864 C 181.161 0.508907 4.28992 0
M  V30 1865 C 180.296 -0.286301 5.30428 0
M  V30 1866 C 179.335 0.648079 6.08659 0
M  V30 1867 N 178.472 -0.111792 7.02011 0
M  V30 1868 H 183.312 1.18807 2.73293 0
M  V30 1869 H 180.849 0.597231 1.3443 0
M  V30 1870 H 182.807 -0.897923 4.07423 0
M  V30 1871 H 181.437 -1.23299 2.98324 0
M  V30 1872 H 180.489 1.09533 3.64289 0
M  V30 1873 H 181.801 1.22475 4.8353 0
M  V30 1874 H 180.955 -0.816098 6.01186 0
M  V30 1875 H 179.694 -1.03536 4.76583 0
M  V30 1876 H 178.699 1.18951 5.36778 0
M  V30 1877 H 179.924 1.39623 6.64592 0
M  V30 1878 H 177.87 -0.843395 6.50556 0
M  V30 1879 H 177.787 0.544429 7.54037 0
M  V30 1880 H 179.055 -0.622339 7.77012 0
M  V30 1881 N 183.284 -1.43765 0.645699 0
M  V30 1882 C 184.7 -1.56509 0.312591 0
M  V30 1883 C 184.9 -1.6307 -1.18365 0
M  V30 1884 O 183.956 -1.58167 -1.96824 0
M  V30 1885 C 185.269 -2.82968 1.01733 0
M  V30 1886 C 186.817 -2.96701 0.996865 0
M  V30 1887 C 187.292 -4.25982 1.68236 0
M  V30 1888 N 188.783 -4.32829 1.64964 0
M  V30 1889 C 189.518 -5.31613 2.14885 0
M  V30 1890 N 189.014 -6.36718 2.73061 0
M  V30 1891 N 190.807 -5.23217 2.05428 0
M  V30 1892 H 182.958 -1.3775 1.61675 0
M  V30 1893 H 185.221 -0.661067 0.679481 0
M  V30 1894 H 184.927 -2.84156 2.0724 0
M  V30 1895 H 184.801 -3.72957 0.564177 0
M  V30 1896 H 187.188 -2.95058 -0.0497719 0
M  V30 1897 H 187.269 -2.08022 1.48865 0
M  V30 1898 H 186.913 -4.28386 2.72852 0
M  V30 1899 H 186.843 -5.13545 1.16529 0
M  V30 1900 H 189.334 -3.57493 1.22503 0
M  V30 1901 H 189.647 -7.08401 3.08848 0
M  V30 1902 H 187.992 -6.37362 2.77118 0
M  V30 1903 H 191.183 -4.40019 1.59689 0
M  V30 1904 H 191.356 -6.00045 2.44643 0
M  V30 1905 N 184.763 -0.387143 -1.52771 0
M  V30 1906 C 185.696 0.493123 -2.22808 0
M  V30 1907 C 186.674 1.0658 -1.22798 0
M  V30 1908 O 187.858 1.11785 -1.51777 0
M  V30 1909 C 184.985 1.68238 -2.93962 0
M  V30 1910 C 184.031 1.23515 -4.08223 0
M  V30 1911 S 184.864 0.21848 -5.35054 0
M  V30 1912 C 186.02 1.41357 -6.09729 0
M  V30 1913 H 186.253 -0.101625 -2.97126 0
M  V30 1914 H 183.786 -0.171323 -1.53447 0
M  V30 1915 H 185.744 2.36443 -3.35567 0
M  V30 1916 H 184.405 2.24842 -2.19328 0
M  V30 1917 H 183.598 2.12304 -4.57103 0
M  V30 1918 H 183.2 0.632044 -3.68621 0
M  V30 1919 H 185.492 2.34101 -6.3577 0
M  V30 1920 H 186.435 0.965736 -7.01484 0
M  V30 1921 H 186.843 1.6294 -5.40473 0
M  V30 1922 N 186.241 1.57166 -0.116904 0
M  V30 1923 C 187.151 2.18745 0.847812 0
M  V30 1924 C 188.167 1.163 1.29423 0
M  V30 1925 O 189.343 1.48761 1.35765 0
M  V30 1926 C 186.408 2.77307 2.0809 0
M  V30 1927 C 185.469 3.94781 1.68661 0
M  V30 1928 C 184.702 4.50541 2.86091 0
M  V30 1929 O 184.925 4.05202 4.01456 0
M  V30 1930 O 183.859 5.41256 2.63298 0
M  V30 1931 H 187.685 3.01632 0.353778 0
M  V30 1932 H 185.27 1.49005 0.108599 0
M  V30 1933 H 187.152 3.14647 2.80313 0
M  V30 1934 H 185.827 1.97452 2.56504 0
M  V30 1935 H 184.734 3.62214 0.935518 0
M  V30 1936 H 186.067 4.76065 1.24991 0
M  V30 1937 N 187.719 -0.156864 1.56817 0
M  V30 1938 C 188.666 -1.19394 1.97519 0
M  V30 1939 C 189.636 -1.4322 0.841265 0
M  V30 1940 O 190.821 -1.55719 1.10255 0
M  V30 1941 C 187.961 -2.52483 2.35258 0
M  V30 1942 C 187.074 -2.35914 3.61896 0
M  V30 1943 C 186.209 -3.61969 3.88782 0
M  V30 1944 C 185.248 -3.40395 5.08722 0
M  V30 1945 N 184.385 -4.58556 5.31668 0
M  V30 1946 H 189.225 -0.839845 2.85921 0
M  V30 1947 H 186.762 -0.403264 1.41464 0
M  V30 1948 H 188.72 -3.30071 2.55165 0
M  V30 1949 H 187.35 -2.85859 1.49949 0
M  V30 1950 H 186.402 -1.49429 3.49821 0
M  V30 1951 H 187.714 -2.15926 4.49641 0
M  V30 1952 H 186.868 -4.47989 4.09135 0
M  V30 1953 H 185.607 -3.84951 2.9944 0
M  V30 1954 H 184.612 -2.52763 4.88253 0
M  V30 1955 H 185.837 -3.18822 5.99608 0
M  V30 1956 H 183.783 -4.81729 4.45279 0
M  V30 1957 H 183.7 -4.41535 6.13664 0
M  V30 1958 H 184.968 -5.45817 5.5651 0
M  V30 1959 N 189.197 -1.51736 -0.425897 0
M  V30 1960 C 190.446 -1.64201 -1.17136 0
M  V30 1961 C 190.759 -0.369705 -1.92074 0
M  V30 1962 O 191.965 -0.373898 -2.68913 0
M  V30 1963 C 190.421 -2.90035 -2.13091 0
M  V30 1964 C 190.029 -4.24312 -1.43747 0
M  V30 1965 C 191.773 -3.1186 -2.87999 0
M  V30 1966 C 189.68 -5.41285 -2.38253 0
M  V30 1967 H 188.61 -0.611624 -0.440944 0
M  V30 1968 H 191.261 -1.78212 -0.437328 0
M  V30 1969 H 189.643 -2.69684 -2.89977 0
M  V30 1970 H 190.817 -4.55086 -0.723408 0
M  V30 1971 H 189.132 -4.08456 -0.809465 0
M  V30 1972 H 191.729 -3.96427 -3.58817 0
M  V30 1973 H 192.072 -2.25403 -3.49999 0
M  V30 1974 H 192.605 -3.32605 -2.18217 0
M  V30 1975 H 189.344 -6.30037 -1.80925 0
M  V30 1976 H 188.864 -5.14872 -3.0768 0
M  V30 1977 H 190.543 -5.73694 -2.99139 0
M  V30 1978 N 190.675 0.682077 -1.42076 0
M  V30 1979 C 191.923 1.4393 -1.41876 0
M  V30 1980 C 192.244 1.94971 -0.0335599 0
M  V30 1981 O 191.514 1.72591 0.926773 0
M  V30 1982 H 190.094 0.534085 -0.522267 0
M  V30 1983 H 192.756 0.806427 -1.77434 0
M  V30 1984 H 191.852 2.29588 -2.11414 0
M  V30 1985 N 192.153 1.28127 0.917671 0
M  V30 1986 C 193.116 1.11744 2.00115 0
M  V30 1987 C 194.116 0.0583052 1.60694 0
M  V30 1988 O 195.306 0.303755 1.71531 0
M  V30 1989 C 192.438 0.704862 3.33533 0
M  V30 1990 H 193.631 2.07966 2.16079 0
M  V30 1991 H 191.184 1.11058 1.09981 0
M  V30 1992 H 191.919 -0.258299 3.2327 0
M  V30 1993 H 191.704 1.4699 3.63505 0
M  V30 1994 H 193.194 0.612768 4.1308 0
M  V30 1995 N 193.631 -1.12557 1.10312 0
M  V30 1996 C 194.908 -1.80363 0.756878 0
M  V30 1997 C 195.288 -1.97067 -0.756824 0
M  V30 1998 O 194.636 -1.54601 -1.68259 0
M  V30 1999 C 194.846 -3.14812 1.50647 0
M  V30 2000 C 196.194 -3.90029 1.67817 0
M  V30 2001 O 197.218 -3.24464 1.46974 0
M  V30 2002 O 196.077 -5.07652 2.02365 0
M  V30 2003 H 193.171 -0.780667 0.272926 0
M  V30 2004 H 195.717 -1.19404 1.20586 0
M  V30 2005 H 194.489 -2.97936 2.53672 0
M  V30 2006 H 194.112 -3.83478 1.05026 0
M  V30 2007 N 195.109 -0.891671 -1.2995 0
M  V30 2008 C 196.072 -0.36828 -2.26222 0
M  V30 2009 C 197.072 0.493014 -1.53056 0
M  V30 2010 O 198.262 0.299213 -1.71611 0
M  V30 2011 C 195.394 0.47442 -3.37583 0
M  V30 2012 H 196.587 -1.21844 -2.74033 0
M  V30 2013 H 194.14 -0.669107 -1.41254 0
M  V30 2014 H 194.875 1.34489 -2.95099 0
M  V30 2015 H 194.66 -0.142615 -3.91841 0
M  V30 2016 H 196.15 0.83218 -4.09224 0
M  V30 2017 N 196.587 1.43421 -0.653314 0
M  V30 2018 C 197.833 2.02111 -0.166992 0
M  V30 2019 C 198.166 1.51423 1.21592 0
M  V30 2020 O 197.441 0.707389 1.8118 0
M  V30 2021 C 197.724 3.5966 -0.177948 0
M  V30 2022 C 197.577 4.20579 -1.59478 0
M  V30 2023 C 198.896 4.37413 0.4856 0
M  V30 2024 H 196.015 0.734374 -0.0621557 0
M  V30 2025 H 198.657 1.70717 -0.834016 0
M  V30 2026 H 196.807 3.86537 0.390032 0
M  V30 2027 H 198.479 4.04732 -2.21336 0
M  V30 2028 H 196.722 3.77226 -2.14204 0
M  V30 2029 H 197.393 5.29665 -1.5543 0
M  V30 2030 H 199.869 4.161 0.00234528 0
M  V30 2031 H 198.745 5.47075 0.447207 0
M  V30 2032 H 199.006 4.13672 1.55974 0
M  V30 2033 N 198.065 0.39524 1.52563 0
M  V30 2034 C 199.314 -0.186321 2.00838 0
M  V30 2035 C 199.627 -1.47402 1.28577 0
M  V30 2036 O 200.833 -2.13599 1.67593 0
M  V30 2037 C 199.289 -0.382595 3.57861 0
M  V30 2038 C 198.897 0.892202 4.39026 0
M  V30 2039 C 200.641 -0.9202 4.14406 0
M  V30 2040 C 198.548 0.66388 5.87662 0
M  V30 2041 H 197.478 -0.0734041 0.750418 0
M  V30 2042 H 200.129 0.518552 1.76021 0
M  V30 2043 H 198.511 -1.14946 3.7895 0
M  V30 2044 H 199.685 1.66414 4.29701 0
M  V30 2045 H 198 1.35519 3.9373 0
M  V30 2046 H 200.597 -1.10683 5.23119 0
M  V30 2047 H 200.94 -1.89096 3.70875 0
M  V30 2048 H 201.473 -0.212751 3.97231 0
M  V30 2049 H 198.212 1.6058 6.35527 0
M  V30 2050 H 197.732 -0.0690193 5.9976 0
M  V30 2051 H 199.411 0.300699 6.46301 0
M  V30 2052 N 199.544 -1.57102 0.125237 0
M  V30 2053 C 200.507 -2.14471 -0.80838 0
M  V30 2054 C 201.507 -1.0811 -1.19033 0
M  V30 2055 O 202.697 -1.33856 -1.11482 0
M  V30 2056 C 199.829 -2.69005 -2.09402 0
M  V30 2057 H 201.022 -2.98297 -0.309696 0
M  V30 2058 H 198.575 -1.55807 -0.124051 0
M  V30 2059 H 199.31 -1.88785 -2.63687 0
M  V30 2060 H 199.095 -3.46799 -1.82957 0
M  V30 2061 H 200.585 -3.13278 -2.76128 0
M  V30 2062 N 201.022 0.148545 -1.56898 0
M  V30 2063 C 201.932 1.20293 -2.01412 0
M  V30 2064 C 202.948 1.47107 -0.929273 0
M  V30 2065 O 204.124 1.58807 -1.23863 0
M  V30 2066 C 201.189 2.51682 -2.38447 0
M  V30 2067 C 200.25 2.32529 -3.60872 0
M  V30 2068 C 199.483 3.57653 -3.96132 0
M  V30 2069 O 199.706 4.63771 -3.32073 0
M  V30 2070 O 198.64 3.50408 -4.89385 0
M  V30 2071 H 202.466 0.855025 -2.91416 0
M  V30 2072 H 200.051 0.357151 -1.45068 0
M  V30 2073 H 201.933 3.29147 -2.63135 0
M  V30 2074 H 200.608 2.86006 -1.51599 0
M  V30 2075 H 199.515 1.53019 -3.41373 0
M  V30 2076 H 200.848 2.03121 -4.48333 0
M  V30 2077 N 202.5 1.5196 0.417844 0
M  V30 2078 C 203.748 1.65263 1.16329 0
M  V30 2079 C 204.069 0.380634 1.91249 0
M  V30 2080 O 203.339 -0.604214 1.86349 0
M  V30 2081 H 201.919 0.60912 0.432414 0
M  V30 2082 H 204.581 1.88969 0.477162 0
M  V30 2083 H 203.677 2.4896 1.88217 0
M  V30 2084 N 203.978 -0.674533 1.42435 0
M  V30 2085 C 204.911 -1.79924 1.40366 0
M  V30 2086 C 205.889 -1.60378 0.267899 0
M  V30 2087 O 207.073 -1.82847 0.458159 0
M  V30 2088 C 204.2 -3.16927 1.19478 0
M  V30 2089 C 203.246 -3.55221 2.36051 0
M  V30 2090 S 204.079 -3.5762 3.98583 0
M  V30 2091 C 205.235 -4.97315 3.80038 0
M  V30 2092 H 205.468 -1.81405 2.35541 0
M  V30 2093 H 203.001 -0.845221 1.29211 0
M  V30 2094 H 204.959 -3.96007 1.08114 0
M  V30 2095 H 203.62 -3.13031 0.258883 0
M  V30 2096 H 202.813 -4.54804 2.17185 0
M  V30 2097 H 202.415 -2.83502 2.43932 0
M  V30 2098 H 204.707 -5.85401 3.41045 0
M  V30 2099 H 205.65 -5.21228 4.79298 0
M  V30 2100 H 206.058 -4.69845 3.12899 0
M  V30 2101 N 205.456 -1.28612 -0.910864 0
M  V30 2102 C 206.366 -1.14643 -2.0468 0
M  V30 2103 C 207.382 -0.0723121 -1.7385 0
M  V30 2104 O 208.558 -0.282178 -1.99413 0
M  V30 2105 C 205.623 -0.812561 -3.37044 0
M  V30 2106 C 204.684 -1.96935 -3.81465 0
M  V30 2107 C 203.917 -1.65131 -5.07511 0
M  V30 2108 O 204.14 -0.567013 -5.67575 0
M  V30 2109 O 203.074 -2.49585 -5.47714 0
M  V30 2110 H 206.9 -2.1001 -2.19384 0
M  V30 2111 H 204.485 -1.07958 -1.03274 0
M  V30 2112 H 206.367 -0.640441 -4.16505 0
M  V30 2113 H 205.042 0.111426 -3.23508 0
M  V30 2114 H 203.949 -2.19664 -3.02818 0
M  V30 2115 H 205.282 -2.87414 -3.99567 0
M  V30 2116 N 206.934 1.1197 -1.10907 0
M  V30 2117 C 207.897 2.16031 -0.765707 0
M  V30 2118 C 208.897 1.59393 0.212235 0
M  V30 2119 O 210.087 1.74196 -0.0115441 0
M  V30 2120 C 207.219 3.40632 -0.135053 0
M  V30 2121 H 208.412 2.47919 -1.68748 0
M  V30 2122 H 205.965 1.27061 -0.910226 0
M  V30 2123 H 206.7 3.14348 0.797218 0
M  V30 2124 H 206.485 3.8302 -0.838937 0
M  V30 2125 H 207.975 4.17505 0.0892469 0
M  V30 2126 N 208.412 0.89855 1.29475 0
M  V30 2127 C 209.66 0.522847 1.9522 0
M  V30 2128 C 209.981 -0.93371 1.71192 0
M  V30 2129 O 209.251 -1.65823 1.04305 0
M  V30 2130 H 207.831 0.190366 0.722336 0
M  V30 2131 H 210.493 1.14459 1.5775 0
M  V30 2132 H 209.589 0.704476 3.04045 0
M  V30 2133 N 209.89 -1.43072 0.660911 0
M  V30 2134 C 211.138 -2.01323 0.177094 0
M  V30 2135 C 211.459 -1.5245 -1.2159 0
M  V30 2136 O 210.729 -0.740322 -1.81373 0
M  V30 2137 H 209.309 -0.744382 0.0624804 0
M  V30 2138 H 211.971 -1.75179 0.854305 0
M  V30 2139 H 211.067 -3.11649 0.167641 0
M  V30 2140 N 211.368 -0.403325 -1.52352 0
M  V30 2141 C 212.318 0.442244 -2.2367 0
M  V30 2142 C 213.302 1.01823 -1.24583 0
M  V30 2143 O 214.494 0.942005 -1.49851 0
M  V30 2144 C 211.623 1.5615 -3.05732 0
M  V30 2145 C 210.709 0.996575 -4.12225 0
M  V30 2146 N 211.1 0.157804 -5.05554 0
M  V30 2147 C 209.398 1.26767 -4.27605 0
M  V30 2148 C 210.099 -0.155853 -5.81491 0
M  V30 2149 N 209.075 0.451775 -5.41719 0
M  V30 2150 H 212.877 -0.204964 -2.93184 0
M  V30 2151 H 210.391 -0.213418 -1.60992 0
M  V30 2152 H 212.388 2.17981 -3.55373 0
M  V30 2153 H 211.048 2.21139 -2.37755 0
M  V30 2154 H 212.059 -0.206049 -5.1749 0
M  V30 2155 H 208.736 1.91757 -3.70858 0
M  V30 2156 H 210.126 -0.836329 -6.66675 0
M  V30 2157 N 212.846 1.57033 -0.133567 0
M  V30 2158 C 214.095 1.94861 0.520768 0
M  V30 2159 C 214.408 1.02012 1.66892 0
M  V30 2160 O 215.614 1.29365 2.38699 0
M  V30 2161 C 214.07 3.46362 0.977809 0
M  V30 2162 C 213.678 4.47773 -0.142674 0
M  V30 2163 C 215.422 3.93083 1.60269 0
M  V30 2164 C 213.329 5.90468 0.331883 0
M  V30 2165 H 212.259 0.727453 0.198315 0
M  V30 2166 H 214.91 1.82227 -0.215759 0
M  V30 2167 H 213.292 3.54282 1.7692 0
M  V30 2168 H 214.466 4.51536 -0.919317 0
M  V30 2169 H 212.781 4.10891 -0.675124 0
M  V30 2170 H 215.378 4.97121 1.96914 0
M  V30 2171 H 215.721 3.33876 2.48662 0
M  V30 2172 H 216.254 3.88025 0.876453 0
M  V30 2173 H 212.993 6.53463 -0.516341 0
M  V30 2174 H 212.513 5.90094 1.07469 0
M  V30 2175 H 214.192 6.42179 0.788332 0
M  V30 2176 N 214.325 -0.140222 1.56975 0
M  V30 2177 C 215.573 -0.850005 1.83356 0
M  V30 2178 C 215.894 -1.81399 0.71551 0
M  V30 2179 O 215.164 -1.94136 -0.262294 0
M  V30 2180 H 213.744 -0.316886 0.676456 0
M  V30 2181 H 216.406 -0.132608 1.94448 0
M  V30 2182 H 215.502 -1.40814 2.78528 0
M  V30 2183 N 215.803 -1.52179 -0.40978 0
M  V30 2184 C 216.75 -1.75475 -1.49924 0
M  V30 2185 C 217.72 -0.597175 -1.54994 0
M  V30 2186 O 218.905 -0.834655 -1.71575 0
M  V30 2187 C 216.045 -1.9107 -2.87378 0
M  V30 2188 C 215.158 -3.18717 -2.91622 0
M  V30 2189 C 214.293 -3.24747 -4.20372 0
M  V30 2190 C 213.332 -4.46598 -4.18588 0
M  V30 2191 N 212.469 -4.50025 -5.38908 0
M  V30 2192 H 217.309 -2.68458 -1.29361 0
M  V30 2193 H 214.846 -1.33024 -0.627934 0
M  V30 2194 H 216.804 -1.98096 -3.6717 0
M  V30 2195 H 215.434 -1.01469 -3.06437 0
M  V30 2196 H 214.486 -3.20866 -2.04326 0
M  V30 2197 H 215.798 -4.08544 -2.86169 0
M  V30 2198 H 214.952 -3.30841 -5.08556 0
M  V30 2199 H 213.691 -2.32857 -4.28519 0
M  V30 2200 H 212.696 -4.40652 -3.28794 0
M  V30 2201 H 213.921 -5.39783 -4.12081 0
M  V30 2202 H 211.867 -3.61017 -5.47725 0
M  V30 2203 H 211.784 -5.33697 -5.35447 0
M  V30 2204 H 213.052 -4.60347 -6.29048 0
M  V30 2205 N 217.281 0.66697 -1.42791 0
M  V30 2206 C 218.211 1.79218 -1.49677 0
M  V30 2207 C 219.192 1.66405 -0.352623 0
M  V30 2208 O 220.377 1.85708 -0.567993 0
M  V30 2209 C 217.507 3.17565 -1.40605 0
M  V30 2210 C 216.461 3.45124 -2.53127 0
M  V30 2211 C 215.787 4.83127 -2.29112 0
M  V30 2212 C 217.087 3.41236 -3.95418 0
M  V30 2213 H 218.781 1.73713 -2.43853 0
M  V30 2214 H 216.327 0.83432 -1.17367 0
M  V30 2215 H 218.28 3.96022 -1.44029 0
M  V30 2216 H 217.004 3.23767 -0.429271 0
M  V30 2217 H 215.663 2.69031 -2.49034 0
M  V30 2218 H 215.311 4.85988 -1.29709 0
M  V30 2219 H 215.011 5.02528 -3.04531 0
M  V30 2220 H 216.535 5.63859 -2.34297 0
M  V30 2221 H 217.949 4.09651 -4.01073 0
M  V30 2222 H 216.346 3.72173 -4.70752 0
M  V30 2223 H 217.416 2.39665 -4.21532 0
M  V30 2224 N 218.759 1.29093 0.90403 0
M  V30 2225 C 219.987 1.19689 1.68766 0
M  V30 2226 C 220.402 -0.243113 1.87228 0
M  V30 2227 O 219.759 -1.16326 1.40621 0
M  V30 2228 C 219.81 1.90144 3.07453 0
M  V30 2229 O 219.531 3.2852 2.89838 0
M  V30 2230 C 221.032 1.87162 4.01852 0
M  V30 2231 H 218.252 0.415035 0.527244 0
M  V30 2232 H 220.796 1.7039 1.13082 0
M  V30 2233 H 218.951 1.43289 3.59926 0
M  V30 2234 H 219.365 3.63944 3.77684 0
M  V30 2235 H 220.839 2.41032 4.96596 0
M  V30 2236 H 221.316 0.84617 4.30972 0
M  V30 2237 H 221.922 2.33741 3.5531 0
M  V30 2238 N 220.237 -1.11381 1.11499 0
M  V30 2239 C 221.465 -1.86934 0.88675 0
M  V30 2240 C 221.88 -1.80195 -0.563476 0
M  V30 2241 O 221.237 -1.18367 -1.38908 0
M  V30 2242 C 221.288 -3.35722 1.34064 0
M  V30 2243 O 221.009 -3.4232 2.73401 0
M  V30 2244 C 222.51 -4.2818 1.14791 0
M  V30 2245 H 219.73 -0.591117 0.317523 0
M  V30 2246 H 222.274 -1.40865 1.48248 0
M  V30 2247 H 220.429 -3.79294 0.788355 0
M  V30 2248 H 220.843 -4.34971 2.93087 0
M  V30 2249 H 222.317 -5.30817 1.5145 0
M  V30 2250 H 222.794 -4.39113 0.0875279 0
M  V30 2251 H 223.4 -3.90402 1.68721 0
M  V30 2252 N 221.715 -0.905404 -1.28997 0
M  V30 2253 C 222.648 -0.331959 -2.25773 0
M  V30 2254 C 223.626 0.559099 -1.52685 0
M  V30 2255 O 224.81 0.50463 -1.8162 0
M  V30 2256 C 221.937 0.526276 -3.34586 0
M  V30 2257 C 220.983 -0.298249 -4.25456 0
M  V30 2258 S 221.816 -1.69968 -5.0781 0
M  V30 2259 C 222.972 -0.848519 -6.20122 0
M  V30 2260 H 223.205 -1.15222 -2.74064 0
M  V30 2261 H 220.738 -0.706112 -1.37308 0
M  V30 2262 H 222.696 1.01565 -3.97737 0
M  V30 2263 H 221.357 1.32084 -2.84978 0
M  V30 2264 H 220.55 0.357607 -5.0273 0
M  V30 2265 H 220.152 -0.720968 -3.66985 0
M  V30 2266 H 222.444 -0.0744325 -6.77459 0
M  V30 2267 H 223.387 -1.59353 -6.89937 0
M  V30 2268 H 223.795 -0.400383 -5.63078 0
M  V30 2269 N 223.193 1.4272 -0.668489 0
M  V30 2270 C 224.421 2.05966 -0.196348 0
M  V30 2271 C 224.836 1.50191 1.14403 0
M  V30 2272 O 224.193 0.639208 1.7094 0
M  V30 2273 C 224.244 3.61314 -0.115815 0
M  V30 2274 O 223.965 4.1502 -1.40322 0
M  V30 2275 C 225.466 4.41663 0.380579 0
M  V30 2276 H 222.686 0.663954 -0.0969829 0
M  V30 2277 H 225.23 1.82966 -0.913446 0
M  V30 2278 H 223.385 3.83448 0.551931 0
M  V30 2279 H 223.799 5.08832 -1.27243 0
M  V30 2280 H 225.273 5.5065 0.385848 0
M  V30 2281 H 225.75 4.15792 1.41471 0
M  V30 2282 H 226.356 4.24534 -0.255209 0
M  V30 2283 N 224.671 0.411399 1.52136 0
M  V30 2284 C 225.601 -0.404015 2.29978 0
M  V30 2285 C 226.582 -1.04412 1.34284 0
M  V30 2286 O 227.767 -1.0527 1.63192 0
M  V30 2287 C 224.897 -1.5197 3.12286 0
M  V30 2288 C 223.851 -1.00448 4.16046 0
M  V30 2289 C 223.177 -2.21393 4.86712 0
M  V30 2290 C 224.477 -0.0569336 5.22269 0
M  V30 2291 H 226.171 0.245529 2.98392 0
M  V30 2292 H 223.717 0.119525 1.43503 0
M  V30 2293 H 225.67 -2.09715 3.6551 0
M  V30 2294 H 224.394 -2.19716 2.41646 0
M  V30 2295 H 223.053 -0.449421 3.63835 0
M  V30 2296 H 222.701 -2.87699 4.12599 0
M  V30 2297 H 222.401 -1.87571 5.56858 0
M  V30 2298 H 223.925 -2.7974 5.4275 0
M  V30 2299 H 225.339 -0.54325 5.7072 0
M  V30 2300 H 223.736 0.192594 5.99791 0
M  V30 2301 H 224.806 0.887663 4.76706 0
M  V30 2302 N 226.149 -1.5696 0.141893 0
M  V30 2303 C 227.395 -1.9625 -0.511248 0
M  V30 2304 C 227.728 -1.02654 -1.64851 0
M  V30 2305 O 227.003 -0.0679676 -1.94381 0
M  V30 2306 C 227.286 -3.45285 -1.02227 0
M  V30 2307 C 227.139 -4.49658 0.113138 0
M  V30 2308 C 228.458 -3.96698 -1.90574 0
M  V30 2309 H 225.577 -0.713567 -0.184367 0
M  V30 2310 H 228.219 -1.88698 0.222087 0
M  V30 2311 H 226.369 -3.51852 -1.64719 0
M  V30 2312 H 228.041 -4.55174 0.749302 0
M  V30 2313 H 226.284 -4.26857 0.773026 0
M  V30 2314 H 226.955 -5.51258 -0.286053 0
M  V30 2315 H 229.431 -3.92578 -1.37918 0
M  V30 2316 H 228.307 -5.01453 -2.2324 0
M  V30 2317 H 228.568 -3.3875 -2.84079 0
M  V30 2318 N 227.627 0.131896 -1.57047 0
M  V30 2319 C 229.043 0.485031 -1.52051 0
M  V30 2320 C 229.243 1.82563 -0.85281 0
M  V30 2321 O 228.299 2.48817 -0.429694 0
M  V30 2322 C 229.612 0.481409 -2.96821 0
M  V30 2323 C 231.16 0.565868 -3.07842 0
M  V30 2324 C 231.635 0.592762 -4.54148 0
M  V30 2325 N 233.126 0.654564 -4.58552 0
M  V30 2326 C 233.861 0.696608 -5.69153 0
M  V30 2327 N 233.357 0.697078 -6.89284 0
M  V30 2328 N 235.15 0.738639 -5.57226 0
M  V30 2329 H 227.301 -0.746664 -1.98843 0
M  V30 2330 H 229.564 -0.273999 -0.90754 0
M  V30 2331 H 229.27 -0.435731 -3.4899 0
M  V30 2332 H 229.144 1.3139 -3.53577 0
M  V30 2333 H 231.531 1.47343 -2.55684 0
M  V30 2334 H 231.612 -0.29406 -2.54104 0
M  V30 2335 H 231.256 -0.310701 -5.06949 0
M  V30 2336 H 231.186 1.46939 -5.05684 0
M  V30 2337 H 233.677 0.660887 -3.72076 0
M  V30 2338 H 233.99 0.731426 -7.69331 0
M  V30 2339 H 232.335 0.66471 -6.91814 0
M  V30 2340 H 235.526 0.735545 -4.62285 0
M  V30 2341 H 235.699 0.767938 -6.43434 0
M  V30 2342 N 229.106 1.52395 0.401703 0
M  V30 2343 C 230.038 1.72505 1.50912 0
M  V30 2344 C 231.051 0.605468 1.51122 0
M  V30 2345 O 232.24 0.880828 1.55254 0
M  V30 2346 C 229.34 1.75711 2.89791 0
M  V30 2347 C 228.513 3.04824 3.1369 0
M  V30 2348 C 227.572 2.99743 4.32482 0
M  V30 2349 O 226.598 3.73635 4.29402 0
M  V30 2350 N 227.8 2.18047 5.37992 0
M  V30 2351 H 230.565 2.68049 1.34052 0
M  V30 2352 H 228.126 1.50724 0.591084 0
M  V30 2353 H 230.118 1.69834 3.6734 0
M  V30 2354 H 228.688 0.876092 3.00072 0
M  V30 2355 H 227.908 3.2429 2.24119 0
M  V30 2356 H 229.196 3.90221 3.26504 0
M  V30 2357 H 228.594 1.57456 5.43345 0
M  V30 2358 H 227.151 2.18021 6.14256 0
M  V30 2359 N 230.584 -0.659388 1.43143 0
M  V30 2360 C 231.83 -1.42145 1.44647 0
M  V30 2361 C 232.163 -1.9408 0.0681907 0
M  V30 2362 O 231.438 -1.71899 -0.910007 0
M  V30 2363 C 231.721 -2.60735 2.48373 0
M  V30 2364 C 231.574 -2.14332 3.95451 0
M  V30 2365 C 232.893 -3.62951 2.48906 0
M  V30 2366 H 230.012 -0.51552 0.526696 0
M  V30 2367 H 232.654 -0.748069 1.74654 0
M  V30 2368 H 230.804 -3.18184 2.22916 0
M  V30 2369 H 232.476 -1.61932 4.31944 0
M  V30 2370 H 230.719 -1.4576 4.08578 0
M  V30 2371 H 231.39 -2.99583 4.63631 0
M  V30 2372 H 233.866 -3.1525 2.71582 0
M  V30 2373 H 232.742 -4.43487 3.23435 0
M  V30 2374 H 233.003 -4.15126 1.52061 0
M  V30 2375 N 232.062 -1.29571 -0.897171 0
M  V30 2376 C 233.025 -1.14913 -1.98312 0
M  V30 2377 C 234.025 -0.0838629 -1.60581 0
M  V30 2378 O 235.215 -0.331006 -1.71026 0
M  V30 2379 C 232.347 -0.757835 -3.3237 0
M  V30 2380 H 233.54 -2.11377 -2.12743 0
M  V30 2381 H 231.093 -1.12793 -1.08201 0
M  V30 2382 H 231.828 0.206837 -3.2364 0
M  V30 2383 H 231.613 -1.52755 -3.61121 0
M  V30 2384 H 233.103 -0.678408 -4.12053 0
M  V30 2385 N 233.54 1.10788 -1.12088 0
M  V30 2386 C 234.768 1.86461 -0.896651 0
M  V30 2387 C 235.183 1.80492 0.553912 0
M  V30 2388 O 234.54 1.19102 1.38278 0
M  V30 2389 C 234.591 3.35006 -1.35843 0
M  V30 2390 O 234.312 3.40866 -2.75213 0
M  V30 2391 C 235.813 4.27565 -1.1706 0
M  V30 2392 H 233.033 0.589425 -0.320654 0
M  V30 2393 H 235.577 1.40076 -1.48993 0
M  V30 2394 H 233.732 3.7887 -0.808458 0
M  V30 2395 H 234.146 4.33411 -2.9539 0
M  V30 2396 H 235.62 5.30007 -1.54263 0
M  V30 2397 H 236.097 4.3906 -0.110814 0
M  V30 2398 H 236.703 3.89501 -1.70789 0
M  V30 2399 N 235.018 0.912232 1.28515 0
M  V30 2400 C 235.981 0.404223 2.25607 0
M  V30 2401 C 236.981 -0.468602 1.53821 0
M  V30 2402 O 238.171 -0.271873 1.72065 0
M  V30 2403 C 235.303 -0.420653 3.38295 0
M  V30 2404 H 236.496 1.26188 2.7206 0
M  V30 2405 H 234.049 0.691495 1.40171 0
M  V30 2406 H 234.784 -1.29777 2.97201 0
M  V30 2407 H 234.569 0.204935 3.91564 0
M  V30 2408 H 236.059 -0.766971 4.10496 0
M  V30 2409 N 236.496 -1.42363 0.676048 0
M  V30 2410 C 237.745 -2.00745 0.196037 0
M  V30 2411 C 238.058 -1.54083 -1.20489 0
M  V30 2412 O 239.264 -2.04891 -1.78134 0
M  V30 2413 C 237.72 -3.58651 0.299616 0
M  V30 2414 C 237.328 -4.143 1.70468 0
M  V30 2415 C 239.072 -4.24326 -0.121619 0
M  V30 2416 C 236.979 -5.64574 1.76096 0
M  V30 2417 H 235.909 -0.750787 0.0695301 0
M  V30 2418 H 238.56 -1.63072 0.841412 0
M  V30 2419 H 236.942 -3.93833 -0.413673 0
M  V30 2420 H 238.116 -3.90575 2.44515 0
M  V30 2421 H 236.431 -3.61081 2.07387 0
M  V30 2422 H 239.028 -5.34607 -0.0997362 0
M  V30 2423 H 239.371 -3.99897 -1.15708 0
M  V30 2424 H 239.904 -3.94108 0.540706 0
M  V30 2425 H 236.643 -5.93804 2.77628 0
M  V30 2426 H 236.163 -5.90286 1.06406 0
M  V30 2427 H 237.842 -6.29013 1.51496 0
M  V30 2428 N 237.974 -0.419461 -1.51915 0
M  V30 2429 C 239.199 0.154572 -2.06823 0
M  V30 2430 C 239.624 1.3722 -1.28656 0
M  V30 2431 O 238.982 1.78461 -0.319583 0
M  V30 2432 C 239.03 0.473172 -3.57482 0
M  V30 2433 O 238.134 1.56255 -3.81652 0
M  V30 2434 H 237.475 0.0096924 -0.663929 0
M  V30 2435 H 240.005 -0.595642 -1.95738 0
M  V30 2436 H 240.015 0.728825 -4.01438 0
M  V30 2437 H 238.69 -0.416873 -4.13805 0
M  V30 2438 H 237.267 1.29825 -3.49571 0
M  V30 2439 N 239.452 1.56882 -0.150215 0
M  V30 2440 C 240.701 1.95403 0.500071 0
M  V30 2441 C 241.014 1.03777 1.658 0
M  V30 2442 O 242.22 1.31889 2.37313 0
M  V30 2443 C 240.676 3.4738 0.941018 0
M  V30 2444 C 240.284 4.47596 -0.190158 0
M  V30 2445 C 242.028 3.9476 1.56091 0
M  V30 2446 C 239.935 5.90787 0.269237 0
M  V30 2447 H 238.865 0.729515 0.190588 0
M  V30 2448 H 241.516 1.81988 -0.235074 0
M  V30 2449 H 239.898 3.56138 1.73152 0
M  V30 2450 H 241.072 4.50536 -0.967157 0
M  V30 2451 H 239.387 4.10151 -0.718666 0
M  V30 2452 H 241.984 4.99181 1.9163 0
M  V30 2453 H 242.327 3.36494 2.45107 0
M  V30 2454 H 242.86 3.88932 0.835249 0
M  V30 2455 H 239.599 6.52879 -0.585621 0
M  V30 2456 H 239.119 5.912 1.01204 0
M  V30 2457 H 240.798 6.42979 0.720176 0
M  V30 2458 N 240.93 -0.123565 1.57115 0
M  V30 2459 C 242.341 -0.681198 1.73829 0
M  V30 2460 C 242.692 -1.80535 0.768214 0
M  V30 2461 O 241.817 -2.16317 -0.0599103 0
M  V30 2462 C 242.412 -1.24246 3.15196 0
M  V30 2463 C 240.971 -1.74643 3.33432 0
M  V30 2464 C 240.118 -0.644284 2.69711 0
M  V30 2465 H 243.069 0.102315 1.5837 0
M  V30 2466 H 243.09 -2.11216 3.16493 0
M  V30 2467 H 242.602 -0.424062 3.85776 0
M  V30 2468 H 240.703 -2.58974 2.67886 0
M  V30 2469 H 240.816 -1.85902 4.41562 0
M  V30 2470 H 239.18 -1.07676 2.3082 0
M  V30 2471 H 239.963 0.163058 3.42913 0
M  V30 2472 N 242.408 -1.52605 -0.393616 0
M  V30 2473 C 243.654 -1.67672 -1.14079 0
M  V30 2474 C 243.987 -0.413121 -1.89755 0
M  V30 2475 O 243.262 0.588952 -1.85369 0
M  V30 2476 C 243.545 -2.9088 -2.12276 0
M  V30 2477 C 243.398 -4.27329 -1.40394 0
M  V30 2478 C 244.717 -3.09628 -3.12759 0
M  V30 2479 H 241.836 -0.610168 -0.413356 0
M  V30 2480 H 244.478 -1.85193 -0.424696 0
M  V30 2481 H 242.628 -2.76073 -2.73342 0
M  V30 2482 H 244.3 -4.53894 -0.82327 0
M  V30 2483 H 242.543 -4.2802 -0.705801 0
M  V30 2484 H 243.214 -5.09615 -2.12123 0
M  V30 2485 H 245.69 -3.23436 -2.61779 0
M  V30 2486 H 244.566 -3.97322 -3.78717 0
M  V30 2487 H 244.827 -2.23637 -3.81365 0
M  V30 2488 N 243.887 0.651787 -1.4349 0
M  V30 2489 C 245.136 1.40754 -1.44469 0
M  V30 2490 C 245.449 1.95463 -0.0731845 0
M  V30 2491 O 246.655 2.71471 0.0395721 0
M  V30 2492 C 245.111 2.54735 -2.5424 0
M  V30 2493 C 244.719 2.06628 -3.97504 0
M  V30 2494 C 246.463 3.32092 -2.64414 0
M  V30 2495 C 244.37 3.17829 -4.98737 0
M  V30 2496 H 243.3 0.528862 -0.53742 0
M  V30 2497 H 245.951 0.703365 -1.69485 0
M  V30 2498 H 244.333 3.2763 -2.22428 0
M  V30 2499 H 245.507 1.40734 -4.38783 0
M  V30 2500 H 243.822 1.42146 -3.91387 0
M  V30 2501 H 246.419 4.14952 -3.37223 0
M  V30 2502 H 246.762 3.80217 -1.69532 0
M  V30 2503 H 247.295 2.66279 -2.95534 0
M  V30 2504 H 244.034 2.74671 -5.95177 0
M  V30 2505 H 243.554 3.82429 -4.62069 0
M  V30 2506 H 245.233 3.82937 -5.21505 0
M  V30 2507 N 245.365 1.30045 0.890287 0
M  V30 2508 C 246.328 1.15963 1.977 0
M  V30 2509 C 247.328 0.0923777 1.60534 0
M  V30 2510 O 248.518 0.340071 1.70848 0
M  V30 2511 C 245.65 0.775451 3.31963 0
M  V30 2512 H 246.843 2.12502 2.11619 0
M  V30 2513 H 244.396 1.13366 1.07601 0
M  V30 2514 H 245.131 -0.189671 3.23745 0
M  V30 2515 H 244.916 1.54668 3.60306 0
M  V30 2516 H 246.406 0.700251 4.11687 0
M  V30 2517 N 246.843 -1.10192 1.12674 0
M  V30 2518 C 247.806 -2.14786 0.799979 0
M  V30 2519 C 248.806 -1.59711 -0.18685 0
M  V30 2520 O 249.996 -1.74156 0.0392558 0
M  V30 2521 C 247.128 -3.40374 0.189228 0
M  V30 2522 H 248.321 -2.45203 1.72671 0
M  V30 2523 H 245.874 -1.25597 0.930326 0
M  V30 2524 H 246.609 -3.15577 -0.747107 0
M  V30 2525 H 246.394 -3.81637 0.899766 0
M  V30 2526 H 247.884 -4.17594 -0.0228143 0
M  V30 2527 N 248.321 -0.919034 -1.28029 0
M  V30 2528 C 249.569 -0.553838 -1.94363 0
M  V30 2529 C 249.89 0.906357 -1.72656 0
M  V30 2530 O 249.16 1.64143 -1.0693 0
M  V30 2531 H 247.74 -0.201834 -0.719216 0
M  V30 2532 H 250.402 -1.16954 -1.55909 0
M  V30 2533 H 249.498 -0.752758 -3.02886 0
M  V30 2534 N 249.799 1.42003 -0.683588 0
M  V30 2535 C 251.047 2.01015 -0.209101 0
M  V30 2536 C 251.368 1.54365 1.19149 0
M  V30 2537 O 250.638 0.769083 1.80172 0
M  V30 2538 H 249.218 0.743294 -0.074315 0
M  V30 2539 H 251.88 1.73798 -0.882066 0
M  V30 2540 H 250.976 3.11343 -0.2172 0
M  V30 2541 N 251.277 0.427512 1.51691 0
M  V30 2542 C 252.526 -0.143679 2.01188 0
M  V30 2543 C 252.839 -1.44642 1.31674 0
M  V30 2544 O 254.045 -2.09997 1.72086 0
M  V30 2545 C 252.501 -0.306602 3.58592 0
M  V30 2546 C 252.109 0.985125 4.37035 0
M  V30 2547 C 253.853 -0.832091 4.16265 0
M  V30 2548 C 251.76 0.788382 5.86122 0
M  V30 2549 H 250.69 -0.0574701 0.751807 0
M  V30 2550 H 253.341 0.555772 1.74881 0
M  V30 2551 H 251.723 -1.06882 3.81303 0
M  V30 2552 H 252.897 1.75492 4.26074 0
M  V30 2553 H 251.212 1.4384 3.90767 0
M  V30 2554 H 253.809 -0.995617 5.25349 0
M  V30 2555 H 254.152 -1.81186 3.74803 0
M  V30 2556 H 254.685 -0.128444 3.97593 0
M  V30 2557 H 251.424 1.74025 6.31978 0
M  V30 2558 H 250.944 0.0582143 5.99772 0
M  V30 2559 H 252.623 0.437722 6.45518 0
M  V30 2560 N 252.755 -1.56801 0.158532 0
M  V30 2561 C 253.718 -2.16138 -0.762705 0
M  V30 2562 C 254.718 -1.1061 -1.16713 0
M  V30 2563 O 255.908 -1.36191 -1.08617 0
M  V30 2564 C 253.04 -2.73386 -2.03649 0
M  V30 2565 H 254.233 -2.98886 -0.246354 0
M  V30 2566 H 251.786 -1.56035 -0.0909744 0
M  V30 2567 H 252.521 -1.94335 -2.59623 0
M  V30 2568 H 252.306 -3.50601 -1.75559 0
M  V30 2569 H 253.796 -3.19065 -2.6942 0
M  V30 2570 N 254.233 0.115231 -1.57178 0
M  V30 2571 C 255.51 0.852873 -1.76027 0
M  V30 2572 C 255.89 1.97892 -0.73498 0
M  V30 2573 O 255.238 2.27232 0.24036 0
M  V30 2574 C 255.448 1.36608 -3.21153 0
M  V30 2575 C 256.796 1.81692 -3.83762 0
M  V30 2576 O 257.82 1.46278 -3.24779 0
M  V30 2577 O 256.679 2.47104 -4.87444 0
M  V30 2578 H 253.773 0.405296 -0.720877 0
M  V30 2579 H 256.319 0.0986785 -1.69413 0
M  V30 2580 H 255.091 0.558357 -3.87296 0
M  V30 2581 H 254.714 2.18287 -3.3232 0
M  V30 2582 N 255.711 1.52812 0.385517 0
M  V30 2583 C 256.959 1.67694 1.12797 0
M  V30 2584 C 257.28 0.421115 1.90399 0
M  V30 2585 O 256.55 -0.564551 1.87589 0
M  V30 2586 H 255.13 0.618155 0.419396 0
M  V30 2587 H 257.792 1.89938 0.436972 0
M  V30 2588 H 256.888 2.52896 1.82894 0
M  V30 2589 N 257.189 -0.644168 1.43834 0
M  V30 2590 C 258.099 -1.78563 1.52159 0
M  V30 2591 C 259.115 -1.69147 0.408069 0
M  V30 2592 O 260.291 -1.90156 0.663524 0
M  V30 2593 C 257.356 -3.14888 1.45073 0
M  V30 2594 C 256.417 -3.36034 2.6717 0
M  V30 2595 C 255.65 -4.65855 2.60413 0
M  V30 2596 O 255.873 -5.45805 1.65689 0
M  V30 2597 O 254.807 -4.88918 3.5106 0
M  V30 2598 H 258.633 -1.74494 2.48567 0
M  V30 2599 H 256.218 -0.80378 1.25935 0
M  V30 2600 H 258.1 -3.96179 1.43597 0
M  V30 2601 H 256.775 -3.19528 0.518037 0
M  V30 2602 H 255.682 -2.54472 2.74217 0
M  V30 2603 H 257.015 -3.36247 3.59442 0
M  V30 2604 N 258.668 -1.30515 -0.883378 0
M  V30 2605 C 259.916 -1.19194 -1.63209 0
M  V30 2606 C 260.237 0.253205 -1.93349 0
M  V30 2607 O 259.507 1.17025 -1.57105 0
M  V30 2608 H 258.087 -0.438148 -0.605009 0
M  V30 2609 H 260.749 -1.63663 -1.05832 0
M  V30 2610 H 259.845 -1.75396 -2.58153 0
M  V30 2611 N 260.146 1.09593 -1.13257 0
M  V30 2612 C 261.109 2.14359 -0.811358 0
M  V30 2613 C 262.109 1.59808 0.178377 0
M  V30 2614 O 263.299 1.74132 -0.0484911 0
M  V30 2615 C 260.431 3.40269 -0.207276 0
M  V30 2616 H 261.624 2.44284 -1.73969 0
M  V30 2617 H 259.177 1.25102 -0.936973 0
M  V30 2618 H 259.912 3.15969 0.73036 0
M  V30 2619 H 259.697 3.81154 -0.919992 0
M  V30 2620 H 261.187 4.176 0.000667944 0
M  V30 2621 N 261.624 0.925811 1.2754 0
M  V30 2622 C 262.587 0.428129 2.25166 0
M  V30 2623 C 263.587 -0.452261 1.54309 0
M  V30 2624 O 264.777 -0.253608 1.72344 0
M  V30 2625 C 261.909 -0.384749 3.38722 0
M  V30 2626 H 263.102 1.29066 2.70706 0
M  V30 2627 H 260.655 0.706323 1.3943 0
M  V30 2628 H 261.39 -1.26618 2.98561 0
M  V30 2629 H 261.175 0.246454 3.91325 0
M  V30 2630 H 262.665 -0.723389 4.11287 0
M  V30 2631 N 263.102 -1.41638 0.69111 0
M  V30 2632 C 264.065 -2.29178 0.0319786 0
M  V30 2633 C 265.065 -1.44153 -0.712496 0
M  V30 2634 O 266.255 -1.65354 -0.548053 0
M  V30 2635 C 263.387 -3.26952 -0.965161 0
M  V30 2636 H 264.58 -2.88959 0.802681 0
M  V30 2637 H 262.133 -1.4955 0.454356 0
M  V30 2638 H 262.868 -2.72142 -1.76378 0
M  V30 2639 H 262.653 -3.89685 -0.434522 0
M  V30 2640 H 264.143 -3.92561 -1.42428 0
M  V30 2641 N 264.58 -0.43555 -1.51462 0
M  V30 2642 C 265.828 0.131254 -2.01673 0
M  V30 2643 C 266.149 1.43368 -1.32177 0
M  V30 2644 O 265.419 1.90524 -0.455769 0
M  V30 2645 H 263.999 0.0514954 -0.745223 0
M  V30 2646 H 266.661 -0.577847 -1.86137 0
M  V30 2647 H 265.757 0.308446 -3.10572 0
M  V30 2648 N 266.058 1.56714 -0.166846 0
M  V30 2649 C 267.305 1.96747 0.479252 0
M  V30 2650 C 267.633 1.05263 1.63554 0
M  V30 2651 O 266.888 0.0858098 1.95512 0
M  V30 2652 C 267.187 3.42889 1.00806 0
M  V30 2653 C 266.853 4.50889 -0.0318574 0
M  V30 2654 C 265.515 4.8015 -0.317675 0
M  V30 2655 C 267.867 5.15949 -0.737956 0
M  V30 2656 C 265.195 5.71772 -1.31506 0
M  V30 2657 C 267.547 6.08647 -1.72429 0
M  V30 2658 C 266.211 6.36277 -2.0176 0
M  V30 2659 H 265.481 0.719949 0.175371 0
M  V30 2660 H 268.128 1.89756 -0.257864 0
M  V30 2661 H 266.433 3.4681 1.82291 0
M  V30 2662 H 268.13 3.71203 1.51689 0
M  V30 2663 H 264.72 4.28128 0.201088 0
M  V30 2664 H 268.904 4.93458 -0.530351 0
M  V30 2665 H 264.16 5.91465 -1.54853 0
M  V30 2666 H 268.334 6.58129 -2.27682 0
M  V30 2667 H 265.961 7.07075 -2.79194 0
M  V30 2668 N 267.536 -0.106894 1.57237 0
M  V30 2669 C 268.469 -1.16125 1.96444 0
M  V30 2670 C 269.447 -1.3947 0.835871 0
M  V30 2671 O 270.631 -1.53425 1.09513 0
M  V30 2672 C 267.758 -2.51277 2.27107 0
M  V30 2673 C 266.804 -2.44285 3.4961 0
M  V30 2674 S 267.637 -1.87077 5.01759 0
M  V30 2675 C 268.793 -3.23877 5.35588 0
M  V30 2676 H 269.026 -0.826971 2.85567 0
M  V30 2677 H 266.559 -0.314124 1.51171 0
M  V30 2678 H 268.517 -3.29035 2.45451 0
M  V30 2679 H 267.178 -2.81879 1.38576 0
M  V30 2680 H 266.371 -3.4387 3.68469 0
M  V30 2681 H 265.973 -1.74652 3.30715 0
M  V30 2682 H 268.265 -4.20122 5.31511 0
M  V30 2683 H 269.208 -3.09833 6.36717 0
M  V30 2684 H 269.616 -3.22864 4.63054 0
M  V30 2685 N 269.014 -1.53014 -0.377408 0
M  V30 2686 C 269.944 -1.81589 -1.46791 0
M  V30 2687 C 270.925 -0.668622 -1.56408 0
M  V30 2688 O 272.11 -0.917337 -1.71168 0
M  V30 2689 C 269.24 -1.99519 -2.8427 0
M  V30 2690 C 268.194 -3.15249 -2.89486 0
M  V30 2691 C 267.52 -3.18451 -4.29527 0
M  V30 2692 C 268.82 -4.54084 -2.58079 0
M  V30 2693 H 270.514 -2.7291 -1.23127 0
M  V30 2694 H 268.06 -1.31319 -0.590883 0
M  V30 2695 H 270.013 -2.18092 -3.60575 0
M  V30 2696 H 268.737 -1.04897 -3.09296 0
M  V30 2697 H 267.396 -2.96477 -2.15631 0
M  V30 2698 H 267.044 -2.2149 -4.5161 0
M  V30 2699 H 266.744 -3.962 -4.33934 0
M  V30 2700 H 268.268 -3.39193 -5.07721 0
M  V30 2701 H 269.682 -4.72899 -3.24098 0
M  V30 2702 H 268.079 -5.33987 -2.7382 0
M  V30 2703 H 269.149 -4.60006 -1.53372 0
M  V30 2704 N 270.492 0.636531 -1.44174 0
M  V30 2705 C 271.74 1.39343 -1.46383 0
M  V30 2706 C 272.061 1.94766 -0.0955715 0
M  V30 2707 O 271.331 1.75452 0.871395 0
M  V30 2708 H 269.911 0.517199 -0.538994 0
M  V30 2709 H 272.573 0.74957 -1.7991 0
M  V30 2710 H 271.669 2.22746 -2.18611 0
M  V30 2711 N 271.97 1.30982 0.876444 0
M  V30 2712 C 272.933 1.18054 1.96459 0
M  V30 2713 C 273.933 0.109399 1.60427 0
M  V30 2714 O 275.123 0.358173 1.70478 0
M  V30 2715 C 272.255 0.810616 3.31122 0
M  V30 2716 H 273.448 2.14735 2.09354 0
M  V30 2717 H 271.001 1.145 1.06392 0
M  V30 2718 H 271.736 -0.155322 3.23928 0
M  V30 2719 H 271.521 1.58481 3.58645 0
M  V30 2720 H 273.011 0.743876 4.10921 0
M  V30 2721 N 273.449 -1.08991 1.13837 0
M  V30 2722 C 274.359 -2.19301 0.833333 0
M  V30 2723 C 275.375 -1.73026 -0.183847 0
M  V30 2724 O 276.551 -2.01395 -0.0138092 0
M  V30 2725 C 273.616 -3.45323 0.308651 0
M  V30 2726 C 272.677 -4.06255 1.38764 0
M  V30 2727 C 271.91 -5.26262 0.887896 0
M  V30 2728 O 272.133 -5.69747 -0.27287 0
M  V30 2729 O 271.067 -5.78435 1.66421 0
M  V30 2730 H 274.893 -2.47854 1.75506 0
M  V30 2731 H 272.478 -1.18012 0.916166 0
M  V30 2732 H 274.36 -4.21394 0.0216739 0
M  V30 2733 H 273.035 -3.18362 -0.585431 0
M  V30 2734 H 271.942 -3.318 1.72799 0
M  V30 2735 H 273.275 -4.37452 2.25602 0
M  V30 2736 N 274.927 -0.932562 -1.27047 0
M  V30 2737 C 275.89 -0.440064 -2.24936 0
M  V30 2738 C 276.89 0.444071 -1.54547 0
M  V30 2739 O 278.08 0.244465 -1.72476 0
M  V30 2740 C 275.212 0.36678 -3.38921 0
M  V30 2741 H 276.405 -1.305 -2.70018 0
M  V30 2742 H 273.958 -0.713707 -1.39054 0
M  V30 2743 H 274.693 1.25033 -2.99228 0
M  V30 2744 H 274.478 -0.267204 -3.91188 0
M  V30 2745 H 275.968 0.701567 -4.11665 0
M  V30 2746 N 276.405 1.4127 -0.698611 0
M  V30 2747 C 277.651 2.01478 -0.231207 0
M  V30 2748 C 277.984 1.55215 1.16713 0
M  V30 2749 O 277.259 0.764672 1.78838 0
M  V30 2750 C 277.542 3.58912 -0.292281 0
M  V30 2751 C 277.395 4.15293 -1.72778 0
M  V30 2752 C 278.714 4.38736 0.346194 0
M  V30 2753 H 275.833 0.732025 -0.0854878 0
M  V30 2754 H 278.475 1.67977 -0.887906 0
M  V30 2755 H 276.625 3.87582 0.26686 0
M  V30 2756 H 278.297 3.97486 -2.341 0
M  V30 2757 H 276.54 3.7022 -2.26096 0
M  V30 2758 H 277.211 5.24452 -1.72202 0
M  V30 2759 H 279.687 4.15897 -0.130035 0
M  V30 2760 H 278.563 5.48221 0.272932 0
M  V30 2761 H 278.824 4.18425 1.42734 0
M  V30 2762 N 277.883 0.443576 1.51229 0
M  V30 2763 C 278.815 -0.400608 2.25672 0
M  V30 2764 C 279.828 -0.980945 1.29928 0
M  V30 2765 O 281.017 -0.874024 1.55638 0
M  V30 2766 C 278.117 -1.57304 3.00181 0
M  V30 2767 C 277.29 -1.11046 4.23069 0
M  V30 2768 C 276.349 -2.15374 4.80105 0
M  V30 2769 O 275.375 -1.74554 5.41774 0
M  V30 2770 N 276.577 -3.47922 4.64683 0
M  V30 2771 H 279.342 0.23745 2.98758 0
M  V30 2772 H 276.903 0.272809 1.59585 0
M  V30 2773 H 278.895 -2.26733 3.35223 0
M  V30 2774 H 277.465 -2.11632 2.30066 0
M  V30 2775 H 276.685 -0.243019 3.9345 0
M  V30 2776 H 277.973 -0.778888 5.02803 0
M  V30 2777 H 277.371 -3.83815 4.15575 0
M  V30 2778 H 275.928 -4.13228 5.0407 0
M  V30 2779 N 279.361 -1.56624 0.175154 0
M  V30 2780 C 280.607 -1.9729 -0.469506 0
M  V30 2781 C 280.94 -1.06128 -1.62636 0
M  V30 2782 O 280.215 -0.109183 -1.94193 0
M  V30 2783 C 280.498 -3.47375 -0.948804 0
M  V30 2784 C 280.351 -4.49317 0.208491 0
M  V30 2785 C 281.67 -4.00652 -1.82116 0
M  V30 2786 H 278.789 -0.717317 -0.16919 0
M  V30 2787 H 281.431 -1.88184 0.262062 0
M  V30 2788 H 279.581 -3.55267 -1.57219 0
M  V30 2789 H 281.253 -4.53482 0.845682 0
M  V30 2790 H 279.496 -4.25121 0.863395 0
M  V30 2791 H 280.167 -5.51741 -0.169059 0
M  V30 2792 H 282.643 -3.95416 -1.2956 0
M  V30 2793 H 281.519 -5.06075 -2.12554 0
M  V30 2794 H 281.78 -3.44699 -2.7683 0
M  V30 2795 N 280.839 0.0985539 -1.57292 0
M  V30 2796 C 282.087 0.801092 -1.85545 0
M  V30 2797 C 282.408 1.79438 -0.763353 0
M  V30 2798 O 281.678 1.94763 0.21073 0
M  V30 2799 H 280.258 0.29884 -0.684619 0
M  V30 2800 H 282.92 0.0810064 -1.94732 0
M  V30 2801 H 282.016 1.3338 -2.82163 0
M  V30 2802 N 282.317 1.53212 0.369288 0
M  V30 2803 C 283.545 1.73119 1.13303 0
M  V30 2804 C 283.96 0.458455 1.83149 0
M  V30 2805 O 283.317 -0.568403 1.73423 0
M  V30 2806 C 283.368 2.89413 2.16616 0
M  V30 2807 O 283.089 4.11761 1.49614 0
M  V30 2808 C 284.59 3.21161 3.05566 0
M  V30 2809 H 281.81 0.579107 0.338934 0
M  V30 2810 H 284.354 1.99942 0.429338 0
M  V30 2811 H 282.509 2.64994 2.82589 0
M  V30 2812 H 282.923 4.76858 2.18419 0
M  V30 2813 H 284.397 4.05949 3.74045 0
M  V30 2814 H 284.874 2.36369 3.70171 0
M  V30 2815 H 285.48 3.47492 2.45213 0
M  V30 2816 N 283.795 -0.628877 1.44509 0
M  V30 2817 C 285.211 -0.947305 1.28446 0
M  V30 2818 C 285.411 -2.00275 0.221872 0
M  V30 2819 O 284.467 -2.49447 -0.391471 0
M  V30 2820 C 285.78 -1.40843 2.65676 0
M  V30 2821 C 287.328 -1.52379 2.73404 0
M  V30 2822 C 287.803 -2.01875 4.11109 0
M  V30 2823 N 289.294 -2.09142 4.13296 0
M  V30 2824 C 290.029 -2.48615 5.16699 0
M  V30 2825 N 289.525 -2.87209 6.30462 0
M  V30 2826 N 291.318 -2.48768 5.04054 0
M  V30 2827 H 283.469 0.0690977 2.12288 0
M  V30 2828 H 285.732 -0.0317164 0.947469 0
M  V30 2829 H 285.438 -0.707206 3.44516 0
M  V30 2830 H 285.312 -2.37902 2.92716 0
M  V30 2831 H 287.699 -2.21598 1.9488 0
M  V30 2832 H 287.78 -0.536898 2.50102 0
M  V30 2833 H 287.424 -1.3325 4.90109 0
M  V30 2834 H 287.354 -3.0144 4.31789 0
M  V30 2835 H 289.845 -1.81991 3.31191 0
M  V30 2836 H 290.158 -3.16149 7.05174 0
M  V30 2837 H 288.503 -2.84955 6.33897 0
M  V30 2838 H 291.694 -2.18009 4.14234 0
M  V30 2839 H 291.867 -2.79207 5.84763 0
M  V30 2840 N 285.273 -1.31445 -0.869486 0
M  V30 2841 C 286.52 -1.21158 -1.62256 0
M  V30 2842 C 286.848 0.230155 -1.93133 0
M  V30 2843 O 286.103 1.17906 -1.56194 0
M  V30 2844 C 286.402 -2.00145 -2.96102 0
M  V30 2845 C 286.068 -3.4964 -2.84715 0
M  V30 2846 C 284.73 -3.90403 -2.81317 0
M  V30 2847 C 287.082 -4.44769 -2.71716 0
M  V30 2848 C 284.41 -5.24561 -2.62778 0
M  V30 2849 C 286.762 -5.79054 -2.54714 0
M  V30 2850 C 285.426 -6.19037 -2.49699 0
M  V30 2851 H 284.696 -0.443348 -0.593737 0
M  V30 2852 H 287.343 -1.62715 -1.00976 0
M  V30 2853 H 285.648 -1.5127 -3.6142 0
M  V30 2854 H 287.345 -1.89566 -3.53363 0
M  V30 2855 H 283.935 -3.17256 -2.88178 0
M  V30 2856 H 288.119 -4.14208 -2.73397 0
M  V30 2857 H 283.375 -5.54613 -2.57321 0
M  V30 2858 H 287.549 -6.52393 -2.43632 0
M  V30 2859 H 285.176 -7.22935 -2.35093 0
M  V30 2860 N 286.751 1.08385 -1.14413 0
M  V30 2861 C 287.997 1.81044 -0.913834 0
M  V30 2862 C 288.33 1.86004 0.558209 0
M  V30 2863 O 287.605 1.33606 1.4135 0
M  V30 2864 C 287.888 3.26648 -1.51569 0
M  V30 2865 C 287.741 3.29895 -3.0576 0
M  V30 2866 C 289.06 4.23629 -1.19273 0
M  V30 2867 H 286.179 0.65727 -0.333414 0
M  V30 2868 H 288.821 1.26896 -1.41412 0
M  V30 2869 H 286.971 3.72889 -1.09023 0
M  V30 2870 H 288.643 2.91977 -3.57137 0
M  V30 2871 H 286.886 2.69163 -3.40197 0
M  V30 2872 H 287.557 4.32516 -3.42977 0
M  V30 2873 H 290.033 3.85727 -1.56057 0
M  V30 2874 H 288.909 5.23822 -1.64017 0
M  V30 2875 H 289.17 4.41968 -0.108068 0
M  V30 2876 N 288.23 0.939286 1.26551 0
M  V30 2877 C 289.476 0.586715 1.94128 0
M  V30 2878 C 289.809 -0.8717 1.73537 0
M  V30 2879 O 289.084 -1.62339 1.07127 0
M  V30 2880 C 289.367 0.927497 3.4795 0
M  V30 2881 C 289.22 2.44052 3.77834 0
M  V30 2882 C 290.539 0.441569 4.37879 0
M  V30 2883 H 287.658 0.21463 0.705055 0
M  V30 2884 H 290.3 1.17316 1.49455 0
M  V30 2885 H 288.45 0.428431 3.8613 0
M  V30 2886 H 290.122 3.01216 3.4938 0
M  V30 2887 H 288.365 2.8848 3.23978 0
M  V30 2888 H 289.036 2.62947 4.85348 0
M  V30 2889 H 291.512 0.869448 4.06915 0
M  V30 2890 H 290.388 0.708856 5.44304 0
M  V30 2891 H 290.649 -0.658467 4.37169 0
M  V30 2892 N 289.708 -1.40897 0.706093 0
M  V30 2893 C 290.671 -2.29131 0.0562841 0
M  V30 2894 C 291.671 -1.44901 -0.697166 0
M  V30 2895 O 292.861 -1.65926 -0.530484 0
M  V30 2896 C 289.993 -3.27957 -0.93043 0
M  V30 2897 H 291.186 -2.88091 0.833284 0
M  V30 2898 H 288.739 -1.4906 0.470192 0
M  V30 2899 H 289.474 -2.73997 -1.73482 0
M  V30 2900 H 289.259 -3.90124 -0.393166 0
M  V30 2901 H 290.749 -3.94049 -1.38256 0
M  V30 2902 N 291.186 -0.45159 -1.50991 0
M  V30 2903 C 292.133 0.352625 -2.2809 0
M  V30 2904 C 293.103 1.0044 -1.32291 0
M  V30 2905 O 294.288 1.02058 -1.6121 0
M  V30 2906 C 291.428 1.43983 -3.13629 0
M  V30 2907 C 290.541 0.804772 -4.24438 0
M  V30 2908 C 289.676 1.86822 -4.97263 0
M  V30 2909 C 288.715 1.21236 -5.99973 0
M  V30 2910 N 287.852 2.2178 -6.66152 0
M  V30 2911 H 292.692 -0.311186 -2.96371 0
M  V30 2912 H 290.229 -0.165308 -1.46168 0
M  V30 2913 H 292.187 2.08161 -3.61559 0
M  V30 2914 H 290.817 2.07307 -2.47434 0
M  V30 2915 H 289.869 0.0509129 -3.80366 0
M  V30 2916 H 291.181 0.286076 -4.97979 0
M  V30 2917 H 290.335 2.58628 -5.48813 0
M  V30 2918 H 289.074 2.42068 -4.23385 0
M  V30 2919 H 288.079 0.479828 -5.47702 0
M  V30 2920 H 289.304 0.667051 -6.75816 0
M  V30 2921 H 287.25 2.76079 -5.95077 0
M  V30 2922 H 287.167 1.74841 -7.35504 0
M  V30 2923 H 288.435 2.93026 -7.22327 0
M  V30 2924 N 292.664 1.56529 -0.183458 0
M  V30 2925 C 293.574 2.22144 0.754272 0
M  V30 2926 C 294.59 1.21684 1.24374 0
M  V30 2927 O 295.766 1.54385 1.29333 0
M  V30 2928 C 292.831 2.85884 1.96141 0
M  V30 2929 C 291.892 4.01579 1.51765 0
M  V30 2930 C 291.125 4.6227 2.66725 0
M  V30 2931 O 291.348 4.21865 3.83909 0
M  V30 2932 O 290.282 5.51936 2.40104 0
M  V30 2933 H 294.108 3.02861 0.225527 0
M  V30 2934 H 291.693 1.49331 0.0453032 0
M  V30 2935 H 293.575 3.26253 2.66715 0
M  V30 2936 H 292.25 2.08154 2.47899 0
M  V30 2937 H 291.157 3.65856 0.781049 0
M  V30 2938 H 292.49 4.80938 1.04686 0
M  V30 2939 N 294.142 -0.090211 1.57342 0
M  V30 2940 C 295.367 -0.810082 1.90925 0
M  V30 2941 C 295.792 -1.71248 0.778187 0
M  V30 2942 O 295.15 -1.79278 -0.269991 0
M  V30 2943 C 295.198 -1.59529 3.23393 0
M  V30 2944 O 294.302 -2.70461 3.11327 0
M  V30 2945 H 293.643 -0.222231 0.625707 0
M  V30 2946 H 296.173 -0.0639716 2.045 0
M  V30 2947 H 296.183 -1.97847 3.5682 0
M  V30 2948 H 294.858 -0.933055 4.05299 0
M  V30 2949 H 293.435 -2.35135 2.89423 0
M  V30 2950 N 295.62 -1.53406 -0.361157 0
M  V30 2951 C 296.568 -1.80832 -1.46296 0
M  V30 2952 C 297.562 -0.677699 -1.55253 0
M  V30 2953 O 298.768 -0.860723 -1.58087 0
M  V30 2954 H 295.143 -0.572627 -0.487445 0
M  V30 2955 H 297.114 -2.73045 -1.20371 0
M  V30 2956 C 295.863 -2.01907 -2.8307 0
M  V30 2957 H 295.186 -2.88349 -2.76938 0
M  V30 2958 H 296.626 -2.25072 -3.59331 0
M  V30 2959 C 295.085 -0.799449 -3.27277 0
M  V30 2960 O 295.615 0.00971761 -4.01699 0
M  V30 2961 N 293.821 -0.621637 -2.83873 0
M  V30 2962 H 293.368 -1.28126 -2.23476 0
M  V30 2963 H 293.326 0.19298 -3.13807 0
M  V30 2964 N 297.098 0.621204 -1.44841 0
M  V30 2965 C 298.061 1.71459 -1.521 0
M  V30 2966 C 299.061 1.55696 -0.401933 0
M  V30 2967 O 300.251 1.61011 -0.664925 0
M  V30 2968 C 297.383 3.10624 -1.40447 0
M  V30 2969 H 298.576 1.66394 -2.49506 0
M  V30 2970 H 296.129 0.835745 -1.3208 0
M  V30 2971 H 296.864 3.21277 -0.441737 0
M  V30 2972 H 296.649 3.23473 -2.21602 0
M  V30 2973 H 298.139 3.90293 -1.4853 0
M  V30 2974 N 298.576 1.31904 0.862503 0
M  V30 2975 C 299.526 1.16772 1.95827 0
M  V30 2976 C 300.51 0.0767098 1.60717 0
M  V30 2977 O 301.702 0.302407 1.74398 0
M  V30 2978 C 298.831 0.884858 3.317 0
M  V30 2979 C 297.917 2.0172 3.73055 0
M  V30 2980 N 298.308 3.265 3.86305 0
M  V30 2981 C 296.606 1.91861 4.02623 0
M  V30 2982 C 297.307 4.00616 4.2176 0
M  V30 2983 N 296.283 3.28847 4.32852 0
M  V30 2984 H 300.085 2.11382 2.04193 0
M  V30 2985 H 297.599 1.2357 1.05377 0
M  V30 2986 H 299.596 0.757419 4.09962 0
M  V30 2987 H 298.256 -0.0529448 3.24657 0
M  V30 2988 H 299.267 3.61529 3.70833 0
M  V30 2989 H 295.944 1.05593 4.03926 0
M  V30 2990 H 297.334 5.08182 4.39546 0
M  V30 2991 N 300.054 -1.07777 1.14986 0
M  V30 2992 C 301.465 -1.61766 0.932127 0
M  V30 2993 C 301.816 -1.88974 -0.527581 0
M  V30 2994 O 300.941 -1.65198 -1.39781 0
M  V30 2995 C 301.536 -2.93891 1.68563 0
M  V30 2996 C 300.095 -3.44639 1.5133 0
M  V30 2997 C 299.242 -2.18767 1.704 0
M  V30 2998 H 302.193 -0.909201 1.30074 0
M  V30 2999 H 302.214 -3.62623 1.15259 0
M  V30 3000 H 301.726 -2.74057 2.74799 0
M  V30 3001 H 299.827 -3.69564 0.474702 0
M  V30 3002 H 299.94 -4.20966 2.28746 0
M  V30 3003 H 298.304 -2.28253 1.13016 0
M  V30 3004 H 299.087 -2.01433 2.77992 0
M  V30 3005 N 301.532 -0.945985 -1.26051 0
M  V30 3006 C 302.48 -0.450259 -2.282 0
M  V30 3007 C 303.474 0.47497 -1.62605 0
M  V30 3008 O 304.68 0.352653 -1.76512 0
M  V30 3009 H 301.055 -0.127081 -0.741184 0
M  V30 3010 H 303.026 -1.32422 -2.67408 0
M  V30 3011 C 301.775 0.26467 -3.46691 0
M  V30 3012 H 301.098 -0.438123 -3.97392 0
M  V30 3013 H 302.538 0.575678 -4.20074 0
M  V30 3014 C 300.997 1.48416 -3.02447 0
M  V30 3015 O 301.527 2.58227 -3.07704 0
M  V30 3016 N 299.733 1.34243 -2.57735 0
M  V30 3017 H 299.28 0.448994 -2.53657 0
M  V30 3018 H 299.238 2.15957 -2.28495 0
M  V30 3019 N 303.011 1.40521 -0.713556 0
M  V30 3020 C 304.241 2.0494 -0.261395 0
M  V30 3021 C 304.649 1.53861 1.10107 0
M  V30 3022 O 303.992 0.689321 1.70276 0
M  V30 3023 C 304.054 3.59138 -0.161227 0
M  V30 3024 C 303.718 4.33096 -1.45865 0
M  V30 3025 C 304.715 4.61182 -2.40016 0
M  V30 3026 C 302.4 4.72043 -1.71701 0
M  V30 3027 C 304.394 5.27196 -3.58251 0
M  V30 3028 C 302.081 5.37789 -2.90218 0
M  V30 3029 C 303.079 5.65295 -3.83315 0
M  V30 3030 O 302.767 6.29683 -4.99754 0
M  V30 3031 H 302.499 0.666041 -0.115608 0
M  V30 3032 H 305.053 1.80954 -0.971849 0
M  V30 3033 H 303.283 3.81936 0.605153 0
M  V30 3034 H 304.972 4.05091 0.256105 0
M  V30 3035 H 305.738 4.31559 -2.21318 0
M  V30 3036 H 301.617 4.50003 -1.00092 0
M  V30 3037 H 305.161 5.48582 -4.30934 0
M  V30 3038 H 301.058 5.66831 -3.08825 0
M  V30 3039 H 301.826 6.4818 -4.99805 0
M  V30 3040 N 304.489 0.459591 1.5075 0
M  V30 3041 C 305.436 -0.340524 2.28274 0
M  V30 3042 C 306.406 -0.997371 1.32822 0
M  V30 3043 O 307.591 -1.01202 1.61749 0
M  V30 3044 C 304.731 -1.42317 3.14388 0
M  V30 3045 C 303.844 -0.782251 4.24859 0
M  V30 3046 C 302.979 -1.84182 4.98247 0
M  V30 3047 C 302.018 -1.18053 6.00608 0
M  V30 3048 N 301.155 -2.18244 6.67319 0
M  V30 3049 H 305.995 0.326899 2.96202 0
M  V30 3050 H 303.532 0.173057 1.46078 0
M  V30 3051 H 305.49 -2.06241 3.62658 0
M  V30 3052 H 304.12 -2.05992 2.4853 0
M  V30 3053 H 303.172 -0.0307404 3.80388 0
M  V30 3054 H 304.484 -0.259663 4.98124 0
M  V30 3055 H 303.638 -2.55714 5.50177 0
M  V30 3056 H 302.377 -2.39819 4.24662 0
M  V30 3057 H 301.382 -0.450776 5.47949 0
M  V30 3058 H 302.607 -0.631202 6.7616 0
M  V30 3059 H 300.553 -2.72919 5.96533 0
M  V30 3060 H 300.47 -1.70938 7.36421 0
M  V30 3061 H 301.738 -2.89191 7.23871 0
M  V30 3062 N 305.967 -1.56429 0.191757 0
M  V30 3063 C 306.877 -2.22541 -0.742481 0
M  V30 3064 C 307.893 -1.22342 -1.23727 0
M  V30 3065 O 309.069 -1.55069 -1.28513 0
M  V30 3066 C 306.134 -2.8692 -1.94623 0
M  V30 3067 C 305.195 -4.02378 -1.49633 0
M  V30 3068 C 304.428 -4.63678 -2.6427 0
M  V30 3069 O 304.651 -4.23895 -3.81666 0
M  V30 3070 O 303.585 -5.53202 -2.37174 0
M  V30 3071 H 307.411 -3.02977 -0.209462 0
M  V30 3072 H 304.996 -1.49353 -0.0373832 0
M  V30 3073 H 306.878 -3.27663 -2.64982 0
M  V30 3074 H 305.553 -2.09466 -2.46791 0
M  V30 3075 H 304.46 -3.66265 -0.761636 0
M  V30 3076 H 305.793 -4.81487 -1.02134 0
M  V30 3077 N 307.445 0.0818655 -1.57387 0
M  V30 3078 C 308.392 1.09834 -2.0299 0
M  V30 3079 C 309.362 1.39043 -0.908639 0
M  V30 3080 O 310.547 1.50282 -1.17559 0
M  V30 3081 C 307.687 2.40971 -2.47037 0
M  V30 3082 C 306.8 2.18379 -3.7274 0
M  V30 3083 C 305.935 3.43008 -4.0561 0
M  V30 3084 C 304.974 3.15736 -5.24383 0
M  V30 3085 N 304.111 4.32667 -5.52941 0
M  V30 3086 H 308.951 0.702472 -2.89602 0
M  V30 3087 H 306.488 0.33531 -1.43227 0
M  V30 3088 H 308.446 3.1752 -2.70623 0
M  V30 3089 H 307.076 2.78379 -1.63417 0
M  V30 3090 H 306.128 1.32569 -3.56552 0
M  V30 3091 H 307.44 1.94227 -4.59431 0
M  V30 3092 H 306.594 4.27958 -4.30043 0
M  V30 3093 H 305.333 3.70225 -3.17466 0
M  V30 3094 H 304.338 2.2918 -4.99757 0
M  V30 3095 H 305.563 2.8985 -6.14136 0
M  V30 3096 H 303.509 4.59935 -4.67756 0
M  V30 3097 H 303.426 4.11753 -6.34031 0
M  V30 3098 H 304.694 5.18644 -5.81918 0
M  V30 3099 N 308.923 1.53595 0.353017 0
M  V30 3100 C 310.172 1.69603 1.09168 0
M  V30 3101 C 310.485 0.460925 1.90092 0
M  V30 3102 O 311.691 0.501774 2.66823 0
M  V30 3103 C 310.147 2.99872 1.9901 0
M  V30 3104 C 309.755 4.30687 1.23339 0
M  V30 3105 C 311.499 3.25246 2.72792 0
M  V30 3106 C 309.406 5.52036 2.12156 0
M  V30 3107 H 308.336 0.631966 0.411261 0
M  V30 3108 H 310.987 1.80096 0.351802 0
M  V30 3109 H 309.369 2.83212 2.7678 0
M  V30 3110 H 310.543 4.58019 0.505456 0
M  V30 3111 H 308.858 4.11853 0.613663 0
M  V30 3112 H 311.455 4.13095 3.39495 0
M  V30 3113 H 311.798 2.41846 3.38846 0
M  V30 3114 H 312.331 3.42638 2.021 0
M  V30 3115 H 309.07 6.37951 1.50659 0
M  V30 3116 H 308.59 5.28966 2.82764 0
M  V30 3117 H 310.269 5.87313 2.71427 0
M  V30 3118 N 310.401 -0.613514 1.45168 0
M  V30 3119 C 311.331 -1.7354 1.56225 0
M  V30 3120 C 312.312 -1.64981 0.41414 0
M  V30 3121 O 313.497 -1.83472 0.636526 0
M  V30 3122 C 310.627 -3.12128 1.52295 0
M  V30 3123 C 309.581 -3.35491 2.65762 0
M  V30 3124 C 308.907 -4.74291 2.46885 0
M  V30 3125 C 310.207 -3.26325 4.0781 0
M  V30 3126 H 311.901 -1.64543 2.50132 0
M  V30 3127 H 309.447 -0.790185 1.20383 0
M  V30 3128 H 311.4 -3.90404 1.58628 0
M  V30 3129 H 310.124 -3.2195 0.549139 0
M  V30 3130 H 308.783 -2.59603 2.58847 0
M  V30 3131 H 308.431 -4.80839 1.47657 0
M  V30 3132 H 308.131 -4.9088 3.22972 0
M  V30 3133 H 309.655 -5.54775 2.55063 0
M  V30 3134 H 311.069 -3.94483 4.16 0
M  V30 3135 H 309.466 -3.54445 4.8424 0
M  V30 3136 H 310.536 -2.23855 4.30136 0
M  V30 3137 N 311.879 -1.3236 -0.855495 0
M  V30 3138 C 312.826 -1.21225 -1.964 0
M  V30 3139 C 313.796 -0.0946204 -1.6583 0
M  V30 3140 O 314.981 -0.27002 -1.8888 0
M  V30 3141 C 312.121 -0.940419 -3.32039 0
M  V30 3142 C 311.234 -2.14276 -3.75113 0
M  V30 3143 C 310.369 -1.80648 -4.9954 0
M  V30 3144 C 309.408 -2.97208 -5.35102 0
M  V30 3145 N 308.545 -2.63678 -6.50706 0
M  V30 3146 H 313.385 -2.16042 -2.05255 0
M  V30 3147 H 310.922 -1.07451 -1.00463 0
M  V30 3148 H 312.88 -0.763311 -4.10158 0
M  V30 3149 H 311.51 -0.0290413 -3.22787 0
M  V30 3150 H 310.562 -2.43017 -2.92655 0
M  V30 3151 H 311.874 -3.01468 -3.97389 0
M  V30 3152 H 311.028 -1.59484 -5.85363 0
M  V30 3153 H 309.767 -0.906678 -4.79198 0
M  V30 3154 H 308.772 -3.19004 -4.47791 0
M  V30 3155 H 309.997 -3.87918 -5.57401 0
M  V30 3156 H 307.943 -1.76238 -6.31883 0
M  V30 3157 H 307.86 -3.444 -6.72997 0
M  V30 3158 H 309.128 -2.45942 -7.39684 0
M  V30 3159 N 313.357 1.07166 -1.15556 0
M  V30 3160 C 314.32 2.12589 -0.856644 0
M  V30 3161 C 315.32 1.6015 0.14444 0
M  V30 3162 O 316.51 1.7399 -0.0854163 0
M  V30 3163 C 313.642 3.39753 -0.279405 0
M  V30 3164 H 314.835 2.40539 -1.79112 0
M  V30 3165 H 312.388 1.23086 -0.963298 0
M  V30 3166 H 313.123 3.17447 0.663174 0
M  V30 3167 H 312.908 3.79117 -1.00063 0
M  V30 3168 H 314.398 4.17507 -0.0879113 0
M  V30 3169 N 314.835 0.952656 1.25548 0
M  V30 3170 C 316.251 0.656769 1.4546 0
M  V30 3171 C 316.451 -0.78633 1.85524 0
M  V30 3172 O 315.507 -1.56183 1.98402 0
M  V30 3173 C 316.82 1.62801 2.52817 0
M  V30 3174 C 318.368 1.63897 2.66659 0
M  V30 3175 C 318.843 2.5978 3.77198 0
M  V30 3176 N 320.334 2.58133 3.84606 0
M  V30 3177 C 321.069 3.29003 4.69621 0
M  V30 3178 N 320.565 4.09339 5.58939 0
M  V30 3179 N 322.358 3.179 4.63569 0
M  V30 3180 H 314.509 1.88526 0.978344 0
M  V30 3181 H 316.772 0.810815 0.491206 0
M  V30 3182 H 316.478 2.65869 2.30232 0
M  V30 3183 H 316.352 1.38898 3.50695 0
M  V30 3184 H 318.739 0.615481 2.8861 0
M  V30 3185 H 318.82 1.91858 1.69187 0
M  V30 3186 H 318.464 3.62254 3.55997 0
M  V30 3187 H 318.394 2.29105 4.7415 0
M  V30 3188 H 320.885 1.99809 3.20757 0
M  V30 3189 H 321.198 4.6034 6.20731 0
M  V30 3190 H 319.543 4.13438 5.58654 0
M  V30 3191 H 322.734 2.54612 3.92798 0
M  V30 3192 H 322.907 3.73398 5.29602 0
M  V30 3193 N 316.313 -1.40141 0.720998 0
M  V30 3194 C 317.59 -1.94677 0.189757 0
M  V30 3195 C 317.97 -1.65879 -1.30566 0
M  V30 3196 O 317.318 -0.979391 -2.06447 0
M  V30 3197 C 317.528 -3.45279 0.508304 0
M  V30 3198 C 318.876 -4.22209 0.449934 0
M  V30 3199 O 319.9 -3.53413 0.444677 0
M  V30 3200 O 318.759 -5.44788 0.432189 0
M  V30 3201 H 315.853 -0.826459 0.0299026 0
M  V30 3202 H 318.399 -1.49719 0.7989 0
M  V30 3203 H 317.171 -3.59619 1.54239 0
M  V30 3204 H 316.794 -3.97386 -0.130525 0
M  V30 3205 N 317.792 -0.46758 -1.50504 0
M  V30 3206 C 319.041 0.0902868 -2.01498 0
M  V30 3207 C 319.354 1.411 -1.35463 0
M  V30 3208 O 320.56 2.0536 -1.77594 0
M  V30 3209 C 319.016 0.21142 -3.59278 0
M  V30 3210 C 318.624 -1.10065 -4.34269 0
M  V30 3211 C 320.368 0.721433 -4.18325 0
M  V30 3212 C 318.275 -0.943505 -5.83825 0
M  V30 3213 H 317.205 0.037517 -0.753066 0
M  V30 3214 H 319.856 -0.601943 -1.73346 0
M  V30 3215 H 318.238 0.967352 -3.84003 0
M  V30 3216 H 319.412 -1.86726 -4.21272 0
M  V30 3217 H 317.727 -1.5415 -3.86816 0
M  V30 3218 H 320.324 0.85598 -5.27804 0
M  V30 3219 H 320.667 1.71186 -3.79475 0
M  V30 3220 H 321.2 0.0229843 -3.97793 0
M  V30 3221 H 317.939 -1.90719 -6.27141 0
M  V30 3222 H 317.459 -0.217213 -5.99407 0
M  V30 3223 H 319.138 -0.608715 -6.4413 0
M  V30 3224 N 319.27 1.56325 -0.20005 0
M  V30 3225 C 320.547 1.89484 0.48529 0
M  V30 3226 C 320.927 1.1143 1.79294 0
M  V30 3227 O 320.275 0.216919 2.27468 0
M  V30 3228 C 320.485 3.41923 0.699243 0
M  V30 3229 C 321.833 4.12256 1.01638 0
M  V30 3230 O 322.857 3.47402 0.786792 0
M  V30 3231 O 321.716 5.26887 1.45095 0
M  V30 3232 H 318.81 0.787144 0.253639 0
M  V30 3233 H 321.356 1.67985 -0.240633 0
M  V30 3234 H 320.128 3.90658 -0.224008 0
M  V30 3235 H 319.751 3.69131 1.47744 0
M  V30 3236 N 320.748 -0.0735177 1.57428 0
M  V30 3237 C 321.976 -0.785969 1.9139 0
M  V30 3238 C 322.391 -1.71207 0.795847 0
M  V30 3239 O 321.748 -1.81033 -0.230915 0
M  V30 3240 C 321.799 -1.58107 3.25091 0
M  V30 3241 O 321.52 -0.6922 4.32597 0
M  V30 3242 C 323.021 -2.39467 3.73055 0
M  V30 3243 H 320.241 -0.223558 0.632663 0
M  V30 3244 H 322.785 -0.044302 2.04452 0
M  V30 3245 H 320.94 -2.27503 3.13562 0
M  V30 3246 H 321.354 -1.24504 5.09508 0
M  V30 3247 H 322.828 -2.90716 4.69242 0
M  V30 3248 H 323.305 -3.18913 3.01979 0
M  V30 3249 H 323.911 -1.7523 3.87523 0
M  V30 3250 N 322.226 -1.5378 -0.344866 0
M  V30 3251 C 323.454 -1.74899 -1.10534 0
M  V30 3252 C 323.869 -0.487534 -1.82397 0
M  V30 3253 O 323.226 0.540741 -1.74305 0
M  V30 3254 C 323.277 -2.92822 -2.11984 0
M  V30 3255 O 322.998 -4.14089 -1.43044 0
M  V30 3256 C 324.499 -3.25982 -3.00417 0
M  V30 3257 H 321.719 -0.584426 -0.329678 0
M  V30 3258 H 324.263 -2.006 -0.397474 0
M  V30 3259 H 322.418 -2.69457 -2.78338 0
M  V30 3260 H 322.832 -4.80272 -2.10805 0
M  V30 3261 H 324.306 -4.11848 -3.67539 0
M  V30 3262 H 324.783 -2.42228 -3.66363 0
M  V30 3263 H 325.389 -3.51349 -2.39654 0
M  V30 3264 N 323.704 0.605807 -1.45491 0
M  V30 3265 C 324.953 1.36086 -1.48874 0
M  V30 3266 C 325.266 1.95131 -0.135333 0
M  V30 3267 O 326.472 2.7146 -0.0468144 0
M  V30 3268 C 324.928 2.46518 -2.62215 0
M  V30 3269 C 324.536 1.93877 -4.03876 0
M  V30 3270 C 326.28 3.23512 -2.74846 0
M  V30 3271 C 324.187 3.01801 -5.08596 0
M  V30 3272 H 323.117 0.511497 -0.553974 0
M  V30 3273 H 325.768 0.649089 -1.71636 0
M  V30 3274 H 324.15 3.20388 -2.32739 0
M  V30 3275 H 325.324 1.26704 -4.43038 0
M  V30 3276 H 323.639 1.29622 -3.95711 0
M  V30 3277 H 326.236 4.04013 -3.50253 0
M  V30 3278 H 326.579 3.74631 -1.81542 0
M  V30 3279 H 327.112 2.56742 -3.03856 0
M  V30 3280 H 323.851 2.55597 -6.03614 0
M  V30 3281 H 323.371 3.67535 -4.74002 0
M  V30 3282 H 325.05 3.66152 -5.33424 0
M  V30 3283 N 325.182 1.32811 0.848464 0
M  V30 3284 C 326.407 1.26882 1.6406 0
M  V30 3285 C 326.832 -0.15913 1.87426 0
M  V30 3286 O 326.19 -1.11258 1.43148 0
M  V30 3287 C 326.238 2.03997 2.97351 0
M  V30 3288 O 325.342 1.39201 3.88197 0
M  V30 3289 H 324.683 0.436982 0.499943 0
M  V30 3290 H 327.213 1.75224 1.0563 0
M  V30 3291 H 327.223 2.14403 3.47124 0
M  V30 3292 H 325.898 3.0783 2.79666 0
M  V30 3293 H 324.475 1.37381 3.46671 0
M  V30 3294 N 326.66 -1.06551 1.16123 0
M  V30 3295 C 327.623 -2.12132 0.867906 0
M  V30 3296 C 328.623 -1.60224 -0.135944 0
M  V30 3297 O 329.813 -1.73943 0.0946422 0
M  V30 3298 C 326.945 -3.396 0.297419 0
M  V30 3299 H 328.138 -2.39586 1.80385 0
M  V30 3300 H 325.691 -1.22574 0.969812 0
M  V30 3301 H 326.426 -3.17794 -0.64633 0
M  V30 3302 H 326.211 -3.78581 1.02073 0
M  V30 3303 H 327.701 -4.17455 0.110052 0
M  V30 3304 N 328.138 -0.959301 -1.25041 0
M  V30 3305 C 329.07 -0.440543 -2.24926 0
M  V30 3306 C 330.083 0.446131 -1.56568 0
M  V30 3307 O 331.272 0.253657 -1.76689 0
M  V30 3308 C 328.372 0.38412 -3.36716 0
M  V30 3309 C 327.545 -0.490658 -4.34639 0
M  V30 3310 C 326.604 0.276587 -5.25473 0
M  V30 3311 O 325.63 -0.326614 -5.68262 0
M  V30 3312 N 326.832 1.56844 -5.5891 0
M  V30 3313 H 329.597 -1.29931 -2.70071 0
M  V30 3314 H 327.158 -0.830181 -1.38995 0
M  V30 3315 H 329.15 0.905228 -3.94446 0
M  V30 3316 H 327.72 1.14377 -2.90924 0
M  V30 3317 H 326.94 -1.19282 -3.7572 0
M  V30 3318 H 328.228 -1.08756 -4.97041 0
M  V30 3319 H 327.626 2.08036 -5.26059 0
M  V30 3320 H 326.183 2.03541 -6.19205 0
M  V30 3321 N 329.616 1.39756 -0.72842 0
M  V30 3322 C 330.566 2.2792 -0.0603424 0
M  V30 3323 C 331.55 1.43922 0.719399 0
M  V30 3324 O 332.742 1.66895 0.589489 0
M  V30 3325 C 329.871 3.32582 0.851104 0
M  V30 3326 C 328.957 4.24049 0.0658641 0
M  V30 3327 N 329.348 4.96653 -0.957578 0
M  V30 3328 C 327.646 4.45013 0.296509 0
M  V30 3329 C 328.347 5.63836 -1.43052 0
M  V30 3330 N 327.323 5.38397 -0.750315 0
M  V30 3331 H 331.125 2.81504 -0.84455 0
M  V30 3332 H 328.639 1.5236 -0.562155 0
M  V30 3333 H 330.636 3.94603 1.34514 0
M  V30 3334 H 329.296 2.80558 1.63454 0
M  V30 3335 H 330.307 5.00297 -1.33877 0
M  V30 3336 H 326.984 4.03943 1.05527 0
M  V30 3337 H 328.374 6.31974 -2.28163 0
M  V30 3338 N 331.094 0.475555 1.50254 0
M  V30 3339 C 332.341 -0.0778919 2.0235 0
M  V30 3340 C 332.669 -1.39319 1.35722 0
M  V30 3341 O 331.924 -1.89888 0.473395 0
M  V30 3342 C 332.223 -0.305114 3.56095 0
M  V30 3343 C 331.889 0.92903 4.41225 0
M  V30 3344 C 330.551 1.26739 4.6421 0
M  V30 3345 C 332.903 1.75054 4.90923 0
M  V30 3346 C 330.231 2.42724 5.34137 0
M  V30 3347 C 332.583 2.9017 5.62125 0
M  V30 3348 C 331.247 3.24416 5.83362 0
M  V30 3349 H 330.517 -0.0285027 0.740452 0
M  V30 3350 H 333.164 0.630543 1.80821 0
M  V30 3351 H 331.469 -1.09584 3.76163 0
M  V30 3352 H 333.166 -0.747377 3.93974 0
M  V30 3353 H 329.756 0.655428 4.23559 0
M  V30 3354 H 333.94 1.50231 4.73016 0
M  V30 3355 H 329.196 2.69525 5.48786 0
M  V30 3356 H 333.37 3.54169 5.99614 0
M  V30 3357 H 330.997 4.14396 6.37323 0
M  V30 3358 N 332.573 -1.56217 0.208337 0
M  V30 3359 C 333.821 -1.97558 -0.426076 0
M  V30 3360 C 334.142 -1.09683 -1.61229 0
M  V30 3361 O 333.412 -0.170956 -1.95153 0
M  V30 3362 H 331.992 -0.729575 -0.160405 0
M  V30 3363 H 334.654 -1.92606 0.298155 0
M  V30 3364 H 333.75 -3.02672 -0.761312 0
M  V30 3365 N 334.051 0.0651679 -1.57465 0
M  V30 3366 C 335.001 1.0838 -2.00594 0
M  V30 3367 C 335.985 1.34106 -0.889071 0
M  V30 3368 O 337.177 1.34295 -1.15299 0
M  V30 3369 C 334.306 2.39565 -2.45894 0
M  V30 3370 C 333.392 2.17085 -3.64328 0
M  V30 3371 N 333.783 1.64553 -4.78285 0
M  V30 3372 C 332.081 2.4753 -3.71006 0
M  V30 3373 C 332.782 1.57042 -5.60101 0
M  V30 3374 N 331.758 2.03328 -5.04141 0
M  V30 3375 H 335.56 0.671062 -2.86136 0
M  V30 3376 H 333.074 0.27213 -1.60104 0
M  V30 3377 H 335.071 3.13308 -2.75034 0
M  V30 3378 H 333.731 2.81549 -1.61741 0
M  V30 3379 H 334.742 1.33323 -5.00445 0
M  V30 3380 H 331.419 2.92835 -2.9758 0
M  V30 3381 H 332.809 1.17223 -6.61595 0
M  V30 3382 N 335.529 1.53961 0.336706 0
M  V30 3383 C 336.492 1.81724 1.39675 0
M  V30 3384 C 337.492 0.688532 1.45313 0
M  V30 3385 O 338.682 0.956829 1.45569 0
M  V30 3386 C 335.814 1.96543 2.78538 0
M  V30 3387 H 337.007 2.76424 1.16318 0
M  V30 3388 H 334.56 1.45478 0.571474 0
M  V30 3389 H 335.295 1.0401 3.07168 0
M  V30 3390 H 335.08 2.78665 2.75841 0
M  V30 3391 H 336.57 2.19516 3.5525 0
M  V30 3392 N 337.007 -0.598083 1.45811 0
M  V30 3393 C 338.253 -1.35882 1.50545 0
M  V30 3394 C 338.586 -1.93616 0.150445 0
M  V30 3395 O 337.861 -1.75604 -0.83628 0
M  V30 3396 C 338.144 -2.49966 2.59208 0
M  V30 3397 C 337.997 -1.97367 4.04186 0
M  V30 3398 C 339.316 -3.52068 2.64076 0
M  V30 3399 H 336.435 -0.492717 0.548087 0
M  V30 3400 H 339.077 -0.673319 1.77669 0
M  V30 3401 H 337.227 -3.08443 2.3621 0
M  V30 3402 H 338.899 -1.43466 4.38423 0
M  V30 3403 H 337.142 -1.283 4.14393 0
M  V30 3404 H 337.813 -2.79649 4.75921 0
M  V30 3405 H 340.289 -3.03448 2.84708 0
M  V30 3406 H 339.165 -4.2937 3.41954 0
M  V30 3407 H 339.426 -4.08304 1.69531 0
M  V30 3408 N 338.485 -1.33259 -0.841409 0
M  V30 3409 C 339.901 -1.12538 -1.13169 0
M  V30 3410 C 340.101 0.0854037 -2.01319 0
M  V30 3411 O 339.157 0.766417 -2.40587 0
M  V30 3412 C 340.47 -2.41156 -1.79623 0
M  V30 3413 C 342.018 -2.47038 -1.922 0
M  V30 3414 C 342.493 -3.7561 -2.6207 0
M  V30 3415 N 343.984 -3.76667 -2.69585 0
M  V30 3416 C 344.719 -4.72861 -3.2433 0
M  V30 3417 N 344.215 -5.79428 -3.79783 0
M  V30 3418 N 346.008 -4.6034 -3.22558 0
M  V30 3419 H 338.159 -2.10868 -0.254676 0
M  V30 3420 H 340.422 -0.931615 -0.175493 0
M  V30 3421 H 340.128 -3.29747 -1.22311 0
M  V30 3422 H 340.002 -2.53114 -2.79666 0
M  V30 3423 H 342.389 -1.58898 -2.48667 0
M  V30 3424 H 342.47 -2.39022 -0.911148 0
M  V30 3425 H 342.114 -4.64131 -2.06263 0
M  V30 3426 H 342.044 -3.80902 -3.63622 0
M  V30 3427 H 344.535 -2.99648 -2.30259 0
M  V30 3428 H 344.848 -6.48867 -4.19752 0
M  V30 3429 H 343.193 -5.83166 -3.78078 0
M  V30 3430 H 346.384 -3.76244 -2.78492 0
M  V30 3431 H 346.557 -5.35478 -3.64921 0
M  V30 3432 N 339.963 1.05934 -1.16686 0
M  V30 3433 C 340.926 2.11669 -0.879144 0
M  V30 3434 C 341.926 1.60294 0.127445 0
M  V30 3435 O 343.116 1.7389 -0.103865 0
M  V30 3436 C 340.248 3.39438 -0.315425 0
M  V30 3437 H 341.441 2.38626 -1.81653 0
M  V30 3438 H 338.994 1.22058 -0.976299 0
M  V30 3439 H 339.729 3.18132 0.629468 0
M  V30 3440 H 339.514 3.78034 -1.04079 0
M  V30 3441 H 341.004 4.17391 -0.132189 0
M  V30 3442 N 341.441 0.965919 1.2453 0
M  V30 3443 C 342.69 0.622437 1.91856 0
M  V30 3444 C 343.003 -0.846006 1.76358 0
M  V30 3445 O 344.209 -1.29993 2.38357 0
M  V30 3446 C 342.665 1.0626 3.43856 0
M  V30 3447 C 342.273 2.55437 3.68043 0
M  V30 3448 C 344.017 0.792183 4.17043 0
M  V30 3449 C 341.924 2.93196 5.13605 0
M  V30 3450 H 340.854 0.229092 0.718354 0
M  V30 3451 H 343.505 1.17189 1.41206 0
M  V30 3452 H 341.887 0.441476 3.93531 0
M  V30 3453 H 343.061 3.22665 3.28974 0
M  V30 3454 H 341.376 2.8007 3.08139 0
M  V30 3455 H 343.973 1.05031 5.24283 0
M  V30 3456 H 344.316 -0.271584 4.15413 0
M  V30 3457 H 344.849 1.37419 3.73311 0
M  V30 3458 H 341.588 3.98636 5.20355 0
M  V30 3459 H 341.108 2.30651 5.53679 0
M  V30 3460 H 342.787 2.83004 5.81823 0
M  V30 3461 N 342.919 -1.39368 0.735821 0
M  V30 3462 C 343.866 -2.30599 0.0963825 0
M  V30 3463 C 344.836 -1.49257 -0.728794 0
M  V30 3464 O 346.021 -1.77941 -0.688588 0
M  V30 3465 C 343.161 -3.35596 -0.804305 0
M  V30 3466 C 342.274 -4.31987 0.0335761 0
M  V30 3467 C 341.409 -5.24053 -0.868461 0
M  V30 3468 C 340.448 -6.12095 -0.0258776 0
M  V30 3469 N 339.585 -6.96514 -0.883893 0
M  V30 3470 H 344.425 -2.8471 0.880002 0
M  V30 3471 H 341.962 -1.40188 0.445619 0
M  V30 3472 H 343.92 -3.95062 -1.34096 0
M  V30 3473 H 342.55 -2.82938 -1.55389 0
M  V30 3474 H 341.602 -3.74133 0.68766 0
M  V30 3475 H 342.914 -4.94074 0.685036 0
M  V30 3476 H 342.068 -5.88549 -1.47293 0
M  V30 3477 H 340.807 -4.62289 -1.5537 0
M  V30 3478 H 339.812 -5.4661 0.591386 0
M  V30 3479 H 341.037 -6.75923 0.656156 0
M  V30 3480 H 338.983 -6.37318 -1.55441 0
M  V30 3481 H 338.9 -7.55448 -0.288931 0
M  V30 3482 H 340.168 -7.65439 -1.4739 0
M  V30 3483 N 344.397 -0.483516 -1.5 0
M  V30 3484 C 345.345 0.318061 -2.30415 0
M  V30 3485 C 346.339 0.978988 -1.38247 0
M  V30 3486 O 347.545 0.908673 -1.55381 0
M  V30 3487 H 343.92 0.121419 -0.742133 0
M  V30 3488 H 345.891 -0.380403 -2.95965 0
M  V30 3489 C 344.64 1.38013 -3.19136 0
M  V30 3490 H 343.963 0.880952 -3.89973 0
M  V30 3491 H 345.403 1.91332 -3.78375 0
M  V30 3492 C 343.862 2.38884 -2.37563 0
M  V30 3493 O 344.392 3.44412 -2.06744 0
M  V30 3494 N 342.598 2.10912 -1.99911 0
M  V30 3495 H 342.145 1.25118 -2.25174 0
M  V30 3496 H 342.103 2.78635 -1.45636 0
M  V30 3497 N 345.875 1.56104 -0.216619 0
M  V30 3498 C 346.807 2.17339 0.72776 0
M  V30 3499 C 347.82 1.14109 1.16116 0
M  V30 3500 O 349.009 1.4111 1.09317 0
M  V30 3501 C 346.109 2.73818 1.99693 0
M  V30 3502 C 345.282 4.02168 1.71988 0
M  V30 3503 C 344.341 4.43259 2.83562 0
M  V30 3504 O 343.367 5.10257 2.52244 0
M  V30 3505 N 344.569 4.08535 4.12407 0
M  V30 3506 H 347.334 2.99005 0.203983 0
M  V30 3507 H 344.895 1.61861 -0.0354289 0
M  V30 3508 H 346.887 2.9828 2.73516 0
M  V30 3509 H 345.457 1.96483 2.43132 0
M  V30 3510 H 344.677 3.85612 0.818337 0
M  V30 3511 H 345.965 4.85907 1.50903 0
M  V30 3512 H 345.363 3.54687 4.40696 0
M  V30 3513 H 343.92 4.37901 4.8279 0
M  V30 3514 N 347.353 -0.0568162 1.57498 0
M  V30 3515 C 348.283 -1.06593 2.0775 0
M  V30 3516 C 349.264 -1.39448 0.974082 0
M  V30 3517 O 350.449 -1.48815 1.24771 0
M  V30 3518 C 347.579 -2.37509 2.5339 0
M  V30 3519 C 346.533 -2.1897 3.67745 0
M  V30 3520 C 345.859 -3.55402 3.99492 0
M  V30 3521 C 347.159 -1.59859 4.97235 0
M  V30 3522 H 348.853 -0.647706 2.9231 0
M  V30 3523 H 346.399 -0.310116 1.40621 0
M  V30 3524 H 348.352 -3.08409 2.87162 0
M  V30 3525 H 347.076 -2.8134 1.65878 0
M  V30 3526 H 345.735 -1.50508 3.3428 0
M  V30 3527 H 345.383 -3.9683 3.09088 0
M  V30 3528 H 345.083 -3.43831 4.76502 0
M  V30 3529 H 346.607 -4.27708 4.35773 0
M  V30 3530 H 348.021 -2.20642 5.29141 0
M  V30 3531 H 346.418 -1.58942 5.78669 0
M  V30 3532 H 347.488 -0.561506 4.81638 0
M  V30 3533 N 348.832 -1.54138 -0.328536 0
M  V30 3534 C 350.06 -1.76062 -1.08673 0
M  V30 3535 C 350.475 -0.506852 -1.81869 0
M  V30 3536 O 349.832 0.522223 -1.74869 0
M  V30 3537 C 349.883 -2.95054 -2.08866 0
M  V30 3538 O 349.604 -4.15583 -1.38644 0
M  V30 3539 C 351.105 -3.2915 -2.96943 0
M  V30 3540 H 348.325 -0.587889 -0.323461 0
M  V30 3541 H 350.869 -2.0101 -0.376175 0
M  V30 3542 H 349.024 -2.72394 -2.75464 0
M  V30 3543 H 349.438 -4.82481 -2.05699 0
M  V30 3544 H 350.912 -4.15723 -3.63151 0
M  V30 3545 H 351.389 -2.461 -3.63774 0
M  V30 3546 H 351.995 -3.53871 -2.35914 0
M  V30 3547 N 350.31 0.590341 -1.46126 0
M  V30 3548 C 351.726 0.912917 -1.30912 0
M  V30 3549 C 351.926 1.99616 -0.274893 0
M  V30 3550 O 350.982 2.50397 0.325197 0
M  V30 3551 C 352.295 1.3375 -2.69317 0
M  V30 3552 C 353.843 1.45077 -2.77348 0
M  V30 3553 C 354.318 1.90904 -4.16317 0
M  V30 3554 N 355.809 1.9811 -4.18696 0
M  V30 3555 C 356.544 2.34828 -5.23109 0
M  V30 3556 N 356.04 2.70393 -6.37856 0
M  V30 3557 N 357.833 2.35317 -5.10473 0
M  V30 3558 H 349.984 -0.125358 -2.1203 0
M  V30 3559 H 352.247 0.00658481 -0.947977 0
M  V30 3560 H 351.953 0.615614 -3.4627 0
M  V30 3561 H 351.827 2.30058 -2.9892 0
M  V30 3562 H 354.214 2.16353 -2.00687 0
M  V30 3563 H 354.295 0.4704 -2.51438 0
M  V30 3564 H 353.939 1.20209 -4.9347 0
M  V30 3565 H 353.869 2.89886 -4.39629 0
M  V30 3566 H 356.36 1.73146 -3.359 0
M  V30 3567 H 356.673 2.97341 -7.13308 0
M  V30 3568 H 355.018 2.68048 -6.41229 0
M  V30 3569 H 358.209 2.0695 -4.19868 0
M  V30 3570 H 358.382 2.63605 -5.9196 0
M  V30 3571 N 351.788 1.33704 0.83433 0
M  V30 3572 C 353.065 1.16011 1.57483 0
M  V30 3573 C 353.445 -0.27176 2.09343 0
M  V30 3574 O 352.793 -1.27146 1.89858 0
M  V30 3575 C 353.003 2.20507 2.70514 0
M  V30 3576 C 354.351 2.54898 3.39577 0
M  V30 3577 O 355.375 2.19209 2.80759 0
M  V30 3578 O 354.234 3.16158 4.45765 0
M  V30 3579 H 351.328 0.448992 0.694503 0
M  V30 3580 H 353.874 1.453 0.876691 0
M  V30 3581 H 352.646 3.16667 2.29865 0
M  V30 3582 H 352.269 1.92329 3.47987 0
M  V30 3583 N 353.266 -1.05314 1.17247 0
M  V30 3584 C 354.513 -1.78293 0.960091 0
M  V30 3585 C 354.841 -1.87658 -0.51136 0
M  V30 3586 O 354.096 -1.3718 -1.39571 0
M  V30 3587 C 354.395 -3.2229 1.54479 0
M  V30 3588 C 354.061 -3.32987 3.04024 0
M  V30 3589 C 352.723 -3.35613 3.44844 0
M  V30 3590 C 355.075 -3.34102 4.00031 0
M  V30 3591 C 352.403 -3.36982 4.8027 0
M  V30 3592 C 354.755 -3.3701 5.35357 0
M  V30 3593 C 353.419 -3.37923 5.75642 0
M  V30 3594 H 352.689 -0.652422 0.351322 0
M  V30 3595 H 355.336 -1.23782 1.46117 0
M  V30 3596 H 353.641 -3.7972 0.965391 0
M  V30 3597 H 355.338 -3.77376 1.35603 0
M  V30 3598 H 351.928 -3.31655 2.71483 0
M  V30 3599 H 356.112 -3.31276 3.69554 0
M  V30 3600 H 351.368 -3.35999 5.10798 0
M  V30 3601 H 355.542 -3.36822 6.09528 0
M  V30 3602 H 353.169 -3.38738 6.80559 0
M  V30 3603 N 354.744 -0.972509 -1.24016 0
M  V30 3604 C 355.654 -0.5143 -2.28893 0
M  V30 3605 C 356.67 0.427078 -1.68677 0
M  V30 3606 O 357.846 0.298939 -1.99169 0
M  V30 3607 C 354.911 0.183598 -3.46214 0
M  V30 3608 C 353.972 -0.798202 -4.21814 0
M  V30 3609 C 353.205 -0.133514 -5.33533 0
M  V30 3610 O 353.428 1.07714 -5.60137 0
M  V30 3611 O 352.362 -0.828103 -5.96176 0
M  V30 3612 H 356.188 -1.38629 -2.70214 0
M  V30 3613 H 353.773 -0.739769 -1.29799 0
M  V30 3614 H 355.655 0.575433 -4.17453 0
M  V30 3615 H 354.33 1.03048 -3.0686 0
M  V30 3616 H 353.237 -1.24059 -3.52931 0
M  V30 3617 H 354.57 -1.61364 -4.64997 0
M  V30 3618 N 356.222 1.38976 -0.743202 0
M  V30 3619 C 357.152 2.33171 -0.123873 0
M  V30 3620 C 358.133 1.54336 0.71516 0
M  V30 3621 O 359.318 1.82696 0.658467 0
M  V30 3622 C 356.448 3.38474 0.777978 0
M  V30 3623 C 355.402 4.27979 0.0424758 0
M  V30 3624 C 354.728 5.2405 1.06189 0
M  V30 3625 C 356.028 5.10155 -1.1198 0
M  V30 3626 H 357.722 2.85213 -0.910709 0
M  V30 3627 H 355.268 1.37133 -0.439388 0
M  V30 3628 H 357.221 4.03328 1.22084 0
M  V30 3629 H 355.945 2.84891 1.59702 0
M  V30 3630 H 354.604 3.64616 -0.380853 0
M  V30 3631 H 354.252 4.66758 1.87472 0
M  V30 3632 H 353.952 5.84785 0.574485 0
M  V30 3633 H 355.476 5.9178 1.50428 0
M  V30 3634 H 356.89 5.68307 -0.75499 0
M  V30 3635 H 355.287 5.80073 -1.53738 0
M  V30 3636 H 356.357 4.44504 -1.93764 0
M  V30 3637 N 357.7 0.491464 1.49741 0
M  V30 3638 C 358.663 -0.280906 2.27472 0
M  V30 3639 C 359.663 -0.902454 1.33088 0
M  V30 3640 O 360.853 -0.768465 1.56334 0
M  V30 3641 C 357.985 -1.40209 3.10732 0
M  V30 3642 H 359.178 0.401056 2.97206 0
M  V30 3643 H 356.731 0.246131 1.5435 0
M  V30 3644 H 357.466 -2.11849 2.45541 0
M  V30 3645 H 357.251 -0.961969 3.80117 0
M  V30 3646 H 358.741 -1.9464 3.69466 0
M  V30 3647 N 359.178 -1.55987 0.224894 0
M  V30 3648 C 360.088 -2.24066 -0.69511 0
M  V30 3649 C 361.104 -1.24939 -1.21104 0
M  V30 3650 O 362.28 -1.5776 -1.25195 0
M  V30 3651 C 359.345 -2.90983 -1.88493 0
M  V30 3652 C 358.406 -4.05462 -1.41064 0
M  V30 3653 C 357.639 -4.69179 -2.54375 0
M  V30 3654 O 357.862 -4.31895 -3.72589 0
M  V30 3655 O 356.796 -5.58108 -2.25386 0
M  V30 3656 H 360.622 -3.03353 -0.145149 0
M  V30 3657 H 358.207 -1.49399 -0.00569476 0
M  V30 3658 H 360.089 -3.33209 -2.57972 0
M  V30 3659 H 358.764 -2.14653 -2.42293 0
M  V30 3660 H 357.671 -3.67798 -0.683774 0
M  V30 3661 H 359.004 -4.83545 -0.918985 0
M  V30 3662 N 360.656 0.0484629 -1.57525 0
M  V30 3663 C 361.603 1.05504 -2.05275 0
M  V30 3664 C 362.573 1.37084 -0.937927 0
M  V30 3665 O 363.758 1.47754 -1.2072 0
M  V30 3666 C 360.898 2.35676 -2.52093 0
M  V30 3667 C 360.011 2.10423 -3.77288 0
M  V30 3668 C 359.146 3.34327 -4.12794 0
M  V30 3669 C 358.185 3.04542 -5.30962 0
M  V30 3670 N 357.322 4.20841 -5.61994 0
M  V30 3671 H 362.162 0.640885 -2.91027 0
M  V30 3672 H 359.699 0.304854 -1.43906 0
M  V30 3673 H 361.657 3.11709 -2.77297 0
M  V30 3674 H 360.287 2.7485 -1.69285 0
M  V30 3675 H 359.339 1.24976 -3.59284 0
M  V30 3676 H 360.651 1.84438 -4.63448 0
M  V30 3677 H 359.805 4.1874 -4.39024 0
M  V30 3678 H 358.544 3.63408 -3.25247 0
M  V30 3679 H 357.549 2.18528 -5.04505 0
M  V30 3680 H 358.774 2.76758 -6.20146 0
M  V30 3681 H 356.72 4.4991 -4.77406 0
M  V30 3682 H 356.637 3.98212 -6.42622 0
M  V30 3683 H 357.905 5.06184 -5.92789 0
M  V30 3684 N 362.134 1.5431 0.320358 0
M  V30 3685 C 363.411 1.63322 1.07635 0
M  V30 3686 C 363.791 0.46912 2.05821 0
M  V30 3687 O 363.139 -0.536274 2.22118 0
M  V30 3688 C 363.349 3.00465 1.77544 0
M  V30 3689 C 364.697 3.56621 2.30449 0
M  V30 3690 O 365.721 3.02791 1.87606 0
M  V30 3691 O 364.58 4.5083 3.08892 0
M  V30 3692 H 361.674 0.661502 0.496331 0
M  V30 3693 H 364.22 1.66656 0.319992 0
M  V30 3694 H 362.992 3.76629 1.06143 0
M  V30 3695 H 362.615 3.00824 2.59982 0
M  V30 3696 N 363.613 -0.582584 1.46437 0
M  V30 3697 C 364.576 -1.67366 1.56592 0
M  V30 3698 C 365.576 -1.54575 0.443072 0
M  V30 3699 O 366.766 -1.59191 0.707381 0
M  V30 3700 C 363.898 -3.06791 1.48634 0
M  V30 3701 H 365.091 -1.5972 2.5383 0
M  V30 3702 H 362.644 -0.800432 1.34249 0
M  V30 3703 H 363.379 -3.19993 0.526763 0
M  V30 3704 H 363.164 -3.17484 2.30101 0
M  V30 3705 H 364.654 -3.86218 1.58826 0
M  V30 3706 N 365.091 -1.34144 -0.827227 0
M  V30 3707 C 366.338 -1.26258 -1.58319 0
M  V30 3708 C 366.666 0.168595 -1.93768 0
M  V30 3709 O 365.921 1.12877 -1.59866 0
M  V30 3710 C 366.22 -2.09464 -2.89585 0
M  V30 3711 C 365.886 -3.58521 -2.73448 0
M  V30 3712 C 364.548 -3.99155 -2.68754 0
M  V30 3713 C 366.9 -4.53189 -2.57428 0
M  V30 3714 C 364.228 -5.32656 -2.45957 0
M  V30 3715 C 366.58 -5.86864 -2.36163 0
M  V30 3716 C 365.244 -6.26667 -2.29879 0
M  V30 3717 H 364.514 -0.462013 -0.579332 0
M  V30 3718 H 367.161 -1.65845 -0.95748 0
M  V30 3719 H 365.466 -1.62692 -3.56425 0
M  V30 3720 H 367.163 -2.00712 -3.47154 0
M  V30 3721 H 363.753 -3.26264 -2.77939 0
M  V30 3722 H 367.937 -4.22696 -2.60081 0
M  V30 3723 H 363.193 -5.62519 -2.39546 0
M  V30 3724 H 367.367 -6.59813 -2.22754 0
M  V30 3725 H 364.994 -7.30049 -2.11975 0
M  V30 3726 N 366.569 1.04691 -1.17803 0
M  V30 3727 C 367.516 2.12557 -0.899343 0
M  V30 3728 C 368.486 1.65339 0.158771 0
M  V30 3729 O 369.671 1.90789 0.0204797 0
M  V30 3730 C 366.811 3.42481 -0.424315 0
M  V30 3731 C 365.924 4.03346 -1.54713 0
M  V30 3732 C 365.059 5.21208 -1.02546 0
M  V30 3733 C 364.098 5.74089 -2.12339 0
M  V30 3734 N 363.235 6.83247 -1.61612 0
M  V30 3735 H 368.075 2.35734 -1.823 0
M  V30 3736 H 365.612 1.1564 -0.909159 0
M  V30 3737 H 367.57 4.16996 -0.130421 0
M  V30 3738 H 366.2 3.19471 0.462377 0
M  V30 3739 H 365.252 3.2622 -1.95664 0
M  V30 3740 H 366.564 4.38628 -2.37501 0
M  V30 3741 H 365.718 6.02812 -0.685718 0
M  V30 3742 H 364.457 4.87414 -0.167084 0
M  V30 3743 H 363.462 4.91111 -2.47165 0
M  V30 3744 H 364.687 6.0993 -2.98601 0
M  V30 3745 H 362.633 6.5134 -0.780533 0
M  V30 3746 H 362.55 7.17559 -2.38003 0
M  V30 3747 H 363.818 7.68491 -1.30545 0
M  V30 3748 N 368.047 0.979072 1.23499 0
M  V30 3749 C 368.979 0.476271 2.24197 0
M  V30 3750 C 369.992 -0.421166 1.57258 0
M  V30 3751 O 371.181 -0.225515 1.7707 0
M  V30 3752 C 368.281 -0.330503 3.37285 0
M  V30 3753 C 367.454 0.559744 4.33804 0
M  V30 3754 C 366.513 -0.192954 5.25846 0
M  V30 3755 O 365.539 0.416978 5.67671 0
M  V30 3756 N 366.741 -1.47932 5.61334 0
M  V30 3757 H 369.506 1.34211 2.67969 0
M  V30 3758 H 367.067 0.852189 1.37657 0
M  V30 3759 H 369.059 -0.842361 3.95836 0
M  V30 3760 H 367.629 -1.09734 2.92707 0
M  V30 3761 H 366.849 1.25245 3.73775 0
M  V30 3762 H 368.137 1.1665 4.95248 0
M  V30 3763 H 367.535 -1.9964 5.29302 0
M  V30 3764 H 366.092 -1.93664 6.22364 0
M  V30 3765 N 369.525 -1.3858 0.750561 0
M  V30 3766 C 370.435 -2.34278 0.122825 0
M  V30 3767 C 371.451 -1.59116 -0.704131 0
M  V30 3768 O 372.627 -1.91326 -0.628987 0
M  V30 3769 C 369.692 -3.38221 -0.762086 0
M  V30 3770 C 368.753 -4.29227 0.078896 0
M  V30 3771 C 367.986 -5.28205 -0.763874 0
M  V30 3772 O 368.209 -5.34112 -2.00201 0
M  V30 3773 O 367.143 -6.01618 -0.18428 0
M  V30 3774 H 370.969 -2.89649 0.913088 0
M  V30 3775 H 368.554 -1.40374 0.511417 0
M  V30 3776 H 370.436 -4.01872 -1.26793 0
M  V30 3777 H 369.111 -2.85211 -1.5309 0
M  V30 3778 H 368.018 -3.68747 0.630621 0
M  V30 3779 H 369.351 -4.85484 0.810289 0
M  V30 3780 N 371.003 -0.499398 -1.49478 0
M  V30 3781 C 372.28 0.108629 -1.95298 0
M  V30 3782 C 372.66 1.54282 -1.44084 0
M  V30 3783 O 372.008 2.18944 -0.653908 0
M  V30 3784 C 372.218 0.0229111 -3.48992 0
M  V30 3785 C 373.566 0.197643 -4.2414 0
M  V30 3786 O 374.59 0.0981735 -3.56065 0
M  V30 3787 O 373.449 0.401669 -5.45022 0
M  V30 3788 H 370.543 0.096181 -0.821388 0
M  V30 3789 H 373.089 -0.561822 -1.6013 0
M  V30 3790 H 371.861 -0.977321 -3.78899 0
M  V30 3791 H 371.484 0.733579 -3.90774 0
M  V30 3792 N 372.481 1.55866 -0.233164 0
M  V30 3793 C 373.892 1.847 0.272554 0
M  V30 3794 C 374.243 1.15477 1.58617 0
M  V30 3795 O 373.368 0.42841 2.12117 0
M  V30 3796 C 373.963 3.35071 0.501299 0
M  V30 3797 C 372.522 3.6418 0.951304 0
M  V30 3798 C 371.669 2.77292 0.0208209 0
M  V30 3799 H 374.62 1.52005 -0.456074 0
M  V30 3800 H 374.641 3.55906 1.34577 0
M  V30 3801 H 374.153 3.85424 -0.454936 0
M  V30 3802 H 372.254 3.19293 1.92049 0
M  V30 3803 H 372.367 4.72071 0.817675 0
M  V30 3804 H 370.731 2.49131 0.529723 0
M  V30 3805 H 371.514 3.30448 -0.93054 0
M  V30 3806 N 373.959 -0.0401083 1.57549 0
M  V30 3807 C 375.236 -0.767917 1.79896 0
M  V30 3808 C 375.616 -1.9416 0.82856 0
M  V30 3809 O 374.964 -2.2812 -0.131671 0
M  V30 3810 C 375.174 -1.2113 3.27305 0
M  V30 3811 C 376.522 -1.63175 3.91994 0
M  V30 3812 O 377.546 -1.30616 3.31388 0
M  V30 3813 O 376.405 -2.23565 4.98679 0
M  V30 3814 H 373.499 -0.370441 0.739393 0
M  V30 3815 H 376.045 -0.017737 1.69691 0
M  V30 3816 H 374.817 -0.372937 3.89519 0
M  V30 3817 H 374.44 -2.02183 3.42356 0
M  V30 3818 N 375.437 -1.54477 -0.31217 0
M  V30 3819 C 376.367 -1.87652 -1.38957 0
M  V30 3820 C 377.348 -0.734358 -1.53431 0
M  V30 3821 O 378.533 -0.98911 -1.67123 0
M  V30 3822 C 375.663 -2.11396 -2.75552 0
M  V30 3823 C 374.617 -3.27243 -2.75855 0
M  V30 3824 C 373.943 -3.36382 -4.15633 0
M  V30 3825 C 375.243 -4.64622 -2.38587 0
M  V30 3826 H 376.937 -2.77887 -1.11442 0
M  V30 3827 H 374.483 -1.33707 -0.534655 0
M  V30 3828 H 376.436 -2.33189 -3.51 0
M  V30 3829 H 375.16 -1.17921 -3.04569 0
M  V30 3830 H 373.819 -3.05356 -2.02863 0
M  V30 3831 H 373.467 -2.40445 -4.41809 0
M  V30 3832 H 373.167 -4.14249 -4.1674 0
M  V30 3833 H 374.691 -3.60422 -4.92877 0
M  V30 3834 H 376.105 -4.86219 -3.03749 0
M  V30 3835 H 374.502 -5.45121 -2.50925 0
M  V30 3836 H 375.572 -4.66097 -1.33723 0
M  V30 3837 N 376.915 0.57481 -1.46744 0
M  V30 3838 C 377.825 1.711 -1.60505 0
M  V30 3839 C 378.841 1.67008 -0.488307 0
M  V30 3840 O 380.017 1.86774 -0.753495 0
M  V30 3841 C 377.082 3.07608 -1.59932 0
M  V30 3842 C 376.143 3.22904 -2.82898 0
M  V30 3843 C 375.376 4.529 -2.82343 0
M  V30 3844 O 375.599 5.37278 -1.91542 0
M  V30 3845 O 374.533 4.71611 -3.73987 0
M  V30 3846 H 378.359 1.62436 -2.56609 0
M  V30 3847 H 375.944 0.742779 -1.29627 0
M  V30 3848 H 377.826 3.88877 -1.62336 0
M  V30 3849 H 376.501 3.16692 -0.669898 0
M  V30 3850 H 375.408 2.41099 -2.86046 0
M  V30 3851 H 376.741 3.18715 -3.75076 0
M  V30 3852 N 378.394 1.34581 0.820102 0
M  V30 3853 C 379.643 1.26437 1.57151 0
M  V30 3854 C 379.956 -0.163111 1.94919 0
M  V30 3855 O 381.162 -0.366722 2.69012 0
M  V30 3856 C 379.618 2.21658 2.83541 0
M  V30 3857 C 379.226 3.69679 2.53065 0
M  V30 3858 C 380.97 2.22428 3.61561 0
M  V30 3859 C 378.877 4.56761 3.75664 0
M  V30 3860 H 377.807 0.469707 0.589823 0
M  V30 3861 H 380.458 1.59763 0.902656 0
M  V30 3862 H 378.84 1.81287 3.52067 0
M  V30 3863 H 380.014 4.18605 1.92631 0
M  V30 3864 H 378.329 3.71384 1.88316 0
M  V30 3865 H 380.926 2.8471 4.52597 0
M  V30 3866 H 381.269 1.22434 3.97889 0
M  V30 3867 H 381.802 2.61259 2.99981 0
M  V30 3868 H 378.541 5.57702 3.44454 0
M  V30 3869 H 378.061 4.12568 4.35371 0
M  V30 3870 H 379.74 4.71509 4.43044 0
M  V30 3871 N 379.872 -1.04064 1.18357 0
M  V30 3872 C 381.119 -1.77265 0.978947 0
M  V30 3873 C 381.447 -1.88189 -0.491428 0
M  V30 3874 O 380.702 -1.38653 -1.38108 0
M  V30 3875 C 381.001 -3.20634 1.57888 0
M  V30 3876 C 380.667 -3.29743 3.07539 0
M  V30 3877 C 379.329 -3.31937 3.48384 0
M  V30 3878 C 381.681 -3.29841 4.03552 0
M  V30 3879 C 379.009 -3.3187 4.83818 0
M  V30 3880 C 381.361 -3.31313 5.38901 0
M  V30 3881 C 380.025 -3.31799 5.79194 0
M  V30 3882 H 379.295 -0.648659 0.358222 0
M  V30 3883 H 381.942 -1.22225 1.47422 0
M  V30 3884 H 380.247 -3.78675 1.00561 0
M  V30 3885 H 381.944 -3.75917 1.39598 0
M  V30 3886 H 378.534 -3.28757 2.74986 0
M  V30 3887 H 382.718 -3.27337 3.73047 0
M  V30 3888 H 377.974 -3.30562 5.14333 0
M  V30 3889 H 382.148 -3.30338 6.13066 0
M  V30 3890 H 379.775 -3.315 6.84114 0
M  V30 3891 N 381.35 -0.985608 -1.22978 0
M  V30 3892 C 382.26 -0.538548 -2.28335 0
M  V30 3893 C 383.276 0.409163 -1.69121 0
M  V30 3894 O 384.452 0.277797 -1.99475 0
M  V30 3895 C 381.517 0.146867 -3.46389 0
M  V30 3896 C 380.578 -0.842896 -4.20944 0
M  V30 3897 C 379.811 -0.190095 -5.33361 0
M  V30 3898 O 380.034 1.01767 -5.61248 0
M  V30 3899 O 378.968 -0.891289 -5.95264 0
M  V30 3900 H 382.794 -1.41487 -2.68729 0
M  V30 3901 H 380.379 -0.753495 -1.29007 0
M  V30 3902 H 382.261 0.531125 -4.1804 0
M  V30 3903 H 380.936 0.997871 -3.07935 0
M  V30 3904 H 379.843 -1.27795 -3.51595 0
M  V30 3905 H 381.176 -1.66287 -4.6326 0
M  V30 3906 N 382.828 1.3818 -0.7579 0
M  V30 3907 C 383.76 2.2901 -0.0932177 0
M  V30 3908 C 384.773 1.47958 0.679136 0
M  V30 3909 O 385.962 1.70773 0.519514 0
M  V30 3910 C 383.062 3.26953 0.89192 0
M  V30 3911 C 382.235 4.37045 0.176303 0
M  V30 3912 C 381.294 5.15148 1.07281 0
M  V30 3913 O 380.32 5.66616 0.541728 0
M  V30 3914 N 381.522 5.28542 2.40049 0
M  V30 3915 H 384.287 2.86694 -0.873303 0
M  V30 3916 H 381.848 1.50007 -0.609054 0
M  V30 3917 H 383.84 3.76083 1.49479 0
M  V30 3918 H 382.41 2.70136 1.57306 0
M  V30 3919 H 381.63 3.89493 -0.607328 0
M  V30 3920 H 382.918 5.07801 -0.318718 0
M  V30 3921 H 382.316 4.88285 2.85647 0
M  V30 3922 H 380.873 5.8103 2.95376 0
M  V30 3923 N 384.306 0.507319 1.49211 0
M  V30 3924 C 385.239 -0.314509 2.26022 0
M  V30 3925 C 386.217 -0.964849 1.30879 0
M  V30 3926 O 387.401 -0.993707 1.6018 0
M  V30 3927 C 384.528 -1.44346 3.06402 0
M  V30 3928 C 383.574 -0.90685 4.16748 0
M  V30 3929 S 384.407 0.207392 5.35098 0
M  V30 3930 C 385.563 -0.924573 6.19033 0
M  V30 3931 H 385.796 0.337416 2.95379 0
M  V30 3932 H 383.329 0.292718 1.516 0
M  V30 3933 H 385.287 -2.09029 3.53295 0
M  V30 3934 H 383.948 -2.06702 2.36502 0
M  V30 3935 H 383.141 -1.75309 4.72528 0
M  V30 3936 H 382.743 -0.33712 3.72478 0
M  V30 3937 H 385.035 -1.82839 6.52362 0
M  V30 3938 H 385.978 -0.405248 7.06939 0
M  V30 3939 H 386.386 -1.19476 5.51712 0
M  V30 3940 N 385.784 -1.5574 0.241426 0
M  V30 3941 C 387.032 -1.98417 -0.384075 0
M  V30 3942 C 387.353 -1.13078 -1.58866 0
M  V30 3943 O 386.623 -0.212312 -1.94746 0
M  V30 3944 H 385.203 -0.732813 -0.144894 0
M  V30 3945 H 387.865 -1.9193 0.338943 0
M  V30 3946 H 386.961 -3.04219 -0.696939 0
M  V30 3947 N 387.262 0.0317525 -1.57568 0
M  V30 3948 C 388.225 1.01783 -2.0536 0
M  V30 3949 C 389.225 1.29203 -0.957253 0
M  V30 3950 O 390.415 1.24251 -1.22095 0
M  V30 3951 C 387.547 2.35137 -2.46827 0
M  V30 3952 H 388.74 0.605062 -2.93733 0
M  V30 3953 H 386.293 0.278514 -1.53799 0
M  V30 3954 H 387.028 2.81168 -1.61602 0
M  V30 3955 H 386.813 2.16566 -3.26866 0
M  V30 3956 H 388.303 3.05938 -2.84239 0
M  V30 3957 N 388.74 1.54641 0.303973 0
M  V30 3958 C 389.988 1.73437 1.0375 0
M  V30 3959 C 390.309 0.521449 1.87899 0
M  V30 3960 O 389.579 -0.46432 1.90318 0
M  V30 3961 H 388.159 0.639518 0.386039 0
M  V30 3962 H 390.821 1.91988 0.335675 0
M  V30 3963 H 389.917 2.62235 1.69231 0
M  V30 3964 N 390.218 -0.567019 1.47046 0
M  V30 3965 C 391.181 -1.65696 1.58359 0
M  V30 3966 C 392.181 -1.54097 0.459441 0
M  V30 3967 O 393.371 -1.58432 0.724225 0
M  V30 3968 C 390.503 -3.05197 1.51879 0
M  V30 3969 H 391.696 -1.57019 2.5551 0
M  V30 3970 H 389.249 -0.786148 1.3509 0
M  V30 3971 H 389.984 -3.19417 0.560673 0
M  V30 3972 H 389.769 -3.15025 2.33455 0
M  V30 3973 H 391.259 -3.84511 1.62913 0
M  V30 3974 N 391.696 -1.35014 -0.812953 0
M  V30 3975 C 392.626 -1.30069 -1.93919 0
M  V30 3976 C 393.607 -0.176275 -1.69184 0
M  V30 3977 O 394.792 -0.370227 -1.90638 0
M  V30 3978 C 391.922 -1.06547 -3.30552 0
M  V30 3979 C 390.876 -2.15561 -3.69753 0
M  V30 3980 C 390.202 -1.77214 -5.04479 0
M  V30 3981 C 391.502 -3.57476 -3.808 0
M  V30 3982 H 393.196 -2.24303 -1.98314 0
M  V30 3983 H 390.742 -1.07977 -0.952736 0
M  V30 3984 H 392.695 -1.01729 -4.08937 0
M  V30 3985 H 391.419 -0.0875719 -3.26483 0
M  V30 3986 H 390.078 -2.19466 -2.9365 0
M  V30 3987 H 389.726 -0.780589 -4.96906 0
M  V30 3988 H 389.426 -2.50184 -5.31678 0
M  V30 3989 H 390.95 -1.7391 -5.8531 0
M  V30 3990 H 392.364 -3.55929 -4.4943 0
M  V30 3991 H 390.761 -4.29152 -4.19462 0
M  V30 3992 H 391.831 -3.94091 -2.82525 0
M  V30 3993 N 393.175 1.03435 -1.18907 0
M  V30 3994 C 394.138 2.09756 -0.923844 0
M  V30 3995 C 395.138 1.60528 0.093416 0
M  V30 3996 O 396.328 1.73631 -0.140727 0
M  V30 3997 C 393.46 3.38692 -0.387354 0
M  V30 3998 H 394.653 2.34719 -1.86674 0
M  V30 3999 H 392.206 1.19959 -1.00197 0
M  V30 4000 H 392.941 3.19396 0.561845 0
M  V30 4001 H 392.726 3.75742 -1.12074 0
M  V30 4002 H 394.216 4.17016 -0.220694 0
M  V30 4003 N 394.653 0.992116 1.22453 0
M  V30 4004 C 395.6 0.541731 2.24352 0
M  V30 4005 C 396.57 -0.425519 1.60557 0
M  V30 4006 O 397.755 -0.330453 1.87917 0
M  V30 4007 C 394.895 -0.138248 3.44823 0
M  V30 4008 C 394.008 0.870649 4.23136 0
M  V30 4009 C 393.143 0.164269 5.30946 0
M  V30 4010 C 392.182 1.16159 6.00977 0
M  V30 4011 N 391.319 0.483568 7.00433 0
M  V30 4012 H 396.159 1.41541 2.62241 0
M  V30 4013 H 393.696 0.709013 1.28885 0
M  V30 4014 H 395.654 -0.5494 4.13567 0
M  V30 4015 H 394.284 -0.975721 3.077 0
M  V30 4016 H 393.336 1.40013 3.53696 0
M  V30 4017 H 394.648 1.63014 4.7141 0
M  V30 4018 H 393.802 -0.303653 6.0594 0
M  V30 4019 H 392.541 -0.627733 4.83643 0
M  V30 4020 H 391.546 1.64015 5.24766 0
M  V30 4021 H 392.771 1.95445 6.50368 0
M  V30 4022 H 390.717 -0.289012 6.55363 0
M  V30 4023 H 390.634 1.18152 7.4671 0
M  V30 4024 H 391.902 0.0384219 7.79491 0
M  V30 4025 N 396.131 -1.37776 0.765217 0
M  V30 4026 C 397.094 -2.28686 0.153416 0
M  V30 4027 C 398.094 -1.47727 -0.635081 0
M  V30 4028 O 399.284 -1.68027 -0.459632 0
M  V30 4029 C 396.416 -3.31608 -0.790495 0
M  V30 4030 H 397.609 -2.84297 0.954723 0
M  V30 4031 H 395.162 -1.46932 0.53299 0
M  V30 4032 H 395.897 -2.81109 -1.61705 0
M  V30 4033 H 395.682 -3.9144 -0.227348 0
M  V30 4034 H 397.172 -3.99559 -1.21419 0
M  V30 4035 N 397.609 -0.515225 -1.4894 0
M  V30 4036 C 398.855 0.0242508 -2.02785 0
M  V30 4037 C 399.188 1.35323 -1.39289 0
M  V30 4038 O 398.463 1.87041 -0.533469 0
M  V30 4039 C 398.746 0.16184 -3.59736 0
M  V30 4040 C 398.599 -1.19127 -4.33738 0
M  V30 4041 C 399.918 0.895719 -4.30888 0
M  V30 4042 H 397.037 0.00733914 -0.736963 0
M  V30 4043 H 399.679 -0.669395 -1.77818 0
M  V30 4044 H 397.829 0.752624 -3.8114 0
M  V30 4045 H 399.501 -1.82202 -4.23792 0
M  V30 4046 H 397.744 -1.77695 -3.95736 0
M  V30 4047 H 398.415 -1.04815 -5.41957 0
M  V30 4048 H 400.891 0.394528 -4.14225 0
M  V30 4049 H 399.767 0.960859 -5.40425 0
M  V30 4050 H 400.028 1.9427 -3.97129 0
M  V30 4051 N 399.087 1.5561 -0.249682 0
M  V30 4052 C 400.333 1.99306 0.374841 0
M  V30 4053 C 400.666 1.13767 1.57387 0
M  V30 4054 O 399.941 0.201711 1.93451 0
M  V30 4055 C 400.224 3.51507 0.781986 0
M  V30 4056 C 400.077 4.4781 -0.422629 0
M  V30 4057 C 401.396 4.08884 1.62793 0
M  V30 4058 H 398.515 0.724572 0.134773 0
M  V30 4059 H 401.157 1.86719 -0.351549 0
M  V30 4060 H 399.307 3.62363 1.4009 0
M  V30 4061 H 400.979 4.48931 -1.06108 0
M  V30 4062 H 399.222 4.20518 -1.06524 0
M  V30 4063 H 399.893 5.51919 -0.0943766 0
M  V30 4064 H 402.369 4.01147 1.10547 0
M  V30 4065 H 401.245 5.1564 1.88166 0
M  V30 4066 H 401.506 3.57515 2.60068 0
M  V30 4067 N 400.565 -0.0233959 1.57583 0
M  V30 4068 C 401.515 -1.03023 2.03397 0
M  V30 4069 C 402.499 -1.31701 0.924315 0
M  V30 4070 O 403.691 -1.31191 1.18819 0
M  V30 4071 C 400.82 -2.32961 2.52159 0
M  V30 4072 C 399.906 -2.07349 3.69956 0
M  V30 4073 N 400.297 -1.51814 4.82479 0
M  V30 4074 C 398.595 -2.37606 3.77438 0
M  V30 4075 C 399.296 -1.42136 5.64068 0
M  V30 4076 N 398.272 -1.89891 5.09355 0
M  V30 4077 H 402.074 -0.594962 2.87815 0
M  V30 4078 H 399.588 -0.229586 1.60769 0
M  V30 4079 H 401.585 -3.05906 2.83244 0
M  V30 4080 H 400.245 -2.77162 1.69149 0
M  V30 4081 H 401.256 -1.20008 5.03804 0
M  V30 4082 H 397.933 -2.84842 3.05239 0
M  V30 4083 H 399.323 -0.996405 6.64471 0
M  V30 4084 N 402.043 -1.548 -0.295768 0
M  V30 4085 C 403.291 -1.73985 -1.02828 0
M  V30 4086 C 403.612 -0.531406 -1.87619 0
M  V30 4087 O 402.882 0.454221 -1.90561 0
M  V30 4088 H 401.462 -0.641556 -0.382642 0
M  V30 4089 H 404.124 -1.92163 -0.325489 0
M  V30 4090 H 403.22 -2.63129 -1.67838 0
M  V30 4091 N 403.521 0.559213 -1.47345 0
M  V30 4092 C 404.798 1.31997 -1.44348 0
M  V30 4093 C 405.178 2.1064 -0.139358 0
M  V30 4094 O 404.526 2.1091 0.879153 0
M  V30 4095 C 404.736 2.22618 -2.68779 0
M  V30 4096 C 406.084 2.83701 -3.1591 0
M  V30 4097 O 407.108 2.32921 -2.69493 0
M  V30 4098 O 405.967 3.75993 -3.966 0
M  V30 4099 H 403.061 0.594251 -0.575147 0
M  V30 4100 H 405.607 0.578282 -1.59543 0
M  V30 4101 H 404.379 1.64093 -3.55231 0
M  V30 4102 H 404.002 3.04085 -2.5616 0
M  V30 4103 N 404.999 1.35443 0.805782 0
M  V30 4104 C 406.245 1.28952 1.56522 0
M  V30 4105 C 406.578 -0.135597 1.93726 0
M  V30 4106 O 405.853 -1.08516 1.61414 0
M  V30 4107 C 406.136 2.19678 2.85331 0
M  V30 4108 C 405.989 3.7081 2.54598 0
M  V30 4109 C 407.308 2.09495 3.8704 0
M  V30 4110 H 404.427 0.469764 0.567883 0
M  V30 4111 H 407.069 1.65851 0.927001 0
M  V30 4112 H 405.219 1.8834 3.39795 0
M  V30 4113 H 406.891 4.12593 2.06312 0
M  V30 4114 H 405.134 3.91051 1.8778 0
M  V30 4115 H 405.805 4.29679 3.46525 0
M  V30 4116 H 408.281 2.37045 3.41978 0
M  V30 4117 H 407.157 2.75173 4.74943 0
M  V30 4118 H 407.418 1.07714 4.28777 0
M  V30 4119 N 406.477 -1.02803 1.19454 0
M  V30 4120 C 407.754 -1.73299 0.907013 0
M  V30 4121 C 408.134 -2.02772 -0.587086 0
M  V30 4122 O 407.482 -1.68304 -1.54551 0
M  V30 4123 C 407.692 -3.00912 1.76785 0
M  V30 4124 C 409.04 -3.74403 2.00268 0
M  V30 4125 O 410.064 -3.10841 1.73943 0
M  V30 4126 O 408.923 -4.88675 2.4466 0
M  V30 4127 H 406.017 -0.754727 0.338106 0
M  V30 4128 H 408.563 -1.08754 1.30271 0
M  V30 4129 H 407.335 -2.75366 2.7801 0
M  V30 4130 H 406.958 -3.73197 1.37149 0
M  V30 4131 N 407.956 -0.998596 -1.21925 0
M  V30 4132 C 409.204 -0.676325 -1.90448 0
M  V30 4133 C 409.525 0.794719 -1.78071 0
M  V30 4134 O 408.795 1.5701 -1.17152 0
M  V30 4135 H 407.375 -0.247165 -0.704925 0
M  V30 4136 H 410.037 -1.26633 -1.48156 0
M  V30 4137 H 409.133 -0.943858 -2.97486 0
M  V30 4138 N 409.434 1.37368 -0.772513 0
M  V30 4139 C 410.682 1.99279 -0.336516 0
M  V30 4140 C 411.003 1.6163 1.09091 0
M  V30 4141 O 410.273 0.882109 1.74916 0
M  V30 4142 H 408.853 0.737063 -0.121435 0
M  V30 4143 H 411.515 1.67836 -0.990809 0
M  V30 4144 H 410.611 3.09332 -0.414763 0
M  V30 4145 N 410.912 0.523116 1.48665 0
M  V30 4146 C 412.137 -0.0117284 2.07397 0
M  V30 4147 C 412.562 -1.28031 1.37803 0
M  V30 4148 O 411.92 -1.75836 0.441762 0
M  V30 4149 C 411.968 -0.225786 3.59892 0
M  V30 4150 O 411.072 -1.29592 3.91509 0
M  V30 4151 H 410.413 0.0360673 0.66302 0
M  V30 4152 H 412.943 0.729066 1.9117 0
M  V30 4153 H 412.953 -0.450552 4.05505 0
M  V30 4154 H 411.628 0.700944 4.09951 0
M  V30 4155 H 410.205 -1.05436 3.57684 0
M  V30 4156 N 412.39 -1.55475 0.257931 0
M  V30 4157 C 413.636 -1.99502 -0.364266 0
M  V30 4158 C 413.969 -1.146 -1.56782 0
M  V30 4159 O 413.244 -0.211968 -1.93342 0
M  V30 4160 C 413.527 -3.51917 -0.763333 0
M  V30 4161 C 413.38 -4.4758 0.446371 0
M  V30 4162 C 414.699 -4.09742 -1.60623 0
M  V30 4163 H 411.818 -0.725277 -0.130929 0
M  V30 4164 H 414.46 -1.8653 0.361446 0
M  V30 4165 H 412.61 -3.63101 -1.38166 0
M  V30 4166 H 414.282 -4.48362 1.08487 0
M  V30 4167 H 412.525 -4.19947 1.08753 0
M  V30 4168 H 413.196 -5.51862 0.123645 0
M  V30 4169 H 415.672 -4.01727 -1.08418 0
M  V30 4170 H 414.548 -5.16631 -1.85429 0
M  V30 4171 H 414.809 -3.58889 -2.58169 0
M  V30 4172 N 413.868 0.0150385 -1.57593 0
M  V30 4173 C 414.801 1.04475 -2.0288 0
M  V30 4174 C 415.779 1.3436 -0.915764 0
M  V30 4175 O 416.963 1.46779 -1.18271 0
M  V30 4176 C 414.09 2.37608 -2.41371 0
M  V30 4177 C 413.136 2.23487 -3.63257 0
M  V30 4178 S 413.969 1.57505 -5.11813 0
M  V30 4179 C 415.125 2.921 -5.5356 0
M  V30 4180 H 415.358 0.65907 -2.89903 0
M  V30 4181 H 412.891 0.225452 -1.52745 0
M  V30 4182 H 414.849 3.14165 -2.64217 0
M  V30 4183 H 413.51 2.7332 -1.54775 0
M  V30 4184 H 412.703 3.21802 -3.87891 0
M  V30 4185 H 412.305 1.55074 -3.40335 0
M  V30 4186 H 414.597 3.88419 -5.55101 0
M  V30 4187 H 415.54 2.72184 -6.53698 0
M  V30 4188 H 415.948 2.95318 -4.8109 0
M  V30 4189 N 415.346 1.54954 0.287554 0
M  V30 4190 C 416.309 1.86076 1.33823 0
M  V30 4191 C 417.309 0.734414 1.43049 0
M  V30 4192 O 418.499 1.00266 1.42452 0
M  V30 4193 C 415.631 2.05305 2.72144 0
M  V30 4194 H 416.824 2.79984 1.07465 0
M  V30 4195 H 414.377 1.47223 0.524902 0
M  V30 4196 H 415.112 1.1373 3.03704 0
M  V30 4197 H 414.897 2.873 2.66836 0
M  V30 4198 H 416.387 2.30706 3.48087 0
M  V30 4199 N 416.824 -0.551391 1.4764 0
M  V30 4200 C 418.072 -1.30572 1.54258 0
M  V30 4201 C 418.393 -1.93877 0.208963 0
M  V30 4202 O 417.663 -1.80234 -0.767619 0
M  V30 4203 H 416.243 -0.484894 0.568231 0
M  V30 4204 H 418.905 -0.643402 1.83974 0
M  V30 4205 H 418.001 -2.09621 2.31226 0
M  V30 4206 N 418.302 -1.35869 -0.798587 0
M  V30 4207 C 419.234 -1.25305 -1.91915 0
M  V30 4208 C 420.247 -0.174548 -1.61862 0
M  V30 4209 O 421.436 -0.428499 -1.73281 0
M  V30 4210 C 418.536 -0.9086 -3.26493 0
M  V30 4211 C 417.709 -2.08711 -3.84394 0
M  V30 4212 C 416.768 -1.71717 -4.97393 0
M  V30 4213 O 415.794 -2.43692 -5.14396 0
M  V30 4214 N 416.996 -0.645473 -5.769 0
M  V30 4215 H 419.761 -2.21849 -2.01502 0
M  V30 4216 H 417.322 -1.29143 -0.976408 0
M  V30 4217 H 419.314 -0.642455 -3.99568 0
M  V30 4218 H 417.884 -0.0325815 -3.12583 0
M  V30 4219 H 417.104 -2.51659 -3.03416 0
M  V30 4220 H 418.392 -2.87468 -4.19809 0
M  V30 4221 H 417.79 -0.047648 -5.6568 0
M  V30 4222 H 416.347 -0.43913 -6.50319 0
M  V30 4223 N 419.78 1.02168 -1.19998 0
M  V30 4224 C 421.029 1.75091 -1.0013 0
M  V30 4225 C 421.342 1.89923 0.467835 0
M  V30 4226 O 422.548 2.59888 0.785515 0
M  V30 4227 C 421.004 3.14892 -1.74273 0
M  V30 4228 C 420.612 3.0809 -3.25245 0
M  V30 4229 C 422.356 3.9206 -1.62755 0
M  V30 4230 C 420.263 4.42867 -3.91948 0
M  V30 4231 H 419.193 0.656394 -0.37103 0
M  V30 4232 H 421.844 1.14284 -1.43567 0
M  V30 4233 H 420.226 3.7621 -1.2362 0
M  V30 4234 H 421.4 2.5611 -3.83072 0
M  V30 4235 H 419.715 2.44416 -3.3712 0
M  V30 4236 H 422.312 4.91764 -2.09934 0
M  V30 4237 H 422.655 4.12199 -0.582894 0
M  V30 4238 H 423.188 3.37359 -2.10793 0
M  V30 4239 H 419.927 4.27931 -4.96543 0
M  V30 4240 H 419.447 4.94874 -3.3891 0
M  V30 4241 H 421.126 5.11728 -3.95909 0
M  V30 4242 N 421.258 1.00505 1.21394 0
M  V30 4243 C 422.221 0.570459 2.21987 0
M  V30 4244 C 423.221 -0.353211 1.56873 0
M  V30 4245 O 424.411 -0.14349 1.73608 0
M  V30 4246 C 421.543 -0.168555 3.40483 0
M  V30 4247 H 422.736 1.46021 2.6195 0
M  V30 4248 H 420.289 0.793565 1.34656 0
M  V30 4249 H 421.024 -1.07374 3.06009 0
M  V30 4250 H 420.809 0.494823 3.88965 0
M  V30 4251 H 422.299 -0.460362 4.15055 0
M  V30 4252 N 422.737 -1.36956 0.779787 0
M  V30 4253 C 423.985 -1.99097 0.347079 0
M  V30 4254 C 424.306 -1.62206 -1.08232 0
M  V30 4255 O 423.576 -0.891373 -1.74446 0
M  V30 4256 H 422.156 -0.736409 0.125342 0
M  V30 4257 H 424.818 -1.67308 0.999696 0
M  V30 4258 H 423.914 -3.09107 0.431162 0
M  V30 4259 N 424.215 -0.530993 -1.48385 0
M  V30 4260 C 425.145 0.219985 -2.32461 0
M  V30 4261 C 426.126 0.934111 -1.42156 0
M  V30 4262 O 427.311 0.919694 -1.71042 0
M  V30 4263 C 424.441 1.26674 -3.23375 0
M  V30 4264 C 423.395 0.67069 -4.22712 0
M  V30 4265 C 422.721 1.82017 -5.02766 0
M  V30 4266 C 424.021 -0.358268 -5.2107 0
M  V30 4267 H 425.715 -0.48187 -2.95497 0
M  V30 4268 H 423.261 -0.233182 -1.42099 0
M  V30 4269 H 425.214 1.80006 -3.81019 0
M  V30 4270 H 423.938 1.99818 -2.58341 0
M  V30 4271 H 422.597 0.158878 -3.66256 0
M  V30 4272 H 422.245 2.54002 -4.34157 0
M  V30 4273 H 421.945 1.42727 -5.70003 0
M  V30 4274 H 423.469 2.35725 -5.63264 0
M  V30 4275 H 424.883 0.0880081 -5.73232 0
M  V30 4276 H 423.28 -0.66861 -5.96364 0
M  V30 4277 H 424.35 -1.26367 -4.68145 0
M  V30 4278 N 425.693 1.55336 -0.266172 0
M  V30 4279 C 426.939 1.99692 0.353681 0
M  V30 4280 C 427.272 1.1543 1.56172 0
M  V30 4281 O 426.547 0.222218 1.93226 0
M  V30 4282 C 426.83 3.52316 0.74466 0
M  V30 4283 C 426.683 4.47337 -0.470101 0
M  V30 4284 C 428.002 4.10588 1.58447 0
M  V30 4285 H 425.121 0.725961 0.12708 0
M  V30 4286 H 427.763 1.86336 -0.371333 0
M  V30 4287 H 425.913 3.63829 1.36239 0
M  V30 4288 H 427.585 4.4778 -1.10864 0
M  V30 4289 H 425.828 4.19364 -1.10978 0
M  V30 4290 H 426.499 5.51788 -0.15291 0
M  V30 4291 H 428.975 4.02297 1.06286 0
M  V30 4292 H 427.851 5.17607 1.82686 0
M  V30 4293 H 428.112 3.60253 2.56262 0
M  V30 4294 N 427.171 -0.0066808 1.57599 0
M  V30 4295 C 428.396 -0.707738 1.94951 0
M  V30 4296 C 428.821 -1.66882 0.867868 0
M  V30 4297 O 428.179 -1.80457 -0.17458 0
M  V30 4298 C 428.227 -1.42162 3.31394 0
M  V30 4299 O 427.331 -2.53578 3.25226 0
M  V30 4300 H 426.672 -0.188752 0.636607 0
M  V30 4301 H 429.202 0.0445193 2.04552 0
M  V30 4302 H 429.212 -1.78655 3.66806 0
M  V30 4303 H 427.887 -0.716903 4.09675 0
M  V30 4304 H 426.464 -2.19463 3.01481 0
M  V30 4305 N 428.649 -1.55105 -0.279332 0
M  V30 4306 C 429.596 -1.8755 -1.34513 0
M  V30 4307 C 430.566 -0.726384 -1.49375 0
M  V30 4308 O 431.751 -0.977063 -1.63884 0
M  V30 4309 C 428.891 -2.14738 -2.70151 0
M  V30 4310 C 428.004 -3.42285 -2.63562 0
M  V30 4311 C 427.139 -3.59206 -3.91337 0
M  V30 4312 C 426.178 -4.80467 -3.79233 0
M  V30 4313 N 425.315 -4.94079 -4.98829 0
M  V30 4314 H 430.155 -2.78456 -1.06143 0
M  V30 4315 H 427.692 -1.37867 -0.512936 0
M  V30 4316 H 429.65 -2.28501 -3.49061 0
M  V30 4317 H 428.28 -1.27075 -2.96735 0
M  V30 4318 H 427.332 -3.37029 -1.76397 0
M  V30 4319 H 428.644 -4.31328 -2.50515 0
M  V30 4320 H 427.798 -3.72751 -4.78687 0
M  V30 4321 H 426.537 -2.68337 -4.07243 0
M  V30 4322 H 425.542 -4.66932 -2.90266 0
M  V30 4323 H 426.767 -5.72765 -3.64852 0
M  V30 4324 H 424.713 -4.06139 -5.15158 0
M  V30 4325 H 424.63 -5.77156 -4.8829 0
M  V30 4326 H 425.898 -5.12003 -5.8777 0
M  V30 4327 N 430.127 0.543554 -1.4793 0
M  V30 4328 C 431.037 1.67657 -1.64098 0
M  V30 4329 C 432.053 1.65934 -0.523622 0
M  V30 4330 O 433.229 1.85133 -0.792943 0
M  V30 4331 C 430.294 3.04146 -1.66421 0
M  V30 4332 C 429.355 3.16831 -2.89684 0
M  V30 4333 C 428.588 4.46809 -2.91886 0
M  V30 4334 O 428.811 5.33095 -2.02895 0
M  V30 4335 O 427.745 4.63573 -3.83906 0
M  V30 4336 H 431.571 1.56957 -2.59997 0
M  V30 4337 H 429.156 0.715116 -1.31173 0
M  V30 4338 H 431.038 3.85346 -1.70548 0
M  V30 4339 H 429.713 3.152 -0.736923 0
M  V30 4340 H 428.62 2.34977 -2.91095 0
M  V30 4341 H 429.953 3.10687 -3.81752 0
M  V30 4342 N 431.605 1.3629 0.791371 0
M  V30 4343 C 432.515 1.32606 1.93527 0
M  V30 4344 C 433.531 0.228541 1.72493 0
M  V30 4345 O 434.707 0.460571 1.96063 0
M  V30 4346 C 431.772 1.11271 3.28359 0
M  V30 4347 C 430.833 2.3048 3.62185 0
M  V30 4348 C 430.066 2.10154 4.90583 0
M  V30 4349 O 430.289 1.07572 5.60165 0
M  V30 4350 O 429.223 2.97884 5.23019 0
M  V30 4351 H 433.049 2.28909 1.99585 0
M  V30 4352 H 430.634 1.16818 0.931344 0
M  V30 4353 H 432.516 1.01283 4.09047 0
M  V30 4354 H 431.191 0.180292 3.23198 0
M  V30 4355 H 430.098 2.46036 2.81811 0
M  V30 4356 H 431.431 3.22221 3.72068 0
M  V30 4357 N 433.083 -1.0153 1.20538 0
M  V30 4358 C 434.311 -1.78746 1.04199 0
M  V30 4359 C 434.726 -1.84323 -0.408733 0
M  V30 4360 O 434.083 -1.29714 -1.28377 0
M  V30 4361 C 434.134 -3.23152 1.62035 0
M  V30 4362 O 433.855 -3.17918 3.0143 0
M  V30 4363 C 435.356 -4.16911 1.50666 0
M  V30 4364 H 432.576 -0.56208 0.366479 0
M  V30 4365 H 435.12 -1.27794 1.59653 0
M  V30 4366 H 433.275 -3.71248 1.10697 0
M  V30 4367 H 433.689 -4.08567 3.28897 0
M  V30 4368 H 435.163 -5.16072 1.95892 0
M  V30 4369 H 435.64 -4.36791 0.459363 0
M  V30 4370 H 436.246 -3.74698 2.01201 0
M  V30 4371 N 434.561 -1.01147 -1.20859 0
M  V30 4372 C 435.524 -0.582224 -2.21682 0
M  V30 4373 C 436.524 0.344887 -1.57058 0
M  V30 4374 O 437.714 0.134281 -1.73682 0
M  V30 4375 C 434.846 0.150496 -3.40568 0
M  V30 4376 H 436.039 -1.47408 -2.61172 0
M  V30 4377 H 433.592 -0.800695 -1.34233 0
M  V30 4378 H 434.327 1.0575 -3.06574 0
M  V30 4379 H 434.112 -0.515444 -3.88697 0
M  V30 4380 H 435.602 0.438344 -4.15293 0
M  V30 4381 N 436.039 1.36541 -0.78704 0
M  V30 4382 C 436.949 2.3387 -0.184896 0
M  V30 4383 C 437.965 1.60927 0.661697 0
M  V30 4384 O 439.141 1.92927 0.57804 0
M  V30 4385 C 436.206 3.40122 0.672145 0
M  V30 4386 C 435.267 4.28867 -0.19267 0
M  V30 4387 C 434.5 5.30045 0.623561 0
M  V30 4388 O 434.723 5.39232 1.8597 0
M  V30 4389 O 433.657 6.01895 0.0247068 0
M  V30 4390 H 437.483 2.87126 -0.989562 0
M  V30 4391 H 435.068 1.38969 -0.548455 0
M  V30 4392 H 436.95 4.05093 1.16094 0
M  V30 4393 H 435.625 2.89169 1.45474 0
M  V30 4394 H 434.532 3.66945 -0.728166 0
M  V30 4395 H 435.865 4.83165 -0.938722 0
M  V30 4396 N 437.518 0.538854 1.48102 0
M  V30 4397 C 438.428 -0.222648 2.33541 0
M  V30 4398 C 439.444 -0.930225 1.47047 0
M  V30 4399 O 440.62 -0.903211 1.80011 0
M  V30 4400 C 437.685 -1.25064 3.23357 0
M  V30 4401 C 436.746 -0.552469 4.2573 0
M  V30 4402 C 435.979 -1.53149 5.11254 0
M  V30 4403 O 436.202 -2.76487 4.9891 0
M  V30 4404 O 435.136 -1.06602 5.92385 0
M  V30 4405 H 438.962 0.477707 2.99919 0
M  V30 4406 H 436.547 0.299669 1.46364 0
M  V30 4407 H 438.429 -1.8445 3.78888 0
M  V30 4408 H 437.104 -1.93325 2.59629 0
M  V30 4409 H 436.011 0.082114 3.7401 0
M  V30 4410 H 437.344 0.0883526 4.92121 0
M  V30 4411 N 438.996 -1.55193 0.274407 0
M  V30 4412 C 440.245 -1.98758 -0.343213 0
M  V30 4413 C 440.558 -1.16624 -1.5703 0
M  V30 4414 O 441.764 -1.5033 -2.26082 0
M  V30 4415 C 440.22 -3.53759 -0.661996 0
M  V30 4416 C 439.828 -4.4467 0.54524 0
M  V30 4417 C 441.572 -4.05916 -1.24228 0
M  V30 4418 C 439.479 -5.91058 0.201084 0
M  V30 4419 H 438.409 -0.742353 -0.132014 0
M  V30 4420 H 441.06 -1.79545 0.378948 0
M  V30 4421 H 439.442 -3.68772 -1.44304 0
M  V30 4422 H 440.616 -4.41426 1.32212 0
M  V30 4423 H 438.931 -4.03143 1.04232 0
M  V30 4424 H 441.528 -5.12831 -1.51357 0
M  V30 4425 H 441.871 -3.54908 -2.17592 0
M  V30 4426 H 442.404 -3.9434 -0.523542 0
M  V30 4427 H 439.143 -6.46161 1.10258 0
M  V30 4428 H 438.663 -5.97373 -0.539045 0
M  V30 4429 H 440.342 -6.46669 -0.206954 0
M  V30 4430 N 440.474 -0.00167713 -1.576 0
M  V30 4431 C 441.404 0.988091 -2.11563 0
M  V30 4432 C 442.385 1.35736 -1.02517 0
M  V30 4433 O 443.57 1.44082 -1.30208 0
M  V30 4434 C 440.7 2.27941 -2.62031 0
M  V30 4435 C 439.654 2.0517 -3.75619 0
M  V30 4436 C 438.98 3.4033 -4.12407 0
M  V30 4437 C 440.28 1.41294 -5.02825 0
M  V30 4438 H 441.974 0.538771 -2.94513 0
M  V30 4439 H 439.52 0.257712 -1.41675 0
M  V30 4440 H 441.473 2.97539 -2.9841 0
M  V30 4441 H 440.197 2.74989 -1.76205 0
M  V30 4442 H 438.856 1.37998 -3.39635 0
M  V30 4443 H 438.504 3.85085 -3.23603 0
M  V30 4444 H 438.204 3.25909 -4.88935 0
M  V30 4445 H 439.728 4.1124 -4.51347 0
M  V30 4446 H 441.142 2.00851 -5.36965 0
M  V30 4447 H 439.539 1.37356 -5.84169 0
M  V30 4448 H 440.609 0.382362 -4.8339 0
M  V30 4449 N 441.952 1.55251 0.271103 0
M  V30 4450 C 442.899 1.88261 1.33516 0
M  V30 4451 C 443.869 0.734296 1.48988 0
M  V30 4452 O 445.054 0.985741 1.63364 0
M  V30 4453 C 442.194 2.16168 2.69008 0
M  V30 4454 C 441.307 3.43678 2.61743 0
M  V30 4455 C 440.442 3.61276 3.89427 0
M  V30 4456 C 439.481 4.82472 3.7668 0
M  V30 4457 N 438.618 4.96717 4.96202 0
M  V30 4458 H 443.458 2.79015 1.04665 0
M  V30 4459 H 440.995 1.38137 0.505618 0
M  V30 4460 H 442.953 2.30349 3.47844 0
M  V30 4461 H 441.583 1.28646 2.96057 0
M  V30 4462 H 440.635 3.37959 1.74607 0
M  V30 4463 H 441.947 4.3265 2.48224 0
M  V30 4464 H 441.101 3.75284 4.76704 0
M  V30 4465 H 439.84 2.70492 4.05814 0
M  V30 4466 H 438.845 4.68465 2.87786 0
M  V30 4467 H 440.07 5.74692 3.61809 0
M  V30 4468 H 438.016 4.08865 5.12997 0
M  V30 4469 H 437.933 5.79738 4.85222 0
M  V30 4470 H 439.201 5.15113 5.85046 0
M  V30 4471 N 443.43 -0.535701 1.48216 0
M  V30 4472 C 444.707 -1.29683 1.46429 0
M  V30 4473 C 445.087 -2.10391 0.172852 0
M  V30 4474 O 444.435 -2.12282 -0.845488 0
M  V30 4475 C 444.645 -2.18313 2.72287 0
M  V30 4476 C 445.993 -2.78639 3.20383 0
M  V30 4477 O 447.017 -2.28604 2.73164 0
M  V30 4478 O 445.876 -3.69636 4.02531 0
M  V30 4479 H 442.97 -0.585026 0.584529 0
M  V30 4480 H 445.516 -0.552827 1.60443 0
M  V30 4481 H 444.288 -1.58421 3.57797 0
M  V30 4482 H 443.911 -2.99971 2.60966 0
M  V30 4483 N 444.908 -1.36708 -0.784132 0
M  V30 4484 C 445.838 -1.34153 -1.91116 0
M  V30 4485 C 446.819 -0.212121 -1.68772 0
M  V30 4486 O 448.004 -0.410581 -1.8981 0
M  V30 4487 C 445.134 -1.13535 -3.28218 0
M  V30 4488 C 444.088 -2.23356 -3.65097 0
M  V30 4489 C 443.414 -1.87875 -5.00607 0
M  V30 4490 C 444.714 -3.65473 -3.73131 0
M  V30 4491 H 446.408 -2.28459 -1.93512 0
M  V30 4492 H 443.954 -1.09973 -0.929618 0
M  V30 4493 H 445.907 -1.10381 -4.06687 0
M  V30 4494 H 444.631 -0.156804 -3.26223 0
M  V30 4495 H 443.29 -2.25645 -2.88929 0
M  V30 4496 H 442.938 -0.885814 -4.95139 0
M  V30 4497 H 442.638 -2.61406 -5.26252 0
M  V30 4498 H 444.162 -1.86286 -5.81489 0
M  V30 4499 H 445.576 -3.65382 -4.41779 0
M  V30 4500 H 443.973 -4.37953 -4.10265 0
M  V30 4501 H 445.043 -3.99995 -2.74102 0
M  V30 4502 N 446.386 1.0089 -1.21074 0
M  V30 4503 C 447.616 1.77933 -1.04993 0
M  V30 4504 C 448.024 1.84847 0.403495 0
M  V30 4505 O 447.367 1.30606 1.29181 0
M  V30 4506 C 447.429 3.23541 -1.56722 0
M  V30 4507 C 447.093 3.40214 -3.05129 0
M  V30 4508 C 448.09 3.2881 -4.02716 0
M  V30 4509 C 445.775 3.65781 -3.44252 0
M  V30 4510 C 447.769 3.42732 -5.37414 0
M  V30 4511 C 445.456 3.79346 -4.79103 0
M  V30 4512 C 446.454 3.67827 -5.75493 0
M  V30 4513 O 446.142 3.80965 -7.07899 0
M  V30 4514 H 445.874 0.566157 -0.369381 0
M  V30 4515 H 448.428 1.27826 -1.60779 0
M  V30 4516 H 446.658 3.74766 -0.953285 0
M  V30 4517 H 448.347 3.82245 -1.36543 0
M  V30 4518 H 449.113 3.08986 -3.73835 0
M  V30 4519 H 444.992 3.73831 -2.69762 0
M  V30 4520 H 448.536 3.33658 -6.12632 0
M  V30 4521 H 444.433 3.98672 -5.07672 0
M  V30 4522 H 445.201 3.97937 -7.15254 0
M  V30 4523 N 447.864 1.01787 1.20321 0
M  V30 4524 C 449.094 0.72614 1.93419 0
M  V30 4525 C 449.502 -0.717317 1.75075 0
M  V30 4526 O 448.845 -1.49836 1.06278 0
M  V30 4527 C 448.907 0.983621 3.45782 0
M  V30 4528 C 448.571 2.41645 3.87888 0
M  V30 4529 C 449.568 3.39732 3.93545 0
M  V30 4530 C 447.253 2.75752 4.19841 0
M  V30 4531 C 449.247 4.69988 4.30569 0
M  V30 4532 C 446.934 4.06221 4.56539 0
M  V30 4533 C 447.932 5.0315 4.61876 0
M  V30 4534 O 447.62 6.31284 4.97731 0
M  V30 4535 H 447.352 0.265824 0.621541 0
M  V30 4536 H 449.906 1.3623 1.53722 0
M  V30 4537 H 448.136 0.290301 3.85609 0
M  V30 4538 H 449.825 0.683279 4.00108 0
M  V30 4539 H 450.591 3.14718 3.69022 0
M  V30 4540 H 446.47 2.00993 4.14877 0
M  V30 4541 H 450.014 5.45642 4.3465 0
M  V30 4542 H 445.911 4.31013 4.80518 0
M  V30 4543 H 446.679 6.35591 5.15719 0
M  V30 4544 N 449.342 -1.36122 0.79427 0
M  V30 4545 C 450.59 -1.98718 0.368177 0
M  V30 4546 C 450.911 -1.63345 -1.06506 0
M  V30 4547 O 450.181 -0.909825 -1.73491 0
M  V30 4548 H 448.761 -0.735038 0.133146 0
M  V30 4549 H 451.423 -1.66239 1.01739 0
M  V30 4550 H 450.519 -3.08633 0.463923 0
M  V30 4551 N 450.82 -0.546701 -1.47814 0
M  V30 4552 C 451.783 0.196287 -2.28358 0
M  V30 4553 C 452.783 0.852437 -1.36346 0
M  V30 4554 O 453.973 0.709913 -1.59078 0
M  V30 4555 C 451.105 1.28579 -3.15722 0
M  V30 4556 H 452.298 -0.511086 -2.95513 0
M  V30 4557 H 449.851 -0.303248 -1.5333 0
M  V30 4558 H 450.586 2.0259 -2.53235 0
M  V30 4559 H 450.371 0.820229 -3.83425 0
M  V30 4560 H 451.861 1.80793 -3.76435 0
M  V30 4561 N 452.299 1.55045 -0.282633 0
M  V30 4562 C 453.262 2.21515 0.588539 0
M  V30 4563 C 454.262 1.19535 1.07554 0
M  V30 4564 O 455.452 1.44391 0.974514 0
M  V30 4565 C 452.584 2.88704 1.8128 0
M  V30 4566 H 453.777 2.99899 0.00806397 0
M  V30 4567 H 451.33 1.56265 -0.0333067 0
M  V30 4568 H 452.065 2.14352 2.43359 0
M  V30 4569 H 451.85 3.63443 1.47144 0
M  V30 4570 H 453.34 3.39465 2.43214 0
M  V30 4571 N 453.777 0.010035 1.57597 0
M  V30 4572 C 454.724 -0.978122 2.09049 0
M  V30 4573 C 455.694 -1.33509 0.988159 0
M  V30 4574 O 456.879 -1.43172 1.26121 0
M  V30 4575 C 454.019 -2.26158 2.60666 0
M  V30 4576 C 453.132 -1.96275 3.84838 0
M  V30 4577 C 452.267 -3.18776 4.24918 0
M  V30 4578 C 451.306 -2.84625 5.41899 0
M  V30 4579 N 450.443 -3.99693 5.77226 0
M  V30 4580 H 455.283 -0.532431 2.93205 0
M  V30 4581 H 452.82 -0.251234 1.44939 0
M  V30 4582 H 454.778 -3.01202 2.88675 0
M  V30 4583 H 453.408 -2.68378 1.79369 0
M  V30 4584 H 452.46 -1.11555 3.63675 0
M  V30 4585 H 453.772 -1.67111 4.69974 0
M  V30 4586 H 452.926 -4.02157 4.54262 0
M  V30 4587 H 451.665 -3.51087 3.38511 0
M  V30 4588 H 450.67 -1.99653 5.12268 0
M  V30 4589 H 451.895 -2.53551 6.29991 0
M  V30 4590 H 449.841 -4.31882 4.93776 0
M  V30 4591 H 449.758 -3.74087 6.56959 0
M  V30 4592 H 451.026 -4.83834 6.11167 0
M  V30 4593 N 455.255 -1.55392 -0.262866 0
M  V30 4594 C 456.202 -1.88966 -1.32516 0
M  V30 4595 C 457.172 -0.742187 -1.48596 0
M  V30 4596 O 458.357 -0.99439 -1.62839 0
M  V30 4597 C 455.497 -2.17592 -2.67858 0
M  V30 4598 C 454.61 -3.45061 -2.59917 0
M  V30 4599 C 453.745 -3.63336 -3.87505 0
M  V30 4600 C 452.784 -4.84462 -3.74116 0
M  V30 4601 N 451.921 -4.99342 -4.93561 0
M  V30 4602 H 456.761 -2.79566 -1.03184 0
M  V30 4603 H 454.298 -1.38404 -0.498285 0
M  V30 4604 H 456.256 -2.3219 -3.46617 0
M  V30 4605 H 454.886 -1.30215 -2.95371 0
M  V30 4606 H 453.938 -3.38881 -1.72812 0
M  V30 4607 H 455.25 -4.3396 -2.45926 0
M  V30 4608 H 454.404 -3.77807 -4.74707 0
M  V30 4609 H 453.143 -2.72641 -4.04374 0
M  V30 4610 H 452.148 -4.69985 -2.85297 0
M  V30 4611 H 453.373 -5.76603 -3.58757 0
M  V30 4612 H 451.319 -4.1158 -5.10821 0
M  V30 4613 H 451.236 -5.82303 -4.82141 0
M  V30 4614 H 452.504 -5.18208 -5.82306 0
M  V30 4615 N 456.733 0.527833 -1.48498 0
M  V30 4616 C 457.982 1.28003 -1.55878 0
M  V30 4617 C 458.295 1.9414 -0.238577 0
M  V30 4618 O 459.501 2.7083 -0.190643 0
M  V30 4619 C 457.957 2.32272 -2.74914 0
M  V30 4620 C 457.565 1.72196 -4.13585 0
M  V30 4621 C 459.309 3.08488 -2.91608 0
M  V30 4622 C 457.216 2.74417 -5.23879 0
M  V30 4623 H 456.146 0.481413 -0.580308 0
M  V30 4624 H 458.797 0.557195 -1.74836 0
M  V30 4625 H 457.179 3.07601 -2.49395 0
M  V30 4626 H 458.353 1.03041 -4.49132 0
M  V30 4627 H 456.668 1.08464 -4.02025 0
M  V30 4628 H 459.265 3.84879 -3.71177 0
M  V30 4629 H 459.608 3.64481 -2.01145 0
M  V30 4630 H 460.141 2.40274 -3.17038 0
M  V30 4631 H 456.88 2.23242 -6.16314 0
M  V30 4632 H 456.4 3.41893 -4.92818 0
M  V30 4633 H 458.079 3.37362 -5.52083 0
M  V30 4634 N 458.211 1.37122 0.776871 0
M  V30 4635 C 459.143 1.28342 1.89897 0
M  V30 4636 C 460.156 0.200277 1.61563 0
M  V30 4637 O 461.345 0.456012 1.72577 0
M  V30 4638 C 458.445 0.960427 3.25006 0
M  V30 4639 C 457.618 2.148 3.81025 0
M  V30 4640 C 456.677 1.79608 4.94598 0
M  V30 4641 O 455.703 2.51845 5.10454 0
M  V30 4642 N 456.905 0.737171 5.758 0
M  V30 4643 H 459.67 2.25027 1.97947 0
M  V30 4644 H 457.231 1.3068 0.955739 0
M  V30 4645 H 459.223 0.705942 3.98495 0
M  V30 4646 H 457.793 0.0823066 3.12492 0
M  V30 4647 H 457.013 2.56454 2.99374 0
M  V30 4648 H 458.301 2.9411 4.15183 0
M  V30 4649 H 457.699 0.137637 5.65533 0
M  V30 4650 H 456.256 0.542534 6.49538 0
M  V30 4651 N 459.689 -1.00246 1.21608 0
M  V30 4652 C 460.599 -2.12515 0.993709 0
M  V30 4653 C 461.615 -1.73913 -0.0549939 0
M  V30 4654 O 462.791 -2.00943 0.135619 0
M  V30 4655 C 459.856 -3.42083 0.563953 0
M  V30 4656 C 458.917 -3.94843 1.68516 0
M  V30 4657 C 458.15 -5.18226 1.27582 0
M  V30 4658 O 458.373 -5.70201 0.150506 0
M  V30 4659 O 457.307 -5.64497 2.0887 0
M  V30 4660 H 461.133 -2.34152 1.93407 0
M  V30 4661 H 458.718 -1.10891 1.00118 0
M  V30 4662 H 460.6 -4.20073 0.334194 0
M  V30 4663 H 459.275 -3.21828 -0.347665 0
M  V30 4664 H 458.182 -3.18068 1.96935 0
M  V30 4665 H 459.515 -4.19512 2.5743 0
M  V30 4666 N 461.167 -1.02423 -1.1978 0
M  V30 4667 C 462.077 -0.610919 -2.26506 0
M  V30 4668 C 463.093 0.355152 -1.70337 0
M  V30 4669 O 464.269 0.214195 -2.00258 0
M  V30 4670 C 461.334 0.0365921 -3.46681 0
M  V30 4671 C 460.395 -0.976389 -4.18049 0
M  V30 4672 C 459.628 -0.359683 -5.32487 0
M  V30 4673 O 459.851 0.838601 -5.64202 0
M  V30 4674 O 458.785 -1.08022 -5.92127 0
M  V30 4675 H 462.611 -1.49965 -2.64091 0
M  V30 4676 H 460.196 -0.794156 -1.26545 0
M  V30 4677 H 462.078 0.39786 -4.19518 0
M  V30 4678 H 460.753 0.899398 -3.10954 0
M  V30 4679 H 459.66 -1.38916 -3.47352 0
M  V30 4680 H 460.993 -1.80941 -4.57735 0
M  V30 4681 N 462.645 1.35699 -0.801477 0
M  V30 4682 C 463.608 2.28199 -0.213994 0
M  V30 4683 C 464.608 1.49359 0.595691 0
M  V30 4684 O 465.798 1.69186 0.414921 0
M  V30 4685 C 462.93 3.33587 0.702297 0
M  V30 4686 H 464.123 2.81666 -1.02976 0
M  V30 4687 H 461.676 1.45467 -0.571759 0
M  V30 4688 H 462.411 2.85297 1.54195 0
M  V30 4689 H 462.196 3.91906 0.123484 0
M  V30 4690 H 463.686 4.02638 1.10783 0
M  V30 4691 N 464.123 0.554532 1.47522 0
M  V30 4692 C 465.348 0.0322661 2.07375 0
M  V30 4693 C 465.773 -1.25079 1.40488 0
M  V30 4694 O 465.131 -1.74859 0.47896 0
M  V30 4695 C 465.179 -0.149397 3.6029 0
M  V30 4696 O 464.283 -1.21259 3.9417 0
M  V30 4697 H 463.624 0.0501228 0.662106 0
M  V30 4698 H 466.154 0.769452 1.8958 0
M  V30 4699 H 466.164 -0.364437 4.06369 0
M  V30 4700 H 464.839 0.787743 4.08372 0
M  V30 4701 H 463.416 -0.97825 3.5984 0
M  V30 4702 N 465.601 -1.54893 0.290851 0
M  V30 4703 C 467.017 -1.59476 -0.0628432 0
M  V30 4704 C 467.217 -1.30795 -1.5328 0
M  V30 4705 O 466.273 -1.07644 -2.28406 0
M  V30 4706 C 467.586 -2.98928 0.325962 0
M  V30 4707 C 469.134 -3.11799 0.273882 0
M  V30 4708 C 469.609 -4.53544 0.637359 0
M  V30 4709 N 471.1 -4.59433 0.589507 0
M  V30 4710 C 471.835 -5.67164 0.84335 0
M  V30 4711 N 471.331 -6.82975 1.16263 0
M  V30 4712 N 473.124 -5.56786 0.771091 0
M  V30 4713 H 465.275 -1.71798 1.24896 0
M  V30 4714 H 467.538 -0.801879 0.505663 0
M  V30 4715 H 467.244 -3.24805 1.34887 0
M  V30 4716 H 467.118 -3.75793 -0.325441 0
M  V30 4717 H 469.505 -2.85677 -0.739765 0
M  V30 4718 H 469.586 -2.37112 0.959766 0
M  V30 4719 H 469.23 -4.80394 1.64877 0
M  V30 4720 H 469.16 -5.26553 -0.0704866 0
M  V30 4721 H 471.651 -3.76245 0.353252 0
M  V30 4722 H 471.964 -7.61048 1.34257 0
M  V30 4723 H 470.309 -6.84552 1.20057 0
M  V30 4724 H 473.5 -4.65187 0.521383 0
M  V30 4725 H 473.673 -6.40664 0.972295 0
M  V30 4726 N 467.08 -0.0183926 -1.57589 0
M  V30 4727 C 468.326 0.657813 -1.92469 0
M  V30 4728 C 468.681 1.70349 -0.894375 0
M  V30 4729 O 467.974 1.91384 0.0910389 0
M  V30 4730 C 468.168 1.32676 -3.31861 0
M  V30 4731 C 467.997 0.347403 -4.48356 0
M  V30 4732 C 466.767 -0.0488653 -5.05276 0
M  V30 4733 C 468.965 -0.393931 -5.12789 0
M  V30 4734 N 466.947 -1.02451 -6.05291 0
M  V30 4735 C 468.318 -1.22367 -6.07804 0
M  V30 4736 C 470.373 -0.455789 -4.95809 0
M  V30 4737 C 469.076 -2.10966 -6.87667 0
M  V30 4738 C 471.102 -1.32908 -5.76272 0
M  V30 4739 C 470.464 -2.14662 -6.70894 0
M  V30 4740 H 466.563 0.21335 -0.752334 0
M  V30 4741 H 469.147 -0.0830547 -1.94523 0
M  V30 4742 H 467.318 2.03782 -3.30647 0
M  V30 4743 H 469.05 1.95913 -3.54119 0
M  V30 4744 H 465.805 0.323356 -4.72495 0
M  V30 4745 H 466.229 -1.50826 -6.59985 0
M  V30 4746 H 470.871 0.162017 -4.22489 0
M  V30 4747 H 468.589 -2.73807 -7.603 0
M  V30 4748 H 472.175 -1.38109 -5.6517 0
M  V30 4749 H 471.055 -2.81143 -7.32071 0
M  V30 4750 N 468.558 1.5553 0.254621 0
M  V30 4751 C 469.786 1.81046 1.00149 0
M  V30 4752 C 470.201 0.593047 1.79244 0
M  V30 4753 O 469.558 -0.438196 1.77161 0
M  V30 4754 C 469.609 3.04684 1.94551 0
M  V30 4755 O 469.33 4.21725 1.18658 0
M  V30 4756 C 470.831 3.42943 2.80901 0
M  V30 4757 H 468.051 0.602653 0.295044 0
M  V30 4758 H 470.595 2.02576 0.279842 0
M  V30 4759 H 468.75 2.85226 2.62154 0
M  V30 4760 H 469.164 4.91746 1.82445 0
M  V30 4761 H 470.638 4.32576 3.42902 0
M  V30 4762 H 471.115 2.63176 3.51617 0
M  V30 4763 H 471.721 3.64724 2.18762 0
M  V30 4764 N 470.036 -0.519951 1.48776 0
M  V30 4765 C 471.284 -1.2727 1.56993 0
M  V30 4766 C 471.605 -1.9339 0.25004 0
M  V30 4767 O 470.875 -1.81822 -0.729216 0
M  V30 4768 H 469.455 -0.472732 0.578389 0
M  V30 4769 H 472.117 -0.604234 1.85297 0
M  V30 4770 H 471.213 -2.04669 2.3562 0
M  V30 4771 N 471.514 -1.37532 -0.769588 0
M  V30 4772 C 472.76 -1.33057 -1.53048 0
M  V30 4773 C 473.093 0.0841865 -1.94017 0
M  V30 4774 O 472.368 1.04198 -1.64235 0
M  V30 4775 C 472.651 -2.27166 -2.79406 0
M  V30 4776 C 472.504 -3.77429 -2.44677 0
M  V30 4777 C 473.823 -2.19683 -3.81349 0
M  V30 4778 H 470.942 -0.484655 -0.555228 0
M  V30 4779 H 473.584 -1.68251 -0.882702 0
M  V30 4780 H 471.734 -1.97283 -3.34682 0
M  V30 4781 H 473.406 -4.17918 -1.953 0
M  V30 4782 H 471.649 -3.95892 -1.77346 0
M  V30 4783 H 472.32 -4.38716 -3.35011 0
M  V30 4784 H 474.796 -2.46029 -3.35573 0
M  V30 4785 H 473.672 -2.87668 -4.67481 0
M  V30 4786 H 473.933 -1.19045 -4.25771 0
M  V30 4787 N 472.992 0.995999 -1.22138 0
M  V30 4788 C 474.238 1.73767 -1.04561 0
M  V30 4789 C 474.571 1.89633 0.418698 0
M  V30 4790 O 473.846 1.43723 1.3105 0
M  V30 4791 C 474.129 3.14505 -1.75382 0
M  V30 4792 C 473.982 3.06306 -3.29388 0
M  V30 4793 C 475.301 4.13615 -1.50369 0
M  V30 4794 H 472.42 0.630728 -0.38125 0
M  V30 4795 H 475.062 1.16057 -1.50435 0
M  V30 4796 H 473.212 3.63775 -1.36383 0
M  V30 4797 H 474.884 2.64681 -3.77812 0
M  V30 4798 H 473.127 2.43186 -3.59226 0
M  V30 4799 H 473.798 4.05884 -3.74116 0
M  V30 4800 H 476.274 3.73089 -1.84239 0
M  V30 4801 H 475.15 5.10212 -2.02421 0
M  V30 4802 H 475.411 4.39949 -0.435611 0
M  V30 4803 N 474.47 1.03057 1.19235 0
M  V30 4804 C 475.886 0.747947 1.40989 0
M  V30 4805 C 476.086 -0.666752 1.90149 0
M  V30 4806 O 475.142 -1.43249 2.07933 0
M  V30 4807 C 476.455 1.7855 2.41951 0
M  V30 4808 C 478.003 1.80524 2.55695 0
M  V30 4809 C 478.478 2.83243 3.59913 0
M  V30 4810 N 479.969 2.8207 3.67411 0
M  V30 4811 C 480.704 3.58204 4.47747 0
M  V30 4812 N 480.2 4.44057 5.31775 0
M  V30 4813 N 481.993 3.46738 4.42413 0
M  V30 4814 H 474.144 1.94367 0.856468 0
M  V30 4815 H 476.407 0.840412 0.438647 0
M  V30 4816 H 476.113 2.79973 2.12857 0
M  V30 4817 H 475.987 1.6092 3.41152 0
M  V30 4818 H 478.374 0.79778 2.84112 0
M  V30 4819 H 478.455 2.02229 1.56643 0
M  V30 4820 H 478.099 3.84161 3.32239 0
M  V30 4821 H 478.029 2.58795 4.5862 0
M  V30 4822 H 480.52 2.19803 3.074 0
M  V30 4823 H 480.833 4.98884 5.90199 0
M  V30 4824 H 479.178 4.48129 5.3123 0
M  V30 4825 H 482.369 2.79077 3.75811 0
M  V30 4826 H 482.542 4.06322 5.04783 0
M  V30 4827 N 475.948 -1.35272 0.808662 0
M  V30 4828 C 476.896 -2.31663 0.208606 0
M  V30 4829 C 477.89 -1.56731 -0.642778 0
M  V30 4830 O 479.096 -1.71843 -0.53571 0
M  V30 4831 H 475.471 -0.750421 0.0486993 0
M  V30 4832 H 477.442 -2.79814 1.03666 0
M  V30 4833 C 476.191 -3.42008 -0.626573 0
M  V30 4834 H 475.514 -3.99795 0.0192103 0
M  V30 4835 H 476.954 -4.11727 -1.01278 0
M  V30 4836 C 475.413 -2.85226 -1.79298 0
M  V30 4837 O 475.943 -2.78945 -2.89055 0
M  V30 4838 N 474.149 -2.42245 -1.60516 0
M  V30 4839 H 473.696 -2.47554 -0.712375 0
M  V30 4840 H 473.654 -2.04603 -2.38715 0
M  V30 4841 N 477.426 -0.562348 -1.47226 0
M  V30 4842 C 478.703 0.0256985 -1.95583 0
M  V30 4843 C 479.083 1.48032 -1.50498 0
M  V30 4844 O 478.431 2.15973 -0.746181 0
M  V30 4845 C 478.641 -0.125129 -3.48776 0
M  V30 4846 C 479.989 0.0175728 -4.24596 0
M  V30 4847 O 481.013 -0.0529341 -3.56161 0
M  V30 4848 O 479.872 0.170145 -5.46235 0
M  V30 4849 H 476.966 0.0612565 -0.824728 0
M  V30 4850 H 479.512 -0.629233 -1.57603 0
M  V30 4851 H 478.284 -1.13715 -3.74412 0
M  V30 4852 H 477.907 0.567178 -3.93534 0
M  V30 4853 O 478.943 1.55359 -0.441124 0
M  V30 4854 H 479.634 1.93483 0.0916679 0
M  V30 END ATOM
M  V30 BEGIN BOND
M  V30 END BOND
M  V30 END CTAB
M  END
$$$$
