drugbank_target|Q9FDN7 Nitric oxide reductase (DB03247)
 OpenBabel12092120233D

  0  0  0     0  0            999 V3000
M  V30 BEGIN CTAB
M  V30 COUNTS 6267 6341 0 0 0
M  V30 BEGIN ATOM
M  V30 1 H -0.908 1.98254 -0.117106 0
M  V30 2 N 0 1.576 0 0
M  V30 3 C 0.933 2.03868 1.02534 0
M  V30 4 C 1.911 0.928543 1.3348 0
M  V30 5 O 3.095 1.19667 1.45644 0
M  V30 6 C 0.222 2.43627 2.35294 0
M  V30 7 C -0.732 3.65373 2.2001 0
M  V30 8 S 0.101 5.13292 1.52614 0
M  V30 9 C 1.257 5.56322 2.86805 0
M  V30 10 H 1.49 2.90518 0.631377 0
M  V30 11 H -0.977 1.52953 0.210867 0
M  V30 12 H 0.981 2.67203 3.11629 0
M  V30 13 H -0.358 1.57376 2.7183 0
M  V30 14 H -1.165 3.90944 3.18086 0
M  V30 15 H -1.563 3.418 1.51819 0
M  V30 16 H 0.729 5.58782 3.83104 0
M  V30 17 H 1.672 6.56266 2.65933 0
M  V30 18 H 2.08 4.83886 2.90714 0
M  V30 19 N 1.4781 -0.272755 1.55222 0
M  V30 20 C 2.7031 -1.02683 1.80197 0
M  V30 21 C 3.1281 -1.79142 0.573551 0
M  V30 22 O 2.4861 -1.74917 -0.476849 0
M  V30 23 C 2.5341 -1.9609 3.02624 0
M  V30 24 O 1.6381 -3.04863 2.77727 0
M  V30 25 H 0.9791 -0.293557 0.595584 0
M  V30 26 H 3.5091 -0.30159 2.02365 0
M  V30 27 H 3.5191 -2.38039 3.31363 0
M  V30 28 H 2.1941 -1.39851 3.91682 0
M  V30 29 H 0.7711 -2.67228 2.60084 0
M  V30 30 N 2.9562 -1.48159 -0.537278 0
M  V30 31 C 3.8882 -1.58218 -1.65831 0
M  V30 32 C 4.9012 -0.466948 -1.5596 0
M  V30 33 O 6.0902 -0.73747 -1.62553 0
M  V30 34 C 3.1902 -1.48906 -3.04434 0
M  V30 35 C 2.3632 -2.75343 -3.3986 0
M  V30 36 C 1.4222 -2.59588 -4.57712 0
M  V30 37 O 0.4482 -3.33457 -4.61297 0
M  V30 38 N 1.6502 -1.68724 -5.55439 0
M  V30 39 H 4.4152 -2.54891 -1.57641 0
M  V30 40 H 1.9762 -1.4479 -0.724386 0
M  V30 41 H 3.9682 -1.36072 -3.81139 0
M  V30 42 H 2.5382 -0.602368 -3.06741 0
M  V30 43 H 1.7582 -3.02795 -2.52406 0
M  V30 44 H 3.0462 -3.5924 -3.60311 0
M  V30 45 H 2.4442 -1.07898 -5.55315 0
M  V30 46 H 1.0012 -1.61832 -6.3139 0
M  V30 47 N 4.4343 0.785586 -1.36625 0
M  V30 48 C 5.8453 1.36101 -1.27803 0
M  V30 49 C 6.1963 1.96035 0.0804875 0
M  V30 50 O 5.3213 1.92834 0.982042 0
M  V30 51 C 5.9163 2.47442 -2.31426 0
M  V30 52 C 4.4753 3.00789 -2.26281 0
M  V30 53 C 3.6223 1.73896 -2.15999 0
M  V30 54 H 6.5733 0.586928 -1.47448 0
M  V30 55 H 6.5943 3.2656 -1.95291 0
M  V30 56 H 6.1063 2.03791 -3.30289 0
M  V30 57 H 4.2073 3.48851 -1.30896 0
M  V30 58 H 4.3203 3.57343 -3.19128 0
M  V30 59 H 2.6843 1.9628 -1.62316 0
M  V30 60 H 3.4673 1.32368 -3.16755 0
M  V30 61 N 5.9124 1.20967 1.01018 0
M  V30 62 C 7.1584 1.02526 1.74975 0
M  V30 63 C 7.4914 -0.4408 1.89131 0
M  V30 64 O 6.7664 -1.32718 1.42184 0
M  V30 65 C 7.0494 1.71699 3.1653 0
M  V30 66 C 6.9024 3.25791 3.10129 0
M  V30 67 C 8.2214 1.45531 4.15342 0
M  V30 68 H 5.3404 0.373863 0.635134 0
M  V30 69 H 7.9824 1.49071 1.17805 0
M  V30 70 H 6.1324 1.32128 3.65341 0
M  V30 71 H 7.8044 3.74697 2.69072 0
M  V30 72 H 6.0474 3.56363 2.47362 0
M  V30 73 H 6.7184 3.69353 4.10222 0
M  V30 74 H 9.1944 1.79872 3.75213 0
M  V30 75 H 8.0704 1.96453 5.1254 0
M  V30 76 H 8.3314 0.384237 4.40427 0
M  V30 77 N 7.3905 -1.2043 1.01659 0
M  V30 78 C 8.3535 -2.21433 0.591616 0
M  V30 79 C 9.3535 -1.57203 -0.338226 0
M  V30 80 O 10.5435 -1.73737 -0.126918 0
M  V30 81 C 7.6755 -3.40628 -0.136058 0
M  V30 82 H 8.8685 -2.60545 1.48514 0
M  V30 83 H 6.4215 -1.33893 0.806379 0
M  V30 84 H 7.1565 -3.07019 -1.04449 0
M  V30 85 H 6.9415 -3.88475 0.531917 0
M  V30 86 H 8.4315 -4.15475 -0.420735 0
M  V30 87 N 8.8686 -0.792821 -1.36206 0
M  V30 88 C 10.1176 -0.363353 -1.984 0
M  V30 89 C 10.4306 1.07172 -1.63626 0
M  V30 90 O 11.6366 1.60362 -2.19081 0
M  V30 91 C 10.0926 -0.59872 -3.54885 0
M  V30 92 C 9.7006 -2.04543 -3.9858 0
M  V30 93 C 11.4446 -0.233926 -4.23855 0
M  V30 94 C 9.3516 -2.22727 -5.47856 0
M  V30 95 H 8.2816 -0.13212 -0.742334 0
M  V30 96 H 10.9326 -0.974935 -1.55458 0
M  V30 97 H 9.3146 0.0826222 -3.95914 0
M  V30 98 H 10.4886 -2.76345 -3.68741 0
M  V30 99 H 8.8036 -2.36879 -3.42458 0
M  V30 100 H 11.4006 -0.348027 -5.33566 0
M  V30 101 H 11.7436 0.818351 -4.08177 0
M  V30 102 H 12.2766 -0.868639 -3.882 0
M  V30 103 H 9.0156 -3.2635 -5.68486 0
M  V30 104 H 8.5356 -1.55434 -5.7931 0
M  V30 105 H 10.2146 -2.03607 -6.14128 0
M  V30 106 N 10.3467 1.47872 -0.545128 0
M  V30 107 C 11.5747 2.06889 -0.021084 0
M  V30 108 C 11.9897 1.39955 1.2672 0
M  V30 109 O 11.3467 0.492036 1.75742 0
M  V30 110 C 11.3977 3.60996 0.190817 0
M  V30 111 O 11.1187 4.25419 -1.04644 0
M  V30 112 C 12.6197 4.36849 0.753521 0
M  V30 113 H 9.8397 0.669785 -0.0403635 0
M  V30 114 H 12.3837 1.90049 -0.755095 0
M  V30 115 H 10.5387 3.77391 0.87492 0
M  V30 116 H 10.9527 5.17785 -0.836611 0
M  V30 117 H 12.4267 5.45399 0.851139 0
M  V30 118 H 12.9037 4.02306 1.762 0
M  V30 119 H 13.5097 4.25169 0.105503 0
M  V30 120 N 11.8248 0.280983 1.55075 0
M  V30 121 C 13.1018 -0.386207 1.91749 0
M  V30 122 C 13.4818 -1.73264 1.20594 0
M  V30 123 O 12.8298 -2.26034 0.334784 0
M  V30 124 C 13.0398 -0.520687 3.45094 0
M  V30 125 C 14.3878 -0.800865 4.16979 0
M  V30 126 O 15.4118 -0.605271 3.5102 0
M  V30 127 O 14.2708 -1.1753 5.33712 0
M  V30 128 H 11.3648 -0.212408 0.799257 0
M  V30 129 H 13.9108 0.327568 1.66509 0
M  V30 130 H 12.6828 0.426633 3.88967 0
M  V30 131 H 12.3058 -1.2837 3.76307 0
M  V30 132 N 13.3029 -1.57598 0.00835791 0
M  V30 133 C 14.5509 -1.90551 -0.6734 0
M  V30 134 C 14.8719 -0.883301 -1.73847 0
M  V30 135 O 14.1419 0.0781442 -1.95744 0
M  V30 136 H 12.7219 -0.703312 -0.251717 0
M  V30 137 H 15.3839 -1.94833 0.0512592 0
M  V30 138 H 14.4799 -2.9056 -1.13935 0
M  V30 139 N 14.781 0.264519 -1.55364 0
M  V30 140 C 16.03 0.992812 -1.75574 0
M  V30 141 C 16.343 1.87142 -0.568979 0
M  V30 142 O 17.549 2.63513 -0.653682 0
M  V30 143 C 16.005 1.81519 -3.10771 0
M  V30 144 C 15.613 0.984839 -4.37041 0
M  V30 145 C 17.357 2.53727 -3.40327 0
M  V30 146 C 15.264 1.80209 -5.63275 0
M  V30 147 H 14.194 0.374412 -0.65447 0
M  V30 148 H 16.845 0.248138 -1.81815 0
M  V30 149 H 15.227 2.60115 -2.98591 0
M  V30 150 H 16.401 0.242455 -4.60162 0
M  V30 151 H 14.716 0.37691 -4.14691 0
M  V30 152 H 17.313 3.15292 -4.3185 0
M  V30 153 H 17.656 3.24447 -2.60845 0
M  V30 154 H 18.189 1.82156 -3.53644 0
M  V30 155 H 14.928 1.13896 -6.45529 0
M  V30 156 H 14.448 2.52022 -5.44284 0
M  V30 157 H 16.127 2.37364 -6.01887 0
M  V30 158 N 16.2591 1.48442 0.529413 0
M  V30 159 C 17.4891 1.59919 1.30804 0
M  V30 160 C 17.8971 0.258792 1.87422 0
M  V30 161 O 17.2401 -0.762096 1.67146 0
M  V30 162 C 17.3021 2.58693 2.49636 0
M  V30 163 C 16.9661 4.03745 2.14101 0
M  V30 164 C 17.9631 4.9141 1.6974 0
M  V30 165 C 15.6481 4.49285 2.24607 0
M  V30 166 C 17.6421 6.22645 1.36351 0
M  V30 167 C 15.3291 5.8054 1.9083 0
M  V30 168 C 16.3271 6.67043 1.46773 0
M  V30 169 O 16.0151 7.95856 1.1344 0
M  V30 170 H 15.7471 0.541981 0.404021 0
M  V30 171 H 18.3011 1.95 0.645309 0
M  V30 172 H 16.5311 2.18734 3.18892 0
M  V30 173 H 18.2201 2.59999 3.11698 0
M  V30 174 H 18.9861 4.57465 1.61094 0
M  V30 175 H 14.8651 3.82142 2.57854 0
M  V30 176 H 18.4091 6.90119 1.01891 0
M  V30 177 H 14.3061 6.14022 1.99117 0
M  V30 178 H 15.0741 8.08613 1.26832 0
M  V30 179 N 17.7372 -0.778329 1.37039 0
M  V30 180 C 18.9832 -1.53817 1.33086 0
M  V30 181 C 19.3382 -1.92208 -0.0860346 0
M  V30 182 O 18.6312 -1.60713 -1.04316 0
M  V30 183 C 18.8252 -2.81845 2.19768 0
M  V30 184 C 18.6542 -2.55967 3.69744 0
M  V30 185 C 17.4242 -2.50428 4.38878 0
M  V30 186 C 19.6222 -2.2441 4.62758 0
M  V30 187 N 17.6042 -2.16564 5.74433 0
M  V30 188 C 18.9752 -2.0063 5.86641 0
M  V30 189 C 21.0302 -2.1051 4.5121 0
M  V30 190 C 19.7332 -1.64354 7.00272 0
M  V30 191 C 21.7592 -1.75634 5.64718 0
M  V30 192 C 21.1212 -1.52709 6.87648 0
M  V30 193 H 17.2202 -0.563434 0.542279 0
M  V30 194 H 19.8042 -0.908617 1.72198 0
M  V30 195 H 17.9752 -3.42649 1.82883 0
M  V30 196 H 19.7072 -3.47682 2.07122 0
M  V30 197 H 16.4622 -2.66056 3.91805 0
M  V30 198 H 16.8862 -2.02348 6.46053 0
M  V30 199 H 21.5282 -2.26919 3.56746 0
M  V30 200 H 19.2462 -1.46683 7.94676 0
M  V30 201 H 22.8322 -1.65546 5.57751 0
M  V30 202 H 21.7122 -1.2612 7.73992 0
M  V30 203 N 19.2153 -1.21501 -1.00376 0
M  V30 204 C 20.4613 -1.03452 -1.74429 0
M  V30 205 C 20.7943 0.430764 -1.89362 0
M  V30 206 O 20.0693 1.31962 -1.42886 0
M  V30 207 C 20.3523 -1.73375 -3.15615 0
M  V30 208 C 20.2053 -3.27431 -3.08397 0
M  V30 209 C 21.5243 -1.47732 -4.14564 0
M  V30 210 H 18.6433 -0.377226 -0.633143 0
M  V30 211 H 21.2853 -1.49693 -1.17013 0
M  V30 212 H 19.4353 -1.34064 -3.64636 0
M  V30 213 H 21.1073 -3.76119 -2.67081 0
M  V30 214 H 19.3503 -3.5767 -2.45468 0
M  V30 215 H 20.0213 -3.71524 -4.08258 0
M  V30 216 H 22.4973 -1.8186 -3.74254 0
M  V30 217 H 21.3733 -1.99169 -5.11491 0
M  V30 218 H 21.6343 -0.407589 -4.40217 0
M  V30 219 N 20.6934 1.19889 -1.02296 0
M  V30 220 C 21.9414 1.89046 -0.714558 0
M  V30 221 C 22.2624 1.79636 0.758681 0
M  V30 222 O 21.5324 1.20292 1.54618 0
M  V30 223 H 20.1124 0.699802 -0.261317 0
M  V30 224 H 22.7744 1.45574 -1.29592 0
M  V30 225 H 21.8704 2.95524 -1.0036 0
M  V30 226 N 22.1715 0.800033 1.35784 0
M  V30 227 C 23.1345 0.211565 2.28221 0
M  V30 228 C 24.1345 -0.59728 1.49296 0
M  V30 229 O 25.3245 -0.416721 1.69142 0
M  V30 230 C 22.4565 -0.705846 3.33513 0
M  V30 231 H 23.6495 1.02677 2.81776 0
M  V30 232 H 21.2025 0.570211 1.45528 0
M  V30 233 H 21.9375 -1.54498 2.85133 0
M  V30 234 H 21.7225 -0.127655 3.91892 0
M  V30 235 H 23.2125 -1.11211 4.02519 0
M  V30 236 N 23.6496 -1.47581 0.552962 0
M  V30 237 C 24.8956 -2.02782 0.0273648 0
M  V30 238 C 25.2286 -1.42687 -1.31734 0
M  V30 239 O 24.5036 -0.580897 -1.85623 0
M  V30 240 C 24.7866 -3.60031 -0.0702371 0
M  V30 241 C 24.6396 -4.30566 1.30126 0
M  V30 242 C 25.9586 -4.33028 -0.785771 0
M  V30 243 H 23.0776 -0.736912 0.0114185 0
M  V30 244 H 25.7196 -1.76056 0.714432 0
M  V30 245 H 23.8696 -3.82932 -0.655382 0
M  V30 246 H 25.5416 -4.19018 1.92929 0
M  V30 247 H 23.7846 -3.91086 1.87709 0
M  V30 248 H 24.4556 -5.39114 1.18573 0
M  V30 249 H 26.9316 -4.15095 -0.288982 0
M  V30 250 H 25.8076 -5.42695 -0.823013 0
M  V30 251 H 26.0686 -4.01945 -1.841 0
M  V30 252 N 25.1277 -0.289203 -1.54924 0
M  V30 253 C 26.4047 0.376032 -1.91951 0
M  V30 254 C 26.7847 1.72622 -1.21511 0
M  V30 255 O 26.1327 2.25853 -0.346767 0
M  V30 256 C 26.3427 0.502378 -3.45365 0
M  V30 257 C 27.6907 0.778741 -4.17398 0
M  V30 258 O 28.7147 0.586647 -3.51336 0
M  V30 259 O 27.5737 1.14698 -5.34328 0
M  V30 260 H 24.6677 0.208167 -0.800372 0
M  V30 261 H 27.2137 -0.336394 -1.66332 0
M  V30 262 H 25.9857 -0.447255 -3.88736 0
M  V30 263 H 25.6087 1.26373 -3.76982 0
M  V30 264 N 26.6058 1.57591 -0.0167156 0
M  V30 265 C 27.8518 1.92399 0.659861 0
M  V30 266 C 28.2068 0.892561 1.70444 0
M  V30 267 O 27.4998 -0.0930755 1.91374 0
M  V30 268 C 27.6938 3.3172 1.33029 0
M  V30 269 C 27.5228 4.48319 0.352174 0
M  V30 270 C 26.2928 5.05281 -0.0434883 0
M  V30 271 C 28.4908 5.12831 -0.388474 0
M  V30 272 N 26.4728 6.05399 -1.01807 0
M  V30 273 C 27.8438 6.07934 -1.2172 0
M  V30 274 C 29.8988 4.95858 -0.450513 0
M  V30 275 C 28.6018 6.87891 -2.10235 0
M  V30 276 C 30.6278 5.76413 -1.32295 0
M  V30 277 C 29.9898 6.71123 -2.13948 0
M  V30 278 H 26.0888 0.752106 0.21415 0
M  V30 279 H 28.6728 1.94532 -0.0809846 0
M  V30 280 H 26.8438 3.3043 2.04134 0
M  V30 281 H 28.5758 3.5391 1.9629 0
M  V30 282 H 25.3308 4.7246 0.328384 0
M  V30 283 H 25.7548 6.60145 -1.50123 0
M  V30 284 H 30.3968 4.22472 0.166512 0
M  V30 285 H 28.1148 7.60591 -2.72997 0
M  V30 286 H 31.7008 5.65317 -1.37508 0
M  V30 287 H 30.5808 7.3237 -2.80364 0
M  V30 288 N 28.0839 -0.256276 1.55502 0
M  V30 289 C 29.0319 -1.33694 1.90338 0
M  V30 290 C 30.0259 -1.50299 0.781441 0
M  V30 291 O 31.2319 -1.51885 0.965966 0
M  V30 292 H 27.6069 -0.447483 0.60437 0
M  V30 293 H 29.5779 -1.01574 2.8058 0
M  V30 294 C 28.3269 -2.68724 2.20642 0
M  V30 295 H 27.6499 -2.56743 3.06469 0
M  V30 296 H 29.0899 -3.43237 2.48926 0
M  V30 297 C 27.5489 -3.21101 1.01959 0
M  V30 298 O 28.0789 -4.0084 0.262762 0
M  V30 299 N 26.2849 -2.79003 0.812746 0
M  V30 300 H 25.8319 -2.14271 1.42989 0
M  V30 301 H 25.7899 -3.14393 0.0203076 0
M  V30 302 N 29.562 -1.4872 -0.521534 0
M  V30 303 C 30.811 -1.56419 -1.27341 0
M  V30 304 C 31.124 -0.246805 -1.94037 0
M  V30 305 O 32.33 -0.202122 -2.70747 0
M  V30 306 C 30.786 -2.75896 -2.31105 0
M  V30 307 C 30.394 -4.14311 -1.70441 0
M  V30 308 C 32.138 -2.92913 -3.07249 0
M  V30 309 C 30.045 -5.25038 -2.72194 0
M  V30 310 H 28.975 -0.582344 -0.478949 0
M  V30 311 H 31.626 -1.75071 -0.549779 0
M  V30 312 H 30.008 -2.50697 -3.06541 0
M  V30 313 H 31.182 -4.49564 -1.01136 0
M  V30 314 H 29.497 -4.02482 -1.06759 0
M  V30 315 H 32.094 -3.72805 -3.83302 0
M  V30 316 H 32.437 -2.02689 -3.63625 0
M  V30 317 H 32.97 -3.18054 -2.38928 0
M  V30 318 H 29.709 -6.17255 -2.20627 0
M  V30 319 H 29.229 -4.94263 -3.39801 0
M  V30 320 H 30.908 -5.53508 -3.35019 0
M  V30 321 N 31.0401 0.771051 -1.3745 0
M  V30 322 C 32.4561 1.07171 -1.18265 0
M  V30 323 C 32.6561 2.01491 -0.019287 0
M  V30 324 O 31.7121 2.44244 0.640408 0
M  V30 325 C 33.0251 1.66854 -2.50161 0
M  V30 326 C 34.5731 1.79109 -2.56689 0
M  V30 327 C 35.0481 2.42205 -3.88717 0
M  V30 328 N 36.5391 2.49655 -3.90162 0
M  V30 329 C 37.2741 2.9933 -4.8907 0
M  V30 330 N 36.7701 3.49172 -5.98374 0
M  V30 331 N 38.5631 2.9821 -4.76474 0
M  V30 332 H 30.7141 0.144796 -2.11906 0
M  V30 333 H 32.9771 0.126863 -0.939473 0
M  V30 334 H 32.6831 1.05017 -3.35655 0
M  V30 335 H 32.5571 2.6614 -2.673 0
M  V30 336 H 34.9441 2.40077 -1.71601 0
M  V30 337 H 35.0251 0.785757 -2.43433 0
M  V30 338 H 34.6691 1.81875 -4.74219 0
M  V30 339 H 34.5991 3.43345 -3.99276 0
M  V30 340 H 37.0901 2.14383 -3.11205 0
M  V30 341 H 37.4031 3.8548 -6.69795 0
M  V30 342 H 35.7481 3.47275 -6.02018 0
M  V30 343 H 38.9391 2.58572 -3.90203 0
M  V30 344 H 39.1121 3.36613 -5.53711 0
M  V30 345 N 32.5182 1.22032 0.997298 0
M  V30 346 C 33.7482 1.06686 1.76923 0
M  V30 347 C 34.1562 -0.385838 1.85224 0
M  V30 348 O 33.4992 -1.27929 1.31833 0
M  V30 349 C 33.5612 1.59802 3.22031 0
M  V30 350 C 33.2252 3.08362 3.37286 0
M  V30 351 C 34.2222 4.05835 3.24952 0
M  V30 352 C 31.9072 3.47727 3.6248 0
M  V30 353 C 33.9012 5.4066 3.37588 0
M  V30 354 C 31.5882 4.82701 3.74757 0
M  V30 355 C 32.5862 5.78977 3.62319 0
M  V30 356 O 32.2742 7.11502 3.74193 0
M  V30 357 H 32.0062 0.374767 0.562606 0
M  V30 358 H 34.5602 1.61991 1.26286 0
M  V30 359 H 32.7902 0.989003 3.73839 0
M  V30 360 H 34.4792 1.40184 3.80924 0
M  V30 361 H 35.2452 3.76766 3.05405 0
M  V30 362 H 31.1242 2.73317 3.7124 0
M  V30 363 H 34.6682 6.15788 3.27796 0
M  V30 364 H 30.5652 5.11453 3.9381 0
M  V30 365 H 31.3332 7.19019 3.91093 0
M  V30 366 N 33.9963 -1.19345 1.0293 0
M  V30 367 C 35.2433 -1.89038 0.726008 0
M  V30 368 C 35.5713 -1.79649 -0.745427 0
M  V30 369 O 34.8263 -1.18354 -1.55855 0
M  V30 370 C 35.1253 -3.39292 1.12319 0
M  V30 371 C 34.7913 -3.68885 2.59297 0
M  V30 372 C 33.4533 -3.76671 2.99453 0
M  V30 373 C 35.8053 -3.82178 3.54386 0
M  V30 374 C 33.1333 -3.9522 4.33611 0
M  V30 375 C 35.4853 -4.0224 4.88248 0
M  V30 376 C 34.1493 -4.08259 5.28092 0
M  V30 377 H 33.4193 -0.691739 0.265665 0
M  V30 378 H 36.0663 -1.41328 1.29223 0
M  V30 379 H 34.3713 -3.88903 0.475584 0
M  V30 380 H 36.0683 -3.91536 0.866037 0
M  V30 381 H 32.6583 -3.63433 2.27189 0
M  V30 382 H 36.8423 -3.75505 3.24514 0
M  V30 383 H 32.0983 -3.98119 4.64016 0
M  V30 384 H 36.2723 -4.11468 5.61843 0
M  V30 385 H 33.8993 -4.22384 6.32057 0
M  V30 386 N 35.4744 -0.807222 -1.35358 0
M  V30 387 C 36.4244 -0.190706 -2.27201 0
M  V30 388 C 37.4084 0.635838 -1.47804 0
M  V30 389 O 38.6004 0.492991 -1.69996 0
M  V30 390 C 35.7294 0.659337 -3.36909 0
M  V30 391 C 34.8154 -0.176971 -4.23731 0
M  V30 392 N 35.2064 -1.24029 -4.90357 0
M  V30 393 C 33.5044 0.0412953 -4.45981 0
M  V30 394 C 34.2054 -1.75092 -5.54723 0
M  V30 395 N 33.1814 -1.05727 -5.33219 0
M  V30 396 H 36.9834 -1.0043 -2.76208 0
M  V30 397 H 34.4974 -0.648445 -1.48892 0
M  V30 398 H 36.4944 1.11706 -4.01656 0
M  V30 399 H 35.1544 1.47127 -2.89454 0
M  V30 400 H 36.1654 -1.62295 -4.91814 0
M  V30 401 H 32.8424 0.82232 -4.09322 0
M  V30 402 H 34.2324 -2.63963 -6.17878 0
M  V30 403 N 36.9525 1.47285 -0.560781 0
M  V30 404 C 38.2005 2.02064 -0.0379868 0
M  V30 405 C 38.5215 1.43711 1.31803 0
M  V30 406 O 37.7915 0.61362 1.86042 0
M  V30 407 H 36.3715 0.746918 -0.0110531 0
M  V30 408 H 39.0335 1.80648 -0.731598 0
M  V30 409 H 38.1295 3.12064 0.0474463 0
M  V30 410 N 38.4306 0.297415 1.54768 0
M  V30 411 C 39.8416 -0.195947 1.85669 0
M  V30 412 C 40.1926 -1.53707 1.21937 0
M  V30 413 O 39.3176 -2.10164 0.515754 0
M  V30 414 C 39.9126 -0.362318 3.36857 0
M  V30 415 C 38.4716 -0.799901 3.67802 0
M  V30 416 C 37.6186 0.0938578 2.77141 0
M  V30 417 H 40.5696 0.518538 1.4999 0
M  V30 418 H 40.5906 -1.19745 3.61167 0
M  V30 419 H 40.1026 0.613921 3.83214 0
M  V30 420 H 38.2036 -1.78682 3.26961 0
M  V30 421 H 38.3166 -0.621773 4.75048 0
M  V30 422 H 36.6806 -0.426254 2.51108 0
M  V30 423 H 37.4636 1.06639 3.26318 0
M  V30 424 N 39.9087 -1.5758 0.0250728 0
M  V30 425 C 40.8717 -2.08896 -0.943139 0
M  V30 426 C 41.8717 -1.00321 -1.25668 0
M  V30 427 O 43.0617 -1.26495 -1.19769 0
M  V30 428 C 40.1937 -2.55143 -2.26086 0
M  V30 429 H 41.3867 -2.95723 -0.498775 0
M  V30 430 H 38.9397 -1.54703 -0.222888 0
M  V30 431 H 39.6747 -1.71633 -2.75159 0
M  V30 432 H 39.4597 -3.34461 -2.04641 0
M  V30 433 H 40.9497 -2.95083 -2.95492 0
M  V30 434 N 41.3868 0.248026 -1.55636 0
M  V30 435 C 42.6338 0.976224 -1.77415 0
M  V30 436 C 42.9618 1.85361 -0.589193 0
M  V30 437 O 42.2168 1.90973 0.427529 0
M  V30 438 C 42.5158 1.86819 -3.04686 0
M  V30 439 C 42.1818 1.14625 -4.36087 0
M  V30 440 C 40.8438 0.946723 -4.71795 0
M  V30 441 C 43.1958 0.634463 -5.17324 0
M  V30 442 C 40.5238 0.223091 -5.86276 0
M  V30 443 C 42.8758 -0.0756959 -6.32555 0
M  V30 444 C 41.5398 -0.286711 -6.66884 0
M  V30 445 H 40.8098 0.357226 -0.649208 0
M  V30 446 H 43.4568 0.246415 -1.89908 0
M  V30 447 H 41.7618 2.66502 -2.872 0
M  V30 448 H 43.4588 2.43329 -3.18735 0
M  V30 449 H 40.0488 1.3117 -4.08035 0
M  V30 450 H 44.2328 0.77616 -4.90193 0
M  V30 451 H 39.4888 0.0491185 -6.1138 0
M  V30 452 H 43.6628 -0.479899 -6.94745 0
M  V30 453 H 41.2898 -0.849389 -7.5544 0
M  V30 454 N 42.8649 1.48995 0.513639 0
M  V30 455 C 44.0899 1.61792 1.29762 0
M  V30 456 C 44.5149 0.284475 1.85936 0
M  V30 457 O 43.8729 -0.746185 1.65232 0
M  V30 458 C 43.9209 2.67993 2.41272 0
M  V30 459 O 43.0249 2.26287 3.44772 0
M  V30 460 H 42.3659 0.541963 0.38363 0
M  V30 461 H 44.8959 1.95097 0.616307 0
M  V30 462 H 44.9059 2.89772 2.87221 0
M  V30 463 H 43.5809 3.64791 1.9975 0
M  V30 464 H 42.1579 2.14788 3.04829 0
M  V30 465 N 44.343 -0.763751 1.37857 0
M  V30 466 C 45.571 -1.55293 1.36718 0
M  V30 467 C 45.986 -1.88745 -0.0455434 0
M  V30 468 O 45.343 -1.52039 -1.00947 0
M  V30 469 C 45.394 -2.85831 2.2132 0
M  V30 470 O 45.115 -2.5381 3.57089 0
M  V30 471 C 46.616 -3.80023 2.28249 0
M  V30 472 H 43.836 -0.480841 0.468009 0
M  V30 473 H 46.38 -0.946009 1.81303 0
M  V30 474 H 44.535 -3.42926 1.80223 0
M  V30 475 H 44.949 -3.37459 4.01524 0
M  V30 476 H 46.423 -4.68599 2.91752 0
M  V30 477 H 46.9 -4.1973 1.2932 0
M  V30 478 H 47.506 -3.28855 2.69693 0
M  V30 479 N 45.8211 -1.22559 -0.990812 0
M  V30 480 C 46.7711 -0.964807 -2.0658 0
M  V30 481 C 47.7551 0.0853472 -1.60673 0
M  V30 482 O 48.9471 -0.125443 -1.76555 0
M  V30 483 C 46.0761 -0.546707 -3.38919 0
M  V30 484 C 45.1621 -1.6317 -3.91454 0
M  V30 485 N 45.5531 -2.85985 -4.17189 0
M  V30 486 C 43.8511 -1.50387 -4.19881 0
M  V30 487 C 44.5521 -3.56159 -4.59919 0
M  V30 488 N 43.5281 -2.83637 -4.63736 0
M  V30 489 H 47.3301 -1.89769 -2.24421 0
M  V30 490 H 44.8441 -1.12343 -1.17273 0
M  V30 491 H 46.8411 -0.34119 -4.15502 0
M  V30 492 H 45.5011 0.379254 -3.22478 0
M  V30 493 H 46.5121 -3.22392 -4.05319 0
M  V30 494 H 43.1891 -0.644254 -4.12499 0
M  V30 495 H 44.5791 -4.6139 -4.88435 0
M  V30 496 N 47.2992 1.18797 -1.03562 0
M  V30 497 C 48.7152 1.40671 -0.753917 0
M  V30 498 C 48.9152 1.9043 0.658686 0
M  V30 499 O 47.9712 2.08538 1.42366 0
M  V30 500 C 49.2842 2.41192 -1.79574 0
M  V30 501 C 50.8322 2.54928 -1.81606 0
M  V30 502 C 51.3072 3.58709 -2.84766 0
M  V30 503 N 52.7982 3.66212 -2.83625 0
M  V30 504 C 53.5332 4.46225 -3.60098 0
M  V30 505 N 53.0292 5.29888 -4.46308 0
M  V30 506 N 54.8222 4.40939 -3.4861 0
M  V30 507 H 46.9732 0.848221 -1.94728 0
M  V30 508 H 49.2362 0.435081 -0.842264 0
M  V30 509 H 48.9422 2.11669 -2.80872 0
M  V30 510 H 48.8162 3.40467 -1.62365 0
M  V30 511 H 51.2032 2.83771 -0.809817 0
M  V30 512 H 51.2842 1.55784 -2.02891 0
M  V30 513 H 50.9282 3.30607 -3.85566 0
M  V30 514 H 50.8582 4.57519 -2.60737 0
M  V30 515 H 53.3492 3.06466 -2.21105 0
M  V30 516 H 53.6622 5.88078 -5.01382 0
M  V30 517 H 52.0072 5.29326 -4.50377 0
M  V30 518 H 55.1982 3.74624 -2.80668 0
M  V30 519 H 55.3712 5.03056 -4.08459 0
M  V30 520 N 48.7773 0.814389 1.34928 0
M  V30 521 C 50.0253 0.397636 1.9815 0
M  V30 522 C 50.3463 -1.04069 1.64908 0
M  V30 523 O 49.6163 -1.72121 0.93548 0
M  V30 524 H 48.1963 0.144043 0.732981 0
M  V30 525 H 50.8583 1.04195 1.6471 0
M  V30 526 H 49.9543 0.509688 3.0791 0
M  V30 527 N 50.2554 -1.46986 0.568584 0
M  V30 528 C 51.4834 -2.0683 0.0539956 0
M  V30 529 C 51.8984 -1.41953 -1.24478 0
M  V30 530 O 51.2554 -0.519933 -1.74937 0
M  V30 531 C 51.3064 -3.61254 -0.133362 0
M  V30 532 O 51.0274 -4.237 1.11399 0
M  V30 533 C 52.5284 -4.37992 -0.683927 0
M  V30 534 H 49.7484 -0.669058 0.0510141 0
M  V30 535 H 52.2924 -1.88824 0.785234 0
M  V30 536 H 50.4474 -3.78735 -0.81477 0
M  V30 537 H 50.8614 -5.16388 0.91888 0
M  V30 538 H 52.3354 -5.46684 -0.764263 0
M  V30 539 H 52.8124 -4.05058 -1.69778 0
M  V30 540 H 53.4184 -4.25283 -0.0378494 0
M  V30 541 N 51.7335 -0.305618 -1.54608 0
M  V30 542 C 52.9615 0.304775 -2.04643 0
M  V30 543 C 53.3765 1.47167 -1.18268 0
M  V30 544 O 52.7335 1.81296 -0.209328 0
M  V30 545 C 52.7845 0.756564 -3.53495 0
M  V30 546 O 52.5055 -0.36389 -4.36586 0
M  V30 547 C 54.0065 1.43163 -4.19546 0
M  V30 548 H 51.2265 0.0655481 -0.667791 0
M  V30 549 H 53.7705 -0.446592 -1.99564 0
M  V30 550 H 51.9255 1.45794 -3.58919 0
M  V30 551 H 52.3395 -0.0113121 -5.24499 0
M  V30 552 H 53.8135 1.69886 -5.25207 0
M  V30 553 H 54.2905 2.37318 -3.69563 0
M  V30 554 H 54.8965 0.773307 -4.18211 0
M  V30 555 N 53.2116 1.57565 -0.0334293 0
M  V30 556 C 54.4416 1.95996 0.653398 0
M  V30 557 C 54.8496 0.908749 1.65947 0
M  V30 558 O 54.1926 -0.117471 1.83324 0
M  V30 559 C 54.2546 3.30589 1.41249 0
M  V30 560 C 53.9186 4.53503 0.564263 0
M  V30 561 C 54.9156 5.19647 -0.16225 0
M  V30 562 C 52.6006 4.99801 0.500398 0
M  V30 563 C 54.5946 6.30412 -0.941255 0
M  V30 564 C 52.2816 6.10448 -0.282308 0
M  V30 565 C 53.2796 6.75612 -1.00184 0
M  V30 566 O 52.9676 7.84134 -1.77171 0
M  V30 567 H 52.6996 0.65027 0.184728 0
M  V30 568 H 55.2536 2.05199 -0.0907841 0
M  V30 569 H 53.4836 3.17888 2.20191 0
M  V30 570 H 55.1726 3.53892 1.98784 0
M  V30 571 H 55.9386 4.84846 -0.12227 0
M  V30 572 H 51.8176 4.48883 1.05002 0
M  V30 573 H 55.3616 6.81208 -1.50339 0
M  V30 574 H 51.2586 6.44686 -0.323989 0
M  V30 575 H 52.0266 8.00822 -1.69194 0
M  V30 576 N 54.6897 -0.239769 1.55765 0
M  V30 577 C 55.6377 -1.31668 1.91745 0
M  V30 578 C 56.6317 -1.49462 0.797338 0
M  V30 579 O 57.8377 -1.50852 0.982021 0
M  V30 580 H 54.2127 -0.441048 0.609082 0
M  V30 581 H 56.1837 -0.985923 2.81642 0
M  V30 582 C 54.9327 -2.66368 2.2348 0
M  V30 583 H 54.2557 -2.53478 3.09175 0
M  V30 584 H 55.6957 -3.40578 2.52553 0
M  V30 585 C 54.1547 -3.20002 1.05359 0
M  V30 586 O 54.6847 -4.00538 0.305261 0
M  V30 587 N 52.8907 -2.78126 0.842292 0
M  V30 588 H 52.4377 -2.12742 1.45253 0
M  V30 589 H 52.3957 -3.14354 0.053652 0
M  V30 590 N 56.1678 -1.49265 -0.50573 0
M  V30 591 C 57.1308 -1.65075 -1.59006 0
M  V30 592 C 58.1308 -0.522768 -1.52065 0
M  V30 593 O 59.3208 -0.789117 -1.55302 0
M  V30 594 C 56.4528 -1.64369 -2.98656 0
M  V30 595 H 57.6458 -2.61784 -1.46319 0
M  V30 596 H 55.1988 -1.38226 -0.729616 0
M  V30 597 H 55.9338 -0.692272 -3.16825 0
M  V30 598 H 55.7188 -2.46282 -3.05103 0
M  V30 599 H 57.2088 -1.78674 -3.77446 0
M  V30 600 N 57.6459 0.756429 -1.3826 0
M  V30 601 C 58.8759 1.54341 -1.3734 0
M  V30 602 C 59.2839 1.89159 0.0393917 0
M  V30 603 O 58.6269 1.5307 1.01565 0
M  V30 604 C 58.6889 2.87238 -2.16182 0
M  V30 605 C 58.3529 2.74973 -3.65019 0
M  V30 606 C 59.3499 2.44962 -4.58574 0
M  V30 607 C 57.0349 2.92515 -4.08338 0
M  V30 608 C 59.0289 2.32642 -5.93428 0
M  V30 609 C 56.7159 2.79815 -5.43274 0
M  V30 610 C 57.7139 2.49921 -6.35632 0
M  V30 611 O 57.4019 2.37275 -7.68086 0
M  V30 612 H 57.1339 0.484281 -0.471643 0
M  V30 613 H 59.6879 0.944152 -1.82414 0
M  V30 614 H 57.9179 3.49342 -1.65822 0
M  V30 615 H 59.6069 3.48731 -2.07705 0
M  V30 616 H 60.3729 2.31081 -4.26412 0
M  V30 617 H 56.2519 3.14781 -3.368 0
M  V30 618 H 59.7959 2.0923 -6.65484 0
M  V30 619 H 55.6929 2.93269 -5.75034 0
M  V30 620 H 56.4609 2.52509 -7.78577 0
M  V30 621 N 59.124 1.23083 0.984299 0
M  V30 622 C 60.054 1.03292 2.09411 0
M  V30 623 C 61.035 -0.048923 1.7003 0
M  V30 624 O 62.22 0.114967 1.93859 0
M  V30 625 C 59.35 0.619155 3.41736 0
M  V30 626 C 58.304 1.64791 3.95004 0
M  V30 627 C 57.63 1.0897 5.23478 0
M  V30 628 C 58.93 3.03999 4.24714 0
M  V30 629 H 60.624 1.96119 2.26225 0
M  V30 630 H 58.17 0.944344 1.08711 0
M  V30 631 H 60.123 0.467777 4.18796 0
M  V30 632 H 58.847 -0.344786 3.24775 0
M  V30 633 H 57.506 1.78721 3.20085 0
M  V30 634 H 57.154 0.11686 5.02864 0
M  V30 635 H 56.854 1.77704 5.60085 0
M  V30 636 H 58.378 0.950093 6.03163 0
M  V30 637 H 59.792 2.93393 4.92538 0
M  V30 638 H 58.189 3.69936 4.72512 0
M  V30 639 H 59.259 3.53285 3.32142 0
M  V30 640 N 60.6021 -1.18246 1.0419 0
M  V30 641 C 61.8511 -1.87588 0.741194 0
M  V30 642 C 62.1641 -1.81303 -0.734066 0
M  V30 643 O 63.3701 -2.46019 -1.14834 0
M  V30 644 C 61.8261 -3.36538 1.27555 0
M  V30 645 C 61.4341 -3.51349 2.77953 0
M  V30 646 C 63.1781 -4.11273 1.05143 0
M  V30 647 C 61.0851 -4.94265 3.2474 0
M  V30 648 H 60.0151 -0.702622 0.273565 0
M  V30 649 H 62.6661 -1.33601 1.25789 0
M  V30 650 H 61.0481 -3.9 0.686703 0
M  V30 651 H 62.2221 -3.08153 3.42605 0
M  V30 652 H 60.5371 -2.90022 2.98791 0
M  V30 653 H 63.1341 -5.16689 1.37611 0
M  V30 654 H 63.4771 -4.16298 -0.0112774 0
M  V30 655 H 64.0101 -3.63987 1.60495 0
M  V30 656 H 60.7491 -4.94408 4.30396 0
M  V30 657 H 60.2691 -5.38172 2.64823 0
M  V30 658 H 61.9481 -5.62987 3.18834 0
M  V30 659 N 62.0802 -0.821533 -1.34494 0
M  V30 660 C 63.3262 -0.409552 -1.98622 0
M  V30 661 C 63.6592 1.0244 -1.64984 0
M  V30 662 O 62.9342 1.71325 -0.920758 0
M  V30 663 C 63.2172 -0.610458 -3.54888 0
M  V30 664 C 63.0702 -2.09043 -3.98273 0
M  V30 665 C 64.3892 -0.0455379 -4.40076 0
M  V30 666 H 61.5082 -0.15028 -0.721516 0
M  V30 667 H 64.1502 -1.03384 -1.59411 0
M  V30 668 H 62.3002 -0.079044 -3.8842 0
M  V30 669 H 63.9722 -2.68537 -3.75081 0
M  V30 670 H 62.2152 -2.58139 -3.48635 0
M  V30 671 H 62.8862 -2.18182 -5.07051 0
M  V30 672 H 65.3622 -0.499557 -4.1309 0
M  V30 673 H 64.2382 -0.215922 -5.48475 0
M  V30 674 H 64.4992 1.04939 -4.29465 0
M  V30 675 N 63.5583 1.46682 -0.576371 0
M  V30 676 C 64.8353 1.95599 0.00703437 0
M  V30 677 C 65.2153 1.51904 1.46589 0
M  V30 678 O 64.5633 0.766755 2.15251 0
M  V30 679 C 64.7733 3.4864 -0.158404 0
M  V30 680 C 66.1213 4.24594 -0.0229439 0
M  V30 681 O 67.1453 3.56094 -0.0869173 0
M  V30 682 O 66.0043 5.46373 0.118015 0
M  V30 683 H 63.0983 0.825275 0.053384 0
M  V30 684 H 65.6443 1.56996 -0.644244 0
M  V30 685 H 64.4163 3.7331 -1.17282 0
M  V30 686 H 64.0393 3.94057 0.5296 0
M  V30 687 N 65.0364 0.313813 1.54444 0
M  V30 688 C 66.3134 -0.345447 1.92525 0
M  V30 689 C 66.6934 -1.70667 1.24242 0
M  V30 690 O 66.0414 -2.25273 0.382654 0
M  V30 691 C 66.2514 -0.44737 3.46121 0
M  V30 692 C 67.5994 -0.712238 4.18584 0
M  V30 693 O 68.6234 -0.530678 3.52225 0
M  V30 694 O 67.4824 -1.06183 5.36085 0
M  V30 695 H 64.5764 -0.195407 0.803583 0
M  V30 696 H 67.1224 0.362813 1.65776 0
M  V30 697 H 65.8944 0.509043 3.87975 0
M  V30 698 H 65.5174 -1.20359 3.78945 0
M  V30 699 N 66.5145 -1.57545 0.0417849 0
M  V30 700 C 67.4615 -2.10977 -0.935805 0
M  V30 701 C 68.4315 -1.01486 -1.31491 0
M  V30 702 O 69.6165 -1.2898 -1.40602 0
M  V30 703 C 66.7565 -2.65169 -2.2086 0
M  V30 704 C 65.8695 -3.88714 -1.88482 0
M  V30 705 C 65.0045 -4.31254 -3.1015 0
M  V30 706 C 64.0435 -5.47524 -2.7365 0
M  V30 707 N 63.1805 -5.85162 -3.87982 0
M  V30 708 H 68.0205 -2.94218 -0.473249 0
M  V30 709 H 65.5575 -1.45415 -0.221981 0
M  V30 710 H 67.5155 -2.94685 -2.95325 0
M  V30 711 H 66.1455 -1.8474 -2.64709 0
M  V30 712 H 65.1975 -3.65849 -1.04205 0
M  V30 713 H 66.5095 -4.73245 -1.57608 0
M  V30 714 H 65.6635 -4.62273 -3.92923 0
M  V30 715 H 64.4025 -3.45516 -3.44195 0
M  V30 716 H 63.4075 -5.16187 -1.89291 0
M  V30 717 H 64.6325 -6.34971 -2.40807 0
M  V30 718 H 62.5785 -5.02377 -4.21846 0
M  V30 719 H 62.4955 -6.64362 -3.60775 0
M  V30 720 H 63.7635 -6.20791 -4.71422 0
M  V30 721 N 67.9926 0.231505 -1.5589 0
M  V30 722 C 69.2206 0.974505 -1.82513 0
M  V30 723 C 69.6356 1.78344 -0.619591 0
M  V30 724 O 68.9926 1.77792 0.411848 0
M  V30 725 C 69.0436 1.90007 -3.07538 0
M  V30 726 O 68.7646 1.12385 -4.2344 0
M  V30 727 C 70.2656 2.75779 -3.47075 0
M  V30 728 H 67.4856 0.286065 -0.606966 0
M  V30 729 H 70.0296 0.249739 -2.02969 0
M  V30 730 H 68.1846 2.57891 -2.89086 0
M  V30 731 H 68.5986 1.75125 -4.944 0
M  V30 732 H 70.0726 3.36443 -4.37619 0
M  V30 733 H 70.5496 3.47672 -2.68367 0
M  V30 734 H 71.1556 2.13323 -3.67931 0
M  V30 735 N 69.4707 1.49531 0.497807 0
M  V30 736 C 70.4337 1.65916 1.58128 0
M  V30 737 C 71.4337 0.530825 1.51786 0
M  V30 738 O 72.6237 0.797342 1.54881 0
M  V30 739 C 69.7557 1.65951 2.9778 0
M  V30 740 H 70.9487 2.62556 1.44929 0
M  V30 741 H 68.5017 1.38611 0.722275 0
M  V30 742 H 69.2367 0.709065 3.16453 0
M  V30 743 H 69.0217 2.47897 3.03792 0
M  V30 744 H 70.5117 1.80673 3.76493 0
M  V30 745 N 70.9488 -0.749086 1.3866 0
M  V30 746 C 71.8788 -1.8764 1.38973 0
M  V30 747 C 72.8598 -1.68178 0.255004 0
M  V30 748 O 74.0448 -1.88704 0.458754 0
M  V30 749 C 71.1748 -3.25222 1.21851 0
M  V30 750 C 70.1288 -3.59295 2.32575 0
M  V30 751 C 69.4548 -4.95663 2.00555 0
M  V30 752 C 70.7548 -3.63709 3.7485 0
M  V30 753 H 72.4488 -1.87635 2.3331 0
M  V30 754 H 69.9948 -0.901329 1.12303 0
M  V30 755 H 71.9478 -4.03746 1.20695 0
M  V30 756 H 70.6718 -3.25719 0.239775 0
M  V30 757 H 69.3308 -2.83093 2.32925 0
M  V30 758 H 68.9788 -4.92724 1.01154 0
M  V30 759 H 68.6788 -5.19429 2.74714 0
M  V30 760 H 70.2028 -5.7656 2.01024 0
M  V30 761 H 71.6168 -4.32338 3.76506 0
M  V30 762 H 70.0138 -3.98986 4.48252 0
M  V30 763 H 71.0838 -2.63834 4.06841 0
M  V30 764 N 72.4269 -1.23603 -0.977757 0
M  V30 765 C 73.6729 -1.07129 -1.72195 0
M  V30 766 C 74.0059 0.390501 -1.90233 0
M  V30 767 O 73.2809 1.28902 -1.45653 0
M  V30 768 C 73.5639 -1.80031 -3.11867 0
M  V30 769 C 73.4169 -3.33899 -3.01383 0
M  V30 770 C 74.7359 -1.56492 -4.11337 0
M  V30 771 H 71.8549 -0.390571 -0.624999 0
M  V30 772 H 74.4969 -1.52142 -1.13811 0
M  V30 773 H 72.6469 -1.41768 -3.6171 0
M  V30 774 H 74.3189 -3.81699 -2.59043 0
M  V30 775 H 72.5619 -3.62796 -2.37827 0
M  V30 776 H 73.2329 -3.801 -4.00285 0
M  V30 777 H 75.7089 -1.89757 -3.70313 0
M  V30 778 H 74.5849 -2.09973 -5.07151 0
M  V30 779 H 74.8459 -0.500874 -4.39254 0
M  V30 780 N 73.905 1.17692 -1.04816 0
M  V30 781 C 75.182 1.83768 -0.669963 0
M  V30 782 C 75.562 1.93232 0.849986 0
M  V30 783 O 74.91 1.46397 1.75443 0
M  V30 784 C 75.12 3.21641 -1.35455 0
M  V30 785 C 76.468 3.97592 -1.49017 0
M  V30 786 O 77.492 3.31107 -1.31326 0
M  V30 787 O 76.351 5.16729 -1.77914 0
M  V30 788 H 73.445 0.792799 -0.235368 0
M  V30 789 H 75.991 1.25021 -1.14751 0
M  V30 790 H 74.763 3.097 -2.39168 0
M  V30 791 H 74.386 3.88052 -0.866107 0
M  V30 792 N 75.3831 0.828654 1.34056 0
M  V30 793 C 76.6111 0.43262 2.02326 0
M  V30 794 C 77.0261 -0.963147 1.62385 0
M  V30 795 O 76.3831 -1.62425 0.832121 0
M  V30 796 C 76.4341 0.53182 3.57567 0
M  V30 797 O 76.1551 1.87258 3.96063 0
M  V30 798 C 77.6561 0.131422 4.43105 0
M  V30 799 H 74.8761 0.172923 0.648335 0
M  V30 800 H 77.4201 1.1184 1.71208 0
M  V30 801 H 75.5751 -0.105938 3.87255 0
M  V30 802 H 75.9891 1.85087 4.90758 0
M  V30 803 H 77.4631 0.251904 5.51425 0
M  V30 804 H 77.9401 -0.925645 4.29335 0
M  V30 805 H 78.5461 0.743207 4.18756 0
M  V30 806 N 76.8612 -1.46375 0.584142 0
M  V30 807 C 78.1072 -2.02678 0.0703716 0
M  V30 808 C 78.4402 -1.4545 -1.28678 0
M  V30 809 O 77.7152 -0.62014 -1.84349 0
M  V30 810 C 77.9982 -3.60099 0.00614674 0
M  V30 811 C 77.8512 -4.27709 1.3923 0
M  V30 812 C 79.1702 -4.34598 -0.693742 0
M  V30 813 H 76.2892 -0.736504 0.027047 0
M  V30 814 H 78.9312 -1.74501 0.751615 0
M  V30 815 H 77.0812 -3.84236 -0.574009 0
M  V30 816 H 78.7532 -4.14832 2.01773 0
M  V30 817 H 76.9962 -3.87016 1.95962 0
M  V30 818 H 77.6672 -5.36478 1.29982 0
M  V30 819 H 80.1432 -4.15615 -0.200869 0
M  V30 820 H 79.0192 -5.44318 -0.707714 0
M  V30 821 H 79.2802 -4.05759 -1.75533 0
M  V30 822 N 78.3393 -0.321999 -1.54275 0
M  V30 823 C 79.5693 0.282642 -2.04658 0
M  V30 824 C 79.9773 1.46453 -1.19784 0
M  V30 825 O 79.3203 1.82367 -0.220932 0
M  V30 826 C 79.3823 0.781857 -3.50895 0
M  V30 827 C 79.0463 -0.277517 -4.56157 0
M  V30 828 C 80.0433 -1.11307 -5.07845 0
M  V30 829 C 77.7283 -0.425256 -5.00497 0
M  V30 830 C 79.7223 -2.08211 -6.02434 0
M  V30 831 C 77.4093 -1.39771 -5.94901 0
M  V30 832 C 78.4073 -2.2246 -6.45756 0
M  V30 833 O 78.0953 -3.18054 -7.38307 0
M  V30 834 H 77.8273 0.0622636 -0.673126 0
M  V30 835 H 80.3813 -0.465792 -2.00049 0
M  V30 836 H 78.6113 1.58118 -3.52896 0
M  V30 837 H 80.3003 1.30467 -3.84361 0
M  V30 838 H 81.0663 -1.00991 -4.74369 0
M  V30 839 H 76.9453 0.20847 -4.60528 0
M  V30 840 H 80.4893 -2.72791 -6.42052 0
M  V30 841 H 76.3863 -1.50152 -6.27794 0
M  V30 842 H 77.1543 -3.13275 -7.56175 0
M  V30 843 N 79.8174 1.5752 -0.0501392 0
M  V30 844 C 80.7274 2.14952 0.939827 0
M  V30 845 C 81.7434 1.10706 1.34239 0
M  V30 846 O 82.9194 1.42869 1.41952 0
M  V30 847 C 79.9844 2.68232 2.19665 0
M  V30 848 C 79.0454 3.87272 1.85253 0
M  V30 849 C 78.2784 4.38002 3.04943 0
M  V30 850 O 78.5014 3.87811 4.18281 0
M  V30 851 O 77.4354 5.29602 2.86017 0
M  V30 852 H 81.2614 2.9986 0.481392 0
M  V30 853 H 78.8464 1.4841 0.171699 0
M  V30 854 H 80.7284 3.02475 2.93406 0
M  V30 855 H 79.4034 1.86395 2.64648 0
M  V30 856 H 78.3104 3.5792 1.0883 0
M  V30 857 H 79.6434 4.70336 1.4507 0
M  V30 858 N 81.2955 -0.223234 1.56011 0
M  V30 859 C 82.7065 -0.790368 1.69145 0
M  V30 860 C 83.0575 -1.85055 0.651845 0
M  V30 861 O 82.1825 -2.15498 -0.197359 0
M  V30 862 C 82.7775 -1.4404 3.06656 0
M  V30 863 C 81.3365 -1.95494 3.2165 0
M  V30 864 C 80.4835 -0.814506 2.65068 0
M  V30 865 H 83.4345 0.00139011 1.587 0
M  V30 866 H 83.4555 -2.30916 3.0242 0
M  V30 867 H 82.9675 -0.668543 3.82298 0
M  V30 868 H 81.0685 -2.75487 2.50874 0
M  V30 869 H 81.1815 -2.13607 4.28846 0
M  V30 870 H 79.5455 -1.22137 2.23505 0
M  V30 871 H 80.3285 -0.0553515 3.43255 0
M  V30 872 N 82.7736 -1.49793 -0.48987 0
M  V30 873 C 84.0206 -1.59841 -1.24327 0
M  V30 874 C 84.3486 -0.290135 -1.92324 0
M  V30 875 O 83.6036 0.722749 -1.81865 0
M  V30 876 C 83.9026 -2.71488 -2.32441 0
M  V30 877 C 83.5686 -4.12614 -1.81826 0
M  V30 878 C 82.2306 -4.51017 -1.67742 0
M  V30 879 C 84.5826 -5.00892 -1.4407 0
M  V30 880 C 81.9106 -5.75459 -1.14297 0
M  V30 881 C 84.2626 -6.25863 -0.920742 0
M  V30 882 C 82.9266 -6.63086 -0.766383 0
M  V30 883 H 82.1966 -0.584899 -0.454944 0
M  V30 884 H 84.8436 -1.83663 -0.542215 0
M  V30 885 H 83.1486 -2.4168 -3.0838 0
M  V30 886 H 84.8456 -2.76469 -2.90458 0
M  V30 887 H 81.4356 -3.82307 -1.93751 0
M  V30 888 H 85.6196 -4.7187 -1.53794 0
M  V30 889 H 80.8756 -6.02989 -1.01068 0
M  V30 890 H 85.0496 -6.9364 -0.619448 0
M  V30 891 H 82.6766 -7.59393 -0.350083 0
M  V30 892 N 84.2517 0.741722 -1.39055 0
M  V30 893 C 85.1987 1.85566 -1.37237 0
M  V30 894 C 86.1687 1.64457 -0.233072 0
M  V30 895 O 87.3537 1.85957 -0.427147 0
M  V30 896 C 84.4937 3.23004 -1.215 0
M  V30 897 C 83.6067 3.55864 -2.44918 0
M  V30 898 C 82.7417 4.82669 -2.21821 0
M  V30 899 C 81.7807 5.08351 -3.40948 0
M  V30 900 N 80.9177 6.26356 -3.17211 0
M  V30 901 H 85.7577 1.86455 -2.32462 0
M  V30 902 H 83.2947 0.911176 -1.15482 0
M  V30 903 H 85.2527 4.02331 -1.10389 0
M  V30 904 H 83.8827 3.21411 -0.29908 0
M  V30 905 H 82.9347 2.7129 -2.66657 0
M  V30 906 H 84.2467 3.70765 -3.33668 0
M  V30 907 H 83.4007 5.69962 -2.07914 0
M  V30 908 H 82.1397 4.69929 -1.30454 0
M  V30 909 H 81.1447 4.19522 -3.55361 0
M  V30 910 H 82.3697 5.22981 -4.33207 0
M  V30 911 H 80.3157 6.14917 -2.28502 0
M  V30 912 H 80.2327 6.41813 -3.99515 0
M  V30 913 H 81.5007 7.16506 -3.06984 0
M  V30 914 N 85.7298 1.2412 0.971189 0
M  V30 915 C 86.6398 1.04747 2.09917 0
M  V30 916 C 87.6558 -0.0107162 1.73997 0
M  V30 917 O 88.8318 0.186714 2.00533 0
M  V30 918 C 85.8968 0.650828 3.40537 0
M  V30 919 C 84.9578 1.7851 3.90426 0
M  V30 920 C 84.1908 1.40729 5.14812 0
M  V30 921 O 84.4138 0.29557 5.69634 0
M  V30 922 O 83.3478 2.23168 5.58999 0
M  V30 923 H 87.1738 1.99304 2.29154 0
M  V30 924 H 84.7588 1.02908 1.08307 0
M  V30 925 H 86.6408 0.440992 4.19086 0
M  V30 926 H 85.3158 -0.265649 3.22608 0
M  V30 927 H 84.2228 2.04966 3.12953 0
M  V30 928 H 85.5558 2.68023 4.12825 0
M  V30 929 N 87.2079 -1.17134 1.05439 0
M  V30 930 C 88.1179 -2.24878 0.668365 0
M  V30 931 C 89.1339 -1.71186 -0.311687 0
M  V30 932 O 90.3099 -2.00738 -0.163161 0
M  V30 933 C 87.3749 -3.46662 0.051648 0
M  V30 934 C 86.4359 -4.15429 1.08246 0
M  V30 935 C 85.6689 -5.31399 0.495082 0
M  V30 936 O 85.8919 -5.66153 -0.694743 0
M  V30 937 O 84.8259 -5.89187 1.23056 0
M  V30 938 H 88.6519 -2.60189 1.56637 0
M  V30 939 H 86.2369 -1.24482 0.826104 0
M  V30 940 H 88.1189 -4.20394 -0.290966 0
M  V30 941 H 86.7939 -3.13142 -0.819971 0
M  V30 942 H 85.7009 -3.43704 1.47711 0
M  V30 943 H 87.0339 -4.52982 1.92532 0
M  V30 944 N 88.686 -0.835752 -1.33615 0
M  V30 945 C 89.616 -0.281739 -2.31794 0
M  V30 946 C 90.597 0.608833 -1.58831 0
M  V30 947 O 91.782 0.533035 -1.86741 0
M  V30 948 C 88.912 0.546612 -3.42971 0
M  V30 949 C 87.866 -0.247904 -4.27281 0
M  V30 950 C 87.192 0.704001 -5.30045 0
M  V30 951 C 88.492 -1.46324 -5.01385 0
M  V30 952 H 90.186 -1.10206 -2.78379 0
M  V30 953 H 87.732 -0.531388 -1.33837 0
M  V30 954 H 89.685 0.944467 -4.1068 0
M  V30 955 H 88.409 1.40011 -2.95067 0
M  V30 956 H 87.068 -0.627281 -3.61194 0
M  V30 957 H 86.716 1.55381 -4.78399 0
M  V30 958 H 86.416 0.176524 -5.87335 0
M  V30 959 H 87.94 1.09944 -6.0062 0
M  V30 960 H 89.354 -1.13871 -5.61877 0
M  V30 961 H 87.751 -1.92728 -5.6831 0
M  V30 962 H 88.821 -2.23467 -4.30338 0
M  V30 963 N 90.1641 1.46063 -0.591896 0
M  V30 964 C 91.4131 2.01547 -0.0786637 0
M  V30 965 C 91.7261 1.46796 1.29268 0
M  V30 966 O 92.9321 1.94157 1.89777 0
M  V30 967 C 91.3881 3.59787 -0.0900024 0
M  V30 968 C 90.9961 4.23534 -1.46023 0
M  V30 969 C 92.7401 4.22895 0.368806 0
M  V30 970 C 90.6471 5.73881 -1.4288 0
M  V30 971 H 89.5771 0.753564 -0.0256388 0
M  V30 972 H 92.2281 1.677 -0.744905 0
M  V30 973 H 90.6101 3.90752 0.642586 0
M  V30 974 H 91.7841 4.04167 -2.21328 0
M  V30 975 H 90.0991 3.72558 -1.85982 0
M  V30 976 H 92.6961 5.33116 0.411258 0
M  V30 977 H 93.0391 3.9247 1.38827 0
M  V30 978 H 93.5721 3.9659 -0.31001 0
M  V30 979 H 90.3111 6.0898 -2.42536 0
M  V30 980 H 89.8311 5.95486 -0.718095 0
M  V30 981 H 91.5101 6.36776 -1.14565 0
M  V30 982 N 91.6422 0.330177 1.54103 0
M  V30 983 C 92.6052 -0.520144 2.2322 0
M  V30 984 C 93.6052 -1.03828 1.22786 0
M  V30 985 O 94.7952 -0.929652 1.4732 0
M  V30 986 C 91.9272 -1.72317 2.94142 0
M  V30 987 H 93.1202 0.0841605 2.99782 0
M  V30 988 H 90.6732 0.0813433 1.56088 0
M  V30 989 H 91.4082 -2.36653 2.21734 0
M  V30 990 H 91.1932 -1.35898 3.67796 0
M  V30 991 H 92.6832 -2.3266 3.46784 0
M  V30 992 N 93.1203 -1.57491 0.0584922 0
M  V30 993 C 94.0673 -2.11958 -0.913376 0
M  V30 994 C 95.0373 -1.02875 -1.30407 0
M  V30 995 O 96.2223 -1.30464 -1.39226 0
M  V30 996 C 93.3623 -2.67497 -2.18035 0
M  V30 997 C 92.4753 -3.90691 -1.84349 0
M  V30 998 C 91.6103 -4.3452 -3.05559 0
M  V30 999 C 90.6493 -5.50395 -2.67827 0
M  V30 1000 N 89.7863 -5.89244 -3.81754 0
M  V30 1001 H 94.6263 -2.94704 -0.442017 0
M  V30 1002 H 92.1633 -1.45643 -0.206545 0
M  V30 1003 H 94.1213 -2.978 -2.92183 0
M  V30 1004 H 92.7513 -1.87537 -2.62735 0
M  V30 1005 H 91.8033 -3.66934 -1.00319 0
M  V30 1006 H 93.1153 -4.7489 -1.5258 0
M  V30 1007 H 92.2693 -4.66414 -3.87998 0
M  V30 1008 H 91.0083 -3.49147 -3.40511 0
M  V30 1009 H 90.0133 -5.18165 -1.83806 0
M  V30 1010 H 91.2383 -6.3749 -2.34059 0
M  V30 1011 H 89.1843 -5.06823 -4.16493 0
M  V30 1012 H 89.1013 -6.68151 -3.53708 0
M  V30 1013 H 90.3693 -6.25756 -4.64811 0
M  V30 1014 N 94.5984 0.214957 -1.56127 0
M  V30 1015 C 95.5284 1.2695 -1.95974 0
M  V30 1016 C 96.5094 1.48539 -0.828868 0
M  V30 1017 O 97.6944 1.60611 -1.09168 0
M  V30 1018 C 94.8244 2.61794 -2.28214 0
M  V30 1019 C 93.7784 2.54851 -3.43853 0
M  V30 1020 C 93.1044 3.93785 -3.61715 0
M  V30 1021 C 94.4044 2.09065 -4.78632 0
M  V30 1022 H 96.0984 0.93846 -2.84312 0
M  V30 1023 H 93.6444 0.449996 -1.36788 0
M  V30 1024 H 95.5974 3.35731 -2.54682 0
M  V30 1025 H 94.3214 2.96599 -1.36736 0
M  V30 1026 H 92.9804 1.8337 -3.17444 0
M  V30 1027 H 92.6284 4.25908 -2.67602 0
M  V30 1028 H 92.3284 3.90019 -4.39498 0
M  V30 1029 H 93.8524 4.69374 -3.90539 0
M  V30 1030 H 95.2664 2.7275 -5.04262 0
M  V30 1031 H 93.6634 2.16346 -5.59745 0
M  V30 1032 H 94.7334 1.04315 -4.73547 0
M  V30 1033 N 96.0765 1.50051 0.48192 0
M  V30 1034 C 97.0235 1.68122 1.58125 0
M  V30 1035 C 97.9935 0.522545 1.57666 0
M  V30 1036 O 99.1785 0.751844 1.75362 0
M  V30 1037 C 96.3185 1.77142 2.96167 0
M  V30 1038 C 95.4315 3.0444 3.06497 0
M  V30 1039 C 94.5665 3.04321 4.35387 0
M  V30 1040 C 93.6055 4.26118 4.3942 0
M  V30 1041 N 92.7425 4.238 5.59766 0
M  V30 1042 H 97.5825 2.6198 1.42022 0
M  V30 1043 H 95.1195 1.29877 0.690687 0
M  V30 1044 H 97.0775 1.80352 3.76203 0
M  V30 1045 H 95.7075 0.867329 3.1093 0
M  V30 1046 H 94.7595 3.10752 2.19402 0
M  V30 1047 H 96.0715 3.94426 3.05336 0
M  V30 1048 H 95.2255 3.062 5.23762 0
M  V30 1049 H 93.9645 2.12147 4.39141 0
M  V30 1050 H 92.9695 4.24463 3.49444 0
M  V30 1051 H 94.1945 5.19507 4.37366 0
M  V30 1052 H 92.1405 3.34474 5.64326 0
M  V30 1053 H 92.0575 5.07542 5.60301 0
M  V30 1054 H 93.3255 4.2981 6.50295 0
M  V30 1055 N 97.5546 -0.734337 1.39446 0
M  V30 1056 C 98.4866 -1.85861 1.34121 0
M  V30 1057 C 99.4996 -1.60871 0.249864 0
M  V30 1058 O 100.689 -1.71093 0.508865 0
M  V30 1059 C 97.7886 -3.21899 1.05991 0
M  V30 1060 C 96.9616 -3.74239 2.26415 0
M  V30 1061 C 96.0206 -4.88841 1.94733 0
M  V30 1062 O 95.0466 -5.02468 2.67422 0
M  V30 1063 N 96.2486 -5.73261 0.913884 0
M  V30 1064 H 99.0136 -1.90934 2.31007 0
M  V30 1065 H 96.5746 -0.915102 1.33557 0
M  V30 1066 H 98.5666 -3.96136 0.828147 0
M  V30 1067 H 97.1366 -3.12091 0.178361 0
M  V30 1068 H 96.3566 -2.91347 2.65539 0
M  V30 1069 H 97.6446 -4.05942 3.06738 0
M  V30 1070 H 97.0426 -5.64842 0.311476 0
M  V30 1071 H 95.5996 -6.47563 0.742015 0
M  V30 1072 N 99.0327 -1.24633 -0.964593 0
M  V30 1073 C 100.282 -1.08188 -1.7023 0
M  V30 1074 C 100.595 0.37873 -1.91898 0
M  V30 1075 O 101.801 0.663427 -2.6327 0
M  V30 1076 C 100.257 -1.88773 -3.06419 0
M  V30 1077 C 99.8647 -3.39263 -2.92582 0
M  V30 1078 C 101.609 -1.80867 -3.84041 0
M  V30 1079 C 99.5157 -4.1218 -4.24101 0
M  V30 1080 H 98.4457 -0.401245 -0.638372 0
M  V30 1081 H 101.097 -1.48742 -1.07462 0
M  V30 1082 H 99.4787 -1.41035 -3.70034 0
M  V30 1083 H 100.653 -3.94603 -2.37961 0
M  V30 1084 H 98.9677 -3.48154 -2.28424 0
M  V30 1085 H 101.565 -2.32646 -4.81435 0
M  V30 1086 H 101.908 -0.774543 -4.09031 0
M  V30 1087 H 102.441 -2.26301 -3.27159 0
M  V30 1088 H 99.1797 -5.15965 -4.04303 0
M  V30 1089 H 98.6997 -3.61626 -4.78526 0
M  V30 1090 H 100.379 -4.19349 -4.92702 0
M  V30 1091 N 100.511 1.16574 -1.06058 0
M  V30 1092 C 101.458 2.20883 -0.669263 0
M  V30 1093 C 102.428 1.62729 0.332918 0
M  V30 1094 O 103.613 1.895 0.222346 0
M  V30 1095 C 100.753 3.45049 -0.0593572 0
M  V30 1096 C 99.8658 4.17458 -1.11143 0
M  V30 1097 C 99.0008 5.29135 -0.467916 0
M  V30 1098 C 98.0398 5.93343 -1.50369 0
M  V30 1099 N 97.1768 6.96516 -0.883706 0
M  V30 1100 H 102.017 2.53709 -1.5632 0
M  V30 1101 H 99.5538 1.24616 -0.781625 0
M  V30 1102 H 101.512 4.16033 0.311771 0
M  V30 1103 H 100.142 3.12781 0.797992 0
M  V30 1104 H 99.1938 3.45101 -1.60029 0
M  V30 1105 H 100.506 4.61307 -1.89731 0
M  V30 1106 H 99.6598 6.06684 -0.0436871 0
M  V30 1107 H 98.3988 4.86443 0.349864 0
M  V30 1108 H 97.4038 5.14517 -1.93784 0
M  V30 1109 H 98.6288 6.38114 -2.32352 0
M  V30 1110 H 96.5748 6.55943 -0.086595 0
M  V30 1111 H 96.4918 7.38723 -1.607 0
M  V30 1112 H 97.7598 7.77993 -0.484543 0
M  V30 1113 N 101.989 0.842826 1.3317 0
M  V30 1114 C 103.266 0.362216 1.92217 0
M  V30 1115 C 103.646 -1.15289 1.76838 0
M  V30 1116 O 102.994 -1.96914 1.15919 0
M  V30 1117 C 103.204 0.813495 3.39387 0
M  V30 1118 C 104.552 0.823804 4.16532 0
M  V30 1119 O 105.576 0.757358 3.48055 0
M  V30 1120 O 104.435 0.915193 5.38782 0
M  V30 1121 H 101.529 0.103317 0.820521 0
M  V30 1122 H 104.075 0.928942 1.42017 0
M  V30 1123 H 102.847 1.85624 3.4447 0
M  V30 1124 H 102.47 0.223561 3.96971 0
M  V30 1125 N 103.467 -1.45747 0.599634 0
M  V30 1126 C 104.878 -1.85853 0.177681 0
M  V30 1127 C 105.229 -1.50102 -1.26348 0
M  V30 1128 O 104.354 -0.923905 -1.95686 0
M  V30 1129 C 104.949 -3.37326 0.315688 0
M  V30 1130 C 103.508 -3.76365 -0.0515144 0
M  V30 1131 C 102.655 -2.69722 0.643822 0
M  V30 1132 H 105.606 -1.36661 0.806814 0
M  V30 1133 H 105.627 -3.77778 -0.454321 0
M  V30 1134 H 105.139 -3.63315 1.36468 0
M  V30 1135 H 103.24 -3.55993 -1.09999 0
M  V30 1136 H 103.353 -4.77916 0.336594 0
M  V30 1137 H 101.717 -2.54567 0.0822881 0
M  V30 1138 H 102.5 -2.98549 1.6948 0
M  V30 1139 N 104.945 -0.338344 -1.53925 0
M  V30 1140 C 106.191 0.260143 -2.01125 0
M  V30 1141 C 106.524 1.50617 -1.22589 0
M  V30 1142 O 105.799 1.91979 -0.312113 0
M  V30 1143 C 106.082 0.579499 -3.55407 0
M  V30 1144 C 105.935 -0.678264 -4.44657 0
M  V30 1145 C 107.254 1.39122 -4.17532 0
M  V30 1146 H 104.373 0.0930772 -0.731099 0
M  V30 1147 H 107.015 -0.457852 -1.84401 0
M  V30 1148 H 105.165 1.19118 -3.69788 0
M  V30 1149 H 106.837 -1.31631 -4.42121 0
M  V30 1150 H 105.08 -1.3042 -4.13731 0
M  V30 1151 H 105.751 -0.410143 -5.50474 0
M  V30 1152 H 108.227 0.874035 -4.06817 0
M  V30 1153 H 107.103 1.58342 -5.25565 0
M  V30 1154 H 107.364 2.39178 -3.71815 0
M  V30 1155 N 106.423 1.57458 -0.0668435 0
M  V30 1156 C 107.37 2.12439 0.902122 0
M  V30 1157 C 108.34 1.03565 1.2986 0
M  V30 1158 O 109.525 1.312 1.38532 0
M  V30 1159 C 106.665 2.6865 2.16614 0
M  V30 1160 C 105.778 3.91663 1.82274 0
M  V30 1161 C 104.913 4.36134 3.0325 0
M  V30 1162 C 103.952 5.51808 2.64904 0
M  V30 1163 N 103.089 5.9126 3.78624 0
M  V30 1164 H 107.929 2.94934 0.426382 0
M  V30 1165 H 105.466 1.4575 0.198819 0
M  V30 1166 H 107.424 2.99346 2.90599 0
M  V30 1167 H 106.054 1.88928 2.61737 0
M  V30 1168 H 105.106 3.6746 0.983719 0
M  V30 1169 H 106.418 4.75693 1.50059 0
M  V30 1170 H 105.572 4.68465 3.85519 0
M  V30 1171 H 104.311 3.50948 3.38655 0
M  V30 1172 H 103.316 5.19133 1.81055 0
M  V30 1173 H 104.541 6.38722 2.30675 0
M  V30 1174 H 102.487 5.09024 4.138 0
M  V30 1175 H 102.404 6.70018 3.5016 0
M  V30 1176 H 103.672 6.28212 4.61486 0
M  V30 1177 N 107.901 -0.206675 1.56239 0
M  V30 1178 C 108.831 -1.25909 1.96645 0
M  V30 1179 C 109.812 -1.48097 0.836734 0
M  V30 1180 O 110.997 -1.6003 1.10019 0
M  V30 1181 C 108.127 -2.6058 2.29599 0
M  V30 1182 C 107.081 -2.53024 3.452 0
M  V30 1183 C 106.407 -3.91861 3.63798 0
M  V30 1184 C 107.707 -2.06524 4.79734 0
M  V30 1185 H 109.401 -0.923369 2.84806 0
M  V30 1186 H 106.947 -0.442735 1.37025 0
M  V30 1187 H 108.9 -3.34375 2.56459 0
M  V30 1188 H 107.624 -2.95869 1.38307 0
M  V30 1189 H 106.283 -1.81684 3.18412 0
M  V30 1190 H 105.931 -4.24483 2.69857 0
M  V30 1191 H 105.631 -3.87683 4.4156 0
M  V30 1192 H 107.155 -4.67296 3.93022 0
M  V30 1193 H 108.569 -2.70072 5.05702 0
M  V30 1194 H 106.966 -2.13374 5.60885 0
M  V30 1195 H 108.036 -1.01802 4.74093 0
M  V30 1196 N 109.379 -1.50304 -0.473955 0
M  V30 1197 C 110.656 -1.51667 -1.23518 0
M  V30 1198 C 111.036 -0.259701 -2.09496 0
M  V30 1199 O 110.384 0.756986 -2.15597 0
M  V30 1200 C 110.594 -2.81082 -2.06868 0
M  V30 1201 C 111.942 -3.31631 -2.65153 0
M  V30 1202 O 112.966 -2.82384 -2.17113 0
M  V30 1203 O 111.825 -4.17471 -3.52675 0
M  V30 1204 H 108.919 -0.60822 -0.560355 0
M  V30 1205 H 111.465 -1.62592 -0.486011 0
M  V30 1206 H 110.237 -3.64041 -1.4349 0
M  V30 1207 H 109.86 -2.73146 -2.88924 0
M  V30 1208 N 110.857 0.726932 -1.39834 0
M  V30 1209 C 112.087 1.51393 -1.40583 0
M  V30 1210 C 112.495 1.892 -0.000740625 0
M  V30 1211 O 111.838 1.55189 0.982951 0
M  V30 1212 C 111.9 2.82588 -2.22226 0
M  V30 1213 C 111.564 2.67169 -3.70769 0
M  V30 1214 C 112.561 2.3518 -4.63666 0
M  V30 1215 C 110.246 2.83788 -4.14451 0
M  V30 1216 C 112.24 2.20002 -5.98229 0
M  V30 1217 C 109.927 2.68229 -5.49087 0
M  V30 1218 C 110.925 2.36382 -6.4079 0
M  V30 1219 O 110.613 2.2093 -7.72946 0
M  V30 1220 H 110.345 0.474168 -0.48181 0
M  V30 1221 H 112.899 0.905247 -1.84376 0
M  V30 1222 H 111.129 3.45746 -1.73195 0
M  V30 1223 H 112.818 3.44247 -2.15055 0
M  V30 1224 H 113.584 2.21984 -4.31217 0
M  V30 1225 H 109.463 3.07566 -3.43401 0
M  V30 1226 H 113.007 1.95067 -6.69772 0
M  V30 1227 H 108.904 2.81006 -5.81125 0
M  V30 1228 H 109.672 2.35937 -7.83757 0
M  V30 1229 N 112.336 1.25143 0.95797 0
M  V30 1230 C 113.266 1.07711 2.07173 0
M  V30 1231 C 114.247 -0.0128462 1.70095 0
M  V30 1232 O 115.432 0.156061 1.93572 0
M  V30 1233 C 112.562 0.691503 3.40346 0
M  V30 1234 C 111.516 1.73132 3.9142 0
M  V30 1235 C 110.842 1.20049 5.21049 0
M  V30 1236 C 112.142 3.1294 4.1817 0
M  V30 1237 H 113.836 2.00873 2.22014 0
M  V30 1238 H 111.382 0.967191 1.06684 0
M  V30 1239 H 113.335 0.556505 4.17709 0
M  V30 1240 H 112.059 -0.275819 3.25433 0
M  V30 1241 H 110.718 1.8547 3.16222 0
M  V30 1242 H 110.366 0.223499 5.02503 0
M  V30 1243 H 110.066 1.89545 5.56189 0
M  V30 1244 H 111.59 1.07782 6.01012 0
M  V30 1245 H 113.004 3.03775 4.86203 0
M  V30 1246 H 111.401 3.79875 4.64559 0
M  V30 1247 H 112.471 3.6025 3.24573 0
M  V30 1248 N 113.814 -1.1601 1.06675 0
M  V30 1249 C 115.06 -1.86909 0.786945 0
M  V30 1250 C 115.393 -1.81717 -0.685018 0
M  V30 1251 O 114.668 -1.23551 -1.50218 0
M  V30 1252 C 114.951 -3.36313 1.28707 0
M  V30 1253 C 114.804 -3.50175 2.82308 0
M  V30 1254 C 116.123 -4.3084 0.898071 0
M  V30 1255 H 113.242 -0.678677 0.287343 0
M  V30 1256 H 115.884 -1.36336 1.32334 0
M  V30 1257 H 114.034 -3.79513 0.830768 0
M  V30 1258 H 115.706 -3.15886 3.36175 0
M  V30 1259 H 113.949 -2.91959 3.20847 0
M  V30 1260 H 114.62 -4.55116 3.12368 0
M  V30 1261 H 117.096 -3.95561 1.29114 0
M  V30 1262 H 115.972 -5.33876 1.27543 0
M  V30 1263 H 116.233 -4.41662 -0.196651 0
M  V30 1264 N 115.292 -0.849877 -1.32721 0
M  V30 1265 C 116.538 -0.451591 -1.97708 0
M  V30 1266 C 116.871 0.989175 -1.6712 0
M  V30 1267 O 116.146 1.69334 -0.956891 0
M  V30 1268 C 116.429 -0.685598 -3.53513 0
M  V30 1269 C 116.282 -2.17444 -3.93749 0
M  V30 1270 C 117.601 -0.138874 -4.39881 0
M  V30 1271 H 114.72 -0.16555 -0.718166 0
M  V30 1272 H 117.362 -1.06742 -1.57182 0
M  V30 1273 H 115.512 -0.161416 -3.88165 0
M  V30 1274 H 117.184 -2.76433 -3.693 0
M  V30 1275 H 115.427 -2.65476 -3.43081 0
M  V30 1276 H 116.098 -2.28888 -5.02309 0
M  V30 1277 H 118.574 -0.587068 -4.11938 0
M  V30 1278 H 117.45 -0.332213 -5.47894 0
M  V30 1279 H 117.711 0.95806 -4.31594 0
M  V30 1280 N 116.77 1.45427 -0.607355 0
M  V30 1281 C 117.718 2.32269 0.12411 0
M  V30 1282 C 118.712 1.45955 0.859854 0
M  V30 1283 O 119.918 1.6244 0.775447 0
M  V30 1284 H 116.293 0.749691 0.0588839 0
M  V30 1285 H 118.264 2.91743 -0.626762 0
M  V30 1286 C 117.013 3.29567 1.1082 0
M  V30 1287 H 116.336 3.95978 0.551492 0
M  V30 1288 H 117.776 3.93061 1.58995 0
M  V30 1289 C 116.235 2.56722 2.18164 0
M  V30 1290 O 116.765 2.34842 3.25902 0
M  V30 1291 N 114.971 2.16861 1.93442 0
M  V30 1292 H 114.518 2.34855 1.05834 0
M  V30 1293 H 114.476 1.68444 2.65469 0
M  V30 1294 N 118.248 0.346503 1.53744 0
M  V30 1295 C 119.198 -0.524953 2.21874 0
M  V30 1296 C 120.182 -1.06376 1.20718 0
M  V30 1297 O 121.374 -0.996972 1.46251 0
M  V30 1298 C 118.503 -1.6739 2.99726 0
M  V30 1299 C 117.589 -1.14888 4.08242 0
M  V30 1300 N 117.98 -0.345329 5.0462 0
M  V30 1301 C 116.278 -1.4255 4.22606 0
M  V30 1302 C 116.979 -0.0600706 5.81669 0
M  V30 1303 N 115.955 -0.65252 5.39669 0
M  V30 1304 H 119.757 0.0960091 2.93743 0
M  V30 1305 H 117.271 0.15352 1.61673 0
M  V30 1306 H 119.268 -2.3102 3.47038 0
M  V30 1307 H 117.928 -2.29811 2.29384 0
M  V30 1308 H 118.939 0.0138439 5.17898 0
M  V30 1309 H 115.616 -2.05389 3.63486 0
M  V30 1310 H 117.006 0.588321 6.69319 0
M  V30 1311 N 119.726 -1.57421 0.075193 0
M  V30 1312 C 120.954 -1.97946 -0.602076 0
M  V30 1313 C 121.369 -0.953674 -1.62943 0
M  V30 1314 O 120.726 0.0592551 -1.82404 0
M  V30 1315 C 120.777 -3.38546 -1.26762 0
M  V30 1316 O 120.498 -4.37195 -0.281376 0
M  V30 1317 C 121.999 -3.93966 -2.03239 0
M  V30 1318 H 119.219 -0.650918 -0.162931 0
M  V30 1319 H 121.763 -2.03959 0.148601 0
M  V30 1320 H 119.918 -3.33609 -1.96936 0
M  V30 1321 H 120.332 -5.18975 -0.759267 0
M  V30 1322 H 121.806 -4.94555 -2.45193 0
M  V30 1323 H 122.283 -3.30693 -2.8903 0
M  V30 1324 H 122.889 -4.02315 -1.37924 0
M  V30 1325 N 121.204 0.198386 -1.56346 0
M  V30 1326 C 122.114 1.2664 -1.97483 0
M  V30 1327 C 123.13 1.49989 -0.882002 0
M  V30 1328 O 124.306 1.62668 -1.18748 0
M  V30 1329 C 121.371 2.59141 -2.30319 0
M  V30 1330 C 120.432 2.43892 -3.53292 0
M  V30 1331 C 119.665 3.70074 -3.84553 0
M  V30 1332 O 119.888 4.74101 -3.1715 0
M  V30 1333 O 118.822 3.658 -4.7799 0
M  V30 1334 H 122.648 0.947304 -2.88548 0
M  V30 1335 H 120.233 0.403123 -1.43859 0
M  V30 1336 H 122.115 3.37352 -2.5253 0
M  V30 1337 H 120.79 2.90684 -1.42423 0
M  V30 1338 H 119.697 1.63803 -3.36332 0
M  V30 1339 H 121.03 2.17282 -4.41644 0
M  V30 1340 N 122.682 1.50554 0.465978 0
M  V30 1341 C 123.907 1.65838 1.24549 0
M  V30 1342 C 124.332 0.343486 1.84937 0
M  V30 1343 O 123.69 -0.69324 1.67523 0
M  V30 1344 C 123.738 2.75533 2.32624 0
M  V30 1345 O 122.842 2.37142 3.37398 0
M  V30 1346 H 122.183 0.553893 0.366194 0
M  V30 1347 H 124.713 1.96959 0.553927 0
M  V30 1348 H 124.723 2.98763 2.77857 0
M  V30 1349 H 123.398 3.70962 1.88043 0
M  V30 1350 H 121.975 2.24377 2.97841 0
M  V30 1351 N 124.16 -0.719506 1.40217 0
M  V30 1352 C 125.437 -1.47221 1.28784 0
M  V30 1353 C 125.817 -2.10883 -0.0956067 0
M  V30 1354 O 125.165 -1.99833 -1.10811 0
M  V30 1355 C 125.375 -2.5111 2.42373 0
M  V30 1356 C 126.723 -3.17053 2.82423 0
M  V30 1357 O 127.747 -2.61429 2.41937 0
M  V30 1358 O 126.606 -4.17742 3.52355 0
M  V30 1359 H 123.7 -0.654491 0.50554 0
M  V30 1360 H 126.246 -0.752014 1.52128 0
M  V30 1361 H 125.018 -2.02556 3.34793 0
M  V30 1362 H 124.641 -3.3067 2.20778 0
M  V30 1363 N 125.638 -1.25649 -0.95132 0
M  V30 1364 C 126.588 -1.03004 -2.03406 0
M  V30 1365 C 127.572 0.034187 -1.60864 0
M  V30 1366 O 128.764 -0.181549 -1.76066 0
M  V30 1367 C 125.893 -0.654255 -3.37008 0
M  V30 1368 C 124.979 -1.75542 -3.86065 0
M  V30 1369 N 125.37 -2.99113 -4.07879 0
M  V30 1370 C 123.668 -1.63669 -4.14884 0
M  V30 1371 C 124.369 -3.70611 -4.48356 0
M  V30 1372 N 123.345 -2.98247 -4.54477 0
M  V30 1373 H 127.147 -1.96813 -2.1827 0
M  V30 1374 H 124.661 -1.16017 -1.13639 0
M  V30 1375 H 126.658 -0.473206 -4.14206 0
M  V30 1376 H 125.318 0.276468 -3.23521 0
M  V30 1377 H 126.329 -3.35124 -3.94857 0
M  V30 1378 H 123.006 -0.775161 -4.10241 0
M  V30 1379 H 124.396 -4.76695 -4.73509 0
M  V30 1380 N 127.117 1.15442 -1.07289 0
M  V30 1381 C 128.08 2.18358 -0.696591 0
M  V30 1382 C 129.08 1.58637 0.262837 0
M  V30 1383 O 130.27 1.74145 0.0438809 0
M  V30 1384 C 127.402 3.4089 -0.0266151 0
M  V30 1385 H 128.595 2.53162 -1.60776 0
M  V30 1386 H 126.148 1.29893 -0.869342 0
M  V30 1387 H 126.883 3.11653 0.896822 0
M  V30 1388 H 126.668 3.85495 -0.716657 0
M  V30 1389 H 128.158 4.17009 0.222028 0
M  V30 1390 N 128.595 0.856903 1.32268 0
M  V30 1391 C 129.843 0.460474 1.96784 0
M  V30 1392 C 130.164 -0.987701 1.68135 0
M  V30 1393 O 129.434 -1.69058 0.989765 0
M  V30 1394 H 128.014 0.167289 0.728027 0
M  V30 1395 H 130.676 1.09383 1.61312 0
M  V30 1396 H 129.772 0.60739 3.06133 0
M  V30 1397 N 130.073 -1.45103 0.615059 0
M  V30 1398 C 131.036 -2.29025 -0.0895485 0
M  V30 1399 C 132.036 -1.40174 -0.787906 0
M  V30 1400 O 133.226 -1.62217 -0.634933 0
M  V30 1401 C 130.358 -3.21376 -1.13711 0
M  V30 1402 H 131.551 -2.92807 0.648382 0
M  V30 1403 H 129.104 -1.51749 0.374444 0
M  V30 1404 H 129.839 -2.6241 -1.90556 0
M  V30 1405 H 129.624 -3.86834 -0.640475 0
M  V30 1406 H 131.114 -3.84459 -1.63036 0
M  V30 1407 N 131.551 -0.354651 -1.53558 0
M  V30 1408 C 132.798 0.238443 -2.01091 0
M  V30 1409 C 133.126 1.49663 -1.24222 0
M  V30 1410 O 132.381 1.93049 -0.321003 0
M  V30 1411 C 132.68 0.587121 -3.52545 0
M  V30 1412 C 132.346 -0.575472 -4.47213 0
M  V30 1413 C 131.008 -0.894497 -4.72813 0
M  V30 1414 C 133.36 -1.35489 -5.03281 0
M  V30 1415 C 130.688 -1.99511 -5.51736 0
M  V30 1416 C 133.04 -2.44583 -5.83405 0
M  V30 1417 C 131.704 -2.77033 -6.07296 0
M  V30 1418 H 130.974 0.0872526 -0.735845 0
M  V30 1419 H 133.621 -0.484859 -1.8526 0
M  V30 1420 H 131.926 1.39129 -3.66265 0
M  V30 1421 H 133.623 1.05809 -3.86789 0
M  V30 1422 H 130.213 -0.316774 -4.27428 0
M  V30 1423 H 134.397 -1.12167 -4.83459 0
M  V30 1424 H 129.653 -2.25063 -5.68469 0
M  V30 1425 H 133.827 -3.05401 -6.25862 0
M  V30 1426 H 131.454 -3.6244 -6.68237 0
M  V30 1427 N 133.029 1.57378 -0.0835403 0
M  V30 1428 C 134.44 1.81261 0.447358 0
M  V30 1429 C 134.791 0.998331 1.68902 0
M  V30 1430 O 133.916 0.224282 2.15235 0
M  V30 1431 C 134.511 3.28767 0.818386 0
M  V30 1432 C 133.07 3.53455 1.29409 0
M  V30 1433 C 132.217 2.75831 0.285024 0
M  V30 1434 H 135.168 1.5566 -0.309115 0
M  V30 1435 H 135.189 3.41459 1.67887 0
M  V30 1436 H 134.701 3.88006 -0.0855019 0
M  V30 1437 H 132.802 2.99534 2.21608 0
M  V30 1438 H 132.915 4.62128 1.2639 0
M  V30 1439 H 131.279 2.42947 0.764767 0
M  V30 1440 H 132.062 3.37813 -0.611341 0
M  V30 1441 N 134.507 -0.190092 1.56449 0
M  V30 1442 C 135.47 -1.21925 1.9408 0
M  V30 1443 C 136.47 -1.38176 0.822431 0
M  V30 1444 O 137.66 -1.35903 1.08977 0
M  V30 1445 C 134.792 -2.58773 2.21922 0
M  V30 1446 H 135.985 -0.897464 2.86157 0
M  V30 1447 H 133.538 -0.43181 1.50217 0
M  V30 1448 H 134.273 -2.95998 1.32499 0
M  V30 1449 H 134.058 -2.48348 3.03424 0
M  V30 1450 H 135.548 -3.32978 2.52022 0
M  V30 1451 N 135.985 -1.50799 -0.457987 0
M  V30 1452 C 137.234 -1.6168 -1.20593 0
M  V30 1453 C 137.547 -0.32888 -1.92815 0
M  V30 1454 O 138.753 -0.316773 -2.69646 0
M  V30 1455 C 137.209 -2.8545 -2.19195 0
M  V30 1456 C 136.817 -4.21168 -1.52715 0
M  V30 1457 C 138.561 -3.05681 -2.94549 0
M  V30 1458 C 136.468 -5.3611 -2.4968 0
M  V30 1459 H 135.398 -0.602134 -0.453818 0
M  V30 1460 H 138.049 -1.77245 -0.475031 0
M  V30 1461 H 136.431 -2.63472 -2.95632 0
M  V30 1462 H 137.605 -4.53449 -0.819775 0
M  V30 1463 H 135.92 -4.06648 -0.895922 0
M  V30 1464 H 138.517 -3.88727 -3.67145 0
M  V30 1465 H 138.86 -2.17929 -3.54701 0
M  V30 1466 H 139.393 -3.27901 -2.25223 0
M  V30 1467 H 136.132 -6.26057 -1.94249 0
M  V30 1468 H 135.652 -5.0823 -3.18532 0
M  V30 1469 H 137.331 -5.6722 -3.11241 0
M  V30 1470 N 137.463 0.71206 -1.40597 0
M  V30 1471 C 138.396 1.83582 -1.35546 0
M  V30 1472 C 139.374 1.61032 -0.225284 0
M  V30 1473 O 140.558 1.83998 -0.409519 0
M  V30 1474 C 137.685 3.19983 -1.11034 0
M  V30 1475 C 136.731 3.61355 -2.2655 0
M  V30 1476 S 137.564 3.68062 -3.88961 0
M  V30 1477 C 138.72 5.07216 -3.66719 0
M  V30 1478 H 138.953 1.87586 -2.30648 0
M  V30 1479 H 136.486 0.879182 -1.26924 0
M  V30 1480 H 138.444 3.98734 -0.975761 0
M  V30 1481 H 137.105 3.13608 -0.175798 0
M  V30 1482 H 136.298 4.60403 -2.0505 0
M  V30 1483 H 135.9 2.8987 -2.36329 0
M  V30 1484 H 138.192 5.94238 -3.25404 0
M  V30 1485 H 139.135 5.33753 -4.6531 0
M  V30 1486 H 139.543 4.77976 -3.00332 0
M  V30 1487 N 138.941 1.26152 0.944643 0
M  V30 1488 C 139.851 1.09176 2.07648 0
M  V30 1489 C 140.867 0.0261935 1.7398 0
M  V30 1490 O 142.043 0.229208 2.00091 0
M  V30 1491 C 139.108 0.722915 3.39079 0
M  V30 1492 C 138.169 1.86752 3.86552 0
M  V30 1493 C 137.402 1.51617 5.11711 0
M  V30 1494 O 137.625 0.416331 5.68879 0
M  V30 1495 O 136.559 2.34975 5.54139 0
M  V30 1496 H 140.385 2.0412 2.24875 0
M  V30 1497 H 137.97 1.05182 1.061 0
M  V30 1498 H 139.852 0.529787 4.18056 0
M  V30 1499 H 138.527 -0.197159 3.23099 0
M  V30 1500 H 137.434 2.11558 3.08535 0
M  V30 1501 H 138.767 2.76719 4.07047 0
M  V30 1502 N 140.419 -1.14872 1.07899 0
M  V30 1503 C 141.349 -2.2193 0.725887 0
M  V30 1504 C 142.33 -1.67622 -0.28927 0
M  V30 1505 O 143.515 -1.93533 -0.160787 0
M  V30 1506 C 140.645 -3.47061 0.128856 0
M  V30 1507 C 139.599 -4.14363 1.07178 0
M  V30 1508 C 138.925 -5.33636 0.337229 0
M  V30 1509 C 140.225 -4.63492 2.40775 0
M  V30 1510 H 141.919 -2.51724 1.62097 0
M  V30 1511 H 139.465 -1.20991 0.780838 0
M  V30 1512 H 141.418 -4.21199 -0.130147 0
M  V30 1513 H 140.142 -3.16617 -0.80134 0
M  V30 1514 H 138.801 -3.42173 1.3158 0
M  V30 1515 H 138.449 -4.99449 -0.596606 0
M  V30 1516 H 138.149 -5.79609 0.965788 0
M  V30 1517 H 139.673 -6.10539 0.0861567 0
M  V30 1518 H 141.087 -5.2913 2.20669 0
M  V30 1519 H 139.484 -5.20148 2.99276 0
M  V30 1520 H 140.554 -3.78834 3.02676 0
M  V30 1521 N 141.898 -0.863906 -1.31812 0
M  V30 1522 C 143.138 -0.47825 -1.98726 0
M  V30 1523 C 143.502 0.950397 -1.66828 0
M  V30 1524 O 144.703 1.44109 -2.26905 0
M  V30 1525 C 142.974 -0.721134 -3.50049 0
M  V30 1526 S 144.533 -0.434432 -4.36644 0
M  V30 1527 H 141.351 -0.178773 -0.688158 0
M  V30 1528 H 143.953 -1.11862 -1.60334 0
M  V30 1529 H 142.657 -1.75981 -3.70755 0
M  V30 1530 H 142.188 -0.0675315 -3.93342 0
M  V30 1531 H 144.203 0.735786 -4.90714 0
M  V30 1532 N 143.376 1.44774 -0.622745 0
M  V30 1533 C 144.787 1.85546 -0.207226 0
M  V30 1534 C 145.138 1.52093 1.23944 0
M  V30 1535 O 144.263 0.95492 1.94191 0
M  V30 1536 C 144.858 3.36781 -0.369313 0
M  V30 1537 C 143.417 3.76399 -0.00836847 0
M  V30 1538 C 142.564 2.68664 -0.686651 0
M  V30 1539 H 145.515 1.3536 -0.828454 0
M  V30 1540 H 145.536 3.78453 0.394162 0
M  V30 1541 H 145.048 3.61098 -1.42231 0
M  V30 1542 H 143.149 3.57698 1.04322 0
M  V30 1543 H 143.262 4.7732 -0.412584 0
M  V30 1544 H 141.626 2.54404 -0.122777 0
M  V30 1545 H 142.409 2.95815 -1.74208 0
M  V30 1546 N 144.854 0.36279 1.53368 0
M  V30 1547 C 146.131 -0.284021 1.93527 0
M  V30 1548 C 146.511 -1.66628 1.29608 0
M  V30 1549 O 145.859 -2.23942 0.45413 0
M  V30 1550 C 146.069 -0.337028 3.47369 0
M  V30 1551 C 147.417 -0.578708 4.20638 0
M  V30 1552 O 148.441 -0.418352 3.53735 0
M  V30 1553 O 147.3 -0.89074 5.39192 0
M  V30 1554 H 144.394 -0.169743 0.809393 0
M  V30 1555 H 146.94 0.41537 1.64538 0
M  V30 1556 H 145.712 0.632217 3.86159 0
M  V30 1557 H 145.335 -1.08243 3.82582 0
M  V30 1558 N 146.332 -1.57332 0.0918853 0
M  V30 1559 C 147.295 -2.12708 -0.85369 0
M  V30 1560 C 148.295 -1.05561 -1.213 0
M  V30 1561 O 149.485 -1.31461 -1.14296 0
M  V30 1562 C 146.617 -2.64503 -2.15061 0
M  V30 1563 H 147.81 -2.97573 -0.3729 0
M  V30 1564 H 145.363 -1.55509 -0.157072 0
M  V30 1565 H 146.098 -1.83149 -2.67632 0
M  V30 1566 H 145.883 -3.4284 -1.90272 0
M  V30 1567 H 147.373 -3.07351 -2.82711 0
M  V30 1568 N 147.81 0.181792 -1.56548 0
M  V30 1569 C 148.76 1.22961 -1.92002 0
M  V30 1570 C 149.744 1.40331 -0.787146 0
M  V30 1571 O 150.936 1.42478 -1.05019 0
M  V30 1572 C 148.065 2.57144 -2.27446 0
M  V30 1573 C 147.151 2.43512 -3.47222 0
M  V30 1574 N 147.542 1.99577 -4.64761 0
M  V30 1575 C 145.84 2.74368 -3.51622 0
M  V30 1576 C 146.541 1.98156 -5.46909 0
M  V30 1577 N 145.517 2.40164 -4.8767 0
M  V30 1578 H 149.319 0.881462 -2.8037 0
M  V30 1579 H 146.833 0.390141 -1.57644 0
M  V30 1580 H 148.83 3.32847 -2.51035 0
M  V30 1581 H 147.49 2.92771 -1.40411 0
M  V30 1582 H 148.501 1.70078 -4.89177 0
M  V30 1583 H 145.178 3.14102 -2.75038 0
M  V30 1584 H 146.568 1.65975 -6.51077 0
M  V30 1585 N 149.288 1.51039 0.449983 0
M  V30 1586 C 150.534 1.63322 1.20223 0
M  V30 1587 C 150.867 0.34241 1.91158 0
M  V30 1588 O 150.142 -0.657344 1.83055 0
M  V30 1589 C 150.425 2.82801 2.22925 0
M  V30 1590 C 150.278 4.21823 1.56157 0
M  V30 1591 C 151.597 2.97807 3.24035 0
M  V30 1592 H 148.716 0.594407 0.435718 0
M  V30 1593 H 151.358 1.83489 0.493136 0
M  V30 1594 H 149.508 2.65738 2.834 0
M  V30 1595 H 151.18 4.50526 0.991162 0
M  V30 1596 H 149.423 4.25105 0.864172 0
M  V30 1597 H 150.094 5.01391 2.30891 0
M  V30 1598 H 152.57 3.13497 2.73603 0
M  V30 1599 H 151.446 3.82992 3.93202 0
M  V30 1600 H 151.707 2.09328 3.89402 0
M  V30 1601 N 150.766 -0.704594 1.40972 0
M  V30 1602 C 151.696 -1.83124 1.44872 0
M  V30 1603 C 152.677 -1.67281 0.30838 0
M  V30 1604 O 153.862 -1.87149 0.518556 0
M  V30 1605 C 150.992 -3.21181 1.32136 0
M  V30 1606 C 149.946 -3.51714 2.43888 0
M  V30 1607 C 149.272 -4.89032 2.16222 0
M  V30 1608 C 150.572 -3.516 3.86232 0
M  V30 1609 H 152.266 -1.80117 2.39161 0
M  V30 1610 H 149.812 -0.865145 1.15114 0
M  V30 1611 H 151.765 -3.99702 1.33479 0
M  V30 1612 H 150.489 -3.24791 0.343279 0
M  V30 1613 H 149.148 -2.75539 2.41813 0
M  V30 1614 H 148.796 -4.89256 1.16778 0
M  V30 1615 H 148.496 -5.10426 2.911 0
M  V30 1616 H 150.02 -5.69873 2.19265 0
M  V30 1617 H 151.434 -4.2014 3.9007 0
M  V30 1618 H 149.831 -3.84523 4.60719 0
M  V30 1619 H 150.901 -2.50757 4.15029 0
M  V30 1620 N 152.244 -1.26651 -0.937939 0
M  V30 1621 C 153.484 -1.13611 -1.69917 0
M  V30 1622 C 153.848 0.314687 -1.89404 0
M  V30 1623 O 155.049 0.567285 -2.62746 0
M  V30 1624 C 153.32 -1.88742 -3.03498 0
M  V30 1625 S 154.879 -1.91794 -3.94665 0
M  V30 1626 H 151.697 -0.405767 -0.583844 0
M  V30 1627 H 154.299 -1.60416 -1.11745 0
M  V30 1628 H 153.003 -2.9336 -2.86999 0
M  V30 1629 H 152.534 -1.42391 -3.66727 0
M  V30 1630 H 154.549 -1.00698 -4.85875 0
M  V30 1631 N 153.722 1.14298 -1.08507 0
M  V30 1632 C 154.95 1.89219 -0.836876 0
M  V30 1633 C 155.365 1.78638 0.611054 0
M  V30 1634 O 154.722 1.14643 1.41998 0
M  V30 1635 C 154.773 3.39158 -1.25116 0
M  V30 1636 O 154.494 3.49449 -2.64229 0
M  V30 1637 C 155.995 4.31073 -1.03398 0
M  V30 1638 H 153.215 0.599328 -0.301739 0
M  V30 1639 H 155.759 1.44746 -1.44461 0
M  V30 1640 H 153.914 3.81251 -0.687514 0
M  V30 1641 H 154.328 4.42589 -2.81452 0
M  V30 1642 H 155.802 5.34646 -1.37323 0
M  V30 1643 H 156.279 4.3919 0.0289259 0
M  V30 1644 H 156.885 3.94738 -1.58311 0
M  V30 1645 N 155.201 0.870884 1.31352 0
M  V30 1646 C 156.133 0.28455 2.27427 0
M  V30 1647 C 157.146 -0.552927 1.53123 0
M  V30 1648 O 158.335 -0.374771 1.74521 0
M  V30 1649 C 155.435 -0.615164 3.3327 0
M  V30 1650 C 154.608 0.190079 4.36987 0
M  V30 1651 C 153.667 -0.637917 5.22319 0
M  V30 1652 O 152.693 -0.065626 5.69162 0
M  V30 1653 N 153.895 -1.94973 5.46778 0
M  V30 1654 H 156.66 1.11017 2.7838 0
M  V30 1655 H 154.221 0.732458 1.44384 0
M  V30 1656 H 156.213 -1.1748 3.87273 0
M  V30 1657 H 154.783 -1.34146 2.82354 0
M  V30 1658 H 154.003 0.931165 3.83044 0
M  V30 1659 H 155.291 0.742579 5.03352 0
M  V30 1660 H 154.689 -2.4378 5.10478 0
M  V30 1661 H 153.246 -2.45713 6.03712 0
M  V30 1662 N 156.679 -1.44442 0.630414 0
M  V30 1663 C 158.095 -1.56832 0.295973 0
M  V30 1664 C 158.295 -1.61806 -1.20088 0
M  V30 1665 O 157.351 -1.5607 -1.9849 0
M  V30 1666 C 158.664 -2.84031 0.987264 0
M  V30 1667 C 160.212 -2.97742 0.96534 0
M  V30 1668 C 160.687 -4.27743 1.63708 0
M  V30 1669 N 162.178 -4.34555 1.60364 0
M  V30 1670 C 162.913 -5.33862 2.09234 0
M  V30 1671 N 162.409 -6.39578 2.66292 0
M  V30 1672 N 164.202 -5.25366 1.99867 0
M  V30 1673 H 156.353 -1.39457 1.60205 0
M  V30 1674 H 158.616 -0.668237 0.672431 0
M  V30 1675 H 158.322 -2.86338 2.04215 0
M  V30 1676 H 158.196 -3.73534 0.524588 0
M  V30 1677 H 160.583 -2.94989 -0.0810639 0
M  V30 1678 H 160.664 -2.09589 1.4665 0
M  V30 1679 H 160.308 -4.31255 2.68293 0
M  V30 1680 H 160.238 -5.14752 1.11076 0
M  V30 1681 H 162.729 -3.58772 1.18705 0
M  V30 1682 H 163.042 -7.11637 3.01317 0
M  V30 1683 H 161.387 -6.40265 2.70343 0
M  V30 1684 H 164.578 -4.41688 1.55013 0
M  V30 1685 H 164.751 -6.02606 2.38265 0
M  V30 1686 N 158.157 -0.370918 -1.53173 0
M  V30 1687 C 159.12 0.460778 -2.24521 0
M  V30 1688 C 160.12 1.00536 -1.25496 0
M  V30 1689 O 161.31 0.890266 -1.49733 0
M  V30 1690 C 158.442 1.64457 -2.98608 0
M  V30 1691 H 159.635 -0.163613 -2.99453 0
M  V30 1692 H 157.188 -0.122699 -1.55818 0
M  V30 1693 H 157.923 2.30691 -2.2793 0
M  V30 1694 H 157.708 1.26099 -3.7127 0
M  V30 1695 H 159.198 2.23384 -3.5283 0
M  V30 1696 N 159.635 1.57281 -0.100228 0
M  V30 1697 C 160.882 1.94537 0.562268 0
M  V30 1698 C 161.21 0.982315 1.67871 0
M  V30 1699 O 160.465 0.00280936 1.957 0
M  V30 1700 C 160.764 3.38305 1.15259 0
M  V30 1701 C 160.43 4.50618 0.159409 0
M  V30 1702 C 159.092 4.81066 -0.113741 0
M  V30 1703 C 161.444 5.18615 -0.518461 0
M  V30 1704 C 158.772 5.76835 -1.07137 0
M  V30 1705 C 161.124 6.15412 -1.46459 0
M  V30 1706 C 159.788 6.44262 -1.74592 0
M  V30 1707 H 159.058 0.711863 0.205748 0
M  V30 1708 H 161.705 1.90679 -0.17715 0
M  V30 1709 H 160.01 3.38766 1.96836 0
M  V30 1710 H 161.707 3.64435 1.67297 0
M  V30 1711 H 158.297 4.2689 0.382491 0
M  V30 1712 H 162.481 4.95264 -0.320581 0
M  V30 1713 H 157.737 5.975 -1.29628 0
M  V30 1714 H 161.911 6.67194 -1.99564 0
M  V30 1715 H 159.538 7.1828 -2.48953 0
M  V30 1716 N 161.113 -0.173488 1.56642 0
M  V30 1717 C 162.39 -0.917617 1.7274 0
M  V30 1718 C 162.77 -2.00484 0.661027 0
M  V30 1719 O 162.118 -2.26184 -0.32453 0
M  V30 1720 C 162.328 -1.48433 3.15862 0
M  V30 1721 C 163.676 -1.95809 3.76754 0
M  V30 1722 O 164.7 -1.58231 3.19126 0
M  V30 1723 O 163.559 -2.65024 4.77938 0
M  V30 1724 H 160.653 -0.431772 0.705338 0
M  V30 1725 H 163.199 -0.161487 1.6893 0
M  V30 1726 H 161.971 -0.701715 3.84957 0
M  V30 1727 H 161.594 -2.30471 3.23989 0
M  V30 1728 N 162.591 -1.51276 -0.441967 0
M  V30 1729 C 163.816 -1.67799 -1.21895 0
M  V30 1730 C 164.241 -0.372864 -1.84367 0
M  V30 1731 O 163.599 0.666501 -1.68604 0
M  V30 1732 C 163.647 -2.79199 -2.28211 0
M  V30 1733 O 162.751 -2.42479 -3.33583 0
M  V30 1734 H 162.092 -0.559649 -0.357336 0
M  V30 1735 H 164.622 -1.97815 -0.522522 0
M  V30 1736 H 164.632 -3.03146 -2.73069 0
M  V30 1737 H 163.307 -3.73906 -1.82118 0
M  V30 1738 H 161.884 -2.29087 -2.94234 0
M  V30 1739 N 164.069 0.697108 -1.41344 0
M  V30 1740 C 164.999 1.82353 -1.45841 0
M  V30 1741 C 165.98 1.67115 -0.317247 0
M  V30 1742 O 167.165 1.86871 -0.528474 0
M  V30 1743 C 164.295 3.20476 -1.33838 0
M  V30 1744 C 163.249 3.50415 -2.4575 0
M  V30 1745 C 162.575 4.87878 -2.18813 0
M  V30 1746 C 163.875 3.49546 -3.88091 0
M  V30 1747 H 165.569 1.78846 -2.40113 0
M  V30 1748 H 163.115 0.859028 -1.15571 0
M  V30 1749 H 165.068 3.98988 -1.35596 0
M  V30 1750 H 163.792 3.24604 -0.360498 0
M  V30 1751 H 162.451 2.74253 -2.43271 0
M  V30 1752 H 162.099 4.8863 -1.19371 0
M  V30 1753 H 161.799 5.08875 -2.93803 0
M  V30 1754 H 163.323 5.68702 -2.22284 0
M  V30 1755 H 164.737 4.18066 -3.92293 0
M  V30 1756 H 163.134 3.82075 -4.62751 0
M  V30 1757 H 164.204 2.48552 -4.16353 0
M  V30 1758 N 165.547 1.27147 0.931209 0
M  V30 1759 C 166.494 1.09568 2.03134 0
M  V30 1760 C 167.464 -0.00222433 1.661 0
M  V30 1761 O 168.649 0.159439 1.90133 0
M  V30 1762 C 165.789 0.745231 3.36957 0
M  V30 1763 C 164.902 1.92041 3.86968 0
M  V30 1764 C 164.037 1.51216 5.09222 0
M  V30 1765 C 163.076 2.65504 5.5152 0
M  V30 1766 N 162.213 2.25291 6.64972 0
M  V30 1767 H 167.053 2.03708 2.17502 0
M  V30 1768 H 164.59 1.01411 1.06556 0
M  V30 1769 H 166.548 0.522878 4.1391 0
M  V30 1770 H 165.178 -0.159202 3.22407 0
M  V30 1771 H 164.23 2.25541 3.06326 0
M  V30 1772 H 165.542 2.77787 4.1429 0
M  V30 1773 H 164.696 1.25084 5.93666 0
M  V30 1774 H 163.435 0.625749 4.83669 0
M  V30 1775 H 162.44 2.92354 4.65628 0
M  V30 1776 H 163.665 3.54761 5.7907 0
M  V30 1777 H 161.611 1.39098 6.41083 0
M  V30 1778 H 161.528 3.04577 6.91931 0
M  V30 1779 H 162.796 2.02398 7.52765 0
M  V30 1780 N 167.025 -1.13721 1.09112 0
M  V30 1781 C 167.988 -2.17222 0.731241 0
M  V30 1782 C 168.988 -1.59035 -0.237566 0
M  V30 1783 O 170.178 -1.74192 -0.0161704 0
M  V30 1784 C 167.31 -3.40804 0.0808443 0
M  V30 1785 H 168.503 -2.50573 1.64783 0
M  V30 1786 H 166.056 -1.28493 0.889897 0
M  V30 1787 H 166.791 -3.1304 -0.847127 0
M  V30 1788 H 166.576 -3.84306 0.777896 0
M  V30 1789 H 168.066 -4.1731 -0.155657 0
M  V30 1790 N 168.503 -0.877838 -1.30888 0
M  V30 1791 C 169.453 -0.310872 -2.25871 0
M  V30 1792 C 170.437 0.556596 -1.50966 0
M  V30 1793 O 171.629 0.402187 -1.7237 0
M  V30 1794 C 168.758 0.479821 -3.3993 0
M  V30 1795 C 167.844 -0.401333 -4.22197 0
M  V30 1796 N 168.235 -1.49848 -4.83093 0
M  V30 1797 C 166.533 -0.195167 -4.45573 0
M  V30 1798 C 167.234 -2.0425 -5.44662 0
M  V30 1799 N 166.21 -1.33843 -5.26865 0
M  V30 1800 H 170.012 -1.1493 -2.70496 0
M  V30 1801 H 167.526 -0.726458 -1.45246 0
M  V30 1802 H 169.523 0.902582 -4.07012 0
M  V30 1803 H 168.183 1.31577 -2.96846 0
M  V30 1804 H 169.194 -1.88137 -4.82519 0
M  V30 1805 H 165.871 0.604192 -4.13105 0
M  V30 1806 H 167.261 -2.96345 -6.03017 0
M  V30 1807 N 169.982 1.44106 -0.638065 0
M  V30 1808 C 171.212 2.06037 -0.152394 0
M  V30 1809 C 171.62 1.47808 1.18108 0
M  V30 1810 O 170.963 0.598092 1.73691 0
M  V30 1811 C 171.025 3.59488 0.0293714 0
M  V30 1812 C 170.689 4.4022 -1.22702 0
M  V30 1813 C 171.686 4.73256 -2.15232 0
M  V30 1814 C 169.371 4.8048 -1.46437 0
M  V30 1815 C 171.365 5.45444 -3.29802 0
M  V30 1816 C 169.052 5.52417 -2.61303 0
M  V30 1817 C 170.05 5.84819 -3.52811 0
M  V30 1818 O 169.738 6.55289 -4.65673 0
M  V30 1819 H 169.47 0.671233 -0.0801401 0
M  V30 1820 H 172.024 1.85851 -0.874563 0
M  V30 1821 H 170.254 3.78191 0.806758 0
M  V30 1822 H 171.943 4.03164 0.470475 0
M  V30 1823 H 172.709 4.42684 -1.98131 0
M  V30 1824 H 168.588 4.54676 -0.760977 0
M  V30 1825 H 172.132 5.70653 -4.01249 0
M  V30 1826 H 168.029 5.82404 -2.78344 0
M  V30 1827 H 168.797 6.73762 -4.64744 0
M  V30 1828 N 171.46 0.379036 1.52974 0
M  V30 1829 C 172.685 -0.209353 2.06341 0
M  V30 1830 C 173.11 -1.40583 1.24972 0
M  V30 1831 O 172.468 -1.79246 0.272155 0
M  V30 1832 C 172.516 -0.567786 3.56102 0
M  V30 1833 O 171.62 -1.66318 3.77375 0
M  V30 1834 H 170.961 -0.0272919 0.663439 0
M  V30 1835 H 173.491 0.543536 1.97248 0
M  V30 1836 H 173.501 -0.835003 3.99364 0
M  V30 1837 H 172.176 0.307013 4.14765 0
M  V30 1838 H 170.753 -1.39048 3.46006 0
M  V30 1839 N 172.938 -1.57226 0.108567 0
M  V30 1840 C 173.888 -2.11305 -0.856396 0
M  V30 1841 C 174.872 -1.03129 -1.23504 0
M  V30 1842 O 176.064 -1.29381 -1.20787 0
M  V30 1843 C 173.193 -2.70771 -2.11041 0
M  V30 1844 C 172.279 -3.86011 -1.7566 0
M  V30 1845 N 172.67 -4.93492 -1.10902 0
M  V30 1846 C 170.968 -3.95999 -2.05185 0
M  V30 1847 C 171.669 -5.73984 -0.944308 0
M  V30 1848 N 170.645 -5.2346 -1.46596 0
M  V30 1849 H 174.447 -2.91784 -0.352002 0
M  V30 1850 H 171.961 -1.62126 -0.0942324 0
M  V30 1851 H 173.958 -3.07851 -2.81128 0
M  V30 1852 H 172.618 -1.91751 -2.62034 0
M  V30 1853 H 173.629 -5.1208 -0.774235 0
M  V30 1854 H 170.306 -3.28007 -2.58298 0
M  V30 1855 H 171.696 -6.70479 -0.436813 0
M  V30 1856 N 174.416 0.165178 -1.56732 0
M  V30 1857 C 175.665 0.879143 -1.81532 0
M  V30 1858 C 175.978 1.83144 -0.686842 0
M  V30 1859 O 177.184 2.58823 -0.819944 0
M  V30 1860 C 175.64 1.61388 -3.21686 0
M  V30 1861 C 175.248 0.704904 -4.4242 0
M  V30 1862 C 176.992 2.3157 -3.55774 0
M  V30 1863 C 174.899 1.44022 -5.73595 0
M  V30 1864 H 173.829 0.332033 -0.676957 0
M  V30 1865 H 176.48 0.132008 -1.83025 0
M  V30 1866 H 174.862 2.40599 -3.14529 0
M  V30 1867 H 176.036 -0.0506815 -4.60772 0
M  V30 1868 H 174.351 0.112419 -4.16248 0
M  V30 1869 H 176.948 2.8719 -4.51028 0
M  V30 1870 H 177.291 3.07201 -2.8095 0
M  V30 1871 H 177.824 1.59297 -3.64513 0
M  V30 1872 H 174.563 0.72612 -6.51466 0
M  V30 1873 H 174.083 2.16898 -5.5921 0
M  V30 1874 H 175.762 1.98606 -6.15764 0
M  V30 1875 N 175.894 1.51508 0.433938 0
M  V30 1876 C 177.171 1.54888 1.19453 0
M  V30 1877 C 177.551 0.315154 2.08734 0
M  V30 1878 O 176.899 -0.699558 2.17528 0
M  V30 1879 C 177.109 2.86467 1.99342 0
M  V30 1880 C 178.457 3.38545 2.56267 0
M  V30 1881 O 179.481 2.88041 2.0955 0
M  V30 1882 O 178.34 4.26675 3.41483 0
M  V30 1883 H 175.434 0.622863 0.544032 0
M  V30 1884 H 177.98 1.63823 0.442732 0
M  V30 1885 H 176.752 3.67718 1.33788 0
M  V30 1886 H 176.375 2.8071 2.8158 0
M  V30 1887 N 177.372 -0.689602 1.41712 0
M  V30 1888 C 178.619 -1.44966 1.4139 0
M  V30 1889 C 178.947 -1.94484 0.025105 0
M  V30 1890 O 178.202 -1.70307 -0.964048 0
M  V30 1891 C 178.501 -2.67298 2.37247 0
M  V30 1892 C 178.167 -2.36405 3.83958 0
M  V30 1893 C 176.829 -2.27691 4.23923 0
M  V30 1894 C 179.181 -2.11043 4.76561 0
M  V30 1895 C 176.509 -1.91719 5.54492 0
M  V30 1896 C 178.861 -1.76578 6.07456 0
M  V30 1897 C 177.525 -1.66363 6.46436 0
M  V30 1898 H 176.795 -0.53047 0.517381 0
M  V30 1899 H 179.442 -0.787655 1.74552 0
M  V30 1900 H 177.747 -3.38461 1.9736 0
M  V30 1901 H 179.444 -3.25452 2.34269 0
M  V30 1902 H 176.034 -2.44085 3.52308 0
M  V30 1903 H 180.218 -2.16717 4.46483 0
M  V30 1904 H 175.474 -1.82367 5.83568 0
M  V30 1905 H 179.648 -1.55974 6.78708 0
M  V30 1906 H 177.275 -1.38258 7.47522 0
M  V30 1907 N 178.85 -1.27639 -0.924453 0
M  V30 1908 C 179.798 -1.10485 -2.04685 0
M  V30 1909 C 180.792 -0.0270421 -1.69378 0
M  V30 1910 O 181.998 -0.185008 -1.79047 0
M  V30 1911 H 178.373 -0.340546 -0.670472 0
M  V30 1912 H 180.344 -2.05566 -2.16298 0
M  V30 1913 C 179.093 -0.772229 -3.39016 0
M  V30 1914 H 178.416 -1.59351 -3.66671 0
M  V30 1915 H 179.856 -0.692097 -4.18313 0
M  V30 1916 C 178.315 0.523554 -3.32807 0
M  V30 1917 O 178.845 1.55702 -3.70297 0
M  V30 1918 N 177.051 0.520363 -2.85903 0
M  V30 1919 H 176.598 -0.32107 -2.55591 0
M  V30 1920 H 176.556 1.38742 -2.82131 0
M  V30 1921 N 180.328 1.1314 -1.09713 0
M  V30 1922 C 181.558 1.88048 -0.855656 0
M  V30 1923 C 181.966 1.79537 0.596919 0
M  V30 1924 O 181.309 1.16196 1.42282 0
M  V30 1925 C 181.371 3.38314 -1.21589 0
M  V30 1926 C 181.035 3.70605 -2.67397 0
M  V30 1927 C 182.032 3.69596 -3.65643 0
M  V30 1928 C 179.717 4.0017 -3.03593 0
M  V30 1929 C 181.711 3.977 -4.9811 0
M  V30 1930 C 179.398 4.27935 -4.36251 0
M  V30 1931 C 180.396 4.26685 -5.33318 0
M  V30 1932 O 180.084 4.53767 -6.63589 0
M  V30 1933 H 179.816 0.60208 -0.307368 0
M  V30 1934 H 182.37 1.44128 -1.46343 0
M  V30 1935 H 180.6 3.82752 -0.551177 0
M  V30 1936 H 182.289 3.94552 -0.953083 0
M  V30 1937 H 183.055 3.46826 -3.39023 0
M  V30 1938 H 178.934 4.00289 -2.2867 0
M  V30 1939 H 182.478 3.9664 -5.73866 0
M  V30 1940 H 178.375 4.50178 -4.62613 0
M  V30 1941 H 179.143 4.71422 -6.69107 0
M  V30 1942 N 181.806 0.884767 1.30421 0
M  V30 1943 C 183.034 0.518044 2.0031 0
M  V30 1944 C 183.449 -0.893408 1.66324 0
M  V30 1945 O 182.806 -1.5875 0.900262 0
M  V30 1946 C 182.857 0.682997 3.54989 0
M  V30 1947 O 182.578 2.03888 3.87764 0
M  V30 1948 C 184.079 0.31924 4.42149 0
M  V30 1949 H 181.299 0.200265 0.640418 0
M  V30 1950 H 183.843 1.19001 1.6631 0
M  V30 1951 H 181.998 0.0584052 3.87356 0
M  V30 1952 H 182.412 2.05735 4.82466 0
M  V30 1953 H 183.886 0.485555 5.4986 0
M  V30 1954 H 184.363 -0.742717 4.32875 0
M  V30 1955 H 184.969 0.920147 4.15227 0
M  V30 1956 N 183.284 -1.43765 0.645699 0
M  V30 1957 C 184.533 -2.01116 0.153412 0
M  V30 1958 C 184.846 -1.51493 -1.23731 0
M  V30 1959 O 186.052 -2.01067 -1.8244 0
M  V30 1960 C 184.508 -3.59206 0.223473 0
M  V30 1961 C 184.116 -4.17823 1.61642 0
M  V30 1962 C 185.86 -4.23972 -0.211597 0
M  V30 1963 C 183.767 -5.68183 1.64081 0
M  V30 1964 H 182.697 -0.752093 0.0535891 0
M  V30 1965 H 185.348 -1.6482 0.806633 0
M  V30 1966 H 183.73 -3.92867 -0.497118 0
M  V30 1967 H 184.904 -3.95674 2.36176 0
M  V30 1968 H 183.219 -3.65399 1.99681 0
M  V30 1969 H 185.816 -5.34275 -0.213112 0
M  V30 1970 H 186.159 -3.97352 -1.24165 0
M  V30 1971 H 186.692 -3.95166 0.456988 0
M  V30 1972 H 183.431 -5.99559 2.64971 0
M  V30 1973 H 182.951 -5.9241 0.938611 0
M  V30 1974 H 184.63 -6.32085 1.3812 0
M  V30 1975 N 184.763 -0.387143 -1.52771 0
M  V30 1976 C 186.009 0.196025 -2.0185 0
M  V30 1977 C 186.342 1.46641 -1.27319 0
M  V30 1978 O 185.617 1.90889 -0.373032 0
M  V30 1979 C 185.9 0.466136 -3.5707 0
M  V30 1980 C 185.753 -0.819385 -4.42274 0
M  V30 1981 C 187.072 1.25768 -4.21747 0
M  V30 1982 H 184.191 0.0697708 -0.73369 0
M  V30 1983 H 186.833 -0.516286 -1.82851 0
M  V30 1984 H 184.983 1.07293 -3.7339 0
M  V30 1985 H 186.655 -1.4563 -4.37709 0
M  V30 1986 H 184.898 -1.43517 -4.09372 0
M  V30 1987 H 185.569 -0.585065 -5.48891 0
M  V30 1988 H 188.045 0.744167 -4.09391 0
M  V30 1989 H 186.921 1.41541 -5.30337 0
M  V30 1990 H 187.182 2.27228 -3.79236 0
M  V30 1991 N 186.241 1.57166 -0.116904 0
M  V30 1992 C 187.188 2.15202 0.83408 0
M  V30 1993 C 188.158 1.07644 1.26499 0
M  V30 1994 O 189.343 1.35541 1.34288 0
M  V30 1995 C 186.483 2.75405 2.07957 0
M  V30 1996 C 185.596 3.97264 1.69721 0
M  V30 1997 C 184.731 4.45561 2.89221 0
M  V30 1998 C 183.77 5.59956 2.47215 0
M  V30 1999 N 182.907 6.03006 3.59622 0
M  V30 2000 H 187.747 2.96141 0.332335 0
M  V30 2001 H 185.284 1.46309 0.152349 0
M  V30 2002 H 187.242 3.08439 2.80929 0
M  V30 2003 H 185.872 1.97159 2.55594 0
M  V30 2004 H 184.924 3.70404 0.866316 0
M  V30 2005 H 186.236 4.80226 1.34849 0
M  V30 2006 H 185.39 4.80493 3.7042 0
M  V30 2007 H 184.129 3.61544 3.27318 0
M  V30 2008 H 183.134 5.2463 1.64448 0
M  V30 2009 H 184.359 6.45738 2.10238 0
M  V30 2010 H 182.305 5.21931 3.97396 0
M  V30 2011 H 182.222 6.80819 3.28667 0
M  V30 2012 H 183.49 6.42576 4.41267 0
M  V30 2013 N 187.719 -0.156864 1.56817 0
M  V30 2014 C 188.947 -0.886316 1.86955 0
M  V30 2015 C 189.362 -1.75185 0.703975 0
M  V30 2016 O 188.719 -1.79555 -0.326552 0
M  V30 2017 C 188.77 -1.75117 3.16253 0
M  V30 2018 O 188.491 -0.920537 4.2832 0
M  V30 2019 C 189.992 -2.58905 3.59837 0
M  V30 2020 H 187.212 -0.25678 0.619923 0
M  V30 2021 H 189.756 -0.152615 2.0393 0
M  V30 2022 H 187.911 -2.43805 3.01062 0
M  V30 2023 H 188.325 -1.51337 5.02192 0
M  V30 2024 H 189.799 -3.1518 4.53172 0
M  V30 2025 H 190.276 -3.34472 2.84649 0
M  V30 2026 H 190.882 -1.95526 3.7769 0
M  V30 2027 N 189.197 -1.51736 -0.425897 0
M  V30 2028 C 190.445 -1.64644 -1.17204 0
M  V30 2029 C 190.766 -0.370486 -1.91448 0
M  V30 2030 O 190.036 0.614088 -1.86026 0
M  V30 2031 H 188.616 -0.606819 -0.435638 0
M  V30 2032 H 191.278 -1.88713 -0.487177 0
M  V30 2033 H 190.374 -2.47958 -1.89534 0
M  V30 2034 N 190.675 0.682077 -1.42076 0
M  V30 2035 C 191.903 1.47057 -1.4554 0
M  V30 2036 C 192.318 1.8869 -0.0645779 0
M  V30 2037 O 191.675 1.57666 0.919115 0
M  V30 2038 C 191.726 2.72442 -2.37609 0
M  V30 2039 O 191.447 2.32559 -3.71279 0
M  V30 2040 C 192.948 3.66069 -2.50017 0
M  V30 2041 H 190.168 0.452737 -0.495248 0
M  V30 2042 H 192.712 0.838695 -1.8651 0
M  V30 2043 H 190.867 3.31835 -1.9991 0
M  V30 2044 H 191.281 3.13475 -4.20516 0
M  V30 2045 H 192.755 4.50792 -3.18576 0
M  V30 2046 H 193.232 4.11476 -1.53572 0
M  V30 2047 H 193.838 3.12572 -2.88407 0
M  V30 2048 N 192.153 1.28127 0.917671 0
M  V30 2049 C 193.378 1.18007 1.70555 0
M  V30 2050 C 193.803 -0.258257 1.86319 0
M  V30 2051 O 193.161 -1.1869 1.37049 0
M  V30 2052 C 193.209 1.87948 3.07746 0
M  V30 2053 O 192.313 1.18427 3.9503 0
M  V30 2054 H 191.654 0.409867 0.522403 0
M  V30 2055 H 194.184 1.69379 1.1477 0
M  V30 2056 H 194.194 1.95701 3.58001 0
M  V30 2057 H 192.869 2.92573 2.95591 0
M  V30 2058 H 191.446 1.18811 3.53466 0
M  V30 2059 N 193.631 -1.12557 1.10312 0
M  V30 2060 C 194.877 -1.84311 0.846011 0
M  V30 2061 C 195.21 -1.83805 -0.626859 0
M  V30 2062 O 194.485 -1.28268 -1.46211 0
M  V30 2063 C 194.768 -3.32048 1.39341 0
M  V30 2064 C 194.621 -3.41016 2.93305 0
M  V30 2065 C 195.94 -4.27764 1.03468 0
M  V30 2066 H 193.059 -0.669192 0.30879 0
M  V30 2067 H 195.701 -1.32057 1.36605 0
M  V30 2068 H 193.851 -3.76678 0.951087 0
M  V30 2069 H 195.523 -3.05031 3.46055 0
M  V30 2070 H 193.766 -2.81603 3.29973 0
M  V30 2071 H 194.437 -4.44948 3.26689 0
M  V30 2072 H 196.913 -3.91253 1.41633 0
M  V30 2073 H 195.789 -5.29549 1.44463 0
M  V30 2074 H 196.05 -4.42064 -0.0560404 0
M  V30 2075 N 195.109 -0.891671 -1.2995 0
M  V30 2076 C 196.334 -0.527932 -2.00568 0
M  V30 2077 C 196.759 0.877969 -1.66353 0
M  V30 2078 O 196.117 1.58301 -0.883762 0
M  V30 2079 C 196.165 -0.717745 -3.53385 0
M  V30 2080 O 195.269 0.233376 -4.11739 0
M  V30 2081 H 194.61 -0.20722 -0.630837 0
M  V30 2082 H 197.14 -1.20105 -1.65638 0
M  V30 2083 H 197.15 -0.619307 -4.03272 0
M  V30 2084 H 195.825 -1.74276 -3.77625 0
M  V30 2085 H 194.402 0.0880706 -3.72796 0
M  V30 2086 N 196.587 1.43421 -0.653314 0
M  V30 2087 C 197.517 2.33487 0.0246656 0
M  V30 2088 C 198.498 1.49475 0.811863 0
M  V30 2089 O 199.683 1.78139 0.773322 0
M  V30 2090 C 196.813 3.32841 0.99166 0
M  V30 2091 C 195.767 4.26842 0.314568 0
M  V30 2092 C 195.093 5.16236 1.39302 0
M  V30 2093 C 196.393 5.16243 -0.793095 0
M  V30 2094 H 198.087 2.90427 -0.727481 0
M  V30 2095 H 195.633 1.39649 -0.351287 0
M  V30 2096 H 197.586 3.94747 1.47487 0
M  V30 2097 H 196.31 2.74158 1.77497 0
M  V30 2098 H 194.969 3.663 -0.148199 0
M  V30 2099 H 194.617 4.53891 2.16776 0
M  V30 2100 H 194.317 5.79948 0.945223 0
M  V30 2101 H 195.841 5.81015 1.87759 0
M  V30 2102 H 197.255 5.71958 -0.392039 0
M  V30 2103 H 195.652 5.88676 -1.16536 0
M  V30 2104 H 196.722 4.55927 -1.65103 0
M  V30 2105 N 198.065 0.39524 1.52563 0
M  V30 2106 C 199.313 -0.184678 2.01254 0
M  V30 2107 C 199.634 -1.46822 1.28329 0
M  V30 2108 O 198.904 -1.91666 0.405094 0
M  V30 2109 H 197.484 -0.0712355 0.743596 0
M  V30 2110 H 200.146 0.528293 1.87603 0
M  V30 2111 H 199.242 -0.390681 3.09645 0
M  V30 2112 N 199.544 -1.57102 0.125237 0
M  V30 2113 C 200.491 -2.15641 -0.822655 0
M  V30 2114 C 201.461 -1.08313 -1.25927 0
M  V30 2115 O 202.646 -1.36251 -1.33567 0
M  V30 2116 C 199.786 -2.76504 -2.06494 0
M  V30 2117 C 198.899 -3.98158 -1.67612 0
M  V30 2118 C 198.034 -4.47088 -2.86854 0
M  V30 2119 C 197.073 -5.6126 -2.44242 0
M  V30 2120 N 196.21 -6.04905 -3.56419 0
M  V30 2121 H 201.05 -2.96313 -0.316625 0
M  V30 2122 H 198.587 -1.46388 -0.144588 0
M  V30 2123 H 200.545 -3.09925 -2.79289 0
M  V30 2124 H 199.175 -1.98512 -2.54545 0
M  V30 2125 H 198.227 -3.70858 -0.846661 0
M  V30 2126 H 199.539 -4.80934 -1.32301 0
M  V30 2127 H 198.693 -4.82451 -3.67867 0
M  V30 2128 H 197.432 -3.63275 -3.25396 0
M  V30 2129 H 196.437 -5.25495 -1.61663 0
M  V30 2130 H 197.662 -6.46843 -2.0681 0
M  V30 2131 H 195.608 -5.24032 -3.94623 0
M  V30 2132 H 195.525 -6.82552 -3.25051 0
M  V30 2133 H 196.793 -6.44907 -4.37853 0
M  V30 2134 N 201.022 0.148545 -1.56898 0
M  V30 2135 C 202.438 0.501131 -1.51528 0
M  V30 2136 C 202.638 1.83458 -0.833399 0
M  V30 2137 O 201.694 2.49259 -0.40328 0
M  V30 2138 C 203.007 0.512864 -2.96294 0
M  V30 2139 C 204.555 0.598487 -3.07225 0
M  V30 2140 C 205.03 0.640897 -4.53494 0
M  V30 2141 N 206.521 0.703163 -4.57832 0
M  V30 2142 C 207.256 0.756935 -5.68382 0
M  V30 2143 N 206.752 0.770147 -6.88506 0
M  V30 2144 N 208.545 0.797698 -5.56411 0
M  V30 2145 H 200.696 -0.725532 -1.99624 0
M  V30 2146 H 202.959 -0.264358 -0.910395 0
M  V30 2147 H 202.665 -0.398691 -3.49433 0
M  V30 2148 H 202.539 1.35133 -3.52163 0
M  V30 2149 H 204.926 1.50046 -2.54106 0
M  V30 2150 H 205.007 -0.267093 -2.54402 0
M  V30 2151 H 204.651 -0.256915 -5.0725 0
M  V30 2152 H 204.581 1.52295 -5.04097 0
M  V30 2153 H 207.072 0.700314 -3.71354 0
M  V30 2154 H 207.385 0.812983 -7.68512 0
M  V30 2155 H 205.73 0.738049 -6.9107 0
M  V30 2156 H 208.921 0.784535 -4.61479 0
M  V30 2157 H 209.094 0.83614 -6.42583 0
M  V30 2158 N 202.5 1.5196 0.417844 0
M  V30 2159 C 203.725 1.69717 1.1921 0
M  V30 2160 C 204.15 0.402148 1.83751 0
M  V30 2161 O 203.508 -0.639593 1.69643 0
M  V30 2162 C 203.556 2.82794 2.2374 0
M  V30 2163 O 202.66 2.47756 3.29683 0
M  V30 2164 H 202.001 0.565263 0.348387 0
M  V30 2165 H 204.531 1.98621 0.490985 0
M  V30 2166 H 204.541 3.07452 2.68212 0
M  V30 2167 H 203.216 3.76756 1.76146 0
M  V30 2168 H 201.793 2.33739 2.90552 0
M  V30 2169 N 203.978 -0.674533 1.42435 0
M  V30 2170 C 204.908 -1.80009 1.48724 0
M  V30 2171 C 205.889 -1.6659 0.343793 0
M  V30 2172 O 207.074 -1.86007 0.558137 0
M  V30 2173 C 204.204 -3.18306 1.38919 0
M  V30 2174 C 203.158 -3.46461 2.51294 0
M  V30 2175 C 202.484 -4.84335 2.26547 0
M  V30 2176 C 203.784 -3.43328 3.93603 0
M  V30 2177 H 205.478 -1.75004 2.42928 0
M  V30 2178 H 203.024 -0.840533 1.16923 0
M  V30 2179 H 204.977 -3.9678 1.41927 0
M  V30 2180 H 203.701 -3.2399 0.412094 0
M  V30 2181 H 202.36 -2.70348 2.47604 0
M  V30 2182 H 202.008 -4.86669 1.2713 0
M  V30 2183 H 201.708 -5.04136 3.01861 0
M  V30 2184 H 203.232 -5.65094 2.31304 0
M  V30 2185 H 204.646 -4.11772 3.98894 0
M  V30 2186 H 203.043 -3.74664 4.68771 0
M  V30 2187 H 204.113 -2.41897 4.20255 0
M  V30 2188 N 205.456 -1.28612 -0.910864 0
M  V30 2189 C 206.684 -1.18792 -1.69399 0
M  V30 2190 C 207.099 0.253039 -1.87097 0
M  V30 2191 O 206.456 1.17071 -1.40003 0
M  V30 2192 C 206.507 -1.88511 -3.08457 0
M  V30 2193 O 206.228 -3.26979 -2.91576 0
M  V30 2194 C 207.729 -1.85029 -4.02839 0
M  V30 2195 H 204.949 -0.412233 -0.529438 0
M  V30 2196 H 207.493 -1.69788 -1.13984 0
M  V30 2197 H 205.648 -1.41379 -3.60681 0
M  V30 2198 H 206.062 -3.61936 -3.79608 0
M  V30 2199 H 207.536 -2.38395 -4.97867 0
M  V30 2200 H 208.013 -0.823303 -4.31414 0
M  V30 2201 H 208.619 -2.31853 -3.56545 0
M  V30 2202 N 206.934 1.1197 -1.10907 0
M  V30 2203 C 208.181 1.83588 -0.854507 0
M  V30 2204 C 208.509 1.84357 0.6199 0
M  V30 2205 O 207.764 1.28809 1.47332 0
M  V30 2206 C 208.063 3.30749 -1.35425 0
M  V30 2207 C 207.729 3.50146 -2.84093 0
M  V30 2208 C 206.391 3.55148 -3.2469 0
M  V30 2209 C 208.743 3.56857 -3.79872 0
M  V30 2210 C 206.071 3.6441 -4.59806 0
M  V30 2211 C 208.423 3.6765 -5.14797 0
M  V30 2212 C 207.087 3.7091 -5.54961 0
M  V30 2213 H 206.357 0.671795 -0.312686 0
M  V30 2214 H 209.004 1.32091 -1.38652 0
M  V30 2215 H 207.309 3.84703 -0.742361 0
M  V30 2216 H 209.006 3.8464 -1.1337 0
M  V30 2217 H 205.596 3.46919 -2.51685 0
M  V30 2218 H 209.78 3.52258 -3.49611 0
M  V30 2219 H 205.036 3.65208 -4.9034 0
M  V30 2220 H 209.21 3.71786 -5.88853 0
M  V30 2221 H 206.837 3.7784 -6.59652 0
M  V30 2222 N 208.412 0.89855 1.29475 0
M  V30 2223 C 209.661 0.519863 1.94885 0
M  V30 2224 C 209.974 -0.9383 1.71625 0
M  V30 2225 O 211.18 -1.42445 2.31131 0
M  V30 2226 C 209.636 0.878836 3.49005 0
M  V30 2227 C 209.244 2.35569 3.81066 0
M  V30 2228 C 210.988 0.570004 4.20656 0
M  V30 2229 C 208.895 2.65558 5.28425 0
M  V30 2230 H 207.825 0.190692 0.729488 0
M  V30 2231 H 210.476 1.09539 1.47219 0
M  V30 2232 H 208.858 0.232253 3.95318 0
M  V30 2233 H 210.032 3.04773 3.45616 0
M  V30 2234 H 208.347 2.63343 3.22552 0
M  V30 2235 H 210.944 0.770925 5.29113 0
M  V30 2236 H 211.287 -0.491404 4.1339 0
M  V30 2237 H 211.82 1.17438 3.8007 0
M  V30 2238 H 208.559 3.70493 5.40754 0
M  V30 2239 H 208.079 2.00977 5.65127 0
M  V30 2240 H 209.758 2.51765 5.96006 0
M  V30 2241 N 209.89 -1.43072 0.660911 0
M  V30 2242 C 210.8 -2.34585 -0.0264163 0
M  V30 2243 C 211.816 -1.54316 -0.803898 0
M  V30 2244 O 212.992 -1.86939 -0.749391 0
M  V30 2245 C 210.057 -3.32689 -0.975639 0
M  V30 2246 C 209.118 -4.2886 -0.194236 0
M  V30 2247 C 208.351 -5.22278 -1.09825 0
M  V30 2248 O 208.574 -5.20299 -2.33763 0
M  V30 2249 O 207.508 -5.99228 -0.566513 0
M  V30 2250 H 211.334 -2.94869 0.727034 0
M  V30 2251 H 208.919 -1.43342 0.42111 0
M  V30 2252 H 210.801 -3.92995 -1.52094 0
M  V30 2253 H 209.476 -2.74898 -1.70918 0
M  V30 2254 H 208.383 -3.72011 0.394835 0
M  V30 2255 H 209.716 -4.89655 0.499899 0
M  V30 2256 N 211.368 -0.403325 -1.52352 0
M  V30 2257 C 212.331 0.413051 -2.25447 0
M  V30 2258 C 213.331 0.978513 -1.276 0
M  V30 2259 O 214.521 0.858305 -1.51587 0
M  V30 2260 C 211.653 1.58087 -3.02029 0
M  V30 2261 H 212.846 -0.227094 -2.99039 0
M  V30 2262 H 210.399 -0.155722 -1.55522 0
M  V30 2263 H 211.134 2.25804 -2.32772 0
M  V30 2264 H 210.919 1.18195 -3.73861 0
M  V30 2265 H 212.409 2.1585 -3.57489 0
M  V30 2266 N 212.846 1.57033 -0.133567 0
M  V30 2267 C 214.257 1.82593 0.389464 0
M  V30 2268 C 214.608 1.05156 1.6564 0
M  V30 2269 O 213.733 0.292644 2.14412 0
M  V30 2270 C 214.328 3.31204 0.713377 0
M  V30 2271 C 212.887 3.57393 1.18098 0
M  V30 2272 C 212.034 2.76598 0.197126 0
M  V30 2273 H 214.985 1.54598 -0.358481 0
M  V30 2274 H 215.006 3.46627 1.56939 0
M  V30 2275 H 214.518 3.87537 -0.2089 0
M  V30 2276 H 212.619 3.06433 2.11966 0
M  V30 2277 H 212.732 4.65915 1.11624 0
M  V30 2278 H 211.096 2.45257 0.687088 0
M  V30 2279 H 211.879 3.35697 -0.718504 0
M  V30 2280 N 214.325 -0.140222 1.56975 0
M  V30 2281 C 215.258 -1.20266 1.93936 0
M  V30 2282 C 216.236 -1.41212 0.806099 0
M  V30 2283 O 217.42 -1.55713 1.06234 0
M  V30 2284 C 214.547 -2.56037 2.21726 0
M  V30 2285 C 213.593 -2.51646 3.44349 0
M  V30 2286 S 214.426 -1.97678 4.97678 0
M  V30 2287 C 215.582 -3.35165 5.28597 0
M  V30 2288 H 215.815 -0.887358 2.83749 0
M  V30 2289 H 213.348 -0.346119 1.50471 0
M  V30 2290 H 215.306 -3.34167 2.38416 0
M  V30 2291 H 213.967 -2.84755 1.32566 0
M  V30 2292 H 213.16 -3.51608 3.61092 0
M  V30 2293 H 212.762 -1.81628 3.26936 0
M  V30 2294 H 215.054 -4.31302 5.2248 0
M  V30 2295 H 215.997 -3.23269 6.30002 0
M  V30 2296 H 216.405 -3.32614 4.56101 0
M  V30 2297 N 215.803 -1.52179 -0.40978 0
M  V30 2298 C 216.733 -1.78435 -1.5061 0
M  V30 2299 C 217.714 -0.635295 -1.57791 0
M  V30 2300 O 218.899 -0.880823 -1.73076 0
M  V30 2301 C 216.029 -1.93444 -2.88439 0
M  V30 2302 C 214.983 -3.09038 -2.96108 0
M  V30 2303 C 214.309 -3.09268 -4.36185 0
M  V30 2304 C 215.609 -4.48508 -2.67652 0
M  V30 2305 H 217.303 -2.70237 -1.28889 0
M  V30 2306 H 214.849 -1.30036 -0.618605 0
M  V30 2307 H 216.802 -2.10394 -3.65119 0
M  V30 2308 H 215.526 -0.983129 -3.11452 0
M  V30 2309 H 214.185 -2.91837 -2.21872 0
M  V30 2310 H 213.833 -2.11861 -4.56206 0
M  V30 2311 H 213.533 -3.86907 -4.42241 0
M  V30 2312 H 215.057 -3.28348 -5.14801 0
M  V30 2313 H 216.471 -4.65918 -3.34056 0
M  V30 2314 H 214.868 -5.28059 -2.85085 0
M  V30 2315 H 215.938 -4.56649 -1.63095 0
M  V30 2316 N 217.281 0.66697 -1.42791 0
M  V30 2317 C 218.231 1.77313 -1.43332 0
M  V30 2318 C 219.215 1.5801 -0.303586 0
M  V30 2319 O 220.407 1.68356 -0.546385 0
M  V30 2320 C 217.536 3.15822 -1.34578 0
M  V30 2321 C 216.622 3.40721 -2.52528 0
M  V30 2322 N 217.013 3.36162 -3.77927 0
M  V30 2323 C 215.311 3.71387 -2.46956 0
M  V30 2324 C 216.012 3.60762 -4.56318 0
M  V30 2325 N 214.988 3.81908 -3.86843 0
M  V30 2326 H 218.79 1.72193 -2.38174 0
M  V30 2327 H 216.304 0.868114 -1.3725 0
M  V30 2328 H 218.301 3.951 -1.33048 0
M  V30 2329 H 216.961 3.22133 -0.407453 0
M  V30 2330 H 217.972 3.15885 -4.10411 0
M  V30 2331 H 214.649 3.84897 -1.61743 0
M  V30 2332 H 216.039 3.63132 -5.65318 0
M  V30 2333 N 218.759 1.29093 0.90403 0
M  V30 2334 C 220.005 1.17996 1.65676 0
M  V30 2335 C 220.36 -0.266816 1.90541 0
M  V30 2336 O 219.653 -1.19 1.50165 0
M  V30 2337 C 219.847 1.92224 3.01305 0
M  V30 2338 C 219.676 3.43972 2.89678 0
M  V30 2339 C 218.446 4.1332 2.90679 0
M  V30 2340 C 220.644 4.39546 2.67028 0
M  V30 2341 N 218.626 5.51463 2.69743 0
M  V30 2342 C 219.997 5.65119 2.5503 0
M  V30 2343 C 222.052 4.29359 2.52101 0
M  V30 2344 C 220.755 6.81663 2.29626 0
M  V30 2345 C 222.781 5.4565 2.28079 0
M  V30 2346 C 222.143 6.70193 2.16843 0
M  V30 2347 H 218.242 0.486759 0.612037 0
M  V30 2348 H 220.826 1.62868 1.06688 0
M  V30 2349 H 218.997 1.49773 3.58361 0
M  V30 2350 H 220.729 1.73429 3.65656 0
M  V30 2351 H 217.484 3.64984 3.01801 0
M  V30 2352 H 217.908 6.24105 2.6234 0
M  V30 2353 H 222.55 3.33769 2.59534 0
M  V30 2354 H 220.268 7.77313 2.20932 0
M  V30 2355 H 223.854 5.39664 2.1738 0
M  V30 2356 H 222.734 7.58659 1.98511 0
M  V30 2357 N 220.237 -1.11381 1.11499 0
M  V30 2358 C 221.648 -1.6465 0.880191 0
M  V30 2359 C 221.999 -1.87199 -0.587434 0
M  V30 2360 O 221.124 -1.60667 -1.44966 0
M  V30 2361 C 221.719 -2.99105 1.59128 0
M  V30 2362 C 220.278 -3.49279 1.40289 0
M  V30 2363 C 219.425 -2.24077 1.63354 0
M  V30 2364 H 222.376 -0.950123 1.27116 0
M  V30 2365 H 222.397 -3.66107 1.03664 0
M  V30 2366 H 221.909 -2.82661 2.65941 0
M  V30 2367 H 220.01 -3.70887 0.356888 0
M  V30 2368 H 220.123 -4.2803 2.15238 0
M  V30 2369 H 218.487 -2.31733 1.05698 0
M  V30 2370 H 219.27 -2.10175 2.71443 0
M  V30 2371 N 221.715 -0.905404 -1.28997 0
M  V30 2372 C 222.992 -0.453513 -1.9027 0
M  V30 2373 C 223.372 1.06721 -1.82137 0
M  V30 2374 O 222.72 1.91159 -1.25182 0
M  V30 2375 C 222.93 -0.974494 -3.35119 0
M  V30 2376 C 224.278 -1.0216 -4.12127 0
M  V30 2377 O 225.302 -0.922557 -3.44046 0
M  V30 2378 O 224.161 -1.17121 -5.33802 0
M  V30 2379 H 221.255 -0.142347 -0.814657 0
M  V30 2380 H 223.801 -0.995642 -1.37423 0
M  V30 2381 H 222.573 -2.01848 -3.35221 0
M  V30 2382 H 222.196 -0.412706 -3.95452 0
M  V30 2383 N 223.193 1.4272 -0.668489 0
M  V30 2384 C 224.418 2.06484 -0.194758 0
M  V30 2385 C 224.843 1.49862 1.13679 0
M  V30 2386 O 224.201 0.614582 1.70565 0
M  V30 2387 C 224.249 3.60353 -0.133546 0
M  V30 2388 O 223.353 4.02464 0.899806 0
M  V30 2389 H 222.694 0.656137 -0.10188 0
M  V30 2390 H 225.224 1.82964 -0.915722 0
M  V30 2391 H 225.234 4.07976 0.0447041 0
M  V30 2392 H 223.909 4.00938 -1.1055 0
M  V30 2393 H 222.486 3.66402 0.693109 0
M  V30 2394 N 224.671 0.411399 1.52136 0
M  V30 2395 C 225.604 -0.457614 2.23565 0
M  V30 2396 C 226.582 -1.04613 1.24478 0
M  V30 2397 O 227.766 -1.09356 1.53536 0
M  V30 2398 C 224.893 -1.6354 2.96602 0
M  V30 2399 C 223.939 -1.17005 4.10137 0
M  V30 2400 S 224.772 -0.13333 5.35334 0
M  V30 2401 C 225.928 -1.31638 6.119 0
M  V30 2402 H 226.161 0.148883 2.96927 0
M  V30 2403 H 223.694 0.195713 1.53155 0
M  V30 2404 H 225.652 -2.31074 3.39286 0
M  V30 2405 H 224.313 -2.21324 2.22878 0
M  V30 2406 H 223.506 -2.05005 4.60422 0
M  V30 2407 H 223.108 -0.573319 3.6958 0
M  V30 2408 H 225.4 -2.23957 6.39413 0
M  V30 2409 H 226.343 -0.854014 7.02931 0
M  V30 2410 H 226.751 -1.54321 5.42997 0
M  V30 2411 N 226.149 -1.5696 0.141893 0
M  V30 2412 C 227.396 -1.9596 -0.510492 0
M  V30 2413 C 227.724 -1.02648 -1.65208 0
M  V30 2414 O 226.979 -0.0546947 -1.95624 0
M  V30 2415 C 227.278 -3.41242 -1.06249 0
M  V30 2416 C 226.944 -4.50882 -0.0398791 0
M  V30 2417 C 225.606 -4.80595 0.241247 0
M  V30 2418 C 227.958 -5.17058 0.65578 0
M  V30 2419 C 225.286 -5.73792 1.22393 0
M  V30 2420 C 227.638 -6.11313 1.62724 0
M  V30 2421 C 226.302 -6.39407 1.91612 0
M  V30 2422 H 225.572 -0.717068 -0.186802 0
M  V30 2423 H 228.219 -1.90142 0.227643 0
M  V30 2424 H 226.524 -3.43866 -1.87785 0
M  V30 2425 H 228.221 -3.68742 -1.57576 0
M  V30 2426 H 224.811 -4.27754 -0.269174 0
M  V30 2427 H 228.995 -4.94239 0.451779 0
M  V30 2428 H 224.251 -5.93853 1.45424 0
M  V30 2429 H 228.425 -6.61668 2.17183 0
M  V30 2430 H 226.052 -7.11427 2.6791 0
M  V30 2431 N 227.627 0.131896 -1.57047 0
M  V30 2432 C 228.855 0.856461 -1.88341 0
M  V30 2433 C 229.27 1.74042 -0.731757 0
M  V30 2434 O 228.627 1.80051 0.297945 0
M  V30 2435 C 228.678 1.70064 -3.18999 0
M  V30 2436 O 228.399 0.852278 -4.2973 0
M  V30 2437 C 229.9 2.53148 -3.63911 0
M  V30 2438 H 227.12 0.246885 -0.62393 0
M  V30 2439 H 229.664 0.120152 -2.04147 0
M  V30 2440 H 227.819 2.38984 -3.04902 0
M  V30 2441 H 228.233 1.43329 -5.04537 0
M  V30 2442 H 229.707 3.07931 -4.58129 0
M  V30 2443 H 230.184 3.29901 -2.89935 0
M  V30 2444 H 230.79 1.89492 -3.80753 0
M  V30 2445 N 229.106 1.52395 0.401703 0
M  V30 2446 C 230.336 1.70429 1.1678 0
M  V30 2447 C 230.744 0.416702 1.84554 0
M  V30 2448 O 230.087 -0.617697 1.73003 0
M  V30 2449 C 230.149 2.78919 2.26814 0
M  V30 2450 C 229.813 4.20437 1.79113 0
M  V30 2451 C 230.81 5.04028 1.27482 0
M  V30 2452 C 228.495 4.66704 1.85722 0
M  V30 2453 C 230.489 6.31961 0.830913 0
M  V30 2454 C 228.176 5.94625 1.40942 0
M  V30 2455 C 229.174 6.77082 0.897128 0
M  V30 2456 O 228.862 8.02607 0.455822 0
M  V30 2457 H 228.594 0.574272 0.356634 0
M  V30 2458 H 231.148 1.99767 0.477724 0
M  V30 2459 H 229.378 2.44973 2.99207 0
M  V30 2460 H 231.067 2.8548 2.88541 0
M  V30 2461 H 231.833 4.69471 1.21744 0
M  V30 2462 H 227.712 4.0262 2.24539 0
M  V30 2463 H 231.256 6.96271 0.430368 0
M  V30 2464 H 227.153 6.28688 1.46362 0
M  V30 2465 H 227.921 8.16453 0.578457 0
M  V30 2466 N 230.584 -0.659388 1.43143 0
M  V30 2467 C 231.83 -1.42145 1.44647 0
M  V30 2468 C 232.163 -1.9408 0.0681907 0
M  V30 2469 O 231.438 -1.71899 -0.910007 0
M  V30 2470 C 231.721 -2.60735 2.48373 0
M  V30 2471 C 231.574 -2.14332 3.95451 0
M  V30 2472 C 232.893 -3.62951 2.48906 0
M  V30 2473 H 230.012 -0.51552 0.526696 0
M  V30 2474 H 232.654 -0.748069 1.74654 0
M  V30 2475 H 230.804 -3.18184 2.22916 0
M  V30 2476 H 232.476 -1.61932 4.31944 0
M  V30 2477 H 230.719 -1.4576 4.08578 0
M  V30 2478 H 231.39 -2.99583 4.63631 0
M  V30 2479 H 233.866 -3.1525 2.71582 0
M  V30 2480 H 232.742 -4.43487 3.23435 0
M  V30 2481 H 233.003 -4.15126 1.52061 0
M  V30 2482 N 232.062 -1.29571 -0.897171 0
M  V30 2483 C 233.473 -1.15964 -1.46319 0
M  V30 2484 C 233.824 0.244267 -1.94674 0
M  V30 2485 O 232.949 1.13998 -1.83939 0
M  V30 2486 C 233.544 -2.09906 -2.65942 0
M  V30 2487 C 232.103 -2.00314 -3.18671 0
M  V30 2488 C 231.25 -2.00687 -1.91363 0
M  V30 2489 H 234.201 -1.42019 -0.708268 0
M  V30 2490 H 234.222 -1.67276 -3.41759 0
M  V30 2491 H 233.734 -3.12075 -2.30718 0
M  V30 2492 H 231.835 -1.01242 -3.58582 0
M  V30 2493 H 231.948 -2.88102 -3.82798 0
M  V30 2494 H 230.312 -1.45319 -2.09175 0
M  V30 2495 H 231.095 -3.04566 -1.58413 0
M  V30 2496 N 233.54 1.10788 -1.12088 0
M  V30 2497 C 234.45 2.20599 -0.798338 0
M  V30 2498 C 235.466 1.72712 0.21135 0
M  V30 2499 O 236.642 2.01348 0.0458477 0
M  V30 2500 C 233.707 3.45771 -0.253674 0
M  V30 2501 C 232.768 4.08411 -1.32283 0
M  V30 2502 C 232.001 5.27608 -0.80406 0
M  V30 2503 O 232.224 5.69241 0.363478 0
M  V30 2504 O 231.158 5.8101 -1.57198 0
M  V30 2505 H 234.984 2.50614 -1.7154 0
M  V30 2506 H 232.569 1.19454 -0.897275 0
M  V30 2507 H 234.451 4.21376 0.0453691 0
M  V30 2508 H 233.126 3.1739 0.636005 0
M  V30 2509 H 232.033 3.34507 -1.67499 0
M  V30 2510 H 233.366 4.40986 -2.18614 0
M  V30 2511 N 235.018 0.912232 1.28515 0
M  V30 2512 C 235.928 0.404506 2.31086 0
M  V30 2513 C 236.944 -0.50707 1.66448 0
M  V30 2514 O 238.12 -0.393624 1.97516 0
M  V30 2515 C 235.185 -0.348572 3.44943 0
M  V30 2516 C 234.246 0.59604 4.25142 0
M  V30 2517 C 233.479 -0.121194 5.33562 0
M  V30 2518 O 233.702 -1.34317 5.5436 0
M  V30 2519 O 232.636 0.542716 5.99448 0
M  V30 2520 H 236.462 1.25579 2.76521 0
M  V30 2521 H 234.047 0.676998 1.33181 0
M  V30 2522 H 235.929 -0.77395 4.14232 0
M  V30 2523 H 234.604 -1.17571 3.01594 0
M  V30 2524 H 233.511 1.07079 3.58448 0
M  V30 2525 H 234.844 1.38995 4.72167 0
M  V30 2526 N 236.496 -1.42363 0.676048 0
M  V30 2527 C 237.459 -2.29199 0.00766941 0
M  V30 2528 C 238.459 -1.43389 -0.727745 0
M  V30 2529 O 239.649 -1.64764 -0.56556 0
M  V30 2530 C 236.781 -3.2591 -0.999785 0
M  V30 2531 H 237.974 -2.89794 0.771988 0
M  V30 2532 H 235.527 -1.50024 0.438468 0
M  V30 2533 H 236.262 -2.70256 -1.79255 0
M  V30 2534 H 236.047 -3.89202 -0.475829 0
M  V30 2535 H 237.537 -3.91028 -1.46583 0
M  V30 2536 N 237.974 -0.419461 -1.51915 0
M  V30 2537 C 238.904 0.391813 -2.30189 0
M  V30 2538 C 239.885 1.03699 -1.34836 0
M  V30 2539 O 241.07 1.04403 -1.63748 0
M  V30 2540 C 238.2 1.50312 -3.13087 0
M  V30 2541 C 237.154 0.9824 -4.16573 0
M  V30 2542 C 236.48 2.18809 -4.8788 0
M  V30 2543 C 237.78 0.0292356 -5.22292 0
M  V30 2544 H 239.474 -0.26135 -2.98257 0
M  V30 2545 H 237.02 -0.127134 -1.43438 0
M  V30 2546 H 238.973 2.07773 -3.66617 0
M  V30 2547 H 237.697 2.18431 -2.42807 0
M  V30 2548 H 236.356 0.430119 -3.64068 0
M  V30 2549 H 236.004 2.85507 -4.14119 0
M  V30 2550 H 235.704 1.84615 -5.57845 0
M  V30 2551 H 237.228 2.76858 -5.44226 0
M  V30 2552 H 238.642 0.512976 -5.71 0
M  V30 2553 H 237.039 -0.2244 -5.9968 0
M  V30 2554 H 238.109 -0.912931 -4.76228 0
M  V30 2555 N 239.452 1.56882 -0.150215 0
M  V30 2556 C 240.382 2.19935 0.784284 0
M  V30 2557 C 241.363 1.14854 1.25469 0
M  V30 2558 O 242.548 1.43209 1.31168 0
M  V30 2559 C 239.678 2.82349 2.02229 0
M  V30 2560 C 238.632 3.93285 1.68853 0
M  V30 2561 C 237.958 4.42649 2.99944 0
M  V30 2562 C 239.258 5.13904 0.932714 0
M  V30 2563 H 240.952 2.9828 0.258781 0
M  V30 2564 H 238.498 1.43473 0.123029 0
M  V30 2565 H 240.451 3.25126 2.68088 0
M  V30 2566 H 239.175 2.0134 2.57157 0
M  V30 2567 H 237.834 3.5113 1.05371 0
M  V30 2568 H 237.482 3.58458 3.52869 0
M  V30 2569 H 237.182 5.17476 2.78374 0
M  V30 2570 H 238.706 4.88099 3.66868 0
M  V30 2571 H 240.12 5.53506 1.49345 0
M  V30 2572 H 238.517 5.94515 0.81684 0
M  V30 2573 H 239.587 4.84842 -0.0749568 0
M  V30 2574 N 240.93 -0.123565 1.57115 0
M  V30 2575 C 241.86 -1.15309 2.03042 0
M  V30 2576 C 242.841 -1.43454 0.914061 0
M  V30 2577 O 244.026 -1.53973 1.18347 0
M  V30 2578 C 241.156 -2.48043 2.43089 0
M  V30 2579 C 240.11 -2.3437 3.58127 0
M  V30 2580 C 239.436 -3.72026 3.84059 0
M  V30 2581 C 240.736 -1.80804 4.90007 0
M  V30 2582 H 242.43 -0.771102 2.893 0
M  V30 2583 H 239.976 -0.369479 1.39179 0
M  V30 2584 H 241.929 -3.20311 2.73823 0
M  V30 2585 H 240.653 -2.88122 1.53796 0
M  V30 2586 H 239.312 -1.64551 3.27595 0
M  V30 2587 H 238.96 -4.09582 2.91979 0
M  V30 2588 H 238.66 -3.63732 4.6149 0
M  V30 2589 H 240.184 -4.45806 4.1724 0
M  V30 2590 H 241.598 -2.42886 5.19307 0
M  V30 2591 H 239.995 -1.83343 5.71407 0
M  V30 2592 H 241.065 -0.76528 4.78823 0
M  V30 2593 N 242.408 -1.52605 -0.393616 0
M  V30 2594 C 243.819 -1.59417 -0.971761 0
M  V30 2595 C 244.17 -0.444173 -1.91106 0
M  V30 2596 O 243.295 0.433382 -2.12016 0
M  V30 2597 C 243.89 -2.88936 -1.76921 0
M  V30 2598 C 242.449 -2.98175 -2.29714 0
M  V30 2599 C 241.596 -2.54491 -1.10135 0
M  V30 2600 H 244.547 -1.57751 -0.173317 0
M  V30 2601 H 244.568 -2.75163 -2.62804 0
M  V30 2602 H 244.08 -3.72616 -1.08532 0
M  V30 2603 H 242.181 -2.19024 -3.01429 0
M  V30 2604 H 242.294 -4.02726 -2.59517 0
M  V30 2605 H 240.658 -2.08702 -1.45999 0
M  V30 2606 H 241.441 -3.4056 -0.432874 0
M  V30 2607 N 243.887 0.651787 -1.4349 0
M  V30 2608 C 244.835 1.78586 -1.49029 0
M  V30 2609 C 245.829 1.65448 -0.363767 0
M  V30 2610 O 247.035 1.71777 -0.537821 0
M  V30 2611 H 243.41 0.589236 -0.467231 0
M  V30 2612 H 245.381 1.71035 -2.44519 0
M  V30 2613 C 244.13 3.16851 -1.43181 0
M  V30 2614 H 243.453 3.27598 -2.29171 0
M  V30 2615 H 244.893 3.96156 -1.51118 0
M  V30 2616 C 243.352 3.36568 -0.149616 0
M  V30 2617 O 243.882 3.93885 0.788509 0
M  V30 2618 N 242.088 2.90539 -0.0593484 0
M  V30 2619 H 241.635 2.4408 -0.823575 0
M  V30 2620 H 241.593 3.04108 0.797853 0
M  V30 2621 N 245.365 1.30045 0.890287 0
M  V30 2622 C 246.642 1.09227 1.62262 0
M  V30 2623 C 247.022 -0.360305 2.08002 0
M  V30 2624 O 246.37 -1.35084 1.84295 0
M  V30 2625 C 246.58 2.08835 2.79623 0
M  V30 2626 C 247.928 2.40266 3.50082 0
M  V30 2627 O 248.952 2.07104 2.89804 0
M  V30 2628 O 247.811 2.96967 4.58773 0
M  V30 2629 H 244.905 0.419132 0.712922 0
M  V30 2630 H 247.451 1.41451 0.937529 0
M  V30 2631 H 246.223 3.06633 2.43089 0
M  V30 2632 H 245.846 1.77397 3.55832 0
M  V30 2633 N 246.843 -1.10192 1.12674 0
M  V30 2634 C 247.806 -2.14786 0.799979 0
M  V30 2635 C 248.806 -1.59711 -0.18685 0
M  V30 2636 O 249.996 -1.74156 0.0392558 0
M  V30 2637 C 247.128 -3.40374 0.189228 0
M  V30 2638 H 248.321 -2.45203 1.72671 0
M  V30 2639 H 245.874 -1.25597 0.930326 0
M  V30 2640 H 246.609 -3.15577 -0.747107 0
M  V30 2641 H 246.394 -3.81637 0.899766 0
M  V30 2642 H 247.884 -4.17594 -0.0228143 0
M  V30 2643 N 248.321 -0.919034 -1.28029 0
M  V30 2644 C 249.568 -0.554934 -1.94748 0
M  V30 2645 C 249.896 0.90231 -1.72304 0
M  V30 2646 O 249.151 1.65767 -1.04018 0
M  V30 2647 C 249.45 -0.816855 -3.4794 0
M  V30 2648 C 249.116 -2.25448 -3.90492 0
M  V30 2649 C 247.778 -2.64752 -4.01821 0
M  V30 2650 C 250.13 -3.18977 -4.12193 0
M  V30 2651 C 247.458 -3.96727 -4.32232 0
M  V30 2652 C 249.81 -4.50523 -4.44086 0
M  V30 2653 C 248.474 -4.89673 -4.53626 0
M  V30 2654 H 247.744 -0.203065 -0.712633 0
M  V30 2655 H 250.391 -1.16136 -1.52265 0
M  V30 2656 H 248.696 -0.127677 -3.91592 0
M  V30 2657 H 250.393 -0.514238 -3.97689 0
M  V30 2658 H 246.983 -1.93952 -3.82205 0
M  V30 2659 H 251.167 -2.89817 -4.02889 0
M  V30 2660 H 246.423 -4.26754 -4.37825 0
M  V30 2661 H 250.597 -5.23005 -4.59825 0
M  V30 2662 H 248.224 -5.91969 -4.76946 0
M  V30 2663 N 249.799 1.42003 -0.683588 0
M  V30 2664 C 251.047 2.01015 -0.209101 0
M  V30 2665 C 251.368 1.54365 1.19149 0
M  V30 2666 O 250.638 0.769083 1.80172 0
M  V30 2667 H 249.218 0.743294 -0.074315 0
M  V30 2668 H 251.88 1.73798 -0.882066 0
M  V30 2669 H 250.976 3.11343 -0.2172 0
M  V30 2670 N 251.277 0.427512 1.51691 0
M  V30 2671 C 252.209 -0.424521 2.25234 0
M  V30 2672 C 253.222 -0.994671 1.2888 0
M  V30 2673 O 254.411 -0.890483 1.54702 0
M  V30 2674 C 251.511 -1.60479 2.98496 0
M  V30 2675 C 250.684 -1.15527 4.21868 0
M  V30 2676 C 249.743 -2.20454 4.77793 0
M  V30 2677 O 248.769 -1.8029 5.39893 0
M  V30 2678 N 249.971 -3.52831 4.60967 0
M  V30 2679 H 252.736 0.205749 2.98993 0
M  V30 2680 H 250.297 0.255867 1.59865 0
M  V30 2681 H 252.289 -2.30276 3.32799 0
M  V30 2682 H 250.859 -2.14061 2.27809 0
M  V30 2683 H 250.079 -0.284736 3.9317 0
M  V30 2684 H 251.367 -0.832173 5.01949 0
M  V30 2685 H 250.765 -3.88201 4.11481 0
M  V30 2686 H 249.322 -4.18551 4.99658 0
M  V30 2687 N 252.755 -1.56801 0.158532 0
M  V30 2688 C 253.705 -2.13923 -0.788738 0
M  V30 2689 C 254.689 -1.07006 -1.2016 0
M  V30 2690 O 255.881 -1.33159 -1.1661 0
M  V30 2691 C 253.01 -2.77348 -2.02319 0
M  V30 2692 C 252.096 -3.91404 -1.6329 0
M  V30 2693 N 252.487 -4.9677 -0.951463 0
M  V30 2694 C 250.785 -4.02326 -1.92482 0
M  V30 2695 C 251.486 -5.76698 -0.761221 0
M  V30 2696 N 250.462 -5.27859 -1.29869 0
M  V30 2697 H 254.264 -2.92757 -0.258995 0
M  V30 2698 H 251.778 -1.62344 -0.0426055 0
M  V30 2699 H 253.775 -3.16639 -2.71192 0
M  V30 2700 H 252.435 -1.99991 -2.558 0
M  V30 2701 H 253.446 -5.14284 -0.610928 0
M  V30 2702 H 250.123 -3.36059 -2.47732 0
M  V30 2703 H 251.513 -6.71529 -0.223284 0
M  V30 2704 N 254.233 0.115231 -1.57178 0
M  V30 2705 C 255.482 0.820945 -1.84237 0
M  V30 2706 C 255.795 1.80866 -0.744761 0
M  V30 2707 O 257.001 2.56083 -0.901871 0
M  V30 2708 C 255.457 1.51072 -3.26658 0
M  V30 2709 C 255.065 0.563795 -4.44438 0
M  V30 2710 C 256.809 2.20134 -3.62962 0
M  V30 2711 C 254.716 1.25701 -5.77887 0
M  V30 2712 H 253.646 0.310328 -0.687177 0
M  V30 2713 H 256.297 0.0737134 -1.83352 0
M  V30 2714 H 254.679 2.30471 -3.22024 0
M  V30 2715 H 255.853 -0.197247 -4.60378 0
M  V30 2716 H 254.168 -0.0200638 -4.16395 0
M  V30 2717 H 256.765 2.72696 -4.59936 0
M  V30 2718 H 257.108 2.98107 -2.90582 0
M  V30 2719 H 257.641 1.47619 -3.69396 0
M  V30 2720 H 254.38 0.518493 -6.53446 0
M  V30 2721 H 253.9 1.98997 -5.65827 0
M  V30 2722 H 255.579 1.78915 -6.2177 0
M  V30 2723 N 255.711 1.52812 0.385517 0
M  V30 2724 C 256.674 1.77188 1.45386 0
M  V30 2725 C 257.674 0.641953 1.4743 0
M  V30 2726 O 258.864 0.910033 1.4854 0
M  V30 2727 C 255.996 1.87582 2.8465 0
M  V30 2728 H 257.189 2.72583 1.25054 0
M  V30 2729 H 254.742 1.43586 0.617467 0
M  V30 2730 H 255.477 0.941849 3.10322 0
M  V30 2731 H 255.262 2.69748 2.84567 0
M  V30 2732 H 256.752 2.08102 3.62054 0
M  V30 2733 N 257.189 -0.644168 1.43834 0
M  V30 2734 C 258.417 -1.43147 1.49387 0
M  V30 2735 C 258.832 -1.88452 0.114583 0
M  V30 2736 O 258.189 -1.60047 -0.876989 0
M  V30 2737 C 258.24 -2.66046 2.44748 0
M  V30 2738 O 257.961 -2.22633 3.77314 0
M  V30 2739 C 259.462 -3.59311 2.59635 0
M  V30 2740 H 256.682 -0.439447 0.507077 0
M  V30 2741 H 259.226 -0.78895 1.88669 0
M  V30 2742 H 257.381 -3.26418 2.08638 0
M  V30 2743 H 257.795 -3.02216 4.28679 0
M  V30 2744 H 259.269 -4.42187 3.30416 0
M  V30 2745 H 259.746 -4.07259 1.64427 0
M  V30 2746 H 260.352 -3.04816 2.96593 0
M  V30 2747 N 258.668 -1.30515 -0.883378 0
M  V30 2748 C 259.893 -1.22487 -1.67367 0
M  V30 2749 C 260.318 0.208767 -1.86938 0
M  V30 2750 O 259.676 1.15015 -1.40148 0
M  V30 2751 C 259.724 -1.96041 -3.02655 0
M  V30 2752 O 258.828 -1.28859 -3.91751 0
M  V30 2753 H 258.169 -0.423573 -0.511353 0
M  V30 2754 H 260.699 -1.72362 -1.10239 0
M  V30 2755 H 260.709 -2.05124 -3.52687 0
M  V30 2756 H 259.384 -3.00307 -2.8773 0
M  V30 2757 H 257.961 -1.28141 -3.50192 0
M  V30 2758 N 260.146 1.09593 -1.13257 0
M  V30 2759 C 261.392 1.82003 -0.89458 0
M  V30 2760 C 261.725 1.85402 0.577906 0
M  V30 2761 O 261 1.32099 1.42759 0
M  V30 2762 C 261.283 3.28237 -1.48096 0
M  V30 2763 C 261.136 3.3312 -3.02244 0
M  V30 2764 C 262.455 4.24871 -1.14774 0
M  V30 2765 H 259.574 0.66077 -0.326424 0
M  V30 2766 H 262.216 1.28389 -1.40058 0
M  V30 2767 H 260.366 3.74024 -1.05062 0
M  V30 2768 H 262.038 2.95748 -3.54021 0
M  V30 2769 H 260.281 2.72756 -3.37323 0
M  V30 2770 H 260.952 4.3613 -3.38371 0
M  V30 2771 H 263.428 3.87361 -1.51957 0
M  V30 2772 H 262.304 5.25532 -1.58452 0
M  V30 2773 H 262.565 4.42058 -0.0611849 0
M  V30 2774 N 261.624 0.925811 1.2754 0
M  V30 2775 C 263.04 0.625767 1.46821 0
M  V30 2776 C 263.24 -0.825506 1.83814 0
M  V30 2777 O 262.296 -1.60356 1.95044 0
M  V30 2778 C 263.609 1.57402 2.56213 0
M  V30 2779 C 265.157 1.58204 2.70075 0
M  V30 2780 C 265.632 2.51721 3.82623 0
M  V30 2781 N 267.123 2.49917 3.89994 0
M  V30 2782 C 267.858 3.18968 4.76494 0
M  V30 2783 N 267.354 3.97391 5.67496 0
M  V30 2784 N 269.147 3.07996 4.70208 0
M  V30 2785 H 261.298 1.86409 1.01811 0
M  V30 2786 H 263.561 0.800213 0.508295 0
M  V30 2787 H 263.267 2.60925 2.35819 0
M  V30 2788 H 263.141 1.31428 3.53563 0
M  V30 2789 H 265.528 0.554124 2.89851 0
M  V30 2790 H 265.609 1.88226 1.73218 0
M  V30 2791 H 265.253 3.54622 3.63601 0
M  V30 2792 H 265.183 2.18996 4.78903 0
M  V30 2793 H 267.674 1.9296 3.24923 0
M  V30 2794 H 267.987 4.4707 6.30356 0
M  V30 2795 H 266.332 4.01495 5.67298 0
M  V30 2796 H 269.523 2.46223 3.9811 0
M  V30 2797 H 269.696 3.6208 5.37403 0
M  V30 2798 N 263.102 -1.41638 0.69111 0
M  V30 2799 C 264.349 -2.01299 0.220193 0
M  V30 2800 C 264.677 -1.54715 -1.17871 0
M  V30 2801 O 263.932 -0.747193 -1.80874 0
M  V30 2802 C 264.231 -3.56714 0.221277 0
M  V30 2803 C 263.897 -4.22792 1.56709 0
M  V30 2804 C 262.559 -4.40557 1.93554 0
M  V30 2805 C 264.911 -4.59883 2.45268 0
M  V30 2806 C 262.239 -4.92688 3.18552 0
M  V30 2807 C 264.591 -5.13403 3.69595 0
M  V30 2808 C 263.255 -5.29379 4.06589 0
M  V30 2809 H 262.525 -0.736606 0.0805743 0
M  V30 2810 H 265.172 -1.69598 0.889319 0
M  V30 2811 H 263.477 -3.8818 -0.531391 0
M  V30 2812 H 265.174 -4.00678 -0.160547 0
M  V30 2813 H 261.764 -4.09336 1.2705 0
M  V30 2814 H 265.948 -4.45817 2.18084 0
M  V30 2815 H 261.204 -5.03242 3.47214 0
M  V30 2816 H 265.378 -5.41084 4.38407 0
M  V30 2817 H 263.005 -5.69537 5.03519 0
M  V30 2818 N 264.58 -0.43555 -1.51462 0
M  V30 2819 C 265.857 0.191364 -1.94662 0
M  V30 2820 C 266.237 1.60254 -1.37411 0
M  V30 2821 O 265.585 2.2152 -0.560458 0
M  V30 2822 C 265.795 0.17091 -3.48581 0
M  V30 2823 C 267.143 0.377357 -4.2292 0
M  V30 2824 O 268.167 0.249104 -3.55328 0
M  V30 2825 O 267.026 0.63247 -5.42828 0
M  V30 2826 H 264.12 0.130932 -0.816569 0
M  V30 2827 H 266.666 -0.4934 -1.62369 0
M  V30 2828 H 265.438 -0.815738 -3.82703 0
M  V30 2829 H 265.061 0.898659 -3.87311 0
M  V30 2830 N 266.058 1.56714 -0.166846 0
M  V30 2831 C 267.335 1.88412 0.525373 0
M  V30 2832 C 267.715 1.07602 1.81618 0
M  V30 2833 O 267.063 0.168621 2.27877 0
M  V30 2834 C 267.273 3.40363 0.771613 0
M  V30 2835 C 268.621 4.10007 1.1036 0
M  V30 2836 O 269.645 3.45655 0.860304 0
M  V30 2837 O 268.504 5.2369 1.56239 0
M  V30 2838 H 265.598 0.781587 0.270278 0
M  V30 2839 H 268.144 1.68458 -0.204946 0
M  V30 2840 H 266.916 3.91046 -0.141093 0
M  V30 2841 H 266.539 3.65914 1.55541 0
M  V30 2842 N 267.536 -0.106894 1.57237 0
M  V30 2843 C 268.468 -1.15646 1.97885 0
M  V30 2844 C 269.481 -1.36981 0.879779 0
M  V30 2845 O 270.67 -1.35841 1.15799 0
M  V30 2846 C 267.77 -2.51425 2.27241 0
M  V30 2847 C 266.943 -2.50529 3.58545 0
M  V30 2848 C 266.002 -3.68145 3.75973 0
M  V30 2849 O 265.028 -3.51176 4.47956 0
M  V30 2850 N 266.23 -4.87177 3.15656 0
M  V30 2851 H 268.995 -0.81059 2.8853 0
M  V30 2852 H 266.556 -0.296024 1.59171 0
M  V30 2853 H 268.548 -3.28689 2.36105 0
M  V30 2854 H 267.118 -2.78147 1.42663 0
M  V30 2855 H 266.338 -1.58894 3.60758 0
M  V30 2856 H 267.626 -2.46997 4.44826 0
M  V30 2857 H 267.024 -5.03868 2.57165 0
M  V30 2858 H 265.581 -5.62075 3.30023 0
M  V30 2859 N 269.014 -1.53014 -0.377408 0
M  V30 2860 C 270.26 -1.68872 -1.12294 0
M  V30 2861 C 270.593 -0.433224 -1.89306 0
M  V30 2862 O 269.868 0.569258 -1.85983 0
M  V30 2863 C 270.151 -2.93115 -2.09179 0
M  V30 2864 C 270.004 -4.28794 -1.35853 0
M  V30 2865 C 271.323 -3.12928 -3.09458 0
M  V30 2866 H 268.442 -0.614518 -0.406862 0
M  V30 2867 H 271.084 -1.85633 -0.40503 0
M  V30 2868 H 269.234 -2.78956 -2.70399 0
M  V30 2869 H 270.906 -4.54742 -0.775082 0
M  V30 2870 H 269.149 -4.28744 -0.660364 0
M  V30 2871 H 269.82 -5.11837 -2.06706 0
M  V30 2872 H 272.296 -3.26194 -2.58334 0
M  V30 2873 H 271.172 -4.01316 -3.74482 0
M  V30 2874 H 271.433 -2.27669 -3.78971 0
M  V30 2875 N 270.492 0.636531 -1.44174 0
M  V30 2876 C 271.769 1.39463 -1.37148 0
M  V30 2877 C 272.149 2.11082 -0.027507 0
M  V30 2878 O 271.497 2.05954 0.989716 0
M  V30 2879 C 271.707 2.36552 -2.56601 0
M  V30 2880 C 273.055 3.00048 -3.00427 0
M  V30 2881 O 274.079 2.46878 -2.56767 0
M  V30 2882 O 272.938 3.96488 -3.76111 0
M  V30 2883 H 270.032 0.623903 -0.542839 0
M  V30 2884 H 272.578 0.662039 -1.56253 0
M  V30 2885 H 271.35 1.82692 -3.46034 0
M  V30 2886 H 270.973 3.17236 -2.39681 0
M  V30 2887 N 271.97 1.30982 0.876444 0
M  V30 2888 C 272.933 1.18054 1.96459 0
M  V30 2889 C 273.933 0.109399 1.60427 0
M  V30 2890 O 275.123 0.358173 1.70478 0
M  V30 2891 C 272.255 0.810616 3.31122 0
M  V30 2892 H 273.448 2.14735 2.09354 0
M  V30 2893 H 271.001 1.145 1.06392 0
M  V30 2894 H 271.736 -0.155322 3.23928 0
M  V30 2895 H 271.521 1.58481 3.58645 0
M  V30 2896 H 273.011 0.743876 4.10921 0
M  V30 2897 N 273.449 -1.08991 1.13837 0
M  V30 2898 C 274.697 -1.80899 0.901098 0
M  V30 2899 C 275.018 -1.86356 -0.574134 0
M  V30 2900 O 274.288 -1.35235 -1.41733 0
M  V30 2901 H 272.868 -0.669966 0.330386 0
M  V30 2902 H 275.53 -1.318 1.43578 0
M  V30 2903 H 274.626 -2.83929 1.29578 0
M  V30 2904 N 274.927 -0.932562 -1.27047 0
M  V30 2905 C 275.857 -0.452902 -2.29066 0
M  V30 2906 C 276.838 0.489338 -1.62909 0
M  V30 2907 O 278.023 0.393046 -1.90181 0
M  V30 2908 C 275.153 0.290698 -3.46081 0
M  V30 2909 C 274.107 -0.564168 -4.24265 0
M  V30 2910 C 273.433 0.308886 -5.33807 0
M  V30 2911 C 274.733 -1.83112 -4.89149 0
M  V30 2912 H 276.427 -1.30552 -2.69437 0
M  V30 2913 H 273.973 -0.629201 -1.29526 0
M  V30 2914 H 275.926 0.637233 -4.16554 0
M  V30 2915 H 274.65 1.17738 -3.0464 0
M  V30 2916 H 273.309 -0.893477 -3.55545 0
M  V30 2917 H 272.957 1.19467 -4.88607 0
M  V30 2918 H 272.657 -0.259633 -5.87026 0
M  V30 2919 H 274.181 0.650884 -6.07121 0
M  V30 2920 H 275.595 -1.55236 -5.51883 0
M  V30 2921 H 273.992 -2.34353 -5.52448 0
M  V30 2922 H 275.062 -2.54772 -4.12576 0
M  V30 2923 N 276.405 1.4127 -0.698611 0
M  V30 2924 C 277.654 2.00408 -0.227949 0
M  V30 2925 C 277.967 1.55981 1.18023 0
M  V30 2926 O 279.173 2.07699 1.74852 0
M  V30 2927 C 277.629 3.58129 -0.356636 0
M  V30 2928 C 277.237 4.11536 -1.77037 0
M  V30 2929 C 278.981 4.24466 0.0540969 0
M  V30 2930 C 276.888 5.61701 -1.85055 0
M  V30 2931 H 275.818 0.749586 -0.0814657 0
M  V30 2932 H 278.469 1.61713 -0.867249 0
M  V30 2933 H 276.851 3.94442 0.350965 0
M  V30 2934 H 278.025 3.86636 -2.50698 0
M  V30 2935 H 276.34 3.57736 -2.13105 0
M  V30 2936 H 278.937 5.34698 0.0146723 0
M  V30 2937 H 279.28 4.01687 1.09332 0
M  V30 2938 H 279.813 3.93198 -0.603337 0
M  V30 2939 H 276.552 5.89312 -2.8704 0
M  V30 2940 H 276.072 5.88519 -1.15783 0
M  V30 2941 H 277.751 6.26524 -1.61484 0
M  V30 2942 N 277.883 0.443576 1.51229 0
M  V30 2943 C 278.816 -0.410089 2.24485 0
M  V30 2944 C 279.794 -1.01949 1.26669 0
M  V30 2945 O 280.978 -1.06075 1.55821 0
M  V30 2946 C 278.105 -1.57211 3.00004 0
M  V30 2947 C 277.151 -1.08279 4.12526 0
M  V30 2948 S 277.984 -0.0197476 5.35496 0
M  V30 2949 C 279.14 -1.18629 6.14555 0
M  V30 2950 H 279.373 0.211832 2.96544 0
M  V30 2951 H 276.906 0.228156 1.52705 0
M  V30 2952 H 278.864 -2.23825 3.44111 0
M  V30 2953 H 277.525 -2.16547 2.27522 0
M  V30 2954 H 276.718 -1.95193 4.64667 0
M  V30 2955 H 276.32 -0.494797 3.70713 0
M  V30 2956 H 278.612 -2.10344 6.4402 0
M  V30 2957 H 279.555 -0.70472 7.04584 0
M  V30 2958 H 279.963 -1.42768 5.46148 0
M  V30 2959 N 279.361 -1.56624 0.175154 0
M  V30 2960 C 280.638 -1.88688 -0.515373 0
M  V30 2961 C 281.018 -1.08564 -1.81044 0
M  V30 2962 O 280.366 -0.180703 -2.27784 0
M  V30 2963 C 280.576 -3.40768 -0.753552 0
M  V30 2964 C 281.924 -4.10587 -1.08184 0
M  V30 2965 O 282.948 -3.46106 -0.841961 0
M  V30 2966 O 281.807 -5.24512 -1.53459 0
M  V30 2967 H 278.901 -0.78301 -0.26613 0
M  V30 2968 H 281.447 -1.68347 0.213877 0
M  V30 2969 H 280.219 -3.90965 0.161829 0
M  V30 2970 H 279.842 -3.66733 -1.53598 0
M  V30 2971 N 280.839 0.0985539 -1.57292 0
M  V30 2972 C 281.749 1.13824 -2.05137 0
M  V30 2973 C 282.765 1.44076 -0.975604 0
M  V30 2974 O 283.941 1.54786 -1.28853 0
M  V30 2975 C 281.006 2.43969 -2.46333 0
M  V30 2976 C 280.067 2.2093 -3.68087 0
M  V30 2977 C 279.3 3.44869 -4.0731 0
M  V30 2978 O 279.523 4.52972 -3.46659 0
M  V30 2979 O 278.457 3.34661 -5.00285 0
M  V30 2980 H 282.283 0.761881 -2.93988 0
M  V30 2981 H 279.868 0.310818 -1.46131 0
M  V30 2982 H 281.75 3.20609 -2.73473 0
M  V30 2983 H 280.425 2.81038 -1.60621 0
M  V30 2984 H 279.332 1.42081 -3.46069 0
M  V30 2985 H 280.665 1.88755 -4.54568 0
M  V30 2986 N 282.317 1.53212 0.369288 0
M  V30 2987 C 283.28 1.7872 1.43498 0
M  V30 2988 C 284.28 0.657554 1.46741 0
M  V30 2989 O 285.47 0.925736 1.47566 0
M  V30 2990 C 282.602 1.90591 2.82645 0
M  V30 2991 H 283.795 2.73894 1.22156 0
M  V30 2992 H 281.348 1.44233 0.602203 0
M  V30 2993 H 282.083 0.974709 3.09306 0
M  V30 2994 H 281.868 2.72751 2.8169 0
M  V30 2995 H 283.358 2.11931 3.59826 0
M  V30 2996 N 283.795 -0.628877 1.44509 0
M  V30 2997 C 284.758 -1.72263 1.51188 0
M  V30 2998 C 285.758 -1.55907 0.39367 0
M  V30 2999 O 286.948 -1.61361 0.656377 0
M  V30 3000 C 284.08 -3.11365 1.38798 0
M  V30 3001 H 285.273 -1.67714 2.4862 0
M  V30 3002 H 282.826 -0.842737 1.31634 0
M  V30 3003 H 283.561 -3.21507 0.424693 0
M  V30 3004 H 283.346 -3.24644 2.19884 0
M  V30 3005 H 284.836 -3.91075 1.46458 0
M  V30 3006 N 285.273 -1.31445 -0.869486 0
M  V30 3007 C 286.22 -1.19135 -1.97675 0
M  V30 3008 C 287.19 -0.0770266 -1.65921 0
M  V30 3009 O 288.375 -0.249972 -1.89155 0
M  V30 3010 C 285.515 -0.905149 -3.33018 0
M  V30 3011 C 284.628 -2.10285 -3.77365 0
M  V30 3012 C 283.763 -1.75339 -5.01427 0
M  V30 3013 C 282.802 -2.91515 -5.38224 0
M  V30 3014 N 281.939 -2.56762 -6.53466 0
M  V30 3015 H 286.779 -2.13853 -2.07535 0
M  V30 3016 H 284.316 -1.06379 -1.01597 0
M  V30 3017 H 286.274 -0.719765 -4.10944 0
M  V30 3018 H 284.904 0.00519624 -3.228 0
M  V30 3019 H 283.956 -2.39899 -2.95216 0
M  V30 3020 H 285.268 -2.97237 -4.00564 0
M  V30 3021 H 284.422 -1.53266 -5.87022 0
M  V30 3022 H 283.161 -0.855801 -4.80133 0
M  V30 3023 H 282.166 -3.14237 -4.51149 0
M  V30 3024 H 283.391 -3.81985 -5.61484 0
M  V30 3025 H 281.337 -1.69526 -6.33717 0
M  V30 3026 H 281.254 -3.37243 -6.76612 0
M  V30 3027 H 282.522 -2.38083 -7.42251 0
M  V30 3028 N 286.751 1.08385 -1.14413 0
M  V30 3029 C 287.981 1.8425 -0.934644 0
M  V30 3030 C 288.389 1.81907 0.520234 0
M  V30 3031 O 287.732 1.22126 1.37226 0
M  V30 3032 C 287.794 3.32853 -1.35828 0
M  V30 3033 C 287.458 3.5893 -2.82875 0
M  V30 3034 C 288.455 3.53756 -3.80989 0
M  V30 3035 C 286.14 3.86934 -3.20293 0
M  V30 3036 C 288.134 3.76216 -5.14529 0
M  V30 3037 C 285.821 4.09047 -4.54008 0
M  V30 3038 C 286.819 4.03682 -5.50936 0
M  V30 3039 O 286.507 4.25214 -6.82238 0
M  V30 3040 H 286.239 0.588502 -0.332628 0
M  V30 3041 H 288.793 1.37792 -1.52324 0
M  V30 3042 H 287.023 3.8007 -0.713019 0
M  V30 3043 H 288.712 3.90154 -1.11957 0
M  V30 3044 H 289.478 3.32135 -3.53428 0
M  V30 3045 H 285.357 3.9023 -2.45442 0
M  V30 3046 H 288.901 3.71943 -5.90173 0
M  V30 3047 H 284.798 4.30151 -4.8129 0
M  V30 3048 H 285.566 4.42619 -6.88499 0
M  V30 3049 N 288.23 0.939286 1.26551 0
M  V30 3050 C 289.46 0.601663 1.97645 0
M  V30 3051 C 289.868 -0.827206 1.70159 0
M  V30 3052 O 289.211 -1.56291 0.965338 0
M  V30 3053 C 289.273 0.761725 3.51337 0
M  V30 3054 C 288.937 2.16487 4.0247 0
M  V30 3055 C 289.934 3.14016 4.14355 0
M  V30 3056 C 287.619 2.48494 4.36527 0
M  V30 3057 C 289.613 4.41654 4.59587 0
M  V30 3058 C 287.3 3.76364 4.81449 0
M  V30 3059 C 288.298 4.72758 4.92939 0
M  V30 3060 O 287.986 5.98352 5.36871 0
M  V30 3061 H 287.718 0.225758 0.637189 0
M  V30 3062 H 290.272 1.26178 1.62075 0
M  V30 3063 H 288.502 0.0444808 3.86674 0
M  V30 3064 H 290.191 0.427442 4.03643 0
M  V30 3065 H 290.957 2.90613 3.8829 0
M  V30 3066 H 286.836 1.74202 4.26819 0
M  V30 3067 H 290.38 5.16896 4.68471 0
M  V30 3068 H 286.277 3.99582 5.06956 0
M  V30 3069 H 287.045 6.01507 5.55096 0
M  V30 3070 N 289.708 -1.40897 0.706093 0
M  V30 3071 C 290.671 -2.29131 0.0562841 0
M  V30 3072 C 291.671 -1.44901 -0.697166 0
M  V30 3073 O 292.861 -1.65926 -0.530484 0
M  V30 3074 C 289.993 -3.27957 -0.93043 0
M  V30 3075 H 291.186 -2.88091 0.833284 0
M  V30 3076 H 288.739 -1.4906 0.470192 0
M  V30 3077 H 289.474 -2.73997 -1.73482 0
M  V30 3078 H 289.259 -3.90124 -0.393166 0
M  V30 3079 H 290.749 -3.94049 -1.38256 0
M  V30 3080 N 291.186 -0.45159 -1.50991 0
M  V30 3081 C 292.134 0.366864 -2.29689 0
M  V30 3082 C 293.128 1.00809 -1.36139 0
M  V30 3083 O 294.334 0.941427 -1.53418 0
M  V30 3084 H 290.709 0.137133 -0.739391 0
M  V30 3085 H 292.68 -0.317538 -2.96706 0
M  V30 3086 C 291.429 1.44751 -3.16137 0
M  V30 3087 H 290.752 0.963473 -3.88017 0
M  V30 3088 H 292.192 1.99315 -3.74232 0
M  V30 3089 C 290.651 2.43869 -2.32442 0
M  V30 3090 O 291.181 3.4872 -1.99392 0
M  V30 3091 N 289.387 2.15105 -1.95392 0
M  V30 3092 H 288.934 1.29866 -2.22469 0
M  V30 3093 H 288.892 2.81661 -1.39693 0
M  V30 3094 N 292.664 1.56529 -0.183458 0
M  V30 3095 C 293.913 1.96419 0.458511 0
M  V30 3096 C 294.226 1.0727 1.63562 0
M  V30 3097 O 295.432 1.36893 2.34462 0
M  V30 3098 C 293.888 3.49298 0.867122 0
M  V30 3099 C 293.496 4.47092 -0.285057 0
M  V30 3100 C 295.24 3.97983 1.47683 0
M  V30 3101 C 293.147 5.91225 0.143862 0
M  V30 3102 H 292.077 0.733394 0.175071 0
M  V30 3103 H 294.728 1.81448 -0.273624 0
M  V30 3104 H 293.11 3.59731 1.65559 0
M  V30 3105 H 294.284 4.48383 -1.0625 0
M  V30 3106 H 292.599 4.08535 -0.805503 0
M  V30 3107 H 295.196 5.03134 1.80999 0
M  V30 3108 H 295.539 3.41618 2.37914 0
M  V30 3109 H 296.072 3.90617 0.752562 0
M  V30 3110 H 292.811 6.5149 -0.723974 0
M  V30 3111 H 292.331 5.93214 0.886413 0
M  V30 3112 H 294.01 6.44362 0.583628 0
M  V30 3113 N 294.142 -0.090211 1.57342 0
M  V30 3114 C 295.072 -1.10976 2.05443 0
M  V30 3115 C 296.053 -1.41482 0.944284 0
M  V30 3116 O 297.238 -1.51428 1.21586 0
M  V30 3117 C 294.368 -2.42831 2.48295 0
M  V30 3118 C 293.322 -2.26721 3.63018 0
M  V30 3119 C 292.648 -3.63796 3.91863 0
M  V30 3120 C 293.948 -1.7037 4.93732 0
M  V30 3121 H 295.642 -0.709564 2.9087 0
M  V30 3122 H 293.188 -0.339874 1.39932 0
M  V30 3123 H 295.141 -3.14431 2.80555 0
M  V30 3124 H 293.865 -2.84795 1.59873 0
M  V30 3125 H 292.524 -1.57565 3.31012 0
M  V30 3126 H 292.172 -4.03297 3.00601 0
M  V30 3127 H 291.872 -3.53861 4.69101 0
M  V30 3128 H 293.396 -4.36855 4.26603 0
M  V30 3129 H 294.81 -2.31816 5.24342 0
M  V30 3130 H 293.207 -1.71181 5.75167 0
M  V30 3131 H 294.277 -0.663542 4.80339 0
M  V30 3132 N 295.62 -1.53406 -0.361157 0
M  V30 3133 C 296.553 -1.74946 -1.46524 0
M  V30 3134 C 297.531 -0.59795 -1.51206 0
M  V30 3135 O 298.715 -0.831062 -1.69191 0
M  V30 3136 C 295.842 -1.83224 -2.84863 0
M  V30 3137 C 294.888 -3.05233 -2.97885 0
M  V30 3138 S 295.721 -4.6466 -2.66179 0
M  V30 3139 C 296.877 -4.75793 -4.06659 0
M  V30 3140 H 297.11 -2.68319 -1.28033 0
M  V30 3141 H 294.643 -1.44051 -0.555764 0
M  V30 3142 H 296.601 -1.88679 -3.64569 0
M  V30 3143 H 295.262 -0.908948 -3.00661 0
M  V30 3144 H 294.455 -3.07648 -3.9921 0
M  V30 3145 H 294.057 -2.97913 -2.26106 0
M  V30 3146 H 296.349 -4.5612 -5.0096 0
M  V30 3147 H 297.292 -5.7786 -4.09247 0
M  V30 3148 H 297.7 -4.04389 -3.93865 0
M  V30 3149 N 297.098 0.621204 -1.44841 0
M  V30 3150 C 298.509 1.20298 -1.42777 0
M  V30 3151 C 298.86 1.95639 -0.148259 0
M  V30 3152 O 297.985 2.02955 0.750892 0
M  V30 3153 C 298.58 2.1882 -2.58657 0
M  V30 3154 C 297.139 2.72403 -2.59756 0
M  V30 3155 C 296.286 1.4757 -2.34773 0
M  V30 3156 H 299.237 0.411297 -1.53278 0
M  V30 3157 H 299.258 3.01607 -2.31977 0
M  V30 3158 H 298.77 1.63957 -3.51766 0
M  V30 3159 H 296.871 3.31242 -1.70615 0
M  V30 3160 H 296.984 3.17765 -3.58556 0
M  V30 3161 H 295.348 1.76051 -1.8406 0
M  V30 3162 H 296.131 0.945954 -3.3001 0
M  V30 3163 N 298.576 1.31904 0.862503 0
M  V30 3164 C 299.823 1.22017 1.61611 0
M  V30 3165 C 300.151 -0.21991 1.93253 0
M  V30 3166 O 299.406 -1.17076 1.56817 0
M  V30 3167 C 299.705 2.01713 2.95037 0
M  V30 3168 C 299.371 3.51145 2.82857 0
M  V30 3169 C 298.033 3.91889 2.79243 0
M  V30 3170 C 300.385 4.46204 2.69353 0
M  V30 3171 C 297.713 5.25947 2.59993 0
M  V30 3172 C 300.065 5.80397 2.5164 0
M  V30 3173 C 298.729 6.20352 2.46413 0
M  V30 3174 H 297.999 0.44649 0.591378 0
M  V30 3175 H 300.646 1.63248 1.00111 0
M  V30 3176 H 298.951 1.53185 3.60613 0
M  V30 3177 H 300.648 1.91437 3.52353 0
M  V30 3178 H 297.238 3.1878 2.86491 0
M  V30 3179 H 301.422 4.15652 2.71196 0
M  V30 3180 H 296.678 5.5597 2.54376 0
M  V30 3181 H 300.852 6.53676 2.40169 0
M  V30 3182 H 298.479 7.24172 2.31256 0
M  V30 3183 N 300.054 -1.07777 1.14986 0
M  V30 3184 C 301.279 -1.84558 0.946213 0
M  V30 3185 C 301.704 -1.81323 -0.500362 0
M  V30 3186 O 301.062 -1.20301 -1.35637 0
M  V30 3187 C 301.11 -3.29736 1.45968 0
M  V30 3188 O 300.214 -4.07149 0.65601 0
M  V30 3189 H 299.555 -0.571641 0.33782 0
M  V30 3190 H 302.085 -1.35991 1.52865 0
M  V30 3191 H 302.095 -3.80574 1.47063 0
M  V30 3192 H 300.77 -3.31406 2.51283 0
M  V30 3193 H 299.347 -3.65994 0.714322 0
M  V30 3194 N 301.532 -0.945985 -1.26051 0
M  V30 3195 C 302.48 -0.450259 -2.282 0
M  V30 3196 C 303.474 0.47497 -1.62605 0
M  V30 3197 O 304.68 0.352653 -1.76512 0
M  V30 3198 H 301.055 -0.127081 -0.741184 0
M  V30 3199 H 303.026 -1.32422 -2.67408 0
M  V30 3200 C 301.775 0.26467 -3.46691 0
M  V30 3201 H 301.098 -0.438123 -3.97392 0
M  V30 3202 H 302.538 0.575678 -4.20074 0
M  V30 3203 C 300.997 1.48416 -3.02447 0
M  V30 3204 O 301.527 2.58227 -3.07704 0
M  V30 3205 N 299.733 1.34243 -2.57735 0
M  V30 3206 H 299.28 0.448994 -2.53657 0
M  V30 3207 H 299.238 2.15957 -2.28495 0
M  V30 3208 N 303.011 1.40521 -0.713556 0
M  V30 3209 C 303.941 2.33381 -0.0743864 0
M  V30 3210 C 304.922 1.52784 0.747735 0
M  V30 3211 O 306.107 1.81258 0.697071 0
M  V30 3212 C 303.237 3.36748 0.849598 0
M  V30 3213 C 302.191 4.27793 0.133247 0
M  V30 3214 C 301.517 5.21679 1.17281 0
M  V30 3215 C 302.817 5.12415 -1.01134 0
M  V30 3216 H 304.511 2.87081 -0.850007 0
M  V30 3217 H 302.057 1.38034 -0.410201 0
M  V30 3218 H 304.01 4.00648 1.30612 0
M  V30 3219 H 302.734 2.81439 1.65709 0
M  V30 3220 H 301.393 3.65342 -0.303426 0
M  V30 3221 H 301.041 4.62677 1.9733 0
M  V30 3222 H 300.741 5.83435 0.698397 0
M  V30 3223 H 302.265 5.88456 1.62947 0
M  V30 3224 H 303.679 5.69781 -0.634274 0
M  V30 3225 H 302.076 5.83203 -1.41399 0
M  V30 3226 H 303.146 4.48514 -1.84292 0
M  V30 3227 N 304.489 0.459591 1.5075 0
M  V30 3228 C 305.738 -0.100971 2.01447 0
M  V30 3229 C 306.051 -1.41816 1.34713 0
M  V30 3230 O 307.257 -2.06299 1.76502 0
M  V30 3231 C 305.713 -0.23047 3.59161 0
M  V30 3232 C 305.321 1.0776 4.34847 0
M  V30 3233 C 307.065 -0.743608 4.17936 0
M  V30 3234 C 304.972 0.91253 5.84317 0
M  V30 3235 H 303.902 -0.0415102 0.752856 0
M  V30 3236 H 306.553 0.592742 1.73663 0
M  V30 3237 H 304.935 -0.987703 3.83485 0
M  V30 3238 H 306.109 1.8449 4.22256 0
M  V30 3239 H 304.424 1.52097 3.87628 0
M  V30 3240 H 307.021 -0.883959 5.27343 0
M  V30 3241 H 307.364 -1.73196 3.78562 0
M  V30 3242 H 307.897 -0.04408 3.97776 0
M  V30 3243 H 304.636 1.87391 6.28144 0
M  V30 3244 H 304.156 0.185422 5.99513 0
M  V30 3245 H 305.835 0.574547 6.44444 0
M  V30 3246 N 305.967 -1.56429 0.191757 0
M  V30 3247 C 307.195 -2.01867 -0.453586 0
M  V30 3248 C 307.61 -1.07191 -1.5542 0
M  V30 3249 O 306.967 -0.0762108 -1.82341 0
M  V30 3250 C 307.018 -3.47017 -1.013 0
M  V30 3251 O 306.739 -4.38078 0.0437005 0
M  V30 3252 C 308.24 -4.07956 -1.73456 0
M  V30 3253 H 305.46 -0.661211 -0.114199 0
M  V30 3254 H 308.004 -2.02295 0.299483 0
M  V30 3255 H 306.159 -3.47298 -1.71647 0
M  V30 3256 H 306.573 -5.23178 -0.372212 0
M  V30 3257 H 308.047 -5.1138 -2.07833 0
M  V30 3258 H 308.524 -3.51222 -2.63704 0
M  V30 3259 H 309.13 -4.11437 -1.07702 0
M  V30 3260 N 307.445 0.0818655 -1.57387 0
M  V30 3261 C 308.392 1.09834 -2.0299 0
M  V30 3262 C 309.362 1.39043 -0.908639 0
M  V30 3263 O 310.547 1.50282 -1.17559 0
M  V30 3264 C 307.687 2.40971 -2.47037 0
M  V30 3265 C 306.8 2.18379 -3.7274 0
M  V30 3266 C 305.935 3.43008 -4.0561 0
M  V30 3267 C 304.974 3.15736 -5.24383 0
M  V30 3268 N 304.111 4.32667 -5.52941 0
M  V30 3269 H 308.951 0.702472 -2.89602 0
M  V30 3270 H 306.488 0.33531 -1.43227 0
M  V30 3271 H 308.446 3.1752 -2.70623 0
M  V30 3272 H 307.076 2.78379 -1.63417 0
M  V30 3273 H 306.128 1.32569 -3.56552 0
M  V30 3274 H 307.44 1.94227 -4.59431 0
M  V30 3275 H 306.594 4.27958 -4.30043 0
M  V30 3276 H 305.333 3.70225 -3.17466 0
M  V30 3277 H 304.338 2.2918 -4.99757 0
M  V30 3278 H 305.563 2.8985 -6.14136 0
M  V30 3279 H 303.509 4.59935 -4.67756 0
M  V30 3280 H 303.426 4.11753 -6.34031 0
M  V30 3281 H 304.694 5.18644 -5.81918 0
M  V30 3282 N 308.923 1.53595 0.353017 0
M  V30 3283 C 309.87 1.80919 1.43308 0
M  V30 3284 C 310.84 0.654288 1.5267 0
M  V30 3285 O 312.025 0.897759 1.6836 0
M  V30 3286 C 309.165 2.01605 2.80089 0
M  V30 3287 C 308.278 3.29321 2.79593 0
M  V30 3288 C 307.413 3.40125 4.0803 0
M  V30 3289 C 306.452 4.61826 4.01725 0
M  V30 3290 N 305.589 4.69716 5.21834 0
M  V30 3291 H 310.429 2.73074 1.19308 0
M  V30 3292 H 307.966 1.35263 0.578131 0
M  V30 3293 H 309.924 2.11586 3.59565 0
M  V30 3294 H 308.554 1.12772 3.0246 0
M  V30 3295 H 307.606 3.28229 1.92276 0
M  V30 3296 H 308.918 4.18884 2.70809 0
M  V30 3297 H 308.072 3.49488 4.95927 0
M  V30 3298 H 306.811 2.48601 4.19582 0
M  V30 3299 H 305.816 4.52552 3.12213 0
M  V30 3300 H 307.041 5.54705 3.91764 0
M  V30 3301 H 304.987 3.81097 5.33948 0
M  V30 3302 H 304.904 5.53202 5.1527 0
M  V30 3303 H 306.172 4.83376 6.11529 0
M  V30 3304 N 310.401 -0.613514 1.45168 0
M  V30 3305 C 311.331 -1.7354 1.56225 0
M  V30 3306 C 312.312 -1.64981 0.41414 0
M  V30 3307 O 313.497 -1.83472 0.636526 0
M  V30 3308 C 310.627 -3.12128 1.52295 0
M  V30 3309 C 309.581 -3.35491 2.65762 0
M  V30 3310 C 308.907 -4.74291 2.46885 0
M  V30 3311 C 310.207 -3.26325 4.0781 0
M  V30 3312 H 311.901 -1.64543 2.50132 0
M  V30 3313 H 309.447 -0.790185 1.20383 0
M  V30 3314 H 311.4 -3.90404 1.58628 0
M  V30 3315 H 310.124 -3.2195 0.549139 0
M  V30 3316 H 308.783 -2.59603 2.58847 0
M  V30 3317 H 308.431 -4.80839 1.47657 0
M  V30 3318 H 308.131 -4.9088 3.22972 0
M  V30 3319 H 309.655 -5.54775 2.55063 0
M  V30 3320 H 311.069 -3.94483 4.16 0
M  V30 3321 H 309.466 -3.54445 4.8424 0
M  V30 3322 H 310.536 -2.23855 4.30136 0
M  V30 3323 N 311.879 -1.3236 -0.855495 0
M  V30 3324 C 313.156 -1.13491 -1.59309 0
M  V30 3325 C 313.536 0.30503 -2.08885 0
M  V30 3326 O 312.884 1.30151 -1.87811 0
M  V30 3327 C 313.094 -2.16176 -2.73987 0
M  V30 3328 C 314.442 -2.49463 -3.43589 0
M  V30 3329 O 315.466 -2.14715 -2.84211 0
M  V30 3330 O 314.325 -3.09027 -4.50738 0
M  V30 3331 H 311.419 -0.437887 -0.701559 0
M  V30 3332 H 313.965 -1.43887 -0.899696 0
M  V30 3333 H 312.737 -3.1297 -2.34873 0
M  V30 3334 H 312.36 -1.86769 -3.51003 0
M  V30 3335 N 313.357 1.07166 -1.15556 0
M  V30 3336 C 314.267 2.17947 -0.868116 0
M  V30 3337 C 315.283 1.73297 0.156297 0
M  V30 3338 O 316.459 2.01392 -0.0182327 0
M  V30 3339 C 313.524 3.44789 -0.36355 0
M  V30 3340 C 312.585 4.03996 -1.45209 0
M  V30 3341 C 311.818 5.24783 -0.971508 0
M  V30 3342 O 312.041 5.70109 0.182194 0
M  V30 3343 O 310.975 5.75715 -1.75603 0
M  V30 3344 H 314.801 2.4503 -1.79427 0
M  V30 3345 H 312.386 1.16539 -0.934824 0
M  V30 3346 H 314.268 4.21307 -0.0887113 0
M  V30 3347 H 312.943 3.19253 0.534708 0
M  V30 3348 H 311.85 3.29009 -1.78056 0
M  V30 3349 H 313.183 4.33808 -2.32533 0
M  V30 3350 N 314.835 0.952656 1.25548 0
M  V30 3351 C 316.084 0.602053 1.92505 0
M  V30 3352 C 316.397 -0.864663 1.75451 0
M  V30 3353 O 317.603 -1.32514 2.36965 0
M  V30 3354 C 316.059 1.02607 3.44963 0
M  V30 3355 C 315.667 2.51519 3.70732 0
M  V30 3356 C 317.411 0.747905 4.1786 0
M  V30 3357 C 315.318 2.87732 5.16686 0
M  V30 3358 H 314.248 0.22146 0.720744 0
M  V30 3359 H 316.899 1.15684 1.42441 0
M  V30 3360 H 315.281 0.399712 3.93978 0
M  V30 3361 H 316.455 3.19157 3.32378 0
M  V30 3362 H 314.77 2.76786 3.11092 0
M  V30 3363 H 317.367 0.994647 5.25367 0
M  V30 3364 H 317.71 -0.315629 4.15102 0
M  V30 3365 H 318.243 1.33452 3.74747 0
M  V30 3366 H 314.982 3.93095 5.24554 0
M  V30 3367 H 314.502 2.24765 5.56094 0
M  V30 3368 H 316.181 2.76817 5.84792 0
M  V30 3369 N 316.313 -1.40141 0.720998 0
M  V30 3370 C 317.245 -2.29177 0.0324669 0
M  V30 3371 C 318.258 -1.46105 -0.718126 0
M  V30 3372 O 319.447 -1.69335 -0.564608 0
M  V30 3373 C 316.547 -3.24473 -0.978292 0
M  V30 3374 C 315.72 -4.36423 -0.292115 0
M  V30 3375 C 314.779 -5.12122 -1.20901 0
M  V30 3376 O 313.805 -5.64981 -0.691766 0
M  V30 3377 N 315.007 -5.21992 -2.53978 0
M  V30 3378 H 317.772 -2.88909 0.796984 0
M  V30 3379 H 315.333 -1.51569 0.569068 0
M  V30 3380 H 317.325 -3.71987 -1.59398 0
M  V30 3381 H 315.895 -2.65871 -1.64413 0
M  V30 3382 H 315.115 -3.90967 0.503847 0
M  V30 3383 H 316.403 -5.08467 0.183971 0
M  V30 3384 H 315.801 -4.8054 -2.98493 0
M  V30 3385 H 314.358 -5.72995 -3.10677 0
M  V30 3386 N 317.792 -0.46758 -1.50504 0
M  V30 3387 C 318.739 0.328413 -2.28452 0
M  V30 3388 C 319.709 0.990313 -1.33349 0
M  V30 3389 O 320.894 1.00343 -1.62284 0
M  V30 3390 C 318.034 1.40648 -3.15138 0
M  V30 3391 C 317.147 0.759709 -4.25267 0
M  V30 3392 C 316.282 1.81537 -4.99217 0
M  V30 3393 C 315.321 1.14866 -6.01226 0
M  V30 3394 N 314.458 2.14702 -6.68467 0
M  V30 3395 H 319.298 -0.342603 -2.96024 0
M  V30 3396 H 316.835 -0.180801 -1.45985 0
M  V30 3397 H 318.793 2.04315 -3.63746 0
M  V30 3398 H 317.423 2.04671 -2.49619 0
M  V30 3399 H 316.475 0.0105671 -3.80399 0
M  V30 3400 H 317.787 0.233243 -4.98254 0
M  V30 3401 H 316.941 2.52793 -5.51526 0
M  V30 3402 H 315.68 2.37564 -4.25928 0
M  V30 3403 H 314.685 0.42171 -5.4818 0
M  V30 3404 H 315.91 0.595334 -6.76485 0
M  V30 3405 H 313.856 2.69752 -5.97972 0
M  V30 3406 H 313.773 1.6703 -7.37317 0
M  V30 3407 H 315.041 2.85348 -7.25394 0
M  V30 3408 N 319.27 1.56325 -0.20005 0
M  V30 3409 C 320.519 1.96895 0.437652 0
M  V30 3410 C 320.832 1.08999 1.62415 0
M  V30 3411 O 322.038 1.39372 2.32997 0
M  V30 3412 C 320.494 3.50198 0.830025 0
M  V30 3413 C 320.102 4.46765 -0.332461 0
M  V30 3414 C 321.846 3.99526 1.43453 0
M  V30 3415 C 319.753 5.91344 0.0811468 0
M  V30 3416 H 318.683 0.735209 0.167282 0
M  V30 3417 H 321.334 1.81148 -0.292853 0
M  V30 3418 H 319.716 3.61467 1.61734 0
M  V30 3419 H 320.89 4.47231 -1.11 0
M  V30 3420 H 319.205 4.07657 -0.848789 0
M  V30 3421 H 321.802 5.05025 1.75652 0
M  V30 3422 H 322.145 3.44122 2.34277 0
M  V30 3423 H 322.678 3.91393 0.71109 0
M  V30 3424 H 319.417 6.50685 -0.793033 0
M  V30 3425 H 318.937 5.94121 0.823445 0
M  V30 3426 H 320.616 6.44945 0.515252 0
M  V30 3427 N 320.748 -0.0735177 1.57428 0
M  V30 3428 C 321.696 -1.10628 2.04607 0
M  V30 3429 C 322.69 -1.40181 0.951088 0
M  V30 3430 O 323.896 -1.39608 1.1362 0
M  V30 3431 H 320.271 -0.374088 0.652351 0
M  V30 3432 H 322.242 -0.682218 2.90497 0
M  V30 3433 C 320.991 -2.41212 2.50423 0
M  V30 3434 H 320.314 -2.19322 3.34272 0
M  V30 3435 H 321.754 -3.11927 2.87189 0
M  V30 3436 C 320.213 -3.0705 1.38644 0
M  V30 3437 O 320.743 -3.95056 0.727582 0
M  V30 3438 N 318.949 -2.67645 1.132 0
M  V30 3439 H 318.496 -1.96169 1.66959 0
M  V30 3440 H 318.454 -3.1202 0.386147 0
M  V30 3441 N 322.226 -1.5378 -0.344866 0
M  V30 3442 C 323.156 -1.84662 -1.42906 0
M  V30 3443 C 324.137 -0.701648 -1.54955 0
M  V30 3444 O 325.322 -0.953438 -1.69184 0
M  V30 3445 C 322.452 -2.05503 -2.79974 0
M  V30 3446 C 321.406 -3.21318 -2.82734 0
M  V30 3447 C 320.732 -3.2749 -4.22675 0
M  V30 3448 C 322.032 -4.59456 -2.48389 0
M  V30 3449 H 323.726 -2.75461 -1.17311 0
M  V30 3450 H 321.272 -1.32542 -0.562896 0
M  V30 3451 H 323.225 -2.25691 -3.55867 0
M  V30 3452 H 321.949 -1.11434 -3.07002 0
M  V30 3453 H 320.608 -3.00984 -2.09294 0
M  V30 3454 H 320.256 -2.31019 -4.4681 0
M  V30 3455 H 319.956 -4.05316 -4.25433 0
M  V30 3456 H 321.48 -3.49887 -5.00412 0
M  V30 3457 H 322.894 -4.79667 -3.13995 0
M  V30 3458 H 321.291 -5.39675 -2.62432 0
M  V30 3459 H 322.361 -4.63155 -1.4358 0
M  V30 3460 N 323.704 0.605807 -1.45491 0
M  V30 3461 C 324.667 1.69836 -1.5391 0
M  V30 3462 C 325.667 1.55261 -0.418424 0
M  V30 3463 O 326.857 1.60296 -0.681965 0
M  V30 3464 C 323.989 3.09117 -1.43734 0
M  V30 3465 H 325.182 1.63738 -2.51257 0
M  V30 3466 H 322.735 0.821689 -1.32959 0
M  V30 3467 H 323.47 3.20791 -0.475788 0
M  V30 3468 H 323.255 3.21104 -2.25021 0
M  V30 3469 H 324.745 3.88696 -1.52661 0
M  V30 3470 N 325.182 1.32811 0.848464 0
M  V30 3471 C 326.431 1.23075 1.59798 0
M  V30 3472 C 326.744 -0.204419 1.94529 0
M  V30 3473 O 327.95 -0.423701 2.68173 0
M  V30 3474 C 326.406 2.15594 2.88179 0
M  V30 3475 C 326.014 3.64228 2.60849 0
M  V30 3476 C 327.758 2.14709 3.66197 0
M  V30 3477 C 325.665 4.48689 3.85269 0
M  V30 3478 H 324.595 0.457091 0.599653 0
M  V30 3479 H 327.246 1.57813 0.936342 0
M  V30 3480 H 325.628 1.73778 3.55833 0
M  V30 3481 H 326.802 4.14424 2.01467 0
M  V30 3482 H 325.117 3.67306 1.96151 0
M  V30 3483 H 327.714 2.75046 4.58534 0
M  V30 3484 H 328.057 1.13966 4.00397 0
M  V30 3485 H 328.59 2.54837 3.05455 0
M  V30 3486 H 325.329 5.5027 3.56207 0
M  V30 3487 H 324.849 4.03241 4.44024 0
M  V30 3488 H 326.528 4.62006 4.52946 0
M  V30 3489 N 326.66 -1.06551 1.16123 0
M  V30 3490 C 327.607 -2.13961 0.865414 0
M  V30 3491 C 328.577 -1.65066 -0.185055 0
M  V30 3492 O 329.762 -1.90732 -0.05083 0
M  V30 3493 C 326.902 -3.43113 0.369776 0
M  V30 3494 C 326.015 -4.05756 1.48276 0
M  V30 3495 C 325.15 -5.22773 0.942414 0
M  V30 3496 C 324.189 -5.77395 2.03179 0
M  V30 3497 N 323.326 -6.85731 1.50721 0
M  V30 3498 H 328.166 -2.38605 1.78527 0
M  V30 3499 H 325.703 -1.17072 0.890646 0
M  V30 3500 H 327.661 -4.17151 0.0640643 0
M  V30 3501 H 326.291 -3.18695 -0.513143 0
M  V30 3502 H 325.343 -3.29292 1.9045 0
M  V30 3503 H 326.655 -4.42351 2.30493 0
M  V30 3504 H 325.809 -6.03827 0.589729 0
M  V30 3505 H 324.548 -4.87618 0.0895191 0
M  V30 3506 H 323.553 -4.94981 2.3932 0
M  V30 3507 H 324.778 -6.14603 2.8886 0
M  V30 3508 H 322.724 -6.52499 0.676811 0
M  V30 3509 H 322.641 -7.21254 2.26557 0
M  V30 3510 H 323.909 -7.7047 1.18303 0
M  V30 3511 N 328.138 -0.959301 -1.25041 0
M  V30 3512 C 329.366 -0.633949 -1.96948 0
M  V30 3513 C 329.781 0.794916 -1.7125 0
M  V30 3514 O 329.138 1.53231 -0.991287 0
M  V30 3515 C 329.189 -0.888805 -3.50403 0
M  V30 3516 O 328.91 -2.26149 -3.75218 0
M  V30 3517 C 330.411 -0.576482 -4.39536 0
M  V30 3518 H 327.631 -0.237263 -0.627652 0
M  V30 3519 H 330.175 -1.28495 -1.59089 0
M  V30 3520 H 328.33 -0.284145 -3.86357 0
M  V30 3521 H 328.744 -2.33514 -4.6965 0
M  V30 3522 H 330.218 -0.805314 -5.46094 0
M  V30 3523 H 330.695 0.489075 -4.36468 0
M  V30 3524 H 331.301 -1.16067 -4.09156 0
M  V30 3525 N 329.616 1.39756 -0.72842 0
M  V30 3526 C 330.865 1.99879 -0.270407 0
M  V30 3527 C 331.178 1.58449 1.14688 0
M  V30 3528 O 332.384 2.11362 1.70407 0
M  V30 3529 C 330.84 3.57292 -0.43252 0
M  V30 3530 C 330.448 4.07688 -1.85727 0
M  V30 3531 C 332.192 4.24485 -0.0359507 0
M  V30 3532 C 330.099 5.5765 -1.96928 0
M  V30 3533 H 329.029 0.747689 -0.0973472 0
M  V30 3534 H 331.68 1.59837 -0.901355 0
M  V30 3535 H 330.062 3.95097 0.267219 0
M  V30 3536 H 331.236 3.81231 -2.58843 0
M  V30 3537 H 329.551 3.53135 -2.20646 0
M  V30 3538 H 332.148 5.34609 -0.0987484 0
M  V30 3539 H 332.491 4.03915 1.00787 0
M  V30 3540 H 333.024 3.9183 -0.686604 0
M  V30 3541 H 329.763 5.8309 -2.99476 0
M  V30 3542 H 329.283 5.8593 -1.28241 0
M  V30 3543 H 330.962 6.22957 -1.74737 0
M  V30 3544 N 331.094 0.475555 1.50254 0
M  V30 3545 C 332.057 -0.305016 2.27161 0
M  V30 3546 C 333.057 -0.916519 1.32123 0
M  V30 3547 O 334.247 -0.785003 1.5551 0
M  V30 3548 C 331.379 -1.43496 3.09227 0
M  V30 3549 H 332.572 0.369511 2.97615 0
M  V30 3550 H 330.125 0.229747 1.54602 0
M  V30 3551 H 330.86 -2.14441 2.43281 0
M  V30 3552 H 330.645 -1.00223 3.79075 0
M  V30 3553 H 332.135 -1.98548 3.67381 0
M  V30 3554 N 332.573 -1.56217 0.208337 0
M  V30 3555 C 333.984 -1.84243 -0.301904 0
M  V30 3556 C 334.335 -1.12939 -1.60434 0
M  V30 3557 O 333.46 -0.39461 -2.12772 0
M  V30 3558 C 334.055 -3.34231 -0.554543 0
M  V30 3559 C 332.614 -3.62621 -1.00912 0
M  V30 3560 C 331.761 -2.77224 -0.064933 0
M  V30 3561 H 334.712 -1.52712 0.431833 0
M  V30 3562 H 334.733 -3.5372 -1.40223 0
M  V30 3563 H 334.245 -3.86099 0.393561 0
M  V30 3564 H 332.346 -3.16197 -1.97104 0
M  V30 3565 H 332.459 -4.7071 -0.892674 0
M  V30 3566 H 330.823 -2.48256 -0.56929 0
M  V30 3567 H 331.606 -3.31887 0.877851 0
M  V30 3568 N 334.051 0.0651679 -1.57465 0
M  V30 3569 C 335.276 0.779605 -1.9219 0
M  V30 3570 C 335.701 1.69988 -0.805333 0
M  V30 3571 O 335.059 1.79685 0.241435 0
M  V30 3572 C 335.107 1.54364 -3.2589 0
M  V30 3573 O 334.211 2.65474 -3.1559 0
M  V30 3574 H 333.552 0.212249 -0.629163 0
M  V30 3575 H 336.082 0.0314294 -2.04576 0
M  V30 3576 H 336.092 1.92146 -3.59922 0
M  V30 3577 H 334.767 0.868457 -4.06732 0
M  V30 3578 H 333.344 2.30501 -2.93128 0
M  V30 3579 N 335.529 1.53961 0.336706 0
M  V30 3580 C 336.479 1.7881 1.41461 0
M  V30 3581 C 337.463 0.643561 1.47469 0
M  V30 3582 O 338.655 0.903166 1.52223 0
M  V30 3583 C 335.784 2.00722 2.78506 0
M  V30 3584 C 334.87 3.2126 2.76862 0
M  V30 3585 N 335.261 4.42588 2.44845 0
M  V30 3586 C 333.559 3.22568 3.08004 0
M  V30 3587 C 334.26 5.2447 2.51607 0
M  V30 3588 N 333.236 4.61344 2.87511 0
M  V30 3589 H 337.038 2.70205 1.15615 0
M  V30 3590 H 334.552 1.52978 0.545112 0
M  V30 3591 H 336.549 2.1666 3.5618 0
M  V30 3592 H 335.209 1.10573 3.05293 0
M  V30 3593 H 336.22 4.69819 2.17922 0
M  V30 3594 H 332.897 2.42409 3.39918 0
M  V30 3595 H 334.287 6.31324 2.29955 0
M  V30 3596 N 337.007 -0.598083 1.45811 0
M  V30 3597 C 338.255 -1.35413 1.50026 0
M  V30 3598 C 338.576 -1.94444 0.147177 0
M  V30 3599 O 337.846 -1.77701 -0.824571 0
M  V30 3600 H 336.426 -0.502727 0.552517 0
M  V30 3601 H 339.088 -0.701606 1.81834 0
M  V30 3602 H 338.184 -2.16871 2.2444 0
M  V30 3603 N 338.485 -1.33259 -0.841409 0
M  V30 3604 C 339.734 -1.23921 -1.59143 0
M  V30 3605 C 340.047 0.1941 -1.94635 0
M  V30 3606 O 341.253 0.409474 -2.68394 0
M  V30 3607 C 339.709 -2.17119 -2.87032 0
M  V30 3608 C 339.317 -3.65606 -2.58914 0
M  V30 3609 C 341.061 -2.16648 -3.65053 0
M  V30 3610 C 338.968 -4.50726 -3.82884 0
M  V30 3611 H 337.898 -0.460264 -0.597221 0
M  V30 3612 H 340.549 -1.58307 -0.927959 0
M  V30 3613 H 338.931 -1.75663 -3.54906 0
M  V30 3614 H 340.105 -4.15487 -1.99267 0
M  V30 3615 H 338.42 -3.68341 -1.942 0
M  V30 3616 H 341.017 -2.77474 -4.57069 0
M  V30 3617 H 341.36 -1.16088 -3.99787 0
M  V30 3618 H 341.893 -2.56453 -3.041 0
M  V30 3619 H 338.632 -5.52151 -3.53283 0
M  V30 3620 H 338.152 -4.0559 -4.41879 0
M  V30 3621 H 339.831 -4.64401 -4.50489 0
M  V30 3622 N 339.963 1.05934 -1.16686 0
M  V30 3623 C 341.212 1.78188 -0.945085 0
M  V30 3624 C 341.525 1.88338 0.528021 0
M  V30 3625 O 342.731 2.57258 0.867799 0
M  V30 3626 C 341.187 3.20277 -1.64167 0
M  V30 3627 C 340.795 3.18281 -3.15279 0
M  V30 3628 C 342.539 3.97039 -1.502 0
M  V30 3629 C 340.446 4.55112 -3.7766 0
M  V30 3630 H 339.376 0.667866 -0.349959 0
M  V30 3631 H 342.027 1.18794 -1.39858 0
M  V30 3632 H 340.409 3.79952 -1.11589 0
M  V30 3633 H 341.583 2.68167 -3.74731 0
M  V30 3634 H 339.898 2.55018 -3.29173 0
M  V30 3635 H 342.495 4.98194 -1.94183 0
M  V30 3636 H 342.838 4.13845 -0.451461 0
M  V30 3637 H 343.371 3.43894 -1.99954 0
M  V30 3638 H 340.11 4.43512 -4.82677 0
M  V30 3639 H 339.63 5.05406 -3.22994 0
M  V30 3640 H 341.309 5.24064 -3.79428 0
M  V30 3641 N 341.441 0.965919 1.2453 0
M  V30 3642 C 342.687 0.637349 1.93156 0
M  V30 3643 C 343.042 -0.818261 1.74133 0
M  V30 3644 O 342.335 -1.58079 1.08266 0
M  V30 3645 C 342.529 0.945428 3.44669 0
M  V30 3646 C 342.358 2.42944 3.78429 0
M  V30 3647 C 341.128 3.08895 3.9989 0
M  V30 3648 C 343.326 3.40941 3.8505 0
M  V30 3649 N 341.308 4.47052 4.20735 0
M  V30 3650 C 342.679 4.64448 4.10717 0
M  V30 3651 C 344.734 3.35624 3.67779 0
M  V30 3652 C 343.437 5.83292 4.20907 0
M  V30 3653 C 345.463 4.53818 3.79214 0
M  V30 3654 C 344.825 5.76114 4.05304 0
M  V30 3655 H 340.924 0.284034 0.728594 0
M  V30 3656 H 343.508 1.24041 1.50073 0
M  V30 3657 H 341.679 0.371193 3.86622 0
M  V30 3658 H 343.411 0.575613 4.00586 0
M  V30 3659 H 340.166 2.59432 3.96222 0
M  V30 3660 H 340.59 5.18634 4.35141 0
M  V30 3661 H 345.232 2.4211 3.46616 0
M  V30 3662 H 342.95 6.77236 4.40883 0
M  V30 3663 H 346.536 4.51263 3.67224 0
M  V30 3664 H 345.416 6.66045 4.13949 0
M  V30 3665 N 342.919 -1.39368 0.735821 0
M  V30 3666 C 344.335 -1.54204 0.411492 0
M  V30 3667 C 344.535 -1.70268 -1.07755 0
M  V30 3668 O 343.591 -1.70364 -1.86366 0
M  V30 3669 C 344.904 -2.75925 1.19523 0
M  V30 3670 C 346.452 -2.89761 1.18354 0
M  V30 3671 C 346.927 -4.14421 1.94986 0
M  V30 3672 N 348.418 -4.21462 1.92156 0
M  V30 3673 C 349.153 -5.16871 2.48258 0
M  V30 3674 N 348.649 -6.18063 3.13001 0
M  V30 3675 N 350.442 -5.09093 2.38287 0
M  V30 3676 H 342.593 -1.27189 1.70108 0
M  V30 3677 H 344.856 -0.616517 0.720147 0
M  V30 3678 H 344.562 -2.70401 2.24892 0
M  V30 3679 H 344.436 -3.68614 0.800222 0
M  V30 3680 H 346.823 -2.94777 0.137975 0
M  V30 3681 H 346.904 -1.98133 1.61793 0
M  V30 3682 H 346.548 -4.10166 2.99543 0
M  V30 3683 H 346.478 -5.05095 1.48953 0
M  V30 3684 H 348.969 -3.48979 1.44991 0
M  V30 3685 H 349.282 -6.87326 3.53275 0
M  V30 3686 H 347.627 -6.18448 3.17091 0
M  V30 3687 H 350.818 -4.28973 1.8735 0
M  V30 3688 H 350.991 -5.83272 2.82308 0
M  V30 3689 N 344.397 -0.483516 -1.5 0
M  V30 3690 C 345.344 0.304164 -2.28787 0
M  V30 3691 C 346.314 0.976114 -1.34392 0
M  V30 3692 O 347.499 0.986156 -1.63339 0
M  V30 3693 C 344.639 1.37298 -3.16612 0
M  V30 3694 C 343.752 0.714561 -4.26049 0
M  V30 3695 C 342.887 1.76232 -5.01114 0
M  V30 3696 C 341.926 1.08483 -6.0241 0
M  V30 3697 N 341.063 2.076 -6.70706 0
M  V30 3698 H 345.903 -0.373981 -2.95644 0
M  V30 3699 H 343.44 -0.196275 -1.45785 0
M  V30 3700 H 345.398 2.00445 -3.65893 0
M  V30 3701 H 344.028 2.02012 -2.51776 0
M  V30 3702 H 343.08 -0.0297798 -3.80388 0
M  V30 3703 H 344.392 0.180383 -4.98474 0
M  V30 3704 H 343.546 2.46929 -5.54176 0
M  V30 3705 H 342.285 2.33033 -4.28424 0
M  V30 3706 H 341.29 0.363545 -5.48597 0
M  V30 3707 H 342.515 0.523551 -6.77079 0
M  V30 3708 H 340.461 2.63394 -6.00799 0
M  V30 3709 H 340.378 1.59201 -7.39047 0
M  V30 3710 H 341.646 2.77639 -7.2838 0
M  V30 3711 N 345.875 1.56104 -0.216619 0
M  V30 3712 C 347.152 1.89988 0.465165 0
M  V30 3713 C 347.532 1.13326 1.78102 0
M  V30 3714 O 346.88 0.241033 2.27225 0
M  V30 3715 C 347.09 3.42646 0.662939 0
M  V30 3716 C 348.438 4.13311 0.972602 0
M  V30 3717 O 349.462 3.48217 0.749901 0
M  V30 3718 O 348.321 5.28396 1.39499 0
M  V30 3719 H 345.415 0.78979 0.245276 0
M  V30 3720 H 347.961 1.67721 -0.258436 0
M  V30 3721 H 346.733 3.90399 -0.26543 0
M  V30 3722 H 346.356 3.70677 1.43821 0
M  V30 3723 N 347.353 -0.0568162 1.57498 0
M  V30 3724 C 348.764 -0.606858 1.76562 0
M  V30 3725 C 349.115 -1.77114 0.844094 0
M  V30 3726 O 348.24 -2.16376 0.0318911 0
M  V30 3727 C 348.835 -1.10766 3.20182 0
M  V30 3728 C 347.394 -1.60344 3.40539 0
M  V30 3729 C 346.541 -0.529311 2.72201 0
M  V30 3730 H 349.492 0.169393 1.57793 0
M  V30 3731 H 349.513 -1.97602 3.25167 0
M  V30 3732 H 349.025 -0.26006 3.87228 0
M  V30 3733 H 347.126 -2.47379 2.78629 0
M  V30 3734 H 347.239 -1.67006 4.4905 0
M  V30 3735 H 345.603 -0.977893 2.35179 0
M  V30 3736 H 346.386 0.308352 3.41912 0
M  V30 3737 N 348.832 -1.54138 -0.328536 0
M  V30 3738 C 350.08 -1.71765 -1.06496 0
M  V30 3739 C 350.401 -0.49149 -1.88704 0
M  V30 3740 O 349.671 0.494539 -1.89555 0
M  V30 3741 H 348.251 -0.633295 -0.396164 0
M  V30 3742 H 350.913 -1.91429 -0.366176 0
M  V30 3743 H 350.009 -2.5951 -1.73381 0
M  V30 3744 N 350.31 0.590341 -1.46126 0
M  V30 3745 C 351.726 0.912917 -1.30912 0
M  V30 3746 C 351.926 1.99616 -0.274893 0
M  V30 3747 O 350.982 2.50397 0.325197 0
M  V30 3748 C 352.295 1.3375 -2.69317 0
M  V30 3749 C 353.843 1.45077 -2.77348 0
M  V30 3750 C 354.318 1.90904 -4.16317 0
M  V30 3751 N 355.809 1.9811 -4.18696 0
M  V30 3752 C 356.544 2.34828 -5.23109 0
M  V30 3753 N 356.04 2.70393 -6.37856 0
M  V30 3754 N 357.833 2.35317 -5.10473 0
M  V30 3755 H 349.984 -0.125358 -2.1203 0
M  V30 3756 H 352.247 0.00658481 -0.947977 0
M  V30 3757 H 351.953 0.615614 -3.4627 0
M  V30 3758 H 351.827 2.30058 -2.9892 0
M  V30 3759 H 354.214 2.16353 -2.00687 0
M  V30 3760 H 354.295 0.4704 -2.51438 0
M  V30 3761 H 353.939 1.20209 -4.9347 0
M  V30 3762 H 353.869 2.89886 -4.39629 0
M  V30 3763 H 356.36 1.73146 -3.359 0
M  V30 3764 H 356.673 2.97341 -7.13308 0
M  V30 3765 H 355.018 2.68048 -6.41229 0
M  V30 3766 H 358.209 2.0695 -4.19868 0
M  V30 3767 H 358.382 2.63605 -5.9196 0
M  V30 3768 N 351.788 1.33704 0.83433 0
M  V30 3769 C 353.037 1.24763 1.58484 0
M  V30 3770 C 353.35 -0.183775 1.94735 0
M  V30 3771 O 354.556 -0.395234 2.68608 0
M  V30 3772 C 353.012 2.18638 2.85876 0
M  V30 3773 C 352.62 3.66974 2.56971 0
M  V30 3774 C 354.364 2.18581 3.63899 0
M  V30 3775 C 352.271 4.5275 3.80488 0
M  V30 3776 H 351.201 0.463425 0.594772 0
M  V30 3777 H 353.852 1.58797 0.919551 0
M  V30 3778 H 352.234 1.77542 3.5397 0
M  V30 3779 H 353.408 4.16538 1.9706 0
M  V30 3780 H 351.723 3.69366 1.92244 0
M  V30 3781 H 354.32 2.79894 4.55591 0
M  V30 3782 H 354.663 1.18207 3.99165 0
M  V30 3783 H 355.196 2.58062 3.02735 0
M  V30 3784 H 351.935 5.54017 3.5035 0
M  V30 3785 H 351.455 4.07927 4.39722 0
M  V30 3786 H 353.134 4.66784 4.4802 0
M  V30 3787 N 353.266 -1.05314 1.17247 0
M  V30 3788 C 354.515 -1.77685 0.954521 0
M  V30 3789 C 354.828 -1.88616 -0.518025 0
M  V30 3790 O 356.034 -2.57714 -0.854144 0
M  V30 3791 C 354.49 -3.19402 1.65863 0
M  V30 3792 C 354.098 -3.16605 3.16963 0
M  V30 3793 C 355.842 -3.96237 1.52303 0
M  V30 3794 C 353.749 -4.53103 3.80068 0
M  V30 3795 H 352.679 -0.666 0.353496 0
M  V30 3796 H 355.33 -1.1805 1.40486 0
M  V30 3797 H 353.712 -3.79355 1.13602 0
M  V30 3798 H 354.886 -2.66176 3.76148 0
M  V30 3799 H 353.201 -2.53268 3.30521 0
M  V30 3800 H 355.798 -4.97157 1.96822 0
M  V30 3801 H 356.141 -4.136 0.473401 0
M  V30 3802 H 356.674 -3.42829 2.01775 0
M  V30 3803 H 353.413 -4.40946 4.85023 0
M  V30 3804 H 352.933 -5.03686 3.2567 0
M  V30 3805 H 354.612 -5.22045 3.82202 0
M  V30 3806 N 354.744 -0.972509 -1.24016 0
M  V30 3807 C 355.654 -0.5143 -2.28893 0
M  V30 3808 C 356.67 0.427078 -1.68677 0
M  V30 3809 O 357.846 0.298939 -1.99169 0
M  V30 3810 C 354.911 0.183598 -3.46214 0
M  V30 3811 C 353.972 -0.798202 -4.21814 0
M  V30 3812 C 353.205 -0.133514 -5.33533 0
M  V30 3813 O 353.428 1.07714 -5.60137 0
M  V30 3814 O 352.362 -0.828103 -5.96176 0
M  V30 3815 H 356.188 -1.38629 -2.70214 0
M  V30 3816 H 353.773 -0.739769 -1.29799 0
M  V30 3817 H 355.655 0.575433 -4.17453 0
M  V30 3818 H 354.33 1.03048 -3.0686 0
M  V30 3819 H 353.237 -1.24059 -3.52931 0
M  V30 3820 H 354.57 -1.61364 -4.64997 0
M  V30 3821 N 356.222 1.38976 -0.743202 0
M  V30 3822 C 357.185 2.28901 -0.117014 0
M  V30 3823 C 358.185 1.46698 0.658503 0
M  V30 3824 O 359.375 1.67274 0.486305 0
M  V30 3825 C 356.507 3.30309 0.84315 0
M  V30 3826 H 357.7 2.8578 -0.909373 0
M  V30 3827 H 355.253 1.47761 -0.509547 0
M  V30 3828 H 355.988 2.785 1.66157 0
M  V30 3829 H 355.773 3.91029 0.289594 0
M  V30 3830 H 357.263 3.97577 1.2776 0
M  V30 3831 N 357.7 0.491464 1.49741 0
M  V30 3832 C 358.93 -0.0534375 2.06531 0
M  V30 3833 C 359.338 -1.32233 1.35318 0
M  V30 3834 O 358.681 -1.78781 0.422243 0
M  V30 3835 C 358.743 -0.387034 3.57411 0
M  V30 3836 C 358.407 0.782764 4.50246 0
M  V30 3837 C 359.404 1.67059 4.92329 0
M  V30 3838 C 357.089 0.978866 4.9267 0
M  V30 3839 C 359.083 2.73874 5.75562 0
M  V30 3840 C 356.77 2.05022 5.75682 0
M  V30 3841 C 357.768 2.92851 6.17031 0
M  V30 3842 O 357.456 3.98138 6.98385 0
M  V30 3843 H 357.188 0.0129324 0.675876 0
M  V30 3844 H 359.742 0.685238 1.93633 0
M  V30 3845 H 357.972 -1.17918 3.68283 0
M  V30 3846 H 359.661 -0.869419 3.96479 0
M  V30 3847 H 360.427 1.53086 4.60206 0
M  V30 3848 H 356.306 0.304646 4.59992 0
M  V30 3849 H 359.85 3.42458 6.07757 0
M  V30 3850 H 355.747 2.18993 6.07217 0
M  V30 3851 H 356.515 3.95374 7.16674 0
M  V30 3852 N 359.178 -1.55987 0.224894 0
M  V30 3853 C 360.141 -2.19178 -0.670348 0
M  V30 3854 C 361.141 -1.15461 -1.11917 0
M  V30 3855 O 362.331 -1.40675 -1.02743 0
M  V30 3856 C 359.463 -2.81777 -1.9187 0
M  V30 3857 H 360.656 -2.99662 -0.119364 0
M  V30 3858 H 358.209 -1.5628 -0.0247128 0
M  V30 3859 H 358.944 -2.05172 -2.51147 0
M  V30 3860 H 358.729 -3.57732 -1.60531 0
M  V30 3861 H 360.219 -3.30205 -2.55645 0
M  V30 3862 N 360.656 0.0484629 -1.57525 0
M  V30 3863 C 362.072 0.40375 -1.54409 0
M  V30 3864 C 362.272 1.77786 -0.948384 0
M  V30 3865 O 361.328 2.46189 -0.560983 0
M  V30 3866 C 362.641 0.323394 -2.98956 0
M  V30 3867 C 364.189 0.401892 -3.10409 0
M  V30 3868 C 364.664 0.351195 -4.56652 0
M  V30 3869 N 366.155 0.410576 -4.61377 0
M  V30 3870 C 366.89 0.393933 -5.72045 0
M  V30 3871 N 366.386 0.330724 -6.9201 0
M  V30 3872 N 368.179 0.442227 -5.60358 0
M  V30 3873 H 360.33 -0.851016 -1.94606 0
M  V30 3874 H 362.593 -0.321721 -0.89174 0
M  V30 3875 H 362.299 -0.62011 -3.4619 0
M  V30 3876 H 362.173 1.12463 -3.60044 0
M  V30 3877 H 364.56 1.33582 -2.63134 0
M  V30 3878 H 364.641 -0.428342 -2.52188 0
M  V30 3879 H 364.285 -0.578987 -5.04589 0
M  V30 3880 H 364.215 1.19928 -5.12762 0
M  V30 3881 H 366.706 0.462729 -3.75056 0
M  V30 3882 H 367.019 0.322592 -7.72126 0
M  V30 3883 H 365.364 0.29706 -6.94365 0
M  V30 3884 H 368.555 0.489464 -4.65534 0
M  V30 3885 H 368.728 0.425788 -6.466 0
M  V30 3886 N 362.134 1.5431 0.320358 0
M  V30 3887 C 363.38 1.73859 1.05568 0
M  V30 3888 C 363.735 0.507807 1.85578 0
M  V30 3889 O 363.028 -0.499789 1.84967 0
M  V30 3890 C 363.222 2.95639 2.00828 0
M  V30 3891 C 363.051 4.30444 1.30186 0
M  V30 3892 C 361.821 4.94544 1.03703 0
M  V30 3893 C 364.019 5.0929 0.716138 0
M  V30 3894 N 362.001 6.13172 0.298846 0
M  V30 3895 C 363.372 6.19903 0.109729 0
M  V30 3896 C 365.427 4.94034 0.619269 0
M  V30 3897 C 364.13 7.16924 -0.584153 0
M  V30 3898 C 366.156 5.91369 -0.0609184 0
M  V30 3899 C 365.518 7.01336 -0.656258 0
M  V30 3900 H 361.617 0.688988 0.36989 0
M  V30 3901 H 364.201 1.9177 0.336494 0
M  V30 3902 H 362.372 2.79188 2.70016 0
M  V30 3903 H 364.104 3.03802 2.6737 0
M  V30 3904 H 360.859 4.54536 1.33019 0
M  V30 3905 H 361.283 6.76977 -0.0561964 0
M  V30 3906 H 365.925 4.0916 1.06526 0
M  V30 3907 H 363.643 8.01354 -1.04197 0
M  V30 3908 H 367.229 5.81642 -0.135552 0
M  V30 3909 H 366.109 7.75359 -1.17423 0
M  V30 3910 N 363.613 -0.582584 1.46437 0
M  V30 3911 C 364.576 -1.67366 1.56592 0
M  V30 3912 C 365.576 -1.54575 0.443072 0
M  V30 3913 O 366.766 -1.59191 0.707381 0
M  V30 3914 C 363.898 -3.06791 1.48634 0
M  V30 3915 H 365.091 -1.5972 2.5383 0
M  V30 3916 H 362.644 -0.800432 1.34249 0
M  V30 3917 H 363.379 -3.19993 0.526763 0
M  V30 3918 H 363.164 -3.17484 2.30101 0
M  V30 3919 H 364.654 -3.86218 1.58826 0
M  V30 3920 N 365.091 -1.34144 -0.827227 0
M  V30 3921 C 366.001 -1.27428 -1.96975 0
M  V30 3922 C 367.017 -0.182728 -1.73038 0
M  V30 3923 O 368.193 -0.408426 -1.97215 0
M  V30 3924 C 365.258 -1.02526 -3.31194 0
M  V30 3925 C 364.319 -2.20796 -3.68168 0
M  V30 3926 C 363.552 -1.97073 -4.95982 0
M  V30 3927 O 363.775 -0.926822 -5.6282 0
M  V30 3928 O 362.709 -2.83912 -5.30733 0
M  V30 3929 H 366.535 -2.23537 -2.05584 0
M  V30 3930 H 364.12 -1.14307 -0.961989 0
M  V30 3931 H 366.002 -0.904026 -4.11589 0
M  V30 3932 H 364.677 -0.0945389 -3.23562 0
M  V30 3933 H 363.584 -2.38477 -2.88235 0
M  V30 3934 H 364.917 -3.12243 -3.8048 0
M  V30 3935 N 366.569 1.04691 -1.17803 0
M  V30 3936 C 367.817 1.7743 -0.967617 0
M  V30 3937 C 368.138 1.88359 0.504574 0
M  V30 3938 O 367.408 1.40402 1.36617 0
M  V30 3939 H 365.988 0.657242 -0.355024 0
M  V30 3940 H 368.65 1.2638 -1.48371 0
M  V30 3941 H 367.746 2.78924 -1.40027 0
M  V30 3942 N 368.047 0.979072 1.23499 0
M  V30 3943 C 368.979 0.476271 2.24197 0
M  V30 3944 C 369.992 -0.421166 1.57258 0
M  V30 3945 O 371.181 -0.225515 1.7707 0
M  V30 3946 C 368.281 -0.330503 3.37285 0
M  V30 3947 C 367.454 0.559744 4.33804 0
M  V30 3948 C 366.513 -0.192954 5.25846 0
M  V30 3949 O 365.539 0.416978 5.67671 0
M  V30 3950 N 366.741 -1.47932 5.61334 0
M  V30 3951 H 369.506 1.34211 2.67969 0
M  V30 3952 H 367.067 0.852189 1.37657 0
M  V30 3953 H 369.059 -0.842361 3.95836 0
M  V30 3954 H 367.629 -1.09734 2.92707 0
M  V30 3955 H 366.849 1.25245 3.73775 0
M  V30 3956 H 368.137 1.1665 4.95248 0
M  V30 3957 H 367.535 -1.9964 5.29302 0
M  V30 3958 H 366.092 -1.93664 6.22364 0
M  V30 3959 N 369.525 -1.3858 0.750561 0
M  V30 3960 C 370.773 -1.99789 0.30477 0
M  V30 3961 C 371.094 -1.59874 -1.11649 0
M  V30 3962 O 370.364 -0.85417 -1.76297 0
M  V30 3963 H 368.944 -0.738902 0.109694 0
M  V30 3964 H 371.606 -1.69391 0.963983 0
M  V30 3965 H 370.702 -3.09952 0.365499 0
M  V30 3966 N 371.003 -0.499398 -1.49478 0
M  V30 3967 C 371.95 0.279881 -2.29097 0
M  V30 3968 C 372.92 0.961805 -1.3542 0
M  V30 3969 O 374.105 0.968777 -1.64376 0
M  V30 3970 C 371.245 1.33932 -3.18051 0
M  V30 3971 C 370.358 0.669333 -4.26783 0
M  V30 3972 C 369.493 1.70907 -5.02955 0
M  V30 3973 C 368.532 1.02087 -6.03527 0
M  V30 3974 N 367.669 2.00474 -6.7287 0
M  V30 3975 H 372.509 -0.405317 -2.95231 0
M  V30 3976 H 370.046 -0.211726 -1.45568 0
M  V30 3977 H 372.004 1.96553 -3.67998 0
M  V30 3978 H 370.634 1.9933 -2.53904 0
M  V30 3979 H 369.686 -0.0701234 -3.80335 0
M  V30 3980 H 370.998 0.127503 -4.98637 0
M  V30 3981 H 370.152 2.41037 -5.56764 0
M  V30 3982 H 368.891 2.28476 -4.30871 0
M  V30 3983 H 367.896 0.305338 -5.48951 0
M  V30 3984 H 369.121 0.451708 -6.77596 0
M  V30 3985 H 367.067 2.57007 -6.03559 0
M  V30 3986 H 366.984 1.51353 -7.40694 0
M  V30 3987 H 368.252 2.69897 -7.31284 0
M  V30 3988 N 372.481 1.55866 -0.233164 0
M  V30 3989 C 373.444 2.1953 0.658715 0
M  V30 3990 C 374.444 1.16053 1.11303 0
M  V30 3991 O 375.634 1.41218 1.01996 0
M  V30 3992 C 372.766 2.82791 1.90373 0
M  V30 3993 H 373.959 2.99721 0.10347 0
M  V30 3994 H 371.512 1.56291 0.0164245 0
M  V30 3995 H 372.247 2.06501 2.50056 0
M  V30 3996 H 372.032 3.58578 1.58632 0
M  V30 3997 H 373.522 3.31556 2.53891 0
M  V30 3998 N 373.959 -0.0401083 1.57549 0
M  V30 3999 C 374.906 -1.04413 2.05831 0
M  V30 4000 C 375.876 -1.36585 0.945184 0
M  V30 4001 O 377.061 -1.47112 1.21502 0
M  V30 4002 C 374.201 -2.34336 2.53339 0
M  V30 4003 C 373.314 -2.08419 3.78398 0
M  V30 4004 C 372.449 -3.32133 4.14561 0
M  V30 4005 C 371.488 -3.01721 5.3257 0
M  V30 4006 N 370.625 -4.17855 5.64218 0
M  V30 4007 H 375.465 -0.625442 2.91363 0
M  V30 4008 H 373.002 -0.297218 1.44066 0
M  V30 4009 H 374.96 -3.10234 2.78946 0
M  V30 4010 H 373.59 -2.73948 1.7074 0
M  V30 4011 H 372.642 -1.23069 3.59942 0
M  V30 4012 H 373.954 -1.81978 4.64419 0
M  V30 4013 H 373.108 -4.16406 4.41238 0
M  V30 4014 H 371.847 -3.61678 3.2717 0
M  V30 4015 H 370.852 -2.15849 5.05657 0
M  V30 4016 H 372.077 -2.73466 6.21605 0
M  V30 4017 H 370.023 -4.47372 4.79786 0
M  V30 4018 H 369.94 -3.94798 6.44725 0
M  V30 4019 H 371.208 -5.03033 5.95465 0
M  V30 4020 N 375.437 -1.54477 -0.31217 0
M  V30 4021 C 376.4 -1.83923 -1.36766 0
M  V30 4022 C 377.4 -0.711563 -1.44199 0
M  V30 4023 O 378.59 -0.979866 -1.44029 0
M  V30 4024 C 375.722 -2.0095 -2.75376 0
M  V30 4025 H 376.915 -2.78239 -1.11906 0
M  V30 4026 H 374.468 -1.46369 -0.548257 0
M  V30 4027 H 375.203 -1.08883 -3.05475 0
M  V30 4028 H 374.988 -2.83018 -2.71373 0
M  V30 4029 H 376.478 -2.2514 -3.51713 0
M  V30 4030 N 376.915 0.57481 -1.46744 0
M  V30 4031 C 378.161 1.3347 -1.52688 0
M  V30 4032 C 378.494 1.93353 -0.181229 0
M  V30 4033 O 377.769 1.76912 0.808237 0
M  V30 4034 C 378.052 2.45811 -2.63152 0
M  V30 4035 C 377.905 1.90912 -4.07275 0
M  V30 4036 C 379.224 3.47822 -2.69644 0
M  V30 4037 H 376.343 0.483935 -0.555856 0
M  V30 4038 H 378.985 0.644968 -1.78718 0
M  V30 4039 H 377.135 3.04646 -2.41088 0
M  V30 4040 H 378.807 1.36473 -4.4065 0
M  V30 4041 H 377.05 1.21691 -4.16382 0
M  V30 4042 H 377.721 2.72042 -4.80309 0
M  V30 4043 H 380.197 2.9888 -2.895 0
M  V30 4044 H 379.073 4.23876 -3.48742 0
M  V30 4045 H 379.334 4.05555 -1.76005 0
M  V30 4046 N 378.394 1.34581 0.820102 0
M  V30 4047 C 379.643 1.26437 1.57151 0
M  V30 4048 C 379.956 -0.163111 1.94919 0
M  V30 4049 O 381.162 -0.366722 2.69012 0
M  V30 4050 C 379.618 2.21658 2.83541 0
M  V30 4051 C 379.226 3.69679 2.53065 0
M  V30 4052 C 380.97 2.22428 3.61561 0
M  V30 4053 C 378.877 4.56761 3.75664 0
M  V30 4054 H 377.807 0.469707 0.589823 0
M  V30 4055 H 380.458 1.59763 0.902656 0
M  V30 4056 H 378.84 1.81287 3.52067 0
M  V30 4057 H 380.014 4.18605 1.92631 0
M  V30 4058 H 378.329 3.71384 1.88316 0
M  V30 4059 H 380.926 2.8471 4.52597 0
M  V30 4060 H 381.269 1.22434 3.97889 0
M  V30 4061 H 381.802 2.61259 2.99981 0
M  V30 4062 H 378.541 5.57702 3.44454 0
M  V30 4063 H 378.061 4.12568 4.35371 0
M  V30 4064 H 379.74 4.71509 4.43044 0
M  V30 4065 N 379.872 -1.04064 1.18357 0
M  V30 4066 C 380.835 -2.10243 0.912707 0
M  V30 4067 C 381.835 -1.60477 -0.101928 0
M  V30 4068 O 383.025 -1.73703 0.131517 0
M  V30 4069 C 380.157 -3.38893 0.369387 0
M  V30 4070 H 381.35 -2.35706 1.85426 0
M  V30 4071 H 378.903 -1.20489 0.995594 0
M  V30 4072 H 379.638 -3.19094 -0.578776 0
M  V30 4073 H 379.423 -3.76331 1.1008 0
M  V30 4074 H 380.913 -4.17128 0.198575 0
M  V30 4075 N 381.35 -0.985608 -1.22978 0
M  V30 4076 C 382.58 -0.674603 -1.95276 0
M  V30 4077 C 382.988 0.763483 -1.73111 0
M  V30 4078 O 382.331 1.52601 -1.02268 0
M  V30 4079 C 382.393 -0.891597 -3.48268 0
M  V30 4080 C 382.057 -2.31275 -3.94158 0
M  V30 4081 C 383.054 -3.29179 -4.02415 0
M  V30 4082 C 380.739 -2.64524 -4.27004 0
M  V30 4083 C 382.733 -4.58407 -4.42879 0
M  V30 4084 C 380.42 -3.93974 -4.67149 0
M  V30 4085 C 381.418 -4.90727 -4.75053 0
M  V30 4086 O 381.106 -6.17865 -5.14294 0
M  V30 4087 H 380.838 -0.249251 -0.628371 0
M  V30 4088 H 383.392 -1.32106 -1.5728 0
M  V30 4089 H 381.622 -0.187962 -3.86243 0
M  V30 4090 H 383.311 -0.576957 -4.01779 0
M  V30 4091 H 384.077 -3.04823 -3.77237 0
M  V30 4092 H 379.956 -1.89923 -4.2006 0
M  V30 4093 H 383.5 -5.33926 -4.48964 0
M  V30 4094 H 379.397 -4.18122 -4.91777 0
M  V30 4095 H 380.165 -6.21694 -5.32389 0
M  V30 4096 N 382.828 1.3818 -0.7579 0
M  V30 4097 C 384.105 1.94106 -0.241306 0
M  V30 4098 C 384.485 1.69282 1.26122 0
M  V30 4099 O 383.833 1.03378 2.03777 0
M  V30 4100 C 384.043 3.43809 -0.59967 0
M  V30 4101 C 385.391 4.20868 -0.561717 0
M  V30 4102 O 386.415 3.5211 -0.538222 0
M  V30 4103 O 385.274 5.43451 -0.576478 0
M  V30 4104 H 382.368 0.825376 -0.0518042 0
M  V30 4105 H 384.914 1.47548 -0.838315 0
M  V30 4106 H 383.686 3.55403 -1.6372 0
M  V30 4107 H 383.309 3.97592 0.0251197 0
M  V30 4108 N 384.306 0.507319 1.49211 0
M  V30 4109 C 385.534 -0.0315749 2.06876 0
M  V30 4110 C 385.949 -1.30241 1.36685 0
M  V30 4111 O 385.306 -1.76937 0.447152 0
M  V30 4112 C 385.357 -0.282627 3.60393 0
M  V30 4113 O 385.078 0.937835 4.27944 0
M  V30 4114 C 386.579 -0.864453 4.3479 0
M  V30 4115 H 383.799 0.0233048 0.670595 0
M  V30 4116 H 386.343 0.706484 1.91909 0
M  V30 4117 H 384.498 -0.97068 3.75042 0
M  V30 4118 H 384.912 0.704567 5.19746 0
M  V30 4119 H 386.386 -0.989664 5.43056 0
M  V30 4120 H 386.863 -1.86382 3.97692 0
M  V30 4121 H 387.469 -0.213672 4.24763 0
M  V30 4122 N 385.784 -1.5574 0.241426 0
M  V30 4123 C 386.717 -2.17168 -0.700935 0
M  V30 4124 C 387.695 -1.12206 -1.1768 0
M  V30 4125 O 388.879 -1.40565 -1.25593 0
M  V30 4126 C 386.006 -2.76796 -1.95196 0
M  V30 4127 C 385.052 -3.94764 -1.61442 0
M  V30 4128 S 385.885 -5.30613 -0.72182 0
M  V30 4129 C 387.041 -5.93691 -1.98197 0
M  V30 4130 H 387.274 -2.96761 -0.178882 0
M  V30 4131 H 384.807 -1.54378 0.0259299 0
M  V30 4132 H 386.765 -3.11787 -2.67019 0
M  V30 4133 H 385.426 -1.9716 -2.44514 0
M  V30 4134 H 384.619 -4.35057 -2.54443 0
M  V30 4135 H 384.221 -3.61022 -0.976672 0
M  V30 4136 H 386.513 -6.10874 -2.92983 0
M  V30 4137 H 387.456 -6.89258 -1.62262 0
M  V30 4138 H 387.864 -5.22709 -2.13156 0
M  V30 4139 N 387.262 0.0317525 -1.57568 0
M  V30 4140 C 388.508 0.718712 -1.90279 0
M  V30 4141 C 388.863 1.73108 -0.839727 0
M  V30 4142 O 388.156 1.90997 0.15188 0
M  V30 4143 C 388.35 1.43167 -3.27472 0
M  V30 4144 C 388.179 0.489869 -4.47024 0
M  V30 4145 C 386.949 0.111909 -5.05176 0
M  V30 4146 C 389.147 -0.230592 -5.13783 0
M  V30 4147 N 387.129 -0.831427 -6.08244 0
M  V30 4148 C 388.5 -1.02968 -6.1139 0
M  V30 4149 C 390.555 -0.297821 -4.97008 0
M  V30 4150 C 389.258 -1.88982 -6.9403 0
M  V30 4151 C 391.284 -1.14507 -5.80209 0
M  V30 4152 C 390.646 -1.9321 -6.77384 0
M  V30 4153 H 386.745 0.237177 -0.745165 0
M  V30 4154 H 389.329 -0.0211267 -1.94689 0
M  V30 4155 H 387.5 2.14199 -3.23996 0
M  V30 4156 H 389.232 2.0708 -3.47707 0
M  V30 4157 H 385.987 0.473513 -4.71227 0
M  V30 4158 H 386.411 -1.29752 -6.6445 0
M  V30 4159 H 391.053 0.296346 -4.2176 0
M  V30 4160 H 388.771 -2.4948 -7.68626 0
M  V30 4161 H 392.357 -1.20059 -5.69278 0
M  V30 4162 H 391.237 -2.57711 -7.40645 0
M  V30 4163 N 388.74 1.54641 0.303973 0
M  V30 4164 C 389.67 1.88386 1.3796 0
M  V30 4165 C 390.651 0.742485 1.5304 0
M  V30 4166 O 391.836 0.997959 1.66597 0
M  V30 4167 C 388.966 2.12854 2.74427 0
M  V30 4168 C 387.92 3.28702 2.74115 0
M  V30 4169 C 387.246 3.38582 4.13844 0
M  V30 4170 C 388.546 4.65881 2.3612 0
M  V30 4171 H 390.24 2.78474 1.09966 0
M  V30 4172 H 387.786 1.33988 0.527556 0
M  V30 4173 H 389.739 2.35047 3.49758 0
M  V30 4174 H 388.463 1.19535 3.03939 0
M  V30 4175 H 387.122 3.06428 2.0124 0
M  V30 4176 H 386.77 2.42784 4.40528 0
M  V30 4177 H 386.47 4.16453 4.14537 0
M  V30 4178 H 387.994 3.63031 4.90959 0
M  V30 4179 H 389.408 4.87823 3.01167 0
M  V30 4180 H 387.805 5.46444 2.48031 0
M  V30 4181 H 388.875 4.66799 1.3125 0
M  V30 4182 N 390.218 -0.567019 1.47046 0
M  V30 4183 C 391.443 -1.3551 1.57009 0
M  V30 4184 C 391.868 -1.86841 0.217259 0
M  V30 4185 O 391.226 -1.62435 -0.805268 0
M  V30 4186 C 391.274 -2.50777 2.5912 0
M  V30 4187 O 390.378 -3.52706 2.13711 0
M  V30 4188 H 389.719 -0.402919 0.52778 0
M  V30 4189 H 392.249 -0.686241 1.92748 0
M  V30 4190 H 392.259 -2.97481 2.79229 0
M  V30 4191 H 390.934 -2.12771 3.57353 0
M  V30 4192 H 389.511 -3.12374 2.03659 0
M  V30 4193 N 391.696 -1.35014 -0.812953 0
M  V30 4194 C 392.924 -1.31031 -1.6012 0
M  V30 4195 C 393.339 0.113558 -1.88458 0
M  V30 4196 O 392.696 1.06363 -1.48301 0
M  V30 4197 C 392.747 -2.10872 -2.93624 0
M  V30 4198 O 392.468 -3.47706 -2.66518 0
M  V30 4199 C 393.969 -2.14401 -3.88004 0
M  V30 4200 H 391.189 -0.45037 -0.497401 0
M  V30 4201 H 393.733 -1.77775 -1.01076 0
M  V30 4202 H 391.888 -1.67744 -3.492 0
M  V30 4203 H 392.302 -3.89097 -3.51715 0
M  V30 4204 H 393.776 -2.74669 -4.78812 0
M  V30 4205 H 394.253 -1.14105 -4.24119 0
M  V30 4206 H 394.859 -2.57662 -3.38364 0
M  V30 4207 N 393.175 1.03435 -1.18907 0
M  V30 4208 C 394.085 2.15075 -0.937015 0
M  V30 4209 C 395.101 1.73706 0.101085 0
M  V30 4210 O 396.277 2.01232 -0.0822948 0
M  V30 4211 C 393.342 3.43458 -0.473057 0
M  V30 4212 C 392.403 3.99172 -1.57989 0
M  V30 4213 C 391.636 5.21427 -1.13797 0
M  V30 4214 O 391.859 5.704 0.000725941 0
M  V30 4215 O 390.793 5.69837 -1.9383 0
M  V30 4216 H 394.619 2.39198 -1.87131 0
M  V30 4217 H 392.204 1.13506 -0.971427 0
M  V30 4218 H 394.086 4.20811 -0.222702 0
M  V30 4219 H 392.761 3.20793 0.432869 0
M  V30 4220 H 391.668 3.23178 -1.88433 0
M  V30 4221 H 393.001 4.2619 -2.46217 0
M  V30 4222 N 394.653 0.992116 1.22453 0
M  V30 4223 C 395.6 0.541731 2.24352 0
M  V30 4224 C 396.57 -0.425519 1.60557 0
M  V30 4225 O 397.755 -0.330453 1.87917 0
M  V30 4226 C 394.895 -0.138248 3.44823 0
M  V30 4227 C 394.008 0.870649 4.23136 0
M  V30 4228 C 393.143 0.164269 5.30946 0
M  V30 4229 C 392.182 1.16159 6.00977 0
M  V30 4230 N 391.319 0.483568 7.00433 0
M  V30 4231 H 396.159 1.41541 2.62241 0
M  V30 4232 H 393.696 0.709013 1.28885 0
M  V30 4233 H 395.654 -0.5494 4.13567 0
M  V30 4234 H 394.284 -0.975721 3.077 0
M  V30 4235 H 393.336 1.40013 3.53696 0
M  V30 4236 H 394.648 1.63014 4.7141 0
M  V30 4237 H 393.802 -0.303653 6.0594 0
M  V30 4238 H 392.541 -0.627733 4.83643 0
M  V30 4239 H 391.546 1.64015 5.24766 0
M  V30 4240 H 392.771 1.95445 6.50368 0
M  V30 4241 H 390.717 -0.289012 6.55363 0
M  V30 4242 H 390.634 1.18152 7.4671 0
M  V30 4243 H 391.902 0.0384219 7.79491 0
M  V30 4244 N 396.131 -1.37776 0.765217 0
M  V30 4245 C 397.064 -2.28008 0.0935025 0
M  V30 4246 C 398.042 -1.45985 -0.716047 0
M  V30 4247 O 399.226 -1.75331 -0.692203 0
M  V30 4248 C 396.353 -3.27228 -0.874052 0
M  V30 4249 C 395.399 -4.26239 -0.149307 0
M  V30 4250 S 396.232 -5.22827 1.15809 0
M  V30 4251 C 397.388 -6.256 0.193906 0
M  V30 4252 H 397.621 -2.84631 0.858637 0
M  V30 4253 H 395.154 -1.43952 0.558313 0
M  V30 4254 H 397.112 -3.84902 -1.42691 0
M  V30 4255 H 395.773 -2.69565 -1.61225 0
M  V30 4256 H 394.966 -4.96213 -0.88254 0
M  V30 4257 H 394.568 -3.7252 0.332366 0
M  V30 4258 H 396.86 -6.74508 -0.636011 0
M  V30 4259 H 397.803 -7.02838 0.861638 0
M  V30 4260 H 398.211 -5.64173 -0.191975 0
M  V30 4261 N 397.609 -0.515225 -1.4894 0
M  V30 4262 C 398.572 0.244681 -2.2789 0
M  V30 4263 C 399.572 0.881166 -1.34507 0
M  V30 4264 O 400.762 0.743497 -1.57537 0
M  V30 4265 C 397.894 1.35247 -3.12923 0
M  V30 4266 H 399.087 -0.448289 -2.96531 0
M  V30 4267 H 396.64 -0.270656 -1.53939 0
M  V30 4268 H 397.375 2.07916 -2.48881 0
M  V30 4269 H 397.16 0.901374 -3.81599 0
M  V30 4270 H 398.65 1.88737 -3.72516 0
M  V30 4271 N 399.087 1.5561 -0.249682 0
M  V30 4272 C 400.037 2.18157 0.662673 0
M  V30 4273 C 401.021 1.1383 1.13717 0
M  V30 4274 O 402.213 1.39731 1.08648 0
M  V30 4275 C 399.342 2.88672 1.85805 0
M  V30 4276 C 398.428 4.00258 1.40193 0
M  V30 4277 N 398.819 5.01473 0.660213 0
M  V30 4278 C 397.117 4.12864 1.68698 0
M  V30 4279 C 397.818 5.80155 0.423695 0
M  V30 4280 N 396.794 5.34533 0.988721 0
M  V30 4281 H 400.596 2.93769 0.0878688 0
M  V30 4282 H 398.11 1.62316 -0.0521183 0
M  V30 4283 H 400.107 3.31912 2.5227 0
M  V30 4284 H 398.767 2.14564 2.43705 0
M  V30 4285 H 399.778 5.16971 0.310047 0
M  V30 4286 H 396.455 3.4993 2.27717 0
M  V30 4287 H 397.845 6.71688 -0.168616 0
M  V30 4288 N 400.565 -0.0233959 1.57583 0
M  V30 4289 C 401.528 -1.00693 2.05897 0
M  V30 4290 C 402.528 -1.28693 0.964092 0
M  V30 4291 O 403.718 -1.23602 1.22753 0
M  V30 4292 C 400.85 -2.33825 2.4807 0
M  V30 4293 H 402.043 -0.589476 2.9405 0
M  V30 4294 H 399.596 -0.270354 1.53944 0
M  V30 4295 H 400.331 -2.80307 1.6309 0
M  V30 4296 H 400.116 -2.1483 3.2801 0
M  V30 4297 H 401.606 -3.04426 2.85857 0
M  V30 4298 N 402.043 -1.548 -0.295768 0
M  V30 4299 C 402.973 -1.89115 -1.36959 0
M  V30 4300 C 403.954 -0.75059 -1.52644 0
M  V30 4301 O 405.139 -1.00678 -1.66065 0
M  V30 4302 C 402.269 -2.14307 -2.73295 0
M  V30 4303 C 401.223 -3.30151 -2.72368 0
M  V30 4304 C 400.549 -3.40772 -4.12042 0
M  V30 4305 C 401.849 -4.67126 -2.33646 0
M  V30 4306 H 403.543 -2.79053 -1.08488 0
M  V30 4307 H 401.089 -1.34266 -0.520443 0
M  V30 4308 H 403.042 -2.36898 -3.48507 0
M  V30 4309 H 401.766 -1.21145 -3.03301 0
M  V30 4310 H 400.425 -3.0749 -1.99613 0
M  V30 4311 H 400.073 -2.45117 -4.39234 0
M  V30 4312 H 399.773 -4.18645 -4.12322 0
M  V30 4313 H 401.297 -3.6563 -4.89027 0
M  V30 4314 H 402.711 -4.89414 -2.98575 0
M  V30 4315 H 401.108 -5.47751 -2.45129 0
M  V30 4316 H 402.178 -4.67489 -1.28772 0
M  V30 4317 N 403.521 0.559213 -1.47345 0
M  V30 4318 C 404.454 1.68201 -1.5422 0
M  V30 4319 C 405.432 1.57742 -0.394497 0
M  V30 4320 O 406.616 1.78628 -0.60201 0
M  V30 4321 C 403.743 3.0643 -1.44285 0
M  V30 4322 C 402.789 3.3534 -2.63532 0
M  V30 4323 S 403.622 3.24816 -4.25741 0
M  V30 4324 C 404.778 4.65542 -4.18355 0
M  V30 4325 H 405.011 1.62114 -2.49211 0
M  V30 4326 H 402.544 0.739871 -1.35519 0
M  V30 4327 H 404.502 3.86164 -1.3924 0
M  V30 4328 H 403.163 3.09984 -0.506816 0
M  V30 4329 H 402.356 4.36107 -2.52639 0
M  V30 4330 H 401.958 2.63221 -2.65689 0
M  V30 4331 H 404.25 5.56449 -3.86485 0
M  V30 4332 H 405.193 4.81493 -5.19202 0
M  V30 4333 H 405.601 4.43495 -3.49246 0
M  V30 4334 N 404.999 1.35443 0.805782 0
M  V30 4335 C 406.276 1.19325 1.54987 0
M  V30 4336 C 406.656 -0.227294 2.09873 0
M  V30 4337 O 406.004 -1.2309 1.92512 0
M  V30 4338 C 406.214 2.26196 2.65775 0
M  V30 4339 C 407.562 2.62043 3.34094 0
M  V30 4340 O 408.586 2.25115 2.76046 0
M  V30 4341 O 407.445 3.25542 4.38958 0
M  V30 4342 H 404.539 0.463623 0.684823 0
M  V30 4343 H 407.085 1.47127 0.845674 0
M  V30 4344 H 405.857 3.21471 2.23096 0
M  V30 4345 H 405.48 1.99667 3.43829 0
M  V30 4346 N 406.477 -1.02803 1.19454 0
M  V30 4347 C 407.725 -1.75869 0.995722 0
M  V30 4348 C 408.046 -1.89138 -0.474543 0
M  V30 4349 O 407.316 -1.42558 -1.34366 0
M  V30 4350 H 405.896 -0.651511 0.365435 0
M  V30 4351 H 408.558 -1.24004 1.50363 0
M  V30 4352 H 407.654 -2.76661 1.44447 0
M  V30 4353 N 407.956 -0.998596 -1.21925 0
M  V30 4354 C 408.886 -0.573688 -2.26343 0
M  V30 4355 C 409.867 0.402296 -1.65274 0
M  V30 4356 O 411.052 0.291683 -1.91997 0
M  V30 4357 C 408.182 0.106839 -3.47136 0
M  V30 4358 C 407.136 -0.788269 -4.20678 0
M  V30 4359 C 406.462 0.0254927 -5.34694 0
M  V30 4360 C 407.762 -2.08784 -4.78755 0
M  V30 4361 H 409.456 -1.44651 -2.62138 0
M  V30 4362 H 407.002 -0.696975 -1.26009 0
M  V30 4363 H 408.955 0.415531 -4.19346 0
M  V30 4364 H 407.679 1.01424 -3.10452 0
M  V30 4365 H 406.338 -1.08069 -3.50309 0
M  V30 4366 H 405.986 0.933989 -4.94253 0
M  V30 4367 H 405.686 -0.570437 -5.84825 0
M  V30 4368 H 407.21 0.328147 -6.09718 0
M  V30 4369 H 408.624 -1.84272 -5.42878 0
M  V30 4370 H 407.021 -2.63307 -5.39249 0
M  V30 4371 H 408.091 -2.76284 -3.98491 0
M  V30 4372 N 409.434 1.37368 -0.772513 0
M  V30 4373 C 410.68 1.99969 -0.337681 0
M  V30 4374 C 411.013 1.61184 1.08321 0
M  V30 4375 O 410.288 0.858395 1.74533 0
M  V30 4376 C 410.571 3.56858 -0.482121 0
M  V30 4377 C 410.424 4.0555 -1.94549 0
M  V30 4378 C 411.743 4.39955 0.113143 0
M  V30 4379 H 408.862 0.726464 -0.124171 0
M  V30 4380 H 411.504 1.63034 -0.975699 0
M  V30 4381 H 409.654 3.88452 0.0610361 0
M  V30 4382 H 411.326 3.84518 -2.54841 0
M  V30 4383 H 409.569 3.57715 -2.45403 0
M  V30 4384 H 410.24 5.14587 -1.9976 0
M  V30 4385 H 412.716 4.14623 -0.35031 0
M  V30 4386 H 411.592 5.48897 -0.0180514 0
M  V30 4387 H 411.853 4.25403 1.20354 0
M  V30 4388 N 410.912 0.523116 1.48665 0
M  V30 4389 C 411.875 -0.232592 2.28017 0
M  V30 4390 C 412.875 -0.874021 1.34972 0
M  V30 4391 O 414.065 -0.735132 1.57929 0
M  V30 4392 C 411.197 -1.33586 3.13636 0
M  V30 4393 H 412.39 0.464008 2.96289 0
M  V30 4394 H 409.943 0.278816 1.53793 0
M  V30 4395 H 410.678 -2.06593 2.4998 0
M  V30 4396 H 410.463 -0.881125 3.82071 0
M  V30 4397 H 411.953 -1.86759 3.73511 0
M  V30 4398 N 412.39 -1.55475 0.257931 0
M  V30 4399 C 413.638 -1.98813 -0.363009 0
M  V30 4400 C 413.959 -1.14757 -1.57657 0
M  V30 4401 O 413.229 -0.232956 -1.9451 0
M  V30 4402 H 411.809 -0.734308 -0.137113 0
M  V30 4403 H 414.471 -1.9156 0.359281 0
M  V30 4404 H 413.567 -3.04941 -0.664634 0
M  V30 4405 N 413.868 0.0150385 -1.57593 0
M  V30 4406 C 415.116 0.701613 -1.8953 0
M  V30 4407 C 415.437 1.75139 -0.857396 0
M  V30 4408 O 414.707 1.95607 0.107194 0
M  V30 4409 H 413.287 0.26213 -0.699498 0
M  V30 4410 H 415.949 -0.0223304 -1.94887 0
M  V30 4411 H 415.045 1.18236 -2.88837 0
M  V30 4412 N 415.346 1.54954 0.287554 0
M  V30 4413 C 416.586 1.76617 1.02887 0
M  V30 4414 C 416.95 0.547759 1.84021 0
M  V30 4415 O 418.151 0.642365 2.61012 0
M  V30 4416 C 416.422 3.02717 1.89993 0
M  V30 4417 S 417.981 3.45438 2.70588 0
M  V30 4418 H 414.799 0.6207 0.346775 0
M  V30 4419 H 417.401 1.93172 0.30082 0
M  V30 4420 H 416.105 3.89503 1.29287 0
M  V30 4421 H 415.636 2.88787 2.67144 0
M  V30 4422 H 417.651 3.03566 3.92508 0
M  V30 4423 N 416.824 -0.551391 1.4764 0
M  V30 4424 C 417.734 -1.68525 1.63207 0
M  V30 4425 C 418.75 -1.6621 0.514815 0
M  V30 4426 O 419.926 -1.85551 0.783113 0
M  V30 4427 C 416.991 -3.05025 1.64805 0
M  V30 4428 C 416.052 -3.18362 2.88 0
M  V30 4429 C 415.285 -4.4835 2.89513 0
M  V30 4430 O 415.508 -5.34163 2.00065 0
M  V30 4431 O 414.442 -4.65602 3.81443 0
M  V30 4432 H 418.268 -1.58333 2.59161 0
M  V30 4433 H 415.853 -0.722063 1.30792 0
M  V30 4434 H 417.735 -3.86245 1.68502 0
M  V30 4435 H 416.41 -3.15587 0.720197 0
M  V30 4436 H 415.317 -2.36518 2.89845 0
M  V30 4437 H 416.65 -3.12707 3.80099 0
M  V30 4438 N 418.302 -1.35869 -0.798587 0
M  V30 4439 C 419.548 -1.2978 -1.55836 0
M  V30 4440 C 419.881 0.125322 -1.93795 0
M  V30 4441 O 419.156 1.07658 -1.61987 0
M  V30 4442 C 419.439 -2.21188 -2.84162 0
M  V30 4443 C 419.292 -3.72155 -2.52628 0
M  V30 4444 C 420.611 -2.11545 -3.85923 0
M  V30 4445 H 417.73 -0.472769 -0.565383 0
M  V30 4446 H 420.372 -1.66341 -0.918192 0
M  V30 4447 H 418.522 -1.90139 -3.38791 0
M  V30 4448 H 420.194 -4.13682 -2.04121 0
M  V30 4449 H 418.437 -3.92042 -1.85704 0
M  V30 4450 H 419.108 -4.31511 -3.44242 0
M  V30 4451 H 421.584 -2.38855 -3.40716 0
M  V30 4452 H 420.46 -2.77688 -4.73477 0
M  V30 4453 H 420.721 -1.09987 -4.282 0
M  V30 4454 N 419.78 1.02168 -1.19998 0
M  V30 4455 C 420.727 2.10601 -0.944228 0
M  V30 4456 C 421.697 1.65639 0.123664 0
M  V30 4457 O 422.882 1.9079 -0.0199941 0
M  V30 4458 C 420.022 3.41504 -0.496865 0
M  V30 4459 C 419.135 3.99973 -1.63234 0
M  V30 4460 C 418.27 5.18915 -1.13579 0
M  V30 4461 C 417.309 5.69456 -2.24468 0
M  V30 4462 N 416.446 6.79665 -1.76068 0
M  V30 4463 H 421.286 2.31814 -1.8726 0
M  V30 4464 H 418.823 1.13686 -0.933483 0
M  V30 4465 H 420.781 4.16626 -0.218843 0
M  V30 4466 H 419.411 3.2038 0.394508 0
M  V30 4467 H 418.463 3.21997 -2.0254 0
M  V30 4468 H 419.775 4.33492 -2.46752 0
M  V30 4469 H 418.929 6.01222 -0.813429 0
M  V30 4470 H 417.668 4.8695 -0.270434 0
M  V30 4471 H 416.673 4.85757 -2.57526 0
M  V30 4472 H 417.898 6.03459 -3.11472 0
M  V30 4473 H 415.844 6.49538 -0.918516 0
M  V30 4474 H 415.761 7.12349 -2.5317 0
M  V30 4475 H 417.029 7.65549 -1.46817 0
M  V30 4476 N 421.258 1.00505 1.21394 0
M  V30 4477 C 422.188 0.585684 2.26035 0
M  V30 4478 C 423.169 -0.393525 1.65485 0
M  V30 4479 O 424.354 -0.281497 1.92149 0
M  V30 4480 C 421.484 -0.0884283 3.47187 0
M  V30 4481 C 420.438 0.810567 4.20254 0
M  V30 4482 C 419.764 0.00286382 5.347 0
M  V30 4483 C 421.064 2.1132 4.77641 0
M  V30 4484 H 422.758 1.46039 2.61368 0
M  V30 4485 H 420.304 0.703648 1.25638 0
M  V30 4486 H 422.257 -0.393286 4.19561 0
M  V30 4487 H 420.981 -0.997766 3.10986 0
M  V30 4488 H 419.64 1.09925 3.49731 0
M  V30 4489 H 419.288 -0.907765 4.94741 0
M  V30 4490 H 418.988 0.601444 5.84514 0
M  V30 4491 H 420.512 -0.295808 6.09883 0
M  V30 4492 H 421.926 1.87148 5.41893 0
M  V30 4493 H 420.323 2.66164 5.37845 0
M  V30 4494 H 421.393 2.78393 3.9702 0
M  V30 4495 N 422.737 -1.36956 0.779787 0
M  V30 4496 C 423.984 -1.99491 0.347766 0
M  V30 4497 C 424.312 -1.61898 -1.07793 0
M  V30 4498 O 423.567 -0.86071 -1.75756 0
M  V30 4499 C 423.866 -3.54585 0.447686 0
M  V30 4500 C 423.532 -4.1197 1.83279 0
M  V30 4501 C 422.194 -4.27356 2.2118 0
M  V30 4502 C 424.546 -4.43354 2.74019 0
M  V30 4503 C 421.874 -4.71432 3.4924 0
M  V30 4504 C 424.226 -4.88858 4.01497 0
M  V30 4505 C 422.89 -5.0245 4.39432 0
M  V30 4506 H 422.16 -0.729991 0.127257 0
M  V30 4507 H 424.807 -1.63599 0.995376 0
M  V30 4508 H 423.112 -3.90773 -0.283447 0
M  V30 4509 H 424.809 -4.00888 0.0945948 0
M  V30 4510 H 421.399 -4.00428 1.52825 0
M  V30 4511 H 425.583 -4.31045 2.45995 0
M  V30 4512 H 420.839 -4.80141 3.78516 0
M  V30 4513 H 425.013 -5.12108 4.71931 0
M  V30 4514 H 422.64 -5.36362 5.38721 0
M  V30 4515 N 424.215 -0.530993 -1.48385 0
M  V30 4516 C 425.162 0.231223 -2.29639 0
M  V30 4517 C 426.132 0.932864 -1.37429 0
M  V30 4518 O 427.317 0.933692 -1.66394 0
M  V30 4519 C 424.457 1.27155 -3.2082 0
M  V30 4520 C 423.57 0.578655 -4.28107 0
M  V30 4521 C 422.705 1.602 -5.06467 0
M  V30 4522 C 421.744 0.892625 -6.05556 0
M  V30 4523 N 420.881 1.86157 -6.76971 0
M  V30 4524 H 425.721 -0.467848 -2.94305 0
M  V30 4525 H 423.258 -0.242556 -1.45086 0
M  V30 4526 H 425.216 1.88703 -3.72085 0
M  V30 4527 H 423.846 1.939 -2.58075 0
M  V30 4528 H 422.898 -0.150782 -3.80101 0
M  V30 4529 H 424.21 0.0217065 -4.98795 0
M  V30 4530 H 423.364 2.29173 -5.61751 0
M  V30 4531 H 422.103 2.19285 -4.35621 0
M  V30 4532 H 421.108 0.188829 -5.49476 0
M  V30 4533 H 422.333 0.307878 -6.78402 0
M  V30 4534 H 420.279 2.44147 -6.08875 0
M  V30 4535 H 420.196 1.35608 -7.43738 0
M  V30 4536 H 421.464 2.54325 -7.36844 0
M  V30 4537 N 425.693 1.55336 -0.266172 0
M  V30 4538 C 426.623 2.25146 0.618981 0
M  V30 4539 C 427.604 1.23845 1.16604 0
M  V30 4540 O 428.789 1.52544 1.20183 0
M  V30 4541 C 425.919 2.96572 1.80728 0
M  V30 4542 C 424.873 4.04726 1.39215 0
M  V30 4543 C 424.199 4.63678 2.66283 0
M  V30 4544 C 425.499 5.19407 0.548942 0
M  V30 4545 H 427.193 2.99377 0.0368116 0
M  V30 4546 H 424.739 1.43991 0.0162651 0
M  V30 4547 H 426.692 3.44116 2.43232 0
M  V30 4548 H 425.416 2.19861 2.41514 0
M  V30 4549 H 424.075 3.57979 0.790351 0
M  V30 4550 H 423.723 3.83646 3.25308 0
M  V30 4551 H 423.423 5.367 2.39222 0
M  V30 4552 H 424.947 5.13967 3.29651 0
M  V30 4553 H 426.361 5.63059 1.07876 0
M  V30 4554 H 424.758 5.98936 0.373593 0
M  V30 4555 H 425.828 4.8295 -0.434394 0
M  V30 4556 N 427.171 -0.0066808 1.57599 0
M  V30 4557 C 428.396 -0.707738 1.94951 0
M  V30 4558 C 428.821 -1.66882 0.867868 0
M  V30 4559 O 428.179 -1.80457 -0.17458 0
M  V30 4560 C 428.227 -1.42162 3.31394 0
M  V30 4561 O 427.331 -2.53578 3.25226 0
M  V30 4562 H 426.672 -0.188752 0.636607 0
M  V30 4563 H 429.202 0.0445193 2.04552 0
M  V30 4564 H 429.212 -1.78655 3.66806 0
M  V30 4565 H 427.887 -0.716903 4.09675 0
M  V30 4566 H 426.464 -2.19463 3.01481 0
M  V30 4567 N 428.649 -1.55105 -0.279332 0
M  V30 4568 C 429.895 -1.75672 -1.01327 0
M  V30 4569 C 430.228 -0.552739 -1.86168 0
M  V30 4570 O 429.503 0.449827 -1.89227 0
M  V30 4571 C 429.786 -3.05825 -1.90114 0
M  V30 4572 C 429.639 -4.36565 -1.08309 0
M  V30 4573 C 430.958 -3.31975 -2.8893 0
M  V30 4574 H 428.077 -0.639149 -0.366957 0
M  V30 4575 H 430.719 -1.87833 -0.286154 0
M  V30 4576 H 428.869 -2.95588 -2.52111 0
M  V30 4577 H 430.541 -4.58751 -0.484314 0
M  V30 4578 H 428.784 -4.32076 -0.386362 0
M  V30 4579 H 429.455 -5.23946 -1.73737 0
M  V30 4580 H 431.931 -3.41963 -2.37067 0
M  V30 4581 H 430.807 -4.2432 -3.48201 0
M  V30 4582 H 431.068 -2.51309 -3.63725 0
M  V30 4583 N 430.127 0.543554 -1.4793 0
M  V30 4584 C 431.352 1.32995 -1.59145 0
M  V30 4585 C 431.777 1.86472 -0.246956 0
M  V30 4586 O 431.135 1.63696 0.779324 0
M  V30 4587 C 431.183 2.46623 -2.63077 0
M  V30 4588 O 430.287 3.49261 -2.19295 0
M  V30 4589 H 429.628 0.394472 -0.534124 0
M  V30 4590 H 432.158 0.655489 -1.93816 0
M  V30 4591 H 432.168 2.93001 -2.83926 0
M  V30 4592 H 430.843 2.07059 -3.60693 0
M  V30 4593 H 429.42 3.09094 -2.08603 0
M  V30 4594 N 431.605 1.3629 0.791371 0
M  V30 4595 C 432.882 1.20962 1.53712 0
M  V30 4596 C 433.262 -0.205021 2.10102 0
M  V30 4597 O 432.61 -1.21042 1.93807 0
M  V30 4598 C 432.82 2.29002 2.63361 0
M  V30 4599 C 434.168 2.65572 3.31295 0
M  V30 4600 O 435.192 2.2803 2.73643 0
M  V30 4601 O 434.051 3.3018 4.35481 0
M  V30 4602 H 431.145 0.47086 0.679867 0
M  V30 4603 H 433.691 1.48016 0.830021 0
M  V30 4604 H 432.463 3.2382 2.19674 0
M  V30 4605 H 432.086 2.03303 3.41692 0
M  V30 4606 N 433.083 -1.0153 1.20538 0
M  V30 4607 C 434.499 -1.27461 0.96051 0
M  V30 4608 C 434.699 -1.98273 -0.359193 0
M  V30 4609 O 433.755 -2.27886 -1.0874 0
M  V30 4610 C 435.068 -2.10837 2.14402 0
M  V30 4611 C 436.616 -2.24099 2.18515 0
M  V30 4612 C 437.091 -3.10852 3.36355 0
M  V30 4613 N 438.582 -3.18441 3.36377 0
M  V30 4614 C 439.317 -3.85795 4.24205 0
M  V30 4615 N 438.813 -4.55264 5.22213 0
M  V30 4616 N 440.606 -3.82331 4.12043 0
M  V30 4617 H 432.757 -0.539907 2.05423 0
M  V30 4618 H 435.02 -0.30092 0.898972 0
M  V30 4619 H 434.726 -1.66144 3.09983 0
M  V30 4620 H 434.6 -3.11576 2.12604 0
M  V30 4621 H 436.987 -2.68016 1.23497 0
M  V30 4622 H 437.068 -1.22865 2.24361 0
M  V30 4623 H 436.712 -2.6764 4.31661 0
M  V30 4624 H 436.642 -4.12177 3.27746 0
M  V30 4625 H 439.133 -2.68978 2.65442 0
M  V30 4626 H 439.446 -5.04331 5.85551 0
M  V30 4627 H 437.791 -4.54085 5.26148 0
M  V30 4628 H 440.982 -3.27207 3.34743 0
M  V30 4629 H 441.155 -4.34547 4.807 0
M  V30 4630 N 434.561 -1.01147 -1.20859 0
M  V30 4631 C 435.509 -0.57059 -2.25493 0
M  V30 4632 C 436.503 0.388109 -1.64894 0
M  V30 4633 O 437.709 0.258592 -1.78133 0
M  V30 4634 H 434.084 -0.166191 -0.733406 0
M  V30 4635 H 436.055 -1.46411 -2.60012 0
M  V30 4636 C 434.804 0.0805241 -3.47607 0
M  V30 4637 H 434.127 -0.648156 -3.94511 0
M  V30 4638 H 435.567 0.352197 -4.22535 0
M  V30 4639 C 434.026 1.32175 -3.09889 0
M  V30 4640 O 434.556 2.41553 -3.20959 0
M  V30 4641 N 432.762 1.20392 -2.64488 0
M  V30 4642 H 432.309 0.313905 -2.5568 0
M  V30 4643 H 432.267 2.03541 -2.39621 0
M  V30 4644 N 436.039 1.36541 -0.78704 0
M  V30 4645 C 437.316 1.9355 -0.282424 0
M  V30 4646 C 437.696 1.71919 1.22503 0
M  V30 4647 O 437.044 1.07677 2.01539 0
M  V30 4648 C 437.254 3.4246 -0.672462 0
M  V30 4649 C 438.602 4.19582 -0.650863 0
M  V30 4650 O 439.626 3.50889 -0.612789 0
M  V30 4651 O 438.485 5.42106 -0.691623 0
M  V30 4652 H 435.579 0.824091 -0.0693 0
M  V30 4653 H 438.125 1.45736 -0.869423 0
M  V30 4654 H 436.897 3.51851 -1.71221 0
M  V30 4655 H 436.52 3.97556 -0.0592211 0
M  V30 4656 N 437.518 0.538854 1.48102 0
M  V30 4657 C 438.764 0.00801365 2.02798 0
M  V30 4658 C 439.097 -1.3309 1.41424 0
M  V30 4659 O 438.372 -1.86169 0.563158 0
M  V30 4660 C 438.655 -0.104589 3.59948 0
M  V30 4661 C 438.508 1.26012 4.31788 0
M  V30 4662 C 439.827 -0.827055 4.32259 0
M  V30 4663 H 436.946 0.00438624 0.736987 0
M  V30 4664 H 439.588 0.6976 1.7673 0
M  V30 4665 H 437.738 -0.691893 3.82289 0
M  V30 4666 H 439.41 1.88922 4.2084 0
M  V30 4667 H 437.653 1.83968 3.92859 0
M  V30 4668 H 438.324 1.13424 5.40221 0
M  V30 4669 H 440.8 -0.328578 4.14801 0
M  V30 4670 H 439.676 -0.87476 5.41885 0
M  V30 4671 H 439.937 -1.87927 4.0017 0
M  V30 4672 N 438.996 -1.55193 0.274407 0
M  V30 4673 C 440.245 -1.98758 -0.343213 0
M  V30 4674 C 440.558 -1.16624 -1.5703 0
M  V30 4675 O 441.764 -1.5033 -2.26082 0
M  V30 4676 C 440.22 -3.53759 -0.661996 0
M  V30 4677 C 439.828 -4.4467 0.54524 0
M  V30 4678 C 441.572 -4.05916 -1.24228 0
M  V30 4679 C 439.479 -5.91058 0.201084 0
M  V30 4680 H 438.409 -0.742353 -0.132014 0
M  V30 4681 H 441.06 -1.79545 0.378948 0
M  V30 4682 H 439.442 -3.68772 -1.44304 0
M  V30 4683 H 440.616 -4.41426 1.32212 0
M  V30 4684 H 438.931 -4.03143 1.04232 0
M  V30 4685 H 441.528 -5.12831 -1.51357 0
M  V30 4686 H 441.871 -3.54908 -2.17592 0
M  V30 4687 H 442.404 -3.9434 -0.523542 0
M  V30 4688 H 439.143 -6.46161 1.10258 0
M  V30 4689 H 438.663 -5.97373 -0.539045 0
M  V30 4690 H 440.342 -6.46669 -0.206954 0
M  V30 4691 N 440.474 -0.00167713 -1.576 0
M  V30 4692 C 441.421 0.989195 -2.08527 0
M  V30 4693 C 442.391 1.34031 -0.981065 0
M  V30 4694 O 443.576 1.43839 -1.2536 0
M  V30 4695 C 440.716 2.27537 -2.59463 0
M  V30 4696 C 439.829 1.98314 -3.83791 0
M  V30 4697 C 438.964 3.21025 -4.23222 0
M  V30 4698 C 438.003 2.87495 -5.40382 0
M  V30 4699 N 437.14 4.02749 -5.75098 0
M  V30 4700 H 441.98 0.547973 -2.92919 0
M  V30 4701 H 439.517 0.258917 -1.44803 0
M  V30 4702 H 441.475 3.02729 -2.87073 0
M  V30 4703 H 440.105 2.69325 -1.77943 0
M  V30 4704 H 439.157 1.13482 -3.63078 0
M  V30 4705 H 440.469 1.69601 -4.69081 0
M  V30 4706 H 439.623 4.04561 -4.52123 0
M  V30 4707 H 438.362 3.52877 -3.36644 0
M  V30 4708 H 437.367 2.02367 -5.11202 0
M  V30 4709 H 438.592 2.56889 -6.28637 0
M  V30 4710 H 436.538 4.34494 -4.91478 0
M  V30 4711 H 436.455 3.77566 -6.54966 0
M  V30 4712 H 437.723 4.87068 -6.08592 0
M  V30 4713 N 441.952 1.55251 0.271103 0
M  V30 4714 C 442.862 1.9136 1.35714 0
M  V30 4715 C 443.878 0.811075 1.5394 0
M  V30 4716 O 445.054 1.11031 1.6803 0
M  V30 4717 C 442.119 2.1798 2.69603 0
M  V30 4718 C 441.18 3.4153 2.60107 0
M  V30 4719 C 440.413 3.66871 3.8761 0
M  V30 4720 O 440.636 2.94689 4.8838 0
M  V30 4721 O 439.57 4.60405 3.87699 0
M  V30 4722 H 443.396 2.83815 1.08088 0
M  V30 4723 H 440.981 1.41821 0.469792 0
M  V30 4724 H 442.863 2.36518 3.48765 0
M  V30 4725 H 441.538 1.28708 2.97012 0
M  V30 4726 H 440.445 3.28325 1.79314 0
M  V30 4727 H 441.778 4.31027 2.37647 0
M  V30 4728 N 443.43 -0.535701 1.48216 0
M  V30 4729 C 444.679 -1.28828 1.55197 0
M  V30 4730 C 444.992 -1.94263 0.228278 0
M  V30 4731 O 446.198 -2.70927 0.176278 0
M  V30 4732 C 444.654 -2.33727 2.73678 0
M  V30 4733 C 444.262 -1.74386 4.12666 0
M  V30 4734 C 446.006 -3.1003 2.89968 0
M  V30 4735 C 443.913 -2.77192 5.22416 0
M  V30 4736 H 442.843 -0.484484 0.577747 0
M  V30 4737 H 445.494 -0.56646 1.74538 0
M  V30 4738 H 443.876 -3.08919 2.4776 0
M  V30 4739 H 445.05 -1.05421 4.48579 0
M  V30 4740 H 443.365 -1.10595 4.01445 0
M  V30 4741 H 445.962 -3.86842 3.6913 0
M  V30 4742 H 446.305 -3.65542 1.9921 0
M  V30 4743 H 446.838 -2.41952 3.15759 0
M  V30 4744 H 443.577 -2.26507 6.15122 0
M  V30 4745 H 443.097 -3.44502 4.90998 0
M  V30 4746 H 444.776 -3.40285 5.50286 0
M  V30 4747 N 444.908 -1.36708 -0.784132 0
M  V30 4748 C 445.838 -1.34153 -1.91116 0
M  V30 4749 C 446.819 -0.212121 -1.68772 0
M  V30 4750 O 448.004 -0.410581 -1.8981 0
M  V30 4751 C 445.134 -1.13535 -3.28218 0
M  V30 4752 C 444.088 -2.23356 -3.65097 0
M  V30 4753 C 443.414 -1.87875 -5.00607 0
M  V30 4754 C 444.714 -3.65473 -3.73131 0
M  V30 4755 H 446.408 -2.28459 -1.93512 0
M  V30 4756 H 443.954 -1.09973 -0.929618 0
M  V30 4757 H 445.907 -1.10381 -4.06687 0
M  V30 4758 H 444.631 -0.156804 -3.26223 0
M  V30 4759 H 443.29 -2.25645 -2.88929 0
M  V30 4760 H 442.938 -0.885814 -4.95139 0
M  V30 4761 H 442.638 -2.61406 -5.26252 0
M  V30 4762 H 444.162 -1.86286 -5.81489 0
M  V30 4763 H 445.576 -3.65382 -4.41779 0
M  V30 4764 H 443.973 -4.37953 -4.10265 0
M  V30 4765 H 445.043 -3.99995 -2.74102 0
M  V30 4766 N 446.386 1.0089 -1.21074 0
M  V30 4767 C 447.663 1.71834 -0.934469 0
M  V30 4768 C 448.043 2.0368 0.554753 0
M  V30 4769 O 447.391 1.70742 1.51854 0
M  V30 4770 C 447.601 2.98061 -1.8155 0
M  V30 4771 C 448.949 3.7117 -2.06199 0
M  V30 4772 O 449.973 3.08034 -1.78867 0
M  V30 4773 O 448.832 4.84721 -2.52404 0
M  V30 4774 H 445.926 0.749253 -0.35007 0
M  V30 4775 H 448.472 1.06668 -1.31985 0
M  V30 4776 H 447.244 2.70908 -2.82355 0
M  V30 4777 H 446.867 3.70968 -1.43068 0
M  V30 4778 N 447.864 1.01787 1.20321 0
M  V30 4779 C 448.827 0.593972 2.2137 0
M  V30 4780 C 449.827 -0.336553 1.57239 0
M  V30 4781 O 451.017 -0.125069 1.7375 0
M  V30 4782 C 448.149 -0.132433 3.40643 0
M  V30 4783 H 449.342 1.48791 2.60387 0
M  V30 4784 H 446.895 0.807803 1.33807 0
M  V30 4785 H 447.63 -1.04123 3.0713 0
M  V30 4786 H 447.415 0.53605 3.88418 0
M  V30 4787 H 448.905 -0.416314 4.1552 0
M  V30 4788 N 449.342 -1.36122 0.79427 0
M  V30 4789 C 450.758 -1.5232 0.476525 0
M  V30 4790 C 450.958 -1.74685 -1.00436 0
M  V30 4791 O 450.014 -1.78115 -1.78973 0
M  V30 4792 C 451.327 -2.70607 1.31119 0
M  V30 4793 C 452.875 -2.8448 1.30537 0
M  V30 4794 C 453.35 -4.05778 2.12387 0
M  V30 4795 N 454.841 -4.12933 2.09859 0
M  V30 4796 C 455.576 -5.05876 2.69957 0
M  V30 4797 N 455.072 -6.04232 3.38934 0
M  V30 4798 N 456.865 -4.98528 2.59665 0
M  V30 4799 H 449.016 -1.1986 1.75349 0
M  V30 4800 H 451.279 -0.585418 0.745647 0
M  V30 4801 H 450.985 -2.60619 2.36158 0
M  V30 4802 H 450.859 -3.64888 0.955843 0
M  V30 4803 H 453.246 -2.93927 0.262876 0
M  V30 4804 H 453.327 -1.91093 1.70051 0
M  V30 4805 H 452.971 -3.97092 3.1667 0
M  V30 4806 H 452.901 -4.98323 1.70242 0
M  V30 4807 H 455.392 -3.42515 1.59662 0
M  V30 4808 H 455.705 -6.71724 3.82109 0
M  V30 4809 H 454.05 -6.04443 3.43036 0
M  V30 4810 H 457.241 -4.20641 2.05375 0
M  V30 4811 H 457.414 -5.70773 3.06793 0
M  V30 4812 N 450.82 -0.546701 -1.47814 0
M  V30 4813 C 451.783 0.196287 -2.28358 0
M  V30 4814 C 452.783 0.852437 -1.36346 0
M  V30 4815 O 453.973 0.709913 -1.59078 0
M  V30 4816 C 451.105 1.28579 -3.15722 0
M  V30 4817 H 452.298 -0.511086 -2.95513 0
M  V30 4818 H 449.851 -0.303248 -1.5333 0
M  V30 4819 H 450.586 2.0259 -2.53235 0
M  V30 4820 H 450.371 0.820229 -3.83425 0
M  V30 4821 H 451.861 1.80793 -3.76435 0
M  V30 4822 N 452.299 1.55045 -0.282633 0
M  V30 4823 C 453.545 2.00056 0.332481 0
M  V30 4824 C 453.878 1.1708 1.54939 0
M  V30 4825 O 453.153 0.2427 1.9298 0
M  V30 4826 C 453.436 3.53086 0.70725 0
M  V30 4827 C 453.289 4.46813 -0.517521 0
M  V30 4828 C 454.608 4.12245 1.54084 0
M  V30 4829 H 451.727 0.727268 0.119373 0
M  V30 4830 H 454.369 1.85932 -0.391076 0
M  V30 4831 H 452.519 3.65253 1.32372 0
M  V30 4832 H 454.191 4.46579 -1.15607 0
M  V30 4833 H 452.434 4.18163 -1.1542 0
M  V30 4834 H 453.105 5.51595 -0.211426 0
M  V30 4835 H 455.581 4.03401 1.02013 0
M  V30 4836 H 454.457 5.19515 1.77186 0
M  V30 4837 H 454.718 3.62951 2.52427 0
M  V30 4838 N 453.777 0.010035 1.57597 0
M  V30 4839 C 454.707 -0.976857 2.12084 0
M  V30 4840 C 455.688 -1.35191 1.03235 0
M  V30 4841 O 456.873 -1.43389 1.3097 0
M  V30 4842 C 454.003 -2.26548 2.63236 0
M  V30 4843 C 452.957 -2.03175 3.76701 0
M  V30 4844 C 452.283 -3.38138 4.14206 0
M  V30 4845 C 453.583 -1.38625 5.03568 0
M  V30 4846 H 455.277 -0.523145 2.94794 0
M  V30 4847 H 452.823 -0.250195 1.4181 0
M  V30 4848 H 454.776 -2.95952 2.99984 0
M  V30 4849 H 453.5 -2.74051 1.77661 0
M  V30 4850 H 452.159 -1.36195 3.40362 0
M  V30 4851 H 451.807 -3.83363 3.25641 0
M  V30 4852 H 451.507 -3.23312 4.90656 0
M  V30 4853 H 453.031 -4.08841 4.53521 0
M  V30 4854 H 454.445 -1.98 5.38023 0
M  V30 4855 H 452.842 -1.34256 5.84889 0
M  V30 4856 H 453.912 -0.356722 4.83586 0
M  V30 4857 N 455.255 -1.55392 -0.262866 0
M  V30 4858 C 456.501 -1.76737 -0.99458 0
M  V30 4859 C 456.834 -0.572453 -1.85571 0
M  V30 4860 O 456.109 0.429732 -1.89693 0
M  V30 4861 C 456.392 -3.07824 -1.8686 0
M  V30 4862 C 456.245 -4.3769 -1.03672 0
M  V30 4863 C 457.564 -3.35021 -2.85393 0
M  V30 4864 H 454.683 -0.643005 -0.360157 0
M  V30 4865 H 457.325 -1.88126 -0.266216 0
M  V30 4866 H 455.475 -2.98245 -2.48962 0
M  V30 4867 H 457.147 -4.59238 -0.43563 0
M  V30 4868 H 455.39 -4.32461 -0.340513 0
M  V30 4869 H 456.061 -5.25759 -1.6817 0
M  V30 4870 H 458.537 -3.44458 -2.33426 0
M  V30 4871 H 457.413 -4.27989 -3.43681 0
M  V30 4872 H 457.674 -2.55153 -3.61039 0
M  V30 4873 N 456.733 0.527833 -1.48498 0
M  V30 4874 C 457.981 1.28101 -1.56316 0
M  V30 4875 C 458.302 1.9352 -0.239781 0
M  V30 4876 O 457.572 1.81433 0.738849 0
M  V30 4877 H 456.152 0.475793 -0.575873 0
M  V30 4878 H 458.814 0.614052 -1.84974 0
M  V30 4879 H 457.91 2.05916 -2.34532 0
M  V30 4880 N 458.211 1.37122 0.776871 0
M  V30 4881 C 459.436 1.354 1.57104 0
M  V30 4882 C 459.861 -0.0595562 1.88006 0
M  V30 4883 O 459.219 -1.03514 1.48844 0
M  V30 4884 C 459.267 2.19472 2.8612 0
M  V30 4885 O 458.371 1.59582 3.80273 0
M  V30 4886 H 457.712 0.462869 0.476076 0
M  V30 4887 H 460.242 1.80577 0.961932 0
M  V30 4888 H 460.252 2.32502 3.35271 0
M  V30 4889 H 458.927 3.22222 2.62956 0
M  V30 4890 H 457.504 1.55564 3.38902 0
M  V30 4891 N 459.689 -1.00246 1.21608 0
M  V30 4892 C 461.1 -1.55511 1.03312 0
M  V30 4893 C 461.451 -1.91946 -0.406332 0
M  V30 4894 O 460.576 -1.73753 -1.28992 0
M  V30 4895 C 461.171 -2.82576 1.86913 0
M  V30 4896 C 459.73 -3.34318 1.72941 0
M  V30 4897 C 458.877 -2.07487 1.83968 0
M  V30 4898 H 461.828 -0.824638 1.35593 0
M  V30 4899 H 461.849 -3.54559 1.38087 0
M  V30 4900 H 461.361 -2.56026 2.91672 0
M  V30 4901 H 459.462 -3.65797 0.70877 0
M  V30 4902 H 459.575 -4.05566 2.55055 0
M  V30 4903 H 457.939 -2.20603 1.27304 0
M  V30 4904 H 458.722 -1.83346 2.9024 0
M  V30 4905 N 461.167 -1.02423 -1.1978 0
M  V30 4906 C 462.395 -0.737456 -1.93311 0
M  V30 4907 C 462.81 0.703023 -1.75223 0
M  V30 4908 O 462.167 1.47761 -1.07112 0
M  V30 4909 C 462.218 -1.0733 -3.45199 0
M  V30 4910 O 461.939 -2.4572 -3.62702 0
M  V30 4911 C 463.44 -0.80866 -4.35862 0
M  V30 4912 H 460.66 -0.2702 -0.614193 0
M  V30 4913 H 463.204 -1.36747 -1.52054 0
M  V30 4914 H 461.359 -0.488545 -3.84307 0
M  V30 4915 H 461.773 -2.58081 -4.56612 0
M  V30 4916 H 463.247 -1.09365 -5.41057 0
M  V30 4917 H 463.724 0.257025 -4.38447 0
M  V30 4918 H 464.33 -1.37592 -4.02428 0
M  V30 4919 N 462.645 1.35699 -0.801477 0
M  V30 4920 C 463.894 1.98165 -0.375979 0
M  V30 4921 C 464.207 1.64306 1.06127 0
M  V30 4922 O 465.413 2.20097 1.58964 0
M  V30 4923 C 463.869 3.54497 -0.621305 0
M  V30 4924 C 463.477 3.9727 -2.07076 0
M  V30 4925 C 465.221 4.23697 -0.26091 0
M  V30 4926 C 463.128 5.46427 -2.26211 0
M  V30 4927 H 462.058 0.741478 -0.136844 0
M  V30 4928 H 464.709 1.54834 -0.984814 0
M  V30 4929 H 463.091 3.95958 0.0574112 0
M  V30 4930 H 464.265 3.66974 -2.78687 0
M  V30 4931 H 462.58 3.40943 -2.39054 0
M  V30 4932 H 465.177 5.33334 -0.381994 0
M  V30 4933 H 465.52 4.0869 0.792344 0
M  V30 4934 H 466.053 3.87639 -0.893339 0
M  V30 4935 H 462.792 5.66396 -3.29963 0
M  V30 4936 H 462.312 5.78309 -1.59119 0
M  V30 4937 H 463.991 6.12819 -2.07513 0
M  V30 4938 N 464.123 0.554532 1.47522 0
M  V30 4939 C 465.071 -0.207765 2.3167 0
M  V30 4940 C 466.065 -0.911914 1.4276 0
M  V30 4941 O 467.271 -0.833504 1.59539 0
M  V30 4942 H 463.646 -0.0858726 0.747081 0
M  V30 4943 H 465.617 0.521178 2.93813 0
M  V30 4944 C 464.366 -1.2263 3.25357 0
M  V30 4945 H 463.689 -0.693887 3.93732 0
M  V30 4946 H 465.129 -1.73062 3.87073 0
M  V30 4947 C 463.588 -2.27278 2.4869 0
M  V30 4948 O 464.118 -3.34156 2.22941 0
M  V30 4949 N 462.324 -2.01134 2.09746 0
M  V30 4950 H 461.871 -1.14232 2.30887 0
M  V30 4951 H 461.829 -2.71369 1.58765 0
M  V30 4952 N 465.601 -1.54893 0.290851 0
M  V30 4953 C 466.549 -2.24579 -0.605576 0
M  V30 4954 C 467.543 -1.24824 -1.14522 0
M  V30 4955 O 468.749 -1.42706 -1.09704 0
M  V30 4956 H 465.124 -0.720946 -0.213872 0
M  V30 4957 H 467.095 -2.984 0.0048173 0
M  V30 4958 C 465.844 -2.99224 -1.77088 0
M  V30 4959 H 465.167 -3.75782 -1.36484 0
M  V30 4960 H 466.607 -3.51281 -2.3744 0
M  V30 4961 C 465.066 -2.05602 -2.66888 0
M  V30 4962 O 465.596 -1.61745 -3.67698 0
M  V30 4963 N 463.802 -1.71771 -2.34399 0
M  V30 4964 H 463.349 -2.07633 -1.52468 0
M  V30 4965 H 463.307 -1.09403 -2.94751 0
M  V30 4966 N 467.08 -0.0183926 -1.57589 0
M  V30 4967 C 468.357 0.700621 -1.82622 0
M  V30 4968 C 468.737 1.90951 -0.90005 0
M  V30 4969 O 468.085 2.28452 0.0469145 0
M  V30 4970 C 468.295 1.08899 -3.31575 0
M  V30 4971 C 469.643 1.48514 -3.9778 0
M  V30 4972 O 470.667 1.18227 -3.36007 0
M  V30 4973 O 469.526 2.04903 -5.06633 0
M  V30 4974 H 466.62 0.342743 -0.752633 0
M  V30 4975 H 469.166 -0.0452548 -1.6964 0
M  V30 4976 H 467.938 0.228113 -3.90635 0
M  V30 4977 H 467.561 1.89338 -3.49624 0
M  V30 4978 N 468.558 1.5553 0.254621 0
M  V30 4979 C 469.807 1.76202 0.981612 0
M  V30 4980 C 470.12 0.580883 1.86776 0
M  V30 4981 O 471.326 0.670448 2.63092 0
M  V30 4982 C 469.782 3.11921 1.79537 0
M  V30 4983 C 469.39 4.37659 0.956991 0
M  V30 4984 C 471.134 3.41936 2.51555 0
M  V30 4985 C 469.041 5.64411 1.76619 0
M  V30 4986 H 467.971 0.656841 0.370237 0
M  V30 4987 H 470.622 1.81969 0.236556 0
M  V30 4988 H 469.004 3.00241 2.58208 0
M  V30 4989 H 470.178 4.60307 0.21315 0
M  V30 4990 H 468.493 4.14922 0.350497 0
M  V30 4991 H 471.09 4.33849 3.12536 0
M  V30 4992 H 471.433 2.62905 3.22779 0
M  V30 4993 H 471.966 3.54797 1.799 0
M  V30 4994 H 468.705 6.46241 1.09783 0
M  V30 4995 H 468.225 5.45877 2.48551 0
M  V30 4996 H 469.904 6.03386 2.33527 0
M  V30 4997 N 470.036 -0.519951 1.48776 0
M  V30 4998 C 470.966 -1.63253 1.66945 0
M  V30 4999 C 471.947 -1.62014 0.518224 0
M  V30 5000 O 473.132 -1.79053 0.751919 0
M  V30 5001 C 470.262 -3.0181 1.71836 0
M  V30 5002 C 469.216 -3.17911 2.8656 0
M  V30 5003 C 468.542 -4.5763 2.76548 0
M  V30 5004 C 469.842 -2.99729 4.27738 0
M  V30 5005 H 471.536 -1.48302 2.6009 0
M  V30 5006 H 469.082 -0.712026 1.25165 0
M  V30 5007 H 471.035 -3.79525 1.83135 0
M  V30 5008 H 469.759 -3.17806 0.752775 0
M  V30 5009 H 468.418 -2.42616 2.74833 0
M  V30 5010 H 468.066 -4.70476 1.77937 0
M  V30 5011 H 467.766 -4.69346 3.53536 0
M  V30 5012 H 469.29 -5.37431 2.89828 0
M  V30 5013 H 470.704 -3.67228 4.40246 0
M  V30 5014 H 469.101 -3.22932 5.05801 0
M  V30 5015 H 470.171 -1.96047 4.43502 0
M  V30 5016 N 471.514 -1.37532 -0.769588 0
M  V30 5017 C 472.925 -1.29382 -1.346 0
M  V30 5018 C 473.276 0.0576039 -1.96115 0
M  V30 5019 O 472.401 0.95947 -1.93967 0
M  V30 5020 C 472.996 -2.34298 -2.44724 0
M  V30 5021 C 471.555 -2.29776 -2.98128 0
M  V30 5022 C 470.702 -2.18013 -1.71364 0
M  V30 5023 H 473.653 -1.48123 -0.56968 0
M  V30 5024 H 473.674 -1.99089 -3.24259 0
M  V30 5025 H 473.186 -3.32645 -1.99922 0
M  V30 5026 H 471.287 -1.34959 -3.47299 0
M  V30 5027 H 471.4 -3.23276 -3.53595 0
M  V30 5028 H 469.764 -1.64595 -1.94372 0
M  V30 5029 H 470.547 -3.18278 -1.28662 0
M  V30 5030 N 472.992 0.995999 -1.22138 0
M  V30 5031 C 474.238 1.73767 -1.04561 0
M  V30 5032 C 474.571 1.89633 0.418698 0
M  V30 5033 O 473.846 1.43723 1.3105 0
M  V30 5034 C 474.129 3.14505 -1.75382 0
M  V30 5035 C 473.982 3.06306 -3.29388 0
M  V30 5036 C 475.301 4.13615 -1.50369 0
M  V30 5037 H 472.42 0.630728 -0.38125 0
M  V30 5038 H 475.062 1.16057 -1.50435 0
M  V30 5039 H 473.212 3.63775 -1.36383 0
M  V30 5040 H 474.884 2.64681 -3.77812 0
M  V30 5041 H 473.127 2.43186 -3.59226 0
M  V30 5042 H 473.798 4.05884 -3.74116 0
M  V30 5043 H 476.274 3.73089 -1.84239 0
M  V30 5044 H 475.15 5.10212 -2.02421 0
M  V30 5045 H 475.411 4.39949 -0.435611 0
M  V30 5046 N 474.47 1.03057 1.19235 0
M  V30 5047 C 475.716 0.729098 1.89241 0
M  V30 5048 C 476.049 -0.740573 1.79525 0
M  V30 5049 O 475.324 -1.53946 1.18874 0
M  V30 5050 C 475.607 1.18304 3.40112 0
M  V30 5051 C 475.46 2.71406 3.5869 0
M  V30 5052 C 476.779 0.765161 4.33397 0
M  V30 5053 H 473.898 0.266338 0.687192 0
M  V30 5054 H 476.54 1.28079 1.40341 0
M  V30 5055 H 474.69 0.713672 3.81889 0
M  V30 5056 H 476.362 3.26303 3.26074 0
M  V30 5057 H 474.605 3.11717 3.01687 0
M  V30 5058 H 475.276 2.98225 4.64506 0
M  V30 5059 H 477.752 1.16889 3.99345 0
M  V30 5060 H 476.628 1.11065 5.37546 0
M  V30 5061 H 476.889 -0.332372 4.40849 0
M  V30 5062 N 475.948 -1.35272 0.808662 0
M  V30 5063 C 477.173 -2.03477 0.401475 0
M  V30 5064 C 477.598 -1.60537 -0.980279 0
M  V30 5065 O 476.956 -0.78304 -1.63518 0
M  V30 5066 C 477.004 -3.57181 0.495354 0
M  V30 5067 O 476.108 -4.09474 -0.490397 0
M  V30 5068 H 475.449 -0.642561 0.167366 0
M  V30 5069 H 477.979 -1.72824 1.09512 0
M  V30 5070 H 477.989 -4.06356 0.365912 0
M  V30 5071 H 476.664 -3.87784 1.5032 0
M  V30 5072 H 475.241 -3.71516 -0.321023 0
M  V30 5073 N 477.426 -0.562348 -1.47226 0
M  V30 5074 C 478.837 -0.130325 -1.86245 0
M  V30 5075 C 479.188 1.30128 -1.46838 0
M  V30 5076 O 478.313 1.97974 -0.873805 0
M  V30 5077 C 478.908 -0.229738 -3.3802 0
M  V30 5078 C 477.467 0.14728 -3.76112 0
M  V30 5079 C 476.614 -0.574971 -2.71274 0
M  V30 5080 H 479.565 -0.771773 -1.3867 0
M  V30 5081 H 479.586 0.550316 -3.76499 0
M  V30 5082 H 479.098 -1.27178 -3.66671 0
M  V30 5083 H 477.199 1.19023 -3.53078 0
M  V30 5084 H 477.312 -0.214858 -4.78618 0
M  V30 5085 H 475.676 -0.0174756 -2.54694 0
M  V30 5086 H 476.459 -1.61827 -3.02766 0
M  V30 5087 N 478.904 1.54736 -0.299062 0
M  V30 5088 C 479.834 2.26409 0.571085 0
M  V30 5089 C 480.815 1.2629 1.13951 0
M  V30 5090 O 482 1.55059 1.16921 0
M  V30 5091 C 479.13 3.00338 1.74396 0
M  V30 5092 C 478.084 4.07588 1.30599 0
M  V30 5093 C 477.41 4.69222 2.56387 0
M  V30 5094 C 478.71 5.20455 0.438645 0
M  V30 5095 H 480.404 2.99388 -0.0266991 0
M  V30 5096 H 477.95 1.43993 -0.0142812 0
M  V30 5097 H 479.903 3.49198 2.35878 0
M  V30 5098 H 478.627 2.24934 2.36796 0
M  V30 5099 H 477.286 3.59575 0.71424 0
M  V30 5100 H 476.934 3.9046 3.17097 0
M  V30 5101 H 476.634 5.41653 2.27784 0
M  V30 5102 H 478.158 5.20844 3.18675 0
M  V30 5103 H 479.572 5.65221 0.959085 0
M  V30 5104 H 477.969 5.99594 0.246466 0
M  V30 5105 H 479.039 4.8192 -0.536738 0
M  V30 5106 N 480.382 0.0267497 1.57577 0
M  V30 5107 C 481.312 -0.954308 2.13108 0
M  V30 5108 C 482.293 -1.34088 1.04663 0
M  V30 5109 O 483.478 -1.41992 1.32484 0
M  V30 5110 C 480.608 -2.23744 2.65624 0
M  V30 5111 C 479.562 -1.99168 3.78835 0
M  V30 5112 C 478.888 -3.33726 4.17769 0
M  V30 5113 C 480.188 -1.33277 5.0501 0
M  V30 5114 H 481.882 -0.491848 2.95332 0
M  V30 5115 H 479.428 -0.23514 1.42067 0
M  V30 5116 H 481.381 -2.92754 3.03106 0
M  V30 5117 H 480.105 -2.72151 1.80558 0
M  V30 5118 H 478.764 -1.32577 3.41788 0
M  V30 5119 H 478.412 -3.79888 3.29688 0
M  V30 5120 H 478.112 -3.18089 4.94058 0
M  V30 5121 H 479.636 -4.04008 4.57832 0
M  V30 5122 H 481.05 -1.92283 5.40093 0
M  V30 5123 H 479.447 -1.28045 5.8628 0
M  V30 5124 H 480.517 -0.305411 4.83937 0
M  V30 5125 N 481.861 -1.55662 -0.24637 0
M  V30 5126 C 483.138 -1.68272 -0.997198 0
M  V30 5127 C 483.518 -0.566785 -2.03349 0
M  V30 5128 O 482.866 0.429688 -2.24424 0
M  V30 5129 C 483.076 -3.08594 -1.63006 0
M  V30 5130 C 484.424 -3.6721 -2.13171 0
M  V30 5131 O 485.448 -3.11397 -1.72946 0
M  V30 5132 O 484.307 -4.65054 -2.87031 0
M  V30 5133 H 481.401 -0.684429 -0.464205 0
M  V30 5134 H 483.947 -1.67993 -0.240114 0
M  V30 5135 H 482.719 -3.81264 -0.880527 0
M  V30 5136 H 482.342 -3.12886 -2.45333 0
M  V30 5137 N 483.339 0.512053 -1.4905 0
M  V30 5138 C 484.616 1.27337 -1.48474 0
M  V30 5139 C 484.996 2.1009 -0.206301 0
M  V30 5140 O 484.344 2.136 0.811609 0
M  V30 5141 C 484.554 2.13954 -2.75726 0
M  V30 5142 C 485.902 2.73507 -3.24776 0
M  V30 5143 O 486.926 2.24229 -2.76767 0
M  V30 5144 O 485.785 3.63186 -4.08361 0
M  V30 5145 H 482.879 0.575652 -0.593762 0
M  V30 5146 H 485.425 0.527232 -1.61302 0
M  V30 5147 H 484.197 1.52709 -3.60272 0
M  V30 5148 H 483.82 2.95782 -2.65705 0
M  V30 5149 N 484.817 1.37938 0.762283 0
M  V30 5150 C 485.747 1.37176 1.88958 0
M  V30 5151 C 486.728 0.238945 1.68413 0
M  V30 5152 O 487.913 0.440726 1.89133 0
M  V30 5153 C 485.043 1.18742 3.2637 0
M  V30 5154 C 483.997 2.29136 3.61498 0
M  V30 5155 C 483.323 1.95816 4.97554 0
M  V30 5156 C 484.623 3.71363 3.6727 0
M  V30 5157 H 486.317 2.31509 1.89853 0
M  V30 5158 H 483.863 1.11438 0.912005 0
M  V30 5159 H 485.816 1.16837 4.04879 0
M  V30 5160 H 484.54 0.208683 3.25933 0
M  V30 5161 H 483.199 2.30213 2.85303 0
M  V30 5162 H 482.847 0.964475 4.93667 0
M  V30 5163 H 482.547 2.69745 5.22026 0
M  V30 5164 H 484.071 1.95513 5.78452 0
M  V30 5165 H 485.485 3.72364 4.35911 0
M  V30 5166 H 483.882 4.44425 4.03245 0
M  V30 5167 H 484.952 4.04305 2.67704 0
M  V30 5168 N 486.295 -0.989507 1.22664 0
M  V30 5169 C 487.541 -1.7321 1.05481 0
M  V30 5170 C 487.874 -1.89852 -0.408635 0
M  V30 5171 O 487.149 -1.44416 -1.30285 0
M  V30 5172 C 487.432 -3.1357 1.77047 0
M  V30 5173 C 487.285 -3.04555 3.31008 0
M  V30 5174 C 488.604 -4.12812 1.5256 0
M  V30 5175 H 485.723 -0.628697 0.384589 0
M  V30 5176 H 488.365 -1.15258 1.51049 0
M  V30 5177 H 486.515 -3.63046 1.3831 0
M  V30 5178 H 488.187 -2.62674 3.7921 0
M  V30 5179 H 486.43 -2.41278 3.6051 0
M  V30 5180 H 487.101 -4.03894 3.76263 0
M  V30 5181 H 489.577 -3.72106 1.86215 0
M  V30 5182 H 488.453 -5.09132 2.05124 0
M  V30 5183 H 488.714 -4.39711 0.458936 0
M  V30 5184 N 487.773 -1.03688 -1.18687 0
M  V30 5185 C 489.021 -0.736572 -1.88199 0
M  V30 5186 C 489.342 0.737665 -1.80509 0
M  V30 5187 O 488.612 1.53204 -1.22088 0
M  V30 5188 H 487.192 -0.269466 -0.696704 0
M  V30 5189 H 489.854 -1.31282 -1.44052 0
M  V30 5190 H 488.95 -1.03802 -2.94332 0
M  V30 5191 N 489.251 1.34841 -0.815825 0
M  V30 5192 C 490.181 2.32187 -0.247298 0
M  V30 5193 C 491.162 1.5791 0.632344 0
M  V30 5194 O 492.347 1.8593 0.560698 0
M  V30 5195 C 489.477 3.42122 0.597466 0
M  V30 5196 C 488.431 4.27602 -0.184446 0
M  V30 5197 C 487.757 5.28942 0.782609 0
M  V30 5198 C 489.057 5.03502 -1.38865 0
M  V30 5199 H 490.751 2.79985 -1.06061 0
M  V30 5200 H 488.297 1.34611 -0.511461 0
M  V30 5201 H 490.25 4.09232 1.00533 0
M  V30 5202 H 488.974 2.92956 1.44376 0
M  V30 5203 H 487.633 3.62085 -0.573592 0
M  V30 5204 H 487.281 4.7604 1.62466 0
M  V30 5205 H 486.981 5.87008 0.263695 0
M  V30 5206 H 488.505 5.98922 1.18848 0
M  V30 5207 H 489.919 5.63506 -1.05518 0
M  V30 5208 H 488.316 5.71108 -1.8427 0
M  V30 5209 H 489.386 4.33608 -2.17054 0
M  V30 5210 N 490.729 0.570148 1.46925 0
M  V30 5211 C 492.145 0.23087 1.57921 0
M  V30 5212 C 492.345 -1.26676 1.56702 0
M  V30 5213 O 491.401 -2.04774 1.47729 0
M  V30 5214 C 492.714 0.868973 2.8787 0
M  V30 5215 C 494.262 0.841397 3.01479 0
M  V30 5216 C 494.737 1.45881 4.34146 0
M  V30 5217 N 496.228 1.42258 4.40814 0
M  V30 5218 C 496.963 1.8698 5.42057 0
M  V30 5219 N 496.459 2.39618 6.50042 0
M  V30 5220 N 498.252 1.77972 5.33181 0
M  V30 5221 H 490.403 1.54301 1.45962 0
M  V30 5222 H 492.666 0.644224 0.69547 0
M  V30 5223 H 492.372 1.922 2.94537 0
M  V30 5224 H 492.246 0.369682 3.75384 0
M  V30 5225 H 494.633 -0.202973 2.94401 0
M  V30 5226 H 494.714 1.37858 2.15474 0
M  V30 5227 H 494.358 2.50231 4.4198 0
M  V30 5228 H 494.288 0.896958 5.18905 0
M  V30 5229 H 496.779 1.03768 3.63374 0
M  V30 5230 H 497.092 2.71633 7.23488 0
M  V30 5231 H 495.437 2.43636 6.50897 0
M  V30 5232 H 498.628 1.36617 4.4772 0
M  V30 5233 H 498.801 2.13143 6.11943 0
M  V30 5234 N 492.207 -1.54576 0.307264 0
M  V30 5235 C 493.618 -1.8579 -0.184121 0
M  V30 5236 C 493.969 -1.22914 -1.52927 0
M  V30 5237 O 493.094 -0.529126 -2.09831 0
M  V30 5238 C 493.689 -3.37081 -0.340862 0
M  V30 5239 C 492.248 -3.68304 -0.776465 0
M  V30 5240 C 491.395 -2.77076 0.111503 0
M  V30 5241 H 494.346 -1.49656 0.528078 0
M  V30 5242 H 494.367 -3.61922 -1.17443 0
M  V30 5243 H 493.879 -3.82815 0.638309 0
M  V30 5244 H 491.98 -3.28092 -1.76596 0
M  V30 5245 H 492.093 -4.75434 -0.591512 0
M  V30 5246 H 490.457 -2.51374 -0.410256 0
M  V30 5247 H 491.24 -3.25632 1.08714 0
M  V30 5248 N 493.685 -0.035106 -1.57561 0
M  V30 5249 C 494.632 0.94474 -2.10578 0
M  V30 5250 C 495.602 1.3192 -1.00927 0
M  V30 5251 O 496.787 1.41147 -1.28382 0
M  V30 5252 C 493.927 2.21982 -2.64231 0
M  V30 5253 C 493.04 1.90128 -3.87911 0
M  V30 5254 C 492.175 3.11975 -4.29936 0
M  V30 5255 C 491.214 2.75968 -5.46359 0
M  V30 5256 N 490.351 3.90459 -5.83512 0
M  V30 5257 H 495.191 0.485717 -2.94015 0
M  V30 5258 H 492.728 0.228143 -1.4532 0
M  V30 5259 H 494.686 2.96572 -2.9343 0
M  V30 5260 H 493.316 2.6549 -1.83616 0
M  V30 5261 H 492.368 1.05755 -3.65404 0
M  V30 5262 H 493.68 1.59613 -4.72573 0
M  V30 5263 H 492.834 3.9488 -4.60603 0
M  V30 5264 H 491.573 3.45657 -3.44053 0
M  V30 5265 H 490.578 1.91478 -5.1538 0
M  V30 5266 H 491.803 2.43497 -6.33945 0
M  V30 5267 H 489.749 4.23971 -5.00584 0
M  V30 5268 H 489.666 3.63588 -6.62827 0
M  V30 5269 H 490.934 4.7405 -6.18787 0
M  V30 5270 N 495.163 1.55791 0.238111 0
M  V30 5271 C 496.111 1.91885 1.31464 0
M  V30 5272 C 497.105 0.798929 1.49377 0
M  V30 5273 O 498.311 0.983626 1.50747 0
M  V30 5274 H 494.686 0.609551 0.440399 0
M  V30 5275 H 496.657 2.81747 0.982925 0
M  V30 5276 C 495.406 2.23763 2.6613 0
M  V30 5277 H 494.729 3.09444 2.53149 0
M  V30 5278 H 496.169 2.52915 3.40309 0
M  V30 5279 C 494.628 1.05699 3.1989 0
M  V30 5280 O 495.158 0.309524 4.00506 0
M  V30 5281 N 493.364 0.845251 2.78036 0
M  V30 5282 H 492.911 1.4548 2.12588 0
M  V30 5283 H 492.869 0.0569973 3.14348 0
M  V30 5284 N 496.642 -0.504142 1.49319 0
M  V30 5285 C 497.589 -1.60603 1.65756 0
M  V30 5286 C 498.559 -1.58425 0.499082 0
M  V30 5287 O 499.744 -1.76459 0.725728 0
M  V30 5288 C 496.884 -2.98764 1.72726 0
M  V30 5289 C 495.997 -3.10982 2.99857 0
M  V30 5290 C 495.132 -4.39857 2.97824 0
M  V30 5291 C 494.171 -4.45697 4.19548 0
M  V30 5292 N 493.308 -5.65995 4.15444 0
M  V30 5293 H 498.148 -1.45895 2.59843 0
M  V30 5294 H 495.685 -0.709891 1.28837 0
M  V30 5295 H 497.643 -3.78839 1.74747 0
M  V30 5296 H 496.273 -3.12183 0.821075 0
M  V30 5297 H 495.325 -2.23991 3.07461 0
M  V30 5298 H 496.637 -3.11157 3.89849 0
M  V30 5299 H 495.791 -5.2825 2.98391 0
M  V30 5300 H 494.53 -4.42242 2.05604 0
M  V30 5301 H 493.535 -3.55707 4.19229 0
M  V30 5302 H 494.76 -4.4503 5.12957 0
M  V30 5303 H 492.706 -5.69229 3.26059 0
M  V30 5304 H 492.623 -5.67773 4.99169 0
M  V30 5305 H 493.891 -6.56604 4.20109 0
M  V30 5306 N 498.12 -1.38341 -0.754957 0
M  V30 5307 C 499.366 -1.34672 -1.51628 0
M  V30 5308 C 499.699 0.0636036 -1.94096 0
M  V30 5309 O 498.974 1.0245 -1.6533 0
M  V30 5310 C 499.257 -2.30116 -2.76981 0
M  V30 5311 C 499.11 -3.80003 -2.4066 0
M  V30 5312 C 500.429 -2.23715 -3.78998 0
M  V30 5313 H 497.548 -0.490517 -0.550056 0
M  V30 5314 H 500.19 -1.69178 -0.864807 0
M  V30 5315 H 498.34 -2.00821 -3.3257 0
M  V30 5316 H 500.012 -4.19966 -1.90856 0
M  V30 5317 H 498.255 -3.97751 -1.73137 0
M  V30 5318 H 498.926 -4.42244 -3.30339 0
M  V30 5319 H 501.402 -2.49574 -3.32945 0
M  V30 5320 H 500.278 -2.9261 -4.64403 0
M  V30 5321 H 500.539 -1.23554 -4.24484 0
M  V30 5322 N 499.598 0.982988 -1.23187 0
M  V30 5323 C 500.846 1.72052 -1.06031 0
M  V30 5324 C 501.167 1.90769 0.404019 0
M  V30 5325 O 500.437 1.47446 1.28982 0
M  V30 5326 H 499.017 0.637499 -0.389363 0
M  V30 5327 H 501.679 1.18338 -1.54862 0
M  V30 5328 H 500.775 2.7111 -1.54615 0
M  V30 5329 N 501.076 1.04316 1.18135 0
M  V30 5330 C 502.006 0.657299 2.24058 0
M  V30 5331 C 502.987 -0.340678 1.66654 0
M  V30 5332 O 504.172 -0.220223 1.92947 0
M  V30 5333 C 501.302 0.0220715 3.47293 0
M  V30 5334 C 500.256 0.943857 4.17463 0
M  V30 5335 C 499.582 0.172973 5.3442 0
M  V30 5336 C 500.882 2.26409 4.70677 0
M  V30 5337 H 502.576 1.5428 2.56589 0
M  V30 5338 H 500.122 0.743263 1.23335 0
M  V30 5339 H 502.075 -0.259607 4.206 0
M  V30 5340 H 500.799 -0.898323 3.14003 0
M  V30 5341 H 499.458 1.20996 3.46057 0
M  V30 5342 H 499.106 -0.749907 4.97379 0
M  V30 5343 H 498.806 0.787098 5.82304 0
M  V30 5344 H 500.33 -0.101628 6.10515 0
M  V30 5345 H 501.744 2.04294 5.35665 0
M  V30 5346 H 500.141 2.8314 5.29105 0
M  V30 5347 H 501.211 2.90883 3.87962 0
M  V30 5348 N 502.554 -1.34406 0.822964 0
M  V30 5349 C 503.517 -2.2783 0.250271 0
M  V30 5350 C 504.517 -1.50288 -0.571854 0
M  V30 5351 O 505.707 -1.69825 -0.387952 0
M  V30 5352 C 502.839 -3.34663 -0.649137 0
M  V30 5353 H 504.032 -2.79992 1.07444 0
M  V30 5354 H 501.585 -1.44539 0.594829 0
M  V30 5355 H 502.32 -2.87714 -1.49637 0
M  V30 5356 H 502.105 -3.92052 -0.0611199 0
M  V30 5357 H 503.595 -4.04349 -1.04363 0
M  V30 5358 N 504.032 -0.577932 -1.46621 0
M  V30 5359 C 505.279 -0.0616879 -2.02406 0
M  V30 5360 C 505.607 1.29638 -1.44997 0
M  V30 5361 O 504.862 1.86176 -0.60308 0
M  V30 5362 C 505.161 0.0590832 -3.57351 0
M  V30 5363 C 504.827 -1.23077 -4.33777 0
M  V30 5364 C 503.489 -1.58416 -4.54376 0
M  V30 5365 C 505.841 -2.08457 -4.77698 0
M  V30 5366 C 503.169 -2.78943 -5.16147 0
M  V30 5367 C 505.521 -3.28204 -5.408 0
M  V30 5368 C 504.185 -3.63832 -5.59627 0
M  V30 5369 H 503.455 -0.0225732 -0.740656 0
M  V30 5370 H 506.102 -0.753609 -1.76048 0
M  V30 5371 H 504.407 0.834104 -3.82818 0
M  V30 5372 H 506.104 0.474202 -3.98186 0
M  V30 5373 H 502.694 -0.945652 -4.18038 0
M  V30 5374 H 506.878 -1.82459 -4.61544 0
M  V30 5375 H 502.134 -3.06689 -5.28916 0
M  V30 5376 H 506.308 -3.94634 -5.73792 0
M  V30 5377 H 503.935 -4.57315 -6.07262 0
M  V30 5378 N 505.51 1.54411 -0.315457 0
M  V30 5379 C 506.758 2.00023 0.288971 0
M  V30 5380 C 507.079 1.20529 1.5329 0
M  V30 5381 O 506.349 0.304986 1.93511 0
M  V30 5382 H 504.929 0.738891 0.109766 0
M  V30 5383 H 507.591 1.90094 -0.430129 0
M  V30 5384 H 506.687 3.07198 0.550999 0
M  V30 5385 N 506.988 0.0434614 1.5754 0
M  V30 5386 C 507.951 -0.918696 2.09982 0
M  V30 5387 C 508.951 -1.24488 1.01781 0
M  V30 5388 O 510.141 -1.18284 1.27885 0
M  V30 5389 C 507.273 -2.23093 2.57764 0
M  V30 5390 H 508.466 -0.464229 2.96285 0
M  V30 5391 H 506.019 -0.204818 1.54952 0
M  V30 5392 H 506.754 -2.73137 1.74832 0
M  V30 5393 H 506.539 -2.00724 3.36827 0
M  V30 5394 H 508.029 -2.92028 2.98512 0
M  V30 5395 N 508.466 -1.55915 -0.229846 0
M  V30 5396 C 509.696 -1.82352 -0.971152 0
M  V30 5397 C 510.104 -0.619231 -1.7878 0
M  V30 5398 O 509.447 0.421597 -1.78797 0
M  V30 5399 C 509.509 -3.02399 -1.9441 0
M  V30 5400 C 509.173 -4.37739 -1.31277 0
M  V30 5401 C 510.17 -5.15074 -0.706757 0
M  V30 5402 C 507.855 -4.84454 -1.32702 0
M  V30 5403 C 509.849 -6.37281 -0.123413 0
M  V30 5404 C 507.536 -6.06605 -0.739831 0
M  V30 5405 C 508.534 -6.82858 -0.139071 0
M  V30 5406 O 508.222 -8.027 0.439007 0
M  V30 5407 H 507.954 -0.61035 -0.290601 0
M  V30 5408 H 510.508 -2.03839 -0.252746 0
M  V30 5409 H 508.738 -2.76709 -2.70128 0
M  V30 5410 H 510.427 -3.15779 -2.55026 0
M  V30 5411 H 511.193 -4.80093 -0.688131 0
M  V30 5412 H 507.072 -4.25081 -1.78402 0
M  V30 5413 H 510.616 -6.96741 0.346124 0
M  V30 5414 H 506.513 -6.4106 -0.755841 0
M  V30 5415 H 507.281 -8.17824 0.332521 0
M  V30 5416 N 509.944 0.496216 -1.49584 0
M  V30 5417 C 511.192 1.24756 -1.58998 0
M  V30 5418 C 511.513 1.92968 -0.280775 0
M  V30 5419 O 510.783 1.82959 0.700198 0
M  V30 5420 H 509.363 0.463471 -0.585836 0
M  V30 5421 H 512.025 0.574678 -1.86235 0
M  V30 5422 H 511.121 2.00895 -2.38847 0
M  V30 5423 N 511.423 1.38739 0.74761 0
M  V30 5424 C 512.669 1.3648 1.50814 0
M  V30 5425 C 513.024 -0.0431982 1.92351 0
M  V30 5426 O 512.317 -1.0071 1.62997 0
M  V30 5427 C 512.511 2.25992 2.7688 0
M  V30 5428 C 512.34 3.75354 2.47668 0
M  V30 5429 C 511.11 4.44348 2.40589 0
M  V30 5430 C 513.308 4.67642 2.14046 0
M  V30 5431 N 511.29 5.79114 2.03715 0
M  V30 5432 C 512.661 5.90965 1.87512 0
M  V30 5433 C 514.716 4.55787 2.00407 0
M  V30 5434 C 513.419 7.03759 1.48714 0
M  V30 5435 C 515.445 5.68491 1.63011 0
M  V30 5436 C 514.807 6.90879 1.37353 0
M  V30 5437 H 510.906 0.554695 0.551214 0
M  V30 5438 H 513.49 1.7418 0.870033 0
M  V30 5439 H 511.661 1.9047 3.3849 0
M  V30 5440 H 513.393 2.14815 3.42982 0
M  V30 5441 H 510.148 3.97634 2.57262 0
M  V30 5442 H 510.572 6.504 1.87906 0
M  V30 5443 H 515.214 3.61712 2.18916 0
M  V30 5444 H 512.932 7.97746 1.28945 0
M  V30 5445 H 516.518 5.613 1.53081 0
M  V30 5446 H 515.398 7.76609 1.08848 0
M  V30 5447 N 512.901 -0.976442 1.23707 0
M  V30 5448 C 514.149 -1.71487 1.06942 0
M  V30 5449 C 514.47 -1.9098 -0.393897 0
M  V30 5450 O 513.74 -1.48128 -1.28198 0
M  V30 5451 H 512.32 -0.635425 0.392739 0
M  V30 5452 H 514.982 -1.17515 1.55487 0
M  V30 5453 H 514.078 -2.70286 1.56051 0
M  V30 5454 N 514.379 -1.04941 -1.1758 0
M  V30 5455 C 515.627 -0.756492 -1.87408 0
M  V30 5456 C 515.948 0.718478 -1.81281 0
M  V30 5457 O 515.218 1.519 -1.23706 0
M  V30 5458 H 513.798 -0.276841 -0.693807 0
M  V30 5459 H 516.46 -1.32803 -1.42652 0
M  V30 5460 H 515.556 -1.06918 -2.93215 0
M  V30 5461 N 515.857 1.33968 -0.830081 0
M  V30 5462 C 517.105 1.97672 -0.420734 0
M  V30 5463 C 517.426 1.66111 1.02138 0
M  V30 5464 O 516.696 0.955503 1.71017 0
M  V30 5465 H 515.276 0.73125 -0.152587 0
M  V30 5466 H 517.938 1.63483 -1.0611 0
M  V30 5467 H 517.034 3.07294 -0.545588 0
M  V30 5468 N 517.335 0.585699 1.46312 0
M  V30 5469 C 518.298 -0.135673 2.28798 0
M  V30 5470 C 519.298 -0.815988 1.38558 0
M  V30 5471 O 520.488 -0.667487 1.60904 0
M  V30 5472 C 517.62 -1.20163 3.1902 0
M  V30 5473 H 518.813 0.589257 2.94054 0
M  V30 5474 H 516.366 0.343794 1.52472 0
M  V30 5475 H 517.101 -1.95804 2.58517 0
M  V30 5476 H 516.886 -0.718282 3.85465 0
M  V30 5477 H 518.376 -1.70749 3.81096 0
M  V30 5478 N 518.813 -1.54241 0.323641 0
M  V30 5479 C 519.745 -2.21836 -0.576311 0
M  V30 5480 C 520.758 -1.21837 -1.07979 0
M  V30 5481 O 521.947 -1.48306 -0.99336 0
M  V30 5482 C 519.047 -2.86923 -1.80356 0
M  V30 5483 C 518.22 -4.1306 -1.43875 0
M  V30 5484 C 517.279 -4.6174 -2.52353 0
M  V30 5485 O 516.305 -5.26421 -2.16494 0
M  V30 5486 N 517.507 -4.35974 -3.83284 0
M  V30 5487 H 520.272 -2.997 0.00247987 0
M  V30 5488 H 517.833 -1.61233 0.146848 0
M  V30 5489 H 519.825 -3.16414 -2.52318 0
M  V30 5490 H 518.395 -2.12765 -2.29019 0
M  V30 5491 H 517.615 -3.90334 -0.550752 0
M  V30 5492 H 518.903 -4.95148 -1.17071 0
M  V30 5493 H 518.301 -3.84203 -4.15216 0
M  V30 5494 H 516.858 -4.70119 -4.51477 0
M  V30 5495 N 520.291 -0.0518155 -1.57515 0
M  V30 5496 C 521.238 0.922352 -2.11569 0
M  V30 5497 C 522.208 1.30842 -1.02321 0
M  V30 5498 O 523.393 1.39778 -1.29872 0
M  V30 5499 C 520.533 2.19167 -2.6657 0
M  V30 5500 C 519.646 1.86003 -3.89906 0
M  V30 5501 C 518.781 3.07398 -4.33221 0
M  V30 5502 C 517.82 2.70158 -5.49255 0
M  V30 5503 N 516.957 3.84248 -5.8762 0
M  V30 5504 H 521.797 0.454506 -2.94514 0
M  V30 5505 H 519.334 0.212718 -1.45554 0
M  V30 5506 H 521.292 2.93443 -2.96559 0
M  V30 5507 H 519.922 2.63528 -1.86421 0
M  V30 5508 H 518.974 1.01874 -3.66505 0
M  V30 5509 H 520.286 1.54592 -4.74239 0
M  V30 5510 H 519.44 3.89972 -4.64765 0
M  V30 5511 H 518.179 3.41988 -3.477 0
M  V30 5512 H 517.184 1.86001 -5.17382 0
M  V30 5513 H 518.409 2.36759 -6.36492 0
M  V30 5514 H 516.355 4.18638 -5.05053 0
M  V30 5515 H 516.272 3.56538 -6.66646 0
M  V30 5516 H 517.54 4.6746 -6.2378 0
M  V30 5517 N 521.769 1.56035 0.221574 0
M  V30 5518 C 523.018 1.78245 0.944016 0
M  V30 5519 C 523.331 0.620371 1.85501 0
M  V30 5520 O 524.537 0.726103 2.6161 0
M  V30 5521 C 522.993 3.15659 1.7288 0
M  V30 5522 C 522.601 4.39591 0.863942 0
M  V30 5523 C 524.345 3.47195 2.44246 0
M  V30 5524 C 522.252 5.6803 1.64607 0
M  V30 5525 H 521.182 0.664547 0.356222 0
M  V30 5526 H 523.833 1.8243 0.197904 0
M  V30 5527 H 522.215 3.0565 2.51781 0
M  V30 5528 H 523.389 4.60655 0.115464 0
M  V30 5529 H 521.704 4.15572 0.262407 0
M  V30 5530 H 524.301 4.40381 3.03263 0
M  V30 5531 H 524.644 2.69693 3.1713 0
M  V30 5532 H 525.177 3.58533 1.72334 0
M  V30 5533 H 521.916 6.48425 0.960507 0
M  V30 5534 H 521.436 5.51027 2.36917 0
M  V30 5535 H 523.115 6.08203 2.20675 0
M  V30 5536 N 523.247 -0.488276 1.49845 0
M  V30 5537 C 524.177 -1.59675 1.70371 0
M  V30 5538 C 525.158 -1.60878 0.552473 0
M  V30 5539 O 526.343 -1.77417 0.78973 0
M  V30 5540 C 523.473 -2.98098 1.782 0
M  V30 5541 C 522.427 -3.11761 2.93239 0
M  V30 5542 C 521.753 -4.51661 2.86193 0
M  V30 5543 C 523.053 -2.90589 4.33999 0
M  V30 5544 H 524.747 -1.42752 2.63177 0
M  V30 5545 H 522.293 -0.685317 1.26647 0
M  V30 5546 H 524.246 -3.75555 1.91144 0
M  V30 5547 H 522.97 -3.16138 0.820018 0
M  V30 5548 H 521.629 -2.36732 2.79917 0
M  V30 5549 H 521.277 -4.66595 1.87877 0
M  V30 5550 H 520.977 -4.61742 3.63412 0
M  V30 5551 H 522.501 -5.31162 3.01163 0
M  V30 5552 H 523.915 -3.57807 4.47936 0
M  V30 5553 H 522.312 -3.1213 5.12538 0
M  V30 5554 H 523.382 -1.86595 4.4756 0
M  V30 5555 N 524.725 -1.39134 -0.740242 0
M  V30 5556 C 525.635 -1.39697 -1.88473 0
M  V30 5557 C 526.651 -0.292403 -1.71526 0
M  V30 5558 O 527.827 -0.533021 -1.94219 0
M  V30 5559 C 524.892 -1.23382 -3.24003 0
M  V30 5560 C 523.953 -2.43763 -3.53381 0
M  V30 5561 C 523.186 -2.28216 -4.82445 0
M  V30 5562 O 523.409 -1.28288 -5.55786 0
M  V30 5563 O 522.343 -3.1709 -5.11603 0
M  V30 5564 H 526.169 -2.36159 -1.90952 0
M  V30 5565 H 523.754 -1.20194 -0.887346 0
M  V30 5566 H 525.636 -1.16395 -4.05006 0
M  V30 5567 H 524.311 -0.300121 -3.22306 0
M  V30 5568 H 523.218 -2.56325 -2.72485 0
M  V30 5569 H 524.551 -3.35808 -3.59852 0
M  V30 5570 N 526.204 0.969867 -1.24223 0
M  V30 5571 C 527.114 2.09806 -1.0497 0
M  V30 5572 C 528.13 1.73998 0.00886455 0
M  V30 5573 O 529.306 2.00513 -0.188848 0
M  V30 5574 C 526.371 3.40467 -0.654452 0
M  V30 5575 C 525.432 3.90236 -1.78926 0
M  V30 5576 C 524.665 5.14662 -1.41277 0
M  V30 5577 O 524.888 5.69602 -0.301632 0
M  V30 5578 O 523.822 5.58761 -2.23763 0
M  V30 5579 H 527.648 2.28942 -1.99548 0
M  V30 5580 H 525.233 1.08197 -1.03023 0
M  V30 5581 H 527.115 4.19039 -0.445452 0
M  V30 5582 H 525.79 3.22636 0.262216 0
M  V30 5583 H 524.697 3.12735 -2.05299 0
M  V30 5584 H 526.03 4.1254 -2.68462 0
M  V30 5585 N 527.682 1.05563 1.17022 0
M  V30 5586 C 529.098 0.777684 1.39371 0
M  V30 5587 C 529.298 -0.626269 1.91521 0
M  V30 5588 O 528.354 -1.38806 2.10924 0
M  V30 5589 C 529.667 1.83642 2.3811 0
M  V30 5590 C 531.215 1.85907 2.51809 0
M  V30 5591 C 531.69 2.90813 3.53824 0
M  V30 5592 N 533.181 2.898 3.61345 0
M  V30 5593 C 533.916 3.6762 4.40049 0
M  V30 5594 N 533.412 4.55237 5.22237 0
M  V30 5595 N 535.205 3.56044 4.34959 0
M  V30 5596 H 527.356 1.9614 0.815047 0
M  V30 5597 H 529.619 0.849527 0.420722 0
M  V30 5598 H 529.325 2.84425 2.06871 0
M  V30 5599 H 529.199 1.6812 3.37662 0
M  V30 5600 H 531.586 0.857865 2.82356 0
M  V30 5601 H 531.667 2.05506 1.52318 0
M  V30 5602 H 531.311 3.91122 3.24015 0
M  V30 5603 H 531.241 2.68465 4.53028 0
M  V30 5604 H 533.732 2.26274 3.02669 0
M  V30 5605 H 534.045 5.11291 5.79484 0
M  V30 5606 H 532.39 4.59296 5.21605 0
M  V30 5607 H 535.581 2.86986 3.69806 0
M  V30 5608 H 535.754 4.16938 4.96051 0
M  V30 5609 N 529.16 -1.33526 0.837174 0
M  V30 5610 C 530.09 -2.31764 0.284206 0
M  V30 5611 C 531.071 -1.58896 -0.607142 0
M  V30 5612 O 532.256 -1.86798 -0.531047 0
M  V30 5613 C 529.386 -3.43029 -0.542962 0
M  V30 5614 C 528.34 -4.27255 0.252451 0
M  V30 5615 C 527.666 -5.3012 -0.69836 0
M  V30 5616 C 528.966 -5.01229 1.46858 0
M  V30 5617 H 530.66 -2.78262 1.10502 0
M  V30 5618 H 528.206 -1.3378 0.532812 0
M  V30 5619 H 530.159 -4.1078 -0.940096 0
M  V30 5620 H 528.883 -2.95216 -1.39697 0
M  V30 5621 H 527.542 -3.61127 0.631124 0
M  V30 5622 H 527.19 -4.78564 -1.54872 0
M  V30 5623 H 526.89 -5.87353 -0.170274 0
M  V30 5624 H 528.414 -6.00737 -1.09305 0
M  V30 5625 H 529.828 -5.61756 1.14469 0
M  V30 5626 H 528.225 -5.68104 1.93333 0
M  V30 5627 H 529.295 -4.301 2.23924 0
M  V30 5628 N 530.638 -0.59345 -1.46 0
M  V30 5629 C 531.585 0.133618 -2.30413 0
M  V30 5630 C 532.555 0.873736 -1.41262 0
M  V30 5631 O 533.74 0.862279 -1.70204 0
M  V30 5632 C 530.88 1.13434 -3.25924 0
M  V30 5633 C 529.993 0.39656 -4.30176 0
M  V30 5634 C 529.128 1.38575 -5.12806 0
M  V30 5635 C 528.167 0.634984 -6.08797 0
M  V30 5636 N 527.304 1.57276 -6.84258 0
M  V30 5637 H 532.144 -0.592252 -2.92055 0
M  V30 5638 H 529.681 -0.303874 -1.43927 0
M  V30 5639 H 531.639 1.72752 -3.79753 0
M  V30 5640 H 530.269 1.82779 -2.66067 0
M  V30 5641 H 529.321 -0.311861 -3.79119 0
M  V30 5642 H 530.633 -0.189869 -4.98438 0
M  V30 5643 H 529.787 2.05141 -5.70966 0
M  V30 5644 H 528.526 2.00611 -4.44529 0
M  V30 5645 H 527.531 -0.0443925 -5.49782 0
M  V30 5646 H 528.756 0.0198678 -6.79097 0
M  V30 5647 H 526.702 2.18103 -6.18682 0
M  V30 5648 H 526.619 1.03941 -7.48821 0
M  V30 5649 H 527.887 2.22844 -7.46968 0
M  V30 5650 N 532.116 1.54067 -0.331816 0
M  V30 5651 C 533.079 2.23275 0.517768 0
M  V30 5652 C 534.079 1.22897 1.03697 0
M  V30 5653 O 535.269 1.47419 0.928084 0
M  V30 5654 C 532.401 2.94326 1.72004 0
M  V30 5655 H 533.594 2.99773 -0.0873507 0
M  V30 5656 H 531.147 1.56079 -0.0830042 0
M  V30 5657 H 531.882 2.21986 2.36417 0
M  V30 5658 H 531.667 3.67941 1.35507 0
M  V30 5659 H 533.157 3.47031 2.32291 0
M  V30 5660 N 533.594 0.0601682 1.57485 0
M  V30 5661 C 534.557 -0.896373 2.10945 0
M  V30 5662 C 535.557 -1.23402 1.03095 0
M  V30 5663 O 536.747 -1.16921 1.29132 0
M  V30 5664 C 533.879 -2.20346 2.60116 0
M  V30 5665 H 535.072 -0.432778 2.96761 0
M  V30 5666 H 532.625 -0.188372 1.55161 0
M  V30 5667 H 533.36 -2.71268 1.7772 0
M  V30 5668 H 533.145 -1.9714 3.38937 0
M  V30 5669 H 534.635 -2.88846 3.01592 0
M  V30 5670 N 535.072 -1.5615 -0.213296 0
M  V30 5671 C 536.019 -1.93086 -1.26437 0
M  V30 5672 C 536.989 -0.789086 -1.4616 0
M  V30 5673 O 538.174 -1.04569 -1.59593 0
M  V30 5674 C 535.314 -2.26003 -2.608 0
M  V30 5675 C 534.427 -3.53156 -2.48807 0
M  V30 5676 C 533.562 -3.7548 -3.7575 0
M  V30 5677 C 532.601 -4.96119 -3.58514 0
M  V30 5678 N 531.738 -5.14791 -4.77425 0
M  V30 5679 H 536.578 -2.82707 -0.942376 0
M  V30 5680 H 534.115 -1.39919 -0.454001 0
M  V30 5681 H 536.073 -2.431 -3.39055 0
M  V30 5682 H 534.703 -1.39546 -2.91079 0
M  V30 5683 H 533.755 -3.44207 -1.61944 0
M  V30 5684 H 535.067 -4.41565 -2.31996 0
M  V30 5685 H 534.221 -3.92718 -4.62447 0
M  V30 5686 H 532.96 -2.85368 -3.95495 0
M  V30 5687 H 531.965 -4.78823 -2.70201 0
M  V30 5688 H 533.19 -5.87724 -3.40231 0
M  V30 5689 H 531.136 -4.27623 -4.97468 0
M  V30 5690 H 531.053 -5.97347 -4.63371 0
M  V30 5691 H 532.321 -5.36471 -5.65525 0
M  V30 5692 N 536.55 0.480323 -1.50102 0
M  V30 5693 C 537.799 1.22979 -1.59872 0
M  V30 5694 C 538.112 1.93282 -0.30022 0
M  V30 5695 O 539.318 2.70086 -0.276709 0
M  V30 5696 C 537.774 2.23408 -2.82164 0
M  V30 5697 C 537.382 1.5895 -4.18854 0
M  V30 5698 C 539.126 2.99055 -3.01275 0
M  V30 5699 C 537.033 2.57611 -5.32344 0
M  V30 5700 H 535.963 0.462707 -0.59533 0
M  V30 5701 H 538.614 0.501291 -1.7652 0
M  V30 5702 H 536.996 2.99511 -2.59055 0
M  V30 5703 H 538.17 0.887 -4.52182 0
M  V30 5704 H 536.485 0.956191 -4.05273 0
M  V30 5705 H 539.082 3.72876 -3.83233 0
M  V30 5706 H 539.425 3.57897 -2.12639 0
M  V30 5707 H 539.958 2.30066 -3.24522 0
M  V30 5708 H 536.697 2.03521 -6.23105 0
M  V30 5709 H 536.217 3.26041 -5.03445 0
M  V30 5710 H 537.896 3.19627 -5.62537 0
M  V30 5711 N 538.028 1.39524 0.732853 0
M  V30 5712 C 538.938 1.40695 1.87729 0
M  V30 5713 C 539.954 0.301496 1.71368 0
M  V30 5714 O 541.13 0.543313 1.93933 0
M  V30 5715 C 538.195 1.25098 3.23344 0
M  V30 5716 C 537.256 2.45634 3.52083 0
M  V30 5717 C 536.489 2.30772 4.81228 0
M  V30 5718 O 536.712 1.31233 5.55098 0
M  V30 5719 O 535.646 3.19799 5.09914 0
M  V30 5720 H 539.472 2.37168 1.89697 0
M  V30 5721 H 537.057 1.20663 0.880959 0
M  V30 5722 H 538.939 1.18541 4.04383 0
M  V30 5723 H 537.614 0.317209 3.22142 0
M  V30 5724 H 536.521 2.57767 2.71122 0
M  V30 5725 H 537.854 3.37712 3.58066 0
M  V30 5726 N 539.506 -0.963266 1.24736 0
M  V30 5727 C 540.436 -2.07628 1.06832 0
M  V30 5728 C 541.417 -1.70088 -0.0200566 0
M  V30 5729 O 542.602 -1.93636 0.147854 0
M  V30 5730 C 539.732 -3.40636 0.677069 0
M  V30 5731 C 538.686 -3.9215 1.71471 0
M  V30 5732 C 538.012 -5.21553 1.1784 0
M  V30 5733 C 539.312 -4.19493 3.11164 0
M  V30 5734 H 541.006 -2.22864 1.9993 0
M  V30 5735 H 538.552 -1.07093 0.96266 0
M  V30 5736 H 540.505 -4.17941 0.538792 0
M  V30 5737 H 539.229 -3.25313 -0.289612 0
M  V30 5738 H 537.888 -3.17005 1.84128 0
M  V30 5739 H 537.536 -5.02593 0.202195 0
M  V30 5740 H 537.236 -5.56988 1.87185 0
M  V30 5741 H 538.76 -6.01463 1.05233 0
M  V30 5742 H 540.174 -4.87487 3.01711 0
M  V30 5743 H 538.571 -4.66165 3.77902 0
M  V30 5744 H 539.641 -3.26097 3.58871 0
M  V30 5745 N 540.985 -1.06182 -1.16461 0
M  V30 5746 C 542.234 -0.772927 -1.86303 0
M  V30 5747 C 542.547 0.703187 -1.82523 0
M  V30 5748 O 543.753 1.10641 -2.47933 0
M  V30 5749 C 542.209 -1.33249 -3.34324 0
M  V30 5750 C 541.817 -2.83876 -3.46581 0
M  V30 5751 C 543.561 -1.12108 -4.09429 0
M  V30 5752 C 541.468 -3.33082 -4.88682 0
M  V30 5753 H 540.398 -0.285452 -0.697878 0
M  V30 5754 H 543.049 -1.28039 -1.31447 0
M  V30 5755 H 541.431 -0.7528 -3.88779 0
M  V30 5756 H 542.605 -3.47786 -3.02293 0
M  V30 5757 H 540.92 -3.03671 -2.84909 0
M  V30 5758 H 543.517 -1.46361 -5.14279 0
M  V30 5759 H 543.86 -0.0593832 -4.16258 0
M  V30 5760 H 544.393 -1.6665 -3.6121 0
M  V30 5761 H 541.132 -4.38726 -4.87032 0
M  V30 5762 H 540.652 -2.73919 -5.33599 0
M  V30 5763 H 542.331 -3.28344 -5.57494 0
M  V30 5764 N 542.463 1.3308 -0.844243 0
M  V30 5765 C 543.426 2.27403 -0.286485 0
M  V30 5766 C 544.426 1.51179 0.547872 0
M  V30 5767 O 545.616 1.70421 0.360886 0
M  V30 5768 C 542.748 3.35653 0.595813 0
M  V30 5769 H 543.941 2.78248 -1.11885 0
M  V30 5770 H 541.494 1.43574 -0.617749 0
M  V30 5771 H 542.229 2.90058 1.4504 0
M  V30 5772 H 542.014 3.921 -0.00125994 0
M  V30 5773 H 543.504 4.05958 0.979168 0
M  V30 5774 N 543.941 0.601185 1.45683 0
M  V30 5775 C 544.851 -0.123395 2.34275 0
M  V30 5776 C 545.867 -0.86702 1.5086 0
M  V30 5777 O 547.043 -0.826049 1.8368 0
M  V30 5778 C 544.108 -1.11237 3.2837 0
M  V30 5779 C 543.169 -0.371405 4.2769 0
M  V30 5780 C 542.402 -1.31327 5.1729 0
M  V30 5781 O 542.625 -2.55078 5.10188 0
M  V30 5782 O 541.559 -0.813811 5.96373 0
M  V30 5783 H 545.385 0.604483 2.97623 0
M  V30 5784 H 542.97 0.361477 1.44961 0
M  V30 5785 H 544.852 -1.68214 3.8637 0
M  V30 5786 H 543.527 -1.82139 2.67595 0
M  V30 5787 H 542.434 0.24067 3.73325 0
M  V30 5788 H 543.767 0.296998 4.91303 0
M  V30 5789 N 545.419 -1.53889 0.339982 0
M  V30 5790 C 546.83 -1.86139 -0.144671 0
M  V30 5791 C 547.181 -1.2613 -1.50285 0
M  V30 5792 O 546.306 -0.573515 -2.08662 0
M  V30 5793 C 546.901 -3.37728 -0.269285 0
M  V30 5794 C 545.46 -3.69868 -0.698168 0
M  V30 5795 C 544.607 -2.76777 0.170249 0
M  V30 5796 H 547.558 -1.48503 0.559704 0
M  V30 5797 H 547.579 -3.64331 -1.0974 0
M  V30 5798 H 547.091 -3.81375 0.719366 0
M  V30 5799 H 545.192 -3.31764 -1.69597 0
M  V30 5800 H 545.305 -4.76582 -0.490533 0
M  V30 5801 H 543.669 -2.52188 -0.356844 0
M  V30 5802 H 544.452 -3.23253 1.15597 0
M  V30 5803 N 546.897 -0.0685191 -1.57451 0
M  V30 5804 C 548.145 0.60016 -1.92983 0
M  V30 5805 C 548.466 1.70348 -0.949028 0
M  V30 5806 O 547.736 1.959 0.00335647 0
M  V30 5807 H 546.316 0.224682 -0.712409 0
M  V30 5808 H 548.978 -0.125605 -1.94495 0
M  V30 5809 H 548.074 1.02759 -2.94698 0
M  V30 5810 N 548.375 1.56261 0.205012 0
M  V30 5811 C 549.786 1.70056 0.770574 0
M  V30 5812 C 550.137 0.673398 1.84282 0
M  V30 5813 O 549.262 -0.172196 2.15714 0
M  V30 5814 C 549.857 3.08316 1.40451 0
M  V30 5815 C 548.416 3.2391 1.91727 0
M  V30 5816 C 547.563 2.66001 0.783516 0
M  V30 5817 H 550.514 1.58688 -0.019911 0
M  V30 5818 H 550.535 3.05094 2.27371 0
M  V30 5819 H 550.047 3.83053 0.623882 0
M  V30 5820 H 548.148 2.54072 2.7254 0
M  V30 5821 H 548.261 4.3131 2.08588 0
M  V30 5822 H 546.625 2.24915 1.19521 0
M  V30 5823 H 547.408 3.43297 0.0152883 0
M  V30 5824 N 549.853 -0.472356 1.50355 0
M  V30 5825 C 551.081 -1.24784 1.65035 0
M  V30 5826 C 551.496 -1.85837 0.333176 0
M  V30 5827 O 550.853 -1.69168 -0.68472 0
M  V30 5828 C 550.904 -2.35747 2.74054 0
M  V30 5829 O 550.625 -1.77197 4.00665 0
M  V30 5830 C 552.126 -3.26645 2.99696 0
M  V30 5831 H 549.346 -0.377432 0.554785 0
M  V30 5832 H 551.89 -0.563962 1.9657 0
M  V30 5833 H 550.045 -2.99912 2.45217 0
M  V30 5834 H 550.459 -2.5026 4.60945 0
M  V30 5835 H 551.933 -4.00718 3.79644 0
M  V30 5836 H 552.41 -3.8535 2.10718 0
M  V30 5837 H 553.016 -2.68218 3.3006 0
M  V30 5838 N 551.331 -1.39911 -0.725443 0
M  V30 5839 C 552.577 -1.37858 -1.48738 0
M  V30 5840 C 552.91 0.0224187 -1.94187 0
M  V30 5841 O 552.185 0.989204 -1.67466 0
M  V30 5842 C 552.468 -2.3594 -2.72038 0
M  V30 5843 C 552.321 -3.85023 -2.32546 0
M  V30 5844 C 553.64 -2.31704 -3.74167 0
M  V30 5845 H 550.759 -0.502074 -0.539528 0
M  V30 5846 H 553.401 -1.70974 -0.828728 0
M  V30 5847 H 551.551 -2.0783 -3.28236 0
M  V30 5848 H 553.223 -4.2392 -1.81905 0
M  V30 5849 H 551.466 -4.01334 -1.64661 0
M  V30 5850 H 552.137 -4.49152 -3.20884 0
M  V30 5851 H 554.613 -2.5658 -3.27576 0
M  V30 5852 H 553.489 -3.02395 -4.58092 0
M  V30 5853 H 553.75 -1.3253 -4.21768 0
M  V30 5854 N 552.809 0.956637 -1.25245 0
M  V30 5855 C 553.741 2.05628 -1.01242 0
M  V30 5856 C 554.754 1.62785 0.0219579 0
M  V30 5857 O 555.943 1.77184 -0.216365 0
M  V30 5858 C 553.043 3.35069 -0.508161 0
M  V30 5859 C 552.216 4.06761 -1.60823 0
M  V30 5860 C 551.275 5.14473 -1.1047 0
M  V30 5861 O 550.301 5.40033 -1.79868 0
M  V30 5862 N 551.503 5.80474 0.0550773 0
M  V30 5863 H 554.268 2.2679 -1.95925 0
M  V30 5864 H 551.829 1.12505 -1.16423 0
M  V30 5865 H 553.821 4.044 -0.155819 0
M  V30 5866 H 552.391 3.10694 0.344683 0
M  V30 5867 H 551.611 3.31555 -2.13224 0
M  V30 5868 H 552.899 4.51418 -2.34733 0
M  V30 5869 H 552.297 5.62125 0.635004 0
M  V30 5870 H 550.854 6.50868 0.348469 0
M  V30 5871 N 554.287 1.06798 1.15896 0
M  V30 5872 C 555.533 0.798757 1.8706 0
M  V30 5873 C 555.888 -0.667739 1.80441 0
M  V30 5874 O 555.181 -1.48334 1.21274 0
M  V30 5875 C 555.375 1.23414 3.35416 0
M  V30 5876 C 555.204 2.74142 3.56478 0
M  V30 5877 C 553.974 3.41675 3.72272 0
M  V30 5878 C 556.172 3.72348 3.5477 0
M  V30 5879 N 554.154 4.81101 3.81333 0
M  V30 5880 C 555.525 4.97585 3.69877 0
M  V30 5881 C 557.58 3.65585 3.38011 0
M  V30 5882 C 556.283 6.16866 3.69959 0
M  V30 5883 C 558.309 4.84323 3.39389 0
M  V30 5884 C 557.671 6.08391 3.5502 0
M  V30 5885 H 553.77 0.344761 0.7019 0
M  V30 5886 H 556.354 1.36314 1.3902 0
M  V30 5887 H 554.525 0.697522 3.82085 0
M  V30 5888 H 556.257 0.91304 3.94266 0
M  V30 5889 H 553.012 2.92078 3.7281 0
M  V30 5890 H 553.436 5.53647 3.8962 0
M  V30 5891 H 558.078 2.70615 3.2485 0
M  V30 5892 H 555.796 7.12164 3.819 0
M  V30 5893 H 559.382 4.80762 3.27658 0
M  V30 5894 H 558.262 6.98731 3.56012 0
M  V30 5895 N 555.766 -1.3263 0.851289 0
M  V30 5896 C 557.012 -1.9766 0.453694 0
M  V30 5897 C 557.345 -1.67225 -0.987396 0
M  V30 5898 O 556.62 -0.958693 -1.69232 0
M  V30 5899 C 556.903 -3.5344 0.68936 0
M  V30 5900 C 556.756 -3.93517 2.17862 0
M  V30 5901 C 558.075 -4.39866 0.143555 0
M  V30 5902 H 555.194 -0.717989 0.166314 0
M  V30 5903 H 557.836 -1.57068 1.06909 0
M  V30 5904 H 555.986 -3.88147 0.165546 0
M  V30 5905 H 557.658 -3.69006 2.76826 0
M  V30 5906 H 555.901 -3.42798 2.65841 0
M  V30 5907 H 556.572 -5.02065 2.29422 0
M  V30 5908 H 559.048 -4.11875 0.591451 0
M  V30 5909 H 557.924 -5.47858 0.338043 0
M  V30 5910 H 558.185 -4.31696 -0.953466 0
M  V30 5911 N 557.244 -0.608902 -1.45362 0
M  V30 5912 C 558.655 -0.189511 -1.85736 0
M  V30 5913 C 559.006 1.2539 -1.50903 0
M  V30 5914 O 558.131 1.95094 -0.936347 0
M  V30 5915 C 558.726 -0.33716 -3.37118 0
M  V30 5916 C 557.285 0.0275487 -3.7639 0
M  V30 5917 C 556.432 -0.660983 -2.69307 0
M  V30 5918 H 559.383 -0.815499 -1.36144 0
M  V30 5919 H 559.404 0.430257 -3.7806 0
M  V30 5920 H 558.916 -1.38779 -3.62439 0
M  V30 5921 H 557.017 1.0773 -3.56686 0
M  V30 5922 H 557.13 -0.367018 -4.77692 0
M  V30 5923 H 555.494 -0.0984958 -2.54509 0
M  V30 5924 H 556.277 -1.71377 -2.97464 0
M  V30 5925 N 558.722 1.53707 -0.348139 0
M  V30 5926 C 560.138 1.596 0.00361134 0
M  V30 5927 C 560.338 1.36394 1.4832 0
M  V30 5928 O 559.394 1.16046 2.24253 0
M  V30 5929 C 560.707 2.97512 -0.436682 0
M  V30 5930 C 562.255 3.10568 -0.389416 0
M  V30 5931 C 562.73 4.50866 -0.805249 0
M  V30 5932 N 564.221 4.56929 -0.759616 0
M  V30 5933 C 564.956 5.63643 -1.05327 0
M  V30 5934 N 564.452 6.78189 -1.41531 0
M  V30 5935 N 566.245 5.5354 -0.977207 0
M  V30 5936 H 558.396 1.67044 -1.31187 0
M  V30 5937 H 560.659 0.782559 -0.535075 0
M  V30 5938 H 560.365 3.19575 -1.46849 0
M  V30 5939 H 560.239 3.76742 0.185744 0
M  V30 5940 H 562.626 2.88226 0.633228 0
M  V30 5941 H 562.707 2.33387 -1.04711 0
M  V30 5942 H 562.351 4.73943 -1.82593 0
M  V30 5943 H 562.281 5.26452 -0.124989 0
M  V30 5944 H 564.772 3.74675 -0.49265 0
M  V30 5945 H 565.085 7.55541 -1.62411 0
M  V30 5946 H 563.43 6.79624 -1.45381 0
M  V30 5947 H 566.621 4.62932 -0.693675 0
M  V30 5948 H 566.794 6.36614 -1.2094 0
M  V30 5949 N 560.2 0.0768682 1.57412 0
M  V30 5950 C 561.448 -0.589918 1.93299 0
M  V30 5951 C 561.769 -1.69842 0.958049 0
M  V30 5952 O 561.039 -1.95899 0.00703261 0
M  V30 5953 H 559.619 -0.220901 0.713591 0
M  V30 5954 H 562.281 0.135917 1.94425 0
M  V30 5955 H 561.377 -1.01195 2.95239 0
M  V30 5956 N 561.678 -1.56367 -0.196722 0
M  V30 5957 C 562.588 -1.97617 -1.2643 0
M  V30 5958 C 563.604 -0.883598 -1.49895 0
M  V30 5959 O 564.78 -1.18921 -1.62541 0
M  V30 5960 C 561.845 -2.30595 -2.58895 0
M  V30 5961 C 560.906 -3.53551 -2.43516 0
M  V30 5962 C 560.139 -3.84946 -3.69665 0
M  V30 5963 O 560.362 -3.17655 -4.73763 0
M  V30 5964 O 559.296 -4.78379 -3.65291 0
M  V30 5965 H 563.122 -2.88648 -0.944233 0
M  V30 5966 H 560.707 -1.43901 -0.401592 0
M  V30 5967 H 562.589 -2.52889 -3.37083 0
M  V30 5968 H 561.264 -1.42732 -2.90533 0
M  V30 5969 H 560.171 -3.36507 -1.63445 0
M  V30 5970 H 561.504 -4.41875 -2.16812 0
M  V30 5971 N 563.156 0.464375 -1.50603 0
M  V30 5972 C 564.433 1.22549 -1.5245 0
M  V30 5973 C 564.813 2.09327 -0.273035 0
M  V30 5974 O 564.161 2.16074 0.743242 0
M  V30 5975 C 564.371 2.05074 -2.82393 0
M  V30 5976 C 565.719 2.63036 -3.33313 0
M  V30 5977 O 566.743 2.1531 -2.8376 0
M  V30 5978 O 565.602 3.5001 -4.19709 0
M  V30 5979 H 562.696 0.556471 -0.611775 0
M  V30 5980 H 565.242 0.475648 -1.62898 0
M  V30 5981 H 564.014 1.41169 -3.64948 0
M  V30 5982 H 563.637 2.87179 -2.7498 0
M  V30 5983 N 564.634 1.40294 0.718013 0
M  V30 5984 C 565.564 1.43118 1.84498 0
M  V30 5985 C 566.545 0.292403 1.67568 0
M  V30 5986 O 567.73 0.500675 1.87635 0
M  V30 5987 C 564.86 1.29065 3.22427 0
M  V30 5988 C 563.814 2.40521 3.54025 0
M  V30 5989 C 563.14 2.11546 4.91073 0
M  V30 5990 C 564.44 3.82859 3.55269 0
M  V30 5991 H 566.134 2.37432 1.82391 0
M  V30 5992 H 563.68 1.14283 0.87609 0
M  V30 5993 H 565.633 1.29658 4.00957 0
M  V30 5994 H 564.357 0.312271 3.25104 0
M  V30 5995 H 563.016 2.39173 2.77834 0
M  V30 5996 H 562.664 1.12104 4.90348 0
M  V30 5997 H 562.364 2.86216 5.1318 0
M  V30 5998 H 563.888 2.13817 5.71939 0
M  V30 5999 H 565.302 3.86044 4.23843 0
M  V30 6000 H 563.699 4.57029 3.88902 0
M  V30 6001 H 564.769 4.12617 2.54706 0
M  V30 6002 N 566.112 -0.949982 1.2575 0
M  V30 6003 C 567.044 -2.05088 1.02331 0
M  V30 6004 C 568.057 -1.62795 -0.0133247 0
M  V30 6005 O 569.246 -1.77067 0.225759 0
M  V30 6006 C 566.346 -3.34794 0.525924 0
M  V30 6007 C 565.519 -4.05903 1.62978 0
M  V30 6008 C 564.578 -5.1388 1.13196 0
M  V30 6009 O 563.604 -5.39072 1.82729 0
M  V30 6010 N 564.806 -5.80495 -0.0242926 0
M  V30 6011 H 567.571 -2.25747 1.97125 0
M  V30 6012 H 565.132 -1.11886 1.17018 0
M  V30 6013 H 567.124 -4.04312 0.177263 0
M  V30 6014 H 565.694 -3.10872 -0.328202 0
M  V30 6015 H 564.914 -3.3042 2.1498 0
M  V30 6016 H 566.202 -4.50166 2.37124 0
M  V30 6017 H 565.6 -5.62454 -0.605184 0
M  V30 6018 H 564.157 -6.51043 -0.313947 0
M  V30 6019 N 567.59 -1.07411 -1.15328 0
M  V30 6020 C 569.006 -0.799759 -1.38116 0
M  V30 6021 C 569.206 0.59572 -1.92493 0
M  V30 6022 O 568.262 1.35433 -2.13106 0
M  V30 6023 C 569.575 -1.87407 -2.35158 0
M  V30 6024 C 571.123 -1.89889 -2.48819 0
M  V30 6025 C 571.598 -2.96406 -3.49153 0
M  V30 6026 N 573.089 -2.95512 -3.56689 0
M  V30 6027 C 573.824 -3.74575 -4.34144 0
M  V30 6028 N 573.32 -4.63488 -5.14928 0
M  V30 6029 N 575.113 -3.62919 -4.29239 0
M  V30 6030 H 567.264 -1.97411 -0.78374 0
M  V30 6031 H 569.527 -0.856113 -0.407154 0
M  V30 6032 H 569.233 -2.8768 -2.0232 0
M  V30 6033 H 569.107 -1.73471 -3.34944 0
M  V30 6034 H 571.494 -0.902677 -2.80955 0
M  V30 6035 H 571.575 -2.07904 -1.49029 0
M  V30 6036 H 571.219 -3.96227 -3.17752 0
M  V30 6037 H 571.149 -2.75638 -4.48699 0
M  V30 6038 H 573.64 -2.31061 -2.99031 0
M  V30 6039 H 573.953 -5.20445 -5.71276 0
M  V30 6040 H 572.298 -4.67537 -5.14232 0
M  V30 6041 H 575.489 -2.92833 -3.65194 0
M  V30 6042 H 575.662 -4.24777 -4.89355 0
M  V30 6043 N 569.068 1.32177 -0.85831 0
M  V30 6044 C 570.308 1.98927 -0.469822 0
M  V30 6045 C 570.672 1.66423 0.95746 0
M  V30 6046 O 571.873 2.26293 1.45069 0
M  V30 6047 C 570.144 3.50352 -0.706288 0
M  V30 6048 S 571.703 4.36824 -0.415918 0
M  V30 6049 H 568.521 0.688909 -0.175855 0
M  V30 6050 H 571.123 1.60807 -1.11181 0
M  V30 6051 H 569.827 3.71497 -1.74407 0
M  V30 6052 H 569.358 3.93367 -0.0508568 0
M  V30 6053 H 571.373 4.90398 0.756581 0
M  V30 6054 N 570.547 0.616602 1.45037 0
M  V30 6055 C 571.777 0.121791 2.06241 0
M  V30 6056 C 572.185 -1.20289 1.46038 0
M  V30 6057 O 571.528 -1.7456 0.572242 0
M  V30 6058 C 571.59 -0.0827345 3.59405 0
M  V30 6059 C 571.254 1.16153 4.41993 0
M  V30 6060 C 572.251 2.08183 4.76399 0
M  V30 6061 C 569.936 1.39288 4.82601 0
M  V30 6062 C 571.93 3.21668 5.5028 0
M  V30 6063 C 569.617 2.53073 5.56235 0
M  V30 6064 C 570.615 3.44091 5.89992 0
M  V30 6065 O 570.303 4.55894 6.6213 0
M  V30 6066 H 570.035 0.0701667 0.672349 0
M  V30 6067 H 572.589 0.846877 1.87129 0
M  V30 6068 H 570.819 -0.862812 3.76952 0
M  V30 6069 H 572.508 -0.530273 4.02421 0
M  V30 6070 H 573.274 1.91538 4.45576 0
M  V30 6071 H 569.153 0.693396 4.55755 0
M  V30 6072 H 572.697 3.92733 5.76547 0
M  V30 6073 H 568.594 2.69667 5.86472 0
M  V30 6074 H 569.362 4.5469 6.80587 0
M  V30 6075 N 572.025 -1.5352 0.356285 0
M  V30 6076 C 572.935 -2.29151 -0.502712 0
M  V30 6077 C 573.951 -1.34753 -1.1008 0
M  V30 6078 O 575.127 -1.67803 -1.11374 0
M  V30 6079 C 572.192 -3.05911 -1.63154 0
M  V30 6080 C 571.253 -4.15958 -1.06194 0
M  V30 6081 C 570.486 -4.8905 -2.13696 0
M  V30 6082 O 570.709 -4.61919 -3.34645 0
M  V30 6083 O 569.643 -5.75202 -1.77275 0
M  V30 6084 H 573.469 -3.03492 0.112466 0
M  V30 6085 H 571.054 -1.4891 0.120942 0
M  V30 6086 H 572.936 -3.53874 -2.28804 0
M  V30 6087 H 571.611 -2.34415 -2.23229 0
M  V30 6088 H 570.518 -3.7227 -0.369603 0
M  V30 6089 H 571.851 -4.89593 -0.505872 0
M  V30 6090 N 573.503 -0.0852151 -1.57369 0
M  V30 6091 C 574.433 0.874556 -2.16503 0
M  V30 6092 C 575.414 1.30111 -1.09568 0
M  V30 6093 O 576.599 1.36977 -1.37662 0
M  V30 6094 C 573.729 2.13731 -2.73745 0
M  V30 6095 C 572.683 1.84971 -3.85966 0
M  V30 6096 C 572.009 3.17991 -4.29867 0
M  V30 6097 C 573.309 1.14442 -5.09608 0
M  V30 6098 H 575.003 0.381899 -2.96954 0
M  V30 6099 H 572.549 0.18225 -1.42842 0
M  V30 6100 H 574.502 2.81302 -3.13763 0
M  V30 6101 H 573.226 2.65263 -1.90534 0
M  V30 6102 H 571.885 1.19801 -3.46473 0
M  V30 6103 H 571.533 3.6739 -3.4356 0
M  V30 6104 H 571.233 2.99534 -5.05523 0
M  V30 6105 H 572.757 3.86737 -4.72511 0
M  V30 6106 H 574.171 1.72105 -5.46857 0
M  V30 6107 H 572.568 1.06197 -5.90629 0
M  V30 6108 H 573.638 0.12559 -4.84737 0
M  V30 6109 N 574.981 1.5647 0.188427 0
M  V30 6110 C 576.229 1.80655 0.905986 0
M  V30 6111 C 576.55 0.659391 1.83513 0
M  V30 6112 O 575.82 -0.321868 1.93238 0
M  V30 6113 H 574.4 0.666391 0.337538 0
M  V30 6114 H 577.062 1.93949 0.192339 0
M  V30 6115 H 576.158 2.74066 1.49313 0
M  V30 6116 N 576.459 -0.456382 1.50847 0
M  V30 6117 C 577.875 -0.791345 1.386 0
M  V30 6118 C 578.075 -1.9633 0.453498 0
M  V30 6119 O 577.131 -2.52308 -0.0984353 0
M  V30 6120 C 578.444 -1.08959 2.80265 0
M  V30 6121 C 579.992 -1.19517 2.89283 0
M  V30 6122 C 580.467 -1.52647 4.31814 0
M  V30 6123 N 581.958 -1.59609 4.34832 0
M  V30 6124 C 582.693 -1.86777 5.42127 0
M  V30 6125 N 582.189 -2.11866 6.59609 0
M  V30 6126 N 583.982 -1.88402 5.29586 0
M  V30 6127 H 576.133 0.315746 2.1004 0
M  V30 6128 H 578.396 0.0787916 0.94472 0
M  V30 6129 H 578.102 -0.301355 3.50407 0
M  V30 6130 H 577.976 -2.02211 3.18419 0
M  V30 6131 H 580.363 -1.97406 2.19351 0
M  V30 6132 H 580.444 -0.242111 2.54652 0
M  V30 6133 H 580.088 -0.752922 5.02288 0
M  V30 6134 H 580.018 -2.49127 4.63943 0
M  V30 6135 H 582.509 -1.42201 3.50125 0
M  V30 6136 H 582.822 -2.31912 7.37182 0
M  V30 6137 H 581.167 -2.09228 6.62758 0
M  V30 6138 H 584.358 -1.68307 4.36795 0
M  V30 6139 H 584.531 -2.09238 6.13289 0
M  V30 6140 N 577.937 -1.40673 -0.710563 0
M  V30 6141 C 578.884 -1.41336 -1.82463 0
M  V30 6142 C 579.854 -0.269648 -1.63897 0
M  V30 6143 O 581.039 -0.468463 -1.8496 0
M  V30 6144 C 578.179 -1.28665 -3.20218 0
M  V30 6145 C 577.292 -2.52784 -3.5032 0
M  V30 6146 C 576.427 -2.32517 -4.77608 0
M  V30 6147 C 575.466 -3.52187 -5.0063 0
M  V30 6148 N 574.603 -3.31084 -6.19135 0
M  V30 6149 H 579.443 -2.36558 -1.8123 0
M  V30 6150 H 576.98 -1.17483 -0.885226 0
M  V30 6151 H 578.938 -1.19324 -3.99772 0
M  V30 6152 H 577.568 -0.370602 -3.20666 0
M  V30 6153 H 576.62 -2.72634 -2.65283 0
M  V30 6154 H 577.932 -3.41845 -3.63241 0
M  V30 6155 H 577.086 -2.20558 -5.65189 0
M  V30 6156 H 575.825 -1.40889 -4.66906 0
M  V30 6157 H 574.83 -3.64617 -4.11502 0
M  V30 6158 H 576.055 -4.44749 -5.13201 0
M  V30 6159 H 574.001 -2.42143 -6.09674 0
M  V30 6160 H 573.918 -4.13713 -6.32754 0
M  V30 6161 H 575.186 -3.22868 -7.0949 0
M  V30 6162 N 579.415 0.9433 -1.26252 0
M  V30 6163 C 580.664 1.68369 -1.11062 0
M  V30 6164 C 580.977 1.92514 0.346104 0
M  V30 6165 O 582.183 2.64358 0.618646 0
M  V30 6166 C 580.639 3.03171 -1.93946 0
M  V30 6167 C 580.247 2.86782 -3.4418 0
M  V30 6168 C 581.991 3.80916 -1.87359 0
M  V30 6169 C 579.898 4.17044 -4.19319 0
M  V30 6170 H 578.828 0.631469 -0.412023 0
M  V30 6171 H 581.479 1.04922 -1.50544 0
M  V30 6172 H 579.861 3.67587 -1.47296 0
M  V30 6173 H 581.035 2.31229 -3.98585 0
M  V30 6174 H 579.35 2.22482 -3.51981 0
M  V30 6175 H 581.947 4.77417 -2.40784 0
M  V30 6176 H 582.29 4.07658 -0.843857 0
M  V30 6177 H 582.823 3.2327 -2.31821 0
M  V30 6178 H 579.562 3.95487 -5.22753 0
M  V30 6179 H 579.082 4.72319 -3.69696 0
M  V30 6180 H 580.761 4.85513 -4.27651 0
M  V30 6181 N 580.893 1.08022 1.14757 0
M  V30 6182 C 581.856 0.71048 2.1791 0
M  V30 6183 C 582.856 -0.252731 1.58801 0
M  V30 6184 O 584.046 -0.0327915 1.74169 0
M  V30 6185 C 581.178 0.0483203 3.40866 0
M  V30 6186 H 582.371 1.62384 2.52134 0
M  V30 6187 H 579.924 0.877595 1.29337 0
M  V30 6188 H 580.659 -0.876959 3.12218 0
M  V30 6189 H 580.444 0.741189 3.85031 0
M  V30 6190 H 581.934 -0.195471 4.17142 0
M  V30 6191 N 582.371 -1.3172 0.865308 0
M  V30 6192 C 583.334 -2.26918 0.322627 0
M  V30 6193 C 584.334 -1.52031 -0.523751 0
M  V30 6194 O 585.524 -1.70973 -0.333727 0
M  V30 6195 C 582.656 -3.36558 -0.542338 0
M  V30 6196 H 583.849 -2.76432 1.16298 0
M  V30 6197 H 581.402 -1.42573 0.640512 0
M  V30 6198 H 582.137 -2.92329 -1.40407 0
M  V30 6199 H 581.922 -3.92048 0.0636395 0
M  V30 6200 H 583.412 -4.07465 -0.91446 0
M  V30 6201 N 583.85 -0.624285 -1.44708 0
M  V30 6202 C 585.266 -0.289322 -1.56956 0
M  V30 6203 C 585.466 1.20773 -1.61295 0
M  V30 6204 O 584.522 1.9915 -1.55227 0
M  V30 6205 C 585.835 -0.975215 -2.84447 0
M  V30 6206 C 587.383 -0.952709 -2.98148 0
M  V30 6207 C 587.858 -1.61893 -4.28433 0
M  V30 6208 N 589.349 -1.5852 -4.35231 0
M  V30 6209 C 590.084 -2.06969 -5.34744 0
M  V30 6210 N 589.58 -2.63579 -6.40701 0
M  V30 6211 N 591.373 -1.97638 -5.26209 0
M  V30 6212 H 583.524 -1.59612 -1.40135 0
M  V30 6213 H 585.787 -0.669592 -0.671081 0
M  V30 6214 H 585.493 -2.02999 -2.87201 0
M  V30 6215 H 585.367 -0.508749 -3.73753 0
M  V30 6216 H 587.754 0.093568 -2.94952 0
M  V30 6217 H 587.835 -1.4576 -2.10209 0
M  V30 6218 H 587.479 -2.66463 -4.32389 0
M  V30 6219 H 587.409 -1.08893 -5.15218 0
M  V30 6220 H 589.899 -1.17183 -3.59272 0
M  V30 6221 H 590.213 -2.98298 -7.12908 0
M  V30 6222 H 588.558 -2.67626 -6.41406 0
M  V30 6223 H 591.749 -1.5314 -4.42341 0
M  V30 6224 H 591.922 -2.35708 -6.03611 0
M  V30 6225 N 585.328 1.53329 -0.364422 0
M  V30 6226 C 586.577 2.00421 0.226747 0
M  V30 6227 C 586.89 1.25581 1.49963 0
M  V30 6228 O 588.096 1.63256 2.16933 0
M  V30 6229 C 586.552 3.57017 0.454618 0
M  V30 6230 C 586.16 4.40734 -0.803568 0
M  V30 6231 C 587.904 4.12468 1.00351 0
M  V30 6232 C 585.811 5.8888 -0.545345 0
M  V30 6233 H 584.741 0.748787 0.0885082 0
M  V30 6234 H 587.392 1.7703 -0.482983 0
M  V30 6235 H 585.774 3.76558 1.22558 0
M  V30 6236 H 586.948 4.32967 -1.57723 0
M  V30 6237 H 585.263 3.96381 -1.27559 0
M  V30 6238 H 587.86 5.20783 1.212 0
M  V30 6239 H 588.203 3.6699 1.9653 0
M  V30 6240 H 588.736 3.96721 0.29274 0
M  V30 6241 H 585.475 6.38633 -1.47743 0
M  V30 6242 H 584.995 5.99499 0.189842 0
M  V30 6243 H 586.674 6.46776 -0.170425 0
M  V30 6244 N 586.806 0.0935595 1.57322 0
M  V30 6245 C 587.769 -0.851426 2.12799 0
M  V30 6246 C 588.769 -1.21187 1.0569 0
M  V30 6247 O 589.959 -1.14156 1.31583 0
M  V30 6248 C 587.091 -2.14779 2.64731 0
M  V30 6249 H 588.284 -0.369733 2.97612 0
M  V30 6250 H 585.837 -0.155417 1.55525 0
M  V30 6251 H 586.572 -2.67437 1.83434 0
M  V30 6252 H 586.357 -1.89907 3.43042 0
M  V30 6253 H 587.847 -2.82383 3.07651 0
M  V30 6254 N 588.284 -1.56567 -0.180126 0
M  V30 6255 C 589.561 -1.7235 -0.924931 0
M  V30 6256 C 589.941 -0.652523 -2.00762 0
M  V30 6257 O 589.289 0.334115 -2.26044 0
M  V30 6258 C 589.499 -3.1523 -1.49771 0
M  V30 6259 C 590.847 -3.75921 -1.97405 0
M  V30 6260 O 591.871 -3.18452 -1.59583 0
M  V30 6261 O 590.73 -4.7681 -2.67048 0
M  V30 6262 H 587.824 -0.703502 -0.434758 0
M  V30 6263 H 590.37 -1.6886 -0.168647 0
M  V30 6264 H 589.142 -3.84656 -0.718027 0
M  V30 6265 H 588.765 -3.23009 -2.31842 0
M  V30 6266 O 589.801 0.325198 -1.58192 0
M  V30 6267 H 590.492 0.973777 -1.67443 0
M  V30 END ATOM
M  V30 BEGIN BOND
M  V30 END BOND
M  V30 END CTAB
M  END
$$$$
