drugbank_target|Q9GPQ4 IAG-nucleoside hydrolase (DB04335; DB04546)
 OpenBabel12092120293D

  0  0  0     0  0            999 V3000
M  V30 BEGIN CTAB
M  V30 COUNTS 5047 5102 0 0 0
M  V30 BEGIN ATOM
M  V30 1 H -0.908 1.98254 -0.117106 0
M  V30 2 N 0 1.576 0 0
M  V30 3 C 0.933 2.03868 1.02534 0
M  V30 4 C 1.911 0.928543 1.3348 0
M  V30 5 O 3.095 1.19667 1.45644 0
M  V30 6 C 0.222 2.43627 2.35294 0
M  V30 7 C -0.732 3.65373 2.2001 0
M  V30 8 S 0.101 5.13292 1.52614 0
M  V30 9 C 1.257 5.56322 2.86805 0
M  V30 10 H 1.49 2.90518 0.631377 0
M  V30 11 H -0.977 1.52953 0.210867 0
M  V30 12 H 0.981 2.67203 3.11629 0
M  V30 13 H -0.358 1.57376 2.7183 0
M  V30 14 H -1.165 3.90944 3.18086 0
M  V30 15 H -1.563 3.418 1.51819 0
M  V30 16 H 0.729 5.58782 3.83104 0
M  V30 17 H 1.672 6.56266 2.65933 0
M  V30 18 H 2.08 4.83886 2.90714 0
M  V30 19 N 1.4781 -0.272755 1.55222 0
M  V30 20 C 2.4411 -1.32041 1.87344 0
M  V30 21 C 3.4411 -1.42342 0.74803 0
M  V30 22 O 4.6311 -1.41488 1.0162 0
M  V30 23 C 1.7631 -2.70173 2.07893 0
M  V30 24 H 2.9561 -1.04789 2.80997 0
M  V30 25 H 0.5091 -0.51083 1.47717 0
M  V30 26 H 1.2441 -3.02605 1.16622 0
M  V30 27 H 1.0291 -2.64082 2.89833 0
M  V30 28 H 2.5191 -3.45869 2.34017 0
M  V30 29 N 2.9562 -1.48159 -0.537278 0
M  V30 30 C 3.9032 -1.62138 -1.64256 0
M  V30 31 C 4.8732 -0.463668 -1.59497 0
M  V30 32 O 6.0582 -0.686241 -1.78032 0
M  V30 33 C 3.1982 -1.66028 -3.02537 0
M  V30 34 C 2.3112 -2.92855 -3.17585 0
M  V30 35 C 1.4462 -2.87952 -4.46382 0
M  V30 36 C 0.4852 -4.09516 -4.54932 0
M  V30 37 N -0.3778 -4.02733 -5.75109 0
M  V30 38 H 4.4622 -2.56529 -1.51647 0
M  V30 39 H 1.9992 -1.27224 -0.738414 0
M  V30 40 H 3.9572 -1.66265 -3.82638 0
M  V30 41 H 2.5872 -0.751331 -3.13934 0
M  V30 42 H 1.6392 -3.02395 -2.30784 0
M  V30 43 H 2.9512 -3.82822 -3.19764 0
M  V30 44 H 2.1052 -2.8655 -5.34765 0
M  V30 45 H 0.8442 -1.95702 -4.46712 0
M  V30 46 H -0.1508 -4.11201 -3.64957 0
M  V30 47 H 1.0742 -5.02917 -4.56346 0
M  V30 48 H -0.9798 -3.13299 -5.76351 0
M  V30 49 H -1.0628 -4.86397 -5.78752 0
M  V30 50 H 0.2052 -4.05379 -6.65799 0
M  V30 51 N 4.4343 0.785586 -1.36625 0
M  V30 52 C 5.3823 1.91978 -1.31329 0
M  V30 53 C 6.3763 1.68162 -0.204416 0
M  V30 54 O 7.5823 1.76122 -0.371645 0
M  V30 55 H 3.9573 0.631087 -0.408942 0
M  V30 56 H 5.9283 1.93562 -2.27104 0
M  V30 57 C 4.6773 3.29055 -1.12329 0
M  V30 58 H 4.0003 3.4795 -1.96903 0
M  V30 59 H 5.4403 4.08756 -1.12671 0
M  V30 60 C 3.8993 3.36461 0.171861 0
M  V30 61 O 4.4293 3.84576 1.16035 0
M  V30 62 N 2.6353 2.89782 0.217846 0
M  V30 63 H 2.1823 2.50819 -0.587183 0
M  V30 64 H 2.1403 2.95119 1.08408 0
M  V30 65 N 5.9124 1.20967 1.01018 0
M  V30 66 C 7.1584 1.02526 1.74975 0
M  V30 67 C 7.4914 -0.4408 1.89131 0
M  V30 68 O 6.7664 -1.32718 1.42184 0
M  V30 69 C 7.0494 1.71699 3.1653 0
M  V30 70 C 6.9024 3.25791 3.10129 0
M  V30 71 C 8.2214 1.45531 4.15342 0
M  V30 72 H 5.3404 0.373863 0.635134 0
M  V30 73 H 7.9824 1.49071 1.17805 0
M  V30 74 H 6.1324 1.32128 3.65341 0
M  V30 75 H 7.8044 3.74697 2.69072 0
M  V30 76 H 6.0474 3.56363 2.47362 0
M  V30 77 H 6.7184 3.69353 4.10222 0
M  V30 78 H 9.1944 1.79872 3.75213 0
M  V30 79 H 8.0704 1.96453 5.1254 0
M  V30 80 H 8.3314 0.384237 4.40427 0
M  V30 81 N 7.3905 -1.2043 1.01659 0
M  V30 82 C 8.6365 -1.90079 0.706963 0
M  V30 83 C 8.9695 -1.78648 -0.761474 0
M  V30 84 O 8.2445 -1.17069 -1.55323 0
M  V30 85 C 8.5275 -3.41469 1.14327 0
M  V30 86 C 8.3805 -3.61833 2.67201 0
M  V30 87 C 9.6995 -4.34261 0.714529 0
M  V30 88 H 6.8185 -0.690254 0.2583 0
M  V30 89 H 9.4605 -1.41826 1.26433 0
M  V30 90 H 7.6105 -3.82696 0.669056 0
M  V30 91 H 9.2825 -3.2986 3.22475 0
M  V30 92 H 7.5255 -3.05304 3.08175 0
M  V30 93 H 8.1965 -4.67955 2.92783 0
M  V30 94 H 10.6725 -4.00682 1.12221 0
M  V30 95 H 9.5485 -5.38806 1.04784 0
M  V30 96 H 9.8095 -4.40431 -0.383799 0
M  V30 97 N 8.8686 -0.792821 -1.36206 0
M  V30 98 C 9.7986 -0.207853 -2.32573 0
M  V30 99 C 10.7796 0.659055 -1.56813 0
M  V30 100 O 11.9646 0.592176 -1.84951 0
M  V30 101 C 9.0946 0.655449 -3.41059 0
M  V30 102 C 8.0486 -0.111842 -4.27854 0
M  V30 103 C 7.3746 0.872274 -5.27537 0
M  V30 104 C 8.6746 -1.30299 -5.05786 0
M  V30 105 H 10.3686 -1.01294 -2.81744 0
M  V30 106 H 7.9146 -0.48854 -1.3546 0
M  V30 107 H 9.8676 1.07464 -4.07467 0
M  V30 108 H 8.5916 1.49328 -2.90463 0
M  V30 109 H 7.2506 -0.512053 -3.63006 0
M  V30 110 H 6.8986 1.70523 -4.73214 0
M  V30 111 H 6.5986 0.363291 -5.86476 0
M  V30 112 H 8.1226 1.28996 -5.96818 0
M  V30 113 H 9.5366 -0.959379 -5.65216 0
M  V30 114 H 7.9336 -1.7455 -5.74154 0
M  V30 115 H 9.0036 -2.09663 -4.37229 0
M  V30 116 N 10.3467 1.47872 -0.545128 0
M  V30 117 C 11.6237 1.9554 0.0485222 0
M  V30 118 C 12.0037 1.4876 1.49779 0
M  V30 119 O 11.3517 0.720925 2.16829 0
M  V30 120 C 11.5617 3.48898 -0.084417 0
M  V30 121 C 12.9097 4.24547 0.0671239 0
M  V30 122 O 13.9337 3.56198 -0.0113649 0
M  V30 123 O 12.7927 5.45999 0.233882 0
M  V30 124 H 9.8867 0.823957 0.0708773 0
M  V30 125 H 12.4327 1.58327 -0.610798 0
M  V30 126 H 11.2047 3.75714 -1.09337 0
M  V30 127 H 10.8277 3.92845 0.613066 0
M  V30 128 N 11.8248 0.280983 1.55075 0
M  V30 129 C 12.7748 -0.618585 2.19448 0
M  V30 130 C 13.7588 -1.11401 1.16098 0
M  V30 131 O 14.9508 -1.0581 1.41891 0
M  V30 132 C 12.0798 -1.79951 2.92357 0
M  V30 133 C 11.1658 -1.321 4.03002 0
M  V30 134 N 11.5568 -0.559044 5.02701 0
M  V30 135 C 9.8548 -1.60346 4.16179 0
M  V30 136 C 10.5558 -0.306722 5.80891 0
M  V30 137 N 9.5318 -0.880825 5.36416 0
M  V30 138 H 13.3338 -0.0286638 2.93886 0
M  V30 139 H 10.8478 0.0848104 1.62178 0
M  V30 140 H 12.8448 -2.45531 3.36927 0
M  V30 141 H 11.5048 -2.39333 2.19431 0
M  V30 142 H 12.5158 -0.205827 5.17491 0
M  V30 143 H 9.1928 -2.20621 3.54447 0
M  V30 144 H 10.5828 0.30391 6.71212 0
M  V30 145 N 13.3029 -1.57598 0.00835791 0
M  V30 146 C 14.5799 -1.82172 -0.712235 0
M  V30 147 C 14.9599 -0.887873 -1.9152 0
M  V30 148 O 14.3079 0.06146 -2.28417 0
M  V30 149 C 14.5179 -3.30875 -1.11008 0
M  V30 150 C 15.8659 -3.96826 -1.51044 0
M  V30 151 O 16.8899 -3.35248 -1.20364 0
M  V30 152 O 15.7489 -5.05318 -2.08125 0
M  V30 153 H 12.8429 -0.750435 -0.347529 0
M  V30 154 H 15.3889 -1.69665 0.0344523 0
M  V30 155 H 14.1609 -3.90481 -0.252982 0
M  V30 156 H 13.7839 -3.48412 -1.9156 0
M  V30 157 N 14.781 0.264519 -1.55364 0
M  V30 158 C 16.029 0.993021 -1.76021 0
M  V30 159 C 16.35 1.86511 -0.569099 0
M  V30 160 O 15.62 1.91438 0.415735 0
M  V30 161 H 14.2 0.369639 -0.649135 0
M  V30 162 H 16.862 0.286707 -1.9278 0
M  V30 163 H 15.958 1.62502 -2.66457 0
M  V30 164 N 16.2591 1.48442 0.529413 0
M  V30 165 C 17.2071 1.63452 1.65487 0
M  V30 166 C 18.2011 0.500955 1.61823 0
M  V30 167 O 19.4071 0.679695 1.66674 0
M  V30 168 H 15.7821 0.514905 0.548066 0
M  V30 169 H 17.7531 2.57975 1.49971 0
M  V30 170 C 16.5021 1.69196 3.03756 0
M  V30 171 H 15.8251 2.55784 3.07269 0
M  V30 172 H 17.2651 1.83743 3.82119 0
M  V30 173 C 15.7241 0.430765 3.34135 0
M  V30 174 O 16.2541 -0.4561 3.99102 0
M  V30 175 N 14.4601 0.302293 2.89023 0
M  V30 176 H 14.0071 1.02496 2.36331 0
M  V30 177 H 13.9651 -0.540546 3.09718 0
M  V30 178 N 17.7372 -0.778329 1.37039 0
M  V30 179 C 18.6672 -1.90546 1.34962 0
M  V30 180 C 19.6482 -1.68681 0.219274 0
M  V30 181 O 20.8332 -1.89634 0.418624 0
M  V30 182 C 17.9632 -3.27734 1.14925 0
M  V30 183 C 16.9172 -3.64147 2.24902 0
M  V30 184 C 16.2432 -4.99806 1.89996 0
M  V30 185 C 17.5432 -3.71579 3.67051 0
M  V30 186 H 19.2372 -1.92541 2.29277 0
M  V30 187 H 16.7832 -0.924948 1.10366 0
M  V30 188 H 18.7362 -4.06215 1.12104 0
M  V30 189 H 17.4602 -3.26154 0.170631 0
M  V30 190 H 16.1192 -2.8797 2.26868 0
M  V30 191 H 15.7672 -4.94759 0.906796 0
M  V30 192 H 15.4672 -5.25139 2.63634 0
M  V30 193 H 16.9912 -5.80694 1.88749 0
M  V30 194 H 18.4052 -4.40227 3.67251 0
M  V30 195 H 16.8022 -4.08405 4.39688 0
M  V30 196 H 17.8722 -2.72404 4.01154 0
M  V30 197 N 19.2153 -1.21501 -1.00376 0
M  V30 198 C 20.4923 -0.941745 -1.71437 0
M  V30 199 C 20.8723 0.546114 -2.03914 0
M  V30 200 O 20.2203 1.51128 -1.71384 0
M  V30 201 C 20.4303 -1.82812 -2.97289 0
M  V30 202 C 21.7783 -2.07771 -3.70292 0
M  V30 203 O 22.8023 -1.80171 -3.07273 0
M  V30 204 O 21.6613 -2.54456 -4.83647 0
M  V30 205 H 18.7553 -0.353243 -0.747762 0
M  V30 206 H 21.3013 -1.32436 -1.06108 0
M  V30 207 H 20.0733 -2.83501 -2.69709 0
M  V30 208 H 19.6963 -1.4464 -3.70358 0
M  V30 209 N 20.6934 1.19889 -1.02296 0
M  V30 210 C 21.9704 1.85148 -0.630832 0
M  V30 211 C 22.3504 1.91385 0.890782 0
M  V30 212 O 21.6984 1.42642 1.78509 0
M  V30 213 C 21.9084 3.24442 -1.28602 0
M  V30 214 C 23.2564 4.00663 -1.4055 0
M  V30 215 O 24.2804 3.33818 -1.24273 0
M  V30 216 O 23.1394 5.20387 -1.66913 0
M  V30 217 H 20.2334 0.797613 -0.218499 0
M  V30 218 H 22.7794 1.27427 -1.12074 0
M  V30 219 H 21.5514 3.14704 -2.32545 0
M  V30 220 H 21.1744 3.89802 -0.7836 0
M  V30 221 N 22.1715 0.800033 1.35784 0
M  V30 222 C 23.4185 0.377342 1.98953 0
M  V30 223 C 23.7465 -1.05378 1.6348 0
M  V30 224 O 23.0015 -1.74459 0.886707 0
M  V30 225 C 23.3005 0.500276 3.53881 0
M  V30 226 C 22.9665 1.89375 4.09204 0
M  V30 227 C 21.6285 2.27499 4.24025 0
M  V30 228 C 23.9805 2.8057 4.39238 0
M  V30 229 C 21.3085 3.562 4.66195 0
M  V30 230 C 23.6605 4.0871 4.82844 0
M  V30 231 C 22.3245 4.46843 4.95871 0
M  V30 232 H 21.5945 0.138079 0.728021 0
M  V30 233 H 24.2415 1.01955 1.62103 0
M  V30 234 H 22.5465 -0.225405 3.91151 0
M  V30 235 H 24.2435 0.154097 4.00704 0
M  V30 236 H 20.8335 1.58753 3.98115 0
M  V30 237 H 25.0175 2.52367 4.27346 0
M  V30 238 H 20.2735 3.85602 4.74469 0
M  V30 239 H 24.4475 4.79481 5.05046 0
M  V30 240 H 22.0745 5.46623 5.28306 0
M  V30 241 N 23.6496 -1.47581 0.552962 0
M  V30 242 C 24.8956 -2.02782 0.0273648 0
M  V30 243 C 25.2286 -1.42687 -1.31734 0
M  V30 244 O 24.5036 -0.580897 -1.85623 0
M  V30 245 C 24.7866 -3.60031 -0.0702371 0
M  V30 246 C 24.6396 -4.30566 1.30126 0
M  V30 247 C 25.9586 -4.33028 -0.785771 0
M  V30 248 H 23.0776 -0.736912 0.0114185 0
M  V30 249 H 25.7196 -1.76056 0.714432 0
M  V30 250 H 23.8696 -3.82932 -0.655382 0
M  V30 251 H 25.5416 -4.19018 1.92929 0
M  V30 252 H 23.7846 -3.91086 1.87709 0
M  V30 253 H 24.4556 -5.39114 1.18573 0
M  V30 254 H 26.9316 -4.15095 -0.288982 0
M  V30 255 H 25.8076 -5.42695 -0.823013 0
M  V30 256 H 26.0686 -4.01945 -1.841 0
M  V30 257 N 25.1277 -0.289203 -1.54924 0
M  V30 258 C 26.0907 0.579144 -2.21762 0
M  V30 259 C 27.0907 1.07047 -1.1999 0
M  V30 260 O 28.2807 0.968384 -1.44803 0
M  V30 261 C 25.4127 1.80055 -2.8947 0
M  V30 262 H 26.6057 -0.00464908 -2.999 0
M  V30 263 H 24.1587 -0.0399306 -1.56249 0
M  V30 264 H 24.8937 2.42449 -2.15381 0
M  V30 265 H 24.6787 1.45602 -3.64064 0
M  V30 266 H 26.1687 2.41773 -3.40493 0
M  V30 267 N 26.6058 1.57591 -0.0167156 0
M  V30 268 C 27.5388 2.04944 1.00366 0
M  V30 269 C 28.5168 0.942648 1.32487 0
M  V30 270 O 29.7008 1.21205 1.44367 0
M  V30 271 C 26.8278 2.46109 2.32697 0
M  V30 272 C 25.8738 3.67686 2.16123 0
M  V30 273 S 26.7068 5.14882 1.47161 0
M  V30 274 C 27.8628 5.59332 2.80888 0
M  V30 275 H 28.0958 2.91172 0.600528 0
M  V30 276 H 25.6288 1.53168 0.194632 0
M  V30 277 H 27.5868 2.70493 3.08778 0
M  V30 278 H 26.2478 1.6025 2.70146 0
M  V30 279 H 25.4408 3.94296 3.13922 0
M  V30 280 H 25.0428 3.43391 1.48185 0
M  V30 281 H 27.3348 5.62814 3.77156 0
M  V30 282 H 28.2778 6.5905 2.58958 0
M  V30 283 H 28.6858 4.86942 2.85565 0
M  V30 284 N 28.0839 -0.256276 1.55502 0
M  V30 285 C 29.3299 -0.987079 1.77157 0
M  V30 286 C 29.6629 -1.85327 0.580315 0
M  V30 287 O 28.9379 -1.89874 -0.421686 0
M  V30 288 C 29.2209 -1.85553 3.08613 0
M  V30 289 C 29.0739 -1.01816 4.38125 0
M  V30 290 C 30.3929 -2.8397 3.36228 0
M  V30 291 H 27.5119 -0.357428 0.644526 0
M  V30 292 H 30.1539 -0.258239 1.88237 0
M  V30 293 H 28.3039 -2.47695 2.99298 0
M  V30 294 H 29.9759 -0.416159 4.59419 0
M  V30 295 H 28.2189 -0.322178 4.32602 0
M  V30 296 H 28.8899 -1.65939 5.26468 0
M  V30 297 H 31.3659 -2.31964 3.45445 0
M  V30 298 H 30.2419 -3.41864 4.29442 0
M  V30 299 H 30.5029 -3.59955 2.56681 0
M  V30 300 N 29.562 -1.4872 -0.521534 0
M  V30 301 C 30.492 -1.66771 -1.63431 0
M  V30 302 C 31.473 -0.516499 -1.62069 0
M  V30 303 O 32.658 -0.750013 -1.79132 0
M  V30 304 C 29.788 -1.71515 -3.01993 0
M  V30 305 C 28.742 -2.86222 -3.18216 0
M  V30 306 C 28.068 -2.76061 -4.57924 0
M  V30 307 C 29.368 -4.27419 -3.00184 0
M  V30 308 H 31.062 -2.59932 -1.48579 0
M  V30 309 H 28.608 -1.25089 -0.713358 0
M  V30 310 H 30.561 -1.82731 -3.7972 0
M  V30 311 H 29.285 -0.749393 -3.17886 0
M  V30 312 H 27.944 -2.74575 -2.42908 0
M  V30 313 H 27.592 -1.77437 -4.70665 0
M  V30 314 H 27.292 -3.53037 -4.69722 0
M  V30 315 H 28.816 -2.89256 -5.37739 0
M  V30 316 H 30.23 -4.39855 -3.67697 0
M  V30 317 H 28.627 -5.05458 -3.2347 0
M  V30 318 H 29.697 -4.43293 -1.96518 0
M  V30 319 N 31.0401 0.771051 -1.3745 0
M  V30 320 C 31.9701 1.89827 -1.3597 0
M  V30 321 C 32.9511 1.68562 -0.228216 0
M  V30 322 O 34.1361 1.8941 -0.428675 0
M  V30 323 C 31.2661 3.2712 -1.16662 0
M  V30 324 C 30.2201 3.6295 -2.2683 0
M  V30 325 C 29.5461 4.98791 -1.92644 0
M  V30 326 C 30.8461 3.69627 -3.69017 0
M  V30 327 H 32.5401 1.91323 -2.30295 0
M  V30 328 H 30.0861 0.919082 -1.10855 0
M  V30 329 H 32.0391 4.05615 -1.14256 0
M  V30 330 H 30.7631 3.26059 -0.187926 0
M  V30 331 H 29.4221 2.86763 -2.28392 0
M  V30 332 H 29.0701 4.94271 -0.933021 0
M  V30 333 H 28.7701 5.23733 -2.66416 0
M  V30 334 H 30.2941 5.79685 -1.91826 0
M  V30 335 H 31.7081 4.38273 -3.69581 0
M  V30 336 H 30.1051 4.06067 -4.41848 0
M  V30 337 H 31.1751 2.70273 -4.02592 0
M  V30 338 N 32.5182 1.22032 0.997298 0
M  V30 339 C 33.4812 0.987909 2.06816 0
M  V30 340 C 34.4812 -0.0440084 1.6074 0
M  V30 341 O 35.6712 0.194053 1.73116 0
M  V30 342 C 32.8032 0.49132 3.37341 0
M  V30 343 H 33.9962 1.93803 2.28868 0
M  V30 344 H 31.5492 1.03838 1.16822 0
M  V30 345 H 32.2842 -0.463364 3.20973 0
M  V30 346 H 32.0692 1.23575 3.72118 0
M  V30 347 H 33.5592 0.348824 4.16141 0
M  V30 348 N 33.9963 -1.19345 1.0293 0
M  V30 349 C 35.2213 -1.93538 0.745511 0
M  V30 350 C 35.6463 -1.75007 -0.689511 0
M  V30 351 O 35.0043 -1.05265 -1.47611 0
M  V30 352 C 35.0523 -3.43336 1.10239 0
M  V30 353 O 34.1563 -4.11806 0.221289 0
M  V30 354 H 33.4973 -0.604193 0.275404 0
M  V30 355 H 36.0273 -1.5141 1.37609 0
M  V30 356 H 36.0373 -3.94004 1.05947 0
M  V30 357 H 34.7123 -3.56146 2.14786 0
M  V30 358 H 33.2893 -3.715 0.322842 0
M  V30 359 N 35.4744 -0.807222 -1.35358 0
M  V30 360 C 36.4224 -0.20614 -2.31685 0
M  V30 361 C 37.4164 0.644445 -1.56663 0
M  V30 362 O 38.6224 0.537538 -1.71786 0
M  V30 363 H 34.9974 -0.0479006 -0.750473 0
M  V30 364 H 36.9684 -1.03369 -2.79924 0
M  V30 365 C 35.7174 0.630212 -3.41941 0
M  V30 366 H 35.0404 -0.0149558 -3.99797 0
M  V30 367 H 36.4804 1.01716 -4.11619 0
M  V30 368 C 34.9394 1.79601 -2.85035 0
M  V30 369 O 35.4694 2.89351 -2.78637 0
M  V30 370 N 33.6754 1.60774 -2.42074 0
M  V30 371 H 33.2224 0.715009 -2.47478 0
M  V30 372 H 33.1804 2.38933 -2.04349 0
M  V30 373 N 36.9525 1.47285 -0.560781 0
M  V30 374 C 38.1805 2.06855 -0.0430262 0
M  V30 375 C 38.5955 1.41291 1.25229 0
M  V30 376 O 37.9525 0.510648 1.7521 0
M  V30 377 C 38.0035 3.61178 0.152518 0
M  V30 378 O 37.7245 4.24285 -1.0915 0
M  V30 379 C 39.2255 4.37624 0.707145 0
M  V30 380 H 36.4455 0.669319 -0.0474652 0
M  V30 381 H 38.9895 1.89237 -0.77521 0
M  V30 382 H 37.1445 3.78298 0.834843 0
M  V30 383 H 37.5585 5.16868 -0.891482 0
M  V30 384 H 39.0325 5.46271 0.793244 0
M  V30 385 H 39.5095 4.04152 1.71923 0
M  V30 386 H 40.1155 4.25257 0.0604027 0
M  V30 387 N 38.4306 0.297415 1.54768 0
M  V30 388 C 39.3406 -0.58983 2.27064 0
M  V30 389 C 40.3566 -1.15144 1.30453 0
M  V30 390 O 41.5326 -1.17699 1.63428 0
M  V30 391 C 38.5976 -1.74714 2.9946 0
M  V30 392 C 37.6586 -1.21997 4.11601 0
M  V30 393 C 36.8916 -2.32212 4.80535 0
M  V30 394 O 37.1146 -3.52036 4.48806 0
M  V30 395 O 36.0486 -1.99106 5.68014 0
M  V30 396 H 39.8746 -0.00348199 3.037 0
M  V30 397 H 37.4596 0.0640035 1.49263 0
M  V30 398 H 39.3416 -2.42147 3.44881 0
M  V30 399 H 38.0166 -2.32016 2.25722 0
M  V30 400 H 36.9236 -0.511458 3.70587 0
M  V30 401 H 38.2566 -0.692419 4.87305 0
M  V30 402 N 39.9087 -1.5758 0.0250728 0
M  V30 403 C 40.8557 -2.09973 -0.958129 0
M  V30 404 C 41.8257 -1.00085 -1.3256 0
M  V30 405 O 43.0107 -1.27481 -1.41962 0
M  V30 406 C 40.1507 -2.62812 -2.2366 0
M  V30 407 C 39.2637 -3.86693 -1.92594 0
M  V30 408 C 38.3987 -4.27941 -3.14707 0
M  V30 409 C 37.4377 -5.44591 -2.79442 0
M  V30 410 N 36.5747 -5.81014 -3.94167 0
M  V30 411 H 41.4147 -2.937 -0.504428 0
M  V30 412 H 38.9517 -1.45172 -0.237392 0
M  V30 413 H 40.9097 -2.91536 -2.98434 0
M  V30 414 H 39.5397 -1.81922 -2.66654 0
M  V30 415 H 38.5917 -3.64723 -1.0808 0
M  V30 416 H 39.9037 -4.71547 -1.62619 0
M  V30 417 H 39.0577 -4.58079 -3.97804 0
M  V30 418 H 37.7967 -3.41845 -3.4784 0
M  V30 419 H 36.8017 -5.1415 -1.94755 0
M  V30 420 H 38.0267 -6.32382 -2.47528 0
M  V30 421 H 35.9727 -4.97874 -4.2715 0
M  V30 422 H 35.8897 -6.60498 -3.67801 0
M  V30 423 H 37.1577 -6.15756 -4.7798 0
M  V30 424 N 41.3868 0.248026 -1.55636 0
M  V30 425 C 42.6328 0.97767 -1.77678 0
M  V30 426 C 42.9658 1.85016 -0.590135 0
M  V30 427 O 42.2408 1.90095 0.411611 0
M  V30 428 C 42.5238 1.83914 -3.09593 0
M  V30 429 C 42.3768 0.99491 -4.38659 0
M  V30 430 C 43.6958 2.82183 -3.37729 0
M  V30 431 H 40.8148 0.354005 -0.646413 0
M  V30 432 H 43.4568 0.248253 -1.88371 0
M  V30 433 H 41.6068 2.46104 -3.00608 0
M  V30 434 H 43.2788 0.391789 -4.59633 0
M  V30 435 H 41.5218 0.299231 -4.32767 0
M  V30 436 H 42.1928 1.63145 -5.2734 0
M  V30 437 H 44.6688 2.30129 -3.4667 0
M  V30 438 H 43.5448 3.39582 -4.31249 0
M  V30 439 H 43.8058 3.58588 -2.58586 0
M  V30 440 N 42.8649 1.48995 0.513639 0
M  V30 441 C 44.2809 1.35478 0.843682 0
M  V30 442 C 44.4809 0.378213 1.97919 0
M  V30 443 O 43.5369 -0.194689 2.51748 0
M  V30 444 C 44.8499 2.75901 1.1958 0
M  V30 445 C 46.3979 2.84509 1.30474 0
M  V30 446 C 46.8729 4.25671 1.69021 0
M  V30 447 N 48.3639 4.28422 1.76094 0
M  V30 448 C 49.0989 5.34601 2.07338 0
M  V30 449 N 48.5949 6.5104 2.36894 0
M  V30 450 N 50.3879 5.22007 2.08483 0
M  V30 451 H 42.5389 2.11092 -0.235328 0
M  V30 452 H 44.8019 0.947039 -0.0426669 0
M  V30 453 H 44.5079 3.49001 0.434913 0
M  V30 454 H 44.3819 3.10467 2.1422 0
M  V30 455 H 46.7689 2.11655 2.05637 0
M  V30 456 H 46.8499 2.53542 0.339155 0
M  V30 457 H 46.4939 4.99048 0.944135 0
M  V30 458 H 46.4239 4.54094 2.66658 0
M  V30 459 H 48.9149 3.44441 1.55464 0
M  V30 460 H 49.2279 7.2779 2.59887 0
M  V30 461 H 47.5729 6.54287 2.34378 0
M  V30 462 H 50.7639 4.30051 1.84861 0
M  V30 463 H 50.9369 6.04854 2.325 0
M  V30 464 N 44.343 -0.763751 1.37857 0
M  V30 465 C 45.273 -1.89103 1.36975 0
M  V30 466 C 46.254 -1.68439 0.237152 0
M  V30 467 O 47.439 -1.8918 0.438713 0
M  V30 468 C 44.569 -3.26496 1.18395 0
M  V30 469 C 43.523 -3.61741 2.28751 0
M  V30 470 C 42.849 -4.97762 1.95286 0
M  V30 471 C 44.149 -3.67665 3.70972 0
M  V30 472 H 45.843 -1.90099 2.31307 0
M  V30 473 H 43.389 -0.91319 1.11341 0
M  V30 474 H 45.342 -4.05003 1.16406 0
M  V30 475 H 44.066 -3.25955 0.205215 0
M  V30 476 H 42.725 -2.85547 2.29909 0
M  V30 477 H 42.373 -4.93769 0.959221 0
M  V30 478 H 42.073 -5.22313 2.69189 0
M  V30 479 H 43.597 -5.7866 1.94898 0
M  V30 480 H 45.011 -4.36307 3.719 0
M  V30 481 H 43.408 -4.03718 4.43995 0
M  V30 482 H 44.478 -2.68134 4.0402 0
M  V30 483 N 45.8211 -1.22559 -0.990812 0
M  V30 484 C 47.0701 -1.04553 -1.72486 0
M  V30 485 C 47.3831 0.419349 -1.91052 0
M  V30 486 O 48.5891 0.719121 -2.61803 0
M  V30 487 C 47.0451 -1.82231 -3.10355 0
M  V30 488 C 46.6531 -3.32981 -2.99713 0
M  V30 489 C 48.3971 -1.7268 -3.87791 0
M  V30 490 C 46.3041 -4.03091 -4.32748 0
M  V30 491 H 45.2341 -0.387614 -0.646739 0
M  V30 492 H 47.8851 -1.46429 -1.10593 0
M  V30 493 H 46.2671 -1.33155 -3.72942 0
M  V30 494 H 47.4411 -3.89466 -2.46278 0
M  V30 495 H 45.7561 -3.43231 -2.35758 0
M  V30 496 H 48.3531 -2.22381 -4.86262 0
M  V30 497 H 48.6961 -0.687607 -4.10582 0
M  V30 498 H 49.2291 -2.1931 -3.31885 0
M  V30 499 H 45.9681 -5.07273 -4.15156 0
M  V30 500 H 45.4881 -3.51394 -4.86089 0
M  V30 501 H 47.1671 -4.08804 -5.01486 0
M  V30 502 N 47.2992 1.18797 -1.03562 0
M  V30 503 C 48.5472 1.88278 -0.734569 0
M  V30 504 C 48.8682 1.8043 0.739586 0
M  V30 505 O 48.1382 1.21925 1.53333 0
M  V30 506 H 46.7182 0.696991 -0.268725 0
M  V30 507 H 49.3802 1.44192 -1.31129 0
M  V30 508 H 48.4762 2.94443 -1.03489 0
M  V30 509 N 48.7773 0.814389 1.34928 0
M  V30 510 C 49.7403 0.235759 2.27984 0
M  V30 511 C 50.7403 -0.581412 1.49921 0
M  V30 512 O 51.9303 -0.398758 1.69575 0
M  V30 513 C 49.0623 -0.670433 3.34242 0
M  V30 514 H 50.2553 1.05659 2.80671 0
M  V30 515 H 47.8083 0.585614 1.44915 0
M  V30 516 H 48.5433 -1.51466 2.86755 0
M  V30 517 H 48.3283 -0.0860822 3.92005 0
M  V30 518 H 49.8183 -1.06935 4.03676 0
M  V30 519 N 50.2554 -1.46986 0.568584 0
M  V30 520 C 51.1854 -2.32946 -0.160753 0
M  V30 521 C 52.1664 -1.44487 -0.897631 0
M  V30 522 O 53.3514 -1.73327 -0.875867 0
M  V30 523 C 50.4814 -3.26494 -1.18403 0
M  V30 524 C 49.4354 -4.24282 -0.562895 0
M  V30 525 C 48.7614 -5.07236 -1.69163 0
M  V30 526 C 50.0614 -5.19989 0.490761 0
M  V30 527 H 51.7554 -2.94175 0.556916 0
M  V30 528 H 49.3014 -1.4146 0.26927 0
M  V30 529 H 51.2544 -3.85477 -1.70251 0
M  V30 530 H 49.9784 -2.63343 -1.93179 0
M  V30 531 H 48.6374 -3.66541 -0.0656164 0
M  V30 532 H 48.2854 -4.4048 -2.42871 0
M  V30 533 H 47.9854 -5.7345 -1.28174 0
M  V30 534 H 49.5094 -5.6908 -2.21314 0
M  V30 535 H 50.9234 -5.73271 0.0579047 0
M  V30 536 H 49.3204 -5.94469 0.820165 0
M  V30 537 H 50.3904 -4.64777 1.3824 0
M  V30 538 N 51.7335 -0.305618 -1.54608 0
M  V30 539 C 52.9735 0.303114 -2.0214 0
M  V30 540 C 53.3375 1.50737 -1.18921 0
M  V30 541 O 54.5385 2.18778 -1.56172 0
M  V30 542 C 52.8095 0.646332 -3.51507 0
M  V30 543 S 54.3685 1.23727 -4.20995 0
M  V30 544 H 51.1865 0.0927643 -0.704923 0
M  V30 545 H 53.7885 -0.434566 -1.90609 0
M  V30 546 H 52.4925 -0.238541 -4.09706 0
M  V30 547 H 52.0235 1.41468 -3.67084 0
M  V30 548 H 54.0385 2.52489 -4.27158 0
M  V30 549 N 53.2116 1.57565 -0.0334293 0
M  V30 550 C 54.4396 1.9628 0.654347 0
M  V30 551 C 54.8546 0.910138 1.65414 0
M  V30 552 O 54.2116 -0.107595 1.82183 0
M  V30 553 C 54.2626 3.35067 1.35693 0
M  V30 554 O 53.9836 4.36296 0.397191 0
M  V30 555 C 55.4846 3.88439 2.13613 0
M  V30 556 H 52.7046 0.646369 0.180132 0
M  V30 557 H 55.2486 2.04282 -0.0944721 0
M  V30 558 H 53.4036 3.2827 2.05712 0
M  V30 559 H 53.8176 5.1678 0.896597 0
M  V30 560 H 55.2916 4.8788 2.58219 0
M  V30 561 H 55.7686 3.22914 2.97696 0
M  V30 562 H 56.3746 3.98516 1.48543 0
M  V30 563 N 54.6897 -0.239769 1.55765 0
M  V30 564 C 55.9667 -0.990056 1.68693 0
M  V30 565 C 56.3467 -2.03107 0.5754 0
M  V30 566 O 55.6947 -2.24604 -0.42017 0
M  V30 567 C 55.9047 -1.61696 3.09282 0
M  V30 568 C 57.2527 -2.11613 3.6811 0
M  V30 569 O 58.2767 -1.71624 3.12127 0
M  V30 570 O 57.1357 -2.85057 4.66267 0
M  V30 571 H 54.2297 -0.461299 0.686391 0
M  V30 572 H 56.7757 -0.232991 1.68093 0
M  V30 573 H 55.5477 -0.864357 3.81634 0
M  V30 574 H 55.1707 -2.44005 3.13923 0
M  V30 575 N 56.1678 -1.49265 -0.50573 0
M  V30 576 C 57.1308 -1.65075 -1.59006 0
M  V30 577 C 58.1308 -0.522768 -1.52065 0
M  V30 578 O 59.3208 -0.789117 -1.55302 0
M  V30 579 C 56.4528 -1.64369 -2.98656 0
M  V30 580 H 57.6458 -2.61784 -1.46319 0
M  V30 581 H 55.1988 -1.38226 -0.729616 0
M  V30 582 H 55.9338 -0.692272 -3.16825 0
M  V30 583 H 55.7188 -2.46282 -3.05103 0
M  V30 584 H 57.2088 -1.78674 -3.77446 0
M  V30 585 N 57.6459 0.756429 -1.3826 0
M  V30 586 C 58.9229 1.50584 -1.24835 0
M  V30 587 C 59.3029 2.10556 0.151485 0
M  V30 588 O 58.6509 1.96825 1.1607 0
M  V30 589 C 58.8609 2.57448 -2.3563 0
M  V30 590 C 60.2089 3.24429 -2.73917 0
M  V30 591 O 61.2329 2.67751 -2.34921 0
M  V30 592 O 60.0919 4.26937 -3.41156 0
M  V30 593 H 57.1859 0.667664 -0.48801 0
M  V30 594 H 59.7319 0.792083 -1.5008 0
M  V30 595 H 58.5039 2.11362 -3.29305 0
M  V30 596 H 58.1269 3.36408 -2.11933 0
M  V30 597 N 59.124 1.23083 0.984299 0
M  V30 598 C 60.364 1.07226 1.74017 0
M  V30 599 C 60.728 -0.384766 1.88105 0
M  V30 600 O 61.929 -0.664411 2.60459 0
M  V30 601 C 60.2 1.77348 3.10294 0
M  V30 602 S 61.759 1.77014 4.01512 0
M  V30 603 H 58.577 0.383819 0.598502 0
M  V30 604 H 61.179 1.56158 1.17622 0
M  V30 605 H 59.883 2.82506 2.97689 0
M  V30 606 H 59.414 1.28682 3.71759 0
M  V30 607 H 61.429 0.825956 4.89277 0
M  V30 608 N 60.6021 -1.18246 1.0419 0
M  V30 609 C 61.8491 -1.88257 0.746017 0
M  V30 610 C 62.1771 -1.80429 -0.726331 0
M  V30 611 O 61.4321 -1.2 -1.54591 0
M  V30 612 C 61.7311 -3.38082 1.15911 0
M  V30 613 C 61.3971 -3.66114 2.63195 0
M  V30 614 C 60.0591 -3.73474 3.03432 0
M  V30 615 C 62.4111 -3.78398 3.5842 0
M  V30 616 C 59.7391 -3.90599 4.37778 0
M  V30 617 C 62.0911 -3.97039 4.92487 0
M  V30 618 C 60.7551 -4.02635 5.32392 0
M  V30 619 H 60.0251 -0.688883 0.272987 0
M  V30 620 H 62.6721 -1.3995 1.30715 0
M  V30 621 H 60.9771 -3.88377 0.516806 0
M  V30 622 H 62.6741 -3.90596 0.907516 0
M  V30 623 H 59.2641 -3.61003 2.3103 0
M  V30 624 H 63.4481 -3.72042 3.28479 0
M  V30 625 H 58.7041 -3.93175 4.68213 0
M  V30 626 H 62.8781 -4.05486 5.66175 0
M  V30 627 H 60.5051 -4.15657 6.36501 0
M  V30 628 N 62.0802 -0.821533 -1.34494 0
M  V30 629 C 63.3262 -0.409552 -1.98622 0
M  V30 630 C 63.6592 1.0244 -1.64984 0
M  V30 631 O 62.9342 1.71325 -0.920758 0
M  V30 632 C 63.2172 -0.610458 -3.54888 0
M  V30 633 C 63.0702 -2.09043 -3.98273 0
M  V30 634 C 64.3892 -0.0455379 -4.40076 0
M  V30 635 H 61.5082 -0.15028 -0.721516 0
M  V30 636 H 64.1502 -1.03384 -1.59411 0
M  V30 637 H 62.3002 -0.079044 -3.8842 0
M  V30 638 H 63.9722 -2.68537 -3.75081 0
M  V30 639 H 62.2152 -2.58139 -3.48635 0
M  V30 640 H 62.8862 -2.18182 -5.07051 0
M  V30 641 H 65.3622 -0.499557 -4.1309 0
M  V30 642 H 64.2382 -0.215922 -5.48475 0
M  V30 643 H 64.4992 1.04939 -4.29465 0
M  V30 644 N 63.5583 1.46682 -0.576371 0
M  V30 645 C 64.4683 2.34032 0.163141 0
M  V30 646 C 65.4843 1.49367 0.892501 0
M  V30 647 O 66.6603 1.82252 0.857106 0
M  V30 648 C 63.7253 3.26435 1.16795 0
M  V30 649 C 62.7863 4.26998 0.443944 0
M  V30 650 C 62.0193 5.14986 1.40088 0
M  V30 651 O 62.2423 5.05785 2.637 0
M  V30 652 O 61.1763 5.94906 0.914917 0
M  V30 653 H 65.0023 2.98607 -0.55388 0
M  V30 654 H 62.5873 1.45554 -0.336821 0
M  V30 655 H 64.4693 3.83459 1.74748 0
M  V30 656 H 63.1443 2.64465 1.86655 0
M  V30 657 H 62.0513 3.7368 -0.177271 0
M  V30 658 H 63.3843 4.91736 -0.213566 0
M  V30 659 N 65.0364 0.313813 1.54444 0
M  V30 660 C 65.9844 -0.572171 2.25453 0
M  V30 661 C 66.9784 -1.12657 1.2651 0
M  V30 662 O 68.1844 -1.07573 1.44319 0
M  V30 663 H 64.5594 -0.203146 0.724041 0
M  V30 664 H 66.5304 0.0491145 2.9836 0
M  V30 665 C 65.2794 -1.72626 3.0182 0
M  V30 666 H 64.6024 -1.30891 3.77767 0
M  V30 667 H 66.0424 -2.32199 3.54767 0
M  V30 668 C 64.5014 -2.63806 2.09542 0
M  V30 669 O 65.0314 -3.65256 1.67185 0
M  V30 670 N 63.2374 -2.31824 1.75232 0
M  V30 671 H 62.7844 -1.49368 2.09873 0
M  V30 672 H 62.7424 -2.93095 1.13767 0
M  V30 673 N 66.5145 -1.57545 0.0417849 0
M  V30 674 C 67.7625 -1.91937 -0.632829 0
M  V30 675 C 68.0835 -0.919978 -1.71934 0
M  V30 676 O 67.3535 0.0366064 -1.95866 0
M  V30 677 H 65.9335 -0.708493 -0.236742 0
M  V30 678 H 68.5955 -1.9468 0.0925745 0
M  V30 679 H 67.6915 -2.92912 -1.07746 0
M  V30 680 N 67.9926 0.231505 -1.5589 0
M  V30 681 C 69.2396 0.957352 -1.78441 0
M  V30 682 C 69.5676 1.84726 -0.60882 0
M  V30 683 O 68.8226 1.91416 0.40725 0
M  V30 684 C 69.1216 1.83577 -3.0665 0
M  V30 685 C 68.7876 1.09993 -4.37278 0
M  V30 686 C 67.4496 0.896629 -4.72773 0
M  V30 687 C 69.8016 0.579558 -5.17968 0
M  V30 688 C 67.1296 0.160896 -5.86479 0
M  V30 689 C 69.4816 -0.142783 -6.32439 0
M  V30 690 C 68.1456 -0.357427 -6.66542 0
M  V30 691 H 67.4156 0.35032 -0.65296 0
M  V30 692 H 70.0626 0.226259 -1.90159 0
M  V30 693 H 68.3676 2.63441 -2.90011 0
M  V30 694 H 70.0646 2.39934 -3.21298 0
M  V30 695 H 66.6546 1.26835 -4.09403 0
M  V30 696 H 70.8386 0.724125 -4.90989 0
M  V30 697 H 66.0946 -0.0157293 -6.11398 0
M  V30 698 H 70.2686 -0.553559 -6.94196 0
M  V30 699 H 67.8956 -0.929466 -7.54497 0
M  V30 700 N 69.4707 1.49531 0.497807 0
M  V30 701 C 70.4187 1.66926 1.61983 0
M  V30 702 C 71.4127 0.535167 1.60724 0
M  V30 703 O 72.6187 0.714896 1.65195 0
M  V30 704 H 68.9937 0.526415 0.537021 0
M  V30 705 H 70.9647 2.61098 1.44465 0
M  V30 706 C 69.7137 1.75602 3.00099 0
M  V30 707 H 69.0367 2.62244 3.01775 0
M  V30 708 H 70.4767 1.91807 3.78135 0
M  V30 709 C 68.9357 0.501543 3.33146 0
M  V30 710 O 69.4657 -0.371342 3.9998 0
M  V30 711 N 67.6717 0.363531 2.88317 0
M  V30 712 H 67.2187 1.07485 2.34104 0
M  V30 713 H 67.1767 -0.474728 3.10795 0
M  V30 714 N 70.9488 -0.749086 1.3866 0
M  V30 715 C 72.1948 -1.51056 1.35314 0
M  V30 716 C 72.5278 -1.94121 -0.0553751 0
M  V30 717 O 71.8028 -1.65763 -1.01749 0
M  V30 718 C 72.0858 -2.76003 2.31288 0
M  V30 719 C 71.9388 -2.39047 3.8102 0
M  V30 720 C 73.2578 -3.78046 2.2532 0
M  V30 721 H 70.3768 -0.547972 0.492844 0
M  V30 722 H 73.0188 -0.857628 1.69543 0
M  V30 723 H 71.1688 -3.31716 2.02229 0
M  V30 724 H 72.8408 -1.89074 4.20771 0
M  V30 725 H 71.0838 -1.71449 3.98482 0
M  V30 726 H 71.7548 -3.28462 4.4364 0
M  V30 727 H 74.2308 -3.31884 2.50983 0
M  V30 728 H 73.1068 -4.63159 2.94576 0
M  V30 729 H 73.3678 -4.23957 1.25352 0
M  V30 730 N 72.4269 -1.23603 -0.977757 0
M  V30 731 C 73.6549 -1.09646 -1.75458 0
M  V30 732 C 74.0699 0.351859 -1.85492 0
M  V30 733 O 73.4269 1.24327 -1.336 0
M  V30 734 C 73.4779 -1.71895 -3.18016 0
M  V30 735 O 73.1989 -3.11063 -3.08498 0
M  V30 736 C 74.6999 -1.63415 -4.12081 0
M  V30 737 H 71.9199 -0.38359 -0.550545 0
M  V30 738 H 74.4639 -1.63507 -1.22824 0
M  V30 739 H 72.6189 -1.22061 -3.67668 0
M  V30 740 H 73.0329 -3.41305 -3.9826 0
M  V30 741 H 74.5069 -2.11669 -5.09804 0
M  V30 742 H 74.9839 -0.593462 -4.35172 0
M  V30 743 H 75.5899 -2.12628 -3.68334 0
M  V30 744 N 73.905 1.17692 -1.04816 0
M  V30 745 C 75.153 1.87488 -0.754497 0
M  V30 746 C 75.474 1.81205 0.720407 0
M  V30 747 O 74.744 1.23544 1.52032 0
M  V30 748 H 73.324 0.694101 -0.276102 0
M  V30 749 H 75.986 1.42793 -1.32651 0
M  V30 750 H 75.082 2.93328 -1.06606 0
M  V30 751 N 75.3831 0.828654 1.34056 0
M  V30 752 C 76.3301 0.252567 2.29414 0
M  V30 753 C 77.3001 -0.62588 1.53857 0
M  V30 754 O 78.4851 -0.566312 1.82202 0
M  V30 755 C 75.6251 -0.574831 3.40279 0
M  V30 756 C 74.7381 0.326499 4.30764 0
M  V30 757 C 73.8731 -0.511016 5.28736 0
M  V30 758 C 72.9121 0.389342 6.1086 0
M  V30 759 N 72.0491 -0.409439 7.00905 0
M  V30 760 H 76.8891 1.07108 2.78086 0
M  V30 761 H 74.4261 0.539677 1.36843 0
M  V30 762 H 76.3841 -1.06992 4.03248 0
M  V30 763 H 75.0141 -1.35841 2.92826 0
M  V30 764 H 74.0661 0.939837 3.68607 0
M  V30 765 H 75.3781 1.01857 4.88289 0
M  V30 766 H 74.5321 -1.07035 5.97184 0
M  V30 767 H 73.2711 -1.23657 4.71763 0
M  V30 768 H 72.2761 0.960769 5.4134 0
M  V30 769 H 73.5011 1.1131 6.69916 0
M  V30 770 H 71.4471 -1.11856 6.46393 0
M  V30 771 H 71.3641 0.224126 7.55668 0
M  V30 772 H 72.6321 -0.951336 7.73673 0
M  V30 773 N 76.8612 -1.46375 0.584142 0
M  V30 774 C 78.1102 -2.01585 0.0679741 0
M  V30 775 C 78.4232 -1.46109 -1.30045 0
M  V30 776 O 79.6292 -1.93148 -1.90804 0
M  V30 777 C 78.0852 -3.5983 0.0709207 0
M  V30 778 C 77.6932 -4.24303 1.43775 0
M  V30 779 C 79.4372 -4.22693 -0.391228 0
M  V30 780 C 77.3442 -5.74631 1.39834 0
M  V30 781 H 76.2742 -0.753689 0.0216421 0
M  V30 782 H 78.9252 -1.68093 0.736001 0
M  V30 783 H 77.3072 -3.90405 -0.663299 0
M  V30 784 H 78.4812 -4.05335 2.19181 0
M  V30 785 H 76.7962 -3.73539 1.84004 0
M  V30 786 H 79.3932 -5.3289 -0.439524 0
M  V30 787 H 79.7362 -3.91728 -1.40906 0
M  V30 788 H 80.2692 -3.96749 0.288974 0
M  V30 789 H 77.0082 -6.10258 2.39303 0
M  V30 790 H 76.5282 -5.95858 0.686505 0
M  V30 791 H 78.2072 -6.37375 1.11187 0
M  V30 792 N 78.3393 -0.321999 -1.54275 0
M  V30 793 C 79.2723 0.58718 -2.20516 0
M  V30 794 C 80.2503 1.11693 -1.18167 0
M  V30 795 O 81.4343 1.18122 -1.46899 0
M  V30 796 C 78.5613 1.80554 -2.86562 0
M  V30 797 C 77.6073 1.40718 -4.02617 0
M  V30 798 S 78.4403 0.445218 -5.33646 0
M  V30 799 C 79.5963 1.6709 -6.03185 0
M  V30 800 H 79.8293 0.0244875 -2.9729 0
M  V30 801 H 77.3623 -0.106087 -1.54035 0
M  V30 802 H 79.3203 2.50462 -3.25237 0
M  V30 803 H 77.9813 2.33942 -2.09595 0
M  V30 804 H 77.1743 2.31501 -4.47687 0
M  V30 805 H 76.7763 0.78782 -3.65608 0
M  V30 806 H 79.0683 2.60856 -6.25268 0
M  V30 807 H 80.0113 1.26239 -6.96756 0
M  V30 808 H 80.4193 1.85716 -5.33076 0
M  V30 809 N 79.8174 1.5752 -0.0501392 0
M  V30 810 C 81.0574 1.94521 0.627783 0
M  V30 811 C 81.4214 0.928265 1.68069 0
M  V30 812 O 82.6224 1.18517 2.41261 0
M  V30 813 C 80.8934 3.36319 1.20932 0
M  V30 814 S 82.4524 3.95272 1.90539 0
M  V30 815 H 79.2704 0.680456 0.206158 0
M  V30 816 H 81.8724 1.95139 -0.118829 0
M  V30 817 H 80.5764 4.08132 0.430865 0
M  V30 818 H 80.1074 3.39193 1.99277 0
M  V30 819 H 82.1224 3.80415 3.18589 0
M  V30 820 N 81.2955 -0.223234 1.56011 0
M  V30 821 C 82.2255 -1.27988 1.95298 0
M  V30 822 C 83.2065 -1.48976 0.820979 0
M  V30 823 O 84.3915 -1.61188 1.08315 0
M  V30 824 C 81.5215 -2.63 2.26822 0
M  V30 825 C 80.4755 -2.56671 3.42497 0
M  V30 826 C 79.8015 -3.95697 3.59622 0
M  V30 827 C 81.1015 -2.11601 4.77517 0
M  V30 828 H 82.7955 -0.953525 2.8381 0
M  V30 829 H 80.3415 -0.457244 1.36548 0
M  V30 830 H 82.2945 -3.37077 2.52898 0
M  V30 831 H 81.0185 -2.9732 1.35161 0
M  V30 832 H 79.6775 -1.85051 3.16467 0
M  V30 833 H 79.3255 -4.27322 2.6534 0
M  V30 834 H 79.0255 -3.92345 4.37424 0
M  V30 835 H 80.5495 -4.71438 3.88044 0
M  V30 836 H 81.9635 -2.7542 5.02809 0
M  V30 837 H 80.3605 -2.19311 5.5859 0
M  V30 838 H 81.4305 -1.06824 4.72987 0
M  V30 839 N 82.7736 -1.49793 -0.48987 0
M  V30 840 C 83.7066 -1.61898 -1.60823 0
M  V30 841 C 84.6846 -0.467651 -1.5573 0
M  V30 842 O 85.8686 -0.684682 -1.75626 0
M  V30 843 C 82.9956 -1.58422 -2.99366 0
M  V30 844 C 82.0416 -2.78889 -3.22682 0
M  V30 845 S 82.8746 -4.40429 -3.04602 0
M  V30 846 C 84.0306 -4.39617 -4.4552 0
M  V30 847 H 84.2636 -2.56502 -1.50312 0
M  V30 848 H 81.7966 -1.38822 -0.675849 0
M  V30 849 H 83.7546 -1.57103 -3.79248 0
M  V30 850 H 82.4156 -0.650866 -3.07283 0
M  V30 851 H 81.6086 -2.72708 -4.23847 0
M  V30 852 H 81.2106 -2.77678 -2.50541 0
M  V30 853 H 83.5026 -4.12022 -5.37814 0
M  V30 854 H 84.4456 -5.41097 -4.56749 0
M  V30 855 H 84.8536 -3.69554 -4.2672 0
M  V30 856 N 84.2517 0.741722 -1.39055 0
M  V30 857 C 85.2017 1.84661 -1.33732 0
M  V30 858 C 86.1857 1.59397 -0.219401 0
M  V30 859 O 87.3777 1.71015 -0.456375 0
M  V30 860 C 84.5067 3.22512 -1.17647 0
M  V30 861 C 83.5927 3.53628 -2.34112 0
M  V30 862 N 83.9837 3.55723 -3.59576 0
M  V30 863 C 82.2817 3.83956 -2.26923 0
M  V30 864 C 82.9827 3.84443 -4.36553 0
M  V30 865 N 81.9587 4.01877 -3.66055 0
M  V30 866 H 85.7607 1.84576 -2.28711 0
M  V30 867 H 83.2747 0.939647 -1.32455 0
M  V30 868 H 85.2717 4.01597 -1.11917 0
M  V30 869 H 83.9317 3.2384 -0.236124 0
M  V30 870 H 84.9427 3.37196 -3.93089 0
M  V30 871 H 81.6197 3.92929 -1.41113 0
M  V30 872 H 83.0097 3.92588 -5.45274 0
M  V30 873 N 85.7298 1.2412 0.971189 0
M  V30 874 C 86.6778 1.02812 2.08644 0
M  V30 875 C 87.6718 -0.0358403 1.69362 0
M  V30 876 O 88.8778 0.118429 1.7961 0
M  V30 877 H 85.2528 0.315428 0.682649 0
M  V30 878 H 87.2238 1.97397 2.23779 0
M  V30 879 C 85.9728 0.645874 3.41649 0
M  V30 880 H 85.2958 1.45632 3.72332 0
M  V30 881 H 86.7358 0.536366 4.20594 0
M  V30 882 C 85.1948 -0.646713 3.30635 0
M  V30 883 O 85.7248 -1.69338 3.64263 0
M  V30 884 N 83.9308 -0.626115 2.83775 0
M  V30 885 H 83.4778 0.225988 2.56607 0
M  V30 886 H 83.4358 -1.49117 2.76788 0
M  V30 887 N 87.2079 -1.17134 1.05439 0
M  V30 888 C 88.1559 -2.23289 0.651511 0
M  V30 889 C 89.1499 -1.66186 -0.328411 0
M  V30 890 O 90.3559 -1.78949 -0.194206 0
M  V30 891 H 86.7309 -0.726938 0.192523 0
M  V30 892 H 88.7019 -2.54565 1.55689 0
M  V30 893 C 87.4509 -3.47671 0.0448436 0
M  V30 894 H 86.7739 -3.91918 0.78996 0
M  V30 895 H 88.2139 -4.2353 -0.19964 0
M  V30 896 C 86.6729 -3.14453 -1.20918 0
M  V30 897 O 87.2029 -3.29459 -2.29825 0
M  V30 898 N 85.4089 -2.68657 -1.10779 0
M  V30 899 H 84.9559 -2.56646 -0.221526 0
M  V30 900 H 84.9139 -2.46804 -1.9477 0
M  V30 901 N 88.686 -0.835752 -1.33615 0
M  V30 902 C 89.619 -0.211815 -2.27215 0
M  V30 903 C 90.597 0.639249 -1.49507 0
M  V30 904 O 91.781 0.600193 -1.78689 0
M  V30 905 C 88.908 0.702893 -3.31326 0
M  V30 906 C 87.954 -0.0723049 -4.26439 0
M  V30 907 S 88.787 -1.42811 -5.16106 0
M  V30 908 C 89.943 -0.518613 -6.23748 0
M  V30 909 H 90.176 -1.00533 -2.79786 0
M  V30 910 H 87.709 -0.632336 -1.40858 0
M  V30 911 H 89.667 1.22505 -3.91794 0
M  V30 912 H 88.328 1.47004 -2.77576 0
M  V30 913 H 87.521 0.62359 -5.00127 0
M  V30 914 H 87.123 -0.525424 -3.70291 0
M  V30 915 H 89.415 0.284778 -6.76901 0
M  V30 916 H 90.358 -1.22556 -6.97413 0
M  V30 917 H 90.766 -0.101344 -5.64409 0
M  V30 918 N 90.1641 1.46063 -0.591896 0
M  V30 919 C 91.1121 2.32124 0.148739 0
M  V30 920 C 92.1061 1.45035 0.875286 0
M  V30 921 O 93.3121 1.61609 0.792632 0
M  V30 922 H 89.6871 0.749024 0.066832 0
M  V30 923 H 91.6581 2.92392 -0.595783 0
M  V30 924 C 90.4071 3.28373 1.1431 0
M  V30 925 H 89.7301 3.95371 0.59346 0
M  V30 926 H 91.1701 3.91352 1.63155 0
M  V30 927 C 89.6291 2.54393 2.20875 0
M  V30 928 O 90.1591 2.31373 3.28374 0
M  V30 929 N 88.3651 2.14797 1.95731 0
M  V30 930 H 87.9121 2.33719 1.08319 0
M  V30 931 H 87.8701 1.65619 2.67241 0
M  V30 932 N 91.6422 0.330177 1.54103 0
M  V30 933 C 92.5722 -0.525353 2.27513 0
M  V30 934 C 93.5532 -1.11383 1.2856 0
M  V30 935 O 94.7382 -1.13773 1.57383 0
M  V30 936 C 91.8682 -1.6831 3.03791 0
M  V30 937 C 90.8222 -1.2236 4.10137 0
M  V30 938 C 90.1482 -2.46882 4.74293 0
M  V30 939 C 91.4482 -0.333697 5.21233 0
M  V30 940 H 93.1422 0.087013 2.99274 0
M  V30 941 H 90.6882 0.0432893 1.43935 0
M  V30 942 H 92.6412 -2.28795 3.5388 0
M  V30 943 H 91.3652 -2.32216 2.29659 0
M  V30 944 H 90.0242 -0.64165 3.60941 0
M  V30 945 H 89.6722 -3.09165 3.96769 0
M  V30 946 H 89.3722 -2.16825 5.46133 0
M  V30 947 H 90.8962 -3.08117 5.27159 0
M  V30 948 H 92.3102 -0.845013 5.67038 0
M  V30 949 H 90.7072 -0.125612 5.99969 0
M  V30 950 H 91.7772 0.633724 4.80741 0
M  V30 951 N 93.1203 -1.57491 0.0584922 0
M  V30 952 C 94.5313 -1.80526 -0.476138 0
M  V30 953 C 94.8823 -0.971334 -1.70469 0
M  V30 954 O 94.0073 -0.190012 -2.15564 0
M  V30 955 C 94.6023 -3.27424 -0.870587 0
M  V30 956 C 93.1613 -3.51351 -1.35015 0
M  V30 957 C 92.3083 -2.75343 -0.32887 0
M  V30 958 H 95.2593 -1.56133 0.284312 0
M  V30 959 H 95.2803 -3.38745 -1.73299 0
M  V30 960 H 94.7923 -3.88093 0.0237627 0
M  V30 961 H 92.8933 -2.95971 -2.26345 0
M  V30 962 H 93.0063 -4.60059 -1.33726 0
M  V30 963 H 91.3703 -2.417 -0.803321 0
M  V30 964 H 92.1533 -3.38743 0.557521 0
M  V30 965 N 94.5984 0.214957 -1.56127 0
M  V30 966 C 95.5284 1.2695 -1.95974 0
M  V30 967 C 96.5094 1.48539 -0.828868 0
M  V30 968 O 97.6944 1.60611 -1.09168 0
M  V30 969 C 94.8244 2.61794 -2.28214 0
M  V30 970 C 93.7784 2.54851 -3.43853 0
M  V30 971 C 93.1044 3.93785 -3.61715 0
M  V30 972 C 94.4044 2.09065 -4.78632 0
M  V30 973 H 96.0984 0.93846 -2.84312 0
M  V30 974 H 93.6444 0.449996 -1.36788 0
M  V30 975 H 95.5974 3.35731 -2.54682 0
M  V30 976 H 94.3214 2.96599 -1.36736 0
M  V30 977 H 92.9804 1.8337 -3.17444 0
M  V30 978 H 92.6284 4.25908 -2.67602 0
M  V30 979 H 92.3284 3.90019 -4.39498 0
M  V30 980 H 93.8524 4.69374 -3.90539 0
M  V30 981 H 95.2664 2.7275 -5.04262 0
M  V30 982 H 93.6634 2.16346 -5.59745 0
M  V30 983 H 94.7334 1.04315 -4.73547 0
M  V30 984 N 96.0765 1.50051 0.48192 0
M  V30 985 C 97.3235 1.60498 1.23477 0
M  V30 986 C 97.6515 0.300331 1.92167 0
M  V30 987 O 96.9065 -0.713094 1.82246 0
M  V30 988 C 97.2055 2.72717 2.30998 0
M  V30 989 C 96.8715 4.13572 1.79636 0
M  V30 990 C 95.5335 4.519 1.65348 0
M  V30 991 C 97.8855 5.01649 1.41412 0
M  V30 992 C 95.2135 5.76057 1.11244 0
M  V30 993 C 97.5655 6.26343 0.887538 0
M  V30 994 C 96.2295 6.63483 0.731207 0
M  V30 995 H 95.4995 0.587303 0.451836 0
M  V30 996 H 98.1465 1.83948 0.532468 0
M  V30 997 H 96.4515 2.43312 3.07094 0
M  V30 998 H 98.1485 2.78006 2.88988 0
M  V30 999 H 94.7385 3.83329 1.91721 0
M  V30 1000 H 98.9225 4.72679 1.51289 0
M  V30 1001 H 94.1785 6.03516 0.978686 0
M  V30 1002 H 98.3525 6.93958 0.582654 0
M  V30 1003 H 95.9795 7.59568 0.309806 0
M  V30 1004 N 97.5546 -0.734337 1.39446 0
M  V30 1005 C 98.9656 -1.31264 1.32766 0
M  V30 1006 C 99.3166 -1.96198 -0.00767497 0
M  V30 1007 O 98.4416 -1.96346 -0.909796 0
M  V30 1008 C 99.0366 -2.38682 2.4045 0
M  V30 1009 C 97.5956 -2.92184 2.37288 0
M  V30 1010 C 96.7426 -1.6576 2.22304 0
M  V30 1011 H 99.6936 -0.531799 1.49525 0
M  V30 1012 H 99.7146 -3.19087 2.07276 0
M  V30 1013 H 99.2266 -1.91392 3.37625 0
M  V30 1014 H 97.3276 -3.43752 1.43754 0
M  V30 1015 H 97.4406 -3.45253 3.3217 0
M  V30 1016 H 95.8046 -1.9012 1.69489 0
M  V30 1017 H 96.5876 -1.20521 3.21449 0
M  V30 1018 N 99.0327 -1.24633 -0.964593 0
M  V30 1019 C 100.282 -1.08188 -1.7023 0
M  V30 1020 C 100.595 0.37873 -1.91898 0
M  V30 1021 O 101.801 0.663427 -2.6327 0
M  V30 1022 C 100.257 -1.88773 -3.06419 0
M  V30 1023 C 99.8647 -3.39263 -2.92582 0
M  V30 1024 C 101.609 -1.80867 -3.84041 0
M  V30 1025 C 99.5157 -4.1218 -4.24101 0
M  V30 1026 H 98.4457 -0.401245 -0.638372 0
M  V30 1027 H 101.097 -1.48742 -1.07462 0
M  V30 1028 H 99.4787 -1.41035 -3.70034 0
M  V30 1029 H 100.653 -3.94603 -2.37961 0
M  V30 1030 H 98.9677 -3.48154 -2.28424 0
M  V30 1031 H 101.565 -2.32646 -4.81435 0
M  V30 1032 H 101.908 -0.774543 -4.09031 0
M  V30 1033 H 102.441 -2.26301 -3.27159 0
M  V30 1034 H 99.1797 -5.15965 -4.04303 0
M  V30 1035 H 98.6997 -3.61626 -4.78526 0
M  V30 1036 H 100.379 -4.19349 -4.92702 0
M  V30 1037 N 100.511 1.16574 -1.06058 0
M  V30 1038 C 101.759 1.86677 -0.77434 0
M  V30 1039 C 102.08 1.81959 0.701147 0
M  V30 1040 O 101.35 1.2515 1.50713 0
M  V30 1041 H 99.9298 0.691134 -0.283449 0
M  V30 1042 H 102.592 1.41378 -1.34158 0
M  V30 1043 H 101.688 2.92181 -1.09711 0
M  V30 1044 N 101.989 0.842826 1.3317 0
M  V30 1045 C 102.936 0.276885 2.29133 0
M  V30 1046 C 103.906 -0.609527 1.54512 0
M  V30 1047 O 105.091 -0.546955 1.82792 0
M  V30 1048 C 102.231 -0.538707 3.40869 0
M  V30 1049 C 101.344 0.372169 4.30394 0
M  V30 1050 C 100.479 -0.454908 5.29249 0
M  V30 1051 C 99.5179 0.45411 6.10413 0
M  V30 1052 N 98.6549 -0.335075 7.013 0
M  V30 1053 H 103.495 1.10052 2.76934 0
M  V30 1054 H 101.032 0.554161 1.36262 0
M  V30 1055 H 102.99 -1.02709 4.0436 0
M  V30 1056 H 101.62 -1.32727 2.9425 0
M  V30 1057 H 100.672 0.97888 3.6759 0
M  V30 1058 H 101.984 1.0703 4.87182 0
M  V30 1059 H 101.138 -1.00695 5.98285 0
M  V30 1060 H 99.8769 -1.18646 4.73048 0
M  V30 1061 H 98.8819 1.01813 5.40291 0
M  V30 1062 H 100.107 1.18409 6.68697 0
M  V30 1063 H 98.0529 -1.04994 6.47543 0
M  V30 1064 H 97.9699 0.304262 7.55387 0
M  V30 1065 H 99.2379 -0.869224 7.74638 0
M  V30 1066 N 103.467 -1.45747 0.599634 0
M  V30 1067 C 104.692 -2.07178 0.0960198 0
M  V30 1068 C 105.117 -1.44268 -1.207 0
M  V30 1069 O 104.475 -0.532503 -1.73303 0
M  V30 1070 C 104.523 -3.60579 -0.0385348 0
M  V30 1071 O 103.627 -3.97713 -1.0908 0
M  V30 1072 H 102.968 -0.660251 0.0704593 0
M  V30 1073 H 105.498 -1.87124 0.827385 0
M  V30 1074 H 105.508 -4.07298 -0.239304 0
M  V30 1075 H 104.183 -4.05756 0.912947 0
M  V30 1076 H 102.76 -3.62678 -0.867135 0
M  V30 1077 N 104.945 -0.338344 -1.53925 0
M  V30 1078 C 105.908 0.508299 -2.23493 0
M  V30 1079 C 106.908 1.03175 -1.23335 0
M  V30 1080 O 108.098 0.921826 -1.47811 0
M  V30 1081 C 105.23 1.70754 -2.95052 0
M  V30 1082 H 106.423 -0.100058 -2.99733 0
M  V30 1083 H 103.976 -0.0896198 -1.56043 0
M  V30 1084 H 104.711 2.35474 -2.22986 0
M  V30 1085 H 104.496 1.33946 -3.68512 0
M  V30 1086 H 105.986 2.30818 -3.48013 0
M  V30 1087 N 106.423 1.57458 -0.0668435 0
M  V30 1088 C 107.386 2.11323 0.887422 0
M  V30 1089 C 108.386 1.03618 1.22964 0
M  V30 1090 O 109.576 1.29626 1.16373 0
M  V30 1091 C 106.708 2.61048 2.19242 0
M  V30 1092 H 107.901 2.96942 0.420194 0
M  V30 1093 H 105.454 1.55239 0.181793 0
M  V30 1094 H 106.189 1.78868 2.70512 0
M  V30 1095 H 105.974 3.39769 1.95702 0
M  V30 1096 H 107.464 3.02814 2.87565 0
M  V30 1097 N 107.901 -0.206675 1.56239 0
M  V30 1098 C 109.129 -0.945345 1.8404 0
M  V30 1099 C 109.544 -1.77336 0.647885 0
M  V30 1100 O 108.901 -1.78425 -0.383511 0
M  V30 1101 C 108.952 -1.8509 3.10522 0
M  V30 1102 O 108.673 -1.05634 4.25174 0
M  V30 1103 C 110.174 -2.70222 3.51418 0
M  V30 1104 H 107.394 -0.276372 0.61144 0
M  V30 1105 H 109.938 -0.217417 2.03341 0
M  V30 1106 H 108.093 -2.53259 2.93153 0
M  V30 1107 H 108.507 -1.67238 4.97124 0
M  V30 1108 H 109.981 -3.29438 4.42916 0
M  V30 1109 H 110.458 -3.43358 2.73864 0
M  V30 1110 H 111.064 -2.07443 3.71278 0
M  V30 1111 N 109.379 -1.50304 -0.473955 0
M  V30 1112 C 110.342 -1.6841 -1.55469 0
M  V30 1113 C 111.342 -0.554905 -1.50922 0
M  V30 1114 O 112.532 -0.821882 -1.53593 0
M  V30 1115 C 109.664 -1.70667 -2.95102 0
M  V30 1116 H 110.857 -2.64828 -1.40733 0
M  V30 1117 H 108.41 -1.39742 -0.700132 0
M  V30 1118 H 109.145 -0.75932 -3.15285 0
M  V30 1119 H 108.93 -2.52698 -2.9981 0
M  V30 1120 H 110.42 -1.8664 -3.73571 0
M  V30 1121 N 110.857 0.726932 -1.39834 0
M  V30 1122 C 112.103 1.48884 -1.377 0
M  V30 1123 C 112.436 1.94185 0.0244852 0
M  V30 1124 O 111.711 1.67361 0.990986 0
M  V30 1125 C 111.994 2.72288 -2.3565 0
M  V30 1126 C 111.847 2.32956 -3.84775 0
M  V30 1127 C 113.166 3.74414 -2.31306 0
M  V30 1128 H 110.285 0.540062 -0.5015 0
M  V30 1129 H 112.927 0.830547 -1.70886 0
M  V30 1130 H 111.077 3.28457 -2.07481 0
M  V30 1131 H 112.749 1.82356 -4.23726 0
M  V30 1132 H 110.992 1.65088 -4.01159 0
M  V30 1133 H 111.663 3.21362 -4.4881 0
M  V30 1134 H 114.139 3.27849 -2.56231 0
M  V30 1135 H 113.015 4.58414 -3.01907 0
M  V30 1136 H 113.276 4.21909 -1.32081 0
M  V30 1137 N 112.336 1.25143 0.95797 0
M  V30 1138 C 113.284 1.05019 2.07542 0
M  V30 1139 C 114.278 -0.0178751 1.69391 0
M  V30 1140 O 115.484 0.137472 1.79474 0
M  V30 1141 H 111.859 0.32265 0.679265 0
M  V30 1142 H 113.83 1.99759 2.21673 0
M  V30 1143 C 112.579 0.682074 3.40944 0
M  V30 1144 H 111.902 1.49573 3.70767 0
M  V30 1145 H 113.342 0.580945 4.20001 0
M  V30 1146 C 111.801 -0.611608 3.31302 0
M  V30 1147 O 112.331 -1.65465 3.66038 0
M  V30 1148 N 110.537 -0.595982 2.84423 0
M  V30 1149 H 110.084 0.253192 2.56353 0
M  V30 1150 H 110.042 -1.46173 2.78354 0
M  V30 1151 N 113.814 -1.1601 1.06675 0
M  V30 1152 C 115.225 -1.68235 0.809565 0
M  V30 1153 C 115.576 -1.8454 -0.666303 0
M  V30 1154 O 114.701 -1.54374 -1.5165 0
M  V30 1155 C 115.296 -3.05585 1.46299 0
M  V30 1156 C 113.855 -3.54915 1.25349 0
M  V30 1157 C 113.002 -2.30804 1.53703 0
M  V30 1158 H 115.953 -1.00318 1.22971 0
M  V30 1159 H 115.974 -3.70174 0.880431 0
M  V30 1160 H 115.486 -2.93686 2.53713 0
M  V30 1161 H 113.587 -3.72067 0.199261 0
M  V30 1162 H 113.7 -4.36774 1.9689 0
M  V30 1163 H 112.064 -2.36007 0.957739 0
M  V30 1164 H 112.847 -2.21499 2.62284 0
M  V30 1165 N 115.292 -0.849877 -1.32721 0
M  V30 1166 C 116.539 -0.450923 -1.97416 0
M  V30 1167 C 116.867 0.992376 -1.67279 0
M  V30 1168 O 116.122 1.71048 -0.950845 0
M  V30 1169 C 116.421 -0.631272 -3.51781 0
M  V30 1170 C 116.087 -2.04432 -4.01894 0
M  V30 1171 C 114.749 -2.4308 -4.1529 0
M  V30 1172 C 117.101 -2.96679 -4.28522 0
M  V30 1173 C 114.429 -3.73257 -4.52654 0
M  V30 1174 C 116.781 -4.26349 -4.67343 0
M  V30 1175 C 115.445 -4.64939 -4.78945 0
M  V30 1176 H 114.715 -0.165004 -0.722395 0
M  V30 1177 H 117.362 -1.07901 -1.58207 0
M  V30 1178 H 115.667 0.0800767 -3.91718 0
M  V30 1179 H 117.364 -0.302709 -3.99856 0
M  V30 1180 H 113.954 -1.73419 -3.91949 0
M  V30 1181 H 118.138 -2.68054 -4.17685 0
M  V30 1182 H 113.394 -4.02946 -4.59831 0
M  V30 1183 H 117.568 -4.97895 -4.86902 0
M  V30 1184 H 115.195 -5.65855 -5.07654 0
M  V30 1185 N 116.77 1.45427 -0.607355 0
M  V30 1186 C 118.181 1.85756 -0.187535 0
M  V30 1187 C 118.532 1.5077 1.25551 0
M  V30 1188 O 117.657 0.93427 1.95193 0
M  V30 1189 C 118.252 3.37154 -0.333572 0
M  V30 1190 C 116.811 3.76387 0.0315542 0
M  V30 1191 C 115.958 2.69377 -0.658117 0
M  V30 1192 H 118.909 1.36231 -0.81405 0
M  V30 1193 H 118.93 3.78014 0.43428 0
M  V30 1194 H 118.442 3.62586 -1.38393 0
M  V30 1195 H 116.543 3.56571 1.0811 0
M  V30 1196 H 116.656 4.77731 -0.361935 0
M  V30 1197 H 115.02 2.5452 -0.0957873 0
M  V30 1198 H 115.803 2.97646 -1.7106 0
M  V30 1199 N 118.248 0.346503 1.53744 0
M  V30 1200 C 119.195 -0.508914 2.25119 0
M  V30 1201 C 120.165 -1.09315 1.25058 0
M  V30 1202 O 121.35 -1.12921 1.53797 0
M  V30 1203 C 118.49 -1.65246 3.02965 0
M  V30 1204 C 117.603 -1.09525 4.17886 0
M  V30 1205 C 116.738 -2.20634 4.83212 0
M  V30 1206 C 115.777 -1.62279 5.90196 0
M  V30 1207 N 114.914 -2.67143 6.49291 0
M  V30 1208 H 119.754 0.106283 2.9781 0
M  V30 1209 H 117.291 0.0642227 1.4696 0
M  V30 1210 H 119.249 -2.32574 3.4636 0
M  V30 1211 H 117.879 -2.2386 2.32565 0
M  V30 1212 H 116.931 -0.312818 3.79112 0
M  V30 1213 H 118.243 -0.628444 4.94825 0
M  V30 1214 H 117.397 -2.95821 5.29693 0
M  V30 1215 H 116.136 -2.70659 4.05703 0
M  V30 1216 H 115.141 -0.855989 5.43096 0
M  V30 1217 H 116.366 -1.13102 6.69615 0
M  V30 1218 H 114.312 -3.16417 5.74645 0
M  V30 1219 H 114.229 -2.25093 7.21713 0
M  V30 1220 H 115.497 -3.4209 7.00425 0
M  V30 1221 N 119.726 -1.57421 0.075193 0
M  V30 1222 C 120.636 -2.1642 -0.905511 0
M  V30 1223 C 121.652 -1.12828 -1.32461 0
M  V30 1224 O 122.828 -1.45109 -1.39661 0
M  V30 1225 C 119.893 -2.71693 -2.15369 0
M  V30 1226 C 118.954 -3.90171 -1.79068 0
M  V30 1227 C 118.187 -4.42798 -2.97936 0
M  V30 1228 O 118.41 -3.94416 -4.12058 0
M  V30 1229 O 117.344 -5.34085 -2.77555 0
M  V30 1230 H 121.17 -3.00588 -0.433626 0
M  V30 1231 H 118.755 -1.48664 -0.148067 0
M  V30 1232 H 120.637 -3.07104 -2.88557 0
M  V30 1233 H 119.312 -1.90582 -2.61649 0
M  V30 1234 H 118.219 -3.59606 -1.03122 0
M  V30 1235 H 119.552 -4.72584 -1.37569 0
M  V30 1236 N 121.204 0.198386 -1.56346 0
M  V30 1237 C 122.45 0.916115 -1.81601 0
M  V30 1238 C 122.805 1.81025 -0.651744 0
M  V30 1239 O 122.098 1.88316 0.353229 0
M  V30 1240 C 122.292 1.77031 -3.10475 0
M  V30 1241 C 122.121 0.960365 -4.39326 0
M  V30 1242 C 120.891 0.646093 -5.01152 0
M  V30 1243 C 123.089 0.314628 -5.13337 0
M  V30 1244 N 121.071 -0.182828 -6.13628 0
M  V30 1245 C 122.442 -0.37664 -6.18855 0
M  V30 1246 C 124.497 0.230019 -4.97368 0
M  V30 1247 C 123.2 -1.14445 -7.10137 0
M  V30 1248 C 125.226 -0.524389 -5.89071 0
M  V30 1249 C 124.588 -1.20412 -6.94032 0
M  V30 1250 H 120.687 0.314732 -0.715868 0
M  V30 1251 H 123.271 0.185102 -1.93818 0
M  V30 1252 H 121.442 2.47295 -2.99499 0
M  V30 1253 H 123.174 2.42727 -3.2383 0
M  V30 1254 H 119.929 0.969724 -4.63566 0
M  V30 1255 H 120.353 -0.586802 -6.74452 0
M  V30 1256 H 124.995 0.741184 -4.16253 0
M  V30 1257 H 122.713 -1.66706 -7.90718 0
M  V30 1258 H 126.299 -0.591167 -5.78789 0
M  V30 1259 H 125.179 -1.77853 -7.63766 0
M  V30 1260 N 122.682 1.50554 0.465978 0
M  V30 1261 C 124.098 1.38093 0.800154 0
M  V30 1262 C 124.298 0.440988 1.96615 0
M  V30 1263 O 123.354 -0.114499 2.5224 0
M  V30 1264 C 124.667 2.79565 1.10742 0
M  V30 1265 C 126.215 2.88516 1.21357 0
M  V30 1266 C 126.69 4.30833 1.55393 0
M  V30 1267 N 128.181 4.33807 1.62375 0
M  V30 1268 C 128.916 5.40927 1.90225 0
M  V30 1269 N 128.412 6.58247 2.16062 0
M  V30 1270 N 130.205 5.28376 1.9177 0
M  V30 1271 H 122.356 2.10237 -0.302366 0
M  V30 1272 H 124.619 0.945203 -0.0727746 0
M  V30 1273 H 124.325 3.50208 0.323661 0
M  V30 1274 H 124.199 3.17125 2.04234 0
M  V30 1275 H 126.586 2.1809 1.98799 0
M  V30 1276 H 126.667 2.54492 0.258321 0
M  V30 1277 H 126.311 5.01799 0.784889 0
M  V30 1278 H 126.241 4.62347 2.52076 0
M  V30 1279 H 128.732 3.49212 1.44427 0
M  V30 1280 H 129.045 7.3569 2.36601 0
M  V30 1281 H 127.39 6.61413 2.13444 0
M  V30 1282 H 130.581 4.35715 1.71085 0
M  V30 1283 H 130.754 6.11944 2.13139 0
M  V30 1284 N 124.16 -0.719506 1.40217 0
M  V30 1285 C 125.4 -1.49181 1.39729 0
M  V30 1286 C 125.764 -1.92 -0.00250614 0
M  V30 1287 O 126.965 -2.68473 -0.132479 0
M  V30 1288 C 125.236 -2.68767 2.35582 0
M  V30 1289 S 126.795 -3.58224 2.53418 0
M  V30 1290 H 123.613 -0.510091 0.495307 0
M  V30 1291 H 126.215 -0.841724 1.76452 0
M  V30 1292 H 124.919 -2.35475 3.36124 0
M  V30 1293 H 124.45 -3.38691 2.0013 0
M  V30 1294 H 126.465 -4.63033 1.78367 0
M  V30 1295 N 125.638 -1.25649 -0.95132 0
M  V30 1296 C 126.568 -1.08808 -2.06599 0
M  V30 1297 C 127.549 0.00382547 -1.701 0
M  V30 1298 O 128.734 -0.166325 -1.93486 0
M  V30 1299 C 125.864 -0.709542 -3.39975 0
M  V30 1300 C 124.818 -1.75206 -3.90496 0
M  V30 1301 C 124.144 -1.22811 -5.20405 0
M  V30 1302 C 125.444 -3.15153 -4.16504 0
M  V30 1303 H 127.138 -2.02048 -2.20946 0
M  V30 1304 H 124.684 -0.972835 -1.06169 0
M  V30 1305 H 126.637 -0.578649 -4.17408 0
M  V30 1306 H 125.361 0.258556 -3.25575 0
M  V30 1307 H 124.02 -1.87145 -3.15234 0
M  V30 1308 H 123.668 -0.250145 -5.02378 0
M  V30 1309 H 123.368 -1.92492 -5.55176 0
M  V30 1310 H 124.892 -1.10968 -6.00432 0
M  V30 1311 H 126.306 -3.06349 -4.84586 0
M  V30 1312 H 124.703 -3.82333 -4.62538 0
M  V30 1313 H 125.773 -3.61966 -3.22658 0
M  V30 1314 N 127.117 1.15442 -1.07289 0
M  V30 1315 C 128.08 2.18358 -0.696591 0
M  V30 1316 C 129.08 1.58637 0.262837 0
M  V30 1317 O 130.27 1.74145 0.0438809 0
M  V30 1318 C 127.402 3.4089 -0.0266151 0
M  V30 1319 H 128.595 2.53162 -1.60776 0
M  V30 1320 H 126.148 1.29893 -0.869342 0
M  V30 1321 H 126.883 3.11653 0.896822 0
M  V30 1322 H 126.668 3.85495 -0.716657 0
M  V30 1323 H 128.158 4.17009 0.222028 0
M  V30 1324 N 128.595 0.856903 1.32268 0
M  V30 1325 C 129.542 0.301172 2.28827 0
M  V30 1326 C 130.512 -0.593104 1.5515 0
M  V30 1327 O 131.697 -0.527537 1.83362 0
M  V30 1328 C 128.837 -0.502523 3.41422 0
M  V30 1329 C 127.95 0.417797 4.29975 0
M  V30 1330 C 127.085 -0.398749 5.29701 0
M  V30 1331 C 126.124 0.518827 6.09897 0
M  V30 1332 N 125.261 -0.260674 7.01616 0
M  V30 1333 H 130.101 1.12983 2.75751 0
M  V30 1334 H 127.638 0.568582 1.35667 0
M  V30 1335 H 129.596 -0.984141 4.05426 0
M  V30 1336 H 128.226 -1.29599 2.95642 0
M  V30 1337 H 127.278 1.01781 3.66531 0
M  V30 1338 H 128.59 1.12191 4.86019 0
M  V30 1339 H 127.744 -0.943435 5.9932 0
M  V30 1340 H 126.483 -1.13622 4.7428 0
M  V30 1341 H 125.488 1.07538 5.39181 0
M  V30 1342 H 126.713 1.25495 6.67404 0
M  V30 1343 H 124.659 -0.981198 6.4862 0
M  V30 1344 H 124.576 0.384364 7.55022 0
M  V30 1345 H 125.844 -0.787014 7.75517 0
M  V30 1346 N 130.073 -1.45103 0.615059 0
M  V30 1347 C 131.021 -2.32331 -0.111791 0
M  V30 1348 C 132.015 -1.46409 -0.852102 0
M  V30 1349 O 133.221 -1.62849 -0.766821 0
M  V30 1350 H 129.596 -0.749993 -0.0549072 0
M  V30 1351 H 131.567 -2.91407 0.642225 0
M  V30 1352 C 130.316 -3.3015 -1.09071 0
M  V30 1353 H 129.639 -3.96265 -0.530485 0
M  V30 1354 H 131.079 -3.93898 -1.56908 0
M  V30 1355 C 129.538 -2.57875 -2.168 0
M  V30 1356 O 130.068 -2.36567 -3.24652 0
M  V30 1357 N 128.274 -2.17884 -1.92289 0
M  V30 1358 H 127.821 -2.35413 -1.04587 0
M  V30 1359 H 127.779 -1.6985 -2.64572 0
M  V30 1360 N 131.551 -0.354651 -1.53558 0
M  V30 1361 C 132.484 0.540273 -2.21712 0
M  V30 1362 C 133.462 1.09161 -1.2051 0
M  V30 1363 O 134.646 1.14979 -1.49372 0
M  V30 1364 C 131.773 1.74435 -2.90328 0
M  V30 1365 C 130.819 1.32146 -4.05512 0
M  V30 1366 S 131.652 0.331924 -5.3447 0
M  V30 1367 C 132.808 1.54258 -6.06593 0
M  V30 1368 H 133.041 -0.0385776 -2.97275 0
M  V30 1369 H 130.574 -0.138736 -1.53775 0
M  V30 1370 H 132.532 2.43507 -3.30476 0
M  V30 1371 H 131.193 2.29444 -2.1451 0
M  V30 1372 H 130.386 2.21952 -4.52497 0
M  V30 1373 H 129.988 0.710091 -3.67197 0
M  V30 1374 H 132.28 2.47534 -6.30661 0
M  V30 1375 H 133.223 1.11431 -6.99277 0
M  V30 1376 H 133.631 1.74367 -5.36895 0
M  V30 1377 N 133.029 1.57378 -0.0835403 0
M  V30 1378 C 134.306 1.85363 0.624507 0
M  V30 1379 C 134.686 0.978239 1.87066 0
M  V30 1380 O 134.034 0.0475908 2.2845 0
M  V30 1381 C 134.244 3.35795 0.950947 0
M  V30 1382 C 135.592 4.03581 1.31939 0
M  V30 1383 O 136.616 3.40609 1.04232 0
M  V30 1384 O 135.475 5.14672 1.83779 0
M  V30 1385 H 132.569 0.766162 0.311329 0
M  V30 1386 H 135.115 1.69307 -0.115362 0
M  V30 1387 H 133.887 3.91244 0.0663899 0
M  V30 1388 H 133.51 3.57154 1.74719 0
M  V30 1389 N 134.507 -0.190092 1.56449 0
M  V30 1390 C 135.784 -0.935886 1.71757 0
M  V30 1391 C 136.164 -2.01173 0.639726 0
M  V30 1392 O 135.512 -2.25827 -0.348502 0
M  V30 1393 C 135.722 -1.51775 3.1427 0
M  V30 1394 C 137.07 -1.99794 3.74656 0
M  V30 1395 O 138.094 -1.61607 3.1743 0
M  V30 1396 O 136.953 -2.70079 4.751 0
M  V30 1397 H 134.047 -0.439229 0.700719 0
M  V30 1398 H 136.593 -0.179395 1.68749 0
M  V30 1399 H 135.365 -0.742505 3.84191 0
M  V30 1400 H 134.988 -2.33894 3.21527 0
M  V30 1401 N 135.985 -1.50799 -0.457987 0
M  V30 1402 C 136.918 -1.65273 -1.57353 0
M  V30 1403 C 137.896 -0.500578 -1.54703 0
M  V30 1404 O 139.08 -0.721781 -1.74134 0
M  V30 1405 C 136.207 -1.64737 -2.95938 0
M  V30 1406 C 135.253 -2.8567 -3.16693 0
M  V30 1407 S 136.086 -4.46791 -2.95191 0
M  V30 1408 C 137.242 -4.48968 -4.36095 0
M  V30 1409 H 137.475 -2.59633 -1.44838 0
M  V30 1410 H 135.008 -1.40225 -0.64625 0
M  V30 1411 H 136.966 -1.65112 -3.7583 0
M  V30 1412 H 135.627 -0.715899 -3.05833 0
M  V30 1413 H 134.82 -2.81637 -4.17967 0
M  V30 1414 H 134.422 -2.8293 -2.44594 0
M  V30 1415 H 136.714 -4.23337 -5.28954 0
M  V30 1416 H 137.657 -5.50664 -4.45168 0
M  V30 1417 H 138.065 -3.78522 -4.18786 0
M  V30 1418 N 137.463 0.71206 -1.40597 0
M  V30 1419 C 138.874 1.29135 -1.34837 0
M  V30 1420 C 139.225 1.96186 -0.0235395 0
M  V30 1421 O 138.35 1.97768 0.878444 0
M  V30 1422 C 138.945 2.34827 -2.44217 0
M  V30 1423 C 137.504 2.88371 -2.41907 0
M  V30 1424 C 136.651 1.62202 -2.24913 0
M  V30 1425 H 139.602 0.507944 -1.50352 0
M  V30 1426 H 139.623 3.15749 -2.12327 0
M  V30 1427 H 139.135 1.85996 -3.40627 0
M  V30 1428 H 137.236 3.41422 -1.49204 0
M  V30 1429 H 137.349 3.39925 -3.37621 0
M  V30 1430 H 135.713 1.874 -1.72492 0
M  V30 1431 H 136.496 1.15391 -3.23326 0
M  V30 1432 N 138.941 1.26152 0.944643 0
M  V30 1433 C 140.19 1.10883 1.68487 0
M  V30 1434 C 140.503 -0.348153 1.92477 0
M  V30 1435 O 141.709 -0.621459 2.64292 0
M  V30 1436 C 140.165 1.93624 3.03377 0
M  V30 1437 C 139.773 3.43875 2.87148 0
M  V30 1438 C 141.517 1.86954 3.81115 0
M  V30 1439 C 139.424 4.18875 4.1749 0
M  V30 1440 H 138.354 0.41135 0.631907 0
M  V30 1441 H 141.005 1.50433 1.05082 0
M  V30 1442 H 139.387 1.46904 3.67743 0
M  V30 1443 H 140.561 3.98338 2.31653 0
M  V30 1444 H 138.876 3.51744 2.22856 0
M  V30 1445 H 141.473 2.40275 4.77673 0
M  V30 1446 H 141.816 0.839518 4.07747 0
M  V30 1447 H 142.349 2.31477 3.23517 0
M  V30 1448 H 139.088 5.22332 3.96043 0
M  V30 1449 H 138.608 3.69193 4.72712 0
M  V30 1450 H 140.287 4.27134 4.85968 0
M  V30 1451 N 140.419 -1.14872 1.07899 0
M  V30 1452 C 141.349 -2.2193 0.725887 0
M  V30 1453 C 142.33 -1.67622 -0.28927 0
M  V30 1454 O 143.515 -1.93533 -0.160787 0
M  V30 1455 C 140.645 -3.47061 0.128856 0
M  V30 1456 C 139.599 -4.14363 1.07178 0
M  V30 1457 C 138.925 -5.33636 0.337229 0
M  V30 1458 C 140.225 -4.63492 2.40775 0
M  V30 1459 H 141.919 -2.51724 1.62097 0
M  V30 1460 H 139.465 -1.20991 0.780838 0
M  V30 1461 H 141.418 -4.21199 -0.130147 0
M  V30 1462 H 140.142 -3.16617 -0.80134 0
M  V30 1463 H 138.801 -3.42173 1.3158 0
M  V30 1464 H 138.449 -4.99449 -0.596606 0
M  V30 1465 H 138.149 -5.79609 0.965788 0
M  V30 1466 H 139.673 -6.10539 0.0861567 0
M  V30 1467 H 141.087 -5.2913 2.20669 0
M  V30 1468 H 139.484 -5.20148 2.99276 0
M  V30 1469 H 140.554 -3.78834 3.02676 0
M  V30 1470 N 141.898 -0.863906 -1.31812 0
M  V30 1471 C 142.846 -0.30422 -2.30602 0
M  V30 1472 C 143.84 0.577419 -1.59255 0
M  V30 1473 O 145.046 0.464194 -1.73912 0
M  V30 1474 H 141.421 -0.0796877 -0.747766 0
M  V30 1475 H 143.392 -1.15148 -2.75288 0
M  V30 1476 C 142.141 0.484617 -3.44306 0
M  V30 1477 H 141.464 -0.18451 -3.99374 0
M  V30 1478 H 142.904 0.841664 -4.15562 0
M  V30 1479 C 141.363 1.6735 -2.92396 0
M  V30 1480 O 141.893 2.77273 -2.90659 0
M  V30 1481 N 140.099 1.50362 -2.48676 0
M  V30 1482 H 139.646 0.609402 -2.50288 0
M  V30 1483 H 139.604 2.30051 -2.14299 0
M  V30 1484 N 143.376 1.44774 -0.622745 0
M  V30 1485 C 144.625 2.01334 -0.121397 0
M  V30 1486 C 144.938 1.49505 1.26125 0
M  V30 1487 O 146.144 1.98139 1.85616 0
M  V30 1488 C 144.6 3.59516 -0.166298 0
M  V30 1489 C 144.208 4.20342 -1.54974 0
M  V30 1490 C 145.952 4.23582 0.279021 0
M  V30 1491 C 143.859 5.70721 -1.55021 0
M  V30 1492 H 142.789 0.752851 -0.0416172 0
M  V30 1493 H 145.44 1.66083 -0.780309 0
M  V30 1494 H 143.822 3.92027 0.559557 0
M  V30 1495 H 144.996 3.99381 -2.29851 0
M  V30 1496 H 143.311 3.68529 -1.93843 0
M  V30 1497 H 145.908 5.33868 0.298083 0
M  V30 1498 H 146.251 3.95327 1.30471 0
M  V30 1499 H 146.784 3.95843 -0.394063 0
M  V30 1500 H 143.523 6.03698 -2.55399 0
M  V30 1501 H 143.043 5.93829 -0.844245 0
M  V30 1502 H 144.722 6.34203 -1.28047 0
M  V30 1503 N 144.854 0.36279 1.53368 0
M  V30 1504 C 146.265 -0.117022 1.86333 0
M  V30 1505 C 146.616 -1.48397 1.28347 0
M  V30 1506 O 145.741 -2.07787 0.604428 0
M  V30 1507 C 146.336 -0.21912 3.38091 0
M  V30 1508 C 144.895 -0.643184 3.70864 0
M  V30 1509 C 144.042 0.211318 2.76494 0
M  V30 1510 H 146.993 0.581687 1.47655 0
M  V30 1511 H 147.014 -1.04319 3.6592 0
M  V30 1512 H 146.526 0.775902 3.80265 0
M  V30 1513 H 144.627 -1.64654 3.34245 0
M  V30 1514 H 144.74 -0.41973 4.77258 0
M  V30 1515 H 143.104 -0.319367 2.5269 0
M  V30 1516 H 143.887 1.20383 3.21501 0
M  V30 1517 N 146.332 -1.57332 0.0918853 0
M  V30 1518 C 147.242 -2.17368 -0.882505 0
M  V30 1519 C 148.258 -1.14226 -1.31257 0
M  V30 1520 O 149.434 -1.46582 -1.38115 0
M  V30 1521 C 146.499 -2.73962 -2.12476 0
M  V30 1522 C 145.56 -3.92048 -1.7492 0
M  V30 1523 C 144.793 -4.45933 -2.93223 0
M  V30 1524 O 145.016 -3.98764 -4.07852 0
M  V30 1525 O 143.95 -5.36999 -2.71875 0
M  V30 1526 H 147.776 -3.01031 -0.40172 0
M  V30 1527 H 145.361 -1.48813 -0.132291 0
M  V30 1528 H 147.243 -3.10147 -2.85283 0
M  V30 1529 H 145.918 -1.93347 -2.59613 0
M  V30 1530 H 144.825 -3.6068 -0.993025 0
M  V30 1531 H 146.158 -4.74017 -1.32548 0
M  V30 1532 N 147.81 0.181792 -1.56548 0
M  V30 1533 C 148.758 1.24461 -1.965 0
M  V30 1534 C 149.752 1.464 -0.852261 0
M  V30 1535 O 150.958 1.47103 -1.03733 0
M  V30 1536 H 147.333 0.418138 -0.625031 0
M  V30 1537 H 149.304 0.880714 -2.85107 0
M  V30 1538 C 148.053 2.57891 -2.33212 0
M  V30 1539 H 147.376 2.41829 -3.18369 0
M  V30 1540 H 148.816 3.3097 -2.65019 0
M  V30 1541 C 147.275 3.15871 -1.17163 0
M  V30 1542 O 147.805 3.9913 -0.453708 0
M  V30 1543 N 146.011 2.74808 -0.944936 0
M  V30 1544 H 145.558 2.07205 -1.53049 0
M  V30 1545 H 145.516 3.13939 -0.170286 0
M  V30 1546 N 149.288 1.51039 0.449983 0
M  V30 1547 C 150.534 1.63322 1.20223 0
M  V30 1548 C 150.867 0.34241 1.91158 0
M  V30 1549 O 150.142 -0.657344 1.83055 0
M  V30 1550 C 150.425 2.82801 2.22925 0
M  V30 1551 C 150.278 4.21823 1.56157 0
M  V30 1552 C 151.597 2.97807 3.24035 0
M  V30 1553 H 148.716 0.594407 0.435718 0
M  V30 1554 H 151.358 1.83489 0.493136 0
M  V30 1555 H 149.508 2.65738 2.834 0
M  V30 1556 H 151.18 4.50526 0.991162 0
M  V30 1557 H 149.423 4.25105 0.864172 0
M  V30 1558 H 150.094 5.01391 2.30891 0
M  V30 1559 H 152.57 3.13497 2.73603 0
M  V30 1560 H 151.446 3.82992 3.93202 0
M  V30 1561 H 151.707 2.09328 3.89402 0
M  V30 1562 N 150.766 -0.704594 1.40972 0
M  V30 1563 C 151.676 -1.84856 1.44448 0
M  V30 1564 C 152.692 -1.70726 0.335961 0
M  V30 1565 O 153.868 -1.92799 0.582276 0
M  V30 1566 C 150.933 -3.20758 1.31587 0
M  V30 1567 C 149.994 -3.47063 2.52677 0
M  V30 1568 C 149.227 -4.76481 2.4042 0
M  V30 1569 O 149.45 -5.52341 1.42391 0
M  V30 1570 O 148.384 -5.03367 3.30007 0
M  V30 1571 H 152.21 -1.8488 2.40942 0
M  V30 1572 H 149.795 -0.85647 1.22413 0
M  V30 1573 H 151.677 -4.01913 1.26665 0
M  V30 1574 H 150.352 -3.21438 0.382049 0
M  V30 1575 H 149.259 -2.65873 2.63177 0
M  V30 1576 H 150.592 -3.5119 3.44858 0
M  V30 1577 N 152.244 -1.26651 -0.937939 0
M  V30 1578 C 153.174 -1.10993 -2.05433 0
M  V30 1579 C 154.155 -0.0142161 -1.70094 0
M  V30 1580 O 155.34 -0.186837 -1.93299 0
M  V30 1581 C 152.47 -0.745561 -3.39203 0
M  V30 1582 C 151.424 -1.79337 -3.88616 0
M  V30 1583 C 150.75 -1.28324 -5.19073 0
M  V30 1584 C 152.05 -3.19553 -4.13138 0
M  V30 1585 H 153.744 -2.0438 -2.1879 0
M  V30 1586 H 151.29 -0.984041 -1.05131 0
M  V30 1587 H 153.243 -0.622888 -4.16771 0
M  V30 1588 H 151.967 0.22401 -3.25831 0
M  V30 1589 H 150.626 -1.90477 -3.13231 0
M  V30 1590 H 150.274 -0.303414 -5.02084 0
M  V30 1591 H 149.974 -1.98369 -5.53103 0
M  V30 1592 H 151.498 -1.1733 -5.99221 0
M  V30 1593 H 152.912 -3.11471 -4.81309 0
M  V30 1594 H 151.309 -3.87218 -4.58457 0
M  V30 1595 H 152.379 -3.65368 -3.18801 0
M  V30 1596 N 153.722 1.14298 -1.08507 0
M  V30 1597 C 154.968 1.85854 -0.826438 0
M  V30 1598 C 155.323 1.81413 0.640878 0
M  V30 1599 O 154.616 1.23463 1.46518 0
M  V30 1600 C 154.81 3.33547 -1.28379 0
M  V30 1601 C 154.639 3.52369 -2.79403 0
M  V30 1602 C 153.409 3.67159 -3.47164 0
M  V30 1603 C 155.607 3.49203 -3.77573 0
M  V30 1604 N 153.589 3.74149 -4.86709 0
M  V30 1605 C 154.96 3.6245 -5.03021 0
M  V30 1606 C 157.015 3.32547 -3.70563 0
M  V30 1607 C 155.718 3.60761 -6.2229 0
M  V30 1608 C 157.744 3.32162 -4.89308 0
M  V30 1609 C 157.106 3.45949 -6.13595 0
M  V30 1610 H 153.205 0.696705 -0.355143 0
M  V30 1611 H 155.789 1.36981 -1.38362 0
M  V30 1612 H 153.96 3.81008 -0.754166 0
M  V30 1613 H 155.692 3.92867 -0.971469 0
M  V30 1614 H 152.447 3.68433 -2.9758 0
M  V30 1615 H 152.871 3.81359 -5.5937 0
M  V30 1616 H 157.513 3.20797 -2.75407 0
M  V30 1617 H 155.231 3.71286 -7.17755 0
M  V30 1618 H 158.817 3.20485 -4.85573 0
M  V30 1619 H 157.697 3.456 -7.03939 0
M  V30 1620 N 155.201 0.870884 1.31352 0
M  V30 1621 C 156.478 0.402907 1.91405 0
M  V30 1622 C 156.858 -1.11512 1.79244 0
M  V30 1623 O 156.206 -1.94411 1.2007 0
M  V30 1624 C 156.416 0.885301 3.37585 0
M  V30 1625 C 157.764 0.911971 4.14691 0
M  V30 1626 O 158.788 0.831016 3.46371 0
M  V30 1627 O 157.647 1.02927 5.3672 0
M  V30 1628 H 154.741 0.120698 0.818145 0
M  V30 1629 H 157.287 0.958857 1.40014 0
M  V30 1630 H 156.059 1.92889 3.40455 0
M  V30 1631 H 155.682 0.307714 3.96407 0
M  V30 1632 N 156.679 -1.44442 0.630414 0
M  V30 1633 C 157.626 -2.30678 -0.0749355 0
M  V30 1634 C 158.596 -1.4344 -0.837502 0
M  V30 1635 O 159.781 -1.72343 -0.818684 0
M  V30 1636 C 156.921 -3.28706 -1.05103 0
M  V30 1637 C 156.034 -4.31046 -0.286954 0
M  V30 1638 C 155.169 -5.16167 -1.2548 0
M  V30 1639 C 154.208 -6.10216 -0.479843 0
M  V30 1640 N 153.345 -6.88039 -1.39811 0
M  V30 1641 H 158.185 -2.90454 0.666386 0
M  V30 1642 H 155.722 -1.43107 0.340404 0
M  V30 1643 H 157.68 -3.84027 -1.63031 0
M  V30 1644 H 156.31 -2.70632 -1.75949 0
M  V30 1645 H 155.362 -3.78203 0.408243 0
M  V30 1646 H 156.674 -4.97794 0.316657 0
M  V30 1647 H 155.828 -5.76002 -1.90544 0
M  V30 1648 H 154.567 -4.49491 -1.89233 0
M  V30 1649 H 153.572 -5.49491 0.184295 0
M  V30 1650 H 154.797 -6.78928 0.152965 0
M  V30 1651 H 152.743 -6.24032 -2.02287 0
M  V30 1652 H 152.66 -7.51223 -0.848508 0
M  V30 1653 H 153.928 -7.52397 -2.03762 0
M  V30 1654 N 158.157 -0.370918 -1.53173 0
M  V30 1655 C 159.406 0.218249 -2.00516 0
M  V30 1656 C 159.719 1.49429 -1.26215 0
M  V30 1657 O 160.925 2.16239 -1.64174 0
M  V30 1658 C 159.381 0.43948 -3.57207 0
M  V30 1659 C 158.989 -0.822244 -4.4039 0
M  V30 1660 C 160.733 0.986012 -4.1289 0
M  V30 1661 C 158.64 -0.570304 -5.88644 0
M  V30 1662 H 157.57 0.0853333 -0.749156 0
M  V30 1663 H 160.221 -0.490483 -1.76823 0
M  V30 1664 H 158.603 1.20961 -3.77074 0
M  V30 1665 H 159.777 -1.59557 -4.32294 0
M  V30 1666 H 158.092 -1.29238 -3.95836 0
M  V30 1667 H 160.689 1.18991 -5.21292 0
M  V30 1668 H 161.032 1.94972 -3.6782 0
M  V30 1669 H 161.565 0.27592 -3.96842 0
M  V30 1670 H 158.304 -1.50449 -6.38001 0
M  V30 1671 H 157.824 0.164427 -5.99575 0
M  V30 1672 H 159.503 -0.19784 -6.46697 0
M  V30 1673 N 159.635 1.57281 -0.100228 0
M  V30 1674 C 160.582 2.14305 0.856858 0
M  V30 1675 C 161.552 1.06296 1.27634 0
M  V30 1676 O 162.737 1.34109 1.35718 0
M  V30 1677 C 159.877 2.73184 2.10866 0
M  V30 1678 C 158.99 3.95442 1.73925 0
M  V30 1679 C 158.125 4.42468 2.93931 0
M  V30 1680 C 157.164 5.57303 2.5314 0
M  V30 1681 N 156.301 5.99158 3.65997 0
M  V30 1682 H 161.141 2.95772 0.363726 0
M  V30 1683 H 158.678 1.46139 0.167858 0
M  V30 1684 H 160.636 3.05442 2.84185 0
M  V30 1685 H 159.266 1.94437 2.57671 0
M  V30 1686 H 158.318 3.69464 0.905554 0
M  V30 1687 H 159.63 4.78769 1.39935 0
M  V30 1688 H 158.784 4.76537 3.75496 0
M  V30 1689 H 157.523 3.58052 3.31134 0
M  V30 1690 H 156.528 5.22857 1.70003 0
M  V30 1691 H 157.753 6.43471 2.17075 0
M  V30 1692 H 155.699 5.17687 4.02909 0
M  V30 1693 H 155.616 6.77295 3.35869 0
M  V30 1694 H 156.884 6.3786 4.48057 0
M  V30 1695 N 161.113 -0.173488 1.56642 0
M  V30 1696 C 162.076 -1.19859 1.95362 0
M  V30 1697 C 163.076 -1.37296 0.83704 0
M  V30 1698 O 164.266 -1.34739 1.10413 0
M  V30 1699 C 161.398 -2.56405 2.24654 0
M  V30 1700 H 162.591 -0.867062 2.87092 0
M  V30 1701 H 160.144 -0.415853 1.50666 0
M  V30 1702 H 160.879 -2.94576 1.35631 0
M  V30 1703 H 160.664 -2.45115 3.06041 0
M  V30 1704 H 162.154 -3.30287 2.5554 0
M  V30 1705 N 162.591 -1.51276 -0.441967 0
M  V30 1706 C 163.501 -1.75092 -1.56141 0
M  V30 1707 C 164.517 -0.634963 -1.62001 0
M  V30 1708 O 165.693 -0.916686 -1.79329 0
M  V30 1709 C 162.758 -1.86666 -2.92158 0
M  V30 1710 C 161.819 -3.10506 -2.96453 0
M  V30 1711 C 161.052 -3.21519 -4.25982 0
M  V30 1712 O 161.275 -2.38586 -5.18105 0
M  V30 1713 O 160.209 -4.14465 -4.36466 0
M  V30 1714 H 164.035 -2.70044 -1.38961 0
M  V30 1715 H 161.62 -1.35722 -0.624499 0
M  V30 1716 H 163.502 -1.96292 -3.72891 0
M  V30 1717 H 162.177 -0.949014 -3.09476 0
M  V30 1718 H 161.084 -3.06363 -2.14692 0
M  V30 1719 H 162.417 -4.01945 -2.84079 0
M  V30 1720 N 164.069 0.697108 -1.41344 0
M  V30 1721 C 165.017 1.83237 -1.43272 0
M  V30 1722 C 166.011 1.66522 -0.310947 0
M  V30 1723 O 167.217 1.73402 -0.482899 0
M  V30 1724 H 163.592 0.603802 -0.448249 0
M  V30 1725 H 165.563 1.78727 -2.38954 0
M  V30 1726 C 164.312 3.21245 -1.33029 0
M  V30 1727 H 163.635 3.34723 -2.18633 0
M  V30 1728 H 165.075 4.00763 -1.38439 0
M  V30 1729 C 163.534 3.36873 -0.0424635 0
M  V30 1730 O 164.064 3.91177 0.913421 0
M  V30 1731 N 162.27 2.90581 0.0331145 0
M  V30 1732 H 161.817 2.46577 -0.745506 0
M  V30 1733 H 161.775 3.01416 0.894199 0
M  V30 1734 N 165.547 1.27147 0.931209 0
M  V30 1735 C 166.457 1.11372 2.06478 0
M  V30 1736 C 167.473 0.044645 1.73943 0
M  V30 1737 O 168.649 0.250417 1.99837 0
M  V30 1738 C 165.714 0.758838 3.38294 0
M  V30 1739 C 164.775 1.90841 3.84549 0
M  V30 1740 C 164.008 1.57036 5.10074 0
M  V30 1741 O 164.231 0.476645 5.68405 0
M  V30 1742 O 163.165 2.40839 5.51616 0
M  V30 1743 H 166.991 2.06493 2.22698 0
M  V30 1744 H 164.576 1.06301 1.04978 0
M  V30 1745 H 166.458 0.574098 4.17471 0
M  V30 1746 H 165.133 -0.162879 3.2329 0
M  V30 1747 H 164.04 2.14819 3.06274 0
M  V30 1748 H 165.373 2.81021 4.04089 0
M  V30 1749 N 167.025 -1.13721 1.09112 0
M  V30 1750 C 167.972 -2.19031 0.727591 0
M  V30 1751 C 168.942 -1.63555 -0.289656 0
M  V30 1752 O 170.127 -1.90023 -0.172026 0
M  V30 1753 C 167.267 -3.4477 0.15082 0
M  V30 1754 C 166.38 -4.14365 1.22172 0
M  V30 1755 C 165.515 -5.27709 0.608042 0
M  V30 1756 C 164.554 -5.89147 1.66047 0
M  V30 1757 N 163.691 -6.93929 1.06806 0
M  V30 1758 H 168.531 -2.49475 1.62991 0
M  V30 1759 H 166.068 -1.22499 0.81439 0
M  V30 1760 H 168.026 -4.16714 -0.201358 0
M  V30 1761 H 166.656 -3.14787 -0.714783 0
M  V30 1762 H 165.708 -3.40737 1.69122 0
M  V30 1763 H 167.02 -4.56114 2.01895 0
M  V30 1764 H 166.174 -6.06355 0.204523 0
M  V30 1765 H 164.913 -4.872 -0.220769 0
M  V30 1766 H 163.918 -5.09198 2.07357 0
M  V30 1767 H 165.143 -6.31729 2.49189 0
M  V30 1768 H 163.089 -6.55483 0.260476 0
M  V30 1769 H 163.006 -7.34202 1.8023 0
M  V30 1770 H 164.274 -7.76434 0.690644 0
M  V30 1771 N 168.503 -0.877838 -1.30888 0
M  V30 1772 C 169.733 -0.506678 -2.00291 0
M  V30 1773 C 170.141 0.907449 -1.66018 0
M  V30 1774 O 169.484 1.60719 -0.88967 0
M  V30 1775 C 169.546 -0.59323 -3.54572 0
M  V30 1776 C 169.21 -1.97038 -4.12341 0
M  V30 1777 C 170.207 -2.93889 -4.28865 0
M  V30 1778 C 167.892 -2.27383 -4.47886 0
M  V30 1779 C 169.886 -4.19224 -4.80136 0
M  V30 1780 C 167.573 -3.52965 -4.98857 0
M  V30 1781 C 168.571 -4.48701 -5.14934 0
M  V30 1782 O 168.259 -5.72056 -5.64808 0
M  V30 1783 H 167.991 -0.1951 -0.647234 0
M  V30 1784 H 170.545 -1.18301 -1.6791 0
M  V30 1785 H 168.775 0.140057 -3.86446 0
M  V30 1786 H 170.464 -0.234372 -4.05223 0
M  V30 1787 H 171.23 -2.71756 -4.01714 0
M  V30 1788 H 167.109 -1.53639 -4.34645 0
M  V30 1789 H 170.653 -4.93956 -4.92599 0
M  V30 1790 H 166.55 -3.74939 -5.25443 0
M  V30 1791 H 167.318 -5.74337 -5.83163 0
M  V30 1792 N 169.982 1.44106 -0.638065 0
M  V30 1793 C 170.892 2.34513 0.0637334 0
M  V30 1794 C 171.908 1.53018 0.828346 0
M  V30 1795 O 173.084 1.85723 0.779036 0
M  V30 1796 C 170.149 3.31095 1.02844 0
M  V30 1797 C 169.21 4.28497 0.26244 0
M  V30 1798 C 168.443 5.20465 1.1812 0
M  V30 1799 O 168.666 5.16514 2.42011 0
M  V30 1800 O 167.6 5.98251 0.661774 0
M  V30 1801 H 171.426 2.95989 -0.68003 0
M  V30 1802 H 169.011 1.43994 -0.398252 0
M  V30 1803 H 170.893 3.90526 1.58327 0
M  V30 1804 H 169.568 2.72144 1.7527 0
M  V30 1805 H 168.475 3.72592 -0.335602 0
M  V30 1806 H 169.808 4.90388 -0.421936 0
M  V30 1807 N 171.46 0.379036 1.52974 0
M  V30 1808 C 172.708 -0.206014 2.01047 0
M  V30 1809 C 173.029 -1.48175 1.26765 0
M  V30 1810 O 172.299 -1.92085 0.384743 0
M  V30 1811 H 170.879 -0.0791184 0.742798 0
M  V30 1812 H 173.541 0.508366 1.88153 0
M  V30 1813 H 172.637 -0.423501 3.09213 0
M  V30 1814 N 172.938 -1.57226 0.108567 0
M  V30 1815 C 173.87 -2.11809 -0.875752 0
M  V30 1816 C 174.883 -1.05839 -1.23701 0
M  V30 1817 O 176.072 -1.33245 -1.18778 0
M  V30 1818 C 173.172 -2.59411 -2.18081 0
M  V30 1819 C 172.345 -3.89364 -1.99284 0
M  V30 1820 C 171.404 -4.22672 -3.13424 0
M  V30 1821 O 170.43 -4.91668 -2.86795 0
M  V30 1822 N 171.632 -3.79154 -4.3957 0
M  V30 1823 H 174.397 -2.9689 -0.409477 0
M  V30 1824 H 171.958 -1.61721 -0.076158 0
M  V30 1825 H 173.95 -2.7873 -2.93414 0
M  V30 1826 H 172.52 -1.79268 -2.5609 0
M  V30 1827 H 171.74 -3.79059 -1.08203 0
M  V30 1828 H 173.028 -4.74358 -1.84017 0
M  V30 1829 H 172.426 -3.23486 -4.64083 0
M  V30 1830 H 170.983 -4.03602 -5.11809 0
M  V30 1831 N 174.416 0.165178 -1.56732 0
M  V30 1832 C 175.348 1.22911 -1.93457 0
M  V30 1833 C 176.361 1.40152 -0.828333 0
M  V30 1834 O 177.55 1.40046 -1.10677 0
M  V30 1835 C 174.65 2.59686 -2.17753 0
M  V30 1836 C 173.823 2.63663 -3.48999 0
M  V30 1837 C 172.882 3.81845 -3.62051 0
M  V30 1838 O 171.908 3.67559 -4.34613 0
M  V30 1839 N 173.11 4.98557 -2.97357 0
M  V30 1840 H 175.875 0.917118 -2.85323 0
M  V30 1841 H 173.436 0.354895 -1.57962 0
M  V30 1842 H 175.428 3.37225 -2.23743 0
M  V30 1843 H 173.998 2.83251 -1.32242 0
M  V30 1844 H 173.218 1.72173 -3.54612 0
M  V30 1845 H 174.506 2.63336 -4.35352 0
M  V30 1846 H 173.904 5.13065 -2.38287 0
M  V30 1847 H 172.461 5.73936 -3.08934 0
M  V30 1848 N 175.894 1.51508 0.433938 0
M  V30 1849 C 176.824 1.76016 1.53429 0
M  V30 1850 C 177.805 0.610112 1.58782 0
M  V30 1851 O 178.99 0.853177 1.74455 0
M  V30 1852 C 176.12 1.88831 2.9148 0
M  V30 1853 C 175.074 3.04288 3.00987 0
M  V30 1854 C 174.4 3.0229 4.4105 0
M  V30 1855 C 175.7 4.44193 2.74754 0
M  V30 1856 H 177.394 2.68152 1.33171 0
M  V30 1857 H 174.94 1.29035 0.639214 0
M  V30 1858 H 176.893 2.04559 3.6842 0
M  V30 1859 H 175.617 0.933455 3.12976 0
M  V30 1860 H 174.276 2.8827 2.26486 0
M  V30 1861 H 173.924 2.04576 4.59519 0
M  V30 1862 H 173.624 3.79822 4.4834 0
M  V30 1863 H 175.148 3.20116 5.1996 0
M  V30 1864 H 176.562 4.60544 3.41426 0
M  V30 1865 H 174.959 5.23457 2.9345 0
M  V30 1866 H 176.029 4.53996 1.70339 0
M  V30 1867 N 177.372 -0.689602 1.41712 0
M  V30 1868 C 178.302 -1.81577 1.46806 0
M  V30 1869 C 179.283 -1.66945 0.326105 0
M  V30 1870 O 180.468 -1.86588 0.538377 0
M  V30 1871 C 177.598 -3.19762 1.35535 0
M  V30 1872 C 176.552 -3.49107 2.47605 0
M  V30 1873 C 175.878 -4.86711 2.21397 0
M  V30 1874 C 177.178 -3.47483 3.89939 0
M  V30 1875 H 178.872 -1.7757 2.41058 0
M  V30 1876 H 176.418 -0.852887 1.16025 0
M  V30 1877 H 178.371 -3.98263 1.3771 0
M  V30 1878 H 177.095 -3.24409 0.377708 0
M  V30 1879 H 175.754 -2.72959 2.44722 0
M  V30 1880 H 175.402 -4.8799 1.21961 0
M  V30 1881 H 175.102 -5.0731 2.96497 0
M  V30 1882 H 176.626 -5.67515 2.25297 0
M  V30 1883 H 178.04 -4.1598 3.94505 0
M  V30 1884 H 176.437 -3.79615 4.64771 0
M  V30 1885 H 177.507 -2.46341 4.17665 0
M  V30 1886 N 178.85 -1.27639 -0.924453 0
M  V30 1887 C 179.813 -1.10681 -2.00705 0
M  V30 1888 C 180.813 -0.0497823 -1.60723 0
M  V30 1889 O 182.003 -0.294654 -1.7169 0
M  V30 1890 C 179.135 -0.687164 -3.33902 0
M  V30 1891 H 180.328 -2.06817 -2.17179 0
M  V30 1892 H 177.881 -1.10473 -1.10569 0
M  V30 1893 H 178.616 0.275439 -3.23128 0
M  V30 1894 H 178.401 -1.45061 -3.6428 0
M  V30 1895 H 179.891 -0.590853 -4.13399 0
M  V30 1896 N 180.328 1.1314 -1.09713 0
M  V30 1897 C 181.605 1.80762 -0.747302 0
M  V30 1898 C 181.985 1.96663 0.767265 0
M  V30 1899 O 181.333 1.53706 1.69076 0
M  V30 1900 C 181.543 3.15606 -1.48975 0
M  V30 1901 C 182.891 3.90914 -1.65746 0
M  V30 1902 O 183.915 3.25239 -1.45251 0
M  V30 1903 O 182.774 5.08718 -1.9967 0
M  V30 1904 H 179.868 0.782103 -0.268782 0
M  V30 1905 H 182.414 1.20041 -1.19951 0
M  V30 1906 H 181.186 2.99278 -2.52088 0
M  V30 1907 H 180.809 3.84029 -1.02991 0
M  V30 1908 N 181.806 0.884767 1.30421 0
M  V30 1909 C 182.736 0.367574 2.30589 0
M  V30 1910 C 183.717 -0.549464 1.60981 0
M  V30 1911 O 184.902 -0.46336 1.88591 0
M  V30 1912 C 182.032 -0.418944 3.44764 0
M  V30 1913 C 180.986 0.406316 4.26067 0
M  V30 1914 C 180.312 -0.506793 5.32293 0
M  V30 1915 C 181.612 1.64832 4.95608 0
M  V30 1916 H 183.306 1.20462 2.74097 0
M  V30 1917 H 180.852 0.580695 1.31772 0
M  V30 1918 H 182.805 -0.791395 4.13902 0
M  V30 1919 H 181.529 -1.28964 3.0006 0
M  V30 1920 H 180.188 0.760903 3.58617 0
M  V30 1921 H 179.836 -1.37519 4.83836 0
M  V30 1922 H 179.536 0.0415828 5.87585 0
M  V30 1923 H 181.06 -0.875764 6.04287 0
M  V30 1924 H 182.474 1.34646 5.57264 0
M  V30 1925 H 180.871 2.13688 5.60765 0
M  V30 1926 H 181.941 2.39284 4.21748 0
M  V30 1927 N 183.284 -1.43765 0.645699 0
M  V30 1928 C 184.53 -2.02197 0.156271 0
M  V30 1929 C 184.863 -1.50776 -1.22393 0
M  V30 1930 O 184.138 -0.697771 -1.81553 0
M  V30 1931 C 184.421 -3.59749 0.158872 0
M  V30 1932 C 184.274 -4.21419 1.57245 0
M  V30 1933 C 185.593 -4.37149 -0.50879 0
M  V30 1934 H 182.712 -0.734694 0.0582602 0
M  V30 1935 H 185.354 -1.71157 0.824951 0
M  V30 1936 H 183.504 -3.86325 -0.410525 0
M  V30 1937 H 185.176 -4.059 2.19186 0
M  V30 1938 H 183.419 -3.78356 2.122 0
M  V30 1939 H 184.09 -5.30482 1.52619 0
M  V30 1940 H 186.566 -4.16093 -0.024412 0
M  V30 1941 H 185.442 -5.4683 -0.476213 0
M  V30 1942 H 185.703 -4.12839 -1.58165 0
M  V30 1943 N 184.763 -0.387143 -1.52771 0
M  V30 1944 C 185.696 0.493123 -2.22808 0
M  V30 1945 C 186.674 1.0658 -1.22798 0
M  V30 1946 O 187.858 1.11785 -1.51777 0
M  V30 1947 C 184.985 1.68238 -2.93962 0
M  V30 1948 C 184.031 1.23515 -4.08223 0
M  V30 1949 S 184.864 0.21848 -5.35054 0
M  V30 1950 C 186.02 1.41357 -6.09729 0
M  V30 1951 H 186.253 -0.101625 -2.97126 0
M  V30 1952 H 183.786 -0.171323 -1.53447 0
M  V30 1953 H 185.744 2.36443 -3.35567 0
M  V30 1954 H 184.405 2.24842 -2.19328 0
M  V30 1955 H 183.598 2.12304 -4.57103 0
M  V30 1956 H 183.2 0.632044 -3.68621 0
M  V30 1957 H 185.492 2.34101 -6.3577 0
M  V30 1958 H 186.435 0.965736 -7.01484 0
M  V30 1959 H 186.843 1.6294 -5.40473 0
M  V30 1960 N 186.241 1.57166 -0.116904 0
M  V30 1961 C 187.189 2.16457 0.851418 0
M  V30 1962 C 188.183 1.11323 1.27686 0
M  V30 1963 O 189.389 1.2963 1.24884 0
M  V30 1964 H 185.764 0.69271 0.292672 0
M  V30 1965 H 187.735 2.96605 0.32685 0
M  V30 1966 C 186.484 2.77689 2.09246 0
M  V30 1967 H 185.807 3.58285 1.77402 0
M  V30 1968 H 187.247 3.22716 2.7501 0
M  V30 1969 C 185.706 1.74667 2.88085 0
M  V30 1970 O 186.236 1.19877 3.83396 0
M  V30 1971 N 184.442 1.44656 2.52038 0
M  V30 1972 H 183.989 1.89402 1.74599 0
M  V30 1973 H 183.947 0.759675 3.05084 0
M  V30 1974 N 187.719 -0.156864 1.56817 0
M  V30 1975 C 188.944 -0.890331 1.87318 0
M  V30 1976 C 189.369 -1.74394 0.704855 0
M  V30 1977 O 188.727 -1.77972 -0.345786 0
M  V30 1978 C 188.775 -1.73102 3.16336 0
M  V30 1979 O 187.879 -2.83422 2.99576 0
M  V30 1980 H 187.22 -0.24857 0.615718 0
M  V30 1981 H 189.75 -0.150649 2.04045 0
M  V30 1982 H 189.76 -2.12803 3.48107 0
M  V30 1983 H 188.435 -1.10412 4.00976 0
M  V30 1984 H 187.012 -2.47199 2.7919 0
M  V30 1985 N 189.197 -1.51736 -0.425897 0
M  V30 1986 C 190.107 -1.76738 -1.54275 0
M  V30 1987 C 191.123 -0.65211 -1.61318 0
M  V30 1988 O 192.299 -0.935654 -1.78346 0
M  V30 1989 C 189.364 -1.89755 -2.90162 0
M  V30 1990 C 188.425 -3.13633 -2.93143 0
M  V30 1991 C 187.658 -3.2602 -4.22548 0
M  V30 1992 O 187.881 -2.44067 -5.15546 0
M  V30 1993 O 186.815 -4.19071 -4.32046 0
M  V30 1994 H 190.641 -2.71502 -1.36089 0
M  V30 1995 H 188.226 -1.36376 -0.610069 0
M  V30 1996 H 190.108 -2.00236 -3.70788 0
M  V30 1997 H 188.783 -0.981785 -3.08452 0
M  V30 1998 H 187.69 -3.08622 -2.11431 0
M  V30 1999 H 189.023 -4.04936 -2.798 0
M  V30 2000 N 190.675 0.682077 -1.42076 0
M  V30 2001 C 191.585 1.82535 -1.47371 0
M  V30 2002 C 192.601 1.7017 -0.363079 0
M  V30 2003 O 193.777 1.91848 -0.612875 0
M  V30 2004 C 190.842 3.18624 -1.36674 0
M  V30 2005 C 189.903 3.42999 -2.58167 0
M  V30 2006 C 189.136 4.72595 -2.4797 0
M  V30 2007 O 189.359 5.50006 -1.5116 0
M  V30 2008 O 188.293 4.98054 -3.37974 0
M  V30 2009 H 192.119 1.81023 -2.43853 0
M  V30 2010 H 189.704 0.836887 -1.2376 0
M  V30 2011 H 191.586 3.99847 -1.33043 0
M  V30 2012 H 190.261 3.20789 -0.433138 0
M  V30 2013 H 189.168 2.61653 -2.67373 0
M  V30 2014 H 190.501 3.45659 -3.50401 0
M  V30 2015 N 192.153 1.28127 0.917671 0
M  V30 2016 C 193.1 1.11717 2.0196 0
M  V30 2017 C 194.07 0.0153929 1.66093 0
M  V30 2018 O 195.255 0.179596 1.89953 0
M  V30 2019 C 192.395 0.780927 3.36148 0
M  V30 2020 C 191.508 1.96135 3.84909 0
M  V30 2021 C 190.643 1.56609 5.0759 0
M  V30 2022 C 189.682 2.71339 5.48673 0
M  V30 2023 N 188.819 2.32332 6.62545 0
M  V30 2024 H 193.659 2.06003 2.15329 0
M  V30 2025 H 191.196 1.02535 1.05475 0
M  V30 2026 H 193.154 0.56675 4.13333 0
M  V30 2027 H 191.784 -0.124998 3.22558 0
M  V30 2028 H 190.836 2.28777 3.03916 0
M  V30 2029 H 192.148 2.82165 4.1132 0
M  V30 2030 H 191.302 1.31374 5.92305 0
M  V30 2031 H 190.041 0.677014 4.82978 0
M  V30 2032 H 189.046 2.97276 4.62501 0
M  V30 2033 H 190.271 3.60882 5.75274 0
M  V30 2034 H 188.217 1.45889 6.39572 0
M  V30 2035 H 188.134 3.11899 6.88662 0
M  V30 2036 H 189.402 2.10371 7.50576 0
M  V30 2037 N 193.631 -1.12557 1.10312 0
M  V30 2038 C 194.877 -1.84311 0.846011 0
M  V30 2039 C 195.21 -1.83805 -0.626859 0
M  V30 2040 O 194.485 -1.28268 -1.46211 0
M  V30 2041 C 194.768 -3.32048 1.39341 0
M  V30 2042 C 194.621 -3.41016 2.93305 0
M  V30 2043 C 195.94 -4.27764 1.03468 0
M  V30 2044 H 193.059 -0.669192 0.30879 0
M  V30 2045 H 195.701 -1.32057 1.36605 0
M  V30 2046 H 193.851 -3.76678 0.951087 0
M  V30 2047 H 195.523 -3.05031 3.46055 0
M  V30 2048 H 193.766 -2.81603 3.29973 0
M  V30 2049 H 194.437 -4.44948 3.26689 0
M  V30 2050 H 196.913 -3.91253 1.41633 0
M  V30 2051 H 195.789 -5.29549 1.44463 0
M  V30 2052 H 196.05 -4.42064 -0.0560404 0
M  V30 2053 N 195.109 -0.891671 -1.2995 0
M  V30 2054 C 196.337 -0.52866 -2.00032 0
M  V30 2055 C 196.752 0.884574 -1.66795 0
M  V30 2056 O 196.109 1.5827 -0.908669 0
M  V30 2057 C 196.16 -0.701814 -3.54622 0
M  V30 2058 O 195.881 -2.05942 -3.86678 0
M  V30 2059 C 197.382 -0.342683 -4.41973 0
M  V30 2060 H 194.602 -0.203659 -0.639347 0
M  V30 2061 H 197.146 -1.19881 -1.65677 0
M  V30 2062 H 195.301 -0.0789468 -3.8732 0
M  V30 2063 H 195.715 -2.08291 -4.81368 0
M  V30 2064 H 197.189 -0.514709 -5.49595 0
M  V30 2065 H 197.666 0.71975 -4.33262 0
M  V30 2066 H 198.272 -0.942154 -4.14733 0
M  V30 2067 N 196.587 1.43421 -0.653314 0
M  V30 2068 C 197.836 2.01032 -0.164076 0
M  V30 2069 C 198.149 1.52147 1.22926 0
M  V30 2070 O 199.355 2.02031 1.81371 0
M  V30 2071 C 197.811 3.59082 -0.24252 0
M  V30 2072 C 197.419 4.1696 -1.63855 0
M  V30 2073 C 199.163 4.24079 0.18911 0
M  V30 2074 C 197.07 5.67304 -1.67092 0
M  V30 2075 H 196 0.751798 -0.0575769 0
M  V30 2076 H 198.651 1.6439 -0.815362 0
M  V30 2077 H 197.033 3.93125 0.476276 0
M  V30 2078 H 198.207 3.94416 -2.38271 0
M  V30 2079 H 196.522 3.64335 -2.01616 0
M  V30 2080 H 199.119 5.34381 0.184775 0
M  V30 2081 H 199.462 3.98005 1.22056 0
M  V30 2082 H 199.995 3.94918 -0.477938 0
M  V30 2083 H 196.734 5.98145 -2.68146 0
M  V30 2084 H 196.254 5.91904 -0.970014 0
M  V30 2085 H 197.933 6.31344 -1.4147 0
M  V30 2086 N 198.065 0.39524 1.52563 0
M  V30 2087 C 199.305 -0.184744 2.03563 0
M  V30 2088 C 199.669 -1.43548 1.27507 0
M  V30 2089 O 200.87 -2.093 1.68662 0
M  V30 2090 C 199.141 -0.440294 3.54678 0
M  V30 2091 S 200.7 -0.989712 4.27493 0
M  V30 2092 H 197.518 -0.0515075 0.709132 0
M  V30 2093 H 200.12 0.544957 1.87751 0
M  V30 2094 H 198.824 0.477005 4.07618 0
M  V30 2095 H 198.355 -1.19825 3.74707 0
M  V30 2096 H 200.37 -2.27155 4.41152 0
M  V30 2097 N 199.544 -1.57102 0.125237 0
M  V30 2098 C 200.79 -1.95697 -0.532035 0
M  V30 2099 C 201.123 -1.009 -1.6593 0
M  V30 2100 O 200.398 -0.047347 -1.94442 0
M  V30 2101 C 200.681 -3.44181 -1.05884 0
M  V30 2102 C 200.534 -4.49752 0.0654392 0
M  V30 2103 C 201.853 -3.94655 -1.9477 0
M  V30 2104 H 198.972 -0.711571 -0.191925 0
M  V30 2105 H 201.614 -1.88923 0.20206 0
M  V30 2106 H 199.764 -3.50085 -1.68442 0
M  V30 2107 H 201.436 -4.55943 0.700982 0
M  V30 2108 H 199.679 -4.27653 0.727709 0
M  V30 2109 H 200.35 -5.50924 -0.344505 0
M  V30 2110 H 202.826 -3.91094 -1.42074 0
M  V30 2111 H 201.702 -4.99057 -2.28546 0
M  V30 2112 H 201.963 -3.35718 -2.87656 0
M  V30 2113 N 201.022 0.148545 -1.56898 0
M  V30 2114 C 202.25 0.876389 -1.87422 0
M  V30 2115 C 202.665 1.74809 -0.713256 0
M  V30 2116 O 202.022 1.79725 0.317025 0
M  V30 2117 C 202.073 1.73438 -3.17178 0
M  V30 2118 O 201.794 0.897809 -4.28802 0
M  V30 2119 C 203.295 2.56993 -3.61205 0
M  V30 2120 H 200.515 0.253489 -0.621277 0
M  V30 2121 H 203.059 0.141798 -2.04008 0
M  V30 2122 H 201.214 2.42205 -3.0235 0
M  V30 2123 H 201.628 1.48672 -5.02988 0
M  V30 2124 H 203.102 3.12773 -4.54838 0
M  V30 2125 H 203.579 3.32958 -2.86419 0
M  V30 2126 H 204.185 1.9352 -3.78722 0
M  V30 2127 N 202.5 1.5196 0.417844 0
M  V30 2128 C 203.748 1.65263 1.16329 0
M  V30 2129 C 204.069 0.380634 1.91249 0
M  V30 2130 O 203.339 -0.604214 1.86349 0
M  V30 2131 H 201.919 0.60912 0.432414 0
M  V30 2132 H 204.581 1.88969 0.477162 0
M  V30 2133 H 203.677 2.4896 1.88217 0
M  V30 2134 N 203.978 -0.674533 1.42435 0
M  V30 2135 C 205.389 -1.25514 1.38214 0
M  V30 2136 C 205.74 -1.96055 0.0755464 0
M  V30 2137 O 204.865 -2.00028 -0.8257 0
M  V30 2138 C 205.46 -2.28269 2.50357 0
M  V30 2139 C 204.019 -2.81856 2.49467 0
M  V30 2140 C 203.166 -1.56182 2.29134 0
M  V30 2141 H 206.117 -0.467902 1.51646 0
M  V30 2142 H 206.138 -3.10009 2.20624 0
M  V30 2143 H 205.65 -1.769 3.45439 0
M  V30 2144 H 203.751 -3.37346 1.58204 0
M  V30 2145 H 203.864 -3.30854 3.46515 0
M  V30 2146 H 202.228 -1.82761 1.774 0
M  V30 2147 H 203.011 -1.06778 3.26272 0
M  V30 2148 N 205.456 -1.28612 -0.910864 0
M  V30 2149 C 206.386 -1.15326 -2.03032 0
M  V30 2150 C 207.367 -0.0502924 -1.70026 0
M  V30 2151 O 208.552 -0.227797 -1.92859 0
M  V30 2152 C 205.682 -0.817343 -3.37545 0
M  V30 2153 C 204.636 -1.8754 -3.84724 0
M  V30 2154 C 203.962 -1.39305 -5.16235 0
M  V30 2155 C 205.262 -3.28244 -4.06267 0
M  V30 2156 H 206.956 -2.08975 -2.14406 0
M  V30 2157 H 204.502 -1.00612 -1.03021 0
M  V30 2158 H 206.455 -0.711151 -4.15356 0
M  V30 2159 H 205.179 0.154846 -3.26233 0
M  V30 2160 H 203.838 -1.97079 -3.09121 0
M  V30 2161 H 203.486 -0.409846 -5.01328 0
M  V30 2162 H 203.186 -2.10057 -5.48771 0
M  V30 2163 H 204.71 -1.30014 -5.96598 0
M  V30 2164 H 206.124 -3.21611 -4.74594 0
M  V30 2165 H 204.521 -3.96855 -4.5014 0
M  V30 2166 H 205.591 -3.72048 -3.10979 0
M  V30 2167 N 206.934 1.1197 -1.10907 0
M  V30 2168 C 208.159 1.87942 -0.877064 0
M  V30 2169 C 208.584 1.79341 0.567314 0
M  V30 2170 O 207.942 1.15184 1.40009 0
M  V30 2171 C 207.99 3.34926 -1.33629 0
M  V30 2172 O 207.094 4.09303 -0.504447 0
M  V30 2173 H 206.435 0.583785 -0.316371 0
M  V30 2174 H 208.965 1.4157 -1.47712 0
M  V30 2175 H 208.975 3.8577 -1.32837 0
M  V30 2176 H 207.65 3.40504 -2.3881 0
M  V30 2177 H 206.227 3.68393 -0.577993 0
M  V30 2178 N 208.412 0.89855 1.29475 0
M  V30 2179 C 209.36 0.365253 2.29714 0
M  V30 2180 C 210.354 -0.534993 1.6073 0
M  V30 2181 O 211.56 -0.417921 1.75081 0
M  V30 2182 H 207.935 0.0994853 0.74539 0
M  V30 2183 H 209.906 1.22406 2.72138 0
M  V30 2184 C 208.655 -0.393159 3.4547 0
M  V30 2185 H 207.978 0.290332 3.98744 0
M  V30 2186 H 209.418 -0.731189 4.17648 0
M  V30 2187 C 207.877 -1.59539 2.9673 0
M  V30 2188 O 208.407 -2.69469 2.97908 0
M  V30 2189 N 206.613 -1.43716 2.52575 0
M  V30 2190 H 206.16 -0.542828 2.51816 0
M  V30 2191 H 206.118 -2.24288 2.20323 0
M  V30 2192 N 209.89 -1.43072 0.660911 0
M  V30 2193 C 211.136 -2.0202 0.177708 0
M  V30 2194 C 211.469 -1.52066 -1.20787 0
M  V30 2195 O 210.744 -0.716987 -1.80802 0
M  V30 2196 C 211.027 -3.59561 0.197019 0
M  V30 2197 C 210.88 -4.19727 1.61706 0
M  V30 2198 C 212.199 -4.37664 -0.462396 0
M  V30 2199 H 209.318 -0.734034 0.0660494 0
M  V30 2200 H 211.96 -1.70272 0.843058 0
M  V30 2201 H 210.11 -3.86739 -0.369527 0
M  V30 2202 H 211.782 -4.03553 2.23479 0
M  V30 2203 H 210.025 -3.76084 2.16201 0
M  V30 2204 H 210.696 -5.28834 1.58237 0
M  V30 2205 H 213.172 -4.16095 0.0197215 0
M  V30 2206 H 212.048 -5.47305 -0.418188 0
M  V30 2207 H 212.309 -4.14493 -1.53778 0
M  V30 2208 N 211.368 -0.403325 -1.52352 0
M  V30 2209 C 212.331 0.413051 -2.25447 0
M  V30 2210 C 213.331 0.978513 -1.276 0
M  V30 2211 O 214.521 0.858305 -1.51587 0
M  V30 2212 C 211.653 1.58087 -3.02029 0
M  V30 2213 H 212.846 -0.227094 -2.99039 0
M  V30 2214 H 210.399 -0.155722 -1.55522 0
M  V30 2215 H 211.134 2.25804 -2.32772 0
M  V30 2216 H 210.919 1.18195 -3.73861 0
M  V30 2217 H 212.409 2.1585 -3.57489 0
M  V30 2218 N 212.846 1.57033 -0.133567 0
M  V30 2219 C 214.092 1.96764 0.515326 0
M  V30 2220 C 214.447 1.01653 1.63353 0
M  V30 2221 O 213.74 0.0491374 1.91537 0
M  V30 2222 C 213.934 3.40674 1.08057 0
M  V30 2223 C 213.763 4.49696 0.0186522 0
M  V30 2224 C 212.533 5.03567 -0.418174 0
M  V30 2225 C 214.731 5.08536 -0.767809 0
M  V30 2226 N 212.713 5.9618 -1.46434 0
M  V30 2227 C 214.084 5.97231 -1.6648 0
M  V30 2228 C 216.139 4.9115 -0.817087 0
M  V30 2229 C 214.842 6.70401 -2.60681 0
M  V30 2230 C 216.868 5.65012 -1.74687 0
M  V30 2231 C 216.23 6.53403 -2.63141 0
M  V30 2232 H 212.329 0.765919 0.157771 0
M  V30 2233 H 214.913 1.93395 -0.22506 0
M  V30 2234 H 213.084 3.44662 1.79061 0
M  V30 2235 H 214.816 3.67495 1.69497 0
M  V30 2236 H 211.571 4.73594 -0.0229803 0
M  V30 2237 H 211.995 6.47191 -1.98678 0
M  V30 2238 H 216.637 4.22543 -0.147326 0
M  V30 2239 H 214.355 7.38245 -3.28664 0
M  V30 2240 H 217.941 5.53559 -1.79063 0
M  V30 2241 H 216.821 7.09556 -3.33917 0
M  V30 2242 N 214.325 -0.140222 1.56975 0
M  V30 2243 C 215.565 -0.857823 1.85528 0
M  V30 2244 C 215.929 -1.78039 0.718768 0
M  V30 2245 O 217.13 -2.53795 0.885521 0
M  V30 2246 C 215.401 -1.60615 3.19277 0
M  V30 2247 S 216.96 -2.36824 3.69405 0
M  V30 2248 H 213.778 -0.286727 0.650622 0
M  V30 2249 H 216.38 -0.117408 1.95147 0
M  V30 2250 H 215.084 -0.919994 3.99955 0
M  V30 2251 H 214.615 -2.38735 3.12681 0
M  V30 2252 H 216.63 -3.62148 3.3921 0
M  V30 2253 N 215.803 -1.52179 -0.40978 0
M  V30 2254 C 217.052 -1.65434 -1.15388 0
M  V30 2255 C 217.365 -0.390056 -1.91671 0
M  V30 2256 O 218.571 -0.402399 -2.68501 0
M  V30 2257 C 217.027 -2.92279 -2.10003 0
M  V30 2258 C 216.635 -4.25813 -1.39239 0
M  V30 2259 C 218.379 -3.14897 -2.84675 0
M  V30 2260 C 216.286 -5.43782 -2.32498 0
M  V30 2261 H 215.216 -0.616267 -0.434432 0
M  V30 2262 H 217.867 -1.78666 -0.418401 0
M  V30 2263 H 216.249 -2.72744 -2.871 0
M  V30 2264 H 217.423 -4.55828 -0.675099 0
M  V30 2265 H 215.738 -4.09292 -0.766097 0
M  V30 2266 H 218.335 -4.0021 -3.54593 0
M  V30 2267 H 218.678 -2.29103 -3.47588 0
M  V30 2268 H 219.211 -3.34901 -2.14677 0
M  V30 2269 H 215.95 -6.3192 -1.74233 0
M  V30 2270 H 215.47 -5.18106 -3.02201 0
M  V30 2271 H 217.149 -5.76834 -2.93038 0
M  V30 2272 N 217.281 0.66697 -1.42791 0
M  V30 2273 C 218.558 1.4234 -1.34159 0
M  V30 2274 C 218.938 2.11093 0.0172729 0
M  V30 2275 O 218.286 2.03808 1.03318 0
M  V30 2276 C 218.496 2.41942 -2.51526 0
M  V30 2277 C 219.844 3.06353 -2.93995 0
M  V30 2278 O 220.868 2.52269 -2.51473 0
M  V30 2279 O 219.727 4.04376 -3.67617 0
M  V30 2280 H 216.821 0.635277 -0.529483 0
M  V30 2281 H 219.367 0.695034 -1.54814 0
M  V30 2282 H 218.139 1.89991 -3.42081 0
M  V30 2283 H 217.762 3.22249 -2.32898 0
M  V30 2284 N 218.759 1.29093 0.90403 0
M  V30 2285 C 219.706 1.13853 2.00764 0
M  V30 2286 C 220.676 0.0330084 1.66067 0
M  V30 2287 O 221.861 0.199733 1.89752 0
M  V30 2288 C 219.001 0.816537 3.35301 0
M  V30 2289 C 218.114 2.00206 3.82807 0
M  V30 2290 C 217.249 1.61983 5.059 0
M  V30 2291 C 216.288 2.77143 5.45764 0
M  V30 2292 N 215.425 2.39346 6.60044 0
M  V30 2293 H 220.265 2.08276 2.13132 0
M  V30 2294 H 217.802 1.03648 1.04381 0
M  V30 2295 H 219.76 0.610557 4.12708 0
M  V30 2296 H 218.39 -0.090779 3.22672 0
M  V30 2297 H 217.442 2.31988 3.01473 0
M  V30 2298 H 218.754 2.86512 4.08304 0
M  V30 2299 H 217.908 1.37649 5.90879 0
M  V30 2300 H 216.647 0.728202 4.82233 0
M  V30 2301 H 215.652 3.02165 4.59322 0
M  V30 2302 H 216.877 3.66964 5.71414 0
M  V30 2303 H 214.823 1.52665 6.37989 0
M  V30 2304 H 214.74 3.19185 6.85315 0
M  V30 2305 H 216.008 2.1832 7.48303 0
M  V30 2306 N 220.237 -1.11381 1.11499 0
M  V30 2307 C 221.467 -1.86663 0.885464 0
M  V30 2308 C 221.875 -1.80464 -0.568281 0
M  V30 2309 O 221.218 -1.18445 -1.40415 0
M  V30 2310 C 221.28 -3.36337 1.26956 0
M  V30 2311 C 220.944 -3.66304 2.73259 0
M  V30 2312 C 221.941 -3.63733 3.71476 0
M  V30 2313 C 219.626 -3.9529 3.09921 0
M  V30 2314 C 221.62 -3.89725 5.04374 0
M  V30 2315 C 219.307 -4.20941 4.43004 0
M  V30 2316 C 220.305 -4.18147 5.40039 0
M  V30 2317 O 219.993 -4.43153 6.70724 0
M  V30 2318 H 219.725 -0.597114 0.316908 0
M  V30 2319 H 222.279 -1.41782 1.48617 0
M  V30 2320 H 220.509 -3.81826 0.611999 0
M  V30 2321 H 222.198 -3.92986 1.01573 0
M  V30 2322 H 222.964 -3.41389 3.44498 0
M  V30 2323 H 218.843 -3.966 2.35009 0
M  V30 2324 H 222.387 -3.8746 5.80104 0
M  V30 2325 H 218.284 -4.42761 4.69716 0
M  V30 2326 H 219.052 -4.60717 6.76522 0
M  V30 2327 N 221.715 -0.905404 -1.28997 0
M  V30 2328 C 222.963 -0.533192 -1.9494 0
M  V30 2329 C 223.284 0.924618 -1.71685 0
M  V30 2330 O 222.554 1.65268 -1.05183 0
M  V30 2331 H 221.134 -0.194194 -0.721317 0
M  V30 2332 H 223.796 -1.15294 -1.57141 0
M  V30 2333 H 222.892 -0.72059 -3.03667 0
M  V30 2334 N 223.193 1.4272 -0.668489 0
M  V30 2335 C 224.103 2.34596 0.0139753 0
M  V30 2336 C 225.119 1.5474 0.795703 0
M  V30 2337 O 226.295 1.87334 0.739466 0
M  V30 2338 C 223.36 3.33202 0.957982 0
M  V30 2339 C 222.421 4.28957 0.17149 0
M  V30 2340 C 221.654 5.22853 1.07053 0
M  V30 2341 O 221.877 5.21531 2.31001 0
M  V30 2342 O 220.811 5.9952 0.534727 0
M  V30 2343 H 224.637 2.9448 -0.742661 0
M  V30 2344 H 222.222 1.43117 -0.428705 0
M  V30 2345 H 224.104 3.93796 1.50008 0
M  V30 2346 H 222.779 2.758 1.69458 0
M  V30 2347 H 221.686 3.71796 -0.414558 0
M  V30 2348 H 223.019 4.89383 -0.52586 0
M  V30 2349 N 224.671 0.411399 1.52136 0
M  V30 2350 C 225.618 -0.412975 2.27075 0
M  V30 2351 C 226.588 -1.03912 1.29582 0
M  V30 2352 O 227.773 -1.06296 1.58448 0
M  V30 2353 C 224.913 -1.52247 3.09701 0
M  V30 2354 C 224.026 -0.917021 4.22155 0
M  V30 2355 C 223.161 -1.9994 4.92135 0
M  V30 2356 C 222.2 -1.37101 5.96548 0
M  V30 2357 N 221.337 -2.39364 6.60038 0
M  V30 2358 H 226.177 0.232499 2.97092 0
M  V30 2359 H 223.714 0.126496 1.46555 0
M  V30 2360 H 225.672 -2.17674 3.55913 0
M  V30 2361 H 224.302 -2.13794 2.41851 0
M  V30 2362 H 223.354 -0.151742 3.80097 0
M  V30 2363 H 224.666 -0.418006 4.97045 0
M  V30 2364 H 223.82 -2.73088 5.41763 0
M  V30 2365 H 222.559 -2.53208 4.16818 0
M  V30 2366 H 221.564 -0.624873 5.46237 0
M  V30 2367 H 222.789 -0.845998 6.7381 0
M  V30 2368 H 220.735 -2.91759 5.87548 0
M  V30 2369 H 220.652 -1.9428 7.3061 0
M  V30 2370 H 221.92 -3.12074 7.14304 0
M  V30 2371 N 226.149 -1.5696 0.141893 0
M  V30 2372 C 227.396 -1.9596 -0.510492 0
M  V30 2373 C 227.724 -1.02648 -1.65208 0
M  V30 2374 O 226.979 -0.0546947 -1.95624 0
M  V30 2375 C 227.278 -3.41242 -1.06249 0
M  V30 2376 C 226.944 -4.50882 -0.0398791 0
M  V30 2377 C 225.606 -4.80595 0.241247 0
M  V30 2378 C 227.958 -5.17058 0.65578 0
M  V30 2379 C 225.286 -5.73792 1.22393 0
M  V30 2380 C 227.638 -6.11313 1.62724 0
M  V30 2381 C 226.302 -6.39407 1.91612 0
M  V30 2382 H 225.572 -0.717068 -0.186802 0
M  V30 2383 H 228.219 -1.90142 0.227643 0
M  V30 2384 H 226.524 -3.43866 -1.87785 0
M  V30 2385 H 228.221 -3.68742 -1.57576 0
M  V30 2386 H 224.811 -4.27754 -0.269174 0
M  V30 2387 H 228.995 -4.94239 0.451779 0
M  V30 2388 H 224.251 -5.93853 1.45424 0
M  V30 2389 H 228.425 -6.61668 2.17183 0
M  V30 2390 H 226.052 -7.11427 2.6791 0
M  V30 2391 N 227.627 0.131896 -1.57047 0
M  V30 2392 C 228.855 0.856461 -1.88341 0
M  V30 2393 C 229.27 1.74042 -0.731757 0
M  V30 2394 O 228.627 1.80051 0.297945 0
M  V30 2395 C 228.678 1.70064 -3.18999 0
M  V30 2396 O 228.399 0.852278 -4.2973 0
M  V30 2397 C 229.9 2.53148 -3.63911 0
M  V30 2398 H 227.12 0.246885 -0.62393 0
M  V30 2399 H 229.664 0.120152 -2.04147 0
M  V30 2400 H 227.819 2.38984 -3.04902 0
M  V30 2401 H 228.233 1.43329 -5.04537 0
M  V30 2402 H 229.707 3.07931 -4.58129 0
M  V30 2403 H 230.184 3.29901 -2.89935 0
M  V30 2404 H 230.79 1.89492 -3.80753 0
M  V30 2405 N 229.106 1.52395 0.401703 0
M  V30 2406 C 230.331 1.70972 1.17403 0
M  V30 2407 C 230.756 0.421615 1.83314 0
M  V30 2408 O 230.114 -0.621564 1.70312 0
M  V30 2409 C 230.162 2.85151 2.20728 0
M  V30 2410 O 229.266 2.51238 3.27037 0
M  V30 2411 H 228.607 0.568927 0.342372 0
M  V30 2412 H 231.137 1.99131 0.469891 0
M  V30 2413 H 231.147 3.10279 2.64936 0
M  V30 2414 H 229.822 3.78603 1.7214 0
M  V30 2415 H 228.399 2.36808 2.88057 0
M  V30 2416 N 230.584 -0.659388 1.43143 0
M  V30 2417 C 231.531 -1.77249 1.47822 0
M  V30 2418 C 232.501 -1.62818 0.328558 0
M  V30 2419 O 233.686 -1.83151 0.534838 0
M  V30 2420 C 230.826 -3.15371 1.40126 0
M  V30 2421 C 229.939 -3.4098 2.65249 0
M  V30 2422 C 229.074 -4.68915 2.49584 0
M  V30 2423 C 228.113 -4.87608 3.70006 0
M  V30 2424 N 227.25 -6.06796 3.53189 0
M  V30 2425 H 232.09 -1.72584 2.42938 0
M  V30 2426 H 229.627 -0.842297 1.20598 0
M  V30 2427 H 231.585 -3.9521 1.33659 0
M  V30 2428 H 230.215 -3.19121 0.485964 0
M  V30 2429 H 229.267 -2.55282 2.8202 0
M  V30 2430 H 230.579 -3.50681 3.54717 0
M  V30 2431 H 229.733 -5.56871 2.4079 0
M  V30 2432 H 228.472 -4.61524 1.5763 0
M  V30 2433 H 227.477 -3.9809 3.79215 0
M  V30 2434 H 228.702 -4.96834 4.62961 0
M  V30 2435 H 226.648 -6.00549 2.63965 0
M  V30 2436 H 226.565 -6.17428 4.36255 0
M  V30 2437 H 227.833 -6.9739 3.48236 0
M  V30 2438 N 232.062 -1.29571 -0.897171 0
M  V30 2439 C 233.308 -1.17863 -1.65034 0
M  V30 2440 C 233.641 0.268729 -1.92332 0
M  V30 2441 O 232.916 1.19378 -1.53555 0
M  V30 2442 C 233.199 -1.995 -2.99786 0
M  V30 2443 C 233.052 -3.5239 -2.79538 0
M  V30 2444 C 234.371 -1.82335 -4.00552 0
M  V30 2445 H 231.49 -0.429528 -0.598895 0
M  V30 2446 H 234.132 -1.59072 -1.03905 0
M  V30 2447 H 232.282 -1.64485 -3.51962 0
M  V30 2448 H 233.954 -3.97401 -2.34244 0
M  V30 2449 H 232.197 -3.77187 -2.14273 0
M  V30 2450 H 232.868 -4.04787 -3.75302 0
M  V30 2451 H 235.344 -2.12924 -3.57495 0
M  V30 2452 H 234.22 -2.41801 -4.92771 0
M  V30 2453 H 234.481 -0.779209 -4.35179 0
M  V30 2454 N 233.54 1.10788 -1.12088 0
M  V30 2455 C 234.45 2.20599 -0.798338 0
M  V30 2456 C 235.466 1.72712 0.21135 0
M  V30 2457 O 236.642 2.01348 0.0458477 0
M  V30 2458 C 233.707 3.45771 -0.253674 0
M  V30 2459 C 232.768 4.08411 -1.32283 0
M  V30 2460 C 232.001 5.27608 -0.80406 0
M  V30 2461 O 232.224 5.69241 0.363478 0
M  V30 2462 O 231.158 5.8101 -1.57198 0
M  V30 2463 H 234.984 2.50614 -1.7154 0
M  V30 2464 H 232.569 1.19454 -0.897275 0
M  V30 2465 H 234.451 4.21376 0.0453691 0
M  V30 2466 H 233.126 3.1739 0.636005 0
M  V30 2467 H 232.033 3.34507 -1.67499 0
M  V30 2468 H 233.366 4.40986 -2.18614 0
M  V30 2469 N 235.018 0.912232 1.28515 0
M  V30 2470 C 235.928 0.404506 2.31086 0
M  V30 2471 C 236.944 -0.50707 1.66448 0
M  V30 2472 O 238.12 -0.393624 1.97516 0
M  V30 2473 C 235.185 -0.348572 3.44943 0
M  V30 2474 C 234.246 0.59604 4.25142 0
M  V30 2475 C 233.479 -0.121194 5.33562 0
M  V30 2476 O 233.702 -1.34317 5.5436 0
M  V30 2477 O 232.636 0.542716 5.99448 0
M  V30 2478 H 236.462 1.25579 2.76521 0
M  V30 2479 H 234.047 0.676998 1.33181 0
M  V30 2480 H 235.929 -0.77395 4.14232 0
M  V30 2481 H 234.604 -1.17571 3.01594 0
M  V30 2482 H 233.511 1.07079 3.58448 0
M  V30 2483 H 234.844 1.38995 4.72167 0
M  V30 2484 N 236.496 -1.42363 0.676048 0
M  V30 2485 C 237.736 -2.03392 0.20273 0
M  V30 2486 C 238.1 -1.52306 -1.16906 0
M  V30 2487 O 239.301 -2.05129 -1.73711 0
M  V30 2488 C 237.572 -3.56614 0.236947 0
M  V30 2489 S 239.131 -4.38489 -0.165186 0
M  V30 2490 H 235.949 -0.70611 0.0832418 0
M  V30 2491 H 238.551 -1.74093 0.88948 0
M  V30 2492 H 237.255 -3.91293 1.23767 0
M  V30 2493 H 236.786 -3.90587 -0.469596 0
M  V30 2494 H 238.801 -4.76093 -1.39822 0
M  V30 2495 N 237.974 -0.419461 -1.51915 0
M  V30 2496 C 239.22 0.153166 -2.02221 0
M  V30 2497 C 239.553 1.43907 -1.30401 0
M  V30 2498 O 238.828 1.90055 -0.413438 0
M  V30 2499 C 239.111 0.390291 -3.57979 0
M  V30 2500 C 238.964 -0.913014 -4.40436 0
M  V30 2501 C 240.283 1.16794 -4.2432 0
M  V30 2502 H 237.402 0.0541924 -0.735005 0
M  V30 2503 H 240.044 -0.554955 -1.81715 0
M  V30 2504 H 238.194 0.993491 -3.75582 0
M  V30 2505 H 239.866 -1.54882 -4.34522 0
M  V30 2506 H 238.109 -1.52168 -4.06236 0
M  V30 2507 H 238.78 -0.701361 -5.47526 0
M  V30 2508 H 241.256 0.657161 -4.10878 0
M  V30 2509 H 240.132 1.3026 -5.3322 0
M  V30 2510 H 240.393 2.19132 -3.83971 0
M  V30 2511 N 239.452 1.56882 -0.150215 0
M  V30 2512 C 240.701 1.95403 0.500071 0
M  V30 2513 C 241.014 1.03777 1.658 0
M  V30 2514 O 242.22 1.31889 2.37313 0
M  V30 2515 C 240.676 3.4738 0.941018 0
M  V30 2516 C 240.284 4.47596 -0.190158 0
M  V30 2517 C 242.028 3.9476 1.56091 0
M  V30 2518 C 239.935 5.90787 0.269237 0
M  V30 2519 H 238.865 0.729515 0.190588 0
M  V30 2520 H 241.516 1.81988 -0.235074 0
M  V30 2521 H 239.898 3.56138 1.73152 0
M  V30 2522 H 241.072 4.50536 -0.967157 0
M  V30 2523 H 239.387 4.10151 -0.718666 0
M  V30 2524 H 241.984 4.99181 1.9163 0
M  V30 2525 H 242.327 3.36494 2.45107 0
M  V30 2526 H 242.86 3.88932 0.835249 0
M  V30 2527 H 239.599 6.52879 -0.585621 0
M  V30 2528 H 239.119 5.912 1.01204 0
M  V30 2529 H 240.798 6.42979 0.720176 0
M  V30 2530 N 240.93 -0.123565 1.57115 0
M  V30 2531 C 241.863 -1.18202 1.95201 0
M  V30 2532 C 242.841 -1.40349 0.821031 0
M  V30 2533 O 244.025 -1.54578 1.07879 0
M  V30 2534 C 241.152 -2.53671 2.24429 0
M  V30 2535 C 240.198 -2.4798 3.46999 0
M  V30 2536 S 241.031 -1.92389 4.99747 0
M  V30 2537 C 242.187 -3.2954 5.32123 0
M  V30 2538 H 242.42 -0.857212 2.84674 0
M  V30 2539 H 239.953 -0.33014 1.50829 0
M  V30 2540 H 241.911 -3.3162 2.41947 0
M  V30 2541 H 240.572 -2.83332 1.35579 0
M  V30 2542 H 239.765 -3.47758 3.64801 0
M  V30 2543 H 239.367 -1.7815 3.28844 0
M  V30 2544 H 241.659 -4.25736 5.27025 0
M  V30 2545 H 242.602 -3.16569 6.33395 0
M  V30 2546 H 243.01 -3.27758 4.59603 0
M  V30 2547 N 242.408 -1.52605 -0.393616 0
M  V30 2548 C 243.656 -1.67093 -1.13685 0
M  V30 2549 C 243.977 -0.411011 -1.90619 0
M  V30 2550 O 243.247 0.574491 -1.87287 0
M  V30 2551 H 241.827 -0.615923 -0.422668 0
M  V30 2552 H 244.489 -1.89704 -0.447039 0
M  V30 2553 H 243.585 -2.51922 -1.84232 0
M  V30 2554 N 243.887 0.651787 -1.4349 0
M  V30 2555 C 245.135 1.40888 -1.44897 0
M  V30 2556 C 245.456 1.94856 -0.0749086 0
M  V30 2557 O 244.726 1.74518 0.889956 0
M  V30 2558 H 243.306 0.522887 -0.533478 0
M  V30 2559 H 245.968 0.768609 -1.79104 0
M  V30 2560 H 245.064 2.25052 -2.16236 0
M  V30 2561 N 245.365 1.30045 0.890287 0
M  V30 2562 C 246.328 1.15963 1.977 0
M  V30 2563 C 247.328 0.0923777 1.60534 0
M  V30 2564 O 248.518 0.340071 1.70848 0
M  V30 2565 C 245.65 0.775451 3.31963 0
M  V30 2566 H 246.843 2.12502 2.11619 0
M  V30 2567 H 244.396 1.13366 1.07601 0
M  V30 2568 H 245.131 -0.189671 3.23745 0
M  V30 2569 H 244.916 1.54668 3.60306 0
M  V30 2570 H 246.406 0.700251 4.11687 0
M  V30 2571 N 246.843 -1.10192 1.12674 0
M  V30 2572 C 248.089 -1.82475 0.884915 0
M  V30 2573 C 248.422 -1.85093 -0.58773 0
M  V30 2574 O 247.697 -1.3134 -1.43457 0
M  V30 2575 C 247.98 -3.29018 1.46353 0
M  V30 2576 C 247.833 -3.34718 3.00473 0
M  V30 2577 C 249.152 -4.25473 1.12519 0
M  V30 2578 H 246.271 -0.662492 0.322915 0
M  V30 2579 H 248.913 -1.2913 1.39375 0
M  V30 2580 H 247.063 -3.74576 1.03077 0
M  V30 2581 H 248.735 -2.97622 3.52447 0
M  V30 2582 H 246.978 -2.74541 3.35872 0
M  V30 2583 H 247.649 -4.37918 3.36053 0
M  V30 2584 H 250.125 -3.88161 1.499 0
M  V30 2585 H 249.001 -5.26365 1.55663 0
M  V30 2586 H 249.262 -4.42084 0.0377407 0
M  V30 2587 N 248.321 -0.919034 -1.28029 0
M  V30 2588 C 249.598 -0.473668 -1.89778 0
M  V30 2589 C 249.978 1.04783 -1.83259 0
M  V30 2590 O 249.326 1.8982 -1.27202 0
M  V30 2591 C 249.536 -1.00998 -3.34066 0
M  V30 2592 C 250.884 -1.06525 -4.1102 0
M  V30 2593 O 251.908 -0.958996 -3.43048 0
M  V30 2594 O 250.767 -1.22776 -5.3253 0
M  V30 2595 H 247.861 -0.15098 -0.813101 0
M  V30 2596 H 250.407 -1.01016 -1.36359 0
M  V30 2597 H 249.179 -2.05392 -3.33061 0
M  V30 2598 H 248.802 -0.454626 -3.94992 0
M  V30 2599 N 249.799 1.42003 -0.683588 0
M  V30 2600 C 251.045 2.01712 -0.209825 0
M  V30 2601 C 251.378 1.53968 1.18353 0
M  V30 2602 O 250.653 0.745661 1.79639 0
M  V30 2603 C 250.936 3.59202 -0.254197 0
M  V30 2604 C 250.789 4.17102 -1.68363 0
M  V30 2605 C 252.108 4.38344 0.392709 0
M  V30 2606 H 249.227 0.732891 -0.0777189 0
M  V30 2607 H 251.869 1.68909 -0.87004 0
M  V30 2608 H 250.019 3.87278 0.307954 0
M  V30 2609 H 251.691 3.99946 -2.29871 0
M  V30 2610 H 249.934 3.72597 -2.22157 0
M  V30 2611 H 250.605 5.26249 -1.6663 0
M  V30 2612 H 253.081 4.16011 -0.0859162 0
M  V30 2613 H 251.957 5.47901 0.331063 0
M  V30 2614 H 252.218 4.16887 1.47164 0
M  V30 2615 N 251.277 0.427512 1.51691 0
M  V30 2616 C 252.693 0.0792977 1.59403 0
M  V30 2617 C 252.893 -1.41035 1.43914 0
M  V30 2618 O 251.949 -2.17922 1.27539 0
M  V30 2619 C 253.262 0.590636 2.94842 0
M  V30 2620 C 254.81 0.550215 3.08126 0
M  V30 2621 C 255.285 1.03836 4.46074 0
M  V30 2622 N 256.776 0.995943 4.52366 0
M  V30 2623 C 257.511 1.34463 5.57411 0
M  V30 2624 N 257.007 1.76569 6.69922 0
M  V30 2625 N 258.8 1.26343 5.47717 0
M  V30 2626 H 250.951 1.39687 1.60004 0
M  V30 2627 H 253.214 0.575003 0.753708 0
M  V30 2628 H 252.92 1.63251 3.11516 0
M  V30 2629 H 252.794 0.0102061 3.77199 0
M  V30 2630 H 255.181 -0.482654 2.91126 0
M  V30 2631 H 255.262 1.16693 2.27632 0
M  V30 2632 H 254.906 2.06965 4.63819 0
M  V30 2633 H 254.836 0.398286 5.25092 0
M  V30 2634 H 257.327 0.68661 3.7161 0
M  V30 2635 H 257.64 2.01438 7.46085 0
M  V30 2636 H 255.985 1.80488 6.71155 0
M  V30 2637 H 259.176 0.933209 4.58703 0
M  V30 2638 H 259.349 1.53846 6.29472 0
M  V30 2639 N 252.755 -1.56801 0.158532 0
M  V30 2640 C 254.003 -1.96102 -0.488712 0
M  V30 2641 C 254.324 -1.04498 -1.64636 0
M  V30 2642 O 253.594 -0.108783 -1.95598 0
M  V30 2643 H 252.174 -0.724102 -0.183535 0
M  V30 2644 H 254.836 -1.93457 0.236728 0
M  V30 2645 H 253.932 -3.00097 -0.857219 0
M  V30 2646 N 254.233 0.115231 -1.57178 0
M  V30 2647 C 255.181 1.16014 -2.01602 0
M  V30 2648 C 256.175 1.42653 -0.913587 0
M  V30 2649 O 257.381 1.42571 -1.09879 0
M  V30 2650 H 253.756 0.391252 -0.642204 0
M  V30 2651 H 255.727 0.758998 -2.88586 0
M  V30 2652 C 254.476 2.47767 -2.4394 0
M  V30 2653 H 253.799 2.28108 -3.28339 0
M  V30 2654 H 255.239 3.19432 -2.78818 0
M  V30 2655 C 253.698 3.10617 -1.30455 0
M  V30 2656 O 254.228 3.96846 -0.622585 0
M  V30 2657 N 252.434 2.70553 -1.06064 0
M  V30 2658 H 251.981 2.00527 -1.61699 0
M  V30 2659 H 251.939 3.12934 -0.303284 0
M  V30 2660 N 255.711 1.52812 0.385517 0
M  V30 2661 C 256.957 1.68275 1.13188 0
M  V30 2662 C 257.29 0.423179 1.89533 0
M  V30 2663 O 256.565 -0.579113 1.85679 0
M  V30 2664 C 256.848 2.92001 2.1073 0
M  V30 2665 C 256.701 4.28067 1.38125 0
M  V30 2666 C 258.02 3.11283 3.11113 0
M  V30 2667 H 255.139 0.612352 0.410115 0
M  V30 2668 H 257.781 1.85415 0.414869 0
M  V30 2669 H 255.931 2.77519 2.71874 0
M  V30 2670 H 257.603 4.54324 0.799187 0
M  V30 2671 H 255.846 4.28388 0.683092 0
M  V30 2672 H 256.517 5.10733 2.09417 0
M  V30 2673 H 258.993 3.2482 2.6006 0
M  V30 2674 H 257.869 3.99325 3.76605 0
M  V30 2675 H 258.13 2.25656 3.80173 0
M  V30 2676 N 257.189 -0.644168 1.43834 0
M  V30 2677 C 258.436 -1.40395 1.4593 0
M  V30 2678 C 258.764 -1.94305 0.0869658 0
M  V30 2679 O 258.019 -1.73288 -0.909378 0
M  V30 2680 C 258.318 -2.59615 2.45631 0
M  V30 2681 C 257.984 -2.2407 3.91284 0
M  V30 2682 C 256.646 -2.14089 4.30952 0
M  V30 2683 C 258.998 -1.95775 4.83034 0
M  V30 2684 C 256.326 -1.73981 5.6031 0
M  V30 2685 C 258.678 -1.57163 6.12766 0
M  V30 2686 C 257.342 -1.45713 6.51402 0
M  V30 2687 H 256.612 -0.513741 0.533995 0
M  V30 2688 H 259.259 -0.731724 1.76969 0
M  V30 2689 H 257.564 -3.32011 2.08028 0
M  V30 2690 H 259.261 -3.17834 2.44504 0
M  V30 2691 H 255.851 -2.32753 3.59895 0
M  V30 2692 H 260.035 -2.02403 4.53152 0
M  V30 2693 H 255.291 -1.63709 5.89075 0
M  V30 2694 H 259.465 -1.34303 6.83327 0
M  V30 2695 H 257.092 -1.14406 7.51542 0
M  V30 2696 N 258.668 -1.30515 -0.883378 0
M  V30 2697 C 259.598 -1.19607 -2.00541 0
M  V30 2698 C 260.579 -0.086346 -1.69881 0
M  V30 2699 O 261.764 -0.268654 -1.92333 0
M  V30 2700 C 258.894 -0.888758 -3.35736 0
M  V30 2701 C 257.848 -1.95659 -3.8066 0
M  V30 2702 C 257.174 -1.50224 -5.13164 0
M  V30 2703 C 258.474 -3.36788 -3.99213 0
M  V30 2704 H 260.168 -2.13476 -2.09925 0
M  V30 2705 H 257.714 -1.02775 -1.00863 0
M  V30 2706 H 259.667 -0.799094 -4.13754 0
M  V30 2707 H 258.391 0.0856125 -3.26488 0
M  V30 2708 H 257.05 -2.03591 -3.04871 0
M  V30 2709 H 256.698 -0.516092 -5.00345 0
M  V30 2710 H 256.398 -2.2165 -5.44192 0
M  V30 2711 H 257.922 -1.42639 -5.93706 0
M  V30 2712 H 259.336 -3.31605 -4.67665 0
M  V30 2713 H 257.733 -4.06314 -4.41621 0
M  V30 2714 H 258.803 -3.78561 -3.03017 0
M  V30 2715 N 260.146 1.09593 -1.13257 0
M  V30 2716 C 261.557 1.63229 -0.906274 0
M  V30 2717 C 261.908 1.8811 0.557578 0
M  V30 2718 O 261.033 1.62953 1.42391 0
M  V30 2719 C 261.628 2.96535 -1.63867 0
M  V30 2720 C 260.187 3.47003 -1.45828 0
M  V30 2721 C 259.334 2.2145 -1.66898 0
M  V30 2722 H 262.285 0.92978 -1.28611 0
M  V30 2723 H 262.306 3.64411 -1.09476 0
M  V30 2724 H 261.818 2.78394 -2.70404 0
M  V30 2725 H 259.919 3.70272 -0.415848 0
M  V30 2726 H 260.032 4.24551 -2.2202 0
M  V30 2727 H 258.396 2.30022 -1.09371 0
M  V30 2728 H 259.179 2.0583 -2.74752 0
M  V30 2729 N 261.624 0.925811 1.2754 0
M  V30 2730 C 262.849 0.580924 1.99098 0
M  V30 2731 C 263.274 -0.833555 1.68622 0
M  V30 2732 O 262.632 -1.55903 0.925422 0
M  V30 2733 C 262.68 0.811186 3.51358 0
M  V30 2734 O 261.784 -0.124129 4.12213 0
M  V30 2735 H 261.125 0.223873 0.625122 0
M  V30 2736 H 263.655 1.24455 1.62395 0
M  V30 2737 H 263.665 0.72601 4.01489 0
M  V30 2738 H 262.34 1.84227 3.72872 0
M  V30 2739 H 260.917 0.0108006 3.72898 0
M  V30 2740 N 263.102 -1.41638 0.69111 0
M  V30 2741 C 264.33 -2.05628 0.22909 0
M  V30 2742 C 264.745 -1.51992 -1.11999 0
M  V30 2743 O 264.102 -0.666322 -1.69901 0
M  V30 2744 C 264.153 -3.61084 0.173283 0
M  V30 2745 O 263.874 -4.12735 1.46907 0
M  V30 2746 C 265.375 -4.42213 -0.310266 0
M  V30 2747 H 262.595 -0.662327 0.107534 0
M  V30 2748 H 265.139 -1.81489 0.942438 0
M  V30 2749 H 263.294 -3.84278 -0.490858 0
M  V30 2750 H 263.708 -5.06743 1.35322 0
M  V30 2751 H 265.182 -5.51194 -0.298196 0
M  V30 2752 H 265.659 -4.1799 -1.34838 0
M  V30 2753 H 266.265 -4.24074 0.322716 0
M  V30 2754 N 264.58 -0.43555 -1.51462 0
M  V30 2755 C 265.857 0.191364 -1.94662 0
M  V30 2756 C 266.237 1.60254 -1.37411 0
M  V30 2757 O 265.585 2.2152 -0.560458 0
M  V30 2758 C 265.795 0.17091 -3.48581 0
M  V30 2759 C 267.143 0.377357 -4.2292 0
M  V30 2760 O 268.167 0.249104 -3.55328 0
M  V30 2761 O 267.026 0.63247 -5.42828 0
M  V30 2762 H 264.12 0.130932 -0.816569 0
M  V30 2763 H 266.666 -0.4934 -1.62369 0
M  V30 2764 H 265.438 -0.815738 -3.82703 0
M  V30 2765 H 265.061 0.898659 -3.87311 0
M  V30 2766 N 266.058 1.56714 -0.166846 0
M  V30 2767 C 267.306 1.96358 0.478305 0
M  V30 2768 C 267.627 1.0537 1.6408 0
M  V30 2769 O 266.897 0.119154 1.95537 0
M  V30 2770 H 265.477 0.725065 0.179692 0
M  V30 2771 H 268.139 1.93329 -0.246985 0
M  V30 2772 H 267.235 3.00547 0.841292 0
M  V30 2773 N 267.536 -0.106894 1.57237 0
M  V30 2774 C 268.764 -0.826389 1.8968 0
M  V30 2775 C 269.179 -1.72856 0.759353 0
M  V30 2776 O 268.536 -1.80503 -0.269263 0
M  V30 2777 C 268.587 -1.64967 3.21665 0
M  V30 2778 O 268.308 -0.783804 4.31031 0
M  V30 2779 C 269.809 -2.47326 3.67892 0
M  V30 2780 H 267.029 -0.236927 0.627779 0
M  V30 2781 H 269.573 -0.0876593 2.04312 0
M  V30 2782 H 267.728 -2.34103 3.08666 0
M  V30 2783 H 268.142 -1.35284 5.06753 0
M  V30 2784 H 269.616 -3.00604 4.6297 0
M  V30 2785 H 270.093 -3.25247 2.95146 0
M  V30 2786 H 270.699 -1.83411 3.83719 0
M  V30 2787 N 269.014 -1.53014 -0.377408 0
M  V30 2788 C 269.977 -1.77957 -1.44444 0
M  V30 2789 C 270.977 -0.649763 -1.47087 0
M  V30 2790 O 272.167 -0.917897 -1.48055 0
M  V30 2791 C 269.299 -1.89089 -2.83651 0
M  V30 2792 H 270.492 -2.73243 -1.23606 0
M  V30 2793 H 268.045 -1.43912 -0.609844 0
M  V30 2794 H 268.78 -0.958293 -3.09818 0
M  V30 2795 H 268.565 -2.71254 -2.83132 0
M  V30 2796 H 270.055 -2.1002 -3.60945 0
M  V30 2797 N 270.492 0.636531 -1.44174 0
M  V30 2798 C 271.402 1.77754 -1.53103 0
M  V30 2799 C 272.418 1.68928 -0.417034 0
M  V30 2800 O 273.594 1.89801 -0.6736 0
M  V30 2801 C 270.659 3.14115 -1.46741 0
M  V30 2802 C 269.72 3.34612 -2.68948 0
M  V30 2803 C 268.953 4.64467 -2.6288 0
M  V30 2804 O 269.176 5.44919 -1.68581 0
M  V30 2805 O 268.11 4.87049 -3.53648 0
M  V30 2806 H 271.936 1.73174 -2.49489 0
M  V30 2807 H 269.521 0.79709 -1.2636 0
M  V30 2808 H 271.403 3.95412 -1.45696 0
M  V30 2809 H 270.078 3.19249 -0.534975 0
M  V30 2810 H 268.985 2.53014 -2.75562 0
M  V30 2811 H 270.318 3.34336 -3.61221 0
M  V30 2812 N 271.97 1.30982 0.876444 0
M  V30 2813 C 273.216 1.21484 1.63136 0
M  V30 2814 C 273.571 -0.226339 1.91064 0
M  V30 2815 O 272.864 -1.15788 1.52656 0
M  V30 2816 C 273.058 1.98572 2.9716 0
M  V30 2817 C 272.887 3.50039 2.82317 0
M  V30 2818 C 271.657 4.19393 2.81847 0
M  V30 2819 C 273.855 4.45111 2.57644 0
M  V30 2820 N 271.837 5.57061 2.57985 0
M  V30 2821 C 273.208 5.70402 2.42986 0
M  V30 2822 C 275.263 4.3461 2.42937 0
M  V30 2823 C 273.966 6.8638 2.15115 0
M  V30 2824 C 275.992 5.50365 2.16454 0
M  V30 2825 C 275.354 6.74642 2.02578 0
M  V30 2826 H 271.453 0.499632 0.601575 0
M  V30 2827 H 274.037 1.65094 1.03209 0
M  V30 2828 H 272.208 1.5734 3.55104 0
M  V30 2829 H 273.94 1.81146 3.61895 0
M  V30 2830 H 270.695 3.71303 2.93991 0
M  V30 2831 H 271.119 6.29529 2.49043 0
M  V30 2832 H 275.761 3.39199 2.52396 0
M  V30 2833 H 273.479 7.81824 2.04394 0
M  V30 2834 H 277.065 5.44154 2.05884 0
M  V30 2835 H 275.945 7.62699 1.82374 0
M  V30 2836 N 273.449 -1.08991 1.13837 0
M  V30 2837 C 274.397 -2.17841 0.815347 0
M  V30 2838 C 275.391 -1.68164 -0.204233 0
M  V30 2839 O 276.597 -1.79897 -0.0609304 0
M  V30 2840 H 272.972 -0.710654 0.245915 0
M  V30 2841 H 274.943 -2.42315 1.74143 0
M  V30 2842 C 273.692 -3.46381 0.302614 0
M  V30 2843 H 273.015 -3.84979 1.0785 0
M  V30 2844 H 274.455 -4.23844 0.115074 0
M  V30 2845 C 272.914 -3.22556 -0.972591 0
M  V30 2846 O 273.444 -3.45599 -2.04754 0
M  V30 2847 N 271.65 -2.76134 -0.905455 0
M  V30 2848 H 271.197 -2.57582 -0.0305421 0
M  V30 2849 H 271.155 -2.60571 -1.75926 0
M  V30 2850 N 274.927 -0.932562 -1.27047 0
M  V30 2851 C 276.176 -0.571351 -1.93439 0
M  V30 2852 C 276.489 0.892467 -1.74053 0
M  V30 2853 O 277.695 1.36267 -2.34826 0
M  V30 2854 C 276.151 -0.97106 -3.46552 0
M  V30 2855 C 275.759 -2.4559 -3.74686 0
M  V30 2856 C 277.503 -0.681333 -4.18997 0
M  V30 2857 C 275.41 -2.79475 -5.21198 0
M  V30 2858 H 274.34 -0.209966 -0.724176 0
M  V30 2859 H 276.991 -1.13403 -1.44263 0
M  V30 2860 H 275.373 -0.336983 -3.94564 0
M  V30 2861 H 276.547 -3.13829 -3.37414 0
M  V30 2862 H 274.862 -2.71802 -3.15456 0
M  V30 2863 H 277.459 -0.910939 -5.26883 0
M  V30 2864 H 277.802 0.381628 -4.14547 0
M  V30 2865 H 278.335 -1.27473 -3.76823 0
M  V30 2866 H 275.074 -3.847 -5.30741 0
M  V30 2867 H 274.594 -2.1589 -5.596 0
M  V30 2868 H 276.273 -2.67478 -5.89122 0
M  V30 2869 N 276.405 1.4127 -0.698611 0
M  V30 2870 C 277.635 2.05205 -0.239644 0
M  V30 2871 C 278.043 1.52684 1.11733 0
M  V30 2872 O 277.386 0.671222 1.70998 0
M  V30 2873 C 277.448 3.59289 -0.123126 0
M  V30 2874 C 277.112 4.34619 -1.41263 0
M  V30 2875 C 278.109 4.63701 -2.35111 0
M  V30 2876 C 275.794 4.73837 -1.66684 0
M  V30 2877 C 277.788 5.30966 -3.52639 0
M  V30 2878 C 275.475 5.40837 -2.84498 0
M  V30 2879 C 276.473 5.69329 -3.77298 0
M  V30 2880 O 276.161 6.34949 -4.93047 0
M  V30 2881 H 275.893 0.66723 -0.108537 0
M  V30 2882 H 278.447 1.81974 -0.952602 0
M  V30 2883 H 276.677 3.81272 0.645628 0
M  V30 2884 H 278.366 4.04797 0.299056 0
M  V30 2885 H 279.132 4.33882 -2.16729 0
M  V30 2886 H 275.011 4.51039 -0.953135 0
M  V30 2887 H 278.555 5.53121 -4.25091 0
M  V30 2888 H 274.452 5.70075 -3.02795 0
M  V30 2889 H 275.22 6.53445 -4.92902 0
M  V30 2890 N 277.883 0.443576 1.51229 0
M  V30 2891 C 279.129 -0.11321 2.03085 0
M  V30 2892 C 279.484 -1.39841 1.32145 0
M  V30 2893 O 278.777 -1.86723 0.429542 0
M  V30 2894 C 278.971 -0.380579 3.55368 0
M  V30 2895 C 278.8 0.877157 4.41062 0
M  V30 2896 C 277.57 1.4125 4.85156 0
M  V30 2897 C 279.768 1.76503 4.83064 0
M  V30 2898 N 277.75 2.62213 5.55083 0
M  V30 2899 C 279.121 2.82067 5.52122 0
M  V30 2900 C 281.176 1.7787 4.65045 0
M  V30 2901 C 279.879 3.88952 6.05069 0
M  V30 2902 C 281.905 2.83694 5.18914 0
M  V30 2903 C 281.267 3.87978 5.87922 0
M  V30 2904 H 277.366 -0.00210178 0.781997 0
M  V30 2905 H 279.95 0.605641 1.85041 0
M  V30 2906 H 278.121 -1.06847 3.73414 0
M  V30 2907 H 279.853 -0.929274 3.93887 0
M  V30 2908 H 276.608 0.965542 4.63653 0
M  V30 2909 H 277.032 3.23568 5.9467 0
M  V30 2910 H 281.674 0.985744 4.11148 0
M  V30 2911 H 279.392 4.69082 6.58018 0
M  V30 2912 H 282.978 2.85702 5.06819 0
M  V30 2913 H 281.858 4.68517 6.28857 0
M  V30 2914 N 279.361 -1.56624 0.175154 0
M  V30 2915 C 280.638 -1.88688 -0.515373 0
M  V30 2916 C 281.018 -1.08564 -1.81044 0
M  V30 2917 O 280.366 -0.180703 -2.27784 0
M  V30 2918 C 280.576 -3.40768 -0.753552 0
M  V30 2919 C 281.924 -4.10587 -1.08184 0
M  V30 2920 O 282.948 -3.46106 -0.841961 0
M  V30 2921 O 281.807 -5.24512 -1.53459 0
M  V30 2922 H 278.901 -0.78301 -0.26613 0
M  V30 2923 H 281.447 -1.68347 0.213877 0
M  V30 2924 H 280.219 -3.90965 0.161829 0
M  V30 2925 H 279.842 -3.66733 -1.53598 0
M  V30 2926 N 280.839 0.0985539 -1.57292 0
M  V30 2927 C 282.25 0.653457 -1.74891 0
M  V30 2928 C 282.601 1.7929 -0.796838 0
M  V30 2929 O 281.726 2.16385 0.0254886 0
M  V30 2930 C 282.321 1.19216 -3.17133 0
M  V30 2931 C 280.88 1.69316 -3.36168 0
M  V30 2932 C 280.027 0.601294 -2.70702 0
M  V30 2933 H 282.978 -0.127497 -1.58187 0
M  V30 2934 H 282.999 2.06154 -3.19814 0
M  V30 2935 H 282.511 0.362635 -3.86402 0
M  V30 2936 H 280.612 2.5468 -2.71972 0
M  V30 2937 H 280.725 1.78853 -4.44464 0
M  V30 2938 H 279.089 1.0399 -2.32504 0
M  V30 2939 H 279.872 -0.217592 -3.4261 0
M  V30 2940 N 282.317 1.53212 0.369288 0
M  V30 2941 C 283.28 1.7872 1.43498 0
M  V30 2942 C 284.28 0.657554 1.46741 0
M  V30 2943 O 285.47 0.925736 1.47566 0
M  V30 2944 C 282.602 1.90591 2.82645 0
M  V30 2945 H 283.795 2.73894 1.22156 0
M  V30 2946 H 281.348 1.44233 0.602203 0
M  V30 2947 H 282.083 0.974709 3.09306 0
M  V30 2948 H 281.868 2.72751 2.8169 0
M  V30 2949 H 283.358 2.11931 3.59826 0
M  V30 2950 N 283.795 -0.628877 1.44509 0
M  V30 2951 C 285.02 -1.42048 1.5112 0
M  V30 2952 C 285.445 -1.87594 0.137818 0
M  V30 2953 O 284.803 -1.58873 -0.873437 0
M  V30 2954 C 284.851 -2.61541 2.48251 0
M  V30 2955 O 283.955 -3.61453 1.98559 0
M  V30 2956 H 283.296 -0.424942 0.510216 0
M  V30 2957 H 285.826 -0.767374 1.89664 0
M  V30 2958 H 285.836 -3.09057 2.66361 0
M  V30 2959 H 284.511 -2.27736 3.48007 0
M  V30 2960 H 283.088 -3.20731 1.90227 0
M  V30 2961 N 285.273 -1.31445 -0.869486 0
M  V30 2962 C 286.236 -1.19094 -1.9583 0
M  V30 2963 C 287.236 -0.117906 -1.60367 0
M  V30 2964 O 288.426 -0.367208 -1.70286 0
M  V30 2965 C 285.558 -0.828165 -3.30688 0
M  V30 2966 H 286.751 -2.15842 -2.08212 0
M  V30 2967 H 284.304 -1.15063 -1.05784 0
M  V30 2968 H 285.039 0.138142 -3.24006 0
M  V30 2969 H 284.824 -1.6038 -3.578 0
M  V30 2970 H 286.314 -0.765658 -4.10521 0
M  V30 2971 N 286.751 1.08385 -1.14413 0
M  V30 2972 C 287.698 2.15311 -0.831265 0
M  V30 2973 C 288.668 1.64751 0.211292 0
M  V30 2974 O 289.853 1.90627 0.0811674 0
M  V30 2975 C 286.993 3.43658 -0.315143 0
M  V30 2976 C 286.106 4.08064 -1.41802 0
M  V30 2977 C 285.241 5.24207 -0.859126 0
M  V30 2978 C 284.28 5.80554 -1.93967 0
M  V30 2979 N 283.417 6.88042 -1.39793 0
M  V30 2980 H 288.257 2.41415 -1.74708 0
M  V30 2981 H 285.794 1.18474 -0.871909 0
M  V30 2982 H 287.752 4.172 0.00230884 0
M  V30 2983 H 286.382 3.17839 0.56378 0
M  V30 2984 H 285.434 3.3228 -1.85187 0
M  V30 2985 H 286.746 4.45962 -2.23427 0
M  V30 2986 H 285.9 6.04689 -0.49359 0
M  V30 2987 H 284.639 4.87699 -0.011932 0
M  V30 2988 H 283.644 4.98725 -2.31415 0
M  V30 2989 H 284.869 6.19121 -2.79046 0
M  V30 2990 H 282.815 6.53493 -0.572919 0
M  V30 2991 H 282.732 7.24767 -2.15054 0
M  V30 2992 H 284 7.72255 -1.0603 0
M  V30 2993 N 288.23 0.939286 1.26551 0
M  V30 2994 C 289.458 0.602536 1.97932 0
M  V30 2995 C 289.873 -0.82206 1.69964 0
M  V30 2996 O 289.23 -1.54789 0.966784 0
M  V30 2997 C 289.281 0.832946 3.51773 0
M  V30 2998 O 289.002 2.20151 3.78768 0
M  V30 2999 C 290.503 0.506483 4.40397 0
M  V30 3000 H 287.723 0.227248 0.631347 0
M  V30 3001 H 290.267 1.25948 1.61113 0
M  V30 3002 H 288.422 0.222644 3.8676 0
M  V30 3003 H 288.836 2.26013 4.73306 0
M  V30 3004 H 290.31 0.718333 5.47306 0
M  V30 3005 H 290.787 -0.558451 4.35635 0
M  V30 3006 H 291.393 1.09543 4.10951 0
M  V30 3007 N 289.708 -1.40897 0.706093 0
M  V30 3008 C 290.954 -2.01352 0.241889 0
M  V30 3009 C 291.287 -1.55832 -1.15888 0
M  V30 3010 O 290.562 -0.774145 -1.7843 0
M  V30 3011 C 290.845 -3.58752 0.311311 0
M  V30 3012 C 290.698 -4.1437 1.74978 0
M  V30 3013 C 292.017 -4.38914 -0.322922 0
M  V30 3014 H 289.136 -0.731562 0.0893687 0
M  V30 3015 H 291.778 -1.67504 0.896802 0
M  V30 3016 H 289.928 -3.87718 -0.246302 0
M  V30 3017 H 291.6 -3.96239 2.36205 0
M  V30 3018 H 289.843 -3.69016 2.28057 0
M  V30 3019 H 290.514 -5.23532 1.74981 0
M  V30 3020 H 292.99 -4.15822 0.152089 0
M  V30 3021 H 291.866 -5.48358 -0.243855 0
M  V30 3022 H 292.127 -4.19176 -1.40513 0
M  V30 3023 N 291.186 -0.45159 -1.50991 0
M  V30 3024 C 292.433 0.110074 -2.02201 0
M  V30 3025 C 292.761 1.4146 -1.33489 0
M  V30 3026 O 292.016 1.90617 -0.443125 0
M  V30 3027 C 292.315 0.361728 -3.55565 0
M  V30 3028 C 291.981 -0.858717 -4.42648 0
M  V30 3029 C 290.643 -1.19338 -4.66167 0
M  V30 3030 C 292.995 -1.67221 -4.93646 0
M  V30 3031 C 290.323 -2.34195 -5.37931 0
M  V30 3032 C 292.675 -2.8119 -5.6667 0
M  V30 3033 C 291.339 -3.15094 -5.88449 0
M  V30 3034 H 290.609 0.040279 -0.739904 0
M  V30 3035 H 293.256 -0.601696 -1.81802 0
M  V30 3036 H 291.561 1.15554 -3.74372 0
M  V30 3037 H 293.258 0.80996 -3.92735 0
M  V30 3038 H 289.848 -0.58796 -4.24548 0
M  V30 3039 H 294.032 -1.42686 -4.75347 0
M  V30 3040 H 289.288 -2.6076 -5.53005 0
M  V30 3041 H 293.462 -3.44585 -6.05173 0
M  V30 3042 H 291.089 -4.04204 -6.43835 0
M  V30 3043 N 292.664 1.56529 -0.183458 0
M  V30 3044 C 293.912 1.96855 0.457452 0
M  V30 3045 C 294.233 1.07104 1.62953 0
M  V30 3046 O 293.503 0.139887 1.954 0
M  V30 3047 H 292.083 0.72693 0.171992 0
M  V30 3048 H 294.745 1.93056 -0.267476 0
M  V30 3049 H 293.841 3.01423 0.809368 0
M  V30 3050 N 294.142 -0.090211 1.57342 0
M  V30 3051 C 295.382 -0.798365 1.88163 0
M  V30 3052 C 295.746 -1.75662 0.775046 0
M  V30 3053 O 296.947 -2.50849 0.965816 0
M  V30 3054 C 295.218 -1.50376 3.24225 0
M  V30 3055 S 296.777 -2.24952 3.76752 0
M  V30 3056 H 293.595 -0.265883 0.659414 0
M  V30 3057 H 296.197 -0.055264 1.95422 0
M  V30 3058 H 294.901 -0.792286 4.0268 0
M  V30 3059 H 294.432 -2.28666 3.20118 0
M  V30 3060 H 296.447 -3.51173 3.5056 0
M  V30 3061 N 295.62 -1.53406 -0.361157 0
M  V30 3062 C 297.031 -1.61442 -0.937728 0
M  V30 3063 C 297.382 -0.48461 -1.90121 0
M  V30 3064 O 296.507 0.388312 -2.12888 0
M  V30 3065 C 297.102 -2.92624 -1.70753 0
M  V30 3066 C 295.661 -3.02981 -2.23337 0
M  V30 3067 C 294.808 -2.5677 -1.04712 0
M  V30 3068 H 297.759 -1.58083 -0.139816 0
M  V30 3069 H 297.78 -2.80675 -2.56908 0
M  V30 3070 H 297.292 -3.74834 -1.00604 0
M  V30 3071 H 295.393 -2.25368 -2.96715 0
M  V30 3072 H 295.506 -4.0814 -2.50916 0
M  V30 3073 H 293.87 -2.11752 -1.41539 0
M  V30 3074 H 294.653 -3.41402 -0.360539 0
M  V30 3075 N 297.098 0.621204 -1.44841 0
M  V30 3076 C 298.346 1.37783 -1.47852 0
M  V30 3077 C 298.667 1.94653 -0.116224 0
M  V30 3078 O 297.937 1.76367 0.852737 0
M  V30 3079 H 296.517 0.511453 -0.544449 0
M  V30 3080 H 299.179 0.730446 -1.80694 0
M  V30 3081 H 298.275 2.20414 -2.20961 0
M  V30 3082 N 298.576 1.31904 0.862503 0
M  V30 3083 C 299.506 1.22782 1.98612 0
M  V30 3084 C 300.487 0.113362 1.69722 0
M  V30 3085 O 301.672 0.299218 1.91881 0
M  V30 3086 C 298.802 0.942058 3.34279 0
M  V30 3087 C 297.756 2.0169 3.77499 0
M  V30 3088 C 297.082 1.58369 5.10709 0
M  V30 3089 C 298.382 3.43096 3.93805 0
M  V30 3090 H 300.076 2.16788 2.06502 0
M  V30 3091 H 297.622 1.04366 0.992154 0
M  V30 3092 H 299.575 0.864818 4.1243 0
M  V30 3093 H 298.299 -0.0336603 3.26583 0
M  V30 3094 H 296.958 2.08416 3.01593 0
M  V30 3095 H 296.606 0.595628 4.99461 0
M  V30 3096 H 296.306 2.30279 5.40597 0
M  V30 3097 H 297.83 1.52067 5.91361 0
M  V30 3098 H 299.244 3.39003 4.62331 0
M  V30 3099 H 297.641 4.13288 4.35101 0
M  V30 3100 H 298.711 3.83334 2.96957 0
M  V30 3101 N 300.054 -1.07777 1.14986 0
M  V30 3102 C 301.47 -1.32373 0.891596 0
M  V30 3103 C 301.67 -1.9609 -0.463788 0
M  V30 3104 O 300.726 -2.21801 -1.20667 0
M  V30 3105 C 302.039 -2.21905 2.02925 0
M  V30 3106 C 303.587 -2.35367 2.06329 0
M  V30 3107 C 304.062 -3.28245 3.19405 0
M  V30 3108 N 305.553 -3.35824 3.19024 0
M  V30 3109 C 306.288 -4.07739 4.03158 0
M  V30 3110 N 305.784 -4.82306 4.97346 0
M  V30 3111 N 307.577 -4.03635 3.91197 0
M  V30 3112 H 299.728 -0.648039 2.02273 0
M  V30 3113 H 301.991 -0.348149 0.881757 0
M  V30 3114 H 301.697 -1.82342 3.0074 0
M  V30 3115 H 301.571 -3.22407 1.95789 0
M  V30 3116 H 303.958 -2.74186 1.09116 0
M  V30 3117 H 304.039 -1.34585 2.17533 0
M  V30 3118 H 303.683 -2.90146 4.16867 0
M  V30 3119 H 303.613 -4.28971 3.05437 0
M  V30 3120 H 306.104 -2.8267 2.50811 0
M  V30 3121 H 306.417 -5.34661 5.57994 0
M  V30 3122 H 304.762 -4.81337 5.01338 0
M  V30 3123 H 307.953 -3.44491 3.16928 0
M  V30 3124 H 308.126 -4.59417 4.5699 0
M  V30 3125 N 301.532 -0.945985 -1.26051 0
M  V30 3126 C 302.948 -0.649045 -1.45807 0
M  V30 3127 C 303.148 0.796158 -1.85104 0
M  V30 3128 O 302.204 1.57233 -1.97571 0
M  V30 3129 C 303.517 -1.61458 -2.53677 0
M  V30 3130 C 305.065 -1.62481 -2.67524 0
M  V30 3131 C 305.54 -2.57776 -3.7857 0
M  V30 3132 N 307.031 -2.5609 -3.85969 0
M  V30 3133 C 307.766 -3.26508 -4.7136 0
M  V30 3134 N 307.262 -4.0637 -5.61102 0
M  V30 3135 N 309.055 -3.15437 -4.65248 0
M  V30 3136 H 301.206 -1.88005 -0.988328 0
M  V30 3137 H 303.469 -0.808198 -0.4955 0
M  V30 3138 H 303.175 -2.64644 -2.31638 0
M  V30 3139 H 303.049 -1.37036 -3.51427 0
M  V30 3140 H 305.436 -0.600167 -2.88933 0
M  V30 3141 H 305.517 -1.90958 -1.70202 0
M  V30 3142 H 305.161 -3.60361 -3.57913 0
M  V30 3143 H 305.091 -2.26587 -4.75359 0
M  V30 3144 H 307.582 -1.98105 -3.21812 0
M  V30 3145 H 307.895 -4.57042 -6.23164 0
M  V30 3146 H 306.24 -4.10469 -5.60839 0
M  V30 3147 H 309.431 -2.52525 -3.94143 0
M  V30 3148 H 309.604 -3.70584 -5.31575 0
M  V30 3149 N 303.011 1.40521 -0.713556 0
M  V30 3150 C 304.26 2.00155 -0.249192 0
M  V30 3151 C 304.573 1.57224 1.16362 0
M  V30 3152 O 305.779 2.09542 1.72639 0
M  V30 3153 C 304.235 3.5773 -0.3946 0
M  V30 3154 C 303.843 4.09635 -1.81392 0
M  V30 3155 C 305.587 4.24499 0.00907364 0
M  V30 3156 C 303.494 5.59707 -1.91003 0
M  V30 3157 H 302.424 0.74868 -0.0894114 0
M  V30 3158 H 305.075 1.60784 -0.884352 0
M  V30 3159 H 303.457 3.94792 0.30911 0
M  V30 3160 H 304.631 3.83955 -2.54785 0
M  V30 3161 H 302.946 3.55456 -2.16888 0
M  V30 3162 H 305.543 5.34683 -0.0420404 0
M  V30 3163 H 305.886 4.02824 1.05065 0
M  V30 3164 H 306.419 3.92536 -0.645007 0
M  V30 3165 H 303.158 5.86234 -2.93275 0
M  V30 3166 H 302.678 5.87258 -1.22019 0
M  V30 3167 H 304.357 6.24776 -1.6812 0
M  V30 3168 N 304.489 0.459591 1.5075 0
M  V30 3169 C 305.422 -0.386257 2.24907 0
M  V30 3170 C 306.4 -1.006 1.27744 0
M  V30 3171 O 307.584 -1.04416 1.56938 0
M  V30 3172 C 304.711 -1.54021 3.01654 0
M  V30 3173 C 303.757 -1.03898 4.13651 0
M  V30 3174 S 304.59 0.0370501 5.35487 0
M  V30 3175 C 305.746 -1.12105 6.15779 0
M  V30 3176 H 305.979 0.243272 2.96303 0
M  V30 3177 H 303.512 0.244339 1.52454 0
M  V30 3178 H 305.47 -2.20163 3.46466 0
M  V30 3179 H 304.131 -2.14121 2.29806 0
M  V30 3180 H 303.324 -1.90254 4.66711 0
M  V30 3181 H 302.926 -0.45545 3.71216 0
M  V30 3182 H 305.218 -2.03501 6.46215 0
M  V30 3183 H 306.161 -0.62995 7.05292 0
M  V30 3184 H 306.569 -1.36967 5.47631 0
M  V30 3185 N 305.967 -1.56429 0.191757 0
M  V30 3186 C 307.214 -1.97485 -0.447891 0
M  V30 3187 C 307.542 -1.07852 -1.61859 0
M  V30 3188 O 306.797 -0.116903 -1.95351 0
M  V30 3189 C 307.096 -3.44449 -0.953384 0
M  V30 3190 C 306.762 -4.50781 0.103586 0
M  V30 3191 C 305.424 -4.79584 0.394023 0
M  V30 3192 C 307.776 -5.1471 0.819946 0
M  V30 3193 C 305.104 -5.69607 1.40585 0
M  V30 3194 C 307.456 -6.05827 1.8209 0
M  V30 3195 C 306.12 -6.32987 2.11857 0
M  V30 3196 H 305.39 -0.722648 -0.163895 0
M  V30 3197 H 308.037 -1.89322 0.28802 0
M  V30 3198 H 306.342 -3.49666 -1.76751 0
M  V30 3199 H 308.039 -3.73569 -1.45765 0
M  V30 3200 H 304.629 -4.28394 -0.132951 0
M  V30 3201 H 308.813 -4.92552 0.608789 0
M  V30 3202 H 304.069 -5.88926 1.64243 0
M  V30 3203 H 308.243 -6.54424 2.38123 0
M  V30 3204 H 305.87 -7.02544 2.90407 0
M  V30 3205 N 307.445 0.0818655 -1.57387 0
M  V30 3206 C 308.67 0.799946 -1.91352 0
M  V30 3207 C 309.095 1.70833 -0.787258 0
M  V30 3208 O 308.453 1.79419 0.26048 0
M  V30 3209 C 308.501 1.57812 -3.24234 0
M  V30 3210 O 307.605 2.68806 -3.12757 0
M  V30 3211 H 306.946 0.21891 -0.626877 0
M  V30 3212 H 309.476 0.0531256 -2.04531 0
M  V30 3213 H 309.486 1.95952 -3.57864 0
M  V30 3214 H 308.161 0.911548 -4.05788 0
M  V30 3215 H 306.738 2.33597 -2.90666 0
M  V30 3216 N 308.923 1.53595 0.353017 0
M  V30 3217 C 309.853 1.83902 1.43883 0
M  V30 3218 C 310.834 0.693421 1.55324 0
M  V30 3219 O 312.019 0.944452 1.69687 0
M  V30 3220 C 309.149 2.04016 2.8106 0
M  V30 3221 C 308.103 3.19814 2.84434 0
M  V30 3222 C 307.429 3.25244 4.24406 0
M  V30 3223 C 308.729 4.58133 2.50822 0
M  V30 3224 H 310.423 2.74835 1.1877 0
M  V30 3225 H 307.969 1.32242 0.569917 0
M  V30 3226 H 309.922 2.238 3.57059 0
M  V30 3227 H 308.646 1.09804 3.07588 0
M  V30 3228 H 307.305 2.9987 2.10887 0
M  V30 3229 H 306.953 2.28646 4.48029 0
M  V30 3230 H 306.653 4.03054 4.27576 0
M  V30 3231 H 308.177 3.47228 5.0226 0
M  V30 3232 H 309.591 4.77995 3.16534 0
M  V30 3233 H 307.988 5.38276 2.6529 0
M  V30 3234 H 309.058 4.62387 1.46034 0
M  V30 3235 N 310.401 -0.613514 1.45168 0
M  V30 3236 C 311.678 -1.37263 1.39349 0
M  V30 3237 C 312.058 -2.11012 0.0610848 0
M  V30 3238 O 311.406 -2.07502 -0.956825 0
M  V30 3239 C 311.616 -2.3244 2.60332 0
M  V30 3240 C 312.964 -2.9523 3.05163 0
M  V30 3241 O 313.988 -2.42762 2.60663 0
M  V30 3242 O 312.847 -3.90454 3.82372 0
M  V30 3243 H 309.941 -0.615188 0.552696 0
M  V30 3244 H 312.487 -0.637097 1.57287 0
M  V30 3245 H 311.259 -1.77164 3.48896 0
M  V30 3246 H 310.882 -3.13383 2.44698 0
M  V30 3247 N 311.879 -1.3236 -0.855495 0
M  V30 3248 C 313.104 -1.2601 -1.64731 0
M  V30 3249 C 313.529 0.169068 -1.87339 0
M  V30 3250 O 312.887 1.12016 -1.42556 0
M  V30 3251 C 312.935 -2.02417 -2.98429 0
M  V30 3252 O 312.039 -1.3714 -3.8893 0
M  V30 3253 H 311.38 -0.434325 -0.502253 0
M  V30 3254 H 313.91 -1.74661 -1.06558 0
M  V30 3255 H 313.92 -2.12559 -3.48257 0
M  V30 3256 H 312.595 -3.06343 -2.81295 0
M  V30 3257 H 311.172 -1.3554 -3.47395 0
M  V30 3258 N 313.357 1.07166 -1.15556 0
M  V30 3259 C 314.585 1.83514 -0.955519 0
M  V30 3260 C 315 1.82163 0.49621 0
M  V30 3261 O 314.357 1.23441 1.34419 0
M  V30 3262 C 314.408 3.30515 -1.46432 0
M  V30 3263 O 314.129 3.31937 -2.85918 0
M  V30 3264 C 315.63 4.23625 -1.30603 0
M  V30 3265 H 312.85 0.578926 -0.339244 0
M  V30 3266 H 315.394 1.35265 -1.53374 0
M  V30 3267 H 313.549 3.76106 -0.928584 0
M  V30 3268 H 313.963 4.23794 -3.09029 0
M  V30 3269 H 315.437 5.24831 -1.71047 0
M  V30 3270 H 315.914 4.38485 -0.250441 0
M  V30 3271 H 316.52 3.83871 -1.83094 0
M  V30 3272 N 314.835 0.952656 1.25548 0
M  V30 3273 C 315.783 0.462354 2.27958 0
M  V30 3274 C 316.777 -0.46634 1.62855 0
M  V30 3275 O 317.983 -0.343287 1.76696 0
M  V30 3276 H 314.358 0.13101 0.7405 0
M  V30 3277 H 316.329 1.33839 2.66702 0
M  V30 3278 C 315.078 -0.24628 3.46827 0
M  V30 3279 H 314.401 0.459192 3.97154 0
M  V30 3280 H 315.841 -0.553393 4.20373 0
M  V30 3281 C 314.3 -1.4681 3.0323 0
M  V30 3282 O 314.83 -2.56591 3.09069 0
M  V30 3283 N 313.036 -1.32874 2.58443 0
M  V30 3284 H 312.583 -0.435536 2.53891 0
M  V30 3285 H 312.541 -2.14742 2.29637 0
M  V30 3286 N 316.313 -1.40141 0.720998 0
M  V30 3287 C 317.541 -2.05096 0.272656 0
M  V30 3288 C 317.956 -1.54334 -1.0875 0
M  V30 3289 O 317.313 -0.702211 -1.6845 0
M  V30 3290 C 317.364 -3.60636 0.249835 0
M  V30 3291 O 317.085 -4.09526 1.55629 0
M  V30 3292 C 318.586 -4.42772 -0.216396 0
M  V30 3293 H 315.806 -0.659897 0.121558 0
M  V30 3294 H 318.35 -1.79449 0.980723 0
M  V30 3295 H 316.505 -3.85232 -0.409237 0
M  V30 3296 H 316.919 -5.03758 1.4604 0
M  V30 3297 H 318.393 -5.51702 -0.181212 0
M  V30 3298 H 318.87 -4.20756 -1.25941 0
M  V30 3299 H 319.476 -4.23294 0.412596 0
M  V30 3300 N 317.792 -0.46758 -1.50504 0
M  V30 3301 C 319.038 0.0887532 -2.02606 0
M  V30 3302 C 319.371 1.39686 -1.34913 0
M  V30 3303 O 318.646 1.88644 -0.473694 0
M  V30 3304 C 318.929 0.276206 -3.59039 0
M  V30 3305 C 318.782 -1.05267 -4.37309 0
M  V30 3306 C 320.101 1.03235 -4.27821 0
M  V30 3307 H 317.22 0.0307814 -0.736357 0
M  V30 3308 H 319.862 -0.612485 -1.79857 0
M  V30 3309 H 318.012 0.8735 -3.78553 0
M  V30 3310 H 319.684 -1.68628 -4.29374 0
M  V30 3311 H 317.927 -1.65015 -4.01189 0
M  V30 3312 H 318.598 -0.875197 -5.45018 0
M  V30 3313 H 321.074 0.526111 -4.12761 0
M  V30 3314 H 319.95 1.1323 -5.37094 0
M  V30 3315 H 320.211 2.06806 -3.90748 0
M  V30 3316 N 319.27 1.56325 -0.20005 0
M  V30 3317 C 320.681 1.8408 0.31167 0
M  V30 3318 C 321.032 1.12087 1.61031 0
M  V30 3319 O 320.157 0.38332 2.12978 0
M  V30 3320 C 320.752 3.33932 0.57226 0
M  V30 3321 C 319.311 3.6208 1.02834 0
M  V30 3322 C 318.458 2.77186 0.079634 0
M  V30 3323 H 321.409 1.52939 -0.423729 0
M  V30 3324 H 321.43 3.52971 1.42096 0
M  V30 3325 H 320.942 3.86303 -0.37308 0
M  V30 3326 H 319.043 3.15147 1.98778 0
M  V30 3327 H 319.156 4.7023 0.917624 0
M  V30 3328 H 317.52 2.47951 0.582448 0
M  V30 3329 H 318.303 3.32347 -0.860238 0
M  V30 3330 N 320.748 -0.0735177 1.57428 0
M  V30 3331 C 321.994 -0.774145 1.87443 0
M  V30 3332 C 322.327 -1.77311 0.792103 0
M  V30 3333 O 321.602 -1.93492 -0.197793 0
M  V30 3334 C 321.885 -1.48367 3.28115 0
M  V30 3335 C 321.738 -0.501227 4.46999 0
M  V30 3336 C 323.057 -2.429 3.66998 0
M  V30 3337 H 320.176 -0.279971 0.681752 0
M  V30 3338 H 322.818 -0.0373616 1.89963 0
M  V30 3339 H 320.968 -2.11171 3.26097 0
M  V30 3340 H 322.64 0.121468 4.6114 0
M  V30 3341 H 320.883 0.183593 4.33411 0
M  V30 3342 H 321.554 -1.03526 5.42205 0
M  V30 3343 H 324.03 -1.90175 3.70098 0
M  V30 3344 H 322.906 -2.89549 4.66318 0
M  V30 3345 H 323.167 -3.27628 2.96837 0
M  V30 3346 N 322.226 -1.5378 -0.344866 0
M  V30 3347 C 323.642 -1.44015 -0.687888 0
M  V30 3348 C 323.842 -0.595834 -1.92489 0
M  V30 3349 O 322.898 -0.0863064 -2.52352 0
M  V30 3350 C 324.211 -2.87481 -0.881758 0
M  V30 3351 C 325.759 -2.97247 -0.980459 0
M  V30 3352 C 326.234 -4.41819 -1.20665 0
M  V30 3353 N 327.725 -4.45339 -1.27389 0
M  V30 3354 C 328.46 -5.54333 -1.46639 0
M  V30 3355 N 327.956 -6.73335 -1.63071 0
M  V30 3356 N 329.749 -5.41944 -1.49176 0
M  V30 3357 H 321.9 -2.07169 0.468475 0
M  V30 3358 H 324.163 -0.93643 0.147655 0
M  V30 3359 H 323.869 -3.51672 -0.0443444 0
M  V30 3360 H 323.743 -3.32352 -1.78388 0
M  V30 3361 H 326.13 -2.33197 -1.8084 0
M  V30 3362 H 326.211 -2.5574 -0.0552713 0
M  V30 3363 H 325.855 -5.06449 -0.383652 0
M  V30 3364 H 325.785 -4.80917 -2.14539 0
M  V30 3365 H 328.276 -3.59585 -1.1622 0
M  V30 3366 H 328.589 -7.52165 -1.77391 0
M  V30 3367 H 326.934 -6.76282 -1.60209 0
M  V30 3368 H 330.125 -4.47932 -1.3592 0
M  V30 3369 H 330.298 -6.26946 -1.63837 0
M  V30 3370 N 323.704 0.605807 -1.45491 0
M  V30 3371 C 324.929 1.39625 -1.53361 0
M  V30 3372 C 325.354 1.87351 -0.167645 0
M  V30 3373 O 324.712 1.60243 0.848051 0
M  V30 3374 C 324.76 2.57559 -2.5238 0
M  V30 3375 O 323.864 3.58248 -2.04285 0
M  V30 3376 H 323.205 0.416771 -0.516912 0
M  V30 3377 H 325.735 0.737103 -1.90861 0
M  V30 3378 H 325.745 3.0478 -2.71244 0
M  V30 3379 H 324.42 2.22171 -3.51586 0
M  V30 3380 H 322.997 3.17664 -1.95305 0
M  V30 3381 N 325.182 1.32811 0.848464 0
M  V30 3382 C 326.593 1.21315 1.41914 0
M  V30 3383 C 326.944 -0.171847 1.95446 0
M  V30 3384 O 326.069 -1.07093 1.88043 0
M  V30 3385 C 326.664 2.19631 2.57968 0
M  V30 3386 C 325.223 2.12003 3.11017 0
M  V30 3387 C 324.37 2.07651 1.83783 0
M  V30 3388 H 327.321 1.44549 0.655071 0
M  V30 3389 H 327.342 1.79845 3.35315 0
M  V30 3390 H 326.854 3.20423 2.18976 0
M  V30 3391 H 324.955 1.14481 3.54577 0
M  V30 3392 H 325.068 3.02111 3.71841 0
M  V30 3393 H 323.432 1.52983 2.03638 0
M  V30 3394 H 324.215 3.10235 1.47 0
M  V30 3395 N 326.66 -1.06551 1.16123 0
M  V30 3396 C 327.89 -1.8274 0.963838 0
M  V30 3397 C 328.298 -1.82712 -0.491228 0
M  V30 3398 O 327.641 -1.24294 -1.35265 0
M  V30 3399 C 327.703 -3.3065 1.41106 0
M  V30 3400 C 327.367 -3.54384 2.88549 0
M  V30 3401 C 328.364 -3.4765 3.86569 0
M  V30 3402 C 326.049 -3.81789 3.26408 0
M  V30 3403 C 328.043 -3.67982 5.2045 0
M  V30 3404 C 325.73 -4.01772 4.60459 0
M  V30 3405 C 326.728 -3.94866 5.57288 0
M  V30 3406 O 326.416 -4.14306 6.88916 0
M  V30 3407 H 326.148 -0.583136 0.341948 0
M  V30 3408 H 328.702 -1.35351 1.54497 0
M  V30 3409 H 326.932 -3.78887 0.773394 0
M  V30 3410 H 328.621 -3.88324 1.1815 0
M  V30 3411 H 329.387 -3.2647 3.58667 0
M  V30 3412 H 325.266 -3.86276 2.51619 0
M  V30 3413 H 328.81 -3.62507 5.96015 0
M  V30 3414 H 324.707 -4.2244 4.88072 0
M  V30 3415 H 325.475 -4.31609 6.95454 0
M  V30 3416 N 328.138 -0.959301 -1.25041 0
M  V30 3417 C 329.384 -0.617525 -1.9317 0
M  V30 3418 C 329.717 0.843981 -1.74902 0
M  V30 3419 O 328.992 1.60615 -1.09696 0
M  V30 3420 C 329.275 -0.982736 -3.46431 0
M  V30 3421 C 329.128 -2.50032 -3.73904 0
M  V30 3422 C 330.447 -0.511176 -4.37121 0
M  V30 3423 H 327.566 -0.22582 -0.701552 0
M  V30 3424 H 330.208 -1.19679 -1.4757 0
M  V30 3425 H 328.358 -0.489806 -3.854 0
M  V30 3426 H 330.03 -3.06737 -3.44544 0
M  V30 3427 H 328.273 -2.93598 -3.19348 0
M  V30 3428 H 328.944 -2.70635 -4.81103 0
M  V30 3429 H 331.42 -0.934075 -4.0548 0
M  V30 3430 H 330.296 -0.795361 -5.43107 0
M  V30 3431 H 330.557 0.588834 -4.38161 0
M  V30 3432 N 329.616 1.39756 -0.72842 0
M  V30 3433 C 330.548 2.29157 -0.0446202 0
M  V30 3434 C 331.561 1.46484 0.710367 0
M  V30 3435 O 332.75 1.69632 0.55562 0
M  V30 3436 C 329.85 3.24987 0.961071 0
M  V30 3437 C 329.023 4.36572 0.268967 0
M  V30 3438 C 328.082 5.12756 1.18184 0
M  V30 3439 O 327.108 5.6534 0.661794 0
M  V30 3440 N 328.31 5.23331 2.51206 0
M  V30 3441 H 331.075 2.88482 -0.812295 0
M  V30 3442 H 328.636 1.51265 -0.577098 0
M  V30 3443 H 330.628 3.72827 1.57423 0
M  V30 3444 H 329.198 2.66739 1.63 0
M  V30 3445 H 328.418 3.90694 -0.524574 0
M  V30 3446 H 329.706 5.08363 -0.210934 0
M  V30 3447 H 329.104 4.82116 2.9594 0
M  V30 3448 H 327.661 5.74634 3.07634 0
M  V30 3449 N 331.094 0.475555 1.50254 0
M  V30 3450 C 332.51 0.12997 1.5907 0
M  V30 3451 C 332.71 -1.36385 1.48328 0
M  V30 3452 O 331.766 -2.13754 1.34407 0
M  V30 3453 C 333.079 0.684139 2.92814 0
M  V30 3454 C 334.627 0.647965 3.0622 0
M  V30 3455 C 335.102 1.17975 4.42545 0
M  V30 3456 N 336.593 1.13936 4.48969 0
M  V30 3457 C 337.328 1.52129 5.52851 0
M  V30 3458 N 336.824 1.97793 6.63965 0
M  V30 3459 N 338.617 1.43704 5.4342 0
M  V30 3460 H 330.768 1.44706 1.55479 0
M  V30 3461 H 333.031 0.598691 0.735033 0
M  V30 3462 H 332.737 1.73079 3.06164 0
M  V30 3463 H 332.611 0.130204 3.76975 0
M  V30 3464 H 334.998 -0.38979 2.92514 0
M  V30 3465 H 335.079 1.23876 2.23805 0
M  V30 3466 H 334.723 2.21616 4.57 0
M  V30 3467 H 334.653 0.565138 5.23559 0
M  V30 3468 H 337.144 0.804488 3.69238 0
M  V30 3469 H 337.457 2.25072 7.39299 0
M  V30 3470 H 335.802 2.01749 6.65073 0
M  V30 3471 H 338.993 1.07867 4.55502 0
M  V30 3472 H 339.166 1.73794 6.24259 0
M  V30 3473 N 332.573 -1.56217 0.208337 0
M  V30 3474 C 333.82 -1.97949 -0.42692 0
M  V30 3475 C 334.148 -1.09562 -1.60706 0
M  V30 3476 O 333.403 -0.137616 -1.95216 0
M  V30 3477 C 333.702 -3.45441 -0.916797 0
M  V30 3478 C 333.368 -4.50646 0.151391 0
M  V30 3479 C 332.03 -4.79139 0.444867 0
M  V30 3480 C 334.382 -5.13811 0.874492 0
M  V30 3481 C 331.71 -5.68084 1.46619 0
M  V30 3482 C 334.062 -6.03861 1.88506 0
M  V30 3483 C 332.726 -6.30704 2.18559 0
M  V30 3484 H 331.996 -0.724345 -0.156221 0
M  V30 3485 H 334.643 -1.89006 0.308084 0
M  V30 3486 H 332.948 -3.51521 -1.73032 0
M  V30 3487 H 334.645 -3.75094 -1.41794 0
M  V30 3488 H 331.235 -4.28511 -0.0875068 0
M  V30 3489 H 335.419 -4.91879 0.660996 0
M  V30 3490 H 330.675 -5.87151 1.7048 0
M  V30 3491 H 334.849 -6.51861 2.45051 0
M  V30 3492 H 332.476 -6.99424 2.97843 0
M  V30 3493 N 334.051 0.0651679 -1.57465 0
M  V30 3494 C 335.299 0.761555 -1.87202 0
M  V30 3495 C 335.62 1.77778 -0.801243 0
M  V30 3496 O 334.89 1.95166 0.16937 0
M  V30 3497 H 333.47 0.284251 -0.690804 0
M  V30 3498 H 336.132 0.0396827 -1.9486 0
M  V30 3499 H 335.228 1.27365 -2.84929 0
M  V30 3500 N 335.529 1.53961 0.336706 0
M  V30 3501 C 336.439 1.85432 1.43708 0
M  V30 3502 C 337.455 0.745053 1.57242 0
M  V30 3503 O 338.631 1.03804 1.72588 0
M  V30 3504 C 335.696 2.06349 2.78605 0
M  V30 3505 C 334.757 3.30191 2.74358 0
M  V30 3506 C 333.99 3.50101 4.02822 0
M  V30 3507 O 334.213 2.7371 5.00439 0
M  V30 3508 O 333.147 4.43547 4.06878 0
M  V30 3509 H 336.973 2.78975 1.20028 0
M  V30 3510 H 334.558 1.39701 0.52952 0
M  V30 3511 H 336.44 2.21513 3.58483 0
M  V30 3512 H 335.115 1.15995 3.02203 0
M  V30 3513 H 334.022 3.20425 1.93078 0
M  V30 3514 H 335.355 4.2056 2.55715 0
M  V30 3515 N 337.007 -0.598083 1.45811 0
M  V30 3516 C 337.939 -1.72231 1.51225 0
M  V30 3517 C 338.952 -1.57757 0.402059 0
M  V30 3518 O 340.141 -1.65464 0.669624 0
M  V30 3519 C 337.241 -3.10331 1.3619 0
M  V30 3520 C 336.414 -3.50955 2.61054 0
M  V30 3521 C 335.473 -4.68055 2.40439 0
M  V30 3522 O 334.499 -4.74691 3.14097 0
M  V30 3523 N 335.701 -5.61941 1.45612 0
M  V30 3524 H 338.466 -1.68046 2.48154 0
M  V30 3525 H 336.027 -0.783637 1.41671 0
M  V30 3526 H 338.019 -3.86439 1.20195 0
M  V30 3527 H 336.589 -3.0897 0.475015 0
M  V30 3528 H 335.809 -2.64711 2.92099 0
M  V30 3529 H 337.097 -3.74858 3.44034 0
M  V30 3530 H 336.495 -5.59301 0.848431 0
M  V30 3531 H 335.052 -6.37542 1.35585 0
M  V30 3532 N 338.485 -1.33259 -0.841409 0
M  V30 3533 C 339.713 -1.27605 -1.62864 0
M  V30 3534 C 340.128 0.153507 -1.88175 0
M  V30 3535 O 339.485 1.09485 -1.46011 0
M  V30 3536 C 339.536 -2.04596 -2.98031 0
M  V30 3537 O 339.257 -3.41975 -2.73834 0
M  V30 3538 C 340.758 -2.06122 -3.92465 0
M  V30 3539 H 337.978 -0.439718 -0.506842 0
M  V30 3540 H 340.522 -1.75591 -1.04824 0
M  V30 3541 H 338.677 -1.60299 -3.5268 0
M  V30 3542 H 339.091 -3.81549 -3.59889 0
M  V30 3543 H 340.565 -2.64451 -4.84531 0
M  V30 3544 H 341.042 -1.05083 -4.26444 0
M  V30 3545 H 341.648 -2.50427 -3.43753 0
M  V30 3546 N 339.963 1.05934 -1.16686 0
M  V30 3547 C 340.911 2.15603 -0.872817 0
M  V30 3548 C 341.905 1.68647 0.159576 0
M  V30 3549 O 343.111 1.79995 0.0132125 0
M  V30 3550 H 339.486 0.703885 -0.264671 0
M  V30 3551 H 341.457 2.37613 -1.80507 0
M  V30 3552 C 340.206 3.45457 -0.394344 0
M  V30 3553 H 339.529 3.81984 -1.18019 0
M  V30 3554 H 340.969 4.2339 -0.227408 0
M  V30 3555 C 339.428 3.25021 0.88673 0
M  V30 3556 O 339.958 3.50906 1.95519 0
M  V30 3557 N 338.164 2.78437 0.831925 0
M  V30 3558 H 337.711 2.57572 -0.0377619 0
M  V30 3559 H 337.669 2.65144 1.68956 0
M  V30 3560 N 341.441 0.965919 1.2453 0
M  V30 3561 C 342.688 0.626831 1.92554 0
M  V30 3562 C 343.016 -0.837739 1.75534 0
M  V30 3563 O 342.271 -1.61793 1.10098 0
M  V30 3564 C 342.57 0.945428 3.44669 0
M  V30 3565 C 342.236 2.39785 3.81856 0
M  V30 3566 C 340.898 2.79483 3.91718 0
M  V30 3567 C 343.25 3.34055 4.00071 0
M  V30 3568 C 340.578 4.12496 4.1721 0
M  V30 3569 C 342.93 4.66694 4.27059 0
M  V30 3570 C 341.594 5.06172 4.3514 0
M  V30 3571 H 340.864 0.229374 0.704605 0
M  V30 3572 H 343.511 1.21707 1.4785 0
M  V30 3573 H 341.816 0.272926 3.90848 0
M  V30 3574 H 343.513 0.661484 3.95507 0
M  V30 3575 H 340.103 2.08003 3.74743 0
M  V30 3576 H 344.287 3.04571 3.91855 0
M  V30 3577 H 339.543 4.42709 4.21685 0
M  V30 3578 H 343.717 5.3971 4.40097 0
M  V30 3579 H 341.344 6.09262 4.54646 0
M  V30 3580 N 342.919 -1.39368 0.735821 0
M  V30 3581 C 343.849 -2.33234 0.111506 0
M  V30 3582 C 344.83 -1.53954 -0.723334 0
M  V30 3583 O 346.015 -1.82344 -0.668147 0
M  V30 3584 C 343.145 -3.38057 -0.795917 0
M  V30 3585 C 342.099 -4.2795 -0.065172 0
M  V30 3586 C 341.425 -5.23479 -1.08967 0
M  V30 3587 C 342.725 -5.10741 1.09273 0
M  V30 3588 H 344.419 -2.85692 0.895571 0
M  V30 3589 H 341.965 -1.37364 0.432109 0
M  V30 3590 H 343.918 -4.02675 -1.24221 0
M  V30 3591 H 342.642 -2.8404 -1.61211 0
M  V30 3592 H 341.301 -3.64813 0.361511 0
M  V30 3593 H 340.949 -4.65758 -1.89944 0
M  V30 3594 H 340.649 -5.84472 -0.605489 0
M  V30 3595 H 342.173 -5.90974 -1.53565 0
M  V30 3596 H 343.587 -5.68699 0.724841 0
M  V30 3597 H 341.984 -5.8088 1.50659 0
M  V30 3598 H 343.054 -4.45525 1.91404 0
M  V30 3599 N 344.397 -0.483516 -1.5 0
M  V30 3600 C 345.327 0.293829 -2.31644 0
M  V30 3601 C 346.308 0.978864 -1.39112 0
M  V30 3602 O 347.493 0.973644 -1.68029 0
M  V30 3603 C 344.623 1.36897 -3.19181 0
M  V30 3604 C 343.577 0.804833 -4.20365 0
M  V30 3605 C 342.903 1.9792 -4.96721 0
M  V30 3606 C 344.203 -0.192313 -5.21946 0
M  V30 3607 H 345.897 -0.387616 -2.9688 0
M  V30 3608 H 343.443 -0.187856 -1.42769 0
M  V30 3609 H 345.396 1.92037 -3.751 0
M  V30 3610 H 344.12 2.07936 -2.51853 0
M  V30 3611 H 342.779 0.275319 -3.65565 0
M  V30 3612 H 342.427 2.67686 -4.25856 0
M  V30 3613 H 342.127 1.60789 -5.65173 0
M  V30 3614 H 343.651 2.53526 -5.55479 0
M  V30 3615 H 345.065 0.270333 -5.72662 0
M  V30 3616 H 343.462 -0.478543 -5.98189 0
M  V30 3617 H 344.532 -1.11409 -4.71928 0
M  V30 3618 N 345.875 1.56104 -0.216619 0
M  V30 3619 C 347.1 2.0301 0.424462 0
M  V30 3620 C 347.525 1.0955 1.52907 0
M  V30 3621 O 346.883 0.0827914 1.81111 0
M  V30 3622 C 346.931 3.4819 0.937883 0
M  V30 3623 O 346.035 3.57865 2.04955 0
M  V30 3624 H 345.376 0.656925 0.0966755 0
M  V30 3625 H 347.906 2.01859 -0.33381 0
M  V30 3626 H 347.916 3.88413 1.24897 0
M  V30 3627 H 346.591 4.15699 0.129387 0
M  V30 3628 H 345.168 3.29527 1.74546 0
M  V30 3629 N 347.353 -0.0568162 1.57498 0
M  V30 3630 C 348.602 -0.752001 1.87157 0
M  V30 3631 C 348.915 -1.77978 0.811375 0
M  V30 3632 O 350.121 -2.52559 0.996293 0
M  V30 3633 C 348.577 -1.38844 3.3204 0
M  V30 3634 C 348.185 -0.398456 4.46225 0
M  V30 3635 C 349.929 -2.06512 3.70882 0
M  V30 3636 C 347.836 -1.04166 5.82154 0
M  V30 3637 H 346.766 -0.28461 0.698222 0
M  V30 3638 H 349.417 -0.00561272 1.83499 0
M  V30 3639 H 347.799 -2.1836 3.30356 0
M  V30 3640 H 348.973 0.367977 4.59328 0
M  V30 3641 H 347.288 0.174592 4.16034 0
M  V30 3642 H 349.885 -2.55437 4.6974 0
M  V30 3643 H 350.228 -2.87117 3.01445 0
M  V30 3644 H 350.761 -1.33808 3.7462 0
M  V30 3645 H 347.5 -0.275614 6.5492 0
M  V30 3646 H 347.02 -1.7786 5.72823 0
M  V30 3647 H 348.699 -1.55715 6.27982 0
M  V30 3648 N 348.832 -1.54138 -0.328536 0
M  V30 3649 C 349.762 -1.86167 -1.40939 0
M  V30 3650 C 350.743 -0.718044 -1.54202 0
M  V30 3651 O 351.928 -0.971328 -1.68163 0
M  V30 3652 C 349.058 -2.08461 -2.77779 0
M  V30 3653 C 348.012 -3.24299 -2.7931 0
M  V30 3654 C 347.338 -3.31955 -4.19178 0
M  V30 3655 C 348.638 -4.62065 -2.43502 0
M  V30 3656 H 350.332 -2.76689 -1.14383 0
M  V30 3657 H 347.878 -1.33132 -0.548806 0
M  V30 3658 H 349.831 -2.29453 -3.53454 0
M  V30 3659 H 348.555 -1.14684 -3.05802 0
M  V30 3660 H 347.214 -3.03187 -2.0609 0
M  V30 3661 H 346.862 -2.35745 -4.44335 0
M  V30 3662 H 346.562 -4.09805 -4.2111 0
M  V30 3663 H 348.086 -3.55175 -4.96672 0
M  V30 3664 H 349.5 -4.8297 -3.08889 0
M  V30 3665 H 347.897 -5.42429 -2.56693 0
M  V30 3666 H 348.967 -4.64652 -1.38659 0
M  V30 3667 N 350.31 0.590341 -1.46126 0
M  V30 3668 C 351.556 1.35082 -1.51264 0
M  V30 3669 C 351.889 1.93534 -0.160711 0
M  V30 3670 O 351.164 1.76045 0.826956 0
M  V30 3671 C 351.447 2.48588 -2.6053 0
M  V30 3672 C 351.3 1.95221 -4.05227 0
M  V30 3673 C 352.619 3.50662 -2.6594 0
M  V30 3674 H 349.738 0.489803 -0.550692 0
M  V30 3675 H 352.38 0.663887 -1.78024 0
M  V30 3676 H 350.53 3.07186 -2.37843 0
M  V30 3677 H 352.202 1.41139 -4.39178 0
M  V30 3678 H 350.445 1.26101 -4.15068 0
M  V30 3679 H 351.116 2.77121 -4.77397 0
M  V30 3680 H 353.592 3.01934 -2.86313 0
M  V30 3681 H 352.468 4.27551 -3.44226 0
M  V30 3682 H 352.729 4.07399 -1.71694 0
M  V30 3683 N 351.788 1.33704 0.83433 0
M  V30 3684 C 353.036 1.25169 1.58673 0
M  V30 3685 C 353.357 -0.18127 1.94156 0
M  V30 3686 O 352.627 -1.11113 1.6134 0
M  V30 3687 H 351.207 0.4603 0.58833 0
M  V30 3688 H 353.869 1.67478 0.996847 0
M  V30 3689 H 352.965 1.84856 2.51465 0
M  V30 3690 N 353.266 -1.05314 1.17247 0
M  V30 3691 C 354.494 -1.81971 0.984593 0
M  V30 3692 C 354.909 -1.82929 -0.467166 0
M  V30 3693 O 354.266 -1.25564 -1.32438 0
M  V30 3694 C 354.317 -3.28143 1.51672 0
M  V30 3695 O 354.038 -3.27347 2.91163 0
M  V30 3696 C 355.539 -4.21493 1.37326 0
M  V30 3697 H 352.759 -0.573455 0.348411 0
M  V30 3698 H 355.303 -1.32808 1.55506 0
M  V30 3699 H 353.458 -3.74582 0.988302 0
M  V30 3700 H 353.872 -4.18824 3.15732 0
M  V30 3701 H 355.346 -5.22043 1.79375 0
M  V30 3702 H 355.823 -4.38031 0.320169 0
M  V30 3703 H 356.429 -3.80909 1.89178 0
M  V30 3704 N 354.744 -0.972509 -1.24016 0
M  V30 3705 C 355.677 -0.45117 -2.23696 0
M  V30 3706 C 356.655 0.477378 -1.55434 0
M  V30 3707 O 357.839 0.407647 -1.84039 0
M  V30 3708 C 354.966 0.34818 -3.36906 0
M  V30 3709 C 354.012 -0.523355 -4.23277 0
M  V30 3710 S 354.845 -1.96647 -4.98087 0
M  V30 3711 C 356.001 -1.17604 -6.14752 0
M  V30 3712 H 356.234 -1.29588 -2.67571 0
M  V30 3713 H 353.767 -0.777903 -1.33372 0
M  V30 3714 H 355.725 0.803387 -4.02562 0
M  V30 3715 H 354.386 1.16792 -2.91579 0
M  V30 3716 H 353.579 0.0906181 -5.03919 0
M  V30 3717 H 353.181 -0.914485 -3.62647 0
M  V30 3718 H 355.473 -0.433434 -6.76112 0
M  V30 3719 H 356.416 -1.95701 -6.8052 0
M  V30 3720 H 356.824 -0.698295 -5.60164 0
M  V30 3721 N 356.222 1.38976 -0.743202 0
M  V30 3722 C 357.468 2.01114 -0.304109 0
M  V30 3723 C 357.823 1.57929 1.09892 0
M  V30 3724 O 357.116 0.801983 1.74008 0
M  V30 3725 C 357.31 3.55647 -0.353517 0
M  V30 3726 C 357.139 4.13837 -1.75981 0
M  V30 3727 C 355.909 4.46062 -2.37395 0
M  V30 3728 C 358.107 4.36812 -2.71477 0
M  V30 3729 N 356.089 4.898 -3.70093 0
M  V30 3730 C 357.46 4.82844 -3.88923 0
M  V30 3731 C 359.515 4.18893 -2.69134 0
M  V30 3732 C 358.218 5.12837 -5.04371 0
M  V30 3733 C 360.244 4.50005 -3.83731 0
M  V30 3734 C 359.606 4.96251 -4.99914 0
M  V30 3735 H 355.705 0.765931 -0.157716 0
M  V30 3736 H 358.289 1.68763 -0.970931 0
M  V30 3737 H 356.46 3.87368 0.282987 0
M  V30 3738 H 358.192 4.04564 0.104904 0
M  V30 3739 H 354.947 4.34145 -1.89248 0
M  V30 3740 H 355.371 5.16016 -4.38242 0
M  V30 3741 H 360.013 3.82335 -1.80499 0
M  V30 3742 H 357.731 5.48297 -5.9363 0
M  V30 3743 H 361.317 4.37755 -3.83225 0
M  V30 3744 H 360.197 5.19867 -5.87118 0
M  V30 3745 N 357.7 0.491464 1.49741 0
M  V30 3746 C 358.663 -0.280906 2.27472 0
M  V30 3747 C 359.663 -0.902454 1.33088 0
M  V30 3748 O 360.853 -0.768465 1.56334 0
M  V30 3749 C 357.985 -1.40209 3.10732 0
M  V30 3750 H 359.178 0.401056 2.97206 0
M  V30 3751 H 356.731 0.246131 1.5435 0
M  V30 3752 H 357.466 -2.11849 2.45541 0
M  V30 3753 H 357.251 -0.961969 3.80117 0
M  V30 3754 H 358.741 -1.9464 3.69466 0
M  V30 3755 N 359.178 -1.55987 0.224894 0
M  V30 3756 C 360.111 -2.16413 -0.723929 0
M  V30 3757 C 361.089 -1.10952 -1.18863 0
M  V30 3758 O 362.273 -1.39225 -1.27077 0
M  V30 3759 C 359.4 -2.74711 -1.98121 0
M  V30 3760 C 358.446 -3.9303 -1.6562 0
M  V30 3761 S 359.279 -5.29817 -0.778058 0
M  V30 3762 C 360.435 -5.91555 -2.04483 0
M  V30 3763 H 360.668 -2.96555 -0.210347 0
M  V30 3764 H 358.201 -1.54397 0.00955457 0
M  V30 3765 H 360.159 -3.08938 -2.70311 0
M  V30 3766 H 358.82 -1.94555 -2.46591 0
M  V30 3767 H 358.013 -4.32334 -2.59043 0
M  V30 3768 H 357.615 -3.59966 -1.01491 0
M  V30 3769 H 359.907 -6.07732 -2.99446 0
M  V30 3770 H 360.85 -6.87498 -1.69563 0
M  V30 3771 H 361.258 -5.20419 -2.18688 0
M  V30 3772 N 360.656 0.0484629 -1.57525 0
M  V30 3773 C 361.896 0.748196 -1.90214 0
M  V30 3774 C 362.26 1.73545 -0.821347 0
M  V30 3775 O 363.461 2.48201 -1.03198 0
M  V30 3776 C 361.732 1.41727 -3.28098 0
M  V30 3777 S 363.291 2.14884 -3.82584 0
M  V30 3778 H 360.109 0.248307 -0.666232 0
M  V30 3779 H 362.711 0.00343188 -1.955 0
M  V30 3780 H 361.415 0.685244 -4.04639 0
M  V30 3781 H 360.946 2.20099 -3.26068 0
M  V30 3782 H 362.961 3.41755 -3.59747 0
M  V30 3783 N 362.134 1.5431 0.320358 0
M  V30 3784 C 363.362 1.76636 1.07738 0
M  V30 3785 C 363.777 0.51649 1.81598 0
M  V30 3786 O 363.134 -0.512942 1.75143 0
M  V30 3787 C 363.185 2.96158 2.07299 0
M  V30 3788 O 362.906 4.16313 1.36438 0
M  V30 3789 C 364.407 3.3072 2.95193 0
M  V30 3790 H 361.627 0.589597 0.320339 0
M  V30 3791 H 364.171 2.01207 0.36551 0
M  V30 3792 H 362.326 2.73851 2.74016 0
M  V30 3793 H 362.74 4.83565 2.03138 0
M  V30 3794 H 364.214 4.17643 3.60941 0
M  V30 3795 H 364.691 2.48026 3.62463 0
M  V30 3796 H 365.297 3.55117 2.34034 0
M  V30 3797 N 363.613 -0.582584 1.46437 0
M  V30 3798 C 364.563 -1.68654 1.53426 0
M  V30 3799 C 365.547 -1.55971 0.395194 0
M  V30 3800 O 366.739 -1.64884 0.643612 0
M  V30 3801 C 363.868 -3.07439 1.52762 0
M  V30 3802 C 362.954 -3.25418 2.71963 0
M  V30 3803 N 363.345 -3.13556 3.96883 0
M  V30 3804 C 361.643 -3.56357 2.68189 0
M  V30 3805 C 362.344 -3.33543 4.76575 0
M  V30 3806 N 361.32 -3.58704 4.08451 0
M  V30 3807 H 365.122 -1.58014 2.47808 0
M  V30 3808 H 362.636 -0.786617 1.42078 0
M  V30 3809 H 364.633 -3.86671 1.55857 0
M  V30 3810 H 363.293 -3.1921 0.594573 0
M  V30 3811 H 364.304 -2.9142 4.28129 0
M  V30 3812 H 360.981 -3.74812 1.83908 0
M  V30 3813 H 362.371 -3.29555 5.85528 0
M  V30 3814 N 365.091 -1.34144 -0.827227 0
M  V30 3815 C 366.331 -1.27603 -1.59677 0
M  V30 3816 C 366.695 0.153035 -1.91389 0
M  V30 3817 O 367.896 0.342566 -2.66608 0
M  V30 3818 C 366.167 -2.13784 -2.86411 0
M  V30 3819 S 367.726 -2.24552 -3.76991 0
M  V30 3820 H 364.544 -0.453789 -0.547354 0
M  V30 3821 H 367.146 -1.69309 -0.977479 0
M  V30 3822 H 365.85 -3.16627 -2.61104 0
M  V30 3823 H 365.381 -1.72959 -3.5334 0
M  V30 3824 H 367.396 -1.41514 -4.75593 0
M  V30 3825 N 366.569 1.04691 -1.17803 0
M  V30 3826 C 367.479 2.16057 -0.914151 0
M  V30 3827 C 368.495 1.73589 0.119503 0
M  V30 3828 O 369.671 2.01308 -0.0609468 0
M  V30 3829 C 366.736 3.4394 -0.436603 0
M  V30 3830 C 365.797 4.00825 -1.53746 0
M  V30 3831 C 365.03 5.22604 -1.0826 0
M  V30 3832 O 365.253 5.70367 0.0612244 0
M  V30 3833 O 364.187 5.7186 -1.87775 0
M  V30 3834 H 368.013 2.41169 -1.84584 0
M  V30 3835 H 365.598 1.1453 -0.959334 0
M  V30 3836 H 367.48 4.21024 -0.178057 0
M  V30 3837 H 366.155 3.20316 0.466869 0
M  V30 3838 H 365.062 3.25158 -1.84995 0
M  V30 3839 H 366.395 4.28778 -2.41683 0
M  V30 3840 N 368.047 0.979072 1.23499 0
M  V30 3841 C 368.977 0.537606 2.27227 0
M  V30 3842 C 369.958 -0.428539 1.64613 0
M  V30 3843 O 371.143 -0.322191 1.91509 0
M  V30 3844 C 368.273 -0.162052 3.46922 0
M  V30 3845 C 367.227 0.721242 4.21879 0
M  V30 3846 C 366.553 -0.110555 5.34586 0
M  V30 3847 C 367.853 2.01141 4.82016 0
M  V30 3848 H 369.547 1.40462 2.64406 0
M  V30 3849 H 367.093 0.67684 1.27102 0
M  V30 3850 H 369.046 -0.482192 4.18632 0
M  V30 3851 H 367.77 -1.06351 3.08799 0
M  V30 3852 H 366.429 1.02482 3.51984 0
M  V30 3853 H 366.077 -1.0125 4.92704 0
M  V30 3854 H 365.777 0.477325 5.85658 0
M  V30 3855 H 367.301 -0.425107 6.09118 0
M  V30 3856 H 368.715 1.75612 5.45741 0
M  V30 3857 H 367.112 2.54695 5.43369 0
M  V30 3858 H 368.182 2.69909 4.02836 0
M  V30 3859 N 369.525 -1.3858 0.750561 0
M  V30 3860 C 370.455 -2.33102 0.136237 0
M  V30 3861 C 371.436 -1.54713 -0.706965 0
M  V30 3862 O 372.621 -1.83043 -0.648769 0
M  V30 3863 C 369.751 -3.38882 -0.760017 0
M  V30 3864 C 368.705 -4.27995 -0.0197785 0
M  V30 3865 C 368.031 -5.24605 -1.03408 0
M  V30 3866 C 369.331 -5.09554 1.14684 0
M  V30 3867 H 371.025 -2.84726 0.925822 0
M  V30 3868 H 368.571 -1.36898 0.446654 0
M  V30 3869 H 370.524 -4.0397 -1.19943 0
M  V30 3870 H 369.248 -2.85734 -1.58189 0
M  V30 3871 H 367.907 -3.64409 0.400184 0
M  V30 3872 H 367.555 -4.67746 -1.84994 0
M  V30 3873 H 367.255 -5.85081 -0.543464 0
M  V30 3874 H 368.779 -5.9257 -1.47288 0
M  V30 3875 H 370.193 -5.67899 0.785118 0
M  V30 3876 H 368.59 -5.7925 1.56812 0
M  V30 3877 H 369.66 -4.4347 1.96118 0
M  V30 3878 N 371.003 -0.499398 -1.49478 0
M  V30 3879 C 372.419 -0.155261 -1.58843 0
M  V30 3880 C 372.619 1.34008 -1.50479 0
M  V30 3881 O 371.675 2.11589 -1.37791 0
M  V30 3882 C 372.988 -0.730636 -2.91689 0
M  V30 3883 C 374.536 -0.696599 -3.0515 0
M  V30 3884 C 375.011 -1.25001 -4.40612 0
M  V30 3885 N 376.502 -1.21064 -4.47099 0
M  V30 3886 C 377.237 -1.60905 -5.50361 0
M  V30 3887 N 376.733 -2.08331 -6.60735 0
M  V30 3888 N 378.526 -1.52331 -5.41065 0
M  V30 3889 H 370.677 -1.47162 -1.53158 0
M  V30 3890 H 372.94 -0.610309 -0.725415 0
M  V30 3891 H 372.646 -1.77928 -3.03372 0
M  V30 3892 H 372.52 -0.190161 -3.7672 0
M  V30 3893 H 374.907 0.343204 -2.93097 0
M  V30 3894 H 374.988 -1.2742 -2.21806 0
M  V30 3895 H 374.632 -2.28859 -4.53416 0
M  V30 3896 H 374.562 -0.64836 -5.22593 0
M  V30 3897 H 377.053 -0.863128 -3.67911 0
M  V30 3898 H 377.366 -2.36805 -7.35624 0
M  V30 3899 H 375.711 -2.12304 -6.6178 0
M  V30 3900 H 378.902 -1.151 -4.53729 0
M  V30 3901 H 379.075 -1.83704 -6.21415 0
M  V30 3902 N 372.481 1.55866 -0.233164 0
M  V30 3903 C 373.758 1.90471 0.444988 0
M  V30 3904 C 374.138 1.15209 1.7689 0
M  V30 3905 O 373.486 0.265119 2.26957 0
M  V30 3906 C 373.696 3.4333 0.626559 0
M  V30 3907 C 375.044 4.14319 0.92871 0
M  V30 3908 O 376.068 3.48993 0.712926 0
M  V30 3909 O 374.927 5.29846 1.33887 0
M  V30 3910 H 372.021 0.792347 0.236885 0
M  V30 3911 H 374.567 1.67437 -0.276211 0
M  V30 3912 H 373.339 3.90095 -0.306822 0
M  V30 3913 H 372.962 3.72181 1.39881 0
M  V30 3914 N 373.959 -0.0401083 1.57549 0
M  V30 3915 C 375.207 -0.731677 1.8839 0
M  V30 3916 C 375.528 -1.76481 0.829425 0
M  V30 3917 O 374.798 -1.95411 -0.1383 0
M  V30 3918 H 373.378 -0.273225 0.695239 0
M  V30 3919 H 376.04 -0.00867725 1.94898 0
M  V30 3920 H 375.136 -1.22816 2.86919 0
M  V30 3921 N 375.437 -1.54477 -0.31217 0
M  V30 3922 C 376.714 -1.63891 -1.06767 0
M  V30 3923 C 377.094 -0.480028 -2.0557 0
M  V30 3924 O 376.442 0.524487 -2.22399 0
M  V30 3925 C 376.652 -3.01402 -1.75948 0
M  V30 3926 C 378 -3.57838 -2.28554 0
M  V30 3927 O 379.024 -3.03782 -1.85998 0
M  V30 3928 O 377.883 -4.52462 -3.06497 0
M  V30 3929 H 374.977 -0.664125 -0.492816 0
M  V30 3930 H 377.523 -1.66823 -0.311149 0
M  V30 3931 H 376.295 -3.77187 -1.04144 0
M  V30 3932 H 375.918 -3.02199 -2.58383 0
M  V30 3933 N 376.915 0.57481 -1.46744 0
M  V30 3934 C 378.163 1.33009 -1.52161 0
M  V30 3935 C 378.484 1.94185 -0.178092 0
M  V30 3936 O 377.754 1.7899 0.796196 0
M  V30 3937 H 376.334 0.493873 -0.560445 0
M  V30 3938 H 378.996 0.672589 -1.82927 0
M  V30 3939 H 378.092 2.13273 -2.27862 0
M  V30 3940 N 378.394 1.34581 0.820102 0
M  V30 3941 C 379.624 1.29991 1.6058 0
M  V30 3942 C 380.032 -0.127588 1.88769 0
M  V30 3943 O 379.375 -1.08595 1.48165 0
M  V30 3944 C 379.437 2.02548 2.9701 0
M  V30 3945 C 379.101 3.51794 2.91701 0
M  V30 3946 C 380.098 4.46647 2.66087 0
M  V30 3947 C 377.783 3.94249 3.11245 0
M  V30 3948 C 379.777 5.81929 2.60071 0
M  V30 3949 C 377.464 5.2963 3.04853 0
M  V30 3950 C 378.462 6.23282 2.793 0
M  V30 3951 O 378.15 7.56181 2.72847 0
M  V30 3952 H 377.882 0.448539 0.505756 0
M  V30 3953 H 380.436 1.77811 1.02822 0
M  V30 3954 H 378.666 1.49345 3.56697 0
M  V30 3955 H 380.355 1.91211 3.58041 0
M  V30 3956 H 381.121 4.15168 2.5072 0
M  V30 3957 H 377 3.21749 3.30149 0
M  V30 3958 H 380.544 6.54999 2.40046 0
M  V30 3959 H 376.441 5.60727 3.19774 0
M  V30 3960 H 377.209 7.6595 2.88553 0
M  V30 3961 N 379.872 -1.04064 1.18357 0
M  V30 3962 C 381.102 -1.80654 1.00238 0
M  V30 3963 C 381.51 -1.83713 -0.452362 0
M  V30 3964 O 380.853 -1.27135 -1.32599 0
M  V30 3965 C 380.915 -3.27582 1.48088 0
M  V30 3966 C 380.579 -3.48184 2.96002 0
M  V30 3967 C 381.576 -3.39372 3.93856 0
M  V30 3968 C 379.261 -3.7478 3.34433 0
M  V30 3969 C 381.255 -3.5686 5.28138 0
M  V30 3970 C 378.942 -3.91915 4.68877 0
M  V30 3971 C 379.94 -3.82956 5.65539 0
M  V30 3972 O 379.628 -3.996 6.97549 0
M  V30 3973 H 379.36 -0.575751 0.354241 0
M  V30 3974 H 381.914 -1.32044 1.57333 0
M  V30 3975 H 380.144 -3.77161 0.853588 0
M  V30 3976 H 381.833 -3.8573 1.2636 0
M  V30 3977 H 382.599 -3.18789 3.65511 0
M  V30 3978 H 378.478 -3.80852 2.59756 0
M  V30 3979 H 382.022 -3.49783 6.03571 0
M  V30 3980 H 377.919 -4.11992 4.96923 0
M  V30 3981 H 378.687 -4.1676 7.04452 0
M  V30 3982 N 381.35 -0.985608 -1.22978 0
M  V30 3983 C 382.313 -0.535071 -2.22867 0
M  V30 3984 C 383.313 0.378123 -1.56291 0
M  V30 3985 O 384.503 0.171092 -1.73358 0
M  V30 3986 C 381.635 0.222702 -3.40172 0
M  V30 3987 H 382.828 -1.41835 -2.6424 0
M  V30 3988 H 380.381 -0.772042 -1.35901 0
M  V30 3989 H 381.116 1.12229 -3.04262 0
M  V30 3990 H 380.901 -0.43288 -3.89703 0
M  V30 3991 H 382.391 0.526335 -4.1427 0
M  V30 3992 N 382.828 1.3818 -0.7579 0
M  V30 3993 C 384.074 2.0078 -0.325423 0
M  V30 3994 C 384.429 1.59085 1.08211 0
M  V30 3995 O 383.722 0.820394 1.73148 0
M  V30 3996 C 383.916 3.55252 -0.391218 0
M  V30 3997 C 383.745 4.11947 -1.8036 0
M  V30 3998 C 382.515 4.43519 -2.42113 0
M  V30 3999 C 384.713 4.33908 -2.76095 0
M  V30 4000 N 382.695 4.85847 -3.75267 0
M  V30 4001 C 384.066 4.78692 -3.94023 0
M  V30 4002 C 386.121 4.16015 -2.73561 0
M  V30 4003 C 384.824 5.07459 -5.09782 0
M  V30 4004 C 386.85 4.45909 -3.88483 0
M  V30 4005 C 386.212 4.90921 -5.0515 0
M  V30 4006 H 382.311 0.764215 -0.165831 0
M  V30 4007 H 384.895 1.67724 -0.988776 0
M  V30 4008 H 383.066 3.87646 0.241886 0
M  V30 4009 H 384.798 4.04653 0.061989 0
M  V30 4010 H 381.553 4.32113 -1.93842 0
M  V30 4011 H 381.977 5.11339 -4.4369 0
M  V30 4012 H 386.619 3.80399 -1.84544 0
M  V30 4013 H 384.337 5.4197 -5.99412 0
M  V30 4014 H 387.923 4.33666 -3.87847 0
M  V30 4015 H 386.803 5.1361 -5.92599 0
M  V30 4016 N 384.306 0.507319 1.49211 0
M  V30 4017 C 385.583 -0.0982702 1.95353 0
M  V30 4018 C 385.963 -1.53516 1.449 0
M  V30 4019 O 385.311 -2.18594 0.66551 0
M  V30 4020 C 385.521 -0.00440283 3.49 0
M  V30 4021 C 386.869 -0.175147 4.24239 0
M  V30 4022 O 387.893 -0.0792891 3.56112 0
M  V30 4023 O 386.752 -0.37276 5.45227 0
M  V30 4024 H 383.846 -0.0918236 0.821887 0
M  V30 4025 H 386.392 0.570307 1.5983 0
M  V30 4026 H 385.164 0.997402 3.78375 0
M  V30 4027 H 384.787 -0.712845 3.91158 0
M  V30 4028 N 385.784 -1.5574 0.241426 0
M  V30 4029 C 386.747 -2.19877 -0.647063 0
M  V30 4030 C 387.747 -1.16642 -1.10686 0
M  V30 4031 O 388.937 -1.41757 -1.01245 0
M  V30 4032 C 386.069 -2.83797 -1.88871 0
M  V30 4033 H 387.262 -2.99772 -0.087574 0
M  V30 4034 H 384.815 -1.56298 -0.00813574 0
M  V30 4035 H 385.55 -2.07824 -2.48957 0
M  V30 4036 H 385.335 -3.59414 -1.56728 0
M  V30 4037 H 386.825 -3.32898 -2.52129 0
M  V30 4038 N 387.262 0.0317525 -1.57568 0
M  V30 4039 C 388.192 1.03274 -2.0942 0
M  V30 4040 C 389.173 1.3788 -0.996143 0
M  V30 4041 O 390.358 1.46811 -1.27122 0
M  V30 4042 C 387.488 2.33448 -2.57137 0
M  V30 4043 C 386.442 2.13091 -3.71182 0
M  V30 4044 C 385.768 3.49001 -4.05095 0
M  V30 4045 C 387.068 1.51928 -4.99715 0
M  V30 4046 H 388.762 0.60112 -2.93303 0
M  V30 4047 H 386.308 0.287705 -1.41097 0
M  V30 4048 H 388.261 3.03802 -2.92032 0
M  V30 4049 H 386.985 2.78665 -1.70333 0
M  V30 4050 H 385.644 1.45171 -3.36632 0
M  V30 4051 H 385.292 3.91862 -3.15362 0
M  V30 4052 H 384.992 3.36207 -4.81911 0
M  V30 4053 H 386.516 4.20721 -4.42522 0
M  V30 4054 H 387.93 2.12196 -5.32584 0
M  V30 4055 H 386.327 1.49716 -5.81124 0
M  V30 4056 H 387.397 0.484811 -4.8247 0
M  V30 4057 N 388.74 1.54641 0.303973 0
M  V30 4058 C 389.968 1.77768 1.05858 0
M  V30 4059 C 390.383 0.535722 1.8104 0
M  V30 4060 O 389.74 -0.494337 1.75677 0
M  V30 4061 C 389.791 2.9834 2.04146 0
M  V30 4062 O 389.512 4.17736 1.32015 0
M  V30 4063 C 391.013 3.33832 2.91669 0
M  V30 4064 H 388.233 0.592961 0.314067 0
M  V30 4065 H 390.777 2.01583 0.344149 0
M  V30 4066 H 388.932 2.76742 2.71096 0
M  V30 4067 H 389.346 4.85693 1.97998 0
M  V30 4068 H 390.82 4.21448 3.56491 0
M  V30 4069 H 391.297 2.51857 3.59812 0
M  V30 4070 H 391.903 3.57579 2.30254 0
M  V30 4071 N 390.218 -0.567019 1.47046 0
M  V30 4072 C 391.181 -1.65696 1.58359 0
M  V30 4073 C 392.181 -1.54097 0.459441 0
M  V30 4074 O 393.371 -1.58432 0.724225 0
M  V30 4075 C 390.503 -3.05197 1.51879 0
M  V30 4076 H 391.696 -1.57019 2.5551 0
M  V30 4077 H 389.249 -0.786148 1.3509 0
M  V30 4078 H 389.984 -3.19417 0.560673 0
M  V30 4079 H 389.769 -3.15025 2.33455 0
M  V30 4080 H 391.259 -3.84511 1.62913 0
M  V30 4081 N 391.696 -1.35014 -0.812953 0
M  V30 4082 C 392.659 -1.27292 -1.90602 0
M  V30 4083 C 393.659 -0.185817 -1.59723 0
M  V30 4084 O 394.849 -0.439102 -1.68575 0
M  V30 4085 C 391.981 -0.967676 -3.26877 0
M  V30 4086 H 393.174 -2.24479 -1.9887 0
M  V30 4087 H 390.727 -1.19446 -1.00808 0
M  V30 4088 H 391.462 0.0005954 -3.243 0
M  V30 4089 H 391.247 -1.75412 -3.50675 0
M  V30 4090 H 392.737 -0.939085 -4.06904 0
M  V30 4091 N 393.175 1.03435 -1.18907 0
M  V30 4092 C 394.405 1.8012 -1.01195 0
M  V30 4093 C 394.813 1.8395 0.442613 0
M  V30 4094 O 394.156 1.27836 1.31923 0
M  V30 4095 C 394.218 3.26792 -1.49823 0
M  V30 4096 C 393.882 3.46609 -2.97844 0
M  V30 4097 C 394.879 3.37278 -3.95651 0
M  V30 4098 C 392.564 3.73001 -3.36416 0
M  V30 4099 C 394.558 3.54054 -5.30023 0
M  V30 4100 C 392.245 3.89423 -4.70949 0
M  V30 4101 C 393.243 3.79951 -5.67562 0
M  V30 4102 O 392.931 3.95895 -6.99659 0
M  V30 4103 H 392.663 0.573865 -0.357289 0
M  V30 4104 H 395.217 1.31207 -1.58031 0
M  V30 4105 H 393.447 3.76703 -0.873578 0
M  V30 4106 H 395.136 3.85055 -1.28404 0
M  V30 4107 H 395.902 3.16846 -3.67197 0
M  V30 4108 H 391.781 3.79469 -2.61772 0
M  V30 4109 H 395.325 3.46577 -6.05417 0
M  V30 4110 H 391.222 4.09351 -4.99101 0
M  V30 4111 H 391.99 4.13019 -7.06653 0
M  V30 4112 N 394.653 0.992116 1.22453 0
M  V30 4113 C 395.899 0.668523 1.91464 0
M  V30 4114 C 396.232 -0.797313 1.77078 0
M  V30 4115 O 395.507 -1.5765 1.13916 0
M  V30 4116 C 395.79 1.07424 3.43703 0
M  V30 4117 C 395.643 2.59857 3.67143 0
M  V30 4118 C 396.962 0.626891 4.35612 0
M  V30 4119 H 394.081 0.244341 0.695318 0
M  V30 4120 H 396.723 1.2355 1.44345 0
M  V30 4121 H 394.873 0.591816 3.83966 0
M  V30 4122 H 396.545 3.15764 3.3629 0
M  V30 4123 H 394.788 3.01961 3.11451 0
M  V30 4124 H 395.459 2.83296 4.73759 0
M  V30 4125 H 397.935 1.04125 4.02861 0
M  V30 4126 H 396.811 0.939076 5.40807 0
M  V30 4127 H 397.072 -0.472457 4.39568 0
M  V30 4128 N 396.131 -1.37776 0.765217 0
M  V30 4129 C 397.377 -2.00145 0.327072 0
M  V30 4130 C 397.71 -1.60607 -1.09175 0
M  V30 4131 O 396.985 -0.849127 -1.74986 0
M  V30 4132 C 397.268 -3.57109 0.46319 0
M  V30 4133 C 397.121 -4.06576 1.92395 0
M  V30 4134 C 398.44 -4.39888 -0.136473 0
M  V30 4135 H 395.559 -0.727113 0.120316 0
M  V30 4136 H 398.201 -1.63549 0.967039 0
M  V30 4137 H 396.351 -3.88414 -0.0816358 0
M  V30 4138 H 398.023 -3.85864 2.52798 0
M  V30 4139 H 396.266 -3.59011 2.43503 0
M  V30 4140 H 396.937 -5.15639 1.97028 0
M  V30 4141 H 399.413 -4.14803 0.328317 0
M  V30 4142 H 398.289 -5.48899 -0.0110582 0
M  V30 4143 H 398.55 -4.24758 -1.22608 0
M  V30 4144 N 397.609 -0.515225 -1.4894 0
M  V30 4145 C 398.886 0.0879088 -1.95402 0
M  V30 4146 C 399.266 1.52745 -1.45712 0
M  V30 4147 O 398.614 2.18238 -0.677093 0
M  V30 4148 C 398.824 -0.0141055 -3.48997 0
M  V30 4149 C 400.172 0.152646 -4.24326 0
M  V30 4150 O 401.196 0.0604025 -3.56149 0
M  V30 4151 O 400.055 0.34384 -5.45417 0
M  V30 4152 H 397.149 0.0874636 -0.822362 0
M  V30 4153 H 399.695 -0.578775 -1.59525 0
M  V30 4154 H 398.467 -1.01745 -3.77841 0
M  V30 4155 H 398.09 0.692091 -3.9153 0
M  V30 4156 N 399.087 1.5561 -0.249682 0
M  V30 4157 C 400.019 2.18834 0.681496 0
M  V30 4158 C 401.032 1.16546 1.1367 0
M  V30 4159 O 402.221 1.43397 1.06299 0
M  V30 4160 C 399.321 2.77992 1.9384 0
M  V30 4161 C 398.494 4.05725 1.63419 0
M  V30 4162 C 397.553 4.49174 2.74096 0
M  V30 4163 O 396.579 5.15492 2.41364 0
M  V30 4164 N 397.781 4.17191 4.03649 0
M  V30 4165 H 400.546 2.9937 0.140514 0
M  V30 4166 H 398.107 1.6175 -0.0697541 0
M  V30 4167 H 400.099 3.04015 2.67127 0
M  V30 4168 H 398.669 2.01596 2.38909 0
M  V30 4169 H 397.889 3.87261 0.736358 0
M  V30 4170 H 399.177 4.88999 1.40562 0
M  V30 4171 H 398.575 3.63955 4.33074 0
M  V30 4172 H 397.132 4.48043 4.73393 0
M  V30 4173 N 400.565 -0.0233959 1.57583 0
M  V30 4174 C 401.512 -1.02224 2.06927 0
M  V30 4175 C 402.482 -1.35575 0.959617 0
M  V30 4176 O 403.667 -1.45815 1.23055 0
M  V30 4177 C 400.807 -2.31636 2.5581 0
M  V30 4178 C 399.92 -2.04394 3.80588 0
M  V30 4179 C 399.055 -3.27717 4.18061 0
M  V30 4180 C 398.094 -2.96056 5.3574 0
M  V30 4181 N 397.231 -4.11847 5.68618 0
M  V30 4182 H 402.071 -0.594504 2.9201 0
M  V30 4183 H 399.608 -0.281921 1.44373 0
M  V30 4184 H 401.566 -3.07258 2.82221 0
M  V30 4185 H 400.196 -2.72122 1.73636 0
M  V30 4186 H 399.248 -1.19244 3.61227 0
M  V30 4187 H 400.56 -1.77042 4.66323 0
M  V30 4188 H 399.714 -4.11702 4.4563 0
M  V30 4189 H 398.453 -3.58188 3.30988 0
M  V30 4190 H 397.458 -2.10474 5.07918 0
M  V30 4191 H 398.683 -2.66857 6.24471 0
M  V30 4192 H 396.629 -4.42258 4.84504 0
M  V30 4193 H 396.546 -3.87938 6.48876 0
M  V30 4194 H 397.814 -4.96689 6.00766 0
M  V30 4195 N 402.043 -1.548 -0.295768 0
M  V30 4196 C 403.289 -1.74588 -1.03184 0
M  V30 4197 C 403.622 -0.532962 -1.86744 0
M  V30 4198 O 402.897 0.469872 -1.88739 0
M  V30 4199 C 403.18 -3.03791 -1.93347 0
M  V30 4200 C 403.033 -4.35392 -1.12933 0
M  V30 4201 C 404.352 -3.28892 -2.92435 0
M  V30 4202 H 401.471 -0.635221 -0.373715 0
M  V30 4203 H 404.113 -1.87519 -0.30606 0
M  V30 4204 H 402.263 -2.92898 -2.55232 0
M  V30 4205 H 403.935 -4.58211 -0.532943 0
M  V30 4206 H 402.178 -4.31642 -0.432168 0
M  V30 4207 H 402.849 -5.22074 -1.79284 0
M  V30 4208 H 405.325 -3.39429 -2.4068 0
M  V30 4209 H 404.201 -4.20603 -3.52682 0
M  V30 4210 H 404.462 -2.47437 -3.6637 0
M  V30 4211 N 403.521 0.559213 -1.47345 0
M  V30 4212 C 404.484 1.64854 -1.59235 0
M  V30 4213 C 405.484 1.53851 -0.467607 0
M  V30 4214 O 406.674 1.58045 -0.732617 0
M  V30 4215 C 403.806 3.04388 -1.53496 0
M  V30 4216 H 404.999 1.55662 -2.56339 0
M  V30 4217 H 402.552 0.778973 -1.35505 0
M  V30 4218 H 403.287 3.19115 -0.577604 0
M  V30 4219 H 403.072 3.13783 -2.35123 0
M  V30 4220 H 404.562 3.83642 -1.6495 0
M  V30 4221 N 404.999 1.35443 0.805782 0
M  V30 4222 C 405.947 1.28465 1.93906 0
M  V30 4223 C 406.941 0.17943 1.68447 0
M  V30 4224 O 408.147 0.345459 1.76654 0
M  V30 4225 H 404.522 0.399528 0.637088 0
M  V30 4226 H 406.493 2.24206 1.96912 0
M  V30 4227 C 405.242 1.07432 3.30687 0
M  V30 4228 H 404.565 1.91716 3.50835 0
M  V30 4229 H 406.005 1.06591 4.10383 0
M  V30 4230 C 404.464 -0.22179 3.36169 0
M  V30 4231 O 404.994 -1.21731 3.82811 0
M  V30 4232 N 403.2 -0.260841 2.89427 0
M  V30 4233 H 402.747 0.549884 2.51663 0
M  V30 4234 H 402.705 -1.12777 2.93477 0
M  V30 4235 N 406.477 -1.02803 1.19454 0
M  V30 4236 C 407.723 -1.76478 0.999171 0
M  V30 4237 C 408.056 -1.88456 -0.468828 0
M  V30 4238 O 407.331 -1.40198 -1.34814 0
M  V30 4239 C 407.614 -3.19044 1.66981 0
M  V30 4240 C 407.467 -3.14932 3.21151 0
M  V30 4241 C 408.786 -4.17456 1.39349 0
M  V30 4242 H 405.905 -0.640614 0.364393 0
M  V30 4243 H 408.547 -1.20005 1.47305 0
M  V30 4244 H 406.697 -3.67263 1.2669 0
M  V30 4245 H 408.369 -2.74605 3.70661 0
M  V30 4246 H 406.612 -2.52625 3.52652 0
M  V30 4247 H 407.283 -4.1566 3.63223 0
M  V30 4248 H 409.759 -3.77842 1.74283 0
M  V30 4249 H 408.635 -5.154 1.88823 0
M  V30 4250 H 408.896 -4.40949 0.318813 0
M  V30 4251 N 407.956 -0.998596 -1.21925 0
M  V30 4252 C 409.233 -0.593401 -1.86382 0
M  V30 4253 C 409.613 0.92916 -1.89552 0
M  V30 4254 O 408.961 1.81347 -1.39017 0
M  V30 4255 C 409.171 -1.22039 -3.26967 0
M  V30 4256 C 410.519 -1.32449 -4.03413 0
M  V30 4257 O 411.543 -1.17522 -3.36254 0
M  V30 4258 O 410.402 -1.56395 -5.23644 0
M  V30 4259 H 407.496 -0.202385 -0.801854 0
M  V30 4260 H 410.042 -1.09484 -1.29659 0
M  V30 4261 H 408.814 -2.26158 -3.19325 0
M  V30 4262 H 408.437 -0.704906 -3.91301 0
M  V30 4263 N 409.434 1.37368 -0.772513 0
M  V30 4264 C 410.845 1.8231 -0.402493 0
M  V30 4265 C 411.196 1.6436 1.07146 0
M  V30 4266 O 410.321 1.15514 1.82991 0
M  V30 4267 C 410.916 3.30979 -0.723776 0
M  V30 4268 C 409.475 3.74195 -0.406802 0
M  V30 4269 C 408.622 2.59885 -0.967218 0
M  V30 4270 H 411.573 1.25829 -0.967099 0
M  V30 4271 H 411.594 3.80499 -0.00870832 0
M  V30 4272 H 411.106 3.44011 -1.7966 0
M  V30 4273 H 409.207 3.66732 0.658673 0
M  V30 4274 H 409.32 4.7027 -0.915588 0
M  V30 4275 H 407.684 2.51674 -0.391416 0
M  V30 4276 H 408.467 2.7571 -2.04546 0
M  V30 4277 N 410.912 0.523116 1.48665 0
M  V30 4278 C 412.158 -0.0134963 2.02796 0
M  V30 4279 C 412.491 -1.34582 1.40004 0
M  V30 4280 O 411.766 -1.86756 0.543381 0
M  V30 4281 C 412.049 -0.14276 3.59817 0
M  V30 4282 C 411.902 1.21425 4.331 0
M  V30 4283 C 413.221 -0.872856 4.31357 0
M  V30 4284 H 410.34 -0.00343074 0.736992 0
M  V30 4285 H 412.982 0.678816 1.7746 0
M  V30 4286 H 411.132 -0.732401 3.81534 0
M  V30 4287 H 412.804 1.84447 4.2282 0
M  V30 4288 H 411.047 1.79791 3.94788 0
M  V30 4289 H 411.718 1.07687 5.41394 0
M  V30 4290 H 414.194 -0.372555 4.14429 0
M  V30 4291 H 413.07 -0.932185 5.40927 0
M  V30 4292 H 413.331 -1.92161 3.98154 0
M  V30 4293 N 412.39 -1.55475 0.257931 0
M  V30 4294 C 413.801 -1.8511 -0.243135 0
M  V30 4295 C 414.152 -1.17986 -1.5676 0
M  V30 4296 O 413.277 -0.462102 -2.11409 0
M  V30 4297 C 413.872 -3.35826 -0.447929 0
M  V30 4298 C 412.431 -3.65647 -0.893245 0
M  V30 4299 C 411.578 -2.7729 0.0232965 0
M  V30 4300 H 414.529 -1.51261 0.480199 0
M  V30 4301 H 414.55 -3.58002 -1.28898 0
M  V30 4302 H 414.062 -3.84652 0.516196 0
M  V30 4303 H 412.163 -3.22308 -1.86945 0
M  V30 4304 H 412.276 -4.73312 -0.742469 0
M  V30 4305 H 410.64 -2.49942 -0.490021 0
M  V30 4306 H 411.423 -3.28926 0.982994 0
M  V30 4307 N 413.868 0.0150385 -1.57593 0
M  V30 4308 C 415.117 0.702115 -1.89085 0
M  V30 4309 C 415.43 1.75764 -0.858277 0
M  V30 4310 O 416.636 2.49829 -1.0629 0
M  V30 4311 C 415.092 1.29992 -3.35604 0
M  V30 4312 C 414.7 0.280007 -4.47124 0
M  V30 4313 C 416.444 1.96606 -3.76227 0
M  V30 4314 C 414.351 0.886949 -5.84711 0
M  V30 4315 H 413.281 0.265997 -0.705522 0
M  V30 4316 H 415.932 -0.0430408 -1.8345 0
M  V30 4317 H 414.314 2.09525 -3.36029 0
M  V30 4318 H 415.488 -0.489631 -4.58191 0
M  V30 4319 H 413.803 -0.284835 -4.15425 0
M  V30 4320 H 416.4 2.42893 -4.76347 0
M  V30 4321 H 416.743 2.79024 -3.08952 0
M  V30 4322 H 417.276 1.23828 -3.78036 0
M  V30 4323 H 414.015 0.101876 -6.55421 0
M  V30 4324 H 413.535 1.6261 -5.77337 0
M  V30 4325 H 415.214 1.39011 -6.3189 0
M  V30 4326 N 415.346 1.54954 0.287554 0
M  V30 4327 C 416.623 1.65569 1.04146 0
M  V30 4328 C 417.003 0.512672 2.0478 0
M  V30 4329 O 416.351 -0.489038 2.23205 0
M  V30 4330 C 416.561 3.04163 1.71131 0
M  V30 4331 C 417.909 3.61429 2.22832 0
M  V30 4332 O 418.933 3.06702 1.81141 0
M  V30 4333 O 417.792 4.57281 2.9926 0
M  V30 4334 H 414.886 0.671881 0.482188 0
M  V30 4335 H 417.432 1.67297 0.28457 0
M  V30 4336 H 416.204 3.78796 0.981303 0
M  V30 4337 H 415.827 3.06271 2.53543 0
M  V30 4338 N 416.824 -0.551391 1.4764 0
M  V30 4339 C 418.07 -1.31024 1.54792 0
M  V30 4340 C 418.403 -1.9304 0.211967 0
M  V30 4341 O 417.678 -1.78175 -0.77999 0
M  V30 4342 C 417.961 -2.41593 2.67029 0
M  V30 4343 C 417.814 -1.84408 4.10261 0
M  V30 4344 C 419.133 -3.43488 2.75143 0
M  V30 4345 H 416.252 -0.475031 0.563485 0
M  V30 4346 H 418.894 -0.616454 1.79722 0
M  V30 4347 H 417.044 -3.00772 2.45904 0
M  V30 4348 H 418.716 -1.29445 4.42766 0
M  V30 4349 H 416.959 -1.15051 4.18265 0
M  V30 4350 H 417.63 -2.64367 4.84576 0
M  V30 4351 H 420.106 -2.94236 2.94218 0
M  V30 4352 H 418.982 -4.18274 3.55441 0
M  V30 4353 H 419.243 -4.02703 1.82435 0
M  V30 4354 N 418.302 -1.35869 -0.798587 0
M  V30 4355 C 419.548 -1.2978 -1.55836 0
M  V30 4356 C 419.881 0.125322 -1.93795 0
M  V30 4357 O 419.156 1.07658 -1.61987 0
M  V30 4358 C 419.439 -2.21188 -2.84162 0
M  V30 4359 C 419.292 -3.72155 -2.52628 0
M  V30 4360 C 420.611 -2.11545 -3.85923 0
M  V30 4361 H 417.73 -0.472769 -0.565383 0
M  V30 4362 H 420.372 -1.66341 -0.918192 0
M  V30 4363 H 418.522 -1.90139 -3.38791 0
M  V30 4364 H 420.194 -4.13682 -2.04121 0
M  V30 4365 H 418.437 -3.92042 -1.85704 0
M  V30 4366 H 419.108 -4.31511 -3.44242 0
M  V30 4367 H 421.584 -2.38855 -3.40716 0
M  V30 4368 H 420.46 -2.77688 -4.73477 0
M  V30 4369 H 420.721 -1.09987 -4.282 0
M  V30 4370 N 419.78 1.02168 -1.19998 0
M  V30 4371 C 421.026 1.75945 -1.00852 0
M  V30 4372 C 421.359 1.88702 0.458828 0
M  V30 4373 O 420.634 1.40911 1.34069 0
M  V30 4374 C 420.917 3.18154 -1.68671 0
M  V30 4375 C 420.77 3.13224 -3.22817 0
M  V30 4376 C 422.089 4.16711 -1.41561 0
M  V30 4377 H 419.208 0.638673 -0.367785 0
M  V30 4378 H 421.85 1.19222 -1.4794 0
M  V30 4379 H 420 3.66586 -1.28636 0
M  V30 4380 H 421.672 2.72635 -3.72112 0
M  V30 4381 H 419.915 2.50751 -3.53986 0
M  V30 4382 H 420.586 4.13728 -3.65422 0
M  V30 4383 H 423.062 3.76913 -1.76284 0
M  V30 4384 H 421.938 5.14391 -1.91553 0
M  V30 4385 H 422.199 4.40774 -0.342193 0
M  V30 4386 N 421.258 1.00505 1.21394 0
M  V30 4387 C 422.535 0.603277 1.86064 0
M  V30 4388 C 422.915 -0.919095 1.90042 0
M  V30 4389 O 422.263 -1.80607 1.39977 0
M  V30 4390 C 422.473 1.23772 3.26315 0
M  V30 4391 C 423.821 1.34586 4.02705 0
M  V30 4392 O 424.845 1.19304 3.35626 0
M  V30 4393 O 423.704 1.59169 5.22807 0
M  V30 4394 H 420.798 0.206634 0.800769 0
M  V30 4395 H 423.344 1.1017 1.29076 0
M  V30 4396 H 422.116 2.27848 3.18121 0
M  V30 4397 H 421.739 0.725648 3.90922 0
M  V30 4398 N 422.737 -1.36956 0.779787 0
M  V30 4399 C 423.684 -2.30175 0.169697 0
M  V30 4400 C 424.654 -1.51501 -0.68094 0
M  V30 4401 O 425.839 -1.80042 -0.631629 0
M  V30 4402 C 422.979 -3.37985 -0.697131 0
M  V30 4403 C 422.092 -4.31661 0.170992 0
M  V30 4404 C 421.227 -5.2655 -0.701298 0
M  V30 4405 C 420.266 -6.11867 0.168869 0
M  V30 4406 N 419.403 -6.98973 -0.661855 0
M  V30 4407 H 424.243 -2.81767 0.970135 0
M  V30 4408 H 421.78 -1.38699 0.489994 0
M  V30 4409 H 423.738 -3.99128 -1.2146 0
M  V30 4410 H 422.368 -2.87739 -1.46309 0
M  V30 4411 H 421.42 -3.71756 0.80634 0
M  V30 4412 H 422.732 -4.91644 0.841875 0
M  V30 4413 H 421.886 -5.92937 -1.28494 0
M  V30 4414 H 420.625 -4.66998 -1.40584 0
M  V30 4415 H 419.63 -5.44452 0.764986 0
M  V30 4416 H 420.855 -6.73493 0.870863 0
M  V30 4417 H 418.801 -6.41941 -1.35086 0
M  V30 4418 H 418.718 -7.55984 -0.0484447 0
M  V30 4419 H 419.986 -7.6974 -1.22963 0
M  V30 4420 N 424.215 -0.530993 -1.48385 0
M  V30 4421 C 425.147 0.268353 -2.27624 0
M  V30 4422 C 426.16 0.903525 -1.35426 0
M  V30 4423 O 427.349 0.781796 -1.60469 0
M  V30 4424 C 424.449 1.39535 -3.08842 0
M  V30 4425 C 423.622 0.861913 -4.28824 0
M  V30 4426 C 422.681 1.87016 -4.91845 0
M  V30 4427 O 421.707 1.4267 -5.5103 0
M  V30 4428 N 422.909 3.20238 -4.84178 0
M  V30 4429 H 425.674 -0.41123 -2.96865 0
M  V30 4430 H 423.235 -0.365387 -1.57723 0
M  V30 4431 H 425.227 2.06803 -3.47871 0
M  V30 4432 H 423.797 1.97859 -2.42014 0
M  V30 4433 H 423.017 0.0132126 -3.94198 0
M  V30 4434 H 424.305 0.484415 -5.06489 0
M  V30 4435 H 423.703 3.58932 -4.37246 0
M  V30 4436 H 422.26 3.83136 -5.27305 0
M  V30 4437 N 425.693 1.55336 -0.266172 0
M  V30 4438 C 427.104 1.85236 0.233315 0
M  V30 4439 C 427.455 1.18816 1.56132 0
M  V30 4440 O 426.58 0.473307 2.11161 0
M  V30 4441 C 427.175 3.36059 0.430113 0
M  V30 4442 C 425.734 3.66116 0.873842 0
M  V30 4443 C 424.881 2.77274 -0.0380016 0
M  V30 4444 H 427.832 1.51004 -0.488214 0
M  V30 4445 H 427.853 3.58681 1.26998 0
M  V30 4446 H 427.365 3.84373 -0.536588 0
M  V30 4447 H 425.466 3.23295 1.85233 0
M  V30 4448 H 425.579 4.73699 0.717358 0
M  V30 4449 H 423.943 2.50198 0.476759 0
M  V30 4450 H 424.726 3.284 -1.00042 0
M  V30 4451 N 427.171 -0.0066808 1.57599 0
M  V30 4452 C 428.119 -1.01851 2.09115 0
M  V30 4453 C 429.113 -1.36021 1.00969 0
M  V30 4454 O 430.319 -1.34663 1.19439 0
M  V30 4455 H 426.694 -0.346083 0.667631 0
M  V30 4456 H 428.665 -0.558394 2.93129 0
M  V30 4457 C 427.414 -2.30374 2.60429 0
M  V30 4458 H 426.737 -2.04947 3.43273 0
M  V30 4459 H 428.177 -2.99466 3.00161 0
M  V30 4460 C 426.636 -3.00893 1.51542 0
M  V30 4461 O 427.166 -3.91614 0.894484 0
M  V30 4462 N 425.372 -2.62603 1.2445 0
M  V30 4463 H 424.919 -1.88911 1.75129 0
M  V30 4464 H 424.877 -3.10101 0.518137 0
M  V30 4465 N 428.649 -1.55105 -0.279332 0
M  V30 4466 C 429.559 -1.90638 -1.36727 0
M  V30 4467 C 430.575 -0.802899 -1.54368 0
M  V30 4468 O 431.751 -1.10138 -1.68616 0
M  V30 4469 C 428.816 -2.16547 -2.70755 0
M  V30 4470 C 427.877 -3.40146 -2.61915 0
M  V30 4471 C 427.11 -3.6481 -3.8955 0
M  V30 4472 O 427.333 -2.92095 -4.89935 0
M  V30 4473 O 426.267 -4.58343 -3.90135 0
M  V30 4474 H 430.093 -2.83237 -1.09591 0
M  V30 4475 H 427.678 -1.4157 -0.477306 0
M  V30 4476 H 429.56 -2.34665 -3.50014 0
M  V30 4477 H 428.235 -1.27131 -2.9769 0
M  V30 4478 H 427.142 -3.2737 -1.81052 0
M  V30 4479 H 428.475 -4.29761 -2.3993 0
M  V30 4480 N 430.127 0.543554 -1.4793 0
M  V30 4481 C 431.375 1.29752 -1.54948 0
M  V30 4482 C 431.696 1.93764 -0.219242 0
M  V30 4483 O 430.966 1.80639 0.75805 0
M  V30 4484 H 429.546 0.481874 -0.570795 0
M  V30 4485 H 432.208 0.633636 -1.84312 0
M  V30 4486 H 431.304 2.08392 -2.32334 0
M  V30 4487 N 431.605 1.3629 0.791371 0
M  V30 4488 C 432.568 1.30309 1.88553 0
M  V30 4489 C 433.568 0.211204 1.59407 0
M  V30 4490 O 434.758 0.465865 1.67855 0
M  V30 4491 C 431.89 1.01956 3.25297 0
M  V30 4492 H 433.083 2.27614 1.95273 0
M  V30 4493 H 430.636 1.21035 0.988953 0
M  V30 4494 H 431.371 0.050998 3.2426 0
M  V30 4495 H 431.156 1.80968 3.4784 0
M  V30 4496 H 432.646 1.0037 4.05359 0
M  V30 4497 N 433.083 -1.0153 1.20538 0
M  V30 4498 C 434.311 -1.78746 1.04199 0
M  V30 4499 C 434.726 -1.84323 -0.408733 0
M  V30 4500 O 434.083 -1.29714 -1.28377 0
M  V30 4501 C 434.134 -3.23152 1.62035 0
M  V30 4502 O 433.855 -3.17918 3.0143 0
M  V30 4503 C 435.356 -4.16911 1.50666 0
M  V30 4504 H 432.576 -0.56208 0.366479 0
M  V30 4505 H 435.12 -1.27794 1.59653 0
M  V30 4506 H 433.275 -3.71248 1.10697 0
M  V30 4507 H 433.689 -4.08567 3.28897 0
M  V30 4508 H 435.163 -5.16072 1.95892 0
M  V30 4509 H 435.64 -4.36791 0.459363 0
M  V30 4510 H 436.246 -3.74698 2.01201 0
M  V30 4511 N 434.561 -1.01147 -1.20859 0
M  V30 4512 C 435.807 -0.698899 -1.90377 0
M  V30 4513 C 436.14 0.76904 -1.78324 0
M  V30 4514 O 435.415 1.55817 -1.16409 0
M  V30 4515 C 435.698 -1.12878 -3.41951 0
M  V30 4516 C 435.551 -2.65665 -3.62963 0
M  V30 4517 C 436.87 -0.696114 -4.3456 0
M  V30 4518 H 433.989 -0.255372 -0.691342 0
M  V30 4519 H 436.631 -1.25831 -1.42361 0
M  V30 4520 H 434.781 -0.652827 -3.82976 0
M  V30 4521 H 436.453 -3.21074 -3.31224 0
M  V30 4522 H 434.696 -3.06878 -3.06608 0
M  V30 4523 H 435.367 -2.90797 -4.69192 0
M  V30 4524 H 437.843 -1.10521 -4.01154 0
M  V30 4525 H 436.719 -1.025 -5.39245 0
M  V30 4526 H 436.98 0.402465 -4.40264 0
M  V30 4527 N 436.039 1.36541 -0.78704 0
M  V30 4528 C 437.455 1.52571 -0.46844 0
M  V30 4529 C 437.655 1.7415 1.01361 0
M  V30 4530 O 436.711 1.77163 1.79915 0
M  V30 4531 C 438.024 2.71299 -1.29682 0
M  V30 4532 C 439.572 2.85169 -1.29027 0
M  V30 4533 C 440.047 4.06898 -2.10233 0
M  V30 4534 N 441.538 4.1404 -2.07666 0
M  V30 4535 C 442.273 5.07301 -2.67271 0
M  V30 4536 N 441.769 6.06021 -3.35724 0
M  V30 4537 N 443.562 4.99898 -2.57018 0
M  V30 4538 H 435.713 1.20788 -1.74711 0
M  V30 4539 H 437.976 0.589364 -0.742532 0
M  V30 4540 H 437.682 2.61868 -2.34773 0
M  V30 4541 H 437.556 3.6539 -0.936479 0
M  V30 4542 H 439.943 2.94062 -0.247284 0
M  V30 4543 H 440.024 1.91992 -1.69035 0
M  V30 4544 H 439.668 3.98766 -3.1456 0
M  V30 4545 H 439.598 4.99218 -1.67597 0
M  V30 4546 H 442.089 3.43357 -1.57843 0
M  V30 4547 H 442.402 6.73741 -3.78541 0
M  V30 4548 H 440.747 6.06253 -3.39826 0
M  V30 4549 H 443.938 4.21724 -2.03142 0
M  V30 4550 H 444.111 5.72392 -3.03761 0
M  V30 4551 N 437.518 0.538854 1.48102 0
M  V30 4552 C 438.746 0.0123136 2.06896 0
M  V30 4553 C 439.161 -1.27312 1.39417 0
M  V30 4554 O 438.518 -1.75949 0.484582 0
M  V30 4555 C 438.569 -0.206118 3.60912 0
M  V30 4556 O 438.29 1.0284 4.25859 0
M  V30 4557 C 439.791 -0.772033 4.36526 0
M  V30 4558 H 437.011 0.0375239 0.66995 0
M  V30 4559 H 439.555 0.747032 1.90367 0
M  V30 4560 H 437.71 -0.89091 3.77017 0
M  V30 4561 H 438.124 0.814654 5.18135 0
M  V30 4562 H 439.598 -0.874251 5.45033 0
M  V30 4563 H 440.075 -1.77904 4.01555 0
M  V30 4564 H 440.681 -0.123526 4.25121 0
M  V30 4565 N 438.996 -1.55193 0.274407 0
M  V30 4566 C 440.273 -1.91584 -0.394331 0
M  V30 4567 C 440.653 -1.19858 -1.73774 0
M  V30 4568 O 440.001 -0.3252 -2.26174 0
M  V30 4569 C 440.211 -3.4487 -0.535311 0
M  V30 4570 C 441.559 -4.16636 -0.818534 0
M  V30 4571 O 442.583 -3.5076 -0.620146 0
M  V30 4572 O 441.442 -5.33209 -1.19792 0
M  V30 4573 H 438.536 -0.798349 -0.215794 0
M  V30 4574 H 441.082 -1.66646 0.320507 0
M  V30 4575 H 439.854 -3.89145 0.410141 0
M  V30 4576 H 439.477 -3.75759 -1.29964 0
M  V30 4577 N 440.474 -0.00167713 -1.576 0
M  V30 4578 C 441.437 0.974046 -2.07473 0
M  V30 4579 C 442.437 1.27143 -0.984444 0
M  V30 4580 O 443.627 1.21633 -1.24703 0
M  V30 4581 C 440.759 2.29849 -2.51759 0
M  V30 4582 H 441.952 0.54262 -2.9495 0
M  V30 4583 H 439.505 0.245829 -1.54355 0
M  V30 4584 H 440.24 2.77677 -1.67529 0
M  V30 4585 H 440.025 2.09584 -3.31386 0
M  V30 4586 H 441.515 2.9984 -2.90664 0
M  V30 4587 N 441.952 1.55251 0.271103 0
M  V30 4588 C 442.862 1.9136 1.35714 0
M  V30 4589 C 443.878 0.811075 1.5394 0
M  V30 4590 O 445.054 1.11031 1.6803 0
M  V30 4591 C 442.119 2.1798 2.69603 0
M  V30 4592 C 441.18 3.4153 2.60107 0
M  V30 4593 C 440.413 3.66871 3.8761 0
M  V30 4594 O 440.636 2.94689 4.8838 0
M  V30 4595 O 439.57 4.60405 3.87699 0
M  V30 4596 H 443.396 2.83815 1.08088 0
M  V30 4597 H 440.981 1.41821 0.469792 0
M  V30 4598 H 442.863 2.36518 3.48765 0
M  V30 4599 H 441.538 1.28708 2.97012 0
M  V30 4600 H 440.445 3.28325 1.79314 0
M  V30 4601 H 441.778 4.31027 2.37647 0
M  V30 4602 N 443.43 -0.535701 1.48216 0
M  V30 4603 C 444.377 -1.64083 1.62312 0
M  V30 4604 C 445.347 -1.59448 0.465365 0
M  V30 4605 O 446.532 -1.77959 0.688135 0
M  V30 4606 C 443.672 -3.0236 1.66349 0
M  V30 4607 C 442.785 -3.17273 2.93193 0
M  V30 4608 C 441.92 -4.46075 2.88427 0
M  V30 4609 C 440.959 -4.54496 4.1 0
M  V30 4610 N 440.096 -5.7468 4.03345 0
M  V30 4611 H 444.936 -1.51374 2.5669 0
M  V30 4612 H 442.473 -0.737059 1.27302 0
M  V30 4613 H 444.431 -3.82461 1.66672 0
M  V30 4614 H 443.061 -3.13854 0.754672 0
M  V30 4615 H 442.113 -2.30462 3.02641 0
M  V30 4616 H 443.425 -3.19357 3.83162 0
M  V30 4617 H 442.579 -5.3446 2.87119 0
M  V30 4618 H 441.318 -4.46504 1.96177 0
M  V30 4619 H 440.323 -3.64519 4.11589 0
M  V30 4620 H 441.548 -4.5581 5.03402 0
M  V30 4621 H 439.494 -5.76017 3.13912 0
M  V30 4622 H 439.411 -5.78234 4.87013 0
M  V30 4623 H 440.679 -6.65367 4.06087 0
M  V30 4624 N 444.908 -1.36708 -0.784132 0
M  V30 4625 C 446.138 -1.34203 -1.57077 0
M  V30 4626 C 446.546 0.0774945 -1.89041 0
M  V30 4627 O 445.889 1.04628 -1.50992 0
M  V30 4628 C 445.951 -2.10351 -2.91535 0
M  V30 4629 C 445.615 -3.59405 -2.82272 0
M  V30 4630 C 446.612 -4.53545 -2.54151 0
M  V30 4631 C 444.297 -4.02362 -3.00683 0
M  V30 4632 C 446.291 -5.8862 -2.44551 0
M  V30 4633 C 443.978 -5.37526 -2.90704 0
M  V30 4634 C 444.976 -6.30468 -2.62677 0
M  V30 4635 O 444.664 -7.63149 -2.52702 0
M  V30 4636 H 444.396 -0.461791 -0.493685 0
M  V30 4637 H 446.95 -1.80475 -0.980712 0
M  V30 4638 H 445.18 -1.5875 -3.52612 0
M  V30 4639 H 446.869 -2.00636 -3.52845 0
M  V30 4640 H 447.635 -4.21669 -2.39625 0
M  V30 4641 H 443.514 -3.30389 -3.21503 0
M  V30 4642 H 447.058 -6.61133 -2.22596 0
M  V30 4643 H 442.955 -5.69008 -3.04795 0
M  V30 4644 H 443.723 -7.73331 -2.68144 0
M  V30 4645 N 446.386 1.0089 -1.21074 0
M  V30 4646 C 447.797 1.56056 -1.02486 0
M  V30 4647 C 448.148 1.91728 0.416506 0
M  V30 4648 O 447.273 1.73066 1.29912 0
M  V30 4649 C 447.868 2.83563 -1.85411 0
M  V30 4650 C 446.427 3.3523 -1.71166 0
M  V30 4651 C 445.574 2.0846 -1.82865 0
M  V30 4652 H 448.525 0.831818 -1.35154 0
M  V30 4653 H 448.546 3.55286 -1.36205 0
M  V30 4654 H 448.058 2.57569 -2.9031 0
M  V30 4655 H 446.159 3.66167 -0.689361 0
M  V30 4656 H 446.272 4.06913 -2.52901 0
M  V30 4657 H 444.636 2.21275 -1.26132 0
M  V30 4658 H 445.419 1.84883 -2.89263 0
M  V30 4659 N 447.864 1.01787 1.20321 0
M  V30 4660 C 448.794 0.609625 2.25401 0
M  V30 4661 C 449.775 -0.375951 1.65893 0
M  V30 4662 O 450.96 -0.261101 1.92437 0
M  V30 4663 C 448.09 -0.0515995 3.47262 0
M  V30 4664 C 447.044 0.855095 4.19371 0
M  V30 4665 C 446.37 0.0595757 5.34667 0
M  V30 4666 C 447.67 2.16374 4.75373 0
M  V30 4667 H 449.364 1.48803 2.59804 0
M  V30 4668 H 446.91 0.716934 1.24884 0
M  V30 4669 H 448.863 -0.348764 4.19954 0
M  V30 4670 H 447.587 -0.964726 3.12027 0
M  V30 4671 H 446.246 1.13628 3.48546 0
M  V30 4672 H 445.894 -0.85524 4.95676 0
M  V30 4673 H 445.594 0.663406 5.83843 0
M  V30 4674 H 447.118 -0.231105 6.10162 0
M  V30 4675 H 448.532 1.92885 5.39878 0
M  V30 4676 H 446.929 2.71853 5.34991 0
M  V30 4677 H 447.999 2.82589 3.94045 0
M  V30 4678 N 449.342 -1.36122 0.79427 0
M  V30 4679 C 450.57 -2.03362 0.380989 0
M  V30 4680 C 450.985 -1.59881 -1.00416 0
M  V30 4681 O 450.342 -0.790515 -1.6449 0
M  V30 4682 C 450.393 -3.58804 0.440649 0
M  V30 4683 O 450.114 -4.007 1.77118 0
M  V30 4684 C 451.615 -4.43296 0.0186117 0
M  V30 4685 H 448.835 -0.652526 0.156367 0
M  V30 4686 H 451.379 -1.73998 1.07447 0
M  V30 4687 H 449.534 -3.8686 -0.204458 0
M  V30 4688 H 449.948 -4.95309 1.72538 0
M  V30 4689 H 451.422 -5.51887 0.111488 0
M  V30 4690 H 451.899 -4.2684 -1.03461 0
M  V30 4691 H 452.505 -4.20512 0.636395 0
M  V30 4692 N 450.82 -0.546701 -1.47814 0
M  V30 4693 C 452.067 -0.0187407 -2.02491 0
M  V30 4694 C 452.395 1.32685 -1.42215 0
M  V30 4695 O 451.65 1.87413 -0.563454 0
M  V30 4696 C 451.949 0.134869 -3.57145 0
M  V30 4697 C 451.615 -1.13849 -4.3629 0
M  V30 4698 C 450.277 -1.48743 -4.57634 0
M  V30 4699 C 452.629 -1.98277 -4.82012 0
M  V30 4700 C 449.957 -2.67932 -5.21948 0
M  V30 4701 C 452.309 -3.16659 -5.4764 0
M  V30 4702 C 450.973 -3.51879 -5.67219 0
M  V30 4703 H 450.243 -0.0068577 -0.740968 0
M  V30 4704 H 452.89 -0.716097 -1.77607 0
M  V30 4705 H 451.195 0.915118 -3.80963 0
M  V30 4706 H 452.892 0.558556 -3.97091 0
M  V30 4707 H 449.482 -0.856767 -4.19949 0
M  V30 4708 H 453.666 -1.72628 -4.6531 0
M  V30 4709 H 448.922 -2.95401 -5.35302 0
M  V30 4710 H 453.096 -3.82374 -5.82033 0
M  V30 4711 H 450.723 -4.44331 -6.16825 0
M  V30 4712 N 452.299 1.55045 -0.282633 0
M  V30 4713 C 453.545 2.00056 0.332481 0
M  V30 4714 C 453.878 1.1708 1.54939 0
M  V30 4715 O 453.153 0.2427 1.9298 0
M  V30 4716 C 453.436 3.53086 0.70725 0
M  V30 4717 C 453.289 4.46813 -0.517521 0
M  V30 4718 C 454.608 4.12245 1.54084 0
M  V30 4719 H 451.727 0.727268 0.119373 0
M  V30 4720 H 454.369 1.85932 -0.391076 0
M  V30 4721 H 452.519 3.65253 1.32372 0
M  V30 4722 H 454.191 4.46579 -1.15607 0
M  V30 4723 H 452.434 4.18163 -1.1542 0
M  V30 4724 H 453.105 5.51595 -0.211426 0
M  V30 4725 H 455.581 4.03401 1.02013 0
M  V30 4726 H 454.457 5.19515 1.77186 0
M  V30 4727 H 454.718 3.62951 2.52427 0
M  V30 4728 N 453.777 0.010035 1.57597 0
M  V30 4729 C 454.74 -0.963029 2.07986 0
M  V30 4730 C 455.74 -1.26619 0.991173 0
M  V30 4731 O 456.93 -1.2097 1.25347 0
M  V30 4732 C 454.062 -2.2851 2.52974 0
M  V30 4733 H 455.255 -0.526971 2.95234 0
M  V30 4734 H 452.808 -0.237639 1.54483 0
M  V30 4735 H 453.543 -2.76784 1.69 0
M  V30 4736 H 453.328 -2.07824 3.32493 0
M  V30 4737 H 454.818 -2.98294 2.9225 0
M  V30 4738 N 455.255 -1.55392 -0.262866 0
M  V30 4739 C 456.671 -1.47459 -0.610582 0
M  V30 4740 C 456.871 -0.697031 -1.8906 0
M  V30 4741 O 455.927 -0.219952 -2.5154 0
M  V30 4742 C 457.24 -2.91751 -0.728131 0
M  V30 4743 C 458.788 -3.02027 -0.821517 0
M  V30 4744 C 459.263 -4.47594 -0.97076 0
M  V30 4745 N 460.754 -4.51465 -1.03603 0
M  V30 4746 C 461.489 -5.61326 -1.17049 0
M  V30 4747 N 460.985 -6.81032 -1.2715 0
M  V30 4748 N 462.778 -5.49089 -1.20239 0
M  V30 4749 H 454.929 -2.04395 0.577632 0
M  V30 4750 H 457.192 -0.927287 0.197086 0
M  V30 4751 H 456.898 -3.51413 0.142132 0
M  V30 4752 H 456.772 -3.4134 -1.6052 0
M  V30 4753 H 459.159 -2.42456 -1.68224 0
M  V30 4754 H 459.24 -2.55674 0.0803688 0
M  V30 4755 H 458.884 -5.07771 -0.114655 0
M  V30 4756 H 458.814 -4.91613 -1.88745 0
M  V30 4757 H 461.305 -3.6524 -0.96996 0
M  V30 4758 H 461.618 -7.60511 -1.37271 0
M  V30 4759 H 459.963 -6.83824 -1.24136 0
M  V30 4760 H 463.154 -4.54507 -1.11985 0
M  V30 4761 H 463.327 -6.34749 -1.30373 0
M  V30 4762 N 456.733 0.527833 -1.48498 0
M  V30 4763 C 457.681 1.65313 -1.63628 0
M  V30 4764 C 458.675 1.6177 -0.502676 0
M  V30 4765 O 459.881 1.66601 -0.681469 0
M  V30 4766 H 456.256 0.547518 -0.515488 0
M  V30 4767 H 458.227 1.49696 -2.58135 0
M  V30 4768 C 456.976 3.03576 -1.6952 0
M  V30 4769 H 456.299 3.06997 -2.56111 0
M  V30 4770 H 457.739 3.81923 -1.84149 0
M  V30 4771 C 456.198 3.34089 -0.43432 0
M  V30 4772 O 456.728 3.99151 0.451852 0
M  V30 4773 N 454.934 2.88991 -0.305368 0
M  V30 4774 H 454.481 2.36222 -1.02747 0
M  V30 4775 H 454.439 3.09776 0.537249 0
M  V30 4776 N 458.211 1.37122 0.776871 0
M  V30 4777 C 459.622 1.28667 1.35284 0
M  V30 4778 C 459.973 -0.0680035 1.96082 0
M  V30 4779 O 459.098 -0.969743 1.93455 0
M  V30 4780 C 459.693 2.32997 2.45963 0
M  V30 4781 C 458.252 2.28191 2.99342 0
M  V30 4782 C 457.399 2.17101 1.72517 0
M  V30 4783 H 460.35 1.47819 0.577527 0
M  V30 4784 H 460.371 1.97366 3.2531 0
M  V30 4785 H 459.883 3.3158 2.01684 0
M  V30 4786 H 457.984 1.33115 3.4801 0
M  V30 4787 H 458.097 3.21397 3.55304 0
M  V30 4788 H 456.461 1.63562 1.95242 0
M  V30 4789 H 457.244 3.17591 1.30348 0
M  V30 4790 N 459.689 -1.00246 1.21608 0
M  V30 4791 C 460.599 -2.12515 0.993709 0
M  V30 4792 C 461.615 -1.73913 -0.0549939 0
M  V30 4793 O 462.791 -2.00943 0.135619 0
M  V30 4794 C 459.856 -3.42083 0.563953 0
M  V30 4795 C 458.917 -3.94843 1.68516 0
M  V30 4796 C 458.15 -5.18226 1.27582 0
M  V30 4797 O 458.373 -5.70201 0.150506 0
M  V30 4798 O 457.307 -5.64497 2.0887 0
M  V30 4799 H 461.133 -2.34152 1.93407 0
M  V30 4800 H 458.718 -1.10891 1.00118 0
M  V30 4801 H 460.6 -4.20073 0.334194 0
M  V30 4802 H 459.275 -3.21828 -0.347665 0
M  V30 4803 H 458.182 -3.18068 1.96935 0
M  V30 4804 H 459.515 -4.19512 2.5743 0
M  V30 4805 N 461.167 -1.02423 -1.1978 0
M  V30 4806 C 462.13 -0.605703 -2.21052 0
M  V30 4807 C 463.13 0.328209 -1.57415 0
M  V30 4808 O 464.32 0.115853 -1.73814 0
M  V30 4809 C 461.452 0.114366 -3.40708 0
M  V30 4810 H 462.645 -1.5017 -2.59594 0
M  V30 4811 H 460.198 -0.814888 -1.33376 0
M  V30 4812 H 460.933 1.02492 -3.07678 0
M  V30 4813 H 460.718 -0.556641 -3.88129 0
M  V30 4814 H 462.208 0.394272 -4.15735 0
M  V30 4815 N 462.645 1.35699 -0.801477 0
M  V30 4816 C 463.555 2.33661 -0.209691 0
M  V30 4817 C 464.571 1.6162 0.644591 0
M  V30 4818 O 465.747 1.93529 0.557545 0
M  V30 4819 C 462.812 3.40816 0.636033 0
M  V30 4820 C 461.873 4.28639 -0.238147 0
M  V30 4821 C 461.106 5.30676 0.567307 0
M  V30 4822 O 461.329 5.41174 1.8024 0
M  V30 4823 O 460.263 6.01887 -0.0391336 0
M  V30 4824 H 464.089 2.8606 -1.01996 0
M  V30 4825 H 461.674 1.38379 -0.563164 0
M  V30 4826 H 463.556 4.06301 1.11791 0
M  V30 4827 H 462.231 2.90696 1.42399 0
M  V30 4828 H 461.138 3.66152 -0.767044 0
M  V30 4829 H 462.471 4.82143 -0.989915 0
M  V30 4830 N 464.123 0.554532 1.47522 0
M  V30 4831 C 465.37 0.029479 2.02479 0
M  V30 4832 C 465.698 -1.31929 1.42916 0
M  V30 4833 O 464.953 -1.87112 0.573385 0
M  V30 4834 C 465.252 -0.115927 3.57212 0
M  V30 4835 C 464.918 1.16161 4.3568 0
M  V30 4836 C 463.58 1.51168 4.56839 0
M  V30 4837 C 465.932 2.0083 4.80954 0
M  V30 4838 C 463.26 2.70696 5.2052 0
M  V30 4839 C 465.612 3.19559 5.45953 0
M  V30 4840 C 464.276 3.54882 5.65345 0
M  V30 4841 H 463.546 0.0107871 0.740921 0
M  V30 4842 H 466.193 0.725506 1.77225 0
M  V30 4843 H 464.498 -0.894902 3.81443 0
M  V30 4844 H 466.195 -0.53749 3.97381 0
M  V30 4845 H 462.785 0.879026 4.19489 0
M  V30 4846 H 466.969 1.75093 4.64388 0
M  V30 4847 H 462.225 2.98236 5.33728 0
M  V30 4848 H 466.399 3.85456 5.79997 0
M  V30 4849 H 464.026 4.47596 6.1446 0
M  V30 4850 N 465.601 -1.54893 0.290851 0
M  V30 4851 C 466.848 -1.99933 -0.321391 0
M  V30 4852 C 467.176 -1.17927 -1.54672 0
M  V30 4853 O 466.431 -0.240902 -1.94212 0
M  V30 4854 C 466.73 -3.49815 -0.732397 0
M  V30 4855 C 466.396 -4.4921 0.390056 0
M  V30 4856 C 465.058 -4.76107 0.698223 0
M  V30 4857 C 467.41 -5.08453 1.14562 0
M  V30 4858 C 464.738 -5.59514 1.76526 0
M  V30 4859 C 467.09 -5.9302 2.2025 0
M  V30 4860 C 465.754 -6.18232 2.51684 0
M  V30 4861 H 465.024 -0.731608 -0.117605 0
M  V30 4862 H 467.671 -1.87107 0.407839 0
M  V30 4863 H 465.976 -3.60199 -1.54155 0
M  V30 4864 H 467.673 -3.82083 -1.21712 0
M  V30 4865 H 464.263 -4.28372 0.13976 0
M  V30 4866 H 468.447 -4.87683 0.920801 0
M  V30 4867 H 463.703 -5.77289 2.01364 0
M  V30 4868 H 467.877 -6.37955 2.7926 0
M  V30 4869 H 465.504 -6.82653 3.34499 0
M  V30 4870 N 467.08 -0.0183926 -1.57589 0
M  V30 4871 C 468.01 0.965596 -2.12599 0
M  V30 4872 C 468.991 1.34641 -1.0395 0
M  V30 4873 O 470.176 1.42693 -1.31729 0
M  V30 4874 C 467.306 2.25149 -2.64434 0
M  V30 4875 C 466.26 2.01175 -3.77773 0
M  V30 4876 C 465.586 3.35937 -4.15994 0
M  V30 4877 C 466.886 1.35953 -5.04296 0
M  V30 4878 H 468.58 0.507504 -2.95067 0
M  V30 4879 H 466.126 0.242671 -1.41941 0
M  V30 4880 H 468.079 2.94357 -3.01549 0
M  V30 4881 H 466.803 2.73105 -1.79112 0
M  V30 4882 H 465.462 1.34388 -3.4108 0
M  V30 4883 H 465.11 3.81631 -3.27669 0
M  V30 4884 H 464.81 3.20705 -4.92364 0
M  V30 4885 H 466.334 4.0643 -4.55683 0
M  V30 4886 H 467.748 1.95144 -5.39065 0
M  V30 4887 H 466.145 1.31152 -5.85593 0
M  V30 4888 H 467.215 0.331071 -4.83768 0
M  V30 4889 N 468.558 1.5553 0.254621 0
M  V30 4890 C 469.835 1.6774 1.00611 0
M  V30 4891 C 470.215 0.555993 2.03647 0
M  V30 4892 O 469.563 -0.441583 2.24193 0
M  V30 4893 C 469.773 3.07725 1.6464 0
M  V30 4894 C 471.121 3.66074 2.15116 0
M  V30 4895 O 472.145 3.10476 1.74595 0
M  V30 4896 O 471.004 4.63526 2.89493 0
M  V30 4897 H 468.098 0.681958 0.467828 0
M  V30 4898 H 470.644 1.67863 0.24902 0
M  V30 4899 H 469.416 3.80792 0.900734 0
M  V30 4900 H 469.039 3.1158 2.46989 0
M  V30 4901 N 470.036 -0.519951 1.48776 0
M  V30 4902 C 470.969 -1.64053 1.58625 0
M  V30 4903 C 471.947 -1.5664 0.43618 0
M  V30 4904 O 473.131 -1.76969 0.649159 0
M  V30 4905 C 470.258 -3.02497 1.52359 0
M  V30 4906 C 469.304 -3.28235 2.72331 0
M  V30 4907 S 470.137 -3.13414 4.34203 0
M  V30 4908 C 471.293 -4.54287 4.30551 0
M  V30 4909 H 471.526 -1.5545 2.53422 0
M  V30 4910 H 469.059 -0.703681 1.37433 0
M  V30 4911 H 471.017 -3.82336 1.4943 0
M  V30 4912 H 469.678 -3.08531 0.588824 0
M  V30 4913 H 468.871 -4.29256 2.64113 0
M  V30 4914 H 468.473 -2.56085 2.72574 0
M  V30 4915 H 470.765 -5.46006 4.01103 0
M  V30 4916 H 471.708 -4.67558 5.31785 0
M  V30 4917 H 472.116 -4.34079 3.60881 0
M  V30 4918 N 471.514 -1.37532 -0.769588 0
M  V30 4919 C 472.444 -1.36172 -1.89682 0
M  V30 4920 C 473.425 -0.23001 -1.68538 0
M  V30 4921 O 474.61 -0.43069 -1.89364 0
M  V30 4922 C 471.74 -1.1701 -3.26995 0
M  V30 4923 C 470.694 -2.27216 -3.62708 0
M  V30 4924 C 470.02 -1.93174 -4.98586 0
M  V30 4925 C 471.32 -3.6941 -3.69234 0
M  V30 4926 H 473.014 -2.30499 -1.91078 0
M  V30 4927 H 470.56 -1.10953 -0.917902 0
M  V30 4928 H 472.513 -1.14688 -4.05493 0
M  V30 4929 H 471.237 -0.191395 -3.26039 0
M  V30 4930 H 469.896 -2.28697 -2.86519 0
M  V30 4931 H 469.544 -0.938281 -4.94171 0
M  V30 4932 H 469.244 -2.66973 -5.23449 0
M  V30 4933 H 470.768 -1.92443 -5.79481 0
M  V30 4934 H 472.182 -3.70047 -4.37879 0
M  V30 4935 H 470.579 -4.4228 -4.05597 0
M  V30 4936 H 471.649 -4.0288 -2.69844 0
M  V30 4937 N 472.992 0.995999 -1.22138 0
M  V30 4938 C 473.922 2.10387 -1.01289 0
M  V30 4939 C 474.903 1.69975 0.0651454 0
M  V30 4940 O 476.088 1.9396 -0.0964628 0
M  V30 4941 C 473.218 3.42312 -0.586517 0
M  V30 4942 C 472.172 3.96558 -1.61014 0
M  V30 4943 C 471.498 5.24494 -1.0397 0
M  V30 4944 C 472.798 4.27595 -2.99933 0
M  V30 4945 H 474.492 2.28086 -1.93951 0
M  V30 4946 H 472.038 1.09607 -0.933928 0
M  V30 4947 H 473.991 4.19223 -0.427793 0
M  V30 4948 H 472.715 3.24431 0.375761 0
M  V30 4949 H 471.374 3.21776 -1.75658 0
M  V30 4950 H 471.022 5.02953 -0.0688703 0
M  V30 4951 H 470.722 5.61755 -1.72352 0
M  V30 4952 H 472.246 6.04042 -0.892494 0
M  V30 4953 H 473.66 4.95315 -2.8868 0
M  V30 4954 H 472.057 4.76021 -3.6541 0
M  V30 4955 H 473.127 3.35498 -3.50099 0
M  V30 4956 N 474.47 1.03057 1.19235 0
M  V30 4957 C 475.886 0.747947 1.40989 0
M  V30 4958 C 476.086 -0.666752 1.90149 0
M  V30 4959 O 475.142 -1.43249 2.07933 0
M  V30 4960 C 476.455 1.7855 2.41951 0
M  V30 4961 C 478.003 1.80524 2.55695 0
M  V30 4962 C 478.478 2.83243 3.59913 0
M  V30 4963 N 479.969 2.8207 3.67411 0
M  V30 4964 C 480.704 3.58204 4.47747 0
M  V30 4965 N 480.2 4.44057 5.31775 0
M  V30 4966 N 481.993 3.46738 4.42413 0
M  V30 4967 H 474.144 1.94367 0.856468 0
M  V30 4968 H 476.407 0.840412 0.438647 0
M  V30 4969 H 476.113 2.79973 2.12857 0
M  V30 4970 H 475.987 1.6092 3.41152 0
M  V30 4971 H 478.374 0.79778 2.84112 0
M  V30 4972 H 478.455 2.02229 1.56643 0
M  V30 4973 H 478.099 3.84161 3.32239 0
M  V30 4974 H 478.029 2.58795 4.5862 0
M  V30 4975 H 480.52 2.19803 3.074 0
M  V30 4976 H 480.833 4.98884 5.90199 0
M  V30 4977 H 479.178 4.48129 5.3123 0
M  V30 4978 H 482.369 2.79077 3.75811 0
M  V30 4979 H 482.542 4.06322 5.04783 0
M  V30 4980 N 475.948 -1.35272 0.808662 0
M  V30 4981 C 477.173 -2.03477 0.401475 0
M  V30 4982 C 477.598 -1.60537 -0.980279 0
M  V30 4983 O 476.956 -0.78304 -1.63518 0
M  V30 4984 C 477.004 -3.57181 0.495354 0
M  V30 4985 O 476.108 -4.09474 -0.490397 0
M  V30 4986 H 475.449 -0.642561 0.167366 0
M  V30 4987 H 477.979 -1.72824 1.09512 0
M  V30 4988 H 477.989 -4.06356 0.365912 0
M  V30 4989 H 476.664 -3.87784 1.5032 0
M  V30 4990 H 475.241 -3.71516 -0.321023 0
M  V30 4991 N 477.426 -0.562348 -1.47226 0
M  V30 4992 C 478.389 0.172056 -2.28553 0
M  V30 4993 C 479.389 0.837928 -1.37242 0
M  V30 4994 O 480.579 0.693001 -1.59822 0
M  V30 4995 C 477.711 1.25223 -3.17068 0
M  V30 4996 H 478.904 -0.542401 -2.94954 0
M  V30 4997 H 476.457 -0.319493 -1.53 0
M  V30 4998 H 477.192 1.99892 -2.55369 0
M  V30 4999 H 476.977 0.779515 -3.84273 0
M  V30 5000 H 478.467 1.76791 -3.78332 0
M  V30 5001 N 478.904 1.54736 -0.299062 0
M  V30 5002 C 480.32 1.59507 0.0543849 0
M  V30 5003 C 480.52 1.31606 1.52585 0
M  V30 5004 O 479.576 1.08853 2.27832 0
M  V30 5005 C 480.889 2.98751 -0.34181 0
M  V30 5006 C 482.437 3.1165 -0.290414 0
M  V30 5007 C 482.912 4.53199 -0.661402 0
M  V30 5008 N 484.403 4.59114 -0.613863 0
M  V30 5009 C 485.138 5.66709 -0.873417 0
M  V30 5010 N 484.634 6.82349 -1.19884 0
M  V30 5011 N 486.427 5.56369 -0.800608 0
M  V30 5012 H 478.578 1.71133 -1.25806 0
M  V30 5013 H 480.841 0.799186 -0.509908 0
M  V30 5014 H 480.547 3.24085 -1.36608 0
M  V30 5015 H 480.421 3.75961 0.305508 0
M  V30 5016 H 482.808 2.86066 0.724605 0
M  V30 5017 H 482.889 2.366 -0.972327 0
M  V30 5018 H 482.533 4.79513 -1.67422 0
M  V30 5019 H 482.463 5.26583 0.0425612 0
M  V30 5020 H 484.954 3.76053 -0.3732 0
M  V30 5021 H 485.267 7.60326 -1.38291 0
M  V30 5022 H 483.612 6.83906 -1.23685 0
M  V30 5023 H 486.803 4.64904 -0.546045 0
M  V30 5024 H 486.976 6.40139 -1.00626 0
M  V30 5025 N 480.382 0.0267497 1.57577 0
M  V30 5026 C 481.345 -0.940916 2.08996 0
M  V30 5027 C 482.345 -1.25561 1.00455 0
M  V30 5028 O 483.535 -1.19634 1.26623 0
M  V30 5029 C 480.667 -2.25814 2.55384 0
M  V30 5030 H 481.86 -0.495628 2.95776 0
M  V30 5031 H 479.413 -0.221241 1.54726 0
M  V30 5032 H 480.148 -2.74976 1.71926 0
M  V30 5033 H 479.933 -2.04285 3.34679 0
M  V30 5034 H 481.423 -2.95178 2.95398 0
M  V30 5035 N 481.861 -1.55662 -0.24637 0
M  V30 5036 C 483.101 -1.79283 -0.981685 0
M  V30 5037 C 483.465 -0.596356 -1.82504 0
M  V30 5038 O 484.666 -0.711342 -2.59217 0
M  V30 5039 C 482.937 -3.07648 -1.819 0
M  V30 5040 S 484.496 -3.52491 -2.61334 0
M  V30 5041 H 481.314 -0.629676 -0.330196 0
M  V30 5042 H 483.916 -1.93901 -0.249498 0
M  V30 5043 H 482.62 -3.92794 -1.18915 0
M  V30 5044 H 482.151 -2.95768 -2.59393 0
M  V30 5045 H 484.166 -3.13866 -3.84321 0
M  V30 5046 O 483.378 0.392 -1.5667 0
M  V30 5047 H 484.069 1.04392 -1.63163 0
M  V30 END ATOM
M  V30 BEGIN BOND
M  V30 END BOND
M  V30 END CTAB
M  END
$$$$
