drugbank_target|Q9GZT9 Egl nine homolog 1 (DB00126; DB01592; DB04847; DB07112; DB08687; DB14488; DB14489; DB14490; DB14491; DB14501)
 OpenBabel12092120073D

  0  0  0     0  0            999 V3000
M  V30 BEGIN CTAB
M  V30 COUNTS 6395 6472 0 0 0
M  V30 BEGIN ATOM
M  V30 1 H -0.908 1.98254 -0.117106 0
M  V30 2 N 0 1.576 0 0
M  V30 3 C 0.933 2.03868 1.02534 0
M  V30 4 C 1.911 0.928543 1.3348 0
M  V30 5 O 3.095 1.19667 1.45644 0
M  V30 6 C 0.222 2.43627 2.35294 0
M  V30 7 C -0.732 3.65373 2.2001 0
M  V30 8 S 0.101 5.13292 1.52614 0
M  V30 9 C 1.257 5.56322 2.86805 0
M  V30 10 H 1.49 2.90518 0.631377 0
M  V30 11 H -0.977 1.52953 0.210867 0
M  V30 12 H 0.981 2.67203 3.11629 0
M  V30 13 H -0.358 1.57376 2.7183 0
M  V30 14 H -1.165 3.90944 3.18086 0
M  V30 15 H -1.563 3.418 1.51819 0
M  V30 16 H 0.729 5.58782 3.83104 0
M  V30 17 H 1.672 6.56266 2.65933 0
M  V30 18 H 2.08 4.83886 2.90714 0
M  V30 19 N 1.4781 -0.272755 1.55222 0
M  V30 20 C 2.4411 -1.32041 1.87344 0
M  V30 21 C 3.4411 -1.42342 0.74803 0
M  V30 22 O 4.6311 -1.41488 1.0162 0
M  V30 23 C 1.7631 -2.70173 2.07893 0
M  V30 24 H 2.9561 -1.04789 2.80997 0
M  V30 25 H 0.5091 -0.51083 1.47717 0
M  V30 26 H 1.2441 -3.02605 1.16622 0
M  V30 27 H 1.0291 -2.64082 2.89833 0
M  V30 28 H 2.5191 -3.45869 2.34017 0
M  V30 29 N 2.9562 -1.48159 -0.537278 0
M  V30 30 C 3.9042 -1.62573 -1.66352 0
M  V30 31 C 4.8982 -0.492366 -1.62087 0
M  V30 32 O 6.1042 -0.670847 -1.67032 0
M  V30 33 H 2.4792 -0.511992 -0.550789 0
M  V30 34 H 4.4502 -2.57176 -1.51337 0
M  V30 35 C 3.1992 -1.67583 -3.04649 0
M  V30 36 H 2.5222 -2.54151 -3.08622 0
M  V30 37 H 3.9622 -1.81713 -3.83088 0
M  V30 38 C 2.4212 -0.413039 -3.34358 0
M  V30 39 O 2.9512 0.477259 -3.98855 0
M  V30 40 N 1.1572 -0.286961 -2.8918 0
M  V30 41 H 0.7042 -1.01241 -2.36871 0
M  V30 42 H 0.6622 0.556963 -3.09427 0
M  V30 43 N 4.4343 0.785586 -1.36625 0
M  V30 44 C 5.7113 1.53198 -1.21613 0
M  V30 45 C 6.0913 2.10187 0.196113 0
M  V30 46 O 5.4393 1.94318 1.20219 0
M  V30 47 C 5.6493 2.62388 -2.30116 0
M  V30 48 C 6.9973 3.30167 -2.66974 0
M  V30 49 O 8.0213 2.72674 -2.29188 0
M  V30 50 O 6.8803 4.34077 -3.32023 0
M  V30 51 H 3.9743 0.677865 -0.473738 0
M  V30 52 H 6.5203 0.823739 -1.48367 0
M  V30 53 H 5.2923 2.18299 -3.24748 0
M  V30 54 H 4.9153 3.40827 -2.0475 0
M  V30 55 N 5.9124 1.20967 1.01018 0
M  V30 56 C 7.1374 1.0503 1.78839 0
M  V30 57 C 7.5624 -0.395752 1.8389 0
M  V30 58 O 6.9204 -1.28529 1.27867 0
M  V30 59 C 6.9684 1.64602 3.2084 0
M  V30 60 O 6.0724 0.887988 4.02726 0
M  V30 61 H 5.4134 0.369987 0.551367 0
M  V30 62 H 7.9434 1.60399 1.27018 0
M  V30 63 H 7.9534 1.68607 3.71532 0
M  V30 64 H 6.6284 2.69841 3.16479 0
M  V30 65 H 5.2054 0.922648 3.61305 0
M  V30 66 N 7.3905 -1.2043 1.01659 0
M  V30 67 C 8.6385 -1.89423 0.704522 0
M  V30 68 C 8.9595 -1.79231 -0.768197 0
M  V30 69 O 8.2295 -1.1947 -1.55254 0
M  V30 70 H 6.8095 -0.701178 0.257602 0
M  V30 71 H 9.4715 -1.4626 1.28818 0
M  V30 72 H 8.5675 -2.96052 0.987916 0
M  V30 73 N 8.8686 -0.792821 -1.36206 0
M  V30 74 C 10.1166 -0.366062 -1.98757 0
M  V30 75 C 10.4376 1.0668 -1.63231 0
M  V30 76 O 9.7076 1.73587 -0.907978 0
M  V30 77 H 8.2876 -0.132364 -0.735179 0
M  V30 78 H 10.9496 -1.01562 -1.66347 0
M  V30 79 H 10.0456 -0.460638 -3.08682 0
M  V30 80 N 10.3467 1.47872 -0.545128 0
M  V30 81 C 11.7577 1.86384 -0.108581 0
M  V30 82 C 12.1087 1.45309 1.31832 0
M  V30 83 O 11.2337 0.850641 1.9898 0
M  V30 84 C 11.8287 3.38265 -0.190274 0
M  V30 85 C 10.3877 3.75914 0.191164 0
M  V30 86 C 9.5347 2.71926 -0.543273 0
M  V30 87 H 12.4857 1.39561 -0.755537 0
M  V30 88 H 12.5067 3.75831 0.594217 0
M  V30 89 H 12.0187 3.6813 -1.2289 0
M  V30 90 H 10.1197 3.51665 1.23136 0
M  V30 91 H 10.2327 4.78836 -0.158987 0
M  V30 92 H 8.5967 2.54697 0.0122495 0
M  V30 93 H 9.3797 3.04634 -1.58282 0
M  V30 94 N 11.8248 0.280983 1.55075 0
M  V30 95 C 13.0728 -0.333455 1.9933 0
M  V30 96 C 13.3938 -1.55937 1.17085 0
M  V30 97 O 12.6638 -1.94143 0.261805 0
M  V30 98 H 11.2438 -0.126197 0.736263 0
M  V30 99 H 13.9058 0.387678 1.91005 0
M  V30 100 H 13.0018 -0.619292 3.05894 0
M  V30 101 N 13.3029 -1.57598 0.00835791 0
M  V30 102 C 14.5509 -1.90551 -0.6734 0
M  V30 103 C 14.8719 -0.883301 -1.73847 0
M  V30 104 O 14.1419 0.0781442 -1.95744 0
M  V30 105 H 12.7219 -0.703312 -0.251717 0
M  V30 106 H 15.3839 -1.94833 0.0512592 0
M  V30 107 H 14.4799 -2.9056 -1.13935 0
M  V30 108 N 14.781 0.264519 -1.55364 0
M  V30 109 C 16.192 0.834936 -1.6699 0
M  V30 110 C 16.543 1.86718 -0.602552 0
M  V30 111 O 15.668 2.14899 0.254425 0
M  V30 112 C 16.263 1.5212 -3.02729 0
M  V30 113 C 14.822 2.03954 -3.16354 0
M  V30 114 C 13.969 0.884498 -2.62815 0
M  V30 115 H 16.92 0.0406869 -1.58648 0
M  V30 116 H 16.941 2.38853 -2.96191 0
M  V30 117 H 16.453 0.769668 -3.80392 0
M  V30 118 H 14.554 2.82041 -2.43482 0
M  V30 119 H 14.667 2.24902 -4.23032 0
M  V30 120 H 13.031 1.2802 -2.20188 0
M  V30 121 H 13.814 0.14634 -3.42988 0
M  V30 122 N 16.2591 1.48442 0.529413 0
M  V30 123 C 17.4841 1.60406 1.31471 0
M  V30 124 C 17.9091 0.264738 1.86228 0
M  V30 125 O 17.2671 -0.763668 1.64432 0
M  V30 126 C 17.3151 2.65419 2.44101 0
M  V30 127 O 16.4191 2.22618 3.47153 0
M  V30 128 H 15.7601 0.537863 0.389357 0
M  V30 129 H 18.2901 1.94432 0.636965 0
M  V30 130 H 18.3001 2.86709 2.90279 0
M  V30 131 H 16.9751 3.62652 2.03608 0
M  V30 132 H 15.5521 2.11543 3.0709 0
M  V30 133 N 17.7372 -0.778329 1.37039 0
M  V30 134 C 19.1482 -1.35421 1.28523 0
M  V30 135 C 19.4992 -1.96075 -0.0700901 0
M  V30 136 O 18.6242 -1.93352 -0.971801 0
M  V30 137 C 19.2192 -2.46211 2.32735 0
M  V30 138 C 17.7782 -2.99585 2.27873 0
M  V30 139 C 16.9252 -1.72748 2.16918 0
M  V30 140 H 19.8762 -0.5791 1.47757 0
M  V30 141 H 19.8972 -3.2552 1.9702 0
M  V30 142 H 19.4092 -2.02036 3.31365 0
M  V30 143 H 17.5102 -3.48152 1.32745 0
M  V30 144 H 17.6232 -3.55646 3.21018 0
M  V30 145 H 15.9872 -1.95416 1.63354 0
M  V30 146 H 16.7702 -1.30686 3.17452 0
M  V30 147 N 19.2153 -1.21501 -1.00376 0
M  V30 148 C 20.4403 -1.05977 -1.78279 0
M  V30 149 C 20.8653 0.385994 -1.84097 0
M  V30 150 O 20.2233 1.27849 -1.28547 0
M  V30 151 C 20.2713 -1.66302 -3.19963 0
M  V30 152 O 19.3753 -0.909333 -4.0225 0
M  V30 153 H 18.7163 -0.372906 -0.549397 0
M  V30 154 H 21.2463 -1.6107 -1.26165 0
M  V30 155 H 21.2563 -1.70574 -3.70632 0
M  V30 156 H 19.9313 -2.71515 -3.15043 0
M  V30 157 H 18.5083 -0.941795 -3.60811 0
M  V30 158 N 20.6934 1.19889 -1.02296 0
M  V30 159 C 21.6034 2.26571 -0.608508 0
M  V30 160 C 22.6194 1.70299 0.356964 0
M  V30 161 O 23.7954 2.00235 0.216326 0
M  V30 162 C 20.8604 3.46677 0.0402814 0
M  V30 163 C 19.9214 4.18153 -0.97194 0
M  V30 164 C 19.1544 5.32525 -0.354016 0
M  V30 165 O 19.3774 5.64112 0.844604 0
M  V30 166 O 18.3114 5.92242 -1.07391 0
M  V30 167 H 22.1374 2.64251 -1.49684 0
M  V30 168 H 19.7224 1.26629 -0.792809 0
M  V30 169 H 21.6044 4.19475 0.402324 0
M  V30 170 H 20.2794 3.10858 0.902707 0
M  V30 171 H 19.1864 3.47499 -1.38546 0
M  V30 172 H 20.5194 4.57927 -1.80454 0
M  V30 173 N 22.1715 0.800033 1.35784 0
M  V30 174 C 23.5875 0.482977 1.52117 0
M  V30 175 C 23.7875 -0.996948 1.75109 0
M  V30 176 O 22.8435 -1.78216 1.78872 0
M  V30 177 C 24.1565 1.32264 2.70049 0
M  V30 178 C 25.7045 1.31742 2.83924 0
M  V30 179 C 26.1795 2.14106 4.04874 0
M  V30 180 N 27.6705 2.11607 4.12039 0
M  V30 181 C 28.4055 2.72099 5.04727 0
M  V30 182 N 27.9015 3.41492 6.02789 0
M  V30 183 N 29.6945 2.61776 4.97423 0
M  V30 184 H 21.8455 1.75856 1.19115 0
M  V30 185 H 24.1085 0.748122 0.582252 0
M  V30 186 H 23.8145 2.37261 2.59616 0
M  V30 187 H 23.6885 0.971303 3.6448 0
M  V30 188 H 26.0755 0.275333 2.93813 0
M  V30 189 H 26.1565 1.70859 1.9037 0
M  V30 190 H 25.8005 3.18351 3.95746 0
M  V30 191 H 25.7305 1.72353 4.97596 0
M  V30 192 H 28.2215 1.61112 3.41835 0
M  V30 193 H 28.5345 3.84953 6.70098 0
M  V30 194 H 26.8795 3.45596 6.02983 0
M  V30 195 H 30.0705 2.07157 4.19766 0
M  V30 196 H 30.2435 3.0921 5.69468 0
M  V30 197 N 23.6496 -1.47581 0.552962 0
M  V30 198 C 24.9266 -1.95563 -0.0381515 0
M  V30 199 C 25.3066 -1.49552 -1.48988 0
M  V30 200 O 24.6546 -0.732414 -2.16444 0
M  V30 201 C 24.8646 -3.48848 0.102919 0
M  V30 202 C 26.2126 -4.24577 -0.0446082 0
M  V30 203 O 27.2366 -3.56187 0.0302548 0
M  V30 204 O 26.0956 -5.46116 -0.204923 0
M  V30 205 H 23.1896 -0.824321 -0.0665067 0
M  V30 206 H 25.7356 -1.58001 0.619186 0
M  V30 207 H 24.5076 -3.75129 1.11328 0
M  V30 208 H 24.1306 -3.93165 -0.592224 0
M  V30 209 N 25.1277 -0.289203 -1.54924 0
M  V30 210 C 26.5437 0.0645403 -1.59469 0
M  V30 211 C 26.7437 1.53419 -1.30632 0
M  V30 212 O 25.7997 2.2852 -1.074 0
M  V30 213 C 27.1127 -0.32278 -2.98963 0
M  V30 214 C 28.6607 -0.270564 -3.11828 0
M  V30 215 C 29.1357 -0.632532 -4.53611 0
M  V30 216 N 30.6267 -0.584617 -4.59496 0
M  V30 217 C 31.3617 -0.837314 -5.67254 0
M  V30 218 N 30.8577 -1.15536 -6.83098 0
M  V30 219 N 32.6507 -0.765166 -5.56868 0
M  V30 220 H 24.8017 -1.24714 -1.71931 0
M  V30 221 H 27.0647 -0.504809 -0.802416 0
M  V30 222 H 26.7707 -1.34541 -3.24948 0
M  V30 223 H 26.6447 0.32944 -3.75759 0
M  V30 224 H 29.0317 0.742805 -2.85598 0
M  V30 225 H 29.1127 -0.957242 -2.37214 0
M  V30 226 H 28.7567 -1.64365 -4.80569 0
M  V30 227 H 28.6867 0.07609 -5.26545 0
M  V30 228 H 31.1777 -0.349248 -3.76283 0
M  V30 229 H 31.4907 -1.33447 -7.61191 0
M  V30 230 H 29.8357 -1.19328 -6.84679 0
M  V30 231 H 33.0267 -0.516432 -4.65243 0
M  V30 232 H 33.1997 -0.965477 -6.40767 0
M  V30 233 N 26.6058 1.57591 -0.0167156 0
M  V30 234 C 27.5378 2.06343 0.997753 0
M  V30 235 C 28.5508 0.984469 1.29661 0
M  V30 236 O 29.7398 1.26093 1.26344 0
M  V30 237 C 26.8398 2.46255 2.32834 0
M  V30 238 C 26.0128 3.77083 2.21646 0
M  V30 239 C 25.0718 4.0368 3.37534 0
M  V30 240 O 24.0978 4.7411 3.14973 0
M  V30 241 N 25.2998 3.52881 4.60929 0
M  V30 242 H 28.0648 2.93997 0.581875 0
M  V30 243 H 25.6258 1.61002 0.170316 0
M  V30 244 H 27.6178 2.61149 3.09166 0
M  V30 245 H 26.1878 1.64032 2.66106 0
M  V30 246 H 25.4078 3.72106 1.30119 0
M  V30 247 H 26.6958 4.62822 2.11361 0
M  V30 248 H 26.0938 2.95878 4.82154 0
M  V30 249 H 24.6508 3.73076 5.34469 0
M  V30 250 N 28.0839 -0.256276 1.55502 0
M  V30 251 C 29.3139 -1.00196 1.80677 0
M  V30 252 C 29.7219 -1.79805 0.588797 0
M  V30 253 O 29.0649 -1.78055 -0.451883 0
M  V30 254 C 29.1269 -1.99515 2.99055 0
M  V30 255 C 28.7909 -1.38688 4.35448 0
M  V30 256 C 29.7879 -0.794079 5.138 0
M  V30 257 C 27.4729 -1.40906 4.82132 0
M  V30 258 C 29.4669 -0.231562 6.36979 0
M  V30 259 C 27.1539 -0.842684 6.05262 0
M  V30 260 C 28.1519 -0.254953 6.82524 0
M  V30 261 O 27.8399 0.3027 8.0333 0
M  V30 262 H 27.5719 -0.300919 0.60533 0
M  V30 263 H 30.1259 -0.287307 2.03381 0
M  V30 264 H 28.3559 -2.74785 2.72084 0
M  V30 265 H 30.0449 -2.60349 3.11405 0
M  V30 266 H 30.8109 -0.769519 4.78856 0
M  V30 267 H 26.6899 -1.85591 4.21992 0
M  V30 268 H 30.2339 0.227816 6.97228 0
M  V30 269 H 26.1309 -0.86454 6.39684 0
M  V30 270 H 26.8989 0.193662 8.18271 0
M  V30 271 N 29.562 -1.4872 -0.521534 0
M  V30 272 C 30.802 -1.58771 -1.28729 0
M  V30 273 C 31.166 -0.259394 -1.9024 0
M  V30 274 O 32.367 -0.234942 -2.67771 0
M  V30 275 C 30.638 -2.70039 -2.34124 0
M  V30 276 S 32.197 -2.9991 -3.20312 0
M  V30 277 H 29.015 -0.560251 -0.437767 0
M  V30 278 H 31.617 -1.86283 -0.593188 0
M  V30 279 H 30.321 -3.65101 -1.87429 0
M  V30 280 H 29.852 -2.44455 -3.08229 0
M  V30 281 H 31.867 -2.39855 -4.34378 0
M  V30 282 N 31.0401 0.771051 -1.3745 0
M  V30 283 C 31.9501 1.91538 -1.35464 0
M  V30 284 C 32.9661 1.72134 -0.254123 0
M  V30 285 O 34.1421 1.95358 -0.489626 0
M  V30 286 C 31.2071 3.26671 -1.16134 0
M  V30 287 C 30.2681 3.58723 -2.35831 0
M  V30 288 C 29.5011 4.87409 -2.17413 0
M  V30 289 O 29.7241 5.58506 -1.15876 0
M  V30 290 O 28.6581 5.18539 -3.05615 0
M  V30 291 H 32.4841 1.96165 -2.31847 0
M  V30 292 H 30.0691 0.9139 -1.18187 0
M  V30 293 H 31.9511 4.07499 -1.07345 0
M  V30 294 H 30.6261 3.22894 -0.228251 0
M  V30 295 H 29.5331 2.78127 -2.50192 0
M  V30 296 H 30.8661 3.67243 -3.27709 0
M  V30 297 N 32.5182 1.22032 0.997298 0
M  V30 298 C 33.4482 1.01065 2.10495 0
M  V30 299 C 34.4292 -0.0669542 1.69968 0
M  V30 300 O 35.6142 0.0943987 1.9397 0
M  V30 301 C 32.7442 0.582874 3.42374 0
M  V30 302 C 31.6982 1.60592 3.96729 0
M  V30 303 C 31.0242 1.03412 5.24605 0
M  V30 304 C 32.3242 2.99478 4.27914 0
M  V30 305 H 34.0182 1.93708 2.28292 0
M  V30 306 H 31.5642 0.932761 1.09707 0
M  V30 307 H 33.5172 0.423332 4.19268 0
M  V30 308 H 32.2412 -0.379213 3.24391 0
M  V30 309 H 30.9002 1.75316 3.21963 0
M  V30 310 H 30.5482 0.063518 5.0296 0
M  V30 311 H 30.2482 1.71754 5.61938 0
M  V30 312 H 31.7722 0.886066 6.04137 0
M  V30 313 H 33.1862 2.88153 4.95622 0
M  V30 314 H 31.5832 3.64903 4.76409 0
M  V30 315 H 32.6532 3.49742 3.3587 0
M  V30 316 N 33.9963 -1.19345 1.0293 0
M  V30 317 C 35.2363 -1.90738 0.734727 0
M  V30 318 C 35.6003 -1.7785 -0.723414 0
M  V30 319 O 36.8013 -2.43844 -1.13108 0
M  V30 320 C 35.0723 -3.37569 1.17396 0
M  V30 321 S 36.6313 -4.27176 1.00329 0
M  V30 322 H 33.4493 -0.658771 0.267474 0
M  V30 323 H 36.0513 -1.4428 1.31922 0
M  V30 324 H 34.7553 -3.44475 2.23081 0
M  V30 325 H 34.2863 -3.8906 0.582772 0
M  V30 326 H 36.3013 -4.96126 -0.0859152 0
M  V30 327 N 35.4744 -0.807222 -1.35358 0
M  V30 328 C 36.7224 -0.387122 -1.98358 0
M  V30 329 C 37.0434 1.04942 -1.64354 0
M  V30 330 O 36.3134 1.72615 -0.926339 0
M  V30 331 H 34.8934 -0.140154 -0.733734 0
M  V30 332 H 37.5554 -1.0332 -1.6526 0
M  V30 333 H 36.6514 -0.493352 -3.08176 0
M  V30 334 N 36.9525 1.47285 -0.560781 0
M  V30 335 C 37.8995 2.30058 0.18491 0
M  V30 336 C 38.8695 1.39281 0.904986 0
M  V30 337 O 40.0545 1.68241 0.899979 0
M  V30 338 C 37.1945 3.23317 1.20666 0
M  V30 339 C 36.3075 4.29186 0.492285 0
M  V30 340 C 35.4425 5.09592 1.49964 0
M  V30 341 C 34.4815 6.07232 0.770439 0
M  V30 342 N 33.6185 6.80584 1.72479 0
M  V30 343 H 38.4585 2.93302 -0.527048 0
M  V30 344 H 35.9955 1.44568 -0.271738 0
M  V30 345 H 37.9535 3.75811 1.81168 0
M  V30 346 H 36.5835 2.61929 1.88661 0
M  V30 347 H 35.6355 3.7972 -0.227333 0
M  V30 348 H 36.9475 4.98738 -0.0787929 0
M  V30 349 H 36.1015 5.66254 2.17809 0
M  V30 350 H 34.8405 4.3995 2.10464 0
M  V30 351 H 33.8455 5.49745 0.0780846 0
M  V30 352 H 35.0705 6.78884 0.171134 0
M  V30 353 H 33.0165 6.1367 2.3183 0
M  V30 354 H 32.9335 7.46319 1.20596 0
M  V30 355 H 34.2015 7.41818 2.39428 0
M  V30 356 N 38.4306 0.297415 1.54768 0
M  V30 357 C 39.3636 -0.622188 2.19554 0
M  V30 358 C 40.3416 -1.13558 1.16376 0
M  V30 359 O 41.5256 -1.20444 1.45002 0
M  V30 360 C 38.6526 -1.8509 2.83653 0
M  V30 361 C 37.6986 -1.47106 4.00328 0
M  V30 362 S 38.5316 -0.53006 5.3287 0
M  V30 363 C 39.6876 -1.76665 6.0045 0
M  V30 364 H 39.9206 -0.0717806 2.97213 0
M  V30 365 H 37.4536 0.0815678 1.54184 0
M  V30 366 H 39.4116 -2.55605 3.21211 0
M  V30 367 H 38.0726 -2.37247 2.05846 0
M  V30 368 H 37.2656 -2.38594 4.43947 0
M  V30 369 H 36.8676 -0.845885 3.64309 0
M  V30 370 H 39.1596 -2.7077 6.21039 0
M  V30 371 H 40.1026 -1.37308 6.9466 0
M  V30 372 H 40.5106 -1.94174 5.30054 0
M  V30 373 N 39.9087 -1.5758 0.0250728 0
M  V30 374 C 40.8187 -2.1343 -0.973905 0
M  V30 375 C 41.8347 -1.08556 -1.35984 0
M  V30 376 O 43.0107 -1.40592 -1.44207 0
M  V30 377 C 40.0757 -2.64703 -2.23904 0
M  V30 378 C 39.1367 -3.84276 -1.91391 0
M  V30 379 C 38.3697 -4.33095 -3.11873 0
M  V30 380 O 38.5927 -3.81107 -4.24398 0
M  V30 381 O 37.5267 -5.24984 -2.94406 0
M  V30 382 H 41.3527 -2.99057 -0.529036 0
M  V30 383 H 38.9377 -1.48118 -0.195288 0
M  V30 384 H 40.8197 -2.97769 -2.98181 0
M  V30 385 H 39.4947 -1.82161 -2.6758 0
M  V30 386 H 38.4017 -3.56143 -1.14511 0
M  V30 387 H 39.7347 -4.67968 -1.52534 0
M  V30 388 N 41.3868 0.248026 -1.55636 0
M  V30 389 C 42.3348 1.32683 -1.91045 0
M  V30 390 C 43.3288 1.49883 -0.789401 0
M  V30 391 O 44.5348 1.51371 -0.974007 0
M  V30 392 H 40.9098 0.444272 -0.606734 0
M  V30 393 H 42.8808 1.00085 -2.81115 0
M  V30 394 C 41.6298 2.6755 -2.22064 0
M  V30 395 H 40.9528 2.55114 -3.07826 0
M  V30 396 H 42.3928 3.41912 -2.50743 0
M  V30 397 C 40.8518 3.20556 -1.0366 0
M  V30 398 O 41.3818 4.00695 -0.284016 0
M  V30 399 N 39.5878 2.78568 -0.82753 0
M  V30 400 H 39.1348 2.1351 -1.44123 0
M  V30 401 H 39.0928 3.14378 -0.0369803 0
M  V30 402 N 42.8649 1.48995 0.513639 0
M  V30 403 C 43.7949 1.67636 1.62544 0
M  V30 404 C 44.7759 0.525087 1.61793 0
M  V30 405 O 45.9609 0.759502 1.78732 0
M  V30 406 C 43.0909 1.73114 3.01079 0
M  V30 407 C 42.0449 2.87905 3.16693 0
M  V30 408 C 41.3709 2.78486 4.56453 0
M  V30 409 C 42.6709 4.29005 2.97913 0
M  V30 410 H 44.3649 2.60716 1.47198 0
M  V30 411 H 41.9109 1.25465 0.706714 0
M  V30 412 H 43.8639 1.84742 3.78746 0
M  V30 413 H 42.5879 0.766241 3.17484 0
M  V30 414 H 41.2469 2.75859 2.41448 0
M  V30 415 H 40.8949 1.7993 4.69717 0
M  V30 416 H 40.5949 3.55523 4.67843 0
M  V30 417 H 42.1189 2.92104 5.36197 0
M  V30 418 H 43.5329 4.41798 3.65359 0
M  V30 419 H 41.9299 5.07166 3.20785 0
M  V30 420 H 42.9999 4.44329 1.94165 0
M  V30 421 N 44.343 -0.763751 1.37857 0
M  V30 422 C 45.273 -1.89103 1.36975 0
M  V30 423 C 46.254 -1.68439 0.237152 0
M  V30 424 O 47.439 -1.8918 0.438713 0
M  V30 425 C 44.569 -3.26496 1.18395 0
M  V30 426 C 43.523 -3.61741 2.28751 0
M  V30 427 C 42.849 -4.97762 1.95286 0
M  V30 428 C 44.149 -3.67665 3.70972 0
M  V30 429 H 45.843 -1.90099 2.31307 0
M  V30 430 H 43.389 -0.91319 1.11341 0
M  V30 431 H 45.342 -4.05003 1.16406 0
M  V30 432 H 44.066 -3.25955 0.205215 0
M  V30 433 H 42.725 -2.85547 2.29909 0
M  V30 434 H 42.373 -4.93769 0.959221 0
M  V30 435 H 42.073 -5.22313 2.69189 0
M  V30 436 H 43.597 -5.7866 1.94898 0
M  V30 437 H 45.011 -4.36307 3.719 0
M  V30 438 H 43.408 -4.03718 4.43995 0
M  V30 439 H 44.478 -2.68134 4.0402 0
M  V30 440 N 45.8211 -1.22559 -0.990812 0
M  V30 441 C 47.2371 -0.985996 -1.255 0
M  V30 442 C 47.4371 0.319173 -1.98956 0
M  V30 443 O 46.4931 1.04127 -2.3003 0
M  V30 444 C 47.8061 -2.18607 -2.06474 0
M  V30 445 C 49.3541 -2.22985 -2.19651 0
M  V30 446 C 49.8291 -3.4255 -3.04012 0
M  V30 447 N 51.3201 -3.42725 -3.11599 0
M  V30 448 C 52.0551 -4.31892 -3.7717 0
M  V30 449 N 51.5511 -5.31279 -4.44651 0
M  V30 450 N 53.3441 -4.19662 -3.73952 0
M  V30 451 H 45.4951 -2.06469 -0.49841 0
M  V30 452 H 47.7581 -0.904853 -0.282747 0
M  V30 453 H 47.4641 -3.13267 -1.59865 0
M  V30 454 H 47.3381 -2.18838 -3.07229 0
M  V30 455 H 49.7251 -1.28871 -2.65474 0
M  V30 456 H 49.8061 -2.26791 -1.18319 0
M  V30 457 H 49.4501 -4.36965 -2.58889 0
M  V30 458 H 49.3801 -3.35984 -4.0549 0
M  V30 459 H 51.8711 -2.70807 -2.63575 0
M  V30 460 H 52.1841 -5.95593 -4.92431 0
M  V30 461 H 50.5291 -5.3519 -4.43392 0
M  V30 462 H 53.7201 -3.41268 -3.20396 0
M  V30 463 H 53.8931 -4.89358 -4.24774 0
M  V30 464 N 47.2992 1.18797 -1.03562 0
M  V30 465 C 48.5392 1.90346 -0.744832 0
M  V30 466 C 48.9032 1.78231 0.713972 0
M  V30 467 O 50.1042 2.44441 1.11813 0
M  V30 468 C 48.3752 3.36942 -1.19184 0
M  V30 469 S 49.9342 4.26638 -1.02593 0
M  V30 470 H 46.7522 0.657343 -0.270963 0
M  V30 471 H 49.3542 1.43579 -1.32685 0
M  V30 472 H 48.0582 3.43287 -2.24905 0
M  V30 473 H 47.5892 3.88745 -0.603397 0
M  V30 474 H 49.6042 4.96164 0.0596033 0
M  V30 475 N 48.7773 0.814389 1.34928 0
M  V30 476 C 50.0023 0.410097 2.03305 0
M  V30 477 C 50.4273 -0.973464 1.60951 0
M  V30 478 O 49.7853 -1.63185 0.789964 0
M  V30 479 C 49.8333 0.51049 3.56968 0
M  V30 480 O 48.9373 -0.473035 4.09678 0
M  V30 481 H 48.2783 0.170088 0.641846 0
M  V30 482 H 50.8083 1.10244 1.72358 0
M  V30 483 H 50.8183 0.383135 4.06197 0
M  V30 484 H 49.4933 1.51963 3.87144 0
M  V30 485 H 48.0703 -0.305272 3.71648 0
M  V30 486 N 50.2554 -1.46986 0.568584 0
M  V30 487 C 51.6714 -1.57946 0.229189 0
M  V30 488 C 51.8714 -1.56567 -1.26843 0
M  V30 489 O 50.9274 -1.47511 -2.04931 0
M  V30 490 C 52.2404 -2.87963 0.865909 0
M  V30 491 C 53.7884 -3.01568 0.838188 0
M  V30 492 C 54.2634 -4.34301 1.45419 0
M  V30 493 N 55.7544 -4.40965 1.41788 0
M  V30 494 C 56.4894 -5.42256 1.86403 0
M  V30 495 N 55.9854 -6.50297 2.38926 0
M  V30 496 N 57.7784 -5.3337 1.77405 0
M  V30 497 H 49.9294 -1.46126 1.54146 0
M  V30 498 H 52.1924 -0.696156 0.643484 0
M  V30 499 H 51.8984 -2.94742 1.91886 0
M  V30 500 H 51.7724 -3.75423 0.365687 0
M  V30 501 H 54.1594 -2.94379 -0.206106 0
M  V30 502 H 54.2404 -2.1562 1.37629 0
M  V30 503 H 53.8844 -4.42247 2.49761 0
M  V30 504 H 53.8144 -5.19 0.891435 0
M  V30 505 H 56.3054 -3.63484 1.03381 0
M  V30 506 H 56.6184 -7.23777 2.70863 0
M  V30 507 H 54.9634 -6.51155 2.42944 0
M  V30 508 H 58.1544 -4.47865 1.3614 0
M  V30 509 H 58.3274 -6.12169 2.12492 0
M  V30 510 N 51.7335 -0.305618 -1.54608 0
M  V30 511 C 52.9735 0.303114 -2.0214 0
M  V30 512 C 53.3375 1.50737 -1.18921 0
M  V30 513 O 54.5385 2.18778 -1.56172 0
M  V30 514 C 52.8095 0.646332 -3.51507 0
M  V30 515 S 54.3685 1.23727 -4.20995 0
M  V30 516 H 51.1865 0.0927643 -0.704923 0
M  V30 517 H 53.7885 -0.434566 -1.90609 0
M  V30 518 H 52.4925 -0.238541 -4.09706 0
M  V30 519 H 52.0235 1.41468 -3.67084 0
M  V30 520 H 54.0385 2.52489 -4.27158 0
M  V30 521 N 53.2116 1.57565 -0.0334293 0
M  V30 522 C 54.6276 1.56297 0.322997 0
M  V30 523 C 54.8276 1.03945 1.7262 0
M  V30 524 O 53.8836 0.688109 2.42943 0
M  V30 525 C 55.1966 3.00232 0.167664 0
M  V30 526 C 56.7446 3.12078 0.240107 0
M  V30 527 C 57.2196 4.57859 0.113513 0
M  V30 528 N 58.7106 4.62887 0.170359 0
M  V30 529 C 59.4456 5.73319 0.0962517 0
M  V30 530 N 58.9416 6.92794 -0.0291881 0
M  V30 531 N 60.7346 5.61898 0.150551 0
M  V30 532 H 52.8856 1.89923 -0.950956 0
M  V30 533 H 55.1486 0.873824 -0.367608 0
M  V30 534 H 54.8546 3.42501 -0.799102 0
M  V30 535 H 54.7286 3.654 0.936083 0
M  V30 536 H 57.1156 2.69718 1.19733 0
M  V30 537 H 57.1966 2.49623 -0.558763 0
M  V30 538 H 56.8406 5.009 -0.840314 0
M  V30 539 H 56.7706 5.18299 0.931302 0
M  V30 540 H 59.2616 3.76954 0.26728 0
M  V30 541 H 59.5746 7.7276 -0.0789252 0
M  V30 542 H 57.9196 6.94971 -0.0640299 0
M  V30 543 H 61.1106 4.67448 0.246981 0
M  V30 544 H 61.2836 6.47938 0.0893365 0
M  V30 545 N 54.6897 -0.239769 1.55765 0
M  V30 546 C 55.9147 -0.988373 1.82335 0
M  V30 547 C 56.3397 -1.77886 0.611421 0
M  V30 548 O 55.6977 -1.75889 -0.439639 0
M  V30 549 C 55.7457 -1.89627 3.06715 0
M  V30 550 O 54.8497 -2.98904 2.84131 0
M  V30 551 H 54.1907 -0.280858 0.601677 0
M  V30 552 H 56.7207 -0.258597 2.02959 0
M  V30 553 H 56.7307 -2.30957 3.36338 0
M  V30 554 H 55.4057 -1.31511 3.9456 0
M  V30 555 H 53.9827 -2.61651 2.65694 0
M  V30 556 N 56.1678 -1.49265 -0.50573 0
M  V30 557 C 57.3928 -1.62478 -1.28902 0
M  V30 558 C 57.8178 -0.294332 -1.85783 0
M  V30 559 O 57.1758 0.737412 -1.65626 0
M  V30 560 C 57.2238 -2.69268 -2.39848 0
M  V30 561 O 56.3278 -2.28113 -3.43567 0
M  V30 562 H 55.6688 -0.54399 -0.380751 0
M  V30 563 H 58.1988 -1.95421 -0.605952 0
M  V30 564 H 58.2088 -2.91291 -2.85681 0
M  V30 565 H 56.8838 -3.65846 -1.97812 0
M  V30 566 H 55.4608 -2.16401 -3.03685 0
M  V30 567 N 57.6459 0.756429 -1.3826 0
M  V30 568 C 58.8929 1.51547 -1.34312 0
M  V30 569 C 59.2209 1.94382 0.0677144 0
M  V30 570 O 58.4759 1.65514 1.04421 0
M  V30 571 C 58.7749 2.78313 -2.24224 0
M  V30 572 C 58.4409 2.54455 -3.72241 0
M  V30 573 C 57.1029 2.47657 -4.12576 0
M  V30 574 C 59.4549 2.3354 -4.65949 0
M  V30 575 C 56.7829 2.17956 -5.44713 0
M  V30 576 C 59.1349 2.05359 -5.9834 0
M  V30 577 C 57.7989 1.97016 -6.37762 0
M  V30 578 H 57.0689 0.55455 -0.491482 0
M  V30 579 H 59.7159 0.870039 -1.70595 0
M  V30 580 H 58.0209 3.47492 -1.80987 0
M  V30 581 H 59.7179 3.36259 -2.18474 0
M  V30 582 H 56.3079 2.60616 -3.40261 0
M  V30 583 H 60.4919 2.37772 -4.35635 0
M  V30 584 H 55.7479 2.10003 -5.74203 0
M  V30 585 H 59.9219 1.88179 -6.70494 0
M  V30 586 H 57.5489 1.73766 -7.40074 0
M  V30 587 N 59.124 1.23083 0.984299 0
M  V30 588 C 60.354 1.08556 1.75781 0
M  V30 589 C 60.762 -0.366171 1.85623 0
M  V30 590 O 60.105 -1.26524 1.33182 0
M  V30 591 C 60.167 1.63208 3.20318 0
M  V30 592 C 59.831 3.11922 3.33997 0
M  V30 593 C 60.828 4.09259 3.2063 0
M  V30 594 C 58.513 3.51552 3.58771 0
M  V30 595 C 60.507 5.4421 3.31835 0
M  V30 596 C 58.194 4.86649 3.69616 0
M  V30 597 C 59.192 5.82787 3.56157 0
M  V30 598 O 58.88 7.15431 3.66626 0
M  V30 599 H 58.612 0.380713 0.5586 0
M  V30 600 H 61.166 1.63321 1.2456 0
M  V30 601 H 59.396 1.0286 3.72769 0
M  V30 602 H 61.085 1.44216 3.79416 0
M  V30 603 H 61.851 3.79984 3.01392 0
M  V30 604 H 57.73 2.77239 3.6832 0
M  V30 605 H 61.274 6.1923 3.21247 0
M  V30 606 H 57.171 5.15601 3.88363 0
M  V30 607 H 57.939 7.23127 3.83445 0
M  V30 608 N 60.6021 -1.18246 1.0419 0
M  V30 609 C 61.8421 -1.89948 0.754916 0
M  V30 610 C 62.2061 -1.78608 -0.70451 0
M  V30 611 O 63.4071 -2.4503 -1.10516 0
M  V30 612 C 61.6781 -3.36305 1.20969 0
M  V30 613 S 63.2371 -4.26088 1.04854 0
M  V30 614 H 60.0551 -0.655897 0.274446 0
M  V30 615 H 62.6571 -1.42873 1.33445 0
M  V30 616 H 61.3611 -3.42089 2.26722 0
M  V30 617 H 60.8921 -3.8842 0.624004 0
M  V30 618 H 62.9071 -4.96189 -0.0332896 0
M  V30 619 N 62.0802 -0.821533 -1.34494 0
M  V30 620 C 63.3202 -0.414785 -2.00147 0
M  V30 621 C 63.6842 1.00299 -1.6372 0
M  V30 622 O 64.8852 1.51255 -2.22206 0
M  V30 623 C 63.1562 -0.609403 -3.52166 0
M  V30 624 S 64.7152 -0.295297 -4.37805 0
M  V30 625 H 61.5332 -0.15679 -0.693497 0
M  V30 626 H 64.1352 -1.06705 -1.63812 0
M  V30 627 H 62.8392 -1.64096 -3.76166 0
M  V30 628 H 62.3702 0.0576414 -3.93358 0
M  V30 629 H 64.3852 0.891531 -4.88125 0
M  V30 630 N 63.5583 1.46682 -0.576371 0
M  V30 631 C 64.5053 2.30241 0.160499 0
M  V30 632 C 65.4753 1.40233 0.890162 0
M  V30 633 O 66.6603 1.69186 0.882084 0
M  V30 634 C 63.8003 3.24578 1.1723 0
M  V30 635 C 62.9133 4.29684 0.446736 0
M  V30 636 C 62.0483 5.11154 1.44551 0
M  V30 637 C 61.0873 6.08015 0.70599 0
M  V30 638 N 60.2243 6.82376 1.65251 0
M  V30 639 H 65.0643 2.92727 -0.558127 0
M  V30 640 H 62.6013 1.44272 -0.287056 0
M  V30 641 H 64.5593 3.77711 1.77172 0
M  V30 642 H 63.1893 2.63916 1.85872 0
M  V30 643 H 62.2413 3.79458 -0.267594 0
M  V30 644 H 63.5533 4.98626 -0.131686 0
M  V30 645 H 62.7073 5.68533 2.11791 0
M  V30 646 H 61.4463 4.42158 2.05786 0
M  V30 647 H 60.4513 5.49796 0.0197725 0
M  V30 648 H 61.6763 6.79028 0.09912 0
M  V30 649 H 59.6223 6.16094 2.25308 0
M  V30 650 H 59.5393 7.47556 1.12673 0
M  V30 651 H 60.8073 7.44316 2.31546 0
M  V30 652 N 65.0364 0.313813 1.54444 0
M  V30 653 C 65.9464 -0.565714 2.27677 0
M  V30 654 C 66.9624 -1.13754 1.31666 0
M  V30 655 O 68.1384 -1.15959 1.64668 0
M  V30 656 C 65.2034 -1.71528 3.01296 0
M  V30 657 C 64.2644 -1.17624 4.12872 0
M  V30 658 C 63.4974 -2.27102 4.8297 0
M  V30 659 O 63.7204 -3.47256 4.52514 0
M  V30 660 O 62.6544 -1.9307 5.70094 0
M  V30 661 H 66.4804 0.0287296 3.03686 0
M  V30 662 H 64.0654 0.0798312 1.49187 0
M  V30 663 H 65.9474 -2.38476 3.4743 0
M  V30 664 H 64.6224 -2.29608 2.2817 0
M  V30 665 H 63.5294 -0.472124 3.71109 0
M  V30 666 H 64.8624 -0.640695 4.88012 0
M  V30 667 N 66.5145 -1.57545 0.0417849 0
M  V30 668 C 67.4645 -2.07483 -0.945247 0
M  V30 669 C 68.4485 -0.977983 -1.27767 0
M  V30 670 O 69.6405 -1.24142 -1.26166 0
M  V30 671 C 66.7695 -2.61576 -2.22335 0
M  V30 672 C 65.8555 -3.78213 -1.91874 0
M  V30 673 N 66.2465 -4.88344 -1.31733 0
M  V30 674 C 64.5445 -3.8694 -2.21796 0
M  V30 675 C 65.2455 -5.69462 -1.1869 0
M  V30 676 N 64.2215 -5.16771 -1.68666 0
M  V30 677 H 68.0235 -2.90029 -0.475441 0
M  V30 678 H 65.5375 -1.61581 -0.162911 0
M  V30 679 H 67.5345 -2.95651 -2.93932 0
M  V30 680 H 66.1945 -1.80465 -2.69931 0
M  V30 681 H 67.2055 -5.08335 -0.990729 0
M  V30 682 H 63.8825 -3.16757 -2.71977 0
M  V30 683 H 65.2725 -6.68023 -0.720793 0
M  V30 684 N 67.9926 0.231505 -1.5589 0
M  V30 685 C 68.9246 1.31006 -1.8807 0
M  V30 686 C 69.9376 1.43539 -0.768145 0
M  V30 687 O 71.1266 1.44614 -1.04638 0
M  V30 688 C 68.2266 2.68688 -2.06543 0
M  V30 689 C 67.3996 2.78228 -3.37502 0
M  V30 690 C 66.4586 3.96857 -3.4553 0
M  V30 691 O 65.4846 3.85662 -4.18633 0
M  V30 692 N 66.6866 5.1072 -2.75944 0
M  V30 693 H 69.4516 1.03731 -2.81176 0
M  V30 694 H 67.0126 0.421573 -1.56315 0
M  V30 695 H 69.0046 3.46412 -2.09239 0
M  V30 696 H 67.5746 2.88605 -1.20109 0
M  V30 697 H 66.7946 1.87059 -3.46991 0
M  V30 698 H 68.0826 2.81564 -4.23791 0
M  V30 699 H 67.4806 5.2271 -2.16311 0
M  V30 700 H 66.0376 5.86523 -2.84314 0
M  V30 701 N 69.4707 1.49531 0.497807 0
M  V30 702 C 70.8867 1.36365 0.829266 0
M  V30 703 C 71.0867 0.399184 1.97506 0
M  V30 704 O 70.1427 -0.167977 2.51941 0
M  V30 705 C 71.4557 2.77153 1.16647 0
M  V30 706 C 73.0037 2.85877 1.27449 0
M  V30 707 C 73.4787 4.2744 1.64497 0
M  V30 708 N 74.9697 4.30265 1.7154 0
M  V30 709 C 75.7047 5.3677 2.01656 0
M  V30 710 N 75.2007 6.53516 2.29976 0
M  V30 711 N 76.9937 5.24189 2.02934 0
M  V30 712 H 69.1447 2.10831 -0.257703 0
M  V30 713 H 71.4077 0.946534 -0.0527091 0
M  V30 714 H 71.1137 3.49442 0.397872 0
M  V30 715 H 70.9877 3.12722 2.10915 0
M  V30 716 H 73.3747 2.13824 2.0338 0
M  V30 717 H 73.4557 2.53887 0.312244 0
M  V30 718 H 73.0997 5.00021 0.891151 0
M  V30 719 H 73.0297 4.56896 2.61827 0
M  V30 720 H 75.5207 3.4607 1.51802 0
M  V30 721 H 75.8337 7.30506 2.52153 0
M  V30 722 H 74.1787 6.56737 2.27425 0
M  V30 723 H 77.3697 4.31988 1.80289 0
M  V30 724 H 77.5427 6.07286 2.26071 0
M  V30 725 N 70.9488 -0.749086 1.3866 0
M  V30 726 C 71.8808 -1.87273 1.32142 0
M  V30 727 C 72.8938 -1.61127 0.232787 0
M  V30 728 O 74.0828 -1.71623 0.49069 0
M  V30 729 C 71.1828 -3.23005 1.02571 0
M  V30 730 C 70.3558 -3.7662 2.22433 0
M  V30 731 C 69.4148 -4.90879 1.89537 0
M  V30 732 O 68.4408 -5.05276 2.62078 0
M  V30 733 N 69.6428 -5.74198 0.853031 0
M  V30 734 H 72.4078 -1.93373 2.28969 0
M  V30 735 H 69.9688 -0.929216 1.32579 0
M  V30 736 H 71.9608 -3.96992 0.786085 0
M  V30 737 H 70.5308 -3.12262 0.145249 0
M  V30 738 H 69.7508 -2.94147 2.62434 0
M  V30 739 H 71.0388 -4.09173 3.02415 0
M  V30 740 H 70.4368 -5.6514 0.25155 0
M  V30 741 H 68.9938 -6.48313 0.67329 0
M  V30 742 N 72.4269 -1.23603 -0.977757 0
M  V30 743 C 73.7039 -0.977897 -1.69401 0
M  V30 744 C 74.0839 0.502738 -2.05026 0
M  V30 745 O 73.4319 1.47459 -1.74551 0
M  V30 746 C 73.6419 -1.89077 -2.93345 0
M  V30 747 C 74.9899 -2.15579 -3.65802 0
M  V30 748 O 76.0139 -1.86648 -3.03383 0
M  V30 749 O 74.8729 -2.64658 -4.78141 0
M  V30 750 H 71.9669 -0.369025 -0.740101 0
M  V30 751 H 74.5129 -1.34657 -1.03274 0
M  V30 752 H 73.2849 -2.89158 -2.63634 0
M  V30 753 H 72.9079 -1.52463 -3.67207 0
M  V30 754 N 73.905 1.17692 -1.04816 0
M  V30 755 C 75.151 1.88389 -0.766892 0
M  V30 756 C 75.506 1.79282 0.698269 0
M  V30 757 O 74.799 1.18739 1.50372 0
M  V30 758 C 74.993 3.37462 -1.17703 0
M  V30 759 C 74.822 3.6108 -2.68051 0
M  V30 760 C 73.592 3.78018 -3.35307 0
M  V30 761 C 75.79 3.61039 -3.66273 0
M  V30 762 N 73.772 3.89444 -4.74559 0
M  V30 763 C 75.143 3.78269 -4.91235 0
M  V30 764 C 77.198 3.44168 -3.59796 0
M  V30 765 C 75.901 3.80376 -6.10497 0
M  V30 766 C 77.927 3.4756 -4.78493 0
M  V30 767 C 77.289 3.65295 -6.02278 0
M  V30 768 H 73.388 0.707651 -0.332798 0
M  V30 769 H 75.972 1.41314 -1.33934 0
M  V30 770 H 74.143 3.83214 -0.63257 0
M  V30 771 H 75.875 3.95759 -0.845989 0
M  V30 772 H 72.63 3.77714 -2.85708 0
M  V30 773 H 73.054 3.98962 -5.46954 0
M  V30 774 H 77.696 3.29396 -2.65062 0
M  V30 775 H 75.414 3.93933 -7.05579 0
M  V30 776 H 79 3.3577 -4.75131 0
M  V30 777 H 77.88 3.6782 -6.92588 0
M  V30 778 N 75.3831 0.828654 1.34056 0
M  V30 779 C 76.3301 0.252567 2.29414 0
M  V30 780 C 77.3001 -0.62588 1.53857 0
M  V30 781 O 78.4851 -0.566312 1.82202 0
M  V30 782 C 75.6251 -0.574831 3.40279 0
M  V30 783 C 74.7381 0.326499 4.30764 0
M  V30 784 C 73.8731 -0.511016 5.28736 0
M  V30 785 C 72.9121 0.389342 6.1086 0
M  V30 786 N 72.0491 -0.409439 7.00905 0
M  V30 787 H 76.8891 1.07108 2.78086 0
M  V30 788 H 74.4261 0.539677 1.36843 0
M  V30 789 H 76.3841 -1.06992 4.03248 0
M  V30 790 H 75.0141 -1.35841 2.92826 0
M  V30 791 H 74.0661 0.939837 3.68607 0
M  V30 792 H 75.3781 1.01857 4.88289 0
M  V30 793 H 74.5321 -1.07035 5.97184 0
M  V30 794 H 73.2711 -1.23657 4.71763 0
M  V30 795 H 72.2761 0.960769 5.4134 0
M  V30 796 H 73.5011 1.1131 6.69916 0
M  V30 797 H 71.4471 -1.11856 6.46393 0
M  V30 798 H 71.3641 0.224126 7.55668 0
M  V30 799 H 72.6321 -0.951336 7.73673 0
M  V30 800 N 76.8612 -1.46375 0.584142 0
M  V30 801 C 77.8082 -2.30323 -0.148286 0
M  V30 802 C 78.7782 -1.40703 -0.882713 0
M  V30 803 O 79.9632 -1.69651 -0.873099 0
M  V30 804 C 77.1032 -3.25196 -1.15507 0
M  V30 805 C 76.2162 -4.29915 -0.423943 0
M  V30 806 C 75.3512 -5.11914 -1.41838 0
M  V30 807 C 74.3902 -6.08381 -0.673736 0
M  V30 808 N 73.5272 -6.83242 -1.6163 0
M  V30 809 H 78.3672 -2.92427 0.573644 0
M  V30 810 H 75.9042 -1.44118 0.294703 0
M  V30 811 H 77.8622 -3.78646 -1.75166 0
M  V30 812 H 76.4922 -2.64898 -1.8447 0
M  V30 813 H 75.5442 -3.7931 0.287714 0
M  V30 814 H 76.8562 -4.98549 0.158128 0
M  V30 815 H 76.0102 -5.69648 -2.08773 0
M  V30 816 H 74.7492 -4.43243 -2.03438 0
M  V30 817 H 73.7542 -5.49799 0.00938483 0
M  V30 818 H 74.9792 -6.79071 -0.0631082 0
M  V30 819 H 72.9252 -6.1728 -2.22038 0
M  V30 820 H 72.8422 -7.48144 -1.08707 0
M  V30 821 H 74.1102 -7.45534 -2.27596 0
M  V30 822 N 78.3393 -0.321999 -1.54275 0
M  V30 823 C 79.2893 0.560185 -2.21011 0
M  V30 824 C 80.2733 1.08283 -1.19011 0
M  V30 825 O 81.4653 1.02011 -1.44647 0
M  V30 826 C 78.5943 1.72137 -2.97025 0
M  V30 827 C 77.6803 1.21369 -4.06363 0
M  V30 828 N 78.0713 0.425566 -5.04007 0
M  V30 829 C 76.3693 1.49255 -4.20284 0
M  V30 830 C 77.0703 0.152601 -5.815 0
M  V30 831 N 76.0463 0.738294 -5.38563 0
M  V30 832 H 79.8483 -0.049265 -2.93859 0
M  V30 833 H 77.3623 -0.127779 -1.61897 0
M  V30 834 H 79.3593 2.36512 -3.43319 0
M  V30 835 H 78.0193 2.33431 -2.25699 0
M  V30 836 H 79.0303 0.068551 -5.17855 0
M  V30 837 H 75.7073 2.11145 -3.60172 0
M  V30 838 H 77.0973 -0.481764 -6.70171 0
M  V30 839 N 79.8174 1.5752 -0.0501392 0
M  V30 840 C 80.7644 2.1147 0.924603 0
M  V30 841 C 81.7344 1.02182 1.30951 0
M  V30 842 O 82.9194 1.29723 1.39916 0
M  V30 843 C 80.0594 2.66337 2.19451 0
M  V30 844 C 79.1724 3.89708 1.86418 0
M  V30 845 C 78.3074 4.32893 3.07859 0
M  V30 846 C 77.3464 5.48967 2.70742 0
M  V30 847 N 76.4834 5.87211 3.84874 0
M  V30 848 H 81.3234 2.94465 0.457639 0
M  V30 849 H 78.8604 1.45531 0.214266 0
M  V30 850 H 80.8184 2.96247 2.93758 0
M  V30 851 H 79.4484 1.86141 2.63726 0
M  V30 852 H 78.5004 3.66396 1.02264 0
M  V30 853 H 79.8124 4.74074 1.55096 0
M  V30 854 H 78.9664 4.6435 3.90466 0
M  V30 855 H 77.7054 3.47336 3.42358 0
M  V30 856 H 76.7104 5.17183 1.86551 0
M  V30 857 H 77.9354 6.3624 2.37436 0
M  V30 858 H 75.8814 5.04607 4.19175 0
M  V30 859 H 75.7984 6.66266 3.57247 0
M  V30 860 H 77.0664 6.23282 4.68123 0
M  V30 861 N 81.2955 -0.223234 1.56011 0
M  V30 862 C 82.2255 -1.27988 1.95298 0
M  V30 863 C 83.2065 -1.48976 0.820979 0
M  V30 864 O 84.3915 -1.61188 1.08315 0
M  V30 865 C 81.5215 -2.63 2.26822 0
M  V30 866 C 80.4755 -2.56671 3.42497 0
M  V30 867 C 79.8015 -3.95697 3.59622 0
M  V30 868 C 81.1015 -2.11601 4.77517 0
M  V30 869 H 82.7955 -0.953525 2.8381 0
M  V30 870 H 80.3415 -0.457244 1.36548 0
M  V30 871 H 82.2945 -3.37077 2.52898 0
M  V30 872 H 81.0185 -2.9732 1.35161 0
M  V30 873 H 79.6775 -1.85051 3.16467 0
M  V30 874 H 79.3255 -4.27322 2.6534 0
M  V30 875 H 79.0255 -3.92345 4.37424 0
M  V30 876 H 80.5495 -4.71438 3.88044 0
M  V30 877 H 81.9635 -2.7542 5.02809 0
M  V30 878 H 80.3605 -2.19311 5.5859 0
M  V30 879 H 81.4305 -1.06824 4.72987 0
M  V30 880 N 82.7736 -1.49793 -0.48987 0
M  V30 881 C 84.0196 -1.60078 -1.24511 0
M  V30 882 C 84.3526 -0.291608 -1.91998 0
M  V30 883 O 83.6276 0.705647 -1.81248 0
M  V30 884 C 83.9106 -2.76791 -2.30345 0
M  V30 885 C 83.7636 -4.17535 -1.67286 0
M  V30 886 C 85.0826 -2.89111 -3.31817 0
M  V30 887 H 82.2016 -0.582645 -0.451324 0
M  V30 888 H 84.8436 -1.82117 -0.541612 0
M  V30 889 H 82.9936 -2.5813 -2.90346 0
M  V30 890 H 84.6656 -4.4774 -1.11026 0
M  V30 891 H 82.9086 -4.22665 -0.976577 0
M  V30 892 H 83.5796 -4.95094 -2.44103 0
M  V30 893 H 86.0556 -3.06133 -2.81819 0
M  V30 894 H 84.9316 -3.72433 -4.03219 0
M  V30 895 H 85.1926 -1.9893 -3.94815 0
M  V30 896 N 84.2517 0.741722 -1.39055 0
M  V30 897 C 85.4917 1.51385 -1.37338 0
M  V30 898 C 85.8557 1.91972 0.0330513 0
M  V30 899 O 87.0567 2.68229 0.175174 0
M  V30 900 C 85.3277 2.72481 -2.31276 0
M  V30 901 S 86.8867 3.62211 -2.47687 0
M  V30 902 H 83.7047 0.517906 -0.487129 0
M  V30 903 H 86.3067 0.86969 -1.7509 0
M  V30 904 H 85.0107 2.40793 -3.32336 0
M  V30 905 H 84.5417 3.41832 -1.94716 0
M  V30 906 H 86.5567 4.65812 -1.70978 0
M  V30 907 N 85.7298 1.2412 0.971189 0
M  V30 908 C 86.6618 0.988349 2.06795 0
M  V30 909 C 87.6748 -0.0409541 1.62748 0
M  V30 910 O 88.8638 0.195673 1.77424 0
M  V30 911 C 85.9638 0.469023 3.35639 0
M  V30 912 C 85.1368 1.56065 4.08611 0
M  V30 913 C 84.1958 1.04458 5.15728 0
M  V30 914 O 83.2218 1.73553 5.42096 0
M  V30 915 N 84.4238 -0.122817 5.8037 0
M  V30 916 H 87.1888 1.93265 2.29061 0
M  V30 917 H 84.7498 1.15102 1.13856 0
M  V30 918 H 86.7418 0.108613 4.04554 0
M  V30 919 H 85.3118 -0.380919 3.1027 0
M  V30 920 H 84.5318 2.09341 3.34021 0
M  V30 921 H 85.8198 2.29449 4.54126 0
M  V30 922 H 85.2178 -0.700563 5.61345 0
M  V30 923 H 83.7748 -0.424404 6.50417 0
M  V30 924 N 87.2079 -1.17134 1.05439 0
M  V30 925 C 88.4559 -1.87085 0.764429 0
M  V30 926 C 88.7769 -1.81584 -0.710787 0
M  V30 927 O 88.0469 -1.24349 -1.51374 0
M  V30 928 H 86.6269 -0.692627 0.279779 0
M  V30 929 H 89.2889 -1.42087 1.33406 0
M  V30 930 H 88.3849 -2.92759 1.0816 0
M  V30 931 N 88.686 -0.835752 -1.33615 0
M  V30 932 C 89.911 -0.442389 -2.02627 0
M  V30 933 C 90.336 0.947735 -1.62479 0
M  V30 934 O 89.694 1.61907 -0.815826 0
M  V30 935 C 89.742 -0.567216 -3.56111 0
M  V30 936 O 88.846 0.407799 -4.10379 0
M  V30 937 H 88.187 -0.180278 -0.639059 0
M  V30 938 H 90.717 -1.12972 -1.70583 0
M  V30 939 H 90.727 -0.447708 -4.05536 0
M  V30 940 H 89.402 -1.58103 -3.84677 0
M  V30 941 H 87.979 0.246107 -3.72087 0
M  V30 942 N 90.1641 1.46063 -0.591896 0
M  V30 943 C 91.0741 2.34192 0.13831 0
M  V30 944 C 92.0901 1.50305 0.876608 0
M  V30 945 O 93.2661 1.8315 0.837728 0
M  V30 946 C 90.3311 3.27656 1.13326 0
M  V30 947 C 89.3921 4.27445 0.39863 0
M  V30 948 C 88.6251 5.16443 1.34618 0
M  V30 949 O 88.8481 5.08553 2.58321 0
M  V30 950 O 87.7821 5.95843 0.851768 0
M  V30 951 H 91.6081 2.98002 -0.58552 0
M  V30 952 H 89.1931 1.45188 -0.352239 0
M  V30 953 H 91.0751 3.85291 1.70671 0
M  V30 954 H 89.7501 2.6643 1.83839 0
M  V30 955 H 88.6571 3.73471 -0.216895 0
M  V30 956 H 89.9901 4.91482 -0.265709 0
M  V30 957 N 91.6422 0.330177 1.54103 0
M  V30 958 C 92.8902 -0.269871 2.0029 0
M  V30 959 C 93.2112 -1.52133 1.21986 0
M  V30 960 O 92.4812 -1.93212 0.323438 0
M  V30 961 H 91.0612 -0.10271 0.739905 0
M  V30 962 H 93.7232 0.448249 1.89675 0
M  V30 963 H 92.8192 -0.52166 3.07709 0
M  V30 964 N 93.1203 -1.57491 0.0584922 0
M  V30 965 C 94.0833 -2.1085 -0.898617 0
M  V30 966 C 95.0833 -1.02964 -1.23511 0
M  V30 967 O 96.2733 -1.29007 -1.17059 0
M  V30 968 C 93.4053 -2.59881 -2.20623 0
M  V30 969 H 94.5983 -2.96715 -0.435936 0
M  V30 970 H 92.1513 -1.55141 -0.190023 0
M  V30 971 H 92.8863 -1.77431 -2.71457 0
M  V30 972 H 92.6713 -3.38727 -1.97501 0
M  V30 973 H 94.1613 -3.01285 -2.89166 0
M  V30 974 N 94.5984 0.214957 -1.56127 0
M  V30 975 C 95.5284 1.2695 -1.95974 0
M  V30 976 C 96.5094 1.48539 -0.828868 0
M  V30 977 O 97.6944 1.60611 -1.09168 0
M  V30 978 C 94.8244 2.61794 -2.28214 0
M  V30 979 C 93.7784 2.54851 -3.43853 0
M  V30 980 C 93.1044 3.93785 -3.61715 0
M  V30 981 C 94.4044 2.09065 -4.78632 0
M  V30 982 H 96.0984 0.93846 -2.84312 0
M  V30 983 H 93.6444 0.449996 -1.36788 0
M  V30 984 H 95.5974 3.35731 -2.54682 0
M  V30 985 H 94.3214 2.96599 -1.36736 0
M  V30 986 H 92.9804 1.8337 -3.17444 0
M  V30 987 H 92.6284 4.25908 -2.67602 0
M  V30 988 H 92.3284 3.90019 -4.39498 0
M  V30 989 H 93.8524 4.69374 -3.90539 0
M  V30 990 H 95.2664 2.7275 -5.04262 0
M  V30 991 H 93.6634 2.16346 -5.59745 0
M  V30 992 H 94.7334 1.04315 -4.73547 0
M  V30 993 N 96.0765 1.50051 0.48192 0
M  V30 994 C 97.3245 1.60181 1.23234 0
M  V30 995 C 97.6455 0.299176 1.92691 0
M  V30 996 O 96.9155 -0.682708 1.83619 0
M  V30 997 H 95.4955 0.590232 0.457859 0
M  V30 998 H 98.1575 1.86775 0.556881 0
M  V30 999 H 97.2535 2.40753 1.98607 0
M  V30 1000 N 97.5546 -0.734337 1.39446 0
M  V30 1001 C 98.5046 -1.83949 1.34709 0
M  V30 1002 C 99.4886 -1.59279 0.227851 0
M  V30 1003 O 100.681 -1.70771 0.465438 0
M  V30 1004 C 97.8096 -3.21884 1.19356 0
M  V30 1005 C 96.8956 -3.52381 2.35984 0
M  V30 1006 N 97.2866 -3.53811 3.61457 0
M  V30 1007 C 95.5846 -3.82747 2.28956 0
M  V30 1008 C 96.2856 -3.82122 4.38586 0
M  V30 1009 N 95.2616 -3.9993 3.68181 0
M  V30 1010 H 99.0636 -1.83361 2.29687 0
M  V30 1011 H 96.5776 -0.932609 1.32952 0
M  V30 1012 H 98.5746 -4.00998 1.14046 0
M  V30 1013 H 97.2346 -3.23711 0.253295 0
M  V30 1014 H 98.2456 -3.35107 3.94872 0
M  V30 1015 H 94.9226 -3.92175 1.43194 0
M  V30 1016 H 96.3126 -3.89691 5.47349 0
M  V30 1017 N 99.0327 -1.24633 -0.964593 0
M  V30 1018 C 100.281 -1.08573 -1.70459 0
M  V30 1019 C 100.602 0.375655 -1.91347 0
M  V30 1020 O 99.8717 1.26779 -1.49345 0
M  V30 1021 H 98.4517 -0.398784 -0.631649 0
M  V30 1022 H 101.114 -1.56601 -1.16026 0
M  V30 1023 H 100.21 -1.58623 -2.68785 0
M  V30 1024 N 100.511 1.16574 -1.06058 0
M  V30 1025 C 101.757 1.87324 -0.777022 0
M  V30 1026 C 102.09 1.81351 0.694645 0
M  V30 1027 O 101.365 1.22753 1.50871 0
M  V30 1028 C 101.648 3.36991 -1.26922 0
M  V30 1029 C 101.501 3.51667 -2.80447 0
M  V30 1030 C 102.82 4.3131 -0.87521 0
M  V30 1031 H 99.9388 0.680191 -0.28374 0
M  V30 1032 H 102.581 1.37036 -1.3161 0
M  V30 1033 H 100.731 3.79949 -0.81063 0
M  V30 1034 H 102.403 3.17664 -3.34495 0
M  V30 1035 H 100.646 2.93656 -3.19294 0
M  V30 1036 H 101.317 4.56766 -3.0995 0
M  V30 1037 H 103.793 3.9624 -1.27014 0
M  V30 1038 H 102.669 5.34545 -1.2471 0
M  V30 1039 H 102.93 4.41552 0.220071 0
M  V30 1040 N 101.989 0.842826 1.3317 0
M  V30 1041 C 103.237 0.439577 1.97262 0
M  V30 1042 C 103.558 -1.00548 1.67078 0
M  V30 1043 O 102.828 -1.70098 0.971779 0
M  V30 1044 H 101.408 0.159558 0.72976 0
M  V30 1045 H 104.07 1.07665 1.62463 0
M  V30 1046 H 103.166 0.574886 3.0676 0
M  V30 1047 N 103.467 -1.45747 0.599634 0
M  V30 1048 C 104.878 -1.85853 0.177681 0
M  V30 1049 C 105.229 -1.50102 -1.26348 0
M  V30 1050 O 104.354 -0.923905 -1.95686 0
M  V30 1051 C 104.949 -3.37326 0.315688 0
M  V30 1052 C 103.508 -3.76365 -0.0515144 0
M  V30 1053 C 102.655 -2.69722 0.643822 0
M  V30 1054 H 105.606 -1.36661 0.806814 0
M  V30 1055 H 105.627 -3.77778 -0.454321 0
M  V30 1056 H 105.139 -3.63315 1.36468 0
M  V30 1057 H 103.24 -3.55993 -1.09999 0
M  V30 1058 H 103.353 -4.77916 0.336594 0
M  V30 1059 H 101.717 -2.54567 0.0822881 0
M  V30 1060 H 102.5 -2.98549 1.6948 0
M  V30 1061 N 104.945 -0.338344 -1.53925 0
M  V30 1062 C 105.895 0.536712 -2.21593 0
M  V30 1063 C 106.879 1.07015 -1.20153 0
M  V30 1064 O 108.071 1.00471 -1.45721 0
M  V30 1065 C 105.2 1.68977 -2.98834 0
M  V30 1066 C 104.286 1.17052 -4.07627 0
M  V30 1067 N 104.677 0.372085 -5.0443 0
M  V30 1068 C 102.975 1.44789 -4.21844 0
M  V30 1069 C 103.676 0.0909171 -5.81629 0
M  V30 1070 N 102.652 0.681131 -5.39316 0
M  V30 1071 H 106.454 -0.0804298 -2.9379 0
M  V30 1072 H 103.968 -0.144943 -1.61752 0
M  V30 1073 H 105.965 2.32857 -3.45808 0
M  V30 1074 H 104.625 2.31024 -2.28162 0
M  V30 1075 H 105.636 0.0136217 -5.17898 0
M  V30 1076 H 102.313 2.07313 -3.62391 0
M  V30 1077 H 103.703 -0.552817 -6.69622 0
M  V30 1078 N 106.423 1.57458 -0.0668435 0
M  V30 1079 C 107.355 2.09413 0.931601 0
M  V30 1080 C 108.368 1.02522 1.26464 0
M  V30 1081 O 109.557 1.30049 1.22269 0
M  V30 1082 C 106.657 2.53537 2.24882 0
M  V30 1083 C 105.83 3.83944 2.09537 0
M  V30 1084 C 104.889 4.14214 3.2452 0
M  V30 1085 O 103.915 4.83891 2.9973 0
M  V30 1086 N 105.117 3.67367 4.49469 0
M  V30 1087 H 107.882 2.95699 0.488048 0
M  V30 1088 H 105.443 1.61462 0.119009 0
M  V30 1089 H 107.435 2.70853 3.00701 0
M  V30 1090 H 106.005 1.72415 2.60753 0
M  V30 1091 H 105.225 3.76057 1.18215 0
M  V30 1092 H 106.513 4.69312 1.96529 0
M  V30 1093 H 105.911 3.11068 4.72497 0
M  V30 1094 H 104.468 3.89891 5.2233 0
M  V30 1095 N 107.901 -0.206675 1.56239 0
M  V30 1096 C 108.851 -1.26 1.90021 0
M  V30 1097 C 109.835 -1.41566 0.764721 0
M  V30 1098 O 111.027 -1.44131 1.02739 0
M  V30 1099 C 108.156 -2.6073 2.23326 0
M  V30 1100 C 107.242 -2.49005 3.43304 0
M  V30 1101 N 107.633 -2.06946 4.61527 0
M  V30 1102 C 105.931 -2.79927 3.47213 0
M  V30 1103 C 106.632 -2.06832 5.43687 0
M  V30 1104 N 105.608 -2.47892 4.83788 0
M  V30 1105 H 109.41 -0.925955 2.78932 0
M  V30 1106 H 106.924 -0.415172 1.57003 0
M  V30 1107 H 108.921 -3.36798 2.45708 0
M  V30 1108 H 107.581 -2.94968 1.35735 0
M  V30 1109 H 108.592 -1.77839 4.86409 0
M  V30 1110 H 105.269 -3.18438 2.70006 0
M  V30 1111 H 106.659 -1.76312 6.48354 0
M  V30 1112 N 109.379 -1.50304 -0.473955 0
M  V30 1113 C 110.604 -1.65175 -1.25427 0
M  V30 1114 C 111.029 -0.333673 -1.85117 0
M  V30 1115 O 110.387 0.702114 -1.67153 0
M  V30 1116 C 110.435 -2.74295 -2.34082 0
M  V30 1117 O 109.539 -2.35349 -3.38651 0
M  V30 1118 H 108.88 -0.551944 -0.369126 0
M  V30 1119 H 111.41 -1.96662 -0.564364 0
M  V30 1120 H 111.42 -2.97285 -2.79438 0
M  V30 1121 H 110.095 -3.69959 -1.90008 0
M  V30 1122 H 108.672 -2.22794 -2.99027 0
M  V30 1123 N 110.857 0.726932 -1.39834 0
M  V30 1124 C 112.105 1.4837 -1.37225 0
M  V30 1125 C 112.426 1.94979 0.0284857 0
M  V30 1126 O 111.696 1.69555 0.981213 0
M  V30 1127 H 110.276 0.55043 -0.505011 0
M  V30 1128 H 112.938 0.862468 -1.74778 0
M  V30 1129 H 112.034 2.36198 -2.04003 0
M  V30 1130 N 112.336 1.25143 0.95797 0
M  V30 1131 C 113.747 1.08851 1.51685 0
M  V30 1132 C 114.098 -0.33687 1.93286 0
M  V30 1133 O 113.223 -1.22644 1.7829 0
M  V30 1134 C 113.818 1.96978 2.75654 0
M  V30 1135 C 112.377 1.84881 3.27866 0
M  V30 1136 C 111.524 1.91329 2.0072 0
M  V30 1137 H 114.475 1.38478 0.77522 0
M  V30 1138 H 114.496 1.5078 3.4935 0
M  V30 1139 H 114.008 3.00712 2.45345 0
M  V30 1140 H 112.109 0.840182 3.63004 0
M  V30 1141 H 112.222 2.6951 3.96107 0
M  V30 1142 H 110.586 1.35174 2.15871 0
M  V30 1143 H 111.369 2.96661 1.72764 0
M  V30 1144 N 113.814 -1.1601 1.06675 0
M  V30 1145 C 114.777 -2.18724 0.685001 0
M  V30 1146 C 115.777 -1.58496 -0.271246 0
M  V30 1147 O 116.967 -1.74119 -0.0531156 0
M  V30 1148 C 114.099 -3.40899 0.00853648 0
M  V30 1149 H 115.292 -2.54011 1.59431 0
M  V30 1150 H 112.845 -1.30352 0.862441 0
M  V30 1151 H 113.58 -3.11173 -0.913337 0
M  V30 1152 H 113.365 -3.8587 0.696204 0
M  V30 1153 H 114.855 -4.16886 -0.24414 0
M  V30 1154 N 115.292 -0.849877 -1.32721 0
M  V30 1155 C 116.703 -0.506188 -1.79707 0
M  V30 1156 C 117.054 0.975627 -1.70223 0
M  V30 1157 O 116.179 1.76078 -1.25799 0
M  V30 1158 C 116.774 -0.912044 -3.26293 0
M  V30 1159 C 115.333 -0.620326 -3.71253 0
M  V30 1160 C 114.48 -1.11439 -2.53922 0
M  V30 1161 H 117.431 -1.03754 -1.20087 0
M  V30 1162 H 117.452 -0.226493 -3.79825 0
M  V30 1163 H 116.964 -1.99057 -3.33164 0
M  V30 1164 H 115.065 0.447674 -3.69901 0
M  V30 1165 H 115.178 -1.18327 -4.64258 0
M  V30 1166 H 113.542 -0.534834 -2.49021 0
M  V30 1167 H 114.325 -2.19992 -2.6355 0
M  V30 1168 N 116.77 1.45427 -0.607355 0
M  V30 1169 C 118.181 1.85756 -0.187535 0
M  V30 1170 C 118.532 1.5077 1.25551 0
M  V30 1171 O 117.657 0.93427 1.95193 0
M  V30 1172 C 118.252 3.37154 -0.333572 0
M  V30 1173 C 116.811 3.76387 0.0315542 0
M  V30 1174 C 115.958 2.69377 -0.658117 0
M  V30 1175 H 118.909 1.36231 -0.81405 0
M  V30 1176 H 118.93 3.78014 0.43428 0
M  V30 1177 H 118.442 3.62586 -1.38393 0
M  V30 1178 H 116.543 3.56571 1.0811 0
M  V30 1179 H 116.656 4.77731 -0.361935 0
M  V30 1180 H 115.02 2.5452 -0.0957873 0
M  V30 1181 H 115.803 2.97646 -1.7106 0
M  V30 1182 N 118.248 0.346503 1.53744 0
M  V30 1183 C 119.211 -0.496439 2.23759 0
M  V30 1184 C 120.211 -1.0252 1.2388 0
M  V30 1185 O 121.401 -0.913974 1.48297 0
M  V30 1186 C 118.533 -1.69187 2.95954 0
M  V30 1187 H 119.726 0.115952 2.99676 0
M  V30 1188 H 117.279 0.0978939 1.55993 0
M  V30 1189 H 118.014 -2.34288 2.24231 0
M  V30 1190 H 117.799 -1.31989 3.69217 0
M  V30 1191 H 119.289 -2.28969 3.49232 0
M  V30 1192 N 119.726 -1.57421 0.075193 0
M  V30 1193 C 120.689 -2.11791 -0.876203 0
M  V30 1194 C 121.689 -1.04268 -1.22412 0
M  V30 1195 O 122.879 -1.30242 -1.15684 0
M  V30 1196 C 120.011 -2.62207 -2.17854 0
M  V30 1197 H 121.204 -2.9716 -0.40444 0
M  V30 1198 H 118.757 -1.55333 -0.173557 0
M  V30 1199 H 119.492 -1.803 -2.6956 0
M  V30 1200 H 119.277 -3.40802 -1.93897 0
M  V30 1201 H 120.767 -3.04335 -2.85955 0
M  V30 1202 N 121.204 0.198386 -1.56346 0
M  V30 1203 C 122.45 0.920648 -1.80698 0
M  V30 1204 C 122.783 1.83045 -0.648697 0
M  V30 1205 O 122.058 1.91308 0.350925 0
M  V30 1206 C 122.341 1.73971 -3.15287 0
M  V30 1207 C 122.194 0.85485 -4.41602 0
M  V30 1208 C 123.513 2.71296 -3.46535 0
M  V30 1209 H 120.632 0.333261 -0.657348 0
M  V30 1210 H 123.274 0.188198 -1.89066 0
M  V30 1211 H 121.424 2.36416 -3.08285 0
M  V30 1212 H 123.096 0.245362 -4.60647 0
M  V30 1213 H 121.339 0.161398 -4.335 0
M  V30 1214 H 122.01 1.46286 -5.32264 0
M  V30 1215 H 124.486 2.18983 -3.53816 0
M  V30 1216 H 123.362 3.2569 -4.41834 0
M  V30 1217 H 123.623 3.5018 -2.69864 0
M  V30 1218 N 122.682 1.50554 0.465978 0
M  V30 1219 C 124.093 1.54599 1.04671 0
M  V30 1220 C 124.444 0.352488 1.93008 0
M  V30 1221 O 123.569 -0.534044 2.09707 0
M  V30 1222 C 124.164 2.80166 1.90505 0
M  V30 1223 C 122.723 2.86876 2.43678 0
M  V30 1224 C 121.87 2.48947 1.22151 0
M  V30 1225 H 124.821 1.56744 0.248384 0
M  V30 1226 H 124.842 2.62311 2.75633 0
M  V30 1227 H 124.354 3.67013 1.26186 0
M  V30 1228 H 122.455 2.04393 3.11536 0
M  V30 1229 H 122.568 3.89885 2.78436 0
M  V30 1230 H 120.932 2.01498 1.5579 0
M  V30 1231 H 121.715 3.38107 0.594866 0
M  V30 1232 N 124.16 -0.719506 1.40217 0
M  V30 1233 C 125.571 -1.29848 1.34151 0
M  V30 1234 C 125.922 -1.96196 0.0131349 0
M  V30 1235 O 125.047 -1.973 -0.88892 0
M  V30 1236 C 125.642 -2.36118 2.42968 0
M  V30 1237 C 124.201 -2.8965 2.40374 0
M  V30 1238 C 123.348 -1.63393 2.24049 0
M  V30 1239 H 126.299 -0.51591 1.5008 0
M  V30 1240 H 126.32 -3.16871 2.10649 0
M  V30 1241 H 125.832 -1.878 3.39636 0
M  V30 1242 H 123.933 -3.42208 1.47392 0
M  V30 1243 H 124.046 -3.4171 3.35814 0
M  V30 1244 H 122.41 -1.88312 1.71495 0
M  V30 1245 H 123.193 -1.17104 3.2271 0
M  V30 1246 N 125.638 -1.25649 -0.95132 0
M  V30 1247 C 127.049 -1.09654 -1.51106 0
M  V30 1248 C 127.4 0.326615 -1.93462 0
M  V30 1249 O 126.525 1.21697 -1.78938 0
M  V30 1250 C 127.12 -1.98437 -2.74605 0
M  V30 1251 C 125.679 -1.86618 -3.2688 0
M  V30 1252 C 124.826 -1.9239 -1.99703 0
M  V30 1253 H 127.777 -1.38887 -0.767865 0
M  V30 1254 H 127.798 -1.5263 -3.48546 0
M  V30 1255 H 127.31 -3.02009 -2.43746 0
M  V30 1256 H 125.411 -0.859421 -3.62553 0
M  V30 1257 H 125.524 -2.71607 -3.94673 0
M  V30 1258 H 123.888 -1.36317 -2.15151 0
M  V30 1259 H 124.671 -2.97573 -1.71188 0
M  V30 1260 N 127.117 1.15442 -1.07289 0
M  V30 1261 C 128.533 1.38201 -0.798288 0
M  V30 1262 C 128.733 1.92429 0.597769 0
M  V30 1263 O 127.789 2.12962 1.3566 0
M  V30 1264 C 129.102 2.35357 -1.87156 0
M  V30 1265 C 130.65 2.49021 -1.89624 0
M  V30 1266 C 131.125 3.49468 -2.96034 0
M  V30 1267 N 132.616 3.57003 -2.95132 0
M  V30 1268 C 133.351 4.34543 -3.74112 0
M  V30 1269 N 132.847 5.15421 -4.6294 0
M  V30 1270 N 134.64 4.29625 -3.62462 0
M  V30 1271 H 126.791 0.78584 -1.97328 0
M  V30 1272 H 129.054 0.408065 -0.855679 0
M  V30 1273 H 128.76 2.02626 -2.87464 0
M  V30 1274 H 128.634 3.35129 -1.73114 0
M  V30 1275 H 131.021 2.81051 -0.899687 0
M  V30 1276 H 131.102 1.4925 -2.07745 0
M  V30 1277 H 130.746 3.18173 -3.95889 0
M  V30 1278 H 130.676 4.48992 -2.75161 0
M  V30 1279 H 133.167 2.99276 -2.30743 0
M  V30 1280 H 133.48 5.7183 -5.19837 0
M  V30 1281 H 131.825 5.14729 -4.66989 0
M  V30 1282 H 135.016 3.65505 -2.92444 0
M  V30 1283 H 135.189 4.89807 -4.24256 0
M  V30 1284 N 128.595 0.856903 1.32268 0
M  V30 1285 C 129.558 0.308171 2.27119 0
M  V30 1286 C 130.558 -0.533421 1.51695 0
M  V30 1287 O 131.748 -0.344607 1.70757 0
M  V30 1288 C 128.88 -0.563757 3.36206 0
M  V30 1289 H 130.073 1.14535 2.77167 0
M  V30 1290 H 127.626 0.631421 1.42978 0
M  V30 1291 H 128.361 -1.42266 2.91429 0
M  V30 1292 H 128.146 0.0386749 3.92081 0
M  V30 1293 H 129.636 -0.940386 4.06874 0
M  V30 1294 N 130.073 -1.45103 0.615059 0
M  V30 1295 C 131.321 -2.01784 0.112955 0
M  V30 1296 C 131.642 -1.48504 -1.26378 0
M  V30 1297 O 130.912 -0.682245 -1.83636 0
M  V30 1298 H 129.492 -0.745993 0.0387668 0
M  V30 1299 H 132.154 -1.77808 0.798141 0
M  V30 1300 H 131.25 -3.12025 0.0684069 0
M  V30 1301 N 131.551 -0.354651 -1.53558 0
M  V30 1302 C 132.514 0.484566 -2.24019 0
M  V30 1303 C 133.514 1.01861 -1.24422 0
M  V30 1304 O 134.704 0.906097 -1.4878 0
M  V30 1305 C 131.836 1.67615 -2.96847 0
M  V30 1306 H 133.029 -0.131843 -2.9961 0
M  V30 1307 H 130.582 -0.106165 -1.55939 0
M  V30 1308 H 131.317 2.33095 -2.25471 0
M  V30 1309 H 131.102 1.30029 -3.69912 0
M  V30 1310 H 132.592 2.27114 -3.50441 0
M  V30 1311 N 133.029 1.57378 -0.0835403 0
M  V30 1312 C 134.445 1.57246 0.273109 0
M  V30 1313 C 134.645 1.09385 1.69225 0
M  V30 1314 O 133.701 0.765051 2.40631 0
M  V30 1315 C 135.014 3.00614 0.0720628 0
M  V30 1316 C 136.562 3.12684 0.1407 0
M  V30 1317 C 137.037 4.57989 -0.0322094 0
M  V30 1318 N 138.528 4.63194 0.0230085 0
M  V30 1319 C 139.263 5.73335 -0.0861941 0
M  V30 1320 N 138.759 6.9235 -0.24958 0
M  V30 1321 N 140.552 5.62093 -0.0282886 0
M  V30 1322 H 132.703 1.86801 -1.0109 0
M  V30 1323 H 134.966 0.861687 -0.395222 0
M  V30 1324 H 134.672 3.39786 -0.907662 0
M  V30 1325 H 134.546 3.68193 0.81936 0
M  V30 1326 H 136.933 2.73391 1.11092 0
M  V30 1327 H 137.014 2.47719 -0.637896 0
M  V30 1328 H 136.658 4.97973 -0.999247 0
M  V30 1329 H 136.588 5.21 0.765937 0
M  V30 1330 H 139.079 3.77613 0.14722 0
M  V30 1331 H 139.392 7.72117 -0.324733 0
M  V30 1332 H 137.737 6.94415 -0.285097 0
M  V30 1333 H 140.928 4.67997 0.0981408 0
M  V30 1334 H 141.101 6.47895 -0.116845 0
M  V30 1335 N 134.507 -0.190092 1.56449 0
M  V30 1336 C 135.417 -1.25591 1.98152 0
M  V30 1337 C 136.433 -1.49519 0.889944 0
M  V30 1338 O 137.609 -1.62036 1.19609 0
M  V30 1339 C 134.674 -2.57916 2.3169 0
M  V30 1340 C 133.735 -2.42015 3.5458 0
M  V30 1341 C 132.968 -3.6803 3.8651 0
M  V30 1342 O 133.191 -4.72413 3.1966 0
M  V30 1343 O 132.125 -3.6326 4.79923 0
M  V30 1344 H 135.951 -0.931988 2.89046 0
M  V30 1345 H 133.536 -0.395488 1.4407 0
M  V30 1346 H 135.418 -3.36008 2.54316 0
M  V30 1347 H 134.093 -2.89925 1.43963 0
M  V30 1348 H 133 -1.62017 3.37196 0
M  V30 1349 H 134.333 -2.14937 4.4279 0
M  V30 1350 N 135.985 -1.50799 -0.457987 0
M  V30 1351 C 137.396 -1.55152 -1.0385 0
M  V30 1352 C 137.747 -0.362719 -1.92818 0
M  V30 1353 O 136.872 0.522915 -2.09987 0
M  V30 1354 C 137.467 -2.81173 -1.89017 0
M  V30 1355 C 136.026 -2.88164 -2.42154 0
M  V30 1356 C 135.173 -2.49591 -1.20829 0
M  V30 1357 H 138.124 -1.56874 -0.240068 0
M  V30 1358 H 138.145 -2.63769 -2.74238 0
M  V30 1359 H 137.657 -3.67677 -1.24238 0
M  V30 1360 H 135.758 -2.06042 -3.10447 0
M  V30 1361 H 135.871 -3.91356 -2.76364 0
M  V30 1362 H 134.235 -2.02322 -1.54719 0
M  V30 1363 H 135.018 -3.38418 -0.576927 0
M  V30 1364 N 137.463 0.71206 -1.40597 0
M  V30 1365 C 138.879 1.02058 -1.22704 0
M  V30 1366 C 139.079 2.01228 -0.104729 0
M  V30 1367 O 138.135 2.4674 0.53624 0
M  V30 1368 C 139.448 1.56094 -2.57012 0
M  V30 1369 C 140.996 1.6806 -2.64054 0
M  V30 1370 C 141.471 2.25501 -3.9864 0
M  V30 1371 N 142.962 2.32882 -4.004 0
M  V30 1372 C 143.697 2.78317 -5.01325 0
M  V30 1373 N 143.193 3.23478 -6.12645 0
M  V30 1374 N 144.986 2.77733 -4.88693 0
M  V30 1375 H 137.137 0.0547896 -2.12329 0
M  V30 1376 H 139.4 0.0869027 -0.944008 0
M  V30 1377 H 139.106 0.906865 -3.39807 0
M  V30 1378 H 138.98 2.54564 -2.78347 0
M  V30 1379 H 141.367 2.32583 -1.81629 0
M  V30 1380 H 141.448 0.681802 -2.46546 0
M  V30 1381 H 141.092 1.61598 -4.81506 0
M  V30 1382 H 141.022 3.26102 -4.13479 0
M  V30 1383 H 143.513 2.00991 -3.20017 0
M  V30 1384 H 143.826 3.56725 -6.85542 0
M  V30 1385 H 142.171 3.21429 -6.16205 0
M  V30 1386 H 145.362 2.4179 -4.00818 0
M  V30 1387 H 145.535 3.12826 -5.67489 0
M  V30 1388 N 138.941 1.26152 0.944643 0
M  V30 1389 C 139.888 1.07408 2.04285 0
M  V30 1390 C 140.858 -0.0198413 1.66088 0
M  V30 1391 O 142.043 0.139264 1.90291 0
M  V30 1392 C 139.183 0.70945 3.37729 0
M  V30 1393 C 138.296 1.87926 3.88983 0
M  V30 1394 C 137.431 1.45807 5.10797 0
M  V30 1395 C 136.47 2.5964 5.54305 0
M  V30 1396 N 135.607 2.18226 6.67324 0
M  V30 1397 H 140.447 2.01389 2.1965 0
M  V30 1398 H 137.984 1.00275 1.07626 0
M  V30 1399 H 139.942 0.478948 4.14442 0
M  V30 1400 H 138.572 -0.193389 3.2222 0
M  V30 1401 H 137.624 2.22279 3.08701 0
M  V30 1402 H 138.936 2.73377 4.17213 0
M  V30 1403 H 138.09 1.18781 5.94959 0
M  V30 1404 H 136.829 0.574414 4.84305 0
M  V30 1405 H 135.834 2.87399 4.68702 0
M  V30 1406 H 137.059 3.48599 5.828 0
M  V30 1407 H 135.005 1.3229 6.42523 0
M  V30 1408 H 134.922 2.97221 6.95123 0
M  V30 1409 H 136.19 1.94403 7.54869 0
M  V30 1410 N 140.419 -1.14872 1.07899 0
M  V30 1411 C 141.382 -2.17986 0.708161 0
M  V30 1412 C 142.382 -1.58775 -0.25442 0
M  V30 1413 O 143.572 -1.74166 -0.034645 0
M  V30 1414 C 140.704 -3.40871 0.0446929 0
M  V30 1415 H 141.897 -2.52306 1.62116 0
M  V30 1416 H 139.45 -1.2943 0.876218 0
M  V30 1417 H 140.185 -3.12124 -0.880281 0
M  V30 1418 H 139.97 -3.8511 0.737091 0
M  V30 1419 H 141.46 -4.17121 -0.19991 0
M  V30 1420 N 141.898 -0.863906 -1.31812 0
M  V30 1421 C 142.861 -0.320212 -2.26952 0
M  V30 1422 C 143.861 0.525369 -1.51975 0
M  V30 1423 O 145.051 0.335547 -1.70938 0
M  V30 1424 C 142.183 0.545919 -3.365 0
M  V30 1425 H 143.376 -1.16004 -2.76556 0
M  V30 1426 H 140.929 -0.638995 -1.42641 0
M  V30 1427 H 141.664 1.40718 -2.92179 0
M  V30 1428 H 141.449 -0.0594674 -3.92055 0
M  V30 1429 H 142.939 0.918796 -4.07367 0
M  V30 1430 N 143.376 1.44774 -0.622745 0
M  V30 1431 C 144.339 2.29069 0.0774015 0
M  V30 1432 C 145.339 1.4059 0.780461 0
M  V30 1433 O 146.529 1.62551 0.626322 0
M  V30 1434 C 143.661 3.21974 1.12006 0
M  V30 1435 H 144.854 2.92459 -0.663901 0
M  V30 1436 H 142.407 1.51548 -0.382486 0
M  V30 1437 H 143.142 2.63417 1.89162 0
M  V30 1438 H 142.927 3.87168 0.619951 0
M  V30 1439 H 144.417 3.85318 1.60995 0
M  V30 1440 N 144.854 0.36279 1.53368 0
M  V30 1441 C 146.27 0.0116182 1.59596 0
M  V30 1442 C 146.47 -1.47012 1.37803 0
M  V30 1443 O 145.526 -2.23136 1.18181 0
M  V30 1444 C 146.839 0.465052 2.97082 0
M  V30 1445 C 148.387 0.419033 3.10182 0
M  V30 1446 C 148.862 0.848235 4.50077 0
M  V30 1447 N 150.353 0.803183 4.56183 0
M  V30 1448 C 151.088 1.107 5.62613 0
M  V30 1449 N 150.584 1.47996 6.76808 0
M  V30 1450 N 152.377 1.02998 5.52583 0
M  V30 1451 H 144.528 1.32775 1.65785 0
M  V30 1452 H 146.791 0.542518 0.777417 0
M  V30 1453 H 146.497 1.49892 3.18159 0
M  V30 1454 H 146.371 -0.149786 3.76902 0
M  V30 1455 H 148.758 -0.605696 2.88817 0
M  V30 1456 H 148.839 1.06933 2.32377 0
M  V30 1457 H 148.483 1.87107 4.7218 0
M  V30 1458 H 148.413 0.175218 5.26308 0
M  V30 1459 H 150.904 0.52838 3.74188 0
M  V30 1460 H 151.217 1.69613 7.53957 0
M  V30 1461 H 149.562 1.51859 6.78206 0
M  V30 1462 H 152.753 0.737817 4.62249 0
M  V30 1463 H 152.926 1.2701 6.35431 0
M  V30 1464 N 146.332 -1.57332 0.0918853 0
M  V30 1465 C 147.748 -1.57389 -0.264766 0
M  V30 1466 C 147.948 -1.10281 -1.68643 0
M  V30 1467 O 147.004 -0.777801 -2.40222 0
M  V30 1468 C 148.317 -3.00648 -0.0561195 0
M  V30 1469 C 149.865 -3.12754 -0.124116 0
M  V30 1470 C 150.34 -4.57965 0.0564972 0
M  V30 1471 N 151.831 -4.632 0.00155611 0
M  V30 1472 C 152.566 -5.73281 0.116598 0
M  V30 1473 N 152.062 -6.92208 0.286294 0
M  V30 1474 N 153.855 -5.6207 0.0580973 0
M  V30 1475 H 146.006 -1.86262 1.02079 0
M  V30 1476 H 148.269 -0.859579 0.399786 0
M  V30 1477 H 147.975 -3.393 0.925669 0
M  V30 1478 H 147.849 -3.68623 -0.799823 0
M  V30 1479 H 150.236 -2.73976 -1.09641 0
M  V30 1480 H 150.317 -2.47377 0.651024 0
M  V30 1481 H 149.961 -4.97436 1.02564 0
M  V30 1482 H 149.891 -5.21399 -0.738297 0
M  V30 1483 H 152.382 -3.77686 -0.127192 0
M  V30 1484 H 152.695 -7.71934 0.365676 0
M  V30 1485 H 151.04 -6.94254 0.32192 0
M  V30 1486 H 154.231 -4.68043 -0.0733204 0
M  V30 1487 H 154.404 -6.47824 0.151203 0
M  V30 1488 N 147.81 0.181792 -1.56548 0
M  V30 1489 C 149.087 0.926765 -1.72251 0
M  V30 1490 C 149.467 2.00831 -0.650386 0
M  V30 1491 O 148.815 2.26008 0.336521 0
M  V30 1492 C 149.025 1.50106 -3.1507 0
M  V30 1493 C 150.373 1.97805 -3.75711 0
M  V30 1494 O 151.397 1.59922 -3.18282 0
M  V30 1495 O 150.256 2.67555 -4.76525 0
M  V30 1496 H 147.35 0.435506 -0.703039 0
M  V30 1497 H 149.896 0.170443 -1.68842 0
M  V30 1498 H 148.668 0.72212 -3.84579 0
M  V30 1499 H 148.291 2.32186 -3.22763 0
M  V30 1500 N 149.288 1.51039 0.449983 0
M  V30 1501 C 150.236 1.71995 1.5659 0
M  V30 1502 C 151.23 0.586029 1.5894 0
M  V30 1503 O 152.436 0.76709 1.62837 0
M  V30 1504 H 148.811 0.543233 0.520001 0
M  V30 1505 H 150.782 2.65562 1.36085 0
M  V30 1506 C 149.531 1.8506 2.9436 0
M  V30 1507 H 148.854 2.71712 2.93279 0
M  V30 1508 H 150.294 2.0374 3.71842 0
M  V30 1509 C 148.753 0.607277 3.31382 0
M  V30 1510 O 149.283 -0.243903 4.00959 0
M  V30 1511 N 147.489 0.455073 2.87015 0
M  V30 1512 H 147.036 1.14879 2.30566 0
M  V30 1513 H 146.994 -0.375611 3.12148 0
M  V30 1514 N 150.766 -0.704594 1.40972 0
M  V30 1515 C 151.729 -1.80035 1.41845 0
M  V30 1516 C 152.729 -1.57774 0.310474 0
M  V30 1517 O 153.919 -1.64613 0.56992 0
M  V30 1518 C 151.051 -3.18284 1.22098 0
M  V30 1519 H 152.244 -1.80658 2.3938 0
M  V30 1520 H 149.797 -0.911329 1.26982 0
M  V30 1521 H 150.532 -3.23306 0.253672 0
M  V30 1522 H 150.317 -3.35843 2.02366 0
M  V30 1523 H 151.807 -3.98289 1.25522 0
M  V30 1524 N 152.244 -1.26651 -0.937939 0
M  V30 1525 C 153.469 -1.15279 -1.72411 0
M  V30 1526 C 153.894 0.287866 -1.85884 0
M  V30 1527 O 153.252 1.20855 -1.35143 0
M  V30 1528 C 153.3 -1.83028 -3.10698 0
M  V30 1529 O 152.404 -1.12128 -3.96864 0
M  V30 1530 H 151.745 -0.401504 -0.528858 0
M  V30 1531 H 154.275 -1.67531 -1.1745 0
M  V30 1532 H 154.285 -1.89981 -3.6107 0
M  V30 1533 H 152.96 -2.87833 -3.00208 0
M  V30 1534 H 151.537 -1.13173 -3.55312 0
M  V30 1535 N 153.722 1.14298 -1.08507 0
M  V30 1536 C 154.97 1.84993 -0.813763 0
M  V30 1537 C 155.291 1.83405 0.662393 0
M  V30 1538 O 154.561 1.28319 1.48024 0
M  V30 1539 H 153.141 0.684966 -0.298045 0
M  V30 1540 H 155.803 1.385 -1.37126 0
M  V30 1541 H 154.899 2.89788 -1.15884 0
M  V30 1542 N 155.201 0.870884 1.31352 0
M  V30 1543 C 156.478 0.402907 1.91405 0
M  V30 1544 C 156.858 -1.11512 1.79244 0
M  V30 1545 O 156.206 -1.94411 1.2007 0
M  V30 1546 C 156.416 0.885301 3.37585 0
M  V30 1547 C 157.764 0.911971 4.14691 0
M  V30 1548 O 158.788 0.831016 3.46371 0
M  V30 1549 O 157.647 1.02927 5.3672 0
M  V30 1550 H 154.741 0.120698 0.818145 0
M  V30 1551 H 157.287 0.958857 1.40014 0
M  V30 1552 H 156.059 1.92889 3.40455 0
M  V30 1553 H 155.682 0.307714 3.96407 0
M  V30 1554 N 156.679 -1.44442 0.630414 0
M  V30 1555 C 157.642 -2.29107 -0.0652523 0
M  V30 1556 C 158.642 -1.41002 -0.772995 0
M  V30 1557 O 159.832 -1.62881 -0.617692 0
M  V30 1558 C 156.964 -3.22564 -1.10296 0
M  V30 1559 H 158.157 -2.92103 0.679401 0
M  V30 1560 H 155.71 -1.51343 0.390517 0
M  V30 1561 H 156.445 -2.64416 -1.87762 0
M  V30 1562 H 156.23 -3.87491 -0.59941 0
M  V30 1563 H 157.72 -3.86167 -1.5895 0
M  V30 1564 N 158.157 -0.370918 -1.53173 0
M  V30 1565 C 159.12 0.460778 -2.24521 0
M  V30 1566 C 160.12 1.00536 -1.25496 0
M  V30 1567 O 161.31 0.890266 -1.49733 0
M  V30 1568 C 158.442 1.64457 -2.98608 0
M  V30 1569 H 159.635 -0.163613 -2.99453 0
M  V30 1570 H 157.188 -0.122699 -1.55818 0
M  V30 1571 H 157.923 2.30691 -2.2793 0
M  V30 1572 H 157.708 1.26099 -3.7127 0
M  V30 1573 H 159.198 2.23384 -3.5283 0
M  V30 1574 N 159.635 1.57281 -0.100228 0
M  V30 1575 C 160.582 2.14305 0.856858 0
M  V30 1576 C 161.552 1.06296 1.27634 0
M  V30 1577 O 162.737 1.34109 1.35718 0
M  V30 1578 C 159.877 2.73184 2.10866 0
M  V30 1579 C 158.99 3.95442 1.73925 0
M  V30 1580 C 158.125 4.42468 2.93931 0
M  V30 1581 C 157.164 5.57303 2.5314 0
M  V30 1582 N 156.301 5.99158 3.65997 0
M  V30 1583 H 161.141 2.95772 0.363726 0
M  V30 1584 H 158.678 1.46139 0.167858 0
M  V30 1585 H 160.636 3.05442 2.84185 0
M  V30 1586 H 159.266 1.94437 2.57671 0
M  V30 1587 H 158.318 3.69464 0.905554 0
M  V30 1588 H 159.63 4.78769 1.39935 0
M  V30 1589 H 158.784 4.76537 3.75496 0
M  V30 1590 H 157.523 3.58052 3.31134 0
M  V30 1591 H 156.528 5.22857 1.70003 0
M  V30 1592 H 157.753 6.43471 2.17075 0
M  V30 1593 H 155.699 5.17687 4.02909 0
M  V30 1594 H 155.616 6.77295 3.35869 0
M  V30 1595 H 156.884 6.3786 4.48057 0
M  V30 1596 N 161.113 -0.173488 1.56642 0
M  V30 1597 C 162.361 -0.888706 1.81512 0
M  V30 1598 C 162.682 -1.82875 0.676872 0
M  V30 1599 O 161.952 -1.93536 -0.303414 0
M  V30 1600 H 160.532 -0.331164 0.669582 0
M  V30 1601 H 163.194 -0.173823 1.94123 0
M  V30 1602 H 162.29 -1.46691 2.75478 0
M  V30 1603 N 162.591 -1.51276 -0.441967 0
M  V30 1604 C 163.538 -1.72256 -1.53612 0
M  V30 1605 C 164.508 -0.564164 -1.56225 0
M  V30 1606 O 165.693 -0.798074 -1.73307 0
M  V30 1607 C 162.833 -1.84932 -2.91366 0
M  V30 1608 C 161.946 -3.12459 -2.98317 0
M  V30 1609 C 161.081 -3.15758 -4.27166 0
M  V30 1610 C 160.12 -4.37619 -4.27967 0
M  V30 1611 N 159.257 -4.38493 -5.48333 0
M  V30 1612 H 164.097 -2.65654 -1.35026 0
M  V30 1613 H 161.634 -1.31662 -0.656009 0
M  V30 1614 H 163.592 -1.90263 -3.7129 0
M  V30 1615 H 162.222 -0.949461 -3.08521 0
M  V30 1616 H 161.274 -3.1646 -2.11086 0
M  V30 1617 H 162.586 -4.02382 -2.94771 0
M  V30 1618 H 161.74 -3.19979 -5.15459 0
M  V30 1619 H 160.479 -2.23715 -4.33362 0
M  V30 1620 H 159.484 -4.33579 -3.38067 0
M  V30 1621 H 160.709 -5.30921 -4.23438 0
M  V30 1622 H 158.655 -3.49318 -5.55259 0
M  V30 1623 H 158.572 -5.22219 -5.46647 0
M  V30 1624 H 159.84 -4.469 -6.38671 0
M  V30 1625 N 164.069 0.697108 -1.41344 0
M  V30 1626 C 165.315 1.4593 -1.40827 0
M  V30 1627 C 165.648 1.94193 -0.0167098 0
M  V30 1628 O 164.923 1.69425 0.955263 0
M  V30 1629 C 165.206 2.67229 -2.41373 0
M  V30 1630 C 165.059 2.24741 -3.8963 0
M  V30 1631 C 166.378 3.69423 -2.39196 0
M  V30 1632 H 163.497 0.529303 -0.512842 0
M  V30 1633 H 166.139 0.794112 -1.72609 0
M  V30 1634 H 164.289 3.23982 -2.14401 0
M  V30 1635 H 165.961 1.73327 -4.27499 0
M  V30 1636 H 164.204 1.56542 -4.0457 0
M  V30 1637 H 164.875 3.1177 -4.55525 0
M  V30 1638 H 167.351 3.2234 -2.63128 0
M  V30 1639 H 166.227 4.51907 -3.11563 0
M  V30 1640 H 166.488 4.19012 -1.41001 0
M  V30 1641 N 165.547 1.27147 0.931209 0
M  V30 1642 C 166.494 1.09568 2.03134 0
M  V30 1643 C 167.464 -0.00222433 1.661 0
M  V30 1644 O 168.649 0.159439 1.90133 0
M  V30 1645 C 165.789 0.745231 3.36957 0
M  V30 1646 C 164.902 1.92041 3.86968 0
M  V30 1647 C 164.037 1.51216 5.09222 0
M  V30 1648 C 163.076 2.65504 5.5152 0
M  V30 1649 N 162.213 2.25291 6.64972 0
M  V30 1650 H 167.053 2.03708 2.17502 0
M  V30 1651 H 164.59 1.01411 1.06556 0
M  V30 1652 H 166.548 0.522878 4.1391 0
M  V30 1653 H 165.178 -0.159202 3.22407 0
M  V30 1654 H 164.23 2.25541 3.06326 0
M  V30 1655 H 165.542 2.77787 4.1429 0
M  V30 1656 H 164.696 1.25084 5.93666 0
M  V30 1657 H 163.435 0.625749 4.83669 0
M  V30 1658 H 162.44 2.92354 4.65628 0
M  V30 1659 H 163.665 3.54761 5.7907 0
M  V30 1660 H 161.611 1.39098 6.41083 0
M  V30 1661 H 161.528 3.04577 6.91931 0
M  V30 1662 H 162.796 2.02398 7.52765 0
M  V30 1663 N 167.025 -1.13721 1.09112 0
M  V30 1664 C 167.988 -2.17222 0.731241 0
M  V30 1665 C 168.988 -1.59035 -0.237566 0
M  V30 1666 O 170.178 -1.74192 -0.0161704 0
M  V30 1667 C 167.31 -3.40804 0.0808443 0
M  V30 1668 H 168.503 -2.50573 1.64783 0
M  V30 1669 H 166.056 -1.28493 0.889897 0
M  V30 1670 H 166.791 -3.1304 -0.847127 0
M  V30 1671 H 166.576 -3.84306 0.777896 0
M  V30 1672 H 168.066 -4.1731 -0.155657 0
M  V30 1673 N 168.503 -0.877838 -1.30888 0
M  V30 1674 C 169.45 -0.337538 -2.28318 0
M  V30 1675 C 170.42 0.568346 -1.56074 0
M  V30 1676 O 171.605 0.498298 -1.84178 0
M  V30 1677 C 168.745 0.448142 -3.42178 0
M  V30 1678 C 167.858 -0.48615 -4.29256 0
M  V30 1679 C 166.993 0.314427 -5.30269 0
M  V30 1680 C 166.032 -0.615791 -6.08995 0
M  V30 1681 N 165.169 0.14902 -7.01942 0
M  V30 1682 H 170.009 -1.17356 -2.73919 0
M  V30 1683 H 167.546 -0.590094 -1.34745 0
M  V30 1684 H 169.504 0.919517 -4.06941 0
M  V30 1685 H 168.134 1.24879 -2.97666 0
M  V30 1686 H 167.186 -1.076 -3.64865 0
M  V30 1687 H 168.498 -1.19909 -4.84173 0
M  V30 1688 H 167.652 0.847969 -6.00745 0
M  V30 1689 H 166.391 1.06062 -4.76027 0
M  V30 1690 H 165.396 -1.16102 -5.37401 0
M  V30 1691 H 166.621 -1.36097 -6.65323 0
M  V30 1692 H 164.567 0.877884 -6.50099 0
M  V30 1693 H 164.484 -0.504433 -7.54315 0
M  V30 1694 H 165.752 0.663537 -7.76671 0
M  V30 1695 N 169.982 1.44106 -0.638065 0
M  V30 1696 C 171.393 1.85316 -0.226894 0
M  V30 1697 C 171.744 1.53399 1.22324 0
M  V30 1698 O 170.869 0.975463 1.93167 0
M  V30 1699 C 171.464 3.3637 -0.405013 0
M  V30 1700 C 170.023 3.76369 -0.0482902 0
M  V30 1701 C 169.17 2.67921 -0.715108 0
M  V30 1702 H 172.121 1.34474 -0.842764 0
M  V30 1703 H 172.142 3.7885 0.354 0
M  V30 1704 H 171.654 3.59569 -1.46053 0
M  V30 1705 H 169.755 3.58784 1.00522 0
M  V30 1706 H 169.868 4.76856 -0.463187 0
M  V30 1707 H 168.232 2.54259 -0.149753 0
M  V30 1708 H 169.015 2.93951 -1.77335 0
M  V30 1709 N 171.46 0.379036 1.52974 0
M  V30 1710 C 172.871 -0.0972525 1.86447 0
M  V30 1711 C 173.222 -1.47027 1.29914 0
M  V30 1712 O 172.347 -2.07135 0.626433 0
M  V30 1713 C 172.942 -0.183248 3.38304 0
M  V30 1714 C 171.501 -0.603812 3.71525 0
M  V30 1715 C 170.648 0.240632 2.76254 0
M  V30 1716 H 173.599 0.597316 1.4703 0
M  V30 1717 H 173.62 -1.00432 3.67006 0
M  V30 1718 H 173.132 0.816191 3.79421 0
M  V30 1719 H 171.233 -1.61099 3.35973 0
M  V30 1720 H 171.346 -0.369086 4.77676 0
M  V30 1721 H 169.71 -0.292548 2.53014 0
M  V30 1722 H 170.493 1.23786 3.20206 0
M  V30 1723 N 172.938 -1.57226 0.108567 0
M  V30 1724 C 173.901 -2.13602 -0.831082 0
M  V30 1725 C 174.901 -1.06841 -1.20173 0
M  V30 1726 O 176.091 -1.32666 -1.12895 0
M  V30 1727 C 173.223 -2.66769 -2.12243 0
M  V30 1728 H 174.416 -2.97951 -0.341317 0
M  V30 1729 H 171.969 -1.55667 -0.14057 0
M  V30 1730 H 172.704 -1.85977 -2.65675 0
M  V30 1731 H 172.489 -3.44839 -1.86625 0
M  V30 1732 H 173.979 -3.10332 -2.79435 0
M  V30 1733 N 174.416 0.165178 -1.56732 0
M  V30 1734 C 175.693 0.908443 -1.73224 0
M  V30 1735 C 176.073 2.0013 -0.67165 0
M  V30 1736 O 175.421 2.26353 0.31253 0
M  V30 1737 C 175.631 1.46756 -3.16644 0
M  V30 1738 C 176.979 1.93809 -3.77787 0
M  V30 1739 O 178.003 1.56537 -3.1996 0
M  V30 1740 O 176.862 2.62486 -4.79336 0
M  V30 1741 H 173.956 0.428025 -0.707618 0
M  V30 1742 H 176.502 0.152526 -1.69013 0
M  V30 1743 H 175.274 0.68129 -3.85323 0
M  V30 1744 H 174.897 2.28749 -3.25207 0
M  V30 1745 N 175.894 1.51508 0.433938 0
M  V30 1746 C 177.305 1.56784 1.01369 0
M  V30 1747 C 177.656 0.393349 1.92217 0
M  V30 1748 O 176.781 -0.489441 2.10792 0
M  V30 1749 C 177.376 2.84144 1.8452 0
M  V30 1750 C 175.935 2.9198 2.37539 0
M  V30 1751 C 175.082 2.51482 1.16843 0
M  V30 1752 H 178.033 1.57236 0.215081 0
M  V30 1753 H 178.054 2.68098 2.70007 0
M  V30 1754 H 177.566 3.69607 1.18373 0
M  V30 1755 H 175.667 2.10955 3.0713 0
M  V30 1756 H 175.78 3.95704 2.70103 0
M  V30 1757 H 174.144 2.04758 1.51481 0
M  V30 1758 H 174.927 3.39293 0.523015 0
M  V30 1759 N 177.372 -0.689602 1.41712 0
M  V30 1760 C 178.335 -1.78521 1.43746 0
M  V30 1761 C 179.335 -1.57436 0.327191 0
M  V30 1762 O 180.525 -1.64 0.587348 0
M  V30 1763 C 177.657 -3.16971 1.25467 0
M  V30 1764 H 178.85 -1.78108 2.41283 0
M  V30 1765 H 176.403 -0.89781 1.27942 0
M  V30 1766 H 177.138 -3.23019 0.287948 0
M  V30 1767 H 176.923 -3.33678 2.05917 0
M  V30 1768 H 178.413 -3.96935 1.2974 0
M  V30 1769 N 178.85 -1.27639 -0.924453 0
M  V30 1770 C 179.813 -1.10681 -2.00705 0
M  V30 1771 C 180.813 -0.0497823 -1.60723 0
M  V30 1772 O 182.003 -0.294654 -1.7169 0
M  V30 1773 C 179.135 -0.687164 -3.33902 0
M  V30 1774 H 180.328 -2.06817 -2.17179 0
M  V30 1775 H 177.881 -1.10473 -1.10569 0
M  V30 1776 H 178.616 0.275439 -3.23128 0
M  V30 1777 H 178.401 -1.45061 -3.6428 0
M  V30 1778 H 179.891 -0.590853 -4.13399 0
M  V30 1779 N 180.328 1.1314 -1.09713 0
M  V30 1780 C 181.291 2.16831 -0.742751 0
M  V30 1781 C 182.291 1.59159 0.229129 0
M  V30 1782 O 183.481 1.74199 0.00693237 0
M  V30 1783 C 180.613 3.40756 -0.0989168 0
M  V30 1784 H 181.806 2.49695 -1.66109 0
M  V30 1785 H 179.359 1.2802 -0.896699 0
M  V30 1786 H 180.094 3.13485 0.830514 0
M  V30 1787 H 179.879 3.83888 -0.798265 0
M  V30 1788 H 181.369 4.17386 0.133524 0
M  V30 1789 N 181.806 0.884767 1.30421 0
M  V30 1790 C 182.769 0.356277 2.26414 0
M  V30 1791 C 183.769 -0.501124 1.52792 0
M  V30 1792 O 184.959 -0.30831 1.7145 0
M  V30 1793 C 182.091 -0.492316 3.37326 0
M  V30 1794 H 183.284 1.20389 2.74675 0
M  V30 1795 H 180.837 0.661607 1.41607 0
M  V30 1796 H 181.572 -1.36052 2.94381 0
M  V30 1797 H 181.357 0.121832 3.91911 0
M  V30 1798 H 182.847 -0.853871 4.08777 0
M  V30 1799 N 183.284 -1.43765 0.645699 0
M  V30 1800 C 184.509 -2.06767 0.161883 0
M  V30 1801 C 184.934 -1.48034 -1.16049 0
M  V30 1802 O 184.292 -0.587369 -1.71522 0
M  V30 1803 C 184.34 -3.60519 0.0762003 0
M  V30 1804 O 183.444 -4.00982 -0.963721 0
M  V30 1805 H 182.785 -0.657675 0.091429 0
M  V30 1806 H 185.315 -1.84397 0.886499 0
M  V30 1807 H 185.325 -4.07853 -0.109604 0
M  V30 1808 H 184 -4.02646 1.04157 0
M  V30 1809 H 182.577 -3.65253 -0.751312 0
M  V30 1810 N 184.763 -0.387143 -1.52771 0
M  V30 1811 C 186.174 0.0873634 -1.86495 0
M  V30 1812 C 186.525 1.46336 -1.30691 0
M  V30 1813 O 185.65 2.068 -0.637409 0
M  V30 1814 C 186.245 0.165305 -3.38396 0
M  V30 1815 C 184.804 0.584101 -3.7184 0
M  V30 1816 C 183.951 -0.255279 -2.76122 0
M  V30 1817 H 186.902 -0.605104 -1.46711 0
M  V30 1818 H 186.923 0.984848 -3.67534 0
M  V30 1819 H 186.435 -0.836301 -3.78982 0
M  V30 1820 H 184.536 1.59315 -3.36823 0
M  V30 1821 H 184.649 0.343749 -4.77865 0
M  V30 1822 H 183.013 0.279126 -2.53166 0
M  V30 1823 H 183.796 -1.25482 -3.19545 0
M  V30 1824 N 186.241 1.57166 -0.116904 0
M  V30 1825 C 187.481 1.97008 0.544715 0
M  V30 1826 C 187.845 0.998713 1.63981 0
M  V30 1827 O 189.046 1.28644 2.36018 0
M  V30 1828 C 187.317 3.41145 1.06559 0
M  V30 1829 S 188.876 4.02998 1.73603 0
M  V30 1830 H 185.694 0.688587 0.177112 0
M  V30 1831 H 188.296 1.94459 -0.201487 0
M  V30 1832 H 187 4.09592 0.257374 0
M  V30 1833 H 186.531 3.4734 1.84712 0
M  V30 1834 H 188.546 3.93585 3.02168 0
M  V30 1835 N 187.719 -0.156864 1.56817 0
M  V30 1836 C 189.135 -0.50916 1.5126 0
M  V30 1837 C 189.335 -1.83897 0.823658 0
M  V30 1838 O 188.391 -2.49469 0.390055 0
M  V30 1839 C 189.704 -0.52857 2.96018 0
M  V30 1840 C 191.252 -0.614771 3.06903 0
M  V30 1841 C 191.727 -0.664938 4.53147 0
M  V30 1842 N 193.218 -0.727433 4.57452 0
M  V30 1843 C 193.953 -0.787067 5.67973 0
M  V30 1844 N 193.449 -0.806649 6.88088 0
M  V30 1845 N 195.242 -0.827195 5.5598 0
M  V30 1846 H 187.393 0.714935 2.00006 0
M  V30 1847 H 189.656 0.259526 0.911784 0
M  V30 1848 H 189.362 0.380154 3.49639 0
M  V30 1849 H 189.236 -1.36998 3.51442 0
M  V30 1850 H 191.623 -1.51392 2.53307 0
M  V30 1851 H 191.704 0.253597 2.5454 0
M  V30 1852 H 191.348 0.230011 5.07379 0
M  V30 1853 H 191.278 -1.54966 5.03282 0
M  V30 1854 H 193.769 -0.719998 3.70978 0
M  V30 1855 H 194.082 -0.853727 7.6807 0
M  V30 1856 H 192.427 -0.774687 6.90669 0
M  V30 1857 H 195.618 -0.808998 4.61056 0
M  V30 1858 H 195.791 -0.870206 6.4213 0
M  V30 1859 N 189.197 -1.51736 -0.425897 0
M  V30 1860 C 190.16 -1.73271 -1.50032 0
M  V30 1861 C 191.16 -0.602639 -1.4908 0
M  V30 1862 O 192.35 -0.87033 -1.509 0
M  V30 1863 C 189.482 -1.79969 -2.89523 0
M  V30 1864 H 190.675 -2.69172 -1.32237 0
M  V30 1865 H 188.228 -1.41899 -0.65532 0
M  V30 1866 H 188.963 -0.859241 -3.1271 0
M  V30 1867 H 188.748 -2.62109 -2.91619 0
M  V30 1868 H 190.238 -1.9843 -3.67444 0
M  V30 1869 N 190.675 0.682077 -1.42076 0
M  V30 1870 C 191.638 1.77756 -1.44691 0
M  V30 1871 C 192.638 1.5726 -0.335535 0
M  V30 1872 O 193.828 1.63686 -0.596037 0
M  V30 1873 C 190.96 3.16301 -1.27146 0
M  V30 1874 H 192.153 1.76826 -2.42224 0
M  V30 1875 H 189.706 0.891012 -1.28416 0
M  V30 1876 H 190.441 3.22862 -0.305075 0
M  V30 1877 H 190.226 3.32581 -2.07683 0
M  V30 1878 H 191.716 3.96241 -1.31843 0
M  V30 1879 N 192.153 1.28127 0.917671 0
M  V30 1880 C 193.116 1.11744 2.00115 0
M  V30 1881 C 194.116 0.0583052 1.60694 0
M  V30 1882 O 195.306 0.303755 1.71531 0
M  V30 1883 C 192.438 0.704862 3.33533 0
M  V30 1884 H 193.631 2.07966 2.16079 0
M  V30 1885 H 191.184 1.11058 1.09981 0
M  V30 1886 H 191.919 -0.258299 3.2327 0
M  V30 1887 H 191.704 1.4699 3.63505 0
M  V30 1888 H 193.194 0.612768 4.1308 0
M  V30 1889 N 193.631 -1.12557 1.10312 0
M  V30 1890 C 194.879 -1.83675 0.843091 0
M  V30 1891 C 195.2 -1.84435 -0.633131 0
M  V30 1892 O 194.47 -1.30657 -1.45964 0
M  V30 1893 H 193.05 -0.680138 0.308904 0
M  V30 1894 H 195.712 -1.36301 1.39313 0
M  V30 1895 H 194.808 -2.87908 1.2048 0
M  V30 1896 N 195.109 -0.891671 -1.2995 0
M  V30 1897 C 196.357 -0.512486 -1.95494 0
M  V30 1898 C 196.678 0.942776 -1.70695 0
M  V30 1899 O 195.948 1.66374 -1.03424 0
M  V30 1900 H 194.528 -0.186533 -0.723336 0
M  V30 1901 H 197.19 -1.13621 -1.58355 0
M  V30 1902 H 196.286 -0.688342 -3.04415 0
M  V30 1903 N 196.587 1.43421 -0.653314 0
M  V30 1904 C 197.519 2.29071 0.0769134 0
M  V30 1905 C 198.532 1.42513 0.787017 0
M  V30 1906 O 199.721 1.66449 0.644757 0
M  V30 1907 C 196.821 3.19436 1.13199 0
M  V30 1908 C 195.994 4.34533 0.500006 0
M  V30 1909 C 195.053 5.05771 1.45198 0
M  V30 1910 O 194.079 5.61037 0.960538 0
M  V30 1911 N 195.281 5.0928 2.78594 0
M  V30 1912 H 198.046 2.92382 -0.658235 0
M  V30 1913 H 195.607 1.54112 -0.496104 0
M  V30 1914 H 197.599 3.63958 1.76964 0
M  V30 1915 H 196.169 2.57724 1.7691 0
M  V30 1916 H 195.389 3.92925 -0.316738 0
M  V30 1917 H 196.677 5.08766 0.0588345 0
M  V30 1918 H 196.075 4.65751 3.2108 0
M  V30 1919 H 194.632 5.57519 3.37662 0
M  V30 1920 N 198.065 0.39524 1.52563 0
M  V30 1921 C 199.313 -0.184678 2.01254 0
M  V30 1922 C 199.634 -1.46822 1.28329 0
M  V30 1923 O 198.904 -1.91666 0.405094 0
M  V30 1924 H 197.484 -0.0712355 0.743596 0
M  V30 1925 H 200.146 0.528293 1.87603 0
M  V30 1926 H 199.242 -0.390681 3.09645 0
M  V30 1927 N 199.544 -1.57102 0.125237 0
M  V30 1928 C 200.769 -2.0019 -0.542101 0
M  V30 1929 C 201.194 -1.00449 -1.59034 0
M  V30 1930 O 200.552 0.0229423 -1.81285 0
M  V30 1931 C 200.6 -3.42129 -1.13929 0
M  V30 1932 O 199.704 -3.45307 -2.2547 0
M  V30 1933 H 199.045 -0.650171 -0.134812 0
M  V30 1934 H 201.575 -2.03461 0.215553 0
M  V30 1935 H 201.585 -3.80471 -1.4733 0
M  V30 1936 H 200.26 -4.14237 -0.371531 0
M  V30 1937 H 198.837 -3.1879 -1.93462 0
M  V30 1938 N 201.022 0.148545 -1.56898 0
M  V30 1939 C 201.985 1.16736 -1.97244 0
M  V30 1940 C 202.985 1.35947 -0.858777 0
M  V30 1941 O 204.175 1.32966 -1.12542 0
M  V30 1942 C 201.307 2.52798 -2.28705 0
M  V30 1943 H 202.5 0.821279 -2.88435 0
M  V30 1944 H 200.053 0.391831 -1.51309 0
M  V30 1945 H 200.788 2.92381 -1.403 0
M  V30 1946 H 200.573 2.40216 -3.09901 0
M  V30 1947 H 202.063 3.26179 -2.60762 0
M  V30 1948 N 202.5 1.5196 0.417844 0
M  V30 1949 C 203.746 1.65836 1.16732 0
M  V30 1950 C 204.079 0.382881 1.90388 0
M  V30 1951 O 203.354 -0.618368 1.84408 0
M  V30 1952 C 203.637 2.87466 2.16876 0
M  V30 1953 C 203.49 4.25041 1.47174 0
M  V30 1954 C 204.809 3.04613 3.17646 0
M  V30 1955 H 201.928 0.603515 0.423011 0
M  V30 1956 H 204.57 1.84494 0.454105 0
M  V30 1957 H 202.72 2.71689 2.777 0
M  V30 1958 H 204.392 4.52527 0.895376 0
M  V30 1959 H 202.635 4.26843 0.773806 0
M  V30 1960 H 203.306 5.06176 2.20204 0
M  V30 1961 H 205.782 3.1923 2.66892 0
M  V30 1962 H 204.658 3.91247 3.8499 0
M  V30 1963 H 204.919 2.17541 3.84874 0
M  V30 1964 N 203.978 -0.674533 1.42435 0
M  V30 1965 C 204.941 -1.76986 1.45632 0
M  V30 1966 C 205.941 -1.5708 0.343871 0
M  V30 1967 O 207.131 -1.63367 0.604709 0
M  V30 1968 C 204.263 -3.15623 1.28822 0
M  V30 1969 H 205.456 -1.75539 2.43158 0
M  V30 1970 H 203.009 -0.884189 1.28887 0
M  V30 1971 H 203.744 -3.22696 0.322193 0
M  V30 1972 H 203.529 -3.31475 2.09444 0
M  V30 1973 H 205.019 -3.95537 1.33942 0
M  V30 1974 N 205.456 -1.28612 -0.910864 0
M  V30 1975 C 206.419 -1.12803 -1.9952 0
M  V30 1976 C 207.419 -0.0668264 -1.60661 0
M  V30 1977 O 208.609 -0.312847 -1.71368 0
M  V30 1978 C 205.741 -0.72254 -3.33155 0
M  V30 1979 H 206.934 -2.09109 -2.14973 0
M  V30 1980 H 204.487 -1.11639 -1.09391 0
M  V30 1981 H 205.222 0.241152 -3.23402 0
M  V30 1982 H 205.007 -1.48916 -3.62721 0
M  V30 1983 H 206.497 -0.634666 -4.12749 0
M  V30 1984 N 206.934 1.1197 -1.10907 0
M  V30 1985 C 207.844 2.21433 -0.774896 0
M  V30 1986 C 208.86 1.72478 0.229657 0
M  V30 1987 O 210.036 2.01288 0.0672008 0
M  V30 1988 C 207.101 3.4602 -0.216986 0
M  V30 1989 C 206.162 4.09791 -1.27944 0
M  V30 1990 C 205.395 5.28431 -0.748055 0
M  V30 1991 O 205.618 5.68823 0.423833 0
M  V30 1992 O 204.552 5.82644 -1.51027 0
M  V30 1993 H 208.378 2.5242 -1.68873 0
M  V30 1994 H 205.963 1.20399 -0.884555 0
M  V30 1995 H 207.845 4.21304 0.090059 0
M  V30 1996 H 206.52 3.16698 0.669633 0
M  V30 1997 H 205.427 3.36265 -1.63941 0
M  V30 1998 H 206.76 4.4328 -2.13925 0
M  V30 1999 N 208.412 0.89855 1.29475 0
M  V30 2000 C 209.375 0.380272 2.26023 0
M  V30 2001 C 210.375 -0.484891 1.53315 0
M  V30 2002 O 211.565 -0.290108 1.71767 0
M  V30 2003 C 208.697 -0.45651 3.3783 0
M  V30 2004 H 209.89 1.23295 2.73383 0
M  V30 2005 H 207.443 0.676589 1.40897 0
M  V30 2006 H 208.178 -1.32922 2.95808 0
M  V30 2007 H 207.963 0.163393 3.91759 0
M  V30 2008 H 209.453 -0.810466 4.0966 0
M  V30 2009 N 209.89 -1.43072 0.660911 0
M  V30 2010 C 210.8 -2.34585 -0.0264163 0
M  V30 2011 C 211.816 -1.54316 -0.803898 0
M  V30 2012 O 212.992 -1.86939 -0.749391 0
M  V30 2013 C 210.057 -3.32689 -0.975639 0
M  V30 2014 C 209.118 -4.2886 -0.194236 0
M  V30 2015 C 208.351 -5.22278 -1.09825 0
M  V30 2016 O 208.574 -5.20299 -2.33763 0
M  V30 2017 O 207.508 -5.99228 -0.566513 0
M  V30 2018 H 211.334 -2.94869 0.727034 0
M  V30 2019 H 208.919 -1.43342 0.42111 0
M  V30 2020 H 210.801 -3.92995 -1.52094 0
M  V30 2021 H 209.476 -2.74898 -1.70918 0
M  V30 2022 H 208.383 -3.72011 0.394835 0
M  V30 2023 H 209.716 -4.89655 0.499899 0
M  V30 2024 N 211.368 -0.403325 -1.52352 0
M  V30 2025 C 212.779 0.0675782 -1.86578 0
M  V30 2026 C 213.13 1.44941 -1.32236 0
M  V30 2027 O 212.255 2.06112 -0.659307 0
M  V30 2028 C 212.85 0.129404 -3.38553 0
M  V30 2029 C 211.409 0.544629 -3.72439 0
M  V30 2030 C 210.556 -0.284551 -2.75836 0
M  V30 2031 H 213.507 -0.620631 -1.46061 0
M  V30 2032 H 213.528 0.94581 -3.68558 0
M  V30 2033 H 213.04 -0.87645 -3.78074 0
M  V30 2034 H 211.141 1.55734 -3.38493 0
M  V30 2035 H 211.254 0.293046 -4.78203 0
M  V30 2036 H 209.618 0.252258 -2.53448 0
M  V30 2037 H 210.401 -1.28865 -3.18196 0
M  V30 2038 N 212.846 1.57033 -0.133567 0
M  V30 2039 C 214.094 1.953 0.519848 0
M  V30 2040 C 214.415 1.01866 1.66278 0
M  V30 2041 O 213.685 0.0776513 1.95746 0
M  V30 2042 H 212.265 0.721091 0.195032 0
M  V30 2043 H 214.927 1.93809 -0.205921 0
M  V30 2044 H 214.023 2.98695 0.904854 0
M  V30 2045 N 214.325 -0.140222 1.56975 0
M  V30 2046 C 215.272 -1.17292 1.98774 0
M  V30 2047 C 216.242 -1.4232 0.856408 0
M  V30 2048 O 217.427 -1.54541 1.119 0
M  V30 2049 C 214.567 -2.49973 2.37923 0
M  V30 2050 C 213.68 -2.32062 3.64378 0
M  V30 2051 C 212.815 -3.57825 3.926 0
M  V30 2052 C 211.854 -3.3498 5.12303 0
M  V30 2053 N 210.991 -4.52891 5.36502 0
M  V30 2054 H 215.831 -0.809472 2.86795 0
M  V30 2055 H 213.368 -0.388237 1.41884 0
M  V30 2056 H 215.326 -3.27346 2.58652 0
M  V30 2057 H 213.956 -2.84252 1.52972 0
M  V30 2058 H 213.008 -1.45711 3.51387 0
M  V30 2059 H 214.32 -2.11145 4.51906 0
M  V30 2060 H 213.474 -4.43624 4.13863 0
M  V30 2061 H 212.213 -3.81753 3.03506 0
M  V30 2062 H 211.218 -2.4757 4.90906 0
M  V30 2063 H 212.443 -3.12444 6.02956 0
M  V30 2064 H 210.389 -4.76979 4.50363 0
M  V30 2065 H 210.306 -4.35001 6.18312 0
M  V30 2066 H 211.574 -5.39884 5.62268 0
M  V30 2067 N 215.803 -1.52179 -0.40978 0
M  V30 2068 C 216.713 -1.78364 -1.52392 0
M  V30 2069 C 217.729 -0.669183 -1.60617 0
M  V30 2070 O 218.905 -0.954518 -1.77344 0
M  V30 2071 C 215.97 -1.92822 -2.88133 0
M  V30 2072 C 215.031 -3.16725 -2.898 0
M  V30 2073 C 214.264 -3.30483 -4.19067 0
M  V30 2074 O 214.487 -2.49522 -5.12928 0
M  V30 2075 O 213.421 -4.2363 -4.27576 0
M  V30 2076 H 217.247 -2.72931 -1.33201 0
M  V30 2077 H 214.832 -1.37016 -0.59557 0
M  V30 2078 H 216.714 -2.04157 -3.68643 0
M  V30 2079 H 215.389 -1.01444 -3.07393 0
M  V30 2080 H 214.296 -3.10848 -2.08146 0
M  V30 2081 H 215.629 -4.07881 -2.75489 0
M  V30 2082 N 217.281 0.66697 -1.42791 0
M  V30 2083 C 218.191 1.80962 -1.49299 0
M  V30 2084 C 219.207 1.69775 -0.381108 0
M  V30 2085 O 220.383 1.91188 -0.633188 0
M  V30 2086 C 217.448 3.17156 -1.40045 0
M  V30 2087 C 216.509 3.40242 -2.6179 0
M  V30 2088 C 215.742 4.69939 -2.52969 0
M  V30 2089 O 215.965 5.48372 -1.56985 0
M  V30 2090 O 214.899 4.94441 -3.43237 0
M  V30 2091 H 218.725 1.78427 -2.45759 0
M  V30 2092 H 216.31 0.823713 -1.24641 0
M  V30 2093 H 218.192 3.98413 -1.37276 0
M  V30 2094 H 216.867 3.20312 -0.467138 0
M  V30 2095 H 215.774 2.58802 -2.70134 0
M  V30 2096 H 217.107 3.41923 -3.54047 0
M  V30 2097 N 218.759 1.29093 0.90403 0
M  V30 2098 C 220.17 1.15186 1.46932 0
M  V30 2099 C 220.521 -0.254587 1.94541 0
M  V30 2100 O 219.646 -1.14972 1.83332 0
M  V30 2101 C 220.241 2.08492 2.67051 0
M  V30 2102 C 218.8 1.98621 3.19729 0
M  V30 2103 C 217.947 1.9967 1.92425 0
M  V30 2104 H 220.898 1.41641 0.715789 0
M  V30 2105 H 220.919 1.65461 3.42641 0
M  V30 2106 H 220.431 3.10847 2.3237 0
M  V30 2107 H 218.532 0.993389 3.59114 0
M  V30 2108 H 218.645 2.86068 3.8432 0
M  V30 2109 H 217.009 1.44208 2.09943 0
M  V30 2110 H 217.792 3.03721 1.60026 0
M  V30 2111 N 220.237 -1.11381 1.11499 0
M  V30 2112 C 221.648 -1.6465 0.880191 0
M  V30 2113 C 221.999 -1.87199 -0.587434 0
M  V30 2114 O 221.124 -1.60667 -1.44966 0
M  V30 2115 C 221.719 -2.99105 1.59128 0
M  V30 2116 C 220.278 -3.49279 1.40289 0
M  V30 2117 C 219.425 -2.24077 1.63354 0
M  V30 2118 H 222.376 -0.950123 1.27116 0
M  V30 2119 H 222.397 -3.66107 1.03664 0
M  V30 2120 H 221.909 -2.82661 2.65941 0
M  V30 2121 H 220.01 -3.70887 0.356888 0
M  V30 2122 H 220.123 -4.2803 2.15238 0
M  V30 2123 H 218.487 -2.31733 1.05698 0
M  V30 2124 H 219.27 -2.10175 2.71443 0
M  V30 2125 N 221.715 -0.905404 -1.28997 0
M  V30 2126 C 222.678 -0.392253 -2.25819 0
M  V30 2127 C 223.678 0.476753 -1.5357 0
M  V30 2128 O 224.868 0.280994 -1.71919 0
M  V30 2129 C 222 0.438588 -3.38067 0
M  V30 2130 H 223.193 -1.24743 -2.72725 0
M  V30 2131 H 220.746 -0.684051 -1.40536 0
M  V30 2132 H 221.481 1.31352 -2.96508 0
M  V30 2133 H 221.266 -0.184167 -3.91667 0
M  V30 2134 H 222.756 0.78873 -4.10084 0
M  V30 2135 N 223.193 1.4272 -0.668489 0
M  V30 2136 C 224.609 1.55992 -0.33745 0
M  V30 2137 C 224.809 1.64933 1.15756 0
M  V30 2138 O 223.865 1.61278 1.94282 0
M  V30 2139 C 225.178 2.81314 -1.06222 0
M  V30 2140 C 226.726 2.95078 -1.04394 0
M  V30 2141 C 227.201 4.23252 -1.74991 0
M  V30 2142 N 228.692 4.3015 -1.71829 0
M  V30 2143 C 229.427 5.28127 -2.23315 0
M  V30 2144 N 228.923 6.32293 -2.83156 0
M  V30 2145 N 230.716 5.19882 -2.13726 0
M  V30 2146 H 222.867 1.3516 -1.63846 0
M  V30 2147 H 225.13 0.650174 -0.689912 0
M  V30 2148 H 224.836 2.80823 -2.11734 0
M  V30 2149 H 224.71 3.72012 -0.62344 0
M  V30 2150 H 227.097 2.951 0.0028244 0
M  V30 2151 H 227.178 2.05627 -1.52155 0
M  V30 2152 H 226.822 4.2399 -2.79633 0
M  V30 2153 H 226.752 5.11626 -1.24685 0
M  V30 2154 H 229.243 3.55499 -1.28175 0
M  V30 2155 H 229.556 7.03398 -3.20079 0
M  V30 2156 H 227.901 6.32873 -2.87223 0
M  V30 2157 H 231.092 4.37423 -1.66669 0
M  V30 2158 H 231.265 5.96077 -2.54158 0
M  V30 2159 N 224.671 0.411399 1.52136 0
M  V30 2160 C 225.896 -0.165538 2.06738 0
M  V30 2161 C 226.321 -1.379 1.27926 0
M  V30 2162 O 225.679 -1.78628 0.310114 0
M  V30 2163 C 225.727 -0.492124 3.57226 0
M  V30 2164 O 224.831 -1.58276 3.80818 0
M  V30 2165 H 224.172 -0.0132132 0.663869 0
M  V30 2166 H 226.702 0.585253 1.96051 0
M  V30 2167 H 226.712 -0.750104 4.01045 0
M  V30 2168 H 225.387 0.394922 4.14021 0
M  V30 2169 H 223.964 -1.31677 3.48877 0
M  V30 2170 N 226.149 -1.5696 0.141893 0
M  V30 2171 C 227.374 -2.00754 -0.520838 0
M  V30 2172 C 227.799 -1.0213 -1.57959 0
M  V30 2173 O 227.157 0.00371324 -1.813 0
M  V30 2174 C 227.205 -3.43318 -1.10294 0
M  V30 2175 O 226.309 -3.47679 -2.21795 0
M  V30 2176 H 225.65 -0.651564 -0.127908 0
M  V30 2177 H 228.18 -2.03221 0.23712 0
M  V30 2178 H 228.19 -3.82012 -1.43287 0
M  V30 2179 H 226.865 -4.14608 -0.327574 0
M  V30 2180 H 225.442 -3.20824 -1.9007 0
M  V30 2181 N 227.627 0.131896 -1.57047 0
M  V30 2182 C 228.557 1.16384 -2.02428 0
M  V30 2183 C 229.538 1.43936 -0.90644 0
M  V30 2184 O 230.723 1.54599 -1.17528 0
M  V30 2185 C 227.853 2.49328 -2.4177 0
M  V30 2186 C 226.807 2.36266 -3.56879 0
M  V30 2187 C 226.133 3.74057 -3.8208 0
M  V30 2188 C 227.433 1.834 -4.89042 0
M  V30 2189 H 229.127 0.786433 -2.88887 0
M  V30 2190 H 226.673 0.376855 -1.38981 0
M  V30 2191 H 228.626 3.21759 -2.7212 0
M  V30 2192 H 227.35 2.88934 -1.52266 0
M  V30 2193 H 226.009 1.66286 -3.26718 0
M  V30 2194 H 225.657 4.11125 -2.89803 0
M  V30 2195 H 225.357 3.66174 -4.59554 0
M  V30 2196 H 226.881 4.48012 -4.1487 0
M  V30 2197 H 228.295 2.45636 -5.18011 0
M  V30 2198 H 226.692 1.8637 -5.70426 0
M  V30 2199 H 227.762 0.790662 -4.7841 0
M  V30 2200 N 229.106 1.52395 0.401703 0
M  V30 2201 C 230.353 1.66817 1.14796 0
M  V30 2202 C 230.681 0.401772 1.90305 0
M  V30 2203 O 229.936 -0.615487 1.85769 0
M  V30 2204 C 230.235 2.84578 2.16217 0
M  V30 2205 C 229.901 4.22513 1.5746 0
M  V30 2206 C 228.563 4.60029 1.41161 0
M  V30 2207 C 230.915 5.0844 1.14622 0
M  V30 2208 C 228.243 5.81144 0.80552 0
M  V30 2209 C 230.595 6.30167 0.55428 0
M  V30 2210 C 229.259 6.66426 0.378482 0
M  V30 2211 H 228.529 0.610428 0.420069 0
M  V30 2212 H 231.176 1.86512 0.434212 0
M  V30 2213 H 229.481 2.59248 2.93764 0
M  V30 2214 H 231.178 2.92933 2.73845 0
M  V30 2215 H 227.768 3.92953 1.71132 0
M  V30 2216 H 231.952 4.80034 1.26021 0
M  V30 2217 H 227.208 6.07855 0.657399 0
M  V30 2218 H 231.382 6.96071 0.213983 0
M  V30 2219 H 229.009 7.60143 -0.0932606 0
M  V30 2220 N 230.584 -0.659388 1.43143 0
M  V30 2221 C 231.516 -1.7849 1.43784 0
M  V30 2222 C 232.529 -1.5932 0.334787 0
M  V30 2223 O 233.718 -1.68155 0.598842 0
M  V30 2224 C 230.818 -3.15828 1.22906 0
M  V30 2225 C 229.991 -3.61711 2.45934 0
M  V30 2226 C 229.05 -4.77831 2.20371 0
M  V30 2227 O 228.076 -4.87586 2.93681 0
M  V30 2228 N 229.278 -5.67611 1.21647 0
M  V30 2229 H 232.043 -1.7842 2.40803 0
M  V30 2230 H 229.604 -0.84302 1.3822 0
M  V30 2231 H 231.596 -3.91189 1.03697 0
M  V30 2232 H 230.166 -3.10707 0.343542 0
M  V30 2233 H 229.386 -2.76861 2.80609 0
M  V30 2234 H 230.674 -3.89112 3.27825 0
M  V30 2235 H 230.072 -5.62397 0.610449 0
M  V30 2236 H 228.629 -6.42719 1.08423 0
M  V30 2237 N 232.062 -1.29571 -0.897171 0
M  V30 2238 C 232.972 -1.16808 -2.03453 0
M  V30 2239 C 233.988 -0.0907471 -1.73763 0
M  V30 2240 O 235.164 -0.303312 -1.99103 0
M  V30 2241 C 232.229 -0.848264 -3.36163 0
M  V30 2242 C 231.29 -2.0097 -3.79354 0
M  V30 2243 C 230.523 -1.70505 -5.05731 0
M  V30 2244 O 230.746 -0.62718 -5.66941 0
M  V30 2245 O 229.68 -2.5538 -5.45036 0
M  V30 2246 H 233.506 -2.12325 -2.17144 0
M  V30 2247 H 231.091 -1.09047 -1.02123 0
M  V30 2248 H 232.973 -0.684581 -4.15802 0
M  V30 2249 H 231.648 0.0771071 -3.23608 0
M  V30 2250 H 230.555 -2.22863 -3.00471 0
M  V30 2251 H 231.888 -2.91636 -3.96496 0
M  V30 2252 N 233.54 1.10788 -1.12088 0
M  V30 2253 C 234.487 2.17025 -0.785407 0
M  V30 2254 C 235.457 1.64265 0.246191 0
M  V30 2255 O 236.642 1.90412 0.121584 0
M  V30 2256 C 233.782 3.44249 -0.242177 0
M  V30 2257 C 232.895 4.1098 -1.33115 0
M  V30 2258 C 232.03 5.25911 -0.747741 0
M  V30 2259 C 231.069 5.84538 -1.81609 0
M  V30 2260 N 230.206 6.90853 -1.25167 0
M  V30 2261 H 235.046 2.45066 -1.69548 0
M  V30 2262 H 232.583 1.20297 -0.846582 0
M  V30 2263 H 234.541 4.17101 0.0908026 0
M  V30 2264 H 233.171 3.16571 0.631072 0
M  V30 2265 H 232.223 3.36133 -1.78097 0
M  V30 2266 H 233.535 4.50601 -2.13917 0
M  V30 2267 H 232.689 6.056 -0.365216 0
M  V30 2268 H 231.428 4.87614 0.0915188 0
M  V30 2269 H 230.433 5.03522 -2.20785 0
M  V30 2270 H 231.658 6.249 -2.6585 0
M  V30 2271 H 229.604 6.54562 -0.434174 0
M  V30 2272 H 229.521 7.29166 -1.99633 0
M  V30 2273 H 230.789 7.7433 -0.896259 0
M  V30 2274 N 235.018 0.912232 1.28515 0
M  V30 2275 C 235.981 0.404223 2.25607 0
M  V30 2276 C 236.981 -0.468602 1.53821 0
M  V30 2277 O 238.171 -0.271873 1.72065 0
M  V30 2278 C 235.303 -0.420653 3.38295 0
M  V30 2279 H 236.496 1.26188 2.7206 0
M  V30 2280 H 234.049 0.691495 1.40171 0
M  V30 2281 H 234.784 -1.29777 2.97201 0
M  V30 2282 H 234.569 0.204935 3.91564 0
M  V30 2283 H 236.059 -0.766971 4.10496 0
M  V30 2284 N 236.496 -1.42363 0.676048 0
M  V30 2285 C 237.444 -2.32596 -0.0131507 0
M  V30 2286 C 238.438 -1.49891 -0.789238 0
M  V30 2287 O 239.644 -1.65955 -0.697061 0
M  V30 2288 H 236.019 -0.751647 -0.0230481 0
M  V30 2289 H 237.99 -2.88421 0.765243 0
M  V30 2290 C 236.739 -3.34479 -0.949702 0
M  V30 2291 H 236.062 -3.98158 -0.361938 0
M  V30 2292 H 237.502 -4.00199 -1.4006 0
M  V30 2293 C 235.961 -2.66838 -2.05667 0
M  V30 2294 O 236.491 -2.50124 -3.14326 0
M  V30 2295 N 234.697 -2.25843 -1.82875 0
M  V30 2296 H 234.244 -2.39637 -0.945085 0
M  V30 2297 H 234.202 -1.80918 -2.5713 0
M  V30 2298 N 237.974 -0.419461 -1.51915 0
M  V30 2299 C 238.904 0.391813 -2.30189 0
M  V30 2300 C 239.885 1.03699 -1.34836 0
M  V30 2301 O 241.07 1.04403 -1.63748 0
M  V30 2302 C 238.2 1.50312 -3.13087 0
M  V30 2303 C 237.154 0.9824 -4.16573 0
M  V30 2304 C 236.48 2.18809 -4.8788 0
M  V30 2305 C 237.78 0.0292356 -5.22292 0
M  V30 2306 H 239.474 -0.26135 -2.98257 0
M  V30 2307 H 237.02 -0.127134 -1.43438 0
M  V30 2308 H 238.973 2.07773 -3.66617 0
M  V30 2309 H 237.697 2.18431 -2.42807 0
M  V30 2310 H 236.356 0.430119 -3.64068 0
M  V30 2311 H 236.004 2.85507 -4.14119 0
M  V30 2312 H 235.704 1.84615 -5.57845 0
M  V30 2313 H 237.228 2.76858 -5.44226 0
M  V30 2314 H 238.642 0.512976 -5.71 0
M  V30 2315 H 237.039 -0.2244 -5.9968 0
M  V30 2316 H 238.109 -0.912931 -4.76228 0
M  V30 2317 N 239.452 1.56882 -0.150215 0
M  V30 2318 C 240.682 2.00302 0.506213 0
M  V30 2319 C 241.09 1.02934 1.58749 0
M  V30 2320 O 240.433 0.0188384 1.8369 0
M  V30 2321 C 240.495 3.40156 1.16337 0
M  V30 2322 C 240.159 4.56439 0.226311 0
M  V30 2323 C 241.156 5.17012 -0.547265 0
M  V30 2324 C 238.841 5.02136 0.128279 0
M  V30 2325 C 240.835 6.21693 -1.40629 0
M  V30 2326 C 238.522 6.06672 -0.734345 0
M  V30 2327 C 239.52 6.6632 -1.50023 0
M  V30 2328 O 239.208 7.68831 -2.34848 0
M  V30 2329 H 238.94 0.662182 0.135984 0
M  V30 2330 H 241.494 2.03961 -0.242746 0
M  V30 2331 H 239.724 3.33346 1.96004 0
M  V30 2332 H 241.413 3.67663 1.71985 0
M  V30 2333 H 242.179 4.82603 -0.48158 0
M  V30 2334 H 238.058 4.55435 0.714157 0
M  V30 2335 H 241.602 6.68179 -2.00455 0
M  V30 2336 H 237.499 6.40507 -0.801309 0
M  V30 2337 H 238.267 7.86065 -2.28131 0
M  V30 2338 N 240.93 -0.123565 1.57115 0
M  V30 2339 C 242.341 -0.681198 1.73829 0
M  V30 2340 C 242.692 -1.80535 0.768214 0
M  V30 2341 O 241.817 -2.16317 -0.0599103 0
M  V30 2342 C 242.412 -1.24246 3.15196 0
M  V30 2343 C 240.971 -1.74643 3.33432 0
M  V30 2344 C 240.118 -0.644284 2.69711 0
M  V30 2345 H 243.069 0.102315 1.5837 0
M  V30 2346 H 243.09 -2.11216 3.16493 0
M  V30 2347 H 242.602 -0.424062 3.85776 0
M  V30 2348 H 240.703 -2.58974 2.67886 0
M  V30 2349 H 240.816 -1.85902 4.41562 0
M  V30 2350 H 239.18 -1.07676 2.3082 0
M  V30 2351 H 239.963 0.163058 3.42913 0
M  V30 2352 N 242.408 -1.52605 -0.393616 0
M  V30 2353 C 243.819 -1.59417 -0.971761 0
M  V30 2354 C 244.17 -0.444173 -1.91106 0
M  V30 2355 O 243.295 0.433382 -2.12016 0
M  V30 2356 C 243.89 -2.88936 -1.76921 0
M  V30 2357 C 242.449 -2.98175 -2.29714 0
M  V30 2358 C 241.596 -2.54491 -1.10135 0
M  V30 2359 H 244.547 -1.57751 -0.173317 0
M  V30 2360 H 244.568 -2.75163 -2.62804 0
M  V30 2361 H 244.08 -3.72616 -1.08532 0
M  V30 2362 H 242.181 -2.19024 -3.01429 0
M  V30 2363 H 242.294 -4.02726 -2.59517 0
M  V30 2364 H 240.658 -2.08702 -1.45999 0
M  V30 2365 H 241.441 -3.4056 -0.432874 0
M  V30 2366 N 243.887 0.651787 -1.4349 0
M  V30 2367 C 245.112 1.44434 -1.48841 0
M  V30 2368 C 245.537 1.8779 -0.107955 0
M  V30 2369 O 244.895 1.57464 0.898602 0
M  V30 2370 C 244.943 2.65458 -2.44059 0
M  V30 2371 O 244.047 3.64566 -1.92784 0
M  V30 2372 H 243.388 0.433005 -0.503391 0
M  V30 2373 H 245.918 0.797451 -1.88419 0
M  V30 2374 H 245.928 3.13255 -2.6141 0
M  V30 2375 H 244.603 2.33244 -3.4434 0
M  V30 2376 H 243.18 3.23716 -1.851 0
M  V30 2377 N 245.365 1.30045 0.890287 0
M  V30 2378 C 246.313 1.15873 2.01683 0
M  V30 2379 C 247.307 0.0719403 1.69247 0
M  V30 2380 O 248.513 0.232414 1.78493 0
M  V30 2381 H 244.888 0.358203 0.661207 0
M  V30 2382 H 246.859 2.11229 2.10772 0
M  V30 2383 C 245.608 0.861842 3.36849 0
M  V30 2384 H 244.931 1.69016 3.62317 0
M  V30 2385 H 246.371 0.802762 4.16331 0
M  V30 2386 C 244.83 -0.435132 3.34078 0
M  V30 2387 O 245.36 -1.4583 3.74295 0
M  V30 2388 N 243.566 -0.444377 2.87182 0
M  V30 2389 H 243.113 0.388723 2.5465 0
M  V30 2390 H 243.071 -1.31213 2.85711 0
M  V30 2391 N 246.843 -1.10192 1.12674 0
M  V30 2392 C 248.071 -1.85983 0.906527 0
M  V30 2393 C 248.486 -1.80783 -0.544333 0
M  V30 2394 O 247.843 -1.19834 -1.37645 0
M  V30 2395 C 247.894 -3.34281 1.37618 0
M  V30 2396 O 247.615 -3.39401 2.77017 0
M  V30 2397 C 249.116 -4.26938 1.19325 0
M  V30 2398 H 246.336 -0.587716 0.323775 0
M  V30 2399 H 248.88 -1.39284 1.49734 0
M  V30 2400 H 247.035 -3.78436 0.828539 0
M  V30 2401 H 247.449 -4.31838 2.97684 0
M  V30 2402 H 248.923 -5.29181 1.57071 0
M  V30 2403 H 249.4 -4.38995 0.134097 0
M  V30 2404 H 250.006 -3.8859 1.72852 0
M  V30 2405 N 248.321 -0.919034 -1.28029 0
M  V30 2406 C 249.732 -0.600735 -1.76771 0
M  V30 2407 C 250.083 0.884024 -1.75156 0
M  V30 2408 O 249.208 1.69163 -1.34956 0
M  V30 2409 C 249.803 -1.08372 -3.21 0
M  V30 2410 C 248.362 -0.816248 -3.67443 0
M  V30 2411 C 247.509 -1.24742 -2.47658 0
M  V30 2412 H 250.46 -1.09974 -1.14418 0
M  V30 2413 H 250.481 -0.427512 -3.78091 0
M  V30 2414 H 249.993 -2.16437 -3.22144 0
M  V30 2415 H 248.094 0.250968 -3.71754 0
M  V30 2416 H 248.207 -1.4277 -4.57333 0
M  V30 2417 H 246.571 -0.666083 -2.45836 0
M  V30 2418 H 247.354 -2.33653 -2.51518 0
M  V30 2419 N 249.799 1.42003 -0.683588 0
M  V30 2420 C 251.047 2.01015 -0.209101 0
M  V30 2421 C 251.368 1.54365 1.19149 0
M  V30 2422 O 250.638 0.769083 1.80172 0
M  V30 2423 H 249.218 0.743294 -0.074315 0
M  V30 2424 H 251.88 1.73798 -0.882066 0
M  V30 2425 H 250.976 3.11343 -0.2172 0
M  V30 2426 N 251.277 0.427512 1.51691 0
M  V30 2427 C 252.554 -0.201684 1.94557 0
M  V30 2428 C 252.934 -1.60981 1.36559 0
M  V30 2429 O 252.282 -2.21814 0.548702 0
M  V30 2430 C 252.492 -0.189394 3.48486 0
M  V30 2431 C 253.84 -0.39978 4.22714 0
M  V30 2432 O 254.864 -0.267945 3.55191 0
M  V30 2433 O 253.723 -0.661249 5.42485 0
M  V30 2434 H 250.817 -0.135261 0.815864 0
M  V30 2435 H 253.363 0.484782 1.62628 0
M  V30 2436 H 252.135 0.795431 3.8313 0
M  V30 2437 H 251.758 -0.919187 3.86829 0
M  V30 2438 N 252.755 -1.56801 0.158532 0
M  V30 2439 C 253.718 -2.16138 -0.762705 0
M  V30 2440 C 254.718 -1.1061 -1.16713 0
M  V30 2441 O 255.908 -1.36191 -1.08617 0
M  V30 2442 C 253.04 -2.73386 -2.03649 0
M  V30 2443 H 254.233 -2.98886 -0.246354 0
M  V30 2444 H 251.786 -1.56035 -0.0909744 0
M  V30 2445 H 252.521 -1.94335 -2.59623 0
M  V30 2446 H 252.306 -3.50601 -1.75559 0
M  V30 2447 H 253.796 -3.19065 -2.6942 0
M  V30 2448 N 254.233 0.115231 -1.57178 0
M  V30 2449 C 255.163 1.1423 -2.03651 0
M  V30 2450 C 256.144 1.42967 -0.921655 0
M  V30 2451 O 257.329 1.53343 -1.19162 0
M  V30 2452 C 254.459 2.4675 -2.44401 0
M  V30 2453 C 253.413 2.32467 -3.59365 0
M  V30 2454 C 252.739 3.69984 -3.86026 0
M  V30 2455 C 254.039 1.78203 -4.90959 0
M  V30 2456 H 255.733 0.755749 -2.89705 0
M  V30 2457 H 253.279 0.362093 -1.39373 0
M  V30 2458 H 255.232 3.18854 -2.75517 0
M  V30 2459 H 253.956 2.87302 -1.55322 0
M  V30 2460 H 252.615 1.62811 -3.28463 0
M  V30 2461 H 252.263 4.08028 -2.94147 0
M  V30 2462 H 251.963 3.61279 -4.63412 0
M  V30 2463 H 253.487 4.43587 -4.19599 0
M  V30 2464 H 254.901 2.40128 -5.20587 0
M  V30 2465 H 253.298 1.8031 -5.72371 0
M  V30 2466 H 254.368 0.739876 -4.79222 0
M  V30 2467 N 255.711 1.52812 0.385517 0
M  V30 2468 C 256.936 1.72207 1.15583 0
M  V30 2469 C 257.361 0.441034 1.82857 0
M  V30 2470 O 256.719 -0.603465 1.70962 0
M  V30 2471 C 256.767 2.87476 2.17692 0
M  V30 2472 O 255.871 2.54693 3.24354 0
M  V30 2473 H 255.212 0.572526 0.336319 0
M  V30 2474 H 257.742 1.99618 0.448744 0
M  V30 2475 H 257.752 3.13072 2.6163 0
M  V30 2476 H 256.427 3.80408 1.68115 0
M  V30 2477 H 255.004 2.3985 2.85529 0
M  V30 2478 N 257.189 -0.644168 1.43834 0
M  V30 2479 C 258.6 -1.22554 1.40845 0
M  V30 2480 C 258.951 -1.9585 0.117115 0
M  V30 2481 O 258.076 -2.01734 -0.783086 0
M  V30 2482 C 258.671 -2.22907 2.55143 0
M  V30 2483 C 257.23 -2.76501 2.5539 0
M  V30 2484 C 256.377 -1.51287 2.32396 0
M  V30 2485 H 259.328 -0.43563 1.52604 0
M  V30 2486 H 259.349 -3.05259 2.2715 0
M  V30 2487 H 258.861 -1.69533 3.49114 0
M  V30 2488 H 256.962 -3.33914 1.65324 0
M  V30 2489 H 257.075 -3.23429 3.53455 0
M  V30 2490 H 255.439 -1.78957 1.81236 0
M  V30 2491 H 256.222 -0.998336 3.28463 0
M  V30 2492 N 258.668 -1.30515 -0.883378 0
M  V30 2493 C 259.916 -1.19194 -1.63209 0
M  V30 2494 C 260.237 0.253205 -1.93349 0
M  V30 2495 O 259.507 1.17025 -1.57105 0
M  V30 2496 H 258.087 -0.438148 -0.605009 0
M  V30 2497 H 260.749 -1.63663 -1.05832 0
M  V30 2498 H 259.845 -1.75396 -2.58153 0
M  V30 2499 N 260.146 1.09593 -1.13257 0
M  V30 2500 C 261.394 1.81375 -0.891492 0
M  V30 2501 C 261.715 1.86049 0.584009 0
M  V30 2502 O 260.985 1.34481 1.42449 0
M  V30 2503 H 259.565 0.671708 -0.326828 0
M  V30 2504 H 262.227 1.3256 -1.42877 0
M  V30 2505 H 261.323 2.84612 -1.28071 0
M  V30 2506 N 261.624 0.925811 1.2754 0
M  V30 2507 C 262.872 0.564138 1.94067 0
M  V30 2508 C 263.193 -0.897188 1.73134 0
M  V30 2509 O 262.463 -1.63573 1.07799 0
M  V30 2510 H 261.043 0.205645 0.718136 0
M  V30 2511 H 263.705 1.1778 1.55287 0
M  V30 2512 H 262.801 0.76881 3.02483 0
M  V30 2513 N 263.102 -1.41638 0.69111 0
M  V30 2514 C 264.032 -2.3347 0.037248 0
M  V30 2515 C 265.013 -1.51575 -0.771947 0
M  V30 2516 O 266.198 -1.80126 -0.72582 0
M  V30 2517 C 263.328 -3.35354 -0.903064 0
M  V30 2518 C 262.282 -4.27526 -0.201288 0
M  V30 2519 C 261.608 -5.19747 -1.25565 0
M  V30 2520 C 262.908 -5.13959 0.929689 0
M  V30 2521 H 264.602 -2.88397 0.804227 0
M  V30 2522 H 262.148 -1.38669 0.388189 0
M  V30 2523 H 264.101 -3.98519 -1.36969 0
M  V30 2524 H 262.825 -2.78767 -1.70166 0
M  V30 2525 H 261.484 -3.65779 0.245265 0
M  V30 2526 H 261.132 -4.59479 -2.04666 0
M  V30 2527 H 260.832 -5.8225 -0.791128 0
M  V30 2528 H 262.356 -5.85789 -1.72288 0
M  V30 2529 H 263.77 -5.70718 0.543546 0
M  V30 2530 H 262.167 -5.85379 1.32103 0
M  V30 2531 H 263.237 -4.51389 1.77133 0
M  V30 2532 N 264.58 -0.43555 -1.51462 0
M  V30 2533 C 265.996 -0.0877501 -1.59359 0
M  V30 2534 C 266.196 1.4027 -1.4466 0
M  V30 2535 O 265.252 2.17243 -1.28693 0
M  V30 2536 C 266.565 -0.606264 -2.94525 0
M  V30 2537 C 268.113 -0.566548 -3.0783 0
M  V30 2538 C 268.588 -1.06201 -4.45517 0
M  V30 2539 N 270.079 -1.01992 -4.51832 0
M  V30 2540 C 270.814 -1.37417 -5.5669 0
M  V30 2541 N 270.31 -1.80119 -6.68976 0
M  V30 2542 N 272.103 -1.29245 -5.47039 0
M  V30 2543 H 264.254 -1.40533 -1.59261 0
M  V30 2544 H 266.517 -0.578992 -0.750648 0
M  V30 2545 H 266.223 -1.64901 -3.10645 0
M  V30 2546 H 266.097 -0.0302097 -3.77188 0
M  V30 2547 H 268.484 0.467208 -2.91378 0
M  V30 2548 H 268.565 -1.17898 -2.2701 0
M  V30 2549 H 268.209 -2.09422 -4.62715 0
M  V30 2550 H 268.139 -0.426127 -5.24873 0
M  V30 2551 H 270.63 -0.706308 -3.71241 0
M  V30 2552 H 270.943 -2.05392 -7.45006 0
M  V30 2553 H 269.288 -1.84044 -6.70189 0
M  V30 2554 H 272.479 -0.957522 -4.58202 0
M  V30 2555 H 272.652 -1.57182 -6.28648 0
M  V30 2556 N 266.058 1.56714 -0.166846 0
M  V30 2557 C 267.469 1.83378 0.350646 0
M  V30 2558 C 267.82 1.08646 1.63372 0
M  V30 2559 O 266.945 0.338058 2.13743 0
M  V30 2560 C 267.54 3.32643 0.642963 0
M  V30 2561 C 266.099 3.59818 1.10491 0
M  V30 2562 C 265.246 2.76954 0.138411 0
M  V30 2563 H 268.197 1.53803 -0.391193 0
M  V30 2564 H 268.218 3.49878 1.49551 0
M  V30 2565 H 267.73 3.87007 -0.291055 0
M  V30 2566 H 265.831 3.1086 2.05418 0
M  V30 2567 H 265.944 4.68178 1.01716 0
M  V30 2568 H 264.308 2.4666 0.634911 0
M  V30 2569 H 265.091 3.34097 -0.789549 0
M  V30 2570 N 267.536 -0.106894 1.57237 0
M  V30 2571 C 268.484 -1.14944 2.02215 0
M  V30 2572 C 269.478 -1.42167 0.92114 0
M  V30 2573 O 270.684 -1.41987 1.10634 0
M  V30 2574 H 267.059 -0.387841 0.64427 0
M  V30 2575 H 269.03 -0.743683 2.88984 0
M  V30 2576 C 267.779 -2.4647 2.4525 0
M  V30 2577 H 267.102 -2.26363 3.29545 0
M  V30 2578 H 268.542 -3.17948 2.80508 0
M  V30 2579 C 267.001 -3.09921 1.321 0
M  V30 2580 O 267.531 -3.9651 0.643622 0
M  V30 2581 N 265.737 -2.69986 1.07497 0
M  V30 2582 H 265.284 -1.99667 1.62761 0
M  V30 2583 H 265.242 -3.12769 0.319876 0
M  V30 2584 N 269.014 -1.53014 -0.377408 0
M  V30 2585 C 270.262 -1.6829 -1.11906 0
M  V30 2586 C 270.583 -0.431206 -1.90173 0
M  V30 2587 O 269.853 0.554595 -1.87886 0
M  V30 2588 H 268.433 -0.620371 -0.416112 0
M  V30 2589 H 271.095 -1.90167 -0.426893 0
M  V30 2590 H 270.191 -2.53862 -1.8155 0
M  V30 2591 N 270.492 0.636531 -1.44174 0
M  V30 2592 C 271.424 1.7618 -1.46606 0
M  V30 2593 C 272.437 1.58768 -0.360091 0
M  V30 2594 O 273.626 1.67181 -0.625518 0
M  V30 2595 C 270.726 3.13833 -1.27915 0
M  V30 2596 C 269.899 3.57753 -2.51658 0
M  V30 2597 C 268.958 4.74265 -2.27945 0
M  V30 2598 O 267.984 4.82852 -3.01401 0
M  V30 2599 N 269.186 5.65604 -1.30662 0
M  V30 2600 H 271.951 1.74567 -2.43612 0
M  V30 2601 H 269.512 0.820924 -1.39544 0
M  V30 2602 H 271.504 3.8949 -1.09907 0
M  V30 2603 H 270.074 3.10121 -0.39293 0
M  V30 2604 H 269.294 2.72362 -2.84978 0
M  V30 2605 H 270.582 3.83847 -3.33974 0
M  V30 2606 H 269.98 5.61354 -0.699844 0
M  V30 2607 H 268.537 6.40913 -1.18634 0
M  V30 2608 N 271.97 1.30982 0.876444 0
M  V30 2609 C 273.198 1.23242 1.6619 0
M  V30 2610 C 273.613 -0.203345 1.87702 0
M  V30 2611 O 272.97 -1.13317 1.43057 0
M  V30 2612 C 273.021 1.96623 3.03351 0
M  V30 2613 O 272.742 3.34594 2.82804 0
M  V30 2614 C 274.243 1.95644 3.97792 0
M  V30 2615 H 271.463 0.426126 0.518322 0
M  V30 2616 H 274.007 1.7275 1.09442 0
M  V30 2617 H 272.162 1.50892 3.56806 0
M  V30 2618 H 272.576 3.71873 3.69879 0
M  V30 2619 H 274.05 2.51511 4.91372 0
M  V30 2620 H 274.527 0.937395 4.2908 0
M  V30 2621 H 275.133 2.41225 3.50272 0
M  V30 2622 N 273.449 -1.08991 1.13837 0
M  V30 2623 C 274.396 -2.15748 0.819835 0
M  V30 2624 C 275.366 -1.64636 -0.220026 0
M  V30 2625 O 276.551 -1.90582 -0.0912757 0
M  V30 2626 C 273.691 -3.4382 0.296913 0
M  V30 2627 C 272.804 -4.0881 1.39636 0
M  V30 2628 C 271.939 -5.24655 0.831314 0
M  V30 2629 C 270.978 -5.81575 1.90886 0
M  V30 2630 N 270.115 -6.88774 1.36142 0
M  V30 2631 H 274.955 -2.42338 1.73426 0
M  V30 2632 H 272.492 -1.18935 0.865613 0
M  V30 2633 H 274.45 -4.17193 -0.0244339 0
M  V30 2634 H 273.08 -3.17535 -0.580628 0
M  V30 2635 H 272.132 -3.33258 1.83422 0
M  V30 2636 H 273.444 -4.47141 2.21058 0
M  V30 2637 H 272.598 -6.04942 0.461515 0
M  V30 2638 H 271.337 -4.87698 -0.013932 0
M  V30 2639 H 270.342 -4.99946 2.28767 0
M  V30 2640 H 271.567 -6.20592 2.75758 0
M  V30 2641 H 269.513 -6.53788 0.538254 0
M  V30 2642 H 269.43 -7.25898 2.11208 0
M  V30 2643 H 270.698 -7.72806 1.01933 0
M  V30 2644 N 274.927 -0.932562 -1.27047 0
M  V30 2645 C 276.338 -0.619451 -1.76124 0
M  V30 2646 C 276.689 0.865397 -1.76083 0
M  V30 2647 O 275.814 1.67722 -1.36742 0
M  V30 2648 C 276.409 -1.11771 -3.19832 0
M  V30 2649 C 274.968 -0.855174 -3.66557 0
M  V30 2650 C 274.115 -1.27362 -2.46321 0
M  V30 2651 H 277.066 -1.11181 -1.13245 0
M  V30 2652 H 277.087 -0.46759 -3.77616 0
M  V30 2653 H 276.599 -2.19842 -3.1983 0
M  V30 2654 H 274.7 0.211524 -3.71999 0
M  V30 2655 H 274.813 -1.47613 -4.55793 0
M  V30 2656 H 273.177 -0.692119 -2.45116 0
M  V30 2657 H 273.96 -2.36307 -2.49025 0
M  V30 2658 N 276.405 1.4127 -0.698611 0
M  V30 2659 C 277.335 2.33447 -0.049629 0
M  V30 2660 C 278.316 1.51982 0.763898 0
M  V30 2661 O 279.501 1.80509 0.716257 0
M  V30 2662 C 276.631 3.35828 0.885267 0
M  V30 2663 C 275.585 4.27627 0.178613 0
M  V30 2664 C 274.911 5.20406 1.22807 0
M  V30 2665 C 276.211 5.13459 -0.956933 0
M  V30 2666 H 277.905 2.87966 -0.81951 0
M  V30 2667 H 275.451 1.38461 -0.395538 0
M  V30 2668 H 277.404 3.9924 1.34854 0
M  V30 2669 H 276.128 2.79666 1.68685 0
M  V30 2670 H 274.787 3.65643 -0.26466 0
M  V30 2671 H 274.435 4.60558 2.02226 0
M  V30 2672 H 274.135 5.82661 0.760239 0
M  V30 2673 H 275.659 5.86695 1.69179 0
M  V30 2674 H 277.073 5.70421 -0.573805 0
M  V30 2675 H 275.47 5.8467 -1.35205 0
M  V30 2676 H 276.54 4.50443 -1.79524 0
M  V30 2677 N 277.883 0.443576 1.51229 0
M  V30 2678 C 279.294 -0.0180867 1.86691 0
M  V30 2679 C 279.645 -1.41384 1.36033 0
M  V30 2680 O 278.77 -2.04291 0.713722 0
M  V30 2681 C 279.365 -0.039597 3.38777 0
M  V30 2682 C 277.924 -0.445692 3.73752 0
M  V30 2683 C 277.071 0.357584 2.74985 0
M  V30 2684 H 280.022 0.659138 1.44364 0
M  V30 2685 H 280.043 -0.847761 3.70936 0
M  V30 2686 H 279.555 0.976382 3.75617 0
M  V30 2687 H 277.656 -1.46704 3.42503 0
M  V30 2688 H 277.769 -0.166155 4.78812 0
M  V30 2689 H 276.133 -0.184973 2.54027 0
M  V30 2690 H 276.916 1.37256 3.14668 0
M  V30 2691 N 279.361 -1.56624 0.175154 0
M  V30 2692 C 280.324 -2.16934 -0.739738 0
M  V30 2693 C 281.324 -1.11842 -1.15533 0
M  V30 2694 O 282.514 -1.37335 -1.07167 0
M  V30 2695 C 279.646 -2.75531 -2.00738 0
M  V30 2696 H 280.839 -2.99131 -0.214639 0
M  V30 2697 H 278.392 -1.56123 -0.0744197 0
M  V30 2698 H 279.127 -1.97078 -2.57548 0
M  V30 2699 H 278.912 -3.52444 -1.71831 0
M  V30 2700 H 280.402 -3.21904 -2.66021 0
M  V30 2701 N 280.839 0.0985539 -1.57292 0
M  V30 2702 C 281.769 1.12064 -2.04851 0
M  V30 2703 C 282.75 1.41981 -0.936767 0
M  V30 2704 O 283.935 1.52071 -1.20781 0
M  V30 2705 C 281.065 2.44144 -2.47004 0
M  V30 2706 C 280.019 2.28643 -3.6181 0
M  V30 2707 C 279.345 3.65869 -3.89929 0
M  V30 2708 C 280.645 1.72986 -4.92822 0
M  V30 2709 H 282.339 0.724979 -2.9049 0
M  V30 2710 H 279.885 0.34729 -1.39749 0
M  V30 2711 H 281.838 3.15914 -2.78884 0
M  V30 2712 H 280.562 2.85639 -1.5836 0
M  V30 2713 H 279.221 1.59318 -3.30172 0
M  V30 2714 H 278.869 4.04885 -2.98458 0
M  V30 2715 H 278.569 3.56344 -4.67218 0
M  V30 2716 H 280.093 4.39112 -4.2428 0
M  V30 2717 H 281.507 2.34593 -5.23105 0
M  V30 2718 H 279.904 1.74229 -5.74251 0
M  V30 2719 H 280.974 0.689007 -4.7998 0
M  V30 2720 N 282.317 1.53212 0.369288 0
M  V30 2721 C 283.264 1.79388 1.45219 0
M  V30 2722 C 284.234 0.638059 1.53356 0
M  V30 2723 O 285.419 0.879852 1.69302 0
M  V30 2724 C 282.559 1.98623 2.82211 0
M  V30 2725 C 281.672 3.26337 2.8307 0
M  V30 2726 C 280.807 3.35779 4.11614 0
M  V30 2727 C 279.846 4.5754 4.06601 0
M  V30 2728 N 278.983 4.64155 5.26787 0
M  V30 2729 H 283.823 2.71794 1.22198 0
M  V30 2730 H 281.36 1.34642 0.592444 0
M  V30 2731 H 283.318 2.07761 3.61789 0
M  V30 2732 H 281.948 1.09558 3.03639 0
M  V30 2733 H 281 3.26171 1.95747 0
M  V30 2734 H 282.312 4.15988 2.75237 0
M  V30 2735 H 281.466 3.44208 4.99606 0
M  V30 2736 H 280.205 2.44137 4.22195 0
M  V30 2737 H 279.21 4.49215 3.16996 0
M  V30 2738 H 280.435 5.50519 3.97625 0
M  V30 2739 H 278.381 3.75413 5.3796 0
M  V30 2740 H 278.298 5.47706 5.21109 0
M  V30 2741 H 279.566 4.76863 6.16621 0
M  V30 2742 N 283.795 -0.628877 1.44509 0
M  V30 2743 C 284.725 -1.75187 1.54376 0
M  V30 2744 C 285.706 -1.65411 0.396618 0
M  V30 2745 O 286.891 -1.84137 0.617031 0
M  V30 2746 C 284.021 -3.13725 1.48976 0
M  V30 2747 C 282.975 -3.38291 2.62189 0
M  V30 2748 C 282.301 -4.76883 2.41841 0
M  V30 2749 C 283.601 -3.30632 4.04326 0
M  V30 2750 H 285.295 -1.67187 2.48373 0
M  V30 2751 H 282.841 -0.802909 1.19538 0
M  V30 2752 H 284.794 -3.92064 1.54478 0
M  V30 2753 H 283.518 -3.22515 0.514961 0
M  V30 2754 H 282.177 -2.62334 2.56079 0
M  V30 2755 H 281.825 -4.82378 1.42548 0
M  V30 2756 H 281.525 -4.94278 3.17747 0
M  V30 2757 H 283.049 -5.57449 2.49165 0
M  V30 2758 H 284.463 -3.98873 4.11793 0
M  V30 2759 H 282.86 -3.59561 4.80454 0
M  V30 2760 H 283.93 -2.28404 4.27738 0
M  V30 2761 N 285.273 -1.31445 -0.869486 0
M  V30 2762 C 286.236 -1.19094 -1.9583 0
M  V30 2763 C 287.236 -0.117906 -1.60367 0
M  V30 2764 O 288.426 -0.367208 -1.70286 0
M  V30 2765 C 285.558 -0.828165 -3.30688 0
M  V30 2766 H 286.751 -2.15842 -2.08212 0
M  V30 2767 H 284.304 -1.15063 -1.05784 0
M  V30 2768 H 285.039 0.138142 -3.24006 0
M  V30 2769 H 284.824 -1.6038 -3.578 0
M  V30 2770 H 286.314 -0.765658 -4.10521 0
M  V30 2771 N 286.751 1.08385 -1.14413 0
M  V30 2772 C 287.681 2.17321 -0.854044 0
M  V30 2773 C 288.662 1.69024 0.191049 0
M  V30 2774 O 289.847 1.94141 0.0476779 0
M  V30 2775 C 286.977 3.45719 -0.330983 0
M  V30 2776 C 285.931 4.07409 -1.31155 0
M  V30 2777 C 285.257 5.30762 -0.64778 0
M  V30 2778 C 286.557 4.48665 -2.67388 0
M  V30 2779 H 288.251 2.41845 -1.76498 0
M  V30 2780 H 285.797 1.16233 -0.850051 0
M  V30 2781 H 287.75 4.21241 -0.115645 0
M  V30 2782 H 286.474 3.2075 0.615381 0
M  V30 2783 H 285.133 3.33919 -1.51306 0
M  V30 2784 H 284.781 5.02078 0.304398 0
M  V30 2785 H 284.481 5.72992 -1.30207 0
M  V30 2786 H 286.005 6.08998 -0.441972 0
M  V30 2787 H 287.419 5.15364 -2.51143 0
M  V30 2788 H 285.816 5.01814 -3.29093 0
M  V30 2789 H 286.886 3.60543 -3.24248 0
M  V30 2790 N 288.23 0.939286 1.26551 0
M  V30 2791 C 289.14 0.453432 2.30176 0
M  V30 2792 C 290.156 -0.471649 1.67486 0
M  V30 2793 O 291.332 -0.35164 1.98306 0
M  V30 2794 C 288.397 -0.275326 3.45605 0
M  V30 2795 C 287.458 0.686084 4.23782 0
M  V30 2796 C 286.691 -0.00798994 5.33699 0
M  V30 2797 O 286.914 -1.22528 5.57085 0
M  V30 2798 O 285.848 0.669746 5.98162 0
M  V30 2799 H 289.674 1.31416 2.73795 0
M  V30 2800 H 287.259 0.705095 1.31715 0
M  V30 2801 H 289.141 -0.685911 4.1578 0
M  V30 2802 H 287.816 -1.11147 3.0402 0
M  V30 2803 H 286.723 1.14658 3.56096 0
M  V30 2804 H 288.056 1.48979 4.69112 0
M  V30 2805 N 289.708 -1.40897 0.706093 0
M  V30 2806 C 290.938 -2.05075 0.250523 0
M  V30 2807 C 291.346 -1.53275 -1.10921 0
M  V30 2808 O 290.689 -0.680281 -1.7064 0
M  V30 2809 C 290.751 -3.59219 0.142178 0
M  V30 2810 C 290.415 -4.33864 1.43566 0
M  V30 2811 C 291.412 -4.62448 2.37566 0
M  V30 2812 C 289.097 -4.72946 1.69195 0
M  V30 2813 C 291.091 -5.29088 3.5545 0
M  V30 2814 C 288.778 -5.3932 2.87362 0
M  V30 2815 C 289.776 -5.6732 3.80312 0
M  V30 2816 O 289.464 -6.32325 4.96408 0
M  V30 2817 H 289.196 -0.666645 0.112074 0
M  V30 2818 H 291.75 -1.81467 0.962239 0
M  V30 2819 H 289.98 -3.81609 -0.6254 0
M  V30 2820 H 291.669 -4.0495 -0.277584 0
M  V30 2821 H 292.435 -4.32727 2.19027 0
M  V30 2822 H 288.314 -4.50527 0.977042 0
M  V30 2823 H 291.858 -5.50859 4.28018 0
M  V30 2824 H 287.755 -5.68461 3.05814 0
M  V30 2825 H 288.523 -6.50821 4.9636 0
M  V30 2826 N 291.186 -0.45159 -1.50991 0
M  V30 2827 C 292.435 0.111653 -2.01391 0
M  V30 2828 C 292.748 1.42529 -1.33959 0
M  V30 2829 O 293.954 2.07232 -1.75405 0
M  V30 2830 C 292.41 0.249514 -3.59034 0
M  V30 2831 C 292.018 -1.05453 -4.35412 0
M  V30 2832 C 293.762 0.765762 -4.17536 0
M  V30 2833 C 291.669 -0.881529 -5.84793 0
M  V30 2834 H 290.599 0.0455022 -0.752626 0
M  V30 2835 H 293.25 -0.583524 -1.73975 0
M  V30 2836 H 291.632 1.00803 -3.82955 0
M  V30 2837 H 292.806 -1.82248 -4.23229 0
M  V30 2838 H 291.121 -1.50039 -3.88429 0
M  V30 2839 H 293.718 0.911913 -5.26866 0
M  V30 2840 H 294.061 1.75201 -3.77638 0
M  V30 2841 H 294.594 0.0651744 -3.97747 0
M  V30 2842 H 291.333 -1.84057 -6.29129 0
M  V30 2843 H 290.853 -0.153625 -5.99603 0
M  V30 2844 H 292.532 -0.540363 -6.4474 0
M  V30 2845 N 292.664 1.56529 -0.183458 0
M  V30 2846 C 293.91 1.97537 0.459036 0
M  V30 2847 C 294.243 1.06989 1.62071 0
M  V30 2848 O 293.518 0.11948 1.94133 0
M  V30 2849 C 293.801 3.47874 0.930368 0
M  V30 2850 C 293.654 4.492 -0.232317 0
M  V30 2851 C 294.973 4.01612 1.79989 0
M  V30 2852 H 292.092 0.718204 0.165383 0
M  V30 2853 H 294.734 1.88042 -0.272038 0
M  V30 2854 H 292.884 3.56095 1.55333 0
M  V30 2855 H 294.556 4.53027 -0.86972 0
M  V30 2856 H 292.799 4.24657 -0.885928 0
M  V30 2857 H 293.47 5.51823 0.139796 0
M  V30 2858 H 295.946 3.96097 1.27461 0
M  V30 2859 H 294.822 5.07195 2.09867 0
M  V30 2860 H 295.083 3.46163 2.74998 0
M  V30 2861 N 294.142 -0.090211 1.57342 0
M  V30 2862 C 295.553 -0.644173 1.75235 0
M  V30 2863 C 295.904 -1.78865 0.806335 0
M  V30 2864 O 295.029 -2.16395 -0.0140128 0
M  V30 2865 C 295.624 -1.17532 3.1776 0
M  V30 2866 C 294.183 -1.67531 3.37061 0
M  V30 2867 C 293.33 -0.58693 2.71017 0
M  V30 2868 H 296.281 0.135884 1.58117 0
M  V30 2869 H 296.302 -2.04455 3.20902 0
M  V30 2870 H 295.814 -0.342138 3.86589 0
M  V30 2871 H 293.915 -2.53234 2.73319 0
M  V30 2872 H 294.028 -1.76493 4.45406 0
M  V30 2873 H 292.392 -1.02756 2.33052 0
M  V30 2874 H 293.175 0.235758 3.4249 0
M  V30 2875 N 295.62 -1.53406 -0.361157 0
M  V30 2876 C 296.86 -1.71507 -1.11197 0
M  V30 2877 C 297.224 -0.459337 -1.86425 0
M  V30 2878 O 298.425 -0.517102 -2.63779 0
M  V30 2879 C 296.696 -2.93307 -2.0422 0
M  V30 2880 S 298.255 -3.32135 -2.86761 0
M  V30 2881 H 295.073 -0.603448 -0.375995 0
M  V30 2882 H 297.675 -1.91516 -0.392642 0
M  V30 2883 H 296.379 -3.82891 -1.47724 0
M  V30 2884 H 295.91 -2.75712 -2.80618 0
M  V30 2885 H 297.925 -2.84493 -4.06544 0
M  V30 2886 N 297.098 0.621204 -1.44841 0
M  V30 2887 C 298.031 1.7459 -1.46947 0
M  V30 2888 C 299.009 1.59273 -0.327238 0
M  V30 2889 O 300.193 1.81021 -0.525706 0
M  V30 2890 C 297.32 3.12274 -1.31159 0
M  V30 2891 C 296.366 3.46216 -2.49072 0
M  V30 2892 S 297.199 3.4258 -4.11581 0
M  V30 2893 C 298.355 4.82867 -3.98233 0
M  V30 2894 H 298.588 1.72538 -2.42111 0
M  V30 2895 H 296.121 0.796683 -1.32259 0
M  V30 2896 H 298.079 3.91722 -1.22737 0
M  V30 2897 H 296.74 3.11855 -0.374885 0
M  V30 2898 H 295.933 4.4643 -2.33915 0
M  V30 2899 H 295.535 2.74253 -2.54286 0
M  V30 2900 H 297.827 5.7234 -3.62537 0
M  V30 2901 H 298.77 5.0308 -4.98313 0
M  V30 2902 H 299.178 4.57908 -3.30121 0
M  V30 2903 N 298.576 1.31904 0.862503 0
M  V30 2904 C 299.524 1.20125 1.9918 0
M  V30 2905 C 300.518 0.107824 1.69056 0
M  V30 2906 O 301.724 0.270223 1.7796 0
M  V30 2907 H 298.099 0.372148 0.65346 0
M  V30 2908 H 300.07 2.15652 2.06244 0
M  V30 2909 C 298.819 0.933099 3.34946 0
M  V30 2910 H 298.142 1.76664 3.5865 0
M  V30 2911 H 299.582 0.890892 4.14535 0
M  V30 2912 C 298.041 -0.364172 3.34926 0
M  V30 2913 O 298.571 -1.37858 3.77304 0
M  V30 2914 N 296.777 -0.383362 2.8806 0
M  V30 2915 H 296.324 0.442651 2.53768 0
M  V30 2916 H 296.282 -1.25123 2.8843 0
M  V30 2917 N 300.054 -1.07777 1.14986 0
M  V30 2918 C 301.001 -2.14867 0.842672 0
M  V30 2919 C 301.971 -1.6486 -0.202552 0
M  V30 2920 O 303.156 -1.90668 -0.0710568 0
M  V30 2921 C 300.296 -3.43486 0.333363 0
M  V30 2922 C 299.409 -4.07306 1.43965 0
M  V30 2923 C 298.544 -5.23744 0.886914 0
M  V30 2924 C 297.583 -5.79517 1.97043 0
M  V30 2925 N 296.72 -6.87291 1.4344 0
M  V30 2926 H 301.56 -2.40485 1.75986 0
M  V30 2927 H 299.097 -1.1801 0.878179 0
M  V30 2928 H 301.055 -4.17195 0.0198163 0
M  V30 2929 H 299.685 -3.18133 -0.546916 0
M  V30 2930 H 298.737 -3.31293 1.86946 0
M  V30 2931 H 300.049 -4.44771 2.25788 0
M  V30 2932 H 299.203 -6.04419 0.525651 0
M  V30 2933 H 297.942 -4.87685 0.0377957 0
M  V30 2934 H 296.947 -4.97491 2.34057 0
M  V30 2935 H 298.172 -6.17632 2.82325 0
M  V30 2936 H 296.118 -6.5318 0.607567 0
M  V30 2937 H 296.035 -7.23617 2.18895 0
M  V30 2938 H 297.303 -7.71682 1.10124 0
M  V30 2939 N 301.532 -0.945985 -1.26051 0
M  V30 2940 C 302.482 -0.430164 -2.23905 0
M  V30 2941 C 303.466 0.47579 -1.53704 0
M  V30 2942 O 304.658 0.310252 -1.7426 0
M  V30 2943 C 301.787 0.298957 -3.41996 0
M  V30 2944 C 300.873 -0.624566 -4.19476 0
M  V30 2945 N 301.264 -1.75245 -4.74471 0
M  V30 2946 C 299.562 -0.431082 -4.43912 0
M  V30 2947 C 300.263 -2.32834 -5.3307 0
M  V30 2948 N 299.239 -1.61583 -5.1903 0
M  V30 2949 H 303.041 -1.29107 -2.64024 0
M  V30 2950 H 300.555 -0.802428 -1.41191 0
M  V30 2951 H 302.552 0.685565 -4.11225 0
M  V30 2952 H 301.212 1.15657 -3.03403 0
M  V30 2953 H 302.223 -2.13449 -4.71868 0
M  V30 2954 H 298.9 0.384364 -4.15727 0
M  V30 2955 H 300.29 -3.27893 -5.86461 0
M  V30 2956 N 303.011 1.40521 -0.713556 0
M  V30 2957 C 304.259 2.00527 -0.251692 0
M  V30 2958 C 304.58 1.56857 1.15848 0
M  V30 2959 O 303.85 0.807127 1.785 0
M  V30 2960 H 302.43 0.741551 -0.0900646 0
M  V30 2961 H 305.092 1.71887 -0.918733 0
M  V30 2962 H 304.188 3.10813 -0.283192 0
M  V30 2963 N 304.489 0.459591 1.5075 0
M  V30 2964 C 305.738 -0.100971 2.01447 0
M  V30 2965 C 306.051 -1.41816 1.34713 0
M  V30 2966 O 307.257 -2.06299 1.76502 0
M  V30 2967 C 305.713 -0.23047 3.59161 0
M  V30 2968 C 305.321 1.0776 4.34847 0
M  V30 2969 C 307.065 -0.743608 4.17936 0
M  V30 2970 C 304.972 0.91253 5.84317 0
M  V30 2971 H 303.902 -0.0415102 0.752856 0
M  V30 2972 H 306.553 0.592742 1.73663 0
M  V30 2973 H 304.935 -0.987703 3.83485 0
M  V30 2974 H 306.109 1.8449 4.22256 0
M  V30 2975 H 304.424 1.52097 3.87628 0
M  V30 2976 H 307.021 -0.883959 5.27343 0
M  V30 2977 H 307.364 -1.73196 3.78562 0
M  V30 2978 H 307.897 -0.04408 3.97776 0
M  V30 2979 H 304.636 1.87391 6.28144 0
M  V30 2980 H 304.156 0.185422 5.99513 0
M  V30 2981 H 305.835 0.574547 6.44444 0
M  V30 2982 N 305.967 -1.56429 0.191757 0
M  V30 2983 C 307.207 -1.99383 -0.450099 0
M  V30 2984 C 307.571 -1.07581 -1.59029 0
M  V30 2985 O 308.772 -1.39758 -2.29611 0
M  V30 2986 C 307.043 -3.45841 -0.901611 0
M  V30 2987 S 308.602 -4.10822 -1.54177 0
M  V30 2988 H 305.42 -0.696253 -0.144057 0
M  V30 2989 H 308.022 -1.93276 0.294036 0
M  V30 2990 H 306.726 -4.10354 -0.0616596 0
M  V30 2991 H 306.257 -3.55757 -1.67929 0
M  V30 2992 H 308.272 -4.07553 -2.83046 0
M  V30 2993 N 307.445 0.0818655 -1.57387 0
M  V30 2994 C 308.691 0.784074 -1.8703 0
M  V30 2995 C 309.024 1.77729 -0.782689 0
M  V30 2996 O 308.299 1.93384 0.208051 0
M  V30 2997 C 308.582 1.50105 -3.27323 0
M  V30 2998 C 308.435 0.524925 -4.46727 0
M  V30 2999 C 309.754 2.44843 -3.65705 0
M  V30 3000 H 306.873 0.283582 -0.680257 0
M  V30 3001 H 309.515 0.0474352 -1.89941 0
M  V30 3002 H 307.665 2.12897 -3.24972 0
M  V30 3003 H 309.337 -0.0970111 -4.61198 0
M  V30 3004 H 307.58 -0.160606 -4.33503 0
M  V30 3005 H 308.251 1.064 -5.41648 0
M  V30 3006 H 310.727 1.92135 -3.69085 0
M  V30 3007 H 309.603 2.92018 -4.64776 0
M  V30 3008 H 309.864 3.29197 -2.95096 0
M  V30 3009 N 308.923 1.53595 0.353017 0
M  V30 3010 C 310.169 1.70638 1.09593 0
M  V30 3011 C 310.502 0.463286 1.88593 0
M  V30 3012 O 309.777 -0.539597 1.86865 0
M  V30 3013 C 310.06 2.96406 2.04489 0
M  V30 3014 C 309.913 4.30901 1.29014 0
M  V30 3015 C 311.232 3.17812 3.0444 0
M  V30 3016 H 308.351 0.620913 0.397034 0
M  V30 3017 H 310.993 1.86254 0.375446 0
M  V30 3018 H 309.143 2.83223 2.65927 0
M  V30 3019 H 310.815 4.55917 0.702638 0
M  V30 3020 H 309.058 4.29741 0.592071 0
M  V30 3021 H 309.729 5.1506 1.98537 0
M  V30 3022 H 312.205 3.30263 2.53112 0
M  V30 3023 H 311.081 4.07223 3.6805 0
M  V30 3024 H 311.342 2.33669 3.75301 0
M  V30 3025 N 310.401 -0.613514 1.45168 0
M  V30 3026 C 311.678 -1.37263 1.39349 0
M  V30 3027 C 312.058 -2.11012 0.0610848 0
M  V30 3028 O 311.406 -2.07502 -0.956825 0
M  V30 3029 C 311.616 -2.3244 2.60332 0
M  V30 3030 C 312.964 -2.9523 3.05163 0
M  V30 3031 O 313.988 -2.42762 2.60663 0
M  V30 3032 O 312.847 -3.90454 3.82372 0
M  V30 3033 H 309.941 -0.615188 0.552696 0
M  V30 3034 H 312.487 -0.637097 1.57287 0
M  V30 3035 H 311.259 -1.77164 3.48896 0
M  V30 3036 H 310.882 -3.13383 2.44698 0
M  V30 3037 N 311.879 -1.3236 -0.855495 0
M  V30 3038 C 313.156 -1.13491 -1.59309 0
M  V30 3039 C 313.536 0.30503 -2.08885 0
M  V30 3040 O 312.884 1.30151 -1.87811 0
M  V30 3041 C 313.094 -2.16176 -2.73987 0
M  V30 3042 C 314.442 -2.49463 -3.43589 0
M  V30 3043 O 315.466 -2.14715 -2.84211 0
M  V30 3044 O 314.325 -3.09027 -4.50738 0
M  V30 3045 H 311.419 -0.437887 -0.701559 0
M  V30 3046 H 313.965 -1.43887 -0.899696 0
M  V30 3047 H 312.737 -3.1297 -2.34873 0
M  V30 3048 H 312.36 -1.86769 -3.51003 0
M  V30 3049 N 313.357 1.07166 -1.15556 0
M  V30 3050 C 314.604 1.79798 -0.931604 0
M  V30 3051 C 314.932 1.8682 0.54115 0
M  V30 3052 O 314.187 1.34942 1.41736 0
M  V30 3053 C 314.486 3.24707 -1.49332 0
M  V30 3054 C 314.152 3.37781 -2.98688 0
M  V30 3055 C 312.814 3.41057 -3.39461 0
M  V30 3056 C 315.166 3.40424 -3.94665 0
M  V30 3057 C 312.494 3.4458 -4.74849 0
M  V30 3058 C 314.846 3.45485 -5.29927 0
M  V30 3059 C 313.51 3.47039 -5.70193 0
M  V30 3060 H 312.78 0.657928 -0.340898 0
M  V30 3061 H 315.427 1.26091 -1.44129 0
M  V30 3062 H 313.732 3.81208 -0.904859 0
M  V30 3063 H 315.429 3.79486 -1.29582 0
M  V30 3064 H 312.019 3.35932 -2.66172 0
M  V30 3065 H 316.203 3.37113 -3.64237 0
M  V30 3066 H 311.459 3.44083 -5.05388 0
M  V30 3067 H 315.633 3.46476 -6.04092 0
M  V30 3068 H 313.26 3.49522 -6.75084 0
M  V30 3069 N 314.835 0.952656 1.25548 0
M  V30 3070 C 315.765 0.489287 2.28316 0
M  V30 3071 C 316.746 -0.463359 1.63667 0
M  V30 3072 O 317.931 -0.36274 1.90782 0
M  V30 3073 C 315.061 -0.235603 3.465 0
M  V30 3074 C 314.015 0.631593 4.23314 0
M  V30 3075 C 313.341 -0.223923 5.34231 0
M  V30 3076 C 314.641 1.90871 4.86174 0
M  V30 3077 H 316.335 1.34822 2.67326 0
M  V30 3078 H 313.881 0.649728 1.28509 0
M  V30 3079 H 315.834 -0.570882 4.17515 0
M  V30 3080 H 314.558 -1.12877 3.06474 0
M  V30 3081 H 313.217 0.949929 3.54079 0
M  V30 3082 H 312.865 -1.11678 4.90446 0
M  V30 3083 H 312.565 0.35299 5.86539 0
M  V30 3084 H 314.089 -0.554214 6.0808 0
M  V30 3085 H 315.503 1.63997 5.49343 0
M  V30 3086 H 313.9 2.43112 5.4865 0
M  V30 3087 H 314.97 2.61304 4.08471 0
M  V30 3088 N 316.313 -1.40141 0.720998 0
M  V30 3089 C 317.561 -2.0039 0.262323 0
M  V30 3090 C 317.882 -1.57469 -1.15015 0
M  V30 3091 O 317.152 -0.816582 -1.78069 0
M  V30 3092 H 315.732 -0.741063 0.093996 0
M  V30 3093 H 318.394 -1.71398 0.927835 0
M  V30 3094 H 317.49 -3.10658 0.299671 0
M  V30 3095 N 317.792 -0.46758 -1.50504 0
M  V30 3096 C 318.739 0.328413 -2.28452 0
M  V30 3097 C 319.709 0.990313 -1.33349 0
M  V30 3098 O 320.894 1.00343 -1.62284 0
M  V30 3099 C 318.034 1.40648 -3.15138 0
M  V30 3100 C 317.147 0.759709 -4.25267 0
M  V30 3101 C 316.282 1.81537 -4.99217 0
M  V30 3102 C 315.321 1.14866 -6.01226 0
M  V30 3103 N 314.458 2.14702 -6.68467 0
M  V30 3104 H 319.298 -0.342603 -2.96024 0
M  V30 3105 H 316.835 -0.180801 -1.45985 0
M  V30 3106 H 318.793 2.04315 -3.63746 0
M  V30 3107 H 317.423 2.04671 -2.49619 0
M  V30 3108 H 316.475 0.0105671 -3.80399 0
M  V30 3109 H 317.787 0.233243 -4.98254 0
M  V30 3110 H 316.941 2.52793 -5.51526 0
M  V30 3111 H 315.68 2.37564 -4.25928 0
M  V30 3112 H 314.685 0.42171 -5.4818 0
M  V30 3113 H 315.91 0.595334 -6.76485 0
M  V30 3114 H 313.856 2.69752 -5.97972 0
M  V30 3115 H 313.773 1.6703 -7.37317 0
M  V30 3116 H 315.041 2.85348 -7.25394 0
M  V30 3117 N 319.27 1.56325 -0.20005 0
M  V30 3118 C 320.18 2.22931 0.730668 0
M  V30 3119 C 321.196 1.22997 1.23076 0
M  V30 3120 O 322.372 1.55748 1.27689 0
M  V30 3121 C 319.437 2.87948 1.93098 0
M  V30 3122 C 318.498 4.03166 1.47497 0
M  V30 3123 C 317.731 4.65073 2.61807 0
M  V30 3124 O 317.954 4.25913 3.79413 0
M  V30 3125 O 316.888 5.54452 2.34237 0
M  V30 3126 H 320.714 3.03084 0.193391 0
M  V30 3127 H 318.299 1.49371 0.0294621 0
M  V30 3128 H 320.181 3.29063 2.6324 0
M  V30 3129 H 318.856 2.10771 2.45677 0
M  V30 3130 H 317.763 3.66664 0.742201 0
M  V30 3131 H 319.096 4.82022 0.995796 0
M  V30 3132 N 320.748 -0.0735177 1.57428 0
M  V30 3133 C 321.976 -0.785969 1.9139 0
M  V30 3134 C 322.391 -1.71207 0.795847 0
M  V30 3135 O 321.748 -1.81033 -0.230915 0
M  V30 3136 C 321.799 -1.58107 3.25091 0
M  V30 3137 O 321.52 -0.6922 4.32597 0
M  V30 3138 C 323.021 -2.39467 3.73055 0
M  V30 3139 H 320.241 -0.223558 0.632663 0
M  V30 3140 H 322.785 -0.044302 2.04452 0
M  V30 3141 H 320.94 -2.27503 3.13562 0
M  V30 3142 H 321.354 -1.24504 5.09508 0
M  V30 3143 H 322.828 -2.90716 4.69242 0
M  V30 3144 H 323.305 -3.18913 3.01979 0
M  V30 3145 H 323.911 -1.7523 3.87523 0
M  V30 3146 N 322.226 -1.5378 -0.344866 0
M  V30 3147 C 323.474 -1.70625 -1.08311 0
M  V30 3148 C 323.795 -0.471447 -1.89215 0
M  V30 3149 O 323.065 0.514616 -1.8902 0
M  V30 3150 H 321.645 -0.629058 -0.402859 0
M  V30 3151 H 324.307 -1.9103 -0.386459 0
M  V30 3152 H 323.403 -2.57656 -1.76124 0
M  V30 3153 N 323.704 0.605807 -1.45491 0
M  V30 3154 C 324.636 1.73031 -1.5031 0
M  V30 3155 C 325.649 1.57968 -0.393687 0
M  V30 3156 O 326.838 1.65817 -0.660839 0
M  V30 3157 C 323.938 3.11049 -1.34543 0
M  V30 3158 C 323.111 3.52334 -2.59189 0
M  V30 3159 C 322.17 4.69323 -2.37954 0
M  V30 3160 O 321.196 4.7635 -3.11575 0
M  V30 3161 N 322.398 5.62705 -1.4263 0
M  V30 3162 H 325.163 1.6936 -2.4726 0
M  V30 3163 H 322.724 0.79114 -1.41254 0
M  V30 3164 H 324.716 3.87071 -1.18144 0
M  V30 3165 H 323.286 3.09217 -0.458623 0
M  V30 3166 H 322.506 2.66256 -2.90691 0
M  V30 3167 H 323.794 3.76677 -3.42041 0
M  V30 3168 H 323.192 5.59744 -0.818758 0
M  V30 3169 H 321.749 6.38252 -1.32202 0
M  V30 3170 N 325.182 1.32811 0.848464 0
M  V30 3171 C 326.114 1.18095 1.96433 0
M  V30 3172 C 327.127 0.114354 1.62398 0
M  V30 3173 O 328.316 0.363892 1.74751 0
M  V30 3174 C 325.416 0.786798 3.2964 0
M  V30 3175 C 324.589 1.943 3.91875 0
M  V30 3176 C 323.648 1.53138 5.03423 0
M  V30 3177 O 322.674 2.24432 5.23086 0
M  V30 3178 N 323.876 0.430915 5.78898 0
M  V30 3179 H 326.641 2.14218 2.09597 0
M  V30 3180 H 324.202 1.2543 1.02367 0
M  V30 3181 H 326.194 0.493715 4.01677 0
M  V30 3182 H 324.764 -0.0834541 3.12489 0
M  V30 3183 H 323.984 2.40224 3.12547 0
M  V30 3184 H 325.272 2.71689 4.30189 0
M  V30 3185 H 324.67 -0.162333 5.65467 0
M  V30 3186 H 323.227 0.197466 6.51501 0
M  V30 3187 N 326.66 -1.06551 1.16123 0
M  V30 3188 C 327.909 -1.78687 0.935622 0
M  V30 3189 C 328.222 -1.88056 -0.538001 0
M  V30 3190 O 329.428 -2.56794 -0.88143 0
M  V30 3191 C 327.884 -3.21143 1.62466 0
M  V30 3192 C 327.492 -3.19949 3.13587 0
M  V30 3193 C 329.236 -3.9783 1.48092 0
M  V30 3194 C 327.143 -4.57108 3.75241 0
M  V30 3195 H 326.073 -0.669712 0.346412 0
M  V30 3196 H 328.724 -1.19534 1.39226 0
M  V30 3197 H 327.106 -3.80539 1.09572 0
M  V30 3198 H 328.28 -2.70151 3.73303 0
M  V30 3199 H 326.595 -2.5676 3.27816 0
M  V30 3200 H 329.192 -4.99217 1.91538 0
M  V30 3201 H 329.535 -4.14078 0.429507 0
M  V30 3202 H 330.068 -3.4495 1.98127 0
M  V30 3203 H 326.807 -4.46065 4.80319 0
M  V30 3204 H 326.327 -5.07111 3.20309 0
M  V30 3205 H 328.006 -5.26069 3.76644 0
M  V30 3206 N 328.138 -0.959301 -1.25041 0
M  V30 3207 C 329.386 -0.615393 -1.92503 0
M  V30 3208 C 329.707 0.850969 -1.75452 0
M  V30 3209 O 328.977 1.60658 -1.12098 0
M  V30 3210 H 327.557 -0.224613 -0.712431 0
M  V30 3211 H 330.219 -1.21855 -1.5211 0
M  V30 3212 H 329.315 -0.848738 -3.00338 0
M  V30 3213 N 329.616 1.39756 -0.72842 0
M  V30 3214 C 330.893 1.94574 -0.200079 0
M  V30 3215 C 331.273 1.66569 1.29684 0
M  V30 3216 O 330.621 0.990326 2.05924 0
M  V30 3217 C 330.831 3.45004 -0.526608 0
M  V30 3218 C 332.179 4.21965 -0.472318 0
M  V30 3219 O 333.203 3.53173 -0.463413 0
M  V30 3220 O 332.062 5.44552 -0.461075 0
M  V30 3221 H 329.156 0.826289 -0.0342851 0
M  V30 3222 H 331.702 1.49293 -0.806829 0
M  V30 3223 H 330.474 3.58796 -1.56144 0
M  V30 3224 H 330.097 3.97449 0.109449 0
M  V30 3225 N 331.094 0.475555 1.50254 0
M  V30 3226 C 332.004 -0.321501 2.32387 0
M  V30 3227 C 333.02 -0.991755 1.42969 0
M  V30 3228 O 334.196 -0.978747 1.76018 0
M  V30 3229 C 331.261 -1.38667 3.17762 0
M  V30 3230 C 330.322 -0.732538 4.23004 0
M  V30 3231 C 329.555 -1.74695 5.04299 0
M  V30 3232 O 329.778 -2.97399 4.86734 0
M  V30 3233 O 328.712 -1.31631 5.8733 0
M  V30 3234 H 332.538 0.350071 3.01676 0
M  V30 3235 H 330.123 0.237321 1.47503 0
M  V30 3236 H 332.005 -2.00354 3.70724 0
M  V30 3237 H 330.68 -2.04163 2.51196 0
M  V30 3238 H 329.587 -0.0765902 3.74022 0
M  V30 3239 H 330.92 -0.120452 4.92053 0
M  V30 3240 N 332.573 -1.56217 0.208337 0
M  V30 3241 C 333.819 -1.98242 -0.427552 0
M  V30 3242 C 334.152 -1.09554 -1.60348 0
M  V30 3243 O 333.427 -0.15035 -1.93918 0
M  V30 3244 C 333.71 -3.4931 -0.874907 0
M  V30 3245 C 333.563 -4.48773 0.303751 0
M  V30 3246 C 334.882 -4.04424 -1.73577 0
M  V30 3247 H 332.001 -0.720744 -0.153936 0
M  V30 3248 H 334.643 -1.87586 0.30192 0
M  V30 3249 H 332.793 -3.58522 -1.49648 0
M  V30 3250 H 334.465 -4.51586 0.941682 0
M  V30 3251 H 332.708 -4.23194 0.953375 0
M  V30 3252 H 333.379 -5.51976 -0.0519883 0
M  V30 3253 H 335.855 -3.98075 -1.21143 0
M  V30 3254 H 334.731 -5.1047 -2.01771 0
M  V30 3255 H 334.992 -3.50494 -2.69456 0
M  V30 3256 N 334.051 0.0651679 -1.57465 0
M  V30 3257 C 335.467 0.420105 -1.53972 0
M  V30 3258 C 335.667 1.78782 -0.929474 0
M  V30 3259 O 334.723 2.46771 -0.534839 0
M  V30 3260 C 336.036 0.355084 -2.98596 0
M  V30 3261 C 337.584 0.434792 -3.09965 0
M  V30 3262 C 338.059 0.399609 -4.56253 0
M  V30 3263 N 339.55 0.459488 -4.60915 0
M  V30 3264 C 340.285 0.454584 -5.71595 0
M  V30 3265 N 339.781 0.404102 -6.9162 0
M  V30 3266 N 341.574 0.501635 -5.59857 0
M  V30 3267 H 333.725 -0.830328 -1.95498 0
M  V30 3268 H 335.988 -0.312244 -0.895102 0
M  V30 3269 H 335.694 -0.583357 -3.46828 0
M  V30 3270 H 335.568 1.16275 -3.58831 0
M  V30 3271 H 337.955 1.36366 -2.61703 0
M  V30 3272 H 338.036 -0.40157 -2.52628 0
M  V30 3273 H 337.68 -0.525436 -5.05175 0
M  V30 3274 H 337.61 1.25359 -5.11461 0
M  V30 3275 H 340.101 0.502482 -3.74544 0
M  V30 3276 H 340.414 0.404468 -7.71741 0
M  V30 3277 H 338.759 0.37069 -6.94011 0
M  V30 3278 H 341.95 0.538812 -4.64989 0
M  V30 3279 H 342.123 0.494345 -6.46112 0
M  V30 3280 N 335.529 1.53961 0.336706 0
M  V30 3281 C 336.492 1.81724 1.39675 0
M  V30 3282 C 337.492 0.688532 1.45313 0
M  V30 3283 O 338.682 0.956829 1.45569 0
M  V30 3284 C 335.814 1.96543 2.78538 0
M  V30 3285 H 337.007 2.76424 1.16318 0
M  V30 3286 H 334.56 1.45478 0.571474 0
M  V30 3287 H 335.295 1.0401 3.07168 0
M  V30 3288 H 335.08 2.78665 2.75841 0
M  V30 3289 H 336.57 2.19516 3.5525 0
M  V30 3290 N 337.007 -0.598083 1.45811 0
M  V30 3291 C 337.937 -1.71873 1.58057 0
M  V30 3292 C 338.918 -1.64533 0.431615 0
M  V30 3293 O 340.103 -1.82787 0.65595 0
M  V30 3294 C 337.233 -3.10495 1.55597 0
M  V30 3295 C 336.187 -3.32654 2.69305 0
M  V30 3296 C 335.513 -4.71646 2.51902 0
M  V30 3297 C 336.813 -3.21981 4.11248 0
M  V30 3298 H 338.507 -1.61881 2.51863 0
M  V30 3299 H 336.053 -0.777372 1.21214 0
M  V30 3300 H 338.006 -3.88699 1.6276 0
M  V30 3301 H 336.73 -3.2135 0.583255 0
M  V30 3302 H 335.389 -2.56843 2.61586 0
M  V30 3303 H 335.037 -4.79246 1.52748 0
M  V30 3304 H 334.737 -4.87426 3.2816 0
M  V30 3305 H 336.261 -5.52038 2.60933 0
M  V30 3306 H 337.675 -3.90049 4.20161 0
M  V30 3307 H 336.072 -3.49289 4.87972 0
M  V30 3308 H 337.142 -2.1928 4.32486 0
M  V30 3309 N 338.485 -1.33259 -0.841409 0
M  V30 3310 C 339.435 -1.19872 -1.93945 0
M  V30 3311 C 340.419 -0.102269 -1.60575 0
M  V30 3312 O 341.611 -0.330114 -1.73894 0
M  V30 3313 C 338.74 -0.937517 -3.30251 0
M  V30 3314 C 337.826 -2.07629 -3.69799 0
M  V30 3315 N 338.217 -3.32604 -3.81062 0
M  V30 3316 C 336.515 -1.98242 -3.9952 0
M  V30 3317 C 337.216 -4.07275 -4.15333 0
M  V30 3318 N 336.192 -3.35691 -4.27566 0
M  V30 3319 H 339.994 -2.14604 -2.00805 0
M  V30 3320 H 337.508 -1.2523 -1.03398 0
M  V30 3321 H 339.505 -0.822545 -4.08705 0
M  V30 3322 H 338.165 0.00128798 -3.247 0
M  V30 3323 H 339.176 -3.67382 -3.65035 0
M  V30 3324 H 335.853 -1.12005 -4.02195 0
M  V30 3325 H 337.243 -5.1511 -4.31406 0
M  V30 3326 N 339.963 1.05934 -1.16686 0
M  V30 3327 C 341.24 1.75643 -0.860747 0
M  V30 3328 C 341.62 2.01144 0.640641 0
M  V30 3329 O 340.968 1.64147 1.58959 0
M  V30 3330 C 341.178 3.05493 -1.68745 0
M  V30 3331 C 342.526 3.79581 -1.90271 0
M  V30 3332 O 343.55 3.15344 -1.65641 0
M  V30 3333 O 342.409 4.9499 -2.31618 0
M  V30 3334 H 339.503 0.763426 -0.317977 0
M  V30 3335 H 342.049 1.1217 -1.27342 0
M  V30 3336 H 340.821 2.8264 -2.70611 0
M  V30 3337 H 340.444 3.76702 -1.27206 0
M  V30 3338 N 341.441 0.965919 1.2453 0
M  V30 3339 C 342.669 0.644385 1.96609 0
M  V30 3340 C 343.084 -0.785823 1.71669 0
M  V30 3341 O 342.441 -1.52703 0.999399 0
M  V30 3342 C 342.492 0.907375 3.49927 0
M  V30 3343 O 342.213 2.28136 3.74013 0
M  V30 3344 C 343.714 0.599784 4.39224 0
M  V30 3345 H 340.934 0.240588 0.626385 0
M  V30 3346 H 343.478 1.29337 1.58405 0
M  V30 3347 H 341.633 0.304631 3.862 0
M  V30 3348 H 342.047 2.36002 4.68405 0
M  V30 3349 H 343.521 0.834263 5.45659 0
M  V30 3350 H 343.998 -0.465921 4.36722 0
M  V30 3351 H 344.604 1.18235 4.08535 0
M  V30 3352 N 342.919 -1.39368 0.735821 0
M  V30 3353 C 344.167 -2.00101 0.283562 0
M  V30 3354 C 344.488 -1.5868 -1.13338 0
M  V30 3355 O 343.758 -0.835423 -1.77193 0
M  V30 3356 H 342.338 -0.740024 0.101851 0
M  V30 3357 H 345 -1.70404 0.945962 0
M  V30 3358 H 344.096 -3.10323 0.332604 0
M  V30 3359 N 344.397 -0.483516 -1.5 0
M  V30 3360 C 345.344 0.304164 -2.28787 0
M  V30 3361 C 346.314 0.976114 -1.34392 0
M  V30 3362 O 347.499 0.986156 -1.63339 0
M  V30 3363 C 344.639 1.37298 -3.16612 0
M  V30 3364 C 343.752 0.714561 -4.26049 0
M  V30 3365 C 342.887 1.76232 -5.01114 0
M  V30 3366 C 341.926 1.08483 -6.0241 0
M  V30 3367 N 341.063 2.076 -6.70706 0
M  V30 3368 H 345.903 -0.373981 -2.95644 0
M  V30 3369 H 343.44 -0.196275 -1.45785 0
M  V30 3370 H 345.398 2.00445 -3.65893 0
M  V30 3371 H 344.028 2.02012 -2.51776 0
M  V30 3372 H 343.08 -0.0297798 -3.80388 0
M  V30 3373 H 344.392 0.180383 -4.98474 0
M  V30 3374 H 343.546 2.46929 -5.54176 0
M  V30 3375 H 342.285 2.33033 -4.28424 0
M  V30 3376 H 341.29 0.363545 -5.48597 0
M  V30 3377 H 342.515 0.523551 -6.77079 0
M  V30 3378 H 340.461 2.63394 -6.00799 0
M  V30 3379 H 340.378 1.59201 -7.39047 0
M  V30 3380 H 341.646 2.77639 -7.2838 0
M  V30 3381 N 345.875 1.56104 -0.216619 0
M  V30 3382 C 347.122 1.98172 0.416416 0
M  V30 3383 C 347.45 1.10413 1.60122 0
M  V30 3384 O 346.705 0.147967 1.9514 0
M  V30 3385 C 347.004 3.45923 0.898464 0
M  V30 3386 C 346.67 4.50559 -0.175288 0
M  V30 3387 C 345.332 4.78897 -0.470271 0
M  V30 3388 C 347.684 5.1334 -0.901728 0
M  V30 3389 C 345.012 5.67299 -1.4963 0
M  V30 3390 C 347.364 6.02853 -1.91705 0
M  V30 3391 C 346.028 6.29537 -2.21901 0
M  V30 3392 H 345.298 0.725164 0.152377 0
M  V30 3393 H 347.945 1.88839 -0.318103 0
M  V30 3394 H 346.25 3.52434 1.71165 0
M  V30 3395 H 347.947 3.75841 1.39803 0
M  V30 3396 H 344.537 4.28551 0.0647806 0
M  V30 3397 H 348.721 4.91521 -0.687072 0
M  V30 3398 H 343.977 5.86239 -1.73592 0
M  V30 3399 H 348.151 6.50552 -2.48505 0
M  V30 3400 H 345.778 6.97835 -3.01548 0
M  V30 3401 N 347.353 -0.0568162 1.57498 0
M  V30 3402 C 348.581 -0.765626 1.92213 0
M  V30 3403 C 348.996 -1.70353 0.813961 0
M  V30 3404 O 348.353 -1.81268 -0.211701 0
M  V30 3405 C 348.404 -1.5465 3.2675 0
M  V30 3406 O 348.125 -0.646278 4.33307 0
M  V30 3407 C 349.626 -2.35497 3.75574 0
M  V30 3408 H 346.846 -0.216835 0.634999 0
M  V30 3409 H 349.39 -0.0226146 2.04487 0
M  V30 3410 H 347.545 -2.24165 3.15957 0
M  V30 3411 H 347.959 -1.19093 5.108 0
M  V30 3412 H 349.433 -2.85722 4.72299 0
M  V30 3413 H 349.91 -3.15692 3.05344 0
M  V30 3414 H 350.516 -1.7111 3.8936 0
M  V30 3415 N 348.832 -1.54138 -0.328536 0
M  V30 3416 C 350.109 -1.62749 -1.08499 0
M  V30 3417 C 350.489 -0.458198 -2.06067 0
M  V30 3418 O 349.837 0.548046 -2.2183 0
M  V30 3419 C 350.047 -2.99519 -1.79135 0
M  V30 3420 C 351.395 -3.55394 -2.32337 0
M  V30 3421 O 352.419 -3.01792 -1.89209 0
M  V30 3422 O 351.278 -4.49186 -3.11279 0
M  V30 3423 H 348.372 -0.65886 -0.499832 0
M  V30 3424 H 350.918 -1.66484 -0.328826 0
M  V30 3425 H 349.69 -3.76061 -1.08139 0
M  V30 3426 H 349.313 -2.99441 -2.61574 0
M  V30 3427 N 350.31 0.590341 -1.46126 0
M  V30 3428 C 351.558 1.34616 -1.50742 0
M  V30 3429 C 351.879 1.94363 -0.157486 0
M  V30 3430 O 351.149 1.78136 0.815136 0
M  V30 3431 H 349.729 0.499789 -0.555175 0
M  V30 3432 H 352.391 0.691953 -1.82203 0
M  V30 3433 H 351.487 2.15678 -2.25587 0
M  V30 3434 N 351.788 1.33704 0.83433 0
M  V30 3435 C 352.72 1.20172 1.9517 0
M  V30 3436 C 353.733 0.131572 1.62267 0
M  V30 3437 O 354.922 0.382406 1.74356 0
M  V30 3438 C 352.022 0.821716 3.28787 0
M  V30 3439 C 351.195 1.98446 3.89792 0
M  V30 3440 C 350.254 1.58469 5.01771 0
M  V30 3441 O 349.28 2.29968 5.20676 0
M  V30 3442 N 350.482 0.492291 5.78409 0
M  V30 3443 H 353.247 2.16429 2.07313 0
M  V30 3444 H 350.808 1.26509 1.0103 0
M  V30 3445 H 352.8 0.536291 4.01131 0
M  V30 3446 H 351.37 -0.0503058 3.1256 0
M  V30 3447 H 350.59 2.43526 3.09982 0
M  V30 3448 H 351.878 2.76236 4.27283 0
M  V30 3449 H 351.276 -0.102349 5.65607 0
M  V30 3450 H 349.833 0.266555 6.51255 0
M  V30 3451 N 353.266 -1.05314 1.17247 0
M  V30 3452 C 354.196 -2.1498 0.911362 0
M  V30 3453 C 355.177 -1.69471 -0.146169 0
M  V30 3454 O 356.362 -1.942 0.003812 0
M  V30 3455 C 353.492 -3.4472 0.422528 0
M  V30 3456 C 352.446 -4.03789 1.4191 0
M  V30 3457 C 351.772 -5.28858 0.788274 0
M  V30 3458 C 353.072 -4.41418 2.7919 0
M  V30 3459 H 354.766 -2.3708 1.82848 0
M  V30 3460 H 352.312 -1.13938 0.880569 0
M  V30 3461 H 354.265 -4.20787 0.227289 0
M  V30 3462 H 352.989 -3.22269 -0.530123 0
M  V30 3463 H 351.648 -3.2979 1.60106 0
M  V30 3464 H 351.296 -5.02709 -0.171173 0
M  V30 3465 H 350.996 -5.69338 1.45353 0
M  V30 3466 H 352.52 -6.07612 0.603282 0
M  V30 3467 H 353.934 -5.08524 2.64719 0
M  V30 3468 H 352.331 -4.92913 3.42282 0
M  V30 3469 H 353.401 -3.51819 3.33693 0
M  V30 3470 N 354.744 -0.972509 -1.24016 0
M  V30 3471 C 355.99 -0.637978 -1.92504 0
M  V30 3472 C 356.323 0.825383 -1.75787 0
M  V30 3473 O 355.598 1.59442 -1.11393 0
M  V30 3474 C 355.881 -1.01942 -3.45369 0
M  V30 3475 C 355.734 -2.53983 -3.71231 0
M  V30 3476 C 357.053 -0.55751 -4.36555 0
M  V30 3477 H 354.172 -0.233248 -0.699117 0
M  V30 3478 H 356.814 -1.21238 -1.46292 0
M  V30 3479 H 354.964 -0.530656 -3.84859 0
M  V30 3480 H 356.636 -3.10374 -3.41271 0
M  V30 3481 H 354.879 -2.96968 -3.16216 0
M  V30 3482 H 355.55 -2.75723 -4.78206 0
M  V30 3483 H 358.026 -0.977029 -4.04467 0
M  V30 3484 H 356.902 -0.85292 -5.42233 0
M  V30 3485 H 357.163 0.542328 -4.38761 0
M  V30 3486 N 356.222 1.38976 -0.743202 0
M  V30 3487 C 357.447 2.05161 -0.303936 0
M  V30 3488 C 357.872 1.55677 1.05576 0
M  V30 3489 O 357.23 0.704131 1.67068 0
M  V30 3490 C 357.278 3.59138 -0.324373 0
M  V30 3491 O 356.382 4.06668 0.685204 0
M  V30 3492 H 355.723 0.649815 -0.136518 0
M  V30 3493 H 358.253 1.77852 -1.01142 0
M  V30 3494 H 358.263 4.07639 -0.171618 0
M  V30 3495 H 356.938 3.94515 -1.31647 0
M  V30 3496 H 355.515 3.69561 0.497913 0
M  V30 3497 N 357.7 0.491464 1.49741 0
M  V30 3498 C 358.632 -0.328609 2.26832 0
M  V30 3499 C 359.645 -0.939113 1.32983 0
M  V30 3500 O 360.834 -0.824067 1.58339 0
M  V30 3501 C 357.934 -1.47675 3.05033 0
M  V30 3502 C 357.107 -0.975305 4.26388 0
M  V30 3503 C 356.166 -1.99991 4.86714 0
M  V30 3504 O 355.192 -1.57229 5.47054 0
M  V30 3505 N 356.394 -3.32962 4.75517 0
M  V30 3506 H 359.159 0.332377 2.97851 0
M  V30 3507 H 356.72 0.323441 1.58636 0
M  V30 3508 H 358.712 -2.15954 3.42266 0
M  V30 3509 H 357.282 -2.04206 2.36683 0
M  V30 3510 H 356.502 -0.117723 3.94024 0
M  V30 3511 H 357.79 -0.618531 5.05026 0
M  V30 3512 H 357.188 -3.70399 4.27576 0
M  V30 3513 H 355.745 -3.96982 5.16961 0
M  V30 3514 N 359.178 -1.55987 0.224894 0
M  V30 3515 C 360.125 -2.20436 -0.68385 0
M  V30 3516 C 361.095 -1.16102 -1.18783 0
M  V30 3517 O 362.28 -1.4447 -1.24632 0
M  V30 3518 C 359.42 -2.89076 -1.88491 0
M  V30 3519 C 358.533 -4.08012 -1.41951 0
M  V30 3520 C 357.668 -4.64426 -2.5784 0
M  V30 3521 C 356.707 -5.75656 -2.08053 0
M  V30 3522 N 355.844 -6.26347 -3.17227 0
M  V30 3523 H 360.684 -2.97727 -0.12754 0
M  V30 3524 H 358.221 -1.47011 -0.0511978 0
M  V30 3525 H 360.179 -3.27059 -2.59014 0
M  V30 3526 H 358.809 -2.14298 -2.41405 0
M  V30 3527 H 357.861 -3.75492 -0.609095 0
M  V30 3528 H 359.173 -4.88375 -1.01447 0
M  V30 3529 H 358.327 -5.04869 -3.3644 0
M  V30 3530 H 357.066 -3.83233 -3.01635 0
M  V30 3531 H 356.071 -5.34712 -1.27916 0
M  V30 3532 H 357.296 -6.58686 -1.65255 0
M  V30 3533 H 355.242 -5.48067 -3.60497 0
M  V30 3534 H 355.159 -7.01843 -2.80986 0
M  V30 3535 H 356.427 -6.71447 -3.95953 0
M  V30 3536 N 360.656 0.0484629 -1.57525 0
M  V30 3537 C 361.881 0.759177 -1.93006 0
M  V30 3538 C 362.306 1.69125 -0.823317 0
M  V30 3539 O 361.664 1.79931 0.222364 0
M  V30 3540 C 361.712 1.50899 -3.27509 0
M  V30 3541 O 360.816 2.62112 -3.18388 0
M  V30 3542 H 360.157 0.205564 -0.631379 0
M  V30 3543 H 362.687 0.00972959 -2.04598 0
M  V30 3544 H 362.697 1.88317 -3.6194 0
M  V30 3545 H 361.372 0.825269 -4.0763 0
M  V30 3546 H 359.949 2.27379 -2.95556 0
M  V30 3547 N 362.134 1.5431 0.320358 0
M  V30 3548 C 363.411 1.63322 1.07635 0
M  V30 3549 C 363.791 0.46912 2.05821 0
M  V30 3550 O 363.139 -0.536274 2.22118 0
M  V30 3551 C 363.349 3.00465 1.77544 0
M  V30 3552 C 364.697 3.56621 2.30449 0
M  V30 3553 O 365.721 3.02791 1.87606 0
M  V30 3554 O 364.58 4.5083 3.08892 0
M  V30 3555 H 361.674 0.661502 0.496331 0
M  V30 3556 H 364.22 1.66656 0.319992 0
M  V30 3557 H 362.992 3.76629 1.06143 0
M  V30 3558 H 362.615 3.00824 2.59982 0
M  V30 3559 N 363.613 -0.582584 1.46437 0
M  V30 3560 C 364.838 -1.37168 1.55563 0
M  V30 3561 C 365.263 -1.87061 0.19743 0
M  V30 3562 O 364.621 -1.61572 -0.822451 0
M  V30 3563 C 364.669 -2.53511 2.56446 0
M  V30 3564 O 363.773 -3.54953 2.09958 0
M  V30 3565 H 363.114 -0.408494 0.523477 0
M  V30 3566 H 365.644 -0.706646 1.9201 0
M  V30 3567 H 365.654 -3.00426 2.76058 0
M  V30 3568 H 364.329 -2.16549 3.55076 0
M  V30 3569 H 362.906 -3.14516 2.00334 0
M  V30 3570 N 365.091 -1.34144 -0.827227 0
M  V30 3571 C 366.316 -1.29476 -1.62021 0
M  V30 3572 C 366.741 0.129292 -1.87655 0
M  V30 3573 O 366.099 1.08967 -1.449 0
M  V30 3574 C 366.147 -2.08702 -2.94068 0
M  V30 3575 O 365.251 -1.45359 -3.85933 0
M  V30 3576 H 364.592 -0.444881 -0.492927 0
M  V30 3577 H 367.122 -1.76882 -1.02829 0
M  V30 3578 H 367.132 -2.19898 -3.43669 0
M  V30 3579 H 365.807 -3.12241 -2.74734 0
M  V30 3580 H 364.384 -1.42879 -3.44442 0
M  V30 3581 N 366.569 1.04691 -1.17803 0
M  V30 3582 C 367.516 2.12557 -0.899343 0
M  V30 3583 C 368.486 1.65339 0.158771 0
M  V30 3584 O 369.671 1.90789 0.0204797 0
M  V30 3585 C 366.811 3.42481 -0.424315 0
M  V30 3586 C 365.924 4.03346 -1.54713 0
M  V30 3587 C 365.059 5.21208 -1.02546 0
M  V30 3588 C 364.098 5.74089 -2.12339 0
M  V30 3589 N 363.235 6.83247 -1.61612 0
M  V30 3590 H 368.075 2.35734 -1.823 0
M  V30 3591 H 365.612 1.1564 -0.909159 0
M  V30 3592 H 367.57 4.16996 -0.130421 0
M  V30 3593 H 366.2 3.19471 0.462377 0
M  V30 3594 H 365.252 3.2622 -1.95664 0
M  V30 3595 H 366.564 4.38628 -2.37501 0
M  V30 3596 H 365.718 6.02812 -0.685718 0
M  V30 3597 H 364.457 4.87414 -0.167084 0
M  V30 3598 H 363.462 4.91111 -2.47165 0
M  V30 3599 H 364.687 6.0993 -2.98601 0
M  V30 3600 H 362.633 6.5134 -0.780533 0
M  V30 3601 H 362.55 7.17559 -2.38003 0
M  V30 3602 H 363.818 7.68491 -1.30545 0
M  V30 3603 N 368.047 0.979072 1.23499 0
M  V30 3604 C 369.324 0.563674 1.87302 0
M  V30 3605 C 369.704 -0.959199 1.88049 0
M  V30 3606 O 369.052 -1.83535 1.36114 0
M  V30 3607 C 369.262 1.16822 3.28867 0
M  V30 3608 C 370.61 1.26014 4.0547 0
M  V30 3609 O 371.634 1.12158 3.38082 0
M  V30 3610 O 370.493 1.48044 5.26066 0
M  V30 3611 H 367.587 0.189602 0.804972 0
M  V30 3612 H 370.133 1.07407 1.31384 0
M  V30 3613 H 368.905 2.21049 3.22883 0
M  V30 3614 H 368.528 0.642564 3.92373 0
M  V30 3615 N 369.525 -1.3858 0.750561 0
M  V30 3616 C 370.774 -1.99424 0.302172 0
M  V30 3617 C 371.087 -1.60254 -1.12152 0
M  V30 3618 O 372.293 -2.14046 -1.67023 0
M  V30 3619 C 370.749 -3.56558 0.489307 0
M  V30 3620 C 370.357 -4.04682 1.92189 0
M  V30 3621 C 372.101 -4.24374 0.103478 0
M  V30 3622 C 370.008 -5.54446 2.05775 0
M  V30 3623 H 368.938 -0.746046 0.10923 0
M  V30 3624 H 371.589 -1.58383 0.92667 0
M  V30 3625 H 369.971 -3.95472 -0.204329 0
M  V30 3626 H 371.145 -3.77065 2.64875 0
M  V30 3627 H 369.46 -3.4958 2.26236 0
M  V30 3628 H 372.057 -5.34384 0.183787 0
M  V30 3629 H 372.4 -4.05468 -0.943481 0
M  V30 3630 H 372.933 -3.90688 0.748854 0
M  V30 3631 H 369.672 -5.78252 3.08714 0
M  V30 3632 H 369.192 -5.83816 1.37546 0
M  V30 3633 H 370.871 -6.20099 1.84626 0
M  V30 3634 N 371.003 -0.499398 -1.49478 0
M  V30 3635 C 372.419 -0.155261 -1.58843 0
M  V30 3636 C 372.619 1.34008 -1.50479 0
M  V30 3637 O 371.675 2.11589 -1.37791 0
M  V30 3638 C 372.988 -0.730636 -2.91689 0
M  V30 3639 C 374.536 -0.696599 -3.0515 0
M  V30 3640 C 375.011 -1.25001 -4.40612 0
M  V30 3641 N 376.502 -1.21064 -4.47099 0
M  V30 3642 C 377.237 -1.60905 -5.50361 0
M  V30 3643 N 376.733 -2.08331 -6.60735 0
M  V30 3644 N 378.526 -1.52331 -5.41065 0
M  V30 3645 H 370.677 -1.47162 -1.53158 0
M  V30 3646 H 372.94 -0.610309 -0.725415 0
M  V30 3647 H 372.646 -1.77928 -3.03372 0
M  V30 3648 H 372.52 -0.190161 -3.7672 0
M  V30 3649 H 374.907 0.343204 -2.93097 0
M  V30 3650 H 374.988 -1.2742 -2.21806 0
M  V30 3651 H 374.632 -2.28859 -4.53416 0
M  V30 3652 H 374.562 -0.64836 -5.22593 0
M  V30 3653 H 377.053 -0.863128 -3.67911 0
M  V30 3654 H 377.366 -2.36805 -7.35624 0
M  V30 3655 H 375.711 -2.12304 -6.6178 0
M  V30 3656 H 378.902 -1.151 -4.53729 0
M  V30 3657 H 379.075 -1.83704 -6.21415 0
M  V30 3658 N 372.481 1.55866 -0.233164 0
M  V30 3659 C 373.729 1.9821 0.394593 0
M  V30 3660 C 374.05 1.12234 1.59463 0
M  V30 3661 O 373.32 0.201981 1.94856 0
M  V30 3662 H 371.9 0.732034 0.148778 0
M  V30 3663 H 374.562 1.92107 -0.32876 0
M  V30 3664 H 373.658 3.03845 0.713063 0
M  V30 3665 N 373.959 -0.0401083 1.57549 0
M  V30 3666 C 375.236 -0.767917 1.79896 0
M  V30 3667 C 375.616 -1.9416 0.82856 0
M  V30 3668 O 374.964 -2.2812 -0.131671 0
M  V30 3669 C 375.174 -1.2113 3.27305 0
M  V30 3670 C 376.522 -1.63175 3.91994 0
M  V30 3671 O 377.546 -1.30616 3.31388 0
M  V30 3672 O 376.405 -2.23565 4.98679 0
M  V30 3673 H 373.499 -0.370441 0.739393 0
M  V30 3674 H 376.045 -0.017737 1.69691 0
M  V30 3675 H 374.817 -0.372937 3.89519 0
M  V30 3676 H 374.44 -2.02183 3.42356 0
M  V30 3677 N 375.437 -1.54477 -0.31217 0
M  V30 3678 C 376.384 -1.84655 -1.38461 0
M  V30 3679 C 377.354 -0.694536 -1.50882 0
M  V30 3680 O 378.539 -0.942081 -1.6592 0
M  V30 3681 C 375.679 -2.0896 -2.74645 0
M  V30 3682 C 374.792 -3.36618 -2.70763 0
M  V30 3683 C 373.927 -3.50824 -3.98868 0
M  V30 3684 C 372.966 -4.72315 -3.89339 0
M  V30 3685 N 372.103 -4.83387 -5.09197 0
M  V30 3686 H 376.943 -2.76142 -1.12026 0
M  V30 3687 H 374.48 -1.36748 -0.542065 0
M  V30 3688 H 376.438 -2.21045 -3.53829 0
M  V30 3689 H 375.068 -1.20752 -2.99364 0
M  V30 3690 H 374.12 -3.33211 -1.83506 0
M  V30 3691 H 375.432 -4.25917 -2.59608 0
M  V30 3692 H 374.586 -3.62513 -4.86486 0
M  V30 3693 H 373.325 -2.59638 -4.12843 0
M  V30 3694 H 372.33 -4.6067 -3.00105 0
M  V30 3695 H 373.555 -5.64897 -3.76919 0
M  V30 3696 H 371.501 -3.9512 -5.23657 0
M  V30 3697 H 371.418 -5.66669 -5.00422 0
M  V30 3698 H 372.686 -4.9942 -5.98498 0
M  V30 3699 N 376.915 0.57481 -1.46744 0
M  V30 3700 C 378.164 1.32898 -1.51727 0
M  V30 3701 C 378.477 1.948 -0.176692 0
M  V30 3702 O 379.683 2.71299 -0.104385 0
M  V30 3703 C 378.139 2.40901 -2.67385 0
M  V30 3704 C 377.747 1.85266 -4.07898 0
M  V30 3705 C 379.491 3.17609 -2.81646 0
M  V30 3706 C 377.398 2.90945 -5.14883 0
M  V30 3707 H 376.328 0.499631 -0.564699 0
M  V30 3708 H 378.979 0.612536 -1.72975 0
M  V30 3709 H 377.361 3.15379 -2.39483 0
M  V30 3710 H 378.535 1.17278 -4.45626 0
M  V30 3711 H 376.85 1.21199 -3.98371 0
M  V30 3712 H 379.447 3.96493 -3.58744 0
M  V30 3713 H 379.79 3.70696 -1.89448 0
M  V30 3714 H 380.323 2.50239 -3.09233 0
M  V30 3715 H 377.062 2.42736 -6.089 0
M  V30 3716 H 376.582 3.57398 -4.81691 0
M  V30 3717 H 378.261 3.54755 -5.41071 0
M  V30 3718 N 378.394 1.34581 0.820102 0
M  V30 3719 C 379.622 1.3018 1.60813 0
M  V30 3720 C 380.037 -0.123551 1.88395 0
M  V30 3721 O 379.394 -1.07148 1.47735 0
M  V30 3722 C 379.445 2.09312 2.94739 0
M  V30 3723 O 379.166 3.46288 2.68358 0
M  V30 3724 C 380.667 2.1234 3.89136 0
M  V30 3725 H 377.887 0.447726 0.499782 0
M  V30 3726 H 380.431 1.77237 1.02017 0
M  V30 3727 H 378.586 1.65889 3.50085 0
M  V30 3728 H 379 3.87227 3.53774 0
M  V30 3729 H 380.474 2.72126 4.80262 0
M  V30 3730 H 380.951 1.11854 4.24718 0
M  V30 3731 H 381.557 2.55864 3.39726 0
M  V30 3732 N 379.872 -1.04064 1.18357 0
M  V30 3733 C 381.118 -1.77658 0.990412 0
M  V30 3734 C 381.473 -1.86446 -0.474944 0
M  V30 3735 O 380.766 -1.36153 -1.34807 0
M  V30 3736 C 380.96 -3.20634 1.57888 0
M  V30 3737 C 380.789 -3.25782 3.09994 0
M  V30 3738 C 379.559 -3.34411 3.7881 0
M  V30 3739 C 381.757 -3.13791 4.0748 0
M  V30 3740 N 379.739 -3.28809 5.18418 0
M  V30 3741 C 381.11 -3.15689 5.33611 0
M  V30 3742 C 383.165 -2.97833 3.98998 0
M  V30 3743 C 381.868 -3.03268 6.52243 0
M  V30 3744 C 383.894 -2.86759 5.17227 0
M  V30 3745 C 383.256 -2.893 6.4225 0
M  V30 3746 H 379.355 -0.661901 0.416427 0
M  V30 3747 H 381.939 -1.23968 1.50133 0
M  V30 3748 H 380.11 -3.7267 1.09414 0
M  V30 3749 H 381.842 -3.82525 1.32124 0
M  V30 3750 H 378.597 -3.40144 3.29543 0
M  V30 3751 H 379.021 -3.29448 5.91433 0
M  V30 3752 H 383.663 -2.94698 3.03171 0
M  V30 3753 H 381.381 -3.05156 7.48268 0
M  V30 3754 H 384.967 -2.75465 5.12455 0
M  V30 3755 H 383.847 -2.80818 7.32196 0
M  V30 3756 N 381.35 -0.985608 -1.22978 0
M  V30 3757 C 382.599 -0.652881 -1.90841 0
M  V30 3758 C 382.912 0.817842 -1.77681 0
M  V30 3759 O 384.118 1.26185 -2.40395 0
M  V30 3760 C 382.574 -1.11717 -3.42122 0
M  V30 3761 C 382.182 -2.6126 -3.63933 0
M  V30 3762 C 383.926 -0.85843 -4.1573 0
M  V30 3763 C 381.833 -3.0133 -5.08876 0
M  V30 3764 H 380.763 -0.240491 -0.714619 0
M  V30 3765 H 383.414 -1.1942 -1.39324 0
M  V30 3766 H 381.796 -0.504027 -3.92779 0
M  V30 3767 H 382.97 -3.27858 -3.23799 0
M  V30 3768 H 381.285 -2.84937 -3.03644 0
M  V30 3769 H 383.882 -1.13359 -5.22546 0
M  V30 3770 H 384.225 0.205461 -4.15793 0
M  V30 3771 H 384.758 -1.43341 -3.71077 0
M  V30 3772 H 381.497 -4.06864 -5.13947 0
M  V30 3773 H 381.017 -2.3943 -5.49939 0
M  V30 3774 H 382.696 -2.92224 -5.77247 0
M  V30 3775 N 382.828 1.3818 -0.7579 0
M  V30 3776 C 383.738 2.3421 -0.135247 0
M  V30 3777 C 384.754 1.59487 0.695683 0
M  V30 3778 O 385.93 1.91657 0.618832 0
M  V30 3779 C 382.995 3.3862 0.744139 0
M  V30 3780 C 382.056 4.2918 -0.101658 0
M  V30 3781 C 381.289 5.28603 0.735851 0
M  V30 3782 O 381.512 5.35166 1.97366 0
M  V30 3783 O 380.446 6.01707 0.152372 0
M  V30 3784 H 384.272 2.8916 -0.928436 0
M  V30 3785 H 381.857 1.40101 -0.518855 0
M  V30 3786 H 383.739 4.02539 1.2466 0
M  V30 3787 H 382.414 2.86019 1.51575 0
M  V30 3788 H 381.321 3.68407 -0.650167 0
M  V30 3789 H 382.654 4.85048 -0.836024 0
M  V30 3790 N 384.306 0.507319 1.49211 0
M  V30 3791 C 385.554 -0.0348839 2.0207 0
M  V30 3792 C 385.875 -1.36898 1.38866 0
M  V30 3793 O 385.145 -1.88133 0.546151 0
M  V30 3794 H 383.725 -0.0158812 0.746831 0
M  V30 3795 H 386.387 0.665998 1.83168 0
M  V30 3796 H 385.483 -0.159917 3.1169 0
M  V30 3797 N 385.784 -1.5574 0.241426 0
M  V30 3798 C 386.731 -2.21149 -0.660432 0
M  V30 3799 C 387.701 -1.17356 -1.17545 0
M  V30 3800 O 388.886 -1.45784 -1.23093 0
M  V30 3801 C 386.026 -2.91059 -1.85414 0
M  V30 3802 C 385.139 -4.09495 -1.37616 0
M  V30 3803 C 384.274 -4.67135 -2.529 0
M  V30 3804 C 383.313 -5.77831 -2.01936 0
M  V30 3805 N 382.45 -6.29677 -3.10566 0
M  V30 3806 H 387.29 -2.97845 -0.095955 0
M  V30 3807 H 384.827 -1.47057 -0.0356024 0
M  V30 3808 H 386.785 -3.29788 -2.5553 0
M  V30 3809 H 385.415 -2.16846 -2.39118 0
M  V30 3810 H 384.467 -3.76117 -0.569235 0
M  V30 3811 H 385.779 -4.89423 -0.962618 0
M  V30 3812 H 384.933 -5.08409 -3.31067 0
M  V30 3813 H 383.672 -3.86411 -2.97553 0
M  V30 3814 H 382.677 -5.36039 -1.22238 0
M  V30 3815 H 383.902 -6.60402 -1.58259 0
M  V30 3816 H 381.848 -5.5186 -3.54664 0
M  V30 3817 H 381.765 -7.04783 -2.73526 0
M  V30 3818 H 383.033 -6.75609 -3.88809 0
M  V30 3819 N 387.262 0.0317525 -1.57568 0
M  V30 3820 C 388.172 1.05021 -2.0978 0
M  V30 3821 C 389.188 1.39809 -1.03583 0
M  V30 3822 O 390.364 1.49182 -1.35302 0
M  V30 3823 C 387.429 2.33301 -2.56459 0
M  V30 3824 C 386.49 2.0512 -3.77127 0
M  V30 3825 C 385.723 3.27283 -4.2157 0
M  V30 3826 O 385.946 4.37861 -3.65559 0
M  V30 3827 O 384.88 3.13141 -5.14029 0
M  V30 3828 H 388.706 0.636505 -2.96955 0
M  V30 3829 H 386.291 0.248559 -1.47318 0
M  V30 3830 H 388.173 3.08722 -2.86825 0
M  V30 3831 H 386.848 2.73973 -1.72397 0
M  V30 3832 H 385.755 1.27276 -3.51784 0
M  V30 3833 H 387.088 1.69305 -4.62165 0
M  V30 3834 N 388.74 1.54641 0.303973 0
M  V30 3835 C 390.151 1.64811 0.877163 0
M  V30 3836 C 390.502 0.554838 1.88191 0
M  V30 3837 O 389.627 -0.309033 2.14182 0
M  V30 3838 C 390.222 2.9876 1.59775 0
M  V30 3839 C 388.781 3.11061 2.11938 0
M  V30 3840 C 387.928 2.60479 0.951097 0
M  V30 3841 H 390.879 1.58493 0.0810486 0
M  V30 3842 H 390.9 2.90017 2.46314 0
M  V30 3843 H 390.412 3.7831 0.866226 0
M  V30 3844 H 388.513 2.36225 2.88146 0
M  V30 3845 H 388.626 4.17171 2.35595 0
M  V30 3846 H 386.99 2.16859 1.33583 0
M  V30 3847 H 387.773 3.42504 0.233581 0
M  V30 3848 N 390.218 -0.567019 1.47046 0
M  V30 3849 C 391.466 -1.322 1.52864 0
M  V30 3850 C 391.787 -1.94088 0.188388 0
M  V30 3851 O 391.057 -1.7941 -0.786693 0
M  V30 3852 H 389.637 -0.490894 0.563056 0
M  V30 3853 H 392.299 -0.662879 1.83281 0
M  V30 3854 H 391.395 -2.12062 2.2899 0
M  V30 3855 N 391.696 -1.35014 -0.812953 0
M  V30 3856 C 392.936 -1.29289 -1.58315 0
M  V30 3857 C 393.3 0.132727 -1.91541 0
M  V30 3858 O 394.501 0.314269 -2.66957 0
M  V30 3859 C 392.772 -2.1681 -2.84127 0
M  V30 3860 S 394.331 -2.28538 -3.74588 0
M  V30 3861 H 391.149 -0.459569 -0.542511 0
M  V30 3862 H 393.751 -1.70336 -0.959467 0
M  V30 3863 H 392.455 -3.19379 -2.57731 0
M  V30 3864 H 391.986 -1.76697 -3.51485 0
M  V30 3865 H 394.001 -1.4655 -4.74065 0
M  V30 3866 N 393.175 1.03435 -1.18907 0
M  V30 3867 C 394.085 2.15075 -0.937015 0
M  V30 3868 C 395.101 1.73706 0.101085 0
M  V30 3869 O 396.277 2.01232 -0.0822948 0
M  V30 3870 C 393.342 3.43458 -0.473057 0
M  V30 3871 C 392.403 3.99172 -1.57989 0
M  V30 3872 C 391.636 5.21427 -1.13797 0
M  V30 3873 O 391.859 5.704 0.000725941 0
M  V30 3874 O 390.793 5.69837 -1.9383 0
M  V30 3875 H 394.619 2.39198 -1.87131 0
M  V30 3876 H 392.204 1.13506 -0.971427 0
M  V30 3877 H 394.086 4.20811 -0.222702 0
M  V30 3878 H 392.761 3.20793 0.432869 0
M  V30 3879 H 391.668 3.23178 -1.88433 0
M  V30 3880 H 393.001 4.2619 -2.46217 0
M  V30 3881 N 394.653 0.992116 1.22453 0
M  V30 3882 C 395.881 0.685944 1.95198 0
M  V30 3883 C 396.296 -0.749233 1.73297 0
M  V30 3884 O 395.653 -1.50549 1.03156 0
M  V30 3885 C 395.704 0.981395 3.47924 0
M  V30 3886 O 395.425 2.36018 3.6909 0
M  V30 3887 C 396.926 0.692815 4.37853 0
M  V30 3888 H 394.146 0.253821 0.621141 0
M  V30 3889 H 396.69 1.32668 1.55626 0
M  V30 3890 H 394.845 0.386481 3.85467 0
M  V30 3891 H 395.259 2.45884 4.63294 0
M  V30 3892 H 396.733 0.949818 5.43767 0
M  V30 3893 H 397.21 -0.373181 4.37612 0
M  V30 3894 H 397.816 1.26874 4.05935 0
M  V30 3895 N 396.131 -1.37776 0.765217 0
M  V30 3896 C 397.38 -1.99092 0.323307 0
M  V30 3897 C 397.693 -1.61434 -1.10446 0
M  V30 3898 O 398.899 -2.15805 -1.64743 0
M  V30 3899 C 397.355 -3.56019 0.527098 0
M  V30 3900 C 396.963 -4.0262 1.96471 0
M  V30 3901 C 398.707 -4.2424 0.148483 0
M  V30 3902 C 396.614 -5.52233 2.11644 0
M  V30 3903 H 395.544 -0.744846 0.117137 0
M  V30 3904 H 398.195 -1.57391 0.943417 0
M  V30 3905 H 396.577 -3.95667 -0.162372 0
M  V30 3906 H 397.751 -3.74234 2.68859 0
M  V30 3907 H 396.066 -3.47161 2.29931 0
M  V30 3908 H 398.663 -5.34159 0.240456 0
M  V30 3909 H 399.006 -4.06446 -0.900422 0
M  V30 3910 H 399.539 -3.89872 0.79025 0
M  V30 3911 H 396.278 -5.74945 3.1483 0
M  V30 3912 H 395.798 -5.82324 1.4373 0
M  V30 3913 H 397.477 -6.18106 1.91193 0
M  V30 3914 N 397.609 -0.515225 -1.4894 0
M  V30 3915 C 398.857 0.0241671 -2.02086 0
M  V30 3916 C 399.178 1.3616 -1.3959 0
M  V30 3917 O 398.448 1.87841 -0.556121 0
M  V30 3918 H 397.028 0.0119203 -0.746905 0
M  V30 3919 H 399.69 -0.675702 -1.82812 0
M  V30 3920 H 398.786 0.143385 -3.1177 0
M  V30 3921 N 399.087 1.5561 -0.249682 0
M  V30 3922 C 400.017 2.24477 0.642826 0
M  V30 3923 C 400.998 1.22601 1.17911 0
M  V30 3924 O 402.183 1.5126 1.21795 0
M  V30 3925 C 399.313 2.94638 1.83863 0
M  V30 3926 C 398.267 4.03227 1.435 0
M  V30 3927 C 397.593 4.60828 2.71186 0
M  V30 3928 C 398.893 5.18796 0.604002 0
M  V30 3929 H 400.587 2.99321 0.0685625 0
M  V30 3930 H 398.133 1.43965 0.0315363 0
M  V30 3931 H 400.086 3.41517 2.46868 0
M  V30 3932 H 398.81 2.17287 2.43832 0
M  V30 3933 H 397.469 3.57121 0.828275 0
M  V30 3934 H 397.117 3.80174 3.29358 0
M  V30 3935 H 396.817 5.34132 2.44901 0
M  V30 3936 H 398.341 5.10442 3.35084 0
M  V30 3937 H 399.755 5.61883 1.13842 0
M  V30 3938 H 398.152 5.98506 0.437097 0
M  V30 3939 H 399.222 4.83384 -0.383147 0
M  V30 3940 N 400.565 -0.0233959 1.57583 0
M  V30 3941 C 401.495 -1.02162 2.09965 0
M  V30 3942 C 402.476 -1.3735 1.00344 0
M  V30 3943 O 403.661 -1.46135 1.27899 0
M  V30 3944 C 400.791 -2.32081 2.58371 0
M  V30 3945 C 399.745 -2.1112 3.72307 0
M  V30 3946 C 399.071 -3.46848 4.06941 0
M  V30 3947 C 400.371 -1.49276 5.00514 0
M  V30 3948 H 402.065 -0.585557 2.93618 0
M  V30 3949 H 399.611 -0.280218 1.41247 0
M  V30 3950 H 401.564 -3.02249 2.93639 0
M  V30 3951 H 400.288 -2.77758 1.71808 0
M  V30 3952 H 398.947 -1.43384 3.37397 0
M  V30 3953 H 398.595 -3.90184 3.17436 0
M  V30 3954 H 398.295 -3.33646 4.83688 0
M  V30 3955 H 399.819 -4.18369 4.44747 0
M  V30 3956 H 401.233 -2.09368 5.33702 0
M  V30 3957 H 399.63 -1.46632 5.8191 0
M  V30 3958 H 400.7 -0.459217 4.82721 0
M  V30 3959 N 402.043 -1.548 -0.295768 0
M  V30 3960 C 402.976 -1.81003 -1.38972 0
M  V30 3961 C 403.954 -0.661544 -1.48534 0
M  V30 3962 O 405.138 -0.902074 -1.65514 0
M  V30 3963 C 402.265 -1.95141 -2.76835 0
M  V30 3964 C 401.311 -3.17592 -2.84671 0
M  V30 3965 S 402.144 -4.75531 -2.46232 0
M  V30 3966 C 403.3 -4.92613 -3.86114 0
M  V30 3967 H 403.533 -2.73507 -1.16537 0
M  V30 3968 H 401.066 -1.46278 -0.494168 0
M  V30 3969 H 403.024 -2.03972 -3.56238 0
M  V30 3970 H 401.685 -1.03565 -2.96535 0
M  V30 3971 H 400.878 -3.24303 -3.85803 0
M  V30 3972 H 400.48 -3.07235 -2.13267 0
M  V30 3973 H 402.772 -4.76957 -4.81164 0
M  V30 3974 H 403.715 -5.94698 -3.8437 0
M  V30 3975 H 404.123 -4.2073 -3.76359 0
M  V30 3976 N 403.521 0.559213 -1.47345 0
M  V30 3977 C 404.746 1.34676 -1.57725 0
M  V30 3978 C 405.171 1.86723 -0.227164 0
M  V30 3979 O 404.529 1.6286 0.796642 0
M  V30 3980 C 404.577 2.49399 -2.60447 0
M  V30 3981 O 403.681 3.51567 -2.15578 0
M  V30 3982 H 403.022 0.400115 -0.52991 0
M  V30 3983 H 405.552 0.676009 -1.93109 0
M  V30 3984 H 405.562 2.95996 -2.80803 0
M  V30 3985 H 404.237 2.10873 -3.58477 0
M  V30 3986 H 402.814 3.11289 -2.05313 0
M  V30 3987 N 404.999 1.35443 0.805782 0
M  V30 3988 C 406.224 1.32037 1.59941 0
M  V30 3989 C 406.649 -0.0994215 1.87837 0
M  V30 3990 O 406.007 -1.06648 1.46615 0
M  V30 3991 C 406.055 2.13354 2.90711 0
M  V30 3992 O 405.159 1.5148 3.83572 0
M  V30 3993 H 404.5 0.452666 0.485787 0
M  V30 3994 H 407.03 1.78496 1.00002 0
M  V30 3995 H 407.04 2.25338 3.40128 0
M  V30 3996 H 405.715 3.16572 2.69732 0
M  V30 3997 H 404.292 1.4834 3.42125 0
M  V30 3998 N 406.477 -1.02803 1.19454 0
M  V30 3999 C 407.41 -2.107 0.876396 0
M  V30 4000 C 408.388 -1.61741 -0.166897 0
M  V30 4001 O 409.572 -1.88451 -0.0430195 0
M  V30 4002 C 406.699 -3.37262 0.311758 0
M  V30 4003 C 405.745 -4.05093 1.33424 0
M  V30 4004 S 406.578 -4.50498 2.89503 0
M  V30 4005 C 407.734 -5.80277 2.34584 0
M  V30 4006 H 407.967 -2.37362 1.79016 0
M  V30 4007 H 405.5 -1.15755 1.02177 0
M  V30 4008 H 407.458 -4.10499 -0.00748752 0
M  V30 4009 H 406.119 -3.08693 -0.58032 0
M  V30 4010 H 405.312 -4.9611 0.888302 0
M  V30 4011 H 404.914 -3.3803 1.60037 0
M  V30 4012 H 407.206 -6.54873 1.73633 0
M  V30 4013 H 408.149 -6.29651 3.23952 0
M  V30 4014 H 408.557 -5.3599 1.77131 0
M  V30 4015 N 407.956 -0.998596 -1.21925 0
M  V30 4016 C 409.233 -0.593401 -1.86382 0
M  V30 4017 C 409.613 0.92916 -1.89552 0
M  V30 4018 O 408.961 1.81347 -1.39017 0
M  V30 4019 C 409.171 -1.22039 -3.26967 0
M  V30 4020 C 410.519 -1.32449 -4.03413 0
M  V30 4021 O 411.543 -1.17522 -3.36254 0
M  V30 4022 O 410.402 -1.56395 -5.23644 0
M  V30 4023 H 407.496 -0.202385 -0.801854 0
M  V30 4024 H 410.042 -1.09484 -1.29659 0
M  V30 4025 H 408.814 -2.26158 -3.19325 0
M  V30 4026 H 408.437 -0.704906 -3.91301 0
M  V30 4027 N 409.434 1.37368 -0.772513 0
M  V30 4028 C 410.711 1.93839 -0.26188 0
M  V30 4029 C 411.091 1.7061 1.24319 0
M  V30 4030 O 410.439 1.05534 2.02669 0
M  V30 4031 C 410.649 3.43154 -0.636102 0
M  V30 4032 C 411.997 4.20249 -0.606324 0
M  V30 4033 O 413.021 3.5152 -0.575538 0
M  V30 4034 O 411.88 5.42809 -0.634086 0
M  V30 4035 H 408.974 0.82478 -0.0605555 0
M  V30 4036 H 411.52 1.4665 -0.853917 0
M  V30 4037 H 410.292 3.53647 -1.6748 0
M  V30 4038 H 409.915 3.97596 -0.0170516 0
M  V30 4039 N 410.912 0.523116 1.48665 0
M  V30 4040 C 411.842 -0.23231 2.32342 0
M  V30 4041 C 412.823 -0.941637 1.41659 0
M  V30 4042 O 414.008 -0.928751 1.70552 0
M  V30 4043 C 411.138 -1.28387 3.22698 0
M  V30 4044 C 410.092 -0.693098 4.22351 0
M  V30 4045 C 409.418 -1.8468 5.01794 0
M  V30 4046 C 410.718 0.33063 5.21252 0
M  V30 4047 H 412.412 0.466192 2.95748 0
M  V30 4048 H 409.958 0.225643 1.42221 0
M  V30 4049 H 411.911 -1.82024 3.80059 0
M  V30 4050 H 410.635 -2.01186 2.57278 0
M  V30 4051 H 409.294 -0.178299 3.66166 0
M  V30 4052 H 408.942 -2.56301 4.32804 0
M  V30 4053 H 408.642 -1.45747 5.69238 0
M  V30 4054 H 410.166 -2.38709 5.62006 0
M  V30 4055 H 411.58 -0.118407 5.73178 0
M  V30 4056 H 409.977 0.636974 5.9671 0
M  V30 4057 H 411.047 1.23883 4.68808 0
M  V30 4058 N 412.39 -1.55475 0.257931 0
M  V30 4059 C 413.639 -1.98383 -0.364275 0
M  V30 4060 C 413.952 -1.14952 -1.58258 0
M  V30 4061 O 415.158 -1.47924 -2.27664 0
M  V30 4062 C 413.614 -3.53037 -0.699479 0
M  V30 4063 C 413.222 -4.45223 0.498046 0
M  V30 4064 C 414.966 -4.04575 -1.28526 0
M  V30 4065 C 412.873 -5.91238 0.138383 0
M  V30 4066 H 411.803 -0.740911 -0.13988 0
M  V30 4067 H 414.454 -1.79936 0.359883 0
M  V30 4068 H 412.836 -3.6722 -1.48207 0
M  V30 4069 H 414.01 -4.42803 1.27522 0
M  V30 4070 H 412.325 -4.04226 0.999503 0
M  V30 4071 H 414.922 -5.11196 -1.56788 0
M  V30 4072 H 415.265 -3.5258 -2.21344 0
M  V30 4073 H 415.798 -3.93762 -0.565337 0
M  V30 4074 H 412.537 -6.47294 1.03398 0
M  V30 4075 H 412.057 -5.96768 -0.602374 0
M  V30 4076 H 413.736 -6.46413 -0.27553 0
M  V30 4077 N 413.868 0.0150385 -1.57593 0
M  V30 4078 C 415.284 0.370907 -1.5523 0
M  V30 4079 C 415.484 1.75735 -0.985882 0
M  V30 4080 O 414.54 2.44944 -0.613077 0
M  V30 4081 C 415.853 0.259908 -2.99575 0
M  V30 4082 C 417.401 0.335959 -3.11192 0
M  V30 4083 C 417.876 0.254253 -4.57294 0
M  V30 4084 N 419.367 0.312618 -4.62144 0
M  V30 4085 C 420.102 0.272505 -5.72752 0
M  V30 4086 N 419.598 0.183864 -6.92556 0
M  V30 4087 N 421.391 0.323267 -5.6117 0
M  V30 4088 H 413.542 -0.892104 -1.92757 0
M  V30 4089 H 415.805 -0.340563 -0.884715 0
M  V30 4090 H 415.511 -0.693403 -3.44797 0
M  V30 4091 H 415.385 1.048 -3.62349 0
M  V30 4092 H 417.772 1.27971 -2.65909 0
M  V30 4093 H 417.853 -0.481739 -2.51223 0
M  V30 4094 H 417.497 -0.685887 -5.03247 0
M  V30 4095 H 417.427 1.09024 -5.15191 0
M  V30 4096 H 419.918 0.38307 -3.75953 0
M  V30 4097 H 420.231 0.15874 -7.72637 0
M  V30 4098 H 418.576 0.149708 -6.94839 0
M  V30 4099 H 421.767 0.390607 -4.66467 0
M  V30 4100 H 421.94 0.288539 -6.47357 0
M  V30 4101 N 415.346 1.54954 0.287554 0
M  V30 4102 C 416.296 1.8322 1.357 0
M  V30 4103 C 417.28 0.690152 1.45347 0
M  V30 4104 O 418.472 0.951137 1.49273 0
M  V30 4105 C 415.601 2.09481 2.71979 0
M  V30 4106 C 414.687 3.29906 2.66502 0
M  V30 4107 N 415.078 4.50154 2.30641 0
M  V30 4108 C 413.376 3.32203 2.97585 0
M  V30 4109 C 414.077 5.32209 2.34794 0
M  V30 4110 N 413.053 4.70258 2.72688 0
M  V30 4111 H 416.855 2.73746 1.0696 0
M  V30 4112 H 414.369 1.54635 0.496167 0
M  V30 4113 H 416.366 2.27882 3.49107 0
M  V30 4114 H 415.026 1.2023 3.0162 0
M  V30 4115 H 416.037 4.76515 2.02865 0
M  V30 4116 H 412.714 2.53101 3.32034 0
M  V30 4117 H 414.104 6.38321 2.09753 0
M  V30 4118 N 416.824 -0.551391 1.4764 0
M  V30 4119 C 418.064 -1.31901 1.56145 0
M  V30 4120 C 418.428 -1.90724 0.221013 0
M  V30 4121 O 419.629 -2.6819 0.180945 0
M  V30 4122 C 417.9 -2.39517 2.65267 0
M  V30 4123 S 419.459 -3.26289 2.93395 0
M  V30 4124 H 416.277 -0.448965 0.551318 0
M  V30 4125 H 418.879 -0.630599 1.85051 0
M  V30 4126 H 417.583 -1.94747 3.6125 0
M  V30 4127 H 417.114 -3.13092 2.38195 0
M  V30 4128 H 419.129 -4.39122 2.31055 0
M  V30 4129 N 418.302 -1.35869 -0.798587 0
M  V30 4130 C 419.25 -1.29491 -1.93222 0
M  V30 4131 C 420.244 -0.18836 -1.6835 0
M  V30 4132 O 421.45 -0.354822 -1.76468 0
M  V30 4133 H 417.825 -0.402901 -0.63496 0
M  V30 4134 H 419.796 -2.25247 -1.9572 0
M  V30 4135 C 418.545 -1.09184 -3.30112 0
M  V30 4136 H 417.868 -1.93574 -3.49813 0
M  V30 4137 H 419.308 -1.08766 -4.09812 0
M  V30 4138 C 417.767 0.203959 -3.36282 0
M  V30 4139 O 418.297 1.19699 -3.83451 0
M  V30 4140 N 416.503 0.245488 -2.89561 0
M  V30 4141 H 416.05 -0.563223 -2.51367 0
M  V30 4142 H 416.008 1.11219 -2.94071 0
M  V30 4143 N 419.78 1.02168 -1.19998 0
M  V30 4144 C 421.028 1.75338 -1.00504 0
M  V30 4145 C 421.349 1.89387 0.464506 0
M  V30 4146 O 420.619 1.43268 1.33608 0
M  V30 4147 H 419.199 0.649564 -0.368885 0
M  V30 4148 H 421.861 1.23205 -1.51018 0
M  V30 4149 H 420.957 2.75892 -1.45912 0
M  V30 4150 N 421.258 1.00505 1.21394 0
M  V30 4151 C 422.205 0.565496 2.23765 0
M  V30 4152 C 423.175 -0.408466 1.60999 0
M  V30 4153 O 424.36 -0.310503 1.88257 0
M  V30 4154 C 421.5 -0.101667 3.4495 0
M  V30 4155 C 420.613 0.915479 4.22188 0
M  V30 4156 C 419.748 0.220574 5.30742 0
M  V30 4157 C 418.787 1.22527 5.99711 0
M  V30 4158 N 417.924 0.557831 6.9988 0
M  V30 4159 H 422.764 1.44314 2.60725 0
M  V30 4160 H 420.301 0.722643 1.28126 0
M  V30 4161 H 422.259 -0.505504 4.14126 0
M  V30 4162 H 420.889 -0.94303 3.08718 0
M  V30 4163 H 419.941 1.43756 3.52191 0
M  V30 4164 H 421.253 1.68005 4.69655 0
M  V30 4165 H 420.407 -0.239368 6.06228 0
M  V30 4166 H 419.146 -0.576401 4.84282 0
M  V30 4167 H 418.151 1.69571 5.22997 0
M  V30 4168 H 419.376 2.02332 6.48258 0
M  V30 4169 H 417.322 -0.219486 6.55633 0
M  V30 4170 H 417.239 1.26065 7.45415 0
M  V30 4171 H 418.507 0.121095 7.79406 0
M  V30 4172 N 422.737 -1.36956 0.779787 0
M  V30 4173 C 423.667 -2.32761 0.185651 0
M  V30 4174 C 424.648 -1.56177 -0.673989 0
M  V30 4175 O 425.833 -1.84378 -0.609797 0
M  V30 4176 C 422.963 -3.40418 -0.687964 0
M  V30 4177 C 421.917 -4.27941 0.0710102 0
M  V30 4178 C 421.243 -5.26681 -0.922573 0
M  V30 4179 C 422.543 -5.07006 1.25467 0
M  V30 4180 H 424.237 -2.82698 0.986008 0
M  V30 4181 H 421.783 -1.3592 0.475592 0
M  V30 4182 H 423.736 -4.06423 -1.11348 0
M  V30 4183 H 422.46 -2.89025 -1.52093 0
M  V30 4184 H 421.119 -3.63478 0.47739 0
M  V30 4185 H 420.767 -4.71565 -1.7503 0
M  V30 4186 H 420.467 -5.86103 -0.419237 0
M  V30 4187 H 421.991 -5.9556 -1.34686 0
M  V30 4188 H 423.405 -5.66105 0.905401 0
M  V30 4189 H 421.802 -5.75793 1.69063 0
M  V30 4190 H 422.872 -4.3921 2.05481 0
M  V30 4191 N 424.215 -0.530993 -1.48385 0
M  V30 4192 C 425.463 0.00273189 -2.021 0
M  V30 4193 C 425.784 1.34672 -1.41027 0
M  V30 4194 O 425.054 1.8724 -0.576012 0
M  V30 4195 H 423.634 0.00399774 -0.746989 0
M  V30 4196 H 426.296 -0.695054 -1.82085 0
M  V30 4197 H 425.392 0.11031 -3.11905 0
M  V30 4198 N 425.693 1.55336 -0.266172 0
M  V30 4199 C 426.918 2.04258 0.359661 0
M  V30 4200 C 427.343 1.14359 1.49344 0
M  V30 4201 O 426.701 0.140369 1.80756 0
M  V30 4202 C 426.749 3.50997 0.826635 0
M  V30 4203 O 425.853 3.64204 1.93466 0
M  V30 4204 H 425.194 0.659668 0.075727 0
M  V30 4205 H 427.724 2.00694 -0.39786 0
M  V30 4206 H 427.734 3.9219 1.12477 0
M  V30 4207 H 426.409 4.159 -0.00293032 0
M  V30 4208 H 424.986 3.34913 1.63974 0
M  V30 4209 N 427.171 -0.0066808 1.57599 0
M  V30 4210 C 428.401 -0.703066 1.94269 0
M  V30 4211 C 428.809 -1.68206 0.866222 0
M  V30 4212 O 428.152 -1.82966 -0.164087 0
M  V30 4213 C 428.214 -1.49616 3.26887 0
M  V30 4214 C 427.878 -0.679494 4.5192 0
M  V30 4215 C 428.875 0.0299508 5.19891 0
M  V30 4216 C 426.56 -0.627433 4.98366 0
M  V30 4217 C 428.554 0.780514 6.32603 0
M  V30 4218 C 426.241 0.126861 6.10968 0
M  V30 4219 C 427.239 0.829574 6.77943 0
M  V30 4220 O 426.927 1.57157 7.88389 0
M  V30 4221 H 426.659 -0.201217 0.645359 0
M  V30 4222 H 429.213 0.0385326 2.05364 0
M  V30 4223 H 427.443 -2.28209 3.12182 0
M  V30 4224 H 429.132 -2.07726 3.48719 0
M  V30 4225 H 429.898 -0.00115963 4.85 0
M  V30 4226 H 425.777 -1.16392 4.46065 0
M  V30 4227 H 429.321 1.32954 6.84813 0
M  V30 4228 H 425.218 0.159815 6.45302 0
M  V30 4229 H 425.986 1.48758 8.04868 0
M  V30 4230 N 428.649 -1.55105 -0.279332 0
M  V30 4231 C 429.596 -1.8755 -1.34513 0
M  V30 4232 C 430.566 -0.726384 -1.49375 0
M  V30 4233 O 431.751 -0.977063 -1.63884 0
M  V30 4234 C 428.891 -2.14738 -2.70151 0
M  V30 4235 C 428.004 -3.42285 -2.63562 0
M  V30 4236 C 427.139 -3.59206 -3.91337 0
M  V30 4237 C 426.178 -4.80467 -3.79233 0
M  V30 4238 N 425.315 -4.94079 -4.98829 0
M  V30 4239 H 430.155 -2.78456 -1.06143 0
M  V30 4240 H 427.692 -1.37867 -0.512936 0
M  V30 4241 H 429.65 -2.28501 -3.49061 0
M  V30 4242 H 428.28 -1.27075 -2.96735 0
M  V30 4243 H 427.332 -3.37029 -1.76397 0
M  V30 4244 H 428.644 -4.31328 -2.50515 0
M  V30 4245 H 427.798 -3.72751 -4.78687 0
M  V30 4246 H 426.537 -2.68337 -4.07243 0
M  V30 4247 H 425.542 -4.66932 -2.90266 0
M  V30 4248 H 426.767 -5.72765 -3.64852 0
M  V30 4249 H 424.713 -4.06139 -5.15158 0
M  V30 4250 H 424.63 -5.77156 -4.8829 0
M  V30 4251 H 425.898 -5.12003 -5.8777 0
M  V30 4252 N 430.127 0.543554 -1.4793 0
M  V30 4253 C 431.376 1.29649 -1.54512 0
M  V30 4254 C 431.689 1.94382 -0.217973 0
M  V30 4255 O 432.895 2.71017 -0.161908 0
M  V30 4256 C 431.351 2.35175 -2.72435 0
M  V30 4257 C 430.959 1.76572 -4.11736 0
M  V30 4258 C 432.703 3.11564 -2.8832 0
M  V30 4259 C 430.61 2.79958 -5.20939 0
M  V30 4260 H 429.54 0.487541 -0.57517 0
M  V30 4261 H 432.191 0.575708 -1.74235 0
M  V30 4262 H 430.573 3.10229 -2.46118 0
M  V30 4263 H 431.747 1.07799 -4.48013 0
M  V30 4264 H 430.062 1.12722 -4.00852 0
M  V30 4265 H 432.659 3.88794 -3.67074 0
M  V30 4266 H 433.002 3.66594 -1.97268 0
M  V30 4267 H 433.535 2.43623 -3.14472 0
M  V30 4268 H 430.274 2.29766 -6.13912 0
M  V30 4269 H 429.794 3.47101 -4.89164 0
M  V30 4270 H 431.473 3.43198 -5.48474 0
M  V30 4271 N 431.605 1.3629 0.791371 0
M  V30 4272 C 432.553 1.30514 1.92533 0
M  V30 4273 C 433.547 0.197285 1.68247 0
M  V30 4274 O 434.753 0.364176 1.76278 0
M  V30 4275 H 431.128 0.406263 0.632815 0
M  V30 4276 H 433.099 2.26282 1.94523 0
M  V30 4277 C 431.848 1.10933 3.29529 0
M  V30 4278 H 431.171 1.95427 3.48781 0
M  V30 4279 H 432.611 1.10937 4.0923 0
M  V30 4280 C 431.07 -0.186123 3.36385 0
M  V30 4281 O 431.6 -1.17664 3.84081 0
M  V30 4282 N 429.806 -0.230128 2.89687 0
M  V30 4283 H 429.353 0.576545 2.51065 0
M  V30 4284 H 429.311 -1.09658 2.94657 0
M  V30 4285 N 433.083 -1.0153 1.20538 0
M  V30 4286 C 434.331 -1.74803 1.01432 0
M  V30 4287 C 434.652 -1.8963 -0.454456 0
M  V30 4288 O 433.922 -1.43975 -1.32846 0
M  V30 4289 H 432.502 -0.647598 0.372324 0
M  V30 4290 H 435.164 -1.22402 1.5167 0
M  V30 4291 H 434.26 -2.75114 1.47373 0
M  V30 4292 N 434.561 -1.01147 -1.20859 0
M  V30 4293 C 435.977 -0.725422 -1.42161 0
M  V30 4294 C 436.177 0.696919 -1.89064 0
M  V30 4295 O 435.233 1.46539 -2.05627 0
M  V30 4296 C 436.546 -1.74678 -2.44761 0
M  V30 4297 C 438.094 -1.76433 -2.58535 0
M  V30 4298 C 438.569 -2.77481 -3.64374 0
M  V30 4299 N 440.06 -2.76189 -3.71852 0
M  V30 4300 C 440.795 -3.51035 -4.53389 0
M  V30 4301 N 440.291 -4.35541 -5.38773 0
M  V30 4302 N 442.084 -3.39655 -4.47873 0
M  V30 4303 H 434.235 -1.92979 -0.887282 0
M  V30 4304 H 436.498 -0.833327 -0.451962 0
M  V30 4305 H 436.204 -2.76551 -2.17285 0
M  V30 4306 H 436.078 -1.55472 -3.43669 0
M  V30 4307 H 438.465 -0.75248 -2.85345 0
M  V30 4308 H 438.546 -1.99712 -1.5984 0
M  V30 4309 H 438.19 -3.78827 -3.38308 0
M  V30 4310 H 438.12 -2.51466 -4.6268 0
M  V30 4311 H 440.611 -2.14885 -3.10858 0
M  V30 4312 H 440.924 -4.89432 -5.98061 0
M  V30 4313 H 439.269 -4.39621 -5.38292 0
M  V30 4314 H 442.46 -2.73063 -3.80203 0
M  V30 4315 H 442.633 -3.9824 -5.11184 0
M  V30 4316 N 436.039 1.36541 -0.78704 0
M  V30 4317 C 437.267 2.03561 -0.370199 0
M  V30 4318 C 437.682 1.59347 1.01263 0
M  V30 4319 O 437.039 0.781781 1.64907 0
M  V30 4320 C 437.09 3.59033 -0.421614 0
M  V30 4321 O 436.811 4.01634 -1.7499 0
M  V30 4322 C 438.312 4.433 0.00489763 0
M  V30 4323 H 435.532 0.653346 -0.152904 0
M  V30 4324 H 438.076 1.74566 -1.06522 0
M  V30 4325 H 436.231 3.86746 0.224971 0
M  V30 4326 H 436.645 4.96217 -1.69909 0
M  V30 4327 H 438.119 5.51939 -0.0822184 0
M  V30 4328 H 438.596 4.26285 1.05723 0
M  V30 4329 H 439.202 4.20843 -0.614085 0
M  V30 4330 N 437.518 0.538854 1.48102 0
M  V30 4331 C 438.465 -0.219042 2.29758 0
M  V30 4332 C 439.435 -0.925562 1.37922 0
M  V30 4333 O 440.62 -0.924855 1.66886 0
M  V30 4334 C 437.76 -1.25452 3.2149 0
M  V30 4335 C 436.873 -0.555943 4.28408 0
M  V30 4336 C 436.008 -1.57512 5.0731 0
M  V30 4337 C 435.047 -0.860498 6.06021 0
M  V30 4338 N 434.184 -1.82564 6.77949 0
M  V30 4339 H 439.024 0.483449 2.94052 0
M  V30 4340 H 436.561 0.250247 1.44956 0
M  V30 4341 H 438.519 -1.86727 3.7308 0
M  V30 4342 H 437.149 -1.92528 2.591 0
M  V30 4343 H 436.201 0.170938 3.80016 0
M  V30 4344 H 437.513 0.00474616 4.988 0
M  V30 4345 H 436.667 -2.26191 5.62959 0
M  V30 4346 H 435.406 -2.16972 4.36778 0
M  V30 4347 H 434.411 -0.159686 5.49568 0
M  V30 4348 H 435.636 -0.271897 6.78555 0
M  V30 4349 H 433.582 -2.40915 6.10161 0
M  V30 4350 H 433.499 -1.31662 7.44447 0
M  V30 4351 H 434.767 -2.50414 7.38182 0
M  V30 4352 N 438.996 -1.55193 0.274407 0
M  V30 4353 C 439.959 -2.212 -0.600279 0
M  V30 4354 C 440.959 -1.18963 -1.08187 0
M  V30 4355 O 442.149 -1.43873 -0.982158 0
M  V30 4356 C 439.281 -2.87739 -1.82809 0
M  V30 4357 H 440.474 -2.9989 -0.0239682 0
M  V30 4358 H 438.027 -1.5628 0.0250192 0
M  V30 4359 H 438.762 -2.13058 -2.44493 0
M  V30 4360 H 438.547 -3.62658 -1.49069 0
M  V30 4361 H 440.037 -3.38171 -2.45011 0
M  V30 4362 N 440.474 -0.00167713 -1.576 0
M  V30 4363 C 441.407 1.02317 -2.03977 0
M  V30 4364 C 442.385 1.33381 -0.929963 0
M  V30 4365 O 443.569 1.45517 -1.19822 0
M  V30 4366 C 440.696 2.35035 -2.43878 0
M  V30 4367 C 439.742 2.19621 -3.65607 0
M  V30 4368 S 440.575 1.52068 -5.13455 0
M  V30 4369 C 441.731 2.86212 -5.56627 0
M  V30 4370 H 441.964 0.628285 -2.90585 0
M  V30 4371 H 439.497 0.209239 -1.52976 0
M  V30 4372 H 441.455 3.11345 -2.67534 0
M  V30 4373 H 440.116 2.71663 -1.57665 0
M  V30 4374 H 439.309 3.1767 -3.91282 0
M  V30 4375 H 438.911 1.51455 -3.41961 0
M  V30 4376 H 441.203 3.82509 -5.59189 0
M  V30 4377 H 442.146 2.65235 -6.56549 0
M  V30 4378 H 442.554 2.90199 -4.84195 0
M  V30 4379 N 441.952 1.55251 0.271103 0
M  V30 4380 C 443.198 1.76207 1.00394 0
M  V30 4381 C 443.531 0.562604 1.85872 0
M  V30 4382 O 442.806 -0.439785 1.89463 0
M  V30 4383 C 443.089 3.06828 1.8849 0
M  V30 4384 C 442.942 4.37134 1.05992 0
M  V30 4385 C 444.261 3.33503 2.87165 0
M  V30 4386 H 441.38 0.641086 0.363562 0
M  V30 4387 H 444.022 1.87982 0.276189 0
M  V30 4388 H 442.172 2.96921 2.5054 0
M  V30 4389 H 443.844 4.59001 0.459978 0
M  V30 4390 H 442.087 4.32275 0.363443 0
M  V30 4391 H 442.758 5.2486 1.70955 0
M  V30 4392 H 445.234 3.43215 2.3525 0
M  V30 4393 H 444.11 4.2616 3.45946 0
M  V30 4394 H 444.371 2.53235 3.62387 0
M  V30 4395 N 443.43 -0.535701 1.48216 0
M  V30 4396 C 444.393 -1.623 1.61838 0
M  V30 4397 C 445.393 -1.53087 0.492024 0
M  V30 4398 O 446.583 -1.5686 0.757668 0
M  V30 4399 C 443.715 -3.01907 1.58319 0
M  V30 4400 H 444.908 -1.51564 2.58783 0
M  V30 4401 H 442.461 -0.757317 1.36727 0
M  V30 4402 H 443.196 -3.18155 0.628299 0
M  V30 4403 H 442.981 -3.10003 2.40085 0
M  V30 4404 H 444.471 -3.80969 1.71033 0
M  V30 4405 N 444.908 -1.36708 -0.784132 0
M  V30 4406 C 446.148 -1.32618 -1.55537 0
M  V30 4407 C 446.512 0.0920681 -1.91779 0
M  V30 4408 O 447.713 0.257573 -2.67563 0
M  V30 4409 C 445.984 -2.22788 -2.79464 0
M  V30 4410 S 447.543 -2.36432 -3.69656 0
M  V30 4411 H 444.361 -0.470973 -0.53264 0
M  V30 4412 H 446.963 -1.72333 -0.92312 0
M  V30 4413 H 445.667 -3.24774 -2.50899 0
M  V30 4414 H 445.198 -1.84112 -3.47658 0
M  V30 4415 H 447.213 -1.56573 -4.7085 0
M  V30 4416 N 446.386 1.0089 -1.21074 0
M  V30 4417 C 447.616 1.77933 -1.04993 0
M  V30 4418 C 448.024 1.84847 0.403495 0
M  V30 4419 O 447.367 1.30606 1.29181 0
M  V30 4420 C 447.429 3.23541 -1.56722 0
M  V30 4421 C 447.093 3.40214 -3.05129 0
M  V30 4422 C 448.09 3.2881 -4.02716 0
M  V30 4423 C 445.775 3.65781 -3.44252 0
M  V30 4424 C 447.769 3.42732 -5.37414 0
M  V30 4425 C 445.456 3.79346 -4.79103 0
M  V30 4426 C 446.454 3.67827 -5.75493 0
M  V30 4427 O 446.142 3.80965 -7.07899 0
M  V30 4428 H 445.874 0.566157 -0.369381 0
M  V30 4429 H 448.428 1.27826 -1.60779 0
M  V30 4430 H 446.658 3.74766 -0.953285 0
M  V30 4431 H 448.347 3.82245 -1.36543 0
M  V30 4432 H 449.113 3.08986 -3.73835 0
M  V30 4433 H 444.992 3.73831 -2.69762 0
M  V30 4434 H 448.536 3.33658 -6.12632 0
M  V30 4435 H 444.433 3.98672 -5.07672 0
M  V30 4436 H 445.201 3.97937 -7.15254 0
M  V30 4437 N 447.864 1.01787 1.20321 0
M  V30 4438 C 449.275 0.739307 1.71438 0
M  V30 4439 C 449.626 -0.742041 1.81627 0
M  V30 4440 O 448.751 -1.57903 1.47971 0
M  V30 4441 C 449.346 1.33538 3.11373 0
M  V30 4442 C 447.905 1.10566 3.59795 0
M  V30 4443 C 447.052 1.44028 2.36962 0
M  V30 4444 H 450.003 1.18718 1.05317 0
M  V30 4445 H 450.024 0.726611 3.73498 0
M  V30 4446 H 449.536 2.41352 3.03926 0
M  V30 4447 H 447.637 0.0452405 3.72573 0
M  V30 4448 H 447.75 1.78661 4.44542 0
M  V30 4449 H 446.114 0.85933 2.39766 0
M  V30 4450 H 446.897 2.52901 2.32155 0
M  V30 4451 N 449.342 -1.36122 0.79427 0
M  V30 4452 C 450.59 -1.98718 0.368177 0
M  V30 4453 C 450.911 -1.63345 -1.06506 0
M  V30 4454 O 450.181 -0.909825 -1.73491 0
M  V30 4455 H 448.761 -0.735038 0.133146 0
M  V30 4456 H 451.423 -1.66239 1.01739 0
M  V30 4457 H 450.519 -3.08633 0.463923 0
M  V30 4458 N 450.82 -0.546701 -1.47814 0
M  V30 4459 C 451.768 0.220048 -2.31557 0
M  V30 4460 C 452.762 0.919472 -1.42275 0
M  V30 4461 O 453.968 0.841953 -1.59095 0
M  V30 4462 H 450.343 0.0898334 -0.746615 0
M  V30 4463 H 452.314 -0.505589 -2.94086 0
M  V30 4464 C 451.063 1.24353 -3.24702 0
M  V30 4465 H 450.386 0.714758 -3.93359 0
M  V30 4466 H 451.826 1.75112 -3.8615 0
M  V30 4467 C 450.285 2.28593 -2.47481 0
M  V30 4468 O 450.815 3.35334 -2.21165 0
M  V30 4469 N 449.021 2.02244 -2.08676 0
M  V30 4470 H 448.568 1.15455 -2.30278 0
M  V30 4471 H 448.526 2.72207 -1.57323 0
M  V30 4472 N 452.299 1.55045 -0.282633 0
M  V30 4473 C 453.547 1.99365 0.331334 0
M  V30 4474 C 453.868 1.1725 1.55812 0
M  V30 4475 O 453.138 0.263871 1.94115 0
M  V30 4476 H 451.718 0.736397 0.125414 0
M  V30 4477 H 454.38 1.90964 -0.389711 0
M  V30 4478 H 453.476 3.0596 0.616036 0
M  V30 4479 N 453.777 0.010035 1.57597 0
M  V30 4480 C 455.005 -0.683413 1.95287 0
M  V30 4481 C 455.42 -1.66747 0.885481 0
M  V30 4482 O 454.777 -1.82003 -0.134629 0
M  V30 4483 C 454.828 -1.40652 3.33015 0
M  V30 4484 O 454.549 -0.461916 4.35658 0
M  V30 4485 C 456.05 -2.19356 3.85225 0
M  V30 4486 H 453.27 -0.189708 0.643624 0
M  V30 4487 H 455.814 0.0641359 2.04399 0
M  V30 4488 H 453.969 -2.10562 3.2518 0
M  V30 4489 H 454.383 -0.973215 5.15392 0
M  V30 4490 H 455.857 -2.65433 4.83993 0
M  V30 4491 H 456.334 -3.02457 3.18459 0
M  V30 4492 H 456.94 -1.54442 3.96267 0
M  V30 4493 N 455.255 -1.55392 -0.262866 0
M  V30 4494 C 456.503 -1.76127 -0.991147 0
M  V30 4495 C 456.824 -0.571083 -1.8645 0
M  V30 4496 O 456.094 0.413698 -1.91482 0
M  V30 4497 H 454.674 -0.649528 -0.368948 0
M  V30 4498 H 457.336 -1.9281 -0.284655 0
M  V30 4499 H 456.432 -2.6663 -1.62219 0
M  V30 4500 N 456.733 0.527833 -1.48498 0
M  V30 4501 C 457.963 1.30633 -1.60058 0
M  V30 4502 C 458.371 1.87394 -0.260786 0
M  V30 4503 O 457.714 1.67227 0.760317 0
M  V30 4504 C 457.776 2.49361 -2.58958 0
M  V30 4505 C 457.44 2.13671 -4.03972 0
M  V30 4506 C 458.437 1.69217 -4.91591 0
M  V30 4507 C 456.122 2.24129 -4.49524 0
M  V30 4508 C 458.116 1.35689 -6.2279 0
M  V30 4509 C 455.803 1.90212 -5.80743 0
M  V30 4510 C 456.801 1.46063 -6.67199 0
M  V30 4511 O 456.489 1.12593 -7.95976 0
M  V30 4512 H 456.221 0.403444 -0.54241 0
M  V30 4513 H 458.775 0.643233 -1.95068 0
M  V30 4514 H 457.005 3.18659 -2.19073 0
M  V30 4515 H 458.694 3.11421 -2.6033 0
M  V30 4516 H 459.46 1.60607 -4.57636 0
M  V30 4517 H 455.339 2.57447 -3.82416 0
M  V30 4518 H 458.883 1.01157 -6.90227 0
M  V30 4519 H 454.78 1.98464 -6.14233 0
M  V30 4520 H 455.548 1.25972 -8.08748 0
M  V30 4521 N 458.211 1.37122 0.776871 0
M  V30 4522 C 459.457 1.32243 1.53752 0
M  V30 4523 C 459.79 -0.0944745 1.9397 0
M  V30 4524 O 459.065 -1.05068 1.6368 0
M  V30 4525 C 459.348 2.25681 2.80607 0
M  V30 4526 C 459.201 3.76127 2.46676 0
M  V30 4527 C 460.52 2.17657 3.82509 0
M  V30 4528 H 457.639 0.481704 0.557791 0
M  V30 4529 H 460.281 1.6778 0.891612 0
M  V30 4530 H 458.431 1.95505 3.35723 0
M  V30 4531 H 460.103 4.16877 1.97513 0
M  V30 4532 H 458.346 3.94946 1.79443 0
M  V30 4533 H 459.017 4.36933 3.37333 0
M  V30 4534 H 461.493 2.44245 3.36873 0
M  V30 4535 H 460.369 2.85185 4.69 0
M  V30 4536 H 460.63 1.16785 4.26396 0
M  V30 4537 N 459.689 -1.00246 1.21608 0
M  V30 4538 C 461.105 -1.26435 0.973975 0
M  V30 4539 C 461.305 -1.98642 -0.338143 0
M  V30 4540 O 460.361 -2.29026 -1.06317 0
M  V30 4541 C 461.674 -2.08551 2.16626 0
M  V30 4542 C 463.222 -2.21769 2.20879 0
M  V30 4543 C 463.697 -3.07267 3.39633 0
M  V30 4544 N 465.188 -3.14855 3.39736 0
M  V30 4545 C 465.923 -3.81274 4.28273 0
M  V30 4546 N 465.419 -4.497 5.27012 0
M  V30 4547 N 467.212 -3.7794 4.16074 0
M  V30 4548 H 459.363 -0.518089 2.05984 0
M  V30 4549 H 461.626 -0.291368 0.902113 0
M  V30 4550 H 461.332 -1.62847 3.11727 0
M  V30 4551 H 461.206 -3.09303 2.15897 0
M  V30 4552 H 463.593 -2.66691 1.26332 0
M  V30 4553 H 463.674 -1.20478 2.25652 0
M  V30 4554 H 463.318 -2.63047 4.34475 0
M  V30 4555 H 463.248 -4.08678 3.321 0
M  V30 4556 H 465.739 -2.66147 2.6828 0
M  V30 4557 H 466.052 -4.98092 5.90867 0
M  V30 4558 H 464.397 -4.48479 5.30935 0
M  V30 4559 H 467.588 -3.23638 3.38195 0
M  V30 4560 H 467.761 -4.29424 4.85282 0
M  V30 4561 N 461.167 -1.02423 -1.1978 0
M  V30 4562 C 462.117 -0.571689 -2.20716 0
M  V30 4563 C 463.101 0.377077 -1.56419 0
M  V30 4564 O 464.293 0.198801 -1.7588 0
M  V30 4565 C 461.422 0.0808555 -3.43205 0
M  V30 4566 C 460.508 -0.890073 -4.14655 0
M  V30 4567 N 460.899 -2.05065 -4.62366 0
M  V30 4568 C 459.197 -0.71252 -4.40272 0
M  V30 4569 C 459.898 -2.66264 -5.17183 0
M  V30 4570 N 458.874 -1.94264 -5.07703 0
M  V30 4571 H 462.676 -1.45636 -2.55279 0
M  V30 4572 H 460.19 -0.890596 -1.35802 0
M  V30 4573 H 462.187 0.422654 -4.14752 0
M  V30 4574 H 460.847 0.961274 -3.10144 0
M  V30 4575 H 461.858 -2.43026 -4.57339 0
M  V30 4576 H 458.535 0.119199 -4.1733 0
M  V30 4577 H 459.925 -3.64526 -5.64421 0
M  V30 4578 N 462.645 1.35699 -0.801477 0
M  V30 4579 C 463.891 1.99208 -0.380022 0
M  V30 4580 C 464.224 1.63445 1.04878 0
M  V30 4581 O 463.499 0.895223 1.72673 0
M  V30 4582 C 463.782 3.55755 -0.557708 0
M  V30 4583 C 463.635 4.01332 -2.03107 0
M  V30 4584 C 464.954 4.40096 0.0197968 0
M  V30 4585 H 462.073 0.723667 -0.139552 0
M  V30 4586 H 464.715 1.60928 -1.01006 0
M  V30 4587 H 462.865 3.88494 -0.0213741 0
M  V30 4588 H 464.537 3.79026 -2.62939 0
M  V30 4589 H 462.78 3.52429 -2.52936 0
M  V30 4590 H 463.451 5.10234 -2.1063 0
M  V30 4591 H 465.927 4.13786 -0.438179 0
M  V30 4592 H 464.803 5.48735 -0.134477 0
M  V30 4593 H 465.064 4.2786 1.11303 0
M  V30 4594 N 464.123 0.554532 1.47522 0
M  V30 4595 C 465.4 -0.0360704 1.95567 0
M  V30 4596 C 465.78 -1.48828 1.49711 0
M  V30 4597 O 465.128 -2.16366 0.734717 0
M  V30 4598 C 465.338 0.106631 3.48837 0
M  V30 4599 C 466.686 -0.0400899 4.24581 0
M  V30 4600 O 467.71 0.0340453 3.56184 0
M  V30 4601 O 466.569 -0.199111 5.46137 0
M  V30 4602 H 463.663 -0.0656294 0.824392 0
M  V30 4603 H 466.209 0.620867 1.57935 0
M  V30 4604 H 464.981 1.11727 3.7501 0
M  V30 4605 H 464.604 -0.58804 3.93227 0
M  V30 4606 N 465.601 -1.54893 0.290851 0
M  V30 4607 C 466.549 -2.24579 -0.605576 0
M  V30 4608 C 467.543 -1.24824 -1.14522 0
M  V30 4609 O 468.749 -1.42706 -1.09704 0
M  V30 4610 H 465.124 -0.720946 -0.213872 0
M  V30 4611 H 467.095 -2.984 0.0048173 0
M  V30 4612 C 465.844 -2.99224 -1.77088 0
M  V30 4613 H 465.167 -3.75782 -1.36484 0
M  V30 4614 H 466.607 -3.51281 -2.3744 0
M  V30 4615 C 465.066 -2.05602 -2.66888 0
M  V30 4616 O 465.596 -1.61745 -3.67698 0
M  V30 4617 N 463.802 -1.71771 -2.34399 0
M  V30 4618 H 463.349 -2.07633 -1.52468 0
M  V30 4619 H 463.307 -1.09403 -2.94751 0
M  V30 4620 N 467.08 -0.0183926 -1.57589 0
M  V30 4621 C 468.491 0.521927 -1.79256 0
M  V30 4622 C 468.842 1.72885 -0.927636 0
M  V30 4623 O 467.967 2.15978 -0.135091 0
M  V30 4624 C 468.562 0.953632 -3.25102 0
M  V30 4625 C 467.121 1.43913 -3.47801 0
M  V30 4626 C 466.268 0.398837 -2.74417 0
M  V30 4627 H 469.219 -0.244485 -1.56805 0
M  V30 4628 H 469.24 1.81863 -3.34224 0
M  V30 4629 H 468.752 0.0750123 -3.88028 0
M  V30 4630 H 466.853 2.33804 -2.90115 0
M  V30 4631 H 466.966 1.45391 -4.56507 0
M  V30 4632 H 465.33 0.864572 -2.39577 0
M  V30 4633 H 466.113 -0.471132 -3.40052 0
M  V30 4634 N 468.558 1.5553 0.254621 0
M  V30 4635 C 469.506 1.9048 1.33492 0
M  V30 4636 C 470.5 0.78304 1.50216 0
M  V30 4637 O 471.706 0.967582 1.51782 0
M  V30 4638 H 468.081 0.604846 0.44684 0
M  V30 4639 H 470.052 2.80688 1.01275 0
M  V30 4640 C 468.801 2.20928 2.68489 0
M  V30 4641 H 468.124 3.06742 2.56417 0
M  V30 4642 H 469.564 2.49291 3.42972 0
M  V30 4643 C 468.023 1.023 3.20993 0
M  V30 4644 O 468.553 0.267027 4.00811 0
M  V30 4645 N 466.759 0.815714 2.78917 0
M  V30 4646 H 466.306 1.43217 2.14119 0
M  V30 4647 H 466.264 0.0236532 3.14391 0
M  V30 4648 N 470.036 -0.519951 1.48776 0
M  V30 4649 C 471.284 -1.2727 1.56993 0
M  V30 4650 C 471.605 -1.9339 0.25004 0
M  V30 4651 O 470.875 -1.81822 -0.729216 0
M  V30 4652 H 469.455 -0.472732 0.578389 0
M  V30 4653 H 472.117 -0.604234 1.85297 0
M  V30 4654 H 471.213 -2.04669 2.3562 0
M  V30 4655 N 471.514 -1.37532 -0.769588 0
M  V30 4656 C 472.791 -1.23392 -1.51768 0
M  V30 4657 C 473.171 0.17157 -2.10402 0
M  V30 4658 O 472.519 1.17943 -1.95708 0
M  V30 4659 C 472.729 -2.33163 -2.59685 0
M  V30 4660 C 474.077 -2.70809 -3.27028 0
M  V30 4661 O 475.101 -2.32355 -2.69981 0
M  V30 4662 O 473.96 -3.37066 -4.30173 0
M  V30 4663 H 471.054 -0.481617 -0.67229 0
M  V30 4664 H 473.6 -1.49318 -0.806368 0
M  V30 4665 H 472.372 -3.27273 -2.14494 0
M  V30 4666 H 471.995 -2.08713 -3.38415 0
M  V30 4667 N 472.992 0.995999 -1.22138 0
M  V30 4668 C 474.24 1.73167 -1.042 0
M  V30 4669 C 474.561 1.90329 0.42423 0
M  V30 4670 O 473.831 1.4607 1.30539 0
M  V30 4671 H 472.411 0.641593 -0.38258 0
M  V30 4672 H 475.073 1.19974 -1.53598 0
M  V30 4673 H 474.169 2.72734 -1.51731 0
M  V30 4674 N 474.47 1.03057 1.19235 0
M  V30 4675 C 475.886 0.747947 1.40989 0
M  V30 4676 C 476.086 -0.666752 1.90149 0
M  V30 4677 O 475.142 -1.43249 2.07933 0
M  V30 4678 C 476.455 1.7855 2.41951 0
M  V30 4679 C 478.003 1.80524 2.55695 0
M  V30 4680 C 478.478 2.83243 3.59913 0
M  V30 4681 N 479.969 2.8207 3.67411 0
M  V30 4682 C 480.704 3.58204 4.47747 0
M  V30 4683 N 480.2 4.44057 5.31775 0
M  V30 4684 N 481.993 3.46738 4.42413 0
M  V30 4685 H 474.144 1.94367 0.856468 0
M  V30 4686 H 476.407 0.840412 0.438647 0
M  V30 4687 H 476.113 2.79973 2.12857 0
M  V30 4688 H 475.987 1.6092 3.41152 0
M  V30 4689 H 478.374 0.79778 2.84112 0
M  V30 4690 H 478.455 2.02229 1.56643 0
M  V30 4691 H 478.099 3.84161 3.32239 0
M  V30 4692 H 478.029 2.58795 4.5862 0
M  V30 4693 H 480.52 2.19803 3.074 0
M  V30 4694 H 480.833 4.98884 5.90199 0
M  V30 4695 H 479.178 4.48129 5.3123 0
M  V30 4696 H 482.369 2.79077 3.75811 0
M  V30 4697 H 482.542 4.06322 5.04783 0
M  V30 4698 N 475.948 -1.35272 0.808662 0
M  V30 4699 C 477.188 -2.00534 0.395668 0
M  V30 4700 C 477.552 -1.62755 -1.01857 0
M  V30 4701 O 478.753 -2.20752 -1.53368 0
M  V30 4702 C 477.024 -3.52732 0.575771 0
M  V30 4703 S 478.583 -4.38067 0.253507 0
M  V30 4704 H 475.401 -0.694962 0.150165 0
M  V30 4705 H 478.003 -1.64823 1.05137 0
M  V30 4706 H 476.707 -3.77714 1.60499 0
M  V30 4707 H 476.238 -3.93285 -0.0951739 0
M  V30 4708 H 478.253 -4.87252 -0.938068 0
M  V30 4709 N 477.426 -0.562348 -1.47226 0
M  V30 4710 C 478.672 -0.0402761 -2.0276 0
M  V30 4711 C 479.005 1.30823 -1.43523 0
M  V30 4712 O 478.28 1.85249 -0.592705 0
M  V30 4713 C 478.563 0.047311 -3.60069 0
M  V30 4714 C 478.416 -1.32865 -4.29729 0
M  V30 4715 C 479.735 0.758182 -4.3352 0
M  V30 4716 H 476.854 -0.0161105 -0.736824 0
M  V30 4717 H 479.496 -0.725628 -1.75598 0
M  V30 4718 H 477.646 0.630986 -3.83342 0
M  V30 4719 H 479.318 -1.95593 -4.17781 0
M  V30 4720 H 477.561 -1.90195 -3.89882 0
M  V30 4721 H 478.232 -1.22004 -5.38349 0
M  V30 4722 H 480.708 0.262546 -4.15271 0
M  V30 4723 H 479.584 0.78844 -5.43208 0
M  V30 4724 H 479.845 1.81537 -4.03109 0
M  V30 4725 N 478.904 1.54736 -0.299062 0
M  V30 4726 C 480.132 2.04512 0.313447 0
M  V30 4727 C 480.547 1.17643 1.47667 0
M  V30 4728 O 479.904 0.20164 1.81383 0
M  V30 4729 C 479.955 3.53171 0.771542 0
M  V30 4730 O 479.676 4.36736 -0.345379 0
M  V30 4731 C 481.177 4.18936 1.4494 0
M  V30 4732 H 478.397 0.667507 0.0683784 0
M  V30 4733 H 480.941 1.99752 -0.438129 0
M  V30 4734 H 479.096 3.58298 1.47314 0
M  V30 4735 H 479.51 5.24499 0.0109219 0
M  V30 4736 H 480.984 5.24482 1.72111 0
M  V30 4737 H 481.461 3.68554 2.38883 0
M  V30 4738 H 482.067 4.17879 0.791028 0
M  V30 4739 N 480.382 0.0267497 1.57577 0
M  V30 4740 C 481.622 -0.65659 1.93567 0
M  V30 4741 C 481.986 -1.69429 0.903213 0
M  V30 4742 O 483.187 -2.42994 1.14923 0
M  V30 4743 C 481.458 -1.25912 3.34486 0
M  V30 4744 S 483.017 -1.96386 3.924 0
M  V30 4745 H 479.835 -0.216237 0.67732 0
M  V30 4746 H 482.437 0.0898475 1.95293 0
M  V30 4747 H 481.141 -0.491405 4.07447 0
M  V30 4748 H 480.672 -2.04291 3.36198 0
M  V30 4749 H 482.687 -3.24202 3.75643 0
M  V30 4750 N 481.861 -1.55662 -0.24637 0
M  V30 4751 C 483.11 -1.7672 -0.972254 0
M  V30 4752 C 483.423 -0.59078 -1.86465 0
M  V30 4753 O 484.629 -0.684391 -2.62732 0
M  V30 4754 C 483.085 -3.12869 -1.7788 0
M  V30 4755 C 482.693 -4.38161 -0.933768 0
M  V30 4756 C 484.437 -3.43265 -2.49738 0
M  V30 4757 C 482.344 -5.6534 -1.73623 0
M  V30 4758 H 481.274 -0.658795 -0.366749 0
M  V30 4759 H 483.925 -1.82092 -0.226902 0
M  V30 4760 H 482.307 -3.01606 -2.56612 0
M  V30 4761 H 483.481 -4.60413 -0.188736 0
M  V30 4762 H 481.796 -4.15102 -0.328488 0
M  V30 4763 H 484.393 -4.35501 -3.10231 0
M  V30 4764 H 484.736 -2.64614 -3.2138 0
M  V30 4765 H 485.269 -3.55746 -1.78016 0
M  V30 4766 H 482.008 -6.46814 -1.06354 0
M  V30 4767 H 481.528 -5.47188 -2.45653 0
M  V30 4768 H 483.207 -6.04616 -2.30323 0
M  V30 4769 N 483.339 0.512053 -1.4905 0
M  V30 4770 C 484.569 1.28928 -1.61434 0
M  V30 4771 C 484.977 1.87107 -0.280647 0
M  V30 4772 O 484.32 1.68024 0.742537 0
M  V30 4773 C 484.382 2.466 -2.61588 0
M  V30 4774 C 484.046 2.09375 -4.06216 0
M  V30 4775 C 485.043 1.63994 -4.93358 0
M  V30 4776 C 482.728 2.19348 -4.51876 0
M  V30 4777 C 484.722 1.29076 -6.24194 0
M  V30 4778 C 482.409 1.84041 -5.82728 0
M  V30 4779 C 483.407 1.38978 -6.68711 0
M  V30 4780 O 483.095 1.04144 -7.97126 0
M  V30 4781 H 482.827 0.397668 -0.546659 0
M  V30 4782 H 485.381 0.622507 -1.9574 0
M  V30 4783 H 483.611 3.16318 -2.22441 0
M  V30 4784 H 485.3 3.08642 -2.63619 0
M  V30 4785 H 486.066 1.55744 -4.59313 0
M  V30 4786 H 481.945 2.53376 -3.85125 0
M  V30 4787 H 485.489 0.938303 -6.91261 0
M  V30 4788 H 481.386 1.91938 -6.16304 0
M  V30 4789 H 482.154 1.17387 -8.10039 0
M  V30 4790 N 484.817 1.37938 0.762283 0
M  V30 4791 C 486.047 1.36685 1.54922 0
M  V30 4792 C 486.455 -0.0474099 1.89141 0
M  V30 4793 O 485.798 -1.02213 1.52638 0
M  V30 4794 C 485.86 2.14963 2.88152 0
M  V30 4795 C 485.524 3.6385 2.76518 0
M  V30 4796 C 486.521 4.57531 2.46904 0
M  V30 4797 C 484.206 4.07095 2.94243 0
M  V30 4798 C 486.2 5.92436 2.35156 0
M  V30 4799 C 483.887 5.42083 2.82116 0
M  V30 4800 C 484.885 6.34567 2.52614 0
M  V30 4801 O 484.573 7.67073 2.40529 0
M  V30 4802 H 484.305 0.469586 0.486276 0
M  V30 4803 H 486.859 1.82012 0.951876 0
M  V30 4804 H 485.089 1.6434 3.50042 0
M  V30 4805 H 486.778 2.06224 3.49609 0
M  V30 4806 H 487.544 4.25428 2.32886 0
M  V30 4807 H 483.423 3.35462 3.16206 0
M  V30 4808 H 486.967 6.64591 2.12049 0
M  V30 4809 H 482.864 5.73785 2.95704 0
M  V30 4810 H 483.632 7.77499 2.55807 0
M  V30 4811 N 486.295 -0.989507 1.22664 0
M  V30 4812 C 487.225 -2.09847 1.02404 0
M  V30 4813 C 488.206 -1.70007 -0.0561303 0
M  V30 4814 O 489.391 -1.93906 0.106748 0
M  V30 4815 C 486.521 -3.41996 0.604663 0
M  V30 4816 C 485.475 -3.95699 1.63115 0
M  V30 4817 C 484.801 -5.23936 1.0675 0
M  V30 4818 C 486.101 -4.25999 3.02196 0
M  V30 4819 H 487.795 -2.27054 1.95158 0
M  V30 4820 H 485.341 -1.09111 0.939727 0
M  V30 4821 H 487.294 -4.1899 0.45002 0
M  V30 4822 H 486.018 -3.24626 -0.35855 0
M  V30 4823 H 484.677 -3.2084 1.77362 0
M  V30 4824 H 484.325 -5.02909 0.0955422 0
M  V30 4825 H 484.025 -5.60833 1.75328 0
M  V30 4826 H 485.549 -6.0356 0.924516 0
M  V30 4827 H 486.963 -4.93777 2.91303 0
M  V30 4828 H 485.36 -4.74076 3.67929 0
M  V30 4829 H 486.43 -3.33636 3.51873 0
M  V30 4830 N 487.773 -1.03688 -1.18687 0
M  V30 4831 C 488.721 -0.618292 -2.24232 0
M  V30 4832 C 489.715 0.353045 -1.6568 0
M  V30 4833 O 490.921 0.220749 -1.78641 0
M  V30 4834 H 487.296 -0.181711 -0.729716 0
M  V30 4835 H 489.267 -1.51893 -2.56848 0
M  V30 4836 C 488.016 0.00677342 -3.47699 0
M  V30 4837 H 487.339 -0.731692 -3.93047 0
M  V30 4838 H 488.779 0.262492 -4.23187 0
M  V30 4839 C 487.238 1.25572 -3.12623 0
M  V30 4840 O 487.768 2.34691 -3.26011 0
M  V30 4841 N 485.974 1.14755 -2.66982 0
M  V30 4842 H 485.521 0.259601 -2.56289 0
M  V30 4843 H 485.479 1.98412 -2.43885 0
M  V30 4844 N 489.251 1.34841 -0.815825 0
M  V30 4845 C 490.198 2.29644 -0.230664 0
M  V30 4846 C 491.168 1.53253 0.640533 0
M  V30 4847 O 492.353 1.81653 0.583672 0
M  V30 4848 C 489.493 3.39715 0.607275 0
M  V30 4849 C 488.606 4.31056 -0.28538 0
M  V30 4850 C 487.741 5.28225 0.561446 0
M  V30 4851 C 486.78 6.11204 -0.331035 0
M  V30 4852 N 485.917 7.00483 0.476302 0
M  V30 4853 H 490.757 2.79095 -1.0445 0
M  V30 4854 H 488.294 1.37351 -0.526595 0
M  V30 4855 H 490.252 4.02208 1.10835 0
M  V30 4856 H 488.882 2.91517 1.38629 0
M  V30 4857 H 487.934 3.69487 -0.904621 0
M  V30 4858 H 489.246 4.89239 -0.97193 0
M  V30 4859 H 488.4 5.96135 1.12728 0
M  V30 4860 H 487.139 4.70562 1.28153 0
M  V30 4861 H 486.144 5.42232 -0.909069 0
M  V30 4862 H 487.369 6.70947 -1.04912 0
M  V30 4863 H 485.315 6.45296 1.18019 0
M  V30 4864 H 485.232 7.55847 -0.152008 0
M  V30 4865 H 486.5 7.7273 1.02512 0
M  V30 4866 N 490.729 0.570148 1.46925 0
M  V30 4867 C 492.006 -0.0153259 1.95594 0
M  V30 4868 C 492.386 -1.47232 1.51281 0
M  V30 4869 O 491.734 -2.15574 0.757624 0
M  V30 4870 C 491.944 0.143624 3.48704 0
M  V30 4871 C 493.292 0.00494484 4.246 0
M  V30 4872 O 494.316 0.0718214 3.56128 0
M  V30 4873 O 493.175 -0.141175 5.46318 0
M  V30 4874 H 490.269 -0.0568819 0.825041 0
M  V30 4875 H 492.815 0.637583 1.57267 0
M  V30 4876 H 491.587 1.15699 3.73804 0
M  V30 4877 H 491.21 -0.5463 3.93829 0
M  V30 4878 N 492.207 -1.54576 0.307264 0
M  V30 4879 C 493.453 -2.01272 -0.293453 0
M  V30 4880 C 493.808 -1.19178 -1.51044 0
M  V30 4881 O 493.101 -0.261704 -1.89804 0
M  V30 4882 C 493.295 -3.50572 -0.695253 0
M  V30 4883 C 493.124 -4.47118 0.481249 0
M  V30 4884 C 491.894 -4.958 0.97524 0
M  V30 4885 C 494.092 -4.96853 1.32823 0
M  V30 4886 N 492.074 -5.76212 2.11785 0
M  V30 4887 C 493.445 -5.75028 2.31824 0
M  V30 4888 C 495.5 -4.79026 1.35788 0
M  V30 4889 C 494.203 -6.37276 3.33574 0
M  V30 4890 C 496.229 -5.42097 2.364 0
M  V30 4891 C 495.591 -6.2011 3.34129 0
M  V30 4892 H 491.69 -0.778709 -0.0716705 0
M  V30 4893 H 494.274 -1.89695 0.438602 0
M  V30 4894 H 492.445 -3.62427 -1.39647 0
M  V30 4895 H 494.177 -3.84056 -1.27604 0
M  V30 4896 H 490.932 -4.70405 0.549184 0
M  V30 4897 H 491.356 -6.21101 2.69375 0
M  V30 4898 H 495.998 -4.18288 0.616021 0
M  V30 4899 H 493.716 -6.97144 4.08676 0
M  V30 4900 H 497.302 -5.30229 2.39475 0
M  V30 4901 H 496.182 -6.68049 4.10707 0
M  V30 4902 N 493.685 -0.035106 -1.57561 0
M  V30 4903 C 494.962 0.681212 -1.83354 0
M  V30 4904 C 495.342 1.89986 -0.920252 0
M  V30 4905 O 494.69 2.28489 0.0226815 0
M  V30 4906 C 494.9 1.05376 -3.32712 0
M  V30 4907 C 496.248 1.44286 -3.99333 0
M  V30 4908 O 497.272 1.14656 -3.37242 0
M  V30 4909 O 496.131 1.99518 -5.08778 0
M  V30 4910 H 493.225 0.334741 -0.756226 0
M  V30 4911 H 495.771 -0.0632448 -1.69582 0
M  V30 4912 H 494.543 0.186668 -3.90854 0
M  V30 4913 H 494.166 1.85619 -3.51613 0
M  V30 4914 N 495.163 1.55791 0.238111 0
M  V30 4915 C 496.126 1.90239 1.27835 0
M  V30 4916 C 497.126 0.779552 1.4064 0
M  V30 4917 O 498.316 1.04747 1.3919 0
M  V30 4918 C 495.448 2.13859 2.65475 0
M  V30 4919 H 496.641 2.83262 0.985034 0
M  V30 4920 H 494.194 1.48818 0.477799 0
M  V30 4921 H 494.929 1.23334 2.99932 0
M  V30 4922 H 494.714 2.95643 2.57561 0
M  V30 4923 H 496.204 2.41664 3.40571 0
M  V30 4924 N 496.642 -0.504142 1.49319 0
M  V30 4925 C 497.589 -1.60603 1.65756 0
M  V30 4926 C 498.559 -1.58425 0.499082 0
M  V30 4927 O 499.744 -1.76459 0.725728 0
M  V30 4928 C 496.884 -2.98764 1.72726 0
M  V30 4929 C 495.997 -3.10982 2.99857 0
M  V30 4930 C 495.132 -4.39857 2.97824 0
M  V30 4931 C 494.171 -4.45697 4.19548 0
M  V30 4932 N 493.308 -5.65995 4.15444 0
M  V30 4933 H 498.148 -1.45895 2.59843 0
M  V30 4934 H 495.685 -0.709891 1.28837 0
M  V30 4935 H 497.643 -3.78839 1.74747 0
M  V30 4936 H 496.273 -3.12183 0.821075 0
M  V30 4937 H 495.325 -2.23991 3.07461 0
M  V30 4938 H 496.637 -3.11157 3.89849 0
M  V30 4939 H 495.791 -5.2825 2.98391 0
M  V30 4940 H 494.53 -4.42242 2.05604 0
M  V30 4941 H 493.535 -3.55707 4.19229 0
M  V30 4942 H 494.76 -4.4503 5.12957 0
M  V30 4943 H 492.706 -5.69229 3.26059 0
M  V30 4944 H 492.623 -5.67773 4.99169 0
M  V30 4945 H 493.891 -6.56604 4.20109 0
M  V30 4946 N 498.12 -1.38341 -0.754957 0
M  V30 4947 C 499.366 -1.34672 -1.51628 0
M  V30 4948 C 499.699 0.0636036 -1.94096 0
M  V30 4949 O 498.974 1.0245 -1.6533 0
M  V30 4950 C 499.257 -2.30116 -2.76981 0
M  V30 4951 C 499.11 -3.80003 -2.4066 0
M  V30 4952 C 500.429 -2.23715 -3.78998 0
M  V30 4953 H 497.548 -0.490517 -0.550056 0
M  V30 4954 H 500.19 -1.69178 -0.864807 0
M  V30 4955 H 498.34 -2.00821 -3.3257 0
M  V30 4956 H 500.012 -4.19966 -1.90856 0
M  V30 4957 H 498.255 -3.97751 -1.73137 0
M  V30 4958 H 498.926 -4.42244 -3.30339 0
M  V30 4959 H 501.402 -2.49574 -3.32945 0
M  V30 4960 H 500.278 -2.9261 -4.64403 0
M  V30 4961 H 500.539 -1.23554 -4.24484 0
M  V30 4962 N 499.598 0.982988 -1.23187 0
M  V30 4963 C 500.823 1.76455 -1.08988 0
M  V30 4964 C 501.248 1.84726 0.354691 0
M  V30 4965 O 500.606 1.30699 1.25649 0
M  V30 4966 C 500.654 3.17094 -1.71708 0
M  V30 4967 O 499.758 4.00648 -0.977477 0
M  V30 4968 H 499.099 0.542988 -0.382177 0
M  V30 4969 H 501.629 1.23413 -1.63188 0
M  V30 4970 H 501.639 3.67684 -1.76841 0
M  V30 4971 H 500.314 3.10389 -2.76823 0
M  V30 4972 H 498.891 3.59161 -1.0029 0
M  V30 4973 N 501.076 1.04316 1.18135 0
M  V30 4974 C 502.324 0.746542 1.87806 0
M  V30 4975 C 502.645 -0.728082 1.80898 0
M  V30 4976 O 501.915 -1.52554 1.22899 0
M  V30 4977 H 500.495 0.273157 0.695265 0
M  V30 4978 H 503.157 1.32044 1.43354 0
M  V30 4979 H 502.253 1.05362 2.93778 0
M  V30 4980 N 502.554 -1.34406 0.822964 0
M  V30 4981 C 503.802 -1.97892 0.410245 0
M  V30 4982 C 504.123 -1.65567 -1.03017 0
M  V30 4983 O 503.393 -0.94642 -1.71522 0
M  V30 4984 H 501.973 -0.732049 0.148707 0
M  V30 4985 H 504.635 -1.64043 1.05242 0
M  V30 4986 H 503.731 -3.07579 0.529284 0
M  V30 4987 N 504.032 -0.577932 -1.46621 0
M  V30 4988 C 505.281 -0.0594281 -2.01612 0
M  V30 4989 C 505.594 1.30663 -1.45556 0
M  V30 4990 O 506.8 1.91621 -1.92337 0
M  V30 4991 C 505.256 -0.0556666 -3.59857 0
M  V30 4992 C 504.864 -1.41975 -4.24908 0
M  V30 4993 C 506.608 0.409143 -4.22524 0
M  V30 4994 C 504.515 -1.37397 -5.75218 0
M  V30 4995 H 503.445 -0.0184469 -0.753774 0
M  V30 4996 H 506.096 -0.728869 -1.68404 0
M  V30 4997 H 504.478 0.679843 -3.90121 0
M  V30 4998 H 505.652 -2.17461 -4.0626 0
M  V30 4999 H 503.967 -1.82419 -3.74316 0
M  V30 5000 H 506.564 0.46211 -5.32699 0
M  V30 5001 H 506.907 1.42565 -3.91128 0
M  V30 5002 H 507.44 -0.272152 -3.96868 0
M  V30 5003 H 504.179 -2.36714 -6.11267 0
M  V30 5004 H 503.699 -0.661239 -5.96144 0
M  V30 5005 H 505.378 -1.08484 -6.3784 0
M  V30 5006 N 505.51 1.54411 -0.315457 0
M  V30 5007 C 506.44 2.27002 0.547039 0
M  V30 5008 C 507.421 1.27492 1.12605 0
M  V30 5009 O 508.606 1.5629 1.15269 0
M  V30 5010 C 505.736 3.02171 1.71201 0
M  V30 5011 C 504.69 4.0895 1.26268 0
M  V30 5012 C 504.016 4.71915 2.51396 0
M  V30 5013 C 505.316 5.20891 0.383419 0
M  V30 5014 H 507.01 2.99343 -0.0584517 0
M  V30 5015 H 504.556 1.4397 -0.0295527 0
M  V30 5016 H 506.509 3.51681 2.32161 0
M  V30 5017 H 505.233 2.27433 2.34397 0
M  V30 5018 H 503.892 3.60312 0.676062 0
M  V30 5019 H 503.54 3.93801 3.12937 0
M  V30 5020 H 503.24 5.44039 2.22026 0
M  V30 5021 H 504.764 5.24195 3.13133 0
M  V30 5022 H 506.178 5.66206 0.899082 0
M  V30 5023 H 504.575 5.99821 0.182857 0
M  V30 5024 H 505.645 4.81324 -0.587821 0
M  V30 5025 N 506.988 0.0434614 1.5754 0
M  V30 5026 C 508.404 -0.313039 1.565 0
M  V30 5027 C 508.604 -1.71954 1.05043 0
M  V30 5028 O 507.66 -2.425 0.703564 0
M  V30 5029 C 508.973 -0.148544 3.00333 0
M  V30 5030 C 510.521 -0.220231 3.12224 0
M  V30 5031 C 510.996 -0.0843565 4.57922 0
M  V30 5032 N 512.487 -0.140881 4.62986 0
M  V30 5033 C 513.222 -0.0597443 5.73369 0
M  V30 5034 N 512.718 0.0733004 6.92761 0
M  V30 5035 N 514.511 -0.11477 5.61983 0
M  V30 5036 H 506.662 0.96303 1.89313 0
M  V30 5037 H 508.925 0.373164 0.871466 0
M  V30 5038 H 508.631 0.820894 3.41986 0
M  V30 5039 H 508.505 -0.912798 3.65989 0
M  V30 5040 H 510.892 -1.18014 2.70475 0
M  V30 5041 H 510.973 0.574646 2.49262 0
M  V30 5042 H 510.617 0.872192 5.00355 0
M  V30 5043 H 510.547 -0.898281 5.18882 0
M  V30 5044 H 513.038 -0.243273 3.77116 0
M  V30 5045 H 513.351 0.128128 7.72694 0
M  V30 5046 H 511.696 0.10828 6.94916 0
M  V30 5047 H 514.887 -0.217212 4.67596 0
M  V30 5048 H 515.06 -0.0480779 6.47982 0
M  V30 5049 N 508.466 -1.55915 -0.229846 0
M  V30 5050 C 509.715 -1.77742 -0.953455 0
M  V30 5051 C 510.028 -0.610524 -1.85828 0
M  V30 5052 O 511.234 -0.712219 -2.61992 0
M  V30 5053 C 509.69 -3.14738 -1.74551 0
M  V30 5054 C 509.298 -4.39126 -0.887242 0
M  V30 5055 C 511.042 -3.45895 -2.46084 0
M  V30 5056 C 508.949 -5.67149 -1.67617 0
M  V30 5057 H 507.879 -0.662648 -0.359741 0
M  V30 5058 H 510.53 -1.82322 -0.207576 0
M  V30 5059 H 508.912 -3.04311 -2.53399 0
M  V30 5060 H 510.086 -4.60588 -0.139892 0
M  V30 5061 H 508.401 -4.15427 -0.284443 0
M  V30 5062 H 510.998 -4.38767 -3.05594 0
M  V30 5063 H 511.341 -2.68007 -3.18556 0
M  V30 5064 H 511.874 -3.57614 -1.74233 0
M  V30 5065 H 508.613 -6.47906 -0.994881 0
M  V30 5066 H 508.133 -5.49763 -2.39836 0
M  V30 5067 H 509.812 -6.07025 -2.23898 0
M  V30 5068 N 509.944 0.496216 -1.49584 0
M  V30 5069 C 511.191 1.25003 -1.59312 0
M  V30 5070 C 511.519 1.92445 -0.28198 0
M  V30 5071 O 510.774 1.81557 0.730452 0
M  V30 5072 C 511.073 2.3359 -2.705 0
M  V30 5073 C 510.739 1.83574 -4.11839 0
M  V30 5074 C 509.401 1.69653 -4.50302 0
M  V30 5075 C 511.753 1.46193 -5.00277 0
M  V30 5076 C 509.081 1.16736 -5.74969 0
M  V30 5077 C 511.433 0.947265 -6.25468 0
M  V30 5078 C 510.097 0.794485 -6.62755 0
M  V30 5079 H 509.367 0.45742 -0.582965 0
M  V30 5080 H 512.014 0.549996 -1.83432 0
M  V30 5081 H 510.319 3.09401 -2.40371 0
M  V30 5082 H 512.016 2.91627 -2.75235 0
M  V30 5083 H 508.606 1.9537 -3.81482 0
M  V30 5084 H 512.79 1.55793 -4.71214 0
M  V30 5085 H 508.046 1.03623 -6.02555 0
M  V30 5086 H 512.22 0.648846 -6.93371 0
M  V30 5087 H 509.847 0.382271 -7.59238 0
M  V30 5088 N 511.423 1.38739 0.74761 0
M  V30 5089 C 512.834 1.31507 1.32524 0
M  V30 5090 C 513.185 -0.0263963 1.96182 0
M  V30 5091 O 512.31 -0.92849 1.95469 0
M  V30 5092 C 512.905 2.38162 2.40966 0
M  V30 5093 C 511.464 2.34489 2.94434 0
M  V30 5094 C 510.611 2.20712 1.67873 0
M  V30 5095 H 513.562 1.4901 0.546043 0
M  V30 5096 H 513.583 2.04222 3.21051 0
M  V30 5097 H 513.095 3.35783 1.94605 0
M  V30 5098 H 511.196 1.40467 3.45108 0
M  V30 5099 H 511.309 3.28861 3.48407 0
M  V30 5100 H 509.673 1.67667 1.91729 0
M  V30 5101 H 510.456 3.20285 1.23582 0
M  V30 5102 N 512.901 -0.976442 1.23707 0
M  V30 5103 C 513.811 -2.10359 1.03856 0
M  V30 5104 C 514.827 -1.73991 -0.0180919 0
M  V30 5105 O 516.003 -2.0061 0.178211 0
M  V30 5106 C 513.068 -3.40809 0.636387 0
M  V30 5107 C 512.129 -3.91179 1.76854 0
M  V30 5108 C 511.362 -5.15404 1.38546 0
M  V30 5109 O 511.585 -5.69754 0.27142 0
M  V30 5110 O 510.519 -5.5994 2.20797 0
M  V30 5111 H 514.345 -2.29997 1.98331 0
M  V30 5112 H 511.93 -1.08742 1.02448 0
M  V30 5113 H 513.812 -4.19269 0.423223 0
M  V30 5114 H 512.487 -3.22493 -0.279322 0
M  V30 5115 H 511.394 -3.13819 2.03638 0
M  V30 5116 H 512.727 -4.13958 2.6627 0
M  V30 5117 N 514.379 -1.04941 -1.1758 0
M  V30 5118 C 515.627 -0.756492 -1.87408 0
M  V30 5119 C 515.948 0.718478 -1.81281 0
M  V30 5120 O 515.218 1.519 -1.23706 0
M  V30 5121 H 513.798 -0.276841 -0.693807 0
M  V30 5122 H 516.46 -1.32803 -1.42652 0
M  V30 5123 H 515.556 -1.06918 -2.93215 0
M  V30 5124 N 515.857 1.33968 -0.830081 0
M  V30 5125 C 516.804 2.29387 -0.255008 0
M  V30 5126 C 517.774 1.53923 0.624243 0
M  V30 5127 O 518.959 1.82262 0.564372 0
M  V30 5128 C 516.099 3.4034 0.571209 0
M  V30 5129 C 515.212 4.30729 -0.331083 0
M  V30 5130 C 514.347 5.2879 0.505389 0
M  V30 5131 C 513.386 6.10819 -0.395843 0
M  V30 5132 N 512.523 7.00948 0.401979 0
M  V30 5133 H 517.363 2.77972 -1.07404 0
M  V30 5134 H 514.9 1.36785 -0.541133 0
M  V30 5135 H 516.858 4.03361 1.06562 0
M  V30 5136 H 515.488 2.9297 1.35529 0
M  V30 5137 H 514.54 3.68507 -0.943759 0
M  V30 5138 H 515.852 4.88181 -1.02377 0
M  V30 5139 H 515.006 5.97297 1.06399 0
M  V30 5140 H 513.745 4.71894 1.23155 0
M  V30 5141 H 512.75 5.41238 -0.966529 0
M  V30 5142 H 513.975 6.69797 -1.12023 0
M  V30 5143 H 511.921 6.46512 1.11168 0
M  V30 5144 H 511.838 7.55643 -0.232167 0
M  V30 5145 H 513.106 7.73774 0.943102 0
M  V30 5146 N 517.335 0.585699 1.46312 0
M  V30 5147 C 518.298 -0.135673 2.28798 0
M  V30 5148 C 519.298 -0.815988 1.38558 0
M  V30 5149 O 520.488 -0.667487 1.60904 0
M  V30 5150 C 517.62 -1.20163 3.1902 0
M  V30 5151 H 518.813 0.589257 2.94054 0
M  V30 5152 H 516.366 0.343794 1.52472 0
M  V30 5153 H 517.101 -1.95804 2.58517 0
M  V30 5154 H 516.886 -0.718282 3.85465 0
M  V30 5155 H 518.376 -1.70749 3.81096 0
M  V30 5156 N 518.813 -1.54241 0.323641 0
M  V30 5157 C 519.745 -2.21836 -0.576311 0
M  V30 5158 C 520.758 -1.21837 -1.07979 0
M  V30 5159 O 521.947 -1.48306 -0.99336 0
M  V30 5160 C 519.047 -2.86923 -1.80356 0
M  V30 5161 C 518.22 -4.1306 -1.43875 0
M  V30 5162 C 517.279 -4.6174 -2.52353 0
M  V30 5163 O 516.305 -5.26421 -2.16494 0
M  V30 5164 N 517.507 -4.35974 -3.83284 0
M  V30 5165 H 520.272 -2.997 0.00247987 0
M  V30 5166 H 517.833 -1.61233 0.146848 0
M  V30 5167 H 519.825 -3.16414 -2.52318 0
M  V30 5168 H 518.395 -2.12765 -2.29019 0
M  V30 5169 H 517.615 -3.90334 -0.550752 0
M  V30 5170 H 518.903 -4.95148 -1.17071 0
M  V30 5171 H 518.301 -3.84203 -4.15216 0
M  V30 5172 H 516.858 -4.70119 -4.51477 0
M  V30 5173 N 520.291 -0.0518155 -1.57515 0
M  V30 5174 C 521.538 0.621823 -1.92716 0
M  V30 5175 C 521.866 1.70813 -0.930229 0
M  V30 5176 O 521.121 1.95616 0.0573708 0
M  V30 5177 C 521.42 1.25607 -3.34601 0
M  V30 5178 C 521.086 0.297901 -4.49915 0
M  V30 5179 C 519.748 0.034243 -4.81188 0
M  V30 5180 C 522.1 -0.358738 -5.19964 0
M  V30 5181 C 519.428 -0.893479 -5.79857 0
M  V30 5182 C 521.78 -1.27466 -6.19625 0
M  V30 5183 C 520.444 -1.54698 -6.49326 0
M  V30 5184 H 519.714 0.227541 -0.705199 0
M  V30 5185 H 522.361 -0.118432 -1.91133 0
M  V30 5186 H 520.666 2.07161 -3.32553 0
M  V30 5187 H 522.363 1.78424 -3.59118 0
M  V30 5188 H 518.953 0.513581 -4.25512 0
M  V30 5189 H 523.137 -0.168133 -4.96015 0
M  V30 5190 H 518.393 -1.11193 -6.01204 0
M  V30 5191 H 522.567 -1.78953 -6.73015 0
M  V30 5192 H 520.194 -2.26748 -7.25596 0
M  V30 5193 N 521.769 1.56035 0.221574 0
M  V30 5194 C 522.732 1.91584 1.2581 0
M  V30 5195 C 523.732 0.794425 1.39805 0
M  V30 5196 O 524.922 1.06217 1.38071 0
M  V30 5197 C 522.054 2.16663 2.63192 0
M  V30 5198 H 523.247 2.8429 0.954935 0
M  V30 5199 H 520.8 1.49316 0.461988 0
M  V30 5200 H 521.535 1.26508 2.98607 0
M  V30 5201 H 521.32 2.98358 2.5441 0
M  V30 5202 H 522.81 2.45262 3.37988 0
M  V30 5203 N 523.247 -0.488276 1.49845 0
M  V30 5204 C 524.524 -1.24959 1.50481 0
M  V30 5205 C 524.904 -2.09735 0.239698 0
M  V30 5206 O 524.252 -2.14865 -0.777524 0
M  V30 5207 C 524.462 -2.0954 2.79095 0
M  V30 5208 C 525.81 -2.68305 3.29086 0
M  V30 5209 O 526.834 -2.19797 2.80299 0
M  V30 5210 O 525.693 -3.56643 4.14087 0
M  V30 5211 H 522.787 -0.566133 0.602845 0
M  V30 5212 H 525.333 -0.501504 1.6212 0
M  V30 5213 H 524.105 -1.46958 3.62656 0
M  V30 5214 H 523.728 -2.91517 2.70377 0
M  V30 5215 N 524.725 -1.39134 -0.740242 0
M  V30 5216 C 525.974 -1.35384 -1.49512 0
M  V30 5217 C 526.287 0.04919 -1.95538 0
M  V30 5218 O 527.493 0.209257 -2.70692 0
M  V30 5219 C 525.949 -2.37812 -2.70136 0
M  V30 5220 C 525.557 -3.83804 -2.31081 0
M  V30 5221 C 527.301 -2.4313 -3.47977 0
M  V30 5222 C 525.208 -4.77886 -3.48395 0
M  V30 5223 H 524.138 -0.503297 -0.561434 0
M  V30 5224 H 526.789 -1.64754 -0.807974 0
M  V30 5225 H 525.171 -2.01505 -3.40899 0
M  V30 5226 H 526.345 -4.29123 -1.67898 0
M  V30 5227 H 524.66 -3.81732 -1.66343 0
M  V30 5228 H 527.257 -3.10614 -4.35228 0
M  V30 5229 H 527.6 -1.45423 -3.90074 0
M  V30 5230 H 528.133 -2.78304 -2.84239 0
M  V30 5231 H 524.872 -5.76836 -3.11353 0
M  V30 5232 H 524.392 -4.3725 -4.10576 0
M  V30 5233 H 526.071 -4.96538 -4.148 0
M  V30 5234 N 526.204 0.969867 -1.24223 0
M  V30 5235 C 527.114 2.09806 -1.0497 0
M  V30 5236 C 528.13 1.73998 0.00886455 0
M  V30 5237 O 529.306 2.00513 -0.188848 0
M  V30 5238 C 526.371 3.40467 -0.654452 0
M  V30 5239 C 525.432 3.90236 -1.78926 0
M  V30 5240 C 524.665 5.14662 -1.41277 0
M  V30 5241 O 524.888 5.69602 -0.301632 0
M  V30 5242 O 523.822 5.58761 -2.23763 0
M  V30 5243 H 527.648 2.28942 -1.99548 0
M  V30 5244 H 525.233 1.08197 -1.03023 0
M  V30 5245 H 527.115 4.19039 -0.445452 0
M  V30 5246 H 525.79 3.22636 0.262216 0
M  V30 5247 H 524.697 3.12735 -2.05299 0
M  V30 5248 H 526.03 4.1254 -2.68462 0
M  V30 5249 N 527.682 1.05563 1.17022 0
M  V30 5250 C 529.093 0.793475 1.69 0
M  V30 5251 C 529.444 -0.683882 1.83895 0
M  V30 5252 O 528.569 -1.53116 1.5292 0
M  V30 5253 C 529.164 1.43376 3.06967 0
M  V30 5254 C 527.723 1.21956 3.56095 0
M  V30 5255 C 526.87 1.51494 2.3226 0
M  V30 5256 H 529.821 1.22008 1.01487 0
M  V30 5257 H 529.842 0.845068 3.70997 0
M  V30 5258 H 529.354 2.50899 2.96093 0
M  V30 5259 H 527.455 0.163749 3.7224 0
M  V30 5260 H 527.568 1.92713 4.38633 0
M  V30 5261 H 525.932 0.935175 2.3691 0
M  V30 5262 H 526.715 2.60159 2.23992 0
M  V30 5263 N 529.16 -1.33526 0.837174 0
M  V30 5264 C 530.107 -2.29248 0.267169 0
M  V30 5265 C 531.077 -1.54252 -0.616071 0
M  V30 5266 O 532.262 -1.82559 -0.554699 0
M  V30 5267 C 529.402 -3.40638 -0.553152 0
M  V30 5268 C 528.515 -4.30548 0.353921 0
M  V30 5269 C 527.65 -5.29051 -0.477339 0
M  V30 5270 C 526.689 -6.106 0.42823 0
M  V30 5271 N 525.826 -7.01152 -0.364801 0
M  V30 5272 H 530.666 -2.77398 1.08877 0
M  V30 5273 H 528.203 -1.36496 0.54838 0
M  V30 5274 H 530.161 -4.03921 -1.04422 0
M  V30 5275 H 528.791 -2.93685 -1.33973 0
M  V30 5276 H 527.843 -3.68001 0.963289 0
M  V30 5277 H 529.155 -4.87631 1.04964 0
M  V30 5278 H 528.309 -5.97853 -1.0323 0
M  V30 5279 H 527.048 -4.72541 -1.2065 0
M  V30 5280 H 526.053 -5.40718 0.995219 0
M  V30 5281 H 527.278 -6.69193 1.15573 0
M  V30 5282 H 525.224 -6.47092 -1.07738 0
M  V30 5283 H 525.141 -7.5551 0.272238 0
M  V30 5284 H 526.409 -7.74263 -0.902054 0
M  V30 5285 N 530.638 -0.59345 -1.46 0
M  V30 5286 C 531.885 -0.0831523 -2.02329 0
M  V30 5287 C 532.213 1.28093 -1.46364 0
M  V30 5288 O 531.468 1.85526 -0.622793 0
M  V30 5289 C 531.767 0.021178 -3.57394 0
M  V30 5290 C 531.433 -1.27671 -4.32448 0
M  V30 5291 C 530.095 -1.63227 -4.5267 0
M  V30 5292 C 532.447 -2.13511 -4.7546 0
M  V30 5293 C 529.775 -2.84401 -5.1316 0
M  V30 5294 C 532.127 -3.33922 -5.37289 0
M  V30 5295 C 530.791 -3.69747 -5.55737 0
M  V30 5296 H 530.061 -0.0304276 -0.740375 0
M  V30 5297 H 532.708 -0.772239 -1.75239 0
M  V30 5298 H 531.013 0.793454 -3.83682 0
M  V30 5299 H 532.71 0.431942 -3.98667 0
M  V30 5300 H 529.3 -0.989937 -4.17011 0
M  V30 5301 H 533.484 -1.87344 -4.59582 0
M  V30 5302 H 528.74 -3.12282 -5.25633 0
M  V30 5303 H 532.914 -4.00698 -5.69574 0
M  V30 5304 H 530.541 -4.6373 -6.02377 0
M  V30 5305 N 532.116 1.54067 -0.331816 0
M  V30 5306 C 533.393 1.92915 0.322955 0
M  V30 5307 C 533.773 1.26225 1.69205 0
M  V30 5308 O 533.121 0.408919 2.24811 0
M  V30 5309 C 533.331 3.46619 0.406946 0
M  V30 5310 C 534.679 4.19386 0.663339 0
M  V30 5311 O 535.703 3.5282 0.489536 0
M  V30 5312 O 534.562 5.37288 0.999193 0
M  V30 5313 H 531.656 0.805808 0.186016 0
M  V30 5314 H 534.202 1.65342 -0.382135 0
M  V30 5315 H 532.974 3.87354 -0.554287 0
M  V30 5316 H 532.597 3.80324 1.15929 0
M  V30 5317 N 533.594 0.0601682 1.57485 0
M  V30 5318 C 535.01 -0.296422 1.56823 0
M  V30 5319 C 535.21 -1.70831 1.0686 0
M  V30 5320 O 534.266 -2.4174 0.729245 0
M  V30 5321 C 535.579 -0.116681 3.00474 0
M  V30 5322 C 537.127 -0.187103 3.1244 0
M  V30 5323 C 537.602 -0.035783 4.57986 0
M  V30 5324 N 539.093 -0.0917676 4.63109 0
M  V30 5325 C 539.828 0.00107251 5.734 0
M  V30 5326 N 539.324 0.146773 6.92645 0
M  V30 5327 N 541.117 -0.0551577 5.62073 0
M  V30 5328 H 533.268 0.983055 1.88281 0
M  V30 5329 H 535.531 0.382386 0.867459 0
M  V30 5330 H 535.237 0.85712 3.41096 0
M  V30 5331 H 535.111 -0.873929 3.66936 0
M  V30 5332 H 537.498 -1.15138 2.71712 0
M  V30 5333 H 537.579 0.601052 2.48638 0
M  V30 5334 H 537.223 0.925212 4.99402 0
M  V30 5335 H 537.153 -0.843196 5.19806 0
M  V30 5336 H 539.644 -0.203261 3.77353 0
M  V30 5337 H 539.957 0.210076 7.72514 0
M  V30 5338 H 538.302 0.181979 6.94762 0
M  V30 5339 H 541.493 -0.167605 4.678 0
M  V30 5340 H 541.666 0.020652 6.47997 0
M  V30 5341 N 535.072 -1.5615 -0.213296 0
M  V30 5342 C 536.002 -1.96109 -1.26742 0
M  V30 5343 C 536.983 -0.830448 -1.48451 0
M  V30 5344 O 538.168 -1.09339 -1.60495 0
M  V30 5345 C 535.298 -2.28492 -2.61551 0
M  V30 5346 C 534.252 -3.44124 -2.54485 0
M  V30 5347 C 533.578 -3.62134 -3.93399 0
M  V30 5348 C 534.878 -4.78855 -2.08556 0
M  V30 5349 H 536.572 -2.84412 -0.935434 0
M  V30 5350 H 534.118 -1.36836 -0.44854 0
M  V30 5351 H 536.071 -2.55039 -3.3546 0
M  V30 5352 H 534.795 -1.37052 -2.96453 0
M  V30 5353 H 533.454 -3.17639 -1.83033 0
M  V30 5354 H 533.102 -2.68055 -4.25623 0
M  V30 5355 H 532.802 -4.39913 -3.89551 0
M  V30 5356 H 534.326 -3.91038 -4.68958 0
M  V30 5357 H 535.74 -5.04552 -2.72213 0
M  V30 5358 H 534.137 -5.59975 -2.1575 0
M  V30 5359 H 535.207 -4.73657 -1.03811 0
M  V30 5360 N 536.55 0.480323 -1.50102 0
M  V30 5361 C 537.48 1.58769 -1.71215 0
M  V30 5362 C 538.461 1.60583 -0.560997 0
M  V30 5363 O 539.646 1.76996 -0.799127 0
M  V30 5364 C 536.776 2.97148 -1.79778 0
M  V30 5365 C 535.73 3.10201 -2.94888 0
M  V30 5366 C 535.056 4.50137 -2.88584 0
M  V30 5367 C 536.356 2.88283 -4.35534 0
M  V30 5368 H 538.05 1.41354 -2.6393 0
M  V30 5369 H 535.596 0.678591 -1.27008 0
M  V30 5370 H 537.549 3.74536 -1.93133 0
M  V30 5371 H 536.273 3.15699 -0.836772 0
M  V30 5372 H 534.932 2.35244 -2.81169 0
M  V30 5373 H 534.58 4.65593 -1.90349 0
M  V30 5374 H 534.28 4.59808 -3.65856 0
M  V30 5375 H 535.804 5.29558 -3.03976 0
M  V30 5376 H 537.218 3.55427 -4.49827 0
M  V30 5377 H 535.615 3.09408 -5.14186 0
M  V30 5378 H 536.685 1.84219 -4.48544 0
M  V30 5379 N 538.028 1.39524 0.732853 0
M  V30 5380 C 539.275 1.36865 1.49246 0
M  V30 5381 C 539.603 -0.0347118 1.94469 0
M  V30 5382 O 538.858 -1.01596 1.67262 0
M  V30 5383 C 539.157 2.28916 2.74468 0
M  V30 5384 C 538.823 3.76506 2.481 0
M  V30 5385 C 537.485 4.16721 2.40619 0
M  V30 5386 C 539.837 4.69846 2.25598 0
M  V30 5387 C 537.165 5.48334 2.08679 0
M  V30 5388 C 539.517 6.01739 1.95174 0
M  V30 5389 C 538.181 6.41015 1.86163 0
M  V30 5390 H 537.451 0.500824 0.546129 0
M  V30 5391 H 540.098 1.72047 0.840958 0
M  V30 5392 H 538.403 1.86859 3.4437 0
M  V30 5393 H 540.1 2.2415 3.32502 0
M  V30 5394 H 536.69 3.44635 2.54803 0
M  V30 5395 H 540.874 4.39608 2.30344 0
M  V30 5396 H 536.13 5.77685 2.00226 0
M  V30 5397 H 540.304 6.73591 1.76771 0
M  V30 5398 H 537.931 7.42917 1.61179 0
M  V30 5399 N 539.506 -0.963266 1.24736 0
M  V30 5400 C 540.753 -1.7068 1.0897 0
M  V30 5401 C 541.081 -1.90934 -0.370751 0
M  V30 5402 O 540.336 -1.47155 -1.29011 0
M  V30 5403 C 540.635 -3.09944 1.7796 0
M  V30 5404 C 540.301 -3.09518 3.27887 0
M  V30 5405 C 538.963 -3.09109 3.68789 0
M  V30 5406 C 541.315 -3.03509 4.23712 0
M  V30 5407 C 538.643 -3.00429 5.03944 0
M  V30 5408 C 540.995 -2.96371 5.5888 0
M  V30 5409 C 539.659 -2.94293 5.99123 0
M  V30 5410 H 538.929 -0.624564 0.398749 0
M  V30 5411 H 541.576 -1.12603 1.54896 0
M  V30 5412 H 539.881 -3.71513 1.2444 0
M  V30 5413 H 541.578 -3.66278 1.63222 0
M  V30 5414 H 538.168 -3.10603 2.95337 0
M  V30 5415 H 542.352 -3.0295 3.93109 0
M  V30 5416 H 537.608 -2.97183 5.34314 0
M  V30 5417 H 541.782 -2.90681 6.32833 0
M  V30 5418 H 539.409 -2.87322 7.03811 0
M  V30 5419 N 540.985 -1.06182 -1.16461 0
M  V30 5420 C 542.231 -0.788825 -1.87481 0
M  V30 5421 C 542.586 0.677298 -1.80085 0
M  V30 5422 O 541.879 1.48976 -1.20486 0
M  V30 5423 C 542.073 -1.21633 -3.36066 0
M  V30 5424 C 541.902 -2.72247 -3.57927 0
M  V30 5425 C 540.672 -3.39696 -3.74079 0
M  V30 5426 C 542.87 -3.70461 -3.56739 0
M  V30 5427 N 540.852 -4.79072 -3.83879 0
M  V30 5428 C 542.223 -4.95616 -3.72511 0
M  V30 5429 C 544.278 -3.63788 -3.39945 0
M  V30 5430 C 542.981 -6.14895 -3.73225 0
M  V30 5431 C 545.007 -4.82517 -3.41953 0
M  V30 5432 C 544.369 -6.065 -3.58242 0
M  V30 5433 H 540.468 -0.341034 -0.703719 0
M  V30 5434 H 543.052 -1.35575 -1.39741 0
M  V30 5435 H 541.223 -0.67725 -3.8245 0
M  V30 5436 H 542.955 -0.892119 -3.94745 0
M  V30 5437 H 539.71 -2.90097 -3.74354 0
M  V30 5438 H 540.134 -5.51573 -3.92551 0
M  V30 5439 H 544.776 -2.68888 -3.26281 0
M  V30 5440 H 542.494 -7.10129 -3.85672 0
M  V30 5441 H 546.08 -4.79017 -3.30203 0
M  V30 5442 H 544.96 -6.96833 -3.59712 0
M  V30 5443 N 542.463 1.3308 -0.844243 0
M  V30 5444 C 543.688 2.02341 -0.455282 0
M  V30 5445 C 544.113 1.6308 0.93737 0
M  V30 5446 O 543.471 0.826118 1.61385 0
M  V30 5447 C 543.519 3.55743 -0.58988 0
M  V30 5448 O 542.623 4.1063 0.38166 0
M  V30 5449 H 541.964 0.637898 -0.184343 0
M  V30 5450 H 544.494 1.6986 -1.14056 0
M  V30 5451 H 544.504 4.05243 -0.473522 0
M  V30 5452 H 543.179 3.83662 -1.60549 0
M  V30 5453 H 541.756 3.72236 0.22241 0
M  V30 5454 N 543.941 0.601185 1.45683 0
M  V30 5455 C 545.218 0.0261659 1.95582 0
M  V30 5456 C 545.598 -1.4399 1.5437 0
M  V30 5457 O 544.946 -2.13919 0.80318 0
M  V30 5458 C 545.156 0.217557 3.48321 0
M  V30 5459 C 546.504 0.0950076 4.24494 0
M  V30 5460 O 547.528 0.147345 3.55895 0
M  V30 5461 O 546.387 -0.025261 5.46494 0
M  V30 5462 H 543.481 -0.0393688 0.826062 0
M  V30 5463 H 546.027 0.670798 1.55879 0
M  V30 5464 H 544.799 1.23601 3.71266 0
M  V30 5465 H 544.422 -0.46264 3.94899 0
M  V30 5466 N 545.419 -1.53889 0.339982 0
M  V30 5467 C 546.835 -1.59595 -0.0120752 0
M  V30 5468 C 547.035 -1.35605 -1.49042 0
M  V30 5469 O 546.091 -1.14856 -2.24865 0
M  V30 5470 C 547.404 -2.9774 0.420898 0
M  V30 5471 C 548.952 -3.1077 0.37294 0
M  V30 5472 C 549.427 -4.51286 0.781327 0
M  V30 5473 N 550.918 -4.57325 0.735374 0
M  V30 5474 C 551.653 -5.64194 1.02336 0
M  V30 5475 N 551.149 -6.7893 1.37933 0
M  V30 5476 N 552.942 -5.54051 0.947838 0
M  V30 5477 H 545.093 -1.67738 1.30299 0
M  V30 5478 H 547.356 -0.785385 0.530918 0
M  V30 5479 H 547.062 -3.20349 1.45152 0
M  V30 5480 H 546.936 -3.76639 -0.205721 0
M  V30 5481 H 549.323 -2.87886 -0.648505 0
M  V30 5482 H 549.404 -2.33939 1.03472 0
M  V30 5483 H 549.048 -4.74905 1.80077 0
M  V30 5484 H 548.978 -5.26511 0.0970679 0
M  V30 5485 H 551.469 -3.74931 0.472773 0
M  V30 5486 H 551.782 -7.56392 1.58402 0
M  V30 5487 H 550.127 -6.80386 1.41774 0
M  V30 5488 H 553.318 -4.63293 0.669115 0
M  V30 5489 H 553.491 -6.37246 1.17563 0
M  V30 5490 N 546.897 -0.0685191 -1.57451 0
M  V30 5491 C 548.313 0.288101 -1.56978 0
M  V30 5492 C 548.513 1.70262 -1.07765 0
M  V30 5493 O 547.569 2.4135 -0.742054 0
M  V30 5494 C 548.882 0.100745 -3.00531 0
M  V30 5495 C 550.43 0.170531 -3.12535 0
M  V30 5496 C 550.905 0.0114944 -4.57999 0
M  V30 5497 N 552.396 0.0672065 -4.63151 0
M  V30 5498 C 553.131 -0.0314813 -5.73391 0
M  V30 5499 N 552.627 -0.183503 -6.92557 0
M  V30 5500 N 554.42 0.0253489 -5.62094 0
M  V30 5501 H 546.571 -0.993026 -1.87757 0
M  V30 5502 H 548.834 -0.386981 -0.865419 0
M  V30 5503 H 548.54 -0.875197 -3.40636 0
M  V30 5504 H 548.414 0.854457 -3.67395 0
M  V30 5505 H 550.801 1.13696 -2.72318 0
M  V30 5506 H 550.882 -0.614229 -2.48316 0
M  V30 5507 H 550.526 -0.951684 -4.98904 0
M  V30 5508 H 550.456 0.815617 -5.20245 0
M  V30 5509 H 552.947 0.183246 -3.77455 0
M  V30 5510 H 553.26 -0.251041 -7.72392 0
M  V30 5511 H 551.605 -0.218822 -6.94655 0
M  V30 5512 H 554.796 0.142794 -4.67882 0
M  V30 5513 H 554.969 -0.0550166 -6.47977 0
M  V30 5514 N 548.375 1.56261 0.205012 0
M  V30 5515 C 549.323 1.94631 1.27364 0
M  V30 5516 C 550.317 0.830434 1.47649 0
M  V30 5517 O 551.523 1.01538 1.48627 0
M  V30 5518 H 547.898 0.618755 0.427371 0
M  V30 5519 H 549.869 2.83768 0.922941 0
M  V30 5520 C 548.618 2.29358 2.61324 0
M  V30 5521 H 547.941 3.14744 2.46528 0
M  V30 5522 H 549.381 2.60076 3.34868 0
M  V30 5523 C 547.84 1.12461 3.17575 0
M  V30 5524 O 548.37 0.394407 3.99759 0
M  V30 5525 N 546.576 0.904036 2.7618 0
M  V30 5526 H 546.123 1.49956 2.09454 0
M  V30 5527 H 546.081 0.123662 3.14157 0
M  V30 5528 N 549.853 -0.472356 1.50355 0
M  V30 5529 C 551.264 -1.05326 1.54154 0
M  V30 5530 C 551.615 -1.93155 0.344303 0
M  V30 5531 O 550.74 -2.09479 -0.542928 0
M  V30 5532 C 551.335 -1.91691 2.79356 0
M  V30 5533 C 549.894 -2.44892 2.8584 0
M  V30 5534 C 549.041 -1.23205 2.48426 0
M  V30 5535 H 551.992 -0.255027 1.56637 0
M  V30 5536 H 552.013 -2.76742 2.6114 0
M  V30 5537 H 551.525 -1.27741 3.66475 0
M  V30 5538 H 549.626 -3.12399 2.0307 0
M  V30 5539 H 549.739 -2.80086 3.88701 0
M  V30 5540 H 548.103 -1.56643 2.00836 0
M  V30 5541 H 548.886 -0.609194 3.37852 0
M  V30 5542 N 551.331 -1.39911 -0.725443 0
M  V30 5543 C 552.281 -1.35878 -1.83088 0
M  V30 5544 C 553.265 -0.237989 -1.5913 0
M  V30 5545 O 554.457 -0.476302 -1.70471 0
M  V30 5546 C 551.586 -1.21403 -3.21117 0
M  V30 5547 C 550.672 -2.38223 -3.50871 0
M  V30 5548 N 551.063 -3.63703 -3.51502 0
M  V30 5549 C 549.361 -2.31388 -3.81281 0
M  V30 5550 C 550.062 -4.4101 -3.79322 0
M  V30 5551 N 549.038 -3.7072 -3.97577 0
M  V30 5552 H 552.84 -2.3085 -1.81895 0
M  V30 5553 H 550.354 -1.33543 -0.924125 0
M  V30 5554 H 552.351 -1.16597 -4.00263 0
M  V30 5555 H 551.011 -0.273902 -3.23543 0
M  V30 5556 H 552.022 -3.96998 -3.32586 0
M  V30 5557 H 548.699 -1.45689 -3.91256 0
M  V30 5558 H 550.089 -5.49819 -3.86198 0
M  V30 5559 N 552.809 0.956637 -1.25245 0
M  V30 5560 C 553.719 2.0868 -1.0719 0
M  V30 5561 C 554.735 1.73997 -0.00959074 0
M  V30 5562 O 555.911 2.00301 -0.210104 0
M  V30 5563 C 552.976 3.39754 -0.690526 0
M  V30 5564 C 552.037 3.88316 -1.83055 0
M  V30 5565 C 551.27 5.13134 -1.46728 0
M  V30 5566 O 551.493 5.6925 -0.362029 0
M  V30 5567 O 550.427 5.56356 -2.29677 0
M  V30 5568 H 554.253 2.26813 -2.01965 0
M  V30 5569 H 551.838 1.07098 -1.04165 0
M  V30 5570 H 553.72 4.18543 -0.489871 0
M  V30 5571 H 552.395 3.22896 0.227981 0
M  V30 5572 H 551.302 3.1054 -2.08604 0
M  V30 5573 H 552.635 4.09669 -2.72822 0
M  V30 5574 N 554.287 1.06798 1.15896 0
M  V30 5575 C 555.533 0.788934 1.86825 0
M  V30 5576 C 555.866 -0.683084 1.8179 0
M  V30 5577 O 555.141 -1.50086 1.23711 0
M  V30 5578 C 555.424 1.29065 3.36176 0
M  V30 5579 C 555.277 2.8268 3.49874 0
M  V30 5580 C 556.596 0.902655 4.30744 0
M  V30 5581 H 553.715 0.288066 0.678371 0
M  V30 5582 H 556.357 1.32479 1.36195 0
M  V30 5583 H 554.507 0.834806 3.79425 0
M  V30 5584 H 556.179 3.36511 3.15528 0
M  V30 5585 H 554.422 3.21157 2.91617 0
M  V30 5586 H 555.093 3.12852 4.54783 0
M  V30 5587 H 557.569 1.29535 3.95424 0
M  V30 5588 H 556.445 1.28111 5.3374 0
M  V30 5589 H 556.706 -0.191951 4.41683 0
M  V30 5590 N 555.766 -1.3263 0.851289 0
M  V30 5591 C 556.698 -2.27824 0.250757 0
M  V30 5592 C 557.711 -1.52285 -0.575598 0
M  V30 5593 O 558.9 -1.73946 -0.400638 0
M  V30 5594 C 556 -3.3232 -0.664571 0
M  V30 5595 C 555.173 -4.37221 0.125187 0
M  V30 5596 C 554.232 -5.21314 -0.715385 0
M  V30 5597 O 553.258 -5.69002 -0.150111 0
M  V30 5598 N 554.46 -5.43823 -2.03069 0
M  V30 5599 H 557.225 -2.79997 1.06873 0
M  V30 5600 H 554.786 -1.45455 0.710943 0
M  V30 5601 H 556.778 -3.85486 -1.23216 0
M  V30 5602 H 555.348 -2.80331 -1.38323 0
M  V30 5603 H 554.568 -3.84384 0.874199 0
M  V30 5604 H 555.856 -5.04399 0.667774 0
M  V30 5605 H 555.254 -5.06803 -2.51332 0
M  V30 5606 H 553.811 -5.99998 -2.54648 0
M  V30 5607 N 557.244 -0.608902 -1.45362 0
M  V30 5608 C 558.655 -0.189511 -1.85736 0
M  V30 5609 C 559.006 1.2539 -1.50903 0
M  V30 5610 O 558.131 1.95094 -0.936347 0
M  V30 5611 C 558.726 -0.33716 -3.37118 0
M  V30 5612 C 557.285 0.0275487 -3.7639 0
M  V30 5613 C 556.432 -0.660983 -2.69307 0
M  V30 5614 H 559.383 -0.815499 -1.36144 0
M  V30 5615 H 559.404 0.430257 -3.7806 0
M  V30 5616 H 558.916 -1.38779 -3.62439 0
M  V30 5617 H 557.017 1.0773 -3.56686 0
M  V30 5618 H 557.13 -0.367018 -4.77692 0
M  V30 5619 H 555.494 -0.0984958 -2.54509 0
M  V30 5620 H 556.277 -1.71377 -2.97464 0
M  V30 5621 N 558.722 1.53707 -0.348139 0
M  V30 5622 C 559.685 2.23812 0.494058 0
M  V30 5623 C 560.685 1.23989 1.02388 0
M  V30 5624 O 561.875 1.48395 0.912396 0
M  V30 5625 C 559.007 2.96133 1.68872 0
M  V30 5626 H 560.2 2.99663 -0.119141 0
M  V30 5627 H 557.753 1.55983 -0.0995539 0
M  V30 5628 H 558.488 2.24481 2.34049 0
M  V30 5629 H 558.273 3.69357 1.31596 0
M  V30 5630 H 559.763 3.49475 2.28597 0
M  V30 5631 N 560.2 0.0768682 1.57412 0
M  V30 5632 C 561.43 -0.5991 1.97723 0
M  V30 5633 C 561.838 -1.63378 0.954166 0
M  V30 5634 O 561.181 -1.83578 -0.0668706 0
M  V30 5635 C 561.243 -1.32078 3.34358 0
M  V30 5636 C 560.907 -0.438985 4.54887 0
M  V30 5637 C 561.904 0.305492 5.19002 0
M  V30 5638 C 559.589 -0.362378 5.00991 0
M  V30 5639 C 561.583 1.11475 6.27576 0
M  V30 5640 C 559.27 0.450543 6.09437 0
M  V30 5641 C 560.268 1.18777 6.72593 0
M  V30 5642 O 559.956 1.98727 7.7895 0
M  V30 5643 H 559.688 -0.166725 0.655117 0
M  V30 5644 H 562.242 0.147337 2.04871 0
M  V30 5645 H 560.472 -2.1134 3.2384 0
M  V30 5646 H 562.161 -1.88949 3.5924 0
M  V30 5647 H 562.927 0.25593 4.84324 0
M  V30 5648 H 558.806 -0.925832 4.51608 0
M  V30 5649 H 562.35 1.69068 6.76803 0
M  V30 5650 H 558.247 0.501651 6.43548 0
M  V30 5651 H 559.015 1.91214 7.95851 0
M  V30 5652 N 561.678 -1.56367 -0.196722 0
M  V30 5653 C 562.641 -1.93561 -1.22746 0
M  V30 5654 C 563.641 -0.816566 -1.38524 0
M  V30 5655 O 564.831 -1.084 -1.36363 0
M  V30 5656 C 561.963 -2.20823 -2.59712 0
M  V30 5657 H 563.156 -2.85774 -0.909586 0
M  V30 5658 H 560.709 -1.50032 -0.438174 0
M  V30 5659 H 561.444 -1.31243 -2.96557 0
M  V30 5660 H 561.229 -3.02368 -2.49632 0
M  V30 5661 H 562.719 -2.50608 -3.34044 0
M  V30 5662 N 563.156 0.464375 -1.50603 0
M  V30 5663 C 564.384 1.23907 -1.65695 0
M  V30 5664 C 564.799 1.85658 -0.343027 0
M  V30 5665 O 564.156 1.69529 0.675739 0
M  V30 5666 C 564.207 2.3429 -2.75301 0
M  V30 5667 O 563.928 1.7507 -4.01599 0
M  V30 5668 C 565.429 3.25051 -3.01424 0
M  V30 5669 H 562.649 0.374485 -0.556778 0
M  V30 5670 H 565.193 0.55353 -1.96866 0
M  V30 5671 H 563.348 2.98607 -2.46804 0
M  V30 5672 H 563.762 2.47812 -4.62266 0
M  V30 5673 H 565.236 3.98699 -3.81763 0
M  V30 5674 H 565.713 3.84227 -2.12758 0
M  V30 5675 H 566.319 2.66463 -3.31477 0
M  V30 5676 N 564.634 1.40294 0.718013 0
M  V30 5677 C 566.05 1.2227 1.02577 0
M  V30 5678 C 566.25 0.0961976 2.0127 0
M  V30 5679 O 565.306 -0.546695 2.46511 0
M  V30 5680 C 566.619 2.56348 1.57182 0
M  V30 5681 C 568.167 2.6334 1.69178 0
M  V30 5682 C 568.642 3.9768 2.27188 0
M  V30 5683 N 570.133 3.99409 2.34578 0
M  V30 5684 C 570.868 5.00141 2.8044 0
M  V30 5685 N 570.364 6.11268 3.26073 0
M  V30 5686 N 572.157 4.87511 2.79802 0
M  V30 5687 H 564.308 2.12304 0.0637899 0
M  V30 5688 H 566.571 0.943632 0.0909036 0
M  V30 5689 H 566.277 3.3942 0.921262 0
M  V30 5690 H 566.151 2.77266 2.55741 0
M  V30 5691 H 568.538 1.80641 2.33351 0
M  V30 5692 H 568.619 2.46255 0.692247 0
M  V30 5693 H 568.263 4.80817 1.63638 0
M  V30 5694 H 568.193 4.12093 3.27852 0
M  V30 5695 H 570.684 3.19162 2.02346 0
M  V30 5696 H 570.997 6.84023 3.59628 0
M  V30 5697 H 569.342 6.14837 3.24038 0
M  V30 5698 H 572.533 3.9979 2.43487 0
M  V30 5699 H 572.706 5.66158 3.15228 0
M  V30 5700 N 566.112 -0.949982 1.2575 0
M  V30 5701 C 567.342 -1.72721 1.13363 0
M  V30 5702 C 567.75 -1.86562 -0.314842 0
M  V30 5703 O 567.093 -1.36621 -1.22803 0
M  V30 5704 C 567.155 -3.15695 1.7198 0
M  V30 5705 C 566.819 -3.25268 3.21014 0
M  V30 5706 C 567.816 -3.09222 4.17945 0
M  V30 5707 C 565.501 -3.4894 3.61312 0
M  V30 5708 C 567.495 -3.16701 5.53154 0
M  V30 5709 C 565.182 -3.56055 4.96657 0
M  V30 5710 C 566.18 -3.3995 5.92387 0
M  V30 5711 O 565.868 -3.46757 7.25269 0
M  V30 5712 H 565.6 -0.547888 0.395973 0
M  V30 5713 H 568.154 -1.20009 1.66694 0
M  V30 5714 H 566.384 -3.69791 1.13101 0
M  V30 5715 H 568.073 -3.75295 1.54624 0
M  V30 5716 H 568.839 -2.90798 3.88151 0
M  V30 5717 H 564.718 -3.60534 2.87291 0
M  V30 5718 H 568.262 -3.04048 6.27854 0
M  V30 5719 H 564.159 -3.73997 5.26115 0
M  V30 5720 H 564.927 -3.63358 7.33426 0
M  V30 5721 N 567.59 -1.07411 -1.15328 0
M  V30 5722 C 568.553 -0.698914 -2.18284 0
M  V30 5723 C 569.553 0.261149 -1.58665 0
M  V30 5724 O 570.743 0.0420277 -1.74149 0
M  V30 5725 C 567.875 -0.0302427 -3.40887 0
M  V30 5726 H 569.068 -1.61045 -2.52991 0
M  V30 5727 H 566.621 -0.870724 -1.298 0
M  V30 5728 H 567.356 0.893505 -3.11748 0
M  V30 5729 H 567.141 -0.720759 -3.85419 0
M  V30 5730 H 568.631 0.21759 -4.17033 0
M  V30 5731 N 569.068 1.32177 -0.85831 0
M  V30 5732 C 570.317 1.96392 -0.459689 0
M  V30 5733 C 570.63 1.68659 0.990632 0
M  V30 5734 O 571.836 2.26641 1.49485 0
M  V30 5735 C 570.292 3.51542 -0.7711 0
M  V30 5736 C 569.9 3.8813 -2.2374 0
M  V30 5737 C 571.644 4.2221 -0.44038 0
M  V30 5738 C 569.551 5.36341 -2.49183 0
M  V30 5739 H 568.481 0.735007 -0.168169 0
M  V30 5740 H 571.132 1.50518 -1.0496 0
M  V30 5741 H 569.514 3.95846 -0.11058 0
M  V30 5742 H 570.688 3.54824 -2.94001 0
M  V30 5743 H 569.003 3.30497 -2.533 0
M  V30 5744 H 571.6 5.31234 -0.607855 0
M  V30 5745 H 571.943 4.11683 0.618291 0
M  V30 5746 H 572.476 3.83502 -1.05695 0
M  V30 5747 H 569.215 5.51892 -3.53689 0
M  V30 5748 H 568.735 5.7104 -1.83504 0
M  V30 5749 H 570.414 6.03466 -2.33318 0
M  V30 5750 N 570.547 0.616602 1.45037 0
M  V30 5751 C 571.775 0.121968 2.0654 0
M  V30 5752 C 572.19 -1.19743 1.45969 0
M  V30 5753 O 571.547 -1.73133 0.577168 0
M  V30 5754 C 571.598 -0.0145171 3.61497 0
M  V30 5755 O 571.319 1.25269 4.19809 0
M  V30 5756 C 572.82 -0.539555 4.40004 0
M  V30 5757 H 570.04 0.0729837 0.667019 0
M  V30 5758 H 572.584 0.846891 1.8614 0
M  V30 5759 H 570.739 -0.689809 3.81209 0
M  V30 5760 H 571.153 1.08816 5.13088 0
M  V30 5761 H 572.627 -0.584112 5.48901 0
M  V30 5762 H 573.104 -1.56368 4.10421 0
M  V30 5763 H 573.71 0.101995 4.25178 0
M  V30 5764 N 572.025 -1.5352 0.356285 0
M  V30 5765 C 573.271 -2.01414 -0.236653 0
M  V30 5766 C 573.604 -1.24339 -1.49176 0
M  V30 5767 O 572.879 -0.334496 -1.91602 0
M  V30 5768 C 573.162 -3.56059 -0.537982 0
M  V30 5769 C 573.015 -4.43835 0.730112 0
M  V30 5770 C 574.334 -4.19127 -1.34239 0
M  V30 5771 H 571.453 -0.732135 -0.0845386 0
M  V30 5772 H 574.095 -1.83854 0.479341 0
M  V30 5773 H 572.245 -3.71153 -1.14795 0
M  V30 5774 H 573.917 -4.40555 1.36782 0
M  V30 5775 H 572.16 -4.1218 1.3524 0
M  V30 5776 H 572.831 -5.49958 0.474358 0
M  V30 5777 H 575.307 -4.07809 -0.826498 0
M  V30 5778 H 574.183 -5.27378 -1.52198 0
M  V30 5779 H 574.444 -3.74581 -2.34822 0
M  V30 5780 N 573.503 -0.0852151 -1.57369 0
M  V30 5781 C 574.749 0.575588 -1.95086 0
M  V30 5782 C 575.104 1.66402 -0.96582 0
M  V30 5783 O 574.397 1.91598 0.00978463 0
M  V30 5784 C 574.591 1.18482 -3.3719 0
M  V30 5785 C 574.42 0.156928 -4.49426 0
M  V30 5786 C 573.19 -0.263126 -5.04614 0
M  V30 5787 C 575.388 -0.611068 -5.10657 0
M  V30 5788 N 573.37 -1.28032 -6.00401 0
M  V30 5789 C 574.741 -1.48036 -6.02068 0
M  V30 5790 C 576.796 -0.665669 -4.9343 0
M  V30 5791 C 575.499 -2.39943 -6.781 0
M  V30 5792 C 577.525 -1.5723 -5.70116 0
M  V30 5793 C 576.887 -2.42924 -6.61186 0
M  V30 5794 H 572.986 0.181249 -0.760705 0
M  V30 5795 H 575.57 -0.165484 -1.93995 0
M  V30 5796 H 573.741 1.89575 -3.38992 0
M  V30 5797 H 575.473 1.80718 -3.62109 0
M  V30 5798 H 572.228 0.122664 -4.73441 0
M  V30 5799 H 572.652 -1.78682 -6.52994 0
M  V30 5800 H 577.294 -0.0173214 -4.22796 0
M  V30 5801 H 575.012 -3.05807 -7.48002 0
M  V30 5802 H 578.598 -1.61956 -5.58804 0
M  V30 5803 H 577.478 -3.1194 -7.19488 0
M  V30 5804 N 574.981 1.5647 0.188427 0
M  V30 5805 C 576.211 1.84863 0.922463 0
M  V30 5806 C 576.619 0.666413 1.77075 0
M  V30 5807 O 575.962 -0.374044 1.79852 0
M  V30 5808 C 576.024 3.07447 1.86324 0
M  V30 5809 C 575.688 4.41066 1.19625 0
M  V30 5810 C 576.685 5.16767 0.569946 0
M  V30 5811 C 574.37 4.87802 1.19811 0
M  V30 5812 C 576.364 6.37384 -0.045594 0
M  V30 5813 C 574.051 6.08353 0.57874 0
M  V30 5814 C 575.049 6.82987 -0.0420259 0
M  V30 5815 O 574.737 8.01254 -0.651675 0
M  V30 5816 H 574.469 0.61784 0.274316 0
M  V30 5817 H 577.023 2.04437 0.198613 0
M  V30 5818 H 575.253 2.83774 2.62696 0
M  V30 5819 H 576.942 3.2243 2.46564 0
M  V30 5820 H 577.708 4.81749 0.560601 0
M  V30 5821 H 573.587 4.29662 1.67069 0
M  V30 5822 H 577.131 6.95578 -0.530731 0
M  V30 5823 H 573.028 6.42838 0.58561 0
M  V30 5824 H 573.796 8.16655 -0.549236 0
M  V30 5825 N 576.459 -0.456382 1.50847 0
M  V30 5826 C 577.706 -1.20736 1.62571 0
M  V30 5827 C 578.034 -1.9163 0.332904 0
M  V30 5828 O 577.289 -1.8343 -0.682058 0
M  V30 5829 C 577.588 -2.26336 2.76599 0
M  V30 5830 C 577.254 -1.7259 4.16562 0
M  V30 5831 C 575.916 -1.57654 4.54641 0
M  V30 5832 C 578.268 -1.32877 5.03977 0
M  V30 5833 C 575.596 -1.0145 5.77862 0
M  V30 5834 C 577.948 -0.7811 6.27759 0
M  V30 5835 C 576.612 -0.618488 6.64628 0
M  V30 5836 H 575.882 -0.441803 0.594888 0
M  V30 5837 H 578.529 -0.501169 1.84826 0
M  V30 5838 H 576.834 -3.0292 2.48489 0
M  V30 5839 H 578.531 -2.84227 2.82871 0
M  V30 5840 H 575.121 -1.85187 3.86528 0
M  V30 5841 H 579.305 -1.43245 4.75179 0
M  V30 5842 H 574.561 -0.876109 6.0509 0
M  V30 5843 H 578.735 -0.464783 6.94847 0
M  V30 5844 H 576.362 -0.180838 7.59985 0
M  V30 5845 N 577.937 -1.40673 -0.710563 0
M  V30 5846 C 579.214 -1.29718 -1.46398 0
M  V30 5847 C 579.594 0.082177 -2.1094 0
M  V30 5848 O 578.942 1.09536 -2.00534 0
M  V30 5849 C 579.152 -2.43967 -2.49562 0
M  V30 5850 C 580.5 -2.84436 -3.15248 0
M  V30 5851 O 581.524 -2.43597 -2.59883 0
M  V30 5852 O 580.383 -3.55008 -4.1549 0
M  V30 5853 H 577.477 -0.509697 -0.651258 0
M  V30 5854 H 580.023 -1.52603 -0.742312 0
M  V30 5855 H 578.795 -3.36076 -2.0042 0
M  V30 5856 H 578.418 -2.22879 -3.29258 0
M  V30 5857 N 579.415 0.9433 -1.26252 0
M  V30 5858 C 580.378 2.02326 -1.07689 0
M  V30 5859 C 581.378 1.60779 -0.0259174 0
M  V30 5860 O 582.568 1.72108 -0.269134 0
M  V30 5861 C 579.7 3.34886 -0.63752 0
M  V30 5862 H 580.893 2.20225 -2.0357 0
M  V30 5863 H 578.446 1.12197 -1.08819 0
M  V30 5864 H 579.181 3.22684 0.323377 0
M  V30 5865 H 578.966 3.66393 -1.39637 0
M  V30 5866 H 580.456 4.14231 -0.529418 0
M  V30 5867 N 580.893 1.08022 1.14757 0
M  V30 5868 C 582.17 0.720386 1.81851 0
M  V30 5869 C 582.55 -0.796375 1.95502 0
M  V30 5870 O 581.898 -1.71339 1.51179 0
M  V30 5871 C 582.108 1.44273 3.17783 0
M  V30 5872 C 583.456 1.59925 3.93331 0
M  V30 5873 O 584.48 1.40407 3.2736 0
M  V30 5874 O 583.339 1.92096 5.11626 0
M  V30 5875 H 580.433 0.257142 0.786007 0
M  V30 5876 H 582.979 1.18155 1.21809 0
M  V30 5877 H 581.751 2.47618 3.02987 0
M  V30 5878 H 581.374 0.97279 3.85516 0
M  V30 5879 N 582.371 -1.3172 0.865308 0
M  V30 5880 C 583.281 -2.32394 0.320935 0
M  V30 5881 C 584.297 -1.64511 -0.566746 0
M  V30 5882 O 585.473 -1.95969 -0.464575 0
M  V30 5883 C 582.538 -3.43462 -0.472701 0
M  V30 5884 C 581.599 -4.27015 0.442385 0
M  V30 5885 C 580.832 -5.32779 -0.313469 0
M  V30 5886 O 581.055 -5.49158 -1.54214 0
M  V30 5887 O 579.989 -6.01015 0.326257 0
M  V30 5888 H 583.815 -2.80868 1.15528 0
M  V30 5889 H 581.4 -1.35535 0.628545 0
M  V30 5890 H 583.282 -4.11172 -0.922781 0
M  V30 5891 H 581.957 -2.97159 -1.28367 0
M  V30 5892 H 580.864 -3.62075 0.940866 0
M  V30 5893 H 582.197 -4.76871 1.21882 0
M  V30 5894 N 583.85 -0.624285 -1.44708 0
M  V30 5895 C 585.266 -0.289322 -1.56956 0
M  V30 5896 C 585.466 1.20773 -1.61295 0
M  V30 5897 O 584.522 1.9915 -1.55227 0
M  V30 5898 C 585.835 -0.975215 -2.84447 0
M  V30 5899 C 587.383 -0.952709 -2.98148 0
M  V30 5900 C 587.858 -1.61893 -4.28433 0
M  V30 5901 N 589.349 -1.5852 -4.35231 0
M  V30 5902 C 590.084 -2.06969 -5.34744 0
M  V30 5903 N 589.58 -2.63579 -6.40701 0
M  V30 5904 N 591.373 -1.97638 -5.26209 0
M  V30 5905 H 583.524 -1.59612 -1.40135 0
M  V30 5906 H 585.787 -0.669592 -0.671081 0
M  V30 5907 H 585.493 -2.02999 -2.87201 0
M  V30 5908 H 585.367 -0.508749 -3.73753 0
M  V30 5909 H 587.754 0.093568 -2.94952 0
M  V30 5910 H 587.835 -1.4576 -2.10209 0
M  V30 5911 H 587.479 -2.66463 -4.32389 0
M  V30 5912 H 587.409 -1.08893 -5.15218 0
M  V30 5913 H 589.899 -1.17183 -3.59272 0
M  V30 5914 H 590.213 -2.98298 -7.12908 0
M  V30 5915 H 588.558 -2.67626 -6.41406 0
M  V30 5916 H 591.749 -1.5314 -4.42341 0
M  V30 5917 H 591.922 -2.35708 -6.03611 0
M  V30 5918 N 585.328 1.53329 -0.364422 0
M  V30 5919 C 586.291 2.24323 0.470292 0
M  V30 5920 C 587.291 1.25068 1.01067 0
M  V30 5921 O 588.481 1.49354 0.896605 0
M  V30 5922 C 585.613 2.97908 1.65722 0
M  V30 5923 H 586.806 2.9952 -0.150917 0
M  V30 5924 H 584.359 1.55868 -0.116092 0
M  V30 5925 H 585.094 2.2695 2.31655 0
M  V30 5926 H 584.879 3.70732 1.27671 0
M  V30 5927 H 586.369 3.5188 2.24878 0
M  V30 5928 N 586.806 0.0935595 1.57322 0
M  V30 5929 C 588.222 -0.263091 1.57417 0
M  V30 5930 C 588.422 -1.68526 1.1046 0
M  V30 5931 O 587.478 -2.40139 0.780357 0
M  V30 5932 C 588.791 -0.0529201 3.00653 0
M  V30 5933 C 590.339 -0.120788 3.12767 0
M  V30 5934 C 590.814 0.0613707 4.57959 0
M  V30 5935 N 592.305 0.00648534 4.632 0
M  V30 5936 C 593.04 0.122699 5.73269 0
M  V30 5937 N 592.536 0.29366 6.92177 0
M  V30 5938 N 594.329 0.0640787 5.62063 0
M  V30 5939 H 586.48 1.02277 1.86154 0
M  V30 5940 H 588.743 0.4007 0.859153 0
M  V30 5941 H 588.449 0.929279 3.39201 0
M  V30 5942 H 588.323 -0.795899 3.68708 0
M  V30 5943 H 590.71 -1.09349 2.74093 0
M  V30 5944 H 590.791 0.653656 2.47307 0
M  V30 5945 H 590.435 1.03093 4.97327 0
M  V30 5946 H 590.365 -0.732748 5.21477 0
M  V30 5947 H 592.856 -0.123173 3.77699 0
M  V30 5948 H 593.169 0.37389 7.71895 0
M  V30 5949 H 591.514 0.329307 6.94219 0
M  V30 5950 H 594.705 -0.0683396 4.6805 0
M  V30 5951 H 594.878 0.158097 6.47807 0
M  V30 5952 N 588.284 -1.56567 -0.180126 0
M  V30 5953 C 589.247 -1.94852 -1.20686 0
M  V30 5954 C 590.247 -0.831212 -1.3765 0
M  V30 5955 O 591.437 -1.09841 -1.35206 0
M  V30 5956 C 588.569 -2.23565 -2.57355 0
M  V30 5957 H 589.762 -2.86722 -0.879225 0
M  V30 5958 H 587.315 -1.50489 -0.422237 0
M  V30 5959 H 588.05 -1.34381 -2.95148 0
M  V30 5960 H 587.835 -3.04999 -2.46411 0
M  V30 5961 H 589.325 -2.54137 -3.31367 0
M  V30 5962 N 589.762 0.448376 -1.51087 0
M  V30 5963 C 590.709 1.54341 -1.71603 0
M  V30 5964 C 591.679 1.56463 -0.557536 0
M  V30 5965 O 592.864 1.73644 -0.79072 0
M  V30 5966 C 590.004 2.92148 -1.83695 0
M  V30 5967 C 589.117 2.99639 -3.11192 0
M  V30 5968 C 588.252 4.285 -3.13944 0
M  V30 5969 C 587.291 4.29819 -4.35801 0
M  V30 5970 N 586.428 5.50186 -4.36164 0
M  V30 5971 H 591.268 1.36151 -2.65079 0
M  V30 5972 H 588.805 0.661585 -1.31383 0
M  V30 5973 H 590.763 3.72093 -1.88687 0
M  V30 5974 H 589.393 3.0892 -0.936374 0
M  V30 5975 H 588.445 2.12425 -3.15562 0
M  V30 5976 H 589.757 2.96474 -4.01129 0
M  V30 5977 H 588.911 5.16811 -3.17791 0
M  V30 5978 H 587.65 4.34307 -2.21876 0
M  V30 5979 H 586.655 3.39902 -4.32142 0
M  V30 5980 H 587.88 4.25685 -5.29121 0
M  V30 5981 H 585.826 5.56735 -3.46961 0
M  V30 5982 H 585.743 5.48856 -5.19897 0
M  V30 5983 H 587.011 6.40559 -4.44189 0
M  V30 5984 N 591.24 1.41047 0.703093 0
M  V30 5985 C 592.486 1.40207 1.46526 0
M  V30 5986 C 592.819 0.00847763 1.94198 0
M  V30 5987 O 592.094 -0.962437 1.69019 0
M  V30 5988 C 592.377 2.40238 2.6825 0
M  V30 5989 C 592.23 3.88674 2.26391 0
M  V30 5990 C 593.549 2.37627 3.70434 0
M  V30 5991 H 590.668 0.510594 0.531472 0
M  V30 5992 H 593.31 1.72271 0.801422 0
M  V30 5993 H 591.46 2.13026 3.24888 0
M  V30 5994 H 593.132 4.2676 1.75138 0
M  V30 5995 H 591.375 4.03903 1.58255 0
M  V30 5996 H 592.046 4.542 3.13698 0
M  V30 5997 H 594.522 2.61759 3.23452 0
M  V30 5998 H 593.398 3.09645 4.53223 0
M  V30 5999 H 593.659 1.39223 4.19606 0
M  V30 6000 N 592.718 -0.936591 1.26751 0
M  V30 6001 C 593.665 -2.03597 1.08706 0
M  V30 6002 C 594.635 -1.66097 -0.00926542 0
M  V30 6003 O 595.82 -1.90199 0.151377 0
M  V30 6004 C 592.96 -3.3727 0.73094 0
M  V30 6005 C 592.073 -3.87778 1.90399 0
M  V30 6006 C 591.208 -5.09859 1.49056 0
M  V30 6007 C 590.247 -5.5264 2.63164 0
M  V30 6008 N 589.384 -6.65921 2.22471 0
M  V30 6009 H 594.224 -2.18364 2.02784 0
M  V30 6010 H 591.761 -1.06985 1.00958 0
M  V30 6011 H 593.719 -4.14128 0.505328 0
M  V30 6012 H 592.349 -3.22337 -0.172868 0
M  V30 6013 H 591.401 -3.07279 2.2424 0
M  V30 6014 H 592.713 -4.15464 2.76028 0
M  V30 6015 H 591.867 -5.9419 1.22567 0
M  V30 6016 H 590.606 -4.8393 0.60524 0
M  V30 6017 H 589.611 -4.66863 2.90377 0
M  V30 6018 H 590.836 -5.80568 3.52303 0
M  V30 6019 H 588.782 -6.41667 1.36379 0
M  V30 6020 H 588.699 -6.93216 3.01641 0
M  V30 6021 H 589.967 -7.53616 1.99205 0
M  V30 6022 N 594.196 -1.08629 -1.14182 0
M  V30 6023 C 595.426 -0.837673 -1.88856 0
M  V30 6024 C 595.834 0.614024 -1.78959 0
M  V30 6025 O 595.177 1.43384 -1.14833 0
M  V30 6026 C 595.239 -1.18355 -3.39459 0
M  V30 6027 C 594.903 -2.63848 -3.73139 0
M  V30 6028 C 595.9 -3.62099 -3.73069 0
M  V30 6029 C 593.585 -2.99761 -4.03049 0
M  V30 6030 C 595.579 -4.94292 -4.02435 0
M  V30 6031 C 593.266 -4.32147 -4.32078 0
M  V30 6032 C 594.264 -5.29223 -4.31755 0
M  V30 6033 O 593.952 -6.59229 -4.60079 0
M  V30 6034 H 593.684 -0.301609 -0.604986 0
M  V30 6035 H 596.238 -1.44961 -1.45518 0
M  V30 6036 H 594.468 -0.514628 -3.8326 0
M  V30 6037 H 596.157 -0.915391 -3.95443 0
M  V30 6038 H 596.923 -3.35698 -3.50046 0
M  V30 6039 H 592.802 -2.2484 -4.02453 0
M  V30 6040 H 596.346 -5.70055 -4.02098 0
M  V30 6041 H 592.243 -4.58296 -4.54571 0
M  V30 6042 H 593.011 -6.64578 -4.77785 0
M  V30 6043 N 595.674 1.31259 -0.872281 0
M  V30 6044 C 596.604 2.30929 -0.345554 0
M  V30 6045 C 597.585 1.60449 0.5648 0
M  V30 6046 O 598.77 1.8814 0.481335 0
M  V30 6047 C 595.9 3.44348 0.451823 0
M  V30 6048 C 594.854 4.26435 -0.365641 0
M  V30 6049 C 594.18 5.31785 0.557562 0
M  V30 6050 C 595.48 4.97159 -1.60095 0
M  V30 6051 H 597.174 2.75234 -1.17841 0
M  V30 6052 H 594.72 1.3232 -0.568094 0
M  V30 6053 H 596.673 4.13128 0.830854 0
M  V30 6054 H 595.397 2.98816 1.31821 0
M  V30 6055 H 594.056 3.59326 -0.726649 0
M  V30 6056 H 593.704 4.82502 1.4213 0
M  V30 6057 H 593.404 5.87598 0.0144878 0
M  V30 6058 H 594.928 6.03424 0.933387 0
M  V30 6059 H 596.342 5.58523 -1.29323 0
M  V30 6060 H 594.739 5.62779 -2.08327 0
M  V30 6061 H 595.809 4.24012 -2.35249 0
M  V30 6062 N 597.152 0.631951 1.44375 0
M  V30 6063 C 598.38 0.143867 2.06399 0
M  V30 6064 C 598.795 -1.18188 1.47231 0
M  V30 6065 O 598.152 -1.72511 0.595498 0
M  V30 6066 C 598.203 0.0238253 3.61492 0
M  V30 6067 O 597.924 1.29715 4.18456 0
M  V30 6068 C 599.425 -0.492856 4.40552 0
M  V30 6069 H 596.645 0.0800542 0.666207 0
M  V30 6070 H 599.189 0.866586 1.85231 0
M  V30 6071 H 597.344 -0.649338 3.81919 0
M  V30 6072 H 597.758 1.14252 5.11905 0
M  V30 6073 H 599.232 -0.525861 5.49489 0
M  V30 6074 H 599.709 -1.52006 4.12057 0
M  V30 6075 H 600.315 0.147085 4.25046 0
M  V30 6076 N 598.631 -1.53133 0.372548 0
M  V30 6077 C 599.879 -2.00958 -0.214534 0
M  V30 6078 C 600.2 -1.26135 -1.48711 0
M  V30 6079 O 599.47 -0.376597 -1.92246 0
M  V30 6080 H 598.05 -0.742456 -0.0822664 0
M  V30 6081 H 600.712 -1.88367 0.500385 0
M  V30 6082 H 599.808 -3.09031 -0.436605 0
M  V30 6083 N 600.109 -0.101901 -1.5727 0
M  V30 6084 C 601.019 0.868647 -2.17926 0
M  V30 6085 C 602.035 1.30527 -1.1506 0
M  V30 6086 O 603.211 1.37178 -1.47459 0
M  V30 6087 C 600.276 2.10727 -2.75309 0
M  V30 6088 C 599.337 1.7242 -3.93154 0
M  V30 6089 C 598.57 2.90377 -4.47791 0
M  V30 6090 O 598.793 4.05305 -4.01353 0
M  V30 6091 O 597.727 2.6845 -5.38719 0
M  V30 6092 H 601.553 0.382544 -3.01281 0
M  V30 6093 H 599.138 0.122812 -1.48894 0
M  V30 6094 H 601.02 2.83303 -3.11958 0
M  V30 6095 H 599.695 2.58376 -1.94996 0
M  V30 6096 H 598.602 0.970039 -3.61305 0
M  V30 6097 H 599.935 1.29528 -4.74851 0
M  V30 6098 N 601.587 1.56661 0.17182 0
M  V30 6099 C 602.534 1.96371 1.21273 0
M  V30 6100 C 603.504 0.82756 1.44016 0
M  V30 6101 O 604.689 1.08764 1.56764 0
M  V30 6102 C 601.829 2.32838 2.54716 0
M  V30 6103 C 600.942 3.59628 2.39356 0
M  V30 6104 C 600.077 3.85311 3.65662 0
M  V30 6105 C 599.116 5.0545 3.45234 0
M  V30 6106 N 598.253 5.27268 4.63608 0
M  V30 6107 H 603.093 2.85106 0.86709 0
M  V30 6108 H 600.63 1.41073 0.416744 0
M  V30 6109 H 602.588 2.52004 3.3249 0
M  V30 6110 H 601.218 1.47214 2.87277 0
M  V30 6111 H 600.27 3.4838 1.52761 0
M  V30 6112 H 601.582 4.4756 2.20207 0
M  V30 6113 H 600.736 4.04841 4.51872 0
M  V30 6114 H 599.475 2.95753 3.8779 0
M  V30 6115 H 598.48 4.85819 2.5741 0
M  V30 6116 H 599.705 5.96538 3.24529 0
M  V30 6117 H 597.651 4.40662 4.85956 0
M  V30 6118 H 597.568 6.09422 4.4737 0
M  V30 6119 H 598.836 5.51277 5.51103 0
M  V30 6120 N 603.065 -0.440357 1.51323 0
M  V30 6121 C 604.313 -1.18769 1.63518 0
M  V30 6122 C 604.634 -1.91793 0.352201 0
M  V30 6123 O 603.904 -1.85432 -0.631811 0
M  V30 6124 H 602.484 -0.441408 0.602634 0
M  V30 6125 H 605.146 -0.505162 1.8824 0
M  V30 6126 H 604.242 -1.91892 2.46138 0
M  V30 6127 N 604.543 -1.41418 -0.695603 0
M  V30 6128 C 605.789 -1.40982 -1.4578 0
M  V30 6129 C 606.122 -0.0187763 -1.94191 0
M  V30 6130 O 605.397 0.95346 -1.69527 0
M  V30 6131 C 605.68 -2.41657 -2.66972 0
M  V30 6132 C 605.533 -3.89869 -2.24327 0
M  V30 6133 C 606.852 -2.39589 -3.69168 0
M  V30 6134 H 603.971 -0.513405 -0.528757 0
M  V30 6135 H 606.613 -1.72693 -0.792275 0
M  V30 6136 H 604.763 -2.14746 -3.23754 0
M  V30 6137 H 606.435 -4.27683 -1.72872 0
M  V30 6138 H 604.678 -4.04737 -1.56111 0
M  V30 6139 H 605.349 -4.55857 -3.11285 0
M  V30 6140 H 607.825 -2.63471 -3.2206 0
M  V30 6141 H 606.701 -3.12044 -4.51575 0
M  V30 6142 H 606.962 -1.41447 -4.18862 0
M  V30 6143 N 606.021 0.929856 -1.27246 0
M  V30 6144 C 607.437 1.20542 -1.04603 0
M  V30 6145 C 607.637 2.00276 0.221754 0
M  V30 6146 O 606.693 2.34835 0.927833 0
M  V30 6147 C 608.006 1.95566 -2.28417 0
M  V30 6148 C 609.554 2.08513 -2.33433 0
M  V30 6149 C 610.029 2.86943 -3.5697 0
M  V30 6150 N 611.52 2.94512 -3.57515 0
M  V30 6151 C 612.255 3.55656 -4.49774 0
M  V30 6152 N 611.751 4.18209 -5.52334 0
M  V30 6153 N 613.544 3.53038 -4.37402 0
M  V30 6154 H 605.695 0.397113 -2.08655 0
M  V30 6155 H 607.958 0.238277 -0.917566 0
M  V30 6156 H 607.664 1.44395 -3.20691 0
M  V30 6157 H 607.538 2.9619 -2.33563 0
M  V30 6158 H 609.925 2.58872 -1.41666 0
M  V30 6159 H 610.006 1.07117 -2.32292 0
M  V30 6160 H 609.65 2.37268 -4.49072 0
M  V30 6161 H 609.58 3.8862 -3.55362 0
M  V30 6162 H 612.071 2.50053 -2.83341 0
M  V30 6163 H 612.384 4.62796 -6.18902 0
M  V30 6164 H 610.729 4.16761 -5.56179 0
M  V30 6165 H 613.92 3.0337 -3.56489 0
M  V30 6166 H 614.093 4.004 -5.09493 0
M  V30 6167 N 607.499 1.09233 1.13605 0
M  V30 6168 C 608.745 0.828385 1.8511 0
M  V30 6169 C 609.078 -0.64437 1.83198 0
M  V30 6170 O 608.353 -1.47428 1.26867 0
M  V30 6171 C 608.636 1.36167 3.33363 0
M  V30 6172 C 608.489 2.90038 3.438 0
M  V30 6173 C 609.808 0.993819 4.28732 0
M  V30 6174 H 606.927 0.30239 0.672108 0
M  V30 6175 H 609.569 1.35339 1.33355 0
M  V30 6176 H 607.719 0.9151 3.77569 0
M  V30 6177 H 609.391 3.43128 3.08319 0
M  V30 6178 H 607.634 3.27271 2.84739 0
M  V30 6179 H 608.305 3.22428 4.48045 0
M  V30 6180 H 610.781 1.37893 3.92587 0
M  V30 6181 H 609.657 1.39403 5.30903 0
M  V30 6182 H 609.918 -0.0982206 4.41991 0
M  V30 6183 N 608.977 -1.30795 0.87923 0
M  V30 6184 C 609.887 -2.32041 0.345565 0
M  V30 6185 C 610.903 -1.65103 -0.549265 0
M  V30 6186 O 612.079 -1.9645 -0.443763 0
M  V30 6187 C 609.144 -3.43944 -0.436245 0
M  V30 6188 C 608.205 -4.26521 0.48765 0
M  V30 6189 C 607.438 -5.33081 -0.256943 0
M  V30 6190 O 607.661 -5.50762 -1.48381 0
M  V30 6191 O 606.595 -6.00635 0.389985 0
M  V30 6192 H 610.421 -2.79627 1.18501 0
M  V30 6193 H 608.006 -1.3486 0.642885 0
M  V30 6194 H 609.888 -4.12128 -0.879119 0
M  V30 6195 H 608.563 -2.98504 -1.25208 0
M  V30 6196 H 607.47 -3.61057 0.979216 0
M  V30 6197 H 608.803 -4.75551 1.26933 0
M  V30 6198 N 610.455 -0.639598 -1.44038 0
M  V30 6199 C 611.385 0.0469443 -2.33453 0
M  V30 6200 C 612.366 0.82609 -1.48694 0
M  V30 6201 O 613.551 0.790285 -1.77393 0
M  V30 6202 C 610.681 1.02338 -3.3188 0
M  V30 6203 C 609.635 0.355284 -4.26523 0
M  V30 6204 C 608.961 1.44221 -5.14883 0
M  V30 6205 C 610.261 -0.743798 -5.16977 0
M  V30 6206 H 611.955 -0.699735 -2.91108 0
M  V30 6207 H 609.501 -0.337946 -1.39978 0
M  V30 6208 H 611.454 1.51247 -3.93322 0
M  V30 6209 H 610.178 1.80105 -2.72451 0
M  V30 6210 H 608.837 -0.113239 -3.66425 0
M  V30 6211 H 608.485 2.21097 -4.51802 0
M  V30 6212 H 608.185 1.00052 -5.79019 0
M  V30 6213 H 609.709 1.93295 -5.79197 0
M  V30 6214 H 611.123 -0.337444 -5.72306 0
M  V30 6215 H 609.52 -1.10914 -5.89761 0
M  V30 6216 H 610.59 -1.60745 -4.57481 0
M  V30 6217 N 611.933 1.52934 -0.380664 0
M  V30 6218 C 612.881 2.27727 0.47361 0
M  V30 6219 C 613.875 1.31288 1.0705 0
M  V30 6220 O 615.081 1.4886 1.01197 0
M  V30 6221 H 611.456 0.732189 0.171475 0
M  V30 6222 H 613.427 2.97864 -0.178785 0
M  V30 6223 C 612.176 3.0904 1.59341 0
M  V30 6224 H 611.499 3.831 1.14343 0
M  V30 6225 H 612.939 3.64527 2.16555 0
M  V30 6226 C 611.398 2.20813 2.54447 0
M  V30 6227 O 611.928 1.82907 3.57642 0
M  V30 6228 N 610.134 1.85145 2.23986 0
M  V30 6229 H 609.681 2.16169 1.40103 0
M  V30 6230 H 609.639 1.26402 2.87871 0
M  V30 6231 N 613.412 0.11024 1.57214 0
M  V30 6232 C 614.359 -0.843195 2.14846 0
M  V30 6233 C 615.329 -1.26954 1.07107 0
M  V30 6234 O 616.514 -1.34861 1.34971 0
M  V30 6235 C 613.654 -2.09123 2.74521 0
M  V30 6236 C 612.767 -1.71404 3.96541 0
M  V30 6237 C 611.902 -2.91107 4.44331 0
M  V30 6238 C 610.941 -2.49586 5.58903 0
M  V30 6239 N 610.078 -3.62175 6.01477 0
M  V30 6240 H 614.918 -0.344886 2.95998 0
M  V30 6241 H 612.455 -0.15855 1.46243 0
M  V30 6242 H 614.413 -2.82234 3.07246 0
M  V30 6243 H 613.043 -2.56427 1.96074 0
M  V30 6244 H 612.095 -0.88201 3.70033 0
M  V30 6245 H 613.407 -1.36884 4.7965 0
M  V30 6246 H 612.561 -3.72454 4.78919 0
M  V30 6247 H 611.3 -3.28848 3.60153 0
M  V30 6248 H 610.305 -1.6667 5.23929 0
M  V30 6249 H 611.53 -2.12973 6.4484 0
M  V30 6250 H 609.476 -3.99605 5.20242 0
M  V30 6251 H 609.393 -3.3155 6.79419 0
M  V30 6252 H 610.661 -4.43987 6.407 0
M  V30 6253 N 614.89 -1.56749 -0.16351 0
M  V30 6254 C 616.301 -1.72039 -0.725216 0
M  V30 6255 C 616.652 -0.72202 -1.82432 0
M  V30 6256 O 615.777 0.114942 -2.16095 0
M  V30 6257 C 616.372 -3.11932 -1.32227 0
M  V30 6258 C 614.931 -3.28879 -1.83072 0
M  V30 6259 C 614.078 -2.67984 -0.712716 0
M  V30 6260 H 617.029 -1.58579 0.0619772 0
M  V30 6261 H 617.05 -3.11015 -2.19202 0
M  V30 6262 H 616.562 -3.84572 -0.522103 0
M  V30 6263 H 614.663 -2.61209 -2.65708 0
M  V30 6264 H 614.776 -4.36688 -1.97079 0
M  V30 6265 H 613.14 -2.28005 -1.13515 0
M  V30 6266 H 613.923 -3.43216 0.0757361 0
M  V30 6267 N 616.368 0.432326 -1.51554 0
M  V30 6268 C 617.593 1.20824 -1.68571 0
M  V30 6269 C 618.018 1.84126 -0.384596 0
M  V30 6270 O 617.376 1.69025 0.655751 0
M  V30 6271 C 617.424 2.26429 -2.80646 0
M  V30 6272 O 616.528 3.32032 -2.44598 0
M  V30 6273 H 615.869 0.353765 -0.561913 0
M  V30 6274 H 618.399 0.509916 -1.98144 0
M  V30 6275 H 618.409 2.71133 -3.04878 0
M  V30 6276 H 617.084 1.79733 -3.75058 0
M  V30 6277 H 615.661 2.92769 -2.30956 0
M  V30 6278 N 617.846 1.41785 0.688094 0
M  V30 6279 C 619.123 1.32031 1.44316 0
M  V30 6280 C 619.503 -0.0486079 2.11044 0
M  V30 6281 O 618.851 -1.06332 2.02252 0
M  V30 6282 C 619.061 2.47906 2.45649 0
M  V30 6283 C 620.409 2.89415 3.10683 0
M  V30 6284 O 621.433 2.477 2.55975 0
M  V30 6285 O 620.292 3.61573 4.09789 0
M  V30 6286 H 617.386 0.519994 0.643067 0
M  V30 6287 H 619.932 1.53765 0.71794 0
M  V30 6288 H 618.704 3.39222 1.95048 0
M  V30 6289 H 618.327 2.28089 3.25671 0
M  V30 6290 N 619.324 -0.923095 1.27737 0
M  V30 6291 C 620.549 -1.71054 1.17283 0
M  V30 6292 C 620.974 -1.86208 -0.266153 0
M  V30 6293 O 620.332 -1.36545 -1.1927 0
M  V30 6294 C 620.38 -3.0854 1.86642 0
M  V30 6295 O 619.484 -3.95528 1.16752 0
M  V30 6296 H 618.825 -0.524136 0.407649 0
M  V30 6297 H 621.355 -1.15487 1.6889 0
M  V30 6298 H 621.365 -3.58828 1.94182 0
M  V30 6299 H 620.04 -2.96828 2.91317 0
M  V30 6300 H 618.617 -3.53967 1.17312 0
M  V30 6301 N 620.802 -1.09834 -1.13024 0
M  V30 6302 C 622.048 -0.83819 -1.84668 0
M  V30 6303 C 622.381 0.634645 -1.83537 0
M  V30 6304 O 621.656 1.46753 -1.27647 0
M  V30 6305 C 621.939 -1.37933 -3.32636 0
M  V30 6306 C 621.792 -2.91857 -3.42257 0
M  V30 6307 C 623.111 -1.01654 -4.28199 0
M  V30 6308 H 620.23 -0.30595 -0.670495 0
M  V30 6309 H 622.872 -1.36044 -1.32635 0
M  V30 6310 H 621.022 -0.935111 -3.77078 0
M  V30 6311 H 622.694 -3.44759 -3.06495 0
M  V30 6312 H 620.937 -3.28776 -2.83 0
M  V30 6313 H 621.608 -3.24799 -4.46329 0
M  V30 6314 H 624.084 -1.39973 -3.9185 0
M  V30 6315 H 622.96 -1.42217 -5.30156 0
M  V30 6316 H 623.221 0.0747794 -4.42037 0
M  V30 6317 N 622.28 1.30327 -0.886154 0
M  V30 6318 C 623.528 1.9571 -0.504195 0
M  V30 6319 C 623.849 1.70294 0.950003 0
M  V30 6320 O 623.119 1.02718 1.66811 0
M  V30 6321 H 621.699 0.72412 -0.183465 0
M  V30 6322 H 624.361 1.58835 -1.12949 0
M  V30 6323 H 623.457 3.04704 -0.675431 0
M  V30 6324 N 623.758 0.647228 1.43697 0
M  V30 6325 C 624.705 -0.0480092 2.3075 0
M  V30 6326 C 625.675 -0.820705 1.44408 0
M  V30 6327 O 626.86 -0.798515 1.73287 0
M  V30 6328 C 624 -1.01259 3.2991 0
M  V30 6329 C 623.113 -0.236629 4.31351 0
M  V30 6330 C 622.248 -1.19447 5.17596 0
M  V30 6331 C 621.287 -0.408595 6.10735 0
M  V30 6332 N 620.424 -1.31772 6.89623 0
M  V30 6333 H 625.264 0.700238 2.89656 0
M  V30 6334 H 622.801 0.357082 1.427 0
M  V30 6335 H 624.759 -1.58538 3.85903 0
M  V30 6336 H 623.389 -1.72778 2.72667 0
M  V30 6337 H 622.441 0.452353 3.77701 0
M  V30 6338 H 623.753 0.374731 4.9739 0
M  V30 6339 H 622.907 -1.83809 5.78186 0
M  V30 6340 H 621.646 -1.83975 4.51669 0
M  V30 6341 H 620.651 0.24841 5.49239 0
M  V30 6342 H 621.876 0.232188 6.78703 0
M  V30 6343 H 619.822 -1.94991 6.2635 0
M  V30 6344 H 619.739 -0.760779 7.52162 0
M  V30 6345 H 621.007 -1.94967 7.54724 0
M  V30 6346 N 625.236 -1.5273 0.388769 0
M  V30 6347 C 626.513 -1.93981 -0.251133 0
M  V30 6348 C 626.893 -1.32418 -1.64404 0
M  V30 6349 O 626.241 -0.492074 -2.23139 0
M  V30 6350 C 626.451 -3.47891 -0.27802 0
M  V30 6351 C 627.799 -4.21559 -0.507229 0
M  V30 6352 O 628.823 -3.54394 -0.358252 0
M  V30 6353 O 627.682 -5.40626 -0.799094 0
M  V30 6354 H 624.776 -0.812157 -0.15598 0
M  V30 6355 H 627.322 -1.63809 0.443237 0
M  V30 6356 H 626.094 -3.8503 0.697669 0
M  V30 6357 H 625.717 -3.84364 -1.01733 0
M  V30 6358 N 626.714 -0.118576 -1.57153 0
M  V30 6359 C 627.96 0.540326 -1.95469 0
M  V30 6360 C 628.293 1.66356 -1.00196 0
M  V30 6361 O 627.568 1.94461 -0.039104 0
M  V30 6362 C 627.851 1.07342 -3.43729 0
M  V30 6363 C 627.704 -0.0463732 -4.49776 0
M  V30 6364 C 629.023 1.96442 -3.93826 0
M  V30 6365 H 626.142 0.19494 -0.710751 0
M  V30 6366 H 628.784 -0.19405 -1.89006 0
M  V30 6367 H 626.934 1.69925 -3.49368 0
M  V30 6368 H 628.606 -0.681648 -4.56236 0
M  V30 6369 H 626.849 -0.709574 -4.27957 0
M  V30 6370 H 627.52 0.367856 -5.50773 0
M  V30 6371 H 629.996 1.43731 -3.90488 0
M  V30 6372 H 628.872 2.3066 -4.98084 0
M  V30 6373 H 629.133 2.89077 -3.34495 0
M  V30 6374 N 628.193 1.56834 0.155195 0
M  V30 6375 C 629.44 1.82898 0.869179 0
M  V30 6376 C 629.768 0.698194 1.81537 0
M  V30 6377 O 629.023 -0.313404 1.93174 0
M  V30 6378 C 629.322 3.15239 1.68402 0
M  V30 6379 C 628.988 4.42123 0.885341 0
M  V30 6380 C 627.65 4.76583 0.664971 0
M  V30 6381 C 630.002 5.20178 0.326234 0
M  V30 6382 C 627.33 5.86566 -0.125346 0
M  V30 6383 C 629.682 6.3099 -0.45108 0
M  V30 6384 C 628.346 6.64006 -0.682102 0
M  V30 6385 H 627.616 0.66927 0.318055 0
M  V30 6386 H 630.263 1.91036 0.133241 0
M  V30 6387 H 628.568 3.02515 2.48982 0
M  V30 6388 H 630.265 3.32618 2.23978 0
M  V30 6389 H 626.855 4.15102 1.06716 0
M  V30 6390 H 631.039 4.93936 0.483787 0
M  V30 6391 H 626.295 6.10594 -0.313915 0
M  V30 6392 H 630.469 6.9067 -0.89149 0
M  V30 6393 H 628.096 7.49065 -1.29636 0
M  V30 6394 O 629.71 -0.29999 1.58689 0
M  V30 6395 H 630.401 -0.947015 1.68971 0
M  V30 END ATOM
M  V30 BEGIN BOND
M  V30 END BOND
M  V30 END CTAB
M  END
$$$$
