drugbank_target|Q9GZP0 Platelet-derived growth factor D (DB05139; DB05465)
 OpenBabel12092120313D

  0  0  0     0  0            999 V3000
M  V30 BEGIN CTAB
M  V30 COUNTS 5947 6013 0 0 0
M  V30 BEGIN ATOM
M  V30 1 H -0.908 1.98254 -0.117106 0
M  V30 2 N 0 1.576 0 0
M  V30 3 C 0.933 2.03868 1.02534 0
M  V30 4 C 1.911 0.928543 1.3348 0
M  V30 5 O 3.095 1.19667 1.45644 0
M  V30 6 C 0.222 2.43627 2.35294 0
M  V30 7 C -0.732 3.65373 2.2001 0
M  V30 8 S 0.101 5.13292 1.52614 0
M  V30 9 C 1.257 5.56322 2.86805 0
M  V30 10 H 1.49 2.90518 0.631377 0
M  V30 11 H -0.977 1.52953 0.210867 0
M  V30 12 H 0.981 2.67203 3.11629 0
M  V30 13 H -0.358 1.57376 2.7183 0
M  V30 14 H -1.165 3.90944 3.18086 0
M  V30 15 H -1.563 3.418 1.51819 0
M  V30 16 H 0.729 5.58782 3.83104 0
M  V30 17 H 1.672 6.56266 2.65933 0
M  V30 18 H 2.08 4.83886 2.90714 0
M  V30 19 N 1.4781 -0.272755 1.55222 0
M  V30 20 C 2.4281 -1.33946 1.84506 0
M  V30 21 C 3.4121 -1.44682 0.70399 0
M  V30 22 O 4.6041 -1.48358 0.965338 0
M  V30 23 C 1.7331 -2.69968 2.12067 0
M  V30 24 C 0.8191 -2.63341 3.32434 0
M  V30 25 N 1.2101 -2.26335 4.52334 0
M  V30 26 C -0.4919 -2.94402 3.35028 0
M  V30 27 C 0.2091 -2.29705 5.34425 0
M  V30 28 N -0.8149 -2.68188 4.72838 0
M  V30 29 H 2.9871 -1.04343 2.74754 0
M  V30 30 H 0.5011 -0.481389 1.55101 0
M  V30 31 H 2.4981 -3.46916 2.31202 0
M  V30 32 H 1.1581 -3.00459 1.23103 0
M  V30 33 H 2.1691 -1.98309 4.78429 0
M  V30 34 H -1.1539 -3.29603 2.56257 0
M  V30 35 H 0.2361 -2.03653 6.40293 0
M  V30 36 N 2.9562 -1.48159 -0.537278 0
M  V30 37 C 4.3722 -1.34118 -0.865129 0
M  V30 38 C 4.5722 -0.346678 -1.98495 0
M  V30 39 O 3.6282 0.234715 -2.51407 0
M  V30 40 C 4.9412 -2.73963 -1.23954 0
M  V30 41 C 6.4892 -2.82397 -1.34984 0
M  V30 42 C 6.9642 -4.22928 -1.75772 0
M  V30 43 N 8.4552 -4.25566 -1.82887 0
M  V30 44 C 9.1902 -5.31235 -2.15817 0
M  V30 45 N 8.6862 -6.47189 -2.47222 0
M  V30 46 N 10.4792 -5.18624 -2.16761 0
M  V30 47 H 2.6302 -2.1144 0.201715 0
M  V30 48 H 4.8932 -0.947598 0.0275949 0
M  V30 49 H 4.5992 -3.48264 -0.490381 0
M  V30 50 H 4.4732 -3.0702 -2.19132 0
M  V30 51 H 6.8602 -2.08356 -2.08978 0
M  V30 52 H 6.9412 -2.5297 -0.379448 0
M  V30 53 H 6.5852 -4.97482 -1.02341 0
M  V30 54 H 6.5152 -4.49794 -2.73848 0
M  V30 55 H 9.0062 -3.41924 -1.60924 0
M  V30 56 H 9.3192 -7.23564 -2.71433 0
M  V30 57 H 7.6642 -6.50476 -2.44757 0
M  V30 58 H 10.8552 -4.27056 -1.91679 0
M  V30 59 H 11.0282 -6.01078 -2.42093 0
M  V30 60 N 4.4343 0.785586 -1.36625 0
M  V30 61 C 5.3643 1.91259 -1.33949 0
M  V30 62 C 6.3453 1.68795 -0.210325 0
M  V30 63 O 7.5303 1.89854 -0.408561 0
M  V30 64 C 4.6603 3.28339 -1.13186 0
M  V30 65 C 3.6143 3.65335 -2.22967 0
M  V30 66 C 2.9403 5.00806 -1.87342 0
M  V30 67 C 4.2403 3.7352 -3.65075 0
M  V30 68 H 5.9343 1.93755 -2.28253 0
M  V30 69 H 3.4803 0.930788 -1.09874 0
M  V30 70 H 5.4333 4.06804 -1.09948 0
M  V30 71 H 4.1573 3.2624 -0.153332 0
M  V30 72 H 2.8163 2.89169 -2.25337 0
M  V30 73 H 2.4643 4.95233 -0.880545 0
M  V30 74 H 2.1643 5.26529 -2.60846 0
M  V30 75 H 3.6883 5.81687 -1.85667 0
M  V30 76 H 5.1023 4.42168 -3.64911 0
M  V30 77 H 3.4993 4.10731 -4.37516 0
M  V30 78 H 4.5693 2.74527 -3.99703 0
M  V30 79 N 5.9124 1.20967 1.01018 0
M  V30 80 C 7.1614 1.01796 1.74128 0
M  V30 81 C 7.4744 -0.449691 1.90361 0
M  V30 82 O 8.6804 -0.76068 2.60626 0
M  V30 83 C 7.1364 1.7727 3.13215 0
M  V30 84 C 6.7444 3.28171 3.04972 0
M  V30 85 C 8.4884 1.66489 3.90489 0
M  V30 86 C 6.3954 3.96156 4.39107 0
M  V30 87 H 5.3254 0.377276 0.652824 0
M  V30 88 H 7.9764 1.44651 1.12909 0
M  V30 89 H 6.3584 1.27205 3.75013 0
M  V30 90 H 7.5324 3.85499 2.52443 0
M  V30 91 H 5.8474 3.39437 2.41188 0
M  V30 92 H 8.4444 2.14617 4.89738 0
M  V30 93 H 8.7874 0.6222 4.11624 0
M  V30 94 H 9.3204 2.14003 3.35332 0
M  V30 95 H 6.0594 5.00604 4.23174 0
M  V30 96 H 5.5794 3.43617 4.91617 0
M  V30 97 H 7.2584 4.00774 5.07926 0
M  V30 98 N 7.3905 -1.2043 1.01659 0
M  V30 99 C 8.6375 -1.89797 0.705917 0
M  V30 100 C 8.9655 -1.78848 -0.764439 0
M  V30 101 O 8.2205 -1.16694 -1.57102 0
M  V30 102 C 8.5195 -3.40464 1.08714 0
M  V30 103 C 8.1855 -3.71614 2.5537 0
M  V30 104 C 6.8475 -3.79826 2.95441 0
M  V30 105 C 9.1995 -3.85915 3.50313 0
M  V30 106 C 6.5275 -3.99797 4.29394 0
M  V30 107 C 8.8795 -4.07396 4.83954 0
M  V30 108 C 7.5435 -4.13837 5.23732 0
M  V30 109 H 6.8135 -0.694518 0.258313 0
M  V30 110 H 9.4605 -1.42691 1.27717 0
M  V30 111 H 7.7655 -3.89385 0.434309 0
M  V30 112 H 9.4625 -3.92433 0.824461 0
M  V30 113 H 6.0525 -3.65822 2.23321 0
M  V30 114 H 10.2365 -3.78926 3.20513 0
M  V30 115 H 5.4925 -4.03018 4.59768 0
M  V30 116 H 9.6665 -4.17404 5.57447 0
M  V30 117 H 7.2935 -4.29064 6.27541 0
M  V30 118 N 8.8686 -0.792821 -1.36206 0
M  V30 119 C 10.1146 -0.36733 -1.99446 0
M  V30 120 C 10.4476 1.05917 -1.62774 0
M  V30 121 O 9.7226 1.7324 -0.88421 0
M  V30 122 C 10.0056 -0.535044 -3.56103 0
M  V30 123 C 9.8586 -2.00548 -4.02617 0
M  V30 124 C 11.1776 0.0478191 -4.40074 0
M  V30 125 H 8.2966 -0.134941 -0.724541 0
M  V30 126 H 10.9386 -0.999794 -1.61568 0
M  V30 127 H 9.0886 0.00336329 -3.885 0
M  V30 128 H 10.7606 -2.60521 -3.80692 0
M  V30 129 H 9.0036 -2.50686 -3.54032 0
M  V30 130 H 9.6746 -2.07377 -5.11565 0
M  V30 131 H 12.1506 -0.411822 -4.14057 0
M  V30 132 H 11.0266 -0.0995336 -5.4881 0
M  V30 133 H 11.2876 1.14025 -4.27142 0
M  V30 134 N 10.3467 1.47872 -0.545128 0
M  V30 135 C 11.5767 2.06589 -0.0210534 0
M  V30 136 C 11.9847 1.39997 1.27269 0
M  V30 137 O 11.3277 0.486421 1.77143 0
M  V30 138 C 11.3897 3.58574 0.257933 0
M  V30 139 C 11.0537 4.47132 -0.944573 0
M  V30 140 C 12.0507 4.85986 -1.84699 0
M  V30 141 C 9.7357 4.88821 -1.15584 0
M  V30 142 C 11.7297 5.65314 -2.94446 0
M  V30 143 C 9.4167 5.67916 -2.25642 0
M  V30 144 C 10.4147 6.06073 -3.14905 0
M  V30 145 O 10.1027 6.83578 -4.23057 0
M  V30 146 H 9.8347 0.674971 -0.0372899 0
M  V30 147 H 12.3887 1.91037 -0.754599 0
M  V30 148 H 10.6187 3.72295 1.04564 0
M  V30 149 H 12.3077 3.99356 0.72592 0
M  V30 150 H 13.0737 4.54388 -1.69577 0
M  V30 151 H 8.9527 4.58595 -0.470279 0
M  V30 152 H 12.4967 5.95016 -3.64145 0
M  V30 153 H 8.3937 5.98927 -2.40742 0
M  V30 154 H 9.1617 7.01954 -4.20954 0
M  V30 155 N 11.8248 0.280983 1.55075 0
M  V30 156 C 13.0528 -0.337293 2.04132 0
M  V30 157 C 13.4678 -1.4903 1.15912 0
M  V30 158 O 12.8248 -1.81606 0.180459 0
M  V30 159 C 12.8758 -0.812706 3.52246 0
M  V30 160 O 12.5968 0.294387 4.3711 0
M  V30 161 C 14.0978 -1.4982 4.17216 0
M  V30 162 H 11.3178 -0.0761638 0.666663 0
M  V30 163 H 13.8618 0.414787 2.00249 0
M  V30 164 H 12.0168 -1.51486 3.56554 0
M  V30 165 H 12.4308 -0.0721325 5.2445 0
M  V30 166 H 13.9048 -1.7822 5.22438 0
M  V30 167 H 14.3818 -2.43168 3.65741 0
M  V30 168 H 14.9878 -0.839742 4.16927 0
M  V30 169 N 13.3029 -1.57598 0.00835791 0
M  V30 170 C 14.2329 -2.1198 -0.979113 0
M  V30 171 C 15.2139 -1.03091 -1.35301 0
M  V30 172 O 16.3989 -1.30818 -1.43528 0
M  V30 173 C 13.5289 -2.62995 -2.26828 0
M  V30 174 C 12.4829 -3.76485 -2.03576 0
M  V30 175 C 11.8089 -4.13846 -3.38579 0
M  V30 176 C 13.1089 -5.0342 -1.39161 0
M  V30 177 H 14.8029 -2.94738 -0.526281 0
M  V30 178 H 12.3489 -1.41783 -0.251704 0
M  V30 179 H 14.3019 -2.99669 -2.96271 0
M  V30 180 H 13.0259 -1.7737 -2.7424 0
M  V30 181 H 11.6849 -3.40217 -1.36557 0
M  V30 182 H 11.3329 -3.25232 -3.83709 0
M  V30 183 H 11.0329 -4.90312 -3.23834 0
M  V30 184 H 12.5569 -4.53086 -4.09323 0
M  V30 185 H 13.9709 -5.37812 -1.98573 0
M  V30 186 H 12.3679 -5.84746 -1.34878 0
M  V30 187 H 13.4379 -4.83548 -0.361868 0
M  V30 188 N 14.781 0.264519 -1.55364 0
M  V30 189 C 16.03 0.992812 -1.75574 0
M  V30 190 C 16.343 1.87142 -0.568979 0
M  V30 191 O 17.549 2.63513 -0.653682 0
M  V30 192 C 16.005 1.81519 -3.10771 0
M  V30 193 C 15.613 0.984839 -4.37041 0
M  V30 194 C 17.357 2.53727 -3.40327 0
M  V30 195 C 15.264 1.80209 -5.63275 0
M  V30 196 H 14.194 0.374412 -0.65447 0
M  V30 197 H 16.845 0.248138 -1.81815 0
M  V30 198 H 15.227 2.60115 -2.98591 0
M  V30 199 H 16.401 0.242455 -4.60162 0
M  V30 200 H 14.716 0.37691 -4.14691 0
M  V30 201 H 17.313 3.15292 -4.3185 0
M  V30 202 H 17.656 3.24447 -2.60845 0
M  V30 203 H 18.189 1.82156 -3.53644 0
M  V30 204 H 14.928 1.13896 -6.45529 0
M  V30 205 H 14.448 2.52022 -5.44284 0
M  V30 206 H 16.127 2.37364 -6.01887 0
M  V30 207 N 16.2591 1.48442 0.529413 0
M  V30 208 C 17.4991 1.58086 1.29569 0
M  V30 209 C 17.8631 0.249302 1.90375 0
M  V30 210 O 19.0641 0.220738 2.67892 0
M  V30 211 C 17.3351 2.68793 2.35552 0
M  V30 212 S 18.8941 2.98207 3.21898 0
M  V30 213 H 15.7121 0.557922 0.440732 0
M  V30 214 H 18.3141 1.85966 0.603059 0
M  V30 215 H 17.0181 3.64102 1.89363 0
M  V30 216 H 16.5491 2.42817 3.09522 0
M  V30 217 H 18.5641 2.37548 4.35644 0
M  V30 218 N 17.7372 -0.778329 1.37039 0
M  V30 219 C 18.7002 -1.87301 1.32102 0
M  V30 220 C 19.7002 -1.59198 0.226405 0
M  V30 221 O 20.8902 -1.67403 0.481861 0
M  V30 222 C 18.0222 -3.24309 1.05055 0
M  V30 223 H 19.2152 -1.93093 2.29467 0
M  V30 224 H 16.7682 -0.977358 1.21973 0
M  V30 225 H 17.5032 -3.24196 0.0819373 0
M  V30 226 H 17.2882 -3.46098 1.84279 0
M  V30 227 H 18.7782 -4.04382 1.04234 0
M  V30 228 N 19.2153 -1.21501 -1.00376 0
M  V30 229 C 20.1633 -0.972442 -2.11297 0
M  V30 230 C 21.1573 0.080731 -1.69208 0
M  V30 231 O 22.3633 -0.0707666 -1.79861 0
M  V30 232 H 18.7383 -0.297218 -0.690772 0
M  V30 233 H 20.7093 -1.91394 -2.28934 0
M  V30 234 C 19.4583 -0.555065 -3.43241 0
M  V30 235 H 18.7813 -1.35709 -3.76062 0
M  V30 236 H 20.2213 -0.424664 -4.21868 0
M  V30 237 C 18.6803 0.734147 -3.28804 0
M  V30 238 O 19.2103 1.78937 -3.59645 0
M  V30 239 N 17.4163 0.701133 -2.82015 0
M  V30 240 H 16.9633 -0.157874 -2.57116 0
M  V30 241 H 16.9213 1.56403 -2.72737 0
M  V30 242 N 20.6934 1.19889 -1.02296 0
M  V30 243 C 21.9404 1.8942 -0.715972 0
M  V30 244 C 22.2684 1.79251 0.754944 0
M  V30 245 O 21.5234 1.17526 1.56481 0
M  V30 246 C 21.8224 3.39883 -1.10518 0
M  V30 247 C 21.4884 3.70254 -2.57337 0
M  V30 248 C 20.1504 3.78254 -2.97452 0
M  V30 249 C 22.5024 3.84052 -3.52354 0
M  V30 250 C 19.8304 3.97514 -4.31509 0
M  V30 251 C 22.1824 4.04824 -4.86108 0
M  V30 252 C 20.8464 4.11054 -5.25919 0
M  V30 253 H 20.1164 0.693138 -0.261993 0
M  V30 254 H 22.7634 1.42012 -1.28472 0
M  V30 255 H 21.0684 3.8915 -0.454953 0
M  V30 256 H 22.7654 3.9199 -0.845261 0
M  V30 257 H 19.3554 3.64632 -2.25258 0
M  V30 258 H 23.5394 3.77221 -3.22518 0
M  V30 259 H 18.7954 4.00574 -4.61898 0
M  V30 260 H 22.9694 4.14442 -5.59653 0
M  V30 261 H 20.5964 4.2573 -6.29808 0
M  V30 262 N 22.1715 0.800033 1.35784 0
M  V30 263 C 23.4115 0.382891 2.00782 0
M  V30 264 C 23.7755 -1.02891 1.62103 0
M  V30 265 O 24.9765 -1.54771 2.19771 0
M  V30 266 C 23.2475 0.553299 3.53091 0
M  V30 267 S 24.8065 0.225608 4.3822 0
M  V30 268 H 21.6245 0.145737 0.695904 0
M  V30 269 H 24.2265 1.04085 1.65489 0
M  V30 270 H 22.9305 1.58091 3.78729 0
M  V30 271 H 22.4615 -0.120214 3.93216 0
M  V30 272 H 24.4765 -0.969074 4.86645 0
M  V30 273 N 23.6496 -1.47581 0.552962 0
M  V30 274 C 24.8746 -2.07378 0.0300593 0
M  V30 275 C 25.2996 -1.40355 -1.25229 0
M  V30 276 O 24.6576 -0.477099 -1.7491 0
M  V30 277 C 24.7056 -3.60274 -0.153231 0
M  V30 278 O 23.8096 -3.94041 -1.21678 0
M  V30 279 H 23.1506 -0.662158 0.0494182 0
M  V30 280 H 25.6806 -1.89662 0.767434 0
M  V30 281 H 25.6906 -4.0633 -0.368761 0
M  V30 282 H 24.3656 -4.08455 0.783397 0
M  V30 283 H 22.9426 -3.59735 -0.982079 0
M  V30 284 N 25.1277 -0.289203 -1.54924 0
M  V30 285 C 26.3677 0.324536 -2.01807 0
M  V30 286 C 26.7317 1.5199 -1.17316 0
M  V30 287 O 27.9327 2.20422 -1.53843 0
M  V30 288 C 26.2037 0.683578 -3.50802 0
M  V30 289 S 27.7627 1.28185 -4.19659 0
M  V30 290 H 24.5807 0.100236 -0.703899 0
M  V30 291 H 27.1827 -0.414325 -1.91059 0
M  V30 292 H 25.8867 -0.195073 -4.09936 0
M  V30 293 H 25.4177 1.45354 -3.65562 0
M  V30 294 H 27.4327 2.57006 -4.24456 0
M  V30 295 N 26.6058 1.57591 -0.0167156 0
M  V30 296 C 28.0218 1.55946 0.339557 0
M  V30 297 C 28.2218 1.02109 1.73713 0
M  V30 298 O 27.2778 0.662303 2.43659 0
M  V30 299 C 28.5908 3.00037 0.199499 0
M  V30 300 C 30.1388 3.11805 0.273193 0
M  V30 301 C 30.6138 4.57713 0.162068 0
M  V30 302 N 32.1048 4.6268 0.219444 0
M  V30 303 C 32.8398 5.73185 0.157054 0
M  V30 304 N 32.3358 6.92786 0.0442936 0
M  V30 305 N 34.1288 5.61707 0.21014 0
M  V30 306 H 26.2798 1.90921 -0.930758 0
M  V30 307 H 28.5428 0.877674 -0.358319 0
M  V30 308 H 28.2488 3.4333 -0.76273 0
M  V30 309 H 28.1228 3.64387 0.974786 0
M  V30 310 H 30.5098 2.68433 1.22587 0
M  V30 311 H 30.5908 2.50201 -0.532256 0
M  V30 312 H 30.2348 5.01763 -0.78714 0
M  V30 313 H 30.1648 5.17283 0.986222 0
M  V30 314 H 32.6558 3.76649 0.307246 0
M  V30 315 H 32.9688 7.728 0.00304069 0
M  V30 316 H 31.3138 6.94999 0.00968457 0
M  V30 317 H 34.5048 4.6716 0.296546 0
M  V30 318 H 34.6778 6.47807 0.158054 0
M  V30 319 N 28.0839 -0.256276 1.55502 0
M  V30 320 C 29.3609 -1.00789 1.67633 0
M  V30 321 C 29.7409 -2.03706 0.553826 0
M  V30 322 O 29.0889 -2.24145 -0.443969 0
M  V30 323 C 29.2989 -1.64968 3.07549 0
M  V30 324 C 30.6469 -2.15505 3.65845 0
M  V30 325 O 31.6709 -1.74925 3.1029 0
M  V30 326 O 30.5299 -2.89986 4.63217 0
M  V30 327 H 27.6239 -0.468553 0.681459 0
M  V30 328 H 30.1699 -0.250806 1.67836 0
M  V30 329 H 28.9419 -0.904785 3.80696 0
M  V30 330 H 28.5649 -2.47321 3.11317 0
M  V30 331 N 29.562 -1.4872 -0.521534 0
M  V30 332 C 30.79 -1.60843 -1.30142 0
M  V30 333 C 31.205 -0.271897 -1.86832 0
M  V30 334 O 30.562 0.739969 -1.66825 0
M  V30 335 C 30.613 -2.66155 -2.4463 0
M  V30 336 O 30.334 -3.94623 -1.90275 0
M  V30 337 C 31.835 -2.88795 -3.36322 0
M  V30 338 H 29.055 -0.542075 -0.395468 0
M  V30 339 H 31.599 -1.94609 -0.628285 0
M  V30 340 H 29.754 -2.35224 -3.07812 0
M  V30 341 H 30.168 -4.52468 -2.65279 0
M  V30 342 H 31.642 -3.66264 -4.12983 0
M  V30 343 H 32.119 -1.97934 -3.9207 0
M  V30 344 H 32.725 -3.21063 -2.78924 0
M  V30 345 N 31.0401 0.771051 -1.3745 0
M  V30 346 C 32.2651 1.56529 -1.36065 0
M  V30 347 C 32.6901 1.88029 0.0515859 0
M  V30 348 O 32.0481 1.49282 1.02882 0
M  V30 349 C 32.0961 2.85187 -2.20683 0
M  V30 350 O 31.2001 3.79593 -1.61193 0
M  V30 351 H 30.5411 0.47411 -0.464883 0
M  V30 352 H 33.0711 0.954269 -1.80983 0
M  V30 353 H 33.0811 3.34283 -2.33921 0
M  V30 354 H 31.7561 2.61588 -3.23334 0
M  V30 355 H 30.3331 3.38239 -1.56999 0
M  V30 356 N 32.5182 1.22032 0.997298 0
M  V30 357 C 33.4812 0.987909 2.06816 0
M  V30 358 C 34.4812 -0.0440084 1.6074 0
M  V30 359 O 35.6712 0.194053 1.73116 0
M  V30 360 C 32.8032 0.49132 3.37341 0
M  V30 361 H 33.9962 1.93803 2.28868 0
M  V30 362 H 31.5492 1.03838 1.16822 0
M  V30 363 H 32.2842 -0.463364 3.20973 0
M  V30 364 H 32.0692 1.23575 3.72118 0
M  V30 365 H 33.5592 0.348824 4.16141 0
M  V30 366 N 33.9963 -1.19345 1.0293 0
M  V30 367 C 35.2243 -1.92997 0.745644 0
M  V30 368 C 35.6393 -1.75519 -0.695589 0
M  V30 369 O 34.9963 -1.07737 -1.47306 0
M  V30 370 C 35.0473 -3.44741 1.08792 0
M  V30 371 O 34.7683 -3.61658 2.47256 0
M  V30 372 C 36.2693 -4.35515 0.827129 0
M  V30 373 H 33.4893 -0.613042 0.272801 0
M  V30 374 H 36.0333 -1.51473 1.3739 0
M  V30 375 H 34.1883 -3.84097 0.504832 0
M  V30 376 H 34.6023 -4.55514 2.60015 0
M  V30 377 H 36.0763 -5.40589 1.11658 0
M  V30 378 H 36.5533 -4.38552 -0.238436 0
M  V30 379 H 37.1593 -4.01841 1.39297 0
M  V30 380 N 35.4744 -0.807222 -1.35358 0
M  V30 381 C 36.8854 -0.44876 -1.81226 0
M  V30 382 C 37.2364 1.02929 -1.67033 0
M  V30 383 O 36.3614 1.79991 -1.20133 0
M  V30 384 C 36.9564 -0.807774 -3.2903 0
M  V30 385 C 35.5154 -0.501901 -3.73039 0
M  V30 386 C 34.6624 -1.03304 -2.57339 0
M  V30 387 H 37.6134 -0.998808 -1.23327 0
M  V30 388 H 37.6344 -0.10554 -3.80354 0
M  V30 389 H 37.1464 -1.88357 -3.39328 0
M  V30 390 H 35.2474 0.565128 -3.68289 0
M  V30 391 H 35.3604 -1.03497 -4.67787 0
M  V30 392 H 33.7244 -0.455339 -2.50597 0
M  V30 393 H 34.5074 -2.11496 -2.70415 0
M  V30 394 N 36.9525 1.47285 -0.560781 0
M  V30 395 C 37.8845 2.28118 0.222438 0
M  V30 396 C 38.8975 1.37219 0.876056 0
M  V30 397 O 40.0865 1.62011 0.749307 0
M  V30 398 C 37.1865 3.1159 1.33285 0
M  V30 399 C 36.3595 4.30473 0.77534 0
M  V30 400 C 35.4185 4.95513 1.77069 0
M  V30 401 O 34.4445 5.53792 1.31539 0
M  V30 402 N 35.6465 4.90531 3.10418 0
M  V30 403 H 38.4115 2.95976 -0.470958 0
M  V30 404 H 35.9725 1.56955 -0.39709 0
M  V30 405 H 37.9645 3.51967 1.99752 0
M  V30 406 H 36.5345 2.45951 1.92943 0
M  V30 407 H 35.7545 3.94144 -0.0662113 0
M  V30 408 H 37.0425 5.07362 0.382272 0
M  V30 409 H 36.4405 4.44389 3.5005 0
M  V30 410 H 34.9975 5.34917 3.72434 0
M  V30 411 N 38.4306 0.297415 1.54768 0
M  V30 412 C 39.6556 -0.318435 2.04941 0
M  V30 413 C 40.0806 -1.4701 1.17345 0
M  V30 414 O 39.4386 -1.80436 0.176758 0
M  V30 415 C 39.4866 -0.755749 3.52592 0
M  V30 416 O 38.5906 -1.86088 3.68028 0
M  V30 417 H 37.9316 -0.062421 0.661059 0
M  V30 418 H 40.4616 0.438215 1.99852 0
M  V30 419 H 40.4716 -1.04552 3.94376 0
M  V30 420 H 39.1466 0.0867233 4.1581 0
M  V30 421 H 37.7236 -1.57193 3.38149 0
M  V30 422 N 39.9087 -1.5758 0.0250728 0
M  V30 423 C 40.8717 -2.08896 -0.943139 0
M  V30 424 C 41.8717 -1.00321 -1.25668 0
M  V30 425 O 43.0617 -1.26495 -1.19769 0
M  V30 426 C 40.1937 -2.55143 -2.26086 0
M  V30 427 H 41.3867 -2.95723 -0.498775 0
M  V30 428 H 38.9397 -1.54703 -0.222888 0
M  V30 429 H 39.6747 -1.71633 -2.75159 0
M  V30 430 H 39.4597 -3.34461 -2.04641 0
M  V30 431 H 40.9497 -2.95083 -2.95492 0
M  V30 432 N 41.3868 0.248026 -1.55636 0
M  V30 433 C 42.6118 0.998028 -1.81808 0
M  V30 434 C 43.0368 1.78207 -0.601979 0
M  V30 435 O 42.3948 1.75653 0.448961 0
M  V30 436 C 42.4428 1.9125 -3.05705 0
M  V30 437 O 41.5468 3.00406 -2.82542 0
M  V30 438 H 40.8878 0.284045 -0.600179 0
M  V30 439 H 43.4178 0.269357 -2.02819 0
M  V30 440 H 43.4278 2.32737 -3.35108 0
M  V30 441 H 42.1028 1.33602 -3.93857 0
M  V30 442 H 40.6798 2.63056 -2.64303 0
M  V30 443 N 42.8649 1.48995 0.513639 0
M  V30 444 C 44.1139 1.57093 1.2651 0
M  V30 445 C 44.4269 0.257091 1.93903 0
M  V30 446 O 45.6329 0.216478 2.70636 0
M  V30 447 C 44.0889 2.77118 2.29638 0
M  V30 448 C 43.6969 4.15209 1.68241 0
M  V30 449 C 45.4409 2.94538 3.05692 0
M  V30 450 C 43.3479 5.26474 2.69406 0
M  V30 451 H 42.2779 0.584876 0.475854 0
M  V30 452 H 44.9289 1.7536 0.540487 0
M  V30 453 H 43.3109 2.52319 3.05207 0
M  V30 454 H 44.4849 4.50094 0.987505 0
M  V30 455 H 42.7999 4.03042 1.04623 0
M  V30 456 H 45.3969 3.74832 3.8132 0
M  V30 457 H 45.7399 2.04614 3.62545 0
M  V30 458 H 46.2729 3.19316 2.37238 0
M  V30 459 H 43.0119 6.18417 2.17351 0
M  V30 460 H 42.5319 4.96058 3.37175 0
M  V30 461 H 44.2109 5.55277 3.32078 0
M  V30 462 N 44.343 -0.763751 1.37857 0
M  V30 463 C 45.29 -1.87726 1.34267 0
M  V30 464 C 46.26 -1.64807 0.206879 0
M  V30 465 O 47.445 -1.86613 0.397508 0
M  V30 466 C 44.585 -3.24896 1.16346 0
M  V30 467 C 43.698 -3.59716 2.39225 0
M  V30 468 C 42.833 -4.86137 2.14114 0
M  V30 469 C 41.872 -5.13711 3.32817 0
M  V30 470 N 41.009 -6.31323 3.07206 0
M  V30 471 H 45.849 -1.90129 2.29466 0
M  V30 472 H 43.386 -0.929433 1.14017 0
M  V30 473 H 45.344 -4.04036 1.03975 0
M  V30 474 H 43.974 -3.21847 0.247909 0
M  V30 475 H 43.026 -2.75498 2.62307 0
M  V30 476 H 44.338 -3.76027 3.27728 0
M  V30 477 H 43.492 -5.73198 1.9882 0
M  V30 478 H 42.231 -4.71945 1.22961 0
M  V30 479 H 41.236 -4.25123 3.48641 0
M  V30 480 H 42.461 -5.29807 4.24832 0
M  V30 481 H 40.407 -6.18474 2.1869 0
M  V30 482 H 40.324 -6.48087 3.89254 0
M  V30 483 H 41.592 -7.213 2.95546 0
M  V30 484 N 45.8211 -1.22559 -0.990812 0
M  V30 485 C 46.7841 -0.998863 -2.0629 0
M  V30 486 C 47.7841 0.0354834 -1.60761 0
M  V30 487 O 48.9741 -0.203231 -1.7301 0
M  V30 488 C 46.1061 -0.509203 -3.37076 0
M  V30 489 H 47.2991 -1.95014 -2.27837 0
M  V30 490 H 44.8521 -1.04456 -1.16269 0
M  V30 491 H 45.5871 0.446335 -3.21214 0
M  V30 492 H 45.3721 -1.25547 -3.71457 0
M  V30 493 H 46.8621 -0.370888 -4.1595 0
M  V30 494 N 47.2992 1.18797 -1.03562 0
M  V30 495 C 48.2292 2.24472 -0.643019 0
M  V30 496 C 49.2102 1.66433 0.351283 0
M  V30 497 O 50.3952 1.92803 0.232505 0
M  V30 498 C 47.5252 3.473 4.24935e-05 0
M  V30 499 C 46.4792 4.18055 -0.917257 0
M  V30 500 C 45.8052 5.34519 -0.138941 0
M  V30 501 C 47.1052 4.72109 -2.23407 0
M  V30 502 H 48.7992 2.57566 -1.52643 0
M  V30 503 H 46.3452 1.23806 -0.735394 0
M  V30 504 H 48.2982 4.20426 0.286383 0
M  V30 505 H 47.0222 3.13424 0.918299 0
M  V30 506 H 45.6812 3.46821 -1.1879 0
M  V30 507 H 45.3292 4.96891 0.781562 0
M  V30 508 H 45.0292 5.82794 -0.750005 0
M  V30 509 H 46.5532 6.10438 0.1405 0
M  V30 510 H 47.9672 5.36955 -2.00879 0
M  V30 511 H 46.3642 5.30897 -2.79765 0
M  V30 512 H 47.4342 3.89807 -2.88407 0
M  V30 513 N 48.7773 0.814389 1.34928 0
M  V30 514 C 50.1933 0.499084 1.51596 0
M  V30 515 C 50.3933 -0.978319 1.76157 0
M  V30 516 O 49.4493 -1.76309 1.80752 0
M  V30 517 C 50.7623 1.35121 2.68631 0
M  V30 518 C 52.3103 1.34746 2.82511 0
M  V30 519 C 52.7853 2.18388 4.0258 0
M  V30 520 N 54.2763 2.15966 4.09772 0
M  V30 521 C 55.0113 2.77437 5.01813 0
M  V30 522 N 54.5073 3.47866 5.99134 0
M  V30 523 N 56.3003 2.67037 4.94619 0
M  V30 524 H 48.4513 1.7711 1.17243 0
M  V30 525 H 50.7143 0.754256 0.574284 0
M  V30 526 H 50.4203 2.40001 2.57085 0
M  V30 527 H 50.2943 1.00991 3.63429 0
M  V30 528 H 52.6813 0.30648 2.93504 0
M  V30 529 H 52.7623 1.72869 1.88547 0
M  V30 530 H 52.4063 3.2253 3.92347 0
M  V30 531 H 52.3363 1.77621 4.9574 0
M  V30 532 H 54.8273 1.64729 3.40107 0
M  V30 533 H 55.1403 3.92038 6.65977 0
M  V30 534 H 53.4853 3.51972 5.99284 0
M  V30 535 H 56.6763 2.11597 4.17546 0
M  V30 536 H 56.8493 3.15232 5.66156 0
M  V30 537 N 50.2554 -1.46986 0.568584 0
M  V30 538 C 51.2034 -2.31858 -0.185649 0
M  V30 539 C 52.1974 -1.43624 -0.898249 0
M  V30 540 O 53.4034 -1.60327 -0.818242 0
M  V30 541 H 49.7784 -0.747866 -0.0787399 0
M  V30 542 H 51.7494 -2.93303 0.549191 0
M  V30 543 C 50.4984 -3.26513 -1.19519 0
M  V30 544 H 49.8214 -3.94377 -0.656285 0
M  V30 545 H 51.2614 -3.88707 -1.6936 0
M  V30 546 C 49.7204 -2.50847 -2.24894 0
M  V30 547 O 50.2504 -2.26119 -3.32014 0
M  V30 548 N 48.4564 -2.11656 -1.99124 0
M  V30 549 H 48.0034 -2.31966 -1.12024 0
M  V30 550 H 47.9614 -1.61347 -2.69842 0
M  V30 551 N 51.7335 -0.305618 -1.54608 0
M  V30 552 C 52.6965 0.555591 -2.22364 0
M  V30 553 C 53.6965 1.05768 -1.21119 0
M  V30 554 O 54.8865 0.952972 -1.45822 0
M  V30 555 C 52.0185 1.76974 -2.91364 0
M  V30 556 H 53.2115 -0.0364572 -2.99878 0
M  V30 557 H 50.7645 -0.0565007 -1.56198 0
M  V30 558 H 51.4995 2.40151 -2.17941 0
M  V30 559 H 51.2845 1.41732 -3.65588 0
M  V30 560 H 52.7745 2.38148 -3.43038 0
M  V30 561 N 53.2116 1.57565 -0.0334293 0
M  V30 562 C 54.1596 2.1164 0.96496 0
M  V30 563 C 55.1536 1.04398 1.33407 0
M  V30 564 O 56.3596 1.22828 1.3158 0
M  V30 565 H 52.7346 0.676222 0.32898 0
M  V30 566 H 54.7056 2.94455 0.483614 0
M  V30 567 C 53.4546 2.66207 2.23672 0
M  V30 568 H 52.7776 3.48378 1.96145 0
M  V30 569 H 54.2176 3.07685 2.9173 0
M  V30 570 C 52.6766 1.59151 2.96939 0
M  V30 571 O 53.2066 0.993858 3.89211 0
M  V30 572 N 51.4126 1.31093 2.59351 0
M  V30 573 H 50.9596 1.7988 1.84393 0
M  V30 574 H 50.9176 0.596889 3.08682 0
M  V30 575 N 54.6897 -0.239769 1.55765 0
M  V30 576 C 55.6197 -1.30052 1.9393 0
M  V30 577 C 56.6007 -1.49839 0.805132 0
M  V30 578 O 57.7857 -1.62328 1.06599 0
M  V30 579 C 54.9157 -2.65391 2.2402 0
M  V30 580 C 53.8697 -2.60289 3.39755 0
M  V30 581 C 53.1957 -3.99489 3.55405 0
M  V30 582 C 54.4957 -2.16654 4.75246 0
M  V30 583 H 56.1897 -0.983573 2.82783 0
M  V30 584 H 53.7357 -0.471701 1.36055 0
M  V30 585 H 55.6887 -3.3974 2.49308 0
M  V30 586 H 54.4127 -2.98736 1.32 0
M  V30 587 H 53.0717 -1.88398 3.14487 0
M  V30 588 H 52.7197 -4.30112 2.60793 0
M  V30 589 H 52.4197 -3.96962 4.33238 0
M  V30 590 H 53.9437 -4.75528 3.83022 0
M  V30 591 H 55.3577 -2.80737 4.99859 0
M  V30 592 H 53.7547 -2.25223 5.56232 0
M  V30 593 H 54.8247 -1.11835 4.71827 0
M  V30 594 N 56.1678 -1.49265 -0.50573 0
M  V30 595 C 57.5838 -1.35923 -0.836486 0
M  V30 596 C 57.7838 -0.388704 -1.97715 0
M  V30 597 O 56.8398 0.181336 -2.51848 0
M  V30 598 C 58.1528 -2.76531 -1.18115 0
M  V30 599 C 59.7008 -2.85197 -1.28964 0
M  V30 600 C 60.1758 -4.26561 -1.66761 0
M  V30 601 N 61.6668 -4.2935 -1.73819 0
M  V30 602 C 62.4018 -5.35693 -2.045 0
M  V30 603 N 61.8978 -6.52287 -2.33438 0
M  V30 604 N 63.6908 -5.23105 -2.05711 0
M  V30 605 H 55.8418 -2.10965 0.246519 0
M  V30 606 H 58.1048 -0.9468 0.0476887 0
M  V30 607 H 57.8108 -3.49226 -0.416398 0
M  V30 608 H 57.6848 -3.11599 -2.1257 0
M  V30 609 H 60.0718 -2.12742 -2.04511 0
M  V30 610 H 60.1528 -2.53718 -0.325704 0
M  V30 611 H 59.7968 -4.99541 -0.917656 0
M  V30 612 H 59.7268 -4.55502 -2.64246 0
M  V30 613 H 62.2178 -3.4526 -1.53635 0
M  V30 614 H 62.5308 -7.29158 -2.56024 0
M  V30 615 H 60.8758 -6.55521 -2.30905 0
M  V30 616 H 64.0668 -4.31026 -1.82577 0
M  V30 617 H 64.2398 -6.06078 -2.29289 0
M  V30 618 N 57.6459 0.756429 -1.3826 0
M  V30 619 C 59.0619 1.0591 -1.19395 0
M  V30 620 C 59.2619 2.01459 -0.0406567 0
M  V30 621 O 58.3179 2.44909 0.614467 0
M  V30 622 C 59.6309 1.64191 -2.51916 0
M  V30 623 C 61.1789 1.76376 -2.58574 0
M  V30 624 C 61.6539 2.38069 -3.91264 0
M  V30 625 N 63.1449 2.45503 -3.92788 0
M  V30 626 C 63.8799 2.94126 -4.92217 0
M  V30 627 N 63.3759 3.42805 -6.02043 0
M  V30 628 N 65.1689 2.9314 -4.7961 0
M  V30 629 H 57.3199 0.122313 -2.12048 0
M  V30 630 H 59.5829 0.116892 -0.940766 0
M  V30 631 H 59.2889 1.01451 -3.3675 0
M  V30 632 H 59.1629 2.6329 -2.70108 0
M  V30 633 H 61.5499 2.38244 -1.74137 0
M  V30 634 H 61.6309 0.759894 -2.44252 0
M  V30 635 H 61.2749 1.76835 -4.76121 0
M  V30 636 H 61.2049 3.39091 -4.02895 0
M  V30 637 H 63.6959 2.1107 -3.13461 0
M  V30 638 H 64.0089 3.78354 -6.73846 0
M  V30 639 H 62.3539 3.4087 -6.05667 0
M  V30 640 H 65.5449 2.54419 -3.92923 0
M  V30 641 H 65.7179 3.30721 -5.5725 0
M  V30 642 N 59.124 1.23083 0.984299 0
M  V30 643 C 60.401 0.9689 1.69917 0
M  V30 644 C 60.781 -0.513604 2.04757 0
M  V30 645 O 60.129 -1.48383 1.73767 0
M  V30 646 C 60.339 1.87518 2.94343 0
M  V30 647 C 61.687 2.13636 3.6694 0
M  V30 648 O 62.711 1.85036 3.04368 0
M  V30 649 O 61.57 2.62119 4.79537 0
M  V30 650 H 58.664 0.365095 0.742048 0
M  V30 651 H 61.21 1.34107 1.03987 0
M  V30 652 H 59.982 2.87756 2.65164 0
M  V30 653 H 59.605 1.50514 3.6801 0
M  V30 654 N 60.6021 -1.18246 1.0419 0
M  V30 655 C 61.5121 -2.25574 0.644476 0
M  V30 656 C 62.5281 -1.70845 -0.329826 0
M  V30 657 O 63.7041 -2.00554 -0.184443 0
M  V30 658 C 60.7691 -3.46697 0.014877 0
M  V30 659 C 59.8301 -4.16554 1.03834 0
M  V30 660 C 59.0631 -5.31894 0.438692 0
M  V30 661 O 59.2861 -5.65385 -0.754752 0
M  V30 662 O 58.2201 -5.90459 1.168 0
M  V30 663 H 62.0461 -2.61836 1.53869 0
M  V30 664 H 59.6311 -1.25352 0.812854 0
M  V30 665 H 61.5131 -4.20062 -0.335538 0
M  V30 666 H 60.1881 -3.12255 -0.853138 0
M  V30 667 H 59.0951 -3.45251 1.44057 0
M  V30 668 H 60.4281 -4.54998 1.87716 0
M  V30 669 N 62.0802 -0.821533 -1.34494 0
M  V30 670 C 63.3052 -0.420873 -2.03085 0
M  V30 671 C 63.7302 0.964915 -1.61465 0
M  V30 672 O 63.0882 1.62763 -0.798607 0
M  V30 673 C 63.1362 -0.529414 -3.56693 0
M  V30 674 O 62.2402 0.451302 -4.09923 0
M  V30 675 H 61.5812 -0.173489 -0.640935 0
M  V30 676 H 64.1112 -1.11157 -1.71771 0
M  V30 677 H 64.1212 -0.404671 -4.05988 0
M  V30 678 H 62.7962 -1.54014 -3.86332 0
M  V30 679 H 61.3732 0.285558 -3.71805 0
M  V30 680 N 63.5583 1.46682 -0.576371 0
M  V30 681 C 64.5063 2.31953 0.17335 0
M  V30 682 C 65.5003 1.44098 0.89062 0
M  V30 683 O 66.7063 1.60759 0.809728 0
M  V30 684 H 63.0813 0.748273 0.0747727 0
M  V30 685 H 65.0523 2.93007 -0.564738 0
M  V30 686 C 63.8013 3.27142 1.17786 0
M  V30 687 H 63.1243 3.94719 0.635361 0
M  V30 688 H 64.5643 3.896 1.67296 0
M  V30 689 C 63.0233 2.52036 2.23561 0
M  V30 690 O 63.5533 2.27877 3.3081 0
M  V30 691 N 61.7593 2.12709 1.97998 0
M  V30 692 H 61.3063 2.32557 1.10792 0
M  V30 693 H 61.2643 1.62776 2.68982 0
M  V30 694 N 65.0364 0.313813 1.54444 0
M  V30 695 C 65.9864 -0.571898 2.20711 0
M  V30 696 C 66.9704 -1.08913 1.18435 0
M  V30 697 O 68.1624 -1.02777 1.44104 0
M  V30 698 C 65.2914 -1.7371 2.96108 0
M  V30 699 C 64.3774 -1.23522 4.05713 0
M  V30 700 N 64.7684 -0.452288 5.03774 0
M  V30 701 C 63.0664 -1.51482 4.19487 0
M  V30 702 C 63.7674 -0.183438 5.81411 0
M  V30 703 N 62.7434 -0.766845 5.38164 0
M  V30 704 H 66.5454 0.0336802 2.93881 0
M  V30 705 H 64.0594 0.119192 1.61962 0
M  V30 706 H 66.0564 -2.38329 3.4206 0
M  V30 707 H 64.7164 -2.34625 2.24458 0
M  V30 708 H 65.7274 -0.0960131 5.17811 0
M  V30 709 H 62.4044 -2.13053 3.59047 0
M  V30 710 H 63.7944 0.446216 6.70417 0
M  V30 711 N 66.5145 -1.57545 0.0417849 0
M  V30 712 C 67.4445 -2.14009 -0.933929 0
M  V30 713 C 68.4255 -1.05938 -1.33083 0
M  V30 714 O 69.6105 -1.33833 -1.40721 0
M  V30 715 C 66.7405 -2.67747 -2.21199 0
M  V30 716 C 65.6945 -3.80718 -1.95544 0
M  V30 717 C 65.0205 -4.20935 -3.29724 0
M  V30 718 C 66.3205 -5.06258 -1.28452 0
M  V30 719 H 68.0145 -2.95788 -0.463645 0
M  V30 720 H 65.5605 -1.42285 -0.221573 0
M  V30 721 H 67.5135 -3.05886 -2.89848 0
M  V30 722 H 66.2375 -1.83147 -2.70416 0
M  V30 723 H 64.8965 -3.43037 -1.2931 0
M  V30 724 H 64.5445 -3.33298 -3.76724 0
M  V30 725 H 64.2445 -4.9707 -3.13361 0
M  V30 726 H 65.7685 -4.61666 -3.9962 0
M  V30 727 H 67.1825 -5.41903 -1.8712 0
M  V30 728 H 65.5795 -5.87475 -1.22445 0
M  V30 729 H 66.6495 -4.84207 -0.259219 0
M  V30 730 N 67.9926 0.231505 -1.5589 0
M  V30 731 C 69.2206 0.974505 -1.82513 0
M  V30 732 C 69.6356 1.78344 -0.619591 0
M  V30 733 O 68.9926 1.77792 0.411848 0
M  V30 734 C 69.0436 1.90007 -3.07538 0
M  V30 735 O 68.7646 1.12385 -4.2344 0
M  V30 736 C 70.2656 2.75779 -3.47075 0
M  V30 737 H 67.4856 0.286065 -0.606966 0
M  V30 738 H 70.0296 0.249739 -2.02969 0
M  V30 739 H 68.1846 2.57891 -2.89086 0
M  V30 740 H 68.5986 1.75125 -4.944 0
M  V30 741 H 70.0726 3.36443 -4.37619 0
M  V30 742 H 70.5496 3.47672 -2.68367 0
M  V30 743 H 71.1556 2.13323 -3.67931 0
M  V30 744 N 69.4707 1.49531 0.497807 0
M  V30 745 C 70.7477 1.49682 1.25915 0
M  V30 746 C 71.1277 0.226339 2.09883 0
M  V30 747 O 70.4757 -0.791189 2.14365 0
M  V30 748 C 70.6857 2.77755 2.11313 0
M  V30 749 C 72.0337 3.27371 2.70395 0
M  V30 750 O 73.0577 2.78894 2.21578 0
M  V30 751 O 71.9167 4.11808 3.59272 0
M  V30 752 H 69.0107 0.599228 0.56996 0
M  V30 753 H 71.5567 1.61798 0.511816 0
M  V30 754 H 70.3287 3.61713 1.49264 0
M  V30 755 H 69.9517 2.68515 2.93233 0
M  V30 756 N 70.9488 -0.749086 1.3866 0
M  V30 757 C 71.8788 -1.8764 1.38973 0
M  V30 758 C 72.8598 -1.68178 0.255004 0
M  V30 759 O 74.0448 -1.88704 0.458754 0
M  V30 760 C 71.1748 -3.25222 1.21851 0
M  V30 761 C 70.1288 -3.59295 2.32575 0
M  V30 762 C 69.4548 -4.95663 2.00555 0
M  V30 763 C 70.7548 -3.63709 3.7485 0
M  V30 764 H 72.4488 -1.87635 2.3331 0
M  V30 765 H 69.9948 -0.901329 1.12303 0
M  V30 766 H 71.9478 -4.03746 1.20695 0
M  V30 767 H 70.6718 -3.25719 0.239775 0
M  V30 768 H 69.3308 -2.83093 2.32925 0
M  V30 769 H 68.9788 -4.92724 1.01154 0
M  V30 770 H 68.6788 -5.19429 2.74714 0
M  V30 771 H 70.2028 -5.7656 2.01024 0
M  V30 772 H 71.6168 -4.32338 3.76506 0
M  V30 773 H 70.0138 -3.98986 4.48252 0
M  V30 774 H 71.0838 -2.63834 4.06841 0
M  V30 775 N 72.4269 -1.23603 -0.977757 0
M  V30 776 C 73.6569 -1.09487 -1.75203 0
M  V30 777 C 74.0649 0.356321 -1.85814 0
M  V30 778 O 73.4079 1.25816 -1.33851 0
M  V30 779 C 73.4699 -1.64905 -3.19447 0
M  V30 780 C 73.1339 -3.13688 -3.32338 0
M  V30 781 C 74.1309 -4.10953 -3.18455 0
M  V30 782 C 71.8159 -3.53449 -3.56902 0
M  V30 783 C 73.8099 -5.45962 -3.28944 0
M  V30 784 C 71.4969 -4.88602 -3.6703 0
M  V30 785 C 72.4949 -5.84668 -3.53062 0
M  V30 786 O 72.1829 -7.17365 -3.62826 0
M  V30 787 H 71.9149 -0.38367 -0.556573 0
M  V30 788 H 74.4689 -1.6398 -1.23693 0
M  V30 789 H 72.6989 -1.04835 -3.72218 0
M  V30 790 H 74.3879 -1.46226 -3.78646 0
M  V30 791 H 75.1539 -3.81577 -2.99372 0
M  V30 792 H 71.0329 -2.79188 -3.66844 0
M  V30 793 H 74.5769 -6.20925 -3.17958 0
M  V30 794 H 70.4739 -5.17653 -3.85623 0
M  V30 795 H 71.2419 -7.2515 -3.79605 0
M  V30 796 N 73.905 1.17692 -1.04816 0
M  V30 797 C 75.321 1.39863 -0.768794 0
M  V30 798 C 75.521 1.91118 0.638451 0
M  V30 799 O 74.577 2.10036 1.40146 0
M  V30 800 C 75.89 2.39274 -1.82122 0
M  V30 801 C 77.438 2.52987 -1.843 0
M  V30 802 C 77.913 3.55669 -2.88555 0
M  V30 803 N 79.404 3.63183 -2.87493 0
M  V30 804 C 80.139 4.42381 -3.64811 0
M  V30 805 N 79.635 5.25125 -4.51903 0
M  V30 806 N 81.428 4.37217 -3.53267 0
M  V30 807 H 73.579 0.82752 -1.95617 0
M  V30 808 H 75.842 0.426123 -0.846831 0
M  V30 809 H 75.548 2.08678 -2.83102 0
M  V30 810 H 75.422 3.38725 -1.65967 0
M  V30 811 H 77.809 2.82896 -0.839869 0
M  V30 812 H 77.89 1.53623 -2.04532 0
M  V30 813 H 77.534 3.26499 -3.89051 0
M  V30 814 H 77.464 4.54728 -2.65575 0
M  V30 815 H 79.955 3.04103 -2.24343 0
M  V30 816 H 80.268 5.82728 -5.07591 0
M  V30 817 H 78.613 5.24519 -4.55966 0
M  V30 818 H 81.804 3.71626 -2.84625 0
M  V30 819 H 81.977 4.98696 -4.13771 0
M  V30 820 N 75.3831 0.828654 1.34056 0
M  V30 821 C 76.7991 0.515135 1.51058 0
M  V30 822 C 76.9991 -0.959581 1.77184 0
M  V30 823 O 76.0551 -1.74382 1.82612 0
M  V30 824 C 77.3681 1.37963 2.67183 0
M  V30 825 C 78.9161 1.37735 2.81066 0
M  V30 826 C 79.3911 2.22645 4.00241 0
M  V30 827 N 80.8821 2.203 4.07458 0
M  V30 828 C 81.6171 2.82744 4.98842 0
M  V30 829 N 81.1131 3.54201 5.9541 0
M  V30 830 N 82.9061 2.72268 4.91759 0
M  V30 831 H 75.0571 1.78343 1.15358 0
M  V30 832 H 77.3201 0.760304 0.566252 0
M  V30 833 H 77.0261 2.42714 2.54525 0
M  V30 834 H 76.9001 1.0484 3.62338 0
M  V30 835 H 79.2871 0.337593 2.93163 0
M  V30 836 H 79.3681 1.74859 1.86703 0
M  V30 837 H 79.0121 3.26674 3.88905 0
M  V30 838 H 78.9421 1.82869 4.93829 0
M  V30 839 H 81.4331 1.68327 3.38341 0
M  V30 840 H 81.7461 3.9908 6.61782 0
M  V30 841 H 80.0911 3.58308 5.95517 0
M  V30 842 H 83.2821 2.16014 4.15278 0
M  V30 843 H 83.4551 3.21219 5.62781 0
M  V30 844 N 76.8612 -1.46375 0.584142 0
M  V30 845 C 78.1382 -1.956 0.0033388 0
M  V30 846 C 78.5182 -1.52679 -1.45782 0
M  V30 847 O 77.8662 -0.77816 -2.14842 0
M  V30 848 C 78.0762 -3.48551 0.176891 0
M  V30 849 C 79.4242 -4.24576 0.0454609 0
M  V30 850 O 80.4482 -3.56043 0.105801 0
M  V30 851 O 79.3072 -5.46427 -0.0890376 0
M  V30 852 H 76.4012 -0.825547 -0.0490066 0
M  V30 853 H 78.9472 -1.56652 0.65256 0
M  V30 854 H 77.7192 -3.72683 1.1926 0
M  V30 855 H 77.3422 -3.94332 -0.508695 0
M  V30 856 N 78.3393 -0.321999 -1.54275 0
M  V30 857 C 79.2493 0.553631 -2.27974 0
M  V30 858 C 80.2653 1.13054 -1.32268 0
M  V30 859 O 81.4413 1.15084 -1.6528 0
M  V30 860 C 78.5063 1.69927 -3.02201 0
M  V30 861 C 77.5673 1.15433 -4.1349 0
M  V30 862 C 76.8003 2.24537 -4.84168 0
M  V30 863 O 77.0233 3.44852 -4.5435 0
M  V30 864 O 75.9573 1.90044 -5.7111 0
M  V30 865 H 79.7833 -0.0448345 -3.03667 0
M  V30 866 H 77.3683 -0.0877418 -1.49142 0
M  V30 867 H 79.2503 2.3663 -3.48689 0
M  V30 868 H 77.9253 2.28395 -2.29385 0
M  V30 869 H 76.8323 0.452436 -3.71354 0
M  V30 870 H 78.1653 0.614805 -4.88345 0
M  V30 871 N 79.8174 1.5752 -0.0501392 0
M  V30 872 C 81.0454 1.96963 0.633492 0
M  V30 873 C 81.4604 0.927631 1.6444 0
M  V30 874 O 80.8174 -0.0882665 1.82286 0
M  V30 875 C 80.8684 3.36487 1.32132 0
M  V30 876 O 80.5894 4.36693 0.350894 0
M  V30 877 C 82.0904 3.90682 2.09481 0
M  V30 878 H 79.3104 0.648244 0.173266 0
M  V30 879 H 81.8544 2.0417 -0.116134 0
M  V30 880 H 80.0094 3.30434 2.02218 0
M  V30 881 H 80.4234 5.17702 0.841735 0
M  V30 882 H 81.8974 4.90591 2.5303 0
M  V30 883 H 82.3744 3.26053 2.94255 0
M  V30 884 H 82.9804 4.00069 1.44307 0
M  V30 885 N 81.2955 -0.223234 1.56011 0
M  V30 886 C 82.5445 -0.945912 1.78144 0
M  V30 887 C 82.8575 -1.85567 0.618396 0
M  V30 888 O 84.0635 -2.61688 0.723318 0
M  V30 889 C 82.5195 -1.73216 3.15475 0
M  V30 890 C 82.1275 -0.868619 4.39499 0
M  V30 891 C 83.8715 -2.44615 3.46935 0
M  V30 892 C 81.7785 -1.65212 5.67855 0
M  V30 893 H 80.7085 -0.356929 0.664167 0
M  V30 894 H 83.3595 -0.199845 1.82409 0
M  V30 895 H 81.7415 -2.52107 3.05382 0
M  V30 896 H 82.9155 -0.120366 4.60643 0
M  V30 897 H 81.2305 -0.26683 4.15544 0
M  V30 898 H 83.8275 -3.03732 4.40058 0
M  V30 899 H 84.1705 -3.17417 2.69355 0
M  V30 900 H 84.7035 -1.72715 3.58349 0
M  V30 901 H 81.4425 -0.967407 6.48322 0
M  V30 902 H 80.9625 -2.37503 5.50774 0
M  V30 903 H 82.6415 -2.21322 6.07968 0
M  V30 904 N 82.7736 -1.49793 -0.48987 0
M  V30 905 C 83.7056 -1.63413 -1.60713 0
M  V30 906 C 84.7186 -0.516329 -1.54395 0
M  V30 907 O 85.9076 -0.788812 -1.60125 0
M  V30 908 C 83.0076 -1.58516 -2.99543 0
M  V30 909 C 82.1806 -2.86016 -3.30928 0
M  V30 910 C 81.2396 -2.74018 -4.49222 0
M  V30 911 O 80.2656 -3.47964 -4.50455 0
M  V30 912 N 81.4676 -1.86309 -5.4979 0
M  V30 913 H 84.2326 -2.59777 -1.49452 0
M  V30 914 H 81.7936 -1.47022 -0.677955 0
M  V30 915 H 83.7856 -1.48128 -3.76617 0
M  V30 916 H 82.3556 -0.69965 -3.0467 0
M  V30 917 H 81.5756 -3.10672 -2.42645 0
M  V30 918 H 82.8636 -3.70521 -3.487 0
M  V30 919 H 82.2616 -1.2551 -5.51601 0
M  V30 920 H 80.8186 -1.81837 -6.25922 0
M  V30 921 N 84.2517 0.741722 -1.39055 0
M  V30 922 C 85.4977 1.50336 -1.36113 0
M  V30 923 C 85.8307 1.94148 0.0450796 0
M  V30 924 O 85.1057 1.66301 1.00868 0
M  V30 925 C 85.3887 2.74773 -2.32749 0
M  V30 926 C 85.2417 2.37023 -3.82283 0
M  V30 927 C 86.5607 3.76846 -2.27322 0
M  V30 928 H 83.6797 0.545351 -0.495743 0
M  V30 929 H 86.3217 0.848624 -1.69995 0
M  V30 930 H 84.4717 3.30639 -2.03986 0
M  V30 931 H 86.1437 1.8684 -4.21768 0
M  V30 932 H 84.3867 1.69334 -3.99385 0
M  V30 933 H 85.0577 3.26104 -4.45376 0
M  V30 934 H 87.5337 3.30548 -2.5274 0
M  V30 935 H 86.4097 4.6159 -2.97028 0
M  V30 936 H 86.6707 4.23286 -1.27599 0
M  V30 937 N 85.7298 1.2412 0.971189 0
M  V30 938 C 86.6768 1.0305 2.06517 0
M  V30 939 C 87.6468 -0.0550666 1.66009 0
M  V30 940 O 88.8318 0.0988688 1.90544 0
M  V30 941 C 85.9718 0.637653 3.39158 0
M  V30 942 C 85.0848 1.79633 3.92882 0
M  V30 943 C 84.2198 1.34939 5.13775 0
M  V30 944 C 83.2588 2.47823 5.59687 0
M  V30 945 N 82.3958 2.04022 6.71803 0
M  V30 946 H 87.2358 1.96685 2.23873 0
M  V30 947 H 84.7728 0.979694 1.09729 0
M  V30 948 H 86.7308 0.390931 4.15364 0
M  V30 949 H 85.3608 -0.261693 3.21737 0
M  V30 950 H 84.4128 2.15681 3.13346 0
M  V30 951 H 85.7248 2.64466 4.22918 0
M  V30 952 H 84.8788 1.06134 5.97345 0
M  V30 953 H 83.6178 0.471557 4.85415 0
M  V30 954 H 82.6228 2.77392 4.74693 0
M  V30 955 H 83.8478 3.36158 5.90063 0
M  V30 956 H 81.7938 1.18632 6.45184 0
M  V30 957 H 81.7108 2.82409 7.01271 0
M  V30 958 H 82.9788 1.78347 7.58823 0
M  V30 959 N 87.2079 -1.17134 1.05439 0
M  V30 960 C 88.4559 -1.87085 0.764429 0
M  V30 961 C 88.7769 -1.81584 -0.710787 0
M  V30 962 O 88.0469 -1.24349 -1.51374 0
M  V30 963 H 86.6269 -0.692627 0.279779 0
M  V30 964 H 89.2889 -1.42087 1.33406 0
M  V30 965 H 88.3849 -2.92759 1.0816 0
M  V30 966 N 88.686 -0.835752 -1.33615 0
M  V30 967 C 89.634 -0.255238 -2.31195 0
M  V30 968 C 90.628 0.61107 -1.57995 0
M  V30 969 O 91.834 0.500979 -1.72888 0
M  V30 970 H 88.209 -0.0638085 -0.749288 0
M  V30 971 H 90.18 -1.09283 -2.77669 0
M  V30 972 C 88.929 0.55754 -3.43201 0
M  V30 973 H 88.252 -0.0997553 -3.99676 0
M  V30 974 H 89.692 0.929622 -4.13683 0
M  V30 975 C 88.151 1.73515 -2.88781 0
M  V30 976 O 88.681 2.83376 -2.84712 0
M  V30 977 N 86.887 1.55603 -2.4543 0
M  V30 978 H 86.434 0.662354 -2.48939 0
M  V30 979 H 86.392 2.34545 -2.09371 0
M  V30 980 N 90.1641 1.46063 -0.591896 0
M  V30 981 C 91.4121 2.01938 -0.0808391 0
M  V30 982 C 91.7331 1.46475 1.28725 0
M  V30 983 O 91.0031 0.652944 1.84698 0
M  V30 984 H 89.5831 0.746516 -0.0268938 0
M  V30 985 H 92.2451 1.79055 -0.769752 0
M  V30 986 H 91.3411 3.12094 -0.0187578 0
M  V30 987 N 91.6422 0.330177 1.54103 0
M  V30 988 C 92.8722 -0.271784 2.04805 0
M  V30 989 C 93.2802 -1.45816 1.20559 0
M  V30 990 O 92.6232 -1.82247 0.2306 0
M  V30 991 C 92.6852 -0.763238 3.51305 0
M  V30 992 C 92.3492 0.301705 4.56003 0
M  V30 993 C 93.3462 1.13999 5.07248 0
M  V30 994 C 91.0312 0.451793 5.00264 0
M  V30 995 C 93.0252 2.11402 6.01322 0
M  V30 996 C 90.7122 1.42924 5.94151 0
M  V30 997 C 91.7102 2.25882 6.44567 0
M  V30 998 O 91.3982 3.21965 7.3661 0
M  V30 999 H 91.1302 -0.058693 0.673447 0
M  V30 1000 H 93.6842 0.476395 1.99799 0
M  V30 1001 H 91.9142 -1.56244 3.5373 0
M  V30 1002 H 93.6032 -1.28427 3.85047 0
M  V30 1003 H 94.3692 1.03505 4.73827 0
M  V30 1004 H 90.2482 -0.184044 4.60632 0
M  V30 1005 H 93.7922 2.76192 6.40596 0
M  V30 1006 H 89.6892 1.53479 6.26988 0
M  V30 1007 H 90.4572 3.17281 7.54503 0
M  V30 1008 N 93.1203 -1.57491 0.0584922 0
M  V30 1009 C 94.3663 -1.93264 -0.614558 0
M  V30 1010 C 94.6993 -0.937717 -1.7006 0
M  V30 1011 O 93.9743 0.0351652 -1.94468 0
M  V30 1012 C 94.2573 -3.3938 -1.20386 0
M  V30 1013 C 94.1103 -4.49625 -0.125375 0
M  V30 1014 C 95.4293 -3.86039 -2.11334 0
M  V30 1015 H 92.5483 -0.702791 -0.221933 0
M  V30 1016 H 95.1903 -1.8961 0.12175 0
M  V30 1017 H 93.3403 -3.42626 -1.83139 0
M  V30 1018 H 95.0123 -4.58506 0.506971 0
M  V30 1019 H 93.2553 -4.30354 0.545672 0
M  V30 1020 H 93.9263 -5.48967 -0.577861 0
M  V30 1021 H 96.4023 -3.84716 -1.58534 0
M  V30 1022 H 95.2783 -4.88914 -2.49507 0
M  V30 1023 H 95.5393 -3.23215 -3.01636 0
M  V30 1024 N 94.5984 0.214957 -1.56127 0
M  V30 1025 C 95.5304 1.29004 -1.89448 0
M  V30 1026 C 96.5434 1.42716 -0.783326 0
M  V30 1027 O 97.7324 1.43496 -1.06166 0
M  V30 1028 C 94.8324 2.66482 -2.09381 0
M  V30 1029 C 94.0054 2.74633 -3.40434 0
M  V30 1030 C 93.0644 3.9317 -3.49719 0
M  V30 1031 O 92.0904 3.812 -4.227 0
M  V30 1032 N 93.2924 5.07765 -2.81346 0
M  V30 1033 H 96.0574 1.00743 -2.82261 0
M  V30 1034 H 93.6184 0.40497 -1.56753 0
M  V30 1035 H 95.6104 3.44173 -2.12901 0
M  V30 1036 H 94.1804 2.87314 -1.23163 0
M  V30 1037 H 93.4004 1.83368 -3.48955 0
M  V30 1038 H 94.6884 2.77054 -4.26754 0
M  V30 1039 H 94.0864 5.20386 -2.21843 0
M  V30 1040 H 92.6434 5.83474 -2.90519 0
M  V30 1041 N 96.0765 1.50051 0.48192 0
M  V30 1042 C 97.3015 1.64508 1.26301 0
M  V30 1043 C 97.7265 0.323851 1.85291 0
M  V30 1044 O 97.0845 -0.710969 1.66778 0
M  V30 1045 C 97.1325 2.7305 2.35533 0
M  V30 1046 O 96.2365 2.3355 3.39895 0
M  V30 1047 H 95.5775 0.549978 0.372048 0
M  V30 1048 H 98.1075 1.9636 0.574786 0
M  V30 1049 H 98.1175 2.95799 2.8101 0
M  V30 1050 H 96.7925 3.68946 1.91967 0
M  V30 1051 H 95.3695 2.21205 3.00204 0
M  V30 1052 N 97.5546 -0.734337 1.39446 0
M  V30 1053 C 98.9656 -1.31264 1.32766 0
M  V30 1054 C 99.3166 -1.96198 -0.00767497 0
M  V30 1055 O 98.4416 -1.96346 -0.909796 0
M  V30 1056 C 99.0366 -2.38682 2.4045 0
M  V30 1057 C 97.5956 -2.92184 2.37288 0
M  V30 1058 C 96.7426 -1.6576 2.22304 0
M  V30 1059 H 99.6936 -0.531799 1.49525 0
M  V30 1060 H 99.7146 -3.19087 2.07276 0
M  V30 1061 H 99.2266 -1.91392 3.37625 0
M  V30 1062 H 97.3276 -3.43752 1.43754 0
M  V30 1063 H 97.4406 -3.45253 3.3217 0
M  V30 1064 H 95.8046 -1.9012 1.69489 0
M  V30 1065 H 96.5876 -1.20521 3.21449 0
M  V30 1066 N 99.0327 -1.24633 -0.964593 0
M  V30 1067 C 100.449 -1.01239 -1.2338 0
M  V30 1068 C 100.649 0.2769 -1.99588 0
M  V30 1069 O 99.7047 0.992241 -2.32187 0
M  V30 1070 C 101.018 -2.22937 -2.01791 0
M  V30 1071 C 102.566 -2.27594 -2.14872 0
M  V30 1072 C 103.041 -3.48921 -2.96678 0
M  V30 1073 N 104.532 -3.49257 -3.04259 0
M  V30 1074 C 105.267 -4.39795 -3.67924 0
M  V30 1075 N 104.763 -5.40591 -4.33281 0
M  V30 1076 N 106.556 -4.275 -3.64966 0
M  V30 1077 H 98.7067 -2.0748 -0.454502 0
M  V30 1078 H 100.97 -0.910647 -0.26349 0
M  V30 1079 H 100.676 -3.16587 -1.53184 0
M  V30 1080 H 100.55 -2.25306 -3.02518 0
M  V30 1081 H 102.937 -1.34473 -2.6268 0
M  V30 1082 H 103.018 -2.2925 -1.13482 0
M  V30 1083 H 102.662 -4.42359 -2.49562 0
M  V30 1084 H 102.592 -3.4451 -3.98272 0
M  V30 1085 H 105.083 -2.76337 -2.57771 0
M  V30 1086 H 105.396 -6.05904 -4.79687 0
M  V30 1087 H 103.741 -5.44475 -4.3194 0
M  V30 1088 H 106.932 -3.47987 -3.13086 0
M  V30 1089 H 107.105 -4.98258 -4.14298 0
M  V30 1090 N 100.511 1.16574 -1.06058 0
M  V30 1091 C 101.758 1.87047 -0.775873 0
M  V30 1092 C 102.086 1.81562 0.697534 0
M  V30 1093 O 101.341 1.22445 1.52662 0
M  V30 1094 C 101.64 3.36195 -1.21275 0
M  V30 1095 C 101.306 3.6188 -2.68986 0
M  V30 1096 C 99.9678 3.68599 -3.09335 0
M  V30 1097 C 102.32 3.72648 -3.64394 0
M  V30 1098 C 99.6478 3.83584 -4.43937 0
M  V30 1099 C 102 3.89154 -4.98741 0
M  V30 1100 C 100.664 3.94114 -5.3873 0
M  V30 1101 H 99.9338 0.684452 -0.283912 0
M  V30 1102 H 102.581 1.37853 -1.32925 0
M  V30 1103 H 100.886 3.87505 -0.578528 0
M  V30 1104 H 102.583 3.89103 -0.969542 0
M  V30 1105 H 99.1728 3.57281 -2.36744 0
M  V30 1106 H 103.357 3.66769 -3.34356 0
M  V30 1107 H 98.6128 3.85677 -4.74409 0
M  V30 1108 H 102.787 3.96427 -5.72554 0
M  V30 1109 H 100.414 4.05478 -6.43033 0
M  V30 1110 N 101.989 0.842826 1.3317 0
M  V30 1111 C 103.4 0.496651 1.79973 0
M  V30 1112 C 103.751 -0.984641 1.69703 0
M  V30 1113 O 102.876 -1.76743 1.24863 0
M  V30 1114 C 103.471 0.894727 3.26772 0
M  V30 1115 C 102.03 0.600629 3.71577 0
M  V30 1116 C 101.177 1.10091 2.5451 0
M  V30 1117 H 104.128 1.03116 1.20635 0
M  V30 1118 H 104.149 0.206347 3.7994 0
M  V30 1119 H 103.661 1.97287 3.34215 0
M  V30 1120 H 101.762 -0.467284 3.69658 0
M  V30 1121 H 101.875 1.15863 4.64879 0
M  V30 1122 H 100.239 0.52162 2.49301 0
M  V30 1123 H 101.022 2.18591 2.64713 0
M  V30 1124 N 103.467 -1.45747 0.599634 0
M  V30 1125 C 104.415 -2.322 -0.136426 0
M  V30 1126 C 105.409 -1.45497 -0.867583 0
M  V30 1127 O 106.615 -1.62027 -0.78405 0
M  V30 1128 H 102.99 -0.749368 -0.0628588 0
M  V30 1129 H 104.961 -2.92072 0.611281 0
M  V30 1130 C 103.71 -3.28974 -1.12567 0
M  V30 1131 H 103.033 -3.9568 -0.572484 0
M  V30 1132 H 104.473 -3.92212 -1.61077 0
M  V30 1133 C 102.932 -2.55561 -2.19523 0
M  V30 1134 O 103.462 -2.33111 -3.27143 0
M  V30 1135 N 101.668 -2.15832 -1.94589 0
M  V30 1136 H 101.215 -2.3429 -1.07078 0
M  V30 1137 H 101.173 -1.67034 -2.66359 0
M  V30 1138 N 104.945 -0.338344 -1.53925 0
M  V30 1139 C 106.17 0.263987 -2.05713 0
M  V30 1140 C 106.595 1.43847 -1.21201 0
M  V30 1141 O 105.953 1.79904 -0.224535 0
M  V30 1142 C 106.001 0.662 -3.54471 0
M  V30 1143 O 105.105 1.76265 -3.72833 0
M  V30 1144 H 104.446 0.0448722 -0.662482 0
M  V30 1145 H 106.976 -0.491048 -1.9862 0
M  V30 1146 H 106.986 0.940594 -3.9701 0
M  V30 1147 H 105.661 -0.196937 -4.15433 0
M  V30 1148 H 104.238 1.48173 -3.42198 0
M  V30 1149 N 106.423 1.57458 -0.0668435 0
M  V30 1150 C 107.653 1.97337 0.611677 0
M  V30 1151 C 108.061 0.943744 1.63982 0
M  V30 1152 O 107.404 -0.0785584 1.83532 0
M  V30 1153 C 107.466 3.33511 1.34205 0
M  V30 1154 C 107.13 4.54598 0.467941 0
M  V30 1155 C 108.127 5.19186 -0.272439 0
M  V30 1156 C 105.812 5.0075 0.39427 0
M  V30 1157 C 107.806 6.28274 -1.07476 0
M  V30 1158 C 105.493 6.09711 -0.411729 0
M  V30 1159 C 106.491 6.73335 -1.14492 0
M  V30 1160 O 106.179 7.80199 -1.93763 0
M  V30 1161 H 105.911 0.654042 0.170893 0
M  V30 1162 H 108.465 2.04961 -0.134289 0
M  V30 1163 H 106.695 3.22487 2.13398 0
M  V30 1164 H 108.384 3.58029 1.91233 0
M  V30 1165 H 109.15 4.84477 -0.225086 0
M  V30 1166 H 105.029 4.51009 0.954569 0
M  V30 1167 H 108.573 6.77866 -1.64755 0
M  V30 1168 H 104.47 6.43854 -0.460664 0
M  V30 1169 H 105.238 7.97053 -1.86142 0
M  V30 1170 N 107.901 -0.206675 1.56239 0
M  V30 1171 C 109.312 -0.772383 1.69974 0
M  V30 1172 C 109.663 -1.84353 0.671436 0
M  V30 1173 O 108.788 -2.15695 -0.174491 0
M  V30 1174 C 109.383 -1.40779 3.08167 0
M  V30 1175 C 107.942 -1.92072 3.23706 0
M  V30 1176 C 107.089 -0.786347 2.65917 0
M  V30 1177 H 110.04 0.0182223 1.5869 0
M  V30 1178 H 110.061 -2.27696 3.04852 0
M  V30 1179 H 109.573 -0.627958 3.82986 0
M  V30 1180 H 107.674 -2.7281 2.53782 0
M  V30 1181 H 107.787 -2.09046 4.31087 0
M  V30 1182 H 106.151 -1.1976 2.24788 0
M  V30 1183 H 106.934 -0.0189416 3.43295 0
M  V30 1184 N 109.379 -1.50304 -0.473955 0
M  V30 1185 C 110.795 -1.37667 -0.807466 0
M  V30 1186 C 110.995 -0.430555 -1.96846 0
M  V30 1187 O 110.051 0.127874 -2.52176 0
M  V30 1188 C 111.364 -2.78974 -1.12223 0
M  V30 1189 C 112.912 -2.87868 -1.22885 0
M  V30 1190 C 113.387 -4.30003 -1.57676 0
M  V30 1191 N 114.878 -4.3294 -1.64673 0
M  V30 1192 C 115.613 -5.3991 -1.93091 0
M  V30 1193 N 115.109 -6.57092 -2.1955 0
M  V30 1194 N 116.902 -5.27351 -1.94569 0
M  V30 1195 H 109.053 -2.10394 0.291212 0
M  V30 1196 H 111.316 -0.945575 0.0677609 0
M  V30 1197 H 111.022 -3.50031 -0.342229 0
M  V30 1198 H 110.896 -3.16038 -2.05913 0
M  V30 1199 H 113.283 -2.17032 -1.99953 0
M  V30 1200 H 113.364 -2.54352 -0.271814 0
M  V30 1201 H 113.008 -5.01375 -0.81149 0
M  V30 1202 H 112.938 -4.61004 -2.54525 0
M  V30 1203 H 115.429 -3.48441 -1.46277 0
M  V30 1204 H 115.742 -7.34425 -2.405 0
M  V30 1205 H 114.087 -6.60272 -2.16948 0
M  V30 1206 H 117.278 -4.34801 -1.73394 0
M  V30 1207 H 117.451 -6.10805 -2.16381 0
M  V30 1208 N 110.857 0.726932 -1.39834 0
M  V30 1209 C 111.805 1.86235 -1.39353 0
M  V30 1210 C 112.799 1.67144 -0.275555 0
M  V30 1211 O 114.005 1.74387 -0.44601 0
M  V30 1212 H 110.38 0.613174 -0.43534 0
M  V30 1213 H 112.351 1.83756 -2.35109 0
M  V30 1214 C 111.1 3.23995 -1.26185 0
M  V30 1215 H 110.423 3.39285 -2.11484 0
M  V30 1216 H 111.863 4.03609 -1.29907 0
M  V30 1217 C 110.322 3.36888 0.0290018 0
M  V30 1218 O 110.852 3.89152 0.99619 0
M  V30 1219 N 109.058 2.90446 0.0947437 0
M  V30 1220 H 108.605 2.48102 -0.693035 0
M  V30 1221 H 108.563 2.99451 0.957932 0
M  V30 1222 N 112.336 1.25143 0.95797 0
M  V30 1223 C 113.266 1.07711 2.07173 0
M  V30 1224 C 114.247 -0.0128462 1.70095 0
M  V30 1225 O 115.432 0.156061 1.93572 0
M  V30 1226 C 112.562 0.691503 3.40346 0
M  V30 1227 C 111.516 1.73132 3.9142 0
M  V30 1228 C 110.842 1.20049 5.21049 0
M  V30 1229 C 112.142 3.1294 4.1817 0
M  V30 1230 H 113.836 2.00873 2.22014 0
M  V30 1231 H 111.382 0.967191 1.06684 0
M  V30 1232 H 113.335 0.556505 4.17709 0
M  V30 1233 H 112.059 -0.275819 3.25433 0
M  V30 1234 H 110.718 1.8547 3.16222 0
M  V30 1235 H 110.366 0.223499 5.02503 0
M  V30 1236 H 110.066 1.89545 5.56189 0
M  V30 1237 H 111.59 1.07782 6.01012 0
M  V30 1238 H 113.004 3.03775 4.86203 0
M  V30 1239 H 111.401 3.79875 4.64559 0
M  V30 1240 H 112.471 3.6025 3.24573 0
M  V30 1241 N 113.814 -1.1601 1.06675 0
M  V30 1242 C 114.744 -2.22688 0.702307 0
M  V30 1243 C 115.725 -1.67306 -0.307032 0
M  V30 1244 O 116.91 -1.93352 -0.181305 0
M  V30 1245 C 114.04 -3.47178 0.092038 0
M  V30 1246 C 112.994 -4.15477 1.02777 0
M  V30 1247 C 112.32 -5.33963 0.28061 0
M  V30 1248 C 113.62 -4.66019 2.35846 0
M  V30 1249 H 115.314 -2.53429 1.59419 0
M  V30 1250 H 112.86 -1.21813 0.767961 0
M  V30 1251 H 114.813 -4.21037 -0.174814 0
M  V30 1252 H 113.537 -3.15749 -0.834877 0
M  V30 1253 H 112.196 -3.43549 1.27944 0
M  V30 1254 H 111.844 -4.98788 -0.649545 0
M  V30 1255 H 111.544 -5.806 0.904258 0
M  V30 1256 H 113.068 -6.10596 0.021396 0
M  V30 1257 H 114.482 -5.3144 2.15045 0
M  V30 1258 H 112.879 -5.23293 2.93743 0
M  V30 1259 H 113.949 -3.82023 2.98641 0
M  V30 1260 N 115.292 -0.849877 -1.32721 0
M  V30 1261 C 116.222 -0.306308 -2.31482 0
M  V30 1262 C 117.203 0.591952 -1.59468 0
M  V30 1263 O 118.388 0.513199 -1.87296 0
M  V30 1264 C 115.518 0.510204 -3.43532 0
M  V30 1265 C 114.472 -0.293209 -4.26994 0
M  V30 1266 C 113.798 0.647743 -5.30762 0
M  V30 1267 C 115.098 -1.51634 -4.99804 0
M  V30 1268 H 116.792 -1.13153 -2.77195 0
M  V30 1269 H 114.338 -0.545553 -1.33266 0
M  V30 1270 H 116.291 0.900856 -4.11658 0
M  V30 1271 H 115.015 1.36874 -2.96535 0
M  V30 1272 H 113.674 -0.665555 -3.60508 0
M  V30 1273 H 113.322 1.50299 -4.8002 0
M  V30 1274 H 113.022 0.11422 -5.87489 0
M  V30 1275 H 114.546 1.03567 -6.01753 0
M  V30 1276 H 115.96 -1.19824 -5.60638 0
M  V30 1277 H 114.357 -1.98745 -5.66234 0
M  V30 1278 H 115.427 -2.28018 -4.27943 0
M  V30 1279 N 116.77 1.45427 -0.607355 0
M  V30 1280 C 117.998 2.06614 -0.108814 0
M  V30 1281 C 118.413 1.45204 1.2067 0
M  V30 1282 O 117.77 0.566132 1.73497 0
M  V30 1283 C 117.821 3.61481 0.0375347 0
M  V30 1284 O 117.542 4.20598 -1.22593 0
M  V30 1285 C 119.043 4.39652 0.567561 0
M  V30 1286 H 116.263 0.66747 -0.0687351 0
M  V30 1287 H 118.807 1.86675 -0.835022 0
M  V30 1288 H 116.962 3.80762 0.714068 0
M  V30 1289 H 117.376 5.1377 -1.05547 0
M  V30 1290 H 118.85 5.48518 0.61905 0
M  V30 1291 H 119.327 4.09417 1.58978 0
M  V30 1292 H 119.933 4.25234 -0.0749202 0
M  V30 1293 N 118.248 0.346503 1.53744 0
M  V30 1294 C 119.494 -0.242135 2.01954 0
M  V30 1295 C 119.849 -1.47962 1.22984 0
M  V30 1296 O 119.142 -1.89077 0.309924 0
M  V30 1297 C 119.336 -0.605809 3.52228 0
M  V30 1298 C 119.165 0.594882 4.45748 0
M  V30 1299 C 117.935 1.1011 4.93157 0
M  V30 1300 C 120.133 1.45425 4.93311 0
M  V30 1301 N 118.115 2.26381 5.70636 0
M  V30 1302 C 119.486 2.46383 5.68942 0
M  V30 1303 C 121.541 1.47935 4.75415 0
M  V30 1304 C 120.244 3.49684 6.28581 0
M  V30 1305 C 122.27 2.50119 5.35905 0
M  V30 1306 C 121.632 3.49803 6.11406 0
M  V30 1307 H 117.731 -0.0518296 0.780281 0
M  V30 1308 H 120.315 0.486736 1.88518 0
M  V30 1309 H 118.486 -1.30378 3.65864 0
M  V30 1310 H 120.218 -1.17789 3.87179 0
M  V30 1311 H 116.973 0.668721 4.68855 0
M  V30 1312 H 117.397 2.85094 6.14044 0
M  V30 1313 H 122.039 0.722274 4.16585 0
M  V30 1314 H 119.757 4.26285 6.86518 0
M  V30 1315 H 123.343 2.52892 5.23963 0
M  V30 1316 H 122.223 4.27576 6.5738 0
M  V30 1317 N 119.726 -1.57421 0.075193 0
M  V30 1318 C 121.142 -1.57099 -0.281444 0
M  V30 1319 C 121.342 -1.08486 -1.69803 0
M  V30 1320 O 120.398 -0.752279 -2.41033 0
M  V30 1321 C 121.711 -3.00571 -0.0880041 0
M  V30 1322 C 123.259 -3.12605 -0.157281 0
M  V30 1323 C 123.734 -4.57999 0.0079207 0
M  V30 1324 N 125.225 -4.63176 -0.0475725 0
M  V30 1325 C 125.96 -5.73373 0.0557876 0
M  V30 1326 N 125.456 -6.92473 0.21286 0
M  V30 1327 N 127.249 -5.621 -0.00152098 0
M  V30 1328 H 119.4 -1.87335 1.00098 0
M  V30 1329 H 121.663 -0.86377 0.390646 0
M  V30 1330 H 121.369 -3.40262 0.889629 0
M  V30 1331 H 121.243 -3.67754 -0.838875 0
M  V30 1332 H 123.63 -2.72798 -1.1254 0
M  V30 1333 H 123.711 -2.48053 0.62475 0
M  V30 1334 H 123.355 -4.98496 0.972824 0
M  V30 1335 H 123.285 -5.20586 -0.793556 0
M  V30 1336 H 125.776 -3.7753 -0.167244 0
M  V30 1337 H 126.089 -7.72279 0.283781 0
M  V30 1338 H 124.434 -6.94556 0.248267 0
M  V30 1339 H 127.625 -4.67938 -0.122958 0
M  V30 1340 H 127.798 -6.47948 0.0824844 0
M  V30 1341 N 121.204 0.198386 -1.56346 0
M  V30 1342 C 122.134 1.24865 -1.9731 0
M  V30 1343 C 123.115 1.47651 -0.844576 0
M  V30 1344 O 124.3 1.59444 -1.10866 0
M  V30 1345 C 121.43 2.59358 -2.30977 0
M  V30 1346 C 120.384 2.5119 -3.46537 0
M  V30 1347 C 119.71 3.89926 -3.65871 0
M  V30 1348 C 121.01 2.03977 -4.80823 0
M  V30 1349 H 122.704 0.908252 -2.85291 0
M  V30 1350 H 120.25 0.435462 -1.37258 0
M  V30 1351 H 122.203 3.33011 -2.58228 0
M  V30 1352 H 120.927 2.95132 -1.39874 0
M  V30 1353 H 119.586 1.79993 -3.19371 0
M  V30 1354 H 119.234 4.23046 -2.72105 0
M  V30 1355 H 118.934 3.85336 -4.4361 0
M  V30 1356 H 120.458 4.65205 -3.95495 0
M  V30 1357 H 121.872 2.67386 -5.07127 0
M  V30 1358 H 120.269 2.10397 -5.62008 0
M  V30 1359 H 121.339 0.992861 -4.74626 0
M  V30 1360 N 122.682 1.50554 0.465978 0
M  V30 1361 C 123.632 1.66177 1.56106 0
M  V30 1362 C 124.616 0.516265 1.52393 0
M  V30 1363 O 125.808 0.770906 1.5933 0
M  V30 1364 C 122.937 1.76396 2.94515 0
M  V30 1365 C 122.023 2.9664 3.03093 0
M  V30 1366 N 122.414 4.20245 2.81474 0
M  V30 1367 C 120.712 2.95304 3.34233 0
M  V30 1368 C 121.413 5.01259 2.95151 0
M  V30 1369 N 120.389 4.35318 3.25576 0
M  V30 1370 H 124.191 2.59434 1.38099 0
M  V30 1371 H 121.705 1.47808 0.6728 0
M  V30 1372 H 123.702 1.85694 3.73261 0
M  V30 1373 H 122.362 0.843017 3.13565 0
M  V30 1374 H 123.373 4.4966 2.56956 0
M  V30 1375 H 120.05 2.12729 3.59239 0
M  V30 1376 H 121.44 6.09564 2.82632 0
M  V30 1377 N 124.16 -0.719506 1.40217 0
M  V30 1378 C 125.385 -1.51371 1.4178 0
M  V30 1379 C 125.81 -1.88091 0.0182355 0
M  V30 1380 O 125.168 -1.52997 -0.972707 0
M  V30 1381 C 125.216 -2.768 2.31115 0
M  V30 1382 O 124.32 -3.73349 1.7517 0
M  V30 1383 H 123.661 -0.456529 0.482159 0
M  V30 1384 H 126.191 -0.88644 1.844 0
M  V30 1385 H 126.201 -3.25371 2.46167 0
M  V30 1386 H 124.876 -2.49407 3.3282 0
M  V30 1387 H 123.453 -3.32179 1.69444 0
M  V30 1388 N 125.638 -1.25649 -0.95132 0
M  V30 1389 C 126.57 -1.02112 -2.05197 0
M  V30 1390 C 127.583 0.0150571 -1.62793 0
M  V30 1391 O 128.772 -0.223874 -1.77091 0
M  V30 1392 C 125.872 -0.522361 -3.3485 0
M  V30 1393 C 125.045 -1.62546 -4.06076 0
M  V30 1394 C 124.104 -1.12649 -5.14001 0
M  V30 1395 O 123.13 -1.82156 -5.39266 0
M  V30 1396 N 124.332 0.03047 -5.80492 0
M  V30 1397 H 127.097 -1.96885 -2.25957 0
M  V30 1398 H 124.658 -1.16899 -1.1201 0
M  V30 1399 H 126.65 -0.172961 -4.0433 0
M  V30 1400 H 125.22 0.33151 -3.10837 0
M  V30 1401 H 124.44 -2.14628 -3.30649 0
M  V30 1402 H 125.728 -2.36644 -4.50419 0
M  V30 1403 H 125.126 0.611169 -5.62389 0
M  V30 1404 H 123.683 0.320875 -6.5101 0
M  V30 1405 N 127.117 1.15442 -1.07289 0
M  V30 1406 C 128.027 2.23786 -0.704057 0
M  V30 1407 C 129.043 1.7166 0.284413 0
M  V30 1408 O 130.219 2.00972 0.131205 0
M  V30 1409 C 127.284 3.46535 -0.106792 0
M  V30 1410 C 126.345 4.13654 -1.14842 0
M  V30 1411 C 125.578 5.30544 -0.57956 0
M  V30 1412 O 125.801 5.67187 0.604585 0
M  V30 1413 O 124.735 5.87154 -1.32414 0
M  V30 1414 H 128.561 2.57664 -1.60757 0
M  V30 1415 H 126.146 1.23152 -0.845803 0
M  V30 1416 H 128.028 4.20804 0.224048 0
M  V30 1417 H 126.703 3.14407 0.770049 0
M  V30 1418 H 125.61 3.4131 -1.5316 0
M  V30 1419 H 126.943 4.49861 -1.99714 0
M  V30 1420 N 128.595 0.856903 1.32268 0
M  V30 1421 C 129.543 0.291987 2.3076 0
M  V30 1422 C 130.537 -0.585857 1.58947 0
M  V30 1423 O 131.743 -0.47341 1.73663 0
M  V30 1424 H 128.118 0.075721 0.748178 0
M  V30 1425 H 130.089 1.13687 2.75895 0
M  V30 1426 C 128.838 -0.502869 3.44044 0
M  V30 1427 H 128.161 0.163328 3.99466 0
M  V30 1428 H 129.601 -0.863691 4.1511 0
M  V30 1429 C 128.06 -1.68898 2.91505 0
M  V30 1430 O 128.59 -2.78811 2.89184 0
M  V30 1431 N 126.796 -1.51679 2.47875 0
M  V30 1432 H 126.343 -0.622666 2.49961 0
M  V30 1433 H 126.301 -2.31184 2.13076 0
M  V30 1434 N 130.073 -1.45103 0.615059 0
M  V30 1435 C 131.301 -2.06553 0.11977 0
M  V30 1436 C 131.716 -1.45842 -1.19898 0
M  V30 1437 O 131.073 -0.575325 -1.73194 0
M  V30 1438 C 131.124 -3.61495 -0.018364 0
M  V30 1439 O 130.845 -4.19942 1.24822 0
M  V30 1440 C 132.346 -4.39947 -0.544237 0
M  V30 1441 H 129.566 -0.667096 0.0722739 0
M  V30 1442 H 132.11 -1.8623 0.84491 0
M  V30 1443 H 130.265 -3.81135 -0.693865 0
M  V30 1444 H 130.679 -5.13204 1.0827 0
M  V30 1445 H 132.153 -5.48838 -0.589953 0
M  V30 1446 H 132.63 -4.10255 -1.56805 0
M  V30 1447 H 133.236 -4.25188 0.0974703 0
M  V30 1448 N 131.551 -0.354651 -1.53558 0
M  V30 1449 C 132.967 -0.00315426 -1.596 0
M  V30 1450 C 133.167 1.47741 -1.37021 0
M  V30 1451 O 132.223 2.23759 -1.16996 0
M  V30 1452 C 133.536 -0.44929 -2.97325 0
M  V30 1453 C 135.084 -0.402578 -3.104 0
M  V30 1454 C 135.559 -0.824355 -4.5052 0
M  V30 1455 N 137.05 -0.778979 -4.56603 0
M  V30 1456 C 137.785 -1.07715 -5.63192 0
M  V30 1457 N 137.281 -1.44405 -6.77583 0
M  V30 1458 N 139.074 -1.00066 -5.53121 0
M  V30 1459 H 131.225 -1.31893 -1.66487 0
M  V30 1460 H 133.488 -0.538388 -0.780284 0
M  V30 1461 H 133.194 -1.48202 -3.1895 0
M  V30 1462 H 133.068 0.169772 -3.76818 0
M  V30 1463 H 135.455 0.621004 -2.88492 0
M  V30 1464 H 135.536 -1.05699 -2.32941 0
M  V30 1465 H 135.18 -1.846 -4.73165 0
M  V30 1466 H 135.11 -0.147304 -5.26394 0
M  V30 1467 H 137.601 -0.508528 -3.74463 0
M  V30 1468 H 137.914 -1.65612 -7.54846 0
M  V30 1469 H 136.259 -1.4826 -6.79002 0
M  V30 1470 H 139.45 -0.713293 -4.62633 0
M  V30 1471 H 139.623 -1.23638 -6.36096 0
M  V30 1472 N 133.029 1.57378 -0.0835403 0
M  V30 1473 C 134.278 1.93106 0.582498 0
M  V30 1474 C 134.591 0.96651 1.70053 0
M  V30 1475 O 135.797 1.21705 2.42693 0
M  V30 1476 C 134.253 3.43076 1.08751 0
M  V30 1477 C 133.861 4.48 -0.000146404 0
M  V30 1478 C 135.605 3.87785 1.72694 0
M  V30 1479 C 133.512 5.89113 0.519568 0
M  V30 1480 H 132.442 0.720775 0.221358 0
M  V30 1481 H 135.093 1.82821 -0.157675 0
M  V30 1482 H 133.475 3.48474 1.88101 0
M  V30 1483 H 134.649 4.54233 -0.775199 0
M  V30 1484 H 132.964 4.1283 -0.54406 0
M  V30 1485 H 135.561 4.90604 2.1263 0
M  V30 1486 H 135.904 3.25796 2.59158 0
M  V30 1487 H 136.437 3.8504 0.999457 0
M  V30 1488 H 133.176 6.54775 -0.308186 0
M  V30 1489 H 132.696 5.86376 1.26188 0
M  V30 1490 H 134.375 6.39346 0.992237 0
M  V30 1491 N 134.507 -0.190092 1.56449 0
M  V30 1492 C 135.439 -1.25973 1.91477 0
M  V30 1493 C 136.452 -1.41452 0.805931 0
M  V30 1494 O 137.641 -1.41789 1.08435 0
M  V30 1495 C 134.741 -2.63117 2.13594 0
M  V30 1496 C 133.914 -2.69182 3.4476 0
M  V30 1497 C 132.973 -3.87557 3.5593 0
M  V30 1498 O 131.999 -3.74427 4.28711 0
M  V30 1499 N 133.201 -5.03224 2.89388 0
M  V30 1500 H 135.966 -0.962394 2.83828 0
M  V30 1501 H 133.527 -0.379981 1.57378 0
M  V30 1502 H 135.519 -3.40742 2.1835 0
M  V30 1503 H 134.089 -2.85319 1.27719 0
M  V30 1504 H 133.309 -1.77793 3.51828 0
M  V30 1505 H 134.597 -2.70229 4.31107 0
M  V30 1506 H 133.995 -5.16791 2.30094 0
M  V30 1507 H 132.552 -5.78778 2.99764 0
M  V30 1508 N 135.985 -1.50799 -0.457987 0
M  V30 1509 C 136.915 -1.73553 -1.5621 0
M  V30 1510 C 137.896 -0.584774 -1.59732 0
M  V30 1511 O 139.081 -0.825314 -1.7579 0
M  V30 1512 C 136.211 -1.84169 -2.94447 0
M  V30 1513 C 135.165 -2.99461 -3.0579 0
M  V30 1514 C 134.491 -2.95235 -4.45803 0
M  V30 1515 C 135.791 -4.39766 -2.81786 0
M  V30 1516 H 137.485 -2.66 -1.37421 0
M  V30 1517 H 135.031 -1.28002 -0.659662 0
M  V30 1518 H 136.984 -1.98672 -3.71628 0
M  V30 1519 H 135.708 -0.883545 -3.14422 0
M  V30 1520 H 134.367 -2.8463 -2.31044 0
M  V30 1521 H 134.015 -1.97239 -4.62715 0
M  V30 1522 H 133.715 -3.72642 -4.54326 0
M  V30 1523 H 135.239 -3.11803 -5.24987 0
M  V30 1524 H 136.653 -4.55054 -3.4871 0
M  V30 1525 H 135.05 -5.18722 -3.0174 0
M  V30 1526 H 136.12 -4.51229 -1.7754 0
M  V30 1527 N 137.463 0.71206 -1.40597 0
M  V30 1528 C 138.709 1.47416 -1.39271 0
M  V30 1529 C 139.042 1.942 0.00388791 0
M  V30 1530 O 138.317 1.68403 0.973179 0
M  V30 1531 C 138.6 2.69774 -2.38525 0
M  V30 1532 C 138.453 2.28861 -3.87224 0
M  V30 1533 C 139.772 3.71939 -2.35264 0
M  V30 1534 H 136.891 0.534713 -0.5072 0
M  V30 1535 H 139.533 0.812375 -1.71757 0
M  V30 1536 H 137.683 3.26238 -2.10953 0
M  V30 1537 H 139.355 1.77852 -4.25636 0
M  V30 1538 H 137.598 1.60824 -4.02887 0
M  V30 1539 H 138.269 3.16584 -4.52193 0
M  V30 1540 H 140.745 3.25113 -2.59694 0
M  V30 1541 H 139.621 4.55186 -3.06753 0
M  V30 1542 H 139.882 4.20484 -1.36549 0
M  V30 1543 N 138.941 1.26152 0.944643 0
M  V30 1544 C 140.188 1.11492 1.69044 0
M  V30 1545 C 140.516 -0.342366 1.91463 0
M  V30 1546 O 139.771 -1.26812 1.49054 0
M  V30 1547 C 140.07 1.82541 3.07268 0
M  V30 1548 C 139.736 3.32445 3.04616 0
M  V30 1549 C 138.398 3.73337 3.036 0
M  V30 1550 C 140.75 4.28171 2.97185 0
M  V30 1551 C 138.078 5.08348 2.92915 0
M  V30 1552 C 140.43 5.63218 2.88041 0
M  V30 1553 C 139.094 6.03426 2.85366 0
M  V30 1554 H 138.364 0.407977 0.618576 0
M  V30 1555 H 141.011 1.56551 1.10291 0
M  V30 1556 H 139.316 1.29941 3.69625 0
M  V30 1557 H 141.013 1.68642 3.63815 0
M  V30 1558 H 137.603 2.99915 3.06185 0
M  V30 1559 H 141.787 3.97563 2.97081 0
M  V30 1560 H 137.043 5.38667 2.89219 0
M  V30 1561 H 141.217 6.37078 2.81254 0
M  V30 1562 H 138.844 7.07999 2.76842 0
M  V30 1563 N 140.419 -1.14872 1.07899 0
M  V30 1564 C 141.696 -1.81928 0.71845 0
M  V30 1565 C 142.076 -1.95417 -0.798455 0
M  V30 1566 O 141.424 -1.50997 -1.715 0
M  V30 1567 C 141.634 -3.17937 1.43935 0
M  V30 1568 C 142.982 -3.93501 1.59506 0
M  V30 1569 O 144.006 -3.27509 1.40058 0
M  V30 1570 O 142.865 -5.1183 1.91551 0
M  V30 1571 H 139.959 -0.78628 0.256305 0
M  V30 1572 H 142.505 -1.21934 1.18026 0
M  V30 1573 H 141.277 -3.0325 2.47295 0
M  V30 1574 H 140.9 -3.85619 0.968687 0
M  V30 1575 N 141.898 -0.863906 -1.31812 0
M  V30 1576 C 142.846 -0.30422 -2.30602 0
M  V30 1577 C 143.84 0.577419 -1.59255 0
M  V30 1578 O 145.046 0.464194 -1.73912 0
M  V30 1579 H 141.421 -0.0796877 -0.747766 0
M  V30 1580 H 143.392 -1.15148 -2.75288 0
M  V30 1581 C 142.141 0.484617 -3.44306 0
M  V30 1582 H 141.464 -0.18451 -3.99374 0
M  V30 1583 H 142.904 0.841664 -4.15562 0
M  V30 1584 C 141.363 1.6735 -2.92396 0
M  V30 1585 O 141.893 2.77273 -2.90659 0
M  V30 1586 N 140.099 1.50362 -2.48676 0
M  V30 1587 H 139.646 0.609402 -2.50288 0
M  V30 1588 H 139.604 2.30051 -2.14299 0
M  V30 1589 N 143.376 1.44774 -0.622745 0
M  V30 1590 C 144.308 2.28856 0.125485 0
M  V30 1591 C 145.321 1.40811 0.817069 0
M  V30 1592 O 146.51 1.65044 0.679918 0
M  V30 1593 C 143.61 3.16963 1.19949 0
M  V30 1594 C 142.783 4.33374 0.592064 0
M  V30 1595 C 141.842 5.02577 1.55893 0
M  V30 1596 O 140.868 5.58873 1.07933 0
M  V30 1597 N 142.07 5.03256 2.89334 0
M  V30 1598 H 144.835 2.93713 -0.596068 0
M  V30 1599 H 142.396 1.55129 -0.463303 0
M  V30 1600 H 144.388 3.60123 1.84644 0
M  V30 1601 H 142.958 2.53913 1.82337 0
M  V30 1602 H 142.178 3.93509 -0.233322 0
M  V30 1603 H 143.466 5.08527 0.166738 0
M  V30 1604 H 142.864 4.58836 3.30887 0
M  V30 1605 H 141.421 5.50232 3.49412 0
M  V30 1606 N 144.854 0.36279 1.53368 0
M  V30 1607 C 146.101 -0.227776 2.01215 0
M  V30 1608 C 146.429 -1.49003 1.25014 0
M  V30 1609 O 145.684 -1.92876 0.331236 0
M  V30 1610 C 145.983 -0.568417 3.52851 0
M  V30 1611 C 145.649 0.59918 4.46901 0
M  V30 1612 C 144.311 0.919559 4.72332 0
M  V30 1613 C 146.663 1.38156 5.02556 0
M  V30 1614 C 143.991 2.02434 5.5067 0
M  V30 1615 C 146.343 2.47674 5.821 0
M  V30 1616 C 145.007 2.8025 6.05819 0
M  V30 1617 H 144.277 -0.083349 0.736297 0
M  V30 1618 H 146.924 0.494677 1.85001 0
M  V30 1619 H 145.229 -1.37185 3.66998 0
M  V30 1620 H 146.926 -1.03756 3.87344 0
M  V30 1621 H 143.516 0.339437 4.27254 0
M  V30 1622 H 147.7 1.14729 4.82857 0
M  V30 1623 H 142.956 2.28075 5.67267 0
M  V30 1624 H 147.13 3.08716 6.24234 0
M  V30 1625 H 144.757 3.65979 6.66306 0
M  V30 1626 N 146.332 -1.57332 0.0918853 0
M  V30 1627 C 147.58 -1.93853 -0.571446 0
M  V30 1628 C 147.901 -0.974212 -1.6892 0
M  V30 1629 O 147.171 -0.0257254 -1.95883 0
M  V30 1630 H 145.751 -0.715666 -0.214082 0
M  V30 1631 H 148.413 -1.94287 0.154464 0
M  V30 1632 H 147.509 -2.96191 -0.983729 0
M  V30 1633 N 147.81 0.181792 -1.56548 0
M  V30 1634 C 148.74 1.22765 -1.98623 0
M  V30 1635 C 149.721 1.46747 -0.860189 0
M  V30 1636 O 150.906 1.58259 -1.12551 0
M  V30 1637 C 148.036 2.56894 -2.33715 0
M  V30 1638 C 146.99 2.475 -3.49182 0
M  V30 1639 C 146.316 3.86023 -3.69986 0
M  V30 1640 C 147.616 1.98866 -4.82959 0
M  V30 1641 H 149.31 0.877942 -2.86239 0
M  V30 1642 H 146.856 0.42088 -1.37712 0
M  V30 1643 H 148.809 3.30253 -2.61746 0
M  V30 1644 H 147.533 2.93632 -1.42997 0
M  V30 1645 H 146.192 1.76596 -3.21262 0
M  V30 1646 H 145.84 4.20136 -2.76576 0
M  V30 1647 H 145.54 3.80609 -4.47672 0
M  V30 1648 H 147.064 4.60984 -4.00407 0
M  V30 1649 H 148.478 2.61992 -5.09934 0
M  V30 1650 H 146.875 2.04424 -5.64208 0
M  V30 1651 H 147.945 0.942465 -4.75653 0
M  V30 1652 N 149.288 1.51039 0.449983 0
M  V30 1653 C 150.198 1.74261 1.57067 0
M  V30 1654 C 151.214 0.626363 1.62335 0
M  V30 1655 O 152.39 0.907162 1.79812 0
M  V30 1656 C 149.455 1.85114 2.93144 0
M  V30 1657 C 148.516 3.0893 2.98095 0
M  V30 1658 C 147.749 3.19256 4.27681 0
M  V30 1659 O 147.972 2.35835 5.19363 0
M  V30 1660 O 146.906 4.12144 4.38658 0
M  V30 1661 H 150.732 2.69303 1.40391 0
M  V30 1662 H 148.317 1.35389 0.631688 0
M  V30 1663 H 150.199 1.94311 3.73926 0
M  V30 1664 H 148.874 0.932588 3.09975 0
M  V30 1665 H 147.781 3.0522 2.16314 0
M  V30 1666 H 149.114 4.00433 2.86206 0
M  V30 1667 N 150.766 -0.704594 1.40972 0
M  V30 1668 C 151.676 -1.84856 1.44448 0
M  V30 1669 C 152.692 -1.70726 0.335961 0
M  V30 1670 O 153.868 -1.92799 0.582276 0
M  V30 1671 C 150.933 -3.20758 1.31587 0
M  V30 1672 C 149.994 -3.47063 2.52677 0
M  V30 1673 C 149.227 -4.76481 2.4042 0
M  V30 1674 O 149.45 -5.52341 1.42391 0
M  V30 1675 O 148.384 -5.03367 3.30007 0
M  V30 1676 H 152.21 -1.8488 2.40942 0
M  V30 1677 H 149.795 -0.85647 1.22413 0
M  V30 1678 H 151.677 -4.01913 1.26665 0
M  V30 1679 H 150.352 -3.21438 0.382049 0
M  V30 1680 H 149.259 -2.65873 2.63177 0
M  V30 1681 H 150.592 -3.5119 3.44858 0
M  V30 1682 N 152.244 -1.26651 -0.937939 0
M  V30 1683 C 153.207 -1.08546 -2.01867 0
M  V30 1684 C 154.207 -0.0327327 -1.60767 0
M  V30 1685 O 155.397 -0.276427 -1.71993 0
M  V30 1686 C 152.529 -0.651711 -3.34613 0
M  V30 1687 H 153.722 -2.04502 -2.1936 0
M  V30 1688 H 151.275 -1.09294 -1.11734 0
M  V30 1689 H 152.01 0.309696 -3.22818 0
M  V30 1690 H 151.795 -1.41189 -3.65798 0
M  V30 1691 H 153.285 -0.546973 -4.14002 0
M  V30 1692 N 153.722 1.14298 -1.08507 0
M  V30 1693 C 154.632 2.23027 -0.727753 0
M  V30 1694 C 155.648 1.71952 0.26619 0
M  V30 1695 O 156.824 2.011 0.109882 0
M  V30 1696 C 153.889 3.46403 -0.143541 0
M  V30 1697 C 152.95 4.12413 -1.19223 0
M  V30 1698 C 152.183 5.29899 -0.635798 0
M  V30 1699 O 152.406 5.67796 0.544393 0
M  V30 1700 O 151.34 5.85717 -1.38634 0
M  V30 1701 H 155.166 2.55945 -1.63481 0
M  V30 1702 H 152.751 1.22248 -0.858817 0
M  V30 1703 H 154.633 4.21018 0.179404 0
M  V30 1704 H 153.308 3.15206 0.736659 0
M  V30 1705 H 152.215 3.39667 -1.56772 0
M  V30 1706 H 153.548 4.47718 -2.04474 0
M  V30 1707 N 155.201 0.870884 1.31352 0
M  V30 1708 C 156.149 0.316445 2.30437 0
M  V30 1709 C 157.143 -0.568965 1.59559 0
M  V30 1710 O 158.349 -0.454964 1.74155 0
M  V30 1711 H 154.724 0.0836521 0.747333 0
M  V30 1712 H 156.695 1.16606 2.74673 0
M  V30 1713 C 155.444 -0.46635 3.44558 0
M  V30 1714 H 154.767 0.205687 3.99271 0
M  V30 1715 H 156.207 -0.819614 4.16003 0
M  V30 1716 C 154.666 -1.65797 2.9328 0
M  V30 1717 O 155.196 -2.75728 2.92125 0
M  V30 1718 N 153.402 -1.49041 2.4947 0
M  V30 1719 H 152.949 -0.59612 2.50608 0
M  V30 1720 H 152.907 -2.28911 2.15516 0
M  V30 1721 N 156.679 -1.44442 0.630414 0
M  V30 1722 C 157.956 -1.9549 0.0655657 0
M  V30 1723 C 158.336 -1.5724 -1.40851 0
M  V30 1724 O 157.684 -0.846116 -2.12257 0
M  V30 1725 C 157.894 -3.47812 0.287691 0
M  V30 1726 C 159.242 -4.24216 0.180513 0
M  V30 1727 O 160.266 -3.55526 0.219019 0
M  V30 1728 O 159.125 -5.46434 0.0848493 0
M  V30 1729 H 156.219 -0.826688 -0.0227177 0
M  V30 1730 H 158.765 -1.54496 0.702068 0
M  V30 1731 H 157.537 -3.687 1.31056 0
M  V30 1732 H 157.16 -3.95751 -0.382984 0
M  V30 1733 N 158.157 -0.370918 -1.53173 0
M  V30 1734 C 159.406 0.218249 -2.00516 0
M  V30 1735 C 159.719 1.49429 -1.26215 0
M  V30 1736 O 160.925 2.16239 -1.64174 0
M  V30 1737 C 159.381 0.43948 -3.57207 0
M  V30 1738 C 158.989 -0.822244 -4.4039 0
M  V30 1739 C 160.733 0.986012 -4.1289 0
M  V30 1740 C 158.64 -0.570304 -5.88644 0
M  V30 1741 H 157.57 0.0853333 -0.749156 0
M  V30 1742 H 160.221 -0.490483 -1.76823 0
M  V30 1743 H 158.603 1.20961 -3.77074 0
M  V30 1744 H 159.777 -1.59557 -4.32294 0
M  V30 1745 H 158.092 -1.29238 -3.95836 0
M  V30 1746 H 160.689 1.18991 -5.21292 0
M  V30 1747 H 161.032 1.94972 -3.6782 0
M  V30 1748 H 161.565 0.27592 -3.96842 0
M  V30 1749 H 158.304 -1.50449 -6.38001 0
M  V30 1750 H 157.824 0.164427 -5.99575 0
M  V30 1751 H 159.503 -0.19784 -6.46697 0
M  V30 1752 N 159.635 1.57281 -0.100228 0
M  V30 1753 C 160.875 1.96419 0.56558 0
M  V30 1754 C 161.239 0.981265 1.65031 0
M  V30 1755 O 162.44 1.26133 2.37369 0
M  V30 1756 C 160.711 3.39996 1.10171 0
M  V30 1757 S 162.27 4.01134 1.77867 0
M  V30 1758 H 159.088 0.68667 0.184406 0
M  V30 1759 H 161.69 1.94662 -0.180851 0
M  V30 1760 H 160.394 4.09296 0.300803 0
M  V30 1761 H 159.925 3.45361 1.88385 0
M  V30 1762 H 161.94 3.90358 3.06326 0
M  V30 1763 N 161.113 -0.173488 1.56642 0
M  V30 1764 C 162.529 -0.525174 1.50712 0
M  V30 1765 C 162.729 -1.8476 0.804107 0
M  V30 1766 O 161.785 -2.49869 0.363574 0
M  V30 1767 C 163.098 -0.559937 2.95441 0
M  V30 1768 C 164.646 -0.647288 3.06234 0
M  V30 1769 C 165.121 -0.712963 4.52417 0
M  V30 1770 N 166.612 -0.775911 4.56655 0
M  V30 1771 C 167.347 -0.847264 5.67106 0
M  V30 1772 N 166.843 -0.879585 6.87194 0
M  V30 1773 N 168.636 -0.886117 5.55071 0
M  V30 1774 H 160.787 0.693681 2.00753 0
M  V30 1775 H 163.05 0.249841 0.914485 0
M  V30 1776 H 162.756 0.343049 3.50023 0
M  V30 1777 H 162.63 -1.40718 3.49969 0
M  V30 1778 H 165.017 -1.5407 2.51687 0
M  V30 1779 H 165.098 0.226586 2.54794 0
M  V30 1780 H 164.742 0.176183 5.07594 0
M  V30 1781 H 164.672 -1.60295 5.0161 0
M  V30 1782 H 167.163 -0.759304 3.70193 0
M  V30 1783 H 167.476 -0.935144 7.67121 0
M  V30 1784 H 165.821 -0.847898 6.89808 0
M  V30 1785 H 169.012 -0.857853 4.60172 0
M  V30 1786 H 169.185 -0.938263 6.41171 0
M  V30 1787 N 162.591 -1.51276 -0.441967 0
M  V30 1788 C 163.821 -1.67273 -1.21257 0
M  V30 1789 C 164.229 -0.367624 -1.85594 0
M  V30 1790 O 163.572 0.663349 -1.71305 0
M  V30 1791 C 163.634 -2.72807 -2.34129 0
M  V30 1792 C 163.298 -4.1554 -1.90198 0
M  V30 1793 C 164.295 -5.00471 -1.40801 0
M  V30 1794 C 161.98 -4.61616 -1.9803 0
M  V30 1795 C 163.974 -6.29536 -0.998174 0
M  V30 1796 C 161.661 -5.90679 -1.56658 0
M  V30 1797 C 162.659 -6.74466 -1.07633 0
M  V30 1798 O 162.347 -8.01116 -0.668459 0
M  V30 1799 H 162.079 -0.564614 -0.371734 0
M  V30 1800 H 164.633 -1.9843 -0.530521 0
M  V30 1801 H 162.863 -2.36954 -3.05597 0
M  V30 1802 H 164.552 -2.77729 -2.96009 0
M  V30 1803 H 165.318 -4.66079 -1.34148 0
M  V30 1804 H 161.197 -3.96526 -2.35135 0
M  V30 1805 H 164.741 -6.94885 -0.61482 0
M  V30 1806 H 160.638 -6.24586 -1.62979 0
M  V30 1807 H 161.406 -8.14633 -0.794722 0
M  V30 1808 N 164.069 0.697108 -1.41344 0
M  V30 1809 C 165.346 1.45154 -1.31109 0
M  V30 1810 C 165.726 2.11009 0.0620449 0
M  V30 1811 O 165.074 2.01571 1.07618 0
M  V30 1812 C 165.284 2.47223 -2.46337 0
M  V30 1813 C 166.632 3.1252 -2.87431 0
M  V30 1814 O 167.656 2.57547 -2.46065 0
M  V30 1815 O 166.515 4.12083 -3.58957 0
M  V30 1816 H 163.609 0.646365 -0.515889 0
M  V30 1817 H 166.155 0.727716 -1.53305 0
M  V30 1818 H 164.927 1.97204 -3.37974 0
M  V30 1819 H 164.55 3.27116 -2.2601 0
M  V30 1820 N 165.547 1.27147 0.931209 0
M  V30 1821 C 166.794 1.13278 1.67852 0
M  V30 1822 C 167.122 -0.32204 1.91815 0
M  V30 1823 O 166.377 -1.25224 1.50391 0
M  V30 1824 C 166.676 1.8579 3.05314 0
M  V30 1825 C 166.342 3.35657 3.01073 0
M  V30 1826 C 165.004 3.76536 2.99623 0
M  V30 1827 C 167.356 4.31299 2.92627 0
M  V30 1828 C 164.684 5.11426 2.87506 0
M  V30 1829 C 167.036 5.66242 2.82051 0
M  V30 1830 C 165.7 6.06418 2.7895 0
M  V30 1831 H 164.97 0.414515 0.614214 0
M  V30 1832 H 167.617 1.57712 1.08624 0
M  V30 1833 H 165.922 1.33854 3.68226 0
M  V30 1834 H 167.619 1.72491 3.62005 0
M  V30 1835 H 164.209 3.03146 3.02986 0
M  V30 1836 H 168.393 4.00692 2.92848 0
M  V30 1837 H 163.649 5.41705 2.83489 0
M  V30 1838 H 167.823 6.40026 2.74481 0
M  V30 1839 H 165.45 7.10895 2.69318 0
M  V30 1840 N 167.025 -1.13721 1.09112 0
M  V30 1841 C 168.271 -1.85198 0.826414 0
M  V30 1842 C 168.604 -1.83129 -0.646319 0
M  V30 1843 O 167.879 -1.2671 -1.47563 0
M  V30 1844 C 168.162 -3.33507 1.35812 0
M  V30 1845 C 168.015 -3.44108 2.89672 0
M  V30 1846 C 169.334 -4.28838 0.989256 0
M  V30 1847 H 166.453 -0.67243 0.301675 0
M  V30 1848 H 169.095 -1.33499 1.35197 0
M  V30 1849 H 167.245 -3.77666 0.911082 0
M  V30 1850 H 168.917 -3.08684 3.428 0
M  V30 1851 H 167.16 -2.85087 3.26967 0
M  V30 1852 H 167.831 -4.48388 3.21951 0
M  V30 1853 H 170.307 -3.92734 1.37475 0
M  V30 1854 H 169.183 -5.31051 1.38838 0
M  V30 1855 H 169.444 -4.4198 -0.102924 0
M  V30 1856 N 168.503 -0.877838 -1.30888 0
M  V30 1857 C 169.413 -0.343096 -2.32078 0
M  V30 1858 C 170.429 0.551022 -1.65045 0
M  V30 1859 O 171.605 0.445854 -1.96403 0
M  V30 1860 C 168.67 0.439905 -3.43898 0
M  V30 1861 C 167.731 -0.483111 -4.26573 0
M  V30 1862 C 166.964 0.262616 -5.33053 0
M  V30 1863 O 167.187 1.48967 -5.50604 0
M  V30 1864 O 166.121 -0.383593 -6.00676 0
M  V30 1865 H 169.947 -1.18203 -2.79753 0
M  V30 1866 H 167.532 -0.64145 -1.34929 0
M  V30 1867 H 169.414 0.883504 -4.12034 0
M  V30 1868 H 168.089 1.25526 -2.98371 0
M  V30 1869 H 166.996 -0.975374 -3.61161 0
M  V30 1870 H 168.329 -1.26427 -4.75686 0
M  V30 1871 N 169.982 1.44106 -0.638065 0
M  V30 1872 C 171.228 2.02277 -0.145546 0
M  V30 1873 C 171.561 1.50125 1.23191 0
M  V30 1874 O 170.836 0.688133 1.8192 0
M  V30 1875 C 171.119 3.59829 -0.139791 0
M  V30 1876 C 170.972 4.22247 -1.55008 0
M  V30 1877 C 172.291 4.36873 0.531966 0
M  V30 1878 H 169.41 0.734992 -0.0543632 0
M  V30 1879 H 172.052 1.71592 -0.815863 0
M  V30 1880 H 170.202 3.86102 0.431007 0
M  V30 1881 H 171.874 4.07057 -2.1703 0
M  V30 1882 H 170.117 3.79476 -2.10191 0
M  V30 1883 H 170.788 5.31284 -1.49804 0
M  V30 1884 H 173.264 4.16074 0.0464781 0
M  V30 1885 H 172.14 5.4657 0.505206 0
M  V30 1886 H 172.401 4.11995 1.60352 0
M  V30 1887 N 171.46 0.379036 1.52974 0
M  V30 1888 C 172.37 -0.468639 2.29872 0
M  V30 1889 C 173.386 -1.08067 1.36373 0
M  V30 1890 O 174.562 -1.08871 1.69438 0
M  V30 1891 C 171.627 -1.58594 3.083 0
M  V30 1892 C 170.688 -1.00007 4.17489 0
M  V30 1893 C 169.921 -2.06413 4.92168 0
M  V30 1894 O 170.144 -3.27751 4.66835 0
M  V30 1895 O 169.078 -1.68717 5.7777 0
M  V30 1896 H 172.904 0.157508 3.03291 0
M  V30 1897 H 170.489 0.143035 1.48714 0
M  V30 1898 H 172.371 -2.23525 3.57232 0
M  V30 1899 H 171.046 -2.19724 2.37703 0
M  V30 1900 H 169.953 -0.314299 3.72777 0
M  V30 1901 H 171.286 -0.433135 4.90291 0
M  V30 1902 N 172.938 -1.57226 0.108567 0
M  V30 1903 C 174.215 -1.86333 -0.594939 0
M  V30 1904 C 174.595 -1.00788 -1.85486 0
M  V30 1905 O 173.943 -0.0839293 -2.28346 0
M  V30 1906 C 174.153 -3.37265 -0.897405 0
M  V30 1907 C 175.501 -4.05629 -1.25501 0
M  V30 1908 O 176.525 -3.42224 -0.987998 0
M  V30 1909 O 175.384 -5.17531 -1.75567 0
M  V30 1910 H 172.478 -0.771018 -0.2991 0
M  V30 1911 H 175.024 -1.69102 0.142283 0
M  V30 1912 H 173.796 -3.913 -0.00413806 0
M  V30 1913 H 173.419 -3.59889 -1.69014 0
M  V30 1914 N 174.416 0.165178 -1.56732 0
M  V30 1915 C 175.665 0.879143 -1.81532 0
M  V30 1916 C 175.978 1.83144 -0.686842 0
M  V30 1917 O 177.184 2.58823 -0.819944 0
M  V30 1918 C 175.64 1.61388 -3.21686 0
M  V30 1919 C 175.248 0.704904 -4.4242 0
M  V30 1920 C 176.992 2.3157 -3.55774 0
M  V30 1921 C 174.899 1.44022 -5.73595 0
M  V30 1922 H 173.829 0.332033 -0.676957 0
M  V30 1923 H 176.48 0.132008 -1.83025 0
M  V30 1924 H 174.862 2.40599 -3.14529 0
M  V30 1925 H 176.036 -0.0506815 -4.60772 0
M  V30 1926 H 174.351 0.112419 -4.16248 0
M  V30 1927 H 176.948 2.8719 -4.51028 0
M  V30 1928 H 177.291 3.07201 -2.8095 0
M  V30 1929 H 177.824 1.59297 -3.64513 0
M  V30 1930 H 174.563 0.72612 -6.51466 0
M  V30 1931 H 174.083 2.16898 -5.5921 0
M  V30 1932 H 175.762 1.98606 -6.15764 0
M  V30 1933 N 175.894 1.51508 0.433938 0
M  V30 1934 C 177.119 1.68443 1.21003 0
M  V30 1935 C 177.544 0.382636 1.84167 0
M  V30 1936 O 176.902 -0.65755 1.68956 0
M  V30 1937 C 176.95 2.80405 2.26727 0
M  V30 1938 O 176.054 2.44245 3.32292 0
M  V30 1939 H 175.395 0.561536 0.354363 0
M  V30 1940 H 177.925 1.9809 0.512024 0
M  V30 1941 H 177.935 3.0459 2.71457 0
M  V30 1942 H 176.61 3.74867 1.80132 0
M  V30 1943 H 175.187 2.30644 2.93015 0
M  V30 1944 N 177.372 -0.689602 1.41712 0
M  V30 1945 C 178.282 -1.83314 1.46401 0
M  V30 1946 C 179.298 -1.7036 0.35405 0
M  V30 1947 O 180.474 -1.92171 0.602692 0
M  V30 1948 C 177.539 -3.19344 1.34982 0
M  V30 1949 C 176.6 -3.44363 2.56344 0
M  V30 1950 C 175.833 -4.73904 2.45461 0
M  V30 1951 O 176.056 -5.508 1.48241 0
M  V30 1952 O 174.99 -4.99839 3.35328 0
M  V30 1953 H 178.816 -1.82314 2.42889 0
M  V30 1954 H 176.401 -0.843438 1.23315 0
M  V30 1955 H 178.283 -4.00547 1.3092 0
M  V30 1956 H 176.958 -3.21014 0.41612 0
M  V30 1957 H 175.865 -2.63067 2.65982 0
M  V30 1958 H 177.198 -3.47512 3.48563 0
M  V30 1959 N 178.85 -1.27639 -0.924453 0
M  V30 1960 C 180.078 -1.16989 -1.70649 0
M  V30 1961 C 180.493 0.272869 -1.86818 0
M  V30 1962 O 179.85 1.18549 -1.38753 0
M  V30 1963 C 179.901 -1.85229 -3.10439 0
M  V30 1964 O 179.622 -3.23868 -2.95028 0
M  V30 1965 C 181.123 -1.80746 -4.04779 0
M  V30 1966 H 178.343 -0.406595 -0.53378 0
M  V30 1967 H 180.887 -1.68569 -1.15778 0
M  V30 1968 H 179.042 -1.37545 -3.6216 0
M  V30 1969 H 179.456 -3.57889 -3.83426 0
M  V30 1970 H 180.93 -2.33101 -5.00368 0
M  V30 1971 H 181.407 -0.777499 -4.32263 0
M  V30 1972 H 182.013 -2.28059 -3.58984 0
M  V30 1973 N 180.328 1.1314 -1.09713 0
M  V30 1974 C 181.553 1.88862 -0.857081 0
M  V30 1975 C 181.978 1.78729 0.586304 0
M  V30 1976 O 181.336 1.13692 1.41222 0
M  V30 1977 C 181.384 3.36325 -1.30069 0
M  V30 1978 O 180.488 4.09815 -0.461007 0
M  V30 1979 H 179.829 0.587108 -0.310162 0
M  V30 1980 H 182.359 1.43129 -1.46203 0
M  V30 1981 H 182.369 3.87157 -1.28738 0
M  V30 1982 H 181.044 3.43017 -2.35185 0
M  V30 1983 H 179.621 3.68986 -0.538888 0
M  V30 1984 N 181.806 0.884767 1.30421 0
M  V30 1985 C 183.034 0.518044 2.0031 0
M  V30 1986 C 183.449 -0.893408 1.66324 0
M  V30 1987 O 182.806 -1.5875 0.900262 0
M  V30 1988 C 182.857 0.682997 3.54989 0
M  V30 1989 O 182.578 2.03888 3.87764 0
M  V30 1990 C 184.079 0.31924 4.42149 0
M  V30 1991 H 181.299 0.200265 0.640418 0
M  V30 1992 H 183.843 1.19001 1.6631 0
M  V30 1993 H 181.998 0.0584052 3.87356 0
M  V30 1994 H 182.412 2.05735 4.82466 0
M  V30 1995 H 183.886 0.485555 5.4986 0
M  V30 1996 H 184.363 -0.742717 4.32875 0
M  V30 1997 H 184.969 0.920147 4.15227 0
M  V30 1998 N 183.284 -1.43765 0.645699 0
M  V30 1999 C 184.533 -2.01116 0.153412 0
M  V30 2000 C 184.846 -1.51493 -1.23731 0
M  V30 2001 O 186.052 -2.01067 -1.8244 0
M  V30 2002 C 184.508 -3.59206 0.223473 0
M  V30 2003 C 184.116 -4.17823 1.61642 0
M  V30 2004 C 185.86 -4.23972 -0.211597 0
M  V30 2005 C 183.767 -5.68183 1.64081 0
M  V30 2006 H 182.697 -0.752093 0.0535891 0
M  V30 2007 H 185.348 -1.6482 0.806633 0
M  V30 2008 H 183.73 -3.92867 -0.497118 0
M  V30 2009 H 184.904 -3.95674 2.36176 0
M  V30 2010 H 183.219 -3.65399 1.99681 0
M  V30 2011 H 185.816 -5.34275 -0.213112 0
M  V30 2012 H 186.159 -3.97352 -1.24165 0
M  V30 2013 H 186.692 -3.95166 0.456988 0
M  V30 2014 H 183.431 -5.99559 2.64971 0
M  V30 2015 H 182.951 -5.9241 0.938611 0
M  V30 2016 H 184.63 -6.32085 1.3812 0
M  V30 2017 N 184.763 -0.387143 -1.52771 0
M  V30 2018 C 186.012 0.19697 -2.00736 0
M  V30 2019 C 186.325 1.48082 -1.27793 0
M  V30 2020 O 187.531 2.14485 -1.66458 0
M  V30 2021 C 185.987 0.401568 -3.57653 0
M  V30 2022 C 185.595 -0.868907 -4.39493 0
M  V30 2023 C 187.339 0.942164 -4.13912 0
M  V30 2024 C 185.246 -0.632705 -5.88006 0
M  V30 2025 H 184.176 0.0773827 -0.750019 0
M  V30 2026 H 186.827 -0.50921 -1.76293 0
M  V30 2027 H 185.209 1.16954 -3.78335 0
M  V30 2028 H 186.383 -1.64133 -4.30577 0
M  V30 2029 H 184.698 -1.33429 -3.94443 0
M  V30 2030 H 187.295 1.13455 -5.22525 0
M  V30 2031 H 187.638 1.9106 -3.69867 0
M  V30 2032 H 188.171 0.233814 -3.97112 0
M  V30 2033 H 184.91 -1.57208 -6.36369 0
M  V30 2034 H 184.43 0.100825 -5.99715 0
M  V30 2035 H 186.109 -0.26642 -6.46451 0
M  V30 2036 N 186.241 1.57166 -0.116904 0
M  V30 2037 C 187.657 1.5779 0.239693 0
M  V30 2038 C 187.857 1.1295 1.66867 0
M  V30 2039 O 186.913 0.81592 2.38954 0
M  V30 2040 C 188.226 3.00699 0.00828202 0
M  V30 2041 C 189.774 3.12912 0.0743438 0
M  V30 2042 C 190.249 4.57817 -0.129348 0
M  V30 2043 N 191.74 4.63139 -0.075247 0
M  V30 2044 C 192.475 5.73023 -0.207788 0
M  V30 2045 N 191.971 6.91665 -0.396382 0
M  V30 2046 N 193.764 5.61906 -0.14751 0
M  V30 2047 H 185.915 1.84615 -1.05029 0
M  V30 2048 H 188.178 0.85311 -0.41341 0
M  V30 2049 H 187.884 3.37784 -0.979531 0
M  V30 2050 H 187.758 3.69848 0.741077 0
M  V30 2051 H 190.145 2.75686 1.05268 0
M  V30 2052 H 190.226 2.4631 -0.690297 0
M  V30 2053 H 189.87 4.95742 -1.10465 0
M  V30 2054 H 189.8 5.22507 0.655253 0
M  V30 2055 H 192.291 3.7784 0.0670898 0
M  V30 2056 H 192.604 7.71255 -0.488437 0
M  V30 2057 H 190.949 6.93654 -0.432329 0
M  V30 2058 H 194.14 4.681 -0.00115036 0
M  V30 2059 H 194.313 6.47501 -0.254247 0
M  V30 2060 N 187.719 -0.156864 1.56817 0
M  V30 2061 C 188.967 -0.869404 1.82444 0
M  V30 2062 C 189.288 -1.82147 0.69623 0
M  V30 2063 O 188.558 -1.93847 -0.28287 0
M  V30 2064 H 187.138 -0.324043 0.673056 0
M  V30 2065 H 189.8 -0.153224 1.94297 0
M  V30 2066 H 188.896 -1.43761 2.77019 0
M  V30 2067 N 189.197 -1.51736 -0.425897 0
M  V30 2068 C 190.613 -1.40166 -0.76326 0
M  V30 2069 C 190.813 -0.492962 -1.95377 0
M  V30 2070 O 189.869 0.0475815 -2.52455 0
M  V30 2071 C 191.182 -2.82403 -1.03291 0
M  V30 2072 C 192.73 -2.91632 -1.13665 0
M  V30 2073 C 193.205 -4.34801 -1.43916 0
M  V30 2074 N 194.696 -4.3796 -1.50816 0
M  V30 2075 C 195.431 -5.4578 -1.75817 0
M  V30 2076 N 194.927 -6.63744 -1.98534 0
M  V30 2077 N 196.72 -5.33274 -1.77694 0
M  V30 2078 H 188.871 -2.09361 0.358 0
M  V30 2079 H 191.134 -0.942941 0.0978094 0
M  V30 2080 H 190.84 -3.50943 -0.230696 0
M  V30 2081 H 190.714 -3.22428 -1.95754 0
M  V30 2082 H 193.101 -2.23284 -1.92947 0
M  V30 2083 H 193.182 -2.55088 -0.190756 0
M  V30 2084 H 192.826 -5.03703 -0.65157 0
M  V30 2085 H 192.756 -4.68868 -2.39729 0
M  V30 2086 H 195.247 -3.52919 -1.35118 0
M  V30 2087 H 195.56 -7.41704 -2.17013 0
M  V30 2088 H 193.905 -6.66839 -1.95832 0
M  V30 2089 H 197.096 -4.40098 -1.59473 0
M  V30 2090 H 197.269 -6.1738 -1.9684 0
M  V30 2091 N 190.675 0.682077 -1.42076 0
M  V30 2092 C 191.921 1.44283 -1.43366 0
M  V30 2093 C 192.276 1.92344 -0.0465775 0
M  V30 2094 O 191.569 1.67517 0.929973 0
M  V30 2095 C 191.763 2.66036 -2.38662 0
M  V30 2096 C 191.592 2.29889 -3.86499 0
M  V30 2097 C 190.362 2.19599 -4.55087 0
M  V30 2098 C 192.56 1.91999 -4.77117 0
M  V30 2099 N 190.542 1.76478 -5.87987 0
M  V30 2100 C 191.913 1.59741 -5.99068 0
M  V30 2101 C 193.968 1.78927 -4.64639 0
M  V30 2102 C 192.671 1.15723 -7.0993 0
M  V30 2103 C 194.697 1.36314 -5.75476 0
M  V30 2104 C 194.059 1.04975 -6.96534 0
M  V30 2105 H 190.158 0.524739 -0.579805 0
M  V30 2106 H 192.742 0.787834 -1.78048 0
M  V30 2107 H 190.913 3.29237 -2.06053 0
M  V30 2108 H 192.645 3.32588 -2.30581 0
M  V30 2109 H 189.4 2.38433 -4.09202 0
M  V30 2110 H 189.824 1.57362 -6.58458 0
M  V30 2111 H 194.466 2.01805 -3.7153 0
M  V30 2112 H 192.184 0.91591 -8.02893 0
M  V30 2113 H 195.77 1.26731 -5.6783 0
M  V30 2114 H 194.65 0.725017 -7.80841 0
M  V30 2115 N 192.153 1.28127 0.917671 0
M  V30 2116 C 193.393 1.163 1.68088 0
M  V30 2117 C 193.757 -0.284515 1.8988 0
M  V30 2118 O 194.958 -0.525413 2.63615 0
M  V30 2119 C 193.229 1.93546 3.00457 0
M  V30 2120 S 194.788 1.98048 3.91564 0
M  V30 2121 H 191.606 0.415005 0.577315 0
M  V30 2122 H 194.208 1.62173 1.09179 0
M  V30 2123 H 192.912 2.97888 2.82295 0
M  V30 2124 H 192.443 1.48207 3.64415 0
M  V30 2125 H 194.458 1.08415 4.84211 0
M  V30 2126 N 193.631 -1.12557 1.10312 0
M  V30 2127 C 194.879 -1.83675 0.843091 0
M  V30 2128 C 195.2 -1.84435 -0.633131 0
M  V30 2129 O 194.47 -1.30657 -1.45964 0
M  V30 2130 H 193.05 -0.680138 0.308904 0
M  V30 2131 H 195.712 -1.36301 1.39313 0
M  V30 2132 H 194.808 -2.87908 1.2048 0
M  V30 2133 N 195.109 -0.891671 -1.2995 0
M  V30 2134 C 196.059 -0.334811 -2.25528 0
M  V30 2135 C 197.043 0.540553 -1.51548 0
M  V30 2136 O 198.235 0.383882 -1.72787 0
M  V30 2137 C 195.364 0.44374 -3.4042 0
M  V30 2138 C 194.45 -0.44609 -4.21747 0
M  V30 2139 N 194.841 -1.54963 -4.81477 0
M  V30 2140 C 193.139 -0.242415 -4.45341 0
M  V30 2141 C 193.84 -2.10015 -5.42465 0
M  V30 2142 N 192.816 -1.39423 -5.25416 0
M  V30 2143 H 196.618 -1.17792 -2.69262 0
M  V30 2144 H 194.132 -0.741822 -1.44467 0
M  V30 2145 H 196.129 0.859362 -4.07947 0
M  V30 2146 H 194.789 1.28421 -2.98225 0
M  V30 2147 H 195.8 -1.93244 -4.80497 0
M  V30 2148 H 192.477 0.560342 -4.13723 0
M  V30 2149 H 193.867 -3.02724 -5.9984 0
M  V30 2150 N 196.587 1.43421 -0.653314 0
M  V30 2151 C 197.534 2.30768 0.0382271 0
M  V30 2152 C 198.504 1.44755 0.814576 0
M  V30 2153 O 199.689 1.73624 0.791162 0
M  V30 2154 C 196.829 3.30336 0.998599 0
M  V30 2155 C 195.942 4.31448 0.218342 0
M  V30 2156 C 195.077 5.18098 1.17252 0
M  V30 2157 C 194.116 6.10902 0.382702 0
M  V30 2158 N 193.253 6.90176 1.28848 0
M  V30 2159 H 198.093 2.89357 -0.712511 0
M  V30 2160 H 195.63 1.42548 -0.363128 0
M  V30 2161 H 197.588 3.86572 1.56901 0
M  V30 2162 H 196.218 2.73397 1.71621 0
M  V30 2163 H 195.27 3.77506 -0.46836 0
M  V30 2164 H 196.582 4.97227 -0.395812 0
M  V30 2165 H 195.736 5.7896 1.81356 0
M  V30 2166 H 194.475 4.52444 1.82058 0
M  V30 2167 H 193.48 5.49128 -0.27169 0
M  V30 2168 H 194.705 6.78598 -0.260957 0
M  V30 2169 H 192.651 6.27171 1.92334 0
M  V30 2170 H 192.568 7.52478 0.728887 0
M  V30 2171 H 193.836 7.55543 1.91766 0
M  V30 2172 N 198.065 0.39524 1.52563 0
M  V30 2173 C 198.975 -0.444232 2.30356 0
M  V30 2174 C 199.991 -1.06615 1.37511 0
M  V30 2175 O 201.167 -1.07067 1.70583 0
M  V30 2176 C 198.232 -1.55315 3.09964 0
M  V30 2177 C 197.293 -0.955734 4.18526 0
M  V30 2178 C 196.526 -2.01181 4.9433 0
M  V30 2179 O 196.749 -3.22781 4.70285 0
M  V30 2180 O 195.683 -1.62579 5.79527 0
M  V30 2181 H 199.509 0.189667 3.03107 0
M  V30 2182 H 197.094 0.1588 1.48554 0
M  V30 2183 H 198.976 -2.19724 3.59582 0
M  V30 2184 H 197.651 -2.17191 2.4002 0
M  V30 2185 H 196.558 -0.274743 3.7309 0
M  V30 2186 H 197.891 -0.381109 4.90722 0
M  V30 2187 N 199.544 -1.57102 0.125237 0
M  V30 2188 C 200.79 -1.95697 -0.532035 0
M  V30 2189 C 201.123 -1.009 -1.6593 0
M  V30 2190 O 200.398 -0.047347 -1.94442 0
M  V30 2191 C 200.681 -3.44181 -1.05884 0
M  V30 2192 C 200.534 -4.49752 0.0654392 0
M  V30 2193 C 201.853 -3.94655 -1.9477 0
M  V30 2194 H 198.972 -0.711571 -0.191925 0
M  V30 2195 H 201.614 -1.88923 0.20206 0
M  V30 2196 H 199.764 -3.50085 -1.68442 0
M  V30 2197 H 201.436 -4.55943 0.700982 0
M  V30 2198 H 199.679 -4.27653 0.727709 0
M  V30 2199 H 200.35 -5.50924 -0.344505 0
M  V30 2200 H 202.826 -3.91094 -1.42074 0
M  V30 2201 H 201.702 -4.99057 -2.28546 0
M  V30 2202 H 201.963 -3.35718 -2.87656 0
M  V30 2203 N 201.022 0.148545 -1.56898 0
M  V30 2204 C 202.433 0.708766 -1.72723 0
M  V30 2205 C 202.784 1.81734 -0.739395 0
M  V30 2206 O 201.909 2.16194 0.0943169 0
M  V30 2207 C 202.504 1.29245 -3.13179 0
M  V30 2208 C 201.063 1.79925 -3.30611 0
M  V30 2209 C 200.21 0.687111 -2.68652 0
M  V30 2210 H 203.161 -0.0771063 -1.58513 0
M  V30 2211 H 203.182 2.16224 -3.13093 0
M  V30 2212 H 202.694 0.485382 -3.85053 0
M  V30 2213 H 200.795 2.63203 -2.63732 0
M  V30 2214 H 200.908 1.92903 -4.38549 0
M  V30 2215 H 199.272 1.11335 -2.29078 0
M  V30 2216 H 200.055 -0.108483 -3.43129 0
M  V30 2217 N 202.5 1.5196 0.417844 0
M  V30 2218 C 203.911 1.57851 0.997 0
M  V30 2219 C 204.262 0.413714 1.91789 0
M  V30 2220 O 203.387 -0.467057 2.113 0
M  V30 2221 C 203.982 2.86085 1.81496 0
M  V30 2222 C 202.541 2.94483 2.34428 0
M  V30 2223 C 201.688 2.52707 1.14169 0
M  V30 2224 H 204.639 1.57455 0.198392 0
M  V30 2225 H 204.66 2.70947 2.67148 0
M  V30 2226 H 204.172 3.70842 1.14446 0
M  V30 2227 H 202.273 2.142 3.04875 0
M  V30 2228 H 202.386 3.98546 2.65891 0
M  V30 2229 H 200.75 2.06353 1.49301 0
M  V30 2230 H 201.533 3.39828 0.486999 0
M  V30 2231 N 203.978 -0.674533 1.42435 0
M  V30 2232 C 205.394 -0.98769 1.25367 0
M  V30 2233 C 205.594 -2.00879 0.158044 0
M  V30 2234 O 204.65 -2.48075 -0.470633 0
M  V30 2235 C 205.963 -1.49224 2.6106 0
M  V30 2236 C 207.511 -1.61 2.68417 0
M  V30 2237 C 207.986 -2.14852 4.04478 0
M  V30 2238 N 209.477 -2.22185 4.06434 0
M  V30 2239 C 210.212 -2.64928 5.08528 0
M  V30 2240 N 209.708 -3.07121 6.21006 0
M  V30 2241 N 211.501 -2.64679 4.95885 0
M  V30 2242 H 203.652 0.00152503 2.124 0
M  V30 2243 H 205.915 -0.0618434 0.945981 0
M  V30 2244 H 205.621 -0.816453 3.42092 0
M  V30 2245 H 205.495 -2.47094 2.84999 0
M  V30 2246 H 207.882 -2.27686 1.87732 0
M  V30 2247 H 207.963 -0.616195 2.48267 0
M  V30 2248 H 207.607 -1.48775 4.85622 0
M  V30 2249 H 207.537 -3.15024 4.2198 0
M  V30 2250 H 210.028 -1.92435 3.25234 0
M  V30 2251 H 210.341 -3.38423 6.94759 0
M  V30 2252 H 208.686 -3.04978 6.24511 0
M  V30 2253 H 211.877 -2.31078 4.07088 0
M  V30 2254 H 212.05 -2.9767 5.75584 0
M  V30 2255 N 205.456 -1.28612 -0.910864 0
M  V30 2256 C 206.705 -1.15311 -1.65488 0
M  V30 2257 C 207.018 0.296999 -1.93332 0
M  V30 2258 O 208.224 0.551168 -2.65847 0
M  V30 2259 C 206.68 -2.01599 -2.98137 0
M  V30 2260 C 206.288 -3.51367 -2.7793 0
M  V30 2261 C 208.032 -1.96993 -3.76024 0
M  V30 2262 C 205.939 -4.29797 -4.06237 0
M  V30 2263 H 204.869 -0.42796 -0.620779 0
M  V30 2264 H 207.52 -1.53166 -1.01057 0
M  V30 2265 H 205.902 -1.56603 -3.63719 0
M  V30 2266 H 207.076 -4.0434 -2.21011 0
M  V30 2267 H 205.391 -3.57529 -2.13452 0
M  V30 2268 H 207.988 -2.52856 -4.71135 0
M  V30 2269 H 208.331 -0.94733 -4.05378 0
M  V30 2270 H 208.864 -2.39973 -3.17266 0
M  V30 2271 H 205.603 -5.32648 -3.82055 0
M  V30 2272 H 205.123 -3.81596 -4.62757 0
M  V30 2273 H 206.802 -4.39869 -4.74473 0
M  V30 2274 N 206.934 1.1197 -1.10907 0
M  V30 2275 C 207.881 2.17846 -0.762345 0
M  V30 2276 C 208.851 1.63995 0.263599 0
M  V30 2277 O 210.036 1.90273 0.141773 0
M  V30 2278 C 207.176 3.44487 -0.205651 0
M  V30 2279 C 206.289 4.12369 -1.28748 0
M  V30 2280 C 205.424 5.26674 -0.691919 0
M  V30 2281 C 204.463 5.86431 -1.75399 0
M  V30 2282 N 203.6 6.92142 -1.17833 0
M  V30 2283 H 208.44 2.46851 -1.6694 0
M  V30 2284 H 205.977 1.21188 -0.833776 0
M  V30 2285 H 207.935 4.16981 0.135037 0
M  V30 2286 H 206.565 3.15884 0.664613 0
M  V30 2287 H 205.617 3.38003 -1.74522 0
M  V30 2288 H 206.929 4.52844 -2.09125 0
M  V30 2289 H 206.083 6.05953 -0.300963 0
M  V30 2290 H 204.822 4.8749 0.143232 0
M  V30 2291 H 203.827 5.05835 -2.15432 0
M  V30 2292 H 205.052 6.27685 -2.59208 0
M  V30 2293 H 202.998 6.54985 -0.364725 0
M  V30 2294 H 202.915 7.31242 -1.91887 0
M  V30 2295 H 204.183 7.75237 -0.81408 0
M  V30 2296 N 208.412 0.89855 1.29475 0
M  V30 2297 C 209.637 0.538561 2.00285 0
M  V30 2298 C 210.062 -0.869135 1.66816 0
M  V30 2299 O 209.42 -1.57831 0.892145 0
M  V30 2300 C 209.468 0.736475 3.52999 0
M  V30 2301 O 208.572 -0.211537 4.11857 0
M  V30 2302 H 207.913 0.210563 0.62973 0
M  V30 2303 H 210.443 1.20982 1.64998 0
M  V30 2304 H 210.453 0.640685 4.02938 0
M  V30 2305 H 209.128 1.76276 3.76696 0
M  V30 2306 H 207.705 -0.0682991 3.72837 0
M  V30 2307 N 209.89 -1.43072 0.660911 0
M  V30 2308 C 211.306 -1.56169 0.329173 0
M  V30 2309 C 211.506 -1.64317 -1.16629 0
M  V30 2310 O 210.562 -1.60245 -1.95135 0
M  V30 2311 C 211.875 -2.81873 1.04729 0
M  V30 2312 C 213.423 -2.95627 1.02828 0
M  V30 2313 C 213.898 -4.24174 1.72744 0
M  V30 2314 N 215.389 -4.31055 1.69545 0
M  V30 2315 C 216.124 -5.29304 2.20511 0
M  V30 2316 N 215.62 -6.33786 2.79799 0
M  V30 2317 N 217.413 -5.21008 2.10966 0
M  V30 2318 H 209.564 -1.36027 1.63127 0
M  V30 2319 H 211.827 -0.653823 0.686454 0
M  V30 2320 H 211.533 -2.81942 2.10242 0
M  V30 2321 H 211.407 -3.72338 0.603702 0
M  V30 2322 H 213.794 -2.95094 -0.0184742 0
M  V30 2323 H 213.875 -2.06431 1.51063 0
M  V30 2324 H 213.519 -4.25467 2.7738 0
M  V30 2325 H 213.449 -5.1228 1.2197 0
M  V30 2326 H 215.94 -3.56174 1.26288 0
M  V30 2327 H 216.253 -7.05086 3.16344 0
M  V30 2328 H 214.598 -6.34387 2.83863 0
M  V30 2329 H 217.789 -4.38301 1.64347 0
M  V30 2330 H 217.962 -5.97416 2.50993 0
M  V30 2331 N 211.368 -0.403325 -1.52352 0
M  V30 2332 C 212.596 0.174012 -2.06167 0
M  V30 2333 C 213.011 1.39347 -1.27388 0
M  V30 2334 O 212.368 1.79597 -0.324201 0
M  V30 2335 C 212.419 0.530223 -3.5759 0
M  V30 2336 O 212.14 -0.640806 -4.33388 0
M  V30 2337 C 213.641 1.16192 -4.27802 0
M  V30 2338 H 210.861 0.0229464 -0.670608 0
M  V30 2339 H 213.405 -0.572604 -1.9632 0
M  V30 2340 H 211.56 1.22673 -3.67464 0
M  V30 2341 H 211.974 -0.344851 -5.23365 0
M  V30 2342 H 213.448 1.36141 -5.34948 0
M  V30 2343 H 213.925 2.13335 -3.83907 0
M  V30 2344 H 214.531 0.505775 -4.22282 0
M  V30 2345 N 212.846 1.57033 -0.133567 0
M  V30 2346 C 213.794 2.17348 0.828412 0
M  V30 2347 C 214.788 1.12671 1.26498 0
M  V30 2348 O 215.994 1.30947 1.23502 0
M  V30 2349 H 212.369 0.695775 0.285309 0
M  V30 2350 H 214.34 2.96935 0.295372 0
M  V30 2351 C 213.089 2.79893 2.06289 0
M  V30 2352 H 212.412 3.60147 1.73592 0
M  V30 2353 H 213.852 3.25615 2.71572 0
M  V30 2354 C 212.311 1.77713 2.86216 0
M  V30 2355 O 212.841 1.23937 3.82103 0
M  V30 2356 N 211.047 1.47321 2.50489 0
M  V30 2357 H 210.594 1.91243 1.7258 0
M  V30 2358 H 210.552 0.79199 3.04261 0
M  V30 2359 N 214.325 -0.140222 1.56975 0
M  V30 2360 C 215.257 -1.19818 1.95388 0
M  V30 2361 C 216.27 -1.38816 0.850525 0
M  V30 2362 O 217.459 -1.38267 1.12891 0
M  V30 2363 C 214.559 -2.56189 2.21857 0
M  V30 2364 C 213.732 -2.58077 3.5315 0
M  V30 2365 C 212.791 -3.76037 3.6808 0
M  V30 2366 O 211.817 -3.60598 4.40406 0
M  V30 2367 N 213.019 -4.93763 3.05251 0
M  V30 2368 H 215.784 -0.871609 2.86746 0
M  V30 2369 H 213.345 -0.32972 1.58507 0
M  V30 2370 H 215.337 -3.33623 2.2908 0
M  V30 2371 H 213.907 -2.81111 1.36731 0
M  V30 2372 H 213.127 -1.6651 3.57307 0
M  V30 2373 H 214.415 -2.56377 4.39486 0
M  V30 2374 H 213.813 -5.09209 2.46419 0
M  V30 2375 H 212.37 -5.68949 3.18026 0
M  V30 2376 N 215.803 -1.52179 -0.40978 0
M  V30 2377 C 217.052 -1.65434 -1.15388 0
M  V30 2378 C 217.365 -0.390056 -1.91671 0
M  V30 2379 O 218.571 -0.402399 -2.68501 0
M  V30 2380 C 217.027 -2.92279 -2.10003 0
M  V30 2381 C 216.635 -4.25813 -1.39239 0
M  V30 2382 C 218.379 -3.14897 -2.84675 0
M  V30 2383 C 216.286 -5.43782 -2.32498 0
M  V30 2384 H 215.216 -0.616267 -0.434432 0
M  V30 2385 H 217.867 -1.78666 -0.418401 0
M  V30 2386 H 216.249 -2.72744 -2.871 0
M  V30 2387 H 217.423 -4.55828 -0.675099 0
M  V30 2388 H 215.738 -4.09292 -0.766097 0
M  V30 2389 H 218.335 -4.0021 -3.54593 0
M  V30 2390 H 218.678 -2.29103 -3.47588 0
M  V30 2391 H 219.211 -3.34901 -2.14677 0
M  V30 2392 H 215.95 -6.3192 -1.74233 0
M  V30 2393 H 215.47 -5.18106 -3.02201 0
M  V30 2394 H 217.149 -5.76834 -2.93038 0
M  V30 2395 N 217.281 0.66697 -1.42791 0
M  V30 2396 C 218.228 1.7803 -1.4688 0
M  V30 2397 C 219.198 1.6299 -0.319919 0
M  V30 2398 O 220.383 1.83432 -0.525118 0
M  V30 2399 C 217.523 3.1611 -1.38451 0
M  V30 2400 C 216.636 3.42381 -2.63437 0
M  V30 2401 C 215.771 4.70232 -2.47094 0
M  V30 2402 C 214.81 4.89564 -3.67415 0
M  V30 2403 N 213.947 6.08661 -3.49966 0
M  V30 2404 H 218.787 1.7387 -2.42019 0
M  V30 2405 H 216.324 0.84868 -1.20149 0
M  V30 2406 H 218.282 3.95914 -1.31561 0
M  V30 2407 H 216.912 3.19374 -0.469033 0
M  V30 2408 H 215.964 2.56774 -2.80662 0
M  V30 2409 H 217.276 3.52557 -3.52853 0
M  V30 2410 H 216.43 5.5814 -2.37834 0
M  V30 2411 H 215.169 4.62353 -1.5518 0
M  V30 2412 H 214.174 4.00096 -3.77099 0
M  V30 2413 H 215.399 4.99282 -4.6032 0
M  V30 2414 H 213.345 6.0194 -2.60776 0
M  V30 2415 H 213.262 6.19733 -4.32975 0
M  V30 2416 H 214.53 6.99226 -3.44532 0
M  V30 2417 N 218.759 1.29093 0.90403 0
M  V30 2418 C 220.008 1.16187 1.64874 0
M  V30 2419 C 220.321 -0.286742 1.93487 0
M  V30 2420 O 221.527 -0.537062 2.66135 0
M  V30 2421 C 219.983 2.03177 2.97064 0
M  V30 2422 C 219.591 3.52836 2.76062 0
M  V30 2423 C 221.335 1.98984 3.74974 0
M  V30 2424 C 219.242 4.31945 4.03952 0
M  V30 2425 H 218.172 0.431246 0.618501 0
M  V30 2426 H 220.823 1.53699 1.00243 0
M  V30 2427 H 219.205 1.5853 3.62883 0
M  V30 2428 H 220.379 4.05507 2.18863 0
M  V30 2429 H 218.694 3.58656 2.11553 0
M  V30 2430 H 221.291 2.55351 4.69787 0
M  V30 2431 H 221.634 0.968815 4.0487 0
M  V30 2432 H 222.167 2.41652 3.15989 0
M  V30 2433 H 218.906 5.34667 3.79225 0
M  V30 2434 H 218.426 3.84045 4.60727 0
M  V30 2435 H 220.105 4.42379 4.72133 0
M  V30 2436 N 220.237 -1.11381 1.11499 0
M  V30 2437 C 221.465 -1.86934 0.88675 0
M  V30 2438 C 221.88 -1.80195 -0.563476 0
M  V30 2439 O 221.237 -1.18367 -1.38908 0
M  V30 2440 C 221.288 -3.35722 1.34064 0
M  V30 2441 O 221.009 -3.4232 2.73401 0
M  V30 2442 C 222.51 -4.2818 1.14791 0
M  V30 2443 H 219.73 -0.591117 0.317523 0
M  V30 2444 H 222.274 -1.40865 1.48248 0
M  V30 2445 H 220.429 -3.79294 0.788355 0
M  V30 2446 H 220.843 -4.34971 2.93087 0
M  V30 2447 H 222.317 -5.30817 1.5145 0
M  V30 2448 H 222.794 -4.39113 0.0875279 0
M  V30 2449 H 223.4 -3.90402 1.68721 0
M  V30 2450 N 221.715 -0.905404 -1.28997 0
M  V30 2451 C 222.962 -0.534248 -1.95325 0
M  V30 2452 C 223.29 0.920535 -1.71337 0
M  V30 2453 O 222.545 1.66861 -1.02254 0
M  V30 2454 C 222.844 -0.779906 -3.48787 0
M  V30 2455 C 222.51 -2.21293 -3.92861 0
M  V30 2456 C 221.172 -2.60475 -4.04606 0
M  V30 2457 C 223.524 -3.14587 -4.15553 0
M  V30 2458 C 220.852 -3.9212 -4.36416 0
M  V30 2459 C 223.204 -4.45787 -4.48839 0
M  V30 2460 C 221.868 -4.84834 -4.58794 0
M  V30 2461 H 221.138 -0.195495 -0.714747 0
M  V30 2462 H 223.785 -1.14514 -1.53488 0
M  V30 2463 H 222.09 -0.0861365 -3.91705 0
M  V30 2464 H 223.787 -0.472029 -3.98212 0
M  V30 2465 H 220.377 -1.89887 -3.84241 0
M  V30 2466 H 224.561 -2.85528 -4.0594 0
M  V30 2467 H 219.817 -4.22086 -4.42327 0
M  V30 2468 H 223.991 -5.18098 -4.65346 0
M  V30 2469 H 221.618 -5.86877 -4.83197 0
M  V30 2470 N 223.193 1.4272 -0.668489 0
M  V30 2471 C 224.14 2.30796 0.0137489 0
M  V30 2472 C 225.11 1.4561 0.799177 0
M  V30 2473 O 226.295 1.74453 0.772702 0
M  V30 2474 C 223.435 3.31377 0.963507 0
M  V30 2475 C 222.548 4.31655 0.172569 0
M  V30 2476 C 221.683 5.19312 1.1175 0
M  V30 2477 C 220.722 6.11274 0.317886 0
M  V30 2478 N 219.859 6.91504 1.2152 0
M  V30 2479 H 224.699 2.88585 -0.743161 0
M  V30 2480 H 222.236 1.42154 -0.378226 0
M  V30 2481 H 224.194 3.88214 1.52792 0
M  V30 2482 H 222.824 2.75202 1.68712 0
M  V30 2483 H 221.876 3.76988 -0.508374 0
M  V30 2484 H 223.188 4.96779 -0.448527 0
M  V30 2485 H 222.342 5.80851 1.75206 0
M  V30 2486 H 221.081 4.5435 1.77249 0
M  V30 2487 H 220.086 5.48809 -0.329918 0
M  V30 2488 H 221.311 6.78283 -0.332917 0
M  V30 2489 H 219.257 6.29176 1.85671 0
M  V30 2490 H 219.174 7.53209 0.649036 0
M  V30 2491 H 220.442 7.57535 1.83742 0
M  V30 2492 N 224.671 0.411399 1.52136 0
M  V30 2493 C 225.896 -0.165538 2.06738 0
M  V30 2494 C 226.321 -1.379 1.27926 0
M  V30 2495 O 225.679 -1.78628 0.310114 0
M  V30 2496 C 225.727 -0.492124 3.57226 0
M  V30 2497 O 224.831 -1.58276 3.80818 0
M  V30 2498 H 224.172 -0.0132132 0.663869 0
M  V30 2499 H 226.702 0.585253 1.96051 0
M  V30 2500 H 226.712 -0.750104 4.01045 0
M  V30 2501 H 225.387 0.394922 4.14021 0
M  V30 2502 H 223.964 -1.31677 3.48877 0
M  V30 2503 N 226.149 -1.5696 0.141893 0
M  V30 2504 C 227.426 -1.87553 -0.555281 0
M  V30 2505 C 227.806 -1.04699 -1.83306 0
M  V30 2506 O 227.154 -0.132346 -2.28116 0
M  V30 2507 C 227.364 -3.39093 -0.825664 0
M  V30 2508 C 228.712 -4.08199 -1.16869 0
M  V30 2509 O 229.736 -3.44242 -0.915185 0
M  V30 2510 O 228.595 -5.21139 -1.6455 0
M  V30 2511 H 225.689 -0.777188 -0.282679 0
M  V30 2512 H 228.235 -1.68763 0.17812 0
M  V30 2513 H 227.007 -3.91221 0.0788633 0
M  V30 2514 H 226.63 -3.63393 -1.61343 0
M  V30 2515 N 227.627 0.131896 -1.57047 0
M  V30 2516 C 228.904 0.871495 -1.75112 0
M  V30 2517 C 229.284 1.9866 -0.713949 0
M  V30 2518 O 228.632 2.26965 0.264447 0
M  V30 2519 C 228.842 1.40007 -3.19686 0
M  V30 2520 C 230.19 1.85752 -3.81813 0
M  V30 2521 O 231.214 1.49715 -3.23209 0
M  V30 2522 O 230.073 2.5226 -4.84796 0
M  V30 2523 H 227.167 0.412919 -0.716538 0
M  V30 2524 H 229.713 0.116641 -1.69299 0
M  V30 2525 H 228.485 0.599404 -3.86682 0
M  V30 2526 H 228.108 2.218 -3.29986 0
M  V30 2527 N 229.106 1.52395 0.401703 0
M  V30 2528 C 230.336 1.70429 1.1678 0
M  V30 2529 C 230.744 0.416702 1.84554 0
M  V30 2530 O 230.087 -0.617697 1.73003 0
M  V30 2531 C 230.149 2.78919 2.26814 0
M  V30 2532 C 229.813 4.20437 1.79113 0
M  V30 2533 C 230.81 5.04028 1.27482 0
M  V30 2534 C 228.495 4.66704 1.85722 0
M  V30 2535 C 230.489 6.31961 0.830913 0
M  V30 2536 C 228.176 5.94625 1.40942 0
M  V30 2537 C 229.174 6.77082 0.897128 0
M  V30 2538 O 228.862 8.02607 0.455822 0
M  V30 2539 H 228.594 0.574272 0.356634 0
M  V30 2540 H 231.148 1.99767 0.477724 0
M  V30 2541 H 229.378 2.44973 2.99207 0
M  V30 2542 H 231.067 2.8548 2.88541 0
M  V30 2543 H 231.833 4.69471 1.21744 0
M  V30 2544 H 227.712 4.0262 2.24539 0
M  V30 2545 H 231.256 6.96271 0.430368 0
M  V30 2546 H 227.153 6.28688 1.46362 0
M  V30 2547 H 227.921 8.16453 0.578457 0
M  V30 2548 N 230.584 -0.659388 1.43143 0
M  V30 2549 C 231.831 -1.41935 1.44433 0
M  V30 2550 C 232.159 -1.94387 0.0663522 0
M  V30 2551 O 231.414 -1.72314 -0.927706 0
M  V30 2552 C 231.713 -2.62206 2.42864 0
M  V30 2553 C 231.379 -2.28208 3.88886 0
M  V30 2554 C 230.041 -2.18647 4.28657 0
M  V30 2555 C 232.393 -2.00887 4.8093 0
M  V30 2556 C 229.721 -1.79914 5.58433 0
M  V30 2557 C 232.073 -1.63653 6.11065 0
M  V30 2558 C 230.737 -1.52614 6.49819 0
M  V30 2559 H 230.007 -0.519376 0.528517 0
M  V30 2560 H 232.654 -0.750453 1.76183 0
M  V30 2561 H 230.959 -3.34199 2.04495 0
M  V30 2562 H 232.656 -3.2041 2.41119 0
M  V30 2563 H 229.246 -2.36557 3.57406 0
M  V30 2564 H 233.43 -2.07198 4.5098 0
M  V30 2565 H 228.686 -1.69948 5.87305 0
M  V30 2566 H 232.86 -1.41543 6.81864 0
M  V30 2567 H 230.487 -1.22371 7.50286 0
M  V30 2568 N 232.062 -1.29571 -0.897171 0
M  V30 2569 C 233.308 -1.17863 -1.65034 0
M  V30 2570 C 233.641 0.268729 -1.92332 0
M  V30 2571 O 232.916 1.19378 -1.53555 0
M  V30 2572 C 233.199 -1.995 -2.99786 0
M  V30 2573 C 233.052 -3.5239 -2.79538 0
M  V30 2574 C 234.371 -1.82335 -4.00552 0
M  V30 2575 H 231.49 -0.429528 -0.598895 0
M  V30 2576 H 234.132 -1.59072 -1.03905 0
M  V30 2577 H 232.282 -1.64485 -3.51962 0
M  V30 2578 H 233.954 -3.97401 -2.34244 0
M  V30 2579 H 232.197 -3.77187 -2.14273 0
M  V30 2580 H 232.868 -4.04787 -3.75302 0
M  V30 2581 H 235.344 -2.12924 -3.57495 0
M  V30 2582 H 234.22 -2.41801 -4.92771 0
M  V30 2583 H 234.481 -0.779209 -4.35179 0
M  V30 2584 N 233.54 1.10788 -1.12088 0
M  V30 2585 C 234.503 2.15207 -0.788577 0
M  V30 2586 C 235.503 1.59609 0.195317 0
M  V30 2587 O 236.693 1.74174 -0.0300193 0
M  V30 2588 C 233.825 3.4047 -0.171174 0
M  V30 2589 H 235.018 2.46116 -1.71368 0
M  V30 2590 H 232.571 1.26089 -0.923652 0
M  V30 2591 H 233.306 3.15176 0.763832 0
M  V30 2592 H 233.091 3.82109 -0.879514 0
M  V30 2593 H 234.581 4.17576 0.04496 0
M  V30 2594 N 235.018 0.912232 1.28515 0
M  V30 2595 C 235.965 0.397954 2.27343 0
M  V30 2596 C 236.935 -0.526766 1.57526 0
M  V30 2597 O 238.12 -0.449292 1.85435 0
M  V30 2598 C 235.26 -0.357263 3.43246 0
M  V30 2599 C 234.373 0.599788 4.27816 0
M  V30 2600 C 233.508 -0.173725 5.30916 0
M  V30 2601 C 232.547 0.777039 6.07148 0
M  V30 2602 N 231.684 0.0371398 7.0209 0
M  V30 2603 H 236.524 1.24577 2.70711 0
M  V30 2604 H 234.061 0.625612 1.33133 0
M  V30 2605 H 236.019 -0.8113 4.09236 0
M  V30 2606 H 234.649 -1.16943 3.00872 0
M  V30 2607 H 233.701 1.17235 3.61884 0
M  V30 2608 H 235.013 1.32704 4.80823 0
M  V30 2609 H 234.167 -0.688394 6.02782 0
M  V30 2610 H 232.906 -0.934041 4.78672 0
M  V30 2611 H 231.911 1.3031 5.34134 0
M  V30 2612 H 233.136 1.53689 6.61481 0
M  V30 2613 H 231.082 -0.705213 6.52198 0
M  V30 2614 H 230.999 0.704249 7.52713 0
M  V30 2615 H 232.267 -0.457383 7.78157 0
M  V30 2616 N 236.496 -1.42363 0.676048 0
M  V30 2617 C 237.907 -1.84649 0.275948 0
M  V30 2618 C 238.258 -1.56588 -1.18214 0
M  V30 2619 O 237.383 -1.02634 -1.90513 0
M  V30 2620 C 237.978 -3.35178 0.494053 0
M  V30 2621 C 236.537 -3.76109 0.148061 0
M  V30 2622 C 235.684 -2.65931 0.785891 0
M  V30 2623 H 238.635 -1.32192 0.878121 0
M  V30 2624 H 238.656 -3.79655 -0.25343 0
M  V30 2625 H 238.168 -3.55571 1.55535 0
M  V30 2626 H 236.269 -3.61323 -0.909742 0
M  V30 2627 H 236.382 -4.7546 0.589454 0
M  V30 2628 H 234.746 -2.53773 0.217113 0
M  V30 2629 H 235.529 -2.89146 1.85067 0
M  V30 2630 N 237.974 -0.419461 -1.51915 0
M  V30 2631 C 239.222 0.152637 -2.01523 0
M  V30 2632 C 239.543 1.44762 -1.30649 0
M  V30 2633 O 238.813 1.90997 -0.435535 0
M  V30 2634 H 237.393 0.0593966 -0.744635 0
M  V30 2635 H 240.055 -0.558073 -1.86739 0
M  V30 2636 H 239.151 0.341369 -3.10227 0
M  V30 2637 N 239.452 1.56882 -0.150215 0
M  V30 2638 C 240.699 1.96228 0.500093 0
M  V30 2639 C 241.027 1.03522 1.64661 0
M  V30 2640 O 240.282 0.0650683 1.95592 0
M  V30 2641 C 240.581 3.41801 1.04437 0
M  V30 2642 C 240.247 4.50897 0.0159671 0
M  V30 2643 C 238.909 4.8046 -0.266731 0
M  V30 2644 C 241.261 5.16703 -0.683192 0
M  V30 2645 C 238.589 5.73135 -1.25434 0
M  V30 2646 C 240.941 6.10441 -1.65964 0
M  V30 2647 C 239.605 6.38382 -1.95 0
M  V30 2648 H 238.875 0.718048 0.182997 0
M  V30 2649 H 241.522 1.90019 -0.237724 0
M  V30 2650 H 239.827 3.44857 1.85959 0
M  V30 2651 H 241.524 3.69573 1.55618 0
M  V30 2652 H 238.114 4.27891 0.246485 0
M  V30 2653 H 242.298 4.93993 -0.477983 0
M  V30 2654 H 237.554 5.93074 -1.48571 0
M  V30 2655 H 241.728 6.60507 -2.20689 0
M  V30 2656 H 239.355 7.09996 -2.71679 0
M  V30 2657 N 240.93 -0.123565 1.57115 0
M  V30 2658 C 241.877 -1.15177 2.00007 0
M  V30 2659 C 242.847 -1.41403 0.871454 0
M  V30 2660 O 244.032 -1.53346 1.13533 0
M  V30 2661 C 241.172 -2.47436 2.40561 0
M  V30 2662 C 240.285 -2.28184 3.66819 0
M  V30 2663 C 239.42 -3.53641 3.96373 0
M  V30 2664 C 238.459 -3.29528 5.15827 0
M  V30 2665 N 237.596 -4.47175 5.41275 0
M  V30 2666 H 242.436 -0.779008 2.87638 0
M  V30 2667 H 239.973 -0.373166 1.42288 0
M  V30 2668 H 241.931 -3.24584 2.62109 0
M  V30 2669 H 240.561 -2.82614 1.55978 0
M  V30 2670 H 239.613 -1.41976 3.52912 0
M  V30 2671 H 240.925 -2.0634 4.5412 0
M  V30 2672 H 240.079 -4.39209 4.18545 0
M  V30 2673 H 238.818 -3.78512 3.07538 0
M  V30 2674 H 237.823 -2.42349 4.93505 0
M  V30 2675 H 239.048 -3.06031 6.06236 0
M  V30 2676 H 236.994 -4.72175 4.55397 0
M  V30 2677 H 236.911 -4.28419 6.22891 0
M  V30 2678 H 238.179 -5.3389 5.67963 0
M  V30 2679 N 242.408 -1.52605 -0.393616 0
M  V30 2680 C 243.657 -1.66649 -1.13627 0
M  V30 2681 C 243.97 -0.410364 -1.91247 0
M  V30 2682 O 245.176 -0.430854 -2.68059 0
M  V30 2683 C 243.632 -2.9449 -2.06891 0
M  V30 2684 C 243.24 -4.27266 -1.34714 0
M  V30 2685 C 244.984 -3.17899 -2.81319 0
M  V30 2686 C 242.891 -5.46217 -2.26717 0
M  V30 2687 H 241.821 -0.62084 -0.427871 0
M  V30 2688 H 244.472 -1.791 -0.399428 0
M  V30 2689 H 242.854 -2.75774 -2.84191 0
M  V30 2690 H 244.028 -4.56518 -0.626714 0
M  V30 2691 H 242.343 -4.10081 -0.722643 0
M  V30 2692 H 244.94 -4.03949 -3.50328 0
M  V30 2693 H 245.283 -2.32777 -3.45139 0
M  V30 2694 H 245.816 -3.37159 -2.11113 0
M  V30 2695 H 242.555 -6.33733 -1.67521 0
M  V30 2696 H 242.075 -5.21283 -2.96689 0
M  V30 2697 H 243.754 -5.7991 -2.86903 0
M  V30 2698 N 243.887 0.651787 -1.4349 0
M  V30 2699 C 245.117 1.43728 -1.48411 0
M  V30 2700 C 245.525 1.8893 -0.10103 0
M  V30 2701 O 244.868 1.60182 0.899307 0
M  V30 2702 C 244.93 2.70411 -2.36893 0
M  V30 2703 C 244.594 2.4714 -3.8441 0
M  V30 2704 C 245.591 2.10271 -4.75481 0
M  V30 2705 C 243.276 2.6142 -4.28912 0
M  V30 2706 C 245.27 1.87982 -6.0905 0
M  V30 2707 C 242.957 2.38746 -5.62533 0
M  V30 2708 C 243.955 2.02083 -6.5242 0
M  V30 2709 O 243.643 1.79647 -7.8357 0
M  V30 2710 H 243.375 0.447962 -0.506267 0
M  V30 2711 H 245.929 0.80624 -1.88915 0
M  V30 2712 H 244.159 3.36079 -1.91278 0
M  V30 2713 H 245.848 3.32364 -2.33 0
M  V30 2714 H 246.614 1.98814 -4.42378 0
M  V30 2715 H 242.493 2.88931 -3.59222 0
M  V30 2716 H 246.037 1.5929 -6.7917 0
M  V30 2717 H 241.934 2.49806 -5.95203 0
M  V30 2718 H 242.702 1.9406 -7.95162 0
M  V30 2719 N 245.365 1.30045 0.890287 0
M  V30 2720 C 246.595 1.21296 1.67245 0
M  V30 2721 C 247.003 -0.227471 1.87828 0
M  V30 2722 O 246.346 -1.16296 1.422 0
M  V30 2723 C 246.408 1.86519 3.07329 0
M  V30 2724 C 246.072 3.35837 3.09939 0
M  V30 2725 C 247.069 4.31915 2.89389 0
M  V30 2726 C 244.754 3.77196 3.31706 0
M  V30 2727 C 246.748 5.67325 2.90552 0
M  V30 2728 C 244.435 5.12725 3.32499 0
M  V30 2729 C 245.433 6.076 3.11947 0
M  V30 2730 O 245.121 7.40655 3.12547 0
M  V30 2731 H 244.853 0.4211 0.528821 0
M  V30 2732 H 247.407 1.72111 1.12103 0
M  V30 2733 H 245.637 1.30228 3.64112 0
M  V30 2734 H 247.326 1.71963 3.67673 0
M  V30 2735 H 248.092 4.01294 2.72375 0
M  V30 2736 H 243.971 3.03796 3.4674 0
M  V30 2737 H 247.515 6.41354 2.74429 0
M  V30 2738 H 243.412 5.42988 3.49047 0
M  V30 2739 H 244.18 7.49577 3.28749 0
M  V30 2740 N 246.843 -1.10192 1.12674 0
M  V30 2741 C 248.068 -1.86523 0.906853 0
M  V30 2742 C 248.493 -1.80221 -0.538711 0
M  V30 2743 O 247.851 -1.17396 -1.38158 0
M  V30 2744 C 247.899 -3.32758 1.3894 0
M  V30 2745 O 247.003 -4.08449 0.5695 0
M  V30 2746 H 246.344 -0.578678 0.325619 0
M  V30 2747 H 248.874 -1.39203 1.49946 0
M  V30 2748 H 248.884 -3.83608 1.38958 0
M  V30 2749 H 247.559 -3.36661 2.44197 0
M  V30 2750 H 246.136 -3.67427 0.636528 0
M  V30 2751 N 248.321 -0.919034 -1.28029 0
M  V30 2752 C 249.251 -0.428581 -2.29533 0
M  V30 2753 C 250.232 0.50659 -1.62381 0
M  V30 2754 O 251.417 0.413195 -1.89753 0
M  V30 2755 C 248.547 0.327388 -3.45753 0
M  V30 2756 C 247.501 -0.519137 -4.2484 0
M  V30 2757 C 246.827 0.365486 -5.33449 0
M  V30 2758 C 248.127 -1.77914 -4.91064 0
M  V30 2759 H 249.821 -1.27687 -2.70807 0
M  V30 2760 H 247.367 -0.615428 -1.30186 0
M  V30 2761 H 249.32 0.681378 -4.15855 0
M  V30 2762 H 248.044 1.20963 -3.03374 0
M  V30 2763 H 246.703 -0.855717 -3.56473 0
M  V30 2764 H 246.351 1.24642 -4.87312 0
M  V30 2765 H 246.051 -0.197356 -5.87268 0
M  V30 2766 H 247.575 0.715241 -6.06396 0
M  V30 2767 H 248.989 -1.49374 -5.53498 0
M  V30 2768 H 247.386 -2.2848 -5.54903 0
M  V30 2769 H 248.456 -2.50382 -4.15255 0
M  V30 2770 N 249.799 1.42003 -0.683588 0
M  V30 2771 C 250.729 2.33487 -0.024866 0
M  V30 2772 C 251.71 1.51163 0.779975 0
M  V30 2773 O 252.895 1.79739 0.735362 0
M  V30 2774 C 250.025 3.3487 0.920836 0
M  V30 2775 C 248.979 4.27414 0.223958 0
M  V30 2776 C 248.305 5.19074 1.2832 0
M  V30 2777 C 249.605 5.14445 -0.90242 0
M  V30 2778 H 251.299 2.88819 -0.788921 0
M  V30 2779 H 248.845 1.38873 -0.38083 0
M  V30 2780 H 250.798 3.97787 1.39081 0
M  V30 2781 H 249.522 2.77861 1.71642 0
M  V30 2782 H 248.181 3.65904 -0.225864 0
M  V30 2783 H 247.829 4.58387 2.071 0
M  V30 2784 H 247.529 5.81822 0.821995 0
M  V30 2785 H 249.053 5.84867 1.75392 0
M  V30 2786 H 250.467 5.70998 -0.513272 0
M  V30 2787 H 248.864 5.86072 -1.28997 0
M  V30 2788 H 249.934 4.52322 -1.74737 0
M  V30 2789 N 251.277 0.427512 1.51691 0
M  V30 2790 C 252.187 -0.39527 2.31246 0
M  V30 2791 C 253.203 -1.03674 1.39742 0
M  V30 2792 O 254.379 -1.03425 1.72816 0
M  V30 2793 C 251.444 -1.48706 3.13189 0
M  V30 2794 C 250.505 -0.866743 4.20459 0
M  V30 2795 C 249.738 -1.90651 4.98486 0
M  V30 2796 O 249.961 -3.12733 4.77026 0
M  V30 2797 O 248.895 -1.5025 5.82845 0
M  V30 2798 H 252.721 0.253918 3.02637 0
M  V30 2799 H 250.306 0.190274 1.48183 0
M  V30 2800 H 252.188 -2.12047 3.64162 0
M  V30 2801 H 250.863 -2.12051 2.44573 0
M  V30 2802 H 249.77 -0.195544 3.73589 0
M  V30 2803 H 251.103 -0.276934 4.9142 0
M  V30 2804 N 252.755 -1.56801 0.158532 0
M  V30 2805 C 254.032 -1.88131 -0.535357 0
M  V30 2806 C 254.412 -1.06638 -1.82186 0
M  V30 2807 O 253.76 -0.156533 -2.27963 0
M  V30 2808 C 253.97 -3.39949 -0.789653 0
M  V30 2809 C 255.318 -4.09416 -1.12533 0
M  V30 2810 O 256.342 -3.45194 -0.878622 0
M  V30 2811 O 255.201 -5.22855 -1.59014 0
M  V30 2812 H 252.295 -0.780143 -0.27442 0
M  V30 2813 H 254.841 -1.68564 0.19601 0
M  V30 2814 H 253.613 -3.91115 0.120353 0
M  V30 2815 H 253.236 -3.65084 -1.57479 0
M  V30 2816 N 254.233 0.115231 -1.57178 0
M  V30 2817 C 255.48 0.822351 -1.8505 0
M  V30 2818 C 255.808 1.79701 -0.744168 0
M  V30 2819 O 255.063 1.93909 0.26414 0
M  V30 2820 C 255.362 1.60324 -3.19423 0
M  V30 2821 C 255.028 0.772536 -4.44233 0
M  V30 2822 C 253.69 0.543468 -4.78121 0
M  V30 2823 C 256.042 0.193746 -5.2084 0
M  V30 2824 C 253.37 -0.274583 -5.86057 0
M  V30 2825 C 255.722 -0.611517 -6.29637 0
M  V30 2826 C 254.386 -0.850867 -6.62055 0
M  V30 2827 H 253.656 0.30092 -0.677147 0
M  V30 2828 H 256.303 0.0845802 -1.91313 0
M  V30 2829 H 254.608 2.41203 -3.08753 0
M  V30 2830 H 256.305 2.1544 -3.38211 0
M  V30 2831 H 252.895 0.96117 -4.17683 0
M  V30 2832 H 257.079 0.357926 -4.95008 0
M  V30 2833 H 252.335 -0.469206 -6.09597 0
M  V30 2834 H 256.509 -1.06697 -6.88178 0
M  V30 2835 H 254.136 -1.48657 -7.45523 0
M  V30 2836 N 255.711 1.52812 0.385517 0
M  V30 2837 C 256.643 1.74096 1.49074 0
M  V30 2838 C 257.656 0.621462 1.50472 0
M  V30 2839 O 258.845 0.897245 1.54311 0
M  V30 2840 C 255.945 1.78774 2.87911 0
M  V30 2841 C 255.118 3.08134 3.10439 0
M  V30 2842 C 254.177 3.04313 4.29278 0
M  V30 2843 O 253.203 3.78168 4.25415 0
M  V30 2844 N 254.405 2.23741 5.35649 0
M  V30 2845 H 257.17 2.69455 1.31202 0
M  V30 2846 H 254.731 1.51343 0.575065 0
M  V30 2847 H 256.723 1.73721 3.65518 0
M  V30 2848 H 255.293 0.907869 2.99126 0
M  V30 2849 H 254.513 3.26649 2.20667 0
M  V30 2850 H 255.801 3.93662 3.22347 0
M  V30 2851 H 255.199 1.63211 5.41645 0
M  V30 2852 H 253.756 2.24524 6.11909 0
M  V30 2853 N 257.189 -0.644168 1.43834 0
M  V30 2854 C 258.6 -1.22554 1.40845 0
M  V30 2855 C 258.951 -1.9585 0.117115 0
M  V30 2856 O 258.076 -2.01734 -0.783086 0
M  V30 2857 C 258.671 -2.22907 2.55143 0
M  V30 2858 C 257.23 -2.76501 2.5539 0
M  V30 2859 C 256.377 -1.51287 2.32396 0
M  V30 2860 H 259.328 -0.43563 1.52604 0
M  V30 2861 H 259.349 -3.05259 2.2715 0
M  V30 2862 H 258.861 -1.69533 3.49114 0
M  V30 2863 H 256.962 -3.33914 1.65324 0
M  V30 2864 H 257.075 -3.23429 3.53455 0
M  V30 2865 H 255.439 -1.78957 1.81236 0
M  V30 2866 H 256.222 -0.998336 3.28463 0
M  V30 2867 N 258.668 -1.30515 -0.883378 0
M  V30 2868 C 259.631 -1.1701 -1.97082 0
M  V30 2869 C 260.631 -0.10089 -1.60483 0
M  V30 2870 O 261.821 -0.349127 -1.70666 0
M  V30 2871 C 258.953 -0.793045 -3.31547 0
M  V30 2872 H 260.146 -2.13622 -2.10489 0
M  V30 2873 H 257.699 -1.13935 -1.06998 0
M  V30 2874 H 258.434 0.172499 -3.23841 0
M  V30 2875 H 258.219 -1.56576 -3.5948 0
M  V30 2876 H 259.709 -0.722073 -4.1131 0
M  V30 2877 N 260.146 1.09593 -1.13257 0
M  V30 2878 C 261.109 2.14359 -0.811358 0
M  V30 2879 C 262.109 1.59808 0.178377 0
M  V30 2880 O 263.299 1.74132 -0.0484911 0
M  V30 2881 C 260.431 3.40269 -0.207276 0
M  V30 2882 H 261.624 2.44284 -1.73969 0
M  V30 2883 H 259.177 1.25102 -0.936973 0
M  V30 2884 H 259.912 3.15969 0.73036 0
M  V30 2885 H 259.697 3.81154 -0.919992 0
M  V30 2886 H 261.187 4.176 0.000667944 0
M  V30 2887 N 261.624 0.925811 1.2754 0
M  V30 2888 C 262.587 0.428129 2.25166 0
M  V30 2889 C 263.587 -0.452261 1.54309 0
M  V30 2890 O 264.777 -0.253608 1.72344 0
M  V30 2891 C 261.909 -0.384749 3.38722 0
M  V30 2892 H 263.102 1.29066 2.70706 0
M  V30 2893 H 260.655 0.706323 1.3943 0
M  V30 2894 H 261.39 -1.26618 2.98561 0
M  V30 2895 H 261.175 0.246454 3.91325 0
M  V30 2896 H 262.665 -0.723389 4.11287 0
M  V30 2897 N 263.102 -1.41638 0.69111 0
M  V30 2898 C 264.327 -2.06148 0.227583 0
M  V30 2899 C 264.752 -1.51652 -1.11281 0
M  V30 2900 O 264.11 -0.64164 -1.69566 0
M  V30 2901 C 264.158 -3.60095 0.190858 0
M  V30 2902 O 263.262 -4.03845 -0.835664 0
M  V30 2903 H 262.603 -0.654434 0.112306 0
M  V30 2904 H 265.133 -1.81484 0.944714 0
M  V30 2905 H 265.143 -4.07995 0.020207 0
M  V30 2906 H 263.818 -3.99129 1.16915 0
M  V30 2907 H 262.395 -3.67458 -0.63473 0
M  V30 2908 N 264.58 -0.43555 -1.51462 0
M  V30 2909 C 265.49 0.383001 -2.31453 0
M  V30 2910 C 266.506 1.02931 -1.4029 0
M  V30 2911 O 267.682 1.02507 -1.73362 0
M  V30 2912 C 264.747 1.47043 -3.13973 0
M  V30 2913 C 263.808 0.844433 -4.20913 0
M  V30 2914 C 263.041 1.88004 -4.9949 0
M  V30 2915 O 263.264 3.10199 -4.78678 0
M  V30 2916 O 262.198 1.47157 -5.83634 0
M  V30 2917 H 266.024 -0.269964 -3.02498 0
M  V30 2918 H 263.609 -0.19813 -1.4808 0
M  V30 2919 H 265.491 2.10113 -3.65281 0
M  V30 2920 H 264.166 2.10751 -2.45695 0
M  V30 2921 H 263.073 0.175729 -3.73687 0
M  V30 2922 H 264.406 0.250869 -4.9156 0
M  V30 2923 N 266.058 1.56714 -0.166846 0
M  V30 2924 C 267.286 2.0112 0.485644 0
M  V30 2925 C 267.701 1.04705 1.57106 0
M  V30 2926 O 267.058 0.0471923 1.82439 0
M  V30 2927 C 267.109 3.45361 1.06808 0
M  V30 2928 O 266.83 4.38092 0.0259995 0
M  V30 2929 C 268.331 4.05145 1.79924 0
M  V30 2930 H 265.551 0.65931 0.124704 0
M  V30 2931 H 268.095 2.02746 -0.267262 0
M  V30 2932 H 266.25 3.44524 1.7715 0
M  V30 2933 H 266.664 5.22519 0.455398 0
M  V30 2934 H 268.138 5.08009 2.15942 0
M  V30 2935 H 268.615 3.46982 2.69258 0
M  V30 2936 H 269.221 4.09672 1.14234 0
M  V30 2937 N 267.536 -0.106894 1.57237 0
M  V30 2938 C 268.484 -1.14944 2.02215 0
M  V30 2939 C 269.478 -1.42167 0.92114 0
M  V30 2940 O 270.684 -1.41987 1.10634 0
M  V30 2941 H 267.059 -0.387841 0.64427 0
M  V30 2942 H 269.03 -0.743683 2.88984 0
M  V30 2943 C 267.779 -2.4647 2.4525 0
M  V30 2944 H 267.102 -2.26363 3.29545 0
M  V30 2945 H 268.542 -3.17948 2.80508 0
M  V30 2946 C 267.001 -3.09921 1.321 0
M  V30 2947 O 267.531 -3.9651 0.643622 0
M  V30 2948 N 265.737 -2.69986 1.07497 0
M  V30 2949 H 265.284 -1.99667 1.62761 0
M  V30 2950 H 265.242 -3.12769 0.319876 0
M  V30 2951 N 269.014 -1.53014 -0.377408 0
M  V30 2952 C 270.26 -1.69821 -1.11948 0
M  V30 2953 C 270.615 -0.438581 -1.87335 0
M  V30 2954 O 269.908 0.568094 -1.82984 0
M  V30 2955 C 270.102 -2.87982 -2.11663 0
M  V30 2956 C 269.931 -4.25315 -1.46072 0
M  V30 2957 C 268.701 -4.90354 -1.21986 0
M  V30 2958 C 270.899 -5.06281 -0.904664 0
M  V30 2959 N 268.881 -6.11641 -0.526215 0
M  V30 2960 C 270.252 -6.19069 -0.339726 0
M  V30 2961 C 272.307 -4.91395 -0.8022 0
M  V30 2962 C 271.01 -7.18598 0.317669 0
M  V30 2963 C 273.036 -5.91187 -0.158606 0
M  V30 2964 C 272.398 -7.03289 0.39551 0
M  V30 2965 H 268.497 -0.674785 -0.395207 0
M  V30 2966 H 271.081 -1.90389 -0.407437 0
M  V30 2967 H 269.252 -2.68974 -2.80192 0
M  V30 2968 H 270.984 -2.93669 -2.78461 0
M  V30 2969 H 267.739 -4.49286 -1.49798 0
M  V30 2970 H 268.163 -6.76719 -0.195098 0
M  V30 2971 H 272.805 -4.04925 -1.21639 0
M  V30 2972 H 270.523 -8.04669 0.743836 0
M  V30 2973 H 274.109 -5.81744 -0.0804138 0
M  V30 2974 H 272.989 -7.79183 0.885648 0
M  V30 2975 N 270.492 0.636531 -1.44174 0
M  V30 2976 C 271.402 1.77754 -1.53103 0
M  V30 2977 C 272.418 1.68928 -0.417034 0
M  V30 2978 O 273.594 1.89801 -0.6736 0
M  V30 2979 C 270.659 3.14115 -1.46741 0
M  V30 2980 C 269.72 3.34612 -2.68948 0
M  V30 2981 C 268.953 4.64467 -2.6288 0
M  V30 2982 O 269.176 5.44919 -1.68581 0
M  V30 2983 O 268.11 4.87049 -3.53648 0
M  V30 2984 H 271.936 1.73174 -2.49489 0
M  V30 2985 H 269.521 0.79709 -1.2636 0
M  V30 2986 H 271.403 3.95412 -1.45696 0
M  V30 2987 H 270.078 3.19249 -0.534975 0
M  V30 2988 H 268.985 2.53014 -2.75562 0
M  V30 2989 H 270.318 3.34336 -3.61221 0
M  V30 2990 N 271.97 1.30982 0.876444 0
M  V30 2991 C 273.195 1.23373 1.66715 0
M  V30 2992 C 273.62 -0.19885 1.87046 0
M  V30 2993 O 272.978 -1.1427 1.40756 0
M  V30 2994 C 273.026 1.97644 3.01611 0
M  V30 2995 O 272.13 1.30935 3.91062 0
M  V30 2996 H 271.471 0.426279 0.509099 0
M  V30 2997 H 274.001 1.72944 1.09323 0
M  V30 2998 H 274.011 2.06992 3.51594 0
M  V30 2999 H 272.686 3.01829 2.86133 0
M  V30 3000 H 271.263 1.29996 3.49507 0
M  V30 3001 N 273.449 -1.08991 1.13837 0
M  V30 3002 C 274.695 -1.81526 0.90422 0
M  V30 3003 C 275.028 -1.85706 -0.568066 0
M  V30 3004 O 274.303 -1.32855 -1.42056 0
M  V30 3005 C 274.586 -3.27447 1.49835 0
M  V30 3006 C 274.439 -3.31512 3.04006 0
M  V30 3007 C 275.758 -4.24256 1.17025 0
M  V30 3008 H 272.877 -0.659029 0.329923 0
M  V30 3009 H 275.519 -1.27644 1.40737 0
M  V30 3010 H 273.669 -3.73462 1.07044 0
M  V30 3011 H 275.341 -2.93867 3.55584 0
M  V30 3012 H 273.584 -2.70963 3.38765 0
M  V30 3013 H 274.255 -4.34329 3.40679 0
M  V30 3014 H 276.731 -3.86549 1.54009 0
M  V30 3015 H 275.607 -5.24684 1.61237 0
M  V30 3016 H 275.868 -4.42019 0.0846274 0
M  V30 3017 N 274.927 -0.932562 -1.27047 0
M  V30 3018 C 276.155 -0.592031 -1.98249 0
M  V30 3019 C 276.57 0.831062 -1.69525 0
M  V30 3020 O 275.927 1.55299 -0.958561 0
M  V30 3021 C 275.978 -0.814279 -3.5221 0
M  V30 3022 O 275.699 -2.18139 -3.7993 0
M  V30 3023 C 277.2 -0.483121 -4.4066 0
M  V30 3024 H 274.42 -0.223896 -0.632544 0
M  V30 3025 H 276.964 -1.25091 -1.61779 0
M  V30 3026 H 275.119 -0.20213 -3.86872 0
M  V30 3027 H 275.533 -2.235 -4.74498 0
M  V30 3028 H 277.007 -0.689298 -5.47679 0
M  V30 3029 H 277.484 0.581546 -4.35333 0
M  V30 3030 H 278.09 -1.07362 -4.11526 0
M  V30 3031 N 276.405 1.4127 -0.698611 0
M  V30 3032 C 277.63 2.06024 -0.238512 0
M  V30 3033 C 278.055 1.5224 1.10475 0
M  V30 3034 O 277.413 0.650623 1.69223 0
M  V30 3035 C 277.461 3.59988 -0.209952 0
M  V30 3036 O 276.565 4.04282 0.814235 0
M  V30 3037 H 275.906 0.653829 -0.115775 0
M  V30 3038 H 278.436 1.8098 -0.954326 0
M  V30 3039 H 278.446 4.07979 -0.0418436 0
M  V30 3040 H 277.121 3.98503 -1.1903 0
M  V30 3041 H 275.698 3.6779 0.615234 0
M  V30 3042 N 277.883 0.443576 1.51229 0
M  V30 3043 C 279.108 -0.121648 2.07043 0
M  V30 3044 C 279.533 -1.35156 1.30823 0
M  V30 3045 O 278.891 -1.7793 0.347934 0
M  V30 3046 C 278.939 -0.41624 3.5819 0
M  V30 3047 O 278.043 -1.50163 3.8409 0
M  V30 3048 H 277.384 0.000871367 0.663999 0
M  V30 3049 H 279.914 0.626706 1.94765 0
M  V30 3050 H 279.924 -0.664867 4.02546 0
M  V30 3051 H 278.599 0.482653 4.1309 0
M  V30 3052 H 277.176 -1.24248 3.51592 0
M  V30 3053 N 279.361 -1.56624 0.175154 0
M  V30 3054 C 280.61 -1.96173 -0.468921 0
M  V30 3055 C 280.923 -1.06401 -1.64128 0
M  V30 3056 O 282.129 -1.35648 -2.35185 0
M  V30 3057 C 280.585 -3.48833 -0.885633 0
M  V30 3058 C 280.193 -4.47237 0.261343 0
M  V30 3059 C 281.937 -3.97194 -1.49791 0
M  V30 3060 C 279.844 -5.9114 -0.175214 0
M  V30 3061 H 278.774 -0.732455 -0.178958 0
M  V30 3062 H 281.425 -1.81591 0.263997 0
M  V30 3063 H 279.807 -3.58848 -1.67464 0
M  V30 3064 H 280.981 -4.4894 1.03871 0
M  V30 3065 H 279.296 -4.08956 0.783827 0
M  V30 3066 H 281.893 -5.02167 -1.83665 0
M  V30 3067 H 282.236 -3.40351 -2.39722 0
M  V30 3068 H 282.769 -3.90212 -0.773267 0
M  V30 3069 H 279.508 -6.51865 0.689414 0
M  V30 3070 H 279.028 -5.92735 -0.91786 0
M  V30 3071 H 280.707 -6.44044 -0.617792 0
M  V30 3072 N 280.839 0.0985539 -1.57292 0
M  V30 3073 C 282.064 0.820196 -1.90493 0
M  V30 3074 C 282.489 1.71658 -0.769094 0
M  V30 3075 O 281.847 1.79133 0.279495 0
M  V30 3076 C 281.895 1.61242 -3.22542 0
M  V30 3077 O 280.999 2.72108 -3.09888 0
M  V30 3078 H 280.34 0.225547 -0.62452 0
M  V30 3079 H 282.87 0.0748159 -2.04463 0
M  V30 3080 H 282.88 1.99737 -3.55766 0
M  V30 3081 H 281.555 0.954535 -4.04798 0
M  V30 3082 H 280.132 2.36667 -2.88172 0
M  V30 3083 N 282.317 1.53212 0.369288 0
M  V30 3084 C 283.565 1.68881 1.11012 0
M  V30 3085 C 283.886 0.441285 1.89941 0
M  V30 3086 O 283.156 -0.544623 1.88177 0
M  V30 3087 H 281.736 0.622569 0.412816 0
M  V30 3088 H 284.398 1.90391 0.416802 0
M  V30 3089 H 283.494 2.54822 1.80201 0
M  V30 3090 N 283.795 -0.628877 1.44509 0
M  V30 3091 C 285.041 -1.39045 1.47629 0
M  V30 3092 C 285.374 -1.93892 0.109343 0
M  V30 3093 O 284.649 -1.7379 -0.87334 0
M  V30 3094 C 284.932 -2.55408 2.53848 0
M  V30 3095 C 284.785 -2.05896 3.99909 0
M  V30 3096 C 286.104 -3.5759 2.56549 0
M  V30 3097 H 283.223 -0.504232 0.537512 0
M  V30 3098 H 285.865 -0.710854 1.76201 0
M  V30 3099 H 284.015 -3.13384 2.29615 0
M  V30 3100 H 285.687 -1.52734 4.35282 0
M  V30 3101 H 283.93 -1.37061 4.11578 0
M  V30 3102 H 284.601 -2.89681 4.69882 0
M  V30 3103 H 287.077 -3.09419 2.78207 0
M  V30 3104 H 285.953 -4.36527 3.32769 0
M  V30 3105 H 286.214 -4.11808 1.60832 0
M  V30 3106 N 285.273 -1.31445 -0.869486 0
M  V30 3107 C 286.498 -1.24256 -1.66058 0
M  V30 3108 C 286.923 0.188928 -1.87149 0
M  V30 3109 O 286.281 1.13522 -1.4136 0
M  V30 3110 C 286.329 -1.9924 -3.00559 0
M  V30 3111 O 285.433 -1.33007 -3.90362 0
M  V30 3112 H 284.774 -0.428973 -0.506831 0
M  V30 3113 H 287.304 -1.73521 -1.08404 0
M  V30 3114 H 287.314 -2.08854 -3.50491 0
M  V30 3115 H 285.989 -3.03342 -2.84528 0
M  V30 3116 H 284.566 -1.31848 -3.48813 0
M  V30 3117 N 286.751 1.08385 -1.14413 0
M  V30 3118 C 287.981 1.8425 -0.934644 0
M  V30 3119 C 288.389 1.81907 0.520234 0
M  V30 3120 O 287.732 1.22126 1.37226 0
M  V30 3121 C 287.794 3.32853 -1.35828 0
M  V30 3122 C 287.458 3.5893 -2.82875 0
M  V30 3123 C 288.455 3.53756 -3.80989 0
M  V30 3124 C 286.14 3.86934 -3.20293 0
M  V30 3125 C 288.134 3.76216 -5.14529 0
M  V30 3126 C 285.821 4.09047 -4.54008 0
M  V30 3127 C 286.819 4.03682 -5.50936 0
M  V30 3128 O 286.507 4.25214 -6.82238 0
M  V30 3129 H 286.239 0.588502 -0.332628 0
M  V30 3130 H 288.793 1.37792 -1.52324 0
M  V30 3131 H 287.023 3.8007 -0.713019 0
M  V30 3132 H 288.712 3.90154 -1.11957 0
M  V30 3133 H 289.478 3.32135 -3.53428 0
M  V30 3134 H 285.357 3.9023 -2.45442 0
M  V30 3135 H 288.901 3.71943 -5.90173 0
M  V30 3136 H 284.798 4.30151 -4.8129 0
M  V30 3137 H 285.566 4.42619 -6.88499 0
M  V30 3138 N 288.23 0.939286 1.26551 0
M  V30 3139 C 289.178 0.43815 2.28436 0
M  V30 3140 C 290.172 -0.483587 1.62351 0
M  V30 3141 O 291.378 -0.362009 1.76322 0
M  V30 3142 H 287.753 0.123149 0.741848 0
M  V30 3143 H 289.724 1.31002 2.68106 0
M  V30 3144 C 288.473 -0.283052 3.46546 0
M  V30 3145 H 287.796 0.417043 3.97619 0
M  V30 3146 H 289.236 -0.597948 4.19763 0
M  V30 3147 C 287.695 -1.50018 3.01656 0
M  V30 3148 O 288.225 -2.59855 3.0633 0
M  V30 3149 N 286.431 -1.35608 2.57019 0
M  V30 3150 H 285.978 -0.46244 2.53415 0
M  V30 3151 H 285.936 -2.17165 2.27347 0
M  V30 3152 N 289.708 -1.40897 0.706093 0
M  V30 3153 C 290.933 -2.05895 0.249435 0
M  V30 3154 C 291.358 -1.52823 -1.09666 0
M  V30 3155 O 290.716 -0.659589 -1.68876 0
M  V30 3156 C 290.764 -3.59872 0.22904 0
M  V30 3157 O 289.868 -4.04708 -0.792784 0
M  V30 3158 H 289.209 -0.653206 0.119241 0
M  V30 3159 H 291.739 -1.80471 0.96391 0
M  V30 3160 H 291.749 -4.07951 0.0634791 0
M  V30 3161 H 290.424 -3.97866 1.21141 0
M  V30 3162 H 289.001 -3.68111 -0.59572 0
M  V30 3163 N 291.186 -0.45159 -1.50991 0
M  V30 3164 C 292.597 0.00818571 -1.86698 0
M  V30 3165 C 292.948 1.40661 -1.3678 0
M  V30 3166 O 292.073 2.0391 -0.724546 0
M  V30 3167 C 292.668 0.0216303 -3.38793 0
M  V30 3168 C 291.227 0.425865 -3.73983 0
M  V30 3169 C 290.374 -0.372163 -2.74791 0
M  V30 3170 H 293.325 -0.666785 -1.44013 0
M  V30 3171 H 293.346 0.828078 -3.7138 0
M  V30 3172 H 292.858 -0.996288 -3.75094 0
M  V30 3173 H 290.959 1.44886 -3.43277 0
M  V30 3174 H 291.072 0.140761 -4.78893 0
M  V30 3175 H 289.436 0.171498 -2.54122 0
M  V30 3176 H 290.219 -1.38922 -3.13935 0
M  V30 3177 N 292.664 1.56529 -0.183458 0
M  V30 3178 C 293.889 2.02064 0.467428 0
M  V30 3179 C 294.314 1.06282 1.55196 0
M  V30 3180 O 293.672 0.0443565 1.81246 0
M  V30 3181 C 293.72 3.46122 1.01153 0
M  V30 3182 O 292.824 3.53437 2.12499 0
M  V30 3183 H 292.165 0.654726 0.110588 0
M  V30 3184 H 294.695 2.02521 -0.290917 0
M  V30 3185 H 294.705 3.85676 1.33108 0
M  V30 3186 H 293.38 4.15331 0.217533 0
M  V30 3187 H 291.957 3.2575 1.81497 0
M  V30 3188 N 294.142 -0.090211 1.57342 0
M  V30 3189 C 295.388 -0.793982 1.86611 0
M  V30 3190 C 295.721 -1.78142 0.773252 0
M  V30 3191 O 294.996 -1.93271 -0.218304 0
M  V30 3192 C 295.279 -1.51839 3.26523 0
M  V30 3193 C 295.132 -0.548609 4.46442 0
M  V30 3194 C 296.451 -2.46779 3.64401 0
M  V30 3195 H 293.57 -0.287186 0.678744 0
M  V30 3196 H 296.212 -0.0575076 1.89913 0
M  V30 3197 H 294.362 -2.14617 3.23839 0
M  V30 3198 H 296.034 0.0725513 4.61243 0
M  V30 3199 H 294.277 0.137614 4.33582 0
M  V30 3200 H 294.948 -1.09271 5.41076 0
M  V30 3201 H 297.424 -1.94089 3.68061 0
M  V30 3202 H 296.3 -2.94479 4.63221 0
M  V30 3203 H 296.561 -3.30758 2.93346 0
M  V30 3204 N 295.62 -1.53406 -0.361157 0
M  V30 3205 C 296.848 -1.73717 -1.12383 0
M  V30 3206 C 297.263 -0.468161 -1.82904 0
M  V30 3207 O 296.62 0.559198 -1.73722 0
M  V30 3208 C 296.671 -2.90558 -2.15078 0
M  V30 3209 O 296.392 -4.12549 -1.47428 0
M  V30 3210 C 297.893 -3.22777 -3.03858 0
M  V30 3211 H 295.113 -0.580896 -0.335858 0
M  V30 3212 H 297.657 -2.00167 -0.418728 0
M  V30 3213 H 295.812 -2.66489 -2.8118 0
M  V30 3214 H 296.226 -4.78009 -2.15887 0
M  V30 3215 H 297.7 -4.07927 -3.71887 0
M  V30 3216 H 298.177 -2.38329 -3.68912 0
M  V30 3217 H 298.783 -3.48787 -2.43367 0
M  V30 3218 N 297.098 0.621204 -1.44841 0
M  V30 3219 C 298.375 1.38 -1.38619 0
M  V30 3220 C 298.755 2.11041 -0.0498935 0
M  V30 3221 O 298.103 2.06992 0.967816 0
M  V30 3222 C 298.313 2.33817 -2.59096 0
M  V30 3223 C 299.661 2.96844 -3.03593 0
M  V30 3224 O 300.685 2.44141 -2.59371 0
M  V30 3225 O 299.544 3.92476 -3.80296 0
M  V30 3226 H 296.638 0.61811 -0.549426 0
M  V30 3227 H 299.184 0.645429 -1.56947 0
M  V30 3228 H 297.956 1.79012 -3.47952 0
M  V30 3229 H 297.579 3.14676 -2.43032 0
M  V30 3230 N 298.576 1.31904 0.862503 0
M  V30 3231 C 299.987 1.19803 1.43193 0
M  V30 3232 C 300.338 -0.192567 1.95253 0
M  V30 3233 O 299.463 -1.09081 1.86896 0
M  V30 3234 C 300.058 2.16883 2.60283 0
M  V30 3235 C 298.617 2.08692 3.13248 0
M  V30 3236 C 297.764 2.05691 1.85975 0
M  V30 3237 H 300.715 1.43846 0.670365 0
M  V30 3238 H 300.736 1.76278 3.37204 0
M  V30 3239 H 300.248 3.18083 2.22363 0
M  V30 3240 H 298.349 1.10713 3.55771 0
M  V30 3241 H 298.462 2.9815 3.75025 0
M  V30 3242 H 296.826 1.50814 2.05249 0
M  V30 3243 H 297.609 3.08659 1.50282 0
M  V30 3244 N 300.054 -1.07777 1.14986 0
M  V30 3245 C 301.282 -1.84018 0.945773 0
M  V30 3246 C 301.697 -1.81897 -0.505863 0
M  V30 3247 O 301.054 -1.22726 -1.35072 0
M  V30 3248 C 301.105 -3.31287 1.44677 0
M  V30 3249 O 300.826 -3.33449 2.84154 0
M  V30 3250 C 302.327 -4.24311 1.28355 0
M  V30 3251 H 299.547 -0.580716 0.336169 0
M  V30 3252 H 302.091 -1.36077 1.52654 0
M  V30 3253 H 300.246 -3.76594 0.908625 0
M  V30 3254 H 300.66 -4.25427 3.06777 0
M  V30 3255 H 302.134 -5.2573 1.68261 0
M  V30 3256 H 302.611 -4.38612 0.227184 0
M  V30 3257 H 303.217 -3.84836 1.81056 0
M  V30 3258 N 301.532 -0.945985 -1.26051 0
M  V30 3259 C 302.462 -0.477172 -2.28572 0
M  V30 3260 C 303.443 0.472032 -1.63419 0
M  V30 3261 O 304.628 0.372853 -1.90587 0
M  V30 3262 C 301.758 0.253975 -3.4637 0
M  V30 3263 C 300.712 -0.609135 -4.23643 0
M  V30 3264 C 300.038 0.252252 -5.34105 0
M  V30 3265 C 301.338 -1.8829 -4.8718 0
M  V30 3266 H 303.032 -1.33402 -2.68038 0
M  V30 3267 H 300.578 -0.642904 -1.28852 0
M  V30 3268 H 302.531 0.593016 -4.17207 0
M  V30 3269 H 301.255 1.145 -3.05871 0
M  V30 3270 H 299.914 -0.931138 -3.54578 0
M  V30 3271 H 299.562 1.14278 -4.89846 0
M  V30 3272 H 299.262 -0.32188 -5.86718 0
M  V30 3273 H 300.786 0.586454 -6.07777 0
M  V30 3274 H 302.2 -1.61081 -5.50205 0
M  V30 3275 H 300.597 -2.40199 -5.49931 0
M  V30 3276 H 301.667 -2.59134 -4.09851 0
M  V30 3277 N 303.011 1.40521 -0.713556 0
M  V30 3278 C 304.26 2.00155 -0.249192 0
M  V30 3279 C 304.573 1.57224 1.16362 0
M  V30 3280 O 305.779 2.09542 1.72639 0
M  V30 3281 C 304.235 3.5773 -0.3946 0
M  V30 3282 C 303.843 4.09635 -1.81392 0
M  V30 3283 C 305.587 4.24499 0.00907364 0
M  V30 3284 C 303.494 5.59707 -1.91003 0
M  V30 3285 H 302.424 0.74868 -0.0894114 0
M  V30 3286 H 305.075 1.60784 -0.884352 0
M  V30 3287 H 303.457 3.94792 0.30911 0
M  V30 3288 H 304.631 3.83955 -2.54785 0
M  V30 3289 H 302.946 3.55456 -2.16888 0
M  V30 3290 H 305.543 5.34683 -0.0420404 0
M  V30 3291 H 305.886 4.02824 1.05065 0
M  V30 3292 H 306.419 3.92536 -0.645007 0
M  V30 3293 H 303.158 5.86234 -2.93275 0
M  V30 3294 H 302.678 5.87258 -1.22019 0
M  V30 3295 H 304.357 6.24776 -1.6812 0
M  V30 3296 N 304.489 0.459591 1.5075 0
M  V30 3297 C 305.452 -0.329093 2.26825 0
M  V30 3298 C 306.452 -0.930481 1.31144 0
M  V30 3299 O 307.642 -0.801453 1.54669 0
M  V30 3300 C 304.774 -1.46768 3.07688 0
M  V30 3301 H 305.967 0.337924 2.9799 0
M  V30 3302 H 303.52 0.213336 1.54837 0
M  V30 3303 H 304.255 -2.17009 2.40993 0
M  V30 3304 H 304.04 -1.04238 3.77991 0
M  V30 3305 H 305.53 -2.02433 3.65254 0
M  V30 3306 N 305.967 -1.56429 0.191757 0
M  V30 3307 C 307.244 -1.89224 -0.495332 0
M  V30 3308 C 307.624 -1.10478 -1.79883 0
M  V30 3309 O 306.972 -0.204852 -2.2758 0
M  V30 3310 C 307.182 -3.41548 -0.717367 0
M  V30 3311 C 308.53 -4.11711 -1.03823 0
M  V30 3312 O 309.554 -3.4698 -0.805204 0
M  V30 3313 O 308.413 -5.2611 -1.47887 0
M  V30 3314 H 305.507 -0.785788 -0.25781 0
M  V30 3315 H 308.053 -1.68111 0.231721 0
M  V30 3316 H 306.825 -3.90772 0.203287 0
M  V30 3317 H 306.448 -3.68342 -1.497 0
M  V30 3318 N 307.445 0.0818655 -1.57387 0
M  V30 3319 C 308.408 1.08265 -2.02018 0
M  V30 3320 C 309.408 1.32183 -0.915664 0
M  V30 3321 O 310.598 1.28073 -1.18081 0
M  V30 3322 C 307.73 2.42871 -2.39221 0
M  V30 3323 H 308.923 0.698204 -2.91659 0
M  V30 3324 H 306.476 0.327303 -1.52835 0
M  V30 3325 H 307.211 2.86167 -1.52575 0
M  V30 3326 H 306.996 2.26855 -3.19811 0
M  V30 3327 H 308.486 3.14826 -2.74362 0
M  V30 3328 N 308.923 1.53595 0.353017 0
M  V30 3329 C 309.853 1.83902 1.43883 0
M  V30 3330 C 310.834 0.693421 1.55324 0
M  V30 3331 O 312.019 0.944452 1.69687 0
M  V30 3332 C 309.149 2.04016 2.8106 0
M  V30 3333 C 308.103 3.19814 2.84434 0
M  V30 3334 C 307.429 3.25244 4.24406 0
M  V30 3335 C 308.729 4.58133 2.50822 0
M  V30 3336 H 310.423 2.74835 1.1877 0
M  V30 3337 H 307.969 1.32242 0.569917 0
M  V30 3338 H 309.922 2.238 3.57059 0
M  V30 3339 H 308.646 1.09804 3.07588 0
M  V30 3340 H 307.305 2.9987 2.10887 0
M  V30 3341 H 306.953 2.28646 4.48029 0
M  V30 3342 H 306.653 4.03054 4.27576 0
M  V30 3343 H 308.177 3.47228 5.0226 0
M  V30 3344 H 309.591 4.77995 3.16534 0
M  V30 3345 H 307.988 5.38276 2.6529 0
M  V30 3346 H 309.058 4.62387 1.46034 0
M  V30 3347 N 310.401 -0.613514 1.45168 0
M  V30 3348 C 311.678 -1.37263 1.39349 0
M  V30 3349 C 312.058 -2.11012 0.0610848 0
M  V30 3350 O 311.406 -2.07502 -0.956825 0
M  V30 3351 C 311.616 -2.3244 2.60332 0
M  V30 3352 C 312.964 -2.9523 3.05163 0
M  V30 3353 O 313.988 -2.42762 2.60663 0
M  V30 3354 O 312.847 -3.90454 3.82372 0
M  V30 3355 H 309.941 -0.615188 0.552696 0
M  V30 3356 H 312.487 -0.637097 1.57287 0
M  V30 3357 H 311.259 -1.77164 3.48896 0
M  V30 3358 H 310.882 -3.13383 2.44698 0
M  V30 3359 N 311.879 -1.3236 -0.855495 0
M  V30 3360 C 312.826 -1.21225 -1.964 0
M  V30 3361 C 313.796 -0.0946204 -1.6583 0
M  V30 3362 O 314.981 -0.27002 -1.8888 0
M  V30 3363 C 312.121 -0.940419 -3.32039 0
M  V30 3364 C 311.234 -2.14276 -3.75113 0
M  V30 3365 C 310.369 -1.80648 -4.9954 0
M  V30 3366 C 309.408 -2.97208 -5.35102 0
M  V30 3367 N 308.545 -2.63678 -6.50706 0
M  V30 3368 H 313.385 -2.16042 -2.05255 0
M  V30 3369 H 310.922 -1.07451 -1.00463 0
M  V30 3370 H 312.88 -0.763311 -4.10158 0
M  V30 3371 H 311.51 -0.0290413 -3.22787 0
M  V30 3372 H 310.562 -2.43017 -2.92655 0
M  V30 3373 H 311.874 -3.01468 -3.97389 0
M  V30 3374 H 311.028 -1.59484 -5.85363 0
M  V30 3375 H 309.767 -0.906678 -4.79198 0
M  V30 3376 H 308.772 -3.19004 -4.47791 0
M  V30 3377 H 309.997 -3.87918 -5.57401 0
M  V30 3378 H 307.943 -1.76238 -6.31883 0
M  V30 3379 H 307.86 -3.444 -6.72997 0
M  V30 3380 H 309.128 -2.45942 -7.39684 0
M  V30 3381 N 313.357 1.07166 -1.15556 0
M  V30 3382 C 314.304 2.14417 -0.854055 0
M  V30 3383 C 315.274 1.64965 0.193806 0
M  V30 3384 O 316.459 1.90703 0.0609443 0
M  V30 3385 C 313.599 3.43304 -0.351574 0
M  V30 3386 C 312.712 4.06537 -1.46123 0
M  V30 3387 C 311.847 5.23266 -0.914677 0
M  V30 3388 C 310.886 5.78464 -2.00114 0
M  V30 3389 N 310.023 6.86521 -1.47083 0
M  V30 3390 H 314.863 2.39548 -1.77259 0
M  V30 3391 H 312.4 1.17543 -0.884425 0
M  V30 3392 H 314.358 4.17179 -0.0419409 0
M  V30 3393 H 312.988 3.18419 0.530037 0
M  V30 3394 H 312.04 3.30297 -1.88701 0
M  V30 3395 H 313.352 4.43567 -2.28144 0
M  V30 3396 H 312.506 6.04131 -0.557698 0
M  V30 3397 H 311.245 4.87658 -0.0636583 0
M  V30 3398 H 310.25 4.96243 -2.36692 0
M  V30 3399 H 311.475 6.16126 -2.85597 0
M  V30 3400 H 309.421 6.52849 -0.642198 0
M  V30 3401 H 309.338 7.22446 -2.22729 0
M  V30 3402 H 310.606 7.71087 -1.14215 0
M  V30 3403 N 314.835 0.952656 1.25548 0
M  V30 3404 C 316.084 0.602053 1.92505 0
M  V30 3405 C 316.397 -0.864663 1.75451 0
M  V30 3406 O 317.603 -1.32514 2.36965 0
M  V30 3407 C 316.059 1.02607 3.44963 0
M  V30 3408 C 315.667 2.51519 3.70732 0
M  V30 3409 C 317.411 0.747905 4.1786 0
M  V30 3410 C 315.318 2.87732 5.16686 0
M  V30 3411 H 314.248 0.22146 0.720744 0
M  V30 3412 H 316.899 1.15684 1.42441 0
M  V30 3413 H 315.281 0.399712 3.93978 0
M  V30 3414 H 316.455 3.19157 3.32378 0
M  V30 3415 H 314.77 2.76786 3.11092 0
M  V30 3416 H 317.367 0.994647 5.25367 0
M  V30 3417 H 317.71 -0.315629 4.15102 0
M  V30 3418 H 318.243 1.33452 3.74747 0
M  V30 3419 H 314.982 3.93095 5.24554 0
M  V30 3420 H 314.502 2.24765 5.56094 0
M  V30 3421 H 316.181 2.76817 5.84792 0
M  V30 3422 N 316.313 -1.40141 0.720998 0
M  V30 3423 C 317.276 -2.29058 0.0805834 0
M  V30 3424 C 318.276 -1.45632 -0.681758 0
M  V30 3425 O 319.466 -1.6648 -0.512856 0
M  V30 3426 C 316.598 -3.28925 -0.895593 0
M  V30 3427 H 317.791 -2.87191 0.863793 0
M  V30 3428 H 315.344 -1.48553 0.485975 0
M  V30 3429 H 316.079 -2.75822 -1.70566 0
M  V30 3430 H 315.864 -3.90519 -0.351766 0
M  V30 3431 H 317.354 -3.95494 -1.34069 0
M  V30 3432 N 317.792 -0.46758 -1.50504 0
M  V30 3433 C 318.702 0.33382 -2.32213 0
M  V30 3434 C 319.718 0.999323 -1.42441 0
M  V30 3435 O 320.894 0.988068 -1.75497 0
M  V30 3436 C 317.959 1.4035 -3.17022 0
M  V30 3437 C 317.02 0.754961 -4.2261 0
M  V30 3438 C 316.253 1.77367 -5.03365 0
M  V30 3439 O 316.476 2.99976 -4.8515 0
M  V30 3440 O 315.41 1.34744 -5.86624 0
M  V30 3441 H 319.236 -0.334067 -3.01857 0
M  V30 3442 H 316.821 -0.229496 -1.47627 0
M  V30 3443 H 318.703 2.02318 -3.69656 0
M  V30 3444 H 317.378 2.05492 -2.5011 0
M  V30 3445 H 316.285 0.0964244 -3.73976 0
M  V30 3446 H 317.618 0.146545 -4.91982 0
M  V30 3447 N 319.27 1.56325 -0.20005 0
M  V30 3448 C 320.517 1.97719 0.437411 0
M  V30 3449 C 320.845 1.08709 1.61284 0
M  V30 3450 O 320.1 0.127261 1.95286 0
M  V30 3451 C 320.399 3.4495 0.935103 0
M  V30 3452 C 320.065 4.5072 -0.12749 0
M  V30 3453 C 318.727 4.79368 -0.419451 0
M  V30 3454 C 321.079 5.14268 -0.847231 0
M  V30 3455 C 318.407 5.68854 -1.43604 0
M  V30 3456 C 320.759 6.04852 -1.85301 0
M  V30 3457 C 319.423 6.31855 -2.15211 0
M  V30 3458 H 318.693 0.723507 0.16006 0
M  V30 3459 H 321.34 1.89166 -0.298056 0
M  V30 3460 H 319.645 3.50599 1.74894 0
M  V30 3461 H 321.342 3.74337 1.43781 0
M  V30 3462 H 317.932 4.28458 0.11023 0
M  V30 3463 H 322.116 4.92222 -0.634901 0
M  V30 3464 H 317.372 5.88047 -1.67364 0
M  V30 3465 H 321.546 6.53152 -2.41591 0
M  V30 3466 H 319.173 7.00994 -2.94129 0
M  V30 3467 N 320.748 -0.0735177 1.57428 0
M  V30 3468 C 322.025 -0.805903 1.78226 0
M  V30 3469 C 322.405 -1.95874 0.787189 0
M  V30 3470 O 321.753 -2.2779 -0.180029 0
M  V30 3471 C 321.963 -1.28045 3.24662 0
M  V30 3472 C 323.311 -1.71453 3.88444 0
M  V30 3473 O 324.335 -1.37616 3.28543 0
M  V30 3474 O 323.194 -2.34093 4.93825 0
M  V30 3475 H 320.288 -0.386041 0.73137 0
M  V30 3476 H 322.834 -0.0537269 1.69615 0
M  V30 3477 H 321.606 -0.455476 3.8864 0
M  V30 3478 H 321.229 -2.094 3.37991 0
M  V30 3479 N 322.226 -1.5378 -0.344866 0
M  V30 3480 C 323.454 -1.74899 -1.10534 0
M  V30 3481 C 323.869 -0.487534 -1.82397 0
M  V30 3482 O 323.226 0.540741 -1.74305 0
M  V30 3483 C 323.277 -2.92822 -2.11984 0
M  V30 3484 O 322.998 -4.14089 -1.43044 0
M  V30 3485 C 324.499 -3.25982 -3.00417 0
M  V30 3486 H 321.719 -0.584426 -0.329678 0
M  V30 3487 H 324.263 -2.006 -0.397474 0
M  V30 3488 H 322.418 -2.69457 -2.78338 0
M  V30 3489 H 322.832 -4.80272 -2.10805 0
M  V30 3490 H 324.306 -4.11848 -3.67539 0
M  V30 3491 H 324.783 -2.42228 -3.66363 0
M  V30 3492 H 325.389 -3.51349 -2.39654 0
M  V30 3493 N 323.704 0.605807 -1.45491 0
M  V30 3494 C 324.95 1.36679 -1.49823 0
M  V30 3495 C 325.283 1.93693 -0.140175 0
M  V30 3496 O 324.558 1.75158 0.845581 0
M  V30 3497 C 324.841 2.51337 -2.57879 0
M  V30 3498 C 324.694 1.99508 -4.03134 0
M  V30 3499 C 326.013 3.53463 -2.62205 0
M  V30 3500 H 323.132 0.495617 -0.545466 0
M  V30 3501 H 325.774 0.682732 -1.7731 0
M  V30 3502 H 323.924 3.09691 -2.34571 0
M  V30 3503 H 325.596 1.45789 -4.37656 0
M  V30 3504 H 323.839 1.30496 -4.13707 0
M  V30 3505 H 324.51 2.82169 -4.74431 0
M  V30 3506 H 326.986 3.04953 -2.83095 0
M  V30 3507 H 325.862 4.31178 -3.39672 0
M  V30 3508 H 326.123 4.09197 -1.67363 0
M  V30 3509 N 325.182 1.32811 0.848464 0
M  V30 3510 C 326.092 1.24278 1.98978 0
M  V30 3511 C 327.108 0.155176 1.73307 0
M  V30 3512 O 328.284 0.376999 1.9784 0
M  V30 3513 C 325.349 0.972444 3.32783 0
M  V30 3514 C 324.41 2.14911 3.71634 0
M  V30 3515 C 323.643 1.89157 4.99054 0
M  V30 3516 O 323.866 0.837165 5.64223 0
M  V30 3517 O 322.8 2.75433 5.35183 0
M  V30 3518 H 326.626 2.20238 2.09115 0
M  V30 3519 H 324.211 1.12762 0.980052 0
M  V30 3520 H 326.093 0.838432 4.12975 0
M  V30 3521 H 324.768 0.043051 3.23671 0
M  V30 3522 H 323.675 2.33862 2.91992 0
M  V30 3523 H 325.008 3.06151 3.85399 0
M  V30 3524 N 326.66 -1.06551 1.16123 0
M  V30 3525 C 327.937 -1.76097 0.85142 0
M  V30 3526 C 328.317 -2.00802 -0.6513 0
M  V30 3527 O 327.665 -1.63302 -1.59827 0
M  V30 3528 C 327.875 -3.06384 1.67122 0
M  V30 3529 C 329.223 -3.80585 1.88255 0
M  V30 3530 O 330.247 -3.16218 1.63966 0
M  V30 3531 O 329.106 -4.96212 2.2899 0
M  V30 3532 H 326.2 -0.765102 0.313923 0
M  V30 3533 H 328.746 -1.12844 1.26745 0
M  V30 3534 H 327.518 -2.84071 2.69108 0
M  V30 3535 H 327.141 -3.77371 1.25206 0
M  V30 3536 N 328.138 -0.959301 -1.25041 0
M  V30 3537 C 329.068 -0.501388 -2.28053 0
M  V30 3538 C 330.049 0.454673 -1.63911 0
M  V30 3539 O 331.234 0.352618 -1.90972 0
M  V30 3540 C 328.364 0.217224 -3.4662 0
M  V30 3541 C 327.318 -0.654034 -4.22973 0
M  V30 3542 C 326.644 0.195589 -5.34342 0
M  V30 3543 C 327.944 -1.93447 -4.85155 0
M  V30 3544 H 329.638 -1.36238 -2.66608 0
M  V30 3545 H 327.184 -0.656534 -1.28163 0
M  V30 3546 H 329.137 0.548732 -4.17812 0
M  V30 3547 H 327.861 1.1125 -3.07068 0
M  V30 3548 H 326.52 -0.968693 -3.5357 0
M  V30 3549 H 326.168 1.09076 -4.91031 0
M  V30 3550 H 325.868 -0.384091 -5.86343 0
M  V30 3551 H 327.392 0.521958 -6.08365 0
M  V30 3552 H 328.806 -1.66908 -5.48466 0
M  V30 3553 H 327.203 -2.46018 -5.47353 0
M  V30 3554 H 328.273 -2.63466 -4.07079 0
M  V30 3555 N 329.616 1.39756 -0.72842 0
M  V30 3556 C 330.546 2.33289 -0.0991354 0
M  V30 3557 C 331.527 1.53568 0.731489 0
M  V30 3558 O 332.712 1.81987 0.677807 0
M  V30 3559 C 329.842 3.3763 0.813834 0
M  V30 3560 C 328.796 4.2791 0.0878663 0
M  V30 3561 C 328.122 5.22894 1.11741 0
M  V30 3562 C 329.422 5.11314 -1.06563 0
M  V30 3563 H 331.116 2.86163 -0.880408 0
M  V30 3564 H 328.662 1.37591 -0.424819 0
M  V30 3565 H 330.615 4.0201 1.26355 0
M  V30 3566 H 329.339 2.83181 1.62715 0
M  V30 3567 H 327.998 3.65 -0.342159 0
M  V30 3568 H 327.646 4.64744 1.92412 0
M  V30 3569 H 327.346 5.84143 0.636477 0
M  V30 3570 H 328.87 5.90151 1.56697 0
M  V30 3571 H 330.284 5.69076 -0.694671 0
M  V30 3572 H 328.681 5.81671 -1.47577 0
M  V30 3573 H 329.751 4.46534 -1.89038 0
M  V30 3574 N 331.094 0.475555 1.50254 0
M  V30 3575 C 332.041 -0.316293 2.28622 0
M  V30 3576 C 333.011 -0.983227 1.33873 0
M  V30 3577 O 334.196 -0.994805 1.62814 0
M  V30 3578 C 331.336 -1.38975 3.1588 0
M  V30 3579 C 330.449 -0.737146 4.25664 0
M  V30 3580 C 329.584 -1.78887 5.00173 0
M  V30 3581 C 328.623 -1.11676 6.01826 0
M  V30 3582 N 327.76 -2.11154 6.69596 0
M  V30 3583 H 332.6 0.358297 2.95838 0
M  V30 3584 H 330.137 0.188541 1.45887 0
M  V30 3585 H 332.095 -2.02383 3.64825 0
M  V30 3586 H 330.725 -2.03344 2.50701 0
M  V30 3587 H 329.777 0.0096065 3.80399 0
M  V30 3588 H 331.089 -0.206816 4.98371 0
M  V30 3589 H 330.243 -2.49865 5.52859 0
M  V30 3590 H 328.982 -2.35302 4.27182 0
M  V30 3591 H 327.987 -0.392633 5.48396 0
M  V30 3592 H 329.212 -0.55945 6.76792 0
M  V30 3593 H 327.158 -2.66577 5.99394 0
M  V30 3594 H 327.075 -1.63118 7.38193 0
M  V30 3595 H 328.343 -2.81497 7.26897 0
M  V30 3596 N 332.573 -1.56217 0.208337 0
M  V30 3597 C 333.803 -2.02043 -0.431523 0
M  V30 3598 C 334.211 -1.08755 -1.54819 0
M  V30 3599 O 333.554 -0.0870009 -1.83494 0
M  V30 3600 C 333.616 -3.44239 -1.03633 0
M  V30 3601 C 333.28 -4.56965 -0.0567502 0
M  V30 3602 C 334.277 -5.14624 0.738773 0
M  V30 3603 C 331.962 -5.02266 0.0581736 0
M  V30 3604 C 333.956 -6.16045 1.63605 0
M  V30 3605 C 331.643 -6.03528 0.959001 0
M  V30 3606 C 332.641 -6.60293 1.7465 0
M  V30 3607 O 332.329 -7.59586 2.6322 0
M  V30 3608 H 332.061 -0.666772 -0.111313 0
M  V30 3609 H 334.615 -2.02919 0.318277 0
M  V30 3610 H 332.845 -3.40391 -1.83497 0
M  V30 3611 H 334.534 -3.73793 -1.58221 0
M  V30 3612 H 335.3 -4.80483 0.660364 0
M  V30 3613 H 331.179 -4.57771 -0.544633 0
M  V30 3614 H 334.723 -6.60279 2.25116 0
M  V30 3615 H 330.62 -6.37092 1.03848 0
M  V30 3616 H 331.388 -7.77057 2.57148 0
M  V30 3617 N 334.051 0.0651679 -1.57465 0
M  V30 3618 C 335.298 0.763063 -1.87573 0
M  V30 3619 C 335.626 1.77242 -0.800961 0
M  V30 3620 O 334.881 1.94651 0.202316 0
M  V30 3621 C 335.18 1.50081 -3.24362 0
M  V30 3622 C 334.846 0.630816 -4.46466 0
M  V30 3623 C 333.508 0.391082 -4.79608 0
M  V30 3624 C 335.86 0.0279465 -5.21193 0
M  V30 3625 C 333.188 -0.460894 -5.84887 0
M  V30 3626 C 335.54 -0.811522 -6.27373 0
M  V30 3627 C 334.204 -1.06106 -6.59013 0
M  V30 3628 H 333.474 0.279224 -0.686378 0
M  V30 3629 H 336.121 0.0236726 -1.91485 0
M  V30 3630 H 334.426 2.31258 -3.16271 0
M  V30 3631 H 336.123 2.04571 -3.44894 0
M  V30 3632 H 332.713 0.8278 -4.2053 0
M  V30 3633 H 336.897 0.200262 -4.95896 0
M  V30 3634 H 332.153 -0.662907 -6.07796 0
M  V30 3635 H 336.327 -1.28537 -6.84435 0
M  V30 3636 H 333.954 -1.723 -7.40417 0
M  V30 3637 N 335.529 1.53961 0.336706 0
M  V30 3638 C 336.477 1.83136 1.43401 0
M  V30 3639 C 337.471 0.702313 1.54156 0
M  V30 3640 O 338.677 0.885765 1.56698 0
M  V30 3641 H 335.052 0.580309 0.478273 0
M  V30 3642 H 337.023 2.74925 1.16012 0
M  V30 3643 C 335.772 2.06385 2.79822 0
M  V30 3644 H 335.095 2.92718 2.72316 0
M  V30 3645 H 336.535 2.30761 3.55704 0
M  V30 3646 C 334.994 0.851414 3.25964 0
M  V30 3647 O 335.524 0.0541904 4.01663 0
M  V30 3648 N 333.73 0.66672 2.82848 0
M  V30 3649 H 333.277 1.31665 2.21409 0
M  V30 3650 H 333.235 -0.143032 3.14074 0
M  V30 3651 N 337.007 -0.598083 1.45811 0
M  V30 3652 C 338.418 -1.18011 1.44673 0
M  V30 3653 C 338.769 -1.95378 0.179364 0
M  V30 3654 O 337.894 -2.04124 -0.718509 0
M  V30 3655 C 338.489 -2.14677 2.62105 0
M  V30 3656 C 337.048 -2.68236 2.64057 0
M  V30 3657 C 336.195 -1.43816 2.37091 0
M  V30 3658 H 339.146 -0.38686 1.53913 0
M  V30 3659 H 339.167 -2.97878 2.36746 0
M  V30 3660 H 338.679 -1.5834 3.5433 0
M  V30 3661 H 336.78 -3.28486 1.75864 0
M  V30 3662 H 336.893 -3.12021 3.63566 0
M  V30 3663 H 335.257 -1.731 1.86838 0
M  V30 3664 H 336.04 -0.893333 3.31473 0
M  V30 3665 N 338.485 -1.33259 -0.841409 0
M  V30 3666 C 339.395 -1.25332 -1.98316 0
M  V30 3667 C 340.411 -0.164364 -1.73222 0
M  V30 3668 O 341.587 -0.387486 -1.97637 0
M  V30 3669 C 338.652 -0.990078 -3.32262 0
M  V30 3670 C 337.713 -2.16879 -3.70489 0
M  V30 3671 C 336.946 -1.91801 -4.98044 0
M  V30 3672 O 337.169 -0.867075 -5.63771 0
M  V30 3673 O 336.103 -2.78267 -5.33714 0
M  V30 3674 H 339.929 -2.21344 -2.07944 0
M  V30 3675 H 337.514 -1.1328 -0.974058 0
M  V30 3676 H 339.396 -0.860321 -4.12524 0
M  V30 3677 H 338.071 -0.0602155 -3.23644 0
M  V30 3678 H 336.978 -2.35407 -2.90748 0
M  V30 3679 H 338.311 -3.0819 -3.8377 0
M  V30 3680 N 339.963 1.05934 -1.16686 0
M  V30 3681 C 341.188 1.83029 -0.975455 0
M  V30 3682 C 341.613 1.82096 0.471452 0
M  V30 3683 O 340.971 1.22443 1.33706 0
M  V30 3684 C 341.019 3.27372 -1.51195 0
M  V30 3685 O 340.123 4.06054 -0.720701 0
M  V30 3686 H 339.464 0.566194 -0.346872 0
M  V30 3687 H 341.994 1.33541 -1.55009 0
M  V30 3688 H 342.004 3.78186 -1.53099 0
M  V30 3689 H 340.679 3.27366 -2.56523 0
M  V30 3690 H 339.256 3.64812 -0.772458 0
M  V30 3691 N 341.441 0.965919 1.2453 0
M  V30 3692 C 342.687 0.637349 1.93156 0
M  V30 3693 C 343.042 -0.818261 1.74133 0
M  V30 3694 O 342.335 -1.58079 1.08266 0
M  V30 3695 C 342.529 0.945428 3.44669 0
M  V30 3696 C 342.358 2.42944 3.78429 0
M  V30 3697 C 341.128 3.08895 3.9989 0
M  V30 3698 C 343.326 3.40941 3.8505 0
M  V30 3699 N 341.308 4.47052 4.20735 0
M  V30 3700 C 342.679 4.64448 4.10717 0
M  V30 3701 C 344.734 3.35624 3.67779 0
M  V30 3702 C 343.437 5.83292 4.20907 0
M  V30 3703 C 345.463 4.53818 3.79214 0
M  V30 3704 C 344.825 5.76114 4.05304 0
M  V30 3705 H 340.924 0.284034 0.728594 0
M  V30 3706 H 343.508 1.24041 1.50073 0
M  V30 3707 H 341.679 0.371193 3.86622 0
M  V30 3708 H 343.411 0.575613 4.00586 0
M  V30 3709 H 340.166 2.59432 3.96222 0
M  V30 3710 H 340.59 5.18634 4.35141 0
M  V30 3711 H 345.232 2.4211 3.46616 0
M  V30 3712 H 342.95 6.77236 4.40883 0
M  V30 3713 H 346.536 4.51263 3.67224 0
M  V30 3714 H 345.416 6.66045 4.13949 0
M  V30 3715 N 342.919 -1.39368 0.735821 0
M  V30 3716 C 343.851 -2.2913 0.0567723 0
M  V30 3717 C 344.864 -1.46859 -0.702589 0
M  V30 3718 O 346.053 -1.69925 -0.546616 0
M  V30 3719 C 343.153 -3.25492 -0.943823 0
M  V30 3720 C 342.326 -4.36709 -0.24581 0
M  V30 3721 C 341.385 -5.13376 -1.15463 0
M  V30 3722 O 340.411 -5.65683 -0.631803 0
M  V30 3723 N 341.613 -5.24656 -2.48427 0
M  V30 3724 H 344.378 -2.88047 0.827582 0
M  V30 3725 H 341.939 -1.50957 0.585112 0
M  V30 3726 H 343.931 -3.73657 -1.55443 0
M  V30 3727 H 342.501 -2.676 -1.61583 0
M  V30 3728 H 341.721 -3.9041 0.545286 0
M  V30 3729 H 343.009 -5.08244 0.237891 0
M  V30 3730 H 342.407 -4.83679 -2.93379 0
M  V30 3731 H 340.964 -5.76258 -3.04582 0
M  V30 3732 N 344.397 -0.483516 -1.5 0
M  V30 3733 C 345.307 0.309172 -2.32554 0
M  V30 3734 C 346.323 0.984159 -1.43493 0
M  V30 3735 O 347.499 0.969399 -1.76535 0
M  V30 3736 C 344.564 1.36979 -3.18493 0
M  V30 3737 C 343.625 0.710095 -4.23387 0
M  V30 3738 C 342.858 1.72018 -5.05218 0
M  V30 3739 O 343.081 2.94813 -4.88305 0
M  V30 3740 O 342.015 1.28515 -5.8802 0
M  V30 3741 H 345.841 -0.366064 -3.01486 0
M  V30 3742 H 343.426 -0.24514 -1.47375 0
M  V30 3743 H 345.308 1.98385 -3.71781 0
M  V30 3744 H 343.983 2.02828 -2.52275 0
M  V30 3745 H 342.89 0.0567539 -3.74057 0
M  V30 3746 H 344.223 0.0943557 -4.9211 0
M  V30 3747 N 345.875 1.56104 -0.216619 0
M  V30 3748 C 347.152 1.89988 0.465165 0
M  V30 3749 C 347.532 1.13326 1.78102 0
M  V30 3750 O 346.88 0.241033 2.27225 0
M  V30 3751 C 347.09 3.42646 0.662939 0
M  V30 3752 C 348.438 4.13311 0.972602 0
M  V30 3753 O 349.462 3.48217 0.749901 0
M  V30 3754 O 348.321 5.28396 1.39499 0
M  V30 3755 H 345.415 0.78979 0.245276 0
M  V30 3756 H 347.961 1.67721 -0.258436 0
M  V30 3757 H 346.733 3.90399 -0.26543 0
M  V30 3758 H 346.356 3.70677 1.43821 0
M  V30 3759 N 347.353 -0.0568162 1.57498 0
M  V30 3760 C 348.283 -1.06593 2.0775 0
M  V30 3761 C 349.264 -1.39448 0.974082 0
M  V30 3762 O 350.449 -1.48815 1.24771 0
M  V30 3763 C 347.579 -2.37509 2.5339 0
M  V30 3764 C 346.533 -2.1897 3.67745 0
M  V30 3765 C 345.859 -3.55402 3.99492 0
M  V30 3766 C 347.159 -1.59859 4.97235 0
M  V30 3767 H 348.853 -0.647706 2.9231 0
M  V30 3768 H 346.399 -0.310116 1.40621 0
M  V30 3769 H 348.352 -3.08409 2.87162 0
M  V30 3770 H 347.076 -2.8134 1.65878 0
M  V30 3771 H 345.735 -1.50508 3.3428 0
M  V30 3772 H 345.383 -3.9683 3.09088 0
M  V30 3773 H 345.083 -3.43831 4.76502 0
M  V30 3774 H 346.607 -4.27708 4.35773 0
M  V30 3775 H 348.021 -2.20642 5.29141 0
M  V30 3776 H 346.418 -1.58942 5.78669 0
M  V30 3777 H 347.488 -0.561506 4.81638 0
M  V30 3778 N 348.832 -1.54138 -0.328536 0
M  V30 3779 C 349.742 -1.86192 -1.42723 0
M  V30 3780 C 350.758 -0.753382 -1.56844 0
M  V30 3781 O 351.934 -1.04718 -1.72035 0
M  V30 3782 C 348.999 -2.07824 -2.77507 0
M  V30 3783 C 348.06 -3.31641 -2.72603 0
M  V30 3784 C 347.293 -3.52232 -4.00959 0
M  V30 3785 O 347.516 -2.7636 -4.9898 0
M  V30 3786 O 346.45 -4.45699 -4.0452 0
M  V30 3787 H 350.276 -2.79608 -1.18547 0
M  V30 3788 H 347.861 -1.3998 -0.522104 0
M  V30 3789 H 349.743 -2.23411 -3.57303 0
M  V30 3790 H 348.418 -1.17596 -3.01584 0
M  V30 3791 H 347.325 -3.21444 -1.91376 0
M  V30 3792 H 348.658 -4.2191 -2.53481 0
M  V30 3793 N 350.31 0.590341 -1.46126 0
M  V30 3794 C 351.258 1.72105 -1.5647 0
M  V30 3795 C 352.252 1.63756 -0.433612 0
M  V30 3796 O 353.458 1.69342 -0.610194 0
M  V30 3797 H 349.833 0.568889 -0.491802 0
M  V30 3798 H 351.804 1.6051 -2.51553 0
M  V30 3799 C 350.553 3.10493 -1.56491 0
M  V30 3800 H 349.876 3.17583 -2.4286 0
M  V30 3801 H 351.316 3.8939 -1.67785 0
M  V30 3802 C 349.775 3.3563 -0.292231 0
M  V30 3803 O 350.305 3.96875 0.620739 0
M  V30 3804 N 348.511 2.90026 -0.182523 0
M  V30 3805 H 348.058 2.40367 -0.926356 0
M  V30 3806 H 348.016 3.07218 0.668152 0
M  V30 3807 N 351.788 1.33704 0.83433 0
M  V30 3808 C 352.721 1.18675 1.94914 0
M  V30 3809 C 353.699 0.0811145 1.62398 0
M  V30 3810 O 354.883 0.244186 1.86912 0
M  V30 3811 C 352.01 0.821231 3.28593 0
M  V30 3812 C 351.056 1.93501 3.80079 0
M  V30 3813 S 351.889 3.54671 4.01209 0
M  V30 3814 C 353.045 3.20136 5.37833 0
M  V30 3815 H 353.278 2.13043 2.07364 0
M  V30 3816 H 350.811 1.18598 0.988624 0
M  V30 3817 H 352.769 0.617123 4.05835 0
M  V30 3818 H 351.43 -0.103927 3.13928 0
M  V30 3819 H 350.623 1.63273 4.76821 0
M  V30 3820 H 350.225 2.09601 3.09747 0
M  V30 3821 H 352.517 2.71242 6.20833 0
M  V30 3822 H 353.46 4.15975 5.73036 0
M  V30 3823 H 353.868 2.56613 5.02802 0
M  V30 3824 N 353.266 -1.05314 1.17247 0
M  V30 3825 C 354.496 -1.81707 0.983166 0
M  V30 3826 C 354.904 -1.83222 -0.471822 0
M  V30 3827 O 354.247 -1.25721 -1.3394 0
M  V30 3828 C 354.309 -3.29134 1.44606 0
M  V30 3829 C 353.973 -3.51304 2.92292 0
M  V30 3830 C 354.97 -3.4353 3.90235 0
M  V30 3831 C 352.655 -3.78306 3.30439 0
M  V30 3832 C 354.649 -3.62442 5.24323 0
M  V30 3833 C 352.336 -3.96866 4.64694 0
M  V30 3834 C 353.334 -3.88933 5.61445 0
M  V30 3835 O 353.022 -4.06976 6.93272 0
M  V30 3836 H 352.754 -0.579476 0.348114 0
M  V30 3837 H 355.308 -1.33705 1.55924 0
M  V30 3838 H 353.538 -3.78046 0.813537 0
M  V30 3839 H 355.227 -3.87049 1.22262 0
M  V30 3840 H 355.993 -3.22648 3.62109 0
M  V30 3841 H 351.872 -3.83585 2.55702 0
M  V30 3842 H 355.416 -3.56165 5.99827 0
M  V30 3843 H 351.313 -4.1724 4.92525 0
M  V30 3844 H 352.081 -4.24209 6.99992 0
M  V30 3845 N 354.744 -0.972509 -1.24016 0
M  V30 3846 C 355.674 -0.525548 -2.27509 0
M  V30 3847 C 356.655 0.437262 -1.64384 0
M  V30 3848 O 357.84 0.332343 -1.91335 0
M  V30 3849 C 354.97 0.180448 -3.46831 0
M  V30 3850 C 353.924 -0.698859 -4.22256 0
M  V30 3851 C 353.25 0.138903 -5.3452 0
M  V30 3852 C 354.55 -1.98582 -4.83076 0
M  V30 3853 H 356.244 -1.39058 -2.65148 0
M  V30 3854 H 353.79 -0.67009 -1.27459 0
M  V30 3855 H 355.743 0.504387 -4.18371 0
M  V30 3856 H 354.467 1.07987 -3.08231 0
M  V30 3857 H 353.126 -1.00614 -3.52523 0
M  V30 3858 H 352.774 1.03862 -4.9216 0
M  V30 3859 H 352.474 -0.446259 -5.85903 0
M  V30 3860 H 353.998 0.457404 -6.08884 0
M  V30 3861 H 355.412 -1.72715 -5.46665 0
M  V30 3862 H 353.809 -2.5181 -5.44713 0
M  V30 3863 H 354.879 -2.67769 -4.04262 0
M  V30 3864 N 356.222 1.38976 -0.743202 0
M  V30 3865 C 357.499 1.94351 -0.220705 0
M  V30 3866 C 357.879 1.67935 1.2791 0
M  V30 3867 O 357.227 1.01211 2.04862 0
M  V30 3868 C 357.437 3.44426 -0.563171 0
M  V30 3869 C 358.785 4.2144 -0.517046 0
M  V30 3870 O 359.809 3.52661 -0.500846 0
M  V30 3871 O 358.668 5.44032 -0.518806 0
M  V30 3872 H 355.762 0.825879 -0.043047 0
M  V30 3873 H 358.308 1.48429 -0.822618 0
M  V30 3874 H 357.08 3.5712 -1.59941 0
M  V30 3875 H 356.703 3.97543 0.0672883 0
M  V30 3876 N 357.7 0.491464 1.49741 0
M  V30 3877 C 358.928 -0.0535151 2.06831 0
M  V30 3878 C 359.343 -1.31683 1.35296 0
M  V30 3879 O 358.7 -1.77402 0.42836 0
M  V30 3880 C 358.751 -0.320835 3.60073 0
M  V30 3881 O 358.472 0.892394 4.28915 0
M  V30 3882 C 359.973 -0.910519 4.33848 0
M  V30 3883 H 357.193 0.0161909 0.670805 0
M  V30 3884 H 359.737 0.68609 1.92647 0
M  V30 3885 H 357.892 -1.0104 3.73991 0
M  V30 3886 H 358.306 0.649401 5.20464 0
M  V30 3887 H 359.78 -1.04721 5.41976 0
M  V30 3888 H 360.257 -1.90589 3.95692 0
M  V30 3889 H 360.863 -0.258712 4.24512 0
M  V30 3890 N 359.178 -1.55987 0.224894 0
M  V30 3891 C 360.589 -1.84553 -0.282345 0
M  V30 3892 C 360.94 -1.14634 -1.59227 0
M  V30 3893 O 360.065 -0.417155 -2.12341 0
M  V30 3894 C 360.66 -3.348 -0.519062 0
M  V30 3895 C 359.219 -3.63671 -0.970604 0
M  V30 3896 C 358.366 -2.77277 -0.0355261 0
M  V30 3897 H 361.317 -1.52245 0.448006 0
M  V30 3898 H 361.338 -3.55187 -1.36463 0
M  V30 3899 H 360.85 -3.8566 0.43449 0
M  V30 3900 H 358.951 -3.1827 -1.9374 0
M  V30 3901 H 359.064 -4.71631 -0.842698 0
M  V30 3902 H 357.428 -2.48846 -0.542927 0
M  V30 3903 H 358.211 -3.30937 0.913003 0
M  V30 3904 N 360.656 0.0484629 -1.57525 0
M  V30 3905 C 362.072 0.40375 -1.54409 0
M  V30 3906 C 362.272 1.77786 -0.948384 0
M  V30 3907 O 361.328 2.46189 -0.560983 0
M  V30 3908 C 362.641 0.323394 -2.98956 0
M  V30 3909 C 364.189 0.401892 -3.10409 0
M  V30 3910 C 364.664 0.351195 -4.56652 0
M  V30 3911 N 366.155 0.410576 -4.61377 0
M  V30 3912 C 366.89 0.393933 -5.72045 0
M  V30 3913 N 366.386 0.330724 -6.9201 0
M  V30 3914 N 368.179 0.442227 -5.60358 0
M  V30 3915 H 360.33 -0.851016 -1.94606 0
M  V30 3916 H 362.593 -0.321721 -0.89174 0
M  V30 3917 H 362.299 -0.62011 -3.4619 0
M  V30 3918 H 362.173 1.12463 -3.60044 0
M  V30 3919 H 364.56 1.33582 -2.63134 0
M  V30 3920 H 364.641 -0.428342 -2.52188 0
M  V30 3921 H 364.285 -0.578987 -5.04589 0
M  V30 3922 H 364.215 1.19928 -5.12762 0
M  V30 3923 H 366.706 0.462729 -3.75056 0
M  V30 3924 H 367.019 0.322592 -7.72126 0
M  V30 3925 H 365.364 0.29706 -6.94365 0
M  V30 3926 H 368.555 0.489464 -4.65534 0
M  V30 3927 H 368.728 0.425788 -6.466 0
M  V30 3928 N 362.134 1.5431 0.320358 0
M  V30 3929 C 363.364 1.7638 1.07582 0
M  V30 3930 C 363.772 0.513944 1.82086 0
M  V30 3931 O 363.115 -0.525123 1.76035 0
M  V30 3932 C 363.177 2.9055 2.1171 0
M  V30 3933 C 362.841 4.2934 1.56575 0
M  V30 3934 C 363.838 5.10077 1.00586 0
M  V30 3935 C 361.523 4.75893 1.60722 0
M  V30 3936 C 363.517 6.35477 0.494756 0
M  V30 3937 C 361.204 6.0126 1.09224 0
M  V30 3938 C 362.202 6.80886 0.53696 0
M  V30 3939 O 361.89 8.03894 0.0297371 0
M  V30 3940 H 361.622 0.592369 0.325692 0
M  V30 3941 H 364.176 2.02019 0.37116 0
M  V30 3942 H 362.406 2.60489 2.85801 0
M  V30 3943 H 364.095 3.00373 2.73003 0
M  V30 3944 H 364.861 4.75265 0.966869 0
M  V30 3945 H 360.74 4.13957 2.02882 0
M  V30 3946 H 364.284 6.97574 0.0606842 0
M  V30 3947 H 360.181 6.35562 1.12831 0
M  V30 3948 H 360.949 8.18372 0.14486 0
M  V30 3949 N 363.613 -0.582584 1.46437 0
M  V30 3950 C 365.029 -0.905962 1.31394 0
M  V30 3951 C 365.229 -1.99468 0.285476 0
M  V30 3952 O 364.285 -2.50566 -0.311914 0
M  V30 3953 C 365.598 -1.3232 2.70022 0
M  V30 3954 C 367.146 -1.43604 2.78113 0
M  V30 3955 C 367.621 -1.88694 4.17323 0
M  V30 3956 N 369.112 -1.95887 4.19741 0
M  V30 3957 C 369.847 -2.32051 5.24347 0
M  V30 3958 N 369.343 -2.67006 6.39281 0
M  V30 3959 N 371.136 -2.32606 5.11713 0
M  V30 3960 H 363.287 0.1366 2.1196 0
M  V30 3961 H 365.55 -0.00155736 0.947999 0
M  V30 3962 H 365.256 -0.597242 3.46592 0
M  V30 3963 H 365.13 -2.28469 3.00136 0
M  V30 3964 H 367.517 -2.15286 2.01832 0
M  V30 3965 H 367.598 -0.457059 2.51684 0
M  V30 3966 H 367.242 -1.1759 4.941 0
M  V30 3967 H 367.172 -2.8755 4.4116 0
M  V30 3968 H 369.663 -1.71362 3.36814 0
M  V30 3969 H 369.976 -2.93554 7.14875 0
M  V30 3970 H 368.321 -2.64644 6.42642 0
M  V30 3971 H 371.512 -2.04721 4.2096 0
M  V30 3972 H 371.685 -2.60462 5.93349 0
M  V30 3973 N 365.091 -1.34144 -0.827227 0
M  V30 3974 C 366.339 -1.26009 -1.58007 0
M  V30 3975 C 366.66 0.170971 -1.94249 0
M  V30 3976 O 365.93 1.10256 -1.61927 0
M  V30 3977 H 364.51 -0.463414 -0.585881 0
M  V30 3978 H 367.172 -1.68005 -0.987951 0
M  V30 3979 H 366.268 -1.86187 -2.50481 0
M  V30 3980 N 366.569 1.04691 -1.17803 0
M  V30 3981 C 367.985 1.29963 -0.926379 0
M  V30 3982 C 368.185 1.97251 0.411635 0
M  V30 3983 O 367.241 2.24922 1.14744 0
M  V30 3984 C 368.554 2.16447 -2.08737 0
M  V30 3985 C 370.102 2.29814 -2.12496 0
M  V30 3986 C 370.577 3.19661 -3.27995 0
M  V30 3987 N 372.068 3.27247 -3.27816 0
M  V30 3988 C 372.803 3.96906 -4.13827 0
M  V30 3989 N 372.299 4.6895 -5.09959 0
M  V30 3990 N 374.092 3.93122 -4.01761 0
M  V30 3991 H 366.243 0.594182 -2.0392 0
M  V30 3992 H 368.506 0.324649 -0.890678 0
M  V30 3993 H 368.212 1.74304 -3.05469 0
M  V30 3994 H 368.086 3.17103 -2.04268 0
M  V30 3995 H 370.473 2.71196 -1.16347 0
M  V30 3996 H 370.554 1.2877 -2.21025 0
M  V30 3997 H 370.198 2.78991 -4.24413 0
M  V30 3998 H 370.128 4.20722 -3.16703 0
M  V30 3999 H 372.619 2.75921 -2.58217 0
M  V30 4000 H 372.932 5.19679 -5.71974 0
M  V30 4001 H 371.277 4.67875 -5.13924 0
M  V30 4002 H 374.468 3.35967 -3.2595 0
M  V30 4003 H 374.641 4.47139 -4.6901 0
M  V30 4004 N 368.047 0.979072 1.23499 0
M  V30 4005 C 369.272 0.664845 1.96455 0
M  V30 4006 C 369.697 -0.761287 1.72006 0
M  V30 4007 O 369.055 -1.51837 0.990713 0
M  V30 4008 C 369.103 0.959479 3.47601 0
M  V30 4009 O 368.207 0.0508168 4.12369 0
M  V30 4010 H 367.548 0.250185 0.615064 0
M  V30 4011 H 370.078 1.31231 1.5697 0
M  V30 4012 H 370.088 0.895642 3.98048 0
M  V30 4013 H 368.763 1.99876 3.64723 0
M  V30 4014 H 367.34 0.16895 3.72517 0
M  V30 4015 N 369.525 -1.3858 0.750561 0
M  V30 4016 C 370.755 -2.04175 0.31564 0
M  V30 4017 C 371.163 -1.56726 -1.05989 0
M  V30 4018 O 370.506 -0.734225 -1.68389 0
M  V30 4019 C 370.568 -3.58585 0.256389 0
M  V30 4020 C 370.232 -4.29077 1.57296 0
M  V30 4021 C 371.229 -4.54656 2.52159 0
M  V30 4022 C 368.914 -4.67324 1.84156 0
M  V30 4023 C 370.908 -5.17512 3.72103 0
M  V30 4024 C 368.595 -5.29905 3.04374 0
M  V30 4025 C 369.593 -5.54933 3.98168 0
M  V30 4026 O 369.281 -6.16212 5.16273 0
M  V30 4027 H 369.013 -0.662742 0.133226 0
M  V30 4028 H 371.567 -1.78313 1.01948 0
M  V30 4029 H 369.797 -3.83406 -0.503677 0
M  V30 4030 H 371.486 -4.05628 -0.148612 0
M  V30 4031 H 372.252 -4.25539 2.32683 0
M  V30 4032 H 368.131 -4.47191 1.11988 0
M  V30 4033 H 371.675 -5.36963 4.45327 0
M  V30 4034 H 367.572 -5.58444 3.23745 0
M  V30 4035 H 368.34 -6.34701 5.16815 0
M  V30 4036 N 371.003 -0.499398 -1.49478 0
M  V30 4037 C 371.953 0.299103 -2.2603 0
M  V30 4038 C 372.937 0.936934 -1.30807 0
M  V30 4039 O 374.129 0.844798 -1.55538 0
M  V30 4040 C 371.258 1.36391 -3.15044 0
M  V30 4041 C 370.344 0.732398 -4.17728 0
M  V30 4042 N 370.735 -0.164028 -5.05534 0
M  V30 4043 C 369.033 0.993162 -4.34801 0
M  V30 4044 C 369.734 -0.525345 -5.79323 0
M  V30 4045 N 368.71 0.106348 -5.43496 0
M  V30 4046 H 372.512 -0.391003 -2.91287 0
M  V30 4047 H 370.026 -0.31537 -1.59308 0
M  V30 4048 H 372.023 1.94939 -3.68516 0
M  V30 4049 H 370.683 2.05571 -2.51338 0
M  V30 4050 H 371.694 -0.534736 -5.15132 0
M  V30 4051 H 368.371 1.67783 -3.82302 0
M  V30 4052 H 369.761 -1.25862 -6.60006 0
M  V30 4053 N 372.481 1.55866 -0.233164 0
M  V30 4054 C 373.758 1.90471 0.444988 0
M  V30 4055 C 374.138 1.15209 1.7689 0
M  V30 4056 O 373.486 0.265119 2.26957 0
M  V30 4057 C 373.696 3.4333 0.626559 0
M  V30 4058 C 375.044 4.14319 0.92871 0
M  V30 4059 O 376.068 3.48993 0.712926 0
M  V30 4060 O 374.927 5.29846 1.33887 0
M  V30 4061 H 372.021 0.792347 0.236885 0
M  V30 4062 H 374.567 1.67437 -0.276211 0
M  V30 4063 H 373.339 3.90095 -0.306822 0
M  V30 4064 H 372.962 3.72181 1.39881 0
M  V30 4065 N 373.959 -0.0401083 1.57549 0
M  V30 4066 C 375.375 -0.395556 1.54621 0
M  V30 4067 C 375.575 -1.77281 0.957799 0
M  V30 4068 O 374.631 -2.45888 0.574031 0
M  V30 4069 C 375.944 -0.307535 2.99123 0
M  V30 4070 C 377.492 -0.385425 3.10618 0
M  V30 4071 C 377.967 -0.326973 4.56831 0
M  V30 4072 N 379.458 -0.386102 4.61588 0
M  V30 4073 C 380.193 -0.363591 5.72246 0
M  V30 4074 N 379.689 -0.29402 6.92176 0
M  V30 4075 N 381.482 -0.412503 5.60584 0
M  V30 4076 H 373.633 0.861325 1.94152 0
M  V30 4077 H 375.896 0.326445 0.890021 0
M  V30 4078 H 375.602 0.638461 3.45856 0
M  V30 4079 H 375.476 -1.10552 3.60636 0
M  V30 4080 H 377.863 -1.32185 2.63839 0
M  V30 4081 H 377.944 0.44171 2.51957 0
M  V30 4082 H 377.588 0.605738 5.04275 0
M  V30 4083 H 377.518 -1.17207 5.13391 0
M  V30 4084 H 380.009 -0.442832 3.75296 0
M  V30 4085 H 380.322 -0.28164 7.72287 0
M  V30 4086 H 378.667 -0.260232 6.94513 0
M  V30 4087 H 381.858 -0.464769 4.65787 0
M  V30 4088 H 382.031 -0.391492 6.46816 0
M  V30 4089 N 375.437 -1.54477 -0.31217 0
M  V30 4090 C 376.384 -1.84655 -1.38461 0
M  V30 4091 C 377.354 -0.694536 -1.50882 0
M  V30 4092 O 378.539 -0.942081 -1.6592 0
M  V30 4093 C 375.679 -2.0896 -2.74645 0
M  V30 4094 C 374.792 -3.36618 -2.70763 0
M  V30 4095 C 373.927 -3.50824 -3.98868 0
M  V30 4096 C 372.966 -4.72315 -3.89339 0
M  V30 4097 N 372.103 -4.83387 -5.09197 0
M  V30 4098 H 376.943 -2.76142 -1.12026 0
M  V30 4099 H 374.48 -1.36748 -0.542065 0
M  V30 4100 H 376.438 -2.21045 -3.53829 0
M  V30 4101 H 375.068 -1.20752 -2.99364 0
M  V30 4102 H 374.12 -3.33211 -1.83506 0
M  V30 4103 H 375.432 -4.25917 -2.59608 0
M  V30 4104 H 374.586 -3.62513 -4.86486 0
M  V30 4105 H 373.325 -2.59638 -4.12843 0
M  V30 4106 H 372.33 -4.6067 -3.00105 0
M  V30 4107 H 373.555 -5.64897 -3.76919 0
M  V30 4108 H 371.501 -3.9512 -5.23657 0
M  V30 4109 H 371.418 -5.66669 -5.00422 0
M  V30 4110 H 372.686 -4.9942 -5.98498 0
M  V30 4111 N 376.915 0.57481 -1.46744 0
M  V30 4112 C 378.14 1.36341 -1.56288 0
M  V30 4113 C 378.565 1.86954 -0.207347 0
M  V30 4114 O 377.923 1.62006 0.813871 0
M  V30 4115 C 377.971 2.52147 -2.57787 0
M  V30 4116 O 377.075 3.53834 -2.11838 0
M  V30 4117 H 376.416 0.405713 -0.525636 0
M  V30 4118 H 378.946 0.696453 -1.92382 0
M  V30 4119 H 378.956 2.98958 -2.77648 0
M  V30 4120 H 377.631 2.14663 -3.5622 0
M  V30 4121 H 376.208 3.1345 -2.01999 0
M  V30 4122 N 378.394 1.34581 0.820102 0
M  V30 4123 C 379.341 1.2639 1.93117 0
M  V30 4124 C 380.311 0.138554 1.65521 0
M  V30 4125 O 381.496 0.320004 1.88097 0
M  V30 4126 C 378.636 1.02812 3.29429 0
M  V30 4127 C 377.749 2.24146 3.693 0
M  V30 4128 C 376.884 1.93829 4.94574 0
M  V30 4129 C 375.923 3.1129 5.27034 0
M  V30 4130 N 375.06 2.80838 6.43486 0
M  V30 4131 H 379.9 2.21408 1.99455 0
M  V30 4132 H 377.437 1.10077 0.975784 0
M  V30 4133 H 379.395 0.871788 4.0799 0
M  V30 4134 H 378.025 0.114612 3.22596 0
M  V30 4135 H 377.077 2.50691 2.86109 0
M  V30 4136 H 378.389 3.11899 3.89257 0
M  V30 4137 H 377.543 1.74948 5.80929 0
M  V30 4138 H 376.282 1.03341 4.76626 0
M  V30 4139 H 375.287 3.30764 4.39175 0
M  V30 4140 H 376.512 4.02561 5.4692 0
M  V30 4141 H 374.458 1.92929 6.26988 0
M  V30 4142 H 374.375 3.62123 6.63629 0
M  V30 4143 H 375.643 2.65467 7.32903 0
M  V30 4144 N 379.872 -1.04064 1.18357 0
M  V30 4145 C 381.118 -1.77528 0.980397 0
M  V30 4146 C 381.451 -1.87948 -0.48879 0
M  V30 4147 O 380.726 -1.3876 -1.36293 0
M  V30 4148 C 381.009 -3.20797 1.63588 0
M  V30 4149 C 380.862 -3.1832 3.17793 0
M  V30 4150 C 382.181 -4.18911 1.34914 0
M  V30 4151 H 379.3 -0.644443 0.357578 0
M  V30 4152 H 381.942 -1.2156 1.46024 0
M  V30 4153 H 380.092 -3.68586 1.22788 0
M  V30 4154 H 381.764 -2.78521 3.67728 0
M  V30 4155 H 380.007 -2.56351 3.49952 0
M  V30 4156 H 380.678 -4.19489 3.58794 0
M  V30 4157 H 383.154 -3.7967 1.70265 0
M  V30 4158 H 382.03 -5.17374 1.83346 0
M  V30 4159 H 382.291 -4.41262 0.272027 0
M  V30 4160 N 381.35 -0.985608 -1.22978 0
M  V30 4161 C 382.627 -0.573599 -1.87001 0
M  V30 4162 C 383.007 0.949213 -1.88555 0
M  V30 4163 O 382.355 1.82811 -1.37086 0
M  V30 4164 C 382.565 -1.18564 -3.28243 0
M  V30 4165 C 383.913 -1.28163 -4.04796 0
M  V30 4166 O 384.937 -1.13949 -3.37482 0
M  V30 4167 O 383.796 -1.50832 -5.25273 0
M  V30 4168 H 380.89 -0.193868 -0.803955 0
M  V30 4169 H 383.436 -1.08102 -1.30813 0
M  V30 4170 H 382.208 -2.22758 -3.21706 0
M  V30 4171 H 381.831 -0.663363 -3.92027 0
M  V30 4172 N 382.828 1.3818 -0.7579 0
M  V30 4173 C 383.758 2.33027 -0.148597 0
M  V30 4174 C 384.739 1.55085 0.69875 0
M  V30 4175 O 385.924 1.83384 0.639053 0
M  V30 4176 C 383.054 3.3928 0.742034 0
M  V30 4177 C 382.008 4.28 -0.00291946 0
M  V30 4178 C 381.334 5.25146 1.00625 0
M  V30 4179 C 382.634 5.08938 -1.17385 0
M  V30 4180 H 384.328 2.84231 -0.940909 0
M  V30 4181 H 381.874 1.36659 -0.453908 0
M  V30 4182 H 383.827 4.046 1.17799 0
M  V30 4183 H 382.551 2.86569 1.56671 0
M  V30 4184 H 381.21 3.64192 -0.419504 0
M  V30 4185 H 380.858 4.68721 1.8251 0
M  V30 4186 H 380.558 5.85361 0.512428 0
M  V30 4187 H 382.082 5.93342 1.44143 0
M  V30 4188 H 383.496 5.67474 -0.815224 0
M  V30 4189 H 381.893 5.7841 -1.59882 0
M  V30 4190 H 382.963 4.42424 -1.98468 0
M  V30 4191 N 384.306 0.507319 1.49211 0
M  V30 4192 C 385.583 -0.0982702 1.95353 0
M  V30 4193 C 385.963 -1.53516 1.449 0
M  V30 4194 O 385.311 -2.18594 0.66551 0
M  V30 4195 C 385.521 -0.00440283 3.49 0
M  V30 4196 C 386.869 -0.175147 4.24239 0
M  V30 4197 O 387.893 -0.0792891 3.56112 0
M  V30 4198 O 386.752 -0.37276 5.45227 0
M  V30 4199 H 383.846 -0.0918236 0.821887 0
M  V30 4200 H 386.392 0.570307 1.5983 0
M  V30 4201 H 385.164 0.997402 3.78375 0
M  V30 4202 H 384.787 -0.712845 3.91158 0
M  V30 4203 N 385.784 -1.5574 0.241426 0
M  V30 4204 C 387.2 -1.59196 -0.113548 0
M  V30 4205 C 387.4 -1.25852 -1.57364 0
M  V30 4206 O 386.456 -1.00322 -2.31715 0
M  V30 4207 C 387.769 -2.99814 0.230695 0
M  V30 4208 C 389.317 -3.12513 0.174547 0
M  V30 4209 C 389.792 -4.55342 0.492744 0
M  V30 4210 N 391.283 -4.61076 0.443043 0
M  V30 4211 C 392.018 -5.6956 0.662484 0
M  V30 4212 N 391.514 -6.86328 0.944761 0
M  V30 4213 N 393.307 -5.58957 0.593564 0
M  V30 4214 H 385.458 -1.75685 1.19368 0
M  V30 4215 H 387.721 -0.81756 0.479896 0
M  V30 4216 H 387.427 -3.28932 1.24485 0
M  V30 4217 H 387.301 -3.74568 -0.444833 0
M  V30 4218 H 389.688 -2.83179 -0.830277 0
M  V30 4219 H 389.769 -2.40045 0.883845 0
M  V30 4220 H 389.413 -4.85396 1.4951 0
M  V30 4221 H 389.343 -5.26062 -0.23797 0
M  V30 4222 H 391.834 -3.77179 0.233374 0
M  V30 4223 H 392.147 -7.64935 1.09977 0
M  V30 4224 H 390.492 -6.88025 0.982175 0
M  V30 4225 H 393.683 -4.66611 0.373123 0
M  V30 4226 H 393.856 -6.43433 0.767981 0
M  V30 4227 N 387.262 0.0317525 -1.57568 0
M  V30 4228 C 388.192 1.03274 -2.0942 0
M  V30 4229 C 389.173 1.3788 -0.996143 0
M  V30 4230 O 390.358 1.46811 -1.27122 0
M  V30 4231 C 387.488 2.33448 -2.57137 0
M  V30 4232 C 386.442 2.13091 -3.71182 0
M  V30 4233 C 385.768 3.49001 -4.05095 0
M  V30 4234 C 387.068 1.51928 -4.99715 0
M  V30 4235 H 388.762 0.60112 -2.93303 0
M  V30 4236 H 386.308 0.287705 -1.41097 0
M  V30 4237 H 388.261 3.03802 -2.92032 0
M  V30 4238 H 386.985 2.78665 -1.70333 0
M  V30 4239 H 385.644 1.45171 -3.36632 0
M  V30 4240 H 385.292 3.91862 -3.15362 0
M  V30 4241 H 384.992 3.36207 -4.81911 0
M  V30 4242 H 386.516 4.20721 -4.42522 0
M  V30 4243 H 387.93 2.12196 -5.32584 0
M  V30 4244 H 386.327 1.49716 -5.81124 0
M  V30 4245 H 387.397 0.484811 -4.8247 0
M  V30 4246 N 388.74 1.54641 0.303973 0
M  V30 4247 C 389.688 1.86137 1.39484 0
M  V30 4248 C 390.682 0.734854 1.52631 0
M  V30 4249 O 391.888 0.918803 1.54784 0
M  V30 4250 H 388.263 0.590324 0.465856 0
M  V30 4251 H 390.234 2.77324 1.10154 0
M  V30 4252 C 388.983 2.12274 2.75382 0
M  V30 4253 H 388.306 2.98429 2.66046 0
M  V30 4254 H 389.746 2.38254 3.5073 0
M  V30 4255 C 388.205 0.920365 3.24085 0
M  V30 4256 O 388.735 0.139377 4.01458 0
M  V30 4257 N 386.941 0.726566 2.81371 0
M  V30 4258 H 386.488 1.36332 2.18567 0
M  V30 4259 H 386.446 -0.0763799 3.14307 0
M  V30 4260 N 390.218 -0.567019 1.47046 0
M  V30 4261 C 391.495 -1.3276 1.43646 0
M  V30 4262 C 391.875 -2.1071 0.128186 0
M  V30 4263 O 391.223 -2.10441 -0.890326 0
M  V30 4264 C 391.433 -2.2404 2.67595 0
M  V30 4265 C 392.781 -2.85372 3.14401 0
M  V30 4266 O 393.805 -2.34346 2.68254 0
M  V30 4267 O 392.664 -3.78091 3.946 0
M  V30 4268 H 389.758 -0.597293 0.571988 0
M  V30 4269 H 392.304 -0.586735 1.59234 0
M  V30 4270 H 391.076 -1.65975 3.54356 0
M  V30 4271 H 390.699 -3.05439 2.54544 0
M  V30 4272 N 391.696 -1.35014 -0.812953 0
M  V30 4273 C 392.973 -1.18502 -1.55617 0
M  V30 4274 C 393.353 0.238421 -2.09749 0
M  V30 4275 O 392.701 1.2411 -1.91857 0
M  V30 4276 C 392.911 -2.24783 -2.66971 0
M  V30 4277 C 394.259 -2.60268 -3.35478 0
M  V30 4278 O 395.283 -2.23648 -2.77236 0
M  V30 4279 O 394.142 -3.2321 -4.40678 0
M  V30 4280 H 391.236 -0.459984 -0.687272 0
M  V30 4281 H 393.782 -1.46677 -0.853464 0
M  V30 4282 H 392.554 -3.20284 -2.24798 0
M  V30 4283 H 392.177 -1.97841 -3.44884 0
M  V30 4284 N 393.175 1.03435 -1.18907 0
M  V30 4285 C 394.138 2.09756 -0.923844 0
M  V30 4286 C 395.138 1.60528 0.093416 0
M  V30 4287 O 396.328 1.73631 -0.140727 0
M  V30 4288 C 393.46 3.38692 -0.387354 0
M  V30 4289 H 394.653 2.34719 -1.86674 0
M  V30 4290 H 392.206 1.19959 -1.00197 0
M  V30 4291 H 392.941 3.19396 0.561845 0
M  V30 4292 H 392.726 3.75742 -1.12074 0
M  V30 4293 H 394.216 4.17016 -0.220694 0
M  V30 4294 N 394.653 0.992116 1.22453 0
M  V30 4295 C 395.6 0.541731 2.24352 0
M  V30 4296 C 396.57 -0.425519 1.60557 0
M  V30 4297 O 397.755 -0.330453 1.87917 0
M  V30 4298 C 394.895 -0.138248 3.44823 0
M  V30 4299 C 394.008 0.870649 4.23136 0
M  V30 4300 C 393.143 0.164269 5.30946 0
M  V30 4301 C 392.182 1.16159 6.00977 0
M  V30 4302 N 391.319 0.483568 7.00433 0
M  V30 4303 H 396.159 1.41541 2.62241 0
M  V30 4304 H 393.696 0.709013 1.28885 0
M  V30 4305 H 395.654 -0.5494 4.13567 0
M  V30 4306 H 394.284 -0.975721 3.077 0
M  V30 4307 H 393.336 1.40013 3.53696 0
M  V30 4308 H 394.648 1.63014 4.7141 0
M  V30 4309 H 393.802 -0.303653 6.0594 0
M  V30 4310 H 392.541 -0.627733 4.83643 0
M  V30 4311 H 391.546 1.64015 5.24766 0
M  V30 4312 H 392.771 1.95445 6.50368 0
M  V30 4313 H 390.717 -0.289012 6.55363 0
M  V30 4314 H 390.634 1.18152 7.4671 0
M  V30 4315 H 391.902 0.0384219 7.79491 0
M  V30 4316 N 396.131 -1.37776 0.765217 0
M  V30 4317 C 397.547 -1.53297 0.444108 0
M  V30 4318 C 397.747 -1.72515 -1.04119 0
M  V30 4319 O 396.803 -1.74278 -1.82711 0
M  V30 4320 C 398.116 -2.73328 1.25349 0
M  V30 4321 C 399.664 -2.87185 1.24473 0
M  V30 4322 C 400.139 -4.10191 2.03733 0
M  V30 4323 N 401.63 -4.17291 2.01053 0
M  V30 4324 C 402.365 -5.11488 2.59166 0
M  V30 4325 N 401.861 -6.11285 3.26041 0
M  V30 4326 N 403.654 -5.03924 2.49032 0
M  V30 4327 H 395.805 -1.23552 1.72768 0
M  V30 4328 H 398.068 -0.601103 0.733062 0
M  V30 4329 H 397.774 -2.6557 2.30577 0
M  V30 4330 H 397.648 -3.66834 0.87823 0
M  V30 4331 H 400.035 -2.94418 0.20047 0
M  V30 4332 H 400.116 -1.94657 1.65959 0
M  V30 4333 H 399.76 -4.0372 3.08176 0
M  V30 4334 H 399.69 -5.01821 1.59633 0
M  V30 4335 H 402.181 -3.45825 1.5236 0
M  V30 4336 H 402.494 -6.79678 3.67774 0
M  V30 4337 H 400.839 -6.11583 3.30138 0
M  V30 4338 H 404.03 -4.24902 1.96407 0
M  V30 4339 H 404.203 -5.77152 2.94617 0
M  V30 4340 N 397.609 -0.515225 -1.4894 0
M  V30 4341 C 398.839 0.0205735 -2.0659 0
M  V30 4342 C 399.247 1.30064 -1.37405 0
M  V30 4343 O 398.59 1.78087 -0.450632 0
M  V30 4344 C 398.652 0.330124 -3.57981 0
M  V30 4345 C 398.316 -0.854295 -4.48944 0
M  V30 4346 C 399.313 -1.7487 -4.89609 0
M  V30 4347 C 396.998 -1.05712 -4.9105 0
M  V30 4348 C 398.992 -2.82996 -5.71132 0
M  V30 4349 C 396.679 -2.14154 -5.72347 0
M  V30 4350 C 397.677 -3.0263 -6.12294 0
M  V30 4351 O 397.365 -4.09198 -6.91962 0
M  V30 4352 H 397.097 -0.0236833 -0.675585 0
M  V30 4353 H 399.651 -0.715956 -1.92518 0
M  V30 4354 H 397.881 1.12044 -3.70112 0
M  V30 4355 H 399.57 0.806233 -3.97812 0
M  V30 4356 H 400.336 -1.60388 -4.57712 0
M  V30 4357 H 396.215 -0.377788 -4.59449 0
M  V30 4358 H 399.759 -3.52083 -6.02232 0
M  V30 4359 H 395.656 -2.28626 -6.03656 0
M  V30 4360 H 396.424 -4.06726 -7.10293 0
M  V30 4361 N 399.087 1.5561 -0.249682 0
M  V30 4362 C 400.312 2.03865 0.381305 0
M  V30 4363 C 400.737 1.12769 1.50548 0
M  V30 4364 O 400.095 0.121189 1.80895 0
M  V30 4365 C 400.143 3.50101 0.863816 0
M  V30 4366 O 399.247 3.62132 1.97318 0
M  V30 4367 H 398.588 0.658827 0.0827194 0
M  V30 4368 H 401.118 2.01105 -0.376552 0
M  V30 4369 H 401.128 3.90975 1.1663 0
M  V30 4370 H 399.803 4.1588 0.0411816 0
M  V30 4371 H 398.38 3.33155 1.67517 0
M  V30 4372 N 400.565 -0.0233959 1.57583 0
M  V30 4373 C 401.805 -0.71784 1.9138 0
M  V30 4374 C 402.169 -1.72216 0.848853 0
M  V30 4375 O 403.37 -2.46527 1.07134 0
M  V30 4376 C 401.641 -1.36489 3.30311 0
M  V30 4377 S 403.2 -2.0877 3.85954 0
M  V30 4378 H 400.018 -0.237676 0.670098 0
M  V30 4379 H 402.62 0.0276709 1.9548 0
M  V30 4380 H 401.324 -0.620782 4.05678 0
M  V30 4381 H 400.855 -2.14883 3.29528 0
M  V30 4382 H 402.87 -3.35988 3.65139 0
M  V30 4383 N 402.043 -1.548 -0.295768 0
M  V30 4384 C 403.271 -1.78327 -1.04914 0
M  V30 4385 C 403.686 -0.545316 -1.80753 0
M  V30 4386 O 403.043 0.485013 -1.75937 0
M  V30 4387 C 403.094 -2.99418 -2.02561 0
M  V30 4388 O 402.815 -4.18431 -1.29798 0
M  V30 4389 C 404.316 -3.35375 -2.89895 0
M  V30 4390 H 401.536 -0.594618 -0.310918 0
M  V30 4391 H 404.08 -2.01763 -0.333454 0
M  V30 4392 H 402.235 -2.78175 -2.69624 0
M  V30 4393 H 402.649 -4.86736 -1.95419 0
M  V30 4394 H 404.123 -4.23332 -3.54251 0
M  V30 4395 H 404.6 -2.53761 -3.58472 0
M  V30 4396 H 405.206 -3.58796 -2.28355 0
M  V30 4397 N 403.521 0.559213 -1.47345 0
M  V30 4398 C 404.932 1.14134 -1.47751 0
M  V30 4399 C 405.283 1.94834 -0.231103 0
M  V30 4400 O 404.408 2.05957 0.664137 0
M  V30 4401 C 405.003 2.07653 -2.67705 0
M  V30 4402 C 403.562 2.61141 -2.71076 0
M  V30 4403 C 402.709 1.3748 -2.40821 0
M  V30 4404 H 405.66 0.345917 -1.54884 0
M  V30 4405 H 405.681 2.91497 -2.44561 0
M  V30 4406 H 405.193 1.4889 -3.58404 0
M  V30 4407 H 403.294 3.23707 -1.84511 0
M  V30 4408 H 403.407 3.02272 -3.7171 0
M  V30 4409 H 401.771 1.68086 -1.91362 0
M  V30 4410 H 402.554 0.805135 -3.33725 0
M  V30 4411 N 404.999 1.35443 0.805782 0
M  V30 4412 C 406.415 1.15499 1.10146 0
M  V30 4413 C 406.615 -0.0319975 2.01475 0
M  V30 4414 O 405.671 -0.70236 2.42535 0
M  V30 4415 C 406.984 2.45833 1.73166 0
M  V30 4416 C 408.532 2.52047 1.85583 0
M  V30 4417 C 409.007 3.82427 2.52019 0
M  V30 4418 N 410.498 3.83682 2.59504 0
M  V30 4419 C 411.233 4.81294 3.11679 0
M  V30 4420 N 410.729 5.89294 3.64287 0
M  V30 4421 N 412.522 4.6873 3.1024 0
M  V30 4422 H 404.673 2.11469 0.198678 0
M  V30 4423 H 406.936 0.93594 0.150731 0
M  V30 4424 H 406.642 3.32874 1.13526 0
M  V30 4425 H 406.516 2.6044 2.72857 0
M  V30 4426 H 408.903 1.65435 2.44367 0
M  V30 4427 H 408.984 2.41354 0.847455 0
M  V30 4428 H 408.628 4.69437 1.93885 0
M  V30 4429 H 408.558 3.90409 3.53395 0
M  V30 4430 H 411.049 3.05648 2.22234 0
M  V30 4431 H 411.362 6.59768 4.02401 0
M  V30 4432 H 409.707 5.92985 3.62483 0
M  V30 4433 H 412.898 3.83496 2.68419 0
M  V30 4434 H 413.071 5.44965 3.50596 0
M  V30 4435 N 406.477 -1.02803 1.19454 0
M  V30 4436 C 407.425 -2.13213 0.929673 0
M  V30 4437 C 408.419 -1.69011 -0.114806 0
M  V30 4438 O 409.625 -1.79967 0.0345147 0
M  V30 4439 H 406 -0.69662 0.28324 0
M  V30 4440 H 407.971 -2.32744 1.86743 0
M  V30 4441 C 406.72 -3.4429 0.485797 0
M  V30 4442 H 406.043 -3.7872 1.28105 0
M  V30 4443 H 407.483 -4.22638 0.339582 0
M  V30 4444 C 405.942 -3.27258 -0.800244 0
M  V30 4445 O 406.472 -3.55967 -1.86146 0
M  V30 4446 N 404.678 -2.80545 -0.75781 0
M  V30 4447 H 404.225 -2.57382 0.106039 0
M  V30 4448 H 404.183 -2.6953 -1.61867 0
M  V30 4449 N 407.956 -0.998596 -1.21925 0
M  V30 4450 C 409.186 -0.695276 -1.94549 0
M  V30 4451 C 409.594 0.745079 -1.73911 0
M  V30 4452 O 408.937 1.51507 -1.03881 0
M  V30 4453 C 408.999 -0.928485 -3.47303 0
M  V30 4454 C 408.663 -2.35443 -3.91683 0
M  V30 4455 C 409.66 -3.33428 -3.98901 0
M  V30 4456 C 407.345 -2.69038 -4.24174 0
M  V30 4457 C 409.339 -4.63079 -4.37992 0
M  V30 4458 C 407.026 -3.98906 -4.62944 0
M  V30 4459 C 408.024 -4.95738 -4.69822 0
M  V30 4460 O 407.712 -6.23285 -5.07711 0
M  V30 4461 H 407.444 -0.255902 -0.625692 0
M  V30 4462 H 409.998 -1.33767 -1.5587 0
M  V30 4463 H 408.228 -0.228917 -3.86022 0
M  V30 4464 H 409.917 -0.619539 -4.01144 0
M  V30 4465 H 410.683 -3.08807 -3.73983 0
M  V30 4466 H 406.562 -1.94367 -4.18022 0
M  V30 4467 H 410.106 -5.38658 -4.43275 0
M  V30 4468 H 406.003 -4.23314 -4.87314 0
M  V30 4469 H 406.771 -6.27306 -5.25766 0
M  V30 4470 N 409.434 1.37368 -0.772513 0
M  V30 4471 C 410.659 2.0447 -0.347386 0
M  V30 4472 C 411.084 1.57882 1.0225 0
M  V30 4473 O 410.442 0.73941 1.65537 0
M  V30 4474 C 410.49 3.58369 -0.400479 0
M  V30 4475 O 409.594 4.0803 0.598789 0
M  V30 4476 H 408.935 0.646773 -0.15027 0
M  V30 4477 H 411.465 1.75667 -1.04892 0
M  V30 4478 H 411.475 4.07183 -0.258045 0
M  V30 4479 H 410.15 3.91633 -1.39986 0
M  V30 4480 H 408.727 3.70534 0.419411 0
M  V30 4481 N 410.912 0.523116 1.48665 0
M  V30 4482 C 412.158 -0.0134963 2.02796 0
M  V30 4483 C 412.491 -1.34582 1.40004 0
M  V30 4484 O 411.766 -1.86756 0.543381 0
M  V30 4485 C 412.049 -0.14276 3.59817 0
M  V30 4486 C 411.902 1.21425 4.331 0
M  V30 4487 C 413.221 -0.872856 4.31357 0
M  V30 4488 H 410.34 -0.00343074 0.736992 0
M  V30 4489 H 412.982 0.678816 1.7746 0
M  V30 4490 H 411.132 -0.732401 3.81534 0
M  V30 4491 H 412.804 1.84447 4.2282 0
M  V30 4492 H 411.047 1.79791 3.94788 0
M  V30 4493 H 411.718 1.07687 5.41394 0
M  V30 4494 H 414.194 -0.372555 4.14429 0
M  V30 4495 H 413.07 -0.932185 5.40927 0
M  V30 4496 H 413.331 -1.92161 3.98154 0
M  V30 4497 N 412.39 -1.55475 0.257931 0
M  V30 4498 C 413.338 -2.23244 -0.653076 0
M  V30 4499 C 414.332 -1.22366 -1.17144 0
M  V30 4500 O 415.538 -1.40347 -1.12706 0
M  V30 4501 H 411.913 -0.716247 -0.229117 0
M  V30 4502 H 413.884 -2.98343 -0.0584788 0
M  V30 4503 C 412.633 -2.95401 -1.83395 0
M  V30 4504 H 411.956 -3.72802 -1.44424 0
M  V30 4505 H 413.396 -3.46165 -2.44838 0
M  V30 4506 C 411.855 -1.99895 -2.71189 0
M  V30 4507 O 412.385 -1.53909 -3.71046 0
M  V30 4508 N 410.591 -1.6676 -2.3799 0
M  V30 4509 H 410.138 -2.04352 -1.56837 0
M  V30 4510 H 410.096 -1.03127 -2.97005 0
M  V30 4511 N 413.868 0.0150385 -1.57593 0
M  V30 4512 C 415.117 0.702115 -1.89085 0
M  V30 4513 C 415.43 1.75764 -0.858277 0
M  V30 4514 O 416.636 2.49829 -1.0629 0
M  V30 4515 C 415.092 1.29992 -3.35604 0
M  V30 4516 C 414.7 0.280007 -4.47124 0
M  V30 4517 C 416.444 1.96606 -3.76227 0
M  V30 4518 C 414.351 0.886949 -5.84711 0
M  V30 4519 H 413.281 0.265997 -0.705522 0
M  V30 4520 H 415.932 -0.0430408 -1.8345 0
M  V30 4521 H 414.314 2.09525 -3.36029 0
M  V30 4522 H 415.488 -0.489631 -4.58191 0
M  V30 4523 H 413.803 -0.284835 -4.15425 0
M  V30 4524 H 416.4 2.42893 -4.76347 0
M  V30 4525 H 416.743 2.79024 -3.08952 0
M  V30 4526 H 417.276 1.23828 -3.78036 0
M  V30 4527 H 414.015 0.101876 -6.55421 0
M  V30 4528 H 413.535 1.6261 -5.77337 0
M  V30 4529 H 415.214 1.39011 -6.3189 0
M  V30 4530 N 415.346 1.54954 0.287554 0
M  V30 4531 C 416.762 1.46469 0.633964 0
M  V30 4532 C 416.962 0.666865 1.90145 0
M  V30 4533 O 416.018 0.179906 2.51858 0
M  V30 4534 C 417.331 2.90556 0.774454 0
M  V30 4535 C 418.879 3.00681 0.869462 0
M  V30 4536 C 419.354 4.45993 1.04184 0
M  V30 4537 N 420.845 4.4976 1.10772 0
M  V30 4538 C 421.58 5.59393 1.25964 0
M  V30 4539 N 421.076 6.78923 1.37968 0
M  V30 4540 N 422.869 5.47107 1.28959 0
M  V30 4541 H 415.02 2.05288 -0.545041 0
M  V30 4542 H 417.283 0.930305 -0.182308 0
M  V30 4543 H 416.989 3.51594 -0.086207 0
M  V30 4544 H 416.863 3.38743 1.6593 0
M  V30 4545 H 419.25 2.39749 1.7206 0
M  V30 4546 H 419.331 2.55769 -0.0396831 0
M  V30 4547 H 418.975 5.07524 0.195422 0
M  V30 4548 H 418.905 4.88548 1.96542 0
M  V30 4549 H 421.396 3.63651 1.02794 0
M  V30 4550 H 421.709 7.58231 1.49353 0
M  V30 4551 H 420.054 6.81763 1.34999 0
M  V30 4552 H 423.245 4.52668 1.19202 0
M  V30 4553 H 423.418 6.32595 1.40455 0
M  V30 4554 N 416.824 -0.551391 1.4764 0
M  V30 4555 C 417.734 -1.68525 1.63207 0
M  V30 4556 C 418.75 -1.6621 0.514815 0
M  V30 4557 O 419.926 -1.85551 0.783113 0
M  V30 4558 C 416.991 -3.05025 1.64805 0
M  V30 4559 C 416.052 -3.18362 2.88 0
M  V30 4560 C 415.285 -4.4835 2.89513 0
M  V30 4561 O 415.508 -5.34163 2.00065 0
M  V30 4562 O 414.442 -4.65602 3.81443 0
M  V30 4563 H 418.268 -1.58333 2.59161 0
M  V30 4564 H 415.853 -0.722063 1.30792 0
M  V30 4565 H 417.735 -3.86245 1.68502 0
M  V30 4566 H 416.41 -3.15587 0.720197 0
M  V30 4567 H 415.317 -2.36518 2.89845 0
M  V30 4568 H 416.65 -3.12707 3.80099 0
M  V30 4569 N 418.302 -1.35869 -0.798587 0
M  V30 4570 C 419.212 -1.31578 -1.94228 0
M  V30 4571 C 420.228 -0.21939 -1.72611 0
M  V30 4572 O 421.404 -0.450167 -1.96305 0
M  V30 4573 C 418.469 -1.09528 -3.28944 0
M  V30 4574 C 417.53 -2.28556 -3.63402 0
M  V30 4575 C 416.763 -2.07549 -4.9169 0
M  V30 4576 O 416.986 -1.046 -5.60727 0
M  V30 4577 O 415.92 -2.95106 -5.24591 0
M  V30 4578 H 419.746 -2.27847 -2.00796 0
M  V30 4579 H 417.331 -1.16322 -0.937526 0
M  V30 4580 H 419.213 -0.991127 -4.09579 0
M  V30 4581 H 417.888 -0.16315 -3.23289 0
M  V30 4582 H 416.795 -2.44538 -2.83112 0
M  V30 4583 H 418.128 -3.20244 -3.73771 0
M  V30 4584 N 419.78 1.02168 -1.19998 0
M  V30 4585 C 420.71 2.12488 -0.96804 0
M  V30 4586 C 421.691 1.69799 0.101185 0
M  V30 4587 O 422.876 1.94121 -0.0552993 0
M  V30 4588 C 420.006 3.43479 -0.513776 0
M  V30 4589 C 418.96 3.99884 -1.52566 0
M  V30 4590 C 418.286 5.26582 -0.928214 0
M  V30 4591 C 419.586 4.33861 -2.90795 0
M  V30 4592 H 421.28 2.32149 -1.89069 0
M  V30 4593 H 418.826 1.11564 -0.910468 0
M  V30 4594 H 420.779 4.20036 -0.338774 0
M  V30 4595 H 419.503 3.23561 0.444493 0
M  V30 4596 H 418.162 3.25429 -1.68794 0
M  V30 4597 H 417.81 5.02986 0.0378289 0
M  V30 4598 H 417.51 5.65284 -1.60397 0
M  V30 4599 H 419.034 6.05799 -0.764167 0
M  V30 4600 H 420.448 5.01327 -2.78109 0
M  V30 4601 H 418.845 4.83664 -3.55231 0
M  V30 4602 H 419.915 3.42848 -3.42904 0
M  V30 4603 N 421.258 1.00505 1.21394 0
M  V30 4604 C 422.205 0.565496 2.23765 0
M  V30 4605 C 423.175 -0.408466 1.60999 0
M  V30 4606 O 424.36 -0.310503 1.88257 0
M  V30 4607 C 421.5 -0.101667 3.4495 0
M  V30 4608 C 420.613 0.915479 4.22188 0
M  V30 4609 C 419.748 0.220574 5.30742 0
M  V30 4610 C 418.787 1.22527 5.99711 0
M  V30 4611 N 417.924 0.557831 6.9988 0
M  V30 4612 H 422.764 1.44314 2.60725 0
M  V30 4613 H 420.301 0.722643 1.28126 0
M  V30 4614 H 422.259 -0.505504 4.14126 0
M  V30 4615 H 420.889 -0.94303 3.08718 0
M  V30 4616 H 419.941 1.43756 3.52191 0
M  V30 4617 H 421.253 1.68005 4.69655 0
M  V30 4618 H 420.407 -0.239368 6.06228 0
M  V30 4619 H 419.146 -0.576401 4.84282 0
M  V30 4620 H 418.151 1.69571 5.22997 0
M  V30 4621 H 419.376 2.02332 6.48258 0
M  V30 4622 H 417.322 -0.219486 6.55633 0
M  V30 4623 H 417.239 1.26065 7.45415 0
M  V30 4624 H 418.507 0.121095 7.79406 0
M  V30 4625 N 422.737 -1.36956 0.779787 0
M  V30 4626 C 423.667 -2.32761 0.185651 0
M  V30 4627 C 424.648 -1.56177 -0.673989 0
M  V30 4628 O 425.833 -1.84378 -0.609797 0
M  V30 4629 C 422.963 -3.40418 -0.687964 0
M  V30 4630 C 421.917 -4.27941 0.0710102 0
M  V30 4631 C 421.243 -5.26681 -0.922573 0
M  V30 4632 C 422.543 -5.07006 1.25467 0
M  V30 4633 H 424.237 -2.82698 0.986008 0
M  V30 4634 H 421.783 -1.3592 0.475592 0
M  V30 4635 H 423.736 -4.06423 -1.11348 0
M  V30 4636 H 422.46 -2.89025 -1.52093 0
M  V30 4637 H 421.119 -3.63478 0.47739 0
M  V30 4638 H 420.767 -4.71565 -1.7503 0
M  V30 4639 H 420.467 -5.86103 -0.419237 0
M  V30 4640 H 421.991 -5.9556 -1.34686 0
M  V30 4641 H 423.405 -5.66105 0.905401 0
M  V30 4642 H 421.802 -5.75793 1.69063 0
M  V30 4643 H 422.872 -4.3921 2.05481 0
M  V30 4644 N 424.215 -0.530993 -1.48385 0
M  V30 4645 C 425.178 0.220497 -2.28137 0
M  V30 4646 C 426.178 0.866851 -1.35434 0
M  V30 4647 O 427.368 0.726746 -1.58316 0
M  V30 4648 C 424.5 1.31921 -3.1434 0
M  V30 4649 H 425.693 -0.479714 -2.96038 0
M  V30 4650 H 423.246 -0.286968 -1.53643 0
M  V30 4651 H 423.981 2.05264 -2.51072 0
M  V30 4652 H 423.766 0.86085 -3.82533 0
M  V30 4653 H 425.256 1.84776 -3.74497 0
M  V30 4654 N 425.693 1.55336 -0.266172 0
M  V30 4655 C 426.641 2.23587 0.641228 0
M  V30 4656 C 427.635 1.22986 1.16494 0
M  V30 4657 O 428.841 1.40943 1.1196 0
M  V30 4658 H 425.216 0.717452 0.225315 0
M  V30 4659 H 427.187 2.9837 0.0426561 0
M  V30 4660 C 425.936 2.96369 1.81826 0
M  V30 4661 H 425.259 3.73563 1.42445 0
M  V30 4662 H 426.699 3.47459 2.42998 0
M  V30 4663 C 425.158 2.0133 2.70125 0
M  V30 4664 O 425.688 1.55875 3.70224 0
M  V30 4665 N 423.894 1.6802 2.37102 0
M  V30 4666 H 423.441 2.05181 1.55751 0
M  V30 4667 H 423.399 1.047 2.96454 0
M  V30 4668 N 427.171 -0.0066808 1.57599 0
M  V30 4669 C 428.417 -0.693947 1.90558 0
M  V30 4670 C 428.75 -1.73792 0.866594 0
M  V30 4671 O 428.025 -1.94156 -0.115548 0
M  V30 4672 C 428.308 -1.34317 3.34112 0
M  V30 4673 C 428.161 -0.311189 4.48722 0
M  V30 4674 C 429.48 -2.27116 3.7697 0
M  V30 4675 H 426.599 -0.250803 0.693013 0
M  V30 4676 H 429.241 0.043242 1.89951 0
M  V30 4677 H 427.391 -1.9715 3.3476 0
M  V30 4678 H 429.063 0.316944 4.6021 0
M  V30 4679 H 427.306 0.367253 4.32243 0
M  V30 4680 H 427.977 -0.804366 5.46108 0
M  V30 4681 H 430.453 -1.74306 3.77831 0
M  V30 4682 H 429.329 -2.69511 4.78179 0
M  V30 4683 H 429.59 -3.14743 3.10466 0
M  V30 4684 N 428.649 -1.55105 -0.279332 0
M  V30 4685 C 429.895 -1.75672 -1.01327 0
M  V30 4686 C 430.228 -0.552739 -1.86168 0
M  V30 4687 O 429.503 0.449827 -1.89227 0
M  V30 4688 C 429.786 -3.05825 -1.90114 0
M  V30 4689 C 429.639 -4.36565 -1.08309 0
M  V30 4690 C 430.958 -3.31975 -2.8893 0
M  V30 4691 H 428.077 -0.639149 -0.366957 0
M  V30 4692 H 430.719 -1.87833 -0.286154 0
M  V30 4693 H 428.869 -2.95588 -2.52111 0
M  V30 4694 H 430.541 -4.58751 -0.484314 0
M  V30 4695 H 428.784 -4.32076 -0.386362 0
M  V30 4696 H 429.455 -5.23946 -1.73737 0
M  V30 4697 H 431.931 -3.41963 -2.37067 0
M  V30 4698 H 430.807 -4.2432 -3.48201 0
M  V30 4699 H 431.068 -2.51309 -3.63725 0
M  V30 4700 N 430.127 0.543554 -1.4793 0
M  V30 4701 C 431.374 1.30008 -1.55255 0
M  V30 4702 C 431.702 1.93245 -0.220612 0
M  V30 4703 O 430.957 1.79141 0.787843 0
M  V30 4704 C 431.256 2.42078 -2.62932 0
M  V30 4705 C 430.922 1.96583 -4.0579 0
M  V30 4706 C 429.584 1.83893 -4.44676 0
M  V30 4707 C 431.936 1.62034 -4.95373 0
M  V30 4708 C 429.264 1.34969 -5.70964 0
M  V30 4709 C 431.616 1.14577 -6.22137 0
M  V30 4710 C 430.28 1.00493 -6.59892 0
M  V30 4711 H 429.55 0.475735 -0.568117 0
M  V30 4712 H 432.197 0.608075 -1.81589 0
M  V30 4713 H 430.502 3.16892 -2.30406 0
M  V30 4714 H 432.199 3.00236 -2.65818 0
M  V30 4715 H 428.789 2.07407 -3.75074 0
M  V30 4716 H 432.973 1.70705 -4.66019 0
M  V30 4717 H 428.229 1.2274 -5.98953 0
M  V30 4718 H 432.403 0.869109 -6.90955 0
M  V30 4719 H 430.03 0.623624 -7.57638 0
M  V30 4720 N 431.605 1.3629 0.791371 0
M  V30 4721 C 432.852 1.30412 1.54916 0
M  V30 4722 C 433.18 -0.117162 1.94147 0
M  V30 4723 O 432.435 -1.08599 1.62803 0
M  V30 4724 C 432.734 2.17068 2.8393 0
M  V30 4725 C 432.4 3.65645 2.63846 0
M  V30 4726 C 431.062 4.0614 2.58077 0
M  V30 4727 C 433.414 4.59855 2.45322 0
M  V30 4728 C 430.742 5.3899 2.31748 0
M  V30 4729 C 433.094 5.9292 2.2052 0
M  V30 4730 C 431.758 6.32542 2.13183 0
M  V30 4731 H 431.028 0.47721 0.566879 0
M  V30 4732 H 433.675 1.68325 0.913172 0
M  V30 4733 H 431.98 1.72085 3.51986 0
M  V30 4734 H 433.677 2.09846 3.4171 0
M  V30 4735 H 430.267 3.33518 2.69191 0
M  V30 4736 H 434.451 4.29443 2.48782 0
M  V30 4737 H 429.707 5.68672 2.24548 0
M  V30 4738 H 433.881 6.65487 2.05182 0
M  V30 4739 H 431.508 7.35412 1.92544 0
M  V30 4740 N 433.083 -1.0153 1.20538 0
M  V30 4741 C 434.494 -1.56598 1.01657 0
M  V30 4742 C 434.845 -1.91505 -0.426668 0
M  V30 4743 O 433.97 -1.72375 -1.30827 0
M  V30 4744 C 434.565 -2.84542 1.83905 0
M  V30 4745 C 433.124 -3.36133 1.69386 0
M  V30 4746 C 432.271 -2.09427 1.81757 0
M  V30 4747 H 435.222 -0.838974 1.34711 0
M  V30 4748 H 435.243 -3.56004 1.34319 0
M  V30 4749 H 434.755 -2.59105 2.8894 0
M  V30 4750 H 432.856 -3.66528 0.669933 0
M  V30 4751 H 432.969 -4.08248 2.50739 0
M  V30 4752 H 431.333 -2.21941 1.24957 0
M  V30 4753 H 432.116 -1.86414 2.88279 0
M  V30 4754 N 434.561 -1.01147 -1.20859 0
M  V30 4755 C 435.977 -0.725422 -1.42161 0
M  V30 4756 C 436.177 0.696919 -1.89064 0
M  V30 4757 O 435.233 1.46539 -2.05627 0
M  V30 4758 C 436.546 -1.74678 -2.44761 0
M  V30 4759 C 438.094 -1.76433 -2.58535 0
M  V30 4760 C 438.569 -2.77481 -3.64374 0
M  V30 4761 N 440.06 -2.76189 -3.71852 0
M  V30 4762 C 440.795 -3.51035 -4.53389 0
M  V30 4763 N 440.291 -4.35541 -5.38773 0
M  V30 4764 N 442.084 -3.39655 -4.47873 0
M  V30 4765 H 434.235 -1.92979 -0.887282 0
M  V30 4766 H 436.498 -0.833327 -0.451962 0
M  V30 4767 H 436.204 -2.76551 -2.17285 0
M  V30 4768 H 436.078 -1.55472 -3.43669 0
M  V30 4769 H 438.465 -0.75248 -2.85345 0
M  V30 4770 H 438.546 -1.99712 -1.5984 0
M  V30 4771 H 438.19 -3.78827 -3.38308 0
M  V30 4772 H 438.12 -2.51466 -4.6268 0
M  V30 4773 H 440.611 -2.14885 -3.10858 0
M  V30 4774 H 440.924 -4.89432 -5.98061 0
M  V30 4775 H 439.269 -4.39621 -5.38292 0
M  V30 4776 H 442.46 -2.73063 -3.80203 0
M  V30 4777 H 442.633 -3.9824 -5.11184 0
M  V30 4778 N 436.039 1.36541 -0.78704 0
M  V30 4779 C 437.279 2.01138 -0.363714 0
M  V30 4780 C 437.643 1.61114 1.04433 0
M  V30 4781 O 438.844 2.18285 1.56861 0
M  V30 4782 C 437.115 3.53603 -0.519582 0
M  V30 4783 S 438.674 4.38415 -0.183782 0
M  V30 4784 H 435.492 0.697263 -0.13909 0
M  V30 4785 H 438.094 1.66475 -1.02501 0
M  V30 4786 H 436.798 3.8022 -1.5447 0
M  V30 4787 H 436.329 3.93084 0.15773 0
M  V30 4788 H 438.344 4.85698 1.01547 0
M  V30 4789 N 437.518 0.538854 1.48102 0
M  V30 4790 C 438.448 -0.207654 2.32575 0
M  V30 4791 C 439.429 -0.926559 1.4265 0
M  V30 4792 O 440.614 -0.91061 1.71527 0
M  V30 4793 C 437.744 -1.24957 3.24042 0
M  V30 4794 C 436.698 -0.648263 4.23062 0
M  V30 4795 C 436.024 -1.79348 5.03725 0
M  V30 4796 C 437.324 0.385897 5.20872 0
M  V30 4797 H 439.018 0.497534 2.95237 0
M  V30 4798 H 436.564 0.240715 1.41974 0
M  V30 4799 H 438.517 -1.77983 3.81969 0
M  V30 4800 H 437.241 -1.98446 2.59397 0
M  V30 4801 H 435.9 -0.139452 3.66335 0
M  V30 4802 H 435.548 -2.51696 4.35498 0
M  V30 4803 H 435.248 -1.39702 5.70751 0
M  V30 4804 H 436.772 -2.32735 5.64506 0
M  V30 4805 H 438.186 -0.057607 5.73271 0
M  V30 4806 H 436.583 0.700227 5.96001 0
M  V30 4807 H 437.653 1.28848 4.67468 0
M  V30 4808 N 438.996 -1.55193 0.274407 0
M  V30 4809 C 439.926 -2.25471 -0.607032 0
M  V30 4810 C 440.907 -1.24461 -1.15946 0
M  V30 4811 O 442.092 -1.53179 -1.19373 0
M  V30 4812 C 439.222 -2.97526 -1.79153 0
M  V30 4813 C 438.176 -4.05459 -1.37067 0
M  V30 4814 C 437.502 -4.65084 -2.6382 0
M  V30 4815 C 438.802 -5.19691 -0.521389 0
M  V30 4816 H 440.496 -2.99393 -0.0209343 0
M  V30 4817 H 438.042 -1.43997 -0.00862866 0
M  V30 4818 H 439.995 -3.45402 -2.41404 0
M  V30 4819 H 438.719 -2.21138 -2.40344 0
M  V30 4820 H 437.378 -3.58393 -0.771355 0
M  V30 4821 H 437.026 -3.85365 -3.23268 0
M  V30 4822 H 436.726 -5.37961 -2.36372 0
M  V30 4823 H 438.25 -5.15708 -3.26921 0
M  V30 4824 H 439.664 -5.63623 -1.04889 0
M  V30 4825 H 438.061 -5.99126 -0.341825 0
M  V30 4826 H 439.131 -4.82713 0.46 0
M  V30 4827 N 440.474 -0.00167713 -1.576 0
M  V30 4828 C 441.72 0.683832 -1.90923 0
M  V30 4829 C 442.053 1.7333 -0.875799 0
M  V30 4830 O 441.328 1.94215 0.10525 0
M  V30 4831 C 441.611 1.32543 -3.3482 0
M  V30 4832 C 441.464 0.287387 -4.48881 0
M  V30 4833 C 442.783 2.25114 -3.78169 0
M  V30 4834 H 439.902 0.247125 -0.694333 0
M  V30 4835 H 442.544 -0.0533149 -1.89925 0
M  V30 4836 H 440.694 1.95372 -3.35801 0
M  V30 4837 H 442.366 -0.341346 -4.60035 0
M  V30 4838 H 440.609 -0.39017 -4.32042 0
M  V30 4839 H 441.28 0.775393 -5.46527 0
M  V30 4840 H 443.756 1.723 -3.7875 0
M  V30 4841 H 442.632 2.66971 -4.79602 0
M  V30 4842 H 442.893 3.13092 -3.12131 0
M  V30 4843 N 441.952 1.55251 0.271103 0
M  V30 4844 C 442.884 1.84675 1.35749 0
M  V30 4845 C 443.897 0.731366 1.45447 0
M  V30 4846 O 445.086 1.00924 1.4723 0
M  V30 4847 C 442.186 1.99638 2.73857 0
M  V30 4848 C 441.359 3.30312 2.86727 0
M  V30 4849 C 440.418 3.35318 4.05522 0
M  V30 4850 O 439.444 4.08682 3.96191 0
M  V30 4851 N 440.646 2.62857 5.17577 0
M  V30 4852 H 443.411 2.78445 1.10853 0
M  V30 4853 H 440.972 1.55191 0.461218 0
M  V30 4854 H 442.964 2.00355 3.51625 0
M  V30 4855 H 441.534 1.12725 2.91568 0
M  V30 4856 H 440.754 3.42118 1.95829 0
M  V30 4857 H 442.042 4.16488 2.92258 0
M  V30 4858 H 441.44 2.02939 5.28046 0
M  V30 4859 H 439.997 2.69295 5.93568 0
M  V30 4860 N 443.43 -0.535701 1.48216 0
M  V30 4861 C 444.846 -0.863701 1.3421 0
M  V30 4862 C 445.046 -1.98458 0.34879 0
M  V30 4863 O 444.102 -2.51432 -0.23204 0
M  V30 4864 C 445.415 -1.23662 2.74095 0
M  V30 4865 C 446.963 -1.34683 2.82541 0
M  V30 4866 C 447.438 -1.75322 4.23115 0
M  V30 4867 N 448.929 -1.82434 4.2576 0
M  V30 4868 C 449.664 -2.15252 5.31464 0
M  V30 4869 N 449.16 -2.46533 6.47452 0
M  V30 4870 N 450.953 -2.16209 5.18855 0
M  V30 4871 H 443.104 0.203965 2.11418 0
M  V30 4872 H 445.367 0.0286033 0.947568 0
M  V30 4873 H 445.073 -0.486674 3.48316 0
M  V30 4874 H 444.947 -2.18805 3.07253 0
M  V30 4875 H 447.334 -2.08756 2.08579 0
M  V30 4876 H 447.415 -0.376756 2.5301 0
M  V30 4877 H 447.059 -1.01812 4.97591 0
M  V30 4878 H 446.989 -2.7337 4.50085 0
M  V30 4879 H 449.48 -1.6056 3.42095 0
M  V30 4880 H 449.793 -2.70662 7.23852 0
M  V30 4881 H 448.138 -2.44065 6.50736 0
M  V30 4882 H 451.329 -1.91224 4.2726 0
M  V30 4883 H 451.502 -2.41453 6.01335 0
M  V30 4884 N 444.908 -1.36708 -0.784132 0
M  V30 4885 C 446.148 -1.32618 -1.55537 0
M  V30 4886 C 446.512 0.0920681 -1.91779 0
M  V30 4887 O 447.713 0.257573 -2.67563 0
M  V30 4888 C 445.984 -2.22788 -2.79464 0
M  V30 4889 S 447.543 -2.36432 -3.69656 0
M  V30 4890 H 444.361 -0.470973 -0.53264 0
M  V30 4891 H 446.963 -1.72333 -0.92312 0
M  V30 4892 H 445.667 -3.24774 -2.50899 0
M  V30 4893 H 445.198 -1.84112 -3.47658 0
M  V30 4894 H 447.213 -1.56573 -4.7085 0
M  V30 4895 N 446.386 1.0089 -1.21074 0
M  V30 4896 C 447.634 1.74262 -1.02358 0
M  V30 4897 C 447.955 1.89869 0.444393 0
M  V30 4898 O 447.225 1.44677 1.32081 0
M  V30 4899 H 445.805 0.645615 -0.375754 0
M  V30 4900 H 448.467 1.21596 -1.52317 0
M  V30 4901 H 447.563 2.74328 -1.4883 0
M  V30 4902 N 447.864 1.01787 1.20321 0
M  V30 4903 C 449.112 0.706538 1.89347 0
M  V30 4904 C 449.433 -0.766289 1.79313 0
M  V30 4905 O 448.703 -1.55126 1.19635 0
M  V30 4906 H 447.283 0.258348 0.700903 0
M  V30 4907 H 449.945 1.28974 1.46122 0
M  V30 4908 H 449.041 0.991066 2.95946 0
M  V30 4909 N 449.342 -1.36122 0.79427 0
M  V30 4910 C 450.29 -2.31871 0.184023 0
M  V30 4911 C 451.284 -1.56041 -0.659365 0
M  V30 4912 O 452.49 -1.71266 -0.553906 0
M  V30 4913 H 448.865 -0.750896 0.0407373 0
M  V30 4914 H 450.836 -2.80898 1.00693 0
M  V30 4915 C 449.585 -3.41324 -0.662813 0
M  V30 4916 H 448.908 -3.99793 -0.0231944 0
M  V30 4917 H 450.348 -4.10629 -1.05639 0
M  V30 4918 C 448.807 -2.83308 -1.82313 0
M  V30 4919 O 449.337 -2.75863 -2.91997 0
M  V30 4920 N 447.543 -2.40529 -1.63077 0
M  V30 4921 H 447.09 -2.46785 -0.738591 0
M  V30 4922 H 447.048 -2.02059 -2.40872 0
M  V30 4923 N 450.82 -0.546701 -1.47814 0
M  V30 4924 C 452.06 -0.0209604 -2.04389 0
M  V30 4925 C 452.424 1.29993 -1.413 0
M  V30 4926 O 453.625 1.91273 -1.8886 0
M  V30 4927 C 451.896 0.0812844 -3.57308 0
M  V30 4928 S 453.455 0.55467 -4.3528 0
M  V30 4929 H 450.273 -0.0200865 -0.710716 0
M  V30 4930 H 452.875 -0.731055 -1.81317 0
M  V30 4931 H 451.579 -0.884616 -4.00753 0
M  V30 4932 H 451.11 0.815253 -3.8486 0
M  V30 4933 H 453.125 1.81627 -4.61764 0
M  V30 4934 N 452.299 1.55045 -0.282633 0
M  V30 4935 C 453.547 1.99365 0.331334 0
M  V30 4936 C 453.868 1.1725 1.55812 0
M  V30 4937 O 453.138 0.263871 1.94115 0
M  V30 4938 H 451.718 0.736397 0.125414 0
M  V30 4939 H 454.38 1.90964 -0.389711 0
M  V30 4940 H 453.476 3.0596 0.616036 0
M  V30 4941 N 453.777 0.010035 1.57597 0
M  V30 4942 C 455.017 -0.677084 1.9286 0
M  V30 4943 C 455.381 -1.70377 0.885192 0
M  V30 4944 O 456.582 -2.44199 1.12339 0
M  V30 4945 C 454.853 -1.29452 3.33132 0
M  V30 4946 S 456.412 -2.00537 3.90295 0
M  V30 4947 H 453.23 -0.223409 0.674989 0
M  V30 4948 H 455.832 0.0691289 1.95378 0
M  V30 4949 H 454.536 -0.534593 4.06903 0
M  V30 4950 H 454.067 -2.07845 3.34012 0
M  V30 4951 H 456.082 -3.28168 3.72183 0
M  V30 4952 N 455.255 -1.55392 -0.262866 0
M  V30 4953 C 456.503 -1.76127 -0.991147 0
M  V30 4954 C 456.824 -0.571083 -1.8645 0
M  V30 4955 O 456.094 0.413698 -1.91482 0
M  V30 4956 H 454.674 -0.649528 -0.368948 0
M  V30 4957 H 457.336 -1.9281 -0.284655 0
M  V30 4958 H 456.432 -2.6663 -1.62219 0
M  V30 4959 N 456.733 0.527833 -1.48498 0
M  V30 4960 C 457.961 1.30823 -1.6029 0
M  V30 4961 C 458.376 1.86945 -0.263974 0
M  V30 4962 O 457.733 1.6651 0.747034 0
M  V30 4963 C 457.784 2.45756 -2.65116 0
M  V30 4964 O 457.505 1.91946 -3.93813 0
M  V30 4965 C 459.006 3.37543 -2.87367 0
M  V30 4966 H 456.226 0.397763 -0.540394 0
M  V30 4967 H 458.77 0.636529 -1.94341 0
M  V30 4968 H 456.925 3.08806 -2.33917 0
M  V30 4969 H 457.339 2.67195 -4.51339 0
M  V30 4970 H 458.813 4.14532 -3.6451 0
M  V30 4971 H 459.29 3.92905 -1.9627 0
M  V30 4972 H 459.896 2.80283 -3.19878 0
M  V30 4973 N 458.211 1.37122 0.776871 0
M  V30 4974 C 459.457 1.32243 1.53752 0
M  V30 4975 C 459.79 -0.0944745 1.9397 0
M  V30 4976 O 459.065 -1.05068 1.6368 0
M  V30 4977 C 459.348 2.25681 2.80607 0
M  V30 4978 C 459.201 3.76127 2.46676 0
M  V30 4979 C 460.52 2.17657 3.82509 0
M  V30 4980 H 457.639 0.481704 0.557791 0
M  V30 4981 H 460.281 1.6778 0.891612 0
M  V30 4982 H 458.431 1.95505 3.35723 0
M  V30 4983 H 460.103 4.16877 1.97513 0
M  V30 4984 H 458.346 3.94946 1.79443 0
M  V30 4985 H 459.017 4.36933 3.37333 0
M  V30 4986 H 461.493 2.44245 3.36873 0
M  V30 4987 H 460.369 2.85185 4.69 0
M  V30 4988 H 460.63 1.16785 4.26396 0
M  V30 4989 N 459.689 -1.00246 1.21608 0
M  V30 4990 C 460.637 -2.11193 0.97469 0
M  V30 4991 C 461.631 -1.69216 -0.0789303 0
M  V30 4992 O 462.837 -1.79853 0.0726806 0
M  V30 4993 H 459.212 -0.690455 0.297953 0
M  V30 4994 H 461.183 -2.2873 1.91638 0
M  V30 4995 C 459.932 -3.43182 0.558717 0
M  V30 4996 H 459.255 -3.75918 1.3611 0
M  V30 4997 H 460.695 -4.21823 0.429154 0
M  V30 4998 C 459.154 -3.28882 -0.730648 0
M  V30 4999 O 459.684 -3.59835 -1.78554 0
M  V30 5000 N 457.89 -2.8209 -0.698131 0
M  V30 5001 H 457.437 -2.57099 0.16061 0
M  V30 5002 H 457.395 -2.72903 -1.56113 0
M  V30 5003 N 461.167 -1.02423 -1.1978 0
M  V30 5004 C 462.413 -0.72878 -1.89896 0
M  V30 5005 C 462.768 0.734248 -1.77839 0
M  V30 5006 O 462.061 1.52733 -1.15685 0
M  V30 5007 C 462.255 -1.1088 -3.39765 0
M  V30 5008 C 462.084 -2.60722 -3.66407 0
M  V30 5009 C 460.854 -3.27623 -3.84696 0
M  V30 5010 C 463.052 -3.58924 -3.68345 0
M  V30 5011 N 461.034 -4.66617 -3.98926 0
M  V30 5012 C 462.405 -4.83514 -3.8809 0
M  V30 5013 C 464.46 -3.52788 -3.51347 0
M  V30 5014 C 463.163 -6.0271 -3.92598 0
M  V30 5015 C 465.189 -4.71394 -3.5713 0
M  V30 5016 C 464.551 -5.94796 -3.77356 0
M  V30 5017 H 460.65 -0.318473 -0.714212 0
M  V30 5018 H 463.234 -1.3106 -1.43984 0
M  V30 5019 H 461.405 -0.555233 -3.84411 0
M  V30 5020 H 463.137 -0.766082 -3.97383 0
M  V30 5021 H 459.892 -2.7804 -3.83393 0
M  V30 5022 H 460.316 -5.38805 -4.099 0
M  V30 5023 H 464.958 -2.58372 -3.3467 0
M  V30 5024 H 462.676 -6.97499 -4.08069 0
M  V30 5025 H 466.262 -4.6827 -3.45275 0
M  V30 5026 H 465.142 -6.85037 -3.81699 0
M  V30 5027 N 462.645 1.35699 -0.801477 0
M  V30 5028 C 464.061 1.52065 -0.484596 0
M  V30 5029 C 464.261 1.75215 0.995084 0
M  V30 5030 O 463.317 1.79061 1.78026 0
M  V30 5031 C 464.63 2.69908 -1.32552 0
M  V30 5032 C 466.178 2.83784 -1.32044 0
M  V30 5033 C 466.653 4.04646 -2.14536 0
M  V30 5034 N 468.144 4.11814 -2.12046 0
M  V30 5035 C 468.879 5.04437 -2.72636 0
M  V30 5036 N 468.375 6.02426 -3.42133 0
M  V30 5037 N 470.168 4.97144 -2.62305 0
M  V30 5038 H 462.319 1.18928 -1.75983 0
M  V30 5039 H 464.582 0.581455 -0.748741 0
M  V30 5040 H 464.288 2.59363 -2.37537 0
M  V30 5041 H 464.162 3.64376 -0.975181 0
M  V30 5042 H 466.549 2.93783 -0.27846 0
M  V30 5043 H 466.63 1.90188 -1.71062 0
M  V30 5044 H 466.274 3.95407 -3.18772 0
M  V30 5045 H 466.204 4.97413 -1.72882 0
M  V30 5046 H 468.695 3.41664 -1.61476 0
M  V30 5047 H 469.008 6.69688 -3.85666 0
M  V30 5048 H 467.353 6.02615 -3.46237 0
M  V30 5049 H 470.544 4.19546 -2.07603 0
M  V30 5050 H 470.717 5.69138 -3.09815 0
M  V30 5051 N 464.123 0.554532 1.47522 0
M  V30 5052 C 465.348 0.0322661 2.07375 0
M  V30 5053 C 465.773 -1.25079 1.40488 0
M  V30 5054 O 465.131 -1.74859 0.47896 0
M  V30 5055 C 465.179 -0.149397 3.6029 0
M  V30 5056 O 464.283 -1.21259 3.9417 0
M  V30 5057 H 463.624 0.0501228 0.662106 0
M  V30 5058 H 466.154 0.769452 1.8958 0
M  V30 5059 H 466.164 -0.364437 4.06369 0
M  V30 5060 H 464.839 0.787743 4.08372 0
M  V30 5061 H 463.416 -0.97825 3.5984 0
M  V30 5062 N 465.601 -1.54893 0.290851 0
M  V30 5063 C 466.841 -2.01842 -0.322388 0
M  V30 5064 C 467.205 -1.17477 -1.51865 0
M  V30 5065 O 468.406 -1.54077 -2.20258 0
M  V30 5066 C 466.677 -3.50874 -0.679844 0
M  V30 5067 S 468.236 -4.19796 -1.27739 0
M  V30 5068 H 465.054 -0.704005 -0.0994866 0
M  V30 5069 H 467.656 -1.91015 0.416358 0
M  V30 5070 H 466.36 -4.09915 0.199435 0
M  V30 5071 H 465.891 -3.65717 -1.44964 0
M  V30 5072 H 467.906 -4.24729 -2.56554 0
M  V30 5073 N 467.08 -0.0183926 -1.57589 0
M  V30 5074 C 468.308 0.673046 -1.95647 0
M  V30 5075 C 468.723 1.66275 -0.894312 0
M  V30 5076 O 468.08 1.82072 0.124975 0
M  V30 5077 C 468.131 1.38884 -3.33756 0
M  V30 5078 O 467.852 0.438806 -4.35897 0
M  V30 5079 C 469.353 2.1731 -3.86383 0
M  V30 5080 H 466.573 0.186292 -0.644621 0
M  V30 5081 H 469.117 -0.0749748 -2.04363 0
M  V30 5082 H 467.272 2.08835 -3.26293 0
M  V30 5083 H 467.686 0.945869 -5.15901 0
M  V30 5084 H 469.16 2.62863 -4.85394 0
M  V30 5085 H 469.637 3.00764 -3.20059 0
M  V30 5086 H 470.243 1.52339 -3.97081 0
M  V30 5087 N 468.558 1.5553 0.254621 0
M  V30 5088 C 469.798 1.7876 0.991179 0
M  V30 5089 C 470.162 0.586669 1.82817 0
M  V30 5090 O 471.363 0.697585 2.5959 0
M  V30 5091 C 469.634 3.06679 1.83529 0
M  V30 5092 S 471.193 3.511 2.632 0
M  V30 5093 H 468.011 0.627916 0.333531 0
M  V30 5094 H 470.613 1.93766 0.259778 0
M  V30 5095 H 469.317 3.92158 1.20996 0
M  V30 5096 H 468.848 2.94388 2.60958 0
M  V30 5097 H 470.863 3.11823 3.8598 0
M  V30 5098 N 470.036 -0.519951 1.48776 0
M  V30 5099 C 470.984 -1.64443 1.64503 0
M  V30 5100 C 471.978 -1.61501 0.511248 0
M  V30 5101 O 473.184 -1.66238 0.690294 0
M  V30 5102 H 469.559 -0.544776 0.518385 0
M  V30 5103 H 471.53 -1.48325 2.58925 0
M  V30 5104 C 470.279 -3.02673 1.71127 0
M  V30 5105 H 469.602 -3.05635 2.57735 0
M  V30 5106 H 471.042 -3.80941 1.86172 0
M  V30 5107 C 469.501 -3.33854 0.452032 0
M  V30 5108 O 470.031 -3.99385 -0.430678 0
M  V30 5109 N 468.237 -2.88825 0.32069 0
M  V30 5110 H 467.784 -2.35674 1.03998 0
M  V30 5111 H 467.742 -3.10056 -0.520814 0
M  V30 5112 N 471.514 -1.37532 -0.769588 0
M  V30 5113 C 472.739 -1.36231 -1.56384 0
M  V30 5114 C 473.164 0.0495849 -1.88035 0
M  V30 5115 O 472.522 1.02723 -1.49391 0
M  V30 5116 C 472.57 -2.20986 -2.84952 0
M  V30 5117 O 471.674 -1.61597 -3.79421 0
M  V30 5118 H 471.015 -0.465387 -0.473615 0
M  V30 5119 H 473.545 -1.81085 -0.952342 0
M  V30 5120 H 473.555 -2.34277 -3.34034 0
M  V30 5121 H 472.23 -3.23612 -2.61243 0
M  V30 5122 H 470.807 -1.57359 -3.38072 0
M  V30 5123 N 472.992 0.995999 -1.22138 0
M  V30 5124 C 474.24 1.73167 -1.042 0
M  V30 5125 C 474.561 1.90329 0.42423 0
M  V30 5126 O 473.831 1.4607 1.30539 0
M  V30 5127 H 472.411 0.641593 -0.38258 0
M  V30 5128 H 475.073 1.19974 -1.53598 0
M  V30 5129 H 474.169 2.72734 -1.51731 0
M  V30 5130 N 474.47 1.03057 1.19235 0
M  V30 5131 C 475.417 0.612832 2.22515 0
M  V30 5132 C 476.387 -0.374224 1.61829 0
M  V30 5133 O 477.572 -0.270501 1.88873 0
M  V30 5134 C 474.712 -0.028475 3.45088 0
M  V30 5135 C 473.825 1.00483 4.20151 0
M  V30 5136 C 472.96 0.333102 5.30155 0
M  V30 5137 C 471.999 1.3522 5.96977 0
M  V30 5138 N 471.136 0.70616 6.9854 0
M  V30 5139 H 475.976 1.49812 2.57605 0
M  V30 5140 H 473.513 0.749658 1.26564 0
M  V30 5141 H 475.471 -0.417548 4.15105 0
M  V30 5142 H 474.101 -0.877334 3.10649 0
M  V30 5143 H 473.153 1.51194 3.49062 0
M  V30 5144 H 474.465 1.77929 4.65986 0
M  V30 5145 H 473.619 -0.110725 6.06599 0
M  V30 5146 H 472.358 -0.473547 4.85396 0
M  V30 5147 H 471.363 1.80627 5.19282 0
M  V30 5148 H 472.588 2.16037 6.4382 0
M  V30 5149 H 470.534 -0.0803667 6.55951 0
M  V30 5150 H 470.451 1.41848 7.42573 0
M  V30 5151 H 471.719 0.286391 7.78974 0
M  V30 5152 N 475.948 -1.35272 0.808662 0
M  V30 5153 C 477.176 -2.02946 0.402537 0
M  V30 5154 C 477.591 -1.60937 -0.987147 0
M  V30 5155 O 476.948 -0.807917 -1.63643 0
M  V30 5156 C 476.999 -3.58317 0.47868 0
M  V30 5157 O 476.72 -3.98799 1.81358 0
M  V30 5158 C 478.221 -4.43251 0.0656281 0
M  V30 5159 H 475.441 -0.650831 0.163279 0
M  V30 5160 H 477.985 -1.72849 1.09286 0
M  V30 5161 H 476.14 -3.87055 -0.163415 0
M  V30 5162 H 476.554 -4.93451 1.77781 0
M  V30 5163 H 478.028 -5.51738 0.170017 0
M  V30 5164 H 478.505 -4.27913 -0.989278 0
M  V30 5165 H 479.111 -4.19813 0.68096 0
M  V30 5166 N 477.426 -0.562348 -1.47226 0
M  V30 5167 C 478.672 -0.0402761 -2.0276 0
M  V30 5168 C 479.005 1.30823 -1.43523 0
M  V30 5169 O 478.28 1.85249 -0.592705 0
M  V30 5170 C 478.563 0.047311 -3.60069 0
M  V30 5171 C 478.416 -1.32865 -4.29729 0
M  V30 5172 C 479.735 0.758182 -4.3352 0
M  V30 5173 H 476.854 -0.0161105 -0.736824 0
M  V30 5174 H 479.496 -0.725628 -1.75598 0
M  V30 5175 H 477.646 0.630986 -3.83342 0
M  V30 5176 H 479.318 -1.95593 -4.17781 0
M  V30 5177 H 477.561 -1.90195 -3.89882 0
M  V30 5178 H 478.232 -1.22004 -5.38349 0
M  V30 5179 H 480.708 0.262546 -4.15271 0
M  V30 5180 H 479.584 0.78844 -5.43208 0
M  V30 5181 H 479.845 1.81537 -4.03109 0
M  V30 5182 N 478.904 1.54736 -0.299062 0
M  V30 5183 C 479.851 2.23448 0.577899 0
M  V30 5184 C 480.821 1.21637 1.13109 0
M  V30 5185 O 482.006 1.50252 1.17597 0
M  V30 5186 C 479.146 2.9774 1.74484 0
M  V30 5187 C 478.259 4.1432 1.22323 0
M  V30 5188 C 477.394 4.76199 2.35388 0
M  V30 5189 C 476.433 5.84927 1.80351 0
M  V30 5190 N 475.57 6.4077 2.86982 0
M  V30 5191 H 480.41 2.97996 -0.0146545 0
M  V30 5192 H 477.947 1.47088 -0.0190013 0
M  V30 5193 H 479.905 3.39045 2.43114 0
M  V30 5194 H 478.535 2.25572 2.30905 0
M  V30 5195 H 477.587 3.7797 0.429249 0
M  V30 5196 H 478.899 4.92659 0.780309 0
M  V30 5197 H 478.053 5.20346 3.11969 0
M  V30 5198 H 476.792 3.97188 2.83006 0
M  V30 5199 H 475.797 5.40207 1.02259 0
M  V30 5200 H 477.022 6.65821 1.3364 0
M  V30 5201 H 474.968 5.64643 3.33938 0
M  V30 5202 H 474.885 7.1445 2.4718 0
M  V30 5203 H 476.153 6.89574 3.63466 0
M  V30 5204 N 480.382 0.0267497 1.57577 0
M  V30 5205 C 481.329 -0.955894 2.10075 0
M  V30 5206 C 482.299 -1.32453 1.00226 0
M  V30 5207 O 483.484 -1.41826 1.27632 0
M  V30 5208 C 480.624 -2.2338 2.6305 0
M  V30 5209 C 479.737 -1.92183 3.86898 0
M  V30 5210 C 478.872 -3.14251 4.28275 0
M  V30 5211 C 477.911 -2.78862 5.44888 0
M  V30 5212 N 477.048 -3.93548 5.81433 0
M  V30 5213 H 481.888 -0.501303 2.93753 0
M  V30 5214 H 479.425 -0.235847 1.45197 0
M  V30 5215 H 481.383 -2.98124 2.91853 0
M  V30 5216 H 480.013 -2.6646 1.82205 0
M  V30 5217 H 479.065 -1.07692 3.64838 0
M  V30 5218 H 480.377 -1.62117 4.7172 0
M  V30 5219 H 479.531 -3.97317 4.58502 0
M  V30 5220 H 478.27 -3.47476 3.42215 0
M  V30 5221 H 477.275 -1.94208 5.14357 0
M  V30 5222 H 478.5 -2.46855 6.32645 0
M  V30 5223 H 476.446 -4.2662 4.98328 0
M  V30 5224 H 476.363 -3.67098 6.6089 0
M  V30 5225 H 477.631 -4.77325 6.16264 0
M  V30 5226 N 481.861 -1.55662 -0.24637 0
M  V30 5227 C 483.091 -1.81312 -0.990438 0
M  V30 5228 C 483.499 -0.600234 -1.79426 0
M  V30 5229 O 482.842 0.440537 -1.78339 0
M  V30 5230 C 482.904 -3.0032 -1.97607 0
M  V30 5231 C 482.568 -4.36322 -1.35912 0
M  V30 5232 C 483.565 -5.14295 -0.761348 0
M  V30 5233 C 481.25 -4.83019 -1.37833 0
M  V30 5234 C 483.244 -6.37114 -0.190998 0
M  V30 5235 C 480.931 -6.05786 -0.804128 0
M  V30 5236 C 481.929 -6.82672 -0.211489 0
M  V30 5237 O 481.617 -8.03121 0.353845 0
M  V30 5238 H 481.349 -0.607233 -0.297058 0
M  V30 5239 H 483.903 -2.0356 -0.274351 0
M  V30 5240 H 482.133 -2.73829 -2.73047 0
M  V30 5241 H 483.822 -3.13057 -2.58361 0
M  V30 5242 H 484.588 -4.79337 -0.739013 0
M  V30 5243 H 480.467 -4.23165 -1.829 0
M  V30 5244 H 484.011 -6.97069 0.272206 0
M  V30 5245 H 479.908 -6.40222 -0.823792 0
M  V30 5246 H 480.676 -8.18131 0.245761 0
M  V30 5247 N 483.339 0.512053 -1.4905 0
M  V30 5248 C 484.289 1.61142 -1.61298 0
M  V30 5249 C 485.273 1.53908 -0.46916 0
M  V30 5250 O 486.465 1.61625 -0.721547 0
M  V30 5251 C 483.594 2.998 -1.67256 0
M  V30 5252 C 482.68 3.12072 -2.87179 0
M  V30 5253 N 483.071 2.94263 -4.11391 0
M  V30 5254 C 481.369 3.43156 -2.84886 0
M  V30 5255 C 482.07 3.10426 -4.91946 0
M  V30 5256 N 481.046 3.38808 -4.251 0
M  V30 5257 H 484.848 1.46011 -2.55065 0
M  V30 5258 H 482.362 0.717934 -1.45669 0
M  V30 5259 H 484.359 3.78794 -1.74128 0
M  V30 5260 H 483.019 3.1601 -0.746195 0
M  V30 5261 H 484.03 2.70661 -4.41546 0
M  V30 5262 H 480.707 3.65611 -2.01581 0
M  V30 5263 H 482.097 3.01243 -6.00585 0
M  V30 5264 N 484.817 1.37938 0.762283 0
M  V30 5265 C 485.727 1.36681 1.90671 0
M  V30 5266 C 486.743 0.265078 1.71969 0
M  V30 5267 O 487.919 0.502055 1.95042 0
M  V30 5268 C 484.984 1.18211 3.25925 0
M  V30 5269 C 484.045 2.3811 3.57214 0
M  V30 5270 C 483.278 2.20512 4.86014 0
M  V30 5271 O 483.501 1.19429 5.57757 0
M  V30 5272 O 482.435 3.08911 5.16583 0
M  V30 5273 H 486.261 2.33091 1.94685 0
M  V30 5274 H 483.846 1.18767 0.906356 0
M  V30 5275 H 485.728 1.09937 4.06807 0
M  V30 5276 H 484.403 0.248807 3.22742 0
M  V30 5277 H 483.31 2.51958 2.76529 0
M  V30 5278 H 484.643 3.30041 3.65149 0
M  V30 5279 N 486.295 -0.989507 1.22664 0
M  V30 5280 C 487.541 -1.7321 1.05481 0
M  V30 5281 C 487.874 -1.89852 -0.408635 0
M  V30 5282 O 487.149 -1.44416 -1.30285 0
M  V30 5283 C 487.432 -3.1357 1.77047 0
M  V30 5284 C 487.285 -3.04555 3.31008 0
M  V30 5285 C 488.604 -4.12812 1.5256 0
M  V30 5286 H 485.723 -0.628697 0.384589 0
M  V30 5287 H 488.365 -1.15258 1.51049 0
M  V30 5288 H 486.515 -3.63046 1.3831 0
M  V30 5289 H 488.187 -2.62674 3.7921 0
M  V30 5290 H 486.43 -2.41278 3.6051 0
M  V30 5291 H 487.101 -4.03894 3.76263 0
M  V30 5292 H 489.577 -3.72106 1.86215 0
M  V30 5293 H 488.453 -5.09132 2.05124 0
M  V30 5294 H 488.714 -4.39711 0.458936 0
M  V30 5295 N 487.773 -1.03688 -1.18687 0
M  V30 5296 C 488.703 -0.645407 -2.24403 0
M  V30 5297 C 489.684 0.349511 -1.66471 0
M  V30 5298 O 490.869 0.230453 -1.92828 0
M  V30 5299 C 487.999 -0.00365337 -3.473 0
M  V30 5300 C 486.953 -0.921705 -4.17958 0
M  V30 5301 C 486.279 -0.144629 -5.34504 0
M  V30 5302 C 487.579 -2.23909 -4.71871 0
M  V30 5303 H 489.273 -1.52917 -2.57404 0
M  V30 5304 H 486.819 -0.736711 -1.23728 0
M  V30 5305 H 488.772 0.281908 -4.20456 0
M  V30 5306 H 487.496 0.914963 -3.13522 0
M  V30 5307 H 486.155 -1.19159 -3.46694 0
M  V30 5308 H 485.803 0.776274 -4.96974 0
M  V30 5309 H 485.503 -0.756206 -5.82714 0
M  V30 5310 H 487.027 0.134004 -6.10453 0
M  V30 5311 H 488.441 -2.0145 -5.36741 0
M  V30 5312 H 486.838 -2.8033 -5.30599 0
M  V30 5313 H 487.908 -2.88822 -3.895 0
M  V30 5314 N 489.251 1.34841 -0.815825 0
M  V30 5315 C 490.183 2.28409 -0.190265 0
M  V30 5316 C 491.196 1.50705 0.615771 0
M  V30 5317 O 492.385 1.72822 0.446616 0
M  V30 5318 C 489.485 3.30441 0.752446 0
M  V30 5319 C 488.658 4.37399 -0.00922152 0
M  V30 5320 C 487.717 5.19234 0.853351 0
M  V30 5321 O 486.743 5.68404 0.300919 0
M  V30 5322 N 487.945 5.38248 2.17416 0
M  V30 5323 H 490.71 2.82732 -0.994114 0
M  V30 5324 H 488.271 1.47289 -0.672129 0
M  V30 5325 H 490.263 3.82084 1.33394 0
M  V30 5326 H 488.833 2.76565 1.45707 0
M  V30 5327 H 488.053 3.86567 -0.771979 0
M  V30 5328 H 489.341 5.05992 -0.533807 0
M  V30 5329 H 488.739 4.99961 2.6468 0
M  V30 5330 H 487.296 5.93035 2.70467 0
M  V30 5331 N 490.729 0.570148 1.46925 0
M  V30 5332 C 491.976 0.0509529 2.02436 0
M  V30 5333 C 492.304 -1.30405 1.44308 0
M  V30 5334 O 491.559 -1.86493 0.593198 0
M  V30 5335 C 491.858 -0.0780336 3.57315 0
M  V30 5336 C 491.524 1.20775 4.34424 0
M  V30 5337 C 490.186 1.56004 4.5521 0
M  V30 5338 C 492.538 2.0592 4.78797 0
M  V30 5339 C 489.866 2.76201 5.17619 0
M  V30 5340 C 492.218 3.25332 5.42533 0
M  V30 5341 C 490.882 3.60859 5.61549 0
M  V30 5342 H 490.152 0.018645 0.740765 0
M  V30 5343 H 492.799 0.744262 1.76445 0
M  V30 5344 H 491.104 -0.854394 3.82371 0
M  V30 5345 H 492.801 -0.495312 3.97929 0
M  V30 5346 H 489.391 0.923469 4.18533 0
M  V30 5347 H 493.575 1.80008 4.62505 0
M  V30 5348 H 488.831 3.0388 5.30535 0
M  V30 5349 H 493.005 3.91586 5.75876 0
M  V30 5350 H 490.632 4.54088 6.09678 0
M  V30 5351 N 492.207 -1.54576 0.307264 0
M  V30 5352 C 493.117 -2.27435 -0.57536 0
M  V30 5353 C 494.133 -1.31183 -1.14311 0
M  V30 5354 O 495.309 -1.64175 -1.16656 0
M  V30 5355 C 492.374 -3.00566 -1.72803 0
M  V30 5356 C 491.435 -4.12369 -1.19373 0
M  V30 5357 C 490.668 -4.82003 -2.29147 0
M  V30 5358 O 490.891 -4.51038 -3.49171 0
M  V30 5359 O 489.825 -5.69271 -1.95485 0
M  V30 5360 H 493.651 -3.03696 0.0158558 0
M  V30 5361 H 491.236 -1.49219 0.0735064 0
M  V30 5362 H 493.118 -3.46416 -2.39946 0
M  V30 5363 H 491.793 -2.27195 -2.30574 0
M  V30 5364 H 490.7 -3.70905 -0.487851 0
M  V30 5365 H 492.033 -4.87736 -0.661376 0
M  V30 5366 N 493.685 -0.035106 -1.57561 0
M  V30 5367 C 495.096 0.502885 -1.798 0
M  V30 5368 C 495.447 1.71892 -0.945921 0
M  V30 5369 O 494.572 2.15822 -0.157991 0
M  V30 5370 C 495.167 0.919097 -3.26095 0
M  V30 5371 C 493.726 1.40216 -3.49308 0
M  V30 5372 C 492.873 0.369709 -2.74824 0
M  V30 5373 H 495.824 -0.261102 -1.56537 0
M  V30 5374 H 495.845 1.78308 -3.36135 0
M  V30 5375 H 495.357 0.0338526 -3.88085 0
M  V30 5376 H 493.458 2.30714 -2.92578 0
M  V30 5377 H 493.571 1.40541 -4.58023 0
M  V30 5378 H 491.935 0.839113 -2.40481 0
M  V30 5379 H 492.718 -0.507173 -3.39533 0
M  V30 5380 N 495.163 1.55791 0.238111 0
M  V30 5381 C 496.411 1.77681 0.963001 0
M  V30 5382 C 496.732 0.600674 1.85518 0
M  V30 5383 O 496.002 -0.383182 1.92116 0
M  V30 5384 H 494.582 0.655315 0.358568 0
M  V30 5385 H 497.244 1.93239 0.253945 0
M  V30 5386 H 496.34 2.69177 1.57956 0
M  V30 5387 N 496.642 -0.504142 1.49319 0
M  V30 5388 C 497.592 -1.60284 1.62151 0
M  V30 5389 C 498.576 -1.53657 0.477315 0
M  V30 5390 O 499.768 -1.6124 0.730108 0
M  V30 5391 C 496.897 -2.98909 1.68844 0
M  V30 5392 C 495.983 -3.10544 2.8883 0
M  V30 5393 N 496.374 -2.92078 4.12946 0
M  V30 5394 C 494.672 -3.4164 2.86702 0
M  V30 5395 C 495.373 -3.07812 4.93585 0
M  V30 5396 N 494.349 -3.36549 4.26891 0
M  V30 5397 H 498.151 -1.44656 2.55835 0
M  V30 5398 H 495.665 -0.710198 1.46048 0
M  V30 5399 H 497.662 -3.77865 1.76134 0
M  V30 5400 H 496.322 -3.15609 0.762943 0
M  V30 5401 H 497.333 -2.68316 4.42975 0
M  V30 5402 H 494.01 -3.64537 2.03517 0
M  V30 5403 H 495.4 -2.98054 6.02174 0
M  V30 5404 N 498.12 -1.38341 -0.754957 0
M  V30 5405 C 499.369 -1.33791 -1.5094 0
M  V30 5406 C 499.682 0.0699267 -1.95475 0
M  V30 5407 O 500.888 0.237956 -2.70455 0
M  V30 5408 C 499.344 -2.34934 -2.72643 0
M  V30 5409 C 498.952 -3.81332 -2.35138 0
M  V30 5410 C 500.696 -2.39425 -3.50536 0
M  V30 5411 C 498.603 -4.74164 -3.53444 0
M  V30 5412 H 497.533 -0.497314 -0.566741 0
M  V30 5413 H 500.184 -1.63888 -0.825403 0
M  V30 5414 H 498.566 -1.97878 -3.43017 0
M  V30 5415 H 499.74 -4.27319 -1.7244 0
M  V30 5416 H 498.055 -3.79946 -1.70382 0
M  V30 5417 H 500.652 -3.0598 -4.38498 0
M  V30 5418 H 500.995 -1.41278 -3.91594 0
M  V30 5419 H 501.528 -2.75274 -2.87174 0
M  V30 5420 H 498.267 -5.73501 -3.17453 0
M  V30 5421 H 497.787 -4.3287 -4.15191 0
M  V30 5422 H 499.466 -4.92111 -4.20043 0
M  V30 5423 N 499.598 0.982988 -1.23187 0
M  V30 5424 C 500.545 2.07491 -1.01075 0
M  V30 5425 C 501.515 1.65949 0.070905 0
M  V30 5426 O 502.7 1.90629 -0.0806822 0
M  V30 5427 C 499.84 3.39751 -0.605261 0
M  V30 5428 C 498.953 3.94578 -1.75876 0
M  V30 5429 C 498.088 5.15039 -1.3003 0
M  V30 5430 C 497.127 5.62027 -2.42472 0
M  V30 5431 N 496.264 6.73719 -1.97602 0
M  V30 5432 H 501.104 2.25739 -1.9454 0
M  V30 5433 H 498.641 1.10659 -0.969179 0
M  V30 5434 H 500.599 4.15719 -0.351279 0
M  V30 5435 H 499.229 3.21473 0.292382 0
M  V30 5436 H 498.281 3.1539 -2.12681 0
M  V30 5437 H 499.593 4.25422 -2.60418 0
M  V30 5438 H 498.747 5.9833 -1.00429 0
M  V30 5439 H 497.486 4.85843 -0.425216 0
M  V30 5440 H 496.491 4.77318 -2.7285 0
M  V30 5441 H 497.716 5.93244 -3.30512 0
M  V30 5442 H 495.662 6.46287 -1.1247 0
M  V30 5443 H 495.579 7.03934 -2.75705 0
M  V30 5444 H 496.847 7.6049 -1.71098 0
M  V30 5445 N 501.076 1.04316 1.18135 0
M  V30 5446 C 502.492 0.762858 1.40188 0
M  V30 5447 C 502.692 -0.646547 1.90846 0
M  V30 5448 O 501.748 -1.41036 2.0944 0
M  V30 5449 C 503.061 1.81106 2.40044 0
M  V30 5450 C 504.609 1.83226 2.53766 0
M  V30 5451 C 505.084 2.87044 3.56889 0
M  V30 5452 N 506.575 2.85951 3.64398 0
M  V30 5453 C 507.31 3.62932 4.43923 0
M  V30 5454 N 506.806 4.49672 5.27036 0
M  V30 5455 N 508.599 3.51411 4.38711 0
M  V30 5456 H 500.75 1.95264 0.835805 0
M  V30 5457 H 503.013 0.845017 0.429709 0
M  V30 5458 H 502.719 2.82214 2.09876 0
M  V30 5459 H 502.593 1.64529 3.39426 0
M  V30 5460 H 504.98 0.827869 2.8325 0
M  V30 5461 H 505.061 2.03879 1.54489 0
M  V30 5462 H 504.705 3.87663 3.28145 0
M  V30 5463 H 504.635 2.63645 4.5585 0
M  V30 5464 H 507.126 2.23051 3.05052 0
M  V30 5465 H 507.439 5.05116 5.84874 0
M  V30 5466 H 505.784 4.53738 5.26447 0
M  V30 5467 H 508.975 2.83047 3.72829 0
M  V30 5468 H 509.148 4.11654 5.00445 0
M  V30 5469 N 502.554 -1.34406 0.822964 0
M  V30 5470 C 503.97 -1.51275 0.508727 0
M  V30 5471 C 504.17 -1.76776 -0.967083 0
M  V30 5472 O 503.226 -1.81871 -1.75155 0
M  V30 5473 C 504.539 -2.67765 1.36829 0
M  V30 5474 C 506.087 -2.81647 1.36542 0
M  V30 5475 C 506.562 -4.01181 2.20947 0
M  V30 5476 N 508.053 -4.08388 2.18571 0
M  V30 5477 C 508.788 -5.00036 2.80627 0
M  V30 5478 N 508.284 -5.96906 3.51674 0
M  V30 5479 N 510.077 -4.92908 2.70181 0
M  V30 5480 H 502.228 -1.16113 1.77852 0
M  V30 5481 H 504.491 -0.56947 0.757897 0
M  V30 5482 H 504.197 -2.55551 2.41633 0
M  V30 5483 H 504.071 -3.62779 1.03303 0
M  V30 5484 H 506.458 -2.93303 0.325163 0
M  V30 5485 H 506.539 -1.87443 1.74066 0
M  V30 5486 H 506.183 -3.90286 3.25022 0
M  V30 5487 H 506.113 -4.94599 1.80774 0
M  V30 5488 H 508.604 -3.39051 1.66891 0
M  V30 5489 H 508.917 -6.63468 3.96271 0
M  V30 5490 H 507.262 -5.9703 3.5578 0
M  V30 5491 H 510.453 -4.1619 2.14251 0
M  V30 5492 H 510.626 -5.64137 3.18831 0
M  V30 5493 N 504.032 -0.577932 -1.46621 0
M  V30 5494 C 505.28 -0.061566 -2.02006 0
M  V30 5495 C 505.601 1.30117 -1.4524 0
M  V30 5496 O 504.871 1.85313 -0.63529 0
M  V30 5497 H 503.451 -0.0197692 -0.746738 0
M  V30 5498 H 506.113 -0.752631 -1.79782 0
M  V30 5499 H 505.209 0.0110238 -3.12098 0
M  V30 5500 N 505.51 1.54411 -0.315457 0
M  V30 5501 C 506.926 1.59556 0.037464 0
M  V30 5502 C 507.126 1.33217 1.5118 0
M  V30 5503 O 506.182 1.11264 2.26664 0
M  V30 5504 C 507.495 2.98372 -0.373477 0
M  V30 5505 C 509.043 3.11324 -0.323452 0
M  V30 5506 C 509.518 4.52472 -0.709433 0
M  V30 5507 N 511.009 4.58437 -0.662524 0
M  V30 5508 C 511.744 5.65751 -0.933474 0
M  V30 5509 N 511.24 6.81039 -1.27114 0
M  V30 5510 N 513.033 5.55489 -0.859573 0
M  V30 5511 H 505.184 1.6979 -1.27614 0
M  V30 5512 H 507.447 0.793732 -0.518356 0
M  V30 5513 H 507.153 3.22618 -1.40037 0
M  V30 5514 H 507.027 3.76264 0.265615 0
M  V30 5515 H 509.414 2.86818 0.694223 0
M  V30 5516 H 509.495 2.35555 -0.997367 0
M  V30 5517 H 509.139 4.7771 -1.72498 0
M  V30 5518 H 509.069 5.26598 -0.0132923 0
M  V30 5519 H 511.56 3.75636 -0.413065 0
M  V30 5520 H 511.873 7.58816 -1.46348 0
M  V30 5521 H 510.218 6.82555 -1.30932 0
M  V30 5522 H 513.409 4.64299 -0.595324 0
M  V30 5523 H 513.582 6.39036 -1.0741 0
M  V30 5524 N 506.988 0.0434614 1.5754 0
M  V30 5525 C 507.951 -0.918696 2.09982 0
M  V30 5526 C 508.951 -1.24488 1.01781 0
M  V30 5527 O 510.141 -1.18284 1.27885 0
M  V30 5528 C 507.273 -2.23093 2.57764 0
M  V30 5529 H 508.466 -0.464229 2.96285 0
M  V30 5530 H 506.019 -0.204818 1.54952 0
M  V30 5531 H 506.754 -2.73137 1.74832 0
M  V30 5532 H 506.539 -2.00724 3.36827 0
M  V30 5533 H 508.029 -2.92028 2.98512 0
M  V30 5534 N 508.466 -1.55915 -0.229846 0
M  V30 5535 C 509.413 -1.91734 -1.28478 0
M  V30 5536 C 510.383 -0.773539 -1.46988 0
M  V30 5537 O 511.568 -1.02871 -1.60693 0
M  V30 5538 C 508.708 -2.23224 -2.63182 0
M  V30 5539 C 507.821 -3.50497 -2.52539 0
M  V30 5540 C 506.956 -3.71474 -3.79711 0
M  V30 5541 C 505.995 -4.92289 -3.63755 0
M  V30 5542 N 505.132 -5.09698 -4.82858 0
M  V30 5543 H 509.972 -2.81692 -0.972308 0
M  V30 5544 H 507.509 -1.39429 -0.468815 0
M  V30 5545 H 509.467 -2.3949 -3.41614 0
M  V30 5546 H 508.097 -1.36451 -2.92542 0
M  V30 5547 H 507.149 -3.4247 -1.65585 0
M  V30 5548 H 508.461 -4.39079 -2.36666 0
M  V30 5549 H 507.615 -3.87791 -4.66586 0
M  V30 5550 H 506.354 -2.81157 -3.985 0
M  V30 5551 H 505.359 -4.7593 -2.75264 0
M  V30 5552 H 506.584 -5.84083 -3.46445 0
M  V30 5553 H 504.53 -4.22322 -5.01976 0
M  V30 5554 H 504.447 -5.92399 -4.69681 0
M  V30 5555 H 505.715 -5.30443 -5.71183 0
M  V30 5556 N 509.944 0.496216 -1.49584 0
M  V30 5557 C 511.172 1.27394 -1.63029 0
M  V30 5558 C 511.587 1.86344 -0.303569 0
M  V30 5559 O 510.944 1.68057 0.711547 0
M  V30 5560 C 510.995 2.40077 -2.70269 0
M  V30 5561 O 510.716 1.83549 -3.97796 0
M  V30 5562 C 512.217 3.31372 -2.94462 0
M  V30 5563 H 509.437 0.386211 -0.54871 0
M  V30 5564 H 511.981 0.595163 -1.95648 0
M  V30 5565 H 510.136 3.03775 -2.40415 0
M  V30 5566 H 510.55 2.57561 -4.56905 0
M  V30 5567 H 512.024 4.06707 -3.73221 0
M  V30 5568 H 512.501 3.88654 -2.0456 0
M  V30 5569 H 513.107 2.73435 -3.25751 0
M  V30 5570 N 511.423 1.38739 0.74761 0
M  V30 5571 C 512.356 1.3083 1.86972 0
M  V30 5572 C 513.334 0.184229 1.61553 0
M  V30 5573 O 514.518 0.36256 1.8498 0
M  V30 5574 C 511.645 1.02854 3.22705 0
M  V30 5575 C 510.691 2.17281 3.67003 0
M  V30 5576 S 511.524 3.79468 3.77842 0
M  V30 5577 C 512.68 3.53692 5.16385 0
M  V30 5578 H 512.913 2.258 1.93395 0
M  V30 5579 H 510.446 1.24646 0.911199 0
M  V30 5580 H 512.404 0.87397 4.01089 0
M  V30 5581 H 511.065 0.0959295 3.13953 0
M  V30 5582 H 510.258 1.93267 4.65472 0
M  V30 5583 H 509.86 2.28876 2.9579 0
M  V30 5584 H 512.152 3.10176 6.02327 0
M  V30 5585 H 513.095 4.51576 5.45422 0
M  V30 5586 H 513.503 2.8807 4.85464 0
M  V30 5587 N 512.901 -0.976442 1.23707 0
M  V30 5588 C 513.864 -2.0511 1.02287 0
M  V30 5589 C 514.864 -1.60791 -0.0167195 0
M  V30 5590 O 516.054 -1.72761 0.223408 0
M  V30 5591 C 513.186 -3.36458 0.548507 0
M  V30 5592 H 514.379 -2.25545 1.9766 0
M  V30 5593 H 511.932 -1.15042 1.05806 0
M  V30 5594 H 512.667 -3.21713 -0.408818 0
M  V30 5595 H 512.452 -3.69967 1.29874 0
M  V30 5596 H 513.942 -4.15489 0.419406 0
M  V30 5597 N 514.379 -1.04941 -1.1758 0
M  V30 5598 C 515.309 -0.669172 -2.23706 0
M  V30 5599 C 516.29 0.331835 -1.66832 0
M  V30 5600 O 517.475 0.209988 -1.93061 0
M  V30 5601 C 514.605 -0.0404889 -3.47276 0
M  V30 5602 C 513.559 -0.965983 -4.16957 0
M  V30 5603 C 512.885 -0.201312 -5.34321 0
M  V30 5604 C 514.185 -2.28902 -4.69469 0
M  V30 5605 H 515.879 -1.55639 -2.55767 0
M  V30 5606 H 513.425 -0.749793 -1.22939 0
M  V30 5607 H 515.378 0.237298 -4.20731 0
M  V30 5608 H 514.102 0.881658 -3.14475 0
M  V30 5609 H 512.761 -1.22829 -3.45411 0
M  V30 5610 H 512.409 0.723519 -4.97769 0
M  V30 5611 H 512.109 -0.817968 -5.81879 0
M  V30 5612 H 513.633 0.0692499 -6.10561 0
M  V30 5613 H 515.047 -2.07132 -5.34574 0
M  V30 5614 H 513.444 -2.85942 -5.27596 0
M  V30 5615 H 514.514 -2.92937 -3.86414 0
M  V30 5616 N 515.857 1.33968 -0.830081 0
M  V30 5617 C 517.103 1.98357 -0.422191 0
M  V30 5618 C 517.436 1.65633 1.01387 0
M  V30 5619 O 516.711 0.931648 1.70735 0
M  V30 5620 C 516.994 3.54492 -0.633043 0
M  V30 5621 C 516.847 3.96934 -2.11574 0
M  V30 5622 C 518.166 4.40039 -0.0735584 0
M  V30 5623 H 515.285 0.720544 -0.154871 0
M  V30 5624 H 517.927 1.58749 -1.04397 0
M  V30 5625 H 516.077 3.88361 -0.103775 0
M  V30 5626 H 517.749 3.73363 -2.7092 0
M  V30 5627 H 515.992 3.46984 -2.60354 0
M  V30 5628 H 516.663 5.05651 -2.21406 0
M  V30 5629 H 519.139 4.12764 -0.52585 0
M  V30 5630 H 518.015 5.48327 -0.250841 0
M  V30 5631 H 518.276 4.30124 1.02202 0
M  V30 5632 N 517.335 0.585699 1.46312 0
M  V30 5633 C 518.612 0.00542031 1.95599 0
M  V30 5634 C 518.992 -1.45619 1.52834 0
M  V30 5635 O 518.34 -2.14759 0.780446 0
M  V30 5636 C 518.55 0.180601 3.48532 0
M  V30 5637 C 519.898 0.049979 4.24571 0
M  V30 5638 O 520.922 0.109589 3.56031 0
M  V30 5639 O 519.781 -0.0832226 5.46437 0
M  V30 5640 H 516.875 -0.0481281 0.825598 0
M  V30 5641 H 519.421 0.654227 1.56582 0
M  V30 5642 H 518.193 1.19657 3.72556 0
M  V30 5643 H 517.816 -0.504498 3.94386 0
M  V30 5644 N 518.813 -1.54241 0.323641 0
M  V30 5645 C 520.062 -1.9975 -0.279806 0
M  V30 5646 C 520.375 -1.2156 -1.5324 0
M  V30 5647 O 521.581 -1.57447 -2.21185 0
M  V30 5648 C 520.037 -3.55686 -0.549115 0
M  V30 5649 C 519.645 -4.4271 0.686432 0
M  V30 5650 C 521.389 -4.09663 -1.11251 0
M  V30 5651 C 519.296 -5.90119 0.389022 0
M  V30 5652 H 518.226 -0.746177 -0.10833 0
M  V30 5653 H 520.877 -1.78248 0.435877 0
M  V30 5654 H 519.259 -3.73176 -1.32499 0
M  V30 5655 H 520.433 -4.36996 1.46188 0
M  V30 5656 H 518.748 -3.99623 1.17005 0
M  V30 5657 H 521.345 -5.17386 -1.34965 0
M  V30 5658 H 521.688 -3.61651 -2.06191 0
M  V30 5659 H 522.221 -3.95806 -0.39782 0
M  V30 5660 H 518.96 -6.42326 1.30759 0
M  V30 5661 H 518.48 -5.98785 -0.348722 0
M  V30 5662 H 520.159 -6.47 -0.0011164 0
M  V30 5663 N 520.291 -0.0518155 -1.57515 0
M  V30 5664 C 521.223 0.951542 -2.08515 0
M  V30 5665 C 522.236 1.27436 -1.01311 0
M  V30 5666 O 523.425 1.23504 -1.28876 0
M  V30 5667 C 520.525 2.27291 -2.5138 0
M  V30 5668 C 519.698 2.13191 -3.81927 0
M  V30 5669 C 518.757 3.28458 -4.11098 0
M  V30 5670 O 517.783 3.04334 -4.81009 0
M  V30 5671 N 518.985 4.52954 -3.63061 0
M  V30 5672 H 521.75 0.516242 -2.9522 0
M  V30 5673 H 519.311 0.13441 -1.61341 0
M  V30 5674 H 521.303 3.03272 -2.67971 0
M  V30 5675 H 519.873 2.62386 -1.69919 0
M  V30 5676 H 519.093 1.21798 -3.74912 0
M  V30 5677 H 520.381 2.00999 -4.67415 0
M  V30 5678 H 519.779 4.75444 -3.06545 0
M  V30 5679 H 518.336 5.26026 -3.84889 0
M  V30 5680 N 521.769 1.56035 0.221574 0
M  V30 5681 C 522.699 1.95434 1.2778 0
M  V30 5682 C 523.68 0.822564 1.48889 0
M  V30 5683 O 524.865 1.08486 1.61072 0
M  V30 5684 C 521.995 2.27102 2.62759 0
M  V30 5685 C 520.949 3.4277 2.56306 0
M  V30 5686 C 520.275 3.60043 3.95314 0
M  V30 5687 C 521.575 4.77742 2.11093 0
M  V30 5688 H 523.269 2.83912 0.950504 0
M  V30 5689 H 520.815 1.36596 0.455791 0
M  V30 5690 H 522.768 2.53256 3.36807 0
M  V30 5691 H 521.492 1.35478 2.97176 0
M  V30 5692 H 520.151 3.16664 1.84715 0
M  V30 5693 H 519.799 2.65794 4.27039 0
M  V30 5694 H 519.499 4.37841 3.91879 0
M  V30 5695 H 521.023 3.88545 4.71025 0
M  V30 5696 H 522.437 5.03102 2.74885 0
M  V30 5697 H 520.834 5.58823 2.18716 0
M  V30 5698 H 521.904 4.731 1.06321 0
M  V30 5699 N 523.247 -0.488276 1.49845 0
M  V30 5700 C 524.524 -1.24959 1.50481 0
M  V30 5701 C 524.904 -2.09735 0.239698 0
M  V30 5702 O 524.252 -2.14865 -0.777524 0
M  V30 5703 C 524.462 -2.0954 2.79095 0
M  V30 5704 C 525.81 -2.68305 3.29086 0
M  V30 5705 O 526.834 -2.19797 2.80299 0
M  V30 5706 O 525.693 -3.56643 4.14087 0
M  V30 5707 H 522.787 -0.566133 0.602845 0
M  V30 5708 H 525.333 -0.501504 1.6212 0
M  V30 5709 H 524.105 -1.46958 3.62656 0
M  V30 5710 H 523.728 -2.91517 2.70377 0
M  V30 5711 N 524.725 -1.39134 -0.740242 0
M  V30 5712 C 525.675 -1.33928 -1.84519 0
M  V30 5713 C 526.659 -0.221097 -1.59374 0
M  V30 5714 O 527.851 -0.458195 -1.70967 0
M  V30 5715 C 524.98 -1.17991 -3.22387 0
M  V30 5716 C 524.066 -2.34488 -3.53378 0
M  V30 5717 N 524.457 -3.59954 -3.5534 0
M  V30 5718 C 522.755 -2.27331 -3.83714 0
M  V30 5719 C 523.456 -4.36962 -3.83978 0
M  V30 5720 N 522.432 -3.66482 -4.01487 0
M  V30 5721 H 526.234 -2.28907 -1.84333 0
M  V30 5722 H 523.748 -1.32555 -0.938237 0
M  V30 5723 H 525.745 -1.12345 -4.01478 0
M  V30 5724 H 524.405 -0.23957 -3.23815 0
M  V30 5725 H 525.416 -3.93448 -3.36778 0
M  V30 5726 H 522.093 -1.41531 -3.92779 0
M  V30 5727 H 523.483 -5.45692 -3.92008 0
M  V30 5728 N 526.204 0.969867 -1.24223 0
M  V30 5729 C 527.154 2.04913 -0.999732 0
M  V30 5730 C 528.138 1.60795 0.0580636 0
M  V30 5731 O 529.33 1.76317 -0.155392 0
M  V30 5732 C 526.459 3.37942 -0.604154 0
M  V30 5733 C 525.545 3.88628 -1.69791 0
M  V30 5734 N 525.936 4.12274 -2.93025 0
M  V30 5735 C 524.234 4.17268 -1.57492 0
M  V30 5736 C 524.935 4.53808 -3.63914 0
M  V30 5737 N 523.911 4.58855 -2.91468 0
M  V30 5738 H 527.713 2.21168 -1.93551 0
M  V30 5739 H 525.227 1.15349 -1.14317 0
M  V30 5740 H 527.224 4.14863 -0.411665 0
M  V30 5741 H 525.884 3.23075 0.324465 0
M  V30 5742 H 526.895 3.99789 -3.29225 0
M  V30 5743 H 523.572 4.11346 -0.714175 0
M  V30 5744 H 524.962 4.80534 -4.69614 0
M  V30 5745 N 527.682 1.05563 1.17022 0
M  V30 5746 C 528.592 0.670758 2.24807 0
M  V30 5747 C 529.608 -0.309865 1.71219 0
M  V30 5748 O 530.784 -0.161025 2.00755 0
M  V30 5749 C 527.849 0.055337 3.46656 0
M  V30 5750 C 526.91 1.08688 4.15314 0
M  V30 5751 C 526.143 0.500736 5.31346 0
M  V30 5752 O 526.366 -0.688718 5.66227 0
M  V30 5753 O 525.3 1.23683 5.89055 0
M  V30 5754 H 529.126 1.56914 2.60023 0
M  V30 5755 H 526.711 0.827428 1.24395 0
M  V30 5756 H 528.593 -0.286492 4.20425 0
M  V30 5757 H 527.268 -0.816638 3.13229 0
M  V30 5758 H 526.175 1.48077 3.43546 0
M  V30 5759 H 527.508 1.93014 4.52777 0
M  V30 5760 N 529.16 -1.33526 0.837174 0
M  V30 5761 C 530.576 -1.50727 0.524743 0
M  V30 5762 C 530.776 -1.77792 -0.948279 0
M  V30 5763 O 529.832 -1.83719 -1.73216 0
M  V30 5764 C 531.145 -2.66299 1.39661 0
M  V30 5765 C 532.693 -2.80183 1.39521 0
M  V30 5766 C 533.168 -3.98815 2.25189 0
M  V30 5767 N 534.659 -4.06047 2.2289 0
M  V30 5768 C 535.394 -4.97032 2.85915 0
M  V30 5769 N 534.89 -5.93143 3.57985 0
M  V30 5770 N 536.683 -4.90015 2.75394 0
M  V30 5771 H 528.834 -1.1422 1.79074 0
M  V30 5772 H 531.097 -0.561399 0.763894 0
M  V30 5773 H 530.803 -2.52974 2.4433 0
M  V30 5774 H 530.677 -3.61663 1.07145 0
M  V30 5775 H 533.064 -2.92942 0.356253 0
M  V30 5776 H 533.145 -1.85586 1.76044 0
M  V30 5777 H 532.789 -3.86817 3.29143 0
M  V30 5778 H 532.719 -4.92654 1.86009 0
M  V30 5779 H 535.21 -3.37262 1.70478 0
M  V30 5780 H 535.523 -6.59227 4.03286 0
M  V30 5781 H 533.868 -5.93223 3.62093 0
M  V30 5782 H 537.059 -4.13894 2.18654 0
M  V30 5783 H 537.232 -5.60724 3.24796 0
M  V30 5784 N 530.638 -0.59345 -1.46 0
M  V30 5785 C 531.878 -0.0859747 -2.04219 0
M  V30 5786 C 532.242 1.25432 -1.45364 0
M  V30 5787 O 533.443 1.85168 -1.9485 0
M  V30 5788 C 531.714 -0.0324314 -3.57385 0
M  V30 5789 S 533.273 0.415908 -4.36824 0
M  V30 5790 H 530.091 -0.0426872 -0.709717 0
M  V30 5791 H 532.693 -0.788369 -1.78899 0
M  V30 5792 H 531.397 -1.01166 -3.97735 0
M  V30 5793 H 530.928 0.6924 -3.87259 0
M  V30 5794 H 532.943 1.66844 -4.67309 0
M  V30 5795 N 532.116 1.54067 -0.331816 0
M  V30 5796 C 533.393 1.92915 0.322955 0
M  V30 5797 C 533.773 1.26225 1.69205 0
M  V30 5798 O 533.121 0.408919 2.24811 0
M  V30 5799 C 533.331 3.46619 0.406946 0
M  V30 5800 C 534.679 4.19386 0.663339 0
M  V30 5801 O 535.703 3.5282 0.489536 0
M  V30 5802 O 534.562 5.37288 0.999193 0
M  V30 5803 H 531.656 0.805808 0.186016 0
M  V30 5804 H 534.202 1.65342 -0.382135 0
M  V30 5805 H 532.974 3.87354 -0.554287 0
M  V30 5806 H 532.597 3.80324 1.15929 0
M  V30 5807 N 533.594 0.0601682 1.57485 0
M  V30 5808 C 534.834 -0.615384 1.94916 0
M  V30 5809 C 535.198 -1.67475 0.938948 0
M  V30 5810 O 536.399 -2.40502 1.20051 0
M  V30 5811 C 534.67 -1.18788 3.37082 0
M  V30 5812 S 536.229 -1.88018 3.96478 0
M  V30 5813 H 533.047 -0.201821 0.681754 0
M  V30 5814 H 535.649 0.131252 1.95059 0
M  V30 5815 H 534.353 -0.404869 4.08398 0
M  V30 5816 H 533.884 -1.97114 3.40455 0
M  V30 5817 H 535.899 -3.16161 3.82435 0
M  V30 5818 N 535.072 -1.5615 -0.213296 0
M  V30 5819 C 536.321 -1.78743 -0.93455 0
M  V30 5820 C 536.634 -0.630199 -1.8517 0
M  V30 5821 O 537.84 -0.739966 -2.61222 0
M  V30 5822 C 536.296 -3.16571 -1.71203 0
M  V30 5823 C 535.904 -4.40043 -0.840617 0
M  V30 5824 C 537.648 -3.48485 -2.42401 0
M  V30 5825 C 535.555 -5.68895 -1.61592 0
M  V30 5826 H 534.485 -0.666426 -0.352692 0
M  V30 5827 H 537.136 -1.82532 -0.188227 0
M  V30 5828 H 535.518 -3.06981 -2.50157 0
M  V30 5829 H 536.692 -4.6071 -0.0910326 0
M  V30 5830 H 535.007 -4.15706 -0.240365 0
M  V30 5831 H 537.604 -4.41983 -3.00924 0
M  V30 5832 H 537.947 -2.71371 -3.15695 0
M  V30 5833 H 538.48 -3.59442 -1.7043 0
M  V30 5834 H 535.219 -6.48925 -0.926106 0
M  V30 5835 H 534.739 -5.52275 -2.33991 0
M  V30 5836 H 536.418 -6.09365 -2.17447 0
M  V30 5837 N 536.55 0.480323 -1.50102 0
M  V30 5838 C 537.79 1.24301 -1.62261 0
M  V30 5839 C 538.154 1.89452 -0.311758 0
M  V30 5840 O 539.355 2.67022 -0.308696 0
M  V30 5841 C 537.626 2.26588 -2.76392 0
M  V30 5842 S 539.185 3.11919 -3.08629 0
M  V30 5843 H 536.003 0.42215 -0.57211 0
M  V30 5844 H 538.605 0.541591 -1.87848 0
M  V30 5845 H 537.309 1.7729 -3.70131 0
M  V30 5846 H 536.84 3.01371 -2.52862 0
M  V30 5847 H 538.855 4.27598 -2.51742 0
M  V30 5848 N 538.028 1.39524 0.732853 0
M  V30 5849 C 539.253 1.40329 1.52717 0
M  V30 5850 C 539.678 0.000286574 1.881 0
M  V30 5851 O 539.036 -0.987262 1.52062 0
M  V30 5852 C 539.084 2.28464 2.78992 0
M  V30 5853 O 538.188 1.716 3.75003 0
M  V30 5854 H 537.529 0.47778 0.461109 0
M  V30 5855 H 540.059 1.83546 0.903996 0
M  V30 5856 H 540.069 2.43051 3.27705 0
M  V30 5857 H 538.744 3.30425 2.52572 0
M  V30 5858 H 537.321 1.66267 3.33781 0
M  V30 5859 N 539.506 -0.963266 1.24736 0
M  V30 5860 C 540.731 -1.74699 1.11781 0
M  V30 5861 C 541.156 -1.85267 -0.325258 0
M  V30 5862 O 540.514 -1.32681 -1.23553 0
M  V30 5863 C 540.562 -3.14322 1.76731 0
M  V30 5864 O 539.666 -3.99043 1.04109 0
M  V30 5865 H 539.007 -0.53684 0.390767 0
M  V30 5866 H 541.537 -1.20801 1.65131 0
M  V30 5867 H 541.547 -3.64824 1.82668 0
M  V30 5868 H 540.222 -3.05946 2.81726 0
M  V30 5869 H 538.799 -3.5752 1.05991 0
M  V30 5870 N 540.985 -1.06182 -1.16461 0
M  V30 5871 C 542.401 -0.785065 -1.38956 0
M  V30 5872 C 542.601 0.616103 -1.9185 0
M  V30 5873 O 541.657 1.37686 -2.11657 0
M  V30 5874 C 542.97 -1.84902 -2.37132 0
M  V30 5875 C 544.518 -1.8724 -2.50819 0
M  V30 5876 C 544.993 -2.92686 -3.52277 0
M  V30 5877 N 546.484 -2.91712 -3.59803 0
M  V30 5878 C 547.219 -3.69949 -4.38093 0
M  V30 5879 N 546.715 -4.58 -5.19815 0
M  V30 5880 N 548.508 -3.58346 -4.33064 0
M  V30 5881 H 540.659 -1.96569 -0.804634 0
M  V30 5882 H 542.922 -0.851747 -0.416211 0
M  V30 5883 H 542.628 -2.85518 -2.0536 0
M  V30 5884 H 542.502 -1.69908 -3.36766 0
M  V30 5885 H 544.889 -0.872827 -2.81897 0
M  V30 5886 H 544.97 -2.06311 -1.51226 0
M  V30 5887 H 544.614 -3.92835 -3.21937 0
M  V30 5888 H 544.544 -2.70864 -4.51598 0
M  V30 5889 H 547.035 -2.27876 -3.01464 0
M  V30 5890 H 547.348 -5.14357 -5.76764 0
M  V30 5891 H 545.693 -4.62056 -5.19162 0
M  V30 5892 H 548.884 -2.88943 -3.68279 0
M  V30 5893 H 549.057 -4.19563 -4.93833 0
M  V30 5894 N 542.463 1.3308 -0.844243 0
M  V30 5895 C 543.874 1.7992 -0.498566 0
M  V30 5896 C 544.225 1.69808 0.982834 0
M  V30 5897 O 543.35 1.25051 1.7661 0
M  V30 5898 C 543.945 3.26677 -0.898204 0
M  V30 5899 C 542.504 3.71513 -0.604583 0
M  V30 5900 C 541.651 2.54393 -1.10362 0
M  V30 5901 H 544.602 1.20526 -1.03244 0
M  V30 5902 H 544.623 3.79918 -0.21039 0
M  V30 5903 H 544.135 3.34004 -1.97643 0
M  V30 5904 H 542.236 3.69708 0.46335 0
M  V30 5905 H 542.349 4.64755 -1.16358 0
M  V30 5906 H 540.713 2.49246 -0.524273 0
M  V30 5907 H 541.496 2.6448 -2.18873 0
M  V30 5908 N 543.941 0.601185 1.45683 0
M  V30 5909 C 545.352 0.179659 1.85834 0
M  V30 5910 C 545.703 -1.26189 1.50236 0
M  V30 5911 O 544.828 -1.95587 0.925987 0
M  V30 5912 C 545.423 0.319277 3.37292 0
M  V30 5913 C 543.982 -0.0475092 3.7637 0
M  V30 5914 C 543.129 0.646692 2.69654 0
M  V30 5915 H 546.08 0.808268 1.36575 0
M  V30 5916 H 546.101 -0.4503 3.77826 0
M  V30 5917 H 545.613 1.36855 3.6317 0
M  V30 5918 H 543.714 -1.0962 3.5611 0
M  V30 5919 H 543.827 0.34168 4.7788 0
M  V30 5920 H 542.191 0.0849971 2.54558 0
M  V30 5921 H 542.974 1.69797 2.98369 0
M  V30 5922 N 545.419 -1.53889 0.339982 0
M  V30 5923 C 546.835 -1.59595 -0.0120752 0
M  V30 5924 C 547.035 -1.35605 -1.49042 0
M  V30 5925 O 546.091 -1.14856 -2.24865 0
M  V30 5926 C 547.404 -2.9774 0.420898 0
M  V30 5927 C 548.952 -3.1077 0.37294 0
M  V30 5928 C 549.427 -4.51286 0.781327 0
M  V30 5929 N 550.918 -4.57325 0.735374 0
M  V30 5930 C 551.653 -5.64194 1.02336 0
M  V30 5931 N 551.149 -6.7893 1.37933 0
M  V30 5932 N 552.942 -5.54051 0.947838 0
M  V30 5933 H 545.093 -1.67738 1.30299 0
M  V30 5934 H 547.356 -0.785385 0.530918 0
M  V30 5935 H 547.062 -3.20349 1.45152 0
M  V30 5936 H 546.936 -3.76639 -0.205721 0
M  V30 5937 H 549.323 -2.87886 -0.648505 0
M  V30 5938 H 549.404 -2.33939 1.03472 0
M  V30 5939 H 549.048 -4.74905 1.80077 0
M  V30 5940 H 548.978 -5.26511 0.0970679 0
M  V30 5941 H 551.469 -3.74931 0.472773 0
M  V30 5942 H 551.782 -7.56392 1.58402 0
M  V30 5943 H 550.127 -6.80386 1.41774 0
M  V30 5944 H 553.318 -4.63293 0.669115 0
M  V30 5945 H 553.491 -6.37246 1.17563 0
M  V30 5946 O 546.936 -0.208127 -1.60153 0
M  V30 5947 H 547.627 0.374888 -1.90038 0
M  V30 END ATOM
M  V30 BEGIN BOND
M  V30 END BOND
M  V30 END CTAB
M  END
$$$$
