drugbank_target|Q9GZR5 Elongation of very long chain fatty acids protein 4 (DB09568)
 OpenBabel12092120083D

  0  0  0     0  0            999 V3000
M  V30 BEGIN CTAB
M  V30 COUNTS 5206 5297 0 0 0
M  V30 BEGIN ATOM
M  V30 1 H -0.908 1.98254 -0.117106 0
M  V30 2 N 0 1.576 0 0
M  V30 3 C 0.933 2.03868 1.02534 0
M  V30 4 C 1.911 0.928543 1.3348 0
M  V30 5 O 3.095 1.19667 1.45644 0
M  V30 6 C 0.222 2.43627 2.35294 0
M  V30 7 C -0.732 3.65373 2.2001 0
M  V30 8 S 0.101 5.13292 1.52614 0
M  V30 9 C 1.257 5.56322 2.86805 0
M  V30 10 H 1.49 2.90518 0.631377 0
M  V30 11 H -0.977 1.52953 0.210867 0
M  V30 12 H 0.981 2.67203 3.11629 0
M  V30 13 H -0.358 1.57376 2.7183 0
M  V30 14 H -1.165 3.90944 3.18086 0
M  V30 15 H -1.563 3.418 1.51819 0
M  V30 16 H 0.729 5.58782 3.83104 0
M  V30 17 H 1.672 6.56266 2.65933 0
M  V30 18 H 2.08 4.83886 2.90714 0
M  V30 19 N 1.4781 -0.272755 1.55222 0
M  V30 20 C 2.7261 -1.00234 1.75492 0
M  V30 21 C 3.0471 -1.8681 0.5592 0
M  V30 22 O 2.3171 -1.91215 -0.425882 0
M  V30 23 H 0.8971 -0.373076 0.647166 0
M  V30 24 H 3.5591 -0.296926 1.92625 0
M  V30 25 H 2.6551 -1.63913 2.65592 0
M  V30 26 N 2.9562 -1.48159 -0.537278 0
M  V30 27 C 3.8862 -1.65029 -1.6519 0
M  V30 28 C 4.8672 -0.499281 -1.62607 0
M  V30 29 O 6.0522 -0.730972 -1.79918 0
M  V30 30 C 3.1822 -1.68303 -3.03795 0
M  V30 31 C 2.1362 -2.8283 -3.21234 0
M  V30 32 C 1.4622 -2.71189 -4.60826 0
M  V30 33 C 2.7622 -4.24211 -3.04701 0
M  V30 34 H 4.4562 -2.58341 -1.51328 0
M  V30 35 H 2.0022 -1.24325 -0.726585 0
M  V30 36 H 3.9552 -1.78693 -3.81637 0
M  V30 37 H 2.6792 -0.715635 -3.18663 0
M  V30 38 H 1.3382 -2.71983 -2.45807 0
M  V30 39 H 0.9862 -1.72435 -4.7252 0
M  V30 40 H 0.6862 -3.48035 -4.7344 0
M  V30 41 H 2.2102 -2.83537 -5.40777 0
M  V30 42 H 3.6242 -4.3593 -3.72341 0
M  V30 43 H 2.0212 -5.01998 -3.28813 0
M  V30 44 H 3.0912 -4.41184 -2.01209 0
M  V30 45 N 4.4343 0.785586 -1.36625 0
M  V30 46 C 5.3643 1.91259 -1.33949 0
M  V30 47 C 6.3453 1.68795 -0.210325 0
M  V30 48 O 7.5303 1.89854 -0.408561 0
M  V30 49 C 4.6603 3.28339 -1.13186 0
M  V30 50 C 3.6143 3.65335 -2.22967 0
M  V30 51 C 2.9403 5.00806 -1.87342 0
M  V30 52 C 4.2403 3.7352 -3.65075 0
M  V30 53 H 5.9343 1.93755 -2.28253 0
M  V30 54 H 3.4803 0.930788 -1.09874 0
M  V30 55 H 5.4333 4.06804 -1.09948 0
M  V30 56 H 4.1573 3.2624 -0.153332 0
M  V30 57 H 2.8163 2.89169 -2.25337 0
M  V30 58 H 2.4643 4.95233 -0.880545 0
M  V30 59 H 2.1643 5.26529 -2.60846 0
M  V30 60 H 3.6883 5.81687 -1.85667 0
M  V30 61 H 5.1023 4.42168 -3.64911 0
M  V30 62 H 3.4993 4.10731 -4.37516 0
M  V30 63 H 4.5693 2.74527 -3.99703 0
M  V30 64 N 5.9124 1.20967 1.01018 0
M  V30 65 C 7.1894 0.93264 1.71934 0
M  V30 66 C 7.5694 -0.55692 2.03621 0
M  V30 67 O 6.9174 -1.52035 1.7058 0
M  V30 68 C 7.1274 1.81233 2.98254 0
M  V30 69 C 8.4754 2.05804 3.71389 0
M  V30 70 O 9.4994 1.78539 3.08225 0
M  V30 71 O 8.3584 2.51888 4.84989 0
M  V30 72 H 5.4524 0.349272 0.749625 0
M  V30 73 H 7.9984 1.31871 1.06808 0
M  V30 74 H 6.7704 2.82067 2.71208 0
M  V30 75 H 6.3934 1.42674 3.7112 0
M  V30 76 N 7.3905 -1.2043 1.01659 0
M  V30 77 C 8.6155 -1.94318 0.724942 0
M  V30 78 C 9.0405 -1.74266 -0.708034 0
M  V30 79 O 8.3985 -1.03694 -1.48719 0
M  V30 80 C 8.4465 -3.44486 1.06591 0
M  V30 81 O 7.5505 -4.12017 0.177599 0
M  V30 82 H 6.8915 -0.60708 0.26898 0
M  V30 83 H 9.4215 -1.52861 1.35995 0
M  V30 84 H 9.4315 -3.95106 1.01762 0
M  V30 85 H 8.1065 -3.58404 2.10997 0
M  V30 86 H 6.6835 -3.71821 0.283421 0
M  V30 87 N 8.8686 -0.792821 -1.36206 0
M  V30 88 C 9.7786 -0.194808 -2.3379 0
M  V30 89 C 10.7946 0.654869 -1.61206 0
M  V30 90 O 11.9706 0.569856 -1.9317 0
M  V30 91 C 9.0356 0.657721 -3.40404 0
M  V30 92 C 8.0966 -0.210849 -4.28782 0
M  V30 93 C 7.3296 0.601086 -5.30304 0
M  V30 94 O 7.5526 1.83682 -5.40016 0
M  V30 95 O 6.4866 -0.000808277 -6.019 0
M  V30 96 H 10.3126 -1.00172 -2.86704 0
M  V30 97 H 7.8976 -0.554341 -1.38735 0
M  V30 98 H 9.7796 1.14375 -4.05581 0
M  V30 99 H 8.4546 1.44247 -2.89784 0
M  V30 100 H 7.3616 -0.743714 -3.66633 0
M  V30 101 H 8.6946 -0.959195 -4.82763 0
M  V30 102 N 10.3467 1.47872 -0.545128 0
M  V30 103 C 11.7577 1.86384 -0.108581 0
M  V30 104 C 12.1087 1.45309 1.31832 0
M  V30 105 O 11.2337 0.850641 1.9898 0
M  V30 106 C 11.8287 3.38265 -0.190274 0
M  V30 107 C 10.3877 3.75914 0.191164 0
M  V30 108 C 9.5347 2.71926 -0.543273 0
M  V30 109 H 12.4857 1.39561 -0.755537 0
M  V30 110 H 12.5067 3.75831 0.594217 0
M  V30 111 H 12.0187 3.6813 -1.2289 0
M  V30 112 H 10.1197 3.51665 1.23136 0
M  V30 113 H 10.2327 4.78836 -0.158987 0
M  V30 114 H 8.5967 2.54697 0.0122495 0
M  V30 115 H 9.3797 3.04634 -1.58282 0
M  V30 116 N 11.8248 0.280983 1.55075 0
M  V30 117 C 13.0728 -0.333455 1.9933 0
M  V30 118 C 13.3938 -1.55937 1.17085 0
M  V30 119 O 12.6638 -1.94143 0.261805 0
M  V30 120 H 11.2438 -0.126197 0.736263 0
M  V30 121 H 13.9058 0.387678 1.91005 0
M  V30 122 H 13.0018 -0.619292 3.05894 0
M  V30 123 N 13.3029 -1.57598 0.00835791 0
M  V30 124 C 14.5279 -1.95617 -0.689103 0
M  V30 125 C 14.9529 -0.883753 -1.66046 0
M  V30 126 O 14.3109 0.157352 -1.80616 0
M  V30 127 C 14.3589 -3.32736 -1.38994 0
M  V30 128 O 13.4629 -3.27631 -2.50463 0
M  V30 129 H 12.8039 -0.638379 -0.182668 0
M  V30 130 H 15.3339 -2.045 0.064036 0
M  V30 131 H 15.3439 -3.68494 -1.75147 0
M  V30 132 H 14.0189 -4.1034 -0.677778 0
M  V30 133 H 12.5959 -3.03561 -2.16576 0
M  V30 134 N 14.781 0.264519 -1.55364 0
M  V30 135 C 16.027 0.99646 -1.76631 0
M  V30 136 C 16.36 1.85632 -0.570478 0
M  V30 137 O 15.635 1.89647 0.43175 0
M  V30 138 C 15.918 1.87187 -3.07625 0
M  V30 139 C 15.771 1.04138 -4.37579 0
M  V30 140 C 17.09 2.85749 -3.34717 0
M  V30 141 H 14.209 0.360841 -0.642622 0
M  V30 142 H 16.851 0.268218 -1.88097 0
M  V30 143 H 15.001 2.49279 -2.9798 0
M  V30 144 H 16.673 0.440517 -4.59192 0
M  V30 145 H 14.916 0.345115 -4.32425 0
M  V30 146 H 15.587 1.68729 -5.2558 0
M  V30 147 H 18.063 2.33793 -3.4421 0
M  V30 148 H 16.939 3.44136 -4.27623 0
M  V30 149 H 17.2 3.61311 -2.54768 0
M  V30 150 N 16.2591 1.48442 0.529413 0
M  V30 151 C 17.1891 1.65902 1.64313 0
M  V30 152 C 18.1701 0.507897 1.6234 0
M  V30 153 O 19.3551 0.740503 1.79528 0
M  V30 154 C 16.4851 1.69911 3.02898 0
M  V30 155 C 15.4391 2.8453 3.19729 0
M  V30 156 C 14.7651 2.73629 4.59381 0
M  V30 157 C 16.0651 4.25821 3.02447 0
M  V30 158 H 17.7591 2.5914 1.49955 0
M  V30 159 H 15.3051 1.24709 0.719982 0
M  V30 160 H 17.2581 1.80715 3.80684 0
M  V30 161 H 15.9821 0.732524 3.18279 0
M  V30 162 H 14.6411 2.73283 2.44361 0
M  V30 163 H 14.2891 1.74938 4.71599 0
M  V30 164 H 13.9891 3.50541 4.71588 0
M  V30 165 H 15.5131 2.86401 5.39265 0
M  V30 166 H 16.9271 4.37898 3.70024 0
M  V30 167 H 15.3241 5.03735 3.26146 0
M  V30 168 H 16.3941 4.42244 1.98867 0
M  V30 169 N 17.7372 -0.778329 1.37039 0
M  V30 170 C 18.6852 -1.91278 1.32345 0
M  V30 171 C 19.6792 -1.68051 0.213331 0
M  V30 172 O 20.8852 -1.75922 0.38098 0
M  V30 173 H 17.2602 -0.628909 0.412283 0
M  V30 174 H 19.2312 -1.92355 2.28127 0
M  V30 175 C 17.9802 -3.28455 1.14073 0
M  V30 176 H 17.3032 -3.46901 1.98746 0
M  V30 177 H 18.7432 -4.08152 1.14837 0
M  V30 178 C 17.2022 -3.36548 -0.154015 0
M  V30 179 O 17.7322 -3.85186 -1.13993 0
M  V30 180 N 15.9382 -2.89894 -0.202475 0
M  V30 181 H 15.4852 -2.50504 0.600476 0
M  V30 182 H 15.4432 -2.9569 -1.06841 0
M  V30 183 N 19.2153 -1.21501 -1.00376 0
M  V30 184 C 20.4613 -1.03452 -1.74429 0
M  V30 185 C 20.7943 0.430764 -1.89362 0
M  V30 186 O 20.0693 1.31962 -1.42886 0
M  V30 187 C 20.3523 -1.73375 -3.15615 0
M  V30 188 C 20.2053 -3.27431 -3.08397 0
M  V30 189 C 21.5243 -1.47732 -4.14564 0
M  V30 190 H 18.6433 -0.377226 -0.633143 0
M  V30 191 H 21.2853 -1.49693 -1.17013 0
M  V30 192 H 19.4353 -1.34064 -3.64636 0
M  V30 193 H 21.1073 -3.76119 -2.67081 0
M  V30 194 H 19.3503 -3.5767 -2.45468 0
M  V30 195 H 20.0213 -3.71524 -4.08258 0
M  V30 196 H 22.4973 -1.8186 -3.74254 0
M  V30 197 H 21.3733 -1.99169 -5.11491 0
M  V30 198 H 21.6343 -0.407589 -4.40217 0
M  V30 199 N 20.6934 1.19889 -1.02296 0
M  V30 200 C 21.9394 1.89701 -0.717033 0
M  V30 201 C 22.2724 1.7905 0.751989 0
M  V30 202 O 21.5474 1.17891 1.547 0
M  V30 203 C 21.8304 3.40858 -1.16136 0
M  V30 204 C 21.6834 3.60411 -2.69117 0
M  V30 205 C 23.0024 4.33876 -0.737549 0
M  V30 206 H 20.1214 0.688874 -0.261957 0
M  V30 207 H 22.7634 1.41154 -1.27183 0
M  V30 208 H 20.9134 3.82335 -0.689342 0
M  V30 209 H 22.5854 3.28145 -3.2422 0
M  V30 210 H 20.8284 3.03665 -3.0979 0
M  V30 211 H 21.4994 4.66396 -2.95261 0
M  V30 212 H 23.9754 4.00081 -1.14344 0
M  V30 213 H 22.8514 5.38242 -1.0764 0
M  V30 214 H 23.1124 4.40628 0.360436 0
M  V30 215 N 22.1715 0.800033 1.35784 0
M  V30 216 C 23.3965 0.388511 2.03729 0
M  V30 217 C 23.8215 -0.990481 1.5991 0
M  V30 218 O 23.1795 -1.64013 0.772612 0
M  V30 219 C 23.2275 0.4726 3.5749 0
M  V30 220 O 22.3315 -0.51646 4.09153 0
M  V30 221 H 21.6725 0.163271 0.643614 0
M  V30 222 H 24.2025 1.0841 1.73518 0
M  V30 223 H 24.2125 0.34003 4.06581 0
M  V30 224 H 22.8875 1.47848 3.88734 0
M  V30 225 H 21.4645 -0.344673 3.71304 0
M  V30 226 N 23.6496 -1.47581 0.552962 0
M  V30 227 C 24.8776 -2.06875 0.0320556 0
M  V30 228 C 25.2926 -1.40625 -1.25976 0
M  V30 229 O 24.6496 -0.501349 -1.75479 0
M  V30 230 C 24.7006 -3.61092 -0.17167 0
M  V30 231 O 24.4216 -4.24858 1.06899 0
M  V30 232 C 25.9226 -4.37242 -0.730344 0
M  V30 233 H 23.1426 -0.669561 0.043915 0
M  V30 234 H 25.6866 -1.89646 0.765163 0
M  V30 235 H 23.8416 -3.7785 -0.854894 0
M  V30 236 H 24.2556 -5.17334 0.864059 0
M  V30 237 H 25.7296 -5.45842 -0.822203 0
M  V30 238 H 26.2066 -4.03235 -1.74064 0
M  V30 239 H 26.8126 -4.25219 -0.0829543 0
M  V30 240 N 25.1277 -0.289203 -1.54924 0
M  V30 241 C 26.0907 0.579144 -2.21762 0
M  V30 242 C 27.0907 1.07047 -1.1999 0
M  V30 243 O 28.2807 0.968384 -1.44803 0
M  V30 244 C 25.4127 1.80055 -2.8947 0
M  V30 245 H 26.6057 -0.00464908 -2.999 0
M  V30 246 H 24.1587 -0.0399306 -1.56249 0
M  V30 247 H 24.8937 2.42449 -2.15381 0
M  V30 248 H 24.6787 1.45602 -3.64064 0
M  V30 249 H 26.1687 2.41773 -3.40493 0
M  V30 250 N 26.6058 1.57591 -0.0167156 0
M  V30 251 C 27.5358 2.12496 0.967858 0
M  V30 252 C 28.5168 1.03807 1.34752 0
M  V30 253 O 29.7018 1.31577 1.42833 0
M  V30 254 C 26.8318 2.64194 2.25431 0
M  V30 255 C 25.7858 3.77559 2.01576 0
M  V30 256 C 25.1118 4.15636 3.36379 0
M  V30 257 C 26.4118 5.04151 1.36489 0
M  V30 258 H 28.1058 2.95013 0.510643 0
M  V30 259 H 25.6518 1.41915 0.244181 0
M  V30 260 H 27.6048 3.01236 2.94678 0
M  V30 261 H 26.3288 1.78821 2.73296 0
M  V30 262 H 24.9878 3.40937 1.34751 0
M  V30 263 H 24.6358 3.27263 3.81979 0
M  V30 264 H 24.3358 4.92022 3.21229 0
M  V30 265 H 25.8598 4.5525 4.06915 0
M  V30 266 H 27.2738 5.38857 1.95718 0
M  V30 267 H 25.6708 5.85453 1.31776 0
M  V30 268 H 26.7408 4.83733 0.336219 0
M  V30 269 N 28.0839 -0.256276 1.55502 0
M  V30 270 C 29.0319 -1.33694 1.90338 0
M  V30 271 C 30.0259 -1.50299 0.781441 0
M  V30 272 O 31.2319 -1.51885 0.965966 0
M  V30 273 H 27.6069 -0.447483 0.60437 0
M  V30 274 H 29.5779 -1.01574 2.8058 0
M  V30 275 C 28.3269 -2.68724 2.20642 0
M  V30 276 H 27.6499 -2.56743 3.06469 0
M  V30 277 H 29.0899 -3.43237 2.48926 0
M  V30 278 C 27.5489 -3.21101 1.01959 0
M  V30 279 O 28.0789 -4.0084 0.262762 0
M  V30 280 N 26.2849 -2.79003 0.812746 0
M  V30 281 H 25.8319 -2.14271 1.42989 0
M  V30 282 H 25.7899 -3.14393 0.0203076 0
M  V30 283 N 29.562 -1.4872 -0.521534 0
M  V30 284 C 30.839 -1.4766 -1.2828 0
M  V30 285 C 31.219 -0.19292 -2.10217 0
M  V30 286 O 30.567 0.825193 -2.13079 0
M  V30 287 C 30.777 -2.74358 -2.15705 0
M  V30 288 C 32.125 -3.23028 -2.75569 0
M  V30 289 O 33.149 -2.75333 -2.25987 0
M  V30 290 O 32.008 -4.0604 -3.65778 0
M  V30 291 H 29.102 -0.590085 -0.579421 0
M  V30 292 H 31.648 -1.60963 -0.537492 0
M  V30 293 H 30.42 -3.59292 -1.54999 0
M  V30 294 H 30.043 -2.63816 -2.97467 0
M  V30 295 N 31.0401 0.771051 -1.3745 0
M  V30 296 C 32.2681 1.56015 -1.35893 0
M  V30 297 C 32.6831 1.88718 0.0555523 0
M  V30 298 O 32.0401 1.51502 1.01752 0
M  V30 299 C 32.0911 2.87001 -2.19801 0
M  V30 300 O 31.8121 2.557 -3.55738 0
M  V30 301 C 33.3131 3.81228 -2.26231 0
M  V30 302 H 30.5331 0.483317 -0.465453 0
M  V30 303 H 33.0771 0.955611 -1.80799 0
M  V30 304 H 31.2321 3.43877 -1.78402 0
M  V30 305 H 31.6461 3.39584 -3.99729 0
M  V30 306 H 33.1201 4.70139 -2.89263 0
M  V30 307 H 33.5971 4.20409 -1.27093 0
M  V30 308 H 34.2031 3.30281 -2.67945 0
M  V30 309 N 32.5182 1.22032 0.997298 0
M  V30 310 C 33.7642 1.04376 1.73878 0
M  V30 311 C 34.0972 -0.420716 1.89588 0
M  V30 312 O 33.3722 -1.31202 1.43583 0
M  V30 313 C 33.6552 1.75047 3.14691 0
M  V30 314 C 33.5082 3.29062 3.06656 0
M  V30 315 C 34.8272 1.49928 4.13775 0
M  V30 316 H 31.9462 0.380578 0.631133 0
M  V30 317 H 34.5882 1.50312 1.16217 0
M  V30 318 H 32.7382 1.35996 3.63919 0
M  V30 319 H 34.4102 3.7753 2.65083 0
M  V30 320 H 32.6532 3.58967 2.43568 0
M  V30 321 H 33.3242 3.73683 4.06282 0
M  V30 322 H 35.8002 1.83842 3.73285 0
M  V30 323 H 34.6762 2.01878 5.10428 0
M  V30 324 H 34.9372 0.430929 4.39995 0
M  V30 325 N 33.9963 -1.19345 1.0293 0
M  V30 326 C 34.9063 -2.26245 0.620515 0
M  V30 327 C 35.9223 -1.70486 -0.347928 0
M  V30 328 O 37.0983 -2.00347 -0.205704 0
M  V30 329 C 34.1633 -3.46693 -0.0218957 0
M  V30 330 C 33.2243 -4.17632 0.994102 0
M  V30 331 C 32.4573 -5.32329 0.382253 0
M  V30 332 O 32.6803 -5.64552 -0.814676 0
M  V30 333 O 31.6143 -5.91664 1.10531 0
M  V30 334 H 35.4403 -2.63453 1.51083 0
M  V30 335 H 33.0253 -1.26207 0.799513 0
M  V30 336 H 34.9073 -4.19683 -0.380072 0
M  V30 337 H 33.5823 -3.11333 -0.886209 0
M  V30 338 H 32.4893 -3.4676 1.40387 0
M  V30 339 H 33.8223 -4.56964 1.8288 0
M  V30 340 N 35.4744 -0.807222 -1.35358 0
M  V30 341 C 36.7214 -0.387888 -1.9875 0
M  V30 342 C 37.0494 1.04509 -1.64037 0
M  V30 343 O 36.3044 1.73986 -0.895946 0
M  V30 344 C 36.6034 -0.519036 -3.53611 0
M  V30 345 C 36.2694 -1.91542 -4.08194 0
M  V30 346 C 34.9314 -2.29745 -4.22813 0
M  V30 347 C 37.2834 -2.82896 -4.37744 0
M  V30 348 C 34.6114 -3.58668 -4.643 0
M  V30 349 C 36.9634 -4.11265 -4.8067 0
M  V30 350 C 35.6274 -4.49466 -4.93494 0
M  V30 351 H 34.8974 -0.141938 -0.727279 0
M  V30 352 H 37.5444 -1.02814 -1.6156 0
M  V30 353 H 35.8494 0.204658 -3.91265 0
M  V30 354 H 37.5464 -0.175345 -4.00616 0
M  V30 355 H 34.1364 -1.60862 -3.97268 0
M  V30 356 H 38.3204 -2.54629 -4.26002 0
M  V30 357 H 33.5764 -3.88113 -4.72418 0
M  V30 358 H 37.7504 -4.82153 -5.02496 0
M  V30 359 H 35.3774 -5.49418 -5.25399 0
M  V30 360 N 36.9525 1.47285 -0.560781 0
M  V30 361 C 38.1825 2.06555 -0.0429638 0
M  V30 362 C 38.5905 1.41339 1.25777 0
M  V30 363 O 37.9335 0.505182 1.76617 0
M  V30 364 C 37.9955 3.58827 0.219887 0
M  V30 365 C 37.6595 4.46105 -0.991944 0
M  V30 366 C 38.6565 4.84 -1.89843 0
M  V30 367 C 36.3415 4.87567 -1.20762 0
M  V30 368 C 38.3355 5.6216 -3.00425 0
M  V30 369 C 36.0225 5.65491 -2.31653 0
M  V30 370 C 37.0205 6.02699 -3.21315 0
M  V30 371 O 36.7085 6.79052 -4.30283 0
M  V30 372 H 36.4405 0.674537 -0.0444468 0
M  V30 373 H 38.9945 1.90225 -0.774818 0
M  V30 374 H 37.2245 3.73383 1.00609 0
M  V30 375 H 38.9135 4.00103 0.683522 0
M  V30 376 H 39.6795 4.52564 -1.74387 0
M  V30 377 H 35.5585 4.5807 -0.518893 0
M  V30 378 H 39.1025 5.9112 -3.70436 0
M  V30 379 H 34.9995 5.9634 -2.47081 0
M  V30 380 H 35.7675 6.9745 -4.28376 0
M  V30 381 N 38.4306 0.297415 1.54768 0
M  V30 382 C 39.8466 -0.0560823 1.59501 0
M  V30 383 C 40.0466 -1.52725 1.31444 0
M  V30 384 O 39.1026 -2.27947 1.08611 0
M  V30 385 C 40.4156 0.338631 2.98787 0
M  V30 386 C 41.9636 0.287097 3.11681 0
M  V30 387 C 42.4386 0.656579 4.53269 0
M  V30 388 N 43.9296 0.608977 4.59179 0
M  V30 389 C 44.6646 0.867385 5.66802 0
M  V30 390 N 44.1606 1.19157 6.82476 0
M  V30 391 N 45.9536 0.794687 5.56454 0
M  V30 392 H 38.1046 1.25624 1.71267 0
M  V30 393 H 40.3676 0.509057 0.799728 0
M  V30 394 H 40.0736 1.36263 3.2423 0
M  V30 395 H 39.9476 -0.309508 3.75928 0
M  V30 396 H 42.3346 -0.727649 2.85988 0
M  V30 397 H 42.4156 0.969809 2.36703 0
M  V30 398 H 42.0596 1.66912 4.7969 0
M  V30 399 H 41.9896 -0.0481649 5.26578 0
M  V30 400 H 44.4806 0.369198 3.76092 0
M  V30 401 H 44.7936 1.37482 7.60473 0
M  V30 402 H 43.1386 1.22958 6.84037 0
M  V30 403 H 46.3296 0.541098 4.64962 0
M  V30 404 H 46.5026 0.999445 6.40246 0
M  V30 405 N 39.9087 -1.5758 0.0250728 0
M  V30 406 C 41.1547 -1.92746 -0.649648 0
M  V30 407 C 41.5097 -0.901588 -1.69968 0
M  V30 408 O 40.8027 0.0829251 -1.9142 0
M  V30 409 C 40.9967 -3.32421 -1.31268 0
M  V30 410 C 40.8257 -4.48499 -0.328394 0
M  V30 411 C 39.5957 -5.05251 0.070284 0
M  V30 412 C 41.7937 -5.12618 0.415665 0
M  V30 413 N 39.7757 -6.04851 1.05016 0
M  V30 414 C 41.1467 -6.0728 1.24943 0
M  V30 415 C 43.2017 -4.95612 0.476803 0
M  V30 416 C 41.9047 -6.86766 2.1388 0
M  V30 417 C 43.9307 -5.75703 1.3535 0
M  V30 418 C 43.2927 -6.69978 2.17504 0
M  V30 419 H 39.3917 -0.753231 -0.210159 0
M  V30 420 H 41.9757 -1.94486 0.0912999 0
M  V30 421 H 40.1467 -3.31508 -2.02379 0
M  V30 422 H 41.8787 -3.54946 -1.94411 0
M  V30 423 H 38.6337 -4.72628 -0.303323 0
M  V30 424 H 39.0577 -6.5934 1.53622 0
M  V30 425 H 43.6997 -4.22554 -0.144105 0
M  V30 426 H 41.4177 -7.59132 2.77027 0
M  V30 427 H 45.0037 -5.64579 1.40504 0
M  V30 428 H 43.8837 -7.30873 2.84244 0
M  V30 429 N 41.3868 0.248026 -1.55636 0
M  V30 430 C 42.6148 0.993808 -1.81469 0
M  V30 431 C 43.0298 1.78991 -0.60064 0
M  V30 432 O 42.3868 1.77345 0.430682 0
M  V30 433 C 42.4378 1.93258 -3.05506 0
M  V30 434 O 42.1588 1.16869 -4.22224 0
M  V30 435 C 43.6598 2.79444 -3.4413 0
M  V30 436 H 40.8798 0.292486 -0.603898 0
M  V30 437 H 43.4238 0.271253 -2.02693 0
M  V30 438 H 41.5788 2.60943 -2.86335 0
M  V30 439 H 41.9928 1.80359 -4.92515 0
M  V30 440 H 43.4668 3.41066 -4.34026 0
M  V30 441 H 43.9438 3.50499 -2.64665 0
M  V30 442 H 44.5498 2.17214 -3.65648 0
M  V30 443 N 42.8649 1.48995 0.513639 0
M  V30 444 C 44.1109 1.59053 1.26783 0
M  V30 445 C 44.4659 0.268136 1.90522 0
M  V30 446 O 43.7589 -0.730534 1.77126 0
M  V30 447 C 43.9529 2.67756 2.36731 0
M  V30 448 C 43.7819 4.10437 1.83771 0
M  V30 449 C 42.5519 4.7738 1.65639 0
M  V30 450 C 44.7499 4.9608 1.35681 0
M  V30 451 N 42.7319 6.04419 1.07476 0
M  V30 452 C 44.1029 6.13496 0.895715 0
M  V30 453 C 46.1579 4.82177 1.24136 0
M  V30 454 C 44.8609 7.1854 0.3306 0
M  V30 455 C 46.8869 5.87358 0.690229 0
M  V30 456 C 46.2489 7.03993 0.239292 0
M  V30 457 H 42.3479 0.636463 0.454355 0
M  V30 458 H 44.9319 1.85948 0.577196 0
M  V30 459 H 43.1029 2.42655 3.03271 0
M  V30 460 H 44.8349 2.67406 3.0377 0
M  V30 461 H 41.5899 4.33974 1.8964 0
M  V30 462 H 42.0139 6.72214 0.803579 0
M  V30 463 H 46.6559 3.92329 1.57601 0
M  V30 464 H 44.3739 8.08098 -0.0163435 0
M  V30 465 H 47.9599 5.78658 0.603852 0
M  V30 466 H 46.8399 7.83992 -0.180526 0
M  V30 467 N 44.343 -0.763751 1.37857 0
M  V30 468 C 45.568 -1.55805 1.36893 0
M  V30 469 C 45.993 -1.88054 -0.0416135 0
M  V30 470 O 45.351 -1.49825 -1.02089 0
M  V30 471 C 45.399 -2.84012 2.22192 0
M  V30 472 O 44.503 -3.78732 1.63204 0
M  V30 473 H 43.844 -0.471638 0.46739 0
M  V30 474 H 46.374 -0.944657 1.81487 0
M  V30 475 H 46.384 -3.33037 2.35691 0
M  V30 476 H 45.059 -2.59869 3.24716 0
M  V30 477 H 43.636 -3.37402 1.58791 0
M  V30 478 N 45.8211 -1.22559 -0.990812 0
M  V30 479 C 47.0701 -1.04553 -1.72486 0
M  V30 480 C 47.3831 0.419349 -1.91052 0
M  V30 481 O 48.5891 0.719121 -2.61803 0
M  V30 482 C 47.0451 -1.82231 -3.10355 0
M  V30 483 C 46.6531 -3.32981 -2.99713 0
M  V30 484 C 48.3971 -1.7268 -3.87791 0
M  V30 485 C 46.3041 -4.03091 -4.32748 0
M  V30 486 H 45.2341 -0.387614 -0.646739 0
M  V30 487 H 47.8851 -1.46429 -1.10593 0
M  V30 488 H 46.2671 -1.33155 -3.72942 0
M  V30 489 H 47.4411 -3.89466 -2.46278 0
M  V30 490 H 45.7561 -3.43231 -2.35758 0
M  V30 491 H 48.3531 -2.22381 -4.86262 0
M  V30 492 H 48.6961 -0.687607 -4.10582 0
M  V30 493 H 49.2291 -2.1931 -3.31885 0
M  V30 494 H 45.9681 -5.07273 -4.15156 0
M  V30 495 H 45.4881 -3.51394 -4.86089 0
M  V30 496 H 47.1671 -4.08804 -5.01486 0
M  V30 497 N 47.2992 1.18797 -1.03562 0
M  V30 498 C 48.2622 2.20464 -0.626769 0
M  V30 499 C 49.2622 1.57721 0.313173 0
M  V30 500 O 50.4522 1.73917 0.0992615 0
M  V30 501 C 47.5842 3.40802 0.0818498 0
M  V30 502 H 48.7772 2.58149 -1.5264 0
M  V30 503 H 46.3302 1.32593 -0.827578 0
M  V30 504 H 47.0652 3.08642 0.995518 0
M  V30 505 H 46.8502 3.8758 -0.593652 0
M  V30 506 H 48.3402 4.16092 0.354584 0
M  V30 507 N 48.7773 0.814389 1.34928 0
M  V30 508 C 50.0543 0.321363 1.92942 0
M  V30 509 C 50.4343 -1.19014 1.74353 0
M  V30 510 O 49.7823 -1.99328 1.11716 0
M  V30 511 C 49.9923 0.741323 3.41036 0
M  V30 512 C 51.3403 0.735266 4.18185 0
M  V30 513 O 52.3643 0.68336 3.49584 0
M  V30 514 O 51.2233 0.800703 5.40602 0
M  V30 515 H 48.3173 0.0858893 0.822528 0
M  V30 516 H 50.8633 0.898609 1.43955 0
M  V30 517 H 49.6353 1.78276 3.4833 0
M  V30 518 H 49.2583 0.139307 3.97356 0
M  V30 519 N 50.2554 -1.46986 0.568584 0
M  V30 520 C 51.2024 -2.30153 -0.172707 0
M  V30 521 C 52.1724 -1.39759 -0.897586 0
M  V30 522 O 53.3574 -1.68716 -0.891044 0
M  V30 523 C 50.4974 -3.23952 -1.1895 0
M  V30 524 C 49.6104 -4.29441 -0.469517 0
M  V30 525 C 48.7454 -5.1038 -1.47259 0
M  V30 526 C 47.7844 -6.07632 -0.738225 0
M  V30 527 N 46.9214 -6.8149 -1.68868 0
M  V30 528 H 51.7614 -2.93019 0.542596 0
M  V30 529 H 49.2984 -1.44422 0.279401 0
M  V30 530 H 51.2564 -3.76767 -1.79173 0
M  V30 531 H 49.8864 -2.62926 -1.87269 0
M  V30 532 H 48.9384 -3.79594 0.247467 0
M  V30 533 H 50.2504 -4.98689 0.105241 0
M  V30 534 H 49.4044 -5.67402 -2.14803 0
M  V30 535 H 48.1434 -4.4106 -2.08128 0
M  V30 536 H 47.1484 -5.49778 -0.0489293 0
M  V30 537 H 48.3734 -6.78966 -0.135129 0
M  V30 538 H 46.3194 -6.14891 -2.28573 0
M  V30 539 H 46.2364 -7.46948 -1.16636 0
M  V30 540 H 47.5044 -7.43078 -2.3549 0
M  V30 541 N 51.7335 -0.305618 -1.54608 0
M  V30 542 C 53.1495 0.0476228 -1.59529 0
M  V30 543 C 53.3495 1.52025 -1.32252 0
M  V30 544 O 52.4055 2.27368 -1.09818 0
M  V30 545 C 53.7185 -0.354471 -2.98603 0
M  V30 546 C 55.2665 -0.303622 -3.11524 0
M  V30 547 C 55.7415 -0.680608 -4.52915 0
M  V30 548 N 57.2325 -0.63332 -4.5885 0
M  V30 549 C 57.9675 -0.897432 -5.66334 0
M  V30 550 N 57.4635 -1.22775 -6.81834 0
M  V30 551 N 59.2565 -0.824186 -5.56025 0
M  V30 552 H 51.4075 -1.2653 -1.70599 0
M  V30 553 H 53.6705 -0.513291 -0.797017 0
M  V30 554 H 53.3765 -1.3798 -3.23503 0
M  V30 555 H 53.2505 0.289568 -3.76087 0
M  V30 556 H 55.6375 0.712472 -2.8637 0
M  V30 557 H 55.7185 -0.982348 -2.36185 0
M  V30 558 H 55.3625 -1.69453 -4.78799 0
M  V30 559 H 55.2925 0.0202385 -5.26596 0
M  V30 560 H 57.7835 -0.389138 -3.75891 0
M  V30 561 H 58.0965 -1.41513 -7.59733 0
M  V30 562 H 56.4415 -1.26583 -6.83375 0
M  V30 563 H 59.6325 -0.565748 -4.64669 0
M  V30 564 H 59.8055 -1.03338 -6.39707 0
M  V30 565 N 53.2116 1.57565 -0.0334293 0
M  V30 566 C 54.4576 1.92262 0.645226 0
M  V30 567 C 54.7906 0.910543 1.71531 0
M  V30 568 O 54.0656 -0.066099 1.94388 0
M  V30 569 C 54.3486 3.37422 1.2577 0
M  V30 570 C 54.2016 4.49369 0.196891 0
M  V30 571 C 55.5206 3.82628 2.17449 0
M  V30 572 H 52.6396 0.699171 0.233085 0
M  V30 573 H 55.2816 1.89779 -0.0915694 0
M  V30 574 H 53.4316 3.39669 1.88566 0
M  V30 575 H 55.1036 4.59254 -0.433962 0
M  V30 576 H 53.3466 4.31168 -0.477137 0
M  V30 577 H 54.0176 5.47978 0.665124 0
M  V30 578 H 56.4936 3.82145 1.64634 0
M  V30 579 H 55.3696 4.84883 2.57254 0
M  V30 580 H 55.6306 3.18376 3.0674 0
M  V30 581 N 54.6897 -0.239769 1.55765 0
M  V30 582 C 55.5997 -1.31831 1.94056 0
M  V30 583 C 56.6157 -1.52275 0.841925 0
M  V30 584 O 57.7917 -1.65759 1.14394 0
M  V30 585 C 54.8567 -2.65156 2.23368 0
M  V30 586 C 53.9177 -2.53173 3.46701 0
M  V30 587 C 53.1507 -3.8014 3.74606 0
M  V30 588 O 53.3737 -4.82343 3.04469 0
M  V30 589 O 52.3077 -3.78344 4.68123 0
M  V30 590 H 56.1337 -1.02347 2.85935 0
M  V30 591 H 53.7187 -0.441123 1.42739 0
M  V30 592 H 55.6007 -3.43929 2.43497 0
M  V30 593 H 54.2757 -2.94358 1.34666 0
M  V30 594 H 53.1827 -1.72662 3.31871 0
M  V30 595 H 54.5157 -2.28915 4.35728 0
M  V30 596 N 56.1678 -1.49265 -0.50573 0
M  V30 597 C 57.1158 -1.66065 -1.62866 0
M  V30 598 C 58.1098 -0.526636 -1.61006 0
M  V30 599 O 59.3158 -0.706126 -1.65571 0
M  V30 600 H 55.6908 -0.52356 -0.539805 0
M  V30 601 H 57.6618 -2.60329 -1.45848 0
M  V30 602 C 56.4108 -1.74008 -3.01026 0
M  V30 603 H 55.7338 -2.6064 -3.03161 0
M  V30 604 H 57.1738 -1.89798 -3.79147 0
M  V30 605 C 55.6328 -0.483868 -3.33407 0
M  V30 606 O 56.1628 0.392548 -3.99777 0
M  V30 607 N 54.3688 -0.348236 -2.88506 0
M  V30 608 H 53.9158 -1.06242 -2.34671 0
M  V30 609 H 53.8738 0.491204 -3.10539 0
M  V30 610 N 57.6459 0.756429 -1.3826 0
M  V30 611 C 58.8919 1.5168 -1.35517 0
M  V30 612 C 59.2469 1.9232 0.0554451 0
M  V30 613 O 58.5399 1.62352 1.01746 0
M  V30 614 C 58.7339 2.78313 -2.24224 0
M  V30 615 C 58.5629 2.50053 -3.7377 0
M  V30 616 C 57.3329 2.43414 -4.42807 0
M  V30 617 C 59.5309 2.1702 -4.66269 0
M  V30 618 N 57.5129 2.07398 -5.77805 0
M  V30 619 C 58.8839 1.91271 -5.89759 0
M  V30 620 C 60.9389 2.03305 -4.54501 0
M  V30 621 C 59.6419 1.53192 -7.02798 0
M  V30 622 C 61.6679 1.66627 -5.67441 0
M  V30 623 C 61.0299 1.4175 -6.8999 0
M  V30 624 H 57.1289 0.554735 -0.551174 0
M  V30 625 H 59.7129 0.881106 -1.73622 0
M  V30 626 H 57.8839 3.39696 -1.88311 0
M  V30 627 H 59.6159 3.44343 -2.12627 0
M  V30 628 H 56.3709 2.59789 -3.95988 0
M  V30 629 H 56.7949 1.92044 -6.4919 0
M  V30 630 H 61.4369 2.21215 -3.60311 0
M  V30 631 H 59.1549 1.34022 -7.96909 0
M  V30 632 H 62.7409 1.56652 -5.60314 0
M  V30 633 H 61.6209 1.1379 -7.759 0
M  V30 634 N 59.124 1.23083 0.984299 0
M  V30 635 C 60.535 1.05609 1.5396 0
M  V30 636 C 60.886 -0.377793 1.92528 0
M  V30 637 O 60.011 -1.26398 1.75649 0
M  V30 638 C 60.606 1.91087 2.7977 0
M  V30 639 C 59.165 1.77885 3.31713 0
M  V30 640 C 58.312 1.87028 2.04733 0
M  V30 641 H 61.263 1.36802 0.804419 0
M  V30 642 H 61.284 1.43336 3.5247 0
M  V30 643 H 60.796 2.9544 2.51668 0
M  V30 644 H 58.897 0.762995 3.64704 0
M  V30 645 H 59.01 2.61047 4.01735 0
M  V30 646 H 57.374 1.30565 2.18689 0
M  V30 647 H 58.157 2.92929 1.79017 0
M  V30 648 N 60.6021 -1.18246 1.0419 0
M  V30 649 C 61.5321 -2.24127 0.654914 0
M  V30 650 C 62.5131 -1.66617 -0.342451 0
M  V30 651 O 63.6981 -1.92924 -0.222277 0
M  V30 652 C 60.8281 -3.47295 0.0183757 0
M  V30 653 C 59.7821 -4.17563 0.939414 0
M  V30 654 C 59.1081 -5.34438 0.167286 0
M  V30 655 C 60.4081 -4.70917 2.25908 0
M  V30 656 H 62.1021 -2.56753 1.54007 0
M  V30 657 H 59.6481 -1.23414 0.74195 0
M  V30 658 H 61.6011 -4.20572 -0.264082 0
M  V30 659 H 60.3251 -3.13907 -0.901664 0
M  V30 660 H 58.9841 -3.46186 1.20628 0
M  V30 661 H 58.6321 -4.97298 -0.7552 0
M  V30 662 H 58.3321 -5.82388 0.780901 0
M  V30 663 H 59.8561 -6.10504 -0.108125 0
M  V30 664 H 61.2701 -5.35882 2.03724 0
M  V30 665 H 59.6671 -5.29406 2.82577 0
M  V30 666 H 60.7371 -3.88272 2.9047 0
M  V30 667 N 62.0802 -0.821533 -1.34494 0
M  V30 668 C 63.0132 -0.187704 -2.27427 0
M  V30 669 C 63.9912 0.65507 -1.48821 0
M  V30 670 O 65.1752 0.619111 -1.78043 0
M  V30 671 C 62.3022 0.737996 -3.30562 0
M  V30 672 C 61.3482 -0.0270713 -4.26491 0
M  V30 673 S 62.1812 -1.37329 -5.17592 0
M  V30 674 C 63.3372 -0.452427 -6.24263 0
M  V30 675 H 63.5702 -0.975598 -2.80837 0
M  V30 676 H 61.1032 -0.61736 -1.4152 0
M  V30 677 H 63.0612 1.26654 -3.90473 0
M  V30 678 H 61.7222 1.4994 -2.76001 0
M  V30 679 H 60.9152 0.6766 -4.99438 0
M  V30 680 H 60.5172 -0.48612 -3.70827 0
M  V30 681 H 62.8092 0.356557 -6.76561 0
M  V30 682 H 63.7522 -1.15153 -6.98674 0
M  V30 683 H 64.1602 -0.0414755 -5.64485 0
M  V30 684 N 63.5583 1.46682 -0.576371 0
M  V30 685 C 64.4903 2.28341 0.198231 0
M  V30 686 C 65.5033 1.38141 0.861453 0
M  V30 687 O 66.6923 1.62797 0.732082 0
M  V30 688 C 63.7923 3.12986 1.29972 0
M  V30 689 C 62.9653 4.31271 0.729639 0
M  V30 690 C 62.0243 4.97363 1.71803 0
M  V30 691 O 61.0503 5.55156 1.25658 0
M  V30 692 N 62.2523 4.93796 3.05198 0
M  V30 693 H 65.0173 2.9546 -0.502324 0
M  V30 694 H 62.5783 1.56525 -0.413715 0
M  V30 695 H 64.5703 3.54066 1.96008 0
M  V30 696 H 63.1403 2.47984 1.90323 0
M  V30 697 H 62.3603 3.94052 -0.108012 0
M  V30 698 H 63.6483 5.07739 0.328438 0
M  V30 699 H 63.0463 4.48077 3.45317 0
M  V30 700 H 61.6033 5.38837 3.6674 0
M  V30 701 N 65.0364 0.313813 1.54444 0
M  V30 702 C 66.2614 -0.296681 2.05267 0
M  V30 703 C 66.6864 -1.45757 1.18897 0
M  V30 704 O 66.0444 -1.80239 0.195886 0
M  V30 705 C 66.0924 -0.71831 3.53373 0
M  V30 706 O 65.1964 -1.82175 3.69981 0
M  V30 707 H 64.5374 -0.0554061 0.661684 0
M  V30 708 H 67.0674 0.459387 1.99376 0
M  V30 709 H 67.0774 -1.00364 3.95463 0
M  V30 710 H 65.7524 0.130821 4.15694 0
M  V30 711 H 64.3294 -1.53598 3.39797 0
M  V30 712 N 66.5145 -1.57545 0.0417849 0
M  V30 713 C 67.9255 -1.80011 -0.495259 0
M  V30 714 C 68.2765 -0.953199 -1.71489 0
M  V30 715 O 67.4015 -0.167138 -2.15754 0
M  V30 716 C 67.9965 -3.26482 -0.905265 0
M  V30 717 C 66.5555 -3.499 -1.38734 0
M  V30 718 C 65.7025 -2.74979 -0.358056 0
M  V30 719 H 68.6535 -1.56425 0.267736 0
M  V30 720 H 68.6745 -3.36887 -1.76882 0
M  V30 721 H 68.1865 -3.88096 -0.017401 0
M  V30 722 H 66.2875 -2.93553 -2.29471 0
M  V30 723 H 66.4005 -4.58615 -1.38598 0
M  V30 724 H 64.7645 -2.40834 -0.828912 0
M  V30 725 H 65.5475 -3.39315 0.521561 0
M  V30 726 N 67.9926 0.231505 -1.5589 0
M  V30 727 C 69.2386 0.954429 -1.79617 0
M  V30 728 C 69.5936 1.82367 -0.613199 0
M  V30 729 O 68.8866 1.87524 0.393094 0
M  V30 730 C 69.0806 1.83577 -3.0665 0
M  V30 731 C 68.9096 1.05334 -4.3719 0
M  V30 732 C 67.6796 0.75225 -4.99669 0
M  V30 733 C 69.8776 0.423444 -5.12554 0
M  V30 734 N 67.8596 -0.052627 -6.13877 0
M  V30 735 C 69.2306 -0.245287 -6.19515 0
M  V30 736 C 71.2856 0.335466 -4.96769 0
M  V30 737 C 69.9886 -0.993566 -7.12405 0
M  V30 738 C 72.0146 -0.399321 -5.9005 0
M  V30 739 C 71.3766 -1.05663 -6.9643 0
M  V30 740 H 67.4756 0.329846 -0.709031 0
M  V30 741 H 70.0596 0.226172 -1.93382 0
M  V30 742 H 68.2306 2.53592 -2.94186 0
M  V30 743 H 69.9626 2.49541 -3.18608 0
M  V30 744 H 66.7176 1.06783 -4.61405 0
M  V30 745 H 67.1416 -0.443609 -6.75545 0
M  V30 746 H 71.7836 0.829311 -4.14587 0
M  V30 747 H 69.5016 -1.49896 -7.94076 0
M  V30 748 H 73.0876 -0.468265 -5.79913 0
M  V30 749 H 71.9676 -1.61612 -7.67366 0
M  V30 750 N 69.4707 1.49531 0.497807 0
M  V30 751 C 70.8817 1.52344 1.07927 0
M  V30 752 C 71.2327 0.311469 1.93712 0
M  V30 753 O 70.3577 -0.578405 2.08527 0
M  V30 754 C 70.9527 2.76062 1.96405 0
M  V30 755 C 69.5117 2.81643 2.49709 0
M  V30 756 C 68.6587 2.46299 1.27404 0
M  V30 757 H 71.6097 1.56182 0.281576 0
M  V30 758 H 71.6307 2.56405 2.81135 0
M  V30 759 H 71.1427 3.64254 1.33943 0
M  V30 760 H 69.2437 1.97739 3.15801 0
M  V30 761 H 69.3567 3.83891 2.86643 0
M  V30 762 H 67.7207 1.98148 1.60029 0
M  V30 763 H 68.5037 3.36769 0.66645 0
M  V30 764 N 70.9488 -0.749086 1.3866 0
M  V30 765 C 72.1768 -1.53834 1.38358 0
M  V30 766 C 72.5918 -1.88783 -0.0255219 0
M  V30 767 O 71.9488 -1.53101 -0.993292 0
M  V30 768 C 71.9998 -2.83468 2.2434 0
M  V30 769 O 71.7208 -2.50008 3.5976 0
M  V30 770 C 73.2218 -3.7758 2.32267 0
M  V30 771 H 70.4418 -0.47585 0.473083 0
M  V30 772 H 72.9858 -0.926726 1.82297 0
M  V30 773 H 71.1408 -3.40995 1.83851 0
M  V30 774 H 71.5548 -3.33182 4.05081 0
M  V30 775 H 73.0288 -4.65478 2.96706 0
M  V30 776 H 73.5058 -4.18334 1.33765 0
M  V30 777 H 74.1118 -3.25976 2.73166 0
M  V30 778 N 72.4269 -1.23603 -0.977757 0
M  V30 779 C 73.3569 -1.04401 -2.0886 0
M  V30 780 C 74.3379 0.0399052 -1.70053 0
M  V30 781 O 75.5229 -0.125246 -1.93796 0
M  V30 782 C 72.6529 -0.637269 -3.41403 0
M  V30 783 C 71.6069 -1.66883 -3.94124 0
M  V30 784 C 70.9329 -1.11745 -5.22893 0
M  V30 785 C 72.2329 -3.06247 -4.23096 0
M  V30 786 H 73.9269 -1.97316 -2.25182 0
M  V30 787 H 71.4729 -0.950096 -1.08209 0
M  V30 788 H 73.4259 -0.48998 -4.18542 0
M  V30 789 H 72.1499 0.327557 -3.24953 0
M  V30 790 H 70.8089 -1.80416 -3.19133 0
M  V30 791 H 70.4569 -0.143527 -5.02795 0
M  V30 792 H 70.1569 -1.80672 -5.59134 0
M  V30 793 H 71.6809 -0.982067 -6.02651 0
M  V30 794 H 73.0949 -2.96001 -4.90975 0
M  V30 795 H 71.4919 -3.72436 -4.70544 0
M  V30 796 H 72.5619 -3.55041 -3.30263 0
M  V30 797 N 73.905 1.17692 -1.04816 0
M  V30 798 C 75.13 1.92327 -0.776207 0
M  V30 799 C 75.555 1.76082 0.661581 0
M  V30 800 O 74.913 1.076 1.45917 0
M  V30 801 C 74.961 3.41539 -1.15687 0
M  V30 802 O 74.065 4.11402 -0.286775 0
M  V30 803 H 73.406 0.599735 -0.284981 0
M  V30 804 H 75.936 1.49201 -1.4 0
M  V30 805 H 75.946 3.92269 -1.12202 0
M  V30 806 H 74.621 3.52684 -2.20425 0
M  V30 807 H 73.198 3.70939 -0.381903 0
M  V30 808 N 75.3831 0.828654 1.34056 0
M  V30 809 C 76.6321 0.415828 1.97367 0
M  V30 810 C 76.9451 -1.02796 1.6641 0
M  V30 811 O 78.1511 -1.54497 2.23255 0
M  V30 812 C 76.6071 0.692601 3.53173 0
M  V30 813 C 76.2151 2.15038 3.93017 0
M  V30 814 C 77.9591 0.346222 4.23086 0
M  V30 815 C 75.8661 2.37174 5.41758 0
M  V30 816 H 74.7961 0.151755 0.738571 0
M  V30 817 H 77.4471 1.01581 1.52819 0
M  V30 818 H 75.8291 0.0223764 3.95994 0
M  V30 819 H 77.0031 2.86024 3.61285 0
M  V30 820 H 75.3181 2.45875 3.36057 0
M  V30 821 H 77.9151 0.48937 5.32456 0
M  V30 822 H 78.2581 -0.709842 4.10204 0
M  V30 823 H 78.7911 0.971258 3.85761 0
M  V30 824 H 75.5301 3.41308 5.59633 0
M  V30 825 H 75.0501 1.70738 5.74986 0
M  V30 826 H 76.7291 2.19818 6.08514 0
M  V30 827 N 76.8612 -1.46375 0.584142 0
M  V30 828 C 78.0862 -2.07268 0.0740405 0
M  V30 829 C 78.5112 -1.42979 -1.22223 0
M  V30 830 O 77.8692 -0.514092 -1.73859 0
M  V30 831 C 77.9172 -3.60518 -0.0767769 0
M  V30 832 O 77.0212 -3.96533 -1.13292 0
M  V30 833 H 76.3622 -0.660961 0.0634524 0
M  V30 834 H 78.8922 -1.87991 0.807492 0
M  V30 835 H 78.9022 -4.07021 -0.282489 0
M  V30 836 H 77.5772 -4.06702 0.86986 0
M  V30 837 H 76.1542 -3.61738 -0.905553 0
M  V30 838 N 78.3393 -0.321999 -1.54275 0
M  V30 839 C 79.5673 0.283052 -2.04955 0
M  V30 840 C 79.9823 1.45904 -1.19823 0
M  V30 841 O 79.3393 1.81063 -0.228545 0
M  V30 842 C 79.3903 0.719028 -3.54277 0
M  V30 843 O 79.1113 -0.410175 -4.36176 0
M  V30 844 C 80.6123 1.38705 -4.21041 0
M  V30 845 H 77.8323 0.0584616 -0.668448 0
M  V30 846 H 80.3763 -0.467734 -1.99079 0
M  V30 847 H 78.5313 1.41979 -3.60445 0
M  V30 848 H 78.9453 -0.0669416 -5.24457 0
M  V30 849 H 80.4193 1.64306 -5.2698 0
M  V30 850 H 80.8963 2.33385 -3.72059 0
M  V30 851 H 81.5023 0.728906 -4.19007 0
M  V30 852 N 79.8174 1.5752 -0.0501392 0
M  V30 853 C 80.7474 2.14502 0.922566 0
M  V30 854 C 81.7284 1.06642 1.3252 0
M  V30 855 O 82.9134 1.34577 1.4001 0
M  V30 856 C 80.0434 2.68916 2.19776 0
M  V30 857 C 78.9974 3.8175 1.93523 0
M  V30 858 C 78.3234 4.22677 3.27487 0
M  V30 859 C 79.6234 5.06932 1.25765 0
M  V30 860 H 81.3174 2.9603 0.447952 0
M  V30 861 H 78.8634 1.42401 0.214024 0
M  V30 862 H 80.8164 3.07419 2.88222 0
M  V30 863 H 79.5404 1.84578 2.69441 0
M  V30 864 H 78.1994 3.43718 1.27489 0
M  V30 865 H 77.8474 3.35291 3.74952 0
M  V30 866 H 77.5474 4.98725 3.1072 0
M  V30 867 H 79.0714 4.63779 3.97166 0
M  V30 868 H 80.4854 5.42888 1.84244 0
M  V30 869 H 78.8824 5.88116 1.19328 0
M  V30 870 H 79.9524 4.84337 0.233536 0
M  V30 871 N 81.2955 -0.223234 1.56011 0
M  V30 872 C 82.5255 -0.963413 1.82762 0
M  V30 873 C 82.9335 -1.78516 0.626804 0
M  V30 874 O 82.2765 -1.78974 -0.414014 0
M  V30 875 C 82.3385 -1.93126 3.0322 0
M  V30 876 C 82.0025 -1.2942 4.38291 0
M  V30 877 C 82.9995 -0.684916 5.15369 0
M  V30 878 C 80.6845 -1.30647 4.85012 0
M  V30 879 C 82.6785 -0.0963971 6.37327 0
M  V30 880 C 80.3655 -0.71411 6.06913 0
M  V30 881 C 81.3635 -0.110123 6.82911 0
M  V30 882 O 81.0515 0.47303 8.02507 0
M  V30 883 H 80.7835 -0.288011 0.611576 0
M  V30 884 H 83.3375 -0.244103 2.03944 0
M  V30 885 H 81.5675 -2.68952 2.77852 0
M  V30 886 H 83.2565 -2.53685 3.16857 0
M  V30 887 H 84.0225 -0.667774 4.80381 0
M  V30 888 H 79.9015 -1.76598 4.25833 0
M  V30 889 H 83.4455 0.375657 6.96588 0
M  V30 890 H 79.3425 -0.728659 6.41374 0
M  V30 891 H 80.1105 0.367186 8.17676 0
M  V30 892 N 82.7736 -1.49793 -0.48987 0
M  V30 893 C 83.7036 -1.70201 -1.59856 0
M  V30 894 C 84.6846 -0.55076 -1.60937 0
M  V30 895 O 85.8696 -0.787841 -1.77501 0
M  V30 896 C 82.9996 -1.77882 -2.98287 0
M  V30 897 C 81.9536 -2.92907 -3.12073 0
M  V30 898 C 81.2796 -2.85712 -4.51965 0
M  V30 899 C 82.5796 -4.3369 -2.91051 0
M  V30 900 H 84.2736 -2.63025 -1.43032 0
M  V30 901 H 81.8196 -1.26574 -0.686664 0
M  V30 902 H 83.7726 -1.90744 -3.75759 0
M  V30 903 H 82.4966 -0.816653 -3.16225 0
M  V30 904 H 81.1556 -2.79665 -2.37029 0
M  V30 905 H 80.8036 -1.8738 -4.66795 0
M  V30 906 H 80.5036 -3.62921 -4.62128 0
M  V30 907 H 82.0276 -3.00598 -5.31482 0
M  V30 908 H 83.4416 -4.47555 -3.58284 0
M  V30 909 H 81.8386 -5.12205 -3.12675 0
M  V30 910 H 82.9086 -4.47362 -1.87071 0
M  V30 911 N 84.2517 0.741722 -1.39055 0
M  V30 912 C 85.1817 1.869 -1.39966 0
M  V30 913 C 86.1627 1.6804 -0.26392 0
M  V30 914 O 87.3477 1.88458 -0.468755 0
M  V30 915 C 84.4777 3.24572 -1.23574 0
M  V30 916 C 83.4317 3.58056 -2.34477 0
M  V30 917 C 82.7577 4.94593 -2.0318 0
M  V30 918 C 84.0577 3.61716 -3.76774 0
M  V30 919 H 85.7517 1.86395 -2.34302 0
M  V30 920 H 83.2977 0.895361 -1.1278 0
M  V30 921 H 85.2507 4.031 -1.22834 0
M  V30 922 H 83.9747 3.25587 -0.257045 0
M  V30 923 H 82.6337 2.81854 -2.34423 0
M  V30 924 H 82.2817 4.92181 -1.03765 0
M  V30 925 H 81.9817 5.17964 -2.77465 0
M  V30 926 H 83.5057 5.75486 -2.04079 0
M  V30 927 H 84.9197 4.30335 -3.78794 0
M  V30 928 H 83.3167 3.96603 -4.50362 0
M  V30 929 H 84.3867 2.61672 -4.08235 0
M  V30 930 N 85.7298 1.2412 0.971189 0
M  V30 931 C 86.9768 1.07881 1.71371 0
M  V30 932 C 87.3048 -0.382901 1.90694 0
M  V30 933 O 86.5598 -1.29945 1.46331 0
M  V30 934 C 86.8588 1.75983 3.11071 0
M  V30 935 C 86.5248 3.25909 3.11599 0
M  V30 936 C 85.1868 3.66813 3.11451 0
M  V30 937 C 87.5388 4.21771 3.062 0
M  V30 938 C 84.8668 5.02021 3.03631 0
M  V30 939 C 87.2188 5.56982 2.99923 0
M  V30 940 C 85.8828 5.97237 2.98102 0
M  V30 941 H 85.1528 0.394764 0.62709 0
M  V30 942 H 87.7998 1.54176 1.13587 0
M  V30 943 H 86.1048 1.22072 3.72298 0
M  V30 944 H 87.8018 1.60887 3.6731 0
M  V30 945 H 84.3918 2.93353 3.12477 0
M  V30 946 H 88.5758 3.91172 3.05447 0
M  V30 947 H 83.8318 5.32411 3.0058 0
M  V30 948 H 88.0058 6.30969 2.94704 0
M  V30 949 H 85.6328 7.01967 2.91798 0
M  V30 950 N 87.2079 -1.17134 1.05439 0
M  V30 951 C 88.4539 -1.87733 0.767077 0
M  V30 952 C 88.7869 -1.8098 -0.704253 0
M  V30 953 O 88.0619 -1.21951 -1.5152 0
M  V30 954 C 88.3449 -3.37659 1.25133 0
M  V30 955 C 88.1979 -3.53149 2.78578 0
M  V30 956 C 89.5169 -4.31768 0.852324 0
M  V30 957 H 86.6359 -0.681687 0.280129 0
M  V30 958 H 89.2779 -1.37732 1.30881 0
M  V30 959 H 87.4279 -3.80373 0.790469 0
M  V30 960 H 89.0999 -3.19434 3.32806 0
M  V30 961 H 87.3429 -2.95345 3.17732 0
M  V30 962 H 88.0139 -4.58403 3.07523 0
M  V30 963 H 90.4899 -3.96909 1.24911 0
M  V30 964 H 89.3659 -5.35199 1.21873 0
M  V30 965 H 89.6269 -4.41429 -0.243485 0
M  V30 966 N 88.686 -0.835752 -1.33615 0
M  V30 967 C 89.932 -0.439817 -1.98588 0
M  V30 968 C 90.287 0.989274 -1.65019 0
M  V30 969 O 89.58 1.68168 -0.918159 0
M  V30 970 C 89.774 -0.593925 -3.52431 0
M  V30 971 C 89.603 -2.03644 -4.00948 0
M  V30 972 C 88.373 -2.67103 -4.28934 0
M  V30 973 C 90.571 -3.00479 -4.17393 0
M  V30 974 N 88.553 -4.02462 -4.6357 0
M  V30 975 C 89.924 -4.20777 -4.55353 0
M  V30 976 C 91.979 -2.96926 -3.99674 0
M  V30 977 C 90.682 -5.37994 -4.77447 0
M  V30 978 C 92.708 -4.1337 -4.22941 0
M  V30 979 C 92.07 -5.32422 -4.61201 0
M  V30 980 H 88.169 -0.209303 -0.75347 0
M  V30 981 H 90.753 -1.08316 -1.61789 0
M  V30 982 H 88.924 0.019599 -3.88395 0
M  V30 983 H 90.656 -0.169738 -4.04344 0
M  V30 984 H 87.411 -2.18259 -4.20309 0
M  V30 985 H 87.835 -4.72232 -4.85104 0
M  V30 986 H 92.477 -2.06015 -3.69212 0
M  V30 987 H 90.195 -6.29451 -5.06771 0
M  V30 988 H 93.781 -4.12034 -4.10754 0
M  V30 989 H 92.661 -6.21027 -4.78848 0
M  V30 990 N 90.1641 1.46063 -0.591896 0
M  V30 991 C 91.0941 2.33172 0.123673 0
M  V30 992 C 92.0751 1.45897 0.87453 0
M  V30 993 O 93.2601 1.74698 0.848181 0
M  V30 994 C 90.3901 3.28336 1.13194 0
M  V30 995 C 89.3441 4.25124 0.495324 0
M  V30 996 C 88.6701 5.09863 1.61071 0
M  V30 997 C 89.9701 5.19143 -0.573425 0
M  V30 998 H 91.6641 2.93252 -0.603646 0
M  V30 999 H 89.2101 1.41014 -0.291741 0
M  V30 1000 H 91.1631 3.88137 1.64097 0
M  V30 1001 H 89.8871 2.66383 1.88965 0
M  V30 1002 H 88.5461 3.66599 0.00729452 0
M  V30 1003 H 88.1941 4.44288 2.35832 0
M  V30 1004 H 87.8941 5.75417 1.19035 0
M  V30 1005 H 89.4181 5.72529 2.12233 0
M  V30 1006 H 90.8321 5.73106 -0.1491 0
M  V30 1007 H 89.2291 5.93089 -0.914636 0
M  V30 1008 H 90.2991 4.62519 -1.45617 0
M  V30 1009 N 91.6422 0.330177 1.54103 0
M  V30 1010 C 92.8902 -0.269871 2.0029 0
M  V30 1011 C 93.2112 -1.52133 1.21986 0
M  V30 1012 O 92.4812 -1.93212 0.323438 0
M  V30 1013 H 91.0612 -0.10271 0.739905 0
M  V30 1014 H 93.7232 0.448249 1.89675 0
M  V30 1015 H 92.8192 -0.52166 3.07709 0
M  V30 1016 N 93.1203 -1.57491 0.0584922 0
M  V30 1017 C 94.5313 -1.80526 -0.476138 0
M  V30 1018 C 94.8823 -0.971334 -1.70469 0
M  V30 1019 O 94.0073 -0.190012 -2.15564 0
M  V30 1020 C 94.6023 -3.27424 -0.870587 0
M  V30 1021 C 93.1613 -3.51351 -1.35015 0
M  V30 1022 C 92.3083 -2.75343 -0.32887 0
M  V30 1023 H 95.2593 -1.56133 0.284312 0
M  V30 1024 H 95.2803 -3.38745 -1.73299 0
M  V30 1025 H 94.7923 -3.88093 0.0237627 0
M  V30 1026 H 92.8933 -2.95971 -2.26345 0
M  V30 1027 H 93.0063 -4.60059 -1.33726 0
M  V30 1028 H 91.3703 -2.417 -0.803321 0
M  V30 1029 H 92.1533 -3.38743 0.557521 0
M  V30 1030 N 94.5984 0.214957 -1.56127 0
M  V30 1031 C 95.5454 1.26642 -1.92952 0
M  V30 1032 C 96.5154 1.46244 -0.78753 0
M  V30 1033 O 97.7004 1.59704 -1.04399 0
M  V30 1034 C 94.8404 2.6104 -2.25726 0
M  V30 1035 C 93.9534 2.49183 -3.52891 0
M  V30 1036 C 93.0884 3.76149 -3.7508 0
M  V30 1037 C 92.1274 3.59041 -4.95738 0
M  V30 1038 N 91.2644 4.77972 -5.14283 0
M  V30 1039 H 96.1044 0.945384 -2.82607 0
M  V30 1040 H 93.6414 0.455489 -1.3987 0
M  V30 1041 H 95.5994 3.39313 -2.42739 0
M  V30 1042 H 94.2294 2.91227 -1.39236 0
M  V30 1043 H 93.2814 1.6231 -3.44034 0
M  V30 1044 H 94.5934 2.32466 -4.41318 0
M  V30 1045 H 93.7474 4.62865 -3.92226 0
M  V30 1046 H 92.4864 3.95799 -2.84947 0
M  V30 1047 H 91.4914 2.7071 -4.78535 0
M  V30 1048 H 92.7164 3.40856 -5.87362 0
M  V30 1049 H 90.6624 4.97923 -4.27093 0
M  V30 1050 H 90.5794 4.64006 -5.96853 0
M  V30 1051 H 91.8474 5.66096 -5.35869 0
M  V30 1052 N 96.0765 1.50051 0.48192 0
M  V30 1053 C 97.3225 1.61706 1.2338 0
M  V30 1054 C 97.6775 0.308488 1.89911 0
M  V30 1055 O 96.9705 -0.692798 1.78636 0
M  V30 1056 C 97.1645 2.72717 2.30998 0
M  V30 1057 C 96.9935 4.14242 1.75024 0
M  V30 1058 C 95.7635 4.80786 1.55476 0
M  V30 1059 C 97.9615 4.98846 1.25128 0
M  V30 1060 N 95.9435 6.06563 0.946311 0
M  V30 1061 C 97.3145 6.15258 0.765382 0
M  V30 1062 C 99.3695 4.84702 1.13881 0
M  V30 1063 C 98.0725 7.19079 0.178113 0
M  V30 1064 C 100.098 5.8869 0.565486 0
M  V30 1065 C 99.4605 7.04343 0.0899105 0
M  V30 1066 H 95.5595 0.645958 0.440753 0
M  V30 1067 H 98.1435 1.8713 0.537624 0
M  V30 1068 H 96.3145 2.49033 2.98055 0
M  V30 1069 H 98.0465 2.73789 2.9803 0
M  V30 1070 H 94.8015 4.37899 1.80392 0
M  V30 1071 H 95.2255 6.73767 0.660812 0
M  V30 1072 H 99.8675 3.95583 1.49244 0
M  V30 1073 H 97.5855 8.07882 -0.187749 0
M  V30 1074 H 101.171 5.79808 0.480974 0
M  V30 1075 H 100.051 7.83433 -0.346782 0
M  V30 1076 N 97.5546 -0.734337 1.39446 0
M  V30 1077 C 98.4876 -1.85715 1.32609 0
M  V30 1078 C 99.4656 -1.6137 0.199636 0
M  V30 1079 O 100.65 -1.84626 0.380195 0
M  V30 1080 C 97.7766 -3.21709 1.05929 0
M  V30 1081 C 96.8226 -3.64913 2.20773 0
M  V30 1082 S 97.6556 -3.74203 3.83056 0
M  V30 1083 C 98.8116 -5.12986 3.58603 0
M  V30 1084 H 99.0446 -1.91232 2.27635 0
M  V30 1085 H 96.5776 -0.899263 1.25509 0
M  V30 1086 H 98.5356 -4.00236 0.912203 0
M  V30 1087 H 97.1966 -3.13848 0.125883 0
M  V30 1088 H 96.3896 -4.63606 1.97699 0
M  V30 1089 H 95.9916 -2.93593 2.31688 0
M  V30 1090 H 98.2836 -5.99339 3.15909 0
M  V30 1091 H 99.2266 -5.41088 4.5676 0
M  V30 1092 H 99.6346 -4.82694 2.9269 0
M  V30 1093 N 99.0327 -1.24633 -0.964593 0
M  V30 1094 C 99.9797 -1.04144 -2.05968 0
M  V30 1095 C 100.95 0.046262 -1.66036 0
M  V30 1096 O 102.135 -0.108972 -1.90489 0
M  V30 1097 C 99.2747 -0.65563 -3.38815 0
M  V30 1098 C 98.3877 -1.81714 -3.91923 0
M  V30 1099 C 97.5227 -1.37662 -5.13052 0
M  V30 1100 C 96.5617 -2.50788 -5.58365 0
M  V30 1101 N 95.6987 -2.07582 -6.70712 0
M  V30 1102 H 100.539 -1.9787 -2.22827 0
M  V30 1103 H 98.0757 -0.9855 -1.09208 0
M  V30 1104 H 100.034 -0.412954 -4.15151 0
M  V30 1105 H 98.6637 0.244627 -3.21872 0
M  V30 1106 H 97.7157 -2.1734 -3.12198 0
M  V30 1107 H 99.0277 -2.66705 -4.21509 0
M  V30 1108 H 98.1817 -1.093 -5.96773 0
M  V30 1109 H 96.9207 -0.497293 -4.85158 0
M  V30 1110 H 95.9257 -2.79906 -4.73215 0
M  V30 1111 H 97.1507 -3.39283 -5.88272 0
M  V30 1112 H 95.0967 -1.22051 -6.44546 0
M  V30 1113 H 95.0137 -2.86125 -6.99763 0
M  V30 1114 H 96.2817 -1.82369 -7.57867 0
M  V30 1115 N 100.511 1.16574 -1.06058 0
M  V30 1116 C 101.788 1.83048 -0.689416 0
M  V30 1117 C 102.168 1.94122 0.829443 0
M  V30 1118 O 101.516 1.48249 1.7388 0
M  V30 1119 C 101.726 3.20186 -1.38859 0
M  V30 1120 C 103.074 3.95989 -1.53226 0
M  V30 1121 O 104.098 3.29696 -1.3483 0
M  V30 1122 O 102.957 5.14813 -1.83384 0
M  V30 1123 H 100.051 0.790258 -0.243764 0
M  V30 1124 H 102.597 1.23797 -1.16071 0
M  V30 1125 H 101.369 3.07146 -2.4244 0
M  V30 1126 H 100.992 3.87112 -0.907216 0
M  V30 1127 N 101.989 0.842826 1.3317 0
M  V30 1128 C 103.405 0.531128 1.50503 0
M  V30 1129 C 103.605 -0.940734 1.78192 0
M  V30 1130 O 102.661 -1.72436 1.84451 0
M  V30 1131 C 103.974 1.40789 2.65705 0
M  V30 1132 C 105.522 1.40708 2.79589 0
M  V30 1133 C 105.997 2.26878 3.97857 0
M  V30 1134 N 107.488 2.24609 4.05099 0
M  V30 1135 C 108.223 2.88019 4.95815 0
M  V30 1136 N 107.719 3.60496 5.9162 0
M  V30 1137 N 109.512 2.77469 4.88843 0
M  V30 1138 H 101.663 1.79557 1.1346 0
M  V30 1139 H 103.926 0.766267 0.558156 0
M  V30 1140 H 103.632 2.454 2.51936 0
M  V30 1141 H 103.506 1.08677 3.61205 0
M  V30 1142 H 105.893 0.368668 2.92788 0
M  V30 1143 H 105.974 1.76829 1.84838 0
M  V30 1144 H 105.618 3.3078 3.85418 0
M  V30 1145 H 105.548 1.88096 4.91861 0
M  V30 1146 H 108.039 1.71906 3.36536 0
M  V30 1147 H 108.352 4.06076 6.57512 0
M  V30 1148 H 106.697 3.64604 5.91683 0
M  V30 1149 H 109.888 2.20406 4.12963 0
M  V30 1150 H 110.061 3.2717 5.59342 0
M  V30 1151 N 103.467 -1.45747 0.599634 0
M  V30 1152 C 104.377 -2.34262 -0.125888 0
M  V30 1153 C 105.393 -1.50768 -0.868625 0
M  V30 1154 O 106.569 -1.83592 -0.828003 0
M  V30 1155 C 103.634 -3.28252 -1.11587 0
M  V30 1156 C 102.695 -4.27651 -0.375956 0
M  V30 1157 C 101.928 -5.1715 -1.31877 0
M  V30 1158 O 102.151 -5.09916 -2.55621 0
M  V30 1159 O 101.085 -5.96286 -0.820157 0
M  V30 1160 H 104.911 -2.97688 0.601315 0
M  V30 1161 H 102.496 -1.44999 0.359934 0
M  V30 1162 H 104.378 -3.86191 -1.68626 0
M  V30 1163 H 103.053 -2.67401 -1.82424 0
M  V30 1164 H 101.96 -3.7335 0.236698 0
M  V30 1165 H 103.293 -4.91334 0.29177 0
M  V30 1166 N 104.945 -0.338344 -1.53925 0
M  V30 1167 C 106.356 0.146651 -1.86123 0
M  V30 1168 C 106.707 1.5042 -1.2597 0
M  V30 1169 O 105.832 2.08723 -0.571294 0
M  V30 1170 C 106.427 0.272879 -3.37699 0
M  V30 1171 C 104.986 0.702103 -3.69794 0
M  V30 1172 C 104.133 -0.167304 -2.76795 0
M  V30 1173 H 107.084 -0.558123 -1.48562 0
M  V30 1174 H 107.105 1.10128 -3.64214 0
M  V30 1175 H 106.617 -0.715307 -3.81451 0
M  V30 1176 H 104.718 1.6995 -3.31584 0
M  V30 1177 H 104.831 0.495604 -4.7653 0
M  V30 1178 H 103.195 0.359527 -2.5215 0
M  V30 1179 H 103.978 -1.15253 -3.23375 0
M  V30 1180 N 106.423 1.57458 -0.0668435 0
M  V30 1181 C 107.67 1.93301 0.603406 0
M  V30 1182 C 107.998 0.946486 1.69917 0
M  V30 1183 O 107.253 -0.0387021 1.95662 0
M  V30 1184 C 107.552 3.35784 1.22409 0
M  V30 1185 C 107.218 4.50179 0.254955 0
M  V30 1186 C 105.88 4.81199 -0.0116746 0
M  V30 1187 C 108.232 5.19598 -0.408338 0
M  V30 1188 C 105.56 5.78978 -0.94877 0
M  V30 1189 C 107.912 6.18381 -1.33372 0
M  V30 1190 C 106.576 6.47821 -1.60887 0
M  V30 1191 H 105.846 0.707338 0.220802 0
M  V30 1192 H 108.493 1.91012 -0.136665 0
M  V30 1193 H 106.798 3.34515 2.03978 0
M  V30 1194 H 108.495 3.60804 1.74989 0
M  V30 1195 H 105.085 4.25983 0.472954 0
M  V30 1196 H 109.269 4.95832 -0.215456 0
M  V30 1197 H 104.525 6.00115 -1.16925 0
M  V30 1198 H 108.699 6.71277 -1.85367 0
M  V30 1199 H 106.326 7.23399 -2.33661 0
M  V30 1200 N 107.901 -0.206675 1.56239 0
M  V30 1201 C 108.833 -1.27997 1.9013 0
M  V30 1202 C 109.846 -1.42299 0.790883 0
M  V30 1203 O 111.035 -1.42931 1.06925 0
M  V30 1204 C 108.135 -2.65368 2.10792 0
M  V30 1205 C 107.308 -2.72824 3.41886 0
M  V30 1206 C 106.367 -3.9131 3.51799 0
M  V30 1207 O 105.393 -3.78953 4.24716 0
M  V30 1208 N 106.595 -5.06265 2.84035 0
M  V30 1209 H 109.36 -0.992444 2.82791 0
M  V30 1210 H 106.921 -0.396652 1.56966 0
M  V30 1211 H 108.913 -3.43039 2.14724 0
M  V30 1212 H 107.483 -2.86657 1.24685 0
M  V30 1213 H 106.703 -1.81515 3.49923 0
M  V30 1214 H 107.991 -2.74786 4.28217 0
M  V30 1215 H 107.389 -5.19203 2.246 0
M  V30 1216 H 105.946 -5.81925 2.93609 0
M  V30 1217 N 109.379 -1.50304 -0.473955 0
M  V30 1218 C 110.312 -1.63595 -1.59097 0
M  V30 1219 C 111.29 -0.484142 -1.55225 0
M  V30 1220 O 112.474 -0.703271 -1.7489 0
M  V30 1221 C 109.601 -1.61589 -2.97669 0
M  V30 1222 C 108.647 -2.82295 -3.19705 0
M  V30 1223 S 109.48 -4.43635 -2.99913 0
M  V30 1224 C 110.636 -4.44317 -4.40832 0
M  V30 1225 H 110.869 -2.58082 -1.47583 0
M  V30 1226 H 108.402 -1.39531 -0.661087 0
M  V30 1227 H 110.36 -1.61116 -3.7756 0
M  V30 1228 H 109.021 -0.683421 -3.06575 0
M  V30 1229 H 108.214 -2.77188 -4.20931 0
M  V30 1230 H 107.816 -2.8032 -2.47582 0
M  V30 1231 H 110.108 -4.17703 -5.33414 0
M  V30 1232 H 111.051 -5.45911 -4.50984 0
M  V30 1233 H 111.459 -3.74059 -4.22777 0
M  V30 1234 N 110.857 0.726932 -1.39834 0
M  V30 1235 C 112.273 1.03354 -1.21615 0
M  V30 1236 C 112.473 2.01327 -0.08338 0
M  V30 1237 O 111.529 2.46158 0.56238 0
M  V30 1238 C 112.842 1.58811 -2.55342 0
M  V30 1239 C 114.39 1.70851 -2.62257 0
M  V30 1240 C 114.865 2.29716 -3.96225 0
M  V30 1241 N 116.356 2.37116 -3.97907 0
M  V30 1242 C 117.091 2.83619 -4.98345 0
M  V30 1243 N 116.587 3.29958 -6.09179 0
M  V30 1244 N 118.38 2.82901 -4.8572 0
M  V30 1245 H 110.531 0.0773069 -2.12259 0
M  V30 1246 H 112.794 0.0969102 -0.943034 0
M  V30 1247 H 112.5 0.942855 -3.38826 0
M  V30 1248 H 112.374 2.57502 -2.75632 0
M  V30 1249 H 114.761 2.34497 -1.79152 0
M  V30 1250 H 114.842 0.707913 -2.45809 0
M  V30 1251 H 114.486 1.66696 -4.79765 0
M  V30 1252 H 114.416 3.30469 -4.09997 0
M  V30 1253 H 116.907 2.04374 -3.17868 0
M  V30 1254 H 117.22 3.63976 -6.8172 0
M  V30 1255 H 115.565 3.27946 -6.12761 0
M  V30 1256 H 118.756 2.46027 -3.98231 0
M  V30 1257 H 118.929 3.18827 -5.6414 0
M  V30 1258 N 112.336 1.25143 0.95797 0
M  V30 1259 C 113.266 1.07711 2.07173 0
M  V30 1260 C 114.247 -0.0128462 1.70095 0
M  V30 1261 O 115.432 0.156061 1.93572 0
M  V30 1262 C 112.562 0.691503 3.40346 0
M  V30 1263 C 111.516 1.73132 3.9142 0
M  V30 1264 C 110.842 1.20049 5.21049 0
M  V30 1265 C 112.142 3.1294 4.1817 0
M  V30 1266 H 113.836 2.00873 2.22014 0
M  V30 1267 H 111.382 0.967191 1.06684 0
M  V30 1268 H 113.335 0.556505 4.17709 0
M  V30 1269 H 112.059 -0.275819 3.25433 0
M  V30 1270 H 110.718 1.8547 3.16222 0
M  V30 1271 H 110.366 0.223499 5.02503 0
M  V30 1272 H 110.066 1.89545 5.56189 0
M  V30 1273 H 111.59 1.07782 6.01012 0
M  V30 1274 H 113.004 3.03775 4.86203 0
M  V30 1275 H 111.401 3.79875 4.64559 0
M  V30 1276 H 112.471 3.6025 3.24573 0
M  V30 1277 N 113.814 -1.1601 1.06675 0
M  V30 1278 C 115.06 -1.86909 0.786945 0
M  V30 1279 C 115.393 -1.81717 -0.685018 0
M  V30 1280 O 114.668 -1.23551 -1.50218 0
M  V30 1281 C 114.951 -3.36313 1.28707 0
M  V30 1282 C 114.804 -3.50175 2.82308 0
M  V30 1283 C 116.123 -4.3084 0.898071 0
M  V30 1284 H 113.242 -0.678677 0.287343 0
M  V30 1285 H 115.884 -1.36336 1.32334 0
M  V30 1286 H 114.034 -3.79513 0.830768 0
M  V30 1287 H 115.706 -3.15886 3.36175 0
M  V30 1288 H 113.949 -2.91959 3.20847 0
M  V30 1289 H 114.62 -4.55116 3.12368 0
M  V30 1290 H 117.096 -3.95561 1.29114 0
M  V30 1291 H 115.972 -5.33876 1.27543 0
M  V30 1292 H 116.233 -4.41662 -0.196651 0
M  V30 1293 N 115.292 -0.849877 -1.32721 0
M  V30 1294 C 116.222 -0.306308 -2.31482 0
M  V30 1295 C 117.203 0.591952 -1.59468 0
M  V30 1296 O 118.388 0.513199 -1.87296 0
M  V30 1297 C 115.518 0.510204 -3.43532 0
M  V30 1298 C 114.472 -0.293209 -4.26994 0
M  V30 1299 C 113.798 0.647743 -5.30762 0
M  V30 1300 C 115.098 -1.51634 -4.99804 0
M  V30 1301 H 116.792 -1.13153 -2.77195 0
M  V30 1302 H 114.338 -0.545553 -1.33266 0
M  V30 1303 H 116.291 0.900856 -4.11658 0
M  V30 1304 H 115.015 1.36874 -2.96535 0
M  V30 1305 H 113.674 -0.665555 -3.60508 0
M  V30 1306 H 113.322 1.50299 -4.8002 0
M  V30 1307 H 113.022 0.11422 -5.87489 0
M  V30 1308 H 114.546 1.03567 -6.01753 0
M  V30 1309 H 115.96 -1.19824 -5.60638 0
M  V30 1310 H 114.357 -1.98745 -5.66234 0
M  V30 1311 H 115.427 -2.28018 -4.27943 0
M  V30 1312 N 116.77 1.45427 -0.607355 0
M  V30 1313 C 118.019 2.01452 -0.100036 0
M  V30 1314 C 118.332 1.48159 1.27704 0
M  V30 1315 O 119.538 1.96159 1.87707 0
M  V30 1316 C 117.994 3.59672 -0.128158 0
M  V30 1317 C 117.602 4.21962 -1.50507 0
M  V30 1318 C 119.346 4.23262 0.323932 0
M  V30 1319 C 117.253 5.72333 -1.48959 0
M  V30 1320 H 116.183 0.75325 -0.0336299 0
M  V30 1321 H 118.834 1.66901 -0.76265 0
M  V30 1322 H 117.216 3.91411 0.601105 0
M  V30 1323 H 118.39 4.01796 -2.25602 0
M  V30 1324 H 116.705 3.70565 -1.89923 0
M  V30 1325 H 119.302 5.33522 0.354691 0
M  V30 1326 H 119.645 3.93921 1.34656 0
M  V30 1327 H 120.178 3.96239 -0.352056 0
M  V30 1328 H 116.917 6.06373 -2.48981 0
M  V30 1329 H 116.437 5.94691 -0.781214 0
M  V30 1330 H 118.116 6.35525 -1.21313 0
M  V30 1331 N 118.248 0.346503 1.53744 0
M  V30 1332 C 119.497 -0.250122 2.00143 0
M  V30 1333 C 119.81 -1.51418 1.23822 0
M  V30 1334 O 121.016 -2.18823 1.60713 0
M  V30 1335 C 119.472 -0.496252 3.56462 0
M  V30 1336 C 119.08 0.752077 4.41642 0
M  V30 1337 C 120.824 -1.05157 4.11269 0
M  V30 1338 C 118.731 0.476583 5.89477 0
M  V30 1339 H 117.661 -0.0972409 0.747703 0
M  V30 1340 H 120.312 0.46229 1.77581 0
M  V30 1341 H 118.694 -1.26944 3.75102 0
M  V30 1342 H 119.868 1.5266 4.34778 0
M  V30 1343 H 118.183 1.22925 3.97842 0
M  V30 1344 H 120.78 -1.27269 5.19333 0
M  V30 1345 H 121.123 -2.00799 3.64672 0
M  V30 1346 H 121.656 -0.339019 3.96353 0
M  V30 1347 H 118.395 1.4028 6.40314 0
M  V30 1348 H 117.915 -0.259794 5.99237 0
M  V30 1349 H 119.594 0.0949315 6.4693 0
M  V30 1350 N 119.726 -1.57421 0.075193 0
M  V30 1351 C 120.956 -1.97659 -0.601203 0
M  V30 1352 C 121.364 -0.952427 -1.63479 0
M  V30 1353 O 120.707 0.0688241 -1.83571 0
M  V30 1354 C 120.769 -3.34218 -1.32434 0
M  V30 1355 C 120.433 -4.5484 -0.443826 0
M  V30 1356 C 121.43 -5.19034 0.299969 0
M  V30 1357 C 119.115 -5.00952 -0.367709 0
M  V30 1358 C 121.109 -6.27695 1.10807 0
M  V30 1359 C 118.796 -6.09484 0.444058 0
M  V30 1360 C 119.794 -6.72719 1.18061 0
M  V30 1361 O 119.482 -7.79161 1.97898 0
M  V30 1362 H 119.214 -0.65494 -0.167422 0
M  V30 1363 H 121.768 -2.04886 0.145157 0
M  V30 1364 H 119.998 -3.23615 -2.11685 0
M  V30 1365 H 121.687 -3.59038 -1.89331 0
M  V30 1366 H 122.453 -4.84351 0.250776 0
M  V30 1367 H 118.332 -4.51509 -0.930638 0
M  V30 1368 H 121.876 -6.76982 1.68347 0
M  V30 1369 H 117.773 -6.43601 0.494803 0
M  V30 1370 H 118.541 -7.96055 1.90367 0
M  V30 1371 N 121.204 0.198386 -1.56346 0
M  V30 1372 C 122.152 1.26538 -1.95169 0
M  V30 1373 C 123.146 1.47295 -0.836685 0
M  V30 1374 O 124.352 1.48195 -1.02167 0
M  V30 1375 H 120.727 0.424744 -0.620561 0
M  V30 1376 H 122.698 0.910904 -2.84157 0
M  V30 1377 C 121.447 2.6035 -2.30463 0
M  V30 1378 H 120.77 2.45192 -3.15786 0
M  V30 1379 H 122.21 3.33762 -2.61494 0
M  V30 1380 C 120.669 3.17096 -1.13806 0
M  V30 1381 O 121.199 3.99588 -0.41135 0
M  V30 1382 N 119.405 2.75795 -0.915736 0
M  V30 1383 H 118.952 2.08816 -1.50843 0
M  V30 1384 H 118.91 3.14101 -0.136979 0
M  V30 1385 N 122.682 1.50554 0.465978 0
M  V30 1386 C 123.929 1.61798 1.21768 0
M  V30 1387 C 124.257 0.320696 1.91838 0
M  V30 1388 O 123.512 -0.693724 1.82992 0
M  V30 1389 C 123.811 2.75152 2.28093 0
M  V30 1390 C 123.477 4.15454 1.75239 0
M  V30 1391 C 122.139 4.53628 1.60546 0
M  V30 1392 C 124.491 5.03121 1.36083 0
M  V30 1393 C 121.819 5.77204 1.05128 0
M  V30 1394 C 124.171 6.27249 0.821056 0
M  V30 1395 C 122.835 6.64221 0.660795 0
M  V30 1396 H 122.105 0.592063 0.445582 0
M  V30 1397 H 124.752 1.84503 0.512927 0
M  V30 1398 H 123.057 2.46556 3.04496 0
M  V30 1399 H 124.754 2.81055 2.86023 0
M  V30 1400 H 121.344 3.85341 1.87644 0
M  V30 1401 H 125.528 4.74257 1.46267 0
M  V30 1402 H 120.784 6.0452 0.91462 0
M  V30 1403 H 124.958 6.94537 0.509018 0
M  V30 1404 H 122.585 7.59854 0.229226 0
M  V30 1405 N 124.16 -0.719506 1.40217 0
M  V30 1406 C 125.408 -1.47641 1.3801 0
M  V30 1407 C 125.729 -1.94992 -0.018145 0
M  V30 1408 O 124.999 -1.70073 -0.972207 0
M  V30 1409 H 123.579 -0.547744 0.507923 0
M  V30 1410 H 126.241 -0.853187 1.75233 0
M  V30 1411 H 125.337 -2.35112 2.05253 0
M  V30 1412 N 125.638 -1.25649 -0.95132 0
M  V30 1413 C 126.571 -1.00644 -2.04807 0
M  V30 1414 C 127.549 0.0654271 -1.62468 0
M  V30 1415 O 128.733 -0.074911 -1.88351 0
M  V30 1416 C 125.86 -0.522052 -3.34653 0
M  V30 1417 C 124.906 -1.58495 -3.95957 0
M  V30 1418 S 125.739 -3.17108 -4.31512 0
M  V30 1419 C 126.895 -2.70412 -5.64471 0
M  V30 1420 H 127.128 -1.93508 -2.25703 0
M  V30 1421 H 124.661 -1.09216 -1.09139 0
M  V30 1422 H 126.619 -0.24923 -4.09743 0
M  V30 1423 H 125.28 0.386146 -3.11717 0
M  V30 1424 H 124.473 -1.1968 -4.89584 0
M  V30 1425 H 124.075 -1.80862 -3.2736 0
M  V30 1426 H 126.367 -2.14245 -6.42733 0
M  V30 1427 H 127.31 -3.62693 -6.08161 0
M  V30 1428 H 127.718 -2.10302 -5.23864 0
M  V30 1429 N 127.117 1.15442 -1.07289 0
M  V30 1430 C 128.363 1.86489 -0.796846 0
M  V30 1431 C 128.696 1.82078 0.675371 0
M  V30 1432 O 127.971 1.24346 1.4956 0
M  V30 1433 C 128.254 3.35626 -1.30489 0
M  V30 1434 C 128.107 3.48673 -2.84161 0
M  V30 1435 C 129.426 4.30357 -0.920907 0
M  V30 1436 H 126.545 0.677144 -0.290939 0
M  V30 1437 H 129.187 1.35633 -1.33056 0
M  V30 1438 H 127.337 3.79068 -0.850883 0
M  V30 1439 H 129.009 3.14099 -3.37846 0
M  V30 1440 H 127.252 2.90253 -3.22391 0
M  V30 1441 H 127.923 4.53453 -3.14777 0
M  V30 1442 H 130.399 3.94871 -1.3121 0
M  V30 1443 H 129.275 5.33193 -1.30372 0
M  V30 1444 H 129.536 4.4176 0.173226 0
M  V30 1445 N 128.595 0.856903 1.32268 0
M  V30 1446 C 129.525 0.31858 2.31316 0
M  V30 1447 C 130.506 -0.583487 1.59779 0
M  V30 1448 O 131.691 -0.503259 1.87566 0
M  V30 1449 C 128.821 -0.491979 3.43798 0
M  V30 1450 C 127.775 0.315849 4.26833 0
M  V30 1451 C 127.101 -0.619586 5.31098 0
M  V30 1452 C 128.401 1.54282 4.98993 0
M  V30 1453 H 130.095 1.14621 2.76591 0
M  V30 1454 H 127.641 0.552613 1.32974 0
M  V30 1455 H 129.594 -0.879012 4.1213 0
M  V30 1456 H 128.318 -1.35299 2.97257 0
M  V30 1457 H 126.977 0.684664 3.6015 0
M  V30 1458 H 126.625 -1.47751 4.8081 0
M  V30 1459 H 126.325 -0.0830621 5.87541 0
M  V30 1460 H 127.849 -1.00375 6.02293 0
M  V30 1461 H 129.263 1.22796 5.59995 0
M  V30 1462 H 127.66 2.01745 5.65172 0
M  V30 1463 H 128.73 2.30285 4.26728 0
M  V30 1464 N 130.073 -1.45103 0.615059 0
M  V30 1465 C 131.003 -2.33339 -0.0865619 0
M  V30 1466 C 131.984 -1.4727 -0.851209 0
M  V30 1467 O 133.169 -1.76026 -0.820281 0
M  V30 1468 C 130.299 -3.30095 -1.07956 0
M  V30 1469 C 129.253 -4.25858 -0.427628 0
M  V30 1470 C 128.579 -5.12361 -1.5294 0
M  V30 1471 C 129.879 -5.18165 0.655944 0
M  V30 1472 H 131.573 -2.92254 0.650224 0
M  V30 1473 H 129.119 -1.40532 0.314138 0
M  V30 1474 H 131.072 -3.90698 -1.57901 0
M  V30 1475 H 129.796 -2.69355 -1.84703 0
M  V30 1476 H 128.455 -3.66564 0.0510292 0
M  V30 1477 H 128.103 -4.47984 -2.28734 0
M  V30 1478 H 127.803 -5.77238 -1.09865 0
M  V30 1479 H 129.327 -5.75833 -2.03098 0
M  V30 1480 H 130.741 -5.72796 0.240257 0
M  V30 1481 H 129.138 -5.91559 1.00888 0
M  V30 1482 H 130.208 -4.60144 1.52957 0
M  V30 1483 N 131.551 -0.354651 -1.53558 0
M  V30 1484 C 132.499 0.512195 -2.26891 0
M  V30 1485 C 133.493 1.09263 -1.29452 0
M  V30 1486 O 134.699 1.03709 -1.47121 0
M  V30 1487 H 131.074 0.183878 -0.729173 0
M  V30 1488 H 133.045 -0.128202 -2.98124 0
M  V30 1489 C 131.794 1.64563 -3.06291 0
M  V30 1490 H 131.117 1.20829 -3.81104 0
M  V30 1491 H 132.557 2.22711 -3.60799 0
M  V30 1492 C 131.016 2.58158 -2.16462 0
M  V30 1493 O 131.546 3.60695 -1.76811 0
M  V30 1494 N 129.752 2.27096 -1.81317 0
M  V30 1495 H 129.299 1.43751 -2.1376 0
M  V30 1496 H 129.257 2.89975 -1.21498 0
M  V30 1497 N 133.029 1.57378 -0.0835403 0
M  V30 1498 C 133.959 2.1641 0.87686 0
M  V30 1499 C 134.94 1.09429 1.30228 0
M  V30 1500 O 136.125 1.37516 1.37124 0
M  V30 1501 C 133.255 2.73517 2.14022 0
M  V30 1502 C 132.209 3.85769 1.85381 0
M  V30 1503 C 131.535 4.29529 3.18448 0
M  V30 1504 C 132.835 5.09486 1.14984 0
M  V30 1505 H 134.529 2.96914 0.385059 0
M  V30 1506 H 132.075 1.42823 0.18377 0
M  V30 1507 H 134.028 3.13463 2.81636 0
M  V30 1508 H 132.752 1.90252 2.65465 0
M  V30 1509 H 131.411 3.46345 1.20169 0
M  V30 1510 H 131.059 3.43169 3.67755 0
M  V30 1511 H 130.759 5.05204 3.00071 0
M  V30 1512 H 132.283 4.72099 3.8724 0
M  V30 1513 H 133.697 5.46674 1.72687 0
M  V30 1514 H 132.094 5.90515 1.06826 0
M  V30 1515 H 133.164 4.84724 0.130749 0
M  V30 1516 N 134.507 -0.190092 1.56449 0
M  V30 1517 C 135.754 -0.909705 1.80916 0
M  V30 1518 C 136.082 -1.83047 0.657583 0
M  V30 1519 O 135.337 -1.92428 -0.356356 0
M  V30 1520 C 135.636 -1.75382 3.1141 0
M  V30 1521 C 135.302 -0.983606 4.40041 0
M  V30 1522 C 133.964 -0.770967 4.74984 0
M  V30 1523 C 136.316 -0.442024 5.19322 0
M  V30 1524 C 133.644 -0.0053448 5.867 0
M  V30 1525 C 135.996 0.310412 6.31838 0
M  V30 1526 C 134.66 0.534023 6.6536 0
M  V30 1527 H 133.93 -0.332885 0.662019 0
M  V30 1528 H 136.577 -0.175762 1.90692 0
M  V30 1529 H 134.882 -2.55659 2.96893 0
M  V30 1530 H 136.579 -2.31331 3.27547 0
M  V30 1531 H 133.169 -1.15936 4.12622 0
M  V30 1532 H 137.353 -0.593693 4.92736 0
M  V30 1533 H 132.609 0.177825 6.11141 0
M  V30 1534 H 136.783 0.737419 6.92485 0
M  V30 1535 H 134.41 1.12918 7.51767 0
M  V30 1536 N 135.985 -1.50799 -0.457987 0
M  V30 1537 C 137.234 -1.6168 -1.20593 0
M  V30 1538 C 137.547 -0.32888 -1.92815 0
M  V30 1539 O 138.753 -0.316773 -2.69646 0
M  V30 1540 C 137.209 -2.8545 -2.19195 0
M  V30 1541 C 136.817 -4.21168 -1.52715 0
M  V30 1542 C 138.561 -3.05681 -2.94549 0
M  V30 1543 C 136.468 -5.3611 -2.4968 0
M  V30 1544 H 135.398 -0.602134 -0.453818 0
M  V30 1545 H 138.049 -1.77245 -0.475031 0
M  V30 1546 H 136.431 -2.63472 -2.95632 0
M  V30 1547 H 137.605 -4.53449 -0.819775 0
M  V30 1548 H 135.92 -4.06648 -0.895922 0
M  V30 1549 H 138.517 -3.88727 -3.67145 0
M  V30 1550 H 138.86 -2.17929 -3.54701 0
M  V30 1551 H 139.393 -3.27901 -2.25223 0
M  V30 1552 H 136.132 -6.26057 -1.94249 0
M  V30 1553 H 135.652 -5.0823 -3.18532 0
M  V30 1554 H 137.331 -5.6722 -3.11241 0
M  V30 1555 N 137.463 0.71206 -1.40597 0
M  V30 1556 C 138.71 1.47197 -1.39065 0
M  V30 1557 C 139.038 1.94499 0.00583891 0
M  V30 1558 O 138.293 1.68752 0.99102 0
M  V30 1559 C 138.592 2.71039 -2.32965 0
M  V30 1560 C 138.258 2.42484 -3.80148 0
M  V30 1561 C 136.92 2.34406 -4.20247 0
M  V30 1562 C 139.272 2.18598 -4.73143 0
M  V30 1563 C 136.6 2.00516 -5.51371 0
M  V30 1564 C 138.952 1.8622 -6.0457 0
M  V30 1565 C 137.616 1.76626 -6.43708 0
M  V30 1566 H 136.886 0.538634 -0.508876 0
M  V30 1567 H 139.533 0.815325 -1.73276 0
M  V30 1568 H 137.838 3.41558 -1.91951 0
M  V30 1569 H 139.535 3.29138 -2.29061 0
M  V30 1570 H 136.125 2.49659 -3.4838 0
M  V30 1571 H 140.309 2.23793 -4.42979 0
M  V30 1572 H 135.565 1.91628 -5.80593 0
M  V30 1573 H 139.739 1.66752 -6.76141 0
M  V30 1574 H 137.366 1.50133 -7.45228 0
M  V30 1575 N 138.941 1.26152 0.944643 0
M  V30 1576 C 140.357 1.03189 1.21754 0
M  V30 1577 C 140.557 -0.245112 2.00004 0
M  V30 1578 O 139.613 -0.955176 2.33736 0
M  V30 1579 C 140.926 2.26119 1.98219 0
M  V30 1580 C 142.474 2.30984 2.11224 0
M  V30 1581 C 142.949 3.53597 2.91089 0
M  V30 1582 N 144.44 3.54053 2.98664 0
M  V30 1583 C 145.175 4.45593 3.60881 0
M  V30 1584 N 144.671 5.47416 4.24626 0
M  V30 1585 N 146.464 4.33252 3.58119 0
M  V30 1586 H 138.615 2.08177 0.421437 0
M  V30 1587 H 140.878 0.914723 0.248969 0
M  V30 1588 H 140.584 3.18984 1.48128 0
M  V30 1589 H 140.458 2.3009 2.98895 0
M  V30 1590 H 142.845 1.38635 2.60508 0
M  V30 1591 H 142.926 2.31026 1.09821 0
M  V30 1592 H 142.57 4.46273 2.42493 0
M  V30 1593 H 142.5 3.50802 3.92741 0
M  V30 1594 H 144.991 2.80403 2.53343 0
M  V30 1595 H 145.304 6.13459 4.69987 0
M  V30 1596 H 143.649 5.51278 4.23223 0
M  V30 1597 H 146.84 3.52924 3.0751 0
M  V30 1598 H 147.013 5.04786 4.06319 0
M  V30 1599 N 140.419 -1.14872 1.07899 0
M  V30 1600 C 141.329 -2.2341 0.715915 0
M  V30 1601 C 142.345 -1.71808 -0.275306 0
M  V30 1602 O 143.521 -2.01039 -0.120545 0
M  V30 1603 C 140.586 -3.46474 0.125168 0
M  V30 1604 C 139.647 -4.13039 1.17034 0
M  V30 1605 C 138.88 -5.30229 0.607688 0
M  V30 1606 O 139.103 -5.675 -0.574497 0
M  V30 1607 O 138.037 -5.86444 1.35526 0
M  V30 1608 H 141.863 -2.56808 1.62121 0
M  V30 1609 H 139.448 -1.22702 0.852322 0
M  V30 1610 H 141.33 -4.20917 -0.201729 0
M  V30 1611 H 140.005 -3.14811 -0.753364 0
M  V30 1612 H 138.912 -3.40493 1.54968 0
M  V30 1613 H 140.245 -4.48796 2.02097 0
M  V30 1614 N 141.898 -0.863906 -1.31812 0
M  V30 1615 C 142.828 -0.330843 -2.31144 0
M  V30 1616 C 143.809 0.575005 -1.60087 0
M  V30 1617 O 144.994 0.493304 -1.8783 0
M  V30 1618 C 142.124 0.47374 -3.44054 0
M  V30 1619 C 141.078 -0.338481 -4.26659 0
M  V30 1620 C 140.404 0.591412 -5.31419 0
M  V30 1621 C 141.704 -1.56926 -4.98168 0
M  V30 1622 H 143.398 -1.16086 -2.75979 0
M  V30 1623 H 140.944 -0.559657 -1.32679 0
M  V30 1624 H 142.897 0.857143 -4.12591 0
M  V30 1625 H 141.621 1.33721 -2.9797 0
M  V30 1626 H 140.28 -0.703754 -3.59782 0
M  V30 1627 H 139.928 1.45199 -4.81587 0
M  V30 1628 H 139.628 0.0519022 -5.87577 0
M  V30 1629 H 141.152 0.97179 -6.02817 0
M  V30 1630 H 142.566 -1.25764 -5.59336 0
M  V30 1631 H 140.963 -2.04739 -5.64094 0
M  V30 1632 H 142.033 -2.32544 -4.25501 0
M  V30 1633 N 143.376 1.44774 -0.622745 0
M  V30 1634 C 144.623 2.02121 -0.1239 0
M  V30 1635 C 144.951 1.48915 1.25118 0
M  V30 1636 O 144.206 0.660045 1.84233 0
M  V30 1637 C 144.505 3.57364 -0.0508323 0
M  V30 1638 C 144.171 4.29787 -1.36358 0
M  V30 1639 C 142.833 4.4929 -1.72314 0
M  V30 1640 C 145.185 4.71062 -2.23048 0
M  V30 1641 C 142.513 5.07325 -2.94682 0
M  V30 1642 C 144.865 5.30452 -3.44679 0
M  V30 1643 C 143.529 5.48175 -3.80868 0
M  V30 1644 H 142.799 0.739612 -0.0453381 0
M  V30 1645 H 145.446 1.73648 -0.807389 0
M  V30 1646 H 143.751 3.85202 0.715991 0
M  V30 1647 H 145.448 3.99456 0.351533 0
M  V30 1648 H 142.038 4.14932 -1.07375 0
M  V30 1649 H 146.222 4.55715 -1.96565 0
M  V30 1650 H 141.478 5.19235 -3.22809 0
M  V30 1651 H 145.652 5.61385 -4.12092 0
M  V30 1652 H 143.279 5.92912 -4.75773 0
M  V30 1653 N 144.854 0.36279 1.53368 0
M  V30 1654 C 145.787 -0.528507 2.21996 0
M  V30 1655 C 146.765 -1.0852 1.21087 0
M  V30 1656 O 147.949 -1.14186 1.4998 0
M  V30 1657 C 145.076 -1.72893 2.91249 0
M  V30 1658 C 144.122 -1.29994 4.06207 0
M  V30 1659 S 144.955 -0.303575 5.34639 0
M  V30 1660 C 146.111 -1.51039 6.07403 0
M  V30 1661 H 146.344 0.0543423 2.9725 0
M  V30 1662 H 143.877 0.146889 1.537 0
M  V30 1663 H 145.835 -2.41751 3.31763 0
M  V30 1664 H 144.496 -2.28303 2.15724 0
M  V30 1665 H 143.689 -2.19549 4.53667 0
M  V30 1666 H 143.291 -0.690608 3.67569 0
M  V30 1667 H 145.583 -2.44186 6.31965 0
M  V30 1668 H 146.526 -1.07721 6.99858 0
M  V30 1669 H 146.934 -1.71518 5.37812 0
M  V30 1670 N 146.332 -1.57332 0.0918853 0
M  V30 1671 C 147.58 -1.93853 -0.571446 0
M  V30 1672 C 147.901 -0.974212 -1.6892 0
M  V30 1673 O 147.171 -0.0257254 -1.95883 0
M  V30 1674 H 145.751 -0.715666 -0.214082 0
M  V30 1675 H 148.413 -1.94287 0.154464 0
M  V30 1676 H 147.509 -2.96191 -0.983729 0
M  V30 1677 N 147.81 0.181792 -1.56548 0
M  V30 1678 C 149.035 0.920019 -1.85877 0
M  V30 1679 C 149.46 1.75494 -0.677021 0
M  V30 1680 O 148.818 1.77399 0.374056 0
M  V30 1681 C 148.866 1.78112 -3.13542 0
M  V30 1682 O 147.97 2.88152 -2.95029 0
M  V30 1683 H 147.311 0.258334 -0.611686 0
M  V30 1684 H 149.841 0.183092 -2.03779 0
M  V30 1685 H 149.851 2.18314 -3.44678 0
M  V30 1686 H 148.526 1.16777 -3.99169 0
M  V30 1687 H 147.103 2.51609 -2.75222 0
M  V30 1688 N 149.288 1.51039 0.449983 0
M  V30 1689 C 150.518 1.66627 1.22143 0
M  V30 1690 C 150.926 0.357776 1.85786 0
M  V30 1691 O 150.269 -0.672424 1.70951 0
M  V30 1692 C 150.331 2.71562 2.35573 0
M  V30 1693 C 149.995 4.14526 1.92399 0
M  V30 1694 C 150.992 4.99717 1.43453 0
M  V30 1695 C 148.677 4.60559 2.00475 0
M  V30 1696 C 150.671 6.28998 1.03155 0
M  V30 1697 C 148.358 5.8984 1.59788 0
M  V30 1698 C 149.356 6.73886 1.11208 0
M  V30 1699 O 149.044 8.0075 0.710935 0
M  V30 1700 H 148.776 0.562635 0.374724 0
M  V30 1701 H 151.33 1.98146 0.541036 0
M  V30 1702 H 149.56 2.3533 3.06849 0
M  V30 1703 H 151.249 2.76156 2.97478 0
M  V30 1704 H 152.015 4.65361 1.36618 0
M  V30 1705 H 147.894 3.95273 2.37235 0
M  V30 1706 H 151.438 6.9455 0.651663 0
M  V30 1707 H 147.335 6.23713 1.66289 0
M  V30 1708 H 148.103 8.142 0.837913 0
M  V30 1709 N 150.766 -0.704594 1.40972 0
M  V30 1710 C 151.714 -1.83994 1.42299 0
M  V30 1711 C 152.708 -1.66684 0.302111 0
M  V30 1712 O 153.914 -1.73655 0.473697 0
M  V30 1713 H 150.289 -0.606171 0.44504 0
M  V30 1714 H 152.26 -1.79992 2.38003 0
M  V30 1715 C 151.009 -3.21946 1.31323 0
M  V30 1716 H 150.332 -3.35878 2.16855 0
M  V30 1717 H 151.772 -4.01491 1.36311 0
M  V30 1718 C 150.231 -3.36891 0.0245977 0
M  V30 1719 O 150.761 -3.90687 -0.934153 0
M  V30 1720 N 148.967 -2.90559 -0.0485243 0
M  V30 1721 H 148.514 -2.46968 0.732419 0
M  V30 1722 H 148.472 -3.00937 -0.910171 0
M  V30 1723 N 152.244 -1.26651 -0.937939 0
M  V30 1724 C 153.207 -1.08546 -2.01867 0
M  V30 1725 C 154.207 -0.0327327 -1.60767 0
M  V30 1726 O 155.397 -0.276427 -1.71993 0
M  V30 1727 C 152.529 -0.651711 -3.34613 0
M  V30 1728 H 153.722 -2.04502 -2.1936 0
M  V30 1729 H 151.275 -1.09294 -1.11734 0
M  V30 1730 H 152.01 0.309696 -3.22818 0
M  V30 1731 H 151.795 -1.41189 -3.65798 0
M  V30 1732 H 153.285 -0.546973 -4.14002 0
M  V30 1733 N 153.722 1.14298 -1.08507 0
M  V30 1734 C 154.97 1.84993 -0.813763 0
M  V30 1735 C 155.291 1.83405 0.662393 0
M  V30 1736 O 154.561 1.28319 1.48024 0
M  V30 1737 H 153.141 0.684966 -0.298045 0
M  V30 1738 H 155.803 1.385 -1.37126 0
M  V30 1739 H 154.899 2.89788 -1.15884 0
M  V30 1740 N 155.201 0.870884 1.31352 0
M  V30 1741 C 156.431 0.496049 2.00557 0
M  V30 1742 C 156.839 -0.916241 1.65534 0
M  V30 1743 O 156.182 -1.61188 0.881134 0
M  V30 1744 C 156.244 0.574418 3.54881 0
M  V30 1745 C 155.908 1.94849 4.1338 0
M  V30 1746 C 156.905 2.91611 4.30417 0
M  V30 1747 C 154.59 2.25005 4.49086 0
M  V30 1748 C 156.584 4.16672 4.82352 0
M  V30 1749 C 154.271 3.50315 5.00722 0
M  V30 1750 C 155.269 4.45964 5.17306 0
M  V30 1751 O 154.957 5.69052 5.67833 0
M  V30 1752 H 154.689 0.191664 0.64826 0
M  V30 1753 H 157.243 1.17409 1.68536 0
M  V30 1754 H 155.473 -0.160549 3.86367 0
M  V30 1755 H 157.162 0.212879 4.05341 0
M  V30 1756 H 157.928 2.69622 4.03149 0
M  V30 1757 H 153.807 1.51332 4.35453 0
M  V30 1758 H 157.351 4.91336 4.95211 0
M  V30 1759 H 153.248 3.72147 5.27424 0
M  V30 1760 H 154.016 5.71236 5.86201 0
M  V30 1761 N 156.679 -1.44442 0.630414 0
M  V30 1762 C 157.904 -2.06927 0.139944 0
M  V30 1763 C 158.329 -1.46795 -1.17613 0
M  V30 1764 O 157.687 -0.569144 -1.72135 0
M  V30 1765 C 157.735 -3.6058 0.0379581 0
M  V30 1766 O 156.839 -3.99937 -1.0062 0
M  V30 1767 H 156.18 -0.658608 0.0844483 0
M  V30 1768 H 158.71 -1.85327 0.866891 0
M  V30 1769 H 158.72 -4.07714 -0.152856 0
M  V30 1770 H 157.395 -4.03728 0.998809 0
M  V30 1771 H 155.972 -3.64436 -0.79001 0
M  V30 1772 N 158.157 -0.370918 -1.53173 0
M  V30 1773 C 159.387 0.217389 -2.05453 0
M  V30 1774 C 159.795 1.42568 -1.24382 0
M  V30 1775 O 159.138 1.81571 -0.278839 0
M  V30 1776 C 159.2 0.669827 -3.53205 0
M  V30 1777 C 158.864 -0.4225 -4.55043 0
M  V30 1778 C 159.861 -1.27407 -5.04047 0
M  V30 1779 C 157.546 -0.58427 -4.9889 0
M  V30 1780 C 159.54 -2.27271 -5.95505 0
M  V30 1781 C 157.227 -1.58627 -5.90153 0
M  V30 1782 C 158.225 -2.42892 -6.38351 0
M  V30 1783 O 157.913 -3.41382 -7.27814 0
M  V30 1784 H 157.645 0.0408171 -0.674767 0
M  V30 1785 H 160.199 -0.5292 -1.98466 0
M  V30 1786 H 158.429 1.4681 -3.57748 0
M  V30 1787 H 160.118 1.18173 -3.88317 0
M  V30 1788 H 160.884 -1.16031 -4.70916 0
M  V30 1789 H 156.763 0.061851 -4.60959 0
M  V30 1790 H 160.307 -2.93079 -6.33049 0
M  V30 1791 H 156.204 -1.70048 -6.22699 0
M  V30 1792 H 156.972 -3.37173 -7.45826 0
M  V30 1793 N 159.635 1.57281 -0.100228 0
M  V30 1794 C 160.884 1.93713 0.561984 0
M  V30 1795 C 161.197 0.984492 1.69018 0
M  V30 1796 O 162.403 1.24273 2.41389 0
M  V30 1797 C 160.859 3.4421 1.05106 0
M  V30 1798 C 160.467 4.47975 -0.0476628 0
M  V30 1799 C 162.211 3.89595 1.68571 0
M  V30 1800 C 160.118 5.89631 0.457055 0
M  V30 1801 H 159.048 0.723082 0.2137 0
M  V30 1802 H 161.699 1.82644 -0.177057 0
M  V30 1803 H 160.081 3.50449 1.84395 0
M  V30 1804 H 161.255 4.53385 -0.823333 0
M  V30 1805 H 159.57 4.1223 -0.587816 0
M  V30 1806 H 162.167 4.92832 2.07414 0
M  V30 1807 H 162.51 3.28526 2.55688 0
M  V30 1808 H 163.043 3.86078 0.958562 0
M  V30 1809 H 159.782 6.54411 -0.377616 0
M  V30 1810 H 159.302 5.87681 1.19962 0
M  V30 1811 H 160.981 6.40363 0.92437 0
M  V30 1812 N 161.113 -0.173488 1.56642 0
M  V30 1813 C 162.353 -0.896984 1.83667 0
M  V30 1814 C 162.717 -1.79523 0.680842 0
M  V30 1815 O 163.918 -2.55616 0.831488 0
M  V30 1816 C 162.189 -1.67351 3.15798 0
M  V30 1817 S 163.748 -2.44607 3.64298 0
M  V30 1818 H 160.566 -0.300464 0.644393 0
M  V30 1819 H 163.168 -0.158775 1.94854 0
M  V30 1820 H 161.872 -1.00462 3.97914 0
M  V30 1821 H 161.403 -2.45313 3.07546 0
M  V30 1822 H 163.418 -3.69261 3.31452 0
M  V30 1823 N 162.591 -1.51276 -0.441967 0
M  V30 1824 C 163.523 -1.68444 -1.55433 0
M  V30 1825 C 164.536 -0.565187 -1.52674 0
M  V30 1826 O 165.725 -0.839356 -1.57534 0
M  V30 1827 C 162.825 -1.67966 -2.94348 0
M  V30 1828 C 161.998 -2.964 -3.21661 0
M  V30 1829 C 161.057 -2.88171 -4.40277 0
M  V30 1830 O 160.083 -3.62119 -4.39157 0
M  V30 1831 N 161.285 -2.03706 -5.43584 0
M  V30 1832 H 164.05 -2.644 -1.41112 0
M  V30 1833 H 161.611 -1.49104 -0.630838 0
M  V30 1834 H 163.603 -1.60035 -3.71713 0
M  V30 1835 H 162.173 -0.796225 -3.0229 0
M  V30 1836 H 161.393 -3.18234 -2.32638 0
M  V30 1837 H 162.681 -3.81427 -3.36736 0
M  V30 1838 H 162.079 -1.42995 -5.47329 0
M  V30 1839 H 160.636 -2.01658 -6.1982 0
M  V30 1840 N 164.069 0.697108 -1.41344 0
M  V30 1841 C 165.294 1.49096 -1.44171 0
M  V30 1842 C 165.719 1.88038 -0.0481568 0
M  V30 1843 O 165.077 1.54525 0.948243 0
M  V30 1844 C 165.125 2.73088 -2.3549 0
M  V30 1845 O 164.229 3.70514 -1.81088 0
M  V30 1846 H 163.57 0.448801 -0.489361 0
M  V30 1847 H 166.1 0.856992 -1.85787 0
M  V30 1848 H 166.11 3.21413 -2.51312 0
M  V30 1849 H 164.785 2.44081 -3.36745 0
M  V30 1850 H 163.362 3.29441 -1.74708 0
M  V30 1851 N 165.547 1.27147 0.931209 0
M  V30 1852 C 166.793 1.13446 1.68101 0
M  V30 1853 C 167.126 -0.319628 1.91552 0
M  V30 1854 O 166.401 -1.23407 1.50336 0
M  V30 1855 C 166.684 1.91482 3.0497 0
M  V30 1856 C 166.537 3.44855 2.88782 0
M  V30 1857 C 167.856 1.71651 4.05246 0
M  V30 1858 H 164.975 0.413498 0.610072 0
M  V30 1859 H 167.617 1.56261 1.08086 0
M  V30 1860 H 165.767 1.55095 3.56199 0
M  V30 1861 H 167.439 3.9105 2.44698 0
M  V30 1862 H 165.682 3.71373 2.24198 0
M  V30 1863 H 166.353 3.94694 3.85902 0
M  V30 1864 H 168.829 2.0337 3.63015 0
M  V30 1865 H 167.705 2.28651 4.99009 0
M  V30 1866 H 167.966 0.663555 4.37092 0
M  V30 1867 N 167.025 -1.13721 1.09112 0
M  V30 1868 C 168.302 -1.81155 0.737706 0
M  V30 1869 C 168.682 -1.96253 -0.777683 0
M  V30 1870 O 168.03 -1.52807 -1.69889 0
M  V30 1871 C 168.24 -3.16392 1.47299 0
M  V30 1872 C 169.588 -3.91787 1.63671 0
M  V30 1873 O 170.612 -3.26005 1.43524 0
M  V30 1874 O 169.471 -5.0977 1.96969 0
M  V30 1875 H 166.565 -0.783518 0.26463 0
M  V30 1876 H 169.111 -1.20676 1.19312 0
M  V30 1877 H 167.883 -3.0061 2.50498 0
M  V30 1878 H 167.506 -3.8457 1.00953 0
M  V30 1879 N 168.503 -0.877838 -1.30888 0
M  V30 1880 C 169.733 -0.506678 -2.00291 0
M  V30 1881 C 170.141 0.907449 -1.66018 0
M  V30 1882 O 169.484 1.60719 -0.88967 0
M  V30 1883 C 169.546 -0.59323 -3.54572 0
M  V30 1884 C 169.21 -1.97038 -4.12341 0
M  V30 1885 C 170.207 -2.93889 -4.28865 0
M  V30 1886 C 167.892 -2.27383 -4.47886 0
M  V30 1887 C 169.886 -4.19224 -4.80136 0
M  V30 1888 C 167.573 -3.52965 -4.98857 0
M  V30 1889 C 168.571 -4.48701 -5.14934 0
M  V30 1890 O 168.259 -5.72056 -5.64808 0
M  V30 1891 H 167.991 -0.1951 -0.647234 0
M  V30 1892 H 170.545 -1.18301 -1.6791 0
M  V30 1893 H 168.775 0.140057 -3.86446 0
M  V30 1894 H 170.464 -0.234372 -4.05223 0
M  V30 1895 H 171.23 -2.71756 -4.01714 0
M  V30 1896 H 167.109 -1.53639 -4.34645 0
M  V30 1897 H 170.653 -4.93956 -4.92599 0
M  V30 1898 H 166.55 -3.74939 -5.25443 0
M  V30 1899 H 167.318 -5.74337 -5.83163 0
M  V30 1900 N 169.982 1.44106 -0.638065 0
M  V30 1901 C 171.207 2.0685 -0.150916 0
M  V30 1902 C 171.632 1.47417 1.16833 0
M  V30 1903 O 170.99 0.578264 1.71831 0
M  V30 1904 C 171.038 3.60555 -0.05708 0
M  V30 1905 O 170.142 4.00465 0.984972 0
M  V30 1906 H 169.483 0.658151 -0.0879399 0
M  V30 1907 H 172.013 1.84865 -0.876707 0
M  V30 1908 H 172.023 4.07789 0.131232 0
M  V30 1909 H 170.698 4.03193 -1.02021 0
M  V30 1910 H 169.275 3.64849 0.770672 0
M  V30 1911 N 171.46 0.379036 1.52974 0
M  V30 1912 C 172.408 -0.476033 2.27677 0
M  V30 1913 C 173.402 -1.0719 1.31174 0
M  V30 1914 O 174.608 -1.01355 1.48752 0
M  V30 1915 H 170.983 -0.172255 0.732006 0
M  V30 1916 H 172.954 0.175615 2.97883 0
M  V30 1917 C 171.703 -1.5967 3.0887 0
M  V30 1918 H 171.026 -1.1475 3.82978 0
M  V30 1919 H 172.466 -2.16943 3.64296 0
M  V30 1920 C 170.925 -2.54682 2.20542 0
M  V30 1921 O 171.455 -3.57836 1.82527 0
M  V30 1922 N 169.661 -2.24183 1.84907 0
M  V30 1923 H 169.208 -1.40333 2.1602 0
M  V30 1924 H 169.166 -2.88006 1.26096 0
M  V30 1925 N 172.938 -1.57226 0.108567 0
M  V30 1926 C 173.886 -2.16002 -0.862885 0
M  V30 1927 C 174.88 -1.10644 -1.28274 0
M  V30 1928 O 176.086 -1.28966 -1.2557 0
M  V30 1929 H 172.461 -0.691148 -0.296342 0
M  V30 1930 H 174.432 -2.96427 -0.342575 0
M  V30 1931 C 173.181 -2.76576 -2.10716 0
M  V30 1932 H 172.504 -3.5734 -1.793 0
M  V30 1933 H 173.944 -3.21253 -2.76717 0
M  V30 1934 C 172.403 -1.73137 -2.89007 0
M  V30 1935 O 172.933 -1.17842 -3.84026 0
M  V30 1936 N 171.139 -1.43317 -2.52801 0
M  V30 1937 H 170.686 -1.88473 -1.75601 0
M  V30 1938 H 170.644 -0.743485 -3.05483 0
M  V30 1939 N 174.416 0.165178 -1.56732 0
M  V30 1940 C 175.662 0.882112 -1.82611 0
M  V30 1941 C 175.995 1.81628 -0.687378 0
M  V30 1942 O 175.27 1.92009 0.310267 0
M  V30 1943 C 175.553 1.67245 -3.18906 0
M  V30 1944 C 175.406 0.760987 -4.43316 0
M  V30 1945 C 176.725 2.63884 -3.52212 0
M  V30 1946 H 173.844 0.319242 -0.664269 0
M  V30 1947 H 176.486 0.148052 -1.89422 0
M  V30 1948 H 174.636 2.29824 -3.1323 0
M  V30 1949 H 176.308 0.147596 -4.61064 0
M  V30 1950 H 174.551 0.0694102 -4.33744 0
M  V30 1951 H 175.222 1.34962 -5.35247 0
M  V30 1952 H 177.698 2.11429 -3.58381 0
M  V30 1953 H 176.574 3.16245 -4.48643 0
M  V30 1954 H 176.835 3.44377 -2.77231 0
M  V30 1955 N 175.894 1.51508 0.433938 0
M  V30 1956 C 176.844 1.69451 1.52546 0
M  V30 1957 C 177.828 0.548474 1.51263 0
M  V30 1958 O 179.02 0.804529 1.57659 0
M  V30 1959 C 176.149 1.82604 2.90707 0
M  V30 1960 C 175.235 3.03002 2.96733 0
M  V30 1961 N 175.626 4.26121 2.72496 0
M  V30 1962 C 173.924 3.02327 3.27894 0
M  V30 1963 C 174.625 5.07407 2.84452 0
M  V30 1964 N 173.601 4.42126 3.16269 0
M  V30 1965 H 177.403 2.62305 1.32564 0
M  V30 1966 H 174.917 1.49202 0.641297 0
M  V30 1967 H 176.914 1.93569 3.69238 0
M  V30 1968 H 175.574 0.909339 3.11707 0
M  V30 1969 H 176.585 4.55009 2.4736 0
M  V30 1970 H 173.262 2.20301 3.54646 0
M  V30 1971 H 174.652 6.15422 2.69639 0
M  V30 1972 N 177.372 -0.689602 1.41712 0
M  V30 1973 C 178.282 -1.83314 1.46401 0
M  V30 1974 C 179.298 -1.7036 0.35405 0
M  V30 1975 O 180.474 -1.92171 0.602692 0
M  V30 1976 C 177.539 -3.19344 1.34982 0
M  V30 1977 C 176.6 -3.44363 2.56344 0
M  V30 1978 C 175.833 -4.73904 2.45461 0
M  V30 1979 O 176.056 -5.508 1.48241 0
M  V30 1980 O 174.99 -4.99839 3.35328 0
M  V30 1981 H 178.816 -1.82314 2.42889 0
M  V30 1982 H 176.401 -0.843438 1.23315 0
M  V30 1983 H 178.283 -4.00547 1.3092 0
M  V30 1984 H 176.958 -3.21014 0.41612 0
M  V30 1985 H 175.865 -2.63067 2.65982 0
M  V30 1986 H 177.198 -3.47512 3.48563 0
M  V30 1987 N 178.85 -1.27639 -0.924453 0
M  V30 1988 C 180.096 -1.14336 -1.67497 0
M  V30 1989 C 180.429 0.309465 -1.91718 0
M  V30 1990 O 179.704 1.22608 -1.50989 0
M  V30 1991 C 179.987 -1.93096 -3.0395 0
M  V30 1992 C 179.84 -3.46381 -2.8695 0
M  V30 1993 C 181.159 -1.73798 -4.0433 0
M  V30 1994 H 178.278 -0.416728 -0.607871 0
M  V30 1995 H 180.92 -1.56832 -1.07256 0
M  V30 1996 H 179.07 -1.56982 -3.55372 0
M  V30 1997 H 180.742 -3.92343 -2.42621 0
M  V30 1998 H 178.985 -3.72557 -2.22225 0
M  V30 1999 H 179.656 -3.96735 -3.83804 0
M  V30 2000 H 182.132 -2.05293 -3.61931 0
M  V30 2001 H 181.008 -2.31294 -4.97789 0
M  V30 2002 H 181.269 -0.686725 -4.36734 0
M  V30 2003 N 180.328 1.1314 -1.09713 0
M  V30 2004 C 181.744 1.36477 -0.827423 0
M  V30 2005 C 181.944 1.93654 0.556817 0
M  V30 2006 O 181 2.15791 1.31112 0
M  V30 2007 C 182.313 2.31334 -1.92106 0
M  V30 2008 C 183.861 2.44943 -1.94864 0
M  V30 2009 C 184.336 3.4311 -3.0338 0
M  V30 2010 N 185.827 3.50662 -3.02639 0
M  V30 2011 C 186.562 4.2651 -3.83246 0
M  V30 2012 N 186.058 5.05485 -4.73768 0
M  V30 2013 N 187.851 4.2184 -3.71493 0
M  V30 2014 H 180.002 0.743807 -1.9895 0
M  V30 2015 H 182.265 0.389823 -0.864143 0
M  V30 2016 H 181.971 1.96483 -2.91698 0
M  V30 2017 H 181.845 3.31381 -1.80184 0
M  V30 2018 H 184.232 2.79079 -0.959099 0
M  V30 2019 H 184.313 1.4481 -2.10864 0
M  V30 2020 H 183.957 3.09704 -4.02549 0
M  V30 2021 H 183.887 4.43055 -2.84622 0
M  V30 2022 H 186.378 2.94315 -2.37039 0
M  V30 2023 H 186.691 5.60675 -5.3185 0
M  V30 2024 H 185.036 5.04708 -4.77802 0
M  V30 2025 H 188.227 3.5922 -3.00131 0
M  V30 2026 H 188.4 4.80697 -4.3455 0
M  V30 2027 N 181.806 0.884767 1.30421 0
M  V30 2028 C 183.055 0.499164 1.95426 0
M  V30 2029 C 183.368 -0.95645 1.70621 0
M  V30 2030 O 184.574 -1.44889 2.29607 0
M  V30 2031 C 183.03 0.84177 3.49917 0
M  V30 2032 C 182.638 2.31514 3.83543 0
M  V30 2033 C 184.382 0.525355 4.21237 0
M  V30 2034 C 182.289 2.59939 5.31212 0
M  V30 2035 H 181.219 0.182944 0.73147 0
M  V30 2036 H 183.87 1.07971 1.48373 0
M  V30 2037 H 182.252 0.190311 3.95542 0
M  V30 2038 H 183.426 3.0109 3.48829 0
M  V30 2039 H 181.741 2.59907 3.25326 0
M  V30 2040 H 184.338 0.714762 5.29901 0
M  V30 2041 H 184.681 -0.535222 4.12845 0
M  V30 2042 H 185.214 1.134 3.81294 0
M  V30 2043 H 181.953 3.64736 5.44654 0
M  V30 2044 H 181.473 1.94972 5.67227 0
M  V30 2045 H 183.152 2.45429 5.98643 0
M  V30 2046 N 183.284 -1.43765 0.645699 0
M  V30 2047 C 184.247 -2.29163 -0.0409488 0
M  V30 2048 C 185.247 -1.41813 -0.757996 0
M  V30 2049 O 186.437 -1.63527 -0.600382 0
M  V30 2050 C 183.569 -3.23716 -1.06869 0
M  V30 2051 H 184.762 -2.91366 0.710345 0
M  V30 2052 H 182.315 -1.5092 0.406547 0
M  V30 2053 H 183.05 -2.66393 -1.84947 0
M  V30 2054 H 182.835 -3.88105 -0.558277 0
M  V30 2055 H 184.325 -3.87831 -1.54845 0
M  V30 2056 N 184.763 -0.387143 -1.52771 0
M  V30 2057 C 185.726 0.436939 -2.24997 0
M  V30 2058 C 186.726 0.991991 -1.26555 0
M  V30 2059 O 187.916 0.874335 -1.50669 0
M  V30 2060 C 185.048 1.61281 -3.00335 0
M  V30 2061 H 186.241 -0.195365 -2.99263 0
M  V30 2062 H 183.794 -0.139218 -1.55679 0
M  V30 2063 H 184.529 2.2826 -2.30364 0
M  V30 2064 H 184.314 1.22154 -3.72587 0
M  V30 2065 H 185.804 2.19629 -3.5518 0
M  V30 2066 N 186.241 1.57166 -0.116904 0
M  V30 2067 C 187.204 2.14039 0.819742 0
M  V30 2068 C 188.204 1.07477 1.19605 0
M  V30 2069 O 189.394 1.33263 1.1219 0
M  V30 2070 C 186.526 2.67891 2.10826 0
M  V30 2071 H 187.719 2.98128 0.325511 0
M  V30 2072 H 185.272 1.55739 0.132312 0
M  V30 2073 H 186.007 1.87384 2.64685 0
M  V30 2074 H 185.792 3.45823 1.84793 0
M  V30 2075 H 187.282 3.11809 2.77785 0
M  V30 2076 N 187.719 -0.156864 1.56817 0
M  V30 2077 C 188.649 -1.19589 2.00551 0
M  V30 2078 C 189.63 -1.4536 0.883426 0
M  V30 2079 O 190.815 -1.56449 1.15054 0
M  V30 2080 C 187.945 -2.53143 2.37773 0
M  V30 2081 C 186.899 -2.41913 3.53075 0
M  V30 2082 C 186.225 -3.80088 3.76081 0
M  V30 2083 C 187.525 -1.91157 4.86062 0
M  V30 2084 H 189.219 -0.832293 2.87599 0
M  V30 2085 H 186.765 -0.398918 1.38364 0
M  V30 2086 H 188.718 -3.26047 2.66967 0
M  V30 2087 H 187.442 -2.91319 1.4765 0
M  V30 2088 H 186.101 -1.71462 3.24031 0
M  V30 2089 H 185.749 -4.15683 2.83225 0
M  V30 2090 H 185.449 -3.73439 4.53671 0
M  V30 2091 H 186.973 -4.54556 4.0769 0
M  V30 2092 H 188.387 -2.53846 5.14038 0
M  V30 2093 H 186.784 -1.95422 5.67389 0
M  V30 2094 H 187.854 -0.866673 4.77092 0
M  V30 2095 N 189.197 -1.51736 -0.425897 0
M  V30 2096 C 190.443 -1.66174 -1.17294 0
M  V30 2097 C 190.798 -0.37876 -1.88635 0
M  V30 2098 O 190.091 0.626021 -1.81084 0
M  V30 2099 C 190.285 -2.81103 -2.20717 0
M  V30 2100 C 190.114 -4.20453 -1.59529 0
M  V30 2101 C 188.884 -4.86225 -1.37525 0
M  V30 2102 C 191.082 -5.03146 -1.06528 0
M  V30 2103 N 189.064 -6.09657 -0.720537 0
M  V30 2104 C 190.435 -6.17674 -0.536506 0
M  V30 2105 C 192.49 -4.88594 -0.958127 0
M  V30 2106 C 191.193 -7.19245 0.0888917 0
M  V30 2107 C 193.219 -5.90383 -0.346608 0
M  V30 2108 C 192.581 -7.04191 0.171564 0
M  V30 2109 H 188.68 -0.661871 -0.416475 0
M  V30 2110 H 191.264 -1.88997 -0.467801 0
M  V30 2111 H 189.435 -2.59924 -2.88607 0
M  V30 2112 H 191.167 -2.84662 -2.87663 0
M  V30 2113 H 187.922 -4.44293 -1.64015 0
M  V30 2114 H 188.346 -6.75756 -0.410292 0
M  V30 2115 H 192.988 -4.0085 -1.34459 0
M  V30 2116 H 190.706 -8.06628 0.48746 0
M  V30 2117 H 194.292 -5.81194 -0.265451 0
M  V30 2118 H 193.172 -7.81606 0.637309 0
M  V30 2119 N 190.675 0.682077 -1.42076 0
M  V30 2120 C 191.921 1.44283 -1.43366 0
M  V30 2121 C 192.276 1.92344 -0.0465775 0
M  V30 2122 O 191.569 1.67517 0.929973 0
M  V30 2123 C 191.763 2.66036 -2.38662 0
M  V30 2124 C 191.592 2.29889 -3.86499 0
M  V30 2125 C 190.362 2.19599 -4.55087 0
M  V30 2126 C 192.56 1.91999 -4.77117 0
M  V30 2127 N 190.542 1.76478 -5.87987 0
M  V30 2128 C 191.913 1.59741 -5.99068 0
M  V30 2129 C 193.968 1.78927 -4.64639 0
M  V30 2130 C 192.671 1.15723 -7.0993 0
M  V30 2131 C 194.697 1.36314 -5.75476 0
M  V30 2132 C 194.059 1.04975 -6.96534 0
M  V30 2133 H 190.158 0.524739 -0.579805 0
M  V30 2134 H 192.742 0.787834 -1.78048 0
M  V30 2135 H 190.913 3.29237 -2.06053 0
M  V30 2136 H 192.645 3.32588 -2.30581 0
M  V30 2137 H 189.4 2.38433 -4.09202 0
M  V30 2138 H 189.824 1.57362 -6.58458 0
M  V30 2139 H 194.466 2.01805 -3.7153 0
M  V30 2140 H 192.184 0.91591 -8.02893 0
M  V30 2141 H 195.77 1.26731 -5.6783 0
M  V30 2142 H 194.65 0.725017 -7.80841 0
M  V30 2143 N 192.153 1.28127 0.917671 0
M  V30 2144 C 193.383 1.17722 1.6978 0
M  V30 2145 C 193.791 -0.267261 1.87303 0
M  V30 2146 O 193.134 -1.19286 1.39702 0
M  V30 2147 C 193.196 1.79958 3.11216 0
M  V30 2148 C 192.86 3.29187 3.16993 0
M  V30 2149 C 193.857 4.25679 2.98485 0
M  V30 2150 C 191.542 3.70075 3.39632 0
M  V30 2151 C 193.536 5.61035 3.02521 0
M  V30 2152 C 191.223 5.05557 3.433 0
M  V30 2153 C 192.221 6.00847 3.24764 0
M  V30 2154 O 191.909 7.33859 3.28187 0
M  V30 2155 H 191.641 0.409788 0.537634 0
M  V30 2156 H 194.195 1.69694 1.15728 0
M  V30 2157 H 192.425 1.22475 3.66793 0
M  V30 2158 H 194.114 1.64125 3.71238 0
M  V30 2159 H 194.88 3.95426 2.80826 0
M  V30 2160 H 190.759 2.96373 3.53106 0
M  V30 2161 H 194.303 6.35388 2.87971 0
M  V30 2162 H 190.2 5.35462 3.60486 0
M  V30 2163 H 190.968 7.42436 3.44575 0
M  V30 2164 N 193.631 -1.12557 1.10312 0
M  V30 2165 C 194.878 -1.84038 0.844759 0
M  V30 2166 C 195.206 -1.84026 -0.629668 0
M  V30 2167 O 194.461 -1.28026 -1.48013 0
M  V30 2168 C 194.76 -3.31462 1.33669 0
M  V30 2169 C 194.426 -3.51647 2.82232 0
M  V30 2170 C 193.088 -3.56864 3.22802 0
M  V30 2171 C 195.44 -3.58867 3.77974 0
M  V30 2172 C 192.768 -3.66844 4.57867 0
M  V30 2173 C 195.12 -3.70375 5.1284 0
M  V30 2174 C 193.784 -3.73848 5.52986 0
M  V30 2175 H 193.054 -0.673444 0.309119 0
M  V30 2176 H 195.701 -1.32824 1.37949 0
M  V30 2177 H 194.006 -3.85091 0.721949 0
M  V30 2178 H 195.703 -3.85236 1.11329 0
M  V30 2179 H 192.293 -3.48249 2.49842 0
M  V30 2180 H 196.477 -3.54107 3.47738 0
M  V30 2181 H 191.733 -3.67804 4.88396 0
M  V30 2182 H 195.907 -3.74904 5.86873 0
M  V30 2183 H 193.534 -3.81333 6.57639 0
M  V30 2184 N 195.109 -0.891671 -1.2995 0
M  V30 2185 C 196.355 -0.514261 -1.96171 0
M  V30 2186 C 196.688 0.935506 -1.70182 0
M  V30 2187 O 195.963 1.66204 -1.01028 0
M  V30 2188 C 196.246 -0.797719 -3.51153 0
M  V30 2189 C 196.099 -2.2986 -3.86632 0
M  V30 2190 C 197.418 -0.278749 -4.39216 0
M  V30 2191 H 194.537 -0.188314 -0.712535 0
M  V30 2192 H 197.179 -1.11689 -1.53706 0
M  V30 2193 H 195.329 -0.284826 -3.87455 0
M  V30 2194 H 197.001 -2.88042 -3.60319 0
M  V30 2195 H 195.244 -2.76257 -3.34462 0
M  V30 2196 H 195.915 -2.44753 -4.94773 0
M  V30 2197 H 198.391 -0.717825 -4.09862 0
M  V30 2198 H 197.267 -0.506353 -5.46559 0
M  V30 2199 H 197.528 0.820266 -4.34424 0
M  V30 2200 N 196.587 1.43421 -0.653314 0
M  V30 2201 C 197.812 2.06678 -0.172846 0
M  V30 2202 C 198.237 1.48648 1.15262 0
M  V30 2203 O 197.595 0.596457 1.71208 0
M  V30 2204 C 197.643 3.60474 -0.0953184 0
M  V30 2205 O 196.747 4.01487 0.942442 0
M  V30 2206 H 196.088 0.657181 -0.0949155 0
M  V30 2207 H 198.618 1.83925 -0.896265 0
M  V30 2208 H 198.628 4.07905 0.0879728 0
M  V30 2209 H 197.303 4.02088 -1.06291 0
M  V30 2210 H 195.88 3.65646 0.731932 0
M  V30 2211 N 198.065 0.39524 1.52563 0
M  V30 2212 C 199.012 -0.437036 2.26624 0
M  V30 2213 C 199.982 -1.05281 1.28472 0
M  V30 2214 O 201.167 -1.07971 1.57311 0
M  V30 2215 C 198.307 -1.55524 3.08069 0
M  V30 2216 C 197.42 -0.961745 4.21158 0
M  V30 2217 C 196.555 -2.05149 4.89987 0
M  V30 2218 C 195.594 -1.4342 5.95061 0
M  V30 2219 N 194.731 -2.46351 6.57462 0
M  V30 2220 H 199.571 0.200976 2.97322 0
M  V30 2221 H 197.108 0.110944 1.46681 0
M  V30 2222 H 199.066 -2.21437 3.53584 0
M  V30 2223 H 197.696 -2.16348 2.3957 0
M  V30 2224 H 196.748 -0.192048 3.79915 0
M  V30 2225 H 198.06 -0.470701 4.96574 0
M  V30 2226 H 197.214 -2.78819 5.38837 0
M  V30 2227 H 195.953 -2.57615 4.14109 0
M  V30 2228 H 194.958 -0.682774 5.45544 0
M  V30 2229 H 196.183 -0.917416 6.72875 0
M  V30 2230 H 194.129 -2.97975 5.8442 0
M  V30 2231 H 194.046 -2.02019 7.28508 0
M  V30 2232 H 195.314 -3.19633 7.10954 0
M  V30 2233 N 199.544 -1.57102 0.125237 0
M  V30 2234 C 200.792 -1.95021 -0.530198 0
M  V30 2235 C 201.113 -1.00982 -1.66816 0
M  V30 2236 O 200.383 -0.0672693 -1.95784 0
M  V30 2237 H 198.963 -0.720046 -0.198853 0
M  V30 2238 H 201.625 -1.93916 0.19564 0
M  V30 2239 H 200.721 -2.98211 -0.920681 0
M  V30 2240 N 201.022 0.148545 -1.56898 0
M  V30 2241 C 202.268 0.862694 -1.83536 0
M  V30 2242 C 202.601 1.80889 -0.706604 0
M  V30 2243 O 201.876 1.92328 0.289885 0
M  V30 2244 C 202.159 1.63853 -3.20662 0
M  V30 2245 C 202.012 0.713925 -4.44098 0
M  V30 2246 C 203.331 2.60133 -3.54991 0
M  V30 2247 H 200.45 0.312179 -0.667618 0
M  V30 2248 H 203.092 0.127953 -1.89569 0
M  V30 2249 H 201.242 2.26489 -3.1565 0
M  V30 2250 H 202.914 0.098686 -4.61194 0
M  V30 2251 H 201.157 0.0234019 -4.33794 0
M  V30 2252 H 201.828 1.29278 -5.36648 0
M  V30 2253 H 204.304 2.07616 -3.60603 0
M  V30 2254 H 203.18 3.11468 -4.51972 0
M  V30 2255 H 203.441 3.41417 -2.80868 0
M  V30 2256 N 202.5 1.5196 0.417844 0
M  V30 2257 C 203.41 1.77554 1.53336 0
M  V30 2258 C 204.426 0.660655 1.6097 0
M  V30 2259 O 205.602 0.945099 1.77848 0
M  V30 2260 C 202.667 1.91291 2.89152 0
M  V30 2261 C 201.728 3.15183 2.91475 0
M  V30 2262 C 200.961 3.28256 4.20813 0
M  V30 2263 O 201.184 2.46798 5.14244 0
M  V30 2264 O 200.118 4.21356 4.29817 0
M  V30 2265 H 203.944 2.7222 1.34647 0
M  V30 2266 H 201.529 1.36698 0.602828 0
M  V30 2267 H 203.411 2.02199 3.69721 0
M  V30 2268 H 202.086 0.998129 3.07927 0
M  V30 2269 H 200.993 3.09739 2.09791 0
M  V30 2270 H 202.326 4.06414 2.77648 0
M  V30 2271 N 203.978 -0.674533 1.42435 0
M  V30 2272 C 205.208 -1.46071 1.46105 0
M  V30 2273 C 205.616 -1.89067 0.0709605 0
M  V30 2274 O 204.959 -1.58731 -0.924677 0
M  V30 2275 C 205.021 -2.74145 2.32561 0
M  V30 2276 C 204.685 -2.53224 3.8043 0
M  V30 2277 C 205.682 -2.17809 4.72075 0
M  V30 2278 C 203.367 -2.6821 4.24698 0
M  V30 2279 C 205.361 -1.97648 6.05982 0
M  V30 2280 C 203.048 -2.47665 5.58664 0
M  V30 2281 C 204.046 -2.12437 6.49122 0
M  V30 2282 O 203.734 -1.9209 7.80613 0
M  V30 2283 H 203.466 -0.455959 0.499076 0
M  V30 2284 H 206.02 -0.836193 1.87609 0
M  V30 2285 H 204.25 -3.3908 1.85908 0
M  V30 2286 H 205.939 -3.36028 2.27683 0
M  V30 2287 H 206.705 -2.05826 4.39159 0
M  V30 2288 H 202.584 -2.94609 3.54579 0
M  V30 2289 H 206.128 -1.70075 6.7655 0
M  V30 2290 H 202.025 -2.59244 5.91154 0
M  V30 2291 H 202.793 -2.06686 7.91974 0
M  V30 2292 N 205.456 -1.28612 -0.910864 0
M  V30 2293 C 206.386 -1.15326 -2.03032 0
M  V30 2294 C 207.367 -0.0502924 -1.70026 0
M  V30 2295 O 208.552 -0.227797 -1.92859 0
M  V30 2296 C 205.682 -0.817343 -3.37545 0
M  V30 2297 C 204.636 -1.8754 -3.84724 0
M  V30 2298 C 203.962 -1.39305 -5.16235 0
M  V30 2299 C 205.262 -3.28244 -4.06267 0
M  V30 2300 H 206.956 -2.08975 -2.14406 0
M  V30 2301 H 204.502 -1.00612 -1.03021 0
M  V30 2302 H 206.455 -0.711151 -4.15356 0
M  V30 2303 H 205.179 0.154846 -3.26233 0
M  V30 2304 H 203.838 -1.97079 -3.09121 0
M  V30 2305 H 203.486 -0.409846 -5.01328 0
M  V30 2306 H 203.186 -2.10057 -5.48771 0
M  V30 2307 H 204.71 -1.30014 -5.96598 0
M  V30 2308 H 206.124 -3.21611 -4.74594 0
M  V30 2309 H 204.521 -3.96855 -4.5014 0
M  V30 2310 H 205.591 -3.72048 -3.10979 0
M  V30 2311 N 206.934 1.1197 -1.10907 0
M  V30 2312 C 208.211 1.79959 -0.766432 0
M  V30 2313 C 208.591 1.97466 0.746363 0
M  V30 2314 O 207.939 1.55491 1.67436 0
M  V30 2315 C 208.149 3.14009 -1.52314 0
M  V30 2316 C 209.497 3.89134 -1.69883 0
M  V30 2317 O 210.521 3.2368 -1.48692 0
M  V30 2318 O 209.38 5.06572 -2.05054 0
M  V30 2319 H 206.474 0.779208 -0.277062 0
M  V30 2320 H 209.02 1.18762 -1.21217 0
M  V30 2321 H 207.792 2.96587 -2.55249 0
M  V30 2322 H 207.415 3.82915 -1.07059 0
M  V30 2323 N 208.412 0.89855 1.29475 0
M  V30 2324 C 209.64 0.539261 1.99749 0
M  V30 2325 C 210.055 -0.875716 1.67262 0
M  V30 2326 O 209.412 -1.57786 0.917049 0
M  V30 2327 C 209.463 0.72061 3.54245 0
M  V30 2328 O 209.184 2.07989 3.8558 0
M  V30 2329 C 210.685 0.366118 4.41786 0
M  V30 2330 H 207.905 0.207047 0.638258 0
M  V30 2331 H 210.449 1.20758 1.65039 0
M  V30 2332 H 208.604 0.0994862 3.87272 0
M  V30 2333 H 209.018 2.10841 4.80257 0
M  V30 2334 H 210.492 0.543848 5.49314 0
M  V30 2335 H 210.969 -0.696763 4.33638 0
M  V30 2336 H 211.575 0.964135 4.14228 0
M  V30 2337 N 209.89 -1.43072 0.660911 0
M  V30 2338 C 211.136 -2.0202 0.177708 0
M  V30 2339 C 211.469 -1.52066 -1.20787 0
M  V30 2340 O 210.744 -0.716987 -1.80802 0
M  V30 2341 C 211.027 -3.59561 0.197019 0
M  V30 2342 C 210.88 -4.19727 1.61706 0
M  V30 2343 C 212.199 -4.37664 -0.462396 0
M  V30 2344 H 209.318 -0.734034 0.0660494 0
M  V30 2345 H 211.96 -1.70272 0.843058 0
M  V30 2346 H 210.11 -3.86739 -0.369527 0
M  V30 2347 H 211.782 -4.03553 2.23479 0
M  V30 2348 H 210.025 -3.76084 2.16201 0
M  V30 2349 H 210.696 -5.28834 1.58237 0
M  V30 2350 H 213.172 -4.16095 0.0197215 0
M  V30 2351 H 212.048 -5.47305 -0.418188 0
M  V30 2352 H 212.309 -4.14493 -1.53778 0
M  V30 2353 N 211.368 -0.403325 -1.52352 0
M  V30 2354 C 212.615 0.174347 -2.01748 0
M  V30 2355 C 212.943 1.45636 -1.2892 0
M  V30 2356 O 212.198 1.9193 -0.382258 0
M  V30 2357 C 212.497 0.474665 -3.54234 0
M  V30 2358 C 212.163 -0.717458 -4.45155 0
M  V30 2359 C 210.825 -1.04447 -4.69728 0
M  V30 2360 C 213.177 -1.51432 -4.98716 0
M  V30 2361 C 210.505 -2.16963 -5.45109 0
M  V30 2362 C 212.857 -2.6302 -5.75329 0
M  V30 2363 C 211.521 -2.96213 -5.98175 0
M  V30 2364 H 210.791 0.0637981 -0.738248 0
M  V30 2365 H 213.438 -0.543553 -1.83624 0
M  V30 2366 H 211.743 1.27406 -3.70506 0
M  V30 2367 H 213.44 0.934496 -3.89959 0
M  V30 2368 H 210.03 -0.452596 -4.26204 0
M  V30 2369 H 214.214 -1.27491 -4.79645 0
M  V30 2370 H 209.47 -2.43034 -5.61021 0
M  V30 2371 H 213.644 -3.25158 -6.15829 0
M  V30 2372 H 211.271 -3.83516 -6.56368 0
M  V30 2373 N 212.846 1.57033 -0.133567 0
M  V30 2374 C 214.093 1.95686 0.520877 0
M  V30 2375 C 214.421 1.0177 1.6575 0
M  V30 2376 O 213.676 0.0443195 1.9565 0
M  V30 2377 C 213.975 3.40674 1.08057 0
M  V30 2378 C 213.641 4.50855 0.0637899 0
M  V30 2379 C 212.303 4.80716 -0.215757 0
M  V30 2380 C 214.655 5.17398 -0.62835 0
M  V30 2381 C 211.983 5.74433 -1.19348 0
M  V30 2382 C 214.335 6.12167 -1.5948 0
M  V30 2383 C 212.999 6.40414 -1.88218 0
M  V30 2384 H 212.269 0.716067 0.190602 0
M  V30 2385 H 214.916 1.9026 -0.217556 0
M  V30 2386 H 213.221 3.42865 1.89606 0
M  V30 2387 H 214.918 3.67902 1.59529 0
M  V30 2388 H 211.508 4.27605 0.291855 0
M  V30 2389 H 215.692 4.94472 -0.425562 0
M  V30 2390 H 210.948 5.94616 -1.42272 0
M  V30 2391 H 215.122 6.6281 -2.13671 0
M  V30 2392 H 212.749 7.12838 -2.64133 0
M  V30 2393 N 214.325 -0.140222 1.56975 0
M  V30 2394 C 215.574 -0.850152 1.82908 0
M  V30 2395 C 215.887 -1.82028 0.715892 0
M  V30 2396 O 217.093 -2.57485 0.861016 0
M  V30 2397 C 215.549 -1.5625 3.24213 0
M  V30 2398 C 215.157 -0.63443 4.43485 0
M  V30 2399 C 216.901 -2.25881 3.59413 0
M  V30 2400 C 214.808 -1.34879 5.75814 0
M  V30 2401 H 213.738 -0.321221 0.682153 0
M  V30 2402 H 216.389 -0.102874 1.83211 0
M  V30 2403 H 214.771 -2.35565 3.18316 0
M  V30 2404 H 215.945 0.12398 4.60633 0
M  V30 2405 H 214.26 -0.0461836 4.16374 0
M  V30 2406 H 216.857 -2.79978 4.5554 0
M  V30 2407 H 217.2 -3.02693 2.85802 0
M  V30 2408 H 217.733 -1.53477 3.67001 0
M  V30 2409 H 214.472 -0.622385 6.52539 0
M  V30 2410 H 213.992 -2.07974 5.6259 0
M  V30 2411 H 215.671 -1.88784 6.18845 0
M  V30 2412 N 215.803 -1.52179 -0.40978 0
M  V30 2413 C 216.733 -1.78435 -1.5061 0
M  V30 2414 C 217.714 -0.635295 -1.57791 0
M  V30 2415 O 218.899 -0.880823 -1.73076 0
M  V30 2416 C 216.029 -1.93444 -2.88439 0
M  V30 2417 C 214.983 -3.09038 -2.96108 0
M  V30 2418 C 214.309 -3.09268 -4.36185 0
M  V30 2419 C 215.609 -4.48508 -2.67652 0
M  V30 2420 H 217.303 -2.70237 -1.28889 0
M  V30 2421 H 214.849 -1.30036 -0.618605 0
M  V30 2422 H 216.802 -2.10394 -3.65119 0
M  V30 2423 H 215.526 -0.983129 -3.11452 0
M  V30 2424 H 214.185 -2.91837 -2.21872 0
M  V30 2425 H 213.833 -2.11861 -4.56206 0
M  V30 2426 H 213.533 -3.86907 -4.42241 0
M  V30 2427 H 215.057 -3.28348 -5.14801 0
M  V30 2428 H 216.471 -4.65918 -3.34056 0
M  V30 2429 H 214.868 -5.28059 -2.85085 0
M  V30 2430 H 215.938 -4.56649 -1.63095 0
M  V30 2431 N 217.281 0.66697 -1.42791 0
M  V30 2432 C 218.697 0.981027 -1.25889 0
M  V30 2433 C 218.897 2.00793 -0.168695 0
M  V30 2434 O 217.953 2.48321 0.45747 0
M  V30 2435 C 219.266 1.47838 -2.61848 0
M  V30 2436 C 220.814 1.59575 -2.69267 0
M  V30 2437 C 221.289 2.12704 -4.05612 0
M  V30 2438 N 222.78 2.20026 -4.07606 0
M  V30 2439 C 223.515 2.62227 -5.09926 0
M  V30 2440 N 223.011 3.03824 -6.22626 0
M  V30 2441 N 224.804 2.62045 -4.97281 0
M  V30 2442 H 216.955 -0.0127891 -2.12396 0
M  V30 2443 H 219.218 0.0568258 -0.946295 0
M  V30 2444 H 218.924 0.798299 -3.4252 0
M  V30 2445 H 218.798 2.45579 -2.86305 0
M  V30 2446 H 221.185 2.26687 -1.88936 0
M  V30 2447 H 221.266 0.60302 -2.48591 0
M  V30 2448 H 220.91 1.46198 -4.86404 0
M  V30 2449 H 220.84 3.12782 -4.23645 0
M  V30 2450 H 223.331 1.90708 -3.2625 0
M  V30 2451 H 223.644 3.34734 -6.96544 0
M  V30 2452 H 221.989 3.01662 -6.26119 0
M  V30 2453 H 225.18 2.28916 -4.08308 0
M  V30 2454 H 225.353 2.94613 -5.77154 0
M  V30 2455 N 218.759 1.29093 0.90403 0
M  V30 2456 C 219.706 1.13853 2.00764 0
M  V30 2457 C 220.676 0.0330084 1.66067 0
M  V30 2458 O 221.861 0.199733 1.89752 0
M  V30 2459 C 219.001 0.816537 3.35301 0
M  V30 2460 C 218.114 2.00206 3.82807 0
M  V30 2461 C 217.249 1.61983 5.059 0
M  V30 2462 C 216.288 2.77143 5.45764 0
M  V30 2463 N 215.425 2.39346 6.60044 0
M  V30 2464 H 220.265 2.08276 2.13132 0
M  V30 2465 H 217.802 1.03648 1.04381 0
M  V30 2466 H 219.76 0.610557 4.12708 0
M  V30 2467 H 218.39 -0.090779 3.22672 0
M  V30 2468 H 217.442 2.31988 3.01473 0
M  V30 2469 H 218.754 2.86512 4.08304 0
M  V30 2470 H 217.908 1.37649 5.90879 0
M  V30 2471 H 216.647 0.728202 4.82233 0
M  V30 2472 H 215.652 3.02165 4.59322 0
M  V30 2473 H 216.877 3.66964 5.71414 0
M  V30 2474 H 214.823 1.52665 6.37989 0
M  V30 2475 H 214.74 3.19185 6.85315 0
M  V30 2476 H 216.008 2.1832 7.48303 0
M  V30 2477 N 220.237 -1.11381 1.11499 0
M  V30 2478 C 221.184 -2.17439 0.773887 0
M  V30 2479 C 222.154 -1.64132 -0.254899 0
M  V30 2480 O 223.339 -1.90345 -0.13168 0
M  V30 2481 C 220.479 -3.44373 0.223917 0
M  V30 2482 C 219.592 -4.1168 1.30934 0
M  V30 2483 C 218.727 -5.263 0.71984 0
M  V30 2484 C 217.766 -5.85493 1.78507 0
M  V30 2485 N 216.903 -6.91507 1.21502 0
M  V30 2486 H 221.743 -2.45962 1.68246 0
M  V30 2487 H 219.28 -1.20744 0.840191 0
M  V30 2488 H 221.238 -4.17047 -0.112921 0
M  V30 2489 H 219.868 -3.16232 -0.647851 0
M  V30 2490 H 218.92 -3.37073 1.76312 0
M  V30 2491 H 220.232 -4.51729 2.11524 0
M  V30 2492 H 219.386 -6.05785 0.333094 0
M  V30 2493 H 218.125 -4.87559 -0.117377 0
M  V30 2494 H 217.13 -5.04686 2.18111 0
M  V30 2495 H 218.355 -6.26301 2.62533 0
M  V30 2496 H 216.301 -6.54783 0.399455 0
M  V30 2497 H 216.218 -7.30214 1.95763 0
M  V30 2498 H 217.486 -7.74795 0.855181 0
M  V30 2499 N 221.715 -0.905404 -1.28997 0
M  V30 2500 C 222.663 -0.377431 -2.29517 0
M  V30 2501 C 223.657 0.526461 -1.61012 0
M  V30 2502 O 224.863 0.40863 -1.753 0
M  V30 2503 H 221.238 -0.103437 -0.744852 0
M  V30 2504 H 223.209 -1.23848 -2.71485 0
M  V30 2505 C 221.958 0.374833 -3.45674 0
M  V30 2506 H 221.281 -0.311474 -3.98585 0
M  V30 2507 H 222.721 0.70903 -4.1803 0
M  V30 2508 C 221.18 1.57963 -2.97572 0
M  V30 2509 O 221.71 2.67886 -2.99333 0
M  V30 2510 N 219.916 1.42375 -2.53333 0
M  V30 2511 H 219.463 0.529466 -2.521 0
M  V30 2512 H 219.421 2.23117 -2.21509 0
M  V30 2513 N 223.193 1.4272 -0.668489 0
M  V30 2514 C 224.141 2.32586 0.0254857 0
M  V30 2515 C 225.135 1.49471 0.797176 0
M  V30 2516 O 226.341 1.65583 0.705853 0
M  V30 2517 H 222.716 0.751514 0.0270339 0
M  V30 2518 H 224.687 2.88823 -0.749936 0
M  V30 2519 C 223.436 3.3397 0.967427 0
M  V30 2520 H 222.759 3.97961 0.383048 0
M  V30 2521 H 224.199 3.9945 1.42181 0
M  V30 2522 C 222.658 2.65744 2.0708 0
M  V30 2523 O 223.188 2.48454 3.15648 0
M  V30 2524 N 221.394 2.2487 1.8407 0
M  V30 2525 H 220.941 2.39132 0.95778 0
M  V30 2526 H 220.899 1.79552 2.58086 0
M  V30 2527 N 224.671 0.411399 1.52136 0
M  V30 2528 C 225.603 -0.448386 2.24771 0
M  V30 2529 C 226.616 -1.00828 1.27818 0
M  V30 2530 O 227.805 -0.906841 1.53749 0
M  V30 2531 C 224.905 -1.63636 2.96777 0
M  V30 2532 C 224.078 -1.19995 4.20618 0
M  V30 2533 C 223.137 -2.25509 4.75428 0
M  V30 2534 O 222.163 -1.86007 5.3795 0
M  V30 2535 N 223.365 -3.577 4.57199 0
M  V30 2536 H 226.13 0.174025 2.99194 0
M  V30 2537 H 223.691 0.238897 1.60128 0
M  V30 2538 H 225.683 -2.33793 3.30338 0
M  V30 2539 H 224.253 -2.16465 2.25526 0
M  V30 2540 H 223.473 -0.326421 3.92846 0
M  V30 2541 H 224.761 -0.885365 5.01038 0
M  V30 2542 H 224.159 -3.92543 4.07341 0
M  V30 2543 H 222.716 -4.23827 4.95191 0
M  V30 2544 N 226.149 -1.5696 0.141893 0
M  V30 2545 C 227.395 -1.9625 -0.511248 0
M  V30 2546 C 227.728 -1.02654 -1.64851 0
M  V30 2547 O 227.003 -0.0679676 -1.94381 0
M  V30 2548 C 227.286 -3.45285 -1.02227 0
M  V30 2549 C 227.139 -4.49658 0.113138 0
M  V30 2550 C 228.458 -3.96698 -1.90574 0
M  V30 2551 H 225.577 -0.713567 -0.184367 0
M  V30 2552 H 228.219 -1.88698 0.222087 0
M  V30 2553 H 226.369 -3.51852 -1.64719 0
M  V30 2554 H 228.041 -4.55174 0.749302 0
M  V30 2555 H 226.284 -4.26857 0.773026 0
M  V30 2556 H 226.955 -5.51258 -0.286053 0
M  V30 2557 H 229.431 -3.92578 -1.37918 0
M  V30 2558 H 228.307 -5.01453 -2.2324 0
M  V30 2559 H 228.568 -3.3875 -2.84079 0
M  V30 2560 N 227.627 0.131896 -1.57047 0
M  V30 2561 C 228.852 0.860418 -1.8871 0
M  V30 2562 C 229.277 1.73251 -0.73251 0
M  V30 2563 O 228.635 1.785 0.317429 0
M  V30 2564 C 228.683 1.68047 -3.19049 0
M  V30 2565 O 227.787 2.7862 -3.04047 0
M  V30 2566 H 227.128 0.238743 -0.619595 0
M  V30 2567 H 229.658 0.118169 -2.04258 0
M  V30 2568 H 229.668 2.07238 -3.51449 0
M  V30 2569 H 228.343 1.04018 -4.02682 0
M  V30 2570 H 226.92 2.42726 -2.83088 0
M  V30 2571 N 229.106 1.52395 0.401703 0
M  V30 2572 C 230.353 1.66817 1.14796 0
M  V30 2573 C 230.681 0.401772 1.90305 0
M  V30 2574 O 229.936 -0.615487 1.85769 0
M  V30 2575 C 230.235 2.84578 2.16217 0
M  V30 2576 C 229.901 4.22513 1.5746 0
M  V30 2577 C 228.563 4.60029 1.41161 0
M  V30 2578 C 230.915 5.0844 1.14622 0
M  V30 2579 C 228.243 5.81144 0.80552 0
M  V30 2580 C 230.595 6.30167 0.55428 0
M  V30 2581 C 229.259 6.66426 0.378482 0
M  V30 2582 H 228.529 0.610428 0.420069 0
M  V30 2583 H 231.176 1.86512 0.434212 0
M  V30 2584 H 229.481 2.59248 2.93764 0
M  V30 2585 H 231.178 2.92933 2.73845 0
M  V30 2586 H 227.768 3.92953 1.71132 0
M  V30 2587 H 231.952 4.80034 1.26021 0
M  V30 2588 H 227.208 6.07855 0.657399 0
M  V30 2589 H 231.382 6.96071 0.213983 0
M  V30 2590 H 229.009 7.60143 -0.0932606 0
M  V30 2591 N 230.584 -0.659388 1.43143 0
M  V30 2592 C 231.514 -1.78422 1.50625 0
M  V30 2593 C 232.495 -1.66216 0.361443 0
M  V30 2594 O 233.68 -1.85404 0.577834 0
M  V30 2595 C 230.81 -3.16815 1.42287 0
M  V30 2596 C 229.764 -3.43777 2.54954 0
M  V30 2597 C 229.09 -4.81905 2.31671 0
M  V30 2598 C 230.39 -3.39134 3.97222 0
M  V30 2599 H 232.084 -1.72417 2.44771 0
M  V30 2600 H 229.63 -0.828084 1.17808 0
M  V30 2601 H 231.583 -3.95253 1.46127 0
M  V30 2602 H 230.307 -3.23534 0.446435 0
M  V30 2603 H 228.966 -2.67707 2.50457 0
M  V30 2604 H 228.614 -4.85294 1.32284 0
M  V30 2605 H 228.314 -5.00906 3.07192 0
M  V30 2606 H 229.838 -5.62609 2.37284 0
M  V30 2607 H 231.252 -4.07518 4.03239 0
M  V30 2608 H 229.649 -3.69671 4.72719 0
M  V30 2609 H 230.719 -2.37426 4.22797 0
M  V30 2610 N 232.062 -1.29571 -0.897171 0
M  V30 2611 C 233.012 -1.11539 -1.98855 0
M  V30 2612 C 233.996 -0.0340716 -1.60864 0
M  V30 2613 O 235.188 -0.256062 -1.75138 0
M  V30 2614 C 232.317 -0.796603 -3.3393 0
M  V30 2615 C 231.403 -1.91758 -3.78272 0
M  V30 2616 N 231.794 -3.16143 -3.94826 0
M  V30 2617 C 230.092 -1.81119 -4.07568 0
M  V30 2618 C 230.793 -3.89293 -4.32233 0
M  V30 2619 N 229.769 -3.17255 -4.41419 0
M  V30 2620 H 233.571 -2.05894 -2.09726 0
M  V30 2621 H 231.085 -1.20732 -1.08616 0
M  V30 2622 H 233.082 -0.648459 -4.11826 0
M  V30 2623 H 231.742 0.139003 -3.24402 0
M  V30 2624 H 232.753 -3.5157 -3.80288 0
M  V30 2625 H 229.43 -0.948461 -4.06584 0
M  V30 2626 H 230.82 -4.9635 -4.52865 0
M  V30 2627 N 233.54 1.10788 -1.12088 0
M  V30 2628 C 234.786 1.82942 -0.875226 0
M  V30 2629 C 235.119 1.84779 0.597538 0
M  V30 2630 O 234.394 1.30578 1.44152 0
M  V30 2631 C 234.677 3.29789 -1.44606 0
M  V30 2632 C 234.53 3.36307 -2.98693 0
M  V30 2633 C 235.849 4.26064 -1.10261 0
M  V30 2634 H 232.968 0.664195 -0.319397 0
M  V30 2635 H 235.61 1.29867 -1.38689 0
M  V30 2636 H 233.76 3.75118 -1.01089 0
M  V30 2637 H 235.432 2.99487 -3.50864 0
M  V30 2638 H 233.675 2.76318 -3.34411 0
M  V30 2639 H 234.346 4.39694 -3.33726 0
M  V30 2640 H 236.822 3.88951 -1.4784 0
M  V30 2641 H 235.698 5.27183 -1.52869 0
M  V30 2642 H 235.959 4.42098 -0.0142953 0
M  V30 2643 N 235.018 0.912232 1.28515 0
M  V30 2644 C 236.248 0.559604 1.98877 0
M  V30 2645 C 236.656 -0.863113 1.68366 0
M  V30 2646 O 235.999 -1.58304 0.931969 0
M  V30 2647 C 236.061 0.68703 3.52874 0
M  V30 2648 C 235.725 2.07901 4.06972 0
M  V30 2649 C 236.722 3.05157 4.20922 0
M  V30 2650 C 234.407 2.39178 4.417 0
M  V30 2651 C 236.401 4.31806 4.68852 0
M  V30 2652 C 234.088 3.66068 4.89324 0
M  V30 2653 C 235.086 4.62195 5.02856 0
M  V30 2654 O 234.774 5.86829 5.49442 0
M  V30 2655 H 234.506 0.212191 0.641834 0
M  V30 2656 H 237.06 1.22712 1.64715 0
M  V30 2657 H 235.29 -0.0375486 3.86682 0
M  V30 2658 H 236.979 0.341727 4.04459 0
M  V30 2659 H 237.745 2.82311 3.94367 0
M  V30 2660 H 233.624 1.65109 4.30418 0
M  V30 2661 H 237.168 5.06842 4.79329 0
M  V30 2662 H 233.065 3.88739 5.15318 0
M  V30 2663 H 233.833 5.89597 5.6773 0
M  V30 2664 N 236.496 -1.42363 0.676048 0
M  V30 2665 C 237.446 -2.27987 -0.0242903 0
M  V30 2666 C 238.43 -1.41153 -0.772319 0
M  V30 2667 O 239.622 -1.64592 -0.651025 0
M  V30 2668 C 236.751 -3.29195 -0.973953 0
M  V30 2669 C 235.837 -4.23512 -0.223202 0
M  V30 2670 N 236.228 -4.99865 0.772589 0
M  V30 2671 C 234.526 -4.43606 -0.461469 0
M  V30 2672 C 235.227 -5.68757 1.22027 0
M  V30 2673 N 234.203 -5.40811 0.549975 0
M  V30 2674 H 238.005 -2.84445 0.73949 0
M  V30 2675 H 235.519 -1.54341 0.50522 0
M  V30 2676 H 237.516 -3.89339 -1.49067 0
M  V30 2677 H 236.176 -2.74298 -1.73755 0
M  V30 2678 H 237.187 -5.04921 1.15217 0
M  V30 2679 H 233.864 -3.99749 -1.20446 0
M  V30 2680 H 235.254 -6.40007 2.0455 0
M  V30 2681 N 237.974 -0.419461 -1.51915 0
M  V30 2682 C 238.924 0.418496 -2.24126 0
M  V30 2683 C 239.908 1.00495 -1.25656 0
M  V30 2684 O 241.1 0.926058 -1.50842 0
M  V30 2685 C 238.229 1.52899 -3.07371 0
M  V30 2686 C 237.315 0.952797 -4.13258 0
M  V30 2687 N 237.706 0.104175 -5.05693 0
M  V30 2688 C 236.004 1.22224 -4.28926 0
M  V30 2689 C 236.705 -0.21752 -5.81293 0
M  V30 2690 N 235.681 0.394293 -5.42168 0
M  V30 2691 H 239.483 -0.236048 -2.92951 0
M  V30 2692 H 236.997 -0.230481 -1.60756 0
M  V30 2693 H 238.994 2.14199 -3.57665 0
M  V30 2694 H 237.654 2.18605 -2.40088 0
M  V30 2695 H 238.665 -0.260924 -5.17242 0
M  V30 2696 H 235.342 1.87812 -3.72871 0
M  V30 2697 H 236.732 -0.906992 -6.6575 0
M  V30 2698 N 239.452 1.56882 -0.150215 0
M  V30 2699 C 240.692 1.98119 0.502804 0
M  V30 2700 C 241.056 1.03327 1.61826 0
M  V30 2701 O 242.257 1.33621 2.33236 0
M  V30 2702 C 240.528 3.43329 0.992988 0
M  V30 2703 S 242.087 4.0659 1.65015 0
M  V30 2704 H 238.905 0.692189 0.162467 0
M  V30 2705 H 241.507 1.93988 -0.242689 0
M  V30 2706 H 240.211 4.10046 0.170436 0
M  V30 2707 H 239.742 3.5118 1.77303 0
M  V30 2708 H 241.757 3.99906 2.93752 0
M  V30 2709 N 240.93 -0.123565 1.57115 0
M  V30 2710 C 242.158 -0.846461 1.88793 0
M  V30 2711 C 242.573 -1.73652 0.740976 0
M  V30 2712 O 241.93 -1.80207 -0.288393 0
M  V30 2713 C 241.981 -1.6837 3.19897 0
M  V30 2714 O 241.702 -0.829477 4.30176 0
M  V30 2715 C 243.203 -2.51214 3.65248 0
M  V30 2716 H 240.423 -0.243573 0.625231 0
M  V30 2717 H 242.967 -0.109324 2.04208 0
M  V30 2718 H 241.122 -2.37364 3.06165 0
M  V30 2719 H 241.536 -1.40651 5.0529 0
M  V30 2720 H 243.01 -3.05497 4.59756 0
M  V30 2721 H 243.487 -3.28359 2.9168 0
M  V30 2722 H 244.093 -1.8747 3.81752 0
M  V30 2723 N 242.408 -1.52605 -0.393616 0
M  V30 2724 C 243.341 -1.71798 -1.50202 0
M  V30 2725 C 244.319 -0.565743 -1.52441 0
M  V30 2726 O 245.503 -0.794987 -1.70916 0
M  V30 2727 C 242.63 -1.7714 -2.88685 0
M  V30 2728 C 241.676 -2.98845 -3.04292 0
M  V30 2729 S 242.509 -4.58909 -2.75976 0
M  V30 2730 C 243.665 -4.6706 -4.1666 0
M  V30 2731 H 243.898 -2.65542 -1.33696 0
M  V30 2732 H 241.431 -1.42839 -0.586195 0
M  V30 2733 H 243.389 -1.80903 -3.68489 0
M  V30 2734 H 242.05 -0.844969 -3.02521 0
M  V30 2735 H 241.243 -2.99111 -4.05646 0
M  V30 2736 H 240.845 -2.9305 -2.32374 0
M  V30 2737 H 243.137 -4.45391 -5.10523 0
M  V30 2738 H 244.08 -5.6905 -4.21412 0
M  V30 2739 H 244.488 -3.95944 -4.02354 0
M  V30 2740 N 243.887 0.651787 -1.4349 0
M  V30 2741 C 245.134 1.41167 -1.45183 0
M  V30 2742 C 245.462 1.94349 -0.0766601 0
M  V30 2743 O 244.717 1.72804 0.918555 0
M  V30 2744 C 245.016 2.60914 -2.44251 0
M  V30 2745 C 244.682 2.26142 -3.9009 0
M  V30 2746 C 243.344 2.16371 -4.2981 0
M  V30 2747 C 245.696 1.98334 -4.81989 0
M  V30 2748 C 243.024 1.7695 -5.5938 0
M  V30 2749 C 245.376 1.6041 -6.11924 0
M  V30 2750 C 244.04 1.49166 -6.5062 0
M  V30 2751 H 243.31 0.516566 -0.531263 0
M  V30 2752 H 245.957 0.741099 -1.76579 0
M  V30 2753 H 244.262 3.3311 -2.06265 0
M  V30 2754 H 245.959 3.19127 -2.42815 0
M  V30 2755 H 242.549 2.34658 -3.58655 0
M  V30 2756 H 246.733 2.04803 -4.52072 0
M  V30 2757 H 241.989 1.66831 -5.88198 0
M  V30 2758 H 246.163 1.37925 -6.82605 0
M  V30 2759 H 243.79 1.1839 -7.50925 0
M  V30 2760 N 245.365 1.30045 0.890287 0
M  V30 2761 C 246.593 1.21472 1.67487 0
M  V30 2762 C 247.008 -0.223241 1.87476 0
M  V30 2763 O 246.365 -1.14828 1.41847 0
M  V30 2764 C 246.416 1.93394 3.05419 0
M  V30 2765 O 246.137 3.31576 2.86337 0
M  V30 2766 C 247.638 1.91414 3.99844 0
M  V30 2767 H 244.858 0.420604 0.522813 0
M  V30 2768 H 247.402 1.7158 1.11268 0
M  V30 2769 H 245.557 1.47099 3.58386 0
M  V30 2770 H 245.971 3.67929 3.73802 0
M  V30 2771 H 247.445 2.46285 4.94012 0
M  V30 2772 H 247.922 0.891833 4.3005 0
M  V30 2773 H 248.528 2.37496 3.52811 0
M  V30 2774 N 246.843 -1.10192 1.12674 0
M  V30 2775 C 247.773 -2.18652 0.819362 0
M  V30 2776 C 248.754 -1.68698 -0.217915 0
M  V30 2777 O 249.939 -1.94041 -0.0785581 0
M  V30 2778 C 247.069 -3.46202 0.27594 0
M  V30 2779 C 246.023 -4.09444 1.24656 0
M  V30 2780 C 245.349 -5.31725 0.563258 0
M  V30 2781 C 246.649 -4.52863 2.60217 0
M  V30 2782 H 248.343 -2.44622 1.72628 0
M  V30 2783 H 245.889 -1.17571 0.831451 0
M  V30 2784 H 247.842 -4.21372 0.0486149 0
M  V30 2785 H 246.566 -3.1973 -0.666331 0
M  V30 2786 H 245.225 -3.36284 1.45974 0
M  V30 2787 H 244.873 -5.0153 -0.384235 0
M  V30 2788 H 244.573 -5.74991 1.21075 0
M  V30 2789 H 246.097 -6.09624 0.34503 0
M  V30 2790 H 247.511 -5.19294 2.42913 0
M  V30 2791 H 245.908 -5.06986 3.21068 0
M  V30 2792 H 246.978 -3.65656 3.18471 0
M  V30 2793 N 248.321 -0.919034 -1.28029 0
M  V30 2794 C 249.567 -0.565221 -1.95389 0
M  V30 2795 C 249.922 0.882325 -1.70976 0
M  V30 2796 O 249.215 1.61988 -1.02325 0
M  V30 2797 C 249.409 -0.816855 -3.4794 0
M  V30 2798 C 249.238 -2.28731 -3.87185 0
M  V30 2799 C 248.008 -2.93841 -4.11079 0
M  V30 2800 C 250.206 -3.26415 -3.97439 0
M  V30 2801 N 248.188 -4.31129 -4.37037 0
M  V30 2802 C 249.559 -4.48884 -4.27672 0
M  V30 2803 C 251.614 -3.21742 -3.79982 0
M  V30 2804 C 250.317 -5.67268 -4.42266 0
M  V30 2805 C 252.343 -4.39431 -3.95796 0
M  V30 2806 C 251.705 -5.60675 -4.26407 0
M  V30 2807 H 247.804 -0.256797 -0.738633 0
M  V30 2808 H 250.388 -1.18386 -1.54573 0
M  V30 2809 H 248.559 -0.227445 -3.87733 0
M  V30 2810 H 250.291 -0.426542 -4.02446 0
M  V30 2811 H 247.046 -2.44547 -4.05578 0
M  V30 2812 H 247.47 -5.02127 -4.5409 0
M  V30 2813 H 252.112 -2.29079 -3.55363 0
M  V30 2814 H 249.83 -6.60406 -4.65714 0
M  V30 2815 H 253.416 -4.37323 -3.83719 0
M  V30 2816 H 252.296 -6.50223 -4.38383 0
M  V30 2817 N 249.799 1.42003 -0.683588 0
M  V30 2818 C 251.045 2.02223 -0.218536 0
M  V30 2819 C 251.4 1.53126 1.16492 0
M  V30 2820 O 250.693 0.727459 1.77253 0
M  V30 2821 C 250.887 3.56827 -0.202357 0
M  V30 2822 C 250.716 4.20928 -1.5827 0
M  V30 2823 C 249.486 4.5573 -2.18262 0
M  V30 2824 C 251.684 4.47933 -2.52706 0
M  V30 2825 N 249.666 5.05056 -3.48986 0
M  V30 2826 C 251.037 4.98906 -3.68094 0
M  V30 2827 C 253.092 4.29931 -2.51125 0
M  V30 2828 C 251.795 5.33768 -4.82166 0
M  V30 2829 C 253.821 4.65875 -3.643 0
M  V30 2830 C 253.183 5.17008 -4.78417 0
M  V30 2831 H 249.282 0.771931 -0.125088 0
M  V30 2832 H 251.866 1.72729 -0.898479 0
M  V30 2833 H 250.037 3.85819 0.447029 0
M  V30 2834 H 251.769 4.03755 0.276399 0
M  V30 2835 H 248.524 4.41781 -1.70665 0
M  V30 2836 H 248.948 5.34139 -4.15962 0
M  V30 2837 H 253.59 3.89647 -1.6412 0
M  V30 2838 H 251.308 5.72981 -5.6984 0
M  V30 2839 H 254.894 4.53615 -3.64314 0
M  V30 2840 H 253.774 5.44301 -5.64541 0
M  V30 2841 N 251.277 0.427512 1.51691 0
M  V30 2842 C 252.526 -0.143679 2.01188 0
M  V30 2843 C 252.839 -1.44642 1.31674 0
M  V30 2844 O 254.045 -2.09997 1.72086 0
M  V30 2845 C 252.501 -0.306602 3.58592 0
M  V30 2846 C 252.109 0.985125 4.37035 0
M  V30 2847 C 253.853 -0.832091 4.16265 0
M  V30 2848 C 251.76 0.788382 5.86122 0
M  V30 2849 H 250.69 -0.0574701 0.751807 0
M  V30 2850 H 253.341 0.555772 1.74881 0
M  V30 2851 H 251.723 -1.06882 3.81303 0
M  V30 2852 H 252.897 1.75492 4.26074 0
M  V30 2853 H 251.212 1.4384 3.90767 0
M  V30 2854 H 253.809 -0.995617 5.25349 0
M  V30 2855 H 254.152 -1.81186 3.74803 0
M  V30 2856 H 254.685 -0.128444 3.97593 0
M  V30 2857 H 251.424 1.74025 6.31978 0
M  V30 2858 H 250.944 0.0582143 5.99772 0
M  V30 2859 H 252.623 0.437722 6.45518 0
M  V30 2860 N 252.755 -1.56801 0.158532 0
M  V30 2861 C 254.003 -1.96102 -0.488712 0
M  V30 2862 C 254.324 -1.04498 -1.64636 0
M  V30 2863 O 253.594 -0.108783 -1.95598 0
M  V30 2864 H 252.174 -0.724102 -0.183535 0
M  V30 2865 H 254.836 -1.93457 0.236728 0
M  V30 2866 H 253.932 -3.00097 -0.857219 0
M  V30 2867 N 254.233 0.115231 -1.57178 0
M  V30 2868 C 255.482 0.820945 -1.84237 0
M  V30 2869 C 255.795 1.80866 -0.744761 0
M  V30 2870 O 257.001 2.56083 -0.901871 0
M  V30 2871 C 255.457 1.51072 -3.26658 0
M  V30 2872 C 255.065 0.563795 -4.44438 0
M  V30 2873 C 256.809 2.20134 -3.62962 0
M  V30 2874 C 254.716 1.25701 -5.77887 0
M  V30 2875 H 253.646 0.310328 -0.687177 0
M  V30 2876 H 256.297 0.0737134 -1.83352 0
M  V30 2877 H 254.679 2.30471 -3.22024 0
M  V30 2878 H 255.853 -0.197247 -4.60378 0
M  V30 2879 H 254.168 -0.0200638 -4.16395 0
M  V30 2880 H 256.765 2.72696 -4.59936 0
M  V30 2881 H 257.108 2.98107 -2.90582 0
M  V30 2882 H 257.641 1.47619 -3.69396 0
M  V30 2883 H 254.38 0.518493 -6.53446 0
M  V30 2884 H 253.9 1.98997 -5.65827 0
M  V30 2885 H 255.579 1.78915 -6.2177 0
M  V30 2886 N 255.711 1.52812 0.385517 0
M  V30 2887 C 256.658 1.77838 1.47113 0
M  V30 2888 C 257.628 0.621757 1.54024 0
M  V30 2889 O 258.813 0.861846 1.70226 0
M  V30 2890 C 255.953 1.95618 2.84302 0
M  V30 2891 C 255.066 3.23316 2.86515 0
M  V30 2892 C 254.201 3.31394 4.15152 0
M  V30 2893 C 253.24 4.53201 4.1143 0
M  V30 2894 N 252.377 4.58542 5.3168 0
M  V30 2895 H 257.217 2.70482 1.25073 0
M  V30 2896 H 254.754 1.34006 0.606692 0
M  V30 2897 H 256.712 2.03912 3.63972 0
M  V30 2898 H 255.342 1.06331 3.04784 0
M  V30 2899 H 254.394 3.24076 1.99195 0
M  V30 2900 H 255.706 4.13045 2.79634 0
M  V30 2901 H 254.86 3.3889 5.03228 0
M  V30 2902 H 253.599 2.39645 4.24761 0
M  V30 2903 H 252.604 4.45827 3.21742 0
M  V30 2904 H 253.829 5.46271 4.03442 0
M  V30 2905 H 251.775 3.69686 5.41912 0
M  V30 2906 H 251.692 5.42148 5.26889 0
M  V30 2907 H 252.96 4.70296 6.21644 0
M  V30 2908 N 257.189 -0.644168 1.43834 0
M  V30 2909 C 258.435 -1.40431 1.47141 0
M  V30 2910 C 258.79 -1.92153 0.0975577 0
M  V30 2911 O 258.083 -1.69924 -0.885232 0
M  V30 2912 C 258.277 -2.59615 2.45631 0
M  V30 2913 C 258.106 -2.1956 3.92458 0
M  V30 2914 C 256.876 -2.07456 4.60749 0
M  V30 2915 C 259.074 -1.79281 4.8204 0
M  V30 2916 N 257.056 -1.60827 5.92459 0
M  V30 2917 C 258.427 -1.43801 6.03093 0
M  V30 2918 C 260.482 -1.66545 4.6922 0
M  V30 2919 C 259.185 -0.968599 7.12749 0
M  V30 2920 C 261.211 -1.21008 5.78888 0
M  V30 2921 C 260.573 -0.864711 6.99072 0
M  V30 2922 H 256.672 -0.509182 0.593513 0
M  V30 2923 H 259.256 -0.740351 1.80075 0
M  V30 2924 H 257.427 -3.23658 2.1471 0
M  V30 2925 H 259.159 -3.26357 2.39318 0
M  V30 2926 H 255.914 -2.275 4.1538 0
M  V30 2927 H 256.338 -1.39848 6.62398 0
M  V30 2928 H 260.98 -1.91883 3.7675 0
M  V30 2929 H 258.698 -0.702715 8.05039 0
M  V30 2930 H 262.284 -1.11631 5.7099 0
M  V30 2931 H 261.164 -0.517736 7.82489 0
M  V30 2932 N 258.668 -1.30515 -0.883378 0
M  V30 2933 C 259.914 -1.19607 -1.63774 0
M  V30 2934 C 260.247 0.248314 -1.92606 0
M  V30 2935 O 259.522 1.17742 -1.54813 0
M  V30 2936 C 259.805 -2.02669 -2.97653 0
M  V30 2937 C 259.658 -3.55335 -2.75784 0
M  V30 2938 C 260.977 -1.86573 -3.98596 0
M  V30 2939 H 258.096 -0.435856 -0.594305 0
M  V30 2940 H 260.738 -1.60165 -1.02212 0
M  V30 2941 H 258.888 -1.68208 -3.50197 0
M  V30 2942 H 260.56 -3.99863 -2.30016 0
M  V30 2943 H 258.803 -3.79438 -2.1026 0
M  V30 2944 H 259.474 -4.08745 -3.70988 0
M  V30 2945 H 261.95 -2.16703 -3.55217 0
M  V30 2946 H 260.826 -2.47014 -4.90179 0
M  V30 2947 H 261.087 -0.825321 -4.34328 0
M  V30 2948 N 260.146 1.09593 -1.13257 0
M  V30 2949 C 261.109 2.14359 -0.811358 0
M  V30 2950 C 262.109 1.59808 0.178377 0
M  V30 2951 O 263.299 1.74132 -0.0484911 0
M  V30 2952 C 260.431 3.40269 -0.207276 0
M  V30 2953 H 261.624 2.44284 -1.73969 0
M  V30 2954 H 259.177 1.25102 -0.936973 0
M  V30 2955 H 259.912 3.15969 0.73036 0
M  V30 2956 H 259.697 3.81154 -0.919992 0
M  V30 2957 H 261.187 4.176 0.000667944 0
M  V30 2958 N 261.624 0.925811 1.2754 0
M  V30 2959 C 262.872 0.564138 1.94067 0
M  V30 2960 C 263.193 -0.897188 1.73134 0
M  V30 2961 O 262.463 -1.63573 1.07799 0
M  V30 2962 H 261.043 0.205645 0.718136 0
M  V30 2963 H 263.705 1.1778 1.55287 0
M  V30 2964 H 262.801 0.76881 3.02483 0
M  V30 2965 N 263.102 -1.41638 0.69111 0
M  V30 2966 C 264.35 -2.00902 0.219758 0
M  V30 2967 C 264.671 -1.54994 -1.18329 0
M  V30 2968 O 263.941 -0.778628 -1.79762 0
M  V30 2969 H 262.521 -0.74289 0.0782558 0
M  V30 2970 H 265.183 -1.73327 0.891271 0
M  V30 2971 H 264.279 -3.11224 0.233708 0
M  V30 2972 N 264.58 -0.43555 -1.51462 0
M  V30 2973 C 265.512 0.41257 -2.25456 0
M  V30 2974 C 266.525 0.987822 -1.29406 0
M  V30 2975 O 267.714 0.882266 -1.55172 0
M  V30 2976 C 264.814 1.58894 -2.99342 0
M  V30 2977 C 263.987 1.13288 -4.22474 0
M  V30 2978 C 263.046 2.17917 -4.78956 0
M  V30 2979 O 262.072 1.77425 -5.40841 0
M  V30 2980 N 263.274 3.50382 -4.62832 0
M  V30 2981 H 266.039 -0.221603 -2.9888 0
M  V30 2982 H 263.6 -0.264342 -1.59727 0
M  V30 2983 H 265.592 2.28508 -3.34015 0
M  V30 2984 H 264.162 2.12849 -2.28941 0
M  V30 2985 H 263.382 0.263881 -3.93316 0
M  V30 2986 H 264.67 0.805542 -5.02383 0
M  V30 2987 H 264.068 3.86013 -4.13534 0
M  V30 2988 H 262.625 4.15895 -5.01871 0
M  V30 2989 N 266.058 1.56714 -0.166846 0
M  V30 2990 C 267.021 2.16539 0.751232 0
M  V30 2991 C 268.021 1.11228 1.16125 0
M  V30 2992 O 269.211 1.36765 1.07894 0
M  V30 2993 C 266.343 2.74462 2.02196 0
M  V30 2994 H 267.536 2.99013 0.230499 0
M  V30 2995 H 265.089 1.56081 0.0826982 0
M  V30 2996 H 265.824 1.95709 2.58589 0
M  V30 2997 H 265.609 3.51527 1.73698 0
M  V30 2998 H 267.099 3.20489 2.67725 0
M  V30 2999 N 267.536 -0.106894 1.57237 0
M  V30 3000 C 268.783 -0.812526 1.85484 0
M  V30 3001 C 269.111 -1.79304 0.753687 0
M  V30 3002 O 268.366 -1.94047 -0.253853 0
M  V30 3003 C 268.665 -1.58628 3.20268 0
M  V30 3004 C 268.331 -0.748967 4.44636 0
M  V30 3005 C 266.993 -0.518104 4.78403 0
M  V30 3006 C 269.345 -0.166122 5.20935 0
M  V30 3007 C 266.673 0.305659 5.85903 0
M  V30 3008 C 269.025 0.644899 6.29304 0
M  V30 3009 C 267.689 0.885965 6.61594 0
M  V30 3010 H 266.959 -0.297324 0.678734 0
M  V30 3011 H 269.606 -0.0744332 1.91355 0
M  V30 3012 H 267.911 -2.39562 3.10028 0
M  V30 3013 H 269.608 -2.13643 3.39349 0
M  V30 3014 H 266.198 -0.939006 4.18187 0
M  V30 3015 H 270.382 -0.33167 4.95191 0
M  V30 3016 H 265.638 0.501528 6.0934 0
M  V30 3017 H 269.812 1.10345 6.87602 0
M  V30 3018 H 267.439 1.52609 7.44725 0
M  V30 3019 N 269.014 -1.53014 -0.377408 0
M  V30 3020 C 270.261 -1.68623 -1.12128 0
M  V30 3021 C 270.589 -0.431997 -1.89642 0
M  V30 3022 O 269.844 0.585855 -1.86725 0
M  V30 3023 C 270.143 -2.87982 -2.11663 0
M  V30 3024 C 269.809 -4.24964 -1.50719 0
M  V30 3025 C 268.471 -4.62217 -1.33825 0
M  V30 3026 C 270.823 -5.10199 -1.06519 0
M  V30 3027 C 268.151 -5.82352 -0.712963 0
M  V30 3028 C 270.503 -6.30969 -0.453955 0
M  V30 3029 C 269.167 -6.66944 -0.272411 0
M  V30 3030 H 268.437 -0.617034 -0.410305 0
M  V30 3031 H 271.084 -1.8718 -0.404484 0
M  V30 3032 H 269.389 -2.63889 -2.89603 0
M  V30 3033 H 271.086 -2.97253 -2.6915 0
M  V30 3034 H 267.676 -3.95626 -1.64858 0
M  V30 3035 H 271.86 -4.81978 -1.18368 0
M  V30 3036 H 267.116 -6.08824 -0.560611 0
M  V30 3037 H 271.29 -6.96324 -0.103217 0
M  V30 3038 H 268.917 -7.59898 0.214181 0
M  V30 3039 N 270.492 0.636531 -1.44174 0
M  V30 3040 C 271.74 1.39343 -1.46383 0
M  V30 3041 C 272.061 1.94766 -0.0955715 0
M  V30 3042 O 271.331 1.75452 0.871395 0
M  V30 3043 H 269.911 0.517199 -0.538994 0
M  V30 3044 H 272.573 0.74957 -1.7991 0
M  V30 3045 H 271.669 2.22746 -2.18611 0
M  V30 3046 N 271.97 1.30982 0.876444 0
M  V30 3047 C 272.933 1.18054 1.96459 0
M  V30 3048 C 273.933 0.109399 1.60427 0
M  V30 3049 O 275.123 0.358173 1.70478 0
M  V30 3050 C 272.255 0.810616 3.31122 0
M  V30 3051 H 273.448 2.14735 2.09354 0
M  V30 3052 H 271.001 1.145 1.06392 0
M  V30 3053 H 271.736 -0.155322 3.23928 0
M  V30 3054 H 271.521 1.58481 3.58645 0
M  V30 3055 H 273.011 0.743876 4.10921 0
M  V30 3056 N 273.449 -1.08991 1.13837 0
M  V30 3057 C 274.381 -2.15606 0.777612 0
M  V30 3058 C 275.394 -1.61533 -0.202739 0
M  V30 3059 O 276.583 -1.78491 0.0181055 0
M  V30 3060 C 273.683 -3.3864 0.132623 0
M  V30 3061 C 272.856 -4.22115 1.1462 0
M  V30 3062 C 271.915 -5.23564 0.526074 0
M  V30 3063 O 270.941 -5.56678 1.18735 0
M  V30 3064 N 272.143 -5.76266 -0.699866 0
M  V30 3065 H 274.908 -2.47159 1.69506 0
M  V30 3066 H 272.469 -1.24747 1.03198 0
M  V30 3067 H 274.461 -4.03626 -0.29459 0
M  V30 3068 H 273.031 -3.04938 -0.687849 0
M  V30 3069 H 272.251 -3.53199 1.75055 0
M  V30 3070 H 273.539 -4.74709 1.83109 0
M  V30 3071 H 272.937 -5.51585 -1.25581 0
M  V30 3072 H 271.494 -6.42963 -1.06968 0
M  V30 3073 N 274.927 -0.932562 -1.27047 0
M  V30 3074 C 275.857 -0.452902 -2.29066 0
M  V30 3075 C 276.838 0.489338 -1.62909 0
M  V30 3076 O 278.023 0.393046 -1.90181 0
M  V30 3077 C 275.153 0.290698 -3.46081 0
M  V30 3078 C 274.107 -0.564168 -4.24265 0
M  V30 3079 C 273.433 0.308886 -5.33807 0
M  V30 3080 C 274.733 -1.83112 -4.89149 0
M  V30 3081 H 276.427 -1.30552 -2.69437 0
M  V30 3082 H 273.973 -0.629201 -1.29526 0
M  V30 3083 H 275.926 0.637233 -4.16554 0
M  V30 3084 H 274.65 1.17738 -3.0464 0
M  V30 3085 H 273.309 -0.893477 -3.55545 0
M  V30 3086 H 272.957 1.19467 -4.88607 0
M  V30 3087 H 272.657 -0.259633 -5.87026 0
M  V30 3088 H 274.181 0.650884 -6.07121 0
M  V30 3089 H 275.595 -1.55236 -5.51883 0
M  V30 3090 H 273.992 -2.34353 -5.52448 0
M  V30 3091 H 275.062 -2.54772 -4.12576 0
M  V30 3092 N 276.405 1.4127 -0.698611 0
M  V30 3093 C 277.353 2.32588 -0.023855 0
M  V30 3094 C 278.347 1.51128 0.765292 0
M  V30 3095 O 279.553 1.67043 0.670571 0
M  V30 3096 H 275.928 0.751918 0.0110871 0
M  V30 3097 H 277.899 2.87167 -0.811031 0
M  V30 3098 C 276.648 3.35947 0.896369 0
M  V30 3099 H 275.971 3.98684 0.298548 0
M  V30 3100 H 277.411 4.02376 1.33676 0
M  V30 3101 C 275.87 2.70076 2.01396 0
M  V30 3102 O 276.4 2.55093 3.10307 0
M  V30 3103 N 274.606 2.28724 1.79259 0
M  V30 3104 H 274.153 2.4111 0.906841 0
M  V30 3105 H 274.111 1.84986 2.54219 0
M  V30 3106 N 277.883 0.443576 1.51229 0
M  V30 3107 C 279.108 -0.121648 2.07043 0
M  V30 3108 C 279.533 -1.35156 1.30823 0
M  V30 3109 O 278.891 -1.7793 0.347934 0
M  V30 3110 C 278.939 -0.41624 3.5819 0
M  V30 3111 O 278.043 -1.50163 3.8409 0
M  V30 3112 H 277.384 0.000871367 0.663999 0
M  V30 3113 H 279.914 0.626706 1.94765 0
M  V30 3114 H 279.924 -0.664867 4.02546 0
M  V30 3115 H 278.599 0.482653 4.1309 0
M  V30 3116 H 277.176 -1.24248 3.51592 0
M  V30 3117 N 279.361 -1.56624 0.175154 0
M  V30 3118 C 280.608 -1.96999 -0.468811 0
M  V30 3119 C 280.936 -1.06129 -1.62994 0
M  V30 3120 O 280.191 -0.0961771 -1.95464 0
M  V30 3121 C 280.49 -3.43419 -0.989864 0
M  V30 3122 C 280.156 -4.50866 0.0557687 0
M  V30 3123 C 278.818 -4.79975 0.343134 0
M  V30 3124 C 281.17 -5.15551 0.765308 0
M  V30 3125 C 278.498 -5.71066 1.34536 0
M  V30 3126 C 280.85 -6.07724 1.75654 0
M  V30 3127 C 279.514 -6.35199 2.05132 0
M  V30 3128 H 278.784 -0.720869 -0.17155 0
M  V30 3129 H 281.431 -1.89616 0.267924 0
M  V30 3130 H 279.736 -3.47772 -1.80449 0
M  V30 3131 H 281.433 -3.72002 -1.49719 0
M  V30 3132 H 278.023 -4.28229 -0.178381 0
M  V30 3133 H 282.207 -4.9317 0.556513 0
M  V30 3134 H 277.463 -5.90635 1.57988 0
M  V30 3135 H 281.637 -6.56912 2.31169 0
M  V30 3136 H 279.264 -7.05584 2.8294 0
M  V30 3137 N 280.839 0.0985539 -1.57292 0
M  V30 3138 C 282.088 0.801358 -1.85098 0
M  V30 3139 C 282.401 1.80066 -0.763902 0
M  V30 3140 O 283.607 2.55112 -0.928981 0
M  V30 3141 C 282.063 1.47599 -3.28242 0
M  V30 3142 C 281.671 0.516624 -4.45011 0
M  V30 3143 C 283.415 2.16272 -3.65276 0
M  V30 3144 C 281.322 1.19564 -5.79188 0
M  V30 3145 H 280.252 0.303022 -0.69043 0
M  V30 3146 H 282.903 0.0542623 -1.8342 0
M  V30 3147 H 281.285 2.27042 -3.2445 0
M  V30 3148 H 282.459 -0.246065 -4.60143 0
M  V30 3149 H 280.774 -0.064227 -4.1635 0
M  V30 3150 H 283.371 2.67802 -4.62803 0
M  V30 3151 H 283.714 2.95009 -2.93727 0
M  V30 3152 H 284.247 1.43693 -3.70941 0
M  V30 3153 H 280.986 0.449157 -6.53959 0
M  V30 3154 H 280.506 1.92984 -5.67906 0
M  V30 3155 H 282.185 1.7231 -6.23633 0
M  V30 3156 N 282.317 1.53212 0.369288 0
M  V30 3157 C 283.267 1.75769 1.45222 0
M  V30 3158 C 284.251 0.612136 1.48801 0
M  V30 3159 O 285.443 0.870674 1.54105 0
M  V30 3160 C 282.572 1.94769 2.82701 0
M  V30 3161 C 281.658 3.15315 2.83615 0
M  V30 3162 N 282.049 4.37295 2.54178 0
M  V30 3163 C 280.347 3.15962 3.14776 0
M  V30 3164 C 281.048 5.19015 2.62675 0
M  V30 3165 N 280.024 4.55142 2.97232 0
M  V30 3166 H 283.826 2.67691 1.2132 0
M  V30 3167 H 281.34 1.51787 0.577438 0
M  V30 3168 H 283.337 2.09056 3.60696 0
M  V30 3169 H 281.997 1.04073 3.07569 0
M  V30 3170 H 283.008 4.65091 2.27839 0
M  V30 3171 H 279.685 2.35144 3.44983 0
M  V30 3172 H 281.075 6.26305 2.43294 0
M  V30 3173 N 283.795 -0.628877 1.44509 0
M  V30 3174 C 285.041 -1.39045 1.47629 0
M  V30 3175 C 285.374 -1.93892 0.109343 0
M  V30 3176 O 284.649 -1.7379 -0.87334 0
M  V30 3177 C 284.932 -2.55408 2.53848 0
M  V30 3178 C 284.785 -2.05896 3.99909 0
M  V30 3179 C 286.104 -3.5759 2.56549 0
M  V30 3180 H 283.223 -0.504232 0.537512 0
M  V30 3181 H 285.865 -0.710854 1.76201 0
M  V30 3182 H 284.015 -3.13384 2.29615 0
M  V30 3183 H 285.687 -1.52734 4.35282 0
M  V30 3184 H 283.93 -1.37061 4.11578 0
M  V30 3185 H 284.601 -2.89681 4.69882 0
M  V30 3186 H 287.077 -3.09419 2.78207 0
M  V30 3187 H 285.953 -4.36527 3.32769 0
M  V30 3188 H 286.214 -4.11808 1.60832 0
M  V30 3189 N 285.273 -1.31445 -0.869486 0
M  V30 3190 C 286.522 -1.20517 -1.61736 0
M  V30 3191 C 286.835 0.235341 -1.94179 0
M  V30 3192 O 288.041 0.466312 -2.67465 0
M  V30 3193 C 286.497 -2.10982 -2.91573 0
M  V30 3194 C 286.105 -3.60032 -2.66611 0
M  V30 3195 C 287.849 -2.08856 -3.69567 0
M  V30 3196 C 285.756 -4.42503 -3.92358 0
M  V30 3197 H 284.686 -0.447493 -0.606849 0
M  V30 3198 H 287.337 -1.56303 -0.96133 0
M  V30 3199 H 285.719 -1.68095 -3.58553 0
M  V30 3200 H 286.893 -4.11167 -2.08035 0
M  V30 3201 H 285.208 -3.64139 -2.0197 0
M  V30 3202 H 287.805 -2.67716 -4.62852 0
M  V30 3203 H 288.148 -1.07582 -4.02159 0
M  V30 3204 H 288.681 -2.49945 -3.09471 0
M  V30 3205 H 285.42 -5.44533 -3.64916 0
M  V30 3206 H 284.94 -3.96125 -4.50383 0
M  V30 3207 H 286.619 -4.54741 -4.60238 0
M  V30 3208 N 286.751 1.08385 -1.14413 0
M  V30 3209 C 287.684 2.14642 -0.774871 0
M  V30 3210 C 288.662 1.60761 0.243876 0
M  V30 3211 O 289.846 1.88031 0.132883 0
M  V30 3212 C 286.973 3.38366 -0.150491 0
M  V30 3213 C 286.019 4.10997 -1.13945 0
M  V30 3214 S 286.852 4.63797 -2.67679 0
M  V30 3215 C 288.008 5.90808 -2.06631 0
M  V30 3216 H 288.241 2.45633 -1.67487 0
M  V30 3217 H 285.774 1.20498 -0.96538 0
M  V30 3218 H 287.732 4.09996 0.203334 0
M  V30 3219 H 286.393 3.05572 0.72694 0
M  V30 3220 H 285.586 4.99783 -0.65059 0
M  V30 3221 H 285.188 3.4528 -1.43727 0
M  V30 3222 H 287.48 6.62411 -1.4219 0
M  V30 3223 H 288.423 6.4439 -2.93542 0
M  V30 3224 H 288.831 5.4383 -1.51357 0
M  V30 3225 N 288.23 0.939286 1.26551 0
M  V30 3226 C 289.46 0.601663 1.97645 0
M  V30 3227 C 289.868 -0.827206 1.70159 0
M  V30 3228 O 289.211 -1.56291 0.965338 0
M  V30 3229 C 289.273 0.761725 3.51337 0
M  V30 3230 C 288.937 2.16487 4.0247 0
M  V30 3231 C 289.934 3.14016 4.14355 0
M  V30 3232 C 287.619 2.48494 4.36527 0
M  V30 3233 C 289.613 4.41654 4.59587 0
M  V30 3234 C 287.3 3.76364 4.81449 0
M  V30 3235 C 288.298 4.72758 4.92939 0
M  V30 3236 O 287.986 5.98352 5.36871 0
M  V30 3237 H 287.718 0.225758 0.637189 0
M  V30 3238 H 290.272 1.26178 1.62075 0
M  V30 3239 H 288.502 0.0444808 3.86674 0
M  V30 3240 H 290.191 0.427442 4.03643 0
M  V30 3241 H 290.957 2.90613 3.8829 0
M  V30 3242 H 286.836 1.74202 4.26819 0
M  V30 3243 H 290.38 5.16896 4.68471 0
M  V30 3244 H 286.277 3.99582 5.06956 0
M  V30 3245 H 287.045 6.01507 5.55096 0
M  V30 3246 N 289.708 -1.40897 0.706093 0
M  V30 3247 C 290.933 -2.05895 0.249435 0
M  V30 3248 C 291.358 -1.52823 -1.09666 0
M  V30 3249 O 290.716 -0.659589 -1.68876 0
M  V30 3250 C 290.764 -3.59872 0.22904 0
M  V30 3251 O 289.868 -4.04708 -0.792784 0
M  V30 3252 H 289.209 -0.653206 0.119241 0
M  V30 3253 H 291.739 -1.80471 0.96391 0
M  V30 3254 H 291.749 -4.07951 0.0634791 0
M  V30 3255 H 290.424 -3.97866 1.21141 0
M  V30 3256 H 289.001 -3.68111 -0.59572 0
M  V30 3257 N 291.186 -0.45159 -1.50991 0
M  V30 3258 C 292.416 0.108177 -2.06317 0
M  V30 3259 C 292.824 1.35774 -1.31765 0
M  V30 3260 O 292.167 1.79838 -0.374694 0
M  V30 3261 C 292.229 0.481659 -3.56259 0
M  V30 3262 C 291.893 -0.663114 -4.52163 0
M  V30 3263 C 292.89 -1.53947 -4.96585 0
M  V30 3264 C 290.575 -0.8479 -4.95092 0
M  V30 3265 C 292.569 -2.58518 -5.82621 0
M  V30 3266 C 290.256 -1.89686 -5.80915 0
M  V30 3267 C 291.254 -2.76388 -6.24579 0
M  V30 3268 O 290.942 -3.79482 -7.08695 0
M  V30 3269 H 290.674 0.00499183 -0.675982 0
M  V30 3270 H 293.228 -0.633659 -1.95381 0
M  V30 3271 H 291.458 1.27641 -3.65027 0
M  V30 3272 H 293.147 0.974233 -3.94035 0
M  V30 3273 H 293.913 -1.4083 -4.64103 0
M  V30 3274 H 289.792 -0.18258 -4.60638 0
M  V30 3275 H 293.336 -3.26224 -6.16623 0
M  V30 3276 H 289.233 -2.02817 -6.12809 0
M  V30 3277 H 290.001 -3.76234 -7.26905 0
M  V30 3278 N 292.664 1.56529 -0.183458 0
M  V30 3279 C 293.894 2.01331 0.463612 0
M  V30 3280 C 294.302 1.06278 1.5653 0
M  V30 3281 O 293.645 0.0577976 1.83609 0
M  V30 3282 C 293.707 3.42547 1.09096 0
M  V30 3283 C 293.371 4.56817 0.129442 0
M  V30 3284 C 294.368 5.15734 -0.656807 0
M  V30 3285 C 292.053 5.02295 0.02174 0
M  V30 3286 C 294.047 6.1857 -1.53784 0
M  V30 3287 C 291.734 6.04978 -0.862864 0
M  V30 3288 C 292.732 6.62988 -1.64123 0
M  V30 3289 O 292.42 7.63677 -2.51103 0
M  V30 3290 H 292.152 0.664917 0.121907 0
M  V30 3291 H 294.706 2.034 -0.285954 0
M  V30 3292 H 292.936 3.37428 1.88889 0
M  V30 3293 H 294.625 3.71228 1.64148 0
M  V30 3294 H 295.391 4.81473 -0.583839 0
M  V30 3295 H 291.27 4.56847 0.617392 0
M  V30 3296 H 294.814 6.63777 -2.14583 0
M  V30 3297 H 290.711 6.38663 -0.93699 0
M  V30 3298 H 291.479 7.81049 -2.44753 0
M  V30 3299 N 294.142 -0.090211 1.57342 0
M  V30 3300 C 295.39 -0.791241 1.85967 0
M  V30 3301 C 295.711 -1.7903 0.772859 0
M  V30 3302 O 294.981 -1.94872 -0.200398 0
M  V30 3303 H 293.561 -0.295205 0.686195 0
M  V30 3304 H 296.223 -0.0706782 1.94772 0
M  V30 3305 H 295.319 -1.31882 2.82867 0
M  V30 3306 N 295.62 -1.53406 -0.361157 0
M  V30 3307 C 296.55 -1.83136 -1.44857 0
M  V30 3308 C 297.531 -0.685174 -1.5569 0
M  V30 3309 O 298.716 -0.93544 -1.70186 0
M  V30 3310 C 295.846 -2.02522 -2.82138 0
M  V30 3311 C 294.8 -3.18302 -2.86126 0
M  V30 3312 C 294.126 -3.22989 -4.26125 0
M  V30 3313 C 295.426 -4.56796 -2.53248 0
M  V30 3314 H 297.12 -2.74201 -1.20226 0
M  V30 3315 H 294.666 -1.31938 -0.576922 0
M  V30 3316 H 296.619 -2.21904 -3.58241 0
M  V30 3317 H 295.343 -1.08172 -3.08166 0
M  V30 3318 H 294.002 -2.98747 -2.12475 0
M  V30 3319 H 293.65 -2.26267 -4.49235 0
M  V30 3320 H 293.35 -4.00781 -4.29708 0
M  V30 3321 H 294.874 -3.44559 -5.04094 0
M  V30 3322 H 296.288 -4.7631 -3.19064 0
M  V30 3323 H 294.685 -5.36862 -2.68141 0
M  V30 3324 H 295.755 -4.61606 -1.48484 0
M  V30 3325 N 297.098 0.621204 -1.44841 0
M  V30 3326 C 298.326 1.40752 -1.51646 0
M  V30 3327 C 298.741 1.88246 -0.144549 0
M  V30 3328 O 298.098 1.61422 0.851416 0
M  V30 3329 C 298.149 2.62119 -2.4895 0
M  V30 3330 O 297.87 2.16602 -3.80808 0
M  V30 3331 C 299.371 3.55135 -2.65319 0
M  V30 3332 H 296.591 0.431325 -0.514004 0
M  V30 3333 H 299.135 0.758835 -1.899 0
M  V30 3334 H 297.29 3.23058 -2.13805 0
M  V30 3335 H 297.704 2.95358 -4.33433 0
M  V30 3336 H 299.178 4.36874 -3.37409 0
M  V30 3337 H 299.655 4.04592 -1.70886 0
M  V30 3338 H 300.261 3.00058 -3.01405 0
M  V30 3339 N 298.576 1.31904 0.862503 0
M  V30 3340 C 299.539 1.20131 1.95195 0
M  V30 3341 C 300.539 0.126409 1.60302 0
M  V30 3342 O 301.729 0.376234 1.70089 0
M  V30 3343 C 298.861 0.845691 3.30244 0
M  V30 3344 H 300.054 2.16943 2.07064 0
M  V30 3345 H 297.607 1.15622 1.05172 0
M  V30 3346 H 298.342 -0.120957 3.24074 0
M  V30 3347 H 298.127 1.62276 3.56944 0
M  V30 3348 H 299.617 0.787418 4.10109 0
M  V30 3349 N 300.054 -1.07777 1.14986 0
M  V30 3350 C 301.301 -1.8029 0.922056 0
M  V30 3351 C 301.629 -1.86531 -0.55105 0
M  V30 3352 O 300.884 -1.34189 -1.42449 0
M  V30 3353 C 301.183 -3.25495 1.47608 0
M  V30 3354 C 300.849 -3.39361 2.96893 0
M  V30 3355 C 299.511 -3.42852 3.37647 0
M  V30 3356 C 301.863 -3.42512 3.92854 0
M  V30 3357 C 299.191 -3.47094 4.73015 0
M  V30 3358 C 301.543 -3.4829 5.28088 0
M  V30 3359 C 300.207 -3.50058 5.68345 0
M  V30 3360 H 299.477 -0.659727 0.337404 0
M  V30 3361 H 302.124 -1.26854 1.43459 0
M  V30 3362 H 300.429 -3.81683 0.88463 0
M  V30 3363 H 302.126 -3.80168 1.27568 0
M  V30 3364 H 298.716 -3.37339 2.64387 0
M  V30 3365 H 302.9 -3.3904 3.62444 0
M  V30 3366 H 298.156 -3.46758 5.03556 0
M  V30 3367 H 302.33 -3.49675 6.02246 0
M  V30 3368 H 299.957 -3.53097 6.73221 0
M  V30 3369 N 301.532 -0.945985 -1.26051 0
M  V30 3370 C 302.78 -0.594941 -1.93145 0
M  V30 3371 C 303.101 0.86953 -1.7454 0
M  V30 3372 O 302.371 1.61838 -1.10387 0
M  V30 3373 H 300.951 -0.217044 -0.714773 0
M  V30 3374 H 303.613 -1.20235 -1.53393 0
M  V30 3375 H 302.709 -0.816835 -3.01221 0
M  V30 3376 N 303.011 1.40521 -0.713556 0
M  V30 3377 C 304.422 1.83853 -0.324807 0
M  V30 3378 C 304.773 1.59667 1.14021 0
M  V30 3379 O 303.898 1.07649 1.87725 0
M  V30 3380 C 304.493 3.33751 -0.582746 0
M  V30 3381 C 303.052 3.75584 -0.247727 0
M  V30 3382 C 302.199 2.63753 -0.856121 0
M  V30 3383 H 305.15 1.29817 -0.91286 0
M  V30 3384 H 305.171 3.80194 0.152682 0
M  V30 3385 H 304.683 3.51322 -1.64908 0
M  V30 3386 H 302.784 3.63608 0.813624 0
M  V30 3387 H 302.897 4.7373 -0.715307 0
M  V30 3388 H 301.261 2.53108 -0.28432 0
M  V30 3389 H 302.044 2.84137 -1.92668 0
M  V30 3390 N 304.489 0.459591 1.5075 0
M  V30 3391 C 305.735 -0.091664 2.03193 0
M  V30 3392 C 306.09 -1.38432 1.3362 0
M  V30 3393 O 305.383 -1.86257 0.449322 0
M  V30 3394 C 305.577 -0.342866 3.55752 0
M  V30 3395 C 305.406 0.923888 4.40107 0
M  V30 3396 C 304.176 1.46388 4.83631 0
M  V30 3397 C 306.374 1.81617 4.81165 0
M  V30 3398 N 304.356 2.68086 5.52271 0
M  V30 3399 C 305.727 2.87907 5.49099 0
M  V30 3400 C 307.782 1.82793 4.63132 0
M  V30 3401 C 306.485 3.95347 6.0091 0
M  V30 3402 C 308.511 2.89182 5.15876 0
M  V30 3403 C 307.873 3.94191 5.83774 0
M  V30 3404 H 303.972 0.00619247 0.781975 0
M  V30 3405 H 306.556 0.625233 1.84388 0
M  V30 3406 H 304.727 -1.0288 3.74527 0
M  V30 3407 H 306.459 -0.887445 3.9485 0
M  V30 3408 H 303.214 1.01466 4.62603 0
M  V30 3409 H 303.638 3.29857 5.91205 0
M  V30 3410 H 308.28 1.0293 4.1008 0
M  V30 3411 H 305.998 4.76035 6.53006 0
M  V30 3412 H 309.584 2.91061 5.0376 0
M  V30 3413 H 308.464 4.75161 6.23853 0
M  V30 3414 N 305.967 -1.56429 0.191757 0
M  V30 3415 C 307.216 -1.9666 -0.448088 0
M  V30 3416 C 307.529 -1.08136 -1.62991 0
M  V30 3417 O 308.735 -1.38135 -2.33733 0
M  V30 3418 C 307.191 -3.49753 -0.848585 0
M  V30 3419 C 306.799 -4.46935 0.308764 0
M  V30 3420 C 308.543 -3.9876 -1.4557 0
M  V30 3421 C 306.45 -5.91293 -0.112506 0
M  V30 3422 H 305.38 -0.734312 -0.171179 0
M  V30 3423 H 308.031 -1.81301 0.283242 0
M  V30 3424 H 306.413 -3.60604 -1.63649 0
M  V30 3425 H 307.587 -4.47813 1.08627 0
M  V30 3426 H 305.902 -4.08102 0.827158 0
M  V30 3427 H 308.499 -5.04086 -1.78328 0
M  V30 3428 H 308.842 -3.42875 -2.36099 0
M  V30 3429 H 309.375 -3.9101 -0.731836 0
M  V30 3430 H 306.114 -6.51097 0.758514 0
M  V30 3431 H 305.634 -5.93676 -0.854941 0
M  V30 3432 H 307.313 -6.44663 -0.549448 0
M  V30 3433 N 307.445 0.0818655 -1.57387 0
M  V30 3434 C 308.377 1.12484 -1.997 0
M  V30 3435 C 309.39 1.35564 -0.90146 0
M  V30 3436 O 310.579 1.33982 -1.17945 0
M  V30 3437 C 307.679 2.47778 -2.31213 0
M  V30 3438 C 306.852 2.44793 -3.62485 0
M  V30 3439 C 305.911 3.62117 -3.81782 0
M  V30 3440 O 304.937 3.44005 -4.53486 0
M  V30 3441 N 306.139 4.82094 -3.23367 0
M  V30 3442 H 308.904 0.764585 -2.89783 0
M  V30 3443 H 306.465 0.270664 -1.59621 0
M  V30 3444 H 308.457 3.24891 -2.41304 0
M  V30 3445 H 307.027 2.75843 -1.4707 0
M  V30 3446 H 306.247 1.53134 -3.6324 0
M  V30 3447 H 307.535 2.39889 -4.48699 0
M  V30 3448 H 306.933 4.99713 -2.65148 0
M  V30 3449 H 305.49 5.56753 -3.38923 0
M  V30 3450 N 308.923 1.53595 0.353017 0
M  V30 3451 C 309.87 1.80919 1.43308 0
M  V30 3452 C 310.84 0.654288 1.5267 0
M  V30 3453 O 312.025 0.897759 1.6836 0
M  V30 3454 C 309.165 2.01605 2.80089 0
M  V30 3455 C 308.278 3.29321 2.79593 0
M  V30 3456 C 307.413 3.40125 4.0803 0
M  V30 3457 C 306.452 4.61826 4.01725 0
M  V30 3458 N 305.589 4.69716 5.21834 0
M  V30 3459 H 310.429 2.73074 1.19308 0
M  V30 3460 H 307.966 1.35263 0.578131 0
M  V30 3461 H 309.924 2.11586 3.59565 0
M  V30 3462 H 308.554 1.12772 3.0246 0
M  V30 3463 H 307.606 3.28229 1.92276 0
M  V30 3464 H 308.918 4.18884 2.70809 0
M  V30 3465 H 308.072 3.49488 4.95927 0
M  V30 3466 H 306.811 2.48601 4.19582 0
M  V30 3467 H 305.816 4.52552 3.12213 0
M  V30 3468 H 307.041 5.54705 3.91764 0
M  V30 3469 H 304.987 3.81097 5.33948 0
M  V30 3470 H 304.904 5.53202 5.1527 0
M  V30 3471 H 306.172 4.83376 6.11529 0
M  V30 3472 N 310.401 -0.613514 1.45168 0
M  V30 3473 C 311.631 -1.39743 1.52169 0
M  V30 3474 C 312.039 -1.88596 0.151086 0
M  V30 3475 O 311.382 -1.6251 -0.856521 0
M  V30 3476 C 311.444 -2.64035 2.43979 0
M  V30 3477 C 311.108 -2.36861 3.90827 0
M  V30 3478 C 312.105 -1.97591 4.80889 0
M  V30 3479 C 309.79 -2.49956 4.35692 0
M  V30 3480 C 311.784 -1.71768 6.1382 0
M  V30 3481 C 309.471 -2.23747 5.68665 0
M  V30 3482 C 310.469 -1.84714 6.57548 0
M  V30 3483 O 310.157 -1.58809 7.88058 0
M  V30 3484 H 309.889 -0.434382 0.517966 0
M  V30 3485 H 312.443 -0.75587 1.90986 0
M  V30 3486 H 310.673 -3.3089 2.00122 0
M  V30 3487 H 312.362 -3.26069 2.41731 0
M  V30 3488 H 313.128 -1.87015 4.47493 0
M  V30 3489 H 309.007 -2.79305 3.66756 0
M  V30 3490 H 312.551 -1.41227 6.83155 0
M  V30 3491 H 308.448 -2.33938 6.01617 0
M  V30 3492 H 309.216 -1.7291 8.00028 0
M  V30 3493 N 311.879 -1.3236 -0.855495 0
M  V30 3494 C 312.809 -1.23833 -1.97958 0
M  V30 3495 C 313.79 -0.122361 -1.69659 0
M  V30 3496 O 314.975 -0.30939 -1.9172 0
M  V30 3497 C 312.105 -0.959772 -3.33775 0
M  V30 3498 C 311.059 -2.03689 -3.76424 0
M  V30 3499 C 310.385 -1.61075 -5.09862 0
M  V30 3500 C 311.685 -3.4518 -3.9198 0
M  V30 3501 H 313.379 -2.1788 -2.0535 0
M  V30 3502 H 310.925 -1.04891 -0.986605 0
M  V30 3503 H 312.878 -0.886678 -4.11966 0
M  V30 3504 H 311.602 0.0163404 -3.26596 0
M  V30 3505 H 310.261 -2.10012 -3.00484 0
M  V30 3506 H 309.909 -0.622107 -4.99138 0
M  V30 3507 H 309.609 -2.33143 -5.39368 0
M  V30 3508 H 311.133 -1.55201 -5.90546 0
M  V30 3509 H 312.547 -3.4145 -4.60526 0
M  V30 3510 H 310.944 -4.1559 -4.32903 0
M  V30 3511 H 312.014 -3.84903 -2.94919 0
M  V30 3512 N 313.357 1.07166 -1.15556 0
M  V30 3513 C 314.603 1.80222 -0.942961 0
M  V30 3514 C 314.958 1.85121 0.524209 0
M  V30 3515 O 314.251 1.32531 1.38369 0
M  V30 3516 C 314.445 3.24707 -1.49332 0
M  V30 3517 C 314.274 3.33887 -3.01247 0
M  V30 3518 C 313.044 3.44337 -3.69811 0
M  V30 3519 C 315.242 3.24484 -3.99017 0
M  V30 3520 N 313.224 3.42439 -5.09518 0
M  V30 3521 C 314.595 3.29726 -5.25053 0
M  V30 3522 C 316.65 3.08307 -3.90962 0
M  V30 3523 C 315.353 3.20455 -6.43973 0
M  V30 3524 C 317.379 3.00371 -5.09442 0
M  V30 3525 C 316.741 3.06227 -6.34354 0
M  V30 3526 H 312.84 0.672709 -0.398731 0
M  V30 3527 H 315.424 1.27905 -1.46794 0
M  V30 3528 H 313.595 3.7544 -0.994946 0
M  V30 3529 H 315.327 3.85894 -1.21935 0
M  V30 3530 H 312.082 3.48762 -3.20409 0
M  V30 3531 H 312.506 3.45013 -5.8249 0
M  V30 3532 H 317.148 3.02633 -2.95251 0
M  V30 3533 H 314.866 3.24888 -7.39914 0
M  V30 3534 H 318.452 2.88955 -5.04971 0
M  V30 3535 H 317.332 3.00132 -7.24493 0
M  V30 3536 N 314.835 0.952656 1.25548 0
M  V30 3537 C 316.081 0.616826 1.93822 0
M  V30 3538 C 316.436 -0.836684 1.73255 0
M  V30 3539 O 315.729 -1.59218 1.06584 0
M  V30 3540 C 315.923 0.908818 3.45652 0
M  V30 3541 C 315.752 2.38916 3.80984 0
M  V30 3542 C 314.522 3.04637 4.03143 0
M  V30 3543 C 316.72 3.36838 3.88645 0
M  V30 3544 N 314.702 4.42565 4.25453 0
M  V30 3545 C 316.073 4.60065 4.1562 0
M  V30 3546 C 318.128 3.31704 3.71318 0
M  V30 3547 C 316.831 5.78795 4.2707 0
M  V30 3548 C 318.857 4.4977 3.84006 0
M  V30 3549 C 318.219 5.71783 4.11392 0
M  V30 3550 H 314.318 0.27629 0.731565 0
M  V30 3551 H 316.902 1.22443 1.5138 0
M  V30 3552 H 315.073 0.330166 3.86994 0
M  V30 3553 H 316.805 0.533093 4.01174 0
M  V30 3554 H 313.56 2.55215 3.98952 0
M  V30 3555 H 313.984 5.1399 4.40617 0
M  V30 3556 H 318.626 2.3842 3.49164 0
M  V30 3557 H 316.344 6.72521 4.48041 0
M  V30 3558 H 319.93 4.47342 3.71989 0
M  V30 3559 H 318.81 6.61617 4.2099 0
M  V30 3560 N 316.313 -1.40141 0.720998 0
M  V30 3561 C 317.26 -2.30688 0.071919 0
M  V30 3562 C 318.23 -1.48476 -0.744584 0
M  V30 3563 O 319.415 -1.77201 -0.707423 0
M  V30 3564 C 316.555 -3.34724 -0.839855 0
M  V30 3565 C 315.668 -4.31998 -0.0122438 0
M  V30 3566 C 314.803 -5.23102 -0.923995 0
M  V30 3567 C 313.842 -6.12033 -0.0907969 0
M  V30 3568 N 312.979 -6.95537 -0.957718 0
M  V30 3569 H 317.819 -2.85628 0.849755 0
M  V30 3570 H 315.356 -1.40653 0.430726 0
M  V30 3571 H 317.314 -3.93618 -1.38279 0
M  V30 3572 H 315.944 -2.81274 -1.58381 0
M  V30 3573 H 314.996 -3.74841 0.64794 0
M  V30 3574 H 316.308 -4.94772 0.632595 0
M  V30 3575 H 315.462 -5.86953 -1.53527 0
M  V30 3576 H 314.201 -4.60615 -1.60264 0
M  V30 3577 H 313.206 -5.47207 0.533377 0
M  V30 3578 H 314.431 -6.76581 0.584428 0
M  V30 3579 H 312.377 -6.35633 -1.62192 0
M  V30 3580 H 312.294 -7.55099 -0.36904 0
M  V30 3581 H 313.562 -7.63832 -1.555 0
M  V30 3582 N 317.792 -0.46758 -1.50504 0
M  V30 3583 C 319.208 -0.121533 -1.59137 0
M  V30 3584 C 319.408 1.3717 -1.47603 0
M  V30 3585 O 318.464 2.14464 -1.33272 0
M  V30 3586 C 319.777 -0.6686 -2.93173 0
M  V30 3587 C 321.325 -0.631716 -3.06559 0
M  V30 3588 C 321.8 -1.15627 -4.43164 0
M  V30 3589 N 323.291 -1.11553 -4.49567 0
M  V30 3590 C 324.026 -1.49195 -5.5365 0
M  V30 3591 N 323.522 -1.94269 -6.65005 0
M  V30 3592 N 325.315 -1.4082 -5.44175 0
M  V30 3593 H 317.466 -1.4388 -1.56245 0
M  V30 3594 H 319.729 -0.594784 -0.738198 0
M  V30 3595 H 319.435 -1.71453 -3.07078 0
M  V30 3596 H 319.309 -0.11021 -3.77039 0
M  V30 3597 H 321.696 0.405297 -2.92304 0
M  V30 3598 H 321.777 -1.22687 -2.24458 0
M  V30 3599 H 321.421 -2.1919 -4.58168 0
M  V30 3600 H 321.351 -0.537365 -5.23851 0
M  V30 3601 H 323.842 -0.784895 -3.69659 0
M  V30 3602 H 324.155 -2.21148 -7.40482 0
M  V30 3603 H 322.5 -1.98219 -6.66134 0
M  V30 3604 H 325.691 -1.0545 -4.56068 0
M  V30 3605 H 325.864 -1.70481 -6.25172 0
M  V30 3606 N 319.27 1.56325 -0.20005 0
M  V30 3607 C 320.5 2.01811 0.442232 0
M  V30 3608 C 320.908 1.07932 1.55394 0
M  V30 3609 O 320.251 0.0772685 1.83537 0
M  V30 3610 C 320.313 3.43685 1.05457 0
M  V30 3611 C 319.977 4.56928 0.0809833 0
M  V30 3612 C 320.974 5.15009 -0.711471 0
M  V30 3613 C 318.659 5.0229 -0.0315364 0
M  V30 3614 C 320.653 6.16904 -1.60336 0
M  V30 3615 C 318.34 6.04028 -0.926981 0
M  V30 3616 C 319.338 6.6121 -1.71146 0
M  V30 3617 O 319.026 7.60971 -2.59189 0
M  V30 3618 H 318.758 0.666173 0.114848 0
M  V30 3619 H 321.312 2.03085 -0.307511 0
M  V30 3620 H 319.542 3.39413 1.85299 0
M  V30 3621 H 321.231 3.72948 1.60201 0
M  V30 3622 H 321.997 4.80827 -0.634873 0
M  V30 3623 H 317.876 4.57476 0.568902 0
M  V30 3624 H 321.42 6.61464 -2.21611 0
M  V30 3625 H 317.317 6.37634 -1.00468 0
M  V30 3626 H 318.085 7.7841 -2.53023 0
M  V30 3627 N 320.748 -0.0735177 1.57428 0
M  V30 3628 C 321.678 -1.0879 2.06608 0
M  V30 3629 C 322.659 -1.40473 0.959237 0
M  V30 3630 O 323.844 -1.5013 1.23185 0
M  V30 3631 C 320.974 -2.40183 2.50857 0
M  V30 3632 C 319.928 -2.22858 3.65402 0
M  V30 3633 C 319.254 -3.59619 3.957 0
M  V30 3634 C 320.554 -1.65123 4.95511 0
M  V30 3635 H 322.248 -0.678673 2.91607 0
M  V30 3636 H 319.794 -0.325013 1.40284 0
M  V30 3637 H 321.747 -3.11437 2.83874 0
M  V30 3638 H 320.471 -2.83083 1.62885 0
M  V30 3639 H 319.13 -1.54045 3.32664 0
M  V30 3640 H 318.778 -4.00086 3.04861 0
M  V30 3641 H 318.478 -3.48866 4.72828 0
M  V30 3642 H 320.002 -4.32306 4.31212 0
M  V30 3643 H 321.416 -2.26241 5.26771 0
M  V30 3644 H 319.813 -1.65071 5.7695 0
M  V30 3645 H 320.883 -0.612559 4.81015 0
M  V30 3646 N 322.226 -1.5378 -0.344866 0
M  V30 3647 C 323.454 -1.74899 -1.10534 0
M  V30 3648 C 323.869 -0.487534 -1.82397 0
M  V30 3649 O 323.226 0.540741 -1.74305 0
M  V30 3650 C 323.277 -2.92822 -2.11984 0
M  V30 3651 O 322.998 -4.14089 -1.43044 0
M  V30 3652 C 324.499 -3.25982 -3.00417 0
M  V30 3653 H 321.719 -0.584426 -0.329678 0
M  V30 3654 H 324.263 -2.006 -0.397474 0
M  V30 3655 H 322.418 -2.69457 -2.78338 0
M  V30 3656 H 322.832 -4.80272 -2.10805 0
M  V30 3657 H 324.306 -4.11848 -3.67539 0
M  V30 3658 H 324.783 -2.42228 -3.66363 0
M  V30 3659 H 325.389 -3.51349 -2.39654 0
M  V30 3660 N 323.704 0.605807 -1.45491 0
M  V30 3661 C 324.637 1.73022 -1.48791 0
M  V30 3662 C 325.615 1.58917 -0.344112 0
M  V30 3663 O 326.799 1.80453 -0.544876 0
M  V30 3664 C 323.926 3.10865 -1.34463 0
M  V30 3665 C 322.972 3.43554 -2.5273 0
M  V30 3666 S 323.805 3.38196 -4.15191 0
M  V30 3667 C 324.961 4.78616 -4.03333 0
M  V30 3668 H 325.194 1.69961 -2.43928 0
M  V30 3669 H 322.727 0.782611 -1.33096 0
M  V30 3670 H 324.685 3.90398 -1.26884 0
M  V30 3671 H 323.346 3.1144 -0.40794 0
M  V30 3672 H 322.539 4.43924 -2.38637 0
M  V30 3673 H 322.141 2.71541 -2.5718 0
M  V30 3674 H 324.433 5.68463 -3.68587 0
M  V30 3675 H 325.376 4.97767 -5.03621 0
M  V30 3676 H 325.784 4.54381 -3.34959 0
M  V30 3677 N 325.182 1.32811 0.848464 0
M  V30 3678 C 326.112 1.24882 1.97299 0
M  V30 3679 C 327.093 0.131357 1.69592 0
M  V30 3680 O 328.278 0.319553 1.91553 0
M  V30 3681 C 325.408 0.97746 3.33261 0
M  V30 3682 C 324.362 2.05682 3.75338 0
M  V30 3683 C 323.688 1.63777 5.09 0
M  V30 3684 C 324.988 3.47254 3.90144 0
M  V30 3685 H 326.682 2.18966 2.04191 0
M  V30 3686 H 324.228 1.05413 0.981029 0
M  V30 3687 H 326.181 0.908513 4.1149 0
M  V30 3688 H 324.905 0.000980011 3.266 0
M  V30 3689 H 323.564 2.11603 2.99366 0
M  V30 3690 H 323.212 0.648569 4.98801 0
M  V30 3691 H 322.912 2.36 5.38124 0
M  V30 3692 H 324.436 1.5833 5.89715 0
M  V30 3693 H 325.85 3.43888 4.58709 0
M  V30 3694 H 324.247 4.1788 4.30693 0
M  V30 3695 H 325.317 3.86462 2.92874 0
M  V30 3696 N 326.66 -1.06551 1.16123 0
M  V30 3697 C 327.592 -2.13908 0.823171 0
M  V30 3698 C 328.605 -1.61926 -0.16843 0
M  V30 3699 O 329.794 -1.78412 0.055962 0
M  V30 3700 C 326.894 -3.38283 0.204424 0
M  V30 3701 C 326.067 -4.19589 1.23548 0
M  V30 3702 C 325.126 -5.2233 0.637011 0
M  V30 3703 O 324.152 -5.54034 1.30516 0
M  V30 3704 N 325.354 -5.77621 -0.577474 0
M  V30 3705 H 328.119 -2.43508 1.74711 0
M  V30 3706 H 325.68 -1.2253 1.05821 0
M  V30 3707 H 327.672 -4.0416 -0.208909 0
M  V30 3708 H 326.242 -3.06329 -0.623012 0
M  V30 3709 H 325.462 -3.49406 1.82507 0
M  V30 3710 H 326.75 -4.70718 1.93137 0
M  V30 3711 H 326.148 -5.54125 -1.13853 0
M  V30 3712 H 324.705 -6.45087 -0.933053 0
M  V30 3713 N 328.138 -0.959301 -1.25041 0
M  V30 3714 C 329.068 -0.501388 -2.28053 0
M  V30 3715 C 330.049 0.454673 -1.63911 0
M  V30 3716 O 331.234 0.352618 -1.90972 0
M  V30 3717 C 328.364 0.217224 -3.4662 0
M  V30 3718 C 327.318 -0.654034 -4.22973 0
M  V30 3719 C 326.644 0.195589 -5.34342 0
M  V30 3720 C 327.944 -1.93447 -4.85155 0
M  V30 3721 H 329.638 -1.36238 -2.66608 0
M  V30 3722 H 327.184 -0.656534 -1.28163 0
M  V30 3723 H 329.137 0.548732 -4.17812 0
M  V30 3724 H 327.861 1.1125 -3.07068 0
M  V30 3725 H 326.52 -0.968693 -3.5357 0
M  V30 3726 H 326.168 1.09076 -4.91031 0
M  V30 3727 H 325.868 -0.384091 -5.86343 0
M  V30 3728 H 327.392 0.521958 -6.08365 0
M  V30 3729 H 328.806 -1.66908 -5.48466 0
M  V30 3730 H 327.203 -2.46018 -5.47353 0
M  V30 3731 H 328.273 -2.63466 -4.07079 0
M  V30 3732 N 329.616 1.39756 -0.72842 0
M  V30 3733 C 330.865 1.99879 -0.270407 0
M  V30 3734 C 331.178 1.58449 1.14688 0
M  V30 3735 O 332.384 2.11362 1.70407 0
M  V30 3736 C 330.84 3.57292 -0.43252 0
M  V30 3737 C 330.448 4.07688 -1.85727 0
M  V30 3738 C 332.192 4.24485 -0.0359507 0
M  V30 3739 C 330.099 5.5765 -1.96928 0
M  V30 3740 H 329.029 0.747689 -0.0973472 0
M  V30 3741 H 331.68 1.59837 -0.901355 0
M  V30 3742 H 330.062 3.95097 0.267219 0
M  V30 3743 H 331.236 3.81231 -2.58843 0
M  V30 3744 H 329.551 3.53135 -2.20646 0
M  V30 3745 H 332.148 5.34609 -0.0987484 0
M  V30 3746 H 332.491 4.03915 1.00787 0
M  V30 3747 H 333.024 3.9183 -0.686604 0
M  V30 3748 H 329.763 5.8309 -2.99476 0
M  V30 3749 H 329.283 5.8593 -1.28241 0
M  V30 3750 H 330.962 6.22957 -1.74737 0
M  V30 3751 N 331.094 0.475555 1.50254 0
M  V30 3752 C 332.026 -0.352649 2.26471 0
M  V30 3753 C 333.039 -0.953165 1.3198 0
M  V30 3754 O 334.228 -0.840815 1.57457 0
M  V30 3755 C 331.328 -1.50902 3.0345 0
M  V30 3756 C 330.501 -1.02047 4.25329 0
M  V30 3757 C 329.56 -2.05142 4.84565 0
M  V30 3758 O 328.586 -1.63023 5.45355 0
M  V30 3759 N 329.788 -3.37987 4.71959 0
M  V30 3760 H 332.553 0.300767 2.98187 0
M  V30 3761 H 330.114 0.306598 1.5897 0
M  V30 3762 H 332.106 -2.19572 3.39956 0
M  V30 3763 H 330.676 -2.06705 2.34504 0
M  V30 3764 H 329.896 -0.159507 3.93877 0
M  V30 3765 H 331.184 -0.672061 5.04342 0
M  V30 3766 H 330.582 -3.74913 4.23623 0
M  V30 3767 H 329.139 -4.02443 5.12721 0
M  V30 3768 N 332.573 -1.56217 0.208337 0
M  V30 3769 C 333.82 -1.97949 -0.42692 0
M  V30 3770 C 334.148 -1.09562 -1.60706 0
M  V30 3771 O 333.403 -0.137616 -1.95216 0
M  V30 3772 C 333.702 -3.45441 -0.916797 0
M  V30 3773 C 333.368 -4.50646 0.151391 0
M  V30 3774 C 332.03 -4.79139 0.444867 0
M  V30 3775 C 334.382 -5.13811 0.874492 0
M  V30 3776 C 331.71 -5.68084 1.46619 0
M  V30 3777 C 334.062 -6.03861 1.88506 0
M  V30 3778 C 332.726 -6.30704 2.18559 0
M  V30 3779 H 331.996 -0.724345 -0.156221 0
M  V30 3780 H 334.643 -1.89006 0.308084 0
M  V30 3781 H 332.948 -3.51521 -1.73032 0
M  V30 3782 H 334.645 -3.75094 -1.41794 0
M  V30 3783 H 331.235 -4.28511 -0.0875068 0
M  V30 3784 H 335.419 -4.91879 0.660996 0
M  V30 3785 H 330.675 -5.87151 1.7048 0
M  V30 3786 H 334.849 -6.51861 2.45051 0
M  V30 3787 H 332.476 -6.99424 2.97843 0
M  V30 3788 N 334.051 0.0651679 -1.57465 0
M  V30 3789 C 335.001 1.0838 -2.00594 0
M  V30 3790 C 335.985 1.34106 -0.889071 0
M  V30 3791 O 337.177 1.34295 -1.15299 0
M  V30 3792 C 334.306 2.39565 -2.45894 0
M  V30 3793 C 333.392 2.17085 -3.64328 0
M  V30 3794 N 333.783 1.64553 -4.78285 0
M  V30 3795 C 332.081 2.4753 -3.71006 0
M  V30 3796 C 332.782 1.57042 -5.60101 0
M  V30 3797 N 331.758 2.03328 -5.04141 0
M  V30 3798 H 335.56 0.671062 -2.86136 0
M  V30 3799 H 333.074 0.27213 -1.60104 0
M  V30 3800 H 335.071 3.13308 -2.75034 0
M  V30 3801 H 333.731 2.81549 -1.61741 0
M  V30 3802 H 334.742 1.33323 -5.00445 0
M  V30 3803 H 331.419 2.92835 -2.9758 0
M  V30 3804 H 332.809 1.17223 -6.61595 0
M  V30 3805 N 335.529 1.53961 0.336706 0
M  V30 3806 C 336.775 1.7179 1.07777 0
M  V30 3807 C 337.108 0.483263 1.88091 0
M  V30 3808 O 336.383 -0.519747 1.87427 0
M  V30 3809 C 336.666 2.98558 2.01334 0
M  V30 3810 C 336.519 4.32245 1.24437 0
M  V30 3811 C 337.838 3.21023 3.01052 0
M  V30 3812 H 334.957 0.625089 0.390426 0
M  V30 3813 H 337.599 1.86641 0.35567 0
M  V30 3814 H 335.749 2.86028 2.62908 0
M  V30 3815 H 337.421 4.56637 0.654243 0
M  V30 3816 H 335.664 4.30344 0.546458 0
M  V30 3817 H 336.335 5.17137 1.93063 0
M  V30 3818 H 338.811 3.32929 2.49595 0
M  V30 3819 H 337.687 4.11104 3.6371 0
M  V30 3820 H 337.948 2.37637 3.72802 0
M  V30 3821 N 337.007 -0.598083 1.45811 0
M  V30 3822 C 338.235 -1.38322 1.53866 0
M  V30 3823 C 338.65 -1.87992 0.174479 0
M  V30 3824 O 338.007 -1.62756 -0.825627 0
M  V30 3825 C 338.058 -2.58125 2.53089 0
M  V30 3826 O 337.779 -2.10516 3.84206 0
M  V30 3827 C 339.28 -3.50869 2.70935 0
M  V30 3828 H 336.5 -0.423093 0.520801 0
M  V30 3829 H 339.044 -0.728527 1.91083 0
M  V30 3830 H 337.199 -3.19615 2.18917 0
M  V30 3831 H 337.613 -2.88425 4.38077 0
M  V30 3832 H 339.087 -4.31451 3.44317 0
M  V30 3833 H 339.564 -4.01822 1.77301 0
M  V30 3834 H 340.17 -2.95225 3.06141 0
M  V30 3835 N 338.485 -1.33259 -0.841409 0
M  V30 3836 C 339.734 -1.23921 -1.59143 0
M  V30 3837 C 340.047 0.1941 -1.94635 0
M  V30 3838 O 341.253 0.409474 -2.68394 0
M  V30 3839 C 339.709 -2.17119 -2.87032 0
M  V30 3840 C 339.317 -3.65606 -2.58914 0
M  V30 3841 C 341.061 -2.16648 -3.65053 0
M  V30 3842 C 338.968 -4.50726 -3.82884 0
M  V30 3843 H 337.898 -0.460264 -0.597221 0
M  V30 3844 H 340.549 -1.58307 -0.927959 0
M  V30 3845 H 338.931 -1.75663 -3.54906 0
M  V30 3846 H 340.105 -4.15487 -1.99267 0
M  V30 3847 H 338.42 -3.68341 -1.942 0
M  V30 3848 H 341.017 -2.77474 -4.57069 0
M  V30 3849 H 341.36 -1.16088 -3.99787 0
M  V30 3850 H 341.893 -2.56453 -3.041 0
M  V30 3851 H 338.632 -5.52151 -3.53283 0
M  V30 3852 H 338.152 -4.0559 -4.41879 0
M  V30 3853 H 339.831 -4.64401 -4.50489 0
M  V30 3854 N 339.963 1.05934 -1.16686 0
M  V30 3855 C 341.211 1.78447 -0.948744 0
M  V30 3856 C 341.532 1.87813 0.524523 0
M  V30 3857 O 340.802 1.38945 1.38098 0
M  V30 3858 H 339.382 0.660971 -0.348033 0
M  V30 3859 H 342.044 1.27947 -1.47022 0
M  V30 3860 H 341.14 2.80394 -1.37061 0
M  V30 3861 N 341.441 0.965919 1.2453 0
M  V30 3862 C 342.391 0.465731 2.23193 0
M  V30 3863 C 343.375 -0.451277 1.54442 0
M  V30 3864 O 344.567 -0.282489 1.74731 0
M  V30 3865 C 341.696 -0.244511 3.42428 0
M  V30 3866 C 340.782 0.691222 4.18429 0
M  V30 3867 N 341.173 1.82771 4.71623 0
M  V30 3868 C 339.471 0.501649 4.4317 0
M  V30 3869 C 340.172 2.41285 5.29298 0
M  V30 3870 N 339.148 1.69819 5.16394 0
M  V30 3871 H 342.95 1.33291 2.61937 0
M  V30 3872 H 340.464 0.824789 1.39896 0
M  V30 3873 H 342.461 -0.620056 4.12263 0
M  V30 3874 H 341.121 -1.10815 3.05205 0
M  V30 3875 H 342.132 2.20929 4.68413 0
M  V30 3876 H 338.809 -0.318177 4.16286 0
M  V30 3877 H 340.199 3.37181 5.8117 0
M  V30 3878 N 342.919 -1.39368 0.735821 0
M  V30 3879 C 344.147 -2.04795 0.294393 0
M  V30 3880 C 344.562 -1.55478 -1.07107 0
M  V30 3881 O 343.919 -0.720038 -1.67695 0
M  V30 3882 C 343.97 -3.6035 0.288071 0
M  V30 3883 O 343.691 -4.07852 1.59963 0
M  V30 3884 C 345.192 -4.42976 -0.169422 0
M  V30 3885 H 342.412 -0.658571 0.128551 0
M  V30 3886 H 344.956 -1.78399 0.999701 0
M  V30 3887 H 343.111 -3.85645 -0.368355 0
M  V30 3888 H 343.525 -5.02181 1.51375 0
M  V30 3889 H 344.999 -5.51864 -0.122687 0
M  V30 3890 H 345.476 -4.22068 -1.21472 0
M  V30 3891 H 346.082 -4.22832 0.457469 0
M  V30 3892 N 344.397 -0.483516 -1.5 0
M  V30 3893 C 345.36 0.292965 -2.2732 0
M  V30 3894 C 346.36 0.909499 -1.32608 0
M  V30 3895 O 347.55 0.776745 -1.55924 0
M  V30 3896 C 344.682 1.41854 -3.09984 0
M  V30 3897 H 345.875 -0.385289 -2.97415 0
M  V30 3898 H 343.428 -0.237942 -1.54478 0
M  V30 3899 H 344.163 2.13148 -2.44414 0
M  V30 3900 H 343.948 0.982114 -3.79601 0
M  V30 3901 H 345.438 1.96597 -3.68429 0
M  V30 3902 N 345.875 1.56104 -0.216619 0
M  V30 3903 C 346.805 2.23063 0.690296 0
M  V30 3904 C 347.786 1.20072 1.20485 0
M  V30 3905 O 348.971 1.48643 1.24976 0
M  V30 3906 C 346.101 2.90672 1.90072 0
M  V30 3907 C 345.055 4.00092 1.5202 0
M  V30 3908 C 344.381 4.54972 2.80899 0
M  V30 3909 C 345.681 5.17398 0.71391 0
M  V30 3910 H 347.375 2.99109 0.132038 0
M  V30 3911 H 344.921 1.43866 0.0620664 0
M  V30 3912 H 346.874 3.36204 2.54057 0
M  V30 3913 H 345.598 2.12066 2.48386 0
M  V30 3914 H 344.257 3.55283 0.903839 0
M  V30 3915 H 343.905 3.73102 3.37348 0
M  V30 3916 H 343.605 5.28817 2.56176 0
M  V30 3917 H 345.129 5.0322 3.45836 0
M  V30 3918 H 346.543 5.59342 1.25735 0
M  V30 3919 H 344.94 5.97444 0.563951 0
M  V30 3920 H 346.01 4.84088 -0.280527 0
M  V30 3921 N 347.353 -0.0568162 1.57498 0
M  V30 3922 C 348.578 -0.769402 1.92601 0
M  V30 3923 C 349.003 -1.69559 0.814336 0
M  V30 3924 O 348.361 -1.79811 -0.231903 0
M  V30 3925 C 348.409 -1.52634 3.26704 0
M  V30 3926 O 347.513 -2.63797 3.16994 0
M  V30 3927 H 346.854 -0.208909 0.63028 0
M  V30 3928 H 349.384 -0.0205798 2.0459 0
M  V30 3929 H 349.394 -1.90234 3.60936 0
M  V30 3930 H 348.069 -0.846875 4.07186 0
M  V30 3931 H 346.646 -2.28943 2.94346 0
M  V30 3932 N 348.832 -1.54138 -0.328536 0
M  V30 3933 C 349.762 -1.86167 -1.40939 0
M  V30 3934 C 350.743 -0.718044 -1.54202 0
M  V30 3935 O 351.928 -0.971328 -1.68163 0
M  V30 3936 C 349.058 -2.08461 -2.77779 0
M  V30 3937 C 348.012 -3.24299 -2.7931 0
M  V30 3938 C 347.338 -3.31955 -4.19178 0
M  V30 3939 C 348.638 -4.62065 -2.43502 0
M  V30 3940 H 350.332 -2.76689 -1.14383 0
M  V30 3941 H 347.878 -1.33132 -0.548806 0
M  V30 3942 H 349.831 -2.29453 -3.53454 0
M  V30 3943 H 348.555 -1.14684 -3.05802 0
M  V30 3944 H 347.214 -3.03187 -2.0609 0
M  V30 3945 H 346.862 -2.35745 -4.44335 0
M  V30 3946 H 346.562 -4.09805 -4.2111 0
M  V30 3947 H 348.086 -3.55175 -4.96672 0
M  V30 3948 H 349.5 -4.8297 -3.08889 0
M  V30 3949 H 347.897 -5.42429 -2.56693 0
M  V30 3950 H 348.967 -4.64652 -1.38659 0
M  V30 3951 N 350.31 0.590341 -1.46126 0
M  V30 3952 C 351.54 1.37304 -1.54373 0
M  V30 3953 C 351.948 1.88332 -0.181071 0
M  V30 3954 O 351.291 1.63852 0.830559 0
M  V30 3955 C 351.353 2.6012 -2.48149 0
M  V30 3956 C 351.017 2.30613 -3.94546 0
M  V30 3957 C 352.014 1.89915 -4.83971 0
M  V30 3958 C 349.699 2.42993 -4.39613 0
M  V30 3959 C 351.693 1.61981 -6.16475 0
M  V30 3960 C 349.38 2.14672 -5.72153 0
M  V30 3961 C 350.378 1.7423 -6.60404 0
M  V30 3962 O 350.066 1.46251 -7.90485 0
M  V30 3963 H 349.798 0.426086 -0.524811 0
M  V30 3964 H 352.352 0.72539 -1.92165 0
M  V30 3965 H 350.582 3.27664 -2.05361 0
M  V30 3966 H 352.271 3.22182 -2.46887 0
M  V30 3967 H 353.037 1.79872 -4.50412 0
M  V30 3968 H 348.916 2.73435 -3.71153 0
M  V30 3969 H 352.46 1.30341 -6.85315 0
M  V30 3970 H 348.357 2.24337 -6.05263 0
M  V30 3971 H 349.125 1.6016 -8.02677 0
M  V30 3972 N 351.788 1.33704 0.83433 0
M  V30 3973 C 353.016 1.28467 1.62185 0
M  V30 3974 C 353.431 -0.143526 1.88254 0
M  V30 3975 O 352.788 -1.08709 1.4659 0
M  V30 3976 C 352.839 2.06174 2.96942 0
M  V30 3977 O 352.56 3.43422 2.72016 0
M  V30 3978 C 354.061 2.08201 3.91366 0
M  V30 3979 H 351.281 0.4424 0.504503 0
M  V30 3980 H 353.825 1.76145 1.03891 0
M  V30 3981 H 351.98 1.62167 3.51825 0
M  V30 3982 H 352.394 3.83453 3.57861 0
M  V30 3983 H 353.868 2.67017 4.83121 0
M  V30 3984 H 354.345 1.07343 4.2588 0
M  V30 3985 H 354.951 2.52246 3.42421 0
M  V30 3986 N 353.266 -1.05314 1.17247 0
M  V30 3987 C 354.543 -1.75184 0.87005 0
M  V30 3988 C 354.923 -2.01481 -0.629965 0
M  V30 3989 O 354.271 -1.64988 -1.58086 0
M  V30 3990 C 354.481 -3.04594 1.70363 0
M  V30 3991 C 355.829 -3.78567 1.92281 0
M  V30 3992 O 356.853 -3.14461 1.67311 0
M  V30 3993 O 355.712 -4.93755 2.3424 0
M  V30 3994 H 352.806 -0.761729 0.322021 0
M  V30 3995 H 355.352 -1.11493 1.27935 0
M  V30 3996 H 354.124 -2.81201 2.72106 0
M  V30 3997 H 353.747 -3.76022 1.29202 0
M  V30 3998 N 354.744 -0.972509 -1.24016 0
M  V30 3999 C 355.984 -0.644951 -1.93958 0
M  V30 4000 C 356.348 0.80559 -1.74282 0
M  V30 4001 O 357.549 1.2436 -2.38302 0
M  V30 4002 C 355.82 -1.01521 -3.42678 0
M  V30 4003 S 357.379 -0.802927 -4.31391 0
M  V30 4004 H 354.197 -0.236452 -0.670531 0
M  V30 4005 H 356.799 -1.25048 -1.50277 0
M  V30 4006 H 355.503 -2.06769 -3.54506 0
M  V30 4007 H 355.034 -0.400648 -3.91355 0
M  V30 4008 H 357.049 0.317256 -4.95185 0
M  V30 4009 N 356.222 1.38976 -0.743202 0
M  V30 4010 C 357.633 1.83123 -0.363732 0
M  V30 4011 C 357.984 1.6205 1.10609 0
M  V30 4012 O 357.109 1.11606 1.854 0
M  V30 4013 C 357.704 3.32439 -0.653408 0
M  V30 4014 C 356.263 3.74974 -0.327338 0
M  V30 4015 C 355.41 2.61878 -0.911875 0
M  V30 4016 H 358.361 1.27852 -0.940191 0
M  V30 4017 H 358.382 3.80432 0.0720031 0
M  V30 4018 H 357.894 3.47745 -1.72323 0
M  V30 4019 H 355.995 3.65252 0.736314 0
M  V30 4020 H 356.108 4.72106 -0.815631 0
M  V30 4021 H 354.472 2.52448 -0.337944 0
M  V30 4022 H 355.255 2.79987 -1.98651 0
M  V30 4023 N 357.7 0.491464 1.49741 0
M  V30 4024 C 358.947 -0.0564256 2.02421 0
M  V30 4025 C 359.275 -1.37872 1.37192 0
M  V30 4026 O 358.53 -1.89375 0.493508 0
M  V30 4027 C 358.829 -0.267329 3.56399 0
M  V30 4028 C 358.495 0.975775 4.40215 0
M  V30 4029 C 357.157 1.31655 4.62839 0
M  V30 4030 C 359.509 1.80251 4.89039 0
M  V30 4031 C 356.837 2.48375 5.31532 0
M  V30 4032 C 359.189 2.96116 5.59015 0
M  V30 4033 C 357.853 3.30585 5.79888 0
M  V30 4034 H 357.123 -0.0206476 0.740712 0
M  V30 4035 H 359.77 0.649686 1.80143 0
M  V30 4036 H 358.075 -1.05588 3.77304 0
M  V30 4037 H 359.772 -0.705549 3.94744 0
M  V30 4038 H 356.362 0.700315 4.2284 0
M  V30 4039 H 360.546 1.55239 4.71396 0
M  V30 4040 H 355.802 2.7533 5.45897 0
M  V30 4041 H 359.976 3.60509 5.95824 0
M  V30 4042 H 357.603 4.21132 6.32892 0
M  V30 4043 N 359.178 -1.55987 0.224894 0
M  V30 4044 C 360.589 -1.84553 -0.282345 0
M  V30 4045 C 360.94 -1.14634 -1.59227 0
M  V30 4046 O 360.065 -0.417155 -2.12341 0
M  V30 4047 C 360.66 -3.348 -0.519062 0
M  V30 4048 C 359.219 -3.63671 -0.970604 0
M  V30 4049 C 358.366 -2.77277 -0.0355261 0
M  V30 4050 H 361.317 -1.52245 0.448006 0
M  V30 4051 H 361.338 -3.55187 -1.36463 0
M  V30 4052 H 360.85 -3.8566 0.43449 0
M  V30 4053 H 358.951 -3.1827 -1.9374 0
M  V30 4054 H 359.064 -4.71631 -0.842698 0
M  V30 4055 H 357.428 -2.48846 -0.542927 0
M  V30 4056 H 358.211 -3.30937 0.913003 0
M  V30 4057 N 360.656 0.0484629 -1.57525 0
M  V30 4058 C 361.603 1.05504 -2.05275 0
M  V30 4059 C 362.573 1.37084 -0.937927 0
M  V30 4060 O 363.758 1.47754 -1.2072 0
M  V30 4061 C 360.898 2.35676 -2.52093 0
M  V30 4062 C 360.011 2.10423 -3.77288 0
M  V30 4063 C 359.146 3.34327 -4.12794 0
M  V30 4064 C 358.185 3.04542 -5.30962 0
M  V30 4065 N 357.322 4.20841 -5.61994 0
M  V30 4066 H 362.162 0.640885 -2.91027 0
M  V30 4067 H 359.699 0.304854 -1.43906 0
M  V30 4068 H 361.657 3.11709 -2.77297 0
M  V30 4069 H 360.287 2.7485 -1.69285 0
M  V30 4070 H 359.339 1.24976 -3.59284 0
M  V30 4071 H 360.651 1.84438 -4.63448 0
M  V30 4072 H 359.805 4.1874 -4.39024 0
M  V30 4073 H 358.544 3.63408 -3.25247 0
M  V30 4074 H 357.549 2.18528 -5.04505 0
M  V30 4075 H 358.774 2.76758 -6.20146 0
M  V30 4076 H 356.72 4.4991 -4.77406 0
M  V30 4077 H 356.637 3.98212 -6.42622 0
M  V30 4078 H 357.905 5.06184 -5.92789 0
M  V30 4079 N 362.134 1.5431 0.320358 0
M  V30 4080 C 363.38 1.73859 1.05568 0
M  V30 4081 C 363.735 0.507807 1.85578 0
M  V30 4082 O 363.028 -0.499789 1.84967 0
M  V30 4083 C 363.222 2.95639 2.00828 0
M  V30 4084 C 363.051 4.30444 1.30186 0
M  V30 4085 C 361.821 4.94544 1.03703 0
M  V30 4086 C 364.019 5.0929 0.716138 0
M  V30 4087 N 362.001 6.13172 0.298846 0
M  V30 4088 C 363.372 6.19903 0.109729 0
M  V30 4089 C 365.427 4.94034 0.619269 0
M  V30 4090 C 364.13 7.16924 -0.584153 0
M  V30 4091 C 366.156 5.91369 -0.0609184 0
M  V30 4092 C 365.518 7.01336 -0.656258 0
M  V30 4093 H 361.617 0.688988 0.36989 0
M  V30 4094 H 364.201 1.9177 0.336494 0
M  V30 4095 H 362.372 2.79188 2.70016 0
M  V30 4096 H 364.104 3.03802 2.6737 0
M  V30 4097 H 360.859 4.54536 1.33019 0
M  V30 4098 H 361.283 6.76977 -0.0561964 0
M  V30 4099 H 365.925 4.0916 1.06526 0
M  V30 4100 H 363.643 8.01354 -1.04197 0
M  V30 4101 H 367.229 5.81642 -0.135552 0
M  V30 4102 H 366.109 7.75359 -1.17423 0
M  V30 4103 N 363.613 -0.582584 1.46437 0
M  V30 4104 C 364.546 -1.70633 1.51524 0
M  V30 4105 C 365.524 -1.58349 0.369351 0
M  V30 4106 O 366.708 -1.79563 0.573516 0
M  V30 4107 C 363.835 -3.08687 1.39392 0
M  V30 4108 C 362.881 -3.3949 2.58164 0
M  V30 4109 S 363.714 -3.31548 4.20519 0
M  V30 4110 C 364.87 -4.72139 4.10896 0
M  V30 4111 H 365.103 -1.66058 2.46601 0
M  V30 4112 H 362.636 -0.761337 1.34324 0
M  V30 4113 H 364.594 -3.8833 1.33079 0
M  V30 4114 H 363.255 -3.10751 0.457436 0
M  V30 4115 H 362.448 -4.40071 2.45669 0
M  V30 4116 H 362.05 -2.67415 2.61468 0
M  V30 4117 H 364.342 -5.62527 3.77584 0
M  V30 4118 H 365.285 -4.89692 5.11476 0
M  V30 4119 H 365.693 -4.48995 3.42146 0
M  V30 4120 N 365.091 -1.34144 -0.827227 0
M  V30 4121 C 366.041 -1.21923 -1.92663 0
M  V30 4122 C 367.025 -0.119294 -1.60457 0
M  V30 4123 O 368.217 -0.348539 -1.73534 0
M  V30 4124 C 365.346 -0.972492 -3.29238 0
M  V30 4125 C 364.432 -2.1154 -3.67576 0
M  V30 4126 N 364.823 -3.36627 -3.77512 0
M  V30 4127 C 363.121 -2.02468 -3.97395 0
M  V30 4128 C 363.822 -4.11658 -4.1099 0
M  V30 4129 N 362.798 -3.40207 -4.23981 0
M  V30 4130 H 366.6 -2.16721 -1.98517 0
M  V30 4131 H 364.114 -1.2632 -1.02064 0
M  V30 4132 H 366.111 -0.865847 -4.0781 0
M  V30 4133 H 364.771 -0.0331509 -3.24683 0
M  V30 4134 H 365.782 -3.71234 -3.61118 0
M  V30 4135 H 362.459 -1.16265 -4.00985 0
M  V30 4136 H 363.849 -5.19657 -4.25918 0
M  V30 4137 N 366.569 1.04691 -1.17803 0
M  V30 4138 C 367.815 1.78181 -0.980977 0
M  V30 4139 C 368.17 1.86191 0.484825 0
M  V30 4140 O 367.463 1.35436 1.35527 0
M  V30 4141 C 367.657 3.21467 -1.56186 0
M  V30 4142 C 367.486 3.27422 -3.08261 0
M  V30 4143 C 366.256 3.36415 -3.77032 0
M  V30 4144 C 368.454 3.15947 -4.0581 0
M  V30 4145 N 366.436 3.31554 -5.16667 0
M  V30 4146 C 367.807 3.18514 -5.31929 0
M  V30 4147 C 369.862 2.99945 -3.97413 0
M  V30 4148 C 368.565 3.06723 -6.50625 0
M  V30 4149 C 370.591 2.89497 -5.15699 0
M  V30 4150 C 369.953 2.92702 -6.40706 0
M  V30 4151 H 366.052 0.6641 -0.412911 0
M  V30 4152 H 368.636 1.24762 -1.49474 0
M  V30 4153 H 366.807 3.73245 -1.07436 0
M  V30 4154 H 368.539 3.8322 -1.30093 0
M  V30 4155 H 365.294 3.41887 -3.27735 0
M  V30 4156 H 365.718 3.3258 -5.89678 0
M  V30 4157 H 370.36 2.96302 -3.01604 0
M  V30 4158 H 368.078 3.0912 -7.46639 0
M  V30 4159 H 371.664 2.78179 -5.10987 0
M  V30 4160 H 370.544 2.84697 -7.30696 0
M  V30 4161 N 368.047 0.979072 1.23499 0
M  V30 4162 C 369.01 0.523244 2.23147 0
M  V30 4163 C 370.01 -0.386406 1.56088 0
M  V30 4164 O 371.2 -0.180283 1.73265 0
M  V30 4165 C 368.332 -0.240739 3.40049 0
M  V30 4166 H 369.525 1.40432 2.64989 0
M  V30 4167 H 367.078 0.764824 1.36309 0
M  V30 4168 H 367.813 -1.13841 3.03662 0
M  V30 4169 H 367.598 0.412207 3.89927 0
M  V30 4170 H 369.088 -0.548297 4.13985 0
M  V30 4171 N 369.525 -1.3858 0.750561 0
M  V30 4172 C 370.455 -2.33102 0.136237 0
M  V30 4173 C 371.436 -1.54713 -0.706965 0
M  V30 4174 O 372.621 -1.83043 -0.648769 0
M  V30 4175 C 369.751 -3.38882 -0.760017 0
M  V30 4176 C 368.705 -4.27995 -0.0197785 0
M  V30 4177 C 368.031 -5.24605 -1.03408 0
M  V30 4178 C 369.331 -5.09554 1.14684 0
M  V30 4179 H 371.025 -2.84726 0.925822 0
M  V30 4180 H 368.571 -1.36898 0.446654 0
M  V30 4181 H 370.524 -4.0397 -1.19943 0
M  V30 4182 H 369.248 -2.85734 -1.58189 0
M  V30 4183 H 367.907 -3.64409 0.400184 0
M  V30 4184 H 367.555 -4.67746 -1.84994 0
M  V30 4185 H 367.255 -5.85081 -0.543464 0
M  V30 4186 H 368.779 -5.9257 -1.47288 0
M  V30 4187 H 370.193 -5.67899 0.785118 0
M  V30 4188 H 368.59 -5.7925 1.56812 0
M  V30 4189 H 369.66 -4.4347 1.96118 0
M  V30 4190 N 371.003 -0.499398 -1.49478 0
M  V30 4191 C 372.252 0.0475259 -2.01644 0
M  V30 4192 C 372.565 1.38195 -1.38425 0
M  V30 4193 O 373.771 2.01547 -1.8191 0
M  V30 4194 C 372.227 0.135164 -3.59646 0
M  V30 4195 C 371.835 -1.19252 -4.31837 0
M  V30 4196 C 373.579 0.632538 -4.19761 0
M  V30 4197 C 371.486 -1.06713 -5.81693 0
M  V30 4198 H 370.416 0.0215349 -0.753692 0
M  V30 4199 H 373.067 -0.638577 -1.7203 0
M  V30 4200 H 371.449 0.885681 -3.85969 0
M  V30 4201 H 372.623 -1.9562 -4.17216 0
M  V30 4202 H 370.938 -1.62321 -3.83459 0
M  V30 4203 H 373.535 0.743833 -5.29501 0
M  V30 4204 H 373.878 1.63098 -3.83021 0
M  V30 4205 H 374.411 -0.0613987 -3.97753 0
M  V30 4206 H 371.15 -2.03979 -6.22955 0
M  V30 4207 H 370.67 -0.344307 -5.98811 0
M  V30 4208 H 372.349 -0.745208 -6.42694 0
M  V30 4209 N 372.481 1.55866 -0.233164 0
M  V30 4210 C 373.444 2.1953 0.658715 0
M  V30 4211 C 374.444 1.16053 1.11303 0
M  V30 4212 O 375.634 1.41218 1.01996 0
M  V30 4213 C 372.766 2.82791 1.90373 0
M  V30 4214 H 373.959 2.99721 0.10347 0
M  V30 4215 H 371.512 1.56291 0.0164245 0
M  V30 4216 H 372.247 2.06501 2.50056 0
M  V30 4217 H 372.032 3.58578 1.58632 0
M  V30 4218 H 373.522 3.31556 2.53891 0
M  V30 4219 N 373.959 -0.0401083 1.57549 0
M  V30 4220 C 375.189 -0.744115 1.92734 0
M  V30 4221 C 375.597 -1.70005 0.830348 0
M  V30 4222 O 374.94 -1.82576 -0.20286 0
M  V30 4223 C 375.002 -1.56516 3.2364 0
M  V30 4224 C 374.666 -0.7752 4.50377 0
M  V30 4225 C 375.663 -0.0803326 5.19838 0
M  V30 4226 C 373.348 -0.733002 4.96923 0
M  V30 4227 C 375.342 0.646154 6.34116 0
M  V30 4228 C 373.029 -0.00276321 6.111 0
M  V30 4229 C 374.027 0.685585 6.7955 0
M  V30 4230 O 373.715 1.40399 7.91545 0
M  V30 4231 H 373.447 -0.214861 0.640945 0
M  V30 4232 H 376.001 -0.00503675 2.05399 0
M  V30 4233 H 374.231 -2.3478 3.07271 0
M  V30 4234 H 375.92 -2.15076 3.44234 0
M  V30 4235 H 376.686 -0.104035 4.84888 0
M  V30 4236 H 372.565 -1.25827 4.43496 0
M  V30 4237 H 376.109 1.18398 6.87479 0
M  V30 4238 H 372.006 0.0229012 6.45496 0
M  V30 4239 H 372.774 1.31653 8.07843 0
M  V30 4240 N 375.437 -1.54477 -0.31217 0
M  V30 4241 C 376.4 -1.83923 -1.36766 0
M  V30 4242 C 377.4 -0.711563 -1.44199 0
M  V30 4243 O 378.59 -0.979866 -1.44029 0
M  V30 4244 C 375.722 -2.0095 -2.75376 0
M  V30 4245 H 376.915 -2.78239 -1.11906 0
M  V30 4246 H 374.468 -1.46369 -0.548257 0
M  V30 4247 H 375.203 -1.08883 -3.05475 0
M  V30 4248 H 374.988 -2.83018 -2.71373 0
M  V30 4249 H 376.478 -2.2514 -3.51713 0
M  V30 4250 N 376.915 0.57481 -1.46744 0
M  V30 4251 C 378.164 1.32898 -1.51727 0
M  V30 4252 C 378.477 1.948 -0.176692 0
M  V30 4253 O 379.683 2.71299 -0.104385 0
M  V30 4254 C 378.139 2.40901 -2.67385 0
M  V30 4255 C 377.747 1.85266 -4.07898 0
M  V30 4256 C 379.491 3.17609 -2.81646 0
M  V30 4257 C 377.398 2.90945 -5.14883 0
M  V30 4258 H 376.328 0.499631 -0.564699 0
M  V30 4259 H 378.979 0.612536 -1.72975 0
M  V30 4260 H 377.361 3.15379 -2.39483 0
M  V30 4261 H 378.535 1.17278 -4.45626 0
M  V30 4262 H 376.85 1.21199 -3.98371 0
M  V30 4263 H 379.447 3.96493 -3.58744 0
M  V30 4264 H 379.79 3.70696 -1.89448 0
M  V30 4265 H 380.323 2.50239 -3.09233 0
M  V30 4266 H 377.062 2.42736 -6.089 0
M  V30 4267 H 376.582 3.57398 -4.81691 0
M  V30 4268 H 378.261 3.54755 -5.41071 0
M  V30 4269 N 378.394 1.34581 0.820102 0
M  V30 4270 C 379.619 1.30333 1.61332 0
M  V30 4271 C 380.044 -0.119339 1.87721 0
M  V30 4272 O 379.402 -1.08197 1.45475 0
M  V30 4273 C 379.45 2.10258 2.92957 0
M  V30 4274 O 378.554 1.47404 3.85157 0
M  V30 4275 H 377.895 0.447488 0.490561 0
M  V30 4276 H 380.425 1.77425 1.01889 0
M  V30 4277 H 380.435 2.21718 3.42498 0
M  V30 4278 H 379.11 3.13693 2.73074 0
M  V30 4279 H 377.687 1.44703 3.43679 0
M  V30 4280 N 379.872 -1.04064 1.18357 0
M  V30 4281 C 381.119 -1.77265 0.978947 0
M  V30 4282 C 381.447 -1.88189 -0.491428 0
M  V30 4283 O 380.702 -1.38653 -1.38108 0
M  V30 4284 C 381.001 -3.20634 1.57888 0
M  V30 4285 C 380.667 -3.29743 3.07539 0
M  V30 4286 C 379.329 -3.31937 3.48384 0
M  V30 4287 C 381.681 -3.29841 4.03552 0
M  V30 4288 C 379.009 -3.3187 4.83818 0
M  V30 4289 C 381.361 -3.31313 5.38901 0
M  V30 4290 C 380.025 -3.31799 5.79194 0
M  V30 4291 H 379.295 -0.648659 0.358222 0
M  V30 4292 H 381.942 -1.22225 1.47422 0
M  V30 4293 H 380.247 -3.78675 1.00561 0
M  V30 4294 H 381.944 -3.75917 1.39598 0
M  V30 4295 H 378.534 -3.28757 2.74986 0
M  V30 4296 H 382.718 -3.27337 3.73047 0
M  V30 4297 H 377.974 -3.30562 5.14333 0
M  V30 4298 H 382.148 -3.30338 6.13066 0
M  V30 4299 H 379.775 -3.315 6.84114 0
M  V30 4300 N 381.35 -0.985608 -1.22978 0
M  V30 4301 C 382.599 -0.652881 -1.90841 0
M  V30 4302 C 382.912 0.817842 -1.77681 0
M  V30 4303 O 384.118 1.26185 -2.40395 0
M  V30 4304 C 382.574 -1.11717 -3.42122 0
M  V30 4305 C 382.182 -2.6126 -3.63933 0
M  V30 4306 C 383.926 -0.85843 -4.1573 0
M  V30 4307 C 381.833 -3.0133 -5.08876 0
M  V30 4308 H 380.763 -0.240491 -0.714619 0
M  V30 4309 H 383.414 -1.1942 -1.39324 0
M  V30 4310 H 381.796 -0.504027 -3.92779 0
M  V30 4311 H 382.97 -3.27858 -3.23799 0
M  V30 4312 H 381.285 -2.84937 -3.03644 0
M  V30 4313 H 383.882 -1.13359 -5.22546 0
M  V30 4314 H 384.225 0.205461 -4.15793 0
M  V30 4315 H 384.758 -1.43341 -3.71077 0
M  V30 4316 H 381.497 -4.06864 -5.13947 0
M  V30 4317 H 381.017 -2.3943 -5.49939 0
M  V30 4318 H 382.696 -2.92224 -5.77247 0
M  V30 4319 N 382.828 1.3818 -0.7579 0
M  V30 4320 C 384.075 2.00019 -0.315985 0
M  V30 4321 C 384.403 1.60163 1.10355 0
M  V30 4322 O 383.658 0.83264 1.77103 0
M  V30 4323 C 383.957 3.55252 -0.391218 0
M  V30 4324 C 383.623 4.14834 -1.76702 0
M  V30 4325 C 382.285 4.30821 -2.14353 0
M  V30 4326 C 384.637 4.47658 -2.66931 0
M  V30 4327 C 381.965 4.76928 -3.41696 0
M  V30 4328 C 384.317 4.95184 -3.93669 0
M  V30 4329 C 382.981 5.09377 -4.31383 0
M  V30 4330 H 382.251 0.731923 -0.115627 0
M  V30 4331 H 384.898 1.65161 -0.969223 0
M  V30 4332 H 383.203 3.90273 0.34558 0
M  V30 4333 H 384.9 4.00988 -0.030805 0
M  V30 4334 H 381.49 4.02808 -1.46435 0
M  V30 4335 H 385.674 4.34904 -2.39106 0
M  V30 4336 H 380.93 4.86103 -3.70829 0
M  V30 4337 H 385.104 5.19551 -4.63724 0
M  V30 4338 H 382.731 5.44865 -5.30119 0
M  V30 4339 N 384.306 0.507319 1.49211 0
M  V30 4340 C 385.236 -0.256939 2.32082 0
M  V30 4341 C 386.217 -0.956609 1.40652 0
M  V30 4342 O 387.402 -0.946788 1.69557 0
M  V30 4343 C 384.532 -1.31802 3.21318 0
M  V30 4344 C 383.486 -0.737855 4.21592 0
M  V30 4345 C 382.812 -1.89992 4.99807 0
M  V30 4346 C 384.112 0.275325 5.21574 0
M  V30 4347 H 385.806 0.434798 2.96226 0
M  V30 4348 H 383.352 0.210546 1.42452 0
M  V30 4349 H 385.305 -1.86045 3.78107 0
M  V30 4350 H 384.029 -2.03903 2.5513 0
M  V30 4351 H 382.688 -0.217126 3.65956 0
M  V30 4352 H 382.336 -2.60877 4.30061 0
M  V30 4353 H 382.036 -1.51777 5.6766 0
M  V30 4354 H 383.56 -2.44657 5.59442 0
M  V30 4355 H 384.974 -0.179193 5.7302 0
M  V30 4356 H 383.371 0.573649 5.97352 0
M  V30 4357 H 384.441 1.18903 4.70096 0
M  V30 4358 N 385.784 -1.5574 0.241426 0
M  V30 4359 C 387.031 -1.9881 -0.384836 0
M  V30 4360 C 387.359 -1.12947 -1.58346 0
M  V30 4361 O 386.614 -0.178993 -1.9488 0
M  V30 4362 C 386.913 -3.47308 -0.843317 0
M  V30 4363 C 386.579 -4.50223 0.246946 0
M  V30 4364 C 385.241 -4.78088 0.546399 0
M  V30 4365 C 387.593 -5.11841 0.983282 0
M  V30 4366 C 384.921 -5.64846 1.58636 0
M  V30 4367 C 387.273 -5.99727 2.01272 0
M  V30 4368 C 385.937 -6.25927 2.31888 0
M  V30 4369 H 385.207 -0.727496 -0.140821 0
M  V30 4370 H 387.854 -1.8831 0.348106 0
M  V30 4371 H 386.159 -3.55112 -1.65537 0
M  V30 4372 H 387.856 -3.78017 -1.33806 0
M  V30 4373 H 384.446 -4.286 0.00340639 0
M  V30 4374 H 388.63 -4.90366 0.765182 0
M  V30 4375 H 383.886 -5.83403 1.82896 0
M  V30 4376 H 388.06 -6.46517 2.58823 0
M  V30 4377 H 385.687 -6.92949 3.12611 0
M  V30 4378 N 387.262 0.0317525 -1.57568 0
M  V30 4379 C 388.192 1.03274 -2.0942 0
M  V30 4380 C 389.173 1.3788 -0.996143 0
M  V30 4381 O 390.358 1.46811 -1.27122 0
M  V30 4382 C 387.488 2.33448 -2.57137 0
M  V30 4383 C 386.442 2.13091 -3.71182 0
M  V30 4384 C 385.768 3.49001 -4.05095 0
M  V30 4385 C 387.068 1.51928 -4.99715 0
M  V30 4386 H 388.762 0.60112 -2.93303 0
M  V30 4387 H 386.308 0.287705 -1.41097 0
M  V30 4388 H 388.261 3.03802 -2.92032 0
M  V30 4389 H 386.985 2.78665 -1.70333 0
M  V30 4390 H 385.644 1.45171 -3.36632 0
M  V30 4391 H 385.292 3.91862 -3.15362 0
M  V30 4392 H 384.992 3.36207 -4.81911 0
M  V30 4393 H 386.516 4.20721 -4.42522 0
M  V30 4394 H 387.93 2.12196 -5.32584 0
M  V30 4395 H 386.327 1.49716 -5.81124 0
M  V30 4396 H 387.397 0.484811 -4.8247 0
M  V30 4397 N 388.74 1.54641 0.303973 0
M  V30 4398 C 389.688 1.86137 1.39484 0
M  V30 4399 C 390.682 0.734854 1.52631 0
M  V30 4400 O 391.888 0.918803 1.54784 0
M  V30 4401 H 388.263 0.590324 0.465856 0
M  V30 4402 H 390.234 2.77324 1.10154 0
M  V30 4403 C 388.983 2.12274 2.75382 0
M  V30 4404 H 388.306 2.98429 2.66046 0
M  V30 4405 H 389.746 2.38254 3.5073 0
M  V30 4406 C 388.205 0.920365 3.24085 0
M  V30 4407 O 388.735 0.139377 4.01458 0
M  V30 4408 N 386.941 0.726566 2.81371 0
M  V30 4409 H 386.488 1.36332 2.18567 0
M  V30 4410 H 386.446 -0.0763799 3.14307 0
M  V30 4411 N 390.218 -0.567019 1.47046 0
M  V30 4412 C 391.465 -1.32462 1.53167 0
M  V30 4413 C 391.793 -1.93571 0.189841 0
M  V30 4414 O 391.048 -1.77865 -0.816243 0
M  V30 4415 C 391.347 -2.4623 2.59047 0
M  V30 4416 C 391.013 -2.03014 4.02612 0
M  V30 4417 C 389.675 -1.90944 4.41694 0
M  V30 4418 C 392.027 -1.69895 4.92732 0
M  V30 4419 C 389.355 -1.44035 5.68745 0
M  V30 4420 C 391.707 -1.2446 6.20236 0
M  V30 4421 C 390.371 -1.10979 6.5821 0
M  V30 4422 H 389.641 -0.484713 0.560477 0
M  V30 4423 H 392.288 -0.636888 1.80599 0
M  V30 4424 H 390.593 -3.20517 2.25335 0
M  V30 4425 H 392.29 -3.04427 2.61008 0
M  V30 4426 H 388.88 -2.13348 3.71726 0
M  V30 4427 H 393.064 -1.78098 4.63244 0
M  V30 4428 H 388.32 -1.32254 5.96925 0
M  V30 4429 H 392.494 -0.978924 6.89485 0
M  V30 4430 H 390.121 -0.744078 7.5655 0
M  V30 4431 N 391.696 -1.35014 -0.812953 0
M  V30 4432 C 392.926 -1.30841 -1.59888 0
M  V30 4433 C 393.334 0.117576 -1.88834 0
M  V30 4434 O 392.677 1.07807 -1.48739 0
M  V30 4435 C 392.739 -2.0412 -2.95931 0
M  V30 4436 C 392.403 -3.53336 -2.89832 0
M  V30 4437 C 393.4 -4.48052 -2.63714 0
M  V30 4438 C 391.085 -3.95894 -3.0915 0
M  V30 4439 C 393.079 -5.833 -2.56982 0
M  V30 4440 C 390.766 -5.31239 -3.0204 0
M  V30 4441 C 391.764 -6.24754 -2.75991 0
M  V30 4442 O 391.452 -7.57617 -2.68833 0
M  V30 4443 H 391.184 -0.451215 -0.50337 0
M  V30 4444 H 393.738 -1.78354 -1.01877 0
M  V30 4445 H 391.968 -1.51235 -3.559 0
M  V30 4446 H 393.657 -1.93107 -3.57022 0
M  V30 4447 H 394.423 -4.16492 -2.48515 0
M  V30 4448 H 390.302 -3.23495 -3.28438 0
M  V30 4449 H 393.846 -6.56263 -2.36569 0
M  V30 4450 H 389.743 -5.62415 -3.16796 0
M  V30 4451 H 390.511 -7.67469 -2.84487 0
M  V30 4452 N 393.175 1.03435 -1.18907 0
M  V30 4453 C 394.424 1.76143 -0.982669 0
M  V30 4454 C 394.737 1.89416 0.487953 0
M  V30 4455 O 395.943 2.59041 0.813036 0
M  V30 4456 C 394.399 3.16722 -1.70924 0
M  V30 4457 C 394.007 3.11522 -3.21959 0
M  V30 4458 C 395.751 3.93764 -1.58588 0
M  V30 4459 C 393.658 4.46999 -3.87228 0
M  V30 4460 H 392.588 0.660292 -0.364047 0
M  V30 4461 H 395.239 1.158 -1.42347 0
M  V30 4462 H 393.621 3.775 -1.19623 0
M  V30 4463 H 394.795 2.60158 -3.80335 0
M  V30 4464 H 393.11 2.47978 -3.34508 0
M  V30 4465 H 395.707 4.93963 -2.04707 0
M  V30 4466 H 396.05 4.12794 -0.539142 0
M  V30 4467 H 396.583 3.39576 -2.07203 0
M  V30 4468 H 393.322 4.33174 -4.91976 0
M  V30 4469 H 392.842 4.98441 -3.33642 0
M  V30 4470 H 394.521 5.15898 -3.90459 0
M  V30 4471 N 394.653 0.992116 1.22453 0
M  V30 4472 C 396.069 0.702713 1.43297 0
M  V30 4473 C 396.269 -0.726909 1.87932 0
M  V30 4474 O 395.325 -1.49792 2.0327 0
M  V30 4475 C 396.638 1.70762 2.47509 0
M  V30 4476 C 398.186 1.72298 2.61309 0
M  V30 4477 C 398.661 2.71649 3.68742 0
M  V30 4478 N 400.152 2.70239 3.76199 0
M  V30 4479 C 400.887 3.43778 4.58917 0
M  V30 4480 N 400.383 4.26914 5.45633 0
M  V30 4481 N 402.176 3.32487 4.5322 0
M  V30 4482 H 394.327 1.91543 0.917871 0
M  V30 4483 H 396.59 0.826031 0.465162 0
M  V30 4484 H 396.296 2.73059 2.21657 0
M  V30 4485 H 396.17 1.49985 3.46099 0
M  V30 4486 H 398.557 0.706989 2.86506 0
M  V30 4487 H 398.638 1.97143 1.62997 0
M  V30 4488 H 398.282 3.73397 3.44292 0
M  V30 4489 H 398.212 2.44074 4.66622 0
M  V30 4490 H 400.703 2.09912 3.14237 0
M  V30 4491 H 401.016 4.79855 6.05771 0
M  V30 4492 H 399.361 4.31002 5.45218 0
M  V30 4493 H 402.552 2.6698 3.84499 0
M  V30 4494 H 402.725 3.90058 5.17454 0
M  V30 4495 N 396.131 -1.37776 0.765217 0
M  V30 4496 C 397.359 -2.04124 0.337767 0
M  V30 4497 C 397.774 -1.57715 -1.03785 0
M  V30 4498 O 397.131 -0.755447 -1.6613 0
M  V30 4499 C 397.182 -3.59658 0.364442 0
M  V30 4500 O 396.903 -4.04367 1.68579 0
M  V30 4501 C 398.404 -4.43236 -0.0754221 0
M  V30 4502 H 395.624 -0.655696 0.142491 0
M  V30 4503 H 398.168 -1.76238 1.03732 0
M  V30 4504 H 396.323 -3.86339 -0.286471 0
M  V30 4505 H 396.737 -4.98857 1.61993 0
M  V30 4506 H 398.211 -5.52 -0.00560067 0
M  V30 4507 H 398.688 -4.2455 -1.12491 0
M  V30 4508 H 399.294 -4.21767 0.547055 0
M  V30 4509 N 397.609 -0.515225 -1.4894 0
M  V30 4510 C 398.839 0.0205735 -2.0659 0
M  V30 4511 C 399.247 1.30064 -1.37405 0
M  V30 4512 O 398.59 1.78087 -0.450632 0
M  V30 4513 C 398.652 0.330124 -3.57981 0
M  V30 4514 C 398.316 -0.854295 -4.48944 0
M  V30 4515 C 399.313 -1.7487 -4.89609 0
M  V30 4516 C 396.998 -1.05712 -4.9105 0
M  V30 4517 C 398.992 -2.82996 -5.71132 0
M  V30 4518 C 396.679 -2.14154 -5.72347 0
M  V30 4519 C 397.677 -3.0263 -6.12294 0
M  V30 4520 O 397.365 -4.09198 -6.91962 0
M  V30 4521 H 397.097 -0.0236833 -0.675585 0
M  V30 4522 H 399.651 -0.715956 -1.92518 0
M  V30 4523 H 397.881 1.12044 -3.70112 0
M  V30 4524 H 399.57 0.806233 -3.97812 0
M  V30 4525 H 400.336 -1.60388 -4.57712 0
M  V30 4526 H 396.215 -0.377788 -4.59449 0
M  V30 4527 H 399.759 -3.52083 -6.02232 0
M  V30 4528 H 395.656 -2.28626 -6.03656 0
M  V30 4529 H 396.424 -4.06726 -7.10293 0
M  V30 4530 N 399.087 1.5561 -0.249682 0
M  V30 4531 C 400.034 2.21496 0.648694 0
M  V30 4532 C 401.004 1.17977 1.16921 0
M  V30 4533 O 402.189 1.46434 1.22318 0
M  V30 4534 C 399.329 2.92039 1.83868 0
M  V30 4535 C 398.442 4.10219 1.35442 0
M  V30 4536 C 397.577 4.6847 2.50419 0
M  V30 4537 C 396.616 5.78893 1.98869 0
M  V30 4538 N 395.753 6.31315 3.07223 0
M  V30 4539 H 400.593 2.97892 0.0801582 0
M  V30 4540 H 398.13 1.47074 0.0278031 0
M  V30 4541 H 400.088 3.31138 2.53778 0
M  V30 4542 H 398.718 2.18111 2.37965 0
M  V30 4543 H 397.77 3.76413 0.54928 0
M  V30 4544 H 399.082 4.89927 0.936649 0
M  V30 4545 H 398.236 5.10158 3.28366 0
M  V30 4546 H 396.975 3.87984 2.95499 0
M  V30 4547 H 395.98 5.3668 1.19393 0
M  V30 4548 H 397.205 6.61232 1.54755 0
M  V30 4549 H 395.151 5.53733 3.51732 0
M  V30 4550 H 395.068 7.06224 2.69784 0
M  V30 4551 H 396.336 6.77662 3.8522 0
M  V30 4552 N 400.565 -0.0233959 1.57583 0
M  V30 4553 C 401.475 -1.03907 2.10334 0
M  V30 4554 C 402.491 -1.39257 1.04323 0
M  V30 4555 O 403.667 -1.48462 1.36091 0
M  V30 4556 C 400.732 -2.31938 2.57693 0
M  V30 4557 C 399.793 -2.03117 3.78209 0
M  V30 4558 C 399.026 -3.25043 4.233 0
M  V30 4559 O 399.249 -4.35916 3.67876 0
M  V30 4560 O 398.183 -3.10411 5.15683 0
M  V30 4561 H 402.009 -0.620748 2.97288 0
M  V30 4562 H 399.594 -0.240743 1.47448 0
M  V30 4563 H 401.476 -3.07196 2.88458 0
M  V30 4564 H 400.151 -2.73055 1.73847 0
M  V30 4565 H 399.058 -1.25408 3.52454 0
M  V30 4566 H 400.391 -1.66852 4.63056 0
M  V30 4567 N 402.043 -1.548 -0.295768 0
M  V30 4568 C 403.454 -1.65274 -0.868411 0
M  V30 4569 C 403.805 -0.56481 -1.87894 0
M  V30 4570 O 402.93 0.29767 -2.14343 0
M  V30 4571 C 403.525 -2.99603 -1.58188 0
M  V30 4572 C 402.084 -3.12181 -2.10286 0
M  V30 4573 C 401.231 -2.6098 -0.93727 0
M  V30 4574 H 404.182 -1.58534 -0.0726422 0
M  V30 4575 H 404.203 -2.91319 -2.44772 0
M  V30 4576 H 403.715 -3.78764 -0.846151 0
M  V30 4577 H 401.816 -2.3775 -2.8689 0
M  V30 4578 H 401.929 -4.18415 -2.33379 0
M  V30 4579 H 400.293 -2.17564 -1.32431 0
M  V30 4580 H 401.076 -3.42623 -0.215414 0
M  V30 4581 N 403.521 0.559213 -1.47345 0
M  V30 4582 C 404.468 1.66645 -1.59682 0
M  V30 4583 C 405.438 1.60168 -0.43994 0
M  V30 4584 O 406.623 1.79031 -0.659736 0
M  V30 4585 C 403.763 3.04969 -1.61518 0
M  V30 4586 C 402.876 3.21897 -2.88108 0
M  V30 4587 C 402.011 4.50608 -2.81294 0
M  V30 4588 C 401.05 4.60961 -4.02717 0
M  V30 4589 N 400.187 5.81024 -3.94151 0
M  V30 4590 H 405.027 1.55439 -2.54249 0
M  V30 4591 H 402.564 0.757219 -1.26113 0
M  V30 4592 H 404.522 3.85064 -1.60566 0
M  V30 4593 H 403.152 3.15015 -0.704645 0
M  V30 4594 H 402.204 2.35248 -2.98936 0
M  V30 4595 H 403.516 3.25412 -3.78032 0
M  V30 4596 H 402.67 5.3896 -2.7858 0
M  V30 4597 H 401.409 4.49568 -1.89049 0
M  V30 4598 H 400.414 3.71021 -4.05738 0
M  V30 4599 H 401.639 4.63761 -4.96087 0
M  V30 4600 H 399.585 5.80938 -3.04708 0
M  V30 4601 H 399.502 5.85909 -4.77752 0
M  V30 4602 H 400.77 6.71744 -3.9545 0
M  V30 4603 N 404.999 1.35443 0.805782 0
M  V30 4604 C 405.946 1.28431 1.91766 0
M  V30 4605 C 406.916 0.156102 1.65365 0
M  V30 4606 O 408.101 0.339936 1.87747 0
M  V30 4607 C 405.241 1.06301 3.2832 0
M  V30 4608 C 404.354 2.2805 3.66902 0
M  V30 4609 C 403.489 1.99064 4.92491 0
M  V30 4610 C 402.528 3.16863 5.23703 0
M  V30 4611 N 401.665 2.87647 6.40471 0
M  V30 4612 H 406.505 2.23511 1.97096 0
M  V30 4613 H 404.042 1.11105 0.964054 0
M  V30 4614 H 406 0.915012 4.07042 0
M  V30 4615 H 404.63 0.148822 3.22457 0
M  V30 4616 H 403.682 2.53711 2.83434 0
M  V30 4617 H 404.994 3.1601 3.85927 0
M  V30 4618 H 404.148 1.81099 5.7904 0
M  V30 4619 H 402.887 1.0839 4.75503 0
M  V30 4620 H 401.892 3.35404 4.35642 0
M  V30 4621 H 403.117 4.08339 5.4262 0
M  V30 4622 H 401.063 1.99568 6.24907 0
M  V30 4623 H 400.98 3.69141 6.59751 0
M  V30 4624 H 402.248 2.73226 7.30047 0
M  V30 4625 N 406.477 -1.02803 1.19454 0
M  V30 4626 C 407.888 -1.57667 0.999899 0
M  V30 4627 C 408.239 -1.91041 -0.446956 0
M  V30 4628 O 407.364 -1.70978 -1.32648 0
M  V30 4629 C 407.959 -2.86477 1.80877 0
M  V30 4630 C 406.518 -3.37911 1.65811 0
M  V30 4631 C 405.665 -2.11343 1.79526 0
M  V30 4632 H 408.616 -0.853214 1.33813 0
M  V30 4633 H 408.637 -3.57408 1.30536 0
M  V30 4634 H 408.149 -2.62155 2.86175 0
M  V30 4635 H 406.25 -3.67218 0.63102 0
M  V30 4636 H 406.363 -4.10885 2.46395 0
M  V30 4637 H 404.727 -2.23254 1.22596 0
M  V30 4638 H 405.51 -1.89461 2.86285 0
M  V30 4639 N 407.956 -0.998596 -1.21925 0
M  V30 4640 C 408.903 -0.553621 -2.24062 0
M  V30 4641 C 409.873 0.416999 -1.6078 0
M  V30 4642 O 411.058 0.320482 -1.88089 0
M  V30 4643 C 408.198 0.119959 -3.44891 0
M  V30 4644 C 407.311 -0.893077 -4.22668 0
M  V30 4645 C 406.446 -0.192424 -5.30851 0
M  V30 4646 C 405.485 -1.19344 -6.00353 0
M  V30 4647 N 404.622 -0.520707 -7.00166 0
M  V30 4648 H 409.462 -1.4293 -2.61486 0
M  V30 4649 H 406.999 -0.715838 -1.28507 0
M  V30 4650 H 408.957 0.527459 -4.13852 0
M  V30 4651 H 407.587 0.959389 -3.08214 0
M  V30 4652 H 406.639 -1.41886 -3.52948 0
M  V30 4653 H 407.951 -1.65512 -4.70539 0
M  V30 4654 H 407.105 0.271515 -6.06092 0
M  V30 4655 H 405.844 0.602075 -4.83969 0
M  V30 4656 H 404.849 -1.66795 -5.23889 0
M  V30 4657 H 406.074 -1.98891 -6.49322 0
M  V30 4658 H 404.02 0.254252 -6.55507 0
M  V30 4659 H 403.937 -1.2211 -7.46073 0
M  V30 4660 H 405.205 -0.0797596 -7.79459 0
M  V30 4661 N 409.434 1.37368 -0.772513 0
M  V30 4662 C 410.397 2.28601 -0.165541 0
M  V30 4663 C 411.397 1.48062 0.627238 0
M  V30 4664 O 412.587 1.68268 0.450715 0
M  V30 4665 C 409.719 3.32023 0.772897 0
M  V30 4666 H 410.912 2.83787 -0.969787 0
M  V30 4667 H 408.465 1.46647 -0.540775 0
M  V30 4668 H 409.2 2.81962 1.60212 0
M  V30 4669 H 408.985 3.91555 0.206585 0
M  V30 4670 H 410.475 4.00197 1.19298 0
M  V30 4671 N 410.912 0.523116 1.48665 0
M  V30 4672 C 412.16 -0.0134497 2.02096 0
M  V30 4673 C 412.481 -1.35418 1.40311 0
M  V30 4674 O 411.751 -1.87543 0.566074 0
M  V30 4675 H 410.331 -0.00795915 0.746958 0
M  V30 4676 H 412.993 0.685388 1.82451 0
M  V30 4677 H 412.089 -0.126849 3.11842 0
M  V30 4678 N 412.39 -1.55475 0.257931 0
M  V30 4679 C 413.337 -2.21837 -0.636939 0
M  V30 4680 C 414.307 -1.18596 -1.16294 0
M  V30 4681 O 415.492 -1.47081 -1.21539 0
M  V30 4682 C 412.632 -2.9301 -1.82317 0
M  V30 4683 C 411.745 -4.10931 -1.33265 0
M  V30 4684 C 410.88 -4.69791 -2.47931 0
M  V30 4685 C 409.919 -5.7994 -1.95796 0
M  V30 4686 N 409.056 -6.32935 -3.0387 0
M  V30 4687 H 413.896 -2.9793 -0.0643591 0
M  V30 4688 H 411.433 -1.47086 -0.0200031 0
M  V30 4689 H 413.391 -3.3248 -2.52018 0
M  V30 4690 H 412.021 -2.1937 -2.36805 0
M  V30 4691 H 411.073 -3.76699 -0.52931 0
M  V30 4692 H 412.385 -4.90417 -0.910654 0
M  V30 4693 H 411.539 -5.11892 -3.25656 0
M  V30 4694 H 410.278 -3.89545 -2.93438 0
M  V30 4695 H 409.283 -5.37305 -1.16546 0
M  V30 4696 H 410.508 -6.62043 -1.51246 0
M  V30 4697 H 408.454 -5.55591 -3.48791 0
M  V30 4698 H 408.371 -7.07645 -2.66035 0
M  V30 4699 H 409.639 -6.79695 -3.81621 0
M  V30 4700 N 413.868 0.0150385 -1.57593 0
M  V30 4701 C 415.096 0.714395 -1.94175 0
M  V30 4702 C 415.511 1.68135 -0.858841 0
M  V30 4703 O 414.868 1.81766 0.163567 0
M  V30 4704 C 414.919 1.45933 -3.30735 0
M  V30 4705 O 414.64 0.531167 -4.34868 0
M  V30 4706 C 416.141 2.25456 -3.81686 0
M  V30 4707 H 413.361 0.199923 -0.640525 0
M  V30 4708 H 415.905 -0.0316096 -2.04476 0
M  V30 4709 H 414.06 2.15709 -3.21789 0
M  V30 4710 H 414.474 1.05509 -5.13778 0
M  V30 4711 H 415.948 2.731 -4.79709 0
M  V30 4712 H 416.425 3.07485 -3.13607 0
M  V30 4713 H 417.031 1.60727 -3.9376 0
M  V30 4714 N 415.346 1.54954 0.287554 0
M  V30 4715 C 416.309 1.86076 1.33823 0
M  V30 4716 C 417.309 0.734414 1.43049 0
M  V30 4717 O 418.499 1.00266 1.42452 0
M  V30 4718 C 415.631 2.05305 2.72144 0
M  V30 4719 H 416.824 2.79984 1.07465 0
M  V30 4720 H 414.377 1.47223 0.524902 0
M  V30 4721 H 415.112 1.1373 3.03704 0
M  V30 4722 H 414.897 2.873 2.66836 0
M  V30 4723 H 416.387 2.30706 3.48087 0
M  V30 4724 N 416.824 -0.551391 1.4764 0
M  V30 4725 C 417.757 -1.6738 1.5511 0
M  V30 4726 C 418.735 -1.5753 0.402856 0
M  V30 4727 O 419.919 -1.78307 0.611475 0
M  V30 4728 C 417.046 -3.05661 1.45908 0
M  V30 4729 C 416.092 -3.33938 2.65307 0
M  V30 4730 S 416.925 -3.22553 4.27457 0
M  V30 4731 C 418.081 -4.63317 4.20818 0
M  V30 4732 H 418.314 -1.6079 2.50068 0
M  V30 4733 H 415.847 -0.732674 1.35909 0
M  V30 4734 H 417.805 -3.8542 1.41286 0
M  V30 4735 H 416.466 -3.09711 0.523248 0
M  V30 4736 H 415.659 -4.34761 2.54948 0
M  V30 4737 H 415.261 -2.61809 2.67081 0
M  V30 4738 H 417.553 -5.54391 3.89431 0
M  V30 4739 H 418.496 -4.78732 5.21748 0
M  V30 4740 H 418.904 -4.41636 3.51593 0
M  V30 4741 N 418.302 -1.35869 -0.798587 0
M  V30 4742 C 419.25 -1.29491 -1.93222 0
M  V30 4743 C 420.244 -0.18836 -1.6835 0
M  V30 4744 O 421.45 -0.354822 -1.76468 0
M  V30 4745 H 417.825 -0.402901 -0.63496 0
M  V30 4746 H 419.796 -2.25247 -1.9572 0
M  V30 4747 C 418.545 -1.09184 -3.30112 0
M  V30 4748 H 417.868 -1.93574 -3.49813 0
M  V30 4749 H 419.308 -1.08766 -4.09812 0
M  V30 4750 C 417.767 0.203959 -3.36282 0
M  V30 4751 O 418.297 1.19699 -3.83451 0
M  V30 4752 N 416.503 0.245488 -2.89561 0
M  V30 4753 H 416.05 -0.563223 -2.51367 0
M  V30 4754 H 416.008 1.11219 -2.94071 0
M  V30 4755 N 419.78 1.02168 -1.19998 0
M  V30 4756 C 421.028 1.75338 -1.00504 0
M  V30 4757 C 421.349 1.89387 0.464506 0
M  V30 4758 O 420.619 1.43268 1.33608 0
M  V30 4759 H 419.199 0.649564 -0.368885 0
M  V30 4760 H 421.861 1.23205 -1.51018 0
M  V30 4761 H 420.957 2.75892 -1.45912 0
M  V30 4762 N 421.258 1.00505 1.21394 0
M  V30 4763 C 422.507 0.683159 1.89778 0
M  V30 4764 C 422.82 -0.789471 1.7896 0
M  V30 4765 O 424.026 -1.22344 2.42372 0
M  V30 4766 C 422.482 1.17146 3.40301 0
M  V30 4767 C 422.09 2.67017 3.5973 0
M  V30 4768 C 423.834 0.924461 4.14311 0
M  V30 4769 C 421.741 3.09387 5.04017 0
M  V30 4770 H 420.671 0.25183 0.710702 0
M  V30 4771 H 423.322 1.21622 1.37406 0
M  V30 4772 H 421.704 0.566451 3.91928 0
M  V30 4773 H 422.878 3.32968 3.18542 0
M  V30 4774 H 421.193 2.89732 2.99073 0
M  V30 4775 H 423.79 1.21658 5.20676 0
M  V30 4776 H 424.133 -0.139286 4.16067 0
M  V30 4777 H 424.666 1.49226 3.6875 0
M  V30 4778 H 421.405 4.14989 5.07409 0
M  V30 4779 H 420.925 2.48149 5.46061 0
M  V30 4780 H 422.604 3.01371 5.72525 0
M  V30 4781 N 422.737 -1.36956 0.779787 0
M  V30 4782 C 423.962 -2.04283 0.358224 0
M  V30 4783 C 424.387 -1.58422 -1.01411 0
M  V30 4784 O 423.745 -0.748179 -1.65142 0
M  V30 4785 C 423.793 -3.58152 0.419479 0
M  V30 4786 O 422.897 -4.08342 -0.577142 0
M  V30 4787 H 422.238 -0.645967 0.153698 0
M  V30 4788 H 424.768 -1.75108 1.05822 0
M  V30 4789 H 424.778 -4.07041 0.279636 0
M  V30 4790 H 423.453 -3.90886 1.42061 0
M  V30 4791 H 422.03 -3.70751 -0.399755 0
M  V30 4792 N 424.215 -0.530993 -1.48385 0
M  V30 4793 C 425.178 0.220497 -2.28137 0
M  V30 4794 C 426.178 0.866851 -1.35434 0
M  V30 4795 O 427.368 0.726746 -1.58316 0
M  V30 4796 C 424.5 1.31921 -3.1434 0
M  V30 4797 H 425.693 -0.479714 -2.96038 0
M  V30 4798 H 423.246 -0.286968 -1.53643 0
M  V30 4799 H 423.981 2.05264 -2.51072 0
M  V30 4800 H 423.766 0.86085 -3.82533 0
M  V30 4801 H 425.256 1.84776 -3.74497 0
M  V30 4802 N 425.693 1.55336 -0.266172 0
M  V30 4803 C 426.641 2.23587 0.641228 0
M  V30 4804 C 427.635 1.22986 1.16494 0
M  V30 4805 O 428.841 1.40943 1.1196 0
M  V30 4806 H 425.216 0.717452 0.225315 0
M  V30 4807 H 427.187 2.9837 0.0426561 0
M  V30 4808 C 425.936 2.96369 1.81826 0
M  V30 4809 H 425.259 3.73563 1.42445 0
M  V30 4810 H 426.699 3.47459 2.42998 0
M  V30 4811 C 425.158 2.0133 2.70125 0
M  V30 4812 O 425.688 1.55875 3.70224 0
M  V30 4813 N 423.894 1.6802 2.37102 0
M  V30 4814 H 423.441 2.05181 1.55751 0
M  V30 4815 H 423.399 1.047 2.96454 0
M  V30 4816 N 427.171 -0.0066808 1.57599 0
M  V30 4817 C 428.419 -0.691552 1.899 0
M  V30 4818 C 428.74 -1.74682 0.866672 0
M  V30 4819 O 428.01 -1.95661 -0.0968189 0
M  V30 4820 H 426.59 -0.258416 0.700878 0
M  V30 4821 H 429.252 0.0326655 1.94873 0
M  V30 4822 H 428.348 -1.16702 2.8946 0
M  V30 4823 N 428.649 -1.55105 -0.279332 0
M  V30 4824 C 429.895 -1.75672 -1.01327 0
M  V30 4825 C 430.228 -0.552739 -1.86168 0
M  V30 4826 O 429.503 0.449827 -1.89227 0
M  V30 4827 C 429.786 -3.05825 -1.90114 0
M  V30 4828 C 429.639 -4.36565 -1.08309 0
M  V30 4829 C 430.958 -3.31975 -2.8893 0
M  V30 4830 H 428.077 -0.639149 -0.366957 0
M  V30 4831 H 430.719 -1.87833 -0.286154 0
M  V30 4832 H 428.869 -2.95588 -2.52111 0
M  V30 4833 H 430.541 -4.58751 -0.484314 0
M  V30 4834 H 428.784 -4.32076 -0.386362 0
M  V30 4835 H 429.455 -5.23946 -1.73737 0
M  V30 4836 H 431.931 -3.41963 -2.37067 0
M  V30 4837 H 430.807 -4.2432 -3.48201 0
M  V30 4838 H 431.068 -2.51309 -3.63725 0
M  V30 4839 N 430.127 0.543554 -1.4793 0
M  V30 4840 C 431.352 1.32995 -1.59145 0
M  V30 4841 C 431.777 1.86472 -0.246956 0
M  V30 4842 O 431.135 1.63696 0.779324 0
M  V30 4843 C 431.183 2.46623 -2.63077 0
M  V30 4844 O 430.287 3.49261 -2.19295 0
M  V30 4845 H 429.628 0.394472 -0.534124 0
M  V30 4846 H 432.158 0.655489 -1.93816 0
M  V30 4847 H 432.168 2.93001 -2.83926 0
M  V30 4848 H 430.843 2.07059 -3.60693 0
M  V30 4849 H 429.42 3.09094 -2.08603 0
M  V30 4850 N 431.605 1.3629 0.791371 0
M  V30 4851 C 432.552 1.30458 1.90393 0
M  V30 4852 C 433.522 0.173632 1.6519 0
M  V30 4853 O 434.707 0.35983 1.87376 0
M  V30 4854 C 431.847 1.09777 3.27174 0
M  V30 4855 C 430.96 2.31929 3.64462 0
M  V30 4856 C 430.095 2.04276 4.90352 0
M  V30 4857 C 429.134 3.224 5.20312 0
M  V30 4858 N 428.271 2.94424 6.37385 0
M  V30 4859 H 433.111 2.25589 1.94714 0
M  V30 4860 H 430.648 1.12122 0.952216 0
M  V30 4861 H 432.606 0.958133 4.06049 0
M  V30 4862 H 431.236 0.183014 3.22281 0
M  V30 4863 H 430.288 2.56703 2.80727 0
M  V30 4864 H 431.6 3.20085 3.82553 0
M  V30 4865 H 430.754 1.87231 5.77087 0
M  V30 4866 H 429.493 1.13428 4.74326 0
M  V30 4867 H 428.498 3.40005 4.32061 0
M  V30 4868 H 429.723 4.14071 5.38258 0
M  V30 4869 H 427.669 2.06185 6.22755 0
M  V30 4870 H 427.586 3.76118 6.55798 0
M  V30 4871 H 428.854 2.80953 7.27108 0
M  V30 4872 N 433.083 -1.0153 1.20538 0
M  V30 4873 C 434.308 -1.79283 1.04271 0
M  V30 4874 C 434.733 -1.8372 -0.403544 0
M  V30 4875 O 434.091 -1.27321 -1.2907 0
M  V30 4876 C 434.139 -3.21535 1.63241 0
M  V30 4877 O 433.243 -4.03099 0.870908 0
M  V30 4878 H 432.584 -0.55293 0.367647 0
M  V30 4879 H 435.114 -1.27696 1.59859 0
M  V30 4880 H 435.124 -3.72243 1.6703 0
M  V30 4881 H 433.799 -3.1762 2.68497 0
M  V30 4882 H 432.376 -3.61693 0.907323 0
M  V30 4883 N 434.561 -1.01147 -1.20859 0
M  V30 4884 C 435.471 -0.58686 -2.27141 0
M  V30 4885 C 436.487 0.373198 -1.69951 0
M  V30 4886 O 437.663 0.235423 -2.00019 0
M  V30 4887 C 434.728 0.0733602 -3.46622 0
M  V30 4888 C 433.789 -0.931995 -4.19061 0
M  V30 4889 C 433.022 -0.303186 -5.32838 0
M  V30 4890 O 433.245 0.898395 -5.63281 0
M  V30 4891 O 432.179 -1.01735 -5.9324 0
M  V30 4892 H 436.005 -1.47155 -2.65667 0
M  V30 4893 H 433.59 -0.780689 -1.2738 0
M  V30 4894 H 435.472 0.442333 -4.19072 0
M  V30 4895 H 434.147 0.932329 -3.09983 0
M  V30 4896 H 433.054 -1.35224 -3.48805 0
M  V30 4897 H 434.387 -1.76076 -4.59628 0
M  V30 4898 N 436.039 1.36541 -0.78704 0
M  V30 4899 C 436.986 2.30082 -0.181901 0
M  V30 4900 C 437.956 1.5186 0.672896 0
M  V30 4901 O 439.141 1.80374 0.622072 0
M  V30 4902 C 436.281 3.3835 0.679197 0
M  V30 4903 C 435.394 4.31565 -0.193882 0
M  V30 4904 C 434.529 5.26915 0.673364 0
M  V30 4905 C 433.568 6.11769 -0.201315 0
M  V30 4906 N 432.705 6.99315 0.624777 0
M  V30 4907 H 437.545 2.81248 -0.985064 0
M  V30 4908 H 435.082 1.38437 -0.497342 0
M  V30 4909 H 437.04 3.99767 1.19341 0
M  V30 4910 H 435.67 2.8851 1.44781 0
M  V30 4911 H 434.722 3.71323 -0.826044 0
M  V30 4912 H 436.034 4.91191 -0.867937 0
M  V30 4913 H 435.188 5.9361 1.25348 0
M  V30 4914 H 433.927 4.67737 1.38105 0
M  V30 4915 H 432.932 5.44039 -0.793849 0
M  V30 4916 H 434.157 6.73022 -0.906568 0
M  V30 4917 H 432.103 6.42648 1.3168 0
M  V30 4918 H 432.02 7.56 0.00835237 0
M  V30 4919 H 433.288 7.70382 1.18879 0
M  V30 4920 N 437.518 0.538854 1.48102 0
M  V30 4921 C 438.45 -0.256278 2.27763 0
M  V30 4922 C 439.463 -0.89633 1.35904 0
M  V30 4923 O 440.652 -0.773275 1.60881 0
M  V30 4924 C 437.752 -1.37896 3.09577 0
M  V30 4925 C 436.925 -0.839159 4.29275 0
M  V30 4926 C 435.984 -1.84405 4.9283 0
M  V30 4927 O 435.01 -1.39746 5.51779 0
M  V30 4928 N 436.212 -3.17666 4.85869 0
M  V30 4929 H 438.977 0.426968 2.96643 0
M  V30 4930 H 436.538 0.373747 1.57527 0
M  V30 4931 H 438.53 -2.04955 3.48963 0
M  V30 4932 H 437.1 -1.96572 2.4306 0
M  V30 4933 H 436.32 0.00769287 3.94199 0
M  V30 4934 H 437.608 -0.457548 5.06739 0
M  V30 4935 H 437.006 -3.56609 4.39143 0
M  V30 4936 H 435.563 -3.80334 5.29329 0
M  V30 4937 N 438.996 -1.55193 0.274407 0
M  V30 4938 C 439.926 -2.25471 -0.607032 0
M  V30 4939 C 440.907 -1.24461 -1.15946 0
M  V30 4940 O 442.092 -1.53179 -1.19373 0
M  V30 4941 C 439.222 -2.97526 -1.79153 0
M  V30 4942 C 438.176 -4.05459 -1.37067 0
M  V30 4943 C 437.502 -4.65084 -2.6382 0
M  V30 4944 C 438.802 -5.19691 -0.521389 0
M  V30 4945 H 440.496 -2.99393 -0.0209343 0
M  V30 4946 H 438.042 -1.43997 -0.00862866 0
M  V30 4947 H 439.995 -3.45402 -2.41404 0
M  V30 4948 H 438.719 -2.21138 -2.40344 0
M  V30 4949 H 437.378 -3.58393 -0.771355 0
M  V30 4950 H 437.026 -3.85365 -3.23268 0
M  V30 4951 H 436.726 -5.37961 -2.36372 0
M  V30 4952 H 438.25 -5.15708 -3.26921 0
M  V30 4953 H 439.664 -5.63623 -1.04889 0
M  V30 4954 H 438.061 -5.99126 -0.341825 0
M  V30 4955 H 439.131 -4.82713 0.46 0
M  V30 4956 N 440.474 -0.00167713 -1.576 0
M  V30 4957 C 441.407 1.02317 -2.03977 0
M  V30 4958 C 442.385 1.33381 -0.929963 0
M  V30 4959 O 443.569 1.45517 -1.19822 0
M  V30 4960 C 440.696 2.35035 -2.43878 0
M  V30 4961 C 439.742 2.19621 -3.65607 0
M  V30 4962 S 440.575 1.52068 -5.13455 0
M  V30 4963 C 441.731 2.86212 -5.56627 0
M  V30 4964 H 441.964 0.628285 -2.90585 0
M  V30 4965 H 439.497 0.209239 -1.52976 0
M  V30 4966 H 441.455 3.11345 -2.67534 0
M  V30 4967 H 440.116 2.71663 -1.57665 0
M  V30 4968 H 439.309 3.1767 -3.91282 0
M  V30 4969 H 438.911 1.51455 -3.41961 0
M  V30 4970 H 441.203 3.82509 -5.59189 0
M  V30 4971 H 442.146 2.65235 -6.56549 0
M  V30 4972 H 442.554 2.90199 -4.84195 0
M  V30 4973 N 441.952 1.55251 0.271103 0
M  V30 4974 C 443.201 1.75151 1.00025 0
M  V30 4975 C 443.514 0.561041 1.87381 0
M  V30 4976 O 444.72 0.642506 2.63788 0
M  V30 4977 C 443.176 3.09999 1.82835 0
M  V30 4978 C 442.784 4.3662 1.00336 0
M  V30 4979 C 444.528 3.39249 2.55168 0
M  V30 4980 C 442.435 5.62506 1.82595 0
M  V30 4981 H 441.365 0.652877 0.377183 0
M  V30 4982 H 444.016 1.81708 0.255843 0
M  V30 4983 H 442.398 2.97485 2.61378 0
M  V30 4984 H 443.572 4.60055 0.261959 0
M  V30 4985 H 441.887 4.14527 0.394486 0
M  V30 4986 H 444.484 4.3051 3.1712 0
M  V30 4987 H 444.827 2.59467 3.2555 0
M  V30 4988 H 445.36 3.52869 1.83653 0
M  V30 4989 H 442.099 6.45041 1.16631 0
M  V30 4990 H 441.619 5.43211 2.54327 0
M  V30 4991 H 443.298 6.00875 2.39913 0
M  V30 4992 N 443.43 -0.535701 1.48216 0
M  V30 4993 C 444.34 -1.66785 1.64985 0
M  V30 4994 C 445.356 -1.65654 0.532414 0
M  V30 4995 O 446.532 -1.8471 0.80275 0
M  V30 4996 C 443.597 -3.0326 1.68031 0
M  V30 4997 C 442.658 -3.1529 2.9136 0
M  V30 4998 C 441.891 -4.45255 2.94252 0
M  V30 4999 O 442.114 -5.32011 2.05719 0
M  V30 5000 O 441.048 -4.6153 3.86359 0
M  V30 5001 H 444.874 -1.55576 2.60825 0
M  V30 5002 H 442.459 -0.70815 1.31551 0
M  V30 5003 H 444.341 -3.84436 1.72589 0
M  V30 5004 H 443.016 -3.14805 0.753628 0
M  V30 5005 H 441.923 -2.3343 2.92337 0
M  V30 5006 H 443.256 -3.08658 3.83394 0
M  V30 5007 N 444.908 -1.36708 -0.784132 0
M  V30 5008 C 445.856 -1.31533 -1.91838 0
M  V30 5009 C 446.85 -0.206205 -1.6814 0
M  V30 5010 O 448.056 -0.373519 -1.76082 0
M  V30 5011 H 444.431 -0.409613 -0.630651 0
M  V30 5012 H 446.402 -2.2731 -1.9332 0
M  V30 5013 C 445.151 -1.12679 -3.28936 0
M  V30 5014 H 444.474 -1.97274 -3.4774 0
M  V30 5015 H 445.914 -1.13106 -4.08636 0
M  V30 5016 C 444.373 0.168281 -3.36479 0
M  V30 5017 O 444.903 1.15625 -3.84699 0
M  V30 5018 N 443.109 0.214762 -2.89805 0
M  V30 5019 H 442.656 -0.589852 -2.50756 0
M  V30 5020 H 442.614 1.08094 -2.95234 0
M  V30 5021 N 446.386 1.0089 -1.21074 0
M  V30 5022 C 447.634 1.74262 -1.02358 0
M  V30 5023 C 447.955 1.89869 0.444393 0
M  V30 5024 O 447.225 1.44677 1.32081 0
M  V30 5025 H 445.805 0.645615 -0.375754 0
M  V30 5026 H 448.467 1.21596 -1.52317 0
M  V30 5027 H 447.563 2.74328 -1.4883 0
M  V30 5028 N 447.864 1.01787 1.20321 0
M  V30 5029 C 448.811 0.589197 2.23153 0
M  V30 5030 C 449.781 -0.391367 1.61423 0
M  V30 5031 O 450.966 -0.290518 1.88575 0
M  V30 5032 C 448.106 -0.0650747 3.45039 0
M  V30 5033 C 447.219 0.960207 4.21194 0
M  V30 5034 C 446.354 0.276854 5.30478 0
M  V30 5035 C 445.393 1.2888 5.98378 0
M  V30 5036 N 444.53 0.632031 6.99249 0
M  V30 5037 H 449.37 1.47071 2.59179 0
M  V30 5038 H 446.907 0.736192 1.27352 0
M  V30 5039 H 448.865 -0.461552 4.14639 0
M  V30 5040 H 447.495 -0.910233 3.09701 0
M  V30 5041 H 446.547 1.47484 3.50646 0
M  V30 5042 H 447.859 1.72977 4.67847 0
M  V30 5043 H 447.013 -0.175056 6.06447 0
M  V30 5044 H 445.752 -0.525004 4.84866 0
M  V30 5045 H 444.757 1.75109 5.21169 0
M  V30 5046 H 445.982 2.09196 6.46076 0
M  V30 5047 H 443.928 -0.149935 6.55829 0
M  V30 5048 H 443.845 1.33964 7.44036 0
M  V30 5049 H 445.113 0.203755 7.79234 0
M  V30 5050 N 449.342 -1.36122 0.79427 0
M  V30 5051 C 450.289 -2.29982 0.194101 0
M  V30 5052 C 451.259 -1.52214 -0.664833 0
M  V30 5053 O 452.444 -1.80702 -0.612498 0
M  V30 5054 C 449.584 -3.38706 -0.661244 0
M  V30 5055 C 448.697 -4.31456 0.216766 0
M  V30 5056 C 447.832 -5.27265 -0.645411 0
M  V30 5057 C 446.871 -6.11653 0.233756 0
M  V30 5058 N 446.008 -6.99636 -0.587682 0
M  V30 5059 H 450.848 -2.80722 0.999965 0
M  V30 5060 H 448.385 -1.38172 0.504677 0
M  V30 5061 H 450.343 -4.00394 -1.17219 0
M  V30 5062 H 448.973 -2.89274 -1.43249 0
M  V30 5063 H 448.025 -3.7088 0.845724 0
M  V30 5064 H 449.337 -4.90724 0.893973 0
M  V30 5065 H 448.491 -5.94266 -1.22198 0
M  V30 5066 H 447.23 -4.68463 -1.35623 0
M  V30 5067 H 446.235 -5.4361 0.82269 0
M  V30 5068 H 447.46 -6.72531 0.942247 0
M  V30 5069 H 445.406 -6.43337 -1.2827 0
M  V30 5070 H 445.323 -7.55993 0.0317402 0
M  V30 5071 H 446.591 -7.71001 -1.14792 0
M  V30 5072 N 450.82 -0.546701 -1.47814 0
M  V30 5073 C 451.752 0.244196 -2.27895 0
M  V30 5074 C 452.765 0.88911 -1.36377 0
M  V30 5075 O 453.954 0.764733 -1.61289 0
M  V30 5076 C 451.054 1.36252 -3.10304 0
M  V30 5077 C 450.227 0.816382 -4.29714 0
M  V30 5078 C 449.286 1.81789 -4.93801 0
M  V30 5079 O 448.312 1.36818 -5.52512 0
M  V30 5080 N 449.514 3.15085 -4.87547 0
M  V30 5081 H 452.279 -0.442694 -2.96412 0
M  V30 5082 H 449.84 -0.382095 -1.57327 0
M  V30 5083 H 451.832 2.03102 -3.50045 0
M  V30 5084 H 450.402 1.95281 -2.44099 0
M  V30 5085 H 449.622 -0.0285981 -3.9419 0
M  V30 5086 H 450.91 0.430668 -5.06974 0
M  V30 5087 H 450.308 3.54275 -4.41028 0
M  V30 5088 H 448.865 3.77522 -5.31339 0
M  V30 5089 N 452.299 1.55045 -0.282633 0
M  V30 5090 C 453.246 2.22822 0.601566 0
M  V30 5091 C 454.216 1.20431 1.14392 0
M  V30 5092 O 455.401 1.48996 1.19184 0
M  V30 5093 C 452.541 2.95873 1.77632 0
M  V30 5094 C 451.654 4.12999 1.26711 0
M  V30 5095 C 450.789 4.73676 2.40426 0
M  V30 5096 C 449.828 5.82981 1.86545 0
M  V30 5097 N 448.965 6.3769 2.93762 0
M  V30 5098 H 453.805 2.97995 0.0169528 0
M  V30 5099 H 451.342 1.471 -0.00339964 0
M  V30 5100 H 453.3 3.36447 2.46697 0
M  V30 5101 H 451.93 2.2311 2.33285 0
M  V30 5102 H 450.982 3.77494 0.469314 0
M  V30 5103 H 452.294 4.91803 0.832518 0
M  V30 5104 H 451.448 5.17008 3.17471 0
M  V30 5105 H 450.187 3.94164 2.87203 0
M  V30 5106 H 449.192 5.39092 1.07983 0
M  V30 5107 H 450.417 6.64366 1.40694 0
M  V30 5108 H 448.363 5.61069 3.39908 0
M  V30 5109 H 448.28 7.11788 2.54744 0
M  V30 5110 H 449.548 6.8568 3.7076 0
M  V30 5111 N 453.777 0.010035 1.57597 0
M  V30 5112 C 454.725 -0.996272 2.10184 0
M  V30 5113 C 455.719 -1.34942 1.02406 0
M  V30 5114 O 456.925 -1.33389 1.20861 0
M  V30 5115 H 453.3 -0.338982 0.671264 0
M  V30 5116 H 455.271 -0.527272 2.93705 0
M  V30 5117 C 454.02 -2.27599 2.62857 0
M  V30 5118 H 453.343 -2.01295 3.45428 0
M  V30 5119 H 454.783 -2.96265 3.0332 0
M  V30 5120 C 453.242 -2.99269 1.54725 0
M  V30 5121 O 453.772 -3.90644 0.93597 0
M  V30 5122 N 451.978 -2.61269 1.27228 0
M  V30 5123 H 451.525 -1.87043 1.77123 0
M  V30 5124 H 451.483 -3.09534 0.550999 0
M  V30 5125 N 455.255 -1.55392 -0.262866 0
M  V30 5126 C 456.503 -1.76127 -0.991147 0
M  V30 5127 C 456.824 -0.571083 -1.8645 0
M  V30 5128 O 456.094 0.413698 -1.91482 0
M  V30 5129 H 454.674 -0.649528 -0.368948 0
M  V30 5130 H 457.336 -1.9281 -0.284655 0
M  V30 5131 H 456.432 -2.6663 -1.62219 0
M  V30 5132 N 456.733 0.527833 -1.48498 0
M  V30 5133 C 457.68 1.6322 -1.6318 0
M  V30 5134 C 458.65 1.59199 -0.473815 0
M  V30 5135 O 459.835 1.77591 -0.697563 0
M  V30 5136 C 456.975 3.01474 -1.67951 0
M  V30 5137 C 456.088 3.15713 -2.94871 0
M  V30 5138 C 455.223 4.44539 -2.90789 0
M  V30 5139 C 454.262 4.52315 -4.12404 0
M  V30 5140 N 453.399 5.72533 -4.06387 0
M  V30 5141 H 458.239 1.50011 -2.57489 0
M  V30 5142 H 455.776 0.730298 -1.27691 0
M  V30 5143 H 457.734 3.81572 -1.68698 0
M  V30 5144 H 456.364 3.1345 -0.771306 0
M  V30 5145 H 455.416 2.28854 -3.03859 0
M  V30 5146 H 456.728 3.1732 -3.8485 0
M  V30 5147 H 455.882 5.3293 -2.89949 0
M  V30 5148 H 454.621 4.45457 -1.98542 0
M  V30 5149 H 453.626 3.62331 -4.13517 0
M  V30 5150 H 454.851 4.53134 -5.05812 0
M  V30 5151 H 452.797 5.74344 -3.16962 0
M  V30 5152 H 452.714 5.75643 -4.90073 0
M  V30 5153 H 453.982 6.63204 -4.0961 0
M  V30 5154 N 458.211 1.37122 0.776871 0
M  V30 5155 C 459.174 1.32301 1.8716 0
M  V30 5156 C 460.174 0.228099 1.59174 0
M  V30 5157 O 461.364 0.483642 1.67352 0
M  V30 5158 C 458.496 1.054 3.24197 0
M  V30 5159 H 459.689 2.29673 1.92848 0
M  V30 5160 H 457.242 1.22077 0.97606 0
M  V30 5161 H 457.977 0.0853872 3.24188 0
M  V30 5162 H 457.762 1.84648 3.45901 0
M  V30 5163 H 459.252 1.04664 4.04271 0
M  V30 5164 N 459.689 -1.00246 1.21608 0
M  V30 5165 C 460.636 -2.09073 0.977613 0
M  V30 5166 C 461.606 -1.65815 -0.097297 0
M  V30 5167 O 462.791 -1.90734 0.0503445 0
M  V30 5168 C 459.931 -3.40671 0.551133 0
M  V30 5169 C 459.044 -3.97326 1.69576 0
M  V30 5170 C 458.179 -5.17043 1.2182 0
M  V30 5171 C 457.218 -5.65813 2.335 0
M  V30 5172 N 456.355 -6.76778 1.86859 0
M  V30 5173 H 461.195 -2.28806 1.90924 0
M  V30 5174 H 458.732 -1.12186 0.951452 0
M  V30 5175 H 460.69 -4.16225 0.285097 0
M  V30 5176 H 459.32 -3.20967 -0.343489 0
M  V30 5177 H 458.372 -3.18734 2.07637 0
M  V30 5178 H 459.684 -4.29511 2.53617 0
M  V30 5179 H 458.838 -5.99852 0.908975 0
M  V30 5180 H 457.577 -4.86458 0.347869 0
M  V30 5181 H 456.582 -4.81599 2.65222 0
M  V30 5182 H 457.807 -5.98427 3.21033 0
M  V30 5183 H 455.753 -6.47994 1.02174 0
M  V30 5184 H 455.67 -7.08231 2.64471 0
M  V30 5185 H 456.938 -7.63116 1.58978 0
M  V30 5186 N 461.167 -1.02423 -1.1978 0
M  V30 5187 C 462.415 -0.716569 -1.8897 0
M  V30 5188 C 462.736 0.756769 -1.79716 0
M  V30 5189 O 462.006 1.5449 -1.20456 0
M  V30 5190 H 460.586 -0.262062 -0.699523 0
M  V30 5191 H 463.248 -1.29747 -1.45436 0
M  V30 5192 H 462.344 -1.00675 -2.95417 0
M  V30 5193 N 462.645 1.35699 -0.801477 0
M  V30 5194 C 463.922 1.9324 -0.302937 0
M  V30 5195 C 464.302 1.73209 1.20672 0
M  V30 5196 O 463.65 1.09809 2.00385 0
M  V30 5197 C 463.86 3.41728 -0.708747 0
M  V30 5198 C 465.208 4.18868 -0.695328 0
M  V30 5199 O 466.232 3.5022 -0.649971 0
M  V30 5200 O 465.091 5.41342 -0.749081 0
M  V30 5201 H 462.185 0.82331 -0.0780367 0
M  V30 5202 H 464.731 1.44806 -0.884832 0
M  V30 5203 H 463.503 3.50015 -1.74944 0
M  V30 5204 H 463.126 3.97471 -0.101384 0
M  V30 5205 O 464.162 0.695624 1.45751 0
M  V30 5206 H 464.853 0.234379 1.92277 0
M  V30 END ATOM
M  V30 BEGIN BOND
M  V30 END BOND
M  V30 END CTAB
M  END
$$$$
