drugbank_target|Q9H169 Stathmin-4 (DB01206; DB07574)
 OpenBabel12092120443D

  0  0  0     0  0            999 V3000
M  V30 BEGIN CTAB
M  V30 COUNTS 3103 3125 0 0 0
M  V30 BEGIN ATOM
M  V30 1 H -0.908 1.98254 -0.117106 0
M  V30 2 N 0 1.576 0 0
M  V30 3 C 0.933 2.03868 1.02534 0
M  V30 4 C 1.911 0.928543 1.3348 0
M  V30 5 O 3.095 1.19667 1.45644 0
M  V30 6 C 0.222 2.43627 2.35294 0
M  V30 7 C -0.732 3.65373 2.2001 0
M  V30 8 S 0.101 5.13292 1.52614 0
M  V30 9 C 1.257 5.56322 2.86805 0
M  V30 10 H 1.49 2.90518 0.631377 0
M  V30 11 H -0.977 1.52953 0.210867 0
M  V30 12 H 0.981 2.67203 3.11629 0
M  V30 13 H -0.358 1.57376 2.7183 0
M  V30 14 H -1.165 3.90944 3.18086 0
M  V30 15 H -1.563 3.418 1.51819 0
M  V30 16 H 0.729 5.58782 3.83104 0
M  V30 17 H 1.672 6.56266 2.65933 0
M  V30 18 H 2.08 4.83886 2.90714 0
M  V30 19 N 1.4781 -0.272755 1.55222 0
M  V30 20 C 2.7061 -1.02255 1.79865 0
M  V30 21 C 3.1211 -1.79924 0.572088 0
M  V30 22 O 2.4781 -1.76638 -0.458842 0
M  V30 23 C 2.5291 -1.98094 3.02392 0
M  V30 24 O 2.2501 -1.23572 4.20311 0
M  V30 25 C 3.7511 -2.84884 3.39641 0
M  V30 26 H 0.9711 -0.302057 0.599168 0
M  V30 27 H 3.5151 -0.303465 2.02236 0
M  V30 28 H 1.6701 -2.65465 2.82147 0
M  V30 29 H 2.0841 -1.88172 4.89583 0
M  V30 30 H 3.5581 -3.47927 4.28545 0
M  V30 31 H 4.0351 -3.54665 2.59055 0
M  V30 32 H 4.6411 -2.23003 3.62146 0
M  V30 33 N 2.9562 -1.48159 -0.537278 0
M  V30 34 C 3.8862 -1.65029 -1.6519 0
M  V30 35 C 4.8672 -0.499281 -1.62607 0
M  V30 36 O 6.0522 -0.730972 -1.79918 0
M  V30 37 C 3.1822 -1.68303 -3.03795 0
M  V30 38 C 2.1362 -2.8283 -3.21234 0
M  V30 39 C 1.4622 -2.71189 -4.60826 0
M  V30 40 C 2.7622 -4.24211 -3.04701 0
M  V30 41 H 4.4562 -2.58341 -1.51328 0
M  V30 42 H 2.0022 -1.24325 -0.726585 0
M  V30 43 H 3.9552 -1.78693 -3.81637 0
M  V30 44 H 2.6792 -0.715635 -3.18663 0
M  V30 45 H 1.3382 -2.71983 -2.45807 0
M  V30 46 H 0.9862 -1.72435 -4.7252 0
M  V30 47 H 0.6862 -3.48035 -4.7344 0
M  V30 48 H 2.2102 -2.83537 -5.40777 0
M  V30 49 H 3.6242 -4.3593 -3.72341 0
M  V30 50 H 2.0212 -5.01998 -3.28813 0
M  V30 51 H 3.0912 -4.41184 -2.01209 0
M  V30 52 N 4.4343 0.785586 -1.36625 0
M  V30 53 C 5.3973 1.87999 -1.31107 0
M  V30 54 C 6.3973 1.59316 -0.217959 0
M  V30 55 O 7.5873 1.67656 -0.472977 0
M  V30 56 C 4.7193 3.24861 -1.03334 0
M  V30 57 H 5.9123 1.94307 -2.2844 0
M  V30 58 H 3.4653 0.983813 -1.21453 0
M  V30 59 H 4.2003 3.24235 -0.0647432 0
M  V30 60 H 3.9853 3.4707 -1.82441 0
M  V30 61 H 5.4753 4.04929 -1.02088 0
M  V30 62 N 5.9124 1.20967 1.01018 0
M  V30 63 C 6.8754 0.965918 2.07853 0
M  V30 64 C 7.8754 -0.0610545 1.60684 0
M  V30 65 O 9.0654 0.175681 1.73312 0
M  V30 66 C 6.1974 0.455513 3.37843 0
M  V30 67 H 7.3904 1.91365 2.3091 0
M  V30 68 H 4.9434 1.02594 1.17916 0
M  V30 69 H 5.6784 -0.497381 3.20463 0
M  V30 70 H 5.4634 1.19622 3.73407 0
M  V30 71 H 6.9534 0.304667 4.16487 0
M  V30 72 N 7.3905 -1.2043 1.01659 0
M  V30 73 C 8.6205 -1.93496 0.724081 0
M  V30 74 C 9.0285 -1.74998 -0.71918 0
M  V30 75 O 8.3715 -1.06118 -1.49949 0
M  V30 76 C 8.4335 -3.45886 0.97994 0
M  V30 77 C 8.0975 -3.88145 2.41232 0
M  V30 78 C 9.0945 -3.93907 3.39313 0
M  V30 79 C 6.7795 -4.20134 2.75305 0
M  V30 80 C 8.7735 -4.31069 4.6953 0
M  V30 81 C 6.4605 -4.56971 4.05735 0
M  V30 82 C 7.4585 -4.62411 5.02658 0
M  V30 83 O 7.1465 -4.98403 6.30754 0
M  V30 84 H 6.8785 -0.621824 0.265162 0
M  V30 85 H 9.4325 -1.53867 1.36066 0
M  V30 86 H 7.6625 -3.85639 0.286198 0
M  V30 87 H 9.3515 -4.0018 0.679021 0
M  V30 88 H 10.1175 -3.69357 3.14325 0
M  V30 89 H 5.9965 -4.1509 2.00551 0
M  V30 90 H 9.5405 -4.3523 5.45179 0
M  V30 91 H 5.4375 -4.80977 4.30502 0
M  V30 92 H 6.2055 -5.16395 6.35042 0
M  V30 93 N 8.8686 -0.792821 -1.36206 0
M  V30 94 C 9.8156 -0.191653 -2.30003 0
M  V30 95 C 10.7856 0.666453 -1.52143 0
M  V30 96 O 11.9706 0.61442 -1.80636 0
M  V30 97 C 9.1106 0.664848 -3.38635 0
M  V30 98 C 8.2236 -0.212175 -4.31479 0
M  V30 99 C 7.3586 0.651022 -5.27196 0
M  V30 100 C 6.3976 -0.227247 -6.11678 0
M  V30 101 N 5.5346 0.595127 -6.99573 0
M  V30 102 H 10.3746 -0.996978 -2.80828 0
M  V30 103 H 7.9116 -0.503206 -1.38225 0
M  V30 104 H 9.8696 1.17645 -4.00269 0
M  V30 105 H 8.4996 1.43557 -2.89122 0
M  V30 106 H 7.5516 -0.841777 -3.70969 0
M  V30 107 H 8.8636 -0.888751 -4.90818 0
M  V30 108 H 8.0176 1.2283 -5.94136 0
M  V30 109 H 6.7566 1.36121 -4.68319 0
M  V30 110 H 5.7616 -0.816904 -5.43697 0
M  V30 111 H 6.9866 -0.93509 -6.72631 0
M  V30 112 H 4.9326 1.28955 -6.432 0
M  V30 113 H 4.8496 -0.0236952 -7.55996 0
M  V30 114 H 6.1176 1.15613 -7.70879 0
M  V30 115 N 10.3467 1.47872 -0.545128 0
M  V30 116 C 11.2567 2.33633 0.212746 0
M  V30 117 C 12.2727 1.4744 0.923983 0
M  V30 118 O 13.4487 1.80393 0.895572 0
M  V30 119 C 10.5137 3.23884 1.23693 0
M  V30 120 C 9.5747 4.25961 0.534417 0
M  V30 121 C 8.8077 5.11899 1.5098 0
M  V30 122 O 9.0307 5.00077 2.7437 0
M  V30 123 O 7.9647 5.92831 1.0409 0
M  V30 124 H 11.7907 2.99714 -0.490416 0
M  V30 125 H 9.3757 1.46235 -0.305871 0
M  V30 126 H 11.2577 3.79666 1.82843 0
M  V30 127 H 9.9327 2.60446 1.92222 0
M  V30 128 H 8.8397 3.73972 -0.0979679 0
M  V30 129 H 10.1727 4.92079 -0.109213 0
M  V30 130 N 11.8248 0.280983 1.55075 0
M  V30 131 C 12.7718 -0.603937 2.22758 0
M  V30 132 C 13.7418 -1.1452 1.20309 0
M  V30 133 O 14.9268 -1.19343 1.48869 0
M  V30 134 C 12.0668 -1.77947 2.95684 0
M  V30 135 C 11.1798 -1.2715 4.12864 0
M  V30 136 C 10.3148 -2.4093 4.7342 0
M  V30 137 C 9.3538 -1.87165 5.82783 0
M  V30 138 N 8.4908 -2.94441 6.37377 0
M  V30 139 H 13.3308 -0.020124 2.97993 0
M  V30 140 H 10.8678 0.00183425 1.471 0
M  V30 141 H 12.8258 -2.47055 3.36184 0
M  V30 142 H 11.4558 -2.33522 2.22861 0
M  V30 143 H 10.5078 -0.473331 3.77444 0
M  V30 144 H 11.8198 -0.837751 4.91715 0
M  V30 145 H 10.9738 -3.18021 5.1667 0
M  V30 146 H 9.7128 -2.87623 3.93859 0
M  V30 147 H 8.7178 -1.08556 5.38976 0
M  V30 148 H 9.9428 -1.41401 6.64216 0
M  V30 149 H 7.8888 -3.40505 5.60707 0
M  V30 150 H 7.8058 -2.55501 7.11516 0
M  V30 151 H 9.0738 -3.71489 6.85285 0
M  V30 152 N 13.3029 -1.57598 0.00835791 0
M  V30 153 C 14.2359 -2.04409 -1.01451 0
M  V30 154 C 15.2139 -0.935609 -1.32985 0
M  V30 155 O 16.3979 -1.20437 -1.45007 0
M  V30 156 C 13.5249 -2.44872 -2.33999 0
M  V30 157 C 12.5709 -3.66535 -2.18069 0
M  V30 158 S 13.4039 -5.14095 -1.4989 0
M  V30 159 C 14.5599 -5.57835 -2.8385 0
M  V30 160 H 14.7929 -2.90849 -0.615961 0
M  V30 161 H 12.3259 -1.53063 -0.202752 0
M  V30 162 H 14.2839 -2.68852 -3.10208 0
M  V30 163 H 12.9449 -1.58815 -2.70992 0
M  V30 164 H 12.1379 -3.92626 -3.16008 0
M  V30 165 H 11.7399 -3.426 -1.50004 0
M  V30 166 H 14.0319 -5.60806 -3.80136 0
M  V30 167 H 14.9749 -6.57667 -2.62449 0
M  V30 168 H 15.3829 -4.85421 -2.88144 0
M  V30 169 N 14.781 0.264519 -1.55364 0
M  V30 170 C 15.728 1.32717 -1.88825 0
M  V30 171 C 16.698 1.48675 -0.740605 0
M  V30 172 O 17.883 1.62945 -0.992657 0
M  V30 173 C 15.023 2.68089 -2.17307 0
M  V30 174 C 14.136 2.60284 -3.44785 0
M  V30 175 C 13.271 3.87892 -3.62924 0
M  V30 176 C 12.31 3.74631 -4.84064 0
M  V30 177 N 11.447 4.94092 -4.98816 0
M  V30 178 H 16.287 1.03481 -2.79456 0
M  V30 179 H 13.824 0.499757 -1.3835 0
M  V30 180 H 15.782 3.46864 -2.31821 0
M  V30 181 H 14.412 2.95509 -1.299 0
M  V30 182 H 13.464 1.73173 -3.38697 0
M  V30 183 H 14.776 2.46388 -4.33698 0
M  V30 184 H 13.93 4.75109 -3.77302 0
M  V30 185 H 12.669 4.04664 -2.7221 0
M  V30 186 H 11.674 2.85797 -4.69681 0
M  V30 187 H 12.899 3.5937 -5.76221 0
M  V30 188 H 10.845 5.11259 -4.11036 0
M  V30 189 H 10.762 4.8276 -5.81789 0
M  V30 190 H 12.03 5.82857 -5.17588 0
M  V30 191 N 16.2591 1.48442 0.529413 0
M  V30 192 C 17.1691 1.6569 1.66084 0
M  V30 193 C 18.1851 0.539432 1.65427 0
M  V30 194 O 19.3611 0.810572 1.84368 0
M  V30 195 C 16.4261 1.69315 3.02545 0
M  V30 196 C 15.4871 2.92694 3.14052 0
M  V30 197 C 14.7201 2.96137 4.44003 0
M  V30 198 O 14.9431 2.07973 5.31134 0
M  V30 199 O 13.8771 3.88312 4.59888 0
M  V30 200 H 17.7031 2.61483 1.54469 0
M  V30 201 H 15.2881 1.3185 0.702567 0
M  V30 202 H 17.1701 1.74217 3.83701 0
M  V30 203 H 15.8451 0.766966 3.14483 0
M  V30 204 H 14.7521 2.93324 2.32189 0
M  V30 205 H 16.0851 3.84699 3.0703 0
M  V30 206 N 17.7372 -0.778329 1.37039 0
M  V30 207 C 18.6672 -1.90546 1.34962 0
M  V30 208 C 19.6482 -1.68681 0.219274 0
M  V30 209 O 20.8332 -1.89634 0.418624 0
M  V30 210 C 17.9632 -3.27734 1.14925 0
M  V30 211 C 16.9172 -3.64147 2.24902 0
M  V30 212 C 16.2432 -4.99806 1.89996 0
M  V30 213 C 17.5432 -3.71579 3.67051 0
M  V30 214 H 19.2372 -1.92541 2.29277 0
M  V30 215 H 16.7832 -0.924948 1.10366 0
M  V30 216 H 18.7362 -4.06215 1.12104 0
M  V30 217 H 17.4602 -3.26154 0.170631 0
M  V30 218 H 16.1192 -2.8797 2.26868 0
M  V30 219 H 15.7672 -4.94759 0.906796 0
M  V30 220 H 15.4672 -5.25139 2.63634 0
M  V30 221 H 16.9912 -5.80694 1.88749 0
M  V30 222 H 18.4052 -4.40227 3.67251 0
M  V30 223 H 16.8022 -4.08405 4.39688 0
M  V30 224 H 17.8722 -2.72404 4.01154 0
M  V30 225 N 19.2153 -1.21501 -1.00376 0
M  V30 226 C 20.6263 -1.03146 -1.55621 0
M  V30 227 C 20.9773 0.408375 -1.91903 0
M  V30 228 O 20.1023 1.29177 -1.73616 0
M  V30 229 C 20.6973 -1.86612 -2.82775 0
M  V30 230 C 19.2563 -1.72586 -3.34501 0
M  V30 231 C 18.4033 -1.83747 -2.07683 0
M  V30 232 H 21.3543 -1.35505 -0.826081 0
M  V30 233 H 21.3753 -1.3771 -3.54706 0
M  V30 234 H 20.8873 -2.91399 -2.56336 0
M  V30 235 H 18.9883 -0.704877 -3.65872 0
M  V30 236 H 19.1013 -2.54623 -4.05837 0
M  V30 237 H 17.4653 -1.27069 -2.20739 0
M  V30 238 H 18.2483 -2.90044 -1.83655 0
M  V30 239 N 20.6934 1.19889 -1.02296 0
M  V30 240 C 21.6234 2.25141 -0.619174 0
M  V30 241 C 22.6044 1.66051 0.368915 0
M  V30 242 O 23.7894 1.92546 0.252941 0
M  V30 243 C 20.9194 3.4728 0.0368783 0
M  V30 244 C 19.8734 4.19005 -0.872865 0
M  V30 245 C 19.1994 5.34637 -0.0822402 0
M  V30 246 C 20.4994 4.74452 -2.18387 0
M  V30 247 H 22.1934 2.59171 -1.49903 0
M  V30 248 H 19.7394 1.24579 -0.722222 0
M  V30 249 H 21.6924 4.20098 0.330958 0
M  V30 250 H 20.4164 3.12433 0.95149 0
M  V30 251 H 19.0754 3.48061 -1.15105 0
M  V30 252 H 18.7234 4.96034 0.83422 0
M  V30 253 H 18.4234 5.83557 -0.688149 0
M  V30 254 H 19.9474 6.10255 0.205238 0
M  V30 255 H 21.3614 5.39055 -1.95172 0
M  V30 256 H 19.7584 5.33834 -2.74119 0
M  V30 257 H 20.8284 3.92844 -2.84257 0
M  V30 258 N 22.1715 0.800033 1.35784 0
M  V30 259 C 23.4175 0.377901 1.99248 0
M  V30 260 C 23.7505 -1.05052 1.63333 0
M  V30 261 O 23.0255 -1.72768 0.893385 0
M  V30 262 C 23.3085 0.553922 3.55814 0
M  V30 263 C 23.1615 2.0268 4.01548 0
M  V30 264 C 24.4805 -0.0244802 4.40093 0
M  V30 265 H 21.5995 0.138782 0.723815 0
M  V30 266 H 24.2415 1.00835 1.61035 0
M  V30 267 H 22.3915 0.0172398 3.88496 0
M  V30 268 H 24.0635 2.62536 3.79305 0
M  V30 269 H 22.3065 2.5256 3.52698 0
M  V30 270 H 22.9775 2.10087 5.10458 0
M  V30 271 H 25.4535 0.433775 4.13833 0
M  V30 272 H 24.3295 0.128637 5.48749 0
M  V30 273 H 24.5905 -1.11758 4.27741 0
M  V30 274 N 23.6496 -1.47581 0.552962 0
M  V30 275 C 24.8746 -2.07378 0.0300593 0
M  V30 276 C 25.2996 -1.40355 -1.25229 0
M  V30 277 O 24.6576 -0.477099 -1.7491 0
M  V30 278 C 24.7056 -3.60274 -0.153231 0
M  V30 279 O 23.8096 -3.94041 -1.21678 0
M  V30 280 H 23.1506 -0.662158 0.0494182 0
M  V30 281 H 25.6806 -1.89662 0.767434 0
M  V30 282 H 25.6906 -4.0633 -0.368761 0
M  V30 283 H 24.3656 -4.08455 0.783397 0
M  V30 284 H 22.9426 -3.59735 -0.982079 0
M  V30 285 N 25.1277 -0.289203 -1.54924 0
M  V30 286 C 26.0577 0.58549 -2.2604 0
M  V30 287 C 27.0387 1.14753 -1.25562 0
M  V30 288 O 28.2237 1.17906 -1.54311 0
M  V30 289 C 25.3537 1.76305 -2.99222 0
M  V30 290 C 24.3077 1.33191 -4.06748 0
M  V30 291 C 23.6337 2.5937 -4.6758 0
M  V30 292 C 24.9337 0.471775 -5.20165 0
M  V30 293 H 26.6277 -0.00763532 -2.99399 0
M  V30 294 H 24.1737 -0.00511229 -1.43999 0
M  V30 295 H 26.1267 2.38097 -3.47689 0
M  V30 296 H 24.8507 2.38223 -2.23422 0
M  V30 297 H 23.5097 0.737121 -3.59113 0
M  V30 298 H 23.1577 3.19576 -3.88433 0
M  V30 299 H 22.8577 2.31228 -5.40192 0
M  V30 300 H 24.3817 3.21985 -5.18804 0
M  V30 301 H 25.7957 0.995056 -5.64599 0
M  V30 302 H 24.1927 0.284639 -5.99425 0
M  V30 303 H 25.2627 -0.506041 -4.82252 0
M  V30 304 N 26.6058 1.57591 -0.0167156 0
M  V30 305 C 27.8528 1.91283 0.664597 0
M  V30 306 C 28.1808 0.891949 1.72842 0
M  V30 307 O 27.4358 -0.100931 1.9544 0
M  V30 308 C 27.7348 3.3172 1.33029 0
M  V30 309 C 27.4008 4.4914 0.398047 0
M  V30 310 C 26.0628 4.80992 0.141421 0
M  V30 311 C 28.4148 5.20634 -0.242825 0
M  V30 312 C 25.7428 5.81703 -0.764092 0
M  V30 313 C 28.0948 6.22311 -1.13632 0
M  V30 314 C 26.7588 6.52611 -1.40196 0
M  V30 315 H 26.0288 0.699956 0.243193 0
M  V30 316 H 28.6758 1.9135 -0.0758267 0
M  V30 317 H 26.9808 3.27856 2.14517 0
M  V30 318 H 28.6778 3.55055 1.86379 0
M  V30 319 H 25.2678 4.24262 0.608238 0
M  V30 320 H 29.4518 4.96267 -0.0576019 0
M  V30 321 H 24.7078 6.03532 -0.977732 0
M  V30 322 H 28.8818 6.76834 -1.63917 0
M  V30 323 H 26.5088 7.30467 -2.10529 0
M  V30 324 N 28.0839 -0.256276 1.55502 0
M  V30 325 C 29.3239 -0.993081 1.78654 0
M  V30 326 C 29.6879 -1.8288 0.584724 0
M  V30 327 O 30.8889 -2.59665 0.694822 0
M  V30 328 C 29.1599 -1.83856 3.06483 0
M  V30 329 S 30.7189 -2.63573 3.5082 0
M  V30 330 H 27.5369 -0.334199 0.62756 0
M  V30 331 H 30.1389 -0.26184 1.93739 0
M  V30 332 H 28.8429 -1.21414 3.92029 0
M  V30 333 H 28.3739 -2.61271 2.94111 0
M  V30 334 H 30.3889 -3.86312 3.11412 0
M  V30 335 N 29.562 -1.4872 -0.521534 0
M  V30 336 C 30.787 -1.61101 -1.30618 0
M  V30 337 C 31.212 -0.274611 -1.86085 0
M  V30 338 O 30.57 0.754937 -1.64834 0
M  V30 339 C 30.618 -2.66709 -2.4269 0
M  V30 340 O 29.722 -2.24456 -3.45967 0
M  V30 341 H 29.063 -0.539921 -0.386499 0
M  V30 342 H 31.593 -1.94767 -0.626645 0
M  V30 343 H 31.603 -2.88245 -2.88754 0
M  V30 344 H 30.278 -3.63727 -2.01682 0
M  V30 345 H 28.855 -2.13168 -3.05964 0
M  V30 346 N 31.0401 0.771051 -1.3745 0
M  V30 347 C 32.2801 1.54264 -1.34096 0
M  V30 348 C 32.6441 1.91858 0.0737639 0
M  V30 349 O 33.8451 2.67797 0.23203 0
M  V30 350 C 32.1161 2.77326 -2.25445 0
M  V30 351 S 33.6751 3.67383 -2.39948 0
M  V30 352 H 30.4931 0.528122 -0.476034 0
M  V30 353 H 33.0951 0.906633 -1.73206 0
M  V30 354 H 31.7991 2.47788 -3.27153 0
M  V30 355 H 31.3301 3.45886 -1.87421 0
M  V30 356 H 33.3451 4.69334 -1.61059 0
M  V30 357 N 32.5182 1.22032 0.997298 0
M  V30 358 C 33.7652 1.04222 1.73621 0
M  V30 359 C 34.0932 -0.423264 1.89839 0
M  V30 360 O 33.3482 -1.3302 1.43542 0
M  V30 361 C 33.6472 1.69345 3.14733 0
M  V30 362 C 33.3132 3.19226 3.18442 0
M  V30 363 C 31.9752 3.60124 3.19161 0
M  V30 364 C 34.3272 4.15181 3.15078 0
M  V30 365 C 31.6552 4.95467 3.14212 0
M  V30 366 C 34.0072 5.50495 3.1167 0
M  V30 367 C 32.6712 5.90779 3.10703 0
M  V30 368 H 31.9412 0.381374 0.635323 0
M  V30 369 H 34.5882 1.51732 1.16831 0
M  V30 370 H 32.8932 1.14147 3.74803 0
M  V30 371 H 34.5902 1.53059 3.7064 0
M  V30 372 H 31.1802 2.86659 3.18629 0
M  V30 373 H 35.3642 3.84605 3.13676 0
M  V30 374 H 30.6202 5.25916 3.11805 0
M  V30 375 H 34.7942 6.24576 3.08022 0
M  V30 376 H 32.4212 6.9562 3.06622 0
M  V30 377 N 33.9963 -1.19345 1.0293 0
M  V30 378 C 34.9263 -2.2481 0.631105 0
M  V30 379 C 35.9073 -1.66245 -0.360104 0
M  V30 380 O 37.0923 -1.92677 -0.242726 0
M  V30 381 C 34.2223 -3.47295 -0.0184607 0
M  V30 382 C 33.1763 -4.18536 0.895073 0
M  V30 383 C 32.5023 -5.34586 0.110592 0
M  V30 384 C 33.8023 -4.73287 2.209 0
M  V30 385 H 35.4963 -2.58372 1.51275 0
M  V30 386 H 33.0423 -1.24194 0.728818 0
M  V30 387 H 34.9953 -4.20268 -0.308675 0
M  V30 388 H 33.7193 -3.12933 -0.934907 0
M  V30 389 H 32.3783 -3.47446 1.16949 0
M  V30 390 H 32.0263 -4.96469 -0.807902 0
M  V30 391 H 31.7263 -5.83183 0.719087 0
M  V30 392 H 33.2503 -6.10355 -0.172871 0
M  V30 393 H 34.6643 -5.38013 1.98028 0
M  V30 394 H 33.0613 -5.32373 2.76946 0
M  V30 395 H 34.1313 -3.91331 2.86336 0
M  V30 396 N 35.4744 -0.807222 -1.35358 0
M  V30 397 C 36.4374 -0.223665 -2.28106 0
M  V30 398 C 37.4374 0.589354 -1.4961 0
M  V30 399 O 38.6274 0.407745 -1.69361 0
M  V30 400 C 35.7594 0.688149 -3.33882 0
M  V30 401 H 36.9524 -1.04169 -2.81227 0
M  V30 402 H 34.5054 -0.577921 -1.45223 0
M  V30 403 H 35.2404 1.52984 -2.85948 0
M  V30 404 H 35.0254 0.10687 -3.91954 0
M  V30 405 H 36.5154 1.09075 -4.03104 0
M  V30 406 N 36.9525 1.47285 -0.560781 0
M  V30 407 C 38.2295 1.9558 0.0277798 0
M  V30 408 C 38.6095 1.5034 1.48192 0
M  V30 409 O 37.9575 0.743882 2.16052 0
M  V30 410 C 38.1675 3.48789 -0.121418 0
M  V30 411 C 39.5155 4.24594 0.0220912 0
M  V30 412 O 40.5395 3.56166 -0.0491439 0
M  V30 413 O 39.3985 5.46217 0.175958 0
M  V30 414 H 36.4925 0.824663 0.0621342 0
M  V30 415 H 39.0385 1.5767 -0.627556 0
M  V30 416 H 37.8105 3.74533 -1.13316 0
M  V30 417 H 37.4335 3.93473 0.571366 0
M  V30 418 N 38.4306 0.297415 1.54768 0
M  V30 419 C 39.8416 -0.195947 1.85669 0
M  V30 420 C 40.1926 -1.53707 1.21937 0
M  V30 421 O 39.3176 -2.10164 0.515754 0
M  V30 422 C 39.9126 -0.362318 3.36857 0
M  V30 423 C 38.4716 -0.799901 3.67802 0
M  V30 424 C 37.6186 0.0938578 2.77141 0
M  V30 425 H 40.5696 0.518538 1.4999 0
M  V30 426 H 40.5906 -1.19745 3.61167 0
M  V30 427 H 40.1026 0.613921 3.83214 0
M  V30 428 H 38.2036 -1.78682 3.26961 0
M  V30 429 H 38.3166 -0.621773 4.75048 0
M  V30 430 H 36.6806 -0.426254 2.51108 0
M  V30 431 H 37.4636 1.06639 3.26318 0
M  V30 432 N 39.9087 -1.5758 0.0250728 0
M  V30 433 C 40.8387 -2.13007 -0.956575 0
M  V30 434 C 41.8197 -1.0452 -1.342 0
M  V30 435 O 43.0047 -1.32332 -1.42133 0
M  V30 436 C 40.1347 -2.65386 -2.24026 0
M  V30 437 C 39.0887 -3.78623 -1.99571 0
M  V30 438 C 38.4147 -4.17414 -3.3417 0
M  V30 439 C 39.7147 -5.04867 -1.33814 0
M  V30 440 H 41.4087 -2.9528 -0.494991 0
M  V30 441 H 38.9547 -1.42042 -0.236651 0
M  V30 442 H 40.9077 -3.02794 -2.93076 0
M  V30 443 H 39.6317 -1.80268 -2.72343 0
M  V30 444 H 38.2907 -3.41646 -1.32941 0
M  V30 445 H 37.9387 -3.29284 -3.80238 0
M  V30 446 H 37.6387 -4.93719 -3.18615 0
M  V30 447 H 39.1627 -4.57402 -4.04495 0
M  V30 448 H 40.5767 -5.39888 -1.92857 0
M  V30 449 H 38.9737 -5.86144 -1.28669 0
M  V30 450 H 40.0437 -4.83904 -0.310561 0
M  V30 451 N 41.3868 0.248026 -1.55636 0
M  V30 452 C 42.3348 1.32683 -1.91045 0
M  V30 453 C 43.3288 1.49883 -0.789401 0
M  V30 454 O 44.5348 1.51371 -0.974007 0
M  V30 455 H 40.9098 0.444272 -0.606734 0
M  V30 456 H 42.8808 1.00085 -2.81115 0
M  V30 457 C 41.6298 2.6755 -2.22064 0
M  V30 458 H 40.9528 2.55114 -3.07826 0
M  V30 459 H 42.3928 3.41912 -2.50743 0
M  V30 460 C 40.8518 3.20556 -1.0366 0
M  V30 461 O 41.3818 4.00695 -0.284016 0
M  V30 462 N 39.5878 2.78568 -0.82753 0
M  V30 463 H 39.1348 2.1351 -1.44123 0
M  V30 464 H 39.0928 3.14378 -0.0369803 0
M  V30 465 N 42.8649 1.48995 0.513639 0
M  V30 466 C 43.8119 1.6473 1.61656 0
M  V30 467 C 44.7819 0.488984 1.58739 0
M  V30 468 O 45.9669 0.714478 1.76918 0
M  V30 469 C 43.1069 1.7082 2.99858 0
M  V30 470 C 42.2199 2.9787 3.12885 0
M  V30 471 C 41.3549 2.95017 4.41744 0
M  V30 472 C 40.3939 4.16702 4.48359 0
M  V30 473 N 39.5309 4.11832 5.68629 0
M  V30 474 H 44.3709 2.58909 1.47547 0
M  V30 475 H 41.9079 1.28382 0.71808 0
M  V30 476 H 43.8659 1.72331 3.79944 0
M  V30 477 H 42.4959 0.801181 3.12699 0
M  V30 478 H 41.5479 3.06029 2.25944 0
M  V30 479 H 42.8599 3.8786 3.13633 0
M  V30 480 H 42.0139 2.95021 5.30139 0
M  V30 481 H 40.7529 2.02784 4.43542 0
M  V30 482 H 39.7579 4.16955 3.58369 0
M  V30 483 H 40.9829 5.10113 4.48287 0
M  V30 484 H 38.9289 3.22428 5.71293 0
M  V30 485 H 38.8459 4.95543 5.7094 0
M  V30 486 H 40.1139 4.1592 6.59266 0
M  V30 487 N 44.343 -0.763751 1.37857 0
M  V30 488 C 45.568 -1.55805 1.36893 0
M  V30 489 C 45.993 -1.88054 -0.0416135 0
M  V30 490 O 45.351 -1.49825 -1.02089 0
M  V30 491 C 45.399 -2.84012 2.22192 0
M  V30 492 O 44.503 -3.78732 1.63204 0
M  V30 493 H 43.844 -0.471638 0.46739 0
M  V30 494 H 46.374 -0.944657 1.81487 0
M  V30 495 H 46.384 -3.33037 2.35691 0
M  V30 496 H 45.059 -2.59869 3.24716 0
M  V30 497 H 43.636 -3.37402 1.58791 0
M  V30 498 N 45.8211 -1.22559 -0.990812 0
M  V30 499 C 47.0461 -1.07862 -1.77145 0
M  V30 500 C 47.4711 0.366447 -1.84496 0
M  V30 501 O 46.8291 1.26478 -1.29896 0
M  V30 502 C 46.8771 -1.69686 -3.18181 0
M  V30 503 O 45.9811 -0.951946 -4.01263 0
M  V30 504 H 45.3221 -0.378712 -0.545411 0
M  V30 505 H 47.8521 -1.62399 -1.2445 0
M  V30 506 H 47.8621 -1.74496 -3.68802 0
M  V30 507 H 46.5371 -2.74841 -3.12146 0
M  V30 508 H 45.1141 -0.980011 -3.59792 0
M  V30 509 N 47.2992 1.18797 -1.03562 0
M  V30 510 C 48.5292 1.92319 -0.754773 0
M  V30 511 C 48.9372 1.7612 0.691248 0
M  V30 512 O 48.2802 1.08491 1.48241 0
M  V30 513 C 48.3422 3.44284 -1.03484 0
M  V30 514 C 48.0062 3.84258 -2.47376 0
M  V30 515 C 49.0032 3.88459 -3.45537 0
M  V30 516 C 46.6882 4.15701 -2.81954 0
M  V30 517 C 48.6822 4.23545 -4.76328 0
M  V30 518 C 46.3692 4.50458 -4.12954 0
M  V30 519 C 47.3672 4.54356 -5.09951 0
M  V30 520 O 47.0552 4.88305 -6.38603 0
M  V30 521 H 46.7872 0.617527 -0.275021 0
M  V30 522 H 49.3412 1.51683 -1.38497 0
M  V30 523 H 47.5712 3.85135 -0.347513 0
M  V30 524 H 49.2602 3.99049 -0.7426 0
M  V30 525 H 50.0262 3.6431 -3.20162 0
M  V30 526 H 45.9052 4.11847 -2.0713 0
M  V30 527 H 49.4492 4.26502 -5.52035 0
M  V30 528 H 45.3462 4.74067 -4.38099 0
M  V30 529 H 46.1142 5.06227 -6.43177 0
M  V30 530 N 48.7773 0.814389 1.34928 0
M  V30 531 C 49.7243 0.22822 2.29669 0
M  V30 532 C 50.6943 -0.642164 1.53184 0
M  V30 533 O 51.8793 -0.585605 1.81591 0
M  V30 534 C 49.0193 -0.61089 3.3965 0
M  V30 535 C 48.1323 0.280792 4.31086 0
M  V30 536 C 47.2673 -0.567067 5.28165 0
M  V30 537 C 46.3063 0.324531 6.11239 0
M  V30 538 N 45.4433 -0.483756 7.00431 0
M  V30 539 H 50.2833 1.04153 2.79206 0
M  V30 540 H 47.8203 0.525133 1.37407 0
M  V30 541 H 49.7783 -1.11263 4.0209 0
M  V30 542 H 48.4083 -1.38939 2.91369 0
M  V30 543 H 47.4603 0.900688 3.69583 0
M  V30 544 H 48.7723 0.966723 4.89342 0
M  V30 545 H 47.9263 -1.13363 5.96015 0
M  V30 546 H 46.6653 -1.28654 4.70425 0
M  V30 547 H 45.6703 0.903298 5.42329 0
M  V30 548 H 46.8953 1.04198 6.71059 0
M  V30 549 H 44.8413 -1.18706 6.45171 0
M  V30 550 H 44.7583 0.143965 7.55863 0
M  V30 551 H 46.0263 -1.03334 7.7262 0
M  V30 552 N 50.2554 -1.46986 0.568584 0
M  V30 553 C 51.4854 -2.0653 0.0539173 0
M  V30 554 C 51.8934 -1.42004 -1.25026 0
M  V30 555 O 51.2364 -0.514541 -1.76347 0
M  V30 556 C 51.2984 -3.58938 -0.200854 0
M  V30 557 C 50.9624 -4.45572 1.01559 0
M  V30 558 C 51.9594 -4.82986 1.92407 0
M  V30 559 C 49.6444 -4.8692 1.23346 0
M  V30 560 C 51.6384 -5.60559 3.03402 0
M  V30 561 C 49.3254 -5.64255 2.34649 0
M  V30 562 C 50.3234 -6.00986 3.24507 0
M  V30 563 O 50.0114 -6.76761 4.33878 0
M  V30 564 H 49.7434 -0.674292 0.0480234 0
M  V30 565 H 52.2974 -1.89812 0.784896 0
M  V30 566 H 50.5274 -3.73911 -0.986279 0
M  V30 567 H 52.2164 -4.0046 -0.662294 0
M  V30 568 H 52.9824 -4.51633 1.76785 0
M  V30 569 H 48.8614 -4.57789 0.543178 0
M  V30 570 H 52.4054 -5.89147 3.73565 0
M  V30 571 H 48.3024 -5.95021 2.5024 0
M  V30 572 H 49.0704 -6.95168 4.32068 0
M  V30 573 N 51.7335 -0.305618 -1.54608 0
M  V30 574 C 52.6435 0.57778 -2.27374 0
M  V30 575 C 53.6595 1.14451 -1.31061 0
M  V30 576 O 54.8355 1.16831 -1.6405 0
M  V30 577 C 51.9005 1.73123 -3.00382 0
M  V30 578 C 50.9615 1.19812 -4.12242 0
M  V30 579 C 50.1945 2.2966 -4.81759 0
M  V30 580 O 50.4175 3.49651 -4.50666 0
M  V30 581 O 49.3515 1.96091 -5.69062 0
M  V30 582 H 53.1775 -0.012624 -3.03697 0
M  V30 583 H 50.7625 -0.0719184 -1.49227 0
M  V30 584 H 52.6445 2.40315 -3.4616 0
M  V30 585 H 51.3195 2.30815 -2.26949 0
M  V30 586 H 50.2265 0.491798 -3.70853 0
M  V30 587 H 51.5595 0.666566 -4.87666 0
M  V30 588 N 53.2116 1.57565 -0.0334293 0
M  V30 589 C 54.1746 2.09393 0.932048 0
M  V30 590 C 55.1746 1.00986 1.25134 0
M  V30 591 O 56.3646 1.27129 1.19096 0
M  V30 592 C 53.4966 2.56338 2.2473 0
M  V30 593 H 54.6896 2.95984 0.483085 0
M  V30 594 H 52.2426 1.54819 0.21468 0
M  V30 595 H 52.9776 1.7309 2.74245 0
M  V30 596 H 52.7626 3.35542 2.02865 0
M  V30 597 H 54.2526 2.96646 2.93923 0
M  V30 598 N 54.6897 -0.239769 1.55765 0
M  V30 599 C 55.9667 -0.990056 1.68693 0
M  V30 600 C 56.3467 -2.03107 0.5754 0
M  V30 601 O 55.6947 -2.24604 -0.42017 0
M  V30 602 C 55.9047 -1.61696 3.09282 0
M  V30 603 C 57.2527 -2.11613 3.6811 0
M  V30 604 O 58.2767 -1.71624 3.12127 0
M  V30 605 O 57.1357 -2.85057 4.66267 0
M  V30 606 H 54.2297 -0.461299 0.686391 0
M  V30 607 H 56.7757 -0.232991 1.68093 0
M  V30 608 H 55.5477 -0.864357 3.81634 0
M  V30 609 H 55.1707 -2.44005 3.13923 0
M  V30 610 N 56.1678 -1.49265 -0.50573 0
M  V30 611 C 57.3958 -1.62215 -1.28429 0
M  V30 612 C 57.8108 -0.291697 -1.86533 0
M  V30 613 O 57.1678 0.722233 -1.67601 0
M  V30 614 C 57.2188 -2.68735 -2.41793 0
M  V30 615 O 56.9398 -3.96619 -1.86078 0
M  V30 616 C 58.4408 -2.92346 -3.3324 0
M  V30 617 H 55.6608 -0.546239 -0.389697 0
M  V30 618 H 58.2048 -1.95265 -0.607609 0
M  V30 619 H 56.3598 -2.38476 -3.053 0
M  V30 620 H 56.7738 -4.55256 -2.60465 0
M  V30 621 H 58.2478 -3.70623 -4.09075 0
M  V30 622 H 58.7248 -2.02081 -3.89948 0
M  V30 623 H 59.3308 -3.24003 -2.75503 0
M  V30 624 N 57.6459 0.756429 -1.3826 0
M  V30 625 C 58.8919 1.51772 -1.34511 0
M  V30 626 C 59.2249 1.94089 0.0656691 0
M  V30 627 O 58.4999 1.65221 1.02626 0
M  V30 628 C 58.7829 2.77226 -2.29821 0
M  V30 629 C 58.6359 2.41065 -3.79747 0
M  V30 630 C 59.9549 3.79236 -2.23312 0
M  V30 631 H 57.0739 0.550578 -0.489931 0
M  V30 632 H 59.7159 0.866607 -1.69086 0
M  V30 633 H 57.8659 3.32784 -2.00467 0
M  V30 634 H 59.5379 1.91303 -4.19763 0
M  V30 635 H 57.7809 1.7356 -3.97567 0
M  V30 636 H 58.4519 3.3081 -4.41892 0
M  V30 637 H 60.9279 3.3321 -2.49219 0
M  V30 638 H 59.8039 4.64714 -2.92116 0
M  V30 639 H 60.0649 4.24615 -1.23102 0
M  V30 640 N 59.124 1.23083 0.984299 0
M  V30 641 C 60.401 0.9689 1.69917 0
M  V30 642 C 60.781 -0.513604 2.04757 0
M  V30 643 O 60.129 -1.48383 1.73767 0
M  V30 644 C 60.339 1.87518 2.94343 0
M  V30 645 C 61.687 2.13636 3.6694 0
M  V30 646 O 62.711 1.85036 3.04368 0
M  V30 647 O 61.57 2.62119 4.79537 0
M  V30 648 H 58.664 0.365095 0.742048 0
M  V30 649 H 61.21 1.34107 1.03987 0
M  V30 650 H 59.982 2.87756 2.65164 0
M  V30 651 H 59.605 1.50514 3.6801 0
M  V30 652 N 60.6021 -1.18246 1.0419 0
M  V30 653 C 61.5321 -2.24127 0.654914 0
M  V30 654 C 62.5131 -1.66617 -0.342451 0
M  V30 655 O 63.6981 -1.92924 -0.222277 0
M  V30 656 C 60.8281 -3.47295 0.0183757 0
M  V30 657 C 59.7821 -4.17563 0.939414 0
M  V30 658 C 59.1081 -5.34438 0.167286 0
M  V30 659 C 60.4081 -4.70917 2.25908 0
M  V30 660 H 62.1021 -2.56753 1.54007 0
M  V30 661 H 59.6481 -1.23414 0.74195 0
M  V30 662 H 61.6011 -4.20572 -0.264082 0
M  V30 663 H 60.3251 -3.13907 -0.901664 0
M  V30 664 H 58.9841 -3.46186 1.20628 0
M  V30 665 H 58.6321 -4.97298 -0.7552 0
M  V30 666 H 58.3321 -5.82388 0.780901 0
M  V30 667 H 59.8561 -6.10504 -0.108125 0
M  V30 668 H 61.2701 -5.35882 2.03724 0
M  V30 669 H 59.6671 -5.29406 2.82577 0
M  V30 670 H 60.7371 -3.88272 2.9047 0
M  V30 671 N 62.0802 -0.821533 -1.34494 0
M  V30 672 C 63.0282 -0.230702 -2.31453 0
M  V30 673 C 64.0222 0.627793 -1.57338 0
M  V30 674 O 65.2282 0.519288 -1.72347 0
M  V30 675 H 61.6032 -0.0558577 -0.749923 0
M  V30 676 H 63.5742 -1.06332 -2.78812 0
M  V30 677 C 62.3232 0.59391 -3.4259 0
M  V30 678 H 61.6462 -0.0573588 -3.99759 0
M  V30 679 H 63.0862 0.973446 -4.12674 0
M  V30 680 C 61.5452 1.76568 -2.86924 0
M  V30 681 O 62.0752 2.8638 -2.81691 0
M  V30 682 N 60.2812 1.58198 -2.43766 0
M  V30 683 H 59.8282 0.68872 -2.48222 0
M  V30 684 H 59.7862 2.36752 -2.06871 0
M  V30 685 N 63.5583 1.46682 -0.576371 0
M  V30 686 C 64.8043 2.03287 -0.0679305 0
M  V30 687 C 65.1593 1.44063 1.27529 0
M  V30 688 O 64.4523 0.593973 1.82161 0
M  V30 689 C 64.6463 3.57345 0.062886 0
M  V30 690 C 64.4753 4.31509 -1.26611 0
M  V30 691 C 63.2453 4.70664 -1.83856 0
M  V30 692 C 65.4433 4.65444 -2.18783 0
M  V30 693 N 63.4253 5.29552 -3.10561 0
M  V30 694 C 64.7963 5.24835 -3.30072 0
M  V30 695 C 66.8513 4.47375 -2.18542 0
M  V30 696 C 65.5543 5.68063 -4.41244 0
M  V30 697 C 67.5803 4.91614 -3.28739 0
M  V30 698 C 66.9423 5.51071 -4.38748 0
M  V30 699 H 63.0413 0.779083 -0.0674836 0
M  V30 700 H 65.6253 1.78918 -0.767877 0
M  V30 701 H 63.7963 3.8144 0.731988 0
M  V30 702 H 65.5283 4.00592 0.575134 0
M  V30 703 H 62.2833 4.53224 -1.37424 0
M  V30 704 H 62.7073 5.63523 -3.75195 0
M  V30 705 H 67.3493 4.00747 -1.34765 0
M  V30 706 H 65.0673 6.13672 -5.25768 0
M  V30 707 H 68.6533 4.79389 -3.29662 0
M  V30 708 H 67.5333 5.84678 -5.22611 0
M  V30 709 N 65.0364 0.313813 1.54444 0
M  V30 710 C 66.2764 -0.292389 2.02298 0
M  V30 711 C 66.6404 -1.50105 1.19719 0
M  V30 712 O 67.8414 -2.17947 1.5733 0
M  V30 713 C 66.1124 -0.627682 3.51845 0
M  V30 714 S 67.6714 -1.21493 4.21646 0
M  V30 715 H 64.4894 -0.0890247 0.705405 0
M  V30 716 H 67.0914 0.444668 1.90376 0
M  V30 717 H 65.7954 0.260265 4.09574 0
M  V30 718 H 65.3264 -1.39519 3.67829 0
M  V30 719 H 67.3414 -2.5022 4.28491 0
M  V30 720 N 66.5145 -1.57545 0.0417849 0
M  V30 721 C 67.7605 -1.92601 -0.635021 0
M  V30 722 C 68.0935 -0.919627 -1.71045 0
M  V30 723 O 67.3685 0.0557892 -1.9442 0
M  V30 724 C 67.6515 -3.38085 -1.23979 0
M  V30 725 C 67.5045 -4.49467 -0.173057 0
M  V30 726 C 68.8235 -3.83776 -2.15416 0
M  V30 727 H 65.9425 -0.700397 -0.229374 0
M  V30 728 H 68.5845 -1.89728 0.101633 0
M  V30 729 H 66.7345 -3.40664 -1.86762 0
M  V30 730 H 68.4065 -4.59018 0.458312 0
M  V30 731 H 66.6495 -4.30909 0.499996 0
M  V30 732 H 67.3205 -5.48323 -0.636054 0
M  V30 733 H 69.7965 -3.83013 -1.62605 0
M  V30 734 H 68.6725 -4.8624 -2.54679 0
M  V30 735 H 68.9335 -3.19998 -3.05047 0
M  V30 736 N 67.9926 0.231505 -1.5589 0
M  V30 737 C 69.2416 0.955346 -1.7764 0
M  V30 738 C 69.5546 1.85893 -0.608546 0
M  V30 739 O 70.7606 2.62067 -0.70943 0
M  V30 740 C 69.2166 1.74886 -3.14552 0
M  V30 741 C 68.8246 0.891915 -4.39032 0
M  V30 742 C 70.5686 2.46452 -3.45633 0
M  V30 743 C 68.4756 1.68221 -5.66971 0
M  V30 744 H 67.4056 0.360446 -0.662265 0
M  V30 745 H 70.0566 0.209516 -1.823 0
M  V30 746 H 68.4386 2.53723 -3.04041 0
M  V30 747 H 69.6126 0.144793 -4.60572 0
M  V30 748 H 67.9276 0.288863 -4.15397 0
M  V30 749 H 70.5246 3.06061 -4.38441 0
M  V30 750 H 70.8676 3.18841 -2.67668 0
M  V30 751 H 71.4006 1.74613 -3.57428 0
M  V30 752 H 68.1396 1.00178 -6.478 0
M  V30 753 H 67.6596 2.4042 -5.49507 0
M  V30 754 H 69.3386 2.24544 -6.06786 0
M  V30 755 N 69.4707 1.49531 0.497807 0
M  V30 756 C 70.6957 1.63159 1.28039 0
M  V30 757 C 71.1207 0.30418 1.85624 0
M  V30 758 O 70.4787 -0.728618 1.66015 0
M  V30 759 C 70.5267 2.70537 2.38416 0
M  V30 760 O 69.6307 2.29931 3.42353 0
M  V30 761 H 68.9717 0.546001 0.377861 0
M  V30 762 H 71.5017 1.9574 0.59558 0
M  V30 763 H 71.5117 2.92802 2.84132 0
M  V30 764 H 70.1867 3.6689 1.95869 0
M  V30 765 H 68.7637 2.18009 3.02533 0
M  V30 766 N 70.9488 -0.749086 1.3866 0
M  V30 767 C 72.2258 -1.4992 1.25632 0
M  V30 768 C 72.6058 -2.10633 -0.140317 0
M  V30 769 O 71.9538 -1.97437 -1.15025 0
M  V30 770 C 72.1638 -2.56195 2.36992 0
M  V30 771 C 73.5118 -3.22972 2.75634 0
M  V30 772 O 74.5358 -2.66502 2.36337 0
M  V30 773 O 73.3948 -4.25122 3.43415 0
M  V30 774 H 70.4888 -0.665067 0.491544 0
M  V30 775 H 73.0348 -0.784113 1.50498 0
M  V30 776 H 71.8068 -2.09612 3.30422 0
M  V30 777 H 71.4298 -3.35279 2.13714 0
M  V30 778 N 72.4269 -1.23603 -0.977757 0
M  V30 779 C 73.3599 -0.962772 -2.06896 0
M  V30 780 C 74.3379 0.0998743 -1.62293 0
M  V30 781 O 75.5219 -0.0349421 -1.88468 0
M  V30 782 C 72.6489 -0.45095 -3.35685 0
M  V30 783 C 71.6949 -1.50061 -3.99229 0
M  V30 784 S 72.5279 -3.07884 -4.38142 0
M  V30 785 C 73.6839 -2.58378 -5.7008 0
M  V30 786 H 73.9169 -1.88677 -2.29757 0
M  V30 787 H 71.4499 -1.06876 -1.11431 0
M  V30 788 H 73.4079 -0.162261 -4.10179 0
M  V30 789 H 72.0689 0.452179 -3.10828 0
M  V30 790 H 71.2619 -1.09269 -4.92013 0
M  V30 791 H 70.8639 -1.73878 -3.31123 0
M  V30 792 H 73.1559 -2.00563 -6.47133 0
M  V30 793 H 74.0989 -3.49711 -6.15717 0
M  V30 794 H 74.5069 -1.99143 -5.28207 0
M  V30 795 N 73.905 1.17692 -1.04816 0
M  V30 796 C 74.815 2.25229 -0.65643 0
M  V30 797 C 75.831 1.71018 0.320761 0
M  V30 798 O 77.007 2.00649 0.173805 0
M  V30 799 C 74.072 3.46684 -0.0332629 0
M  V30 800 C 73.133 4.15997 -1.06042 0
M  V30 801 C 72.366 5.31654 -0.466893 0
M  V30 802 O 72.589 5.65777 0.724758 0
M  V30 803 O 71.523 5.89831 -1.1993 0
M  V30 804 H 75.349 2.61016 -1.55255 0
M  V30 805 H 72.934 1.24919 -0.81949 0
M  V30 806 H 74.816 4.20234 0.313256 0
M  V30 807 H 73.491 3.12703 0.836566 0
M  V30 808 H 72.398 3.44482 -1.45886 0
M  V30 809 H 73.731 4.53996 -1.90127 0
M  V30 810 N 75.3831 0.828654 1.34056 0
M  V30 811 C 76.6291 0.42008 1.98402 0
M  V30 812 C 76.9621 -1.01564 1.65525 0
M  V30 813 O 76.2371 -1.70834 0.929831 0
M  V30 814 C 76.5201 0.62927 3.54559 0
M  V30 815 C 76.3731 2.11152 3.97159 0
M  V30 816 C 77.6921 0.0688756 4.40046 0
M  V30 817 H 74.8111 0.154104 0.720709 0
M  V30 818 H 77.4531 1.04228 1.5886 0
M  V30 819 H 75.6031 0.0996418 3.88372 0
M  V30 820 H 77.2751 2.70522 3.73651 0
M  V30 821 H 75.5181 2.59985 3.47261 0
M  V30 822 H 76.1891 2.20868 5.05887 0
M  V30 823 H 78.6651 0.521458 4.1282 0
M  V30 824 H 77.5411 0.245006 5.48353 0
M  V30 825 H 77.8021 -1.0266 4.30015 0
M  V30 826 N 76.8612 -1.46375 0.584142 0
M  V30 827 C 78.1102 -2.01585 0.0679741 0
M  V30 828 C 78.4232 -1.46109 -1.30045 0
M  V30 829 O 79.6292 -1.93148 -1.90804 0
M  V30 830 C 78.0852 -3.5983 0.0709207 0
M  V30 831 C 77.6932 -4.24303 1.43775 0
M  V30 832 C 79.4372 -4.22693 -0.391228 0
M  V30 833 C 77.3442 -5.74631 1.39834 0
M  V30 834 H 76.2742 -0.753689 0.0216421 0
M  V30 835 H 78.9252 -1.68093 0.736001 0
M  V30 836 H 77.3072 -3.90405 -0.663299 0
M  V30 837 H 78.4812 -4.05335 2.19181 0
M  V30 838 H 76.7962 -3.73539 1.84004 0
M  V30 839 H 79.3932 -5.3289 -0.439524 0
M  V30 840 H 79.7362 -3.91728 -1.40906 0
M  V30 841 H 80.2692 -3.96749 0.288974 0
M  V30 842 H 77.0082 -6.10258 2.39303 0
M  V30 843 H 76.5282 -5.95858 0.686505 0
M  V30 844 H 78.2072 -6.37375 1.11187 0
M  V30 845 N 78.3393 -0.321999 -1.54275 0
M  V30 846 C 79.2493 0.553631 -2.27974 0
M  V30 847 C 80.2653 1.13054 -1.32268 0
M  V30 848 O 81.4413 1.15084 -1.6528 0
M  V30 849 C 78.5063 1.69927 -3.02201 0
M  V30 850 C 77.5673 1.15433 -4.1349 0
M  V30 851 C 76.8003 2.24537 -4.84168 0
M  V30 852 O 77.0233 3.44852 -4.5435 0
M  V30 853 O 75.9573 1.90044 -5.7111 0
M  V30 854 H 79.7833 -0.0448345 -3.03667 0
M  V30 855 H 77.3683 -0.0877418 -1.49142 0
M  V30 856 H 79.2503 2.3663 -3.48689 0
M  V30 857 H 77.9253 2.28395 -2.29385 0
M  V30 858 H 76.8323 0.452436 -3.71354 0
M  V30 859 H 78.1653 0.614805 -4.88345 0
M  V30 860 N 79.8174 1.5752 -0.0501392 0
M  V30 861 C 80.7474 2.14502 0.922566 0
M  V30 862 C 81.7284 1.06642 1.3252 0
M  V30 863 O 82.9134 1.34577 1.4001 0
M  V30 864 C 80.0434 2.68916 2.19776 0
M  V30 865 C 78.9974 3.8175 1.93523 0
M  V30 866 C 78.3234 4.22677 3.27487 0
M  V30 867 C 79.6234 5.06932 1.25765 0
M  V30 868 H 81.3174 2.9603 0.447952 0
M  V30 869 H 78.8634 1.42401 0.214024 0
M  V30 870 H 80.8164 3.07419 2.88222 0
M  V30 871 H 79.5404 1.84578 2.69441 0
M  V30 872 H 78.1994 3.43718 1.27489 0
M  V30 873 H 77.8474 3.35291 3.74952 0
M  V30 874 H 77.5474 4.98725 3.1072 0
M  V30 875 H 79.0714 4.63779 3.97166 0
M  V30 876 H 80.4854 5.42888 1.84244 0
M  V30 877 H 78.8824 5.88116 1.19328 0
M  V30 878 H 79.9524 4.84337 0.233536 0
M  V30 879 N 81.2955 -0.223234 1.56011 0
M  V30 880 C 82.2435 -1.29627 1.93131 0
M  V30 881 C 83.2375 -1.48608 0.813146 0
M  V30 882 O 84.4435 -1.49802 0.997966 0
M  V30 883 H 80.8185 -0.434563 0.613726 0
M  V30 884 H 82.7895 -0.955995 2.82672 0
M  V30 885 C 81.5385 -2.63983 2.26292 0
M  V30 886 H 80.8615 -2.50185 3.11846 0
M  V30 887 H 82.3015 -3.3788 2.56151 0
M  V30 888 C 80.7605 -3.18866 1.08747 0
M  V30 889 O 81.2905 -4.00192 0.347727 0
M  V30 890 N 79.4965 -2.77217 0.871743 0
M  V30 891 H 79.0435 -2.1119 1.47501 0
M  V30 892 H 79.0015 -3.1428 0.0869905 0
M  V30 893 N 82.7736 -1.49793 -0.48987 0
M  V30 894 C 83.7206 -1.67281 -1.59014 0
M  V30 895 C 84.6906 -0.514177 -1.57941 0
M  V30 896 O 85.8756 -0.742533 -1.75759 0
M  V30 897 C 83.0156 -1.75569 -2.97102 0
M  V30 898 C 82.1286 -3.0281 -3.08107 0
M  V30 899 C 81.2636 -3.02008 -4.36995 0
M  V30 900 C 80.3026 -4.23782 -4.41673 0
M  V30 901 N 79.4396 -4.20826 -5.62005 0
M  V30 902 H 84.2796 -2.61224 -1.43409 0
M  V30 903 H 81.8166 -1.29508 -0.697565 0
M  V30 904 H 83.7746 -1.78354 -3.77155 0
M  V30 905 H 82.4046 -0.850827 -3.11385 0
M  V30 906 H 81.4566 -3.09584 -2.21047 0
M  V30 907 H 82.7686 -3.92801 -3.07423 0
M  V30 908 H 81.9226 -3.03418 -5.25378 0
M  V30 909 H 80.6616 -2.09815 -4.4026 0
M  V30 910 H 79.6666 -4.22604 -3.5169 0
M  V30 911 H 80.8916 -5.17181 -4.40115 0
M  V30 912 H 78.8376 -3.31476 -5.66091 0
M  V30 913 H 78.7546 -5.04564 -5.62984 0
M  V30 914 H 80.0226 -4.26355 -6.52565 0
M  V30 915 N 84.2517 0.741722 -1.39055 0
M  V30 916 C 85.4917 1.51385 -1.37338 0
M  V30 917 C 85.8557 1.91972 0.0330513 0
M  V30 918 O 87.0567 2.68229 0.175174 0
M  V30 919 C 85.3277 2.72481 -2.31276 0
M  V30 920 S 86.8867 3.62211 -2.47687 0
M  V30 921 H 83.7047 0.517906 -0.487129 0
M  V30 922 H 86.3067 0.86969 -1.7509 0
M  V30 923 H 85.0107 2.40793 -3.32336 0
M  V30 924 H 84.5417 3.41832 -1.94716 0
M  V30 925 H 86.5567 4.65812 -1.70978 0
M  V30 926 N 85.7298 1.2412 0.971189 0
M  V30 927 C 86.9578 1.10575 1.74874 0
M  V30 928 C 87.3728 -0.342017 1.85676 0
M  V30 929 O 86.7298 -1.23617 1.34258 0
M  V30 930 C 86.7808 1.73579 3.171 0
M  V30 931 O 86.5018 3.12695 3.06844 0
M  V30 932 C 88.0028 1.65598 4.11208 0
M  V30 933 H 85.2228 0.386504 0.548503 0
M  V30 934 H 87.7668 1.64156 1.21955 0
M  V30 935 H 85.9218 1.24009 3.67016 0
M  V30 936 H 86.3358 3.43412 3.96445 0
M  V30 937 H 87.8098 2.1437 5.08674 0
M  V30 938 H 88.2868 0.616532 4.34851 0
M  V30 939 H 88.8928 2.14578 3.67201 0
M  V30 940 N 87.2079 -1.17134 1.05439 0
M  V30 941 C 88.4329 -1.91913 0.786396 0
M  V30 942 C 88.8579 -1.7643 -0.652234 0
M  V30 943 O 88.2159 -1.08372 -1.45345 0
M  V30 944 C 88.2639 -3.40921 1.17497 0
M  V30 945 O 87.3679 -4.11244 0.308589 0
M  V30 946 H 86.7089 -0.598215 0.288158 0
M  V30 947 H 89.2389 -1.48457 1.4079 0
M  V30 948 H 89.2489 -3.91668 1.14281 0
M  V30 949 H 87.9239 -3.5151 2.22292 0
M  V30 950 H 86.5009 -3.70731 0.40157 0
M  V30 951 N 88.686 -0.835752 -1.33615 0
M  V30 952 C 89.934 -0.429109 -1.97492 0
M  V30 953 C 90.255 1.01433 -1.66543 0
M  V30 954 O 89.525 1.70611 -0.962744 0
M  V30 955 H 88.105 -0.155686 -0.730596 0
M  V30 956 H 90.767 -1.06802 -1.63031 0
M  V30 957 H 89.863 -0.55861 -3.0706 0
M  V30 958 N 90.1641 1.46063 -0.591896 0
M  V30 959 C 91.0961 2.28539 0.174001 0
M  V30 960 C 92.1091 1.39047 0.846753 0
M  V30 961 O 93.2981 1.63564 0.714774 0
M  V30 962 C 90.3981 3.14347 1.26645 0
M  V30 963 C 89.5711 4.32021 0.683856 0
M  V30 964 C 88.6301 4.99157 1.66518 0
M  V30 965 O 87.6561 5.56458 1.19763 0
M  V30 966 N 88.8581 4.97005 2.99943 0
M  V30 967 H 91.6231 2.94911 -0.533633 0
M  V30 968 H 89.1841 1.56077 -0.430294 0
M  V30 969 H 91.1761 3.56125 1.92242 0
M  V30 970 H 89.7461 2.49988 1.87682 0
M  V30 971 H 88.9661 3.93915 -0.1498 0
M  V30 972 H 90.2541 5.08059 0.274567 0
M  V30 973 H 89.6521 4.51714 3.40545 0
M  V30 974 H 88.2091 5.42696 3.61004 0
M  V30 975 N 91.6422 0.330177 1.54103 0
M  V30 976 C 92.8672 -0.274893 2.0557 0
M  V30 977 C 93.2922 -1.44487 1.20437 0
M  V30 978 O 92.6502 -1.80021 0.214991 0
M  V30 979 C 92.6982 -0.68079 3.54115 0
M  V30 980 O 91.8022 -1.7824 3.71893 0
M  V30 981 H 91.1432 -0.0483849 0.662235 0
M  V30 982 H 93.6732 0.480508 1.98878 0
M  V30 983 H 93.6832 -0.961635 3.96505 0
M  V30 984 H 92.3582 0.174903 4.15532 0
M  V30 985 H 90.9352 -1.49985 3.41407 0
M  V30 986 N 93.1203 -1.57491 0.0584922 0
M  V30 987 C 94.3673 -1.92978 -0.613648 0
M  V30 988 C 94.6953 -0.937461 -1.70417 0
M  V30 989 O 93.9503 0.049078 -1.95638 0
M  V30 990 C 94.2493 -3.3513 -1.24188 0
M  V30 991 C 93.9153 -4.50037 -0.278826 0
M  V30 992 C 92.5773 -4.81198 -0.0138447 0
M  V30 993 C 94.9293 -5.19807 0.380777 0
M  V30 994 C 92.2573 -5.79473 0.918052 0
M  V30 995 C 94.6093 -6.19079 1.30091 0
M  V30 996 C 93.2733 -6.48665 1.57449 0
M  V30 997 H 92.5433 -0.706157 -0.22455 0
M  V30 998 H 95.1903 -1.91082 0.126533 0
M  V30 999 H 93.4953 -3.33429 -2.05749 0
M  V30 1000 H 95.1923 -3.59871 -1.769 0
M  V30 1001 H 91.7823 -4.25726 -0.495539 0
M  V30 1002 H 95.9663 -4.95939 0.189158 0
M  V30 1003 H 91.2223 -6.00727 1.1374 0
M  V30 1004 H 95.3963 -6.7225 1.81804 0
M  V30 1005 H 93.0233 -7.24628 2.29822 0
M  V30 1006 N 94.5984 0.214957 -1.56127 0
M  V30 1007 C 95.5084 1.28727 -1.96129 0
M  V30 1008 C 96.5244 1.50916 -0.866044 0
M  V30 1009 O 97.7004 1.63918 -1.17016 0
M  V30 1010 C 94.7654 2.61569 -2.27558 0
M  V30 1011 C 93.8264 2.47625 -3.50685 0
M  V30 1012 C 93.0594 3.74132 -3.80606 0
M  V30 1013 O 93.2824 4.77438 -3.12104 0
M  V30 1014 O 92.2164 3.70849 -4.74083 0
M  V30 1015 H 96.0424 0.977855 -2.87527 0
M  V30 1016 H 93.6274 0.418358 -1.43423 0
M  V30 1017 H 95.5094 3.40012 -2.48938 0
M  V30 1018 H 94.1844 2.92178 -1.39332 0
M  V30 1019 H 93.0914 1.67361 -3.34576 0
M  V30 1020 H 94.4244 2.21954 -4.39315 0
M  V30 1021 N 96.0765 1.50051 0.48192 0
M  V30 1022 C 97.3225 1.60736 1.2366 0
M  V30 1023 C 97.6555 0.301786 1.91841 0
M  V30 1024 O 96.9305 -0.696025 1.8162 0
M  V30 1025 C 97.2135 2.78009 2.28874 0
M  V30 1026 C 97.0665 4.18416 1.65069 0
M  V30 1027 C 98.3855 2.90867 3.30279 0
M  V30 1028 H 95.5045 0.585031 0.448228 0
M  V30 1029 H 98.1465 1.82402 0.531946 0
M  V30 1030 H 96.2965 2.59667 2.88973 0
M  V30 1031 H 97.9685 4.48322 1.0865 0
M  V30 1032 H 96.2115 4.23177 0.954148 0
M  V30 1033 H 96.8825 4.96381 2.41474 0
M  V30 1034 H 99.3585 3.07623 2.80191 0
M  V30 1035 H 98.2345 3.74566 4.01238 0
M  V30 1036 H 98.4955 2.01021 3.93755 0
M  V30 1037 N 97.5546 -0.734337 1.39446 0
M  V30 1038 C 98.8036 -1.48937 1.36017 0
M  V30 1039 C 99.1166 -1.95557 -0.0409005 0
M  V30 1040 O 100.323 -2.70779 -0.19778 0
M  V30 1041 C 98.7786 -2.69125 2.38955 0
M  V30 1042 C 98.3866 -2.29452 3.8478 0
M  V30 1043 C 100.131 -3.46944 2.44603 0
M  V30 1044 C 98.0376 -3.46366 4.79358 0
M  V30 1045 H 96.9676 -0.559296 0.505672 0
M  V30 1046 H 99.6186 -0.800983 1.65095 0
M  V30 1047 H 98.0006 -3.40041 2.02948 0
M  V30 1048 H 99.1746 -1.66077 4.29831 0
M  V30 1049 H 97.4896 -1.64723 3.82433 0
M  V30 1050 H 100.087 -4.33907 3.12456 0
M  V30 1051 H 100.43 -3.89454 1.47076 0
M  V30 1052 H 100.963 -2.83056 2.79507 0
M  V30 1053 H 97.7016 -3.08905 5.78151 0
M  V30 1054 H 97.2216 -4.08719 4.38986 0
M  V30 1055 H 98.9006 -4.12691 4.98292 0
M  V30 1056 N 99.0327 -1.24633 -0.964593 0
M  V30 1057 C 99.9627 -1.06611 -2.07741 0
M  V30 1058 C 100.944 0.0218666 -1.70086 0
M  V30 1059 O 102.129 -0.145793 -1.93652 0
M  V30 1060 C 99.2587 -0.673444 -3.40708 0
M  V30 1061 C 98.2127 -1.71054 -3.92332 0
M  V30 1062 C 97.5387 -1.17285 -5.21678 0
M  V30 1063 C 98.8387 -3.10718 -4.19824 0
M  V30 1064 H 100.533 -1.99693 -2.23076 0
M  V30 1065 H 98.0787 -0.96152 -1.07195 0
M  V30 1066 H 100.032 -0.534345 -4.17998 0
M  V30 1067 H 98.7557 0.293073 -3.25282 0
M  V30 1068 H 97.4147 -1.83791 -3.17201 0
M  V30 1069 H 97.0627 -0.196847 -5.02615 0
M  V30 1070 H 96.7627 -1.86592 -5.57187 0
M  V30 1071 H 98.2867 -1.04593 -6.01575 0
M  V30 1072 H 99.7007 -3.01192 -4.87808 0
M  V30 1073 H 98.0977 -3.77406 -4.66567 0
M  V30 1074 H 99.1677 -3.58524 -3.26479 0
M  V30 1075 N 100.511 1.16574 -1.06058 0
M  V30 1076 C 101.458 2.20883 -0.669263 0
M  V30 1077 C 102.428 1.62729 0.332918 0
M  V30 1078 O 103.613 1.895 0.222346 0
M  V30 1079 C 100.753 3.45049 -0.0593572 0
M  V30 1080 C 99.8658 4.17458 -1.11143 0
M  V30 1081 C 99.0008 5.29135 -0.467916 0
M  V30 1082 C 98.0398 5.93343 -1.50369 0
M  V30 1083 N 97.1768 6.96516 -0.883706 0
M  V30 1084 H 102.017 2.53709 -1.5632 0
M  V30 1085 H 99.5538 1.24616 -0.781625 0
M  V30 1086 H 101.512 4.16033 0.311771 0
M  V30 1087 H 100.142 3.12781 0.797992 0
M  V30 1088 H 99.1938 3.45101 -1.60029 0
M  V30 1089 H 100.506 4.61307 -1.89731 0
M  V30 1090 H 99.6598 6.06684 -0.0436871 0
M  V30 1091 H 98.3988 4.86443 0.349864 0
M  V30 1092 H 97.4038 5.14517 -1.93784 0
M  V30 1093 H 98.6288 6.38114 -2.32352 0
M  V30 1094 H 96.5748 6.55943 -0.086595 0
M  V30 1095 H 96.4918 7.38723 -1.607 0
M  V30 1096 H 97.7598 7.77993 -0.484543 0
M  V30 1097 N 101.989 0.842826 1.3317 0
M  V30 1098 C 103.4 0.496651 1.79973 0
M  V30 1099 C 103.751 -0.984641 1.69703 0
M  V30 1100 O 102.876 -1.76743 1.24863 0
M  V30 1101 C 103.471 0.894727 3.26772 0
M  V30 1102 C 102.03 0.600629 3.71577 0
M  V30 1103 C 101.177 1.10091 2.5451 0
M  V30 1104 H 104.128 1.03116 1.20635 0
M  V30 1105 H 104.149 0.206347 3.7994 0
M  V30 1106 H 103.661 1.97287 3.34215 0
M  V30 1107 H 101.762 -0.467284 3.69658 0
M  V30 1108 H 101.875 1.15863 4.64879 0
M  V30 1109 H 100.239 0.52162 2.49301 0
M  V30 1110 H 101.022 2.18591 2.64713 0
M  V30 1111 N 103.467 -1.45747 0.599634 0
M  V30 1112 C 104.878 -1.85853 0.177681 0
M  V30 1113 C 105.229 -1.50102 -1.26348 0
M  V30 1114 O 104.354 -0.923905 -1.95686 0
M  V30 1115 C 104.949 -3.37326 0.315688 0
M  V30 1116 C 103.508 -3.76365 -0.0515144 0
M  V30 1117 C 102.655 -2.69722 0.643822 0
M  V30 1118 H 105.606 -1.36661 0.806814 0
M  V30 1119 H 105.627 -3.77778 -0.454321 0
M  V30 1120 H 105.139 -3.63315 1.36468 0
M  V30 1121 H 103.24 -3.55993 -1.09999 0
M  V30 1122 H 103.353 -4.77916 0.336594 0
M  V30 1123 H 101.717 -2.54567 0.0822881 0
M  V30 1124 H 102.5 -2.98549 1.6948 0
M  V30 1125 N 104.945 -0.338344 -1.53925 0
M  V30 1126 C 106.17 0.263987 -2.05713 0
M  V30 1127 C 106.595 1.43847 -1.21201 0
M  V30 1128 O 105.953 1.79904 -0.224535 0
M  V30 1129 C 106.001 0.662 -3.54471 0
M  V30 1130 O 105.105 1.76265 -3.72833 0
M  V30 1131 H 104.446 0.0448722 -0.662482 0
M  V30 1132 H 106.976 -0.491048 -1.9862 0
M  V30 1133 H 106.986 0.940594 -3.9701 0
M  V30 1134 H 105.661 -0.196937 -4.15433 0
M  V30 1135 H 104.238 1.48173 -3.42198 0
M  V30 1136 N 106.423 1.57458 -0.0668435 0
M  V30 1137 C 107.67 1.93301 0.603406 0
M  V30 1138 C 107.998 0.946486 1.69917 0
M  V30 1139 O 107.253 -0.0387021 1.95662 0
M  V30 1140 C 107.552 3.35784 1.22409 0
M  V30 1141 C 107.218 4.50179 0.254955 0
M  V30 1142 C 105.88 4.81199 -0.0116746 0
M  V30 1143 C 108.232 5.19598 -0.408338 0
M  V30 1144 C 105.56 5.78978 -0.94877 0
M  V30 1145 C 107.912 6.18381 -1.33372 0
M  V30 1146 C 106.576 6.47821 -1.60887 0
M  V30 1147 H 105.846 0.707338 0.220802 0
M  V30 1148 H 108.493 1.91012 -0.136665 0
M  V30 1149 H 106.798 3.34515 2.03978 0
M  V30 1150 H 108.495 3.60804 1.74989 0
M  V30 1151 H 105.085 4.25983 0.472954 0
M  V30 1152 H 109.269 4.95832 -0.215456 0
M  V30 1153 H 104.525 6.00115 -1.16925 0
M  V30 1154 H 108.699 6.71277 -1.85367 0
M  V30 1155 H 106.326 7.23399 -2.33661 0
M  V30 1156 N 107.901 -0.206675 1.56239 0
M  V30 1157 C 109.178 -0.954051 1.70755 0
M  V30 1158 C 109.558 -2.01841 0.618353 0
M  V30 1159 O 108.906 -2.25444 -0.372434 0
M  V30 1160 C 109.116 -1.551 3.12642 0
M  V30 1161 C 110.464 -2.03757 3.72516 0
M  V30 1162 O 111.488 -1.64965 3.15698 0
M  V30 1163 O 110.347 -2.75103 4.72208 0
M  V30 1164 H 107.441 -0.446636 0.696021 0
M  V30 1165 H 109.987 -0.197283 1.68549 0
M  V30 1166 H 108.759 -0.783212 3.83382 0
M  V30 1167 H 108.382 -2.37291 3.19028 0
M  V30 1168 N 109.379 -1.50304 -0.473955 0
M  V30 1169 C 110.627 -1.60832 -1.22382 0
M  V30 1170 C 110.948 -0.30939 -1.9253 0
M  V30 1171 O 110.218 0.67296 -1.83978 0
M  V30 1172 H 108.798 -0.592652 -0.454723 0
M  V30 1173 H 111.46 -1.87068 -0.546968 0
M  V30 1174 H 110.556 -2.41803 -1.97327 0
M  V30 1175 N 110.857 0.726932 -1.39834 0
M  V30 1176 C 112.103 1.48884 -1.377 0
M  V30 1177 C 112.436 1.94185 0.0244852 0
M  V30 1178 O 111.711 1.67361 0.990986 0
M  V30 1179 C 111.994 2.72288 -2.3565 0
M  V30 1180 C 111.847 2.32956 -3.84775 0
M  V30 1181 C 113.166 3.74414 -2.31306 0
M  V30 1182 H 110.285 0.540062 -0.5015 0
M  V30 1183 H 112.927 0.830547 -1.70886 0
M  V30 1184 H 111.077 3.28457 -2.07481 0
M  V30 1185 H 112.749 1.82356 -4.23726 0
M  V30 1186 H 110.992 1.65088 -4.01159 0
M  V30 1187 H 111.663 3.21362 -4.4881 0
M  V30 1188 H 114.139 3.27849 -2.56231 0
M  V30 1189 H 113.015 4.58414 -3.01907 0
M  V30 1190 H 113.276 4.21909 -1.32081 0
M  V30 1191 N 112.336 1.25143 0.95797 0
M  V30 1192 C 113.747 1.08851 1.51685 0
M  V30 1193 C 114.098 -0.33687 1.93286 0
M  V30 1194 O 113.223 -1.22644 1.7829 0
M  V30 1195 C 113.818 1.96978 2.75654 0
M  V30 1196 C 112.377 1.84881 3.27866 0
M  V30 1197 C 111.524 1.91329 2.0072 0
M  V30 1198 H 114.475 1.38478 0.77522 0
M  V30 1199 H 114.496 1.5078 3.4935 0
M  V30 1200 H 114.008 3.00712 2.45345 0
M  V30 1201 H 112.109 0.840182 3.63004 0
M  V30 1202 H 112.222 2.6951 3.96107 0
M  V30 1203 H 110.586 1.35174 2.15871 0
M  V30 1204 H 111.369 2.96661 1.72764 0
M  V30 1205 N 113.814 -1.1601 1.06675 0
M  V30 1206 C 114.724 -2.24156 0.692179 0
M  V30 1207 C 115.74 -1.71507 -0.293513 0
M  V30 1208 O 116.916 -2.009 -0.141861 0
M  V30 1209 C 113.981 -3.46587 0.0884131 0
M  V30 1210 C 113.042 -4.14257 1.12646 0
M  V30 1211 C 112.275 -5.30844 0.551416 0
M  V30 1212 O 112.498 -5.66858 -0.634656 0
M  V30 1213 O 111.432 -5.87848 1.29298 0
M  V30 1214 H 115.258 -2.58513 1.59388 0
M  V30 1215 H 112.843 -1.23599 0.83926 0
M  V30 1216 H 114.725 -4.20679 -0.246361 0
M  V30 1217 H 113.4 -3.13994 -0.786712 0
M  V30 1218 H 112.307 -3.42118 1.51348 0
M  V30 1219 H 113.64 -4.50914 1.97325 0
M  V30 1220 N 115.292 -0.849877 -1.32721 0
M  V30 1221 C 116.539 -0.450923 -1.97416 0
M  V30 1222 C 116.867 0.992376 -1.67279 0
M  V30 1223 O 116.122 1.71048 -0.950845 0
M  V30 1224 C 116.421 -0.631272 -3.51781 0
M  V30 1225 C 116.087 -2.04432 -4.01894 0
M  V30 1226 C 114.749 -2.4308 -4.1529 0
M  V30 1227 C 117.101 -2.96679 -4.28522 0
M  V30 1228 C 114.429 -3.73257 -4.52654 0
M  V30 1229 C 116.781 -4.26349 -4.67343 0
M  V30 1230 C 115.445 -4.64939 -4.78945 0
M  V30 1231 H 114.715 -0.165004 -0.722395 0
M  V30 1232 H 117.362 -1.07901 -1.58207 0
M  V30 1233 H 115.667 0.0800767 -3.91718 0
M  V30 1234 H 117.364 -0.302709 -3.99856 0
M  V30 1235 H 113.954 -1.73419 -3.91949 0
M  V30 1236 H 118.138 -2.68054 -4.17685 0
M  V30 1237 H 113.394 -4.02946 -4.59831 0
M  V30 1238 H 117.568 -4.97895 -4.86902 0
M  V30 1239 H 115.195 -5.65855 -5.07654 0
M  V30 1240 N 116.77 1.45427 -0.607355 0
M  V30 1241 C 117.718 2.32269 0.12411 0
M  V30 1242 C 118.712 1.45955 0.859854 0
M  V30 1243 O 119.918 1.6244 0.775447 0
M  V30 1244 H 116.293 0.749691 0.0588839 0
M  V30 1245 H 118.264 2.91743 -0.626762 0
M  V30 1246 C 117.013 3.29567 1.1082 0
M  V30 1247 H 116.336 3.95978 0.551492 0
M  V30 1248 H 117.776 3.93061 1.58995 0
M  V30 1249 C 116.235 2.56722 2.18164 0
M  V30 1250 O 116.765 2.34842 3.25902 0
M  V30 1251 N 114.971 2.16861 1.93442 0
M  V30 1252 H 114.518 2.34855 1.05834 0
M  V30 1253 H 114.476 1.68444 2.65469 0
M  V30 1254 N 118.248 0.346503 1.53744 0
M  V30 1255 C 119.211 -0.496439 2.23759 0
M  V30 1256 C 120.211 -1.0252 1.2388 0
M  V30 1257 O 121.401 -0.913974 1.48297 0
M  V30 1258 C 118.533 -1.69187 2.95954 0
M  V30 1259 H 119.726 0.115952 2.99676 0
M  V30 1260 H 117.279 0.0978939 1.55993 0
M  V30 1261 H 118.014 -2.34288 2.24231 0
M  V30 1262 H 117.799 -1.31989 3.69217 0
M  V30 1263 H 119.289 -2.28969 3.49232 0
M  V30 1264 N 119.726 -1.57421 0.075193 0
M  V30 1265 C 120.951 -1.98364 -0.605515 0
M  V30 1266 C 121.376 -0.953383 -1.62149 0
M  V30 1267 O 120.734 0.0806053 -1.81121 0
M  V30 1268 C 120.782 -3.38332 -1.24756 0
M  V30 1269 O 119.886 -3.37959 -2.36342 0
M  V30 1270 H 119.227 -0.645553 -0.155428 0
M  V30 1271 H 121.757 -2.04044 0.150714 0
M  V30 1272 H 121.767 -3.75591 -1.5936 0
M  V30 1273 H 120.442 -4.12846 -0.503129 0
M  V30 1274 H 119.019 -3.12474 -2.03506 0
M  V30 1275 N 121.204 0.198386 -1.56346 0
M  V30 1276 C 122.134 1.24865 -1.9731 0
M  V30 1277 C 123.115 1.47651 -0.844576 0
M  V30 1278 O 124.3 1.59444 -1.10866 0
M  V30 1279 C 121.43 2.59358 -2.30977 0
M  V30 1280 C 120.384 2.5119 -3.46537 0
M  V30 1281 C 119.71 3.89926 -3.65871 0
M  V30 1282 C 121.01 2.03977 -4.80823 0
M  V30 1283 H 122.704 0.908252 -2.85291 0
M  V30 1284 H 120.25 0.435462 -1.37258 0
M  V30 1285 H 122.203 3.33011 -2.58228 0
M  V30 1286 H 120.927 2.95132 -1.39874 0
M  V30 1287 H 119.586 1.79993 -3.19371 0
M  V30 1288 H 119.234 4.23046 -2.72105 0
M  V30 1289 H 118.934 3.85336 -4.4361 0
M  V30 1290 H 120.458 4.65205 -3.95495 0
M  V30 1291 H 121.872 2.67386 -5.07127 0
M  V30 1292 H 120.269 2.10397 -5.62008 0
M  V30 1293 H 121.339 0.992861 -4.74626 0
M  V30 1294 N 122.682 1.50554 0.465978 0
M  V30 1295 C 124.093 1.54599 1.04671 0
M  V30 1296 C 124.444 0.352488 1.93008 0
M  V30 1297 O 123.569 -0.534044 2.09707 0
M  V30 1298 C 124.164 2.80166 1.90505 0
M  V30 1299 C 122.723 2.86876 2.43678 0
M  V30 1300 C 121.87 2.48947 1.22151 0
M  V30 1301 H 124.821 1.56744 0.248384 0
M  V30 1302 H 124.842 2.62311 2.75633 0
M  V30 1303 H 124.354 3.67013 1.26186 0
M  V30 1304 H 122.455 2.04393 3.11536 0
M  V30 1305 H 122.568 3.89885 2.78436 0
M  V30 1306 H 120.932 2.01498 1.5579 0
M  V30 1307 H 121.715 3.38107 0.594866 0
M  V30 1308 N 124.16 -0.719506 1.40217 0
M  V30 1309 C 125.576 -1.02707 1.22161 0
M  V30 1310 C 125.776 -2.0128 0.0940557 0
M  V30 1311 O 124.832 -2.46452 -0.549318 0
M  V30 1312 C 126.145 -1.57454 2.56181 0
M  V30 1313 C 127.693 -1.69458 2.63159 0
M  V30 1314 C 128.168 -2.27611 3.97438 0
M  V30 1315 N 129.659 -2.35002 3.99159 0
M  V30 1316 C 130.394 -2.80972 4.99842 0
M  V30 1317 N 129.89 -3.26723 6.10921 0
M  V30 1318 N 131.683 -2.80321 4.87213 0
M  V30 1319 H 123.834 -0.0660492 2.12297 0
M  V30 1320 H 126.097 -0.0919077 0.943534 0
M  V30 1321 H 125.803 -0.924873 3.39321 0
M  V30 1322 H 125.677 -2.56036 2.76993 0
M  V30 1323 H 128.064 -2.33543 1.80393 0
M  V30 1324 H 128.145 -0.694867 2.46181 0
M  V30 1325 H 127.789 -1.6415 4.80643 0
M  V30 1326 H 127.719 -3.2829 4.11744 0
M  V30 1327 H 130.21 -2.02685 3.18947 0
M  V30 1328 H 130.523 -3.60355 6.8364 0
M  V30 1329 H 128.868 -3.24692 6.14492 0
M  V30 1330 H 132.059 -2.43912 3.9953 0
M  V30 1331 H 132.232 -3.15831 5.65822 0
M  V30 1332 N 125.638 -1.25649 -0.95132 0
M  V30 1333 C 127.054 -1.02542 -1.223 0
M  V30 1334 C 127.254 0.255715 -1.99871 0
M  V30 1335 O 126.31 0.967558 -2.33226 0
M  V30 1336 C 127.623 -2.25065 -1.99415 0
M  V30 1337 C 129.171 -2.29861 -2.12446 0
M  V30 1338 C 129.646 -3.52048 -2.92961 0
M  V30 1339 N 131.137 -3.52465 -3.00538 0
M  V30 1340 C 131.872 -4.43672 -3.63239 0
M  V30 1341 N 131.368 -5.45157 -4.27523 0
M  V30 1342 N 133.161 -4.31346 -3.60412 0
M  V30 1343 H 125.312 -2.07951 -0.432471 0
M  V30 1344 H 127.575 -0.91339 -0.253816 0
M  V30 1345 H 127.281 -3.18194 -1.49817 0
M  V30 1346 H 127.155 -2.28502 -3.00111 0
M  V30 1347 H 129.542 -1.37252 -2.61239 0
M  V30 1348 H 129.623 -2.3044 -1.11044 0
M  V30 1349 H 129.267 -4.44981 -2.44856 0
M  V30 1350 H 129.197 -3.48715 -3.94596 0
M  V30 1351 H 131.688 -2.79056 -2.54826 0
M  V30 1352 H 132.001 -6.10958 -4.73234 0
M  V30 1353 H 130.346 -5.49025 -4.26141 0
M  V30 1354 H 133.537 -3.51288 -3.09377 0
M  V30 1355 H 133.71 -5.02624 -4.0899 0
M  V30 1356 N 127.117 1.15442 -1.07289 0
M  V30 1357 C 128.533 1.38201 -0.798288 0
M  V30 1358 C 128.733 1.92429 0.597769 0
M  V30 1359 O 127.789 2.12962 1.3566 0
M  V30 1360 C 129.102 2.35357 -1.87156 0
M  V30 1361 C 130.65 2.49021 -1.89624 0
M  V30 1362 C 131.125 3.49468 -2.96034 0
M  V30 1363 N 132.616 3.57003 -2.95132 0
M  V30 1364 C 133.351 4.34543 -3.74112 0
M  V30 1365 N 132.847 5.15421 -4.6294 0
M  V30 1366 N 134.64 4.29625 -3.62462 0
M  V30 1367 H 126.791 0.78584 -1.97328 0
M  V30 1368 H 129.054 0.408065 -0.855679 0
M  V30 1369 H 128.76 2.02626 -2.87464 0
M  V30 1370 H 128.634 3.35129 -1.73114 0
M  V30 1371 H 131.021 2.81051 -0.899687 0
M  V30 1372 H 131.102 1.4925 -2.07745 0
M  V30 1373 H 130.746 3.18173 -3.95889 0
M  V30 1374 H 130.676 4.48992 -2.75161 0
M  V30 1375 H 133.167 2.99276 -2.30743 0
M  V30 1376 H 133.48 5.7183 -5.19837 0
M  V30 1377 H 131.825 5.14729 -4.66989 0
M  V30 1378 H 135.016 3.65505 -2.92444 0
M  V30 1379 H 135.189 4.89807 -4.24256 0
M  V30 1380 N 128.595 0.856903 1.32268 0
M  V30 1381 C 129.872 0.382583 1.91822 0
M  V30 1382 C 130.252 -1.13407 1.78051 0
M  V30 1383 O 129.6 -1.95673 1.18001 0
M  V30 1384 C 129.81 0.849446 3.38505 0
M  V30 1385 C 131.158 0.867936 4.15634 0
M  V30 1386 O 132.182 0.794232 3.47232 0
M  V30 1387 O 131.041 0.972286 5.37781 0
M  V30 1388 H 128.135 0.112014 0.819379 0
M  V30 1389 H 130.681 0.943952 1.41024 0
M  V30 1390 H 129.453 1.89267 3.42482 0
M  V30 1391 H 129.076 0.265652 3.96712 0
M  V30 1392 N 130.073 -1.45103 0.615059 0
M  V30 1393 C 131.484 -1.85654 0.197383 0
M  V30 1394 C 131.835 -1.51433 -1.24749 0
M  V30 1395 O 130.96 -0.944608 -1.94695 0
M  V30 1396 C 131.555 -3.36972 0.351448 0
M  V30 1397 C 130.114 -3.76398 -0.011593 0
M  V30 1398 C 129.261 -2.69024 0.672394 0
M  V30 1399 H 132.212 -1.35797 0.821263 0
M  V30 1400 H 132.233 -3.78239 -0.414227 0
M  V30 1401 H 131.745 -3.61847 1.40314 0
M  V30 1402 H 129.846 -3.5714 -1.06217 0
M  V30 1403 H 129.959 -4.77532 0.387265 0
M  V30 1404 H 128.323 -2.54465 0.109284 0
M  V30 1405 H 129.106 -2.96735 1.72636 0
M  V30 1406 N 131.551 -0.354651 -1.53558 0
M  V30 1407 C 132.776 0.242153 -2.05981 0
M  V30 1408 C 133.201 1.42553 -1.2272 0
M  V30 1409 O 132.559 1.79656 -0.243604 0
M  V30 1410 C 132.607 0.624367 -3.55154 0
M  V30 1411 O 131.711 1.72301 -3.74681 0
M  V30 1412 H 131.052 0.0378432 -0.662921 0
M  V30 1413 H 133.582 -0.512087 -1.98088 0
M  V30 1414 H 133.592 0.898433 -3.97985 0
M  V30 1415 H 132.267 -0.240989 -4.15201 0
M  V30 1416 H 130.844 1.44535 -3.4375 0
M  V30 1417 N 133.029 1.57378 -0.0835403 0
M  V30 1418 C 133.959 2.1641 0.87686 0
M  V30 1419 C 134.94 1.09429 1.30228 0
M  V30 1420 O 136.125 1.37516 1.37124 0
M  V30 1421 C 133.255 2.73517 2.14022 0
M  V30 1422 C 132.209 3.85769 1.85381 0
M  V30 1423 C 131.535 4.29529 3.18448 0
M  V30 1424 C 132.835 5.09486 1.14984 0
M  V30 1425 H 134.529 2.96914 0.385059 0
M  V30 1426 H 132.075 1.42823 0.18377 0
M  V30 1427 H 134.028 3.13463 2.81636 0
M  V30 1428 H 132.752 1.90252 2.65465 0
M  V30 1429 H 131.411 3.46345 1.20169 0
M  V30 1430 H 131.059 3.43169 3.67755 0
M  V30 1431 H 130.759 5.05204 3.00071 0
M  V30 1432 H 132.283 4.72099 3.8724 0
M  V30 1433 H 133.697 5.46674 1.72687 0
M  V30 1434 H 132.094 5.90515 1.06826 0
M  V30 1435 H 133.164 4.84724 0.130749 0
M  V30 1436 N 134.507 -0.190092 1.56449 0
M  V30 1437 C 135.417 -1.25591 1.98152 0
M  V30 1438 C 136.433 -1.49519 0.889944 0
M  V30 1439 O 137.609 -1.62036 1.19609 0
M  V30 1440 C 134.674 -2.57916 2.3169 0
M  V30 1441 C 133.735 -2.42015 3.5458 0
M  V30 1442 C 132.968 -3.6803 3.8651 0
M  V30 1443 O 133.191 -4.72413 3.1966 0
M  V30 1444 O 132.125 -3.6326 4.79923 0
M  V30 1445 H 135.951 -0.931988 2.89046 0
M  V30 1446 H 133.536 -0.395488 1.4407 0
M  V30 1447 H 135.418 -3.36008 2.54316 0
M  V30 1448 H 134.093 -2.89925 1.43963 0
M  V30 1449 H 133 -1.62017 3.37196 0
M  V30 1450 H 134.333 -2.14937 4.4279 0
M  V30 1451 N 135.985 -1.50799 -0.457987 0
M  V30 1452 C 136.895 -1.73426 -1.57989 0
M  V30 1453 C 137.911 -0.617745 -1.62665 0
M  V30 1454 O 139.087 -0.897614 -1.80291 0
M  V30 1455 C 136.152 -1.83557 -2.94122 0
M  V30 1456 C 135.213 -3.07345 -2.99729 0
M  V30 1457 C 134.446 -3.16983 -4.29368 0
M  V30 1458 O 134.669 -2.33077 -5.20607 0
M  V30 1459 O 133.603 -4.09812 -4.40837 0
M  V30 1460 H 137.429 -2.68555 -1.41817 0
M  V30 1461 H 135.014 -1.35052 -0.638859 0
M  V30 1462 H 136.896 -1.92326 -3.74952 0
M  V30 1463 H 135.571 -0.916137 -3.10465 0
M  V30 1464 H 134.478 -3.04068 -2.1793 0
M  V30 1465 H 135.811 -3.9891 -2.88326 0
M  V30 1466 N 137.463 0.71206 -1.40597 0
M  V30 1467 C 138.712 1.46754 -1.38369 0
M  V30 1468 C 139.025 1.95598 0.0097839 0
M  V30 1469 O 140.231 2.71059 0.154677 0
M  V30 1470 C 138.687 2.65289 -2.43207 0
M  V30 1471 C 138.295 2.23301 -3.88382 0
M  V30 1472 C 140.039 3.43008 -2.50091 0
M  V30 1473 C 137.946 3.38696 -4.84808 0
M  V30 1474 H 136.876 0.55118 -0.514506 0
M  V30 1475 H 139.527 0.774616 -1.66349 0
M  V30 1476 H 137.909 3.36769 -2.08332 0
M  V30 1477 H 139.083 1.59218 -4.32419 0
M  V30 1478 H 137.398 1.58618 -3.85006 0
M  V30 1479 H 139.995 4.28881 -3.1932 0
M  V30 1480 H 140.338 3.87065 -1.53253 0
M  V30 1481 H 140.871 2.78574 -2.83974 0
M  V30 1482 H 137.61 2.99668 -5.82992 0
M  V30 1483 H 137.13 4.01683 -4.45433 0
M  V30 1484 H 138.809 4.04712 -5.04794 0
M  V30 1485 N 138.941 1.26152 0.944643 0
M  V30 1486 C 139.873 1.03199 2.04652 0
M  V30 1487 C 140.886 -0.00642356 1.62799 0
M  V30 1488 O 142.075 0.233263 1.76969 0
M  V30 1489 C 139.175 0.540111 3.34568 0
M  V30 1490 C 138.348 1.64697 4.05208 0
M  V30 1491 C 137.407 1.15374 5.13396 0
M  V30 1492 O 136.433 1.85013 5.38293 0
M  V30 1493 N 137.635 0.00031529 5.805 0
M  V30 1494 H 140.4 1.9808 2.2491 0
M  V30 1495 H 137.961 1.17491 1.11389 0
M  V30 1496 H 139.953 0.194401 4.04233 0
M  V30 1497 H 138.523 -0.315021 3.11009 0
M  V30 1498 H 137.743 2.16379 3.29506 0
M  V30 1499 H 139.031 2.3903 4.49157 0
M  V30 1500 H 138.429 -0.581336 5.62705 0
M  V30 1501 H 136.986 -0.286346 6.51171 0
M  V30 1502 N 140.419 -1.14872 1.07899 0
M  V30 1503 C 141.366 -2.19791 0.704319 0
M  V30 1504 C 142.336 -1.63238 -0.306987 0
M  V30 1505 O 143.521 -1.8983 -0.192171 0
M  V30 1506 C 140.661 -3.44911 0.114244 0
M  V30 1507 C 139.774 -4.15637 1.1777 0
M  V30 1508 C 138.909 -5.28324 0.552037 0
M  V30 1509 C 137.948 -5.90875 1.59789 0
M  V30 1510 N 137.085 -6.95022 0.994404 0
M  V30 1511 H 141.925 -2.5119 1.60336 0
M  V30 1512 H 139.462 -1.23356 0.801352 0
M  V30 1513 H 141.42 -4.16477 -0.245544 0
M  V30 1514 H 140.05 -3.14011 -0.74813 0
M  V30 1515 H 139.102 -3.42512 1.65499 0
M  V30 1516 H 140.414 -4.5823 1.97046 0
M  V30 1517 H 139.568 -6.06538 0.1402 0
M  V30 1518 H 138.307 -4.86939 -0.272431 0
M  V30 1519 H 137.312 -5.11369 2.01945 0
M  V30 1520 H 138.537 -6.34337 2.42474 0
M  V30 1521 H 136.483 -6.55722 0.190939 0
M  V30 1522 H 136.4 -7.36073 1.72432 0
M  V30 1523 H 137.668 -7.77123 0.608253 0
M  V30 1524 N 141.898 -0.863906 -1.31812 0
M  V30 1525 C 142.845 -0.313303 -2.28664 0
M  V30 1526 C 143.815 0.584868 -1.55462 0
M  V30 1527 O 145 0.517805 -1.83639 0
M  V30 1528 C 142.14 0.48441 -3.41683 0
M  V30 1529 C 141.253 -0.440594 -4.29747 0
M  V30 1530 C 140.388 0.370652 -5.29905 0
M  V30 1531 C 139.427 -0.551164 -6.09613 0
M  V30 1532 N 138.564 0.223462 -7.01744 0
M  V30 1533 H 143.404 -1.14444 -2.75148 0
M  V30 1534 H 140.941 -0.575769 -1.35364 0
M  V30 1535 H 142.899 0.962627 -4.05943 0
M  V30 1536 H 141.529 1.28029 -2.96325 0
M  V30 1537 H 140.581 -1.03724 -3.65986 0
M  V30 1538 H 141.893 -1.14767 -4.85417 0
M  V30 1539 H 141.047 0.911638 -5.99812 0
M  V30 1540 H 139.786 1.11105 -4.74876 0
M  V30 1541 H 138.791 -1.10396 -5.38603 0
M  V30 1542 H 140.016 -1.29032 -6.66729 0
M  V30 1543 H 137.962 0.946787 -6.49132 0
M  V30 1544 H 137.879 -0.424399 -7.54808 0
M  V30 1545 H 139.147 0.745876 -7.75923 0
M  V30 1546 N 143.376 1.44774 -0.622745 0
M  V30 1547 C 144.306 2.33382 0.0741861 0
M  V30 1548 C 145.287 1.47719 0.843387 0
M  V30 1549 O 146.472 1.76458 0.810934 0
M  V30 1550 C 143.602 3.30663 1.06204 0
M  V30 1551 C 142.556 4.26079 0.405037 0
M  V30 1552 C 141.882 5.13165 1.5022 0
M  V30 1553 C 143.182 5.1781 -0.683414 0
M  V30 1554 H 144.876 2.91905 -0.665713 0
M  V30 1555 H 142.422 1.40363 -0.321587 0
M  V30 1556 H 144.375 3.9153 1.55827 0
M  V30 1557 H 143.099 2.70331 1.83272 0
M  V30 1558 H 141.758 3.66532 -0.0704683 0
M  V30 1559 H 141.406 4.49191 2.26355 0
M  V30 1560 H 141.106 5.77812 1.06803 0
M  V30 1561 H 142.63 5.76902 2.00041 0
M  V30 1562 H 144.044 5.72661 -0.270631 0
M  V30 1563 H 142.441 5.91015 -1.04023 0
M  V30 1564 H 143.511 4.59326 -1.55395 0
M  V30 1565 N 144.854 0.36279 1.53368 0
M  V30 1566 C 145.764 -0.492994 2.29362 0
M  V30 1567 C 146.78 -1.09507 1.35219 0
M  V30 1568 O 147.956 -1.10662 1.68273 0
M  V30 1569 C 145.021 -1.61855 3.066 0
M  V30 1570 C 144.082 -1.04429 4.16405 0
M  V30 1571 C 143.315 -2.11621 4.89951 0
M  V30 1572 O 143.538 -3.32684 4.63333 0
M  V30 1573 O 142.472 -1.74835 5.75948 0
M  V30 1574 H 146.298 0.125331 3.03441 0
M  V30 1575 H 143.883 0.127253 1.48857 0
M  V30 1576 H 145.765 -2.27302 3.54841 0
M  V30 1577 H 144.44 -2.22233 2.3536 0
M  V30 1578 H 143.347 -0.353819 3.72423 0
M  V30 1579 H 144.68 -0.485113 4.89804 0
M  V30 1580 N 146.332 -1.57332 0.0918853 0
M  V30 1581 C 147.295 -2.12708 -0.85369 0
M  V30 1582 C 148.295 -1.05561 -1.213 0
M  V30 1583 O 149.485 -1.31461 -1.14296 0
M  V30 1584 C 146.617 -2.64503 -2.15061 0
M  V30 1585 H 147.81 -2.97573 -0.3729 0
M  V30 1586 H 145.363 -1.55509 -0.157072 0
M  V30 1587 H 146.098 -1.83149 -2.67632 0
M  V30 1588 H 145.883 -3.4284 -1.90272 0
M  V30 1589 H 147.373 -3.07351 -2.82711 0
M  V30 1590 N 147.81 0.181792 -1.56548 0
M  V30 1591 C 148.773 1.20894 -1.94724 0
M  V30 1592 C 149.773 1.37738 -0.829747 0
M  V30 1593 O 150.963 1.35323 -1.09697 0
M  V30 1594 C 148.095 2.57593 -2.23291 0
M  V30 1595 H 149.288 0.882275 -2.86629 0
M  V30 1596 H 146.841 0.423838 -1.50444 0
M  V30 1597 H 147.576 2.95291 -1.34067 0
M  V30 1598 H 147.361 2.46735 -3.04736 0
M  V30 1599 H 148.851 3.31637 -2.53785 0
M  V30 1600 N 149.288 1.51039 0.449983 0
M  V30 1601 C 150.198 1.74261 1.57067 0
M  V30 1602 C 151.214 0.626363 1.62335 0
M  V30 1603 O 152.39 0.907162 1.79812 0
M  V30 1604 C 149.455 1.85114 2.93144 0
M  V30 1605 C 148.516 3.0893 2.98095 0
M  V30 1606 C 147.749 3.19256 4.27681 0
M  V30 1607 O 147.972 2.35835 5.19363 0
M  V30 1608 O 146.906 4.12144 4.38658 0
M  V30 1609 H 150.732 2.69303 1.40391 0
M  V30 1610 H 148.317 1.35389 0.631688 0
M  V30 1611 H 150.199 1.94311 3.73926 0
M  V30 1612 H 148.874 0.932588 3.09975 0
M  V30 1613 H 147.781 3.0522 2.16314 0
M  V30 1614 H 149.114 4.00433 2.86206 0
M  V30 1615 N 150.766 -0.704594 1.40972 0
M  V30 1616 C 151.676 -1.84856 1.44448 0
M  V30 1617 C 152.692 -1.70726 0.335961 0
M  V30 1618 O 153.868 -1.92799 0.582276 0
M  V30 1619 C 150.933 -3.20758 1.31587 0
M  V30 1620 C 149.994 -3.47063 2.52677 0
M  V30 1621 C 149.227 -4.76481 2.4042 0
M  V30 1622 O 149.45 -5.52341 1.42391 0
M  V30 1623 O 148.384 -5.03367 3.30007 0
M  V30 1624 H 152.21 -1.8488 2.40942 0
M  V30 1625 H 149.795 -0.85647 1.22413 0
M  V30 1626 H 151.677 -4.01913 1.26665 0
M  V30 1627 H 150.352 -3.21438 0.382049 0
M  V30 1628 H 149.259 -2.65873 2.63177 0
M  V30 1629 H 150.592 -3.5119 3.44858 0
M  V30 1630 N 152.244 -1.26651 -0.937939 0
M  V30 1631 C 153.66 -1.03834 -1.21205 0
M  V30 1632 C 153.86 0.234502 -2.00131 0
M  V30 1633 O 152.916 0.942767 -2.3424 0
M  V30 1634 C 154.229 -2.27167 -1.97017 0
M  V30 1635 C 155.777 -2.32101 -2.09996 0
M  V30 1636 C 156.252 -3.55136 -2.8921 0
M  V30 1637 N 157.743 -3.55632 -2.96783 0
M  V30 1638 C 158.478 -4.475 -3.58512 0
M  V30 1639 N 157.974 -5.4966 -4.21717 0
M  V30 1640 N 159.767 -4.35145 -3.55816 0
M  V30 1641 H 151.918 -2.08398 -0.410391 0
M  V30 1642 H 154.181 -0.916031 -0.244114 0
M  V30 1643 H 153.887 -3.19765 -1.46434 0
M  V30 1644 H 153.761 -2.31672 -2.97671 0
M  V30 1645 H 156.148 -1.40015 -2.59769 0
M  V30 1646 H 156.229 -2.31605 -1.08594 0
M  V30 1647 H 155.873 -4.47553 -2.40123 0
M  V30 1648 H 155.803 -3.5288 -3.90875 0
M  V30 1649 H 158.294 -2.81743 -2.51852 0
M  V30 1650 H 158.607 -6.15943 -4.66727 0
M  V30 1651 H 156.952 -5.53514 -4.20294 0
M  V30 1652 H 160.143 -3.5455 -3.05634 0
M  V30 1653 H 160.316 -5.06934 -4.03636 0
M  V30 1654 N 153.722 1.14298 -1.08507 0
M  V30 1655 C 155.138 1.37347 -0.812901 0
M  V30 1656 C 155.338 1.93052 0.577325 0
M  V30 1657 O 154.394 2.14389 1.33393 0
M  V30 1658 C 155.707 2.33359 -1.89642 0
M  V30 1659 C 157.255 2.46996 -1.92255 0
M  V30 1660 C 157.73 3.46309 -2.99724 0
M  V30 1661 N 159.221 3.53853 -2.98902 0
M  V30 1662 C 159.956 4.3055 -3.787 0
M  V30 1663 N 159.452 5.10482 -4.6838 0
M  V30 1664 N 161.245 4.25757 -3.66998 0
M  V30 1665 H 153.396 0.764867 -1.9815 0
M  V30 1666 H 155.659 0.398966 -0.859959 0
M  V30 1667 H 155.365 1.99565 -2.89597 0
M  V30 1668 H 155.239 3.33274 -1.76659 0
M  V30 1669 H 157.626 2.80081 -0.929445 0
M  V30 1670 H 157.707 1.47039 -2.09316 0
M  V30 1671 H 157.351 3.13957 -3.99241 0
M  V30 1672 H 157.281 4.46049 -2.79907 0
M  V30 1673 H 159.772 2.96812 -2.33904 0
M  V30 1674 H 160.085 5.66284 -5.25873 0
M  V30 1675 H 158.43 5.09747 -4.72422 0
M  V30 1676 H 161.621 3.62383 -2.96304 0
M  V30 1677 H 161.794 4.85279 -4.29427 0
M  V30 1678 N 155.201 0.870884 1.31352 0
M  V30 1679 C 156.148 0.325425 2.28494 0
M  V30 1680 C 157.118 -0.576615 1.5577 0
M  V30 1681 O 158.303 -0.508059 1.83911 0
M  V30 1682 C 155.443 -0.466283 3.41935 0
M  V30 1683 C 154.556 0.463378 4.29508 0
M  V30 1684 C 153.691 -0.342544 5.30094 0
M  V30 1685 C 152.73 0.583486 6.09313 0
M  V30 1686 N 151.867 -0.186244 7.01853 0
M  V30 1687 H 156.707 1.15901 2.74538 0
M  V30 1688 H 154.244 0.58294 1.35056 0
M  V30 1689 H 156.202 -0.941085 4.06447 0
M  V30 1690 H 154.832 -1.26456 2.97 0
M  V30 1691 H 153.884 1.05663 3.65431 0
M  V30 1692 H 155.196 1.1734 4.84802 0
M  V30 1693 H 154.35 -0.879816 6.00287 0
M  V30 1694 H 153.089 -1.08585 4.75458 0
M  V30 1695 H 152.094 1.13251 5.3801 0
M  V30 1696 H 153.319 1.32566 6.66035 0
M  V30 1697 H 151.265 -0.912348 6.49625 0
M  V30 1698 H 151.182 0.464422 7.54572 0
M  V30 1699 H 152.45 -0.704716 7.76308 0
M  V30 1700 N 156.679 -1.44442 0.630414 0
M  V30 1701 C 157.909 -2.06115 0.141465 0
M  V30 1702 C 158.317 -1.47179 -1.1889 0
M  V30 1703 O 157.66 -0.588873 -1.74006 0
M  V30 1704 C 157.722 -3.59467 -0.0484355 0
M  V30 1705 C 157.386 -4.40864 1.20366 0
M  V30 1706 C 158.383 -4.74391 2.12719 0
M  V30 1707 C 156.068 -4.8125 1.43887 0
M  V30 1708 C 158.062 -5.47186 3.26904 0
M  V30 1709 C 155.749 -5.53795 2.5837 0
M  V30 1710 C 156.747 -5.86682 3.49705 0
M  V30 1711 O 156.435 -6.57749 4.62191 0
M  V30 1712 H 156.167 -0.671648 0.0765792 0
M  V30 1713 H 158.721 -1.86312 0.864695 0
M  V30 1714 H 156.951 -3.77758 -0.826803 0
M  V30 1715 H 158.64 -4.02909 -0.491849 0
M  V30 1716 H 159.406 -4.43728 1.95781 0
M  V30 1717 H 155.285 -4.55073 0.736853 0
M  V30 1718 H 158.829 -5.72773 3.98217 0
M  V30 1719 H 154.726 -5.83872 2.75251 0
M  V30 1720 H 155.494 -6.76217 4.61164 0
M  V30 1721 N 158.157 -0.370918 -1.53173 0
M  V30 1722 C 159.089 0.507823 -2.23503 0
M  V30 1723 C 160.102 1.04182 -1.251 0
M  V30 1724 O 161.291 0.947286 -1.5129 0
M  V30 1725 C 158.391 1.71447 -2.92334 0
M  V30 1726 C 157.564 1.31105 -4.17289 0
M  V30 1727 C 156.623 2.38035 -4.69282 0
M  V30 1728 O 155.649 2.00204 -5.32829 0
M  V30 1729 N 156.851 3.69697 -4.47554 0
M  V30 1730 H 159.616 -0.0946382 -2.99551 0
M  V30 1731 H 157.177 -0.196358 -1.60705 0
M  V30 1732 H 159.169 2.42469 -3.24023 0
M  V30 1733 H 157.739 2.22368 -2.19707 0
M  V30 1734 H 156.959 0.430462 -3.91843 0
M  V30 1735 H 158.247 1.0179 -4.98514 0
M  V30 1736 H 157.645 4.03205 -3.9679 0
M  V30 1737 H 156.202 4.36807 -4.8378 0
M  V30 1738 N 159.635 1.57281 -0.100228 0
M  V30 1739 C 160.545 2.17833 0.870965 0
M  V30 1740 C 161.561 1.14921 1.30649 0
M  V30 1741 O 162.737 1.47313 1.37335 0
M  V30 1742 C 159.802 2.75085 2.1102 0
M  V30 1743 C 158.863 3.9297 1.72838 0
M  V30 1744 C 158.096 4.47482 2.90854 0
M  V30 1745 O 158.319 4.00922 4.05731 0
M  V30 1746 O 157.253 5.38433 2.69023 0
M  V30 1747 H 161.079 3.0124 0.38575 0
M  V30 1748 H 158.664 1.48881 0.124397 0
M  V30 1749 H 160.546 3.11656 2.83634 0
M  V30 1750 H 159.221 1.94721 2.58584 0
M  V30 1751 H 158.128 3.61201 0.973883 0
M  V30 1752 H 159.461 4.74713 1.30033 0
M  V30 1753 N 161.113 -0.173488 1.56642 0
M  V30 1754 C 162.076 -1.19859 1.95362 0
M  V30 1755 C 163.076 -1.37296 0.83704 0
M  V30 1756 O 164.266 -1.34739 1.10413 0
M  V30 1757 C 161.398 -2.56405 2.24654 0
M  V30 1758 H 162.591 -0.867062 2.87092 0
M  V30 1759 H 160.144 -0.415853 1.50666 0
M  V30 1760 H 160.879 -2.94576 1.35631 0
M  V30 1761 H 160.664 -2.45115 3.06041 0
M  V30 1762 H 162.154 -3.30287 2.5554 0
M  V30 1763 N 162.591 -1.51276 -0.441967 0
M  V30 1764 C 163.501 -1.75092 -1.56141 0
M  V30 1765 C 164.517 -0.634963 -1.62001 0
M  V30 1766 O 165.693 -0.916686 -1.79329 0
M  V30 1767 C 162.758 -1.86666 -2.92158 0
M  V30 1768 C 161.819 -3.10506 -2.96453 0
M  V30 1769 C 161.052 -3.21519 -4.25982 0
M  V30 1770 O 161.275 -2.38586 -5.18105 0
M  V30 1771 O 160.209 -4.14465 -4.36466 0
M  V30 1772 H 164.035 -2.70044 -1.38961 0
M  V30 1773 H 161.62 -1.35722 -0.624499 0
M  V30 1774 H 163.502 -1.96292 -3.72891 0
M  V30 1775 H 162.177 -0.949014 -3.09476 0
M  V30 1776 H 161.084 -3.06363 -2.14692 0
M  V30 1777 H 162.417 -4.01945 -2.84079 0
M  V30 1778 N 164.069 0.697108 -1.41344 0
M  V30 1779 C 164.999 1.82353 -1.45841 0
M  V30 1780 C 165.98 1.67115 -0.317247 0
M  V30 1781 O 167.165 1.86871 -0.528474 0
M  V30 1782 C 164.295 3.20476 -1.33838 0
M  V30 1783 C 163.249 3.50415 -2.4575 0
M  V30 1784 C 162.575 4.87878 -2.18813 0
M  V30 1785 C 163.875 3.49546 -3.88091 0
M  V30 1786 H 165.569 1.78846 -2.40113 0
M  V30 1787 H 163.115 0.859028 -1.15571 0
M  V30 1788 H 165.068 3.98988 -1.35596 0
M  V30 1789 H 163.792 3.24604 -0.360498 0
M  V30 1790 H 162.451 2.74253 -2.43271 0
M  V30 1791 H 162.099 4.8863 -1.19371 0
M  V30 1792 H 161.799 5.08875 -2.93803 0
M  V30 1793 H 163.323 5.68702 -2.22284 0
M  V30 1794 H 164.737 4.18066 -3.92293 0
M  V30 1795 H 163.134 3.82075 -4.62751 0
M  V30 1796 H 164.204 2.48552 -4.16353 0
M  V30 1797 N 165.547 1.27147 0.931209 0
M  V30 1798 C 166.477 1.12081 2.04842 0
M  V30 1799 C 167.458 0.0232364 1.70084 0
M  V30 1800 O 168.643 0.197085 1.93197 0
M  V30 1801 C 165.773 0.76354 3.38803 0
M  V30 1802 C 164.727 1.81396 3.87659 0
M  V30 1803 C 164.053 1.31075 5.18385 0
M  V30 1804 C 165.353 3.21739 4.11438 0
M  V30 1805 H 167.047 2.05537 2.17703 0
M  V30 1806 H 164.593 0.989603 1.04608 0
M  V30 1807 H 166.546 0.644982 4.16435 0
M  V30 1808 H 165.27 -0.206727 3.25945 0
M  V30 1809 H 163.929 1.92136 3.12217 0
M  V30 1810 H 163.577 0.330037 5.01916 0
M  V30 1811 H 163.277 2.013 5.52044 0
M  V30 1812 H 164.801 1.20506 5.98591 0
M  V30 1813 H 166.215 3.14019 4.79651 0
M  V30 1814 H 164.612 3.89644 4.56397 0
M  V30 1815 H 165.682 3.67054 3.16859 0
M  V30 1816 N 167.025 -1.13721 1.09112 0
M  V30 1817 C 167.972 -2.19031 0.727591 0
M  V30 1818 C 168.942 -1.63555 -0.289656 0
M  V30 1819 O 170.127 -1.90023 -0.172026 0
M  V30 1820 C 167.267 -3.4477 0.15082 0
M  V30 1821 C 166.38 -4.14365 1.22172 0
M  V30 1822 C 165.515 -5.27709 0.608042 0
M  V30 1823 C 164.554 -5.89147 1.66047 0
M  V30 1824 N 163.691 -6.93929 1.06806 0
M  V30 1825 H 168.531 -2.49475 1.62991 0
M  V30 1826 H 166.068 -1.22499 0.81439 0
M  V30 1827 H 168.026 -4.16714 -0.201358 0
M  V30 1828 H 166.656 -3.14787 -0.714783 0
M  V30 1829 H 165.708 -3.40737 1.69122 0
M  V30 1830 H 167.02 -4.56114 2.01895 0
M  V30 1831 H 166.174 -6.06355 0.204523 0
M  V30 1832 H 164.913 -4.872 -0.220769 0
M  V30 1833 H 163.918 -5.09198 2.07357 0
M  V30 1834 H 165.143 -6.31729 2.49189 0
M  V30 1835 H 163.089 -6.55483 0.260476 0
M  V30 1836 H 163.006 -7.34202 1.8023 0
M  V30 1837 H 164.274 -7.76434 0.690644 0
M  V30 1838 N 168.503 -0.877838 -1.30888 0
M  V30 1839 C 169.453 -0.310872 -2.25871 0
M  V30 1840 C 170.437 0.556596 -1.50966 0
M  V30 1841 O 171.629 0.402187 -1.7237 0
M  V30 1842 C 168.758 0.479821 -3.3993 0
M  V30 1843 C 167.844 -0.401333 -4.22197 0
M  V30 1844 N 168.235 -1.49848 -4.83093 0
M  V30 1845 C 166.533 -0.195167 -4.45573 0
M  V30 1846 C 167.234 -2.0425 -5.44662 0
M  V30 1847 N 166.21 -1.33843 -5.26865 0
M  V30 1848 H 170.012 -1.1493 -2.70496 0
M  V30 1849 H 167.526 -0.726458 -1.45246 0
M  V30 1850 H 169.523 0.902582 -4.07012 0
M  V30 1851 H 168.183 1.31577 -2.96846 0
M  V30 1852 H 169.194 -1.88137 -4.82519 0
M  V30 1853 H 165.871 0.604192 -4.13105 0
M  V30 1854 H 167.261 -2.96345 -6.03017 0
M  V30 1855 N 169.982 1.44106 -0.638065 0
M  V30 1856 C 170.912 2.33448 0.0494287 0
M  V30 1857 C 171.893 1.48606 0.827672 0
M  V30 1858 O 173.078 1.77308 0.792173 0
M  V30 1859 C 170.208 3.31771 1.02691 0
M  V30 1860 C 169.162 4.26485 0.359823 0
M  V30 1861 C 168.488 5.14729 1.44769 0
M  V30 1862 C 169.788 5.17056 -0.738296 0
M  V30 1863 H 171.482 2.91183 -0.696636 0
M  V30 1864 H 169.028 1.40014 -0.336456 0
M  V30 1865 H 170.981 3.93161 1.51666 0
M  V30 1866 H 169.705 2.7226 1.80395 0
M  V30 1867 H 168.364 3.66437 -0.10934 0
M  V30 1868 H 168.012 4.51566 2.21578 0
M  V30 1869 H 167.712 5.78913 1.00668 0
M  V30 1870 H 169.236 5.78991 1.93911 0
M  V30 1871 H 170.65 5.72342 -0.331354 0
M  V30 1872 H 169.047 5.89879 -1.10286 0
M  V30 1873 H 170.117 4.57652 -1.60258 0
M  V30 1874 N 171.46 0.379036 1.52974 0
M  V30 1875 C 172.423 -0.448865 2.24762 0
M  V30 1876 C 173.423 -0.998689 1.26027 0
M  V30 1877 O 174.613 -0.882313 1.50203 0
M  V30 1878 C 171.745 -1.62872 2.99476 0
M  V30 1879 H 172.938 0.179491 2.99362 0
M  V30 1880 H 170.491 0.13096 1.5575 0
M  V30 1881 H 171.226 -2.29479 2.29151 0
M  V30 1882 H 171.011 -1.24128 3.71934 0
M  V30 1883 H 172.501 -2.2151 3.5401 0
M  V30 1884 N 172.938 -1.57226 0.108567 0
M  V30 1885 C 173.848 -2.18292 -0.859401 0
M  V30 1886 C 174.864 -1.15612 -1.30038 0
M  V30 1887 O 176.04 -1.48039 -1.36552 0
M  V30 1888 C 173.105 -2.762 -2.09558 0
M  V30 1889 C 172.166 -3.93881 -1.70752 0
M  V30 1890 C 171.399 -4.49018 -2.88477 0
M  V30 1891 O 171.622 -4.03068 -4.036 0
M  V30 1892 O 170.556 -5.39852 -2.66164 0
M  V30 1893 H 174.382 -3.01441 -0.369769 0
M  V30 1894 H 171.967 -1.48945 -0.1165 0
M  V30 1895 H 173.849 -3.13156 -2.81978 0
M  V30 1896 H 172.524 -1.96089 -2.57548 0
M  V30 1897 H 171.431 -3.61713 -0.954714 0
M  V30 1898 H 172.764 -4.75396 -1.27513 0
M  V30 1899 N 174.416 0.165178 -1.56732 0
M  V30 1900 C 175.363 1.2044 -1.96883 0
M  V30 1901 C 176.333 1.43664 -0.833657 0
M  V30 1902 O 177.518 1.56302 -1.09427 0
M  V30 1903 C 174.658 2.53727 -2.33916 0
M  V30 1904 C 173.771 2.3783 -3.6064 0
M  V30 1905 C 172.906 3.64026 -3.86857 0
M  V30 1906 C 171.945 3.43088 -5.06909 0
M  V30 1907 N 171.082 4.61369 -5.29229 0
M  V30 1908 H 175.922 0.854996 -2.85471 0
M  V30 1909 H 173.459 0.41076 -1.41249 0
M  V30 1910 H 175.417 3.31419 -2.53411 0
M  V30 1911 H 174.047 2.8665 -1.48431 0
M  V30 1912 H 173.099 1.51282 -3.49024 0
M  V30 1913 H 174.411 2.18308 -4.4849 0
M  V30 1914 H 173.565 4.50152 -4.06753 0
M  V30 1915 H 172.304 3.86533 -2.97394 0
M  V30 1916 H 171.309 2.55349 -4.86906 0
M  V30 1917 H 172.534 3.21997 -5.97909 0
M  V30 1918 H 170.48 4.84084 -4.42718 0
M  V30 1919 H 170.397 4.44783 -6.11313 0
M  V30 1920 H 171.665 5.48761 -5.53608 0
M  V30 1921 N 175.894 1.51508 0.433938 0
M  V30 1922 C 177.31 1.39759 0.770682 0
M  V30 1923 C 177.51 0.482594 1.95636 0
M  V30 1924 O 176.566 -0.0609691 2.52426 0
M  V30 1925 C 177.879 2.81851 1.04787 0
M  V30 1926 C 179.427 2.91025 1.1521 0
M  V30 1927 C 179.902 4.34032 1.46219 0
M  V30 1928 N 181.393 4.37154 1.53136 0
M  V30 1929 C 182.128 5.4484 1.78709 0
M  V30 1930 N 181.624 6.62682 2.02051 0
M  V30 1931 N 183.417 5.32324 1.80519 0
M  V30 1932 H 175.568 2.09548 -0.346892 0
M  V30 1933 H 177.831 0.943446 -0.0928074 0
M  V30 1934 H 177.537 3.50815 0.249304 0
M  V30 1935 H 177.411 3.21386 1.97461 0
M  V30 1936 H 179.798 2.22257 1.94128 0
M  V30 1937 H 179.879 2.54983 0.204281 0
M  V30 1938 H 179.523 5.03351 0.678274 0
M  V30 1939 H 179.453 4.6759 2.42212 0
M  V30 1940 H 181.944 3.52197 1.36987 0
M  V30 1941 H 182.257 7.40543 2.20943 0
M  V30 1942 H 180.602 6.65791 1.99366 0
M  V30 1943 H 183.793 4.39246 1.61805 0
M  V30 1944 H 183.966 6.16328 2.00111 0
M  V30 1945 N 177.372 -0.689602 1.41712 0
M  V30 1946 C 178.282 -1.83314 1.46401 0
M  V30 1947 C 179.298 -1.7036 0.35405 0
M  V30 1948 O 180.474 -1.92171 0.602692 0
M  V30 1949 C 177.539 -3.19344 1.34982 0
M  V30 1950 C 176.6 -3.44363 2.56344 0
M  V30 1951 C 175.833 -4.73904 2.45461 0
M  V30 1952 O 176.056 -5.508 1.48241 0
M  V30 1953 O 174.99 -4.99839 3.35328 0
M  V30 1954 H 178.816 -1.82314 2.42889 0
M  V30 1955 H 176.401 -0.843438 1.23315 0
M  V30 1956 H 178.283 -4.00547 1.3092 0
M  V30 1957 H 176.958 -3.21014 0.41612 0
M  V30 1958 H 175.865 -2.63067 2.65982 0
M  V30 1959 H 177.198 -3.47512 3.48563 0
M  V30 1960 N 178.85 -1.27639 -0.924453 0
M  V30 1961 C 179.8 -1.07295 -2.01176 0
M  V30 1962 C 180.784 5.77352e-05 -1.609 0
M  V30 1963 O 181.976 -0.218855 -1.75642 0
M  V30 1964 C 179.105 -0.725592 -3.35544 0
M  V30 1965 C 178.191 -1.83691 -3.82254 0
M  V30 1966 N 178.582 -3.07697 -4.01443 0
M  V30 1967 C 176.88 -1.72433 -4.11319 0
M  V30 1968 C 177.581 -3.80037 -4.40394 0
M  V30 1969 N 176.557 -3.0782 -4.48049 0
M  V30 1970 H 180.359 -2.01399 -2.14046 0
M  V30 1971 H 177.873 -1.18401 -1.11153 0
M  V30 1972 H 179.87 -0.560959 -4.13109 0
M  V30 1973 H 178.53 0.207782 -3.24034 0
M  V30 1974 H 179.541 -3.43424 -3.8766 0
M  V30 1975 H 176.218 -0.862005 -4.08504 0
M  V30 1976 H 177.608 -4.86632 -4.63291 0
M  V30 1977 N 180.328 1.1314 -1.09713 0
M  V30 1978 C 181.238 2.22242 -0.751367 0
M  V30 1979 C 182.254 1.72224 0.247938 0
M  V30 1980 O 183.43 2.01205 0.0885463 0
M  V30 1981 C 180.495 3.46231 -0.180274 0
M  V30 1982 C 179.556 4.11125 -1.2359 0
M  V30 1983 C 178.789 5.29195 -0.691966 0
M  V30 1984 O 179.012 5.68342 0.48414 0
M  V30 1985 O 177.946 5.84214 -1.44838 0
M  V30 1986 H 181.772 2.54197 -1.66186 0
M  V30 1987 H 179.357 1.21331 -0.871735 0
M  V30 1988 H 181.239 4.21185 0.134739 0
M  V30 1989 H 179.914 3.1597 0.703185 0
M  V30 1990 H 178.821 3.37985 -1.60366 0
M  V30 1991 H 180.154 4.45524 -2.09211 0
M  V30 1992 N 181.806 0.884767 1.30421 0
M  V30 1993 C 183.222 0.57874 1.48737 0
M  V30 1994 C 183.422 -0.883567 1.81095 0
M  V30 1995 O 182.478 -1.6648 1.89844 0
M  V30 1996 C 183.791 1.49171 2.61091 0
M  V30 1997 C 185.339 1.49532 2.74971 0
M  V30 1998 C 185.814 2.39421 3.90438 0
M  V30 1999 N 187.305 2.37383 3.97748 0
M  V30 2000 C 188.04 3.03647 4.86401 0
M  V30 2001 N 187.536 3.79136 5.79852 0
M  V30 2002 N 189.329 2.9288 4.79768 0
M  V30 2003 H 181.48 1.83075 1.0769 0
M  V30 2004 H 183.743 0.783637 0.533495 0
M  V30 2005 H 183.449 2.53291 2.44001 0
M  V30 2006 H 183.323 1.20113 3.57565 0
M  V30 2007 H 185.71 0.46163 2.91467 0
M  V30 2008 H 185.791 1.8262 1.79119 0
M  V30 2009 H 185.435 3.42874 3.74699 0
M  V30 2010 H 185.365 2.03649 4.85628 0
M  V30 2011 H 187.856 1.82525 3.30897 0
M  V30 2012 H 188.169 4.26789 6.4426 0
M  V30 2013 H 186.514 3.83243 5.79784 0
M  V30 2014 H 189.705 2.33433 4.05742 0
M  V30 2015 H 189.878 3.448 5.4865 0
M  V30 2016 N 183.284 -1.43765 0.645699 0
M  V30 2017 C 184.194 -2.34544 -0.0512957 0
M  V30 2018 C 185.21 -1.53455 -0.82022 0
M  V30 2019 O 186.386 -1.86133 -0.769176 0
M  V30 2020 C 183.451 -3.31636 -1.01087 0
M  V30 2021 C 182.512 -4.2863 -0.239712 0
M  V30 2022 C 181.745 -5.21084 -1.15358 0
M  V30 2023 O 181.968 -5.1779 -2.39269 0
M  V30 2024 O 180.902 -5.98593 -0.630038 0
M  V30 2025 H 184.728 -2.95624 0.695718 0
M  V30 2026 H 182.313 -1.43781 0.405882 0
M  V30 2027 H 184.195 -3.9136 -1.56254 0
M  V30 2028 H 182.87 -2.73069 -1.73824 0
M  V30 2029 H 181.777 -3.72408 0.355356 0
M  V30 2030 H 183.11 -4.90157 0.447936 0
M  V30 2031 N 184.763 -0.387143 -1.52771 0
M  V30 2032 C 186.009 0.196025 -2.0185 0
M  V30 2033 C 186.342 1.46641 -1.27319 0
M  V30 2034 O 185.617 1.90889 -0.373032 0
M  V30 2035 C 185.9 0.466136 -3.5707 0
M  V30 2036 C 185.753 -0.819385 -4.42274 0
M  V30 2037 C 187.072 1.25768 -4.21747 0
M  V30 2038 H 184.191 0.0697708 -0.73369 0
M  V30 2039 H 186.833 -0.516286 -1.82851 0
M  V30 2040 H 184.983 1.07293 -3.7339 0
M  V30 2041 H 186.655 -1.4563 -4.37709 0
M  V30 2042 H 184.898 -1.43517 -4.09372 0
M  V30 2043 H 185.569 -0.585065 -5.48891 0
M  V30 2044 H 188.045 0.744167 -4.09391 0
M  V30 2045 H 186.921 1.41541 -5.30337 0
M  V30 2046 H 187.182 2.27228 -3.79236 0
M  V30 2047 N 186.241 1.57166 -0.116904 0
M  V30 2048 C 187.49 1.94298 0.541407 0
M  V30 2049 C 187.803 1.00236 1.67964 0
M  V30 2050 O 189.009 1.26826 2.40057 0
M  V30 2051 C 187.465 3.45306 1.01449 0
M  V30 2052 C 187.073 4.47899 -0.0951738 0
M  V30 2053 C 188.817 3.91361 1.6443 0
M  V30 2054 C 186.724 5.90083 0.394491 0
M  V30 2055 H 185.654 0.725308 0.206019 0
M  V30 2056 H 188.305 1.82446 -0.196419 0
M  V30 2057 H 186.687 3.52385 1.80667 0
M  V30 2058 H 187.861 4.52486 -0.871374 0
M  V30 2059 H 186.176 4.11583 -0.631505 0
M  V30 2060 H 188.773 4.95004 2.02176 0
M  V30 2061 H 189.116 3.3122 2.52189 0
M  V30 2062 H 189.649 3.87073 0.917559 0
M  V30 2063 H 186.388 6.53974 -0.447004 0
M  V30 2064 H 185.908 5.88921 1.13722 0
M  V30 2065 H 187.587 6.41307 0.856399 0
M  V30 2066 N 187.719 -0.156864 1.56817 0
M  V30 2067 C 188.651 -1.21883 1.94106 0
M  V30 2068 C 189.664 -1.3971 0.835754 0
M  V30 2069 O 190.853 -1.39457 1.11418 0
M  V30 2070 C 187.953 -2.58527 2.19127 0
M  V30 2071 C 187.126 -2.61809 3.50393 0
M  V30 2072 C 186.185 -3.7992 3.64071 0
M  V30 2073 O 185.211 -3.65249 4.36557 0
M  V30 2074 N 186.413 -4.96973 2.99997 0
M  V30 2075 H 189.178 -0.901974 2.85805 0
M  V30 2076 H 186.739 -0.346513 1.58148 0
M  V30 2077 H 188.731 -3.36034 2.25529 0
M  V30 2078 H 187.301 -2.82545 1.33742 0
M  V30 2079 H 186.521 -1.7029 3.5552 0
M  V30 2080 H 187.809 -2.61024 4.36742 0
M  V30 2081 H 187.207 -5.11794 2.41004 0
M  V30 2082 H 185.764 -5.7229 3.11974 0
M  V30 2083 N 189.197 -1.51736 -0.425897 0
M  V30 2084 C 190.144 -1.73875 -1.51776 0
M  V30 2085 C 191.114 -0.580702 -1.55618 0
M  V30 2086 O 192.299 -0.81641 -1.72451 0
M  V30 2087 C 189.439 -1.88012 -2.89388 0
M  V30 2088 C 188.552 -3.15606 -2.94986 0
M  V30 2089 C 187.687 -3.20271 -4.23793 0
M  V30 2090 C 186.726 -4.42134 -4.23302 0
M  V30 2091 N 185.863 -4.44284 -5.43651 0
M  V30 2092 H 190.703 -2.67071 -1.32201 0
M  V30 2093 H 188.24 -1.32351 -0.642008 0
M  V30 2094 H 190.198 -1.9419 -3.69251 0
M  V30 2095 H 188.828 -0.98213 -3.07496 0
M  V30 2096 H 187.88 -3.18681 -2.07717 0
M  V30 2097 H 189.192 -4.05486 -2.90486 0
M  V30 2098 H 188.346 -3.25428 -5.12036 0
M  V30 2099 H 187.085 -2.28299 -4.30965 0
M  V30 2100 H 186.09 -4.3714 -3.3345 0
M  V30 2101 H 187.315 -5.35382 -4.17783 0
M  V30 2102 H 185.261 -3.55188 -5.51523 0
M  V30 2103 H 185.178 -5.27988 -5.41078 0
M  V30 2104 H 186.446 -4.53649 -6.33895 0
M  V30 2105 N 190.675 0.682077 -1.42076 0
M  V30 2106 C 191.638 1.77756 -1.44691 0
M  V30 2107 C 192.638 1.5726 -0.335535 0
M  V30 2108 O 193.828 1.63686 -0.596037 0
M  V30 2109 C 190.96 3.16301 -1.27146 0
M  V30 2110 H 192.153 1.76826 -2.42224 0
M  V30 2111 H 189.706 0.891012 -1.28416 0
M  V30 2112 H 190.441 3.22862 -0.305075 0
M  V30 2113 H 190.226 3.32581 -2.07683 0
M  V30 2114 H 191.716 3.96241 -1.31843 0
M  V30 2115 N 192.153 1.28127 0.917671 0
M  V30 2116 C 193.402 1.14432 1.66097 0
M  V30 2117 C 193.715 -0.307247 1.93172 0
M  V30 2118 O 194.921 -0.565259 2.65551 0
M  V30 2119 C 193.377 2.00015 2.99202 0
M  V30 2120 C 192.985 3.49889 2.79789 0
M  V30 2121 C 194.729 1.94996 3.77064 0
M  V30 2122 C 192.636 4.27636 4.08511 0
M  V30 2123 H 191.566 0.424662 0.62304 0
M  V30 2124 H 194.217 1.52628 1.01868 0
M  V30 2125 H 192.599 1.54672 3.64544 0
M  V30 2126 H 193.773 4.03162 2.23152 0
M  V30 2127 H 192.088 3.56392 2.15345 0
M  V30 2128 H 194.685 2.50354 4.72469 0
M  V30 2129 H 195.028 0.925819 4.05875 0
M  V30 2130 H 195.561 2.38287 3.18534 0
M  V30 2131 H 192.3 5.30615 3.84874 0
M  V30 2132 H 191.82 3.79137 4.64774 0
M  V30 2133 H 193.499 4.37346 4.76799 0
M  V30 2134 N 193.631 -1.12557 1.10312 0
M  V30 2135 C 194.541 -2.21841 0.763142 0
M  V30 2136 C 195.557 -1.72354 -0.238801 0
M  V30 2137 O 196.733 -2.01249 -0.0778746 0
M  V30 2138 C 193.798 -3.46131 0.198632 0
M  V30 2139 C 192.859 -4.10464 1.25769 0
M  V30 2140 C 192.092 -5.28821 0.72002 0
M  V30 2141 O 192.315 -5.6859 -0.453993 0
M  V30 2142 O 191.249 -5.83437 1.47935 0
M  V30 2143 H 195.075 -2.53312 1.67532 0
M  V30 2144 H 192.66 -1.20867 0.878157 0
M  V30 2145 H 194.542 -4.2125 -0.112401 0
M  V30 2146 H 193.217 -3.16338 -0.686419 0
M  V30 2147 H 192.124 -3.3713 1.62156 0
M  V30 2148 H 193.457 -4.44408 2.11571 0
M  V30 2149 N 195.109 -0.891671 -1.2995 0
M  V30 2150 C 196.019 -0.367691 -2.31701 0
M  V30 2151 C 197.035 0.533486 -1.6562 0
M  V30 2152 O 198.211 0.424997 -1.96865 0
M  V30 2153 C 195.276 0.403406 -3.44345 0
M  V30 2154 C 194.337 -0.528328 -4.26037 0
M  V30 2155 C 193.57 0.206063 -5.33302 0
M  V30 2156 O 193.793 1.43119 -5.52153 0
M  V30 2157 O 192.727 -0.447281 -6.00236 0
M  V30 2158 H 196.553 -1.21163 -2.78484 0
M  V30 2159 H 194.138 -0.655725 -1.34241 0
M  V30 2160 H 196.02 0.839753 -4.12948 0
M  V30 2161 H 194.695 1.22354 -2.99685 0
M  V30 2162 H 193.602 -1.01362 -3.60106 0
M  V30 2163 H 194.935 -1.31465 -4.74318 0
M  V30 2164 N 196.587 1.43421 -0.653314 0
M  V30 2165 C 197.535 2.32546 0.0501531 0
M  V30 2166 C 198.529 1.48617 0.812985 0
M  V30 2167 O 199.735 1.64825 0.723375 0
M  V30 2168 H 196.11 0.751185 0.0350032 0
M  V30 2169 H 198.081 2.89602 -0.719261 0
M  V30 2170 C 196.83 3.32925 1.00279 0
M  V30 2171 H 196.153 3.97532 0.425236 0
M  V30 2172 H 197.593 3.9792 1.46409 0
M  V30 2173 C 196.052 2.63532 2.09886 0
M  V30 2174 O 196.582 2.45092 3.18265 0
M  V30 2175 N 194.788 2.22905 1.86445 0
M  V30 2176 H 194.335 2.38103 0.98309 0
M  V30 2177 H 194.293 1.76805 2.59976 0
M  V30 2178 N 198.065 0.39524 1.52563 0
M  V30 2179 C 199.013 -0.451859 2.28169 0
M  V30 2180 C 200.007 -1.05792 1.32304 0
M  V30 2181 O 201.213 -0.997718 1.49818 0
M  V30 2182 H 197.588 -0.164481 0.733792 0
M  V30 2183 H 199.559 0.207199 2.9768 0
M  V30 2184 C 198.308 -1.56385 3.10546 0
M  V30 2185 H 197.631 -1.10682 3.84174 0
M  V30 2186 H 199.071 -2.13067 3.66577 0
M  V30 2187 C 197.53 -2.52328 2.23231 0
M  V30 2188 O 198.06 -3.5588 1.86312 0
M  V30 2189 N 196.266 -2.22209 1.87274 0
M  V30 2190 H 195.813 -1.38033 2.17496 0
M  V30 2191 H 195.771 -2.86652 1.29143 0
M  V30 2192 N 199.544 -1.57102 0.125237 0
M  V30 2193 C 200.492 -2.16905 -0.839927 0
M  V30 2194 C 201.486 -1.11998 -1.27094 0
M  V30 2195 O 202.692 -1.3029 -1.24195 0
M  V30 2196 H 199.067 -0.694252 -0.288995 0
M  V30 2197 H 201.038 -2.96774 -0.311115 0
M  V30 2198 C 199.787 -2.78795 -2.07771 0
M  V30 2199 H 199.11 -3.59221 -1.755 0
M  V30 2200 H 200.55 -3.2417 -2.73295 0
M  V30 2201 C 199.009 -1.76193 -2.87155 0
M  V30 2202 O 199.539 -1.21909 -3.82755 0
M  V30 2203 N 197.745 -1.45991 -2.51267 0
M  V30 2204 H 197.292 -1.90325 -1.73592 0
M  V30 2205 H 197.25 -0.775844 -3.04677 0
M  V30 2206 N 201.022 0.148545 -1.56898 0
M  V30 2207 C 202.269 0.861418 -1.83264 0
M  V30 2208 C 202.597 1.81239 -0.705883 0
M  V30 2209 O 201.852 1.93305 0.305212 0
M  V30 2210 C 202.151 1.67064 -3.1595 0
M  V30 2211 C 201.817 0.866591 -4.42494 0
M  V30 2212 C 200.479 0.644762 -4.76861 0
M  V30 2213 C 202.831 0.30418 -5.20312 0
M  V30 2214 C 200.159 -0.15021 -5.86508 0
M  V30 2215 C 202.511 -0.477824 -6.30793 0
M  V30 2216 C 201.175 -0.710244 -6.63711 0
M  V30 2217 H 200.445 0.315215 -0.670612 0
M  V30 2218 H 203.092 0.125142 -1.91091 0
M  V30 2219 H 201.397 2.47698 -3.03567 0
M  V30 2220 H 203.094 2.22566 -3.33565 0
M  V30 2221 H 199.684 1.04955 -4.15551 0
M  V30 2222 H 203.868 0.462844 -4.94137 0
M  V30 2223 H 199.124 -0.339796 -6.10455 0
M  V30 2224 H 203.298 -0.92076 -6.90286 0
M  V30 2225 H 200.925 -1.3281 -7.48509 0
M  V30 2226 N 202.5 1.5196 0.417844 0
M  V30 2227 C 203.749 1.6482 1.16264 0
M  V30 2228 C 204.062 0.379886 1.91876 0
M  V30 2229 O 205.268 0.388154 2.68711 0
M  V30 2230 C 203.724 2.91161 2.1155 0
M  V30 2231 C 203.332 4.25068 1.41495 0
M  V30 2232 C 205.076 3.13383 2.86341 0
M  V30 2233 C 202.983 5.42541 2.35379 0
M  V30 2234 H 201.913 0.613954 0.437694 0
M  V30 2235 H 204.564 1.78442 0.427871 0
M  V30 2236 H 202.946 2.71218 2.88543 0
M  V30 2237 H 204.12 4.55463 0.699263 0
M  V30 2238 H 202.435 4.0888 0.787792 0
M  V30 2239 H 205.032 3.98324 3.5671 0
M  V30 2240 H 205.375 2.27256 3.48798 0
M  V30 2241 H 205.908 3.33757 2.1645 0
M  V30 2242 H 202.647 6.30987 1.77582 0
M  V30 2243 H 202.167 5.16497 3.04945 0
M  V30 2244 H 203.846 5.75272 2.96093 0
M  V30 2245 N 203.978 -0.674533 1.42435 0
M  V30 2246 C 204.925 -1.78807 1.45934 0
M  V30 2247 C 205.895 -1.63157 0.311271 0
M  V30 2248 O 207.08 -1.83707 0.515383 0
M  V30 2249 C 204.22 -3.16839 1.36773 0
M  V30 2250 C 203.333 -3.43774 2.61617 0
M  V30 2251 C 202.468 -4.71536 2.44597 0
M  V30 2252 C 201.507 -4.91505 3.64814 0
M  V30 2253 N 200.644 -6.10508 3.46734 0
M  V30 2254 H 205.484 -1.75151 2.41093 0
M  V30 2255 H 203.021 -0.85504 1.19697 0
M  V30 2256 H 204.979 -3.96606 1.29459 0
M  V30 2257 H 203.609 -3.19619 0.452089 0
M  V30 2258 H 202.661 -2.58259 2.79297 0
M  V30 2259 H 203.973 -3.54423 3.50978 0
M  V30 2260 H 203.127 -5.59393 2.3487 0
M  V30 2261 H 201.866 -4.6317 1.52726 0
M  V30 2262 H 200.871 -4.0209 3.74972 0
M  V30 2263 H 202.096 -5.01716 4.57665 0
M  V30 2264 H 200.042 -6.03315 2.5758 0
M  V30 2265 H 199.959 -6.2202 4.29682 0
M  V30 2266 H 201.227 -7.01044 3.40819 0
M  V30 2267 N 205.456 -1.28612 -0.910864 0
M  V30 2268 C 206.389 -1.07109 -2.01502 0
M  V30 2269 C 207.367 0.013706 -1.62594 0
M  V30 2270 O 208.551 -0.134796 -1.88017 0
M  V30 2271 C 205.678 -0.628255 -3.32822 0
M  V30 2272 C 204.724 -1.71012 -3.90714 0
M  V30 2273 S 205.557 -3.30676 -4.21205 0
M  V30 2274 C 206.713 -2.88234 -5.55583 0
M  V30 2275 H 206.946 -2.00591 -2.19432 0
M  V30 2276 H 204.479 -1.12633 -1.05609 0
M  V30 2277 H 206.437 -0.37946 -4.08742 0
M  V30 2278 H 205.098 0.28678 -3.12788 0
M  V30 2279 H 204.291 -1.35195 -4.85529 0
M  V30 2280 H 203.893 -1.91186 -3.21441 0
M  V30 2281 H 206.185 -2.34584 -6.35591 0
M  V30 2282 H 207.128 -3.81857 -5.96314 0
M  V30 2283 H 207.536 -2.26862 -5.16908 0
M  V30 2284 N 206.934 1.1197 -1.10907 0
M  V30 2285 C 207.897 2.16031 -0.765707 0
M  V30 2286 C 208.897 1.59393 0.212235 0
M  V30 2287 O 210.087 1.74196 -0.0115441 0
M  V30 2288 C 207.219 3.40632 -0.135053 0
M  V30 2289 H 208.412 2.47919 -1.68748 0
M  V30 2290 H 205.965 1.27061 -0.910226 0
M  V30 2291 H 206.7 3.14348 0.797218 0
M  V30 2292 H 206.485 3.8302 -0.838937 0
M  V30 2293 H 207.975 4.17505 0.0892469 0
M  V30 2294 N 208.412 0.89855 1.29475 0
M  V30 2295 C 209.359 0.373819 2.27753 0
M  V30 2296 C 210.329 -0.543444 1.56958 0
M  V30 2297 O 211.514 -0.468934 1.84948 0
M  V30 2298 C 208.654 -0.393648 3.42848 0
M  V30 2299 C 207.767 0.554379 4.28428 0
M  V30 2300 C 206.902 -0.230026 5.30702 0
M  V30 2301 C 205.941 0.712599 6.07938 0
M  V30 2302 N 205.078 -0.0373283 7.0209 0
M  V30 2303 H 209.918 1.21699 2.72017 0
M  V30 2304 H 207.455 0.611456 1.33789 0
M  V30 2305 H 209.413 -0.85466 4.08352 0
M  V30 2306 H 208.043 -1.20128 2.99615 0
M  V30 2307 H 207.095 1.13391 3.63107 0
M  V30 2308 H 208.407 1.27597 4.82204 0
M  V30 2309 H 207.561 -0.752288 6.02018 0
M  V30 2310 H 206.3 -0.984758 4.77654 0
M  V30 2311 H 205.305 1.24637 5.35486 0
M  V30 2312 H 206.53 1.46664 6.63074 0
M  V30 2313 H 204.476 -0.774348 6.51414 0
M  V30 2314 H 204.393 0.624374 7.53417 0
M  V30 2315 H 205.661 -0.539891 7.77628 0
M  V30 2316 N 209.89 -1.43072 0.660911 0
M  V30 2317 C 210.8 -2.34585 -0.0264163 0
M  V30 2318 C 211.816 -1.54316 -0.803898 0
M  V30 2319 O 212.992 -1.86939 -0.749391 0
M  V30 2320 C 210.057 -3.32689 -0.975639 0
M  V30 2321 C 209.118 -4.2886 -0.194236 0
M  V30 2322 C 208.351 -5.22278 -1.09825 0
M  V30 2323 O 208.574 -5.20299 -2.33763 0
M  V30 2324 O 207.508 -5.99228 -0.566513 0
M  V30 2325 H 211.334 -2.94869 0.727034 0
M  V30 2326 H 208.919 -1.43342 0.42111 0
M  V30 2327 H 210.801 -3.92995 -1.52094 0
M  V30 2328 H 209.476 -2.74898 -1.70918 0
M  V30 2329 H 208.383 -3.72011 0.394835 0
M  V30 2330 H 209.716 -4.89655 0.499899 0
M  V30 2331 N 211.368 -0.403325 -1.52352 0
M  V30 2332 C 212.315 0.425011 -2.26853 0
M  V30 2333 C 213.285 1.04598 -1.29029 0
M  V30 2334 O 214.47 1.07135 -1.57882 0
M  V30 2335 C 211.61 1.53888 -3.08889 0
M  V30 2336 C 210.723 0.939396 -4.21663 0
M  V30 2337 C 209.858 2.02547 -4.91068 0
M  V30 2338 C 208.897 1.40263 -5.95813 0
M  V30 2339 N 208.034 2.4286 -6.58759 0
M  V30 2340 H 212.874 -0.21674 -2.97211 0
M  V30 2341 H 210.411 -0.118722 -1.4662 0
M  V30 2342 H 212.369 2.19558 -3.54753 0
M  V30 2343 H 210.999 2.15074 -2.40714 0
M  V30 2344 H 210.051 0.171898 -3.80011 0
M  V30 2345 H 211.363 0.44436 -4.96817 0
M  V30 2346 H 210.517 2.75958 -5.40308 0
M  V30 2347 H 209.256 2.55415 -4.15469 0
M  V30 2348 H 208.261 0.653833 -5.45898 0
M  V30 2349 H 209.486 0.881719 -6.73352 0
M  V30 2350 H 207.432 2.94871 -5.85992 0
M  V30 2351 H 207.349 1.98152 -7.2957 0
M  V30 2352 H 208.617 3.15858 -7.12639 0
M  V30 2353 N 212.846 1.57033 -0.133567 0
M  V30 2354 C 213.776 2.1909 0.807567 0
M  V30 2355 C 214.757 1.13517 1.26681 0
M  V30 2356 O 215.942 1.41809 1.32679 0
M  V30 2357 C 213.072 2.80188 2.05212 0
M  V30 2358 C 212.026 3.91471 1.73015 0
M  V30 2359 C 211.352 4.39443 3.04622 0
M  V30 2360 C 212.652 5.12886 0.987168 0
M  V30 2361 H 214.346 2.97988 0.290403 0
M  V30 2362 H 211.892 1.43335 0.138239 0
M  V30 2363 H 213.845 3.22264 2.71521 0
M  V30 2364 H 212.569 1.98601 2.59278 0
M  V30 2365 H 211.228 3.49993 1.0909 0
M  V30 2366 H 210.876 3.54695 3.56651 0
M  V30 2367 H 210.576 5.14495 2.83847 0
M  V30 2368 H 212.1 4.8418 3.72024 0
M  V30 2369 H 213.514 5.51891 1.55208 0
M  V30 2370 H 211.911 5.93615 0.87985 0
M  V30 2371 H 212.981 4.84894 -0.0235286 0
M  V30 2372 N 214.325 -0.140222 1.56975 0
M  V30 2373 C 215.288 -1.15689 1.97861 0
M  V30 2374 C 216.288 -1.3549 0.865974 0
M  V30 2375 O 217.478 -1.32367 1.13246 0
M  V30 2376 C 214.61 -2.51582 2.30042 0
M  V30 2377 H 215.803 -0.805971 2.88867 0
M  V30 2378 H 213.356 -0.383801 1.51515 0
M  V30 2379 H 214.091 -2.91632 1.41849 0
M  V30 2380 H 213.876 -2.38569 3.11171 0
M  V30 2381 H 215.366 -3.24792 2.62488 0
M  V30 2382 N 215.803 -1.52179 -0.40978 0
M  V30 2383 C 216.735 -1.71703 -1.51825 0
M  V30 2384 C 217.748 -0.597445 -1.51441 0
M  V30 2385 O 218.937 -0.872582 -1.55719 0
M  V30 2386 C 216.037 -1.74171 -2.90719 0
M  V30 2387 C 215.21 -3.03156 -3.15302 0
M  V30 2388 C 214.269 -2.97445 -4.34065 0
M  V30 2389 O 213.295 -3.71352 -4.31377 0
M  V30 2390 N 214.497 -2.15191 -5.39141 0
M  V30 2391 H 217.262 -2.67334 -1.35472 0
M  V30 2392 H 214.823 -1.50409 -0.599069 0
M  V30 2393 H 216.815 -1.67884 -3.68235 0
M  V30 2394 H 215.385 -0.860166 -3.00533 0
M  V30 2395 H 214.605 -3.23097 -2.25836 0
M  V30 2396 H 215.893 -3.88484 -3.28569 0
M  V30 2397 H 215.291 -1.54573 -5.44173 0
M  V30 2398 H 213.848 -2.1476 -6.15403 0
M  V30 2399 N 217.281 0.66697 -1.42791 0
M  V30 2400 C 218.228 1.7803 -1.4688 0
M  V30 2401 C 219.198 1.6299 -0.319919 0
M  V30 2402 O 220.383 1.83432 -0.525118 0
M  V30 2403 C 217.523 3.1611 -1.38451 0
M  V30 2404 C 216.636 3.42381 -2.63437 0
M  V30 2405 C 215.771 4.70232 -2.47094 0
M  V30 2406 C 214.81 4.89564 -3.67415 0
M  V30 2407 N 213.947 6.08661 -3.49966 0
M  V30 2408 H 218.787 1.7387 -2.42019 0
M  V30 2409 H 216.324 0.84868 -1.20149 0
M  V30 2410 H 218.282 3.95914 -1.31561 0
M  V30 2411 H 216.912 3.19374 -0.469033 0
M  V30 2412 H 215.964 2.56774 -2.80662 0
M  V30 2413 H 217.276 3.52557 -3.52853 0
M  V30 2414 H 216.43 5.5814 -2.37834 0
M  V30 2415 H 215.169 4.62353 -1.5518 0
M  V30 2416 H 214.174 4.00096 -3.77099 0
M  V30 2417 H 215.399 4.99282 -4.6032 0
M  V30 2418 H 213.345 6.0194 -2.60776 0
M  V30 2419 H 213.262 6.19733 -4.32975 0
M  V30 2420 H 214.53 6.99226 -3.44532 0
M  V30 2421 N 218.759 1.29093 0.90403 0
M  V30 2422 C 219.692 1.08176 2.00931 0
M  V30 2423 C 220.67 -0.005083 1.62599 0
M  V30 2424 O 221.854 0.144765 1.87943 0
M  V30 2425 C 218.981 0.645897 3.32484 0
M  V30 2426 C 218.027 1.73081 3.89801 0
M  V30 2427 S 218.86 3.32905 4.19446 0
M  V30 2428 C 220.016 2.91176 5.54046 0
M  V30 2429 H 220.249 2.01752 2.18365 0
M  V30 2430 H 217.782 1.13191 1.0501 0
M  V30 2431 H 219.74 0.401131 4.08535 0
M  V30 2432 H 218.401 -0.270188 3.12936 0
M  V30 2433 H 217.594 1.37768 4.84805 0
M  V30 2434 H 217.196 1.92888 3.20422 0
M  V30 2435 H 219.488 2.37952 6.34338 0
M  V30 2436 H 220.431 3.85014 5.94281 0
M  V30 2437 H 220.839 2.296 5.15698 0
M  V30 2438 N 220.237 -1.11381 1.11499 0
M  V30 2439 C 221.147 -2.21019 0.786628 0
M  V30 2440 C 222.163 -1.72597 -0.220507 0
M  V30 2441 O 223.339 -2.01321 -0.0565251 0
M  V30 2442 C 220.404 -3.459 0.235333 0
M  V30 2443 C 219.465 -4.09107 1.30115 0
M  V30 2444 C 218.698 -5.28027 0.776068 0
M  V30 2445 O 218.921 -5.6904 -0.393661 0
M  V30 2446 O 217.855 -5.81835 1.54114 0
M  V30 2447 H 221.681 -2.51521 1.70209 0
M  V30 2448 H 219.266 -1.19928 0.890928 0
M  V30 2449 H 221.148 -4.21346 -0.067715 0
M  V30 2450 H 219.823 -3.17049 -0.652828 0
M  V30 2451 H 218.73 -3.35391 1.65722 0
M  V30 2452 H 220.063 -4.42139 2.16273 0
M  V30 2453 N 221.715 -0.905404 -1.28997 0
M  V30 2454 C 222.94 -0.549175 -1.99997 0
M  V30 2455 C 223.365 0.860276 -1.67275 0
M  V30 2456 O 222.723 1.57355 -0.900502 0
M  V30 2457 C 222.771 -0.755185 -3.52604 0
M  V30 2458 O 221.875 0.189692 -4.11964 0
M  V30 2459 H 221.216 -0.213899 -0.628604 0
M  V30 2460 H 223.746 -1.21856 -1.64354 0
M  V30 2461 H 223.756 -0.662045 -4.02593 0
M  V30 2462 H 222.431 -1.78271 -3.75755 0
M  V30 2463 H 221.008 0.0485257 -3.72868 0
M  V30 2464 N 223.193 1.4272 -0.668489 0
M  V30 2465 C 224.141 2.32586 0.0254857 0
M  V30 2466 C 225.135 1.49471 0.797176 0
M  V30 2467 O 226.341 1.65583 0.705853 0
M  V30 2468 H 222.716 0.751514 0.0270339 0
M  V30 2469 H 224.687 2.88823 -0.749936 0
M  V30 2470 C 223.436 3.3397 0.967427 0
M  V30 2471 H 222.759 3.97961 0.383048 0
M  V30 2472 H 224.199 3.9945 1.42181 0
M  V30 2473 C 222.658 2.65744 2.0708 0
M  V30 2474 O 223.188 2.48454 3.15648 0
M  V30 2475 N 221.394 2.2487 1.8407 0
M  V30 2476 H 220.941 2.39132 0.95778 0
M  V30 2477 H 220.899 1.79552 2.58086 0
M  V30 2478 N 224.671 0.411399 1.52136 0
M  V30 2479 C 225.618 -0.412975 2.27075 0
M  V30 2480 C 226.588 -1.03912 1.29582 0
M  V30 2481 O 227.773 -1.06296 1.58448 0
M  V30 2482 C 224.913 -1.52247 3.09701 0
M  V30 2483 C 224.026 -0.917021 4.22155 0
M  V30 2484 C 223.161 -1.9994 4.92135 0
M  V30 2485 C 222.2 -1.37101 5.96548 0
M  V30 2486 N 221.337 -2.39364 6.60038 0
M  V30 2487 H 226.177 0.232499 2.97092 0
M  V30 2488 H 223.714 0.126496 1.46555 0
M  V30 2489 H 225.672 -2.17674 3.55913 0
M  V30 2490 H 224.302 -2.13794 2.41851 0
M  V30 2491 H 223.354 -0.151742 3.80097 0
M  V30 2492 H 224.666 -0.418006 4.97045 0
M  V30 2493 H 223.82 -2.73088 5.41763 0
M  V30 2494 H 222.559 -2.53208 4.16818 0
M  V30 2495 H 221.564 -0.624873 5.46237 0
M  V30 2496 H 222.789 -0.845998 6.7381 0
M  V30 2497 H 220.735 -2.91759 5.87548 0
M  V30 2498 H 220.652 -1.9428 7.3061 0
M  V30 2499 H 221.92 -3.12074 7.14304 0
M  V30 2500 N 226.149 -1.5696 0.141893 0
M  V30 2501 C 227.059 -2.20066 -0.812905 0
M  V30 2502 C 228.075 -1.18344 -1.27557 0
M  V30 2503 O 229.251 -1.50902 -1.33381 0
M  V30 2504 C 226.316 -2.80583 -2.03652 0
M  V30 2505 C 225.377 -3.97414 -1.62359 0
M  V30 2506 C 224.61 -4.55036 -2.78887 0
M  V30 2507 O 224.833 -4.11538 -3.94959 0
M  V30 2508 O 223.767 -5.45376 -2.54653 0
M  V30 2509 H 227.593 -3.02157 -0.305746 0
M  V30 2510 H 225.178 -1.49159 -0.0848799 0
M  V30 2511 H 227.06 -3.19067 -2.75272 0
M  V30 2512 H 225.735 -2.01508 -2.5333 0
M  V30 2513 H 224.642 -3.63656 -0.877775 0
M  V30 2514 H 225.975 -4.77994 -1.17401 0
M  V30 2515 N 227.627 0.131896 -1.57047 0
M  V30 2516 C 228.575 1.18146 -2.0036 0
M  V30 2517 C 229.569 1.43614 -0.898406 0
M  V30 2518 O 230.775 1.43729 -1.08361 0
M  V30 2519 H 227.15 0.398042 -0.638018 0
M  V30 2520 H 229.121 0.789564 -2.87765 0
M  V30 2521 C 227.87 2.50341 -2.41298 0
M  V30 2522 H 227.193 2.31578 -3.25902 0
M  V30 2523 H 228.633 3.22371 -2.75414 0
M  V30 2524 C 227.092 3.11984 -1.27153 0
M  V30 2525 O 227.622 3.97484 -0.580459 0
M  V30 2526 N 225.828 2.71662 -1.03189 0
M  V30 2527 H 225.375 2.02231 -1.59564 0
M  V30 2528 H 225.333 3.13238 -0.270077 0
M  V30 2529 N 229.106 1.52395 0.401703 0
M  V30 2530 C 230.522 1.41363 0.740864 0
M  V30 2531 C 230.722 0.523982 1.94568 0
M  V30 2532 O 229.778 -0.00741204 2.52499 0
M  V30 2533 C 231.091 2.84011 0.987847 0
M  V30 2534 C 232.639 2.93404 1.09011 0
M  V30 2535 C 233.114 4.37036 1.3698 0
M  V30 2536 N 234.605 4.40304 1.43829 0
M  V30 2537 C 235.34 5.48508 1.67112 0
M  V30 2538 N 234.836 6.66819 1.87949 0
M  V30 2539 N 236.629 5.36034 1.69187 0
M  V30 2540 H 228.78 2.08765 -0.391262 0
M  V30 2541 H 231.043 0.941265 -0.112798 0
M  V30 2542 H 230.749 3.51265 0.174835 0
M  V30 2543 H 230.623 3.25502 1.906 0
M  V30 2544 H 233.01 2.26325 1.8937 0
M  V30 2545 H 233.091 2.55359 0.15015 0
M  V30 2546 H 232.735 5.04676 0.571353 0
M  V30 2547 H 232.665 4.72623 2.3224 0
M  V30 2548 H 235.156 3.55024 1.29486 0
M  V30 2549 H 235.469 7.45063 2.05185 0
M  V30 2550 H 233.814 6.6987 1.85199 0
M  V30 2551 H 237.005 4.42579 1.52451 0
M  V30 2552 H 237.178 6.20434 1.86993 0
M  V30 2553 N 230.584 -0.659388 1.43143 0
M  V30 2554 C 231.494 -1.80167 1.50256 0
M  V30 2555 C 232.51 -1.69571 0.390106 0
M  V30 2556 O 233.686 -1.90849 0.643319 0
M  V30 2557 C 230.751 -3.16409 1.41725 0
M  V30 2558 C 229.812 -3.38848 2.63591 0
M  V30 2559 C 229.045 -4.68591 2.55458 0
M  V30 2560 O 229.268 -5.47532 1.59891 0
M  V30 2561 O 228.202 -4.92614 3.45854 0
M  V30 2562 H 232.028 -1.77121 2.46702 0
M  V30 2563 H 229.613 -0.817092 1.25076 0
M  V30 2564 H 231.495 -3.9768 1.39387 0
M  V30 2565 H 230.17 -3.20059 0.484118 0
M  V30 2566 H 229.077 -2.57366 2.71502 0
M  V30 2567 H 230.41 -3.4004 3.55856 0
M  V30 2568 N 232.062 -1.29571 -0.897171 0
M  V30 2569 C 233.025 -1.14913 -1.98312 0
M  V30 2570 C 234.025 -0.0838629 -1.60581 0
M  V30 2571 O 235.215 -0.331006 -1.71026 0
M  V30 2572 C 232.347 -0.757835 -3.3237 0
M  V30 2573 H 233.54 -2.11377 -2.12743 0
M  V30 2574 H 231.093 -1.12793 -1.08201 0
M  V30 2575 H 231.828 0.206837 -3.2364 0
M  V30 2576 H 231.613 -1.52755 -3.61121 0
M  V30 2577 H 233.103 -0.678408 -4.12053 0
M  V30 2578 N 233.54 1.10788 -1.12088 0
M  V30 2579 C 234.49 2.15158 -0.754401 0
M  V30 2580 C 235.474 1.59026 0.244846 0
M  V30 2581 O 236.666 1.76927 0.0509097 0
M  V30 2582 C 233.795 3.42677 -0.206657 0
M  V30 2583 C 232.881 4.05751 -1.23398 0
M  V30 2584 N 233.272 4.43582 -2.43041 0
M  V30 2585 C 231.57 4.32764 -1.07848 0
M  V30 2586 C 232.271 4.93085 -3.08613 0
M  V30 2587 N 231.247 4.89664 -2.36072 0
M  V30 2588 H 235.049 2.42195 -1.6649 0
M  V30 2589 H 232.563 1.27872 -1.00112 0
M  V30 2590 H 234.56 4.16834 0.0740646 0
M  V30 2591 H 233.22 3.17101 0.698342 0
M  V30 2592 H 234.231 4.35395 -2.80449 0
M  V30 2593 H 230.908 4.16863 -0.230483 0
M  V30 2594 H 232.298 5.31933 -4.10483 0
M  V30 2595 N 235.018 0.912232 1.28515 0
M  V30 2596 C 235.948 0.416403 2.29757 0
M  V30 2597 C 236.929 -0.515194 1.6211 0
M  V30 2598 O 238.114 -0.423253 1.89532 0
M  V30 2599 C 235.244 -0.34572 3.45575 0
M  V30 2600 C 234.198 0.496599 4.25109 0
M  V30 2601 C 233.524 -0.393771 5.33248 0
M  V30 2602 C 234.824 1.75307 4.92001 0
M  V30 2603 H 236.518 1.26249 2.7148 0
M  V30 2604 H 234.064 0.608515 1.30511 0
M  V30 2605 H 236.017 -0.703422 4.15488 0
M  V30 2606 H 234.741 -1.2257 3.02728 0
M  V30 2607 H 233.4 0.8368 3.56922 0
M  V30 2608 H 233.048 -1.27225 4.86644 0
M  V30 2609 H 232.748 0.166209 5.87365 0
M  V30 2610 H 234.272 -0.747389 6.06009 0
M  V30 2611 H 235.686 1.46437 5.54283 0
M  V30 2612 H 234.083 2.25534 5.56106 0
M  V30 2613 H 235.153 2.48176 4.16577 0
M  V30 2614 N 236.496 -1.42363 0.676048 0
M  V30 2615 C 237.459 -2.29199 0.00766941 0
M  V30 2616 C 238.459 -1.43389 -0.727745 0
M  V30 2617 O 239.649 -1.64764 -0.56556 0
M  V30 2618 C 236.781 -3.2591 -0.999785 0
M  V30 2619 H 237.974 -2.89794 0.771988 0
M  V30 2620 H 235.527 -1.50024 0.438468 0
M  V30 2621 H 236.262 -2.70256 -1.79255 0
M  V30 2622 H 236.047 -3.89202 -0.475829 0
M  V30 2623 H 237.537 -3.91028 -1.46583 0
M  V30 2624 N 237.974 -0.419461 -1.51915 0
M  V30 2625 C 238.937 0.389116 -2.25873 0
M  V30 2626 C 239.937 0.964924 -1.28631 0
M  V30 2627 O 241.127 0.842179 -1.52489 0
M  V30 2628 C 238.259 1.54874 -3.03689 0
M  V30 2629 H 239.452 -0.258799 -2.98781 0
M  V30 2630 H 237.005 -0.172209 -1.55348 0
M  V30 2631 H 237.74 2.23323 -2.35154 0
M  V30 2632 H 237.525 1.14223 -3.75094 0
M  V30 2633 H 239.015 2.12046 -3.59759 0
M  V30 2634 N 239.452 1.56882 -0.150215 0
M  V30 2635 C 240.385 2.12712 0.826358 0
M  V30 2636 C 241.363 1.05154 1.24022 0
M  V30 2637 O 242.547 1.33004 1.33575 0
M  V30 2638 C 239.674 2.64945 2.11002 0
M  V30 2639 C 238.72 3.8468 1.84183 0
M  V30 2640 S 239.553 5.25502 1.02995 0
M  V30 2641 C 240.709 5.81125 2.32474 0
M  V30 2642 H 240.942 2.95214 0.351598 0
M  V30 2643 H 238.475 1.54267 0.0641211 0
M  V30 2644 H 240.433 2.95689 2.84742 0
M  V30 2645 H 239.094 1.82568 2.55593 0
M  V30 2646 H 238.287 4.19482 2.79375 0
M  V30 2647 H 237.889 3.54714 1.1855 0
M  V30 2648 H 240.181 5.92753 3.281 0
M  V30 2649 H 241.124 6.78625 2.02171 0
M  V30 2650 H 241.532 5.09392 2.43269 0
M  V30 2651 N 240.93 -0.123565 1.57115 0
M  V30 2652 C 241.86 -1.15309 2.03042 0
M  V30 2653 C 242.841 -1.43454 0.914061 0
M  V30 2654 O 244.026 -1.53973 1.18347 0
M  V30 2655 C 241.156 -2.48043 2.43089 0
M  V30 2656 C 240.11 -2.3437 3.58127 0
M  V30 2657 C 239.436 -3.72026 3.84059 0
M  V30 2658 C 240.736 -1.80804 4.90007 0
M  V30 2659 H 242.43 -0.771102 2.893 0
M  V30 2660 H 239.976 -0.369479 1.39179 0
M  V30 2661 H 241.929 -3.20311 2.73823 0
M  V30 2662 H 240.653 -2.88122 1.53796 0
M  V30 2663 H 239.312 -1.64551 3.27595 0
M  V30 2664 H 238.96 -4.09582 2.91979 0
M  V30 2665 H 238.66 -3.63732 4.6149 0
M  V30 2666 H 240.184 -4.45806 4.1724 0
M  V30 2667 H 241.598 -2.42886 5.19307 0
M  V30 2668 H 239.995 -1.83343 5.71407 0
M  V30 2669 H 241.065 -0.76528 4.78823 0
M  V30 2670 N 242.408 -1.52605 -0.393616 0
M  V30 2671 C 243.318 -1.79971 -1.50492 0
M  V30 2672 C 244.334 -0.686181 -1.59899 0
M  V30 2673 O 245.51 -0.973274 -1.76322 0
M  V30 2674 C 242.575 -1.95867 -2.86072 0
M  V30 2675 C 241.636 -3.19781 -2.86424 0
M  V30 2676 C 240.869 -3.34909 -4.15538 0
M  V30 2677 O 241.092 -2.54948 -5.10253 0
M  V30 2678 O 240.026 -4.28141 -4.23059 0
M  V30 2679 H 243.852 -2.74328 -1.30299 0
M  V30 2680 H 241.437 -1.3764 -0.581005 0
M  V30 2681 H 243.319 -2.08056 -3.66457 0
M  V30 2682 H 241.994 -1.04699 -3.063 0
M  V30 2683 H 240.901 -3.13038 -2.04837 0
M  V30 2684 H 242.234 -4.1078 -2.71147 0
M  V30 2685 N 243.887 0.651787 -1.4349 0
M  V30 2686 C 245.303 0.96762 -1.26922 0
M  V30 2687 C 245.503 2.00602 -0.189982 0
M  V30 2688 O 244.559 2.48793 0.431107 0
M  V30 2689 C 245.872 1.45052 -2.63401 0
M  V30 2690 C 247.42 1.5671 -2.70945 0
M  V30 2691 C 247.895 2.0839 -4.07845 0
M  V30 2692 N 249.386 2.1569 -4.09917 0
M  V30 2693 C 250.121 2.56804 -5.12679 0
M  V30 2694 N 249.617 2.97203 -6.25813 0
M  V30 2695 N 251.41 2.56756 -5.00033 0
M  V30 2696 H 243.561 -0.0353158 -2.12371 0
M  V30 2697 H 245.824 0.0467858 -0.946845 0
M  V30 2698 H 245.53 0.761926 -3.43348 0
M  V30 2699 H 245.404 2.42529 -2.88894 0
M  V30 2700 H 247.791 2.2467 -1.9133 0
M  V30 2701 H 247.872 0.57662 -2.49216 0
M  V30 2702 H 247.516 1.41031 -4.87927 0
M  V30 2703 H 247.446 3.08271 -4.26938 0
M  V30 2704 H 249.937 1.87237 -3.28254 0
M  V30 2705 H 250.25 3.27328 -7.00055 0
M  V30 2706 H 248.595 2.95004 -6.29283 0
M  V30 2707 H 251.786 2.24572 -4.10713 0
M  V30 2708 H 251.959 2.88475 -5.80247 0
M  V30 2709 N 245.365 1.30045 0.890287 0
M  V30 2710 C 246.295 1.18541 2.01172 0
M  V30 2711 C 247.276 0.0773356 1.69924 0
M  V30 2712 O 248.461 0.25845 1.92473 0
M  V30 2713 C 245.591 0.870941 3.36202 0
M  V30 2714 C 244.545 1.93637 3.81692 0
M  V30 2715 C 243.871 1.475 5.13953 0
M  V30 2716 C 245.171 3.34666 4.00994 0
M  V30 2717 H 246.865 2.12359 2.11054 0
M  V30 2718 H 244.411 1.02238 1.01407 0
M  V30 2719 H 246.364 0.777141 4.14172 0
M  V30 2720 H 245.088 -0.102926 3.26438 0
M  V30 2721 H 243.747 2.01972 3.05946 0
M  V30 2722 H 243.395 0.489551 5.00612 0
M  V30 2723 H 243.095 2.1876 5.4536 0
M  V30 2724 H 244.619 1.39489 5.94454 0
M  V30 2725 H 246.033 3.2912 4.69417 0
M  V30 2726 H 244.43 4.03966 4.43769 0
M  V30 2727 H 245.5 3.76949 3.05021 0
M  V30 2728 N 246.843 -1.10192 1.12674 0
M  V30 2729 C 247.775 -2.16418 0.754701 0
M  V30 2730 C 248.788 -1.61309 -0.21986 0
M  V30 2731 O 249.977 -1.785 -0.000826841 0
M  V30 2732 C 247.077 -3.38762 0.096698 0
M  V30 2733 C 246.25 -4.23307 1.10136 0
M  V30 2734 C 245.309 -5.24092 0.470513 0
M  V30 2735 O 244.335 -5.57906 1.12824 0
M  V30 2736 N 245.537 -5.75491 -0.760948 0
M  V30 2737 H 248.302 -2.48943 1.66875 0
M  V30 2738 H 245.863 -1.25834 1.01869 0
M  V30 2739 H 247.855 -4.03291 -0.337384 0
M  V30 2740 H 246.425 -3.04192 -0.720153 0
M  V30 2741 H 245.645 -3.55036 1.71299 0
M  V30 2742 H 246.933 -4.76624 1.78064 0
M  V30 2743 H 246.331 -5.50222 -1.31424 0
M  V30 2744 H 244.888 -6.41792 -1.13781 0
M  V30 2745 N 248.321 -0.919034 -1.28029 0
M  V30 2746 C 249.231 -0.416756 -2.30869 0
M  V30 2747 C 250.247 0.498235 -1.66714 0
M  V30 2748 O 251.423 0.383144 -1.97722 0
M  V30 2749 C 248.488 0.330274 -3.45123 0
M  V30 2750 C 247.549 -0.618578 -4.2482 0
M  V30 2751 C 246.782 0.0928959 -5.33619 0
M  V30 2752 O 247.005 1.31375 -5.55065 0
M  V30 2753 O 245.939 -0.574499 -5.99152 0
M  V30 2754 H 249.765 -1.27043 -2.75851 0
M  V30 2755 H 247.35 -0.684052 -1.3282 0
M  V30 2756 H 249.232 0.751972 -4.14636 0
M  V30 2757 H 247.907 1.1597 -3.02213 0
M  V30 2758 H 246.814 -1.08978 -3.57875 0
M  V30 2759 H 248.147 -1.41497 -4.71423 0
M  V30 2760 N 249.799 1.42003 -0.683588 0
M  V30 2761 C 250.746 2.30798 -0.0107309 0
M  V30 2762 C 251.716 1.4645 0.783688 0
M  V30 2763 O 252.901 1.75263 0.754156 0
M  V30 2764 C 250.041 3.3238 0.928306 0
M  V30 2765 C 249.154 4.31814 0.126776 0
M  V30 2766 C 248.289 5.20468 1.06236 0
M  V30 2767 C 247.328 6.11577 0.253035 0
M  V30 2768 N 246.465 6.92754 1.14179 0
M  V30 2769 H 251.305 2.8778 -0.773727 0
M  V30 2770 H 248.842 1.41745 -0.393283 0
M  V30 2771 H 250.8 3.89813 1.48666 0
M  V30 2772 H 249.43 2.76976 1.65783 0
M  V30 2773 H 248.482 3.76427 -0.54833 0
M  V30 2774 H 249.794 4.96276 -0.501192 0
M  V30 2775 H 248.948 5.82677 1.69035 0
M  V30 2776 H 247.687 4.56204 1.7242 0
M  V30 2777 H 246.692 5.48428 -0.388108 0
M  V30 2778 H 247.917 6.77892 -0.404839 0
M  V30 2779 H 245.863 6.3111 1.78987 0
M  V30 2780 H 245.78 7.53855 0.569111 0
M  V30 2781 H 247.048 7.59441 1.75697 0
M  V30 2782 N 251.277 0.427512 1.51691 0
M  V30 2783 C 252.554 -0.201684 1.94557 0
M  V30 2784 C 252.934 -1.60981 1.36559 0
M  V30 2785 O 252.282 -2.21814 0.548702 0
M  V30 2786 C 252.492 -0.189394 3.48486 0
M  V30 2787 C 253.84 -0.39978 4.22714 0
M  V30 2788 O 254.864 -0.267945 3.55191 0
M  V30 2789 O 253.723 -0.661249 5.42485 0
M  V30 2790 H 250.817 -0.135261 0.815864 0
M  V30 2791 H 253.363 0.484782 1.62628 0
M  V30 2792 H 252.135 0.795431 3.8313 0
M  V30 2793 H 251.758 -0.919187 3.86829 0
M  V30 2794 N 252.755 -1.56801 0.158532 0
M  V30 2795 C 253.702 -2.17337 -0.776729 0
M  V30 2796 C 254.672 -1.1096 -1.23601 0
M  V30 2797 O 255.857 -1.39054 -1.30647 0
M  V30 2798 C 252.997 -2.80822 -2.00582 0
M  V30 2799 C 252.11 -4.01624 -1.59129 0
M  V30 2800 C 251.245 -4.53072 -2.77306 0
M  V30 2801 C 250.284 -5.66314 -2.32282 0
M  V30 2802 N 249.421 -6.12329 -3.43508 0
M  V30 2803 H 254.261 -2.96918 -0.253701 0
M  V30 2804 H 251.798 -1.46661 -0.113504 0
M  V30 2805 H 253.756 -3.15779 -2.72652 0
M  V30 2806 H 252.386 -2.03866 -2.50277 0
M  V30 2807 H 251.438 -3.72571 -0.767806 0
M  V30 2808 H 252.75 -4.83633 -1.2207 0
M  V30 2809 H 251.904 -4.90145 -3.57551 0
M  V30 2810 H 250.643 -3.70095 -3.17617 0
M  V30 2811 H 249.648 -5.28806 -1.5048 0
M  V30 2812 H 250.873 -6.51085 -1.93043 0
M  V30 2813 H 248.819 -5.32284 -3.83418 0
M  V30 2814 H 248.736 -6.89293 -3.105 0
M  V30 2815 H 250.004 -6.5405 -4.24075 0
M  V30 2816 N 254.233 0.115231 -1.57178 0
M  V30 2817 C 255.183 1.14707 -1.97044 0
M  V30 2818 C 256.167 1.36866 -0.845957 0
M  V30 2819 O 257.359 1.37895 -1.10968 0
M  V30 2820 C 254.488 2.47266 -2.38148 0
M  V30 2821 C 253.574 2.28566 -3.57237 0
M  V30 2822 N 253.965 1.79685 -4.72807 0
M  V30 2823 C 252.263 2.59208 -3.62943 0
M  V30 2824 C 252.964 1.74781 -5.54821 0
M  V30 2825 N 251.94 2.19264 -4.97417 0
M  V30 2826 H 255.742 0.761754 -2.83857 0
M  V30 2827 H 253.256 0.322928 -1.59157 0
M  V30 2828 H 255.253 3.219 -2.64927 0
M  V30 2829 H 253.913 2.86552 -1.52702 0
M  V30 2830 H 254.924 1.49177 -4.9595 0
M  V30 2831 H 251.601 3.02154 -2.88113 0
M  V30 2832 H 252.991 1.38212 -6.57531 0
M  V30 2833 N 255.711 1.52812 0.385517 0
M  V30 2834 C 256.674 1.77188 1.45386 0
M  V30 2835 C 257.674 0.641953 1.4743 0
M  V30 2836 O 258.864 0.910033 1.4854 0
M  V30 2837 C 255.996 1.87582 2.8465 0
M  V30 2838 H 257.189 2.72583 1.25054 0
M  V30 2839 H 254.742 1.43586 0.617467 0
M  V30 2840 H 255.477 0.941849 3.10322 0
M  V30 2841 H 255.262 2.69748 2.84567 0
M  V30 2842 H 256.752 2.08102 3.62054 0
M  V30 2843 N 257.189 -0.644168 1.43834 0
M  V30 2844 C 258.099 -1.78563 1.52159 0
M  V30 2845 C 259.115 -1.69147 0.408069 0
M  V30 2846 O 260.291 -1.90156 0.663524 0
M  V30 2847 C 257.356 -3.14888 1.45073 0
M  V30 2848 C 256.417 -3.36034 2.6717 0
M  V30 2849 C 255.65 -4.65855 2.60413 0
M  V30 2850 O 255.873 -5.45805 1.65689 0
M  V30 2851 O 254.807 -4.88918 3.5106 0
M  V30 2852 H 258.633 -1.74494 2.48567 0
M  V30 2853 H 256.218 -0.80378 1.25935 0
M  V30 2854 H 258.1 -3.96179 1.43597 0
M  V30 2855 H 256.775 -3.19528 0.518037 0
M  V30 2856 H 255.682 -2.54472 2.74217 0
M  V30 2857 H 257.015 -3.36247 3.59442 0
M  V30 2858 N 258.668 -1.30515 -0.883378 0
M  V30 2859 C 259.578 -1.18959 -2.02203 0
M  V30 2860 C 260.594 -0.109172 -1.73657 0
M  V30 2861 O 261.77 -0.324413 -1.9877 0
M  V30 2862 C 258.835 -0.883871 -3.35244 0
M  V30 2863 C 257.896 -2.04982 -3.77201 0
M  V30 2864 C 257.129 -1.75859 -5.03894 0
M  V30 2865 O 257.352 -0.687276 -5.66244 0
M  V30 2866 O 256.286 -2.61146 -5.42297 0
M  V30 2867 H 260.112 -2.14616 -2.1488 0
M  V30 2868 H 257.697 -1.10124 -1.0096 0
M  V30 2869 H 259.579 -0.728644 -4.15053 0
M  V30 2870 H 258.254 0.0427798 -3.23672 0
M  V30 2871 H 257.161 -2.26038 -2.9809 0
M  V30 2872 H 258.494 -2.95825 -3.93381 0
M  V30 2873 N 260.146 1.09593 -1.13257 0
M  V30 2874 C 261.392 1.82003 -0.89458 0
M  V30 2875 C 261.725 1.85402 0.577906 0
M  V30 2876 O 261 1.32099 1.42759 0
M  V30 2877 C 261.283 3.28237 -1.48096 0
M  V30 2878 C 261.136 3.3312 -3.02244 0
M  V30 2879 C 262.455 4.24871 -1.14774 0
M  V30 2880 H 259.574 0.66077 -0.326424 0
M  V30 2881 H 262.216 1.28389 -1.40058 0
M  V30 2882 H 260.366 3.74024 -1.05062 0
M  V30 2883 H 262.038 2.95748 -3.54021 0
M  V30 2884 H 260.281 2.72756 -3.37323 0
M  V30 2885 H 260.952 4.3613 -3.38371 0
M  V30 2886 H 263.428 3.87361 -1.51957 0
M  V30 2887 H 262.304 5.25532 -1.58452 0
M  V30 2888 H 262.565 4.42058 -0.0611849 0
M  V30 2889 N 261.624 0.925811 1.2754 0
M  V30 2890 C 263.04 0.625767 1.46821 0
M  V30 2891 C 263.24 -0.825506 1.83814 0
M  V30 2892 O 262.296 -1.60356 1.95044 0
M  V30 2893 C 263.609 1.57402 2.56213 0
M  V30 2894 C 265.157 1.58204 2.70075 0
M  V30 2895 C 265.632 2.51721 3.82623 0
M  V30 2896 N 267.123 2.49917 3.89994 0
M  V30 2897 C 267.858 3.18968 4.76494 0
M  V30 2898 N 267.354 3.97391 5.67496 0
M  V30 2899 N 269.147 3.07996 4.70208 0
M  V30 2900 H 261.298 1.86409 1.01811 0
M  V30 2901 H 263.561 0.800213 0.508295 0
M  V30 2902 H 263.267 2.60925 2.35819 0
M  V30 2903 H 263.141 1.31428 3.53563 0
M  V30 2904 H 265.528 0.554124 2.89851 0
M  V30 2905 H 265.609 1.88226 1.73218 0
M  V30 2906 H 265.253 3.54622 3.63601 0
M  V30 2907 H 265.183 2.18996 4.78903 0
M  V30 2908 H 267.674 1.9296 3.24923 0
M  V30 2909 H 267.987 4.4707 6.30356 0
M  V30 2910 H 266.332 4.01495 5.67298 0
M  V30 2911 H 269.523 2.46223 3.9811 0
M  V30 2912 H 269.696 3.6208 5.37403 0
M  V30 2913 N 263.102 -1.41638 0.69111 0
M  V30 2914 C 264.049 -2.30789 0.0229705 0
M  V30 2915 C 265.019 -1.46863 -0.775911 0
M  V30 2916 O 266.204 -1.75661 -0.74485 0
M  V30 2917 C 263.344 -3.32868 -0.910666 0
M  V30 2918 C 262.457 -4.31875 -0.103874 0
M  V30 2919 C 261.592 -5.21024 -1.03475 0
M  V30 2920 C 260.631 -6.11702 -0.220598 0
M  V30 2921 N 259.768 -6.93349 -1.10504 0
M  V30 2922 H 264.608 -2.87366 0.788978 0
M  V30 2923 H 262.145 -1.41535 0.400794 0
M  V30 2924 H 264.103 -3.90596 -1.46597 0
M  V30 2925 H 262.733 -2.77851 -1.64312 0
M  V30 2926 H 261.785 -3.76131 0.568285 0
M  V30 2927 H 263.097 -4.96003 0.527504 0
M  V30 2928 H 262.251 -5.83565 -1.65943 0
M  V30 2929 H 260.99 -4.57112 -1.69999 0
M  V30 2930 H 259.995 -5.48215 0.417187 0
M  V30 2931 H 261.22 -6.77668 0.440784 0
M  V30 2932 H 259.166 -6.3205 -1.75638 0
M  V30 2933 H 259.083 -7.54146 -0.529125 0
M  V30 2934 H 260.351 -7.60362 -1.71667 0
M  V30 2935 N 264.58 -0.43555 -1.51462 0
M  V30 2936 C 265.528 0.391205 -2.29287 0
M  V30 2937 C 266.522 1.02247 -1.35062 0
M  V30 2938 O 267.728 0.957646 -1.52411 0
M  V30 2939 H 264.103 0.144968 -0.737895 0
M  V30 2940 H 266.074 -0.286051 -2.97026 0
M  V30 2941 C 264.823 1.48096 -3.14583 0
M  V30 2942 H 264.146 1.00457 -3.86973 0
M  V30 2943 H 265.586 2.03273 -3.72097 0
M  V30 2944 C 264.045 2.46321 -2.29843 0
M  V30 2945 O 264.575 3.50815 -1.95682 0
M  V30 2946 N 262.781 2.17166 -1.931 0
M  V30 2947 H 262.328 1.32218 -2.21079 0
M  V30 2948 H 262.286 2.83127 -1.36698 0
M  V30 2949 N 266.058 1.56714 -0.166846 0
M  V30 2950 C 267.005 2.17746 0.765193 0
M  V30 2951 C 267.975 1.11614 1.23011 0
M  V30 2952 O 269.16 1.39745 1.29908 0
M  V30 2953 C 266.3 2.81882 1.9909 0
M  V30 2954 C 265.413 4.02462 1.56997 0
M  V30 2955 C 264.548 4.54537 2.749 0
M  V30 2956 C 263.587 5.67538 2.29275 0
M  V30 2957 N 262.724 6.14142 3.40255 0
M  V30 2958 H 267.564 2.97048 0.237952 0
M  V30 2959 H 265.101 1.4672 0.105725 0
M  V30 2960 H 267.059 3.17221 2.70974 0
M  V30 2961 H 265.689 2.05191 2.49192 0
M  V30 2962 H 264.741 3.72973 0.748037 0
M  V30 2963 H 266.053 4.84273 1.19503 0
M  V30 2964 H 265.207 4.92035 3.54946 0
M  V30 2965 H 263.946 3.71774 3.1565 0
M  V30 2966 H 262.951 5.29597 1.47674 0
M  V30 2967 H 264.176 6.52099 1.89588 0
M  V30 2968 H 262.122 5.3431 3.8059 0
M  V30 2969 H 262.039 6.9093 3.06841 0
M  V30 2970 H 263.307 6.56289 4.206 0
M  V30 2971 N 267.536 -0.106894 1.57237 0
M  V30 2972 C 268.446 -1.14911 2.0453 0
M  V30 2973 C 269.462 -1.44592 0.96795 0
M  V30 2974 O 270.638 -1.55468 1.2803 0
M  V30 2975 C 267.703 -2.45272 2.45036 0
M  V30 2976 C 266.764 -2.22879 3.66911 0
M  V30 2977 C 265.997 -3.47024 4.05475 0
M  V30 2978 O 266.22 -4.54804 3.44252 0
M  V30 2979 O 265.154 -3.3731 4.98504 0
M  V30 2980 H 268.98 -0.777461 2.9358 0
M  V30 2981 H 266.565 -0.318563 1.45964 0
M  V30 2982 H 268.447 -3.22055 2.71769 0
M  V30 2983 H 267.122 -2.81886 1.59129 0
M  V30 2984 H 266.029 -1.43915 3.45311 0
M  V30 2985 H 267.362 -1.91163 4.53561 0
M  V30 2986 N 269.014 -1.53014 -0.377408 0
M  V30 2987 C 269.944 -1.81589 -1.46791 0
M  V30 2988 C 270.925 -0.668622 -1.56408 0
M  V30 2989 O 272.11 -0.917337 -1.71168 0
M  V30 2990 C 269.24 -1.99519 -2.8427 0
M  V30 2991 C 268.194 -3.15249 -2.89486 0
M  V30 2992 C 267.52 -3.18451 -4.29527 0
M  V30 2993 C 268.82 -4.54084 -2.58079 0
M  V30 2994 H 270.514 -2.7291 -1.23127 0
M  V30 2995 H 268.06 -1.31319 -0.590883 0
M  V30 2996 H 270.013 -2.18092 -3.60575 0
M  V30 2997 H 268.737 -1.04897 -3.09296 0
M  V30 2998 H 267.396 -2.96477 -2.15631 0
M  V30 2999 H 267.044 -2.2149 -4.5161 0
M  V30 3000 H 266.744 -3.962 -4.33934 0
M  V30 3001 H 268.268 -3.39193 -5.07721 0
M  V30 3002 H 269.682 -4.72899 -3.24098 0
M  V30 3003 H 268.079 -5.33987 -2.7382 0
M  V30 3004 H 269.149 -4.60006 -1.53372 0
M  V30 3005 N 270.492 0.636531 -1.44174 0
M  V30 3006 C 271.439 1.74875 -1.50624 0
M  V30 3007 C 272.409 1.62275 -0.35442 0
M  V30 3008 O 273.594 1.82276 -0.563908 0
M  V30 3009 C 270.734 3.13102 -1.45125 0
M  V30 3010 C 269.847 3.36717 -2.7064 0
M  V30 3011 C 268.982 4.64885 -2.57013 0
M  V30 3012 C 268.021 4.8166 -3.77717 0
M  V30 3013 N 267.158 6.01101 -3.62798 0
M  V30 3014 H 271.998 1.68697 -2.45653 0
M  V30 3015 H 269.535 0.823004 -1.21922 0
M  V30 3016 H 271.493 3.93034 -1.39929 0
M  V30 3017 H 270.123 3.18308 -0.536671 0
M  V30 3018 H 269.175 2.50763 -2.86046 0
M  V30 3019 H 270.487 3.44993 -3.60252 0
M  V30 3020 H 269.641 5.52969 -2.49619 0
M  V30 3021 H 268.38 4.58957 -1.64953 0
M  V30 3022 H 267.385 3.92007 -3.85501 0
M  V30 3023 H 268.61 4.89406 -4.70807 0
M  V30 3024 H 266.556 5.96273 -2.73486 0
M  V30 3025 H 266.473 6.10409 -4.46023 0
M  V30 3026 H 267.741 6.91761 -3.59286 0
M  V30 3027 N 271.97 1.30982 0.876444 0
M  V30 3028 C 272.88 1.2003 2.01569 0
M  V30 3029 C 273.896 0.11838 1.73597 0
M  V30 3030 O 275.072 0.33495 1.98595 0
M  V30 3031 C 272.137 0.901637 3.34771 0
M  V30 3032 C 271.198 2.06979 3.76109 0
M  V30 3033 C 270.431 1.78529 5.02954 0
M  V30 3034 O 270.654 0.717296 5.65872 0
M  V30 3035 O 269.588 2.64019 5.40905 0
M  V30 3036 H 273.414 2.15753 2.13739 0
M  V30 3037 H 270.999 1.10658 1.00375 0
M  V30 3038 H 272.881 0.750645 4.1466 0
M  V30 3039 H 271.556 -0.0256141 3.2369 0
M  V30 3040 H 270.463 2.27616 2.96887 0
M  V30 3041 H 271.796 2.97907 3.91807 0
M  V30 3042 N 273.449 -1.08991 1.13837 0
M  V30 3043 C 274.359 -2.19301 0.833333 0
M  V30 3044 C 275.375 -1.73026 -0.183847 0
M  V30 3045 O 276.551 -2.01395 -0.0138092 0
M  V30 3046 C 273.616 -3.45323 0.308651 0
M  V30 3047 C 272.677 -4.06255 1.38764 0
M  V30 3048 C 271.91 -5.26262 0.887896 0
M  V30 3049 O 272.133 -5.69747 -0.27287 0
M  V30 3050 O 271.067 -5.78435 1.66421 0
M  V30 3051 H 274.893 -2.47854 1.75506 0
M  V30 3052 H 272.478 -1.18012 0.916166 0
M  V30 3053 H 274.36 -4.21394 0.0216739 0
M  V30 3054 H 273.035 -3.18362 -0.585431 0
M  V30 3055 H 271.942 -3.318 1.72799 0
M  V30 3056 H 273.275 -4.37452 2.25602 0
M  V30 3057 N 274.927 -0.932562 -1.27047 0
M  V30 3058 C 275.89 -0.440064 -2.24936 0
M  V30 3059 C 276.89 0.444071 -1.54547 0
M  V30 3060 O 278.08 0.244465 -1.72476 0
M  V30 3061 C 275.212 0.36678 -3.38921 0
M  V30 3062 H 276.405 -1.305 -2.70018 0
M  V30 3063 H 273.958 -0.713707 -1.39054 0
M  V30 3064 H 274.693 1.25033 -2.99228 0
M  V30 3065 H 274.478 -0.267204 -3.91188 0
M  V30 3066 H 275.968 0.701567 -4.11665 0
M  V30 3067 N 276.405 1.4127 -0.698611 0
M  V30 3068 C 277.63 2.06024 -0.238512 0
M  V30 3069 C 278.055 1.5224 1.10475 0
M  V30 3070 O 277.413 0.650623 1.69223 0
M  V30 3071 C 277.461 3.59988 -0.209952 0
M  V30 3072 O 276.565 4.04282 0.814235 0
M  V30 3073 H 275.906 0.653829 -0.115775 0
M  V30 3074 H 278.436 1.8098 -0.954326 0
M  V30 3075 H 278.446 4.07979 -0.0418436 0
M  V30 3076 H 277.121 3.98503 -1.1903 0
M  V30 3077 H 275.698 3.6779 0.615234 0
M  V30 3078 N 277.883 0.443576 1.51229 0
M  V30 3079 C 279.299 0.0962001 1.5931 0
M  V30 3080 C 279.499 -1.39501 1.45402 0
M  V30 3081 O 278.555 -2.16557 1.29843 0
M  V30 3082 C 279.868 0.621875 2.94199 0
M  V30 3083 C 281.416 0.582865 3.07525 0
M  V30 3084 C 281.891 1.08562 4.44948 0
M  V30 3085 N 283.382 1.04387 4.51284 0
M  V30 3086 C 284.117 1.40368 5.55954 0
M  V30 3087 N 283.613 1.83664 6.68011 0
M  V30 3088 N 285.406 1.32145 5.46346 0
M  V30 3089 H 277.557 1.41376 1.58514 0
M  V30 3090 H 279.82 0.582965 0.747567 0
M  V30 3091 H 279.526 1.66546 3.09767 0
M  V30 3092 H 279.4 0.0502125 3.77167 0
M  V30 3093 H 281.787 -0.451749 2.91622 0
M  V30 3094 H 281.868 1.191 2.26382 0
M  V30 3095 H 281.512 2.11873 4.61598 0
M  V30 3096 H 281.442 0.453956 5.2464 0
M  V30 3097 H 283.933 0.725986 3.70861 0
M  V30 3098 H 284.246 2.0934 7.43906 0
M  V30 3099 H 282.591 1.87596 6.69203 0
M  V30 3100 H 285.782 0.981808 4.57688 0
M  V30 3101 H 285.955 1.60514 6.27805 0
M  V30 3102 O 279.4 -1.58373 0.316273 0
M  V30 3103 H 280.091 -1.92143 -0.24513 0
M  V30 END ATOM
M  V30 BEGIN BOND
M  V30 END BOND
M  V30 END CTAB
M  END
$$$$
