drugbank_target|Q9H239 Matrix metalloproteinase-28 (DB00786)
 OpenBabel12092120373D

  0  0  0     0  0            999 V3000
M  V30 BEGIN CTAB
M  V30 COUNTS 8262 8395 0 0 0
M  V30 BEGIN ATOM
M  V30 1 H -0.908 1.98254 -0.117106 0
M  V30 2 N 0 1.576 0 0
M  V30 3 C 0.933 2.03868 1.02534 0
M  V30 4 C 1.911 0.928543 1.3348 0
M  V30 5 O 3.095 1.19667 1.45644 0
M  V30 6 C 0.222 2.43627 2.35294 0
M  V30 7 C -0.732 3.65373 2.2001 0
M  V30 8 S 0.101 5.13292 1.52614 0
M  V30 9 C 1.257 5.56322 2.86805 0
M  V30 10 H 1.49 2.90518 0.631377 0
M  V30 11 H -0.977 1.52953 0.210867 0
M  V30 12 H 0.981 2.67203 3.11629 0
M  V30 13 H -0.358 1.57376 2.7183 0
M  V30 14 H -1.165 3.90944 3.18086 0
M  V30 15 H -1.563 3.418 1.51819 0
M  V30 16 H 0.729 5.58782 3.83104 0
M  V30 17 H 1.672 6.56266 2.65933 0
M  V30 18 H 2.08 4.83886 2.90714 0
M  V30 19 N 1.4781 -0.272755 1.55222 0
M  V30 20 C 2.7241 -1.00581 1.761 0
M  V30 21 C 3.0571 -1.85932 0.560625 0
M  V30 22 O 2.3321 -1.89416 -0.441801 0
M  V30 23 C 2.6151 -1.88816 3.06628 0
M  V30 24 C 2.4681 -1.06457 4.37021 0
M  V30 25 C 3.7871 -2.8752 3.33197 0
M  V30 26 H 0.9061 -0.364244 0.640699 0
M  V30 27 H 3.5481 -0.278189 1.87952 0
M  V30 28 H 1.6981 -2.50856 2.96654 0
M  V30 29 H 3.3701 -0.464863 4.58952 0
M  V30 30 H 1.6131 -0.368043 4.32236 0
M  V30 31 H 2.2841 -1.71514 5.24678 0
M  V30 32 H 4.7601 -2.35615 3.42965 0
M  V30 33 H 3.6361 -3.46399 4.25792 0
M  V30 34 H 3.8971 -3.62657 2.52849 0
M  V30 35 N 2.9562 -1.48159 -0.537278 0
M  V30 36 C 3.9192 -1.61665 -1.62472 0
M  V30 37 C 4.9192 -0.490395 -1.5314 0
M  V30 38 O 6.1092 -0.755998 -1.5694 0
M  V30 39 C 3.2412 -1.57997 -3.02076 0
M  V30 40 H 4.4342 -2.58621 -1.51839 0
M  V30 41 H 1.9872 -1.36647 -0.758771 0
M  V30 42 H 2.7222 -0.624913 -3.18222 0
M  V30 43 H 2.5072 -2.39755 -3.10258 0
M  V30 44 H 3.9972 -1.70627 -3.81151 0
M  V30 45 N 4.4343 0.785586 -1.36625 0
M  V30 46 C 5.8503 1.08419 -1.17122 0
M  V30 47 C 6.0503 2.015 0.00208491 0
M  V30 48 O 5.1063 2.43551 0.666278 0
M  V30 49 C 6.4193 1.69498 -2.48377 0
M  V30 50 C 7.9673 1.81821 -2.54775 0
M  V30 51 C 8.4423 2.46315 -3.86126 0
M  V30 52 N 9.9333 2.53779 -3.87492 0
M  V30 53 C 10.6683 3.045 -4.85868 0
M  V30 54 N 10.1643 3.55499 -5.94637 0
M  V30 55 N 11.9573 3.03247 -4.73284 0
M  V30 56 H 4.1083 0.167264 -2.1174 0
M  V30 57 H 6.3713 0.13682 -0.938075 0
M  V30 58 H 6.0773 1.08571 -3.34522 0
M  V30 59 H 5.9513 2.6896 -2.64462 0
M  V30 60 H 8.3383 2.41884 -1.69045 0
M  V30 61 H 8.4193 0.811532 -2.42586 0
M  V30 62 H 8.0633 1.86895 -4.72263 0
M  V30 63 H 7.9933 3.47561 -3.95612 0
M  V30 64 H 10.4843 2.17672 -3.08913 0
M  V30 65 H 10.7973 3.92562 -6.65669 0
M  V30 66 H 9.1423 3.5364 -5.98301 0
M  V30 67 H 12.3333 2.62696 -3.87438 0
M  V30 68 H 12.5063 3.42467 -5.50109 0
M  V30 69 N 5.9124 1.20967 1.01018 0
M  V30 70 C 7.1584 1.02526 1.74975 0
M  V30 71 C 7.4914 -0.4408 1.89131 0
M  V30 72 O 6.7664 -1.32718 1.42184 0
M  V30 73 C 7.0494 1.71699 3.1653 0
M  V30 74 C 6.9024 3.25791 3.10129 0
M  V30 75 C 8.2214 1.45531 4.15342 0
M  V30 76 H 5.3404 0.373863 0.635134 0
M  V30 77 H 7.9824 1.49071 1.17805 0
M  V30 78 H 6.1324 1.32128 3.65341 0
M  V30 79 H 7.8044 3.74697 2.69072 0
M  V30 80 H 6.0474 3.56363 2.47362 0
M  V30 81 H 6.7184 3.69353 4.10222 0
M  V30 82 H 9.1944 1.79872 3.75213 0
M  V30 83 H 8.0704 1.96453 5.1254 0
M  V30 84 H 8.3314 0.384237 4.40427 0
M  V30 85 N 7.3905 -1.2043 1.01659 0
M  V30 86 C 8.6385 -1.89423 0.704522 0
M  V30 87 C 8.9595 -1.79231 -0.768197 0
M  V30 88 O 8.2295 -1.1947 -1.55254 0
M  V30 89 H 6.8095 -0.701178 0.257602 0
M  V30 90 H 9.4715 -1.4626 1.28818 0
M  V30 91 H 8.5675 -2.96052 0.987916 0
M  V30 92 N 8.8686 -0.792821 -1.36206 0
M  V30 93 C 9.7986 -0.207853 -2.32573 0
M  V30 94 C 10.7796 0.659055 -1.56813 0
M  V30 95 O 11.9646 0.592176 -1.84951 0
M  V30 96 C 9.0946 0.655449 -3.41059 0
M  V30 97 C 8.0486 -0.111842 -4.27854 0
M  V30 98 C 7.3746 0.872274 -5.27537 0
M  V30 99 C 8.6746 -1.30299 -5.05786 0
M  V30 100 H 10.3686 -1.01294 -2.81744 0
M  V30 101 H 7.9146 -0.48854 -1.3546 0
M  V30 102 H 9.8676 1.07464 -4.07467 0
M  V30 103 H 8.5916 1.49328 -2.90463 0
M  V30 104 H 7.2506 -0.512053 -3.63006 0
M  V30 105 H 6.8986 1.70523 -4.73214 0
M  V30 106 H 6.5986 0.363291 -5.86476 0
M  V30 107 H 8.1226 1.28996 -5.96818 0
M  V30 108 H 9.5366 -0.959379 -5.65216 0
M  V30 109 H 7.9336 -1.7455 -5.74154 0
M  V30 110 H 9.0036 -2.09663 -4.37229 0
M  V30 111 N 10.3467 1.47872 -0.545128 0
M  V30 112 C 11.2767 2.32661 0.197793 0
M  V30 113 C 12.2577 1.43041 0.920504 0
M  V30 114 O 13.4427 1.71912 0.90333 0
M  V30 115 C 10.5727 3.24569 1.23582 0
M  V30 116 C 9.5267 4.23333 0.630323 0
M  V30 117 C 8.8527 5.0448 1.77211 0
M  V30 118 C 10.1527 5.20704 -0.407974 0
M  V30 119 H 11.8467 2.95024 -0.510045 0
M  V30 120 H 9.3927 1.4187 -0.246731 0
M  V30 121 H 11.3457 3.8272 1.76362 0
M  V30 122 H 10.0697 2.60236 1.97344 0
M  V30 123 H 8.7287 3.6639 0.123922 0
M  V30 124 H 8.3767 4.36561 2.49847 0
M  V30 125 H 8.0767 5.71339 1.37281 0
M  V30 126 H 9.6007 5.65487 2.3034 0
M  V30 127 H 11.0147 5.7329 0.033305 0
M  V30 128 H 9.4117 5.95699 -0.725486 0
M  V30 129 H 10.4817 4.66917 -1.30828 0
M  V30 130 N 11.8248 0.280983 1.55075 0
M  V30 131 C 12.7548 -0.597469 2.25727 0
M  V30 132 C 13.7358 -1.15417 1.24952 0
M  V30 133 O 14.9208 -1.18722 1.53684 0
M  V30 134 C 12.0508 -1.7789 2.98283 0
M  V30 135 C 11.0048 -1.35347 4.06036 0
M  V30 136 C 10.3308 -2.61846 4.66198 0
M  V30 137 C 11.6308 -0.499354 5.19907 0
M  V30 138 H 13.3248 -0.00824265 2.99399 0
M  V30 139 H 10.8708 -0.0025244 1.44 0
M  V30 140 H 12.8238 -2.39937 3.46422 0
M  V30 141 H 11.5478 -2.39405 2.22155 0
M  V30 142 H 10.2068 -0.756156 3.58717 0
M  V30 143 H 9.8548 -3.21632 3.86732 0
M  V30 144 H 9.5548 -2.3409 5.38958 0
M  V30 145 H 11.0788 -3.24732 5.1709 0
M  V30 146 H 12.4928 -1.02498 5.64063 0
M  V30 147 H 10.8898 -0.316424 5.99265 0
M  V30 148 H 11.9598 0.480459 4.82514 0
M  V30 149 N 13.3029 -1.57598 0.00835791 0
M  V30 150 C 14.7189 -1.55764 -0.347822 0
M  V30 151 C 14.9189 -1.01186 -1.74252 0
M  V30 152 O 13.9749 -0.649371 -2.44007 0
M  V30 153 C 15.2879 -2.99927 -0.215407 0
M  V30 154 C 16.8359 -3.11656 -0.289725 0
M  V30 155 C 17.3109 -4.57621 -0.18634 0
M  V30 156 N 18.8019 -4.62557 -0.243978 0
M  V30 157 C 19.5369 -5.73094 -0.18745 0
M  V30 158 N 19.0329 -6.92753 -0.0810331 0
M  V30 159 N 20.8259 -5.61588 -0.239925 0
M  V30 160 H 12.9769 -1.91411 0.92062 0
M  V30 161 H 15.2399 -0.879562 0.353659 0
M  V30 162 H 14.9459 -3.43729 0.744512 0
M  V30 163 H 14.8199 -3.63865 -0.994097 0
M  V30 164 H 17.2069 -2.67779 -1.24009 0
M  V30 165 H 17.2879 -2.5048 0.51898 0
M  V30 166 H 16.9319 -5.02174 0.760519 0
M  V30 167 H 16.8619 -5.16752 -1.01364 0
M  V30 168 H 19.3529 -3.76481 -0.327217 0
M  V30 169 H 19.6659 -7.72787 -0.0440241 0
M  V30 170 H 18.0109 -6.94984 -0.0465419 0
M  V30 171 H 21.2019 -4.66996 -0.321317 0
M  V30 172 H 21.3749 -6.47714 -0.192407 0
M  V30 173 N 14.781 0.264519 -1.55364 0
M  V30 174 C 15.744 1.31046 -1.88042 0
M  V30 175 C 16.744 1.41943 -0.755569 0
M  V30 176 O 17.934 1.40947 -1.02369 0
M  V30 177 C 15.066 2.69067 -2.09323 0
M  V30 178 H 16.259 1.03297 -2.81549 0
M  V30 179 H 13.812 0.502989 -1.47986 0
M  V30 180 H 14.547 3.01982 -1.18226 0
M  V30 181 H 14.332 2.62542 -2.91229 0
M  V30 182 H 15.822 3.44623 -2.35848 0
M  V30 183 N 16.2591 1.48442 0.529413 0
M  V30 184 C 17.1891 1.65902 1.64313 0
M  V30 185 C 18.1701 0.507897 1.6234 0
M  V30 186 O 19.3551 0.740503 1.79528 0
M  V30 187 C 16.4851 1.69911 3.02898 0
M  V30 188 C 15.4391 2.8453 3.19729 0
M  V30 189 C 14.7651 2.73629 4.59381 0
M  V30 190 C 16.0651 4.25821 3.02447 0
M  V30 191 H 17.7591 2.5914 1.49955 0
M  V30 192 H 15.3051 1.24709 0.719982 0
M  V30 193 H 17.2581 1.80715 3.80684 0
M  V30 194 H 15.9821 0.732524 3.18279 0
M  V30 195 H 14.6411 2.73283 2.44361 0
M  V30 196 H 14.2891 1.74938 4.71599 0
M  V30 197 H 13.9891 3.50541 4.71588 0
M  V30 198 H 15.5131 2.86401 5.39265 0
M  V30 199 H 16.9271 4.37898 3.70024 0
M  V30 200 H 15.3241 5.03735 3.26146 0
M  V30 201 H 16.3941 4.42244 1.98867 0
M  V30 202 N 17.7372 -0.778329 1.37039 0
M  V30 203 C 18.6692 -1.90034 1.2814 0
M  V30 204 C 19.6822 -1.61585 0.198558 0
M  V30 205 O 20.8712 -1.72625 0.454175 0
M  V30 206 C 17.9712 -3.25108 0.956968 0
M  V30 207 C 17.1442 -3.81253 2.14394 0
M  V30 208 C 16.2032 -4.94789 1.79082 0
M  V30 209 O 15.2292 -5.10721 2.51301 0
M  V30 210 N 16.4312 -5.75878 0.731043 0
M  V30 211 H 19.1962 -1.98186 2.24816 0
M  V30 212 H 16.7572 -0.957129 1.30578 0
M  V30 213 H 18.7492 -3.9857 0.701701 0
M  V30 214 H 17.3192 -3.125 0.0789812 0
M  V30 215 H 16.5392 -2.99647 2.56135 0
M  V30 216 H 17.8272 -4.15495 2.93668 0
M  V30 217 H 17.2252 -5.65547 0.131618 0
M  V30 218 H 15.7822 -6.49596 0.535622 0
M  V30 219 N 19.2153 -1.21501 -1.00376 0
M  V30 220 C 20.1453 -0.999478 -2.11028 0
M  V30 221 C 21.1263 0.0759671 -1.6993 0
M  V30 222 O 22.3113 -0.0841106 -1.94018 0
M  V30 223 C 19.4413 -0.564709 -3.42678 0
M  V30 224 C 18.3953 -1.58486 -3.97576 0
M  V30 225 C 17.7213 -1.00628 -5.25146 0
M  V30 226 C 19.0213 -2.97204 -4.29496 0
M  V30 227 H 20.7153 -1.92495 -2.29317 0
M  V30 228 H 18.2613 -0.92693 -1.102 0
M  V30 229 H 20.2143 -0.401091 -4.19487 0
M  V30 230 H 18.9383 0.396411 -3.24185 0
M  V30 231 H 17.5973 -1.73606 -3.22888 0
M  V30 232 H 17.2453 -0.0368439 -5.02987 0
M  V30 233 H 16.9453 -1.68771 -5.62841 0
M  V30 234 H 18.4693 -0.854015 -6.04598 0
M  V30 235 H 19.8833 -2.8552 -4.97143 0
M  V30 236 H 18.2803 -3.62372 -4.78338 0
M  V30 237 H 19.3503 -3.47956 -3.3772 0
M  V30 238 N 20.6934 1.19889 -1.02296 0
M  V30 239 C 21.6234 2.25141 -0.619174 0
M  V30 240 C 22.6044 1.66051 0.368915 0
M  V30 241 O 23.7894 1.92546 0.252941 0
M  V30 242 C 20.9194 3.4728 0.0368783 0
M  V30 243 C 19.8734 4.19005 -0.872865 0
M  V30 244 C 19.1994 5.34637 -0.0822402 0
M  V30 245 C 20.4994 4.74452 -2.18387 0
M  V30 246 H 22.1934 2.59171 -1.49903 0
M  V30 247 H 19.7394 1.24579 -0.722222 0
M  V30 248 H 21.6924 4.20098 0.330958 0
M  V30 249 H 20.4164 3.12433 0.95149 0
M  V30 250 H 19.0754 3.48061 -1.15105 0
M  V30 251 H 18.7234 4.96034 0.83422 0
M  V30 252 H 18.4234 5.83557 -0.688149 0
M  V30 253 H 19.9474 6.10255 0.205238 0
M  V30 254 H 21.3614 5.39055 -1.95172 0
M  V30 255 H 19.7584 5.33834 -2.74119 0
M  V30 256 H 20.8284 3.92844 -2.84257 0
M  V30 257 N 22.1715 0.800033 1.35784 0
M  V30 258 C 23.1015 0.220184 2.3246 0
M  V30 259 C 24.0825 -0.65073 1.57161 0
M  V30 260 O 25.2675 -0.582359 1.85263 0
M  V30 261 C 22.3975 -0.637353 3.41402 0
M  V30 262 C 21.3515 0.134531 4.27789 0
M  V30 263 C 20.6775 -0.844285 5.27992 0
M  V30 264 C 21.9775 1.32979 5.05088 0
M  V30 265 H 23.6715 1.02787 2.81203 0
M  V30 266 H 21.2175 0.495717 1.35199 0
M  V30 267 H 23.1705 -1.05302 4.08031 0
M  V30 268 H 21.8945 -1.47785 2.91251 0
M  V30 269 H 20.5535 0.531296 3.6273 0
M  V30 270 H 20.2015 -1.68011 4.74111 0
M  V30 271 H 19.9015 -0.332184 5.8666 0
M  V30 272 H 21.4255 -1.2583 5.97494 0
M  V30 273 H 22.8395 0.98934 5.64699 0
M  V30 274 H 21.2365 1.77593 5.7322 0
M  V30 275 H 22.3065 2.11978 4.36111 0
M  V30 276 N 23.6496 -1.47581 0.552962 0
M  V30 277 C 24.8956 -2.03369 0.0355807 0
M  V30 278 C 25.2506 -1.42016 -1.29805 0
M  V30 279 O 24.5436 -0.564917 -1.83083 0
M  V30 280 C 24.7376 -3.57199 -0.119728 0
M  V30 281 C 24.5666 -4.33468 1.1973 0
M  V30 282 C 23.3366 -4.7353 1.76345 0
M  V30 283 C 25.5346 -4.68866 2.11351 0
M  V30 284 N 23.5166 -5.34426 3.02097 0
M  V30 285 C 24.8876 -5.3002 3.21681 0
M  V30 286 C 26.9426 -4.50795 2.11397 0
M  V30 287 C 25.6456 -5.75011 4.32151 0
M  V30 288 C 27.6716 -4.96782 3.20876 0
M  V30 289 C 27.0336 -5.57981 4.29926 0
M  V30 290 H 23.1326 -0.780058 0.0550806 0
M  V30 291 H 25.7166 -1.80117 0.739315 0
M  V30 292 H 23.8876 -3.80227 -0.792579 0
M  V30 293 H 25.6196 -3.99627 -0.638792 0
M  V30 294 H 22.3746 -4.55352 1.30196 0
M  V30 295 H 22.7986 -5.69421 3.66182 0
M  V30 296 H 27.4406 -4.0284 1.28372 0
M  V30 297 H 25.1586 -6.21959 5.15938 0
M  V30 298 H 28.7446 -4.84573 3.21994 0
M  V30 299 H 27.6246 -5.92918 5.13243 0
M  V30 300 N 25.1277 -0.289203 -1.54924 0
M  V30 301 C 26.3757 0.322879 -1.99504 0
M  V30 302 C 26.6967 1.55313 -1.1791 0
M  V30 303 O 25.9667 1.94001 -0.272097 0
M  V30 304 H 24.5467 0.122291 -0.736922 0
M  V30 305 H 27.2087 -0.397802 -1.90797 0
M  V30 306 H 26.3047 0.603061 -3.06218 0
M  V30 307 N 26.6058 1.57591 -0.0167156 0
M  V30 308 C 27.5558 2.05953 0.978137 0
M  V30 309 C 28.5398 0.957532 1.29306 0
M  V30 310 O 29.7318 1.22119 1.28125 0
M  V30 311 C 26.8608 2.58006 2.26468 0
M  V30 312 C 25.9468 3.75113 1.97867 0
M  V30 313 N 26.3378 4.86187 1.39486 0
M  V30 314 C 24.6358 3.83363 2.27924 0
M  V30 315 C 25.3368 5.67502 1.27735 0
M  V30 316 N 24.3128 5.14023 1.76866 0
M  V30 317 H 28.1148 2.89236 0.521522 0
M  V30 318 H 25.6288 1.61301 0.188596 0
M  V30 319 H 27.6258 2.90937 2.98599 0
M  V30 320 H 26.2858 1.76148 2.72767 0
M  V30 321 H 27.2968 5.06695 1.07147 0
M  V30 322 H 23.9738 3.1239 2.76982 0
M  V30 323 H 25.3638 6.66791 0.826978 0
M  V30 324 N 28.0839 -0.256276 1.55502 0
M  V30 325 C 29.0139 -1.32102 1.92539 0
M  V30 326 C 29.9949 -1.50684 0.789194 0
M  V30 327 O 31.1799 -1.63449 1.04872 0
M  V30 328 C 28.3099 -2.67752 2.21192 0
M  V30 329 C 27.2639 -2.63878 3.36975 0
M  V30 330 C 26.5899 -4.03236 3.51147 0
M  V30 331 C 27.8899 -2.21682 4.72921 0
M  V30 332 H 29.5839 -1.01351 2.81724 0
M  V30 333 H 27.1299 -0.486105 1.35547 0
M  V30 334 H 29.0829 -3.42365 2.45691 0
M  V30 335 H 27.8069 -3.0012 1.28824 0
M  V30 336 H 26.4659 -1.91722 3.12471 0
M  V30 337 H 26.1139 -4.32854 2.56216 0
M  V30 338 H 25.8139 -4.01535 4.29003 0
M  V30 339 H 27.3379 -4.79563 3.77957 0
M  V30 340 H 28.7519 -2.86023 4.96854 0
M  V30 341 H 27.1489 -2.3111 5.53812 0
M  V30 342 H 28.2189 -1.16833 4.70615 0
M  V30 343 N 29.562 -1.4872 -0.521534 0
M  V30 344 C 30.839 -1.4766 -1.2828 0
M  V30 345 C 31.219 -0.19292 -2.10217 0
M  V30 346 O 30.567 0.825193 -2.13079 0
M  V30 347 C 30.777 -2.74358 -2.15705 0
M  V30 348 C 32.125 -3.23028 -2.75569 0
M  V30 349 O 33.149 -2.75333 -2.25987 0
M  V30 350 O 32.008 -4.0604 -3.65778 0
M  V30 351 H 29.102 -0.590085 -0.579421 0
M  V30 352 H 31.648 -1.60963 -0.537492 0
M  V30 353 H 30.42 -3.59292 -1.54999 0
M  V30 354 H 30.043 -2.63816 -2.97467 0
M  V30 355 N 31.0401 0.771051 -1.3745 0
M  V30 356 C 32.0031 1.86598 -1.33093 0
M  V30 357 C 33.0031 1.59076 -0.234845 0
M  V30 358 O 34.1931 1.67145 -0.490732 0
M  V30 359 C 31.3251 3.23747 -1.06773 0
M  V30 360 H 32.5181 1.91873 -2.30488 0
M  V30 361 H 30.0711 0.970876 -1.2249 0
M  V30 362 H 30.8061 3.24148 -0.099129 0
M  V30 363 H 30.5911 3.45115 -1.86112 0
M  V30 364 H 32.0811 4.03824 -1.06377 0
M  V30 365 N 32.5182 1.22032 0.997298 0
M  V30 366 C 33.4502 0.944263 2.08845 0
M  V30 367 C 34.4632 -0.0754663 1.62625 0
M  V30 368 O 35.6522 0.157994 1.77799 0
M  V30 369 C 32.7522 0.397723 3.36558 0
M  V30 370 C 31.9252 1.47362 4.11829 0
M  V30 371 C 30.9842 0.934951 5.17827 0
M  V30 372 O 30.0102 1.62016 5.45655 0
M  V30 373 N 31.2122 -0.245895 5.79979 0
M  V30 374 H 33.9772 1.88363 2.33109 0
M  V30 375 H 31.5382 1.12661 1.16272 0
M  V30 376 H 33.5302 0.0227771 4.04694 0
M  V30 377 H 32.1002 -0.446646 3.09393 0
M  V30 378 H 31.3202 2.02208 3.38386 0
M  V30 379 H 32.6082 2.19764 4.58891 0
M  V30 380 H 32.0062 -0.819475 5.59733 0
M  V30 381 H 30.5632 -0.562272 6.4937 0
M  V30 382 N 33.9963 -1.19345 1.0293 0
M  V30 383 C 35.4073 -1.70725 0.755633 0
M  V30 384 C 35.7583 -1.82326 -0.724676 0
M  V30 385 O 34.8833 -1.49471 -1.56484 0
M  V30 386 C 35.4783 -3.10084 1.36503 0
M  V30 387 C 34.0373 -3.58723 1.13994 0
M  V30 388 C 33.1843 -2.35577 1.46283 0
M  V30 389 H 36.1353 -1.0418 1.19718 0
M  V30 390 H 36.1563 -3.72787 0.762217 0
M  V30 391 H 35.6683 -3.01609 2.44241 0
M  V30 392 H 33.7693 -3.72512 0.0807901 0
M  V30 393 H 33.8823 -4.42816 1.82894 0
M  V30 394 H 32.2463 -2.38935 0.88217 0
M  V30 395 H 33.0293 -2.29731 2.55105 0
M  V30 396 N 35.4744 -0.807222 -1.35358 0
M  V30 397 C 36.4374 -0.223665 -2.28106 0
M  V30 398 C 37.4374 0.589354 -1.4961 0
M  V30 399 O 38.6274 0.407745 -1.69361 0
M  V30 400 C 35.7594 0.688149 -3.33882 0
M  V30 401 H 36.9524 -1.04169 -2.81227 0
M  V30 402 H 34.5054 -0.577921 -1.45223 0
M  V30 403 H 35.2404 1.52984 -2.85948 0
M  V30 404 H 35.0254 0.10687 -3.91954 0
M  V30 405 H 36.5154 1.09075 -4.03104 0
M  V30 406 N 36.9525 1.47285 -0.560781 0
M  V30 407 C 37.8625 2.33846 0.187954 0
M  V30 408 C 38.8785 1.48412 0.908293 0
M  V30 409 O 40.0545 1.81332 0.876388 0
M  V30 410 C 37.1195 3.25178 1.2025 0
M  V30 411 C 36.1805 4.26504 0.489208 0
M  V30 412 C 35.4135 5.13472 1.45542 0
M  V30 413 O 35.6365 5.02959 2.6905 0
M  V30 414 O 34.5705 5.93902 0.977963 0
M  V30 415 H 38.3965 2.99177 -0.522177 0
M  V30 416 H 35.9815 1.45903 -0.321364 0
M  V30 417 H 37.8635 3.81584 1.78805 0
M  V30 418 H 36.5385 2.6247 1.89449 0
M  V30 419 H 35.4455 3.73847 -0.137627 0
M  V30 420 H 36.7785 4.91935 -0.161399 0
M  V30 421 N 38.4306 0.297415 1.54768 0
M  V30 422 C 39.8466 -0.0560823 1.59501 0
M  V30 423 C 40.0466 -1.52725 1.31444 0
M  V30 424 O 39.1026 -2.27947 1.08611 0
M  V30 425 C 40.4156 0.338631 2.98787 0
M  V30 426 C 41.9636 0.287097 3.11681 0
M  V30 427 C 42.4386 0.656579 4.53269 0
M  V30 428 N 43.9296 0.608977 4.59179 0
M  V30 429 C 44.6646 0.867385 5.66802 0
M  V30 430 N 44.1606 1.19157 6.82476 0
M  V30 431 N 45.9536 0.794687 5.56454 0
M  V30 432 H 38.1046 1.25624 1.71267 0
M  V30 433 H 40.3676 0.509057 0.799728 0
M  V30 434 H 40.0736 1.36263 3.2423 0
M  V30 435 H 39.9476 -0.309508 3.75928 0
M  V30 436 H 42.3346 -0.727649 2.85988 0
M  V30 437 H 42.4156 0.969809 2.36703 0
M  V30 438 H 42.0596 1.66912 4.7969 0
M  V30 439 H 41.9896 -0.0481649 5.26578 0
M  V30 440 H 44.4806 0.369198 3.76092 0
M  V30 441 H 44.7936 1.37482 7.60473 0
M  V30 442 H 43.1386 1.22958 6.84037 0
M  V30 443 H 46.3296 0.541098 4.64962 0
M  V30 444 H 46.5026 0.999445 6.40246 0
M  V30 445 N 39.9087 -1.5758 0.0250728 0
M  V30 446 C 41.1567 -1.91255 -0.653151 0
M  V30 447 C 41.4777 -0.901691 -1.729 0
M  V30 448 O 40.7477 0.0573785 -1.95816 0
M  V30 449 H 39.3277 -0.705942 -0.244243 0
M  V30 450 H 41.9897 -1.94767 0.0719209 0
M  V30 451 H 41.0857 -2.91752 -1.10847 0
M  V30 452 N 41.3868 0.248026 -1.55636 0
M  V30 453 C 42.6348 0.974295 -1.77065 0
M  V30 454 C 42.9558 1.85897 -0.588849 0
M  V30 455 O 42.2258 1.91868 0.395407 0
M  V30 456 H 40.8058 0.362733 -0.653019 0
M  V30 457 H 43.4678 0.266244 -1.93073 0
M  V30 458 H 42.5638 1.59667 -2.68166 0
M  V30 459 N 42.8649 1.48995 0.513639 0
M  V30 460 C 43.7969 1.60836 1.63293 0
M  V30 461 C 44.8099 0.491701 1.55197 0
M  V30 462 O 45.9989 0.763238 1.6136 0
M  V30 463 C 43.0989 1.53731 3.02027 0
M  V30 464 C 42.2719 2.80715 3.35437 0
M  V30 465 C 41.3309 2.66837 4.53525 0
M  V30 466 O 40.3569 3.40753 4.55934 0
M  V30 467 N 41.5589 1.77539 5.52684 0
M  V30 468 H 44.3239 2.57366 1.53566 0
M  V30 469 H 41.8849 1.45925 0.701259 0
M  V30 470 H 43.8769 1.42118 3.78926 0
M  V30 471 H 42.4469 0.651092 3.05744 0
M  V30 472 H 41.6669 3.06772 2.47557 0
M  V30 473 H 42.9549 3.64927 3.54551 0
M  V30 474 H 42.3529 1.16719 5.53528 0
M  V30 475 H 40.9099 1.71856 6.28736 0
M  V30 476 N 44.343 -0.763751 1.37857 0
M  V30 477 C 45.253 -1.90817 1.36478 0
M  V30 478 C 46.269 -1.71997 0.263248 0
M  V30 479 O 47.445 -1.95095 0.499979 0
M  V30 480 C 44.51 -3.2605 1.17864 0
M  V30 481 C 43.571 -3.57467 2.3773 0
M  V30 482 C 42.804 -4.86249 2.19995 0
M  V30 483 O 43.027 -5.57884 1.18836 0
M  V30 484 O 41.961 -5.16911 3.08361 0
M  V30 485 H 45.787 -1.94933 2.32884 0
M  V30 486 H 43.372 -0.907619 1.1867 0
M  V30 487 H 45.254 -4.06924 1.09504 0
M  V30 488 H 43.929 -3.22769 0.245372 0
M  V30 489 H 42.836 -2.76796 2.51664 0
M  V30 490 H 44.169 -3.655 3.29652 0
M  V30 491 N 45.8211 -1.22559 -0.990812 0
M  V30 492 C 46.7511 -1.0218 -2.09956 0
M  V30 493 C 47.7321 0.0579394 -1.70001 0
M  V30 494 O 48.9171 -0.104684 -1.93918 0
M  V30 495 C 46.0471 -0.601023 -3.4206 0
M  V30 496 C 45.0011 -1.62694 -3.95872 0
M  V30 497 C 44.3271 -1.06193 -5.24049 0
M  V30 498 C 45.6271 -3.01743 -4.2632 0
M  V30 499 H 47.3211 -1.94916 -2.27262 0
M  V30 500 H 44.8671 -0.938566 -1.09211 0
M  V30 501 H 46.8201 -0.445561 -4.19038 0
M  V30 502 H 45.5441 0.362005 -3.24588 0
M  V30 503 H 44.2031 -1.77021 -3.21028 0
M  V30 504 H 43.8511 -0.0901903 -5.02919 0
M  V30 505 H 43.5511 -1.74732 -5.61019 0
M  V30 506 H 45.0751 -0.918092 -6.03658 0
M  V30 507 H 46.4891 -2.90777 -4.94087 0
M  V30 508 H 44.8861 -3.67425 -4.74467 0
M  V30 509 H 45.9561 -3.51518 -3.34011 0
M  V30 510 N 47.2992 1.18797 -1.03562 0
M  V30 511 C 48.7152 1.40671 -0.753917 0
M  V30 512 C 48.9152 1.9043 0.658686 0
M  V30 513 O 47.9712 2.08538 1.42366 0
M  V30 514 C 49.2842 2.41192 -1.79574 0
M  V30 515 C 50.8322 2.54928 -1.81606 0
M  V30 516 C 51.3072 3.58709 -2.84766 0
M  V30 517 N 52.7982 3.66212 -2.83625 0
M  V30 518 C 53.5332 4.46225 -3.60098 0
M  V30 519 N 53.0292 5.29888 -4.46308 0
M  V30 520 N 54.8222 4.40939 -3.4861 0
M  V30 521 H 46.9732 0.848221 -1.94728 0
M  V30 522 H 49.2362 0.435081 -0.842264 0
M  V30 523 H 48.9422 2.11669 -2.80872 0
M  V30 524 H 48.8162 3.40467 -1.62365 0
M  V30 525 H 51.2032 2.83771 -0.809817 0
M  V30 526 H 51.2842 1.55784 -2.02891 0
M  V30 527 H 50.9282 3.30607 -3.85566 0
M  V30 528 H 50.8582 4.57519 -2.60737 0
M  V30 529 H 53.3492 3.06466 -2.21105 0
M  V30 530 H 53.6622 5.88078 -5.01382 0
M  V30 531 H 52.0072 5.29326 -4.50377 0
M  V30 532 H 55.1982 3.74624 -2.80668 0
M  V30 533 H 55.3712 5.03056 -4.08459 0
M  V30 534 N 48.7773 0.814389 1.34928 0
M  V30 535 C 49.7243 0.22822 2.29669 0
M  V30 536 C 50.6943 -0.642164 1.53184 0
M  V30 537 O 51.8793 -0.585605 1.81591 0
M  V30 538 C 49.0193 -0.61089 3.3965 0
M  V30 539 C 48.1323 0.280792 4.31086 0
M  V30 540 C 47.2673 -0.567067 5.28165 0
M  V30 541 C 46.3063 0.324531 6.11239 0
M  V30 542 N 45.4433 -0.483756 7.00431 0
M  V30 543 H 50.2833 1.04153 2.79206 0
M  V30 544 H 47.8203 0.525133 1.37407 0
M  V30 545 H 49.7783 -1.11263 4.0209 0
M  V30 546 H 48.4083 -1.38939 2.91369 0
M  V30 547 H 47.4603 0.900688 3.69583 0
M  V30 548 H 48.7723 0.966723 4.89342 0
M  V30 549 H 47.9263 -1.13363 5.96015 0
M  V30 550 H 46.6653 -1.28654 4.70425 0
M  V30 551 H 45.6703 0.903298 5.42329 0
M  V30 552 H 46.8953 1.04198 6.71059 0
M  V30 553 H 44.8413 -1.18706 6.45171 0
M  V30 554 H 44.7583 0.143965 7.55863 0
M  V30 555 H 46.0263 -1.03334 7.7262 0
M  V30 556 N 50.2554 -1.46986 0.568584 0
M  V30 557 C 51.1654 -2.33942 -0.17555 0
M  V30 558 C 52.1814 -1.48891 -0.90041 0
M  V30 559 O 53.3574 -1.81794 -0.86676 0
M  V30 560 C 50.4224 -3.25811 -1.18524 0
M  V30 561 C 49.4834 -4.26757 -0.466582 0
M  V30 562 C 48.7164 -5.14236 -1.42817 0
M  V30 563 O 48.9394 -5.04379 -2.66379 0
M  V30 564 O 47.8734 -5.94412 -0.946453 0
M  V30 565 H 51.6994 -2.98896 0.538036 0
M  V30 566 H 49.2844 -1.4573 0.329097 0
M  V30 567 H 51.1664 -3.82527 -1.76779 0
M  V30 568 H 49.8414 -2.63471 -1.88055 0
M  V30 569 H 48.7484 -3.73769 0.157451 0
M  V30 570 H 50.0814 -4.91843 0.187485 0
M  V30 571 N 51.7335 -0.305618 -1.54608 0
M  V30 572 C 52.6965 0.555591 -2.22364 0
M  V30 573 C 53.6965 1.05768 -1.21119 0
M  V30 574 O 54.8865 0.952972 -1.45822 0
M  V30 575 C 52.0185 1.76974 -2.91364 0
M  V30 576 H 53.2115 -0.0364572 -2.99878 0
M  V30 577 H 50.7645 -0.0565007 -1.56198 0
M  V30 578 H 51.4995 2.40151 -2.17941 0
M  V30 579 H 51.2845 1.41732 -3.65588 0
M  V30 580 H 52.7745 2.38148 -3.43038 0
M  V30 581 N 53.2116 1.57565 -0.0334293 0
M  V30 582 C 54.1216 2.13943 0.962572 0
M  V30 583 C 55.1376 1.09276 1.35406 0
M  V30 584 O 56.3136 1.41355 1.4346 0
M  V30 585 C 53.3786 2.65887 2.22497 0
M  V30 586 C 52.4396 3.85286 1.8935 0
M  V30 587 C 51.6726 4.34743 3.09571 0
M  V30 588 O 51.8956 3.83352 4.22371 0
M  V30 589 O 50.8296 5.26538 2.91618 0
M  V30 590 H 54.6556 2.99333 0.513169 0
M  V30 591 H 52.2406 1.4822 0.18743 0
M  V30 592 H 54.1226 2.99346 2.96598 0
M  V30 593 H 52.7976 1.83578 2.6661 0
M  V30 594 H 51.7046 3.56746 1.1262 0
M  V30 595 H 53.0376 4.68771 1.5005 0
M  V30 596 N 54.6897 -0.239769 1.55765 0
M  V30 597 C 55.6527 -1.28038 1.90103 0
M  V30 598 C 56.6527 -1.40723 0.778055 0
M  V30 599 O 57.8427 -1.39301 1.04599 0
M  V30 600 C 54.9747 -2.65702 2.13577 0
M  V30 601 H 56.1677 -0.988048 2.83157 0
M  V30 602 H 53.7207 -0.479382 1.48767 0
M  V30 603 H 54.4557 -3.00063 1.23015 0
M  V30 604 H 54.2407 -2.57875 2.95369 0
M  V30 605 H 55.7307 -3.40828 2.41301 0
M  V30 606 N 56.1678 -1.49265 -0.50573 0
M  V30 607 C 57.4148 -1.58513 -1.26015 0
M  V30 608 C 57.7428 -0.26972 -1.92621 0
M  V30 609 O 56.9978 0.741997 -1.81088 0
M  V30 610 C 57.2968 -2.69008 -2.35308 0
M  V30 611 C 56.9628 -4.10662 -1.86192 0
M  V30 612 C 55.6248 -4.49212 -1.72516 0
M  V30 613 C 57.9768 -4.99336 -1.49375 0
M  V30 614 C 55.3048 -5.74214 -1.20394 0
M  V30 615 C 57.6568 -6.24852 -0.987072 0
M  V30 616 C 56.3208 -6.62236 -0.836669 0
M  V30 617 H 55.5908 -0.580041 -0.461122 0
M  V30 618 H 58.2378 -1.83078 -0.561665 0
M  V30 619 H 56.5428 -2.38396 -3.10926 0
M  V30 620 H 58.2398 -2.73373 -2.93374 0
M  V30 621 H 54.8298 -3.8023 -1.97795 0
M  V30 622 H 59.0138 -4.70212 -1.5879 0
M  V30 623 H 54.2698 -6.01883 -1.07458 0
M  V30 624 H 58.4438 -6.92944 -0.692983 0
M  V30 625 H 56.0708 -7.58979 -0.430607 0
M  V30 626 N 57.6459 0.756429 -1.3826 0
M  V30 627 C 58.5759 1.88374 -1.37976 0
M  V30 628 C 59.5569 1.68311 -0.246082 0
M  V30 629 O 60.7419 1.88944 -0.44874 0
M  V30 630 C 57.8719 3.25864 -1.20125 0
M  V30 631 C 56.8259 3.60523 -2.30666 0
M  V30 632 C 56.1519 4.9672 -1.97923 0
M  V30 633 C 57.4519 3.65692 -3.72916 0
M  V30 634 H 59.1459 1.88869 -2.32312 0
M  V30 635 H 56.6919 0.907272 -1.11824 0
M  V30 636 H 58.6449 4.0438 -1.18552 0
M  V30 637 H 57.3689 3.25841 -0.222498 0
M  V30 638 H 56.0279 2.84324 -2.3142 0
M  V30 639 H 55.6759 4.93253 -0.985393 0
M  V30 640 H 55.3759 5.20878 -2.71955 0
M  V30 641 H 56.8999 5.77618 -1.97964 0
M  V30 642 H 58.3139 4.34328 -3.74208 0
M  V30 643 H 56.7109 4.01358 -4.4613 0
M  V30 644 H 57.7809 2.65987 -4.05436 0
M  V30 645 N 59.124 1.23083 0.984299 0
M  V30 646 C 60.034 1.02515 2.11016 0
M  V30 647 C 61.05 -0.0291702 1.73976 0
M  V30 648 O 62.226 0.165434 2.00719 0
M  V30 649 C 59.291 0.614673 3.41208 0
M  V30 650 C 58.352 1.74359 3.92297 0
M  V30 651 C 57.585 1.35261 5.16275 0
M  V30 652 O 57.808 0.235136 5.69915 0
M  V30 653 O 56.742 2.17227 5.61334 0
M  V30 654 H 60.568 1.96862 2.31255 0
M  V30 655 H 58.153 1.01753 1.09392 0
M  V30 656 H 60.035 0.396518 4.1953 0
M  V30 657 H 58.71 -0.299851 3.22308 0
M  V30 658 H 57.617 2.01635 3.1511 0
M  V30 659 H 58.95 2.63629 4.15645 0
M  V30 660 N 60.6021 -1.18246 1.0419 0
M  V30 661 C 61.5491 -2.2192 0.634037 0
M  V30 662 C 62.5191 -1.62179 -0.358765 0
M  V30 663 O 63.7041 -1.89122 -0.252466 0
M  V30 664 C 60.8441 -3.451 0.00445535 0
M  V30 665 C 59.9571 -4.19174 1.04487 0
M  V30 666 C 59.0921 -5.29813 0.383676 0
M  V30 667 C 58.1311 -5.9566 1.4091 0
M  V30 668 N 57.2681 -6.97834 0.772784 0
M  V30 669 H 62.1081 -2.56164 1.52263 0
M  V30 670 H 59.6451 -1.25843 0.761701 0
M  V30 671 H 61.6031 -4.15485 -0.377919 0
M  V30 672 H 60.2331 -3.11472 -0.847652 0
M  V30 673 H 59.2851 -3.47604 1.54518 0
M  V30 674 H 60.5971 -4.64267 1.82368 0
M  V30 675 H 59.7511 -6.06677 -0.0528366 0
M  V30 676 H 58.4901 -4.85825 -0.427208 0
M  V30 677 H 57.4951 -5.17535 1.85574 0
M  V30 678 H 58.7201 -6.4173 2.22171 0
M  V30 679 H 56.6661 -6.55998 -0.0177708 0
M  V30 680 H 56.5831 -7.41186 1.48928 0
M  V30 681 H 57.8511 -7.78665 0.36071 0
M  V30 682 N 62.0802 -0.821533 -1.34494 0
M  V30 683 C 63.3102 -0.421272 -2.02259 0
M  V30 684 C 63.7182 0.977047 -1.6202 0
M  V30 685 O 63.0612 1.64348 -0.820703 0
M  V30 686 C 63.1232 -0.44231 -3.56769 0
M  V30 687 C 62.7872 -1.79372 -4.20327 0
M  V30 688 C 63.7842 -2.75435 -4.40944 0
M  V30 689 C 61.4692 -2.08182 -4.57127 0
M  V30 690 C 63.4632 -3.98482 -4.97484 0
M  V30 691 C 61.1502 -3.31489 -5.13379 0
M  V30 692 C 62.1482 -4.26457 -5.33501 0
M  V30 693 O 61.8362 -5.47585 -5.88562 0
M  V30 694 H 61.5682 -0.167473 -0.654927 0
M  V30 695 H 64.1222 -1.11073 -1.72777 0
M  V30 696 H 62.3522 0.303836 -3.85505 0
M  V30 697 H 64.0412 -0.0622925 -4.05852 0
M  V30 698 H 64.8072 -2.54473 -4.12878 0
M  V30 699 H 60.6862 -1.35066 -4.4077 0
M  V30 700 H 64.2302 -4.72618 -5.13106 0
M  V30 701 H 60.1272 -3.52316 -5.40873 0
M  V30 702 H 60.8952 -5.49086 -6.06998 0
M  V30 703 N 63.5583 1.46682 -0.576371 0
M  V30 704 C 64.8063 2.02013 -0.0594163 0
M  V30 705 C 65.1273 1.45101 1.30271 0
M  V30 706 O 64.3973 0.633317 1.8538 0
M  V30 707 H 62.9773 0.746759 -0.0189745 0
M  V30 708 H 65.6393 1.79862 -0.750717 0
M  V30 709 H 64.7353 3.12097 0.014345 0
M  V30 710 N 65.0364 0.313813 1.54444 0
M  V30 711 C 66.2664 -0.293491 2.04505 0
M  V30 712 C 66.6744 -1.47086 1.19005 0
M  V30 713 O 66.0174 -1.82481 0.211257 0
M  V30 714 C 66.0794 -0.800455 3.50475 0
M  V30 715 C 65.7434 0.253322 4.56297 0
M  V30 716 C 66.7404 1.08612 5.08428 0
M  V30 717 C 64.4254 0.398708 5.00715 0
M  V30 718 C 66.4194 2.05013 6.0353 0
M  V30 719 C 64.1064 1.36614 5.95634 0
M  V30 720 C 65.1044 2.19033 6.46926 0
M  V30 721 O 64.7924 3.14134 7.39983 0
M  V30 722 H 64.5244 -0.0658325 0.672787 0
M  V30 723 H 67.0784 0.455177 2.00293 0
M  V30 724 H 65.3084 -1.59987 3.52053 0
M  V30 725 H 66.9974 -1.32504 3.83663 0
M  V30 726 H 67.7634 0.984736 4.74898 0
M  V30 727 H 63.6424 -0.23289 4.60411 0
M  V30 728 H 67.1864 2.69382 6.4349 0
M  V30 729 H 63.0834 1.4682 6.28581 0
M  V30 730 H 63.8514 3.0926 7.57826 0
M  V30 731 N 66.5145 -1.57545 0.0417849 0
M  V30 732 C 67.4445 -2.14009 -0.933929 0
M  V30 733 C 68.4255 -1.05938 -1.33083 0
M  V30 734 O 69.6105 -1.33833 -1.40721 0
M  V30 735 C 66.7405 -2.67747 -2.21199 0
M  V30 736 C 65.6945 -3.80718 -1.95544 0
M  V30 737 C 65.0205 -4.20935 -3.29724 0
M  V30 738 C 66.3205 -5.06258 -1.28452 0
M  V30 739 H 68.0145 -2.95788 -0.463645 0
M  V30 740 H 65.5605 -1.42285 -0.221573 0
M  V30 741 H 67.5135 -3.05886 -2.89848 0
M  V30 742 H 66.2375 -1.83147 -2.70416 0
M  V30 743 H 64.8965 -3.43037 -1.2931 0
M  V30 744 H 64.5445 -3.33298 -3.76724 0
M  V30 745 H 64.2445 -4.9707 -3.13361 0
M  V30 746 H 65.7685 -4.61666 -3.9962 0
M  V30 747 H 67.1825 -5.41903 -1.8712 0
M  V30 748 H 65.5795 -5.87475 -1.22445 0
M  V30 749 H 66.6495 -4.84207 -0.259219 0
M  V30 750 N 67.9926 0.231505 -1.5589 0
M  V30 751 C 68.9406 1.30649 -1.92441 0
M  V30 752 C 69.9346 1.49037 -0.805254 0
M  V30 753 O 71.1406 1.50329 -0.990007 0
M  V30 754 H 67.5156 0.437812 -0.611412 0
M  V30 755 H 69.4866 0.970973 -2.82161 0
M  V30 756 C 68.2356 2.65179 -2.24889 0
M  V30 757 H 67.5586 2.51835 -3.10514 0
M  V30 758 H 68.9986 3.39234 -2.54355 0
M  V30 759 C 67.4576 3.19439 -1.07054 0
M  V30 760 O 67.9876 4.00371 -0.326499 0
M  V30 761 N 66.1936 2.77675 -0.85703 0
M  V30 762 H 65.7406 2.11969 -1.46379 0
M  V30 763 H 65.6986 3.14321 -0.0703223 0
M  V30 764 N 69.4707 1.49531 0.497807 0
M  V30 765 C 70.3807 1.69176 1.62532 0
M  V30 766 C 71.3967 0.5744 1.64246 0
M  V30 767 O 72.5727 0.849497 1.82608 0
M  V30 768 C 69.6377 1.75695 2.98885 0
M  V30 769 C 68.6987 2.9929 3.07773 0
M  V30 770 C 67.9317 3.05488 4.37622 0
M  V30 771 O 68.1547 2.19192 5.26603 0
M  V30 772 O 67.0887 3.9798 4.51548 0
M  V30 773 H 70.9147 2.647 1.48887 0
M  V30 774 H 68.4997 1.3331 0.674441 0
M  V30 775 H 70.3817 1.82317 3.79919 0
M  V30 776 H 69.0567 0.8335 3.12785 0
M  V30 777 H 67.9637 2.98183 2.25915 0
M  V30 778 H 69.2967 3.91125 2.98801 0
M  V30 779 N 70.9488 -0.749086 1.3866 0
M  V30 780 C 71.8808 -1.87273 1.32142 0
M  V30 781 C 72.8938 -1.61127 0.232787 0
M  V30 782 O 74.0828 -1.71623 0.49069 0
M  V30 783 C 71.1828 -3.23005 1.02571 0
M  V30 784 C 70.3558 -3.7662 2.22433 0
M  V30 785 C 69.4148 -4.90879 1.89537 0
M  V30 786 O 68.4408 -5.05276 2.62078 0
M  V30 787 N 69.6428 -5.74198 0.853031 0
M  V30 788 H 72.4078 -1.93373 2.28969 0
M  V30 789 H 69.9688 -0.929216 1.32579 0
M  V30 790 H 71.9608 -3.96992 0.786085 0
M  V30 791 H 70.5308 -3.12262 0.145249 0
M  V30 792 H 69.7508 -2.94147 2.62434 0
M  V30 793 H 71.0388 -4.09173 3.02415 0
M  V30 794 H 70.4368 -5.6514 0.25155 0
M  V30 795 H 68.9938 -6.48313 0.67329 0
M  V30 796 N 72.4269 -1.23603 -0.977757 0
M  V30 797 C 73.6729 -1.07129 -1.72195 0
M  V30 798 C 74.0059 0.390501 -1.90233 0
M  V30 799 O 73.2809 1.28902 -1.45653 0
M  V30 800 C 73.5639 -1.80031 -3.11867 0
M  V30 801 C 73.4169 -3.33899 -3.01383 0
M  V30 802 C 74.7359 -1.56492 -4.11337 0
M  V30 803 H 71.8549 -0.390571 -0.624999 0
M  V30 804 H 74.4969 -1.52142 -1.13811 0
M  V30 805 H 72.6469 -1.41768 -3.6171 0
M  V30 806 H 74.3189 -3.81699 -2.59043 0
M  V30 807 H 72.5619 -3.62796 -2.37827 0
M  V30 808 H 73.2329 -3.801 -4.00285 0
M  V30 809 H 75.7089 -1.89757 -3.70313 0
M  V30 810 H 74.5849 -2.09973 -5.07151 0
M  V30 811 H 74.8459 -0.500874 -4.39254 0
M  V30 812 N 73.905 1.17692 -1.04816 0
M  V30 813 C 75.316 1.69501 -0.782698 0
M  V30 814 C 75.667 1.83456 0.695577 0
M  V30 815 O 74.792 1.51942 1.54086 0
M  V30 816 C 75.387 3.07874 -1.41419 0
M  V30 817 C 73.946 3.56864 -1.19686 0
M  V30 818 C 73.093 2.3322 -1.50012 0
M  V30 819 H 76.044 1.02262 -1.2136 0
M  V30 820 H 76.065 3.71528 -0.821428 0
M  V30 821 H 75.577 2.97685 -2.49009 0
M  V30 822 H 73.678 3.72337 -0.140043 0
M  V30 823 H 73.791 4.39851 -1.89916 0
M  V30 824 H 72.155 2.37501 -0.920071 0
M  V30 825 H 72.938 2.25644 -2.58727 0
M  V30 826 N 75.3831 0.828654 1.34056 0
M  V30 827 C 76.3301 0.252567 2.29414 0
M  V30 828 C 77.3001 -0.62588 1.53857 0
M  V30 829 O 78.4851 -0.566312 1.82202 0
M  V30 830 C 75.6251 -0.574831 3.40279 0
M  V30 831 C 74.7381 0.326499 4.30764 0
M  V30 832 C 73.8731 -0.511016 5.28736 0
M  V30 833 C 72.9121 0.389342 6.1086 0
M  V30 834 N 72.0491 -0.409439 7.00905 0
M  V30 835 H 76.8891 1.07108 2.78086 0
M  V30 836 H 74.4261 0.539677 1.36843 0
M  V30 837 H 76.3841 -1.06992 4.03248 0
M  V30 838 H 75.0141 -1.35841 2.92826 0
M  V30 839 H 74.0661 0.939837 3.68607 0
M  V30 840 H 75.3781 1.01857 4.88289 0
M  V30 841 H 74.5321 -1.07035 5.97184 0
M  V30 842 H 73.2711 -1.23657 4.71763 0
M  V30 843 H 72.2761 0.960769 5.4134 0
M  V30 844 H 73.5011 1.1131 6.69916 0
M  V30 845 H 71.4471 -1.11856 6.46393 0
M  V30 846 H 71.3641 0.224126 7.55668 0
M  V30 847 H 72.6321 -0.951336 7.73673 0
M  V30 848 N 76.8612 -1.46375 0.584142 0
M  V30 849 C 77.8242 -2.28784 -0.138108 0
M  V30 850 C 78.8242 -1.38471 -0.817462 0
M  V30 851 O 80.0142 -1.60833 -0.669199 0
M  V30 852 C 77.1462 -3.18892 -1.20503 0
M  V30 853 H 78.3392 -2.94117 0.586127 0
M  V30 854 H 75.8922 -1.52509 0.342171 0
M  V30 855 H 76.6272 -2.58309 -1.96079 0
M  V30 856 H 76.4122 -3.85388 -0.722384 0
M  V30 857 H 77.9022 -3.80914 -1.71155 0
M  V30 858 N 78.3393 -0.321999 -1.54275 0
M  V30 859 C 79.7503 0.166384 -1.85957 0
M  V30 860 C 80.1013 1.51747 -1.24367 0
M  V30 861 O 79.2263 2.09317 -0.549124 0
M  V30 862 C 79.8213 0.308681 -3.37391 0
M  V30 863 C 78.3803 0.741286 -3.69028 0
M  V30 864 C 77.5273 -0.137937 -2.76957 0
M  V30 865 H 80.4783 -0.542335 -1.49146 0
M  V30 866 H 80.4993 1.13984 -3.63026 0
M  V30 867 H 80.0113 -0.674809 -3.82188 0
M  V30 868 H 78.1123 1.73458 -3.29762 0
M  V30 869 H 78.2253 0.546118 -4.75977 0
M  V30 870 H 76.5893 0.386251 -2.51754 0
M  V30 871 H 77.3723 -1.11816 -3.2458 0
M  V30 872 N 79.8174 1.5752 -0.0501392 0
M  V30 873 C 81.0454 1.96963 0.633492 0
M  V30 874 C 81.4604 0.927631 1.6444 0
M  V30 875 O 80.8174 -0.0882665 1.82286 0
M  V30 876 C 80.8684 3.36487 1.32132 0
M  V30 877 O 80.5894 4.36693 0.350894 0
M  V30 878 C 82.0904 3.90682 2.09481 0
M  V30 879 H 79.3104 0.648244 0.173266 0
M  V30 880 H 81.8544 2.0417 -0.116134 0
M  V30 881 H 80.0094 3.30434 2.02218 0
M  V30 882 H 80.4234 5.17702 0.841735 0
M  V30 883 H 81.8974 4.90591 2.5303 0
M  V30 884 H 82.3744 3.26053 2.94255 0
M  V30 885 H 82.9804 4.00069 1.44307 0
M  V30 886 N 81.2955 -0.223234 1.56011 0
M  V30 887 C 82.5205 -0.968978 1.83373 0
M  V30 888 C 82.9455 -1.77227 0.630254 0
M  V30 889 O 82.3035 -1.76345 -0.420959 0
M  V30 890 C 82.3515 -1.86363 3.08709 0
M  V30 891 O 81.4555 -2.95873 2.87285 0
M  V30 892 H 80.7965 -0.274461 0.604622 0
M  V30 893 H 83.3265 -0.237056 2.03222 0
M  V30 894 H 83.3365 -2.27376 3.38768 0
M  V30 895 H 82.0115 -1.27319 3.95933 0
M  V30 896 H 80.5885 -2.58818 2.68454 0
M  V30 897 N 82.7736 -1.49793 -0.48987 0
M  V30 898 C 84.0016 -1.63568 -1.26701 0
M  V30 899 C 84.4166 -0.311465 -1.86213 0
M  V30 900 O 83.7736 0.704416 -1.68357 0
M  V30 901 C 83.8246 -2.71284 -2.38929 0
M  V30 902 O 83.5456 -3.9857 -1.81861 0
M  V30 903 C 85.0466 -2.95864 -3.3012 0
M  V30 904 H 82.2666 -0.550342 -0.383881 0
M  V30 905 H 84.8106 -1.95898 -0.586864 0
M  V30 906 H 82.9656 -2.417 -3.02753 0
M  V30 907 H 83.3796 -4.57993 -2.55622 0
M  V30 908 H 84.8536 -3.74941 -4.05121 0
M  V30 909 H 85.3306 -2.06206 -3.87783 0
M  V30 910 H 85.9366 -3.26907 -2.72051 0
M  V30 911 N 84.2517 0.741722 -1.39055 0
M  V30 912 C 85.6677 1.04638 -1.20512 0
M  V30 913 C 85.8677 2.01405 -0.0620218 0
M  V30 914 O 84.9237 2.45547 0.588457 0
M  V30 915 C 86.2367 1.6151 -2.53643 0
M  V30 916 C 87.7847 1.73623 -2.6043 0
M  V30 917 C 88.2597 2.33906 -3.93767 0
M  V30 918 N 89.7507 2.41323 -3.9537 0
M  V30 919 C 90.4857 2.88888 -4.95309 0
M  V30 920 N 89.9817 3.36401 -6.05645 0
M  V30 921 N 91.7747 2.88037 -4.82692 0
M  V30 922 H 83.9257 0.0998155 -2.12165 0
M  V30 923 H 86.1887 0.106907 -0.941953 0
M  V30 924 H 85.8947 0.978739 -3.37807 0
M  V30 925 H 85.7687 2.60411 -2.72885 0
M  V30 926 H 88.1557 2.36384 -1.76655 0
M  V30 927 H 88.2367 0.733945 -2.45045 0
M  V30 928 H 87.8807 1.71776 -4.7797 0
M  V30 929 H 87.8107 3.34799 -4.06469 0
M  V30 930 H 90.3017 2.07734 -3.15682 0
M  V30 931 H 90.6147 3.71186 -6.77821 0
M  V30 932 H 88.9597 3.34427 -6.09248 0
M  V30 933 H 92.1507 2.50237 -3.95599 0
M  V30 934 H 92.3237 3.24792 -5.60726 0
M  V30 935 N 85.7298 1.2412 0.971189 0
M  V30 936 C 86.9768 1.07881 1.71371 0
M  V30 937 C 87.3048 -0.382901 1.90694 0
M  V30 938 O 86.5598 -1.29945 1.46331 0
M  V30 939 C 86.8588 1.75983 3.11071 0
M  V30 940 C 86.5248 3.25909 3.11599 0
M  V30 941 C 85.1868 3.66813 3.11451 0
M  V30 942 C 87.5388 4.21771 3.062 0
M  V30 943 C 84.8668 5.02021 3.03631 0
M  V30 944 C 87.2188 5.56982 2.99923 0
M  V30 945 C 85.8828 5.97237 2.98102 0
M  V30 946 H 85.1528 0.394764 0.62709 0
M  V30 947 H 87.7998 1.54176 1.13587 0
M  V30 948 H 86.1048 1.22072 3.72298 0
M  V30 949 H 87.8018 1.60887 3.6731 0
M  V30 950 H 84.3918 2.93353 3.12477 0
M  V30 951 H 88.5758 3.91172 3.05447 0
M  V30 952 H 83.8318 5.32411 3.0058 0
M  V30 953 H 88.0058 6.30969 2.94704 0
M  V30 954 H 85.6328 7.01967 2.91798 0
M  V30 955 N 87.2079 -1.17134 1.05439 0
M  V30 956 C 88.4329 -1.91913 0.786396 0
M  V30 957 C 88.8579 -1.7643 -0.652234 0
M  V30 958 O 88.2159 -1.08372 -1.45345 0
M  V30 959 C 88.2639 -3.40921 1.17497 0
M  V30 960 O 87.3679 -4.11244 0.308589 0
M  V30 961 H 86.7089 -0.598215 0.288158 0
M  V30 962 H 89.2389 -1.48457 1.4079 0
M  V30 963 H 89.2489 -3.91668 1.14281 0
M  V30 964 H 87.9239 -3.5151 2.22292 0
M  V30 965 H 86.5009 -3.70731 0.40157 0
M  V30 966 N 88.686 -0.835752 -1.33615 0
M  V30 967 C 89.963 -0.352017 -1.92406 0
M  V30 968 C 90.343 1.16225 -1.76224 0
M  V30 969 O 89.691 1.97526 -1.14873 0
M  V30 970 C 89.901 -0.795485 -3.39813 0
M  V30 971 C 91.249 -0.801703 -4.16963 0
M  V30 972 O 92.273 -0.738889 -3.48452 0
M  V30 973 O 91.132 -0.886607 -5.3926 0
M  V30 974 H 88.226 -0.0989641 -0.821057 0
M  V30 975 H 90.772 -0.921397 -1.42507 0
M  V30 976 H 89.544 -1.83795 -3.45449 0
M  V30 977 H 89.167 -0.202505 -3.97084 0
M  V30 978 N 90.1641 1.46063 -0.591896 0
M  V30 979 C 91.1271 2.28854 0.125973 0
M  V30 980 C 92.1271 1.38903 0.810107 0
M  V30 981 O 93.3171 1.61186 0.66066 0
M  V30 982 C 90.4491 3.19526 1.1881 0
M  V30 983 H 91.6421 2.93802 -0.601717 0
M  V30 984 H 89.1951 1.52325 -0.350254 0
M  V30 985 H 89.9301 2.59345 1.94707 0
M  V30 986 H 89.7151 3.85766 0.701936 0
M  V30 987 H 91.2051 3.81817 1.69132 0
M  V30 988 N 91.6422 0.330177 1.54103 0
M  V30 989 C 92.8912 -0.271336 1.99867 0
M  V30 990 C 93.2042 -1.52723 1.22209 0
M  V30 991 O 94.4102 -2.20515 1.58383 0
M  V30 992 C 92.8662 -0.534032 3.55916 0
M  V30 993 C 92.4742 0.705193 4.42415 0
M  V30 994 C 94.2182 -1.09514 4.1013 0
M  V30 995 C 92.1252 0.414035 5.89949 0
M  V30 996 H 91.0552 -0.105166 0.74663 0
M  V30 997 H 93.7062 0.443429 1.78062 0
M  V30 998 H 92.0882 -1.30915 3.73734 0
M  V30 999 H 93.2622 1.4804 4.36372 0
M  V30 1000 H 91.5772 1.18698 3.99124 0
M  V30 1001 H 94.1742 -1.3277 5.17954 0
M  V30 1002 H 94.5172 -2.04656 3.62521 0
M  V30 1003 H 95.0502 -0.381038 3.95971 0
M  V30 1004 H 91.7892 1.33481 6.41766 0
M  V30 1005 H 91.3092 -0.323336 5.98928 0
M  V30 1006 H 92.9882 0.0263105 6.46995 0
M  V30 1007 N 93.1203 -1.57491 0.0584922 0
M  V30 1008 C 94.5363 -1.56792 -0.298091 0
M  V30 1009 C 94.7363 -1.06679 -1.70944 0
M  V30 1010 O 93.7923 -0.726672 -2.41818 0
M  V30 1011 C 95.1053 -3.00461 -0.119879 0
M  V30 1012 C 96.6533 -3.1242 -0.190428 0
M  V30 1013 C 97.1283 -4.57982 -0.0406567 0
M  V30 1014 N 98.6193 -4.63099 -0.0966958 0
M  V30 1015 C 99.3543 -5.734 -0.00502943 0
M  V30 1016 N 98.8503 -6.9266 0.139402 0
M  V30 1017 N 100.643 -5.62067 -0.0611391 0
M  V30 1018 H 92.7943 -1.88386 0.98105 0
M  V30 1019 H 95.0573 -0.867865 0.381463 0
M  V30 1020 H 94.7633 -3.41187 0.85349 0
M  V30 1021 H 94.6373 -3.66843 -0.877833 0
M  V30 1022 H 97.0243 -2.71589 -1.15427 0
M  V30 1023 H 97.1053 -2.48702 0.598405 0
M  V30 1024 H 96.7493 -4.995 0.919897 0
M  V30 1025 H 96.6793 -5.19715 -0.848727 0
M  V30 1026 H 99.1703 -3.77331 -0.207277 0
M  V30 1027 H 99.4833 -7.72536 0.201855 0
M  V30 1028 H 97.8283 -6.94781 0.174586 0
M  V30 1029 H 101.019 -4.67782 -0.172583 0
M  V30 1030 H 101.192 -6.47999 0.0137562 0
M  V30 1031 N 94.5984 0.214957 -1.56127 0
M  V30 1032 C 95.5614 1.24997 -1.92116 0
M  V30 1033 C 96.5614 1.39467 -0.800344 0
M  V30 1034 O 97.7514 1.37619 -1.06802 0
M  V30 1035 C 94.8834 2.62271 -2.17777 0
M  V30 1036 H 96.0764 0.942875 -2.84693 0
M  V30 1037 H 93.6294 0.455654 -1.49511 0
M  V30 1038 H 94.3644 2.98068 -1.27773 0
M  V30 1039 H 94.1494 2.53143 -2.99434 0
M  V30 1040 H 95.6394 3.36946 -2.46693 0
M  V30 1041 N 96.0765 1.50051 0.48192 0
M  V30 1042 C 97.3235 1.60498 1.23477 0
M  V30 1043 C 97.6515 0.300331 1.92167 0
M  V30 1044 O 96.9065 -0.713094 1.82246 0
M  V30 1045 C 97.2055 2.72717 2.30998 0
M  V30 1046 C 96.8715 4.13572 1.79636 0
M  V30 1047 C 95.5335 4.519 1.65348 0
M  V30 1048 C 97.8855 5.01649 1.41412 0
M  V30 1049 C 95.2135 5.76057 1.11244 0
M  V30 1050 C 97.5655 6.26343 0.887538 0
M  V30 1051 C 96.2295 6.63483 0.731207 0
M  V30 1052 H 95.4995 0.587303 0.451836 0
M  V30 1053 H 98.1465 1.83948 0.532468 0
M  V30 1054 H 96.4515 2.43312 3.07094 0
M  V30 1055 H 98.1485 2.78006 2.88988 0
M  V30 1056 H 94.7385 3.83329 1.91721 0
M  V30 1057 H 98.9225 4.72679 1.51289 0
M  V30 1058 H 94.1785 6.03516 0.978686 0
M  V30 1059 H 98.3525 6.93958 0.582654 0
M  V30 1060 H 95.9795 7.59568 0.309806 0
M  V30 1061 N 97.5546 -0.734337 1.39446 0
M  V30 1062 C 98.4866 -1.85861 1.34121 0
M  V30 1063 C 99.4996 -1.60871 0.249864 0
M  V30 1064 O 100.689 -1.71093 0.508865 0
M  V30 1065 C 97.7886 -3.21899 1.05991 0
M  V30 1066 C 96.9616 -3.74239 2.26415 0
M  V30 1067 C 96.0206 -4.88841 1.94733 0
M  V30 1068 O 95.0466 -5.02468 2.67422 0
M  V30 1069 N 96.2486 -5.73261 0.913884 0
M  V30 1070 H 99.0136 -1.90934 2.31007 0
M  V30 1071 H 96.5746 -0.915102 1.33557 0
M  V30 1072 H 98.5666 -3.96136 0.828147 0
M  V30 1073 H 97.1366 -3.12091 0.178361 0
M  V30 1074 H 96.3566 -2.91347 2.65539 0
M  V30 1075 H 97.6446 -4.05942 3.06738 0
M  V30 1076 H 97.0426 -5.64842 0.311476 0
M  V30 1077 H 95.5996 -6.47563 0.742015 0
M  V30 1078 N 99.0327 -1.24633 -0.964593 0
M  V30 1079 C 100.279 -1.09957 -1.71117 0
M  V30 1080 C 100.634 0.357422 -1.89051 0
M  V30 1081 O 99.9267 1.26029 -1.44317 0
M  V30 1082 C 100.121 -1.7763 -3.10133 0
M  V30 1083 C 99.9497 -3.29759 -3.05759 0
M  V30 1084 C 98.7197 -3.98981 -3.10068 0
M  V30 1085 C 100.918 -4.26305 -2.87695 0
M  V30 1086 N 98.8997 -5.37966 -2.95747 0
M  V30 1087 C 100.271 -5.52308 -2.81702 0
M  V30 1088 C 102.326 -4.16842 -2.72299 0
M  V30 1089 C 101.029 -6.69931 -2.61887 0
M  V30 1090 C 103.055 -5.34147 -2.53853 0
M  V30 1091 C 102.417 -6.59084 -2.48572 0
M  V30 1092 H 98.5157 -0.457003 -0.634564 0
M  V30 1093 H 101.1 -1.57592 -1.14337 0
M  V30 1094 H 99.2707 -1.32504 -3.65099 0
M  V30 1095 H 101.003 -1.55786 -3.73514 0
M  V30 1096 H 97.7577 -3.50169 -3.18871 0
M  V30 1097 H 98.1817 -6.10877 -2.91818 0
M  V30 1098 H 102.824 -3.21007 -2.75163 0
M  V30 1099 H 100.542 -7.65886 -2.57767 0
M  V30 1100 H 104.128 -5.28678 -2.4288 0
M  V30 1101 H 103.008 -7.48324 -2.34481 0
M  V30 1102 N 100.511 1.16574 -1.06058 0
M  V30 1103 C 101.757 1.87324 -0.777022 0
M  V30 1104 C 102.09 1.81351 0.694645 0
M  V30 1105 O 101.365 1.22753 1.50871 0
M  V30 1106 C 101.648 3.36991 -1.26922 0
M  V30 1107 C 101.501 3.51667 -2.80447 0
M  V30 1108 C 102.82 4.3131 -0.87521 0
M  V30 1109 H 99.9388 0.680191 -0.28374 0
M  V30 1110 H 102.581 1.37036 -1.3161 0
M  V30 1111 H 100.731 3.79949 -0.81063 0
M  V30 1112 H 102.403 3.17664 -3.34495 0
M  V30 1113 H 100.646 2.93656 -3.19294 0
M  V30 1114 H 101.317 4.56766 -3.0995 0
M  V30 1115 H 103.793 3.9624 -1.27014 0
M  V30 1116 H 102.669 5.34545 -1.2471 0
M  V30 1117 H 102.93 4.41552 0.220071 0
M  V30 1118 N 101.989 0.842826 1.3317 0
M  V30 1119 C 103.214 0.453129 2.02389 0
M  V30 1120 C 103.639 -0.939105 1.6298 0
M  V30 1121 O 102.997 -1.61472 0.8244 0
M  V30 1122 C 103.045 0.586094 3.55805 0
M  V30 1123 O 102.149 -0.386029 4.10589 0
M  V30 1124 H 101.49 0.183664 0.638094 0
M  V30 1125 H 104.02 1.13875 1.69981 0
M  V30 1126 H 104.03 0.469209 4.05293 0
M  V30 1127 H 102.705 1.6014 3.83833 0
M  V30 1128 H 101.282 -0.226371 3.72212 0
M  V30 1129 N 103.467 -1.45747 0.599634 0
M  V30 1130 C 104.399 -2.28628 -0.161879 0
M  V30 1131 C 105.412 -1.39494 -0.839367 0
M  V30 1132 O 106.601 -1.63941 -0.706089 0
M  V30 1133 C 103.701 -3.15014 -1.24976 0
M  V30 1134 C 102.874 -4.32378 -0.660935 0
M  V30 1135 C 101.933 -5.00033 -1.63869 0
M  V30 1136 O 100.959 -5.57085 -1.1681 0
M  V30 1137 N 102.161 -4.98589 -2.97303 0
M  V30 1138 H 104.926 -2.94624 0.549265 0
M  V30 1139 H 102.487 -1.55847 0.438565 0
M  V30 1140 H 104.479 -3.5714 -1.9035 0
M  V30 1141 H 103.049 -2.5098 -1.86354 0
M  V30 1142 H 102.269 -3.9383 0.170688 0
M  V30 1143 H 103.557 -5.08197 -0.247619 0
M  V30 1144 H 102.955 -4.53514 -3.38145 0
M  V30 1145 H 101.512 -5.44603 -3.58121 0
M  V30 1146 N 104.945 -0.338344 -1.53925 0
M  V30 1147 C 105.875 0.51328 -2.27789 0
M  V30 1148 C 106.856 1.107 -1.29149 0
M  V30 1149 O 108.041 1.12937 -1.57984 0
M  V30 1150 C 105.171 1.66697 -3.04679 0
M  V30 1151 C 104.125 1.20183 -4.1078 0
M  V30 1152 C 103.451 2.44363 -4.75595 0
M  V30 1153 C 104.751 0.30605 -5.21403 0
M  V30 1154 H 106.445 -0.102883 -2.99223 0
M  V30 1155 H 103.991 -0.0509219 -1.4391 0
M  V30 1156 H 105.944 2.26915 -3.55088 0
M  V30 1157 H 104.668 2.30995 -2.30887 0
M  V30 1158 H 103.327 0.622499 -3.61276 0
M  V30 1159 H 102.975 3.07057 -3.98403 0
M  V30 1160 H 102.675 2.13925 -5.47275 0
M  V30 1161 H 104.199 3.05317 -5.28786 0
M  V30 1162 H 105.613 0.814929 -5.67478 0
M  V30 1163 H 104.01 0.0937929 -6.00027 0
M  V30 1164 H 105.08 -0.65921 -4.80398 0
M  V30 1165 N 106.423 1.57458 -0.0668435 0
M  V30 1166 C 107.834 1.80776 0.466558 0
M  V30 1167 C 108.185 0.980361 1.69951 0
M  V30 1168 O 107.31 0.201441 2.1546 0
M  V30 1169 C 107.905 3.27881 0.85321 0
M  V30 1170 C 106.464 3.52062 1.3315 0
M  V30 1171 C 105.611 2.75513 0.314264 0
M  V30 1172 H 108.562 1.5598 -0.292588 0
M  V30 1173 H 108.583 3.39659 1.715 0
M  V30 1174 H 108.095 3.88075 -0.0443439 0
M  V30 1175 H 106.196 2.97167 2.24772 0
M  V30 1176 H 106.309 4.60762 1.31285 0
M  V30 1177 H 104.673 2.42123 0.790492 0
M  V30 1178 H 105.456 3.38442 -0.575477 0
M  V30 1179 N 107.901 -0.206675 1.56239 0
M  V30 1180 C 109.147 -0.930218 1.80208 0
M  V30 1181 C 109.48 -1.83387 0.638981 0
M  V30 1182 O 108.755 -1.91119 -0.361066 0
M  V30 1183 C 109.038 -1.75641 3.1436 0
M  V30 1184 C 108.891 -0.878257 4.41142 0
M  V30 1185 C 110.21 -2.73129 3.45092 0
M  V30 1186 H 107.329 -0.336742 0.655571 0
M  V30 1187 H 109.971 -0.198222 1.88963 0
M  V30 1188 H 108.121 -2.38048 3.07027 0
M  V30 1189 H 109.793 -0.269787 4.6051 0
M  V30 1190 H 108.036 -0.184385 4.33408 0
M  V30 1191 H 108.707 -1.49106 5.3148 0
M  V30 1192 H 111.183 -2.20856 3.52649 0
M  V30 1193 H 110.059 -3.28028 4.40101 0
M  V30 1194 H 110.32 -3.51606 2.68003 0
M  V30 1195 N 109.379 -1.50304 -0.473955 0
M  V30 1196 C 110.604 -1.65175 -1.25427 0
M  V30 1197 C 111.029 -0.333673 -1.85117 0
M  V30 1198 O 110.387 0.702114 -1.67153 0
M  V30 1199 C 110.435 -2.74295 -2.34082 0
M  V30 1200 O 109.539 -2.35349 -3.38651 0
M  V30 1201 H 108.88 -0.551944 -0.369126 0
M  V30 1202 H 111.41 -1.96662 -0.564364 0
M  V30 1203 H 111.42 -2.97285 -2.79438 0
M  V30 1204 H 110.095 -3.69959 -1.90008 0
M  V30 1205 H 108.672 -2.22794 -2.99027 0
M  V30 1206 N 110.857 0.726932 -1.39834 0
M  V30 1207 C 112.105 1.4837 -1.37225 0
M  V30 1208 C 112.426 1.94979 0.0284857 0
M  V30 1209 O 111.696 1.69555 0.981213 0
M  V30 1210 H 110.276 0.55043 -0.505011 0
M  V30 1211 H 112.938 0.862468 -1.74778 0
M  V30 1212 H 112.034 2.36198 -2.04003 0
M  V30 1213 N 112.336 1.25143 0.95797 0
M  V30 1214 C 113.582 1.09855 1.70469 0
M  V30 1215 C 113.915 -0.360187 1.90831 0
M  V30 1216 O 113.19 -1.26568 1.47685 0
M  V30 1217 C 113.473 1.8497 3.08963 0
M  V30 1218 C 113.326 3.38652 2.96032 0
M  V30 1219 C 114.645 1.63016 4.08795 0
M  V30 1220 H 111.764 0.400465 0.618706 0
M  V30 1221 H 114.406 1.53933 1.11376 0
M  V30 1222 H 112.556 1.47505 3.59409 0
M  V30 1223 H 114.228 3.85772 2.52938 0
M  V30 1224 H 112.471 3.66534 2.32025 0
M  V30 1225 H 113.142 3.8642 3.94187 0
M  V30 1226 H 115.618 1.95625 3.67247 0
M  V30 1227 H 114.494 2.18015 5.03747 0
M  V30 1228 H 114.755 0.570692 4.38401 0
M  V30 1229 N 113.814 -1.1601 1.06675 0
M  V30 1230 C 114.744 -2.22688 0.702307 0
M  V30 1231 C 115.725 -1.67306 -0.307032 0
M  V30 1232 O 116.91 -1.93352 -0.181305 0
M  V30 1233 C 114.04 -3.47178 0.092038 0
M  V30 1234 C 112.994 -4.15477 1.02777 0
M  V30 1235 C 112.32 -5.33963 0.28061 0
M  V30 1236 C 113.62 -4.66019 2.35846 0
M  V30 1237 H 115.314 -2.53429 1.59419 0
M  V30 1238 H 112.86 -1.21813 0.767961 0
M  V30 1239 H 114.813 -4.21037 -0.174814 0
M  V30 1240 H 113.537 -3.15749 -0.834877 0
M  V30 1241 H 112.196 -3.43549 1.27944 0
M  V30 1242 H 111.844 -4.98788 -0.649545 0
M  V30 1243 H 111.544 -5.806 0.904258 0
M  V30 1244 H 113.068 -6.10596 0.021396 0
M  V30 1245 H 114.482 -5.3144 2.15045 0
M  V30 1246 H 112.879 -5.23293 2.93743 0
M  V30 1247 H 113.949 -3.82023 2.98641 0
M  V30 1248 N 115.292 -0.849877 -1.32721 0
M  V30 1249 C 116.569 -0.372405 -1.92022 0
M  V30 1250 C 116.949 1.1435 -1.77447 0
M  V30 1251 O 116.297 1.96296 -1.16962 0
M  V30 1252 C 116.507 -0.831482 -3.3895 0
M  V30 1253 C 117.855 -0.845882 -4.16089 0
M  V30 1254 O 118.879 -0.775806 -3.47649 0
M  V30 1255 O 117.738 -0.943753 -5.38289 0
M  V30 1256 H 114.832 -0.107667 -0.819961 0
M  V30 1257 H 117.378 -0.93646 -1.41522 0
M  V30 1258 H 116.15 -1.87448 -3.4348 0
M  V30 1259 H 115.773 -0.24461 -3.96847 0
M  V30 1260 N 116.77 1.45427 -0.607355 0
M  V30 1261 C 118.186 1.57283 -0.270985 0
M  V30 1262 C 118.386 1.59875 1.22647 0
M  V30 1263 O 117.442 1.52893 2.00948 0
M  V30 1264 C 118.755 2.85566 -0.941952 0
M  V30 1265 C 120.303 2.9924 -0.917849 0
M  V30 1266 C 120.778 4.30293 -1.56882 0
M  V30 1267 N 122.269 4.37051 -1.5343 0
M  V30 1268 C 123.004 5.37123 -2.00715 0
M  V30 1269 N 122.5 6.43734 -2.56084 0
M  V30 1270 N 124.293 5.28479 -1.91484 0
M  V30 1271 H 116.444 1.41988 -1.57966 0
M  V30 1272 H 118.707 0.67885 -0.661715 0
M  V30 1273 H 118.413 2.8955 -1.99633 0
M  V30 1274 H 118.287 3.74322 -0.465096 0
M  V30 1275 H 120.674 2.94822 0.127984 0
M  V30 1276 H 120.755 2.11895 -1.43297 0
M  V30 1277 H 120.399 4.35469 -2.61398 0
M  V30 1278 H 120.329 5.16454 -1.02873 0
M  V30 1279 H 122.82 3.60615 -1.12982 0
M  V30 1280 H 123.133 7.16341 -2.89958 0
M  V30 1281 H 121.478 6.44485 -2.60122 0
M  V30 1282 H 124.669 4.44098 -1.47967 0
M  V30 1283 H 124.842 6.0632 -2.28648 0
M  V30 1284 N 118.248 0.346503 1.53744 0
M  V30 1285 C 119.211 -0.496439 2.23759 0
M  V30 1286 C 120.211 -1.0252 1.2388 0
M  V30 1287 O 121.401 -0.913974 1.48297 0
M  V30 1288 C 118.533 -1.69187 2.95954 0
M  V30 1289 H 119.726 0.115952 2.99676 0
M  V30 1290 H 117.279 0.0978939 1.55993 0
M  V30 1291 H 118.014 -2.34288 2.24231 0
M  V30 1292 H 117.799 -1.31989 3.69217 0
M  V30 1293 H 119.289 -2.28969 3.49232 0
M  V30 1294 N 119.726 -1.57421 0.075193 0
M  V30 1295 C 120.954 -1.97946 -0.602076 0
M  V30 1296 C 121.369 -0.953674 -1.62943 0
M  V30 1297 O 120.726 0.0592551 -1.82404 0
M  V30 1298 C 120.777 -3.38546 -1.26762 0
M  V30 1299 O 120.498 -4.37195 -0.281376 0
M  V30 1300 C 121.999 -3.93966 -2.03239 0
M  V30 1301 H 119.219 -0.650918 -0.162931 0
M  V30 1302 H 121.763 -2.03959 0.148601 0
M  V30 1303 H 119.918 -3.33609 -1.96936 0
M  V30 1304 H 120.332 -5.18975 -0.759267 0
M  V30 1305 H 121.806 -4.94555 -2.45193 0
M  V30 1306 H 122.283 -3.30693 -2.8903 0
M  V30 1307 H 122.889 -4.02315 -1.37924 0
M  V30 1308 N 121.204 0.198386 -1.56346 0
M  V30 1309 C 122.134 1.24865 -1.9731 0
M  V30 1310 C 123.115 1.47651 -0.844576 0
M  V30 1311 O 124.3 1.59444 -1.10866 0
M  V30 1312 C 121.43 2.59358 -2.30977 0
M  V30 1313 C 120.384 2.5119 -3.46537 0
M  V30 1314 C 119.71 3.89926 -3.65871 0
M  V30 1315 C 121.01 2.03977 -4.80823 0
M  V30 1316 H 122.704 0.908252 -2.85291 0
M  V30 1317 H 120.25 0.435462 -1.37258 0
M  V30 1318 H 122.203 3.33011 -2.58228 0
M  V30 1319 H 120.927 2.95132 -1.39874 0
M  V30 1320 H 119.586 1.79993 -3.19371 0
M  V30 1321 H 119.234 4.23046 -2.72105 0
M  V30 1322 H 118.934 3.85336 -4.4361 0
M  V30 1323 H 120.458 4.65205 -3.95495 0
M  V30 1324 H 121.872 2.67386 -5.07127 0
M  V30 1325 H 120.269 2.10397 -5.62008 0
M  V30 1326 H 121.339 0.992861 -4.74626 0
M  V30 1327 N 122.682 1.50554 0.465978 0
M  V30 1328 C 124.098 1.38093 0.800154 0
M  V30 1329 C 124.298 0.440988 1.96615 0
M  V30 1330 O 123.354 -0.114499 2.5224 0
M  V30 1331 C 124.667 2.79565 1.10742 0
M  V30 1332 C 126.215 2.88516 1.21357 0
M  V30 1333 C 126.69 4.30833 1.55393 0
M  V30 1334 N 128.181 4.33807 1.62375 0
M  V30 1335 C 128.916 5.40927 1.90225 0
M  V30 1336 N 128.412 6.58247 2.16062 0
M  V30 1337 N 130.205 5.28376 1.9177 0
M  V30 1338 H 122.356 2.10237 -0.302366 0
M  V30 1339 H 124.619 0.945203 -0.0727746 0
M  V30 1340 H 124.325 3.50208 0.323661 0
M  V30 1341 H 124.199 3.17125 2.04234 0
M  V30 1342 H 126.586 2.1809 1.98799 0
M  V30 1343 H 126.667 2.54492 0.258321 0
M  V30 1344 H 126.311 5.01799 0.784889 0
M  V30 1345 H 126.241 4.62347 2.52076 0
M  V30 1346 H 128.732 3.49212 1.44427 0
M  V30 1347 H 129.045 7.3569 2.36601 0
M  V30 1348 H 127.39 6.61413 2.13444 0
M  V30 1349 H 130.581 4.35715 1.71085 0
M  V30 1350 H 130.754 6.11944 2.13139 0
M  V30 1351 N 124.16 -0.719506 1.40217 0
M  V30 1352 C 125.092 -1.84428 1.36084 0
M  V30 1353 C 126.105 -1.60597 0.266913 0
M  V30 1354 O 127.294 -1.70544 0.526983 0
M  V30 1355 C 124.394 -3.20757 1.094 0
M  V30 1356 C 123.567 -3.71817 2.30372 0
M  V30 1357 C 122.626 -4.86748 1.99907 0
M  V30 1358 O 121.652 -4.99603 2.72737 0
M  V30 1359 N 122.854 -5.7226 0.974635 0
M  V30 1360 H 125.619 -1.88473 2.33019 0
M  V30 1361 H 123.18 -0.900885 1.3452 0
M  V30 1362 H 125.172 -3.95235 0.870116 0
M  V30 1363 H 123.742 -3.11884 0.211452 0
M  V30 1364 H 122.962 -2.88514 2.68614 0
M  V30 1365 H 124.25 -4.02666 3.11026 0
M  V30 1366 H 123.648 -5.6448 0.371368 0
M  V30 1367 H 122.205 -6.46739 0.810656 0
M  V30 1368 N 125.638 -1.25649 -0.95132 0
M  V30 1369 C 126.571 -1.00644 -2.04807 0
M  V30 1370 C 127.549 0.0654271 -1.62468 0
M  V30 1371 O 128.733 -0.074911 -1.88351 0
M  V30 1372 C 125.86 -0.522052 -3.34653 0
M  V30 1373 C 124.906 -1.58495 -3.95957 0
M  V30 1374 S 125.739 -3.17108 -4.31512 0
M  V30 1375 C 126.895 -2.70412 -5.64471 0
M  V30 1376 H 127.128 -1.93508 -2.25703 0
M  V30 1377 H 124.661 -1.09216 -1.09139 0
M  V30 1378 H 126.619 -0.24923 -4.09743 0
M  V30 1379 H 125.28 0.386146 -3.11717 0
M  V30 1380 H 124.473 -1.1968 -4.89584 0
M  V30 1381 H 124.075 -1.80862 -3.2736 0
M  V30 1382 H 126.367 -2.14245 -6.42733 0
M  V30 1383 H 127.31 -3.62693 -6.08161 0
M  V30 1384 H 127.718 -2.10302 -5.23864 0
M  V30 1385 N 127.117 1.15442 -1.07289 0
M  V30 1386 C 128.345 1.90096 -0.81676 0
M  V30 1387 C 128.76 1.7798 0.629966 0
M  V30 1388 O 128.117 1.1313 1.43206 0
M  V30 1389 C 128.168 3.40466 -1.21512 0
M  V30 1390 O 127.889 3.52232 -2.60508 0
M  V30 1391 C 129.39 4.32145 -0.988198 0
M  V30 1392 H 126.61 0.602495 -0.295366 0
M  V30 1393 H 129.154 1.4627 -1.42918 0
M  V30 1394 H 127.309 3.81958 -0.647039 0
M  V30 1395 H 127.723 4.45549 -2.76742 0
M  V30 1396 H 129.197 5.36072 -1.31645 0
M  V30 1397 H 129.674 4.39135 0.0755063 0
M  V30 1398 H 130.28 3.96395 -1.54115 0
M  V30 1399 N 128.595 0.856903 1.32268 0
M  V30 1400 C 130.011 0.547061 1.49931 0
M  V30 1401 C 130.211 -0.921781 1.7918 0
M  V30 1402 O 129.267 -1.70469 1.8627 0
M  V30 1403 C 130.58 1.43599 2.64196 0
M  V30 1404 C 132.128 1.43665 2.78081 0
M  V30 1405 C 132.603 2.31085 3.95428 0
M  V30 1406 N 134.094 2.28893 4.02694 0
M  V30 1407 C 134.829 2.93262 4.92732 0
M  V30 1408 N 134.325 3.66751 5.87763 0
M  V30 1409 N 136.118 2.82638 4.85873 0
M  V30 1410 H 128.269 1.8075 1.11549 0
M  V30 1411 H 130.532 0.772144 0.549997 0
M  V30 1412 H 130.238 2.48058 2.49319 0
M  V30 1413 H 130.112 1.12502 3.60032 0
M  V30 1414 H 132.499 0.399701 2.92381 0
M  V30 1415 H 132.58 1.7878 1.82952 0
M  V30 1416 H 132.224 3.34849 3.81888 0
M  V30 1417 H 132.154 1.93302 4.89839 0
M  V30 1418 H 134.645 1.75466 3.34694 0
M  V30 1419 H 134.958 4.13027 6.53168 0
M  V30 1420 H 133.303 3.70859 5.87783 0
M  V30 1421 H 136.494 2.24774 4.10602 0
M  V30 1422 H 136.667 3.33084 5.55841 0
M  V30 1423 N 130.073 -1.45103 0.615059 0
M  V30 1424 C 131.484 -1.85654 0.197383 0
M  V30 1425 C 131.835 -1.51433 -1.24749 0
M  V30 1426 O 130.96 -0.944608 -1.94695 0
M  V30 1427 C 131.555 -3.36972 0.351448 0
M  V30 1428 C 130.114 -3.76398 -0.011593 0
M  V30 1429 C 129.261 -2.69024 0.672394 0
M  V30 1430 H 132.212 -1.35797 0.821263 0
M  V30 1431 H 132.233 -3.78239 -0.414227 0
M  V30 1432 H 131.745 -3.61847 1.40314 0
M  V30 1433 H 129.846 -3.5714 -1.06217 0
M  V30 1434 H 129.959 -4.77532 0.387265 0
M  V30 1435 H 128.323 -2.54465 0.109284 0
M  V30 1436 H 129.106 -2.96735 1.72636 0
M  V30 1437 N 131.551 -0.354651 -1.53558 0
M  V30 1438 C 132.967 -0.00315426 -1.596 0
M  V30 1439 C 133.167 1.47741 -1.37021 0
M  V30 1440 O 132.223 2.23759 -1.16996 0
M  V30 1441 C 133.536 -0.44929 -2.97325 0
M  V30 1442 C 135.084 -0.402578 -3.104 0
M  V30 1443 C 135.559 -0.824355 -4.5052 0
M  V30 1444 N 137.05 -0.778979 -4.56603 0
M  V30 1445 C 137.785 -1.07715 -5.63192 0
M  V30 1446 N 137.281 -1.44405 -6.77583 0
M  V30 1447 N 139.074 -1.00066 -5.53121 0
M  V30 1448 H 131.225 -1.31893 -1.66487 0
M  V30 1449 H 133.488 -0.538388 -0.780284 0
M  V30 1450 H 133.194 -1.48202 -3.1895 0
M  V30 1451 H 133.068 0.169772 -3.76818 0
M  V30 1452 H 135.455 0.621004 -2.88492 0
M  V30 1453 H 135.536 -1.05699 -2.32941 0
M  V30 1454 H 135.18 -1.846 -4.73165 0
M  V30 1455 H 135.11 -0.147304 -5.26394 0
M  V30 1456 H 137.601 -0.508528 -3.74463 0
M  V30 1457 H 137.914 -1.65612 -7.54846 0
M  V30 1458 H 136.259 -1.4826 -6.79002 0
M  V30 1459 H 139.45 -0.713293 -4.62633 0
M  V30 1460 H 139.623 -1.23638 -6.36096 0
M  V30 1461 N 133.029 1.57378 -0.0835403 0
M  V30 1462 C 134.269 1.95808 0.586381 0
M  V30 1463 C 134.633 0.963706 1.66062 0
M  V30 1464 O 135.834 1.23608 2.38693 0
M  V30 1465 C 134.105 3.38808 1.13771 0
M  V30 1466 S 135.664 3.99225 1.82112 0
M  V30 1467 H 132.482 0.684675 0.191679 0
M  V30 1468 H 135.084 1.94843 -0.160194 0
M  V30 1469 H 133.788 4.08954 0.344197 0
M  V30 1470 H 133.319 3.43344 1.92038 0
M  V30 1471 H 135.334 3.87087 3.10449 0
M  V30 1472 N 134.507 -0.190092 1.56449 0
M  V30 1473 C 135.755 -0.907908 1.80559 0
M  V30 1474 C 136.076 -1.83583 0.657438 0
M  V30 1475 O 135.346 -1.93203 -0.323924 0
M  V30 1476 H 133.926 -0.338247 0.666032 0
M  V30 1477 H 136.588 -0.194403 1.93928 0
M  V30 1478 H 135.684 -1.49604 2.73907 0
M  V30 1479 N 135.985 -1.50799 -0.457987 0
M  V30 1480 C 137.231 -1.62683 -1.21088 0
M  V30 1481 C 137.564 -0.332268 -1.91336 0
M  V30 1482 O 136.839 0.667043 -1.82704 0
M  V30 1483 C 137.122 -2.81615 -2.24422 0
M  V30 1484 C 136.975 -4.20989 -1.58392 0
M  V30 1485 C 138.294 -2.96085 -3.2561 0
M  V30 1486 H 135.413 -0.592087 -0.438864 0
M  V30 1487 H 138.055 -1.83225 -0.50286 0
M  V30 1488 H 136.205 -2.64231 -2.84806 0
M  V30 1489 H 137.877 -4.49994 -1.01504 0
M  V30 1490 H 136.12 -4.24641 -0.886704 0
M  V30 1491 H 136.791 -5.0016 -2.33547 0
M  V30 1492 H 139.267 -3.12042 -2.75262 0
M  V30 1493 H 138.143 -3.80902 -3.95228 0
M  V30 1494 H 138.404 -2.0726 -3.90507 0
M  V30 1495 N 137.463 0.71206 -1.40597 0
M  V30 1496 C 138.691 1.50111 -1.42388 0
M  V30 1497 C 139.106 1.88784 -0.0245395 0
M  V30 1498 O 138.463 1.55681 0.952351 0
M  V30 1499 C 138.514 2.7742 -2.31776 0
M  V30 1500 O 138.235 2.40382 -3.66262 0
M  V30 1501 C 139.736 3.7129 -2.42196 0
M  V30 1502 H 136.956 0.46314 -0.485533 0
M  V30 1503 H 139.5 0.878068 -1.8469 0
M  V30 1504 H 137.655 3.36001 -1.92827 0
M  V30 1505 H 138.069 3.22324 -4.13772 0
M  V30 1506 H 139.543 4.57448 -3.08943 0
M  V30 1507 H 140.02 4.14641 -1.44809 0
M  V30 1508 H 140.626 3.18619 -2.81712 0
M  V30 1509 N 138.941 1.26152 0.944643 0
M  V30 1510 C 140.218 1.02247 1.66748 0
M  V30 1511 C 140.598 -0.448202 2.06287 0
M  V30 1512 O 139.946 -1.42779 1.78399 0
M  V30 1513 C 140.156 1.96788 2.88228 0
M  V30 1514 C 141.504 2.25201 3.59958 0
M  V30 1515 O 142.528 1.94626 2.98327 0
M  V30 1516 O 141.387 2.77242 4.70956 0
M  V30 1517 H 138.481 0.388517 0.730057 0
M  V30 1518 H 141.027 1.37348 0.99668 0
M  V30 1519 H 139.799 2.96047 2.55875 0
M  V30 1520 H 139.422 1.62145 3.63035 0
M  V30 1521 N 140.419 -1.14872 1.07899 0
M  V30 1522 C 141.647 -1.89661 0.82683 0
M  V30 1523 C 142.062 -1.78312 -0.620519 0
M  V30 1524 O 141.419 -1.13888 -1.42604 0
M  V30 1525 C 141.47 -3.39817 1.23316 0
M  V30 1526 O 141.191 -3.50845 2.62372 0
M  V30 1527 C 142.692 -4.31615 1.0111 0
M  V30 1528 H 139.912 -0.60092 0.298557 0
M  V30 1529 H 142.456 -1.4551 1.43691 0
M  V30 1530 H 140.611 -3.8161 0.667286 0
M  V30 1531 H 141.025 -4.44076 2.79101 0
M  V30 1532 H 142.499 -5.35367 1.34486 0
M  V30 1533 H 142.976 -4.39169 -0.0522168 0
M  V30 1534 H 143.582 -3.95572 1.56215 0
M  V30 1535 N 141.898 -0.863906 -1.31812 0
M  V30 1536 C 142.846 -0.30422 -2.30602 0
M  V30 1537 C 143.84 0.577419 -1.59255 0
M  V30 1538 O 145.046 0.464194 -1.73912 0
M  V30 1539 H 141.421 -0.0796877 -0.747766 0
M  V30 1540 H 143.392 -1.15148 -2.75288 0
M  V30 1541 C 142.141 0.484617 -3.44306 0
M  V30 1542 H 141.464 -0.18451 -3.99374 0
M  V30 1543 H 142.904 0.841664 -4.15562 0
M  V30 1544 C 141.363 1.6735 -2.92396 0
M  V30 1545 O 141.893 2.77273 -2.90659 0
M  V30 1546 N 140.099 1.50362 -2.48676 0
M  V30 1547 H 139.646 0.609402 -2.50288 0
M  V30 1548 H 139.604 2.30051 -2.14299 0
M  V30 1549 N 143.376 1.44774 -0.622745 0
M  V30 1550 C 144.601 2.06999 -0.128968 0
M  V30 1551 C 145.026 1.4617 1.1839 0
M  V30 1552 O 144.384 0.560007 1.72434 0
M  V30 1553 C 144.432 3.60595 -0.0188351 0
M  V30 1554 O 143.536 3.99398 1.02739 0
M  V30 1555 H 142.877 0.659047 -0.0809544 0
M  V30 1556 H 145.407 1.85784 -0.85705 0
M  V30 1557 H 145.417 4.07627 0.174476 0
M  V30 1558 H 144.092 4.04252 -0.977384 0
M  V30 1559 H 142.669 3.64011 0.809326 0
M  V30 1560 N 144.854 0.36279 1.53368 0
M  V30 1561 C 146.084 -0.228281 2.05335 0
M  V30 1562 C 146.492 -1.43226 1.23625 0
M  V30 1563 O 145.835 -1.81717 0.269206 0
M  V30 1564 C 145.897 -0.688549 3.52845 0
M  V30 1565 C 145.561 0.398362 4.5526 0
M  V30 1566 C 146.558 1.24732 5.04716 0
M  V30 1567 C 144.243 0.557805 4.99193 0
M  V30 1568 C 146.237 2.2411 5.96702 0
M  V30 1569 C 143.924 1.55495 5.90986 0
M  V30 1570 C 144.922 2.39503 6.39631 0
M  V30 1571 O 144.61 3.37517 7.29615 0
M  V30 1572 H 144.342 -0.044395 0.674541 0
M  V30 1573 H 146.896 0.518668 1.98744 0
M  V30 1574 H 145.126 -1.48706 3.56964 0
M  V30 1575 H 146.815 -1.20231 3.87685 0
M  V30 1576 H 147.581 1.13532 4.71525 0
M  V30 1577 H 143.46 -0.0862959 4.60919 0
M  V30 1578 H 147.004 2.89718 6.34594 0
M  V30 1579 H 142.901 1.66744 6.23592 0
M  V30 1580 H 143.669 3.33213 7.47604 0
M  V30 1581 N 146.332 -1.57332 0.0918853 0
M  V30 1582 C 147.295 -2.12708 -0.85369 0
M  V30 1583 C 148.295 -1.05561 -1.213 0
M  V30 1584 O 149.485 -1.31461 -1.14296 0
M  V30 1585 C 146.617 -2.64503 -2.15061 0
M  V30 1586 H 147.81 -2.97573 -0.3729 0
M  V30 1587 H 145.363 -1.55509 -0.157072 0
M  V30 1588 H 146.098 -1.83149 -2.67632 0
M  V30 1589 H 145.883 -3.4284 -1.90272 0
M  V30 1590 H 147.373 -3.07351 -2.82711 0
M  V30 1591 N 147.81 0.181792 -1.56548 0
M  V30 1592 C 148.773 1.20894 -1.94724 0
M  V30 1593 C 149.773 1.37738 -0.829747 0
M  V30 1594 O 150.963 1.35323 -1.09697 0
M  V30 1595 C 148.095 2.57593 -2.23291 0
M  V30 1596 H 149.288 0.882275 -2.86629 0
M  V30 1597 H 146.841 0.423838 -1.50444 0
M  V30 1598 H 147.576 2.95291 -1.34067 0
M  V30 1599 H 147.361 2.46735 -3.04736 0
M  V30 1600 H 148.851 3.31637 -2.53785 0
M  V30 1601 N 149.288 1.51039 0.449983 0
M  V30 1602 C 150.534 1.64287 1.19923 0
M  V30 1603 C 150.889 0.348701 1.89214 0
M  V30 1604 O 150.182 -0.654751 1.80065 0
M  V30 1605 C 150.376 2.77556 2.25161 0
M  V30 1606 C 150.205 4.17862 1.66198 0
M  V30 1607 C 148.975 4.83976 1.45243 0
M  V30 1608 C 151.173 5.01388 1.14519 0
M  V30 1609 N 149.155 6.08433 0.817437 0
M  V30 1610 C 150.526 6.16743 0.634705 0
M  V30 1611 C 152.581 4.87008 1.03574 0
M  V30 1612 C 151.284 7.19295 0.0255452 0
M  V30 1613 C 153.31 5.89757 0.440489 0
M  V30 1614 C 152.672 7.04375 -0.0595112 0
M  V30 1615 H 148.771 0.655161 0.426952 0
M  V30 1616 H 151.355 1.88228 0.49781 0
M  V30 1617 H 149.526 2.553 2.92706 0
M  V30 1618 H 151.258 2.80049 2.92155 0
M  V30 1619 H 148.013 4.41627 1.71063 0
M  V30 1620 H 148.437 6.75017 0.517747 0
M  V30 1621 H 153.079 3.9866 1.4082 0
M  V30 1622 H 150.797 8.07302 -0.359071 0
M  V30 1623 H 154.383 5.80698 0.35788 0
M  V30 1624 H 153.263 7.82521 -0.512882 0
M  V30 1625 N 150.766 -0.704594 1.40972 0
M  V30 1626 C 151.729 -1.80035 1.41845 0
M  V30 1627 C 152.729 -1.57774 0.310474 0
M  V30 1628 O 153.919 -1.64613 0.56992 0
M  V30 1629 C 151.051 -3.18284 1.22098 0
M  V30 1630 H 152.244 -1.80658 2.3938 0
M  V30 1631 H 149.797 -0.911329 1.26982 0
M  V30 1632 H 150.532 -3.23306 0.253672 0
M  V30 1633 H 150.317 -3.35843 2.02366 0
M  V30 1634 H 151.807 -3.98289 1.25522 0
M  V30 1635 N 152.244 -1.26651 -0.937939 0
M  V30 1636 C 153.154 -1.10276 -2.07066 0
M  V30 1637 C 154.17 -0.0354197 -1.73964 0
M  V30 1638 O 155.346 -0.239816 -1.99967 0
M  V30 1639 C 152.411 -0.740887 -3.38691 0
M  V30 1640 C 151.472 -1.88799 -3.85556 0
M  V30 1641 C 150.705 -1.54329 -5.10899 0
M  V30 1642 O 150.928 -0.446494 -5.6865 0
M  V30 1643 O 149.862 -2.37911 -5.52885 0
M  V30 1644 H 153.688 -2.05309 -2.23789 0
M  V30 1645 H 151.273 -1.05743 -1.0554 0
M  V30 1646 H 153.155 -0.55195 -4.1777 0
M  V30 1647 H 151.83 0.180022 -3.23199 0
M  V30 1648 H 150.737 -2.13191 -3.07409 0
M  V30 1649 H 152.07 -2.78874 -4.05574 0
M  V30 1650 N 153.722 1.14298 -1.08507 0
M  V30 1651 C 155.138 1.37347 -0.812901 0
M  V30 1652 C 155.338 1.93052 0.577325 0
M  V30 1653 O 154.394 2.14389 1.33393 0
M  V30 1654 C 155.707 2.33359 -1.89642 0
M  V30 1655 C 157.255 2.46996 -1.92255 0
M  V30 1656 C 157.73 3.46309 -2.99724 0
M  V30 1657 N 159.221 3.53853 -2.98902 0
M  V30 1658 C 159.956 4.3055 -3.787 0
M  V30 1659 N 159.452 5.10482 -4.6838 0
M  V30 1660 N 161.245 4.25757 -3.66998 0
M  V30 1661 H 153.396 0.764867 -1.9815 0
M  V30 1662 H 155.659 0.398966 -0.859959 0
M  V30 1663 H 155.365 1.99565 -2.89597 0
M  V30 1664 H 155.239 3.33274 -1.76659 0
M  V30 1665 H 157.626 2.80081 -0.929445 0
M  V30 1666 H 157.707 1.47039 -2.09316 0
M  V30 1667 H 157.351 3.13957 -3.99241 0
M  V30 1668 H 157.281 4.46049 -2.79907 0
M  V30 1669 H 159.772 2.96812 -2.33904 0
M  V30 1670 H 160.085 5.66284 -5.25873 0
M  V30 1671 H 158.43 5.09747 -4.72422 0
M  V30 1672 H 161.621 3.62383 -2.96304 0
M  V30 1673 H 161.794 4.85279 -4.29427 0
M  V30 1674 N 155.201 0.870884 1.31352 0
M  V30 1675 C 156.45 0.478408 1.95944 0
M  V30 1676 C 156.763 -0.974493 1.69597 0
M  V30 1677 O 157.969 -1.47316 2.28058 0
M  V30 1678 C 156.425 0.804609 3.50791 0
M  V30 1679 C 156.033 2.27433 3.85977 0
M  V30 1680 C 157.777 0.480648 4.2177 0
M  V30 1681 C 155.684 2.5429 5.33939 0
M  V30 1682 H 154.614 0.175175 0.733369 0
M  V30 1683 H 157.265 1.06391 1.4951 0
M  V30 1684 H 155.647 0.148347 3.95722 0
M  V30 1685 H 156.821 2.97373 3.52002 0
M  V30 1686 H 155.136 2.56442 3.28065 0
M  V30 1687 H 157.733 0.658519 5.30629 0
M  V30 1688 H 158.076 -0.578979 4.12254 0
M  V30 1689 H 158.609 1.09349 3.82476 0
M  V30 1690 H 155.348 3.58939 5.48491 0
M  V30 1691 H 154.868 1.88945 5.69263 0
M  V30 1692 H 156.547 2.39066 6.01212 0
M  V30 1693 N 156.679 -1.44442 0.630414 0
M  V30 1694 C 157.904 -2.06927 0.139944 0
M  V30 1695 C 158.329 -1.46795 -1.17613 0
M  V30 1696 O 157.687 -0.569144 -1.72135 0
M  V30 1697 C 157.735 -3.6058 0.0379581 0
M  V30 1698 O 156.839 -3.99937 -1.0062 0
M  V30 1699 H 156.18 -0.658608 0.0844483 0
M  V30 1700 H 158.71 -1.85327 0.866891 0
M  V30 1701 H 158.72 -4.07714 -0.152856 0
M  V30 1702 H 157.395 -4.03728 0.998809 0
M  V30 1703 H 155.972 -3.64436 -0.79001 0
M  V30 1704 N 158.157 -0.370918 -1.53173 0
M  V30 1705 C 159.434 0.273754 -1.93675 0
M  V30 1706 C 159.814 1.65938 -1.3049 0
M  V30 1707 O 159.162 2.23698 -0.465999 0
M  V30 1708 C 159.372 0.318602 -3.47543 0
M  V30 1709 C 160.72 0.556392 -4.20939 0
M  V30 1710 O 161.744 0.399587 -3.53952 0
M  V30 1711 O 160.603 0.862133 -5.39657 0
M  V30 1712 H 157.697 0.165448 -0.810281 0
M  V30 1713 H 160.243 -0.42409 -1.64315 0
M  V30 1714 H 159.015 -0.652687 -3.85818 0
M  V30 1715 H 158.638 1.06212 -3.83151 0
M  V30 1716 N 159.635 1.57281 -0.100228 0
M  V30 1717 C 160.565 2.17328 0.853857 0
M  V30 1718 C 161.546 1.10804 1.2906 0
M  V30 1719 O 162.731 1.38963 1.35657 0
M  V30 1720 C 159.861 2.75772 2.11109 0
M  V30 1721 C 158.815 3.87713 1.81279 0
M  V30 1722 C 158.141 4.32882 3.13874 0
M  V30 1723 C 159.441 5.10677 1.09574 0
M  V30 1724 H 161.135 2.97305 0.353545 0
M  V30 1725 H 158.681 1.43009 0.168612 0
M  V30 1726 H 160.634 3.16433 2.78296 0
M  V30 1727 H 159.358 1.93057 2.63432 0
M  V30 1728 H 158.017 3.476 1.16489 0
M  V30 1729 H 157.665 3.47051 3.64095 0
M  V30 1730 H 157.365 5.08358 2.94696 0
M  V30 1731 H 158.889 4.7618 3.82211 0
M  V30 1732 H 160.303 5.48474 1.66879 0
M  V30 1733 H 158.7 5.91615 1.00557 0
M  V30 1734 H 159.77 4.84835 0.0793299 0
M  V30 1735 N 161.113 -0.173488 1.56642 0
M  V30 1736 C 162.36 -0.890465 1.81871 0
M  V30 1737 C 162.688 -1.82339 0.67696 0
M  V30 1738 O 161.943 -1.92795 -0.335926 0
M  V30 1739 C 162.242 -1.72069 3.13252 0
M  V30 1740 C 161.908 -0.936878 4.41059 0
M  V30 1741 C 160.57 -0.720545 4.75775 0
M  V30 1742 C 162.922 -0.386919 5.19762 0
M  V30 1743 C 160.25 0.0568829 5.86672 0
M  V30 1744 C 162.602 0.37741 6.31473 0
M  V30 1745 C 161.266 0.604563 6.64757 0
M  V30 1746 H 160.536 -0.325844 0.665512 0
M  V30 1747 H 163.183 -0.155527 1.90867 0
M  V30 1748 H 161.488 -2.52496 2.99588 0
M  V30 1749 H 163.185 -2.27844 3.29982 0
M  V30 1750 H 159.775 -1.11553 4.13828 0
M  V30 1751 H 163.959 -0.541398 4.93338 0
M  V30 1752 H 159.215 0.242635 6.10918 0
M  V30 1753 H 163.389 0.810825 6.91664 0
M  V30 1754 H 161.016 1.20885 7.50527 0
M  V30 1755 N 162.591 -1.51276 -0.441967 0
M  V30 1756 C 163.554 -1.7167 -1.51862 0
M  V30 1757 C 164.554 -0.586793 -1.49711 0
M  V30 1758 O 165.744 -0.854276 -1.51815 0
M  V30 1759 C 162.876 -1.76889 -2.91416 0
M  V30 1760 H 164.069 -2.67754 -1.35084 0
M  V30 1761 H 161.622 -1.41196 -0.670333 0
M  V30 1762 H 162.357 -0.826026 -3.13604 0
M  V30 1763 H 162.142 -2.59001 -2.94382 0
M  V30 1764 H 163.632 -1.94522 -3.69528 0
M  V30 1765 N 164.069 0.697108 -1.41344 0
M  V30 1766 C 165.485 1.00751 -1.2378 0
M  V30 1767 C 165.685 2.01105 -0.126066 0
M  V30 1768 O 164.741 2.47295 0.51004 0
M  V30 1769 C 166.054 1.53359 -2.58653 0
M  V30 1770 C 167.602 1.6525 -2.65822 0
M  V30 1771 C 168.077 2.2126 -4.01009 0
M  V30 1772 N 169.568 2.28622 -4.02847 0
M  V30 1773 C 170.303 2.72984 -5.04249 0
M  V30 1774 N 169.799 3.16962 -6.16041 0
M  V30 1775 N 171.592 2.72534 -4.91611 0
M  V30 1776 H 163.743 0.0322662 -2.12375 0
M  V30 1777 H 166.006 0.0768853 -0.944877 0
M  V30 1778 H 165.712 0.870773 -3.4075 0
M  V30 1779 H 165.586 2.51597 -2.81032 0
M  V30 1780 H 167.973 2.30644 -1.84086 0
M  V30 1781 H 168.054 0.655614 -2.47256 0
M  V30 1782 H 167.698 1.56482 -4.83193 0
M  V30 1783 H 167.628 3.21698 -4.16915 0
M  V30 1784 H 170.119 1.97585 -3.22131 0
M  V30 1785 H 170.432 3.49434 -6.89287 0
M  V30 1786 H 168.777 3.14875 -6.1958 0
M  V30 1787 H 171.968 2.37525 -4.0336 0
M  V30 1788 H 172.141 3.06789 -5.70775 0
M  V30 1789 N 165.547 1.27147 0.931209 0
M  V30 1790 C 166.497 1.06227 2.01742 0
M  V30 1791 C 167.481 -0.00859065 1.60898 0
M  V30 1792 O 168.673 0.209537 1.75755 0
M  V30 1793 C 165.802 0.707787 3.35924 0
M  V30 1794 C 164.888 1.81661 3.83223 0
M  V30 1795 N 165.279 3.05564 4.03069 0
M  V30 1796 C 163.577 1.70249 4.12227 0
M  V30 1797 C 164.278 3.77697 4.42403 0
M  V30 1798 N 163.254 3.0544 4.49675 0
M  V30 1799 H 167.056 2.00261 2.15111 0
M  V30 1800 H 164.57 1.1781 1.11779 0
M  V30 1801 H 166.567 0.539043 4.134 0
M  V30 1802 H 165.227 -0.224964 3.2392 0
M  V30 1803 H 166.238 3.41363 3.89476 0
M  V30 1804 H 162.915 0.840329 4.08956 0
M  V30 1805 H 164.305 4.84168 4.65866 0
M  V30 1806 N 167.025 -1.13721 1.09112 0
M  V30 1807 C 168.441 -1.36914 0.820174 0
M  V30 1808 C 168.641 -1.93356 -0.567079 0
M  V30 1809 O 167.697 -2.15093 -1.32255 0
M  V30 1810 C 169.01 -2.3235 1.90877 0
M  V30 1811 C 170.558 -2.45973 1.93562 0
M  V30 1812 C 171.033 -3.44714 3.01556 0
M  V30 1813 N 172.524 -3.52263 3.00775 0
M  V30 1814 C 173.259 -4.28536 3.80978 0
M  V30 1815 N 172.755 -5.07991 4.71081 0
M  V30 1816 N 174.548 -4.23804 3.69251 0
M  V30 1817 H 166.699 -0.754348 1.98553 0
M  V30 1818 H 168.962 -0.3944 0.862063 0
M  V30 1819 H 168.668 -1.98027 2.90651 0
M  V30 1820 H 168.542 -3.32332 1.78424 0
M  V30 1821 H 170.929 -2.79584 0.944286 0
M  V30 1822 H 171.01 -1.45926 2.10093 0
M  V30 1823 H 170.654 -3.11835 4.00901 0
M  V30 1824 H 170.584 -4.44558 2.82269 0
M  V30 1825 H 173.075 -2.95567 2.35475 0
M  V30 1826 H 173.388 -5.63487 5.28869 0
M  V30 1827 H 171.733 -5.07235 4.75119 0
M  V30 1828 H 174.924 -3.60806 2.98222 0
M  V30 1829 H 175.097 -4.82995 4.31995 0
M  V30 1830 N 168.503 -0.877838 -1.30888 0
M  V30 1831 C 169.731 -0.507414 -2.00581 0
M  V30 1832 C 170.146 0.902216 -1.65848 0
M  V30 1833 O 169.503 1.59225 -0.891831 0
M  V30 1834 C 169.554 -0.664162 -3.55347 0
M  V30 1835 O 169.275 -2.01829 -3.8884 0
M  V30 1836 C 170.776 -0.295787 -4.42312 0
M  V30 1837 H 167.996 -0.196866 -0.641471 0
M  V30 1838 H 170.54 -1.18117 -1.66939 0
M  V30 1839 H 168.695 -0.0378619 -3.87381 0
M  V30 1840 H 169.109 -2.03174 -4.8355 0
M  V30 1841 H 170.583 -0.456388 -5.5011 0
M  V30 1842 H 171.06 0.765663 -4.32475 0
M  V30 1843 H 171.666 -0.898113 -4.15709 0
M  V30 1844 N 169.982 1.44106 -0.638065 0
M  V30 1845 C 170.929 2.30715 0.062701 0
M  V30 1846 C 171.899 1.43882 0.829883 0
M  V30 1847 O 173.084 1.72775 0.809532 0
M  V30 1848 C 170.224 3.29258 1.03358 0
M  V30 1849 C 169.337 4.31192 0.26409 0
M  V30 1850 C 168.472 5.16825 1.22741 0
M  V30 1851 C 167.511 6.10462 0.447475 0
M  V30 1852 N 166.648 6.8877 1.36161 0
M  V30 1853 H 171.488 2.90096 -0.681781 0
M  V30 1854 H 169.025 1.42925 -0.347988 0
M  V30 1855 H 170.983 3.84886 1.60992 0
M  V30 1856 H 169.613 2.71562 1.74511 0
M  V30 1857 H 168.665 3.77981 -0.428295 0
M  V30 1858 H 169.977 4.97619 -0.343052 0
M  V30 1859 H 169.131 5.77004 1.87487 0
M  V30 1860 H 167.87 4.50488 1.86847 0
M  V30 1861 H 166.875 5.49386 -0.213433 0
M  V30 1862 H 168.1 6.78837 -0.188968 0
M  V30 1863 H 166.046 6.25096 1.98975 0
M  V30 1864 H 165.963 7.51663 0.808656 0
M  V30 1865 H 167.231 7.53467 1.99769 0
M  V30 1866 N 171.46 0.379036 1.52974 0
M  V30 1867 C 172.393 -0.504932 2.22544 0
M  V30 1868 C 173.371 -1.0723 1.22231 0
M  V30 1869 O 174.555 -1.12589 1.51182 0
M  V30 1870 C 171.682 -1.69794 2.93066 0
M  V30 1871 C 170.728 -1.25678 4.07563 0
M  V30 1872 S 171.561 -0.246852 5.34931 0
M  V30 1873 C 172.717 -1.44588 6.08971 0
M  V30 1874 H 172.95 0.0858666 2.97176 0
M  V30 1875 H 170.483 0.163183 1.53535 0
M  V30 1876 H 172.441 -2.38219 3.34308 0
M  V30 1877 H 171.102 -2.26002 2.18133 0
M  V30 1878 H 170.295 -2.14725 4.5597 0
M  V30 1879 H 169.897 -0.651584 3.6828 0
M  V30 1880 H 172.189 -2.37469 6.34519 0
M  V30 1881 H 173.132 -1.00292 7.00962 0
M  V30 1882 H 173.54 -1.65804 5.39601 0
M  V30 1883 N 172.938 -1.57226 0.108567 0
M  V30 1884 C 174.354 -1.5766 -0.248058 0
M  V30 1885 C 174.554 -1.12063 -1.67464 0
M  V30 1886 O 173.61 -0.803236 -2.39383 0
M  V30 1887 C 174.923 -3.0069 -0.0242287 0
M  V30 1888 C 176.471 -3.12868 -0.0909372 0
M  V30 1889 C 176.946 -4.57879 0.105067 0
M  V30 1890 N 178.437 -4.63172 0.0506846 0
M  V30 1891 C 179.172 -5.73126 0.177396 0
M  V30 1892 N 178.668 -6.91866 0.359696 0
M  V30 1893 N 180.461 -5.61977 0.117709 0
M  V30 1894 H 172.612 -1.85169 1.04049 0
M  V30 1895 H 174.875 -0.85529 0.40888 0
M  V30 1896 H 174.581 -3.38299 0.961604 0
M  V30 1897 H 174.455 -3.6945 -0.76068 0
M  V30 1898 H 176.842 -2.75124 -1.06729 0
M  V30 1899 H 176.923 -2.46672 0.677225 0
M  V30 1900 H 176.567 -4.96321 1.07834 0
M  V30 1901 H 176.497 -5.22153 -0.682954 0
M  V30 1902 H 178.988 -3.778 -0.0871266 0
M  V30 1903 H 179.301 -7.71503 0.447529 0
M  V30 1904 H 177.646 -6.93874 0.395536 0
M  V30 1905 H 180.837 -4.68094 -0.0236741 0
M  V30 1906 H 181.01 -6.47627 0.219905 0
M  V30 1907 N 174.416 0.165178 -1.56732 0
M  V30 1908 C 175.832 0.517174 -1.50988 0
M  V30 1909 C 176.032 1.84331 -0.813894 0
M  V30 1910 O 175.088 2.49672 -0.37682 0
M  V30 1911 C 176.401 0.544261 -2.95733 0
M  V30 1912 C 177.949 0.631039 -3.06573 0
M  V30 1913 C 178.424 0.68896 -4.52788 0
M  V30 1914 N 179.915 0.751683 -4.5706 0
M  V30 1915 C 180.65 0.817177 -5.67547 0
M  V30 1916 N 180.146 0.843129 -6.8765 0
M  V30 1917 N 181.939 0.856668 -5.55534 0
M  V30 1918 H 174.09 -0.704318 -2.00382 0
M  V30 1919 H 176.353 -0.254687 -0.913148 0
M  V30 1920 H 176.059 -0.361607 -3.49836 0
M  V30 1921 H 175.933 1.3886 -3.5071 0
M  V30 1922 H 178.32 1.52733 -2.52501 0
M  V30 1923 H 178.401 -0.240095 -2.54671 0
M  V30 1924 H 178.045 -0.2031 -5.07494 0
M  V30 1925 H 177.975 1.57633 -5.02454 0
M  V30 1926 H 180.466 0.739661 -3.70591 0
M  V30 1927 H 180.779 0.894448 -7.67606 0
M  V30 1928 H 179.124 0.811304 -6.90248 0
M  V30 1929 H 182.315 0.833437 -4.60621 0
M  V30 1930 H 182.488 0.904247 -6.4166 0
M  V30 1931 N 175.894 1.51508 0.433938 0
M  V30 1932 C 176.841 1.73068 1.52696 0
M  V30 1933 C 177.811 0.572441 1.55924 0
M  V30 1934 O 178.996 0.807253 1.72882 0
M  V30 1935 C 176.136 1.86474 2.90381 0
M  V30 1936 C 175.249 3.14037 2.96656 0
M  V30 1937 C 174.384 3.18019 4.25485 0
M  V30 1938 C 173.423 4.39882 4.2564 0
M  V30 1939 N 172.56 4.41394 5.45999 0
M  V30 1940 H 177.4 2.66366 1.33615 0
M  V30 1941 H 174.937 1.32008 0.649018 0
M  V30 1942 H 176.895 1.92229 3.70275 0
M  V30 1943 H 175.525 0.965809 3.08013 0
M  V30 1944 H 174.577 3.17575 2.09404 0
M  V30 1945 H 175.889 4.0394 2.92633 0
M  V30 1946 H 175.043 3.22708 5.13755 0
M  V30 1947 H 173.782 2.2601 4.3217 0
M  V30 1948 H 172.787 4.35366 3.35763 0
M  V30 1949 H 174.012 5.33159 4.20617 0
M  V30 1950 H 171.958 3.52258 5.53399 0
M  V30 1951 H 171.875 5.25111 5.4387 0
M  V30 1952 H 173.143 4.50281 6.36292 0
M  V30 1953 N 177.372 -0.689602 1.41712 0
M  V30 1954 C 178.319 -1.80345 1.44029 0
M  V30 1955 C 179.289 -1.63478 0.293948 0
M  V30 1956 O 180.474 -1.84244 0.495869 0
M  V30 1957 C 177.614 -3.18272 1.33405 0
M  V30 1958 C 176.727 -3.46529 2.57956 0
M  V30 1959 C 175.862 -4.74103 2.39582 0
M  V30 1960 C 174.901 -4.95347 3.5958 0
M  V30 1961 N 174.038 -6.14151 3.40239 0
M  V30 1962 H 178.878 -1.77698 2.39222 0
M  V30 1963 H 176.415 -0.867688 1.18784 0
M  V30 1964 H 178.373 -3.97956 1.25246 0
M  V30 1965 H 177.003 -3.2008 0.418164 0
M  V30 1966 H 176.055 -2.61207 2.76542 0
M  V30 1967 H 177.367 -3.58126 3.47199 0
M  V30 1968 H 176.521 -5.61853 2.28924 0
M  V30 1969 H 175.26 -4.64763 1.47805 0
M  V30 1970 H 174.265 -4.06044 3.70686 0
M  V30 1971 H 175.49 -5.06542 4.52318 0
M  V30 1972 H 173.436 -6.06013 2.51167 0
M  V30 1973 H 173.353 -6.26543 4.23061 0
M  V30 1974 H 174.621 -7.04619 3.33365 0
M  V30 1975 N 178.85 -1.27639 -0.924453 0
M  V30 1976 C 180.266 -1.05113 -1.20097 0
M  V30 1977 C 180.466 0.213262 -2.00368 0
M  V30 1978 O 179.522 0.91787 -2.35226 0
M  V30 1979 C 180.835 -2.29244 -1.94596 0
M  V30 1980 C 182.383 -2.34315 -2.07522 0
M  V30 1981 C 182.858 -3.58183 -2.85427 0
M  V30 1982 N 184.349 -3.5876 -2.92994 0
M  V30 1983 C 185.084 -4.51277 -3.53746 0
M  V30 1984 N 184.58 -5.54102 -4.15863 0
M  V30 1985 N 186.373 -4.38894 -3.51181 0
M  V30 1986 H 178.524 -2.08821 -0.388264 0
M  V30 1987 H 180.787 -0.918568 -0.234385 0
M  V30 1988 H 180.493 -3.21301 -1.43034 0
M  V30 1989 H 180.367 -2.34816 -2.95197 0
M  V30 1990 H 182.754 -1.42762 -2.58269 0
M  V30 1991 H 182.835 -2.32744 -1.06131 0
M  V30 1992 H 182.479 -4.50074 -2.35363 0
M  V30 1993 H 182.409 -3.57006 -3.8711 0
M  V30 1994 H 184.9 -2.84398 -2.4885 0
M  V30 1995 H 185.213 -6.20859 -4.60168 0
M  V30 1996 H 183.558 -5.57941 -4.144 0
M  V30 1997 H 186.749 -3.57772 -3.01856 0
M  V30 1998 H 186.922 -5.11186 -3.98237 0
M  V30 1999 N 180.328 1.1314 -1.09713 0
M  V30 2000 C 181.575 1.84484 -0.834987 0
M  V30 2001 C 181.903 1.83689 0.639418 0
M  V30 2002 O 181.158 1.2724 1.4869 0
M  V30 2003 C 181.457 3.32167 -1.3191 0
M  V30 2004 C 181.123 3.53139 -2.80363 0
M  V30 2005 C 179.785 3.58571 -3.20905 0
M  V30 2006 C 182.137 3.60866 -3.76065 0
M  V30 2007 C 179.465 3.69267 -4.55916 0
M  V30 2008 C 181.817 3.73089 -5.10869 0
M  V30 2009 C 180.481 3.76775 -5.50996 0
M  V30 2010 H 179.751 0.675073 -0.305544 0
M  V30 2011 H 182.398 1.33554 -1.37243 0
M  V30 2012 H 180.703 3.85469 -0.701517 0
M  V30 2013 H 182.4 3.85821 -1.09284 0
M  V30 2014 H 178.99 3.49569 -2.47991 0
M  V30 2015 H 183.174 3.55946 -3.45855 0
M  V30 2016 H 178.43 3.70388 -4.86438 0
M  V30 2017 H 182.604 3.78011 -5.84877 0
M  V30 2018 H 180.231 3.84815 -6.55608 0
M  V30 2019 N 181.806 0.884767 1.30421 0
M  V30 2020 C 182.769 0.356277 2.26414 0
M  V30 2021 C 183.769 -0.501124 1.52792 0
M  V30 2022 O 184.959 -0.30831 1.7145 0
M  V30 2023 C 182.091 -0.492316 3.37326 0
M  V30 2024 H 183.284 1.20389 2.74675 0
M  V30 2025 H 180.837 0.661607 1.41607 0
M  V30 2026 H 181.572 -1.36052 2.94381 0
M  V30 2027 H 181.357 0.121832 3.91911 0
M  V30 2028 H 182.847 -0.853871 4.08777 0
M  V30 2029 N 183.284 -1.43765 0.645699 0
M  V30 2030 C 184.231 -2.30745 -0.0504648 0
M  V30 2031 C 185.201 -1.4432 -0.822241 0
M  V30 2032 O 186.386 -1.73202 -0.800358 0
M  V30 2033 C 183.526 -3.29802 -1.0161 0
M  V30 2034 C 182.639 -4.31326 -0.241219 0
M  V30 2035 C 181.774 -5.17469 -1.19998 0
M  V30 2036 C 180.813 -6.10691 -0.415094 0
M  V30 2037 N 179.95 -6.89483 -1.32506 0
M  V30 2038 H 184.79 -2.8973 0.697155 0
M  V30 2039 H 182.327 -1.42738 0.355563 0
M  V30 2040 H 184.285 -3.85734 -1.58949 0
M  V30 2041 H 182.915 -2.72483 -1.73069 0
M  V30 2042 H 181.967 -3.77749 0.448334 0
M  V30 2043 H 183.279 -4.9743 0.369437 0
M  V30 2044 H 182.433 -5.7799 -1.84424 0
M  V30 2045 H 181.172 -4.51473 -1.84455 0
M  V30 2046 H 180.177 -5.49265 0.242565 0
M  V30 2047 H 181.402 -6.78727 0.224966 0
M  V30 2048 H 179.348 -6.26142 -1.95657 0
M  V30 2049 H 179.265 -7.52081 -0.768783 0
M  V30 2050 H 180.533 -7.54516 -1.9577 0
M  V30 2051 N 184.763 -0.387143 -1.52771 0
M  V30 2052 C 185.695 0.484089 -2.2403 0
M  V30 2053 C 186.708 1.02849 -1.26198 0
M  V30 2054 O 187.897 0.931186 -1.52286 0
M  V30 2055 C 184.997 1.68337 -2.94136 0
M  V30 2056 C 184.17 1.26672 -4.18656 0
M  V30 2057 C 183.229 2.33045 -4.7178 0
M  V30 2058 O 182.255 1.94541 -5.34923 0
M  V30 2059 N 183.457 3.64929 -4.5145 0
M  V30 2060 H 186.222 -0.126404 -2.99433 0
M  V30 2061 H 183.783 -0.213392 -1.60488 0
M  V30 2062 H 185.775 2.39019 -3.26577 0
M  V30 2063 H 184.345 2.20025 -2.22053 0
M  V30 2064 H 183.565 0.388878 -3.92277 0
M  V30 2065 H 184.853 0.964964 -4.99566 0
M  V30 2066 H 184.251 3.98974 -4.01044 0
M  V30 2067 H 182.808 4.31651 -4.88386 0
M  V30 2068 N 186.241 1.57166 -0.116904 0
M  V30 2069 C 187.489 1.94737 0.540533 0
M  V30 2070 C 187.81 1.00096 1.67349 0
M  V30 2071 O 187.08 0.0568854 1.95817 0
M  V30 2072 H 185.66 0.718981 0.202669 0
M  V30 2073 H 188.322 1.94017 -0.185353 0
M  V30 2074 H 187.418 2.97719 0.936483 0
M  V30 2075 N 187.719 -0.156864 1.56817 0
M  V30 2076 C 188.667 -1.21319 1.98455 0
M  V30 2077 C 189.661 -1.45025 0.875444 0
M  V30 2078 O 190.867 -1.45435 1.0606 0
M  V30 2079 H 187.242 -0.408142 0.631605 0
M  V30 2080 H 189.213 -0.835244 2.86472 0
M  V30 2081 C 187.962 -2.54148 2.37285 0
M  V30 2082 H 187.285 -2.36733 3.22176 0
M  V30 2083 H 188.725 -3.26712 2.70251 0
M  V30 2084 C 187.184 -3.13967 1.22173 0
M  V30 2085 O 187.714 -3.98357 0.517149 0
M  V30 2086 N 185.92 -2.7327 0.988536 0
M  V30 2087 H 185.467 -2.04744 1.56326 0
M  V30 2088 H 185.425 -3.13628 0.220209 0
M  V30 2089 N 189.197 -1.51736 -0.425897 0
M  V30 2090 C 190.144 -1.73875 -1.51776 0
M  V30 2091 C 191.114 -0.580702 -1.55618 0
M  V30 2092 O 192.299 -0.81641 -1.72451 0
M  V30 2093 C 189.439 -1.88012 -2.89388 0
M  V30 2094 C 188.552 -3.15606 -2.94986 0
M  V30 2095 C 187.687 -3.20271 -4.23793 0
M  V30 2096 C 186.726 -4.42134 -4.23302 0
M  V30 2097 N 185.863 -4.44284 -5.43651 0
M  V30 2098 H 190.703 -2.67071 -1.32201 0
M  V30 2099 H 188.24 -1.32351 -0.642008 0
M  V30 2100 H 190.198 -1.9419 -3.69251 0
M  V30 2101 H 188.828 -0.98213 -3.07496 0
M  V30 2102 H 187.88 -3.18681 -2.07717 0
M  V30 2103 H 189.192 -4.05486 -2.90486 0
M  V30 2104 H 188.346 -3.25428 -5.12036 0
M  V30 2105 H 187.085 -2.28299 -4.30965 0
M  V30 2106 H 186.09 -4.3714 -3.3345 0
M  V30 2107 H 187.315 -5.35382 -4.17783 0
M  V30 2108 H 185.261 -3.55188 -5.51523 0
M  V30 2109 H 185.178 -5.27988 -5.41078 0
M  V30 2110 H 186.446 -4.53649 -6.33895 0
M  V30 2111 N 190.675 0.682077 -1.42076 0
M  V30 2112 C 191.921 1.44283 -1.43366 0
M  V30 2113 C 192.276 1.92344 -0.0465775 0
M  V30 2114 O 191.569 1.67517 0.929973 0
M  V30 2115 C 191.763 2.66036 -2.38662 0
M  V30 2116 C 191.592 2.29889 -3.86499 0
M  V30 2117 C 190.362 2.19599 -4.55087 0
M  V30 2118 C 192.56 1.91999 -4.77117 0
M  V30 2119 N 190.542 1.76478 -5.87987 0
M  V30 2120 C 191.913 1.59741 -5.99068 0
M  V30 2121 C 193.968 1.78927 -4.64639 0
M  V30 2122 C 192.671 1.15723 -7.0993 0
M  V30 2123 C 194.697 1.36314 -5.75476 0
M  V30 2124 C 194.059 1.04975 -6.96534 0
M  V30 2125 H 190.158 0.524739 -0.579805 0
M  V30 2126 H 192.742 0.787834 -1.78048 0
M  V30 2127 H 190.913 3.29237 -2.06053 0
M  V30 2128 H 192.645 3.32588 -2.30581 0
M  V30 2129 H 189.4 2.38433 -4.09202 0
M  V30 2130 H 189.824 1.57362 -6.58458 0
M  V30 2131 H 194.466 2.01805 -3.7153 0
M  V30 2132 H 192.184 0.91591 -8.02893 0
M  V30 2133 H 195.77 1.26731 -5.6783 0
M  V30 2134 H 194.65 0.725017 -7.80841 0
M  V30 2135 N 192.153 1.28127 0.917671 0
M  V30 2136 C 193.383 1.17722 1.6978 0
M  V30 2137 C 193.791 -0.267261 1.87303 0
M  V30 2138 O 193.134 -1.19286 1.39702 0
M  V30 2139 C 193.196 1.79958 3.11216 0
M  V30 2140 C 192.86 3.29187 3.16993 0
M  V30 2141 C 193.857 4.25679 2.98485 0
M  V30 2142 C 191.542 3.70075 3.39632 0
M  V30 2143 C 193.536 5.61035 3.02521 0
M  V30 2144 C 191.223 5.05557 3.433 0
M  V30 2145 C 192.221 6.00847 3.24764 0
M  V30 2146 O 191.909 7.33859 3.28187 0
M  V30 2147 H 191.641 0.409788 0.537634 0
M  V30 2148 H 194.195 1.69694 1.15728 0
M  V30 2149 H 192.425 1.22475 3.66793 0
M  V30 2150 H 194.114 1.64125 3.71238 0
M  V30 2151 H 194.88 3.95426 2.80826 0
M  V30 2152 H 190.759 2.96373 3.53106 0
M  V30 2153 H 194.303 6.35388 2.87971 0
M  V30 2154 H 190.2 5.35462 3.60486 0
M  V30 2155 H 190.968 7.42436 3.44575 0
M  V30 2156 N 193.631 -1.12557 1.10312 0
M  V30 2157 C 194.578 -2.18247 0.750781 0
M  V30 2158 C 195.548 -1.63853 -0.272293 0
M  V30 2159 O 196.733 -1.90195 -0.151862 0
M  V30 2160 C 193.873 -3.44591 0.187379 0
M  V30 2161 C 192.986 -4.13046 1.2656 0
M  V30 2162 C 192.121 -5.27034 0.663978 0
M  V30 2163 C 191.16 -5.87353 1.72287 0
M  V30 2164 N 190.297 -6.92757 1.1416 0
M  V30 2165 H 195.137 -2.47732 1.65628 0
M  V30 2166 H 192.674 -1.21629 0.827337 0
M  V30 2167 H 194.632 -4.16904 -0.157148 0
M  V30 2168 H 193.262 -3.15527 -0.681355 0
M  V30 2169 H 192.314 -3.38924 1.72727 0
M  V30 2170 H 193.626 -4.53947 2.06721 0
M  V30 2171 H 192.78 -6.06104 0.268824 0
M  V30 2172 H 191.519 -4.87407 -0.169082 0
M  V30 2173 H 190.524 -5.06971 2.12746 0
M  V30 2174 H 191.749 -6.29051 2.55875 0
M  V30 2175 H 189.695 -6.5517 0.329984 0
M  V30 2176 H 189.612 -7.3225 1.88007 0
M  V30 2177 H 190.88 -7.75658 0.772956 0
M  V30 2178 N 195.109 -0.891671 -1.2995 0
M  V30 2179 C 196.041 -0.320695 -2.26945 0
M  V30 2180 C 197.054 0.528497 -1.53983 0
M  V30 2181 O 198.243 0.346959 -1.75096 0
M  V30 2182 C 195.343 0.562066 -3.34207 0
M  V30 2183 C 194.516 -0.259576 -4.36629 0
M  V30 2184 C 193.575 0.554739 -5.23268 0
M  V30 2185 O 192.601 -0.0249311 -5.69195 0
M  V30 2186 N 193.803 1.8625 -5.4981 0
M  V30 2187 H 196.568 -1.15432 -2.76578 0
M  V30 2188 H 194.129 -0.755336 -1.432 0
M  V30 2189 H 196.121 1.11304 -3.89093 0
M  V30 2190 H 194.691 1.29637 -2.84452 0
M  V30 2191 H 193.911 -0.991986 -3.81514 0
M  V30 2192 H 195.199 -0.822564 -5.02107 0
M  V30 2193 H 194.597 2.35628 -5.14292 0
M  V30 2194 H 193.154 2.36078 -6.07545 0
M  V30 2195 N 196.587 1.43421 -0.653314 0
M  V30 2196 C 197.537 2.2792 0.060558 0
M  V30 2197 C 198.521 1.39906 0.794677 0
M  V30 2198 O 199.713 1.63536 0.677128 0
M  V30 2199 C 196.842 3.27603 1.0262 0
M  V30 2200 C 195.928 4.23104 0.290551 0
M  V30 2201 N 196.319 5.01031 -0.692967 0
M  V30 2202 C 194.617 4.42816 0.531984 0
M  V30 2203 C 195.318 5.70626 -1.12963 0
M  V30 2204 N 194.294 5.41617 -0.463867 0
M  V30 2205 H 198.096 2.85585 -0.694143 0
M  V30 2206 H 195.61 1.55126 -0.480602 0
M  V30 2207 H 197.607 3.86918 1.55242 0
M  V30 2208 H 196.267 2.71499 1.78096 0
M  V30 2209 H 197.278 5.0669 -1.07169 0
M  V30 2210 H 193.955 3.97782 1.26791 0
M  V30 2211 H 195.345 6.4318 -1.94343 0
M  V30 2212 N 198.065 0.39524 1.52563 0
M  V30 2213 C 198.995 -0.428384 2.29537 0
M  V30 2214 C 199.976 -1.05831 1.33169 0
M  V30 2215 O 201.161 -1.06995 1.62067 0
M  V30 2216 C 198.291 -1.55274 3.10656 0
M  V30 2217 C 197.245 -1.04855 4.14957 0
M  V30 2218 C 196.571 -2.26543 4.84337 0
M  V30 2219 C 197.871 -0.112324 5.22179 0
M  V30 2220 H 199.565 0.213867 2.98635 0
M  V30 2221 H 197.111 0.104298 1.43622 0
M  V30 2222 H 199.064 -2.1358 3.63265 0
M  V30 2223 H 197.788 -2.22266 2.39302 0
M  V30 2224 H 196.447 -0.487985 3.63338 0
M  V30 2225 H 196.095 -2.92059 4.09525 0
M  V30 2226 H 195.795 -1.93466 5.54837 0
M  V30 2227 H 197.319 -2.85481 5.39753 0
M  V30 2228 H 198.733 -0.603752 5.70112 0
M  V30 2229 H 197.13 0.128968 5.99961 0
M  V30 2230 H 198.2 0.837052 4.77621 0
M  V30 2231 N 199.544 -1.57102 0.125237 0
M  V30 2232 C 200.769 -2.0019 -0.542101 0
M  V30 2233 C 201.194 -1.00449 -1.59034 0
M  V30 2234 O 200.552 0.0229423 -1.81285 0
M  V30 2235 C 200.6 -3.42129 -1.13929 0
M  V30 2236 O 199.704 -3.45307 -2.2547 0
M  V30 2237 H 199.045 -0.650171 -0.134812 0
M  V30 2238 H 201.575 -2.03461 0.215553 0
M  V30 2239 H 201.585 -3.80471 -1.4733 0
M  V30 2240 H 200.26 -4.14237 -0.371531 0
M  V30 2241 H 198.837 -3.1879 -1.93462 0
M  V30 2242 N 201.022 0.148545 -1.56898 0
M  V30 2243 C 202.252 0.875118 -1.8715 0
M  V30 2244 C 202.66 1.75322 -0.711262 0
M  V30 2245 O 202.003 1.80745 0.328151 0
M  V30 2246 C 202.065 1.7844 -3.12089 0
M  V30 2247 C 201.729 1.08361 -4.43967 0
M  V30 2248 C 202.726 0.438247 -5.1805 0
M  V30 2249 C 200.411 1.07358 -4.90693 0
M  V30 2250 C 202.405 -0.20779 -6.37061 0
M  V30 2251 C 200.092 0.42373 -6.09629 0
M  V30 2252 C 201.09 -0.215829 -6.82659 0
M  V30 2253 O 200.778 -0.855378 -7.99336 0
M  V30 2254 H 200.51 0.258504 -0.624621 0
M  V30 2255 H 203.064 0.14652 -2.04877 0
M  V30 2256 H 201.294 2.55389 -2.90367 0
M  V30 2257 H 202.983 2.38279 -3.286 0
M  V30 2258 H 203.749 0.437817 -4.8302 0
M  V30 2259 H 199.628 1.5608 -4.33774 0
M  V30 2260 H 203.172 -0.70758 -6.94002 0
M  V30 2261 H 199.069 0.421822 -6.4412 0
M  V30 2262 H 199.837 -0.756892 -8.14993 0
M  V30 2263 N 202.5 1.5196 0.417844 0
M  V30 2264 C 203.916 1.40569 0.755816 0
M  V30 2265 C 204.116 0.503316 1.95113 0
M  V30 2266 O 203.172 -0.0341925 2.52477 0
M  V30 2267 C 204.485 2.82947 1.01791 0
M  V30 2268 C 206.033 2.92231 1.12116 0
M  V30 2269 C 206.508 4.35559 1.41608 0
M  V30 2270 N 207.999 4.38753 1.48491 0
M  V30 2271 C 208.734 5.46705 1.7292 0
M  V30 2272 N 208.23 6.64788 1.95011 0
M  V30 2273 N 210.023 5.34209 1.74863 0
M  V30 2274 H 202.174 2.09168 -0.369098 0
M  V30 2275 H 204.437 0.942409 -0.102809 0
M  V30 2276 H 204.143 3.5106 0.212081 0
M  V30 2277 H 204.017 3.23462 1.94042 0
M  V30 2278 H 206.404 2.24304 1.9176 0
M  V30 2279 H 206.485 2.55185 0.177225 0
M  V30 2280 H 206.129 5.04042 0.624848 0
M  V30 2281 H 206.059 4.70133 2.37239 0
M  V30 2282 H 208.55 3.5363 1.33244 0
M  V30 2283 H 208.863 7.42845 2.13076 0
M  V30 2284 H 207.208 6.67869 1.92293 0
M  V30 2285 H 210.399 4.40937 1.57137 0
M  V30 2286 H 210.572 6.18415 1.93563 0
M  V30 2287 N 203.978 -0.674533 1.42435 0
M  V30 2288 C 204.908 -1.80009 1.48724 0
M  V30 2289 C 205.889 -1.6659 0.343793 0
M  V30 2290 O 207.074 -1.86007 0.558137 0
M  V30 2291 C 204.204 -3.18306 1.38919 0
M  V30 2292 C 203.158 -3.46461 2.51294 0
M  V30 2293 C 202.484 -4.84335 2.26547 0
M  V30 2294 C 203.784 -3.43328 3.93603 0
M  V30 2295 H 205.478 -1.75004 2.42928 0
M  V30 2296 H 203.024 -0.840533 1.16923 0
M  V30 2297 H 204.977 -3.9678 1.41927 0
M  V30 2298 H 203.701 -3.2399 0.412094 0
M  V30 2299 H 202.36 -2.70348 2.47604 0
M  V30 2300 H 202.008 -4.86669 1.2713 0
M  V30 2301 H 201.708 -5.04136 3.01861 0
M  V30 2302 H 203.232 -5.65094 2.31304 0
M  V30 2303 H 204.646 -4.11772 3.98894 0
M  V30 2304 H 203.043 -3.74664 4.68771 0
M  V30 2305 H 204.113 -2.41897 4.20255 0
M  V30 2306 N 205.456 -1.28612 -0.910864 0
M  V30 2307 C 206.702 -1.16106 -1.66274 0
M  V30 2308 C 207.035 0.289113 -1.92036 0
M  V30 2309 O 206.31 1.21 -1.52281 0
M  V30 2310 C 206.593 -1.96309 -3.01885 0
M  V30 2311 C 206.446 -3.49405 -2.8326 0
M  V30 2312 C 207.765 -1.78076 -4.02463 0
M  V30 2313 H 204.884 -0.423152 -0.603417 0
M  V30 2314 H 207.526 -1.57961 -1.05586 0
M  V30 2315 H 205.676 -1.60742 -3.53687 0
M  V30 2316 H 207.348 -3.94894 -2.38446 0
M  V30 2317 H 205.591 -3.74893 -2.18261 0
M  V30 2318 H 206.262 -4.00784 -3.79574 0
M  V30 2319 H 208.738 -2.0912 -3.59733 0
M  V30 2320 H 207.614 -2.36561 -4.95308 0
M  V30 2321 H 207.875 -0.733008 -4.35981 0
M  V30 2322 N 206.934 1.1197 -1.10907 0
M  V30 2323 C 207.882 2.19927 -0.757303 0
M  V30 2324 C 208.876 1.67564 0.248747 0
M  V30 2325 O 210.082 1.79672 0.108605 0
M  V30 2326 H 206.457 0.716925 -0.226987 0
M  V30 2327 H 208.428 2.46847 -1.67658 0
M  V30 2328 C 207.177 3.47061 -0.210671 0
M  V30 2329 H 206.5 3.87703 -0.976049 0
M  V30 2330 H 207.94 4.24 -0.0026584 0
M  V30 2331 C 206.399 3.19864 1.05777 0
M  V30 2332 O 206.929 3.40049 2.13845 0
M  V30 2333 N 205.135 2.73636 0.978349 0
M  V30 2334 H 204.682 2.5741 0.0988246 0
M  V30 2335 H 204.64 2.55815 1.82773 0
M  V30 2336 N 208.412 0.89855 1.29475 0
M  V30 2337 C 209.658 0.534065 1.96263 0
M  V30 2338 C 210.013 -0.909415 1.69551 0
M  V30 2339 O 209.306 -1.63596 0.997349 0
M  V30 2340 C 209.5 0.761398 3.49195 0
M  V30 2341 C 209.329 2.22542 3.90775 0
M  V30 2342 C 208.099 2.87264 4.15701 0
M  V30 2343 C 210.297 3.20051 4.02581 0
M  V30 2344 N 208.279 4.24121 4.4384 0
M  V30 2345 C 209.65 4.42023 4.34759 0
M  V30 2346 C 211.705 3.15657 3.85052 0
M  V30 2347 C 210.408 5.60161 4.51235 0
M  V30 2348 C 212.434 4.33078 4.02737 0
M  V30 2349 C 211.796 5.5382 4.35273 0
M  V30 2350 H 207.895 0.245013 0.742625 0
M  V30 2351 H 210.479 1.15912 1.56437 0
M  V30 2352 H 208.65 0.165732 3.88046 0
M  V30 2353 H 210.382 0.362462 4.03074 0
M  V30 2354 H 207.137 2.38064 4.09417 0
M  V30 2355 H 207.561 4.94839 4.6202 0
M  V30 2356 H 212.203 2.23396 3.58962 0
M  V30 2357 H 209.921 6.52913 4.76162 0
M  V30 2358 H 213.507 4.31163 3.90628 0
M  V30 2359 H 212.387 6.43166 4.48672 0
M  V30 2360 N 209.89 -1.43072 0.660911 0
M  V30 2361 C 211.301 -1.84932 0.256348 0
M  V30 2362 C 211.652 -1.55325 -1.19868 0
M  V30 2363 O 210.777 -1.00607 -1.91591 0
M  V30 2364 C 211.372 -3.35684 0.458475 0
M  V30 2365 C 209.931 -3.76245 0.108161 0
M  V30 2366 C 209.078 -2.66749 0.757641 0
M  V30 2367 H 212.029 -1.33116 0.864051 0
M  V30 2368 H 212.05 -3.79365 -0.293683 0
M  V30 2369 H 211.562 -3.572 1.51755 0
M  V30 2370 H 209.663 -3.60338 -0.948014 0
M  V30 2371 H 209.776 -4.76058 0.538992 0
M  V30 2372 H 208.14 -2.53989 0.190185 0
M  V30 2373 H 208.923 -2.91092 1.81989 0
M  V30 2374 N 211.368 -0.403325 -1.52352 0
M  V30 2375 C 212.278 0.432009 -2.30588 0
M  V30 2376 C 213.294 1.05884 -1.38075 0
M  V30 2377 O 214.47 1.06161 -1.71148 0
M  V30 2378 C 211.535 1.53669 -3.10784 0
M  V30 2379 C 210.596 0.933525 -4.19027 0
M  V30 2380 C 209.829 1.98557 -4.9539 0
M  V30 2381 O 210.052 3.20283 -4.71991 0
M  V30 2382 O 208.986 1.59504 -5.80381 0
M  V30 2383 H 212.812 -0.205739 -3.03002 0
M  V30 2384 H 210.397 -0.166675 -1.48467 0
M  V30 2385 H 212.279 2.17814 -3.60742 0
M  V30 2386 H 210.954 2.15915 -2.41169 0
M  V30 2387 H 209.861 0.254954 -3.7323 0
M  V30 2388 H 211.194 0.35508 -4.90918 0
M  V30 2389 N 212.846 1.57033 -0.133567 0
M  V30 2390 C 213.796 2.12641 0.822671 0
M  V30 2391 C 214.78 1.05081 1.21847 0
M  V30 2392 O 215.972 1.31287 1.18713 0
M  V30 2393 C 213.101 2.74094 2.06706 0
M  V30 2394 C 212.187 3.88757 1.69497 0
M  V30 2395 N 212.578 4.95194 1.03037 0
M  V30 2396 C 210.876 3.99213 1.98859 0
M  V30 2397 C 211.577 5.75414 0.852873 0
M  V30 2398 N 210.553 5.25726 1.3825 0
M  V30 2399 H 214.355 2.92308 0.305537 0
M  V30 2400 H 211.869 1.62256 0.0684276 0
M  V30 2401 H 213.866 3.12285 2.76195 0
M  V30 2402 H 212.526 1.95896 2.5895 0
M  V30 2403 H 213.537 5.13247 0.692669 0
M  V30 2404 H 210.214 3.32075 2.53047 0
M  V30 2405 H 211.604 6.71089 0.330091 0
M  V30 2406 N 214.325 -0.140222 1.56975 0
M  V30 2407 C 215.255 -1.17456 2.01808 0
M  V30 2408 C 216.236 -1.44415 0.898794 0
M  V30 2409 O 217.421 -1.5522 1.16707 0
M  V30 2410 C 214.551 -2.50607 2.40444 0
M  V30 2411 C 213.505 -2.38155 3.55621 0
M  V30 2412 C 212.831 -3.76078 3.80091 0
M  V30 2413 C 214.131 -1.85991 4.88062 0
M  V30 2414 H 215.825 -0.801743 2.88466 0
M  V30 2415 H 213.371 -0.38422 1.38779 0
M  V30 2416 H 215.324 -3.23197 2.7041 0
M  V30 2417 H 214.048 -2.89737 1.50732 0
M  V30 2418 H 212.707 -1.68016 3.25832 0
M  V30 2419 H 212.355 -4.12656 2.87618 0
M  V30 2420 H 212.055 -3.68606 4.57606 0
M  V30 2421 H 213.579 -4.50206 4.12488 0
M  V30 2422 H 214.993 -2.4838 5.16701 0
M  V30 2423 H 213.39 -1.89393 5.6943 0
M  V30 2424 H 214.46 -0.816023 4.77984 0
M  V30 2425 N 215.803 -1.52179 -0.40978 0
M  V30 2426 C 217.214 -1.58377 -0.988615 0
M  V30 2427 C 217.565 -0.423879 -1.91566 0
M  V30 2428 O 216.69 0.455844 -2.11544 0
M  V30 2429 C 217.285 -2.87044 -1.79976 0
M  V30 2430 C 215.844 -2.95722 -2.32863 0
M  V30 2431 C 214.991 -2.53309 -1.12828 0
M  V30 2432 H 217.942 -1.57558 -0.190039 0
M  V30 2433 H 217.963 -2.7236 -2.65707 0
M  V30 2434 H 217.475 -3.71444 -1.12478 0
M  V30 2435 H 215.576 -2.15814 -3.03735 0
M  V30 2436 H 215.689 -3.99951 -2.63773 0
M  V30 2437 H 214.053 -2.07142 -1.48204 0
M  V30 2438 H 214.836 -3.40082 -0.46897 0
M  V30 2439 N 217.281 0.66697 -1.42791 0
M  V30 2440 C 218.191 1.80962 -1.49299 0
M  V30 2441 C 219.207 1.69775 -0.381108 0
M  V30 2442 O 220.383 1.91188 -0.633188 0
M  V30 2443 C 217.448 3.17156 -1.40045 0
M  V30 2444 C 216.509 3.40242 -2.6179 0
M  V30 2445 C 215.742 4.69939 -2.52969 0
M  V30 2446 O 215.965 5.48372 -1.56985 0
M  V30 2447 O 214.899 4.94441 -3.43237 0
M  V30 2448 H 218.725 1.78427 -2.45759 0
M  V30 2449 H 216.31 0.823713 -1.24641 0
M  V30 2450 H 218.192 3.98413 -1.37276 0
M  V30 2451 H 216.867 3.20312 -0.467138 0
M  V30 2452 H 215.774 2.58802 -2.70134 0
M  V30 2453 H 217.107 3.41923 -3.54047 0
M  V30 2454 N 218.759 1.29093 0.90403 0
M  V30 2455 C 220.17 1.15186 1.46932 0
M  V30 2456 C 220.521 -0.254587 1.94541 0
M  V30 2457 O 219.646 -1.14972 1.83332 0
M  V30 2458 C 220.241 2.08492 2.67051 0
M  V30 2459 C 218.8 1.98621 3.19729 0
M  V30 2460 C 217.947 1.9967 1.92425 0
M  V30 2461 H 220.898 1.41641 0.715789 0
M  V30 2462 H 220.919 1.65461 3.42641 0
M  V30 2463 H 220.431 3.10847 2.3237 0
M  V30 2464 H 218.532 0.993389 3.59114 0
M  V30 2465 H 218.645 2.86068 3.8432 0
M  V30 2466 H 217.009 1.44208 2.09943 0
M  V30 2467 H 217.792 3.03721 1.60026 0
M  V30 2468 N 220.237 -1.11381 1.11499 0
M  V30 2469 C 221.2 -2.15622 0.777153 0
M  V30 2470 C 222.2 -1.59504 -0.203779 0
M  V30 2471 O 223.39 -1.74188 0.020782 0
M  V30 2472 C 220.522 -3.40556 0.153116 0
M  V30 2473 H 221.715 -2.47021 1.70061 0
M  V30 2474 H 219.268 -1.26577 0.916952 0
M  V30 2475 H 220.003 -3.14767 -0.780536 0
M  V30 2476 H 219.788 -3.8257 0.859238 0
M  V30 2477 H 221.278 -4.17546 -0.0671044 0
M  V30 2478 N 221.715 -0.905404 -1.28997 0
M  V30 2479 C 222.961 -0.535039 -1.95615 0
M  V30 2480 C 223.294 0.917404 -1.71165 0
M  V30 2481 O 222.569 1.65123 -1.02785 0
M  V30 2482 C 222.852 -0.834918 -3.50287 0
M  V30 2483 C 222.705 -2.33948 -3.84172 0
M  V30 2484 C 224.024 -0.325318 -4.38896 0
M  V30 2485 H 221.143 -0.195861 -0.710498 0
M  V30 2486 H 223.785 -1.13313 -1.52513 0
M  V30 2487 H 221.935 -0.325904 -3.87131 0
M  V30 2488 H 223.607 -2.91847 -3.57243 0
M  V30 2489 H 221.85 -2.79789 -3.31513 0
M  V30 2490 H 222.521 -2.49987 -4.92149 0
M  V30 2491 H 224.997 -0.761256 -4.09077 0
M  V30 2492 H 223.873 -0.564295 -5.45992 0
M  V30 2493 H 224.134 0.774144 -4.35269 0
M  V30 2494 N 223.193 1.4272 -0.668489 0
M  V30 2495 C 224.609 1.55992 -0.33745 0
M  V30 2496 C 224.809 1.64933 1.15756 0
M  V30 2497 O 223.865 1.61278 1.94282 0
M  V30 2498 C 225.178 2.81314 -1.06222 0
M  V30 2499 C 226.726 2.95078 -1.04394 0
M  V30 2500 C 227.201 4.23252 -1.74991 0
M  V30 2501 N 228.692 4.3015 -1.71829 0
M  V30 2502 C 229.427 5.28127 -2.23315 0
M  V30 2503 N 228.923 6.32293 -2.83156 0
M  V30 2504 N 230.716 5.19882 -2.13726 0
M  V30 2505 H 222.867 1.3516 -1.63846 0
M  V30 2506 H 225.13 0.650174 -0.689912 0
M  V30 2507 H 224.836 2.80823 -2.11734 0
M  V30 2508 H 224.71 3.72012 -0.62344 0
M  V30 2509 H 227.097 2.951 0.0028244 0
M  V30 2510 H 227.178 2.05627 -1.52155 0
M  V30 2511 H 226.822 4.2399 -2.79633 0
M  V30 2512 H 226.752 5.11626 -1.24685 0
M  V30 2513 H 229.243 3.55499 -1.28175 0
M  V30 2514 H 229.556 7.03398 -3.20079 0
M  V30 2515 H 227.901 6.32873 -2.87223 0
M  V30 2516 H 231.092 4.37423 -1.66669 0
M  V30 2517 H 231.265 5.96077 -2.54158 0
M  V30 2518 N 224.671 0.411399 1.52136 0
M  V30 2519 C 225.919 -0.163322 2.01439 0
M  V30 2520 C 226.24 -1.45453 1.29879 0
M  V30 2521 O 225.51 -1.91225 0.4254 0
M  V30 2522 H 224.09 -0.0633447 0.744309 0
M  V30 2523 H 226.752 0.548161 1.87033 0
M  V30 2524 H 225.848 -0.357817 3.10042 0
M  V30 2525 N 226.149 -1.5696 0.141893 0
M  V30 2526 C 227.112 -2.15316 -0.785587 0
M  V30 2527 C 228.112 -1.09366 -1.1788 0
M  V30 2528 O 229.302 -1.35031 -1.10056 0
M  V30 2529 C 226.434 -2.71211 -2.06537 0
M  V30 2530 H 227.627 -2.98608 -0.278041 0
M  V30 2531 H 225.18 -1.5593 -0.107519 0
M  V30 2532 H 225.915 -1.91571 -2.6167 0
M  V30 2533 H 225.7 -3.4872 -1.79268 0
M  V30 2534 H 227.19 -3.16189 -2.72789 0
M  V30 2535 N 227.627 0.131896 -1.57047 0
M  V30 2536 C 228.873 0.843179 -1.84441 0
M  V30 2537 C 229.206 1.80129 -0.725749 0
M  V30 2538 O 228.481 1.92624 0.269469 0
M  V30 2539 C 228.764 1.60442 -3.22382 0
M  V30 2540 C 228.617 0.666782 -4.4483 0
M  V30 2541 C 229.936 2.56354 -3.5773 0
M  V30 2542 H 227.055 0.305081 -0.670891 0
M  V30 2543 H 229.697 0.107839 -1.89694 0
M  V30 2544 H 227.847 2.23128 -3.18035 0
M  V30 2545 H 229.519 0.0497646 -4.61273 0
M  V30 2546 H 227.762 -0.022609 -4.33794 0
M  V30 2547 H 228.433 1.23579 -5.37989 0
M  V30 2548 H 230.909 2.0378 -3.62785 0
M  V30 2549 H 229.785 3.06657 -4.5525 0
M  V30 2550 H 230.046 3.38419 -2.84473 0
M  V30 2551 N 229.106 1.52395 0.401703 0
M  V30 2552 C 230.522 1.41363 0.740864 0
M  V30 2553 C 230.722 0.523982 1.94568 0
M  V30 2554 O 229.778 -0.00741204 2.52499 0
M  V30 2555 C 231.091 2.84011 0.987847 0
M  V30 2556 C 232.639 2.93404 1.09011 0
M  V30 2557 C 233.114 4.37036 1.3698 0
M  V30 2558 N 234.605 4.40304 1.43829 0
M  V30 2559 C 235.34 5.48508 1.67112 0
M  V30 2560 N 234.836 6.66819 1.87949 0
M  V30 2561 N 236.629 5.36034 1.69187 0
M  V30 2562 H 228.78 2.08765 -0.391262 0
M  V30 2563 H 231.043 0.941265 -0.112798 0
M  V30 2564 H 230.749 3.51265 0.174835 0
M  V30 2565 H 230.623 3.25502 1.906 0
M  V30 2566 H 233.01 2.26325 1.8937 0
M  V30 2567 H 233.091 2.55359 0.15015 0
M  V30 2568 H 232.735 5.04676 0.571353 0
M  V30 2569 H 232.665 4.72623 2.3224 0
M  V30 2570 H 235.156 3.55024 1.29486 0
M  V30 2571 H 235.469 7.45063 2.05185 0
M  V30 2572 H 233.814 6.6987 1.85199 0
M  V30 2573 H 237.005 4.42579 1.52451 0
M  V30 2574 H 237.178 6.20434 1.86993 0
M  V30 2575 N 230.584 -0.659388 1.43143 0
M  V30 2576 C 231.547 -1.75432 1.47501 0
M  V30 2577 C 232.547 -1.56707 0.360512 0
M  V30 2578 O 233.737 -1.62717 0.622002 0
M  V30 2579 C 230.869 -3.14239 1.32162 0
M  V30 2580 H 232.062 -1.7295 2.45006 0
M  V30 2581 H 229.615 -0.870469 1.29817 0
M  V30 2582 H 230.35 -3.22336 0.356401 0
M  V30 2583 H 230.135 -3.29235 2.12948 0
M  V30 2584 H 231.625 -3.94094 1.3813 0
M  V30 2585 N 232.062 -1.29571 -0.897171 0
M  V30 2586 C 233.025 -1.14913 -1.98312 0
M  V30 2587 C 234.025 -0.0838629 -1.60581 0
M  V30 2588 O 235.215 -0.331006 -1.71026 0
M  V30 2589 C 232.347 -0.757835 -3.3237 0
M  V30 2590 H 233.54 -2.11377 -2.12743 0
M  V30 2591 H 231.093 -1.12793 -1.08201 0
M  V30 2592 H 231.828 0.206837 -3.2364 0
M  V30 2593 H 231.613 -1.52755 -3.61121 0
M  V30 2594 H 233.103 -0.678408 -4.12053 0
M  V30 2595 N 233.54 1.10788 -1.12088 0
M  V30 2596 C 234.787 1.82671 -0.873931 0
M  V30 2597 C 235.115 1.85004 0.600311 0
M  V30 2598 O 234.37 1.30365 1.45957 0
M  V30 2599 C 234.669 3.29294 -1.38926 0
M  V30 2600 C 234.335 3.47113 -2.87791 0
M  V30 2601 C 232.997 3.51684 -3.28439 0
M  V30 2602 C 235.349 3.52808 -3.83635 0
M  V30 2603 C 232.677 3.59513 -4.63646 0
M  V30 2604 C 235.029 3.62169 -5.18668 0
M  V30 2605 C 233.693 3.65003 -5.58864 0
M  V30 2606 H 232.963 0.668441 -0.319794 0
M  V30 2607 H 235.61 1.30613 -1.40045 0
M  V30 2608 H 233.915 3.83894 -0.783122 0
M  V30 2609 H 235.612 3.83416 -1.17443 0
M  V30 2610 H 232.202 3.4423 -2.5535 0
M  V30 2611 H 236.386 3.4853 -3.53328 0
M  V30 2612 H 231.642 3.59987 -4.94185 0
M  V30 2613 H 235.816 3.6552 -5.92763 0
M  V30 2614 H 233.443 3.70822 -6.63623 0
M  V30 2615 N 235.018 0.912232 1.28515 0
M  V30 2616 C 235.95 0.35676 2.26406 0
M  V30 2617 C 236.963 -0.503933 1.54804 0
M  V30 2618 O 238.152 -0.319059 1.75625 0
M  V30 2619 C 235.252 -0.508825 3.35058 0
M  V30 2620 C 234.425 0.329007 4.36161 0
M  V30 2621 C 233.484 -0.471422 5.24084 0
M  V30 2622 O 232.51 0.115482 5.69083 0
M  V30 2623 N 233.712 -1.77479 5.52704 0
M  V30 2624 H 236.477 1.19818 2.74707 0
M  V30 2625 H 234.038 0.778022 1.4198 0
M  V30 2626 H 236.03 -1.051 3.90815 0
M  V30 2627 H 234.6 -1.25095 2.86478 0
M  V30 2628 H 233.82 1.05256 3.79888 0
M  V30 2629 H 235.108 0.90234 5.00735 0
M  V30 2630 H 234.506 -2.27417 5.17975 0
M  V30 2631 H 233.063 -2.26382 6.11224 0
M  V30 2632 N 236.496 -1.42363 0.676048 0
M  V30 2633 C 237.426 -2.33497 0.0124832 0
M  V30 2634 C 238.407 -1.50748 -0.787981 0
M  V30 2635 O 239.592 -1.79346 -0.744884 0
M  V30 2636 C 236.722 -3.34377 -0.938582 0
M  V30 2637 C 235.676 -4.27289 -0.246622 0
M  V30 2638 C 235.002 -5.18386 -1.31071 0
M  V30 2639 C 236.302 -5.14916 0.875125 0
M  V30 2640 H 237.996 -2.89233 0.773593 0
M  V30 2641 H 235.542 -1.39073 0.37346 0
M  V30 2642 H 237.495 -3.97044 -1.41188 0
M  V30 2643 H 236.219 -2.76947 -1.73113 0
M  V30 2644 H 234.878 -3.66018 0.206456 0
M  V30 2645 H 234.526 -4.57282 -2.09528 0
M  V30 2646 H 234.226 -5.81378 -0.852839 0
M  V30 2647 H 235.75 -5.83929 -1.78492 0
M  V30 2648 H 237.164 -5.71262 0.482983 0
M  V30 2649 H 235.561 -5.86747 1.25887 0
M  V30 2650 H 236.631 -4.53242 1.72335 0
M  V30 2651 N 237.974 -0.419461 -1.51915 0
M  V30 2652 C 239.22 0.145505 -2.02879 0
M  V30 2653 C 239.575 1.41926 -1.29903 0
M  V30 2654 O 238.868 1.87383 -0.399782 0
M  V30 2655 C 239.062 0.437067 -3.54717 0
M  V30 2656 C 238.891 -0.806877 -4.42402 0
M  V30 2657 C 237.661 -1.33514 -4.87342 0
M  V30 2658 C 239.859 -1.68796 -4.85811 0
M  V30 2659 N 237.841 -2.53349 -5.59185 0
M  V30 2660 C 239.212 -2.73247 -5.56539 0
M  V30 2661 C 241.267 -1.70449 -4.67816 0
M  V30 2662 C 239.97 -3.79276 -6.11181 0
M  V30 2663 C 241.996 -2.75403 -5.23361 0
M  V30 2664 C 241.358 -3.78575 -5.9402 0
M  V30 2665 H 237.457 0.0145424 -0.781865 0
M  V30 2666 H 240.041 -0.576126 -1.85981 0
M  V30 2667 H 238.212 1.12774 -3.71667 0
M  V30 2668 H 239.944 0.99182 -3.92358 0
M  V30 2669 H 236.699 -0.891657 -4.65131 0
M  V30 2670 H 237.123 -3.14066 -5.99743 0
M  V30 2671 H 241.765 -0.920209 -4.12664 0
M  V30 2672 H 239.483 -4.58554 -6.65397 0
M  V30 2673 H 243.069 -2.77603 -5.113 0
M  V30 2674 H 241.949 -4.58453 -6.36231 0
M  V30 2675 N 239.452 1.56882 -0.150215 0
M  V30 2676 C 240.677 2.01027 0.510184 0
M  V30 2677 C 241.102 1.02966 1.57415 0
M  V30 2678 O 240.46 0.00590158 1.81299 0
M  V30 2679 C 240.508 3.43899 1.08472 0
M  V30 2680 O 239.612 3.4885 2.19948 0
M  V30 2681 H 238.953 0.652233 0.124451 0
M  V30 2682 H 241.483 2.03093 -0.247894 0
M  V30 2683 H 241.493 3.82766 1.41259 0
M  V30 2684 H 240.168 4.14776 0.305582 0
M  V30 2685 H 238.745 3.21827 1.88366 0
M  V30 2686 N 240.93 -0.123565 1.57115 0
M  V30 2687 C 241.878 -1.17082 2.00984 0
M  V30 2688 C 242.872 -1.43136 0.906009 0
M  V30 2689 O 244.078 -1.43152 1.09121 0
M  V30 2690 H 240.453 -0.394653 0.64012 0
M  V30 2691 H 242.424 -0.774292 2.88179 0
M  V30 2692 C 241.173 -2.49057 2.42623 0
M  V30 2693 H 240.496 -2.29846 3.27125 0
M  V30 2694 H 241.936 -3.20906 2.7712 0
M  V30 2695 C 240.395 -3.11305 1.28805 0
M  V30 2696 O 240.925 -3.97171 0.60153 0
M  V30 2697 N 239.131 -2.71111 1.04628 0
M  V30 2698 H 238.678 -2.01382 1.60634 0
M  V30 2699 H 238.636 -3.1309 0.286685 0
M  V30 2700 N 242.408 -1.52605 -0.393616 0
M  V30 2701 C 243.654 -1.67672 -1.14079 0
M  V30 2702 C 243.987 -0.413121 -1.89755 0
M  V30 2703 O 243.262 0.588952 -1.85369 0
M  V30 2704 C 243.545 -2.9088 -2.12276 0
M  V30 2705 C 243.398 -4.27329 -1.40394 0
M  V30 2706 C 244.717 -3.09628 -3.12759 0
M  V30 2707 H 241.836 -0.610168 -0.413356 0
M  V30 2708 H 244.478 -1.85193 -0.424696 0
M  V30 2709 H 242.628 -2.76073 -2.73342 0
M  V30 2710 H 244.3 -4.53894 -0.82327 0
M  V30 2711 H 242.543 -4.2802 -0.705801 0
M  V30 2712 H 243.214 -5.09615 -2.12123 0
M  V30 2713 H 245.69 -3.23436 -2.61779 0
M  V30 2714 H 244.566 -3.97322 -3.78717 0
M  V30 2715 H 244.827 -2.23637 -3.81365 0
M  V30 2716 N 243.887 0.651787 -1.4349 0
M  V30 2717 C 245.112 1.44434 -1.48841 0
M  V30 2718 C 245.537 1.8779 -0.107955 0
M  V30 2719 O 244.895 1.57464 0.898602 0
M  V30 2720 C 244.943 2.65458 -2.44059 0
M  V30 2721 O 244.047 3.64566 -1.92784 0
M  V30 2722 H 243.388 0.433005 -0.503391 0
M  V30 2723 H 245.918 0.797451 -1.88419 0
M  V30 2724 H 245.928 3.13255 -2.6141 0
M  V30 2725 H 244.603 2.33244 -3.4434 0
M  V30 2726 H 243.18 3.23716 -1.851 0
M  V30 2727 N 245.365 1.30045 0.890287 0
M  V30 2728 C 246.328 1.15963 1.977 0
M  V30 2729 C 247.328 0.0923777 1.60534 0
M  V30 2730 O 248.518 0.340071 1.70848 0
M  V30 2731 C 245.65 0.775451 3.31963 0
M  V30 2732 H 246.843 2.12502 2.11619 0
M  V30 2733 H 244.396 1.13366 1.07601 0
M  V30 2734 H 245.131 -0.189671 3.23745 0
M  V30 2735 H 244.916 1.54668 3.60306 0
M  V30 2736 H 246.406 0.700251 4.11687 0
M  V30 2737 N 246.843 -1.10192 1.12674 0
M  V30 2738 C 247.773 -2.18652 0.819362 0
M  V30 2739 C 248.754 -1.68698 -0.217915 0
M  V30 2740 O 249.939 -1.94041 -0.0785581 0
M  V30 2741 C 247.069 -3.46202 0.27594 0
M  V30 2742 C 246.023 -4.09444 1.24656 0
M  V30 2743 C 245.349 -5.31725 0.563258 0
M  V30 2744 C 246.649 -4.52863 2.60217 0
M  V30 2745 H 248.343 -2.44622 1.72628 0
M  V30 2746 H 245.889 -1.17571 0.831451 0
M  V30 2747 H 247.842 -4.21372 0.0486149 0
M  V30 2748 H 246.566 -3.1973 -0.666331 0
M  V30 2749 H 245.225 -3.36284 1.45974 0
M  V30 2750 H 244.873 -5.0153 -0.384235 0
M  V30 2751 H 244.573 -5.74991 1.21075 0
M  V30 2752 H 246.097 -6.09624 0.34503 0
M  V30 2753 H 247.511 -5.19294 2.42913 0
M  V30 2754 H 245.908 -5.06986 3.21068 0
M  V30 2755 H 246.978 -3.65656 3.18471 0
M  V30 2756 N 248.321 -0.919034 -1.28029 0
M  V30 2757 C 249.231 -0.416756 -2.30869 0
M  V30 2758 C 250.247 0.498235 -1.66714 0
M  V30 2759 O 251.423 0.383144 -1.97722 0
M  V30 2760 C 248.488 0.330274 -3.45123 0
M  V30 2761 C 247.549 -0.618578 -4.2482 0
M  V30 2762 C 246.782 0.0928959 -5.33619 0
M  V30 2763 O 247.005 1.31375 -5.55065 0
M  V30 2764 O 245.939 -0.574499 -5.99152 0
M  V30 2765 H 249.765 -1.27043 -2.75851 0
M  V30 2766 H 247.35 -0.684052 -1.3282 0
M  V30 2767 H 249.232 0.751972 -4.14636 0
M  V30 2768 H 247.907 1.1597 -3.02213 0
M  V30 2769 H 246.814 -1.08978 -3.57875 0
M  V30 2770 H 248.147 -1.41497 -4.71423 0
M  V30 2771 N 249.799 1.42003 -0.683588 0
M  V30 2772 C 251.046 2.01413 -0.209514 0
M  V30 2773 C 251.374 1.54088 1.1869 0
M  V30 2774 O 250.629 0.737591 1.81268 0
M  V30 2775 C 250.928 3.56827 -0.202357 0
M  V30 2776 C 250.594 4.23617 -1.54464 0
M  V30 2777 C 249.256 4.41577 -1.91215 0
M  V30 2778 C 251.608 4.61178 -2.42826 0
M  V30 2779 C 248.936 4.9437 -3.15935 0
M  V30 2780 C 251.288 5.15355 -3.66867 0
M  V30 2781 C 249.952 5.31528 -4.03776 0
M  V30 2782 H 249.222 0.737023 -0.0766668 0
M  V30 2783 H 251.869 1.70067 -0.880312 0
M  V30 2784 H 250.174 3.87892 0.551969 0
M  V30 2785 H 251.871 4.00588 0.181793 0
M  V30 2786 H 248.461 4.10004 -1.24877 0
M  V30 2787 H 252.645 4.46968 -2.15717 0
M  V30 2788 H 247.901 5.05076 -3.44541 0
M  V30 2789 H 252.075 5.43402 -4.35531 0
M  V30 2790 H 249.702 5.72199 -5.00492 0
M  V30 2791 N 251.277 0.427512 1.51691 0
M  V30 2792 C 252.523 -0.134744 2.02953 0
M  V30 2793 C 252.878 -1.41235 1.30654 0
M  V30 2794 O 252.171 -1.87168 0.409713 0
M  V30 2795 C 252.365 -0.418249 3.54944 0
M  V30 2796 C 252.194 0.830327 4.41968 0
M  V30 2797 C 250.964 1.36097 4.86627 0
M  V30 2798 C 253.162 1.7137 4.84909 0
M  V30 2799 N 251.144 2.56311 5.57833 0
M  V30 2800 C 252.515 2.76195 5.55082 0
M  V30 2801 C 254.57 1.72928 4.66905 0
M  V30 2802 C 253.273 3.82512 6.09161 0
M  V30 2803 C 255.299 2.78175 5.21894 0
M  V30 2804 C 254.661 3.8172 5.92004 0
M  V30 2805 H 250.76 -0.0103958 0.781931 0
M  V30 2806 H 253.344 0.585981 1.85673 0
M  V30 2807 H 251.515 -1.10801 3.7226 0
M  V30 2808 H 253.247 -0.970999 3.92879 0
M  V30 2809 H 250.002 0.916311 4.64651 0
M  V30 2810 H 250.426 3.17242 5.98069 0
M  V30 2811 H 255.068 0.942081 4.12171 0
M  V30 2812 H 252.786 4.62077 6.62956 0
M  V30 2813 H 256.372 2.8031 5.09821 0
M  V30 2814 H 255.252 4.61821 6.33791 0
M  V30 2815 N 252.755 -1.56801 0.158532 0
M  V30 2816 C 253.665 -2.20916 -0.789518 0
M  V30 2817 C 254.681 -1.1969 -1.26294 0
M  V30 2818 O 255.857 -1.52308 -1.31773 0
M  V30 2819 C 252.922 -2.82727 -2.00665 0
M  V30 2820 C 251.983 -3.99114 -1.58134 0
M  V30 2821 C 251.216 -4.57968 -2.74045 0
M  V30 2822 O 251.439 -4.15704 -3.90572 0
M  V30 2823 O 250.373 -5.48047 -2.48855 0
M  V30 2824 H 254.199 -3.02464 -0.273681 0
M  V30 2825 H 251.784 -1.4924 -0.0690548 0
M  V30 2826 H 253.666 -3.21968 -2.71872 0
M  V30 2827 H 252.341 -2.04184 -2.51179 0
M  V30 2828 H 251.248 -3.64567 -0.839155 0
M  V30 2829 H 252.581 -4.79212 -1.12325 0
M  V30 2830 N 254.233 0.115231 -1.57178 0
M  V30 2831 C 255.196 1.12526 -1.99676 0
M  V30 2832 C 256.196 1.34095 -0.88742 0
M  V30 2833 O 257.386 1.30548 -1.15337 0
M  V30 2834 C 254.518 2.4789 -2.34015 0
M  V30 2835 H 255.711 0.759912 -2.90113 0
M  V30 2836 H 253.264 0.359648 -1.52106 0
M  V30 2837 H 253.999 2.89339 -1.4647 0
M  V30 2838 H 253.784 2.33588 -3.14927 0
M  V30 2839 H 255.274 3.20575 -2.67622 0
M  V30 2840 N 255.711 1.52812 0.385517 0
M  V30 2841 C 257.122 1.5993 0.963293 0
M  V30 2842 C 257.473 0.454302 1.90868 0
M  V30 2843 O 256.598 -0.422132 2.12243 0
M  V30 2844 C 257.193 2.89871 1.75387 0
M  V30 2845 C 255.752 2.99389 2.28129 0
M  V30 2846 C 254.899 2.55071 1.08783 0
M  V30 2847 H 257.85 1.5784 0.164948 0
M  V30 2848 H 257.871 2.76553 2.61341 0
M  V30 2849 H 257.383 3.73186 1.06554 0
M  V30 2850 H 255.484 2.20619 3.00263 0
M  V30 2851 H 255.597 4.04096 2.57377 0
M  V30 2852 H 253.961 2.09473 1.4489 0
M  V30 2853 H 254.744 3.40785 0.414807 0
M  V30 2854 N 257.189 -0.644168 1.43834 0
M  V30 2855 C 258.152 -1.73857 1.49353 0
M  V30 2856 C 259.152 -1.56315 0.377112 0
M  V30 2857 O 260.342 -1.62048 0.639226 0
M  V30 2858 C 257.474 -3.12819 1.35488 0
M  V30 2859 H 258.667 -1.70342 2.46827 0
M  V30 2860 H 256.22 -0.856652 1.30733 0
M  V30 2861 H 256.955 -3.2194 0.390569 0
M  V30 2862 H 256.74 -3.26958 2.16428 0
M  V30 2863 H 258.23 -3.92606 1.42302 0
M  V30 2864 N 258.668 -1.30515 -0.883378 0
M  V30 2865 C 259.896 -1.22359 -1.66841 0
M  V30 2866 C 260.311 0.213296 -1.87591 0
M  V30 2867 O 259.668 1.14075 -1.42454 0
M  V30 2868 C 259.719 -1.95011 -3.04389 0
M  V30 2869 O 259.44 -3.3309 -2.84575 0
M  V30 2870 C 260.941 -1.93532 -3.98824 0
M  V30 2871 H 258.161 -0.423371 -0.520575 0
M  V30 2872 H 260.705 -1.72167 -1.10357 0
M  V30 2873 H 258.86 -1.48997 -3.57601 0
M  V30 2874 H 259.274 -3.69907 -3.71846 0
M  V30 2875 H 260.748 -2.48902 -4.92699 0
M  V30 2876 H 261.225 -0.914627 -4.29571 0
M  V30 2877 H 261.831 -2.39364 -3.51547 0
M  V30 2878 N 260.146 1.09593 -1.13257 0
M  V30 2879 C 261.394 1.81375 -0.891492 0
M  V30 2880 C 261.715 1.86049 0.584009 0
M  V30 2881 O 260.985 1.34481 1.42449 0
M  V30 2882 H 259.565 0.671708 -0.326828 0
M  V30 2883 H 262.227 1.3256 -1.42877 0
M  V30 2884 H 261.323 2.84612 -1.28071 0
M  V30 2885 N 261.624 0.925811 1.2754 0
M  V30 2886 C 263.035 0.610102 1.7645 0
M  V30 2887 C 263.386 -0.874723 1.75622 0
M  V30 2888 O 262.511 -1.68444 1.35851 0
M  V30 2889 C 263.106 1.10073 3.20421 0
M  V30 2890 C 261.665 0.835723 3.67005 0
M  V30 2891 C 260.812 1.26054 2.46993 0
M  V30 2892 H 263.763 1.10579 1.13833 0
M  V30 2893 H 263.784 0.447557 3.77859 0
M  V30 2894 H 263.296 2.18143 3.20991 0
M  V30 2895 H 261.397 -0.231249 3.71882 0
M  V30 2896 H 261.51 1.45193 4.56569 0
M  V30 2897 H 259.874 0.679111 2.45479 0
M  V30 2898 H 260.657 2.34984 2.50275 0
M  V30 2899 N 263.102 -1.41638 0.69111 0
M  V30 2900 C 264.065 -2.29178 0.0319786 0
M  V30 2901 C 265.065 -1.44153 -0.712496 0
M  V30 2902 O 266.255 -1.65354 -0.548053 0
M  V30 2903 C 263.387 -3.26952 -0.965161 0
M  V30 2904 H 264.58 -2.88959 0.802681 0
M  V30 2905 H 262.133 -1.4955 0.454356 0
M  V30 2906 H 262.868 -2.72142 -1.76378 0
M  V30 2907 H 262.653 -3.89685 -0.434522 0
M  V30 2908 H 264.143 -3.92561 -1.42428 0
M  V30 2909 N 264.58 -0.43555 -1.51462 0
M  V30 2910 C 265.857 0.191364 -1.94662 0
M  V30 2911 C 266.237 1.60254 -1.37411 0
M  V30 2912 O 265.585 2.2152 -0.560458 0
M  V30 2913 C 265.795 0.17091 -3.48581 0
M  V30 2914 C 267.143 0.377357 -4.2292 0
M  V30 2915 O 268.167 0.249104 -3.55328 0
M  V30 2916 O 267.026 0.63247 -5.42828 0
M  V30 2917 H 264.12 0.130932 -0.816569 0
M  V30 2918 H 266.666 -0.4934 -1.62369 0
M  V30 2919 H 265.438 -0.815738 -3.82703 0
M  V30 2920 H 265.061 0.898659 -3.87311 0
M  V30 2921 N 266.058 1.56714 -0.166846 0
M  V30 2922 C 267.307 1.95922 0.479318 0
M  V30 2923 C 267.62 1.05529 1.6469 0
M  V30 2924 O 268.826 1.34399 2.35901 0
M  V30 2925 C 267.282 3.48359 0.90412 0
M  V30 2926 C 266.89 4.47369 -0.237621 0
M  V30 2927 C 268.634 3.96394 1.51896 0
M  V30 2928 C 266.541 5.91039 0.206561 0
M  V30 2929 H 265.471 0.731495 0.18284 0
M  V30 2930 H 268.122 1.81728 -0.254363 0
M  V30 2931 H 266.504 3.57955 1.69365 0
M  V30 2932 H 267.678 4.49485 -1.01489 0
M  V30 2933 H 265.993 4.09366 -0.762128 0
M  V30 2934 H 268.59 5.01186 1.86325 0
M  V30 2935 H 268.933 3.39075 2.41524 0
M  V30 2936 H 269.466 3.89796 0.79395 0
M  V30 2937 H 266.205 6.52221 -0.654834 0
M  V30 2938 H 265.725 5.9224 0.949282 0
M  V30 2939 H 267.404 6.43707 0.651939 0
M  V30 2940 N 267.536 -0.106894 1.57237 0
M  V30 2941 C 268.952 -0.46078 1.52804 0
M  V30 2942 C 269.152 -1.81184 0.881746 0
M  V30 2943 O 268.208 -2.48102 0.469224 0
M  V30 2944 C 269.521 -0.434127 2.9755 0
M  V30 2945 C 271.069 -0.516821 3.08704 0
M  V30 2946 C 271.544 -0.520436 4.55033 0
M  V30 2947 N 273.035 -0.58153 4.59535 0
M  V30 2948 C 273.77 -0.605973 5.70189 0
M  V30 2949 N 273.266 -0.587331 6.90306 0
M  V30 2950 N 275.059 -0.649895 5.5833 0
M  V30 2951 H 267.21 0.778203 1.9763 0
M  V30 2952 H 269.473 0.288403 0.903066 0
M  V30 2953 H 269.179 0.491197 3.48253 0
M  V30 2954 H 269.053 -1.25748 3.55622 0
M  V30 2955 H 271.44 -1.43256 2.57995 0
M  V30 2956 H 271.521 0.334449 2.53604 0
M  V30 2957 H 271.165 0.391313 5.0639 0
M  V30 2958 H 271.095 -1.38876 5.07958 0
M  V30 2959 H 273.586 -0.60161 3.73081 0
M  V30 2960 H 273.899 -0.60894 7.70397 0
M  V30 2961 H 272.244 -0.554564 6.92784 0
M  V30 2962 H 275.435 -0.661907 4.63397 0
M  V30 2963 H 275.608 -0.665476 6.44574 0
M  V30 2964 N 269.014 -1.53014 -0.377408 0
M  V30 2965 C 269.944 -1.81589 -1.46791 0
M  V30 2966 C 270.925 -0.668622 -1.56408 0
M  V30 2967 O 272.11 -0.917337 -1.71168 0
M  V30 2968 C 269.24 -1.99519 -2.8427 0
M  V30 2969 C 268.194 -3.15249 -2.89486 0
M  V30 2970 C 267.52 -3.18451 -4.29527 0
M  V30 2971 C 268.82 -4.54084 -2.58079 0
M  V30 2972 H 270.514 -2.7291 -1.23127 0
M  V30 2973 H 268.06 -1.31319 -0.590883 0
M  V30 2974 H 270.013 -2.18092 -3.60575 0
M  V30 2975 H 268.737 -1.04897 -3.09296 0
M  V30 2976 H 267.396 -2.96477 -2.15631 0
M  V30 2977 H 267.044 -2.2149 -4.5161 0
M  V30 2978 H 266.744 -3.962 -4.33934 0
M  V30 2979 H 268.268 -3.39193 -5.07721 0
M  V30 2980 H 269.682 -4.72899 -3.24098 0
M  V30 2981 H 268.079 -5.33987 -2.7382 0
M  V30 2982 H 269.149 -4.60006 -1.53372 0
M  V30 2983 N 270.492 0.636531 -1.44174 0
M  V30 2984 C 271.72 1.42353 -1.50144 0
M  V30 2985 C 272.135 1.88389 -0.124575 0
M  V30 2986 O 271.492 1.6051 0.868489 0
M  V30 2987 C 271.543 2.64744 -2.46156 0
M  V30 2988 O 271.264 2.20629 -3.7849 0
M  V30 2989 C 272.765 3.57929 -2.61537 0
M  V30 2990 H 269.985 0.436752 -0.5094 0
M  V30 2991 H 272.529 0.778933 -1.89084 0
M  V30 2992 H 270.684 3.25307 -2.10366 0
M  V30 2993 H 271.098 2.99938 -4.30276 0
M  V30 2994 H 272.572 4.40428 -3.32757 0
M  V30 2995 H 273.049 4.06382 -1.66585 0
M  V30 2996 H 273.655 3.03238 -2.98206 0
M  V30 2997 N 271.97 1.30982 0.876444 0
M  V30 2998 C 273.217 1.20296 1.62896 0
M  V30 2999 C 273.545 -0.240395 1.93009 0
M  V30 3000 O 272.8 -1.18733 1.55567 0
M  V30 3001 C 273.099 1.98572 2.9716 0
M  V30 3002 C 272.765 3.48125 2.86566 0
M  V30 3003 C 271.427 3.88905 2.83383 0
M  V30 3004 C 273.779 4.43322 2.74071 0
M  V30 3005 C 271.107 5.2316 2.65556 0
M  V30 3006 C 273.459 5.77695 2.57781 0
M  V30 3007 C 272.123 6.17704 2.52979 0
M  V30 3008 H 271.393 0.440193 0.59608 0
M  V30 3009 H 274.04 1.62177 1.01837 0
M  V30 3010 H 272.345 1.49352 3.62217 0
M  V30 3011 H 274.042 1.8769 3.54364 0
M  V30 3012 H 270.632 3.15723 2.89856 0
M  V30 3013 H 274.816 4.12752 2.75589 0
M  V30 3014 H 270.072 5.53241 2.60259 0
M  V30 3015 H 274.246 6.51091 2.47089 0
M  V30 3016 H 271.873 7.21678 2.38924 0
M  V30 3017 N 273.449 -1.08991 1.13837 0
M  V30 3018 C 274.696 -1.81258 0.902882 0
M  V30 3019 C 275.024 -1.85936 -0.570803 0
M  V30 3020 O 274.279 -1.3267 -1.43865 0
M  V30 3021 C 274.578 -3.27042 1.44147 0
M  V30 3022 C 274.244 -3.4249 2.93276 0
M  V30 3023 C 272.906 -3.46414 3.33992 0
M  V30 3024 C 275.258 -3.4666 3.892 0
M  V30 3025 C 272.586 -3.52091 4.69307 0
M  V30 3026 C 274.938 -3.53872 5.24364 0
M  V30 3027 C 273.602 -3.56066 5.646 0
M  V30 3028 H 272.872 -0.663268 0.330388 0
M  V30 3029 H 275.519 -1.28368 1.42105 0
M  V30 3030 H 273.824 -3.82599 0.844097 0
M  V30 3031 H 275.521 -3.81499 1.23528 0
M  V30 3032 H 272.111 -3.40124 2.60794 0
M  V30 3033 H 276.295 -3.42865 3.58828 0
M  V30 3034 H 271.551 -3.52079 4.9985 0
M  V30 3035 H 275.725 -3.56043 5.98503 0
M  V30 3036 H 273.352 -3.60218 6.69438 0
M  V30 3037 N 274.927 -0.932562 -1.27047 0
M  V30 3038 C 275.859 -0.392734 -2.2581 0
M  V30 3039 C 276.872 0.479241 -1.55586 0
M  V30 3040 O 278.061 0.291078 -1.76111 0
M  V30 3041 C 275.161 0.455456 -3.35826 0
M  V30 3042 C 274.334 -0.398355 -4.35582 0
M  V30 3043 C 273.393 0.387985 -5.24768 0
M  V30 3044 O 272.419 -0.206003 -5.68827 0
M  V30 3045 N 273.621 1.68664 -5.55457 0
M  V30 3046 H 276.386 -1.24173 -2.72766 0
M  V30 3047 H 273.947 -0.800511 -1.40725 0
M  V30 3048 H 275.939 0.988692 -3.92437 0
M  V30 3049 H 274.509 1.20522 -2.88432 0
M  V30 3050 H 273.729 -1.11286 -3.78165 0
M  V30 3051 H 275.017 -0.981889 -4.99236 0
M  V30 3052 H 274.415 2.19147 -5.21528 0
M  V30 3053 H 272.972 2.1663 -6.14748 0
M  V30 3054 N 276.405 1.4127 -0.698611 0
M  V30 3055 C 277.653 2.00782 -0.230409 0
M  V30 3056 C 277.974 1.5562 1.17505 0
M  V30 3057 O 277.244 0.78815 1.79346 0
M  V30 3058 H 275.824 0.742464 -0.0821944 0
M  V30 3059 H 278.486 1.72852 -0.90045 0
M  V30 3060 H 277.582 3.11095 -0.25021 0
M  V30 3061 N 277.883 0.443576 1.51229 0
M  V30 3062 C 279.16 -0.181038 1.9476 0
M  V30 3063 C 279.54 -1.59523 1.38259 0
M  V30 3064 O 278.888 -2.2122 0.572198 0
M  V30 3065 C 279.098 -0.152422 3.48667 0
M  V30 3066 C 280.446 -0.354923 4.23114 0
M  V30 3067 O 281.47 -0.230257 3.55455 0
M  V30 3068 O 280.329 -0.603674 5.43156 0
M  V30 3069 H 277.423 -0.1266 0.817252 0
M  V30 3070 H 279.969 0.502004 1.62105 0
M  V30 3071 H 278.741 0.836022 3.82265 0
M  V30 3072 H 278.364 -0.878107 3.87782 0
M  V30 3073 N 279.361 -1.56624 0.175154 0
M  V30 3074 C 280.311 -2.14747 -0.766004 0
M  V30 3075 C 281.295 -1.08275 -1.19018 0
M  V30 3076 O 282.487 -1.34388 -1.15191 0
M  V30 3077 C 279.616 -2.79478 -1.99366 0
M  V30 3078 C 278.702 -3.93114 -1.5913 0
M  V30 3079 N 279.093 -4.97752 -0.89872 0
M  V30 3080 C 277.391 -4.04345 -1.88204 0
M  V30 3081 C 278.092 -5.77473 -0.700012 0
M  V30 3082 N 277.068 -5.29207 -1.24263 0
M  V30 3083 H 280.87 -2.93015 -0.22793 0
M  V30 3084 H 278.384 -1.6238 -0.0253843 0
M  V30 3085 H 280.381 -3.19498 -2.67818 0
M  V30 3086 H 279.041 -2.02692 -2.53665 0
M  V30 3087 H 280.052 -5.14903 -0.556347 0
M  V30 3088 H 276.729 -3.38667 -2.44153 0
M  V30 3089 H 278.119 -6.71728 -0.152047 0
M  V30 3090 N 280.839 0.0985539 -1.57292 0
M  V30 3091 C 281.787 1.1387 -2.02821 0
M  V30 3092 C 282.781 1.41676 -0.928666 0
M  V30 3093 O 283.987 1.41398 -1.11385 0
M  V30 3094 H 280.362 0.384419 -0.646317 0
M  V30 3095 H 282.333 0.728347 -2.89375 0
M  V30 3096 C 281.082 2.45166 -2.46554 0
M  V30 3097 H 280.405 2.24613 -3.3074 0
M  V30 3098 H 281.845 3.16456 -2.8219 0
M  V30 3099 C 280.304 3.09216 -1.33742 0
M  V30 3100 O 280.834 3.96163 -0.66464 0
M  V30 3101 N 279.04 2.69413 -1.08928 0
M  V30 3102 H 278.587 1.98801 -1.63817 0
M  V30 3103 H 278.545 3.12594 -0.336458 0
M  V30 3104 N 282.317 1.53212 0.369288 0
M  V30 3105 C 283.594 1.59815 1.12776 0
M  V30 3106 C 283.974 0.403402 2.0721 0
M  V30 3107 O 283.322 -0.606667 2.20299 0
M  V30 3108 C 283.532 2.94664 1.87013 0
M  V30 3109 C 284.88 3.49109 2.41677 0
M  V30 3110 O 285.904 2.96669 1.97144 0
M  V30 3111 O 284.763 4.40775 3.23079 0
M  V30 3112 H 281.857 0.645376 0.517125 0
M  V30 3113 H 284.403 1.65553 0.37285 0
M  V30 3114 H 283.175 3.73061 1.18071 0
M  V30 3115 H 282.798 2.92401 2.69421 0
M  V30 3116 N 283.795 -0.628877 1.44509 0
M  V30 3117 C 285.043 -1.38565 1.4712 0
M  V30 3118 C 285.364 -1.94712 0.105899 0
M  V30 3119 O 284.634 -1.75912 -0.862079 0
M  V30 3120 H 283.214 -0.514333 0.541729 0
M  V30 3121 H 285.876 -0.740018 1.80305 0
M  V30 3122 H 284.972 -2.21583 2.19789 0
M  V30 3123 N 285.273 -1.31445 -0.869486 0
M  V30 3124 C 286.203 -1.21727 -1.99261 0
M  V30 3125 C 287.184 -0.104359 -1.6978 0
M  V30 3126 O 288.369 -0.289038 -1.92037 0
M  V30 3127 C 285.499 -0.924317 -3.34774 0
M  V30 3128 C 284.453 -1.99685 -3.78563 0
M  V30 3129 C 283.779 -1.55658 -5.11541 0
M  V30 3130 C 285.079 -3.41003 -3.95619 0
M  V30 3131 H 286.773 -2.1569 -2.07649 0
M  V30 3132 H 284.319 -1.03839 -0.997675 0
M  V30 3133 H 286.272 -0.842934 -4.12883 0
M  V30 3134 H 284.996 0.0509793 -3.2656 0
M  V30 3135 H 283.655 -2.06813 -3.02694 0
M  V30 3136 H 283.303 -0.569132 -4.9977 0
M  V30 3137 H 283.003 -2.27409 -5.41811 0
M  V30 3138 H 284.527 -1.48928 -5.92159 0
M  V30 3139 H 285.941 -3.36547 -4.64122 0
M  V30 3140 H 284.338 -4.10975 -4.37286 0
M  V30 3141 H 285.408 -3.81754 -2.98985 0
M  V30 3142 N 286.751 1.08385 -1.14413 0
M  V30 3143 C 287.999 1.80419 -0.910679 0
M  V30 3144 C 288.32 1.86658 0.564243 0
M  V30 3145 O 287.59 1.35985 1.41014 0
M  V30 3146 H 286.17 0.668204 -0.333934 0
M  V30 3147 H 288.832 1.31037 -1.44275 0
M  V30 3148 H 287.928 2.83238 -1.31082 0
M  V30 3149 N 288.23 0.939286 1.26551 0
M  V30 3150 C 289.178 0.43815 2.28436 0
M  V30 3151 C 290.172 -0.483587 1.62351 0
M  V30 3152 O 291.378 -0.362009 1.76322 0
M  V30 3153 H 287.753 0.123149 0.741848 0
M  V30 3154 H 289.724 1.31002 2.68106 0
M  V30 3155 C 288.473 -0.283052 3.46546 0
M  V30 3156 H 287.796 0.417043 3.97619 0
M  V30 3157 H 289.236 -0.597948 4.19763 0
M  V30 3158 C 287.695 -1.50018 3.01656 0
M  V30 3159 O 288.225 -2.59855 3.0633 0
M  V30 3160 N 286.431 -1.35608 2.57019 0
M  V30 3161 H 285.978 -0.46244 2.53415 0
M  V30 3162 H 285.936 -2.17165 2.27347 0
M  V30 3163 N 289.708 -1.40897 0.706093 0
M  V30 3164 C 290.671 -2.29131 0.0562841 0
M  V30 3165 C 291.671 -1.44901 -0.697166 0
M  V30 3166 O 292.861 -1.65926 -0.530484 0
M  V30 3167 C 289.993 -3.27957 -0.93043 0
M  V30 3168 H 291.186 -2.88091 0.833284 0
M  V30 3169 H 288.739 -1.4906 0.470192 0
M  V30 3170 H 289.474 -2.73997 -1.73482 0
M  V30 3171 H 289.259 -3.90124 -0.393166 0
M  V30 3172 H 290.749 -3.94049 -1.38256 0
M  V30 3173 N 291.186 -0.45159 -1.50991 0
M  V30 3174 C 292.433 0.110074 -2.02201 0
M  V30 3175 C 292.761 1.4146 -1.33489 0
M  V30 3176 O 292.016 1.90617 -0.443125 0
M  V30 3177 C 292.315 0.361728 -3.55565 0
M  V30 3178 C 291.981 -0.858717 -4.42648 0
M  V30 3179 C 290.643 -1.19338 -4.66167 0
M  V30 3180 C 292.995 -1.67221 -4.93646 0
M  V30 3181 C 290.323 -2.34195 -5.37931 0
M  V30 3182 C 292.675 -2.8119 -5.6667 0
M  V30 3183 C 291.339 -3.15094 -5.88449 0
M  V30 3184 H 290.609 0.040279 -0.739904 0
M  V30 3185 H 293.256 -0.601696 -1.81802 0
M  V30 3186 H 291.561 1.15554 -3.74372 0
M  V30 3187 H 293.258 0.80996 -3.92735 0
M  V30 3188 H 289.848 -0.58796 -4.24548 0
M  V30 3189 H 294.032 -1.42686 -4.75347 0
M  V30 3190 H 289.288 -2.6076 -5.53005 0
M  V30 3191 H 293.462 -3.44585 -6.05173 0
M  V30 3192 H 291.089 -4.04204 -6.43835 0
M  V30 3193 N 292.664 1.56529 -0.183458 0
M  V30 3194 C 293.941 1.88959 0.50536 0
M  V30 3195 C 294.321 1.09523 1.80466 0
M  V30 3196 O 293.669 0.19278 2.27685 0
M  V30 3197 C 293.879 3.41162 0.73547 0
M  V30 3198 C 295.227 4.11155 1.06005 0
M  V30 3199 O 296.251 3.46548 0.823594 0
M  V30 3200 O 295.11 5.25318 1.50675 0
M  V30 3201 H 292.204 0.78441 0.261973 0
M  V30 3202 H 294.75 1.68231 -0.222802 0
M  V30 3203 H 293.522 3.90874 -0.182561 0
M  V30 3204 H 293.145 3.67543 1.51651 0
M  V30 3205 N 294.142 -0.090211 1.57342 0
M  V30 3206 C 295.39 -0.791241 1.85967 0
M  V30 3207 C 295.711 -1.7903 0.772859 0
M  V30 3208 O 294.981 -1.94872 -0.200398 0
M  V30 3209 H 293.561 -0.295205 0.686195 0
M  V30 3210 H 296.223 -0.0706782 1.94772 0
M  V30 3211 H 295.319 -1.31882 2.82867 0
M  V30 3212 N 295.62 -1.53406 -0.361157 0
M  V30 3213 C 297.031 -1.61442 -0.937728 0
M  V30 3214 C 297.382 -0.48461 -1.90121 0
M  V30 3215 O 296.507 0.388312 -2.12888 0
M  V30 3216 C 297.102 -2.92624 -1.70753 0
M  V30 3217 C 295.661 -3.02981 -2.23337 0
M  V30 3218 C 294.808 -2.5677 -1.04712 0
M  V30 3219 H 297.759 -1.58083 -0.139816 0
M  V30 3220 H 297.78 -2.80675 -2.56908 0
M  V30 3221 H 297.292 -3.74834 -1.00604 0
M  V30 3222 H 295.393 -2.25368 -2.96715 0
M  V30 3223 H 295.506 -4.0814 -2.50916 0
M  V30 3224 H 293.87 -2.11752 -1.41539 0
M  V30 3225 H 294.653 -3.41402 -0.360539 0
M  V30 3226 N 297.098 0.621204 -1.44841 0
M  V30 3227 C 298.346 1.37783 -1.47852 0
M  V30 3228 C 298.667 1.94653 -0.116224 0
M  V30 3229 O 297.937 1.76367 0.852737 0
M  V30 3230 H 296.517 0.511453 -0.544449 0
M  V30 3231 H 299.179 0.730446 -1.80694 0
M  V30 3232 H 298.275 2.20414 -2.20961 0
M  V30 3233 N 298.576 1.31904 0.862503 0
M  V30 3234 C 299.824 1.21776 1.61292 0
M  V30 3235 C 300.145 -0.222413 1.93727 0
M  V30 3236 O 299.415 -1.1451 1.58947 0
M  V30 3237 H 297.995 0.447717 0.597962 0
M  V30 3238 H 300.657 1.65326 1.03215 0
M  V30 3239 H 299.753 1.7948 2.5533 0
M  V30 3240 N 300.054 -1.07777 1.14986 0
M  V30 3241 C 301.017 -2.13041 0.845358 0
M  V30 3242 C 302.017 -1.60071 -0.152931 0
M  V30 3243 O 303.207 -1.74033 0.0761879 0
M  V30 3244 C 300.339 -3.39896 0.261383 0
M  V30 3245 H 301.532 -2.41485 1.77834 0
M  V30 3246 H 299.085 -1.23595 0.956757 0
M  V30 3247 H 299.82 -3.17091 -0.68 0
M  V30 3248 H 299.605 -3.79642 0.980514 0
M  V30 3249 H 301.095 -4.17548 0.0657687 0
M  V30 3250 N 301.532 -0.945985 -1.26051 0
M  V30 3251 C 302.462 -0.477172 -2.28572 0
M  V30 3252 C 303.443 0.472032 -1.63419 0
M  V30 3253 O 304.628 0.372853 -1.90587 0
M  V30 3254 C 301.758 0.253975 -3.4637 0
M  V30 3255 C 300.712 -0.609135 -4.23643 0
M  V30 3256 C 300.038 0.252252 -5.34105 0
M  V30 3257 C 301.338 -1.8829 -4.8718 0
M  V30 3258 H 303.032 -1.33402 -2.68038 0
M  V30 3259 H 300.578 -0.642904 -1.28852 0
M  V30 3260 H 302.531 0.593016 -4.17207 0
M  V30 3261 H 301.255 1.145 -3.05871 0
M  V30 3262 H 299.914 -0.931138 -3.54578 0
M  V30 3263 H 299.562 1.14278 -4.89846 0
M  V30 3264 H 299.262 -0.32188 -5.86718 0
M  V30 3265 H 300.786 0.586454 -6.07777 0
M  V30 3266 H 302.2 -1.61081 -5.50205 0
M  V30 3267 H 300.597 -2.40199 -5.49931 0
M  V30 3268 H 301.667 -2.59134 -4.09851 0
M  V30 3269 N 303.011 1.40521 -0.713556 0
M  V30 3270 C 303.974 2.29098 -0.0684347 0
M  V30 3271 C 304.974 1.45268 0.689472 0
M  V30 3272 O 306.164 1.66205 0.521677 0
M  V30 3273 C 303.296 3.28446 0.913024 0
M  V30 3274 H 304.489 2.87645 -0.84855 0
M  V30 3275 H 302.042 1.48809 -0.47809 0
M  V30 3276 H 302.777 2.74913 1.72027 0
M  V30 3277 H 302.562 3.90327 0.372472 0
M  V30 3278 H 304.052 3.94777 1.36165 0
M  V30 3279 N 304.489 0.459591 1.5075 0
M  V30 3280 C 305.439 -0.358926 2.25157 0
M  V30 3281 C 306.423 -0.971285 1.28276 0
M  V30 3282 O 307.615 -0.885739 1.53244 0
M  V30 3283 C 304.744 -1.44695 3.11317 0
M  V30 3284 C 303.83 -0.842894 4.15639 0
M  V30 3285 N 304.221 0.0299373 5.05791 0
M  V30 3286 C 302.519 -1.10809 4.32015 0
M  V30 3287 C 303.22 0.371563 5.80512 0
M  V30 3288 N 302.196 -0.250409 5.43023 0
M  V30 3289 H 305.998 0.313636 2.92222 0
M  V30 3290 H 303.512 0.273021 1.60089 0
M  V30 3291 H 305.509 -2.04641 3.63218 0
M  V30 3292 H 304.169 -2.12162 2.45799 0
M  V30 3293 H 305.18 0.39797 5.16369 0
M  V30 3294 H 301.857 -1.7786 3.77719 0
M  V30 3295 H 303.247 1.08319 6.63111 0
M  V30 3296 N 305.967 -1.56429 0.191757 0
M  V30 3297 C 306.93 -2.17707 -0.716688 0
M  V30 3298 C 307.93 -1.13061 -1.14341 0
M  V30 3299 O 309.12 -1.38464 -1.05704 0
M  V30 3300 C 306.252 -2.77644 -1.97804 0
M  V30 3301 H 307.445 -2.99342 -0.1829 0
M  V30 3302 H 304.998 -1.56193 -0.0578566 0
M  V30 3303 H 305.733 -1.99799 -2.55443 0
M  V30 3304 H 305.518 -3.54246 -1.68083 0
M  V30 3305 H 307.008 -3.24708 -2.62592 0
M  V30 3306 N 307.445 0.0818655 -1.57387 0
M  V30 3307 C 308.692 0.782914 -1.86753 0
M  V30 3308 C 309.02 1.78082 -0.782118 0
M  V30 3309 O 308.275 1.94426 0.22295 0
M  V30 3310 C 308.574 1.53513 -3.22752 0
M  V30 3311 C 308.24 0.678134 -4.45771 0
M  V30 3312 C 306.902 0.441929 -4.79166 0
M  V30 3313 C 309.254 0.0832243 -5.21134 0
M  V30 3314 C 306.582 -0.398833 -5.85343 0
M  V30 3315 C 308.934 -0.744935 -6.28199 0
M  V30 3316 C 307.598 -0.991107 -6.60101 0
M  V30 3317 H 306.868 0.286489 -0.683378 0
M  V30 3318 H 309.515 0.0439808 -1.91449 0
M  V30 3319 H 307.82 2.34599 -3.138 0
M  V30 3320 H 309.517 2.08218 -3.42705 0
M  V30 3321 H 306.107 0.872357 -4.19628 0
M  V30 3322 H 310.291 0.252847 -4.95655 0
M  V30 3323 H 305.547 -0.598405 -6.08465 0
M  V30 3324 H 309.721 -1.21271 -6.8576 0
M  V30 3325 H 307.348 -1.64437 -7.42202 0
M  V30 3326 N 308.923 1.53595 0.353017 0
M  V30 3327 C 309.853 1.83902 1.43883 0
M  V30 3328 C 310.834 0.693421 1.55324 0
M  V30 3329 O 312.019 0.944452 1.69687 0
M  V30 3330 C 309.149 2.04016 2.8106 0
M  V30 3331 C 308.103 3.19814 2.84434 0
M  V30 3332 C 307.429 3.25244 4.24406 0
M  V30 3333 C 308.729 4.58133 2.50822 0
M  V30 3334 H 310.423 2.74835 1.1877 0
M  V30 3335 H 307.969 1.32242 0.569917 0
M  V30 3336 H 309.922 2.238 3.57059 0
M  V30 3337 H 308.646 1.09804 3.07588 0
M  V30 3338 H 307.305 2.9987 2.10887 0
M  V30 3339 H 306.953 2.28646 4.48029 0
M  V30 3340 H 306.653 4.03054 4.27576 0
M  V30 3341 H 308.177 3.47228 5.0226 0
M  V30 3342 H 309.591 4.77995 3.16534 0
M  V30 3343 H 307.988 5.38276 2.6529 0
M  V30 3344 H 309.058 4.62387 1.46034 0
M  V30 3345 N 310.401 -0.613514 1.45168 0
M  V30 3346 C 311.812 -1.19539 1.43413 0
M  V30 3347 C 312.163 -1.95558 0.158632 0
M  V30 3348 O 311.288 -2.0335 -0.740119 0
M  V30 3349 C 311.883 -2.17445 2.59813 0
M  V30 3350 C 310.442 -2.71022 2.61197 0
M  V30 3351 C 309.589 -1.46323 2.35552 0
M  V30 3352 H 312.54 -0.403163 1.53494 0
M  V30 3353 H 312.561 -3.00373 2.33574 0
M  V30 3354 H 312.073 -1.62089 3.52631 0
M  V30 3355 H 310.174 -3.30332 1.7237 0
M  V30 3356 H 310.287 -3.15859 3.60236 0
M  V30 3357 H 308.651 -1.75072 1.84992 0
M  V30 3358 H 309.434 -0.92844 3.30507 0
M  V30 3359 N 311.879 -1.3236 -0.855495 0
M  V30 3360 C 313.295 -1.11332 -1.14356 0
M  V30 3361 C 313.495 0.106751 -2.01217 0
M  V30 3362 O 312.551 0.791891 -2.39761 0
M  V30 3363 C 313.864 -2.39237 -1.82171 0
M  V30 3364 C 315.412 -2.44986 -1.9481 0
M  V30 3365 C 315.887 -3.7281 -2.66039 0
M  V30 3366 N 317.378 -3.73787 -2.73565 0
M  V30 3367 C 318.113 -4.69394 -3.29327 0
M  V30 3368 N 317.609 -5.75367 -3.85907 0
M  V30 3369 N 319.402 -4.56893 -3.27423 0
M  V30 3370 H 311.553 -2.10586 -0.277027 0
M  V30 3371 H 313.816 -0.929701 -0.185364 0
M  V30 3372 H 313.522 -3.28431 -1.25802 0
M  V30 3373 H 313.396 -2.50134 -2.82335 0
M  V30 3374 H 315.783 -1.56252 -2.50338 0
M  V30 3375 H 315.864 -2.38043 -0.936448 0
M  V30 3376 H 315.508 -4.61918 -2.11174 0
M  V30 3377 H 315.438 -3.77024 -3.67642 0
M  V30 3378 H 317.929 -2.97189 -2.33424 0
M  V30 3379 H 318.242 -6.44378 -4.26611 0
M  V30 3380 H 316.587 -5.79123 -3.84242 0
M  V30 3381 H 319.778 -3.73269 -2.82467 0
M  V30 3382 H 319.951 -5.31577 -3.7058 0
M  V30 3383 N 313.357 1.07166 -1.15556 0
M  V30 3384 C 314.773 1.31899 -0.898603 0
M  V30 3385 C 314.973 1.96333 0.453383 0
M  V30 3386 O 314.029 2.22438 1.19489 0
M  V30 3387 C 315.342 2.20826 -2.04099 0
M  V30 3388 C 316.89 2.34269 -2.07574 0
M  V30 3389 C 317.365 3.26546 -3.21141 0
M  V30 3390 N 318.856 3.34127 -3.20801 0
M  V30 3391 C 319.591 4.05595 -4.05315 0
M  V30 3392 N 319.087 4.79661 -4.99897 0
M  V30 3393 N 320.88 4.01555 -3.93332 0
M  V30 3394 H 313.031 0.637302 -2.02613 0
M  V30 3395 H 315.294 0.343468 -0.883591 0
M  V30 3396 H 315 1.80744 -3.01703 0
M  V30 3397 H 314.874 3.21364 -1.97496 0
M  V30 3398 H 317.261 2.73603 -1.10568 0
M  V30 3399 H 317.342 1.33429 -2.18244 0
M  V30 3400 H 316.986 2.87931 -4.184 0
M  V30 3401 H 316.916 4.27345 -3.07708 0
M  V30 3402 H 319.407 2.81336 -2.52306 0
M  V30 3403 H 319.72 5.31694 -5.60822 0
M  V30 3404 H 318.065 4.78671 -5.03884 0
M  V30 3405 H 321.256 3.42806 -3.18751 0
M  V30 3406 H 321.429 4.56987 -4.5942 0
M  V30 3407 N 314.835 0.952656 1.25548 0
M  V30 3408 C 316.083 0.605176 1.92826 0
M  V30 3409 C 316.404 -0.860261 1.74999 0
M  V30 3410 O 315.674 -1.6125 1.11244 0
M  V30 3411 H 314.254 0.220832 0.713612 0
M  V30 3412 H 316.916 1.21047 1.52754 0
M  V30 3413 H 316.012 0.832798 3.00784 0
M  V30 3414 N 316.313 -1.40141 0.720998 0
M  V30 3415 C 317.223 -2.34486 0.0731031 0
M  V30 3416 C 318.239 -1.57587 -0.737723 0
M  V30 3417 O 319.415 -1.89949 -0.669429 0
M  V30 3418 C 316.48 -3.36528 -0.833656 0
M  V30 3419 C 315.541 -4.29298 -0.0121673 0
M  V30 3420 C 314.774 -5.26466 -0.875742 0
M  V30 3421 O 314.997 -5.29745 -2.11485 0
M  V30 3422 O 313.931 -6.01092 -0.31185 0
M  V30 3423 H 317.757 -2.9152 0.851444 0
M  V30 3424 H 315.342 -1.41427 0.481527 0
M  V30 3425 H 317.224 -3.99093 -1.35289 0
M  V30 3426 H 315.899 -2.81899 -1.59105 0
M  V30 3427 H 314.806 -3.70001 0.552262 0
M  V30 3428 H 316.139 -4.87094 0.707129 0
M  V30 3429 N 317.792 -0.46758 -1.50504 0
M  V30 3430 C 318.755 0.317059 -2.26996 0
M  V30 3431 C 319.755 0.923513 -1.31635 0
M  V30 3432 O 320.945 0.793239 -1.55091 0
M  V30 3433 C 318.077 1.45134 -3.08462 0
M  V30 3434 H 319.27 -0.353723 -2.97807 0
M  V30 3435 H 316.823 -0.221545 -1.54722 0
M  V30 3436 H 317.558 2.15728 -2.4214 0
M  V30 3437 H 317.343 1.02232 -3.78538 0
M  V30 3438 H 318.833 2.00493 -3.66323 0
M  V30 3439 N 319.27 1.56325 -0.20005 0
M  V30 3440 C 320.22 2.15939 0.731743 0
M  V30 3441 C 321.204 1.10154 1.17281 0
M  V30 3442 O 322.396 1.36203 1.13038 0
M  V30 3443 C 319.525 2.82614 1.94895 0
M  V30 3444 C 318.611 3.95596 1.52855 0
M  V30 3445 N 319.002 4.99118 0.819418 0
M  V30 3446 C 317.3 4.07288 1.81748 0
M  V30 3447 C 318.001 5.78513 0.608053 0
M  V30 3448 N 316.977 5.31117 1.15828 0
M  V30 3449 H 320.779 2.9334 0.181285 0
M  V30 3450 H 318.293 1.624 -0.000452172 0
M  V30 3451 H 320.29 3.23718 2.62702 0
M  V30 3452 H 318.95 2.06702 2.50408 0
M  V30 3453 H 319.961 5.15723 0.47436 0
M  V30 3454 H 316.638 3.42509 2.38734 0
M  V30 3455 H 318.028 6.71885 0.0451619 0
M  V30 3456 N 320.748 -0.0735177 1.57428 0
M  V30 3457 C 321.995 -0.772999 1.87166 0
M  V30 3458 C 322.323 -1.77665 0.791551 0
M  V30 3459 O 321.578 -1.94541 -0.212636 0
M  V30 3460 C 321.877 -1.51799 3.23561 0
M  V30 3461 C 321.543 -0.654484 4.46125 0
M  V30 3462 C 320.205 -0.416511 4.79394 0
M  V30 3463 C 322.557 -0.0555862 5.2117 0
M  V30 3464 C 319.885 0.429869 5.85123 0
M  V30 3465 C 322.237 0.778239 6.27795 0
M  V30 3466 C 320.901 1.0261 6.59566 0
M  V30 3467 H 320.171 -0.282861 0.684888 0
M  V30 3468 H 322.818 -0.0338272 1.9147 0
M  V30 3469 H 321.123 -2.32932 3.1504 0
M  V30 3470 H 322.82 -2.06397 3.43804 0
M  V30 3471 H 319.41 -0.850091 4.20085 0
M  V30 3472 H 323.594 -0.226558 4.95783 0
M  V30 3473 H 318.85 0.630665 6.08139 0
M  V30 3474 H 323.024 1.24906 6.85107 0
M  V30 3475 H 320.651 1.68371 7.4132 0
M  V30 3476 N 322.226 -1.5378 -0.344866 0
M  V30 3477 C 323.503 -1.61589 -1.10219 0
M  V30 3478 C 323.883 -0.436316 -2.06542 0
M  V30 3479 O 323.231 0.571543 -2.21237 0
M  V30 3480 C 323.441 -2.97602 -1.82301 0
M  V30 3481 C 324.789 -3.5291 -2.36093 0
M  V30 3482 O 325.813 -2.99768 -1.924 0
M  V30 3483 O 324.672 -4.45859 -3.16026 0
M  V30 3484 H 321.766 -0.653522 -0.506792 0
M  V30 3485 H 324.312 -1.66126 -0.346465 0
M  V30 3486 H 323.084 -3.74893 -1.12121 0
M  V30 3487 H 322.707 -2.9665 -2.64735 0
M  V30 3488 N 323.704 0.605807 -1.45491 0
M  V30 3489 C 324.636 1.73031 -1.5031 0
M  V30 3490 C 325.649 1.57968 -0.393687 0
M  V30 3491 O 326.838 1.65817 -0.660839 0
M  V30 3492 C 323.938 3.11049 -1.34543 0
M  V30 3493 C 323.111 3.52334 -2.59189 0
M  V30 3494 C 322.17 4.69323 -2.37954 0
M  V30 3495 O 321.196 4.7635 -3.11575 0
M  V30 3496 N 322.398 5.62705 -1.4263 0
M  V30 3497 H 325.163 1.6936 -2.4726 0
M  V30 3498 H 322.724 0.79114 -1.41254 0
M  V30 3499 H 324.716 3.87071 -1.18144 0
M  V30 3500 H 323.286 3.09217 -0.458623 0
M  V30 3501 H 322.506 2.66256 -2.90691 0
M  V30 3502 H 323.794 3.76677 -3.42041 0
M  V30 3503 H 323.192 5.59744 -0.818758 0
M  V30 3504 H 321.749 6.38252 -1.32202 0
M  V30 3505 N 325.182 1.32811 0.848464 0
M  V30 3506 C 326.459 1.14334 1.58704 0
M  V30 3507 C 326.839 -0.293948 2.09043 0
M  V30 3508 O 326.187 -1.29153 1.88499 0
M  V30 3509 C 326.397 2.17626 2.72837 0
M  V30 3510 C 327.745 2.51282 3.42261 0
M  V30 3511 O 328.769 2.16219 2.83068 0
M  V30 3512 O 327.628 3.11413 4.49093 0
M  V30 3513 H 324.722 0.441601 0.699226 0
M  V30 3514 H 327.268 1.44362 0.892053 0
M  V30 3515 H 326.04 3.14211 2.3321 0
M  V30 3516 H 325.663 1.88628 3.50008 0
M  V30 3517 N 326.66 -1.06551 1.16123 0
M  V30 3518 C 327.57 -2.17484 0.879662 0
M  V30 3519 C 328.586 -1.73377 -0.147104 0
M  V30 3520 O 329.762 -2.01379 0.0289128 0
M  V30 3521 C 326.827 -3.44591 0.381829 0
M  V30 3522 C 325.888 -4.0322 1.4735 0
M  V30 3523 C 325.121 -5.24261 0.999324 0
M  V30 3524 O 325.344 -5.70198 -0.151957 0
M  V30 3525 O 324.278 -5.74775 1.78653 0
M  V30 3526 H 328.104 -2.44075 1.80724 0
M  V30 3527 H 325.689 -1.16042 0.940992 0
M  V30 3528 H 327.571 -4.21254 0.111053 0
M  V30 3529 H 326.246 -3.19532 -0.51777 0
M  V30 3530 H 325.153 -3.2806 1.79798 0
M  V30 3531 H 326.486 -4.32568 2.34831 0
M  V30 3532 N 328.138 -0.959301 -1.25041 0
M  V30 3533 C 329.554 -0.664474 -1.4511 0
M  V30 3534 C 329.754 0.776481 -1.85938 0
M  V30 3535 O 328.81 1.55128 -1.99227 0
M  V30 3536 C 330.123 -1.64139 -2.5195 0
M  V30 3537 C 331.671 -1.65309 -2.65786 0
M  V30 3538 C 332.146 -2.61777 -3.75815 0
M  V30 3539 N 333.637 -2.60169 -3.83231 0
M  V30 3540 C 334.372 -3.31489 -4.6787 0
M  V30 3541 N 333.868 -4.12298 -5.56761 0
M  V30 3542 N 335.661 -3.20354 -4.61876 0
M  V30 3543 H 327.812 -1.89043 -0.968332 0
M  V30 3544 H 330.075 -0.813408 -0.4869 0
M  V30 3545 H 329.781 -2.67086 -2.28819 0
M  V30 3546 H 329.655 -1.40756 -3.49954 0
M  V30 3547 H 332.042 -0.630778 -2.8828 0
M  V30 3548 H 332.123 -1.92753 -1.68167 0
M  V30 3549 H 331.767 -3.64137 -3.54071 0
M  V30 3550 H 331.697 -2.31616 -4.72929 0
M  V30 3551 H 334.188 -2.01507 -3.19692 0
M  V30 3552 H 334.501 -4.63625 -6.18281 0
M  V30 3553 H 332.846 -4.16395 -5.56454 0
M  V30 3554 H 336.037 -2.56692 -3.91442 0
M  V30 3555 H 336.21 -3.76201 -5.27614 0
M  V30 3556 N 329.616 1.39756 -0.72842 0
M  V30 3557 C 330.862 2.01425 -0.282761 0
M  V30 3558 C 331.217 1.56754 1.11561 0
M  V30 3559 O 330.51 0.783482 1.74849 0
M  V30 3560 C 330.704 3.56002 -0.315776 0
M  V30 3561 C 330.533 4.1568 -1.71582 0
M  V30 3562 C 329.303 4.48555 -2.32651 0
M  V30 3563 C 331.501 4.39667 -2.66829 0
M  V30 3564 N 329.483 4.93698 -3.64877 0
M  V30 3565 C 330.854 4.86942 -3.8378 0
M  V30 3566 C 332.909 4.21724 -2.64675 0
M  V30 3567 C 331.612 5.18158 -4.98904 0
M  V30 3568 C 333.638 4.54049 -3.78937 0
M  V30 3569 C 333 5.01525 -4.94623 0
M  V30 3570 H 329.099 0.76756 -0.149583 0
M  V30 3571 H 331.683 1.69784 -0.952976 0
M  V30 3572 H 329.854 3.87046 0.324057 0
M  V30 3573 H 331.586 4.0443 0.147808 0
M  V30 3574 H 328.341 4.36128 -1.84633 0
M  V30 3575 H 328.765 5.20635 -4.32744 0
M  V30 3576 H 333.407 3.84228 -1.76433 0
M  V30 3577 H 331.125 5.54562 -5.87781 0
M  V30 3578 H 334.711 4.41795 -3.78561 0
M  V30 3579 H 333.591 5.26065 -5.81572 0
M  V30 3580 N 331.094 0.475555 1.50254 0
M  V30 3581 C 332.319 -0.0777042 2.07254 0
M  V30 3582 C 332.744 -1.3235 1.3366 0
M  V30 3583 O 332.102 -1.77152 0.385597 0
M  V30 3584 C 332.15 -0.340169 3.58992 0
M  V30 3585 O 331.254 -1.41982 3.87188 0
M  V30 3586 H 330.595 0.0149556 0.663832 0
M  V30 3587 H 333.125 0.667878 1.93392 0
M  V30 3588 H 333.135 -0.579332 4.03866 0
M  V30 3589 H 331.81 0.570167 4.11973 0
M  V30 3590 H 330.387 -1.16762 3.54148 0
M  V30 3591 N 332.573 -1.56217 0.208337 0
M  V30 3592 C 333.503 -2.22694 -0.702116 0
M  V30 3593 C 334.484 -1.19432 -1.2112 0
M  V30 3594 O 335.669 -1.47978 -1.25762 0
M  V30 3595 C 332.799 -2.8966 -1.9161 0
M  V30 3596 C 331.753 -3.9928 -1.5414 0
M  V30 3597 C 331.079 -4.53476 -2.83308 0
M  V30 3598 C 332.379 -5.17012 -0.741339 0
M  V30 3599 H 334.073 -2.99034 -0.147898 0
M  V30 3600 H 331.619 -1.43831 -0.0696951 0
M  V30 3601 H 333.572 -3.34852 -2.55836 0
M  V30 3602 H 332.296 -2.10746 -2.49507 0
M  V30 3603 H 330.955 -3.54799 -0.922668 0
M  V30 3604 H 330.603 -3.71308 -3.39322 0
M  V30 3605 H 330.303 -5.27451 -2.58976 0
M  V30 3606 H 331.827 -5.01378 -3.485 0
M  V30 3607 H 333.241 -5.58667 -1.28699 0
M  V30 3608 H 331.638 -5.97137 -0.595627 0
M  V30 3609 H 332.708 -4.8423 0.254851 0
M  V30 3610 N 334.051 0.0651679 -1.57465 0
M  V30 3611 C 335.276 0.779605 -1.9219 0
M  V30 3612 C 335.701 1.69988 -0.805333 0
M  V30 3613 O 335.059 1.79685 0.241435 0
M  V30 3614 C 335.107 1.54364 -3.2589 0
M  V30 3615 O 334.211 2.65474 -3.1559 0
M  V30 3616 H 333.552 0.212249 -0.629163 0
M  V30 3617 H 336.082 0.0314294 -2.04576 0
M  V30 3618 H 336.092 1.92146 -3.59922 0
M  V30 3619 H 334.767 0.868457 -4.06732 0
M  V30 3620 H 333.344 2.30501 -2.93128 0
M  V30 3621 N 335.529 1.53961 0.336706 0
M  V30 3622 C 336.945 1.44378 0.680241 0
M  V30 3623 C 337.145 0.606034 1.9217 0
M  V30 3624 O 336.201 0.099688 2.52303 0
M  V30 3625 C 337.514 2.87945 0.8665 0
M  V30 3626 C 339.062 2.97763 0.964682 0
M  V30 3627 C 339.537 4.42453 1.18321 0
M  V30 3628 N 341.028 4.46008 1.25025 0
M  V30 3629 C 341.763 5.55102 1.43697 0
M  V30 3630 N 341.259 6.7419 1.59498 0
M  V30 3631 N 343.052 5.42727 1.463 0
M  V30 3632 H 335.203 2.06918 -0.479455 0
M  V30 3633 H 337.466 0.935634 -0.152619 0
M  V30 3634 H 337.172 3.51691 0.0256937 0
M  V30 3635 H 337.046 3.33293 1.76623 0
M  V30 3636 H 339.433 2.34153 1.796 0
M  V30 3637 H 339.514 2.55766 0.041708 0
M  V30 3638 H 339.158 5.06645 0.356788 0
M  V30 3639 H 339.088 4.82048 2.11985 0
M  V30 3640 H 341.579 3.60196 1.14312 0
M  V30 3641 H 341.892 7.53095 1.734 0
M  V30 3642 H 340.237 6.77123 1.56621 0
M  V30 3643 H 343.428 4.48647 1.33543 0
M  V30 3644 H 343.601 6.27806 1.6051 0
M  V30 3645 N 337.007 -0.598083 1.45811 0
M  V30 3646 C 338.423 -0.919847 1.30426 0
M  V30 3647 C 338.623 -1.99759 0.264303 0
M  V30 3648 O 337.679 -2.50221 -0.338472 0
M  V30 3649 C 338.992 -1.35176 2.68603 0
M  V30 3650 C 340.54 -1.46546 2.76574 0
M  V30 3651 C 341.015 -1.9311 4.15298 0
M  V30 3652 N 342.506 -2.00328 4.1764 0
M  V30 3653 C 343.241 -2.37599 5.21856 0
M  V30 3654 N 342.737 -2.73771 6.36413 0
M  V30 3655 N 344.53 -2.38021 5.09218 0
M  V30 3656 H 336.681 0.114111 2.12093 0
M  V30 3657 H 338.944 -0.0116121 0.947929 0
M  V30 3658 H 338.65 -0.633969 3.45939 0
M  V30 3659 H 338.524 -2.3164 2.97696 0
M  V30 3660 H 340.911 -2.17415 1.99537 0
M  V30 3661 H 340.992 -0.483727 2.51185 0
M  V30 3662 H 340.636 -1.22824 4.92825 0
M  V30 3663 H 340.566 -2.92213 4.38086 0
M  V30 3664 H 343.057 -1.74925 3.34977 0
M  V30 3665 H 343.37 -3.0112 7.11721 0
M  V30 3666 H 341.715 -2.71445 6.39799 0
M  V30 3667 H 344.906 -2.09174 4.18765 0
M  V30 3668 H 345.079 -2.66741 5.90554 0
M  V30 3669 N 338.485 -1.33259 -0.841409 0
M  V30 3670 C 339.901 -1.12538 -1.13169 0
M  V30 3671 C 340.101 0.0854037 -2.01319 0
M  V30 3672 O 339.157 0.766417 -2.40587 0
M  V30 3673 C 340.47 -2.41156 -1.79623 0
M  V30 3674 C 342.018 -2.47038 -1.922 0
M  V30 3675 C 342.493 -3.7561 -2.6207 0
M  V30 3676 N 343.984 -3.76667 -2.69585 0
M  V30 3677 C 344.719 -4.72861 -3.2433 0
M  V30 3678 N 344.215 -5.79428 -3.79783 0
M  V30 3679 N 346.008 -4.6034 -3.22558 0
M  V30 3680 H 338.159 -2.10868 -0.254676 0
M  V30 3681 H 340.422 -0.931615 -0.175493 0
M  V30 3682 H 340.128 -3.29747 -1.22311 0
M  V30 3683 H 340.002 -2.53114 -2.79666 0
M  V30 3684 H 342.389 -1.58898 -2.48667 0
M  V30 3685 H 342.47 -2.39022 -0.911148 0
M  V30 3686 H 342.114 -4.64131 -2.06263 0
M  V30 3687 H 342.044 -3.80902 -3.63622 0
M  V30 3688 H 344.535 -2.99648 -2.30259 0
M  V30 3689 H 344.848 -6.48867 -4.19752 0
M  V30 3690 H 343.193 -5.83166 -3.78078 0
M  V30 3691 H 346.384 -3.76244 -2.78492 0
M  V30 3692 H 346.557 -5.35478 -3.64921 0
M  V30 3693 N 339.963 1.05934 -1.16686 0
M  V30 3694 C 341.211 1.78447 -0.948744 0
M  V30 3695 C 341.532 1.87813 0.524523 0
M  V30 3696 O 340.802 1.38945 1.38098 0
M  V30 3697 H 339.382 0.660971 -0.348033 0
M  V30 3698 H 342.044 1.27947 -1.47022 0
M  V30 3699 H 341.14 2.80394 -1.37061 0
M  V30 3700 N 341.441 0.965919 1.2453 0
M  V30 3701 C 342.857 0.67216 1.44756 0
M  V30 3702 C 343.057 -0.766609 1.86347 0
M  V30 3703 O 342.113 -1.5407 2.00047 0
M  V30 3704 C 343.426 1.65473 2.51076 0
M  V30 3705 C 344.974 1.66716 2.64905 0
M  V30 3706 C 345.449 2.63766 3.74421 0
M  V30 3707 N 346.94 2.62198 3.81846 0
M  V30 3708 C 347.675 3.33966 4.66106 0
M  V30 3709 N 347.171 4.15245 5.54566 0
M  V30 3710 N 348.964 3.22799 4.60171 0
M  V30 3711 H 341.115 1.89553 0.958293 0
M  V30 3712 H 343.378 0.815979 0.482579 0
M  V30 3713 H 343.084 2.68296 2.27399 0
M  V30 3714 H 342.958 1.4261 3.49202 0
M  V30 3715 H 345.345 0.646057 2.87941 0
M  V30 3716 H 345.426 1.93642 1.67142 0
M  V30 3717 H 345.07 3.6601 3.52135 0
M  V30 3718 H 345 2.34121 4.71694 0
M  V30 3719 H 347.491 2.032 3.18619 0
M  V30 3720 H 347.804 4.66898 6.15814 0
M  V30 3721 H 346.149 4.1934 5.54237 0
M  V30 3722 H 349.34 2.58764 3.90075 0
M  V30 3723 H 349.513 3.78994 5.25612 0
M  V30 3724 N 342.919 -1.39368 0.735821 0
M  V30 3725 C 343.867 -2.32443 0.0855131 0
M  V30 3726 C 344.861 -1.53104 -0.724954 0
M  V30 3727 O 346.067 -1.68762 -0.626047 0
M  V30 3728 H 342.442 -0.751948 0.00885257 0
M  V30 3729 H 344.413 -2.84916 0.886883 0
M  V30 3730 C 343.162 -3.38206 -0.806983 0
M  V30 3731 H 342.485 -3.99335 -0.19274 0
M  V30 3732 H 343.925 -4.05779 -1.2296 0
M  V30 3733 C 342.384 -2.75321 -1.94165 0
M  V30 3734 O 342.914 -2.63231 -3.03435 0
M  V30 3735 N 341.12 -2.33396 -1.73132 0
M  V30 3736 H 340.667 -2.4343 -0.842596 0
M  V30 3737 H 340.625 -1.91661 -2.49225 0
M  V30 3738 N 344.397 -0.483516 -1.5 0
M  V30 3739 C 345.327 0.293829 -2.31644 0
M  V30 3740 C 346.308 0.978864 -1.39112 0
M  V30 3741 O 347.493 0.973644 -1.68029 0
M  V30 3742 C 344.623 1.36897 -3.19181 0
M  V30 3743 C 343.577 0.804833 -4.20365 0
M  V30 3744 C 342.903 1.9792 -4.96721 0
M  V30 3745 C 344.203 -0.192313 -5.21946 0
M  V30 3746 H 345.897 -0.387616 -2.9688 0
M  V30 3747 H 343.443 -0.187856 -1.42769 0
M  V30 3748 H 345.396 1.92037 -3.751 0
M  V30 3749 H 344.12 2.07936 -2.51853 0
M  V30 3750 H 342.779 0.275319 -3.65565 0
M  V30 3751 H 342.427 2.67686 -4.25856 0
M  V30 3752 H 342.127 1.60789 -5.65173 0
M  V30 3753 H 343.651 2.53526 -5.55479 0
M  V30 3754 H 345.065 0.270333 -5.72662 0
M  V30 3755 H 343.462 -0.478543 -5.98189 0
M  V30 3756 H 344.532 -1.11409 -4.71928 0
M  V30 3757 N 345.875 1.56104 -0.216619 0
M  V30 3758 C 347.122 1.98172 0.416416 0
M  V30 3759 C 347.45 1.10413 1.60122 0
M  V30 3760 O 346.705 0.147967 1.9514 0
M  V30 3761 C 347.004 3.45923 0.898464 0
M  V30 3762 C 346.67 4.50559 -0.175288 0
M  V30 3763 C 345.332 4.78897 -0.470271 0
M  V30 3764 C 347.684 5.1334 -0.901728 0
M  V30 3765 C 345.012 5.67299 -1.4963 0
M  V30 3766 C 347.364 6.02853 -1.91705 0
M  V30 3767 C 346.028 6.29537 -2.21901 0
M  V30 3768 H 345.298 0.725164 0.152377 0
M  V30 3769 H 347.945 1.88839 -0.318103 0
M  V30 3770 H 346.25 3.52434 1.71165 0
M  V30 3771 H 347.947 3.75841 1.39803 0
M  V30 3772 H 344.537 4.28551 0.0647806 0
M  V30 3773 H 348.721 4.91521 -0.687072 0
M  V30 3774 H 343.977 5.86239 -1.73592 0
M  V30 3775 H 348.151 6.50552 -2.48505 0
M  V30 3776 H 345.778 6.97835 -3.01548 0
M  V30 3777 N 347.353 -0.0568162 1.57498 0
M  V30 3778 C 348.599 -0.75422 1.88253 0
M  V30 3779 C 348.932 -1.76461 0.810865 0
M  V30 3780 O 348.207 -1.93691 -0.177259 0
M  V30 3781 C 348.49 -1.44878 3.2967 0
M  V30 3782 C 348.343 -0.453789 4.47505 0
M  V30 3783 C 349.662 -2.38994 3.69554 0
M  V30 3784 H 346.781 -0.272724 0.684683 0
M  V30 3785 H 349.423 -0.0172113 1.89992 0
M  V30 3786 H 347.573 -2.077 3.28318 0
M  V30 3787 H 349.245 0.170371 4.60985 0
M  V30 3788 H 347.488 0.229552 4.33192 0
M  V30 3789 H 348.159 -0.977699 5.43273 0
M  V30 3790 H 350.635 -1.86239 3.72095 0
M  V30 3791 H 349.511 -2.84587 4.69363 0
M  V30 3792 H 349.772 -3.24461 3.00296 0
M  V30 3793 N 348.832 -1.54138 -0.328536 0
M  V30 3794 C 350.078 -1.7236 -1.06865 0
M  V30 3795 C 350.411 -0.493231 -1.87832 0
M  V30 3796 O 349.686 0.5098 -1.877 0
M  V30 3797 C 349.969 -2.99621 -1.99747 0
M  V30 3798 C 349.822 -4.32899 -1.22143 0
M  V30 3799 C 351.141 -3.22615 -2.99345 0
M  V30 3800 H 348.26 -0.627151 -0.387105 0
M  V30 3801 H 350.902 -1.86827 -0.345767 0
M  V30 3802 H 349.052 -2.87418 -2.61387 0
M  V30 3803 H 350.724 -4.56978 -0.630017 0
M  V30 3804 H 348.967 -4.30628 -0.523628 0
M  V30 3805 H 349.638 -5.18154 -1.90318 0
M  V30 3806 H 352.114 -3.34248 -2.47826 0
M  V30 3807 H 350.99 -4.13027 -3.61524 0
M  V30 3808 H 351.251 -2.3961 -3.71536 0
M  V30 3809 N 350.31 0.590341 -1.46126 0
M  V30 3810 C 351.24 1.71032 -1.58966 0
M  V30 3811 C 352.221 1.64302 -0.440335 0
M  V30 3812 O 353.406 1.82436 -0.665634 0
M  V30 3813 C 350.536 3.09665 -1.57241 0
M  V30 3814 C 349.49 3.31221 -2.71066 0
M  V30 3815 C 348.816 4.70303 -2.54399 0
M  V30 3816 C 350.116 3.19796 -4.1295 0
M  V30 3817 H 351.81 1.60543 -2.52718 0
M  V30 3818 H 349.356 0.770933 -1.21625 0
M  V30 3819 H 351.309 3.87831 -1.64819 0
M  V30 3820 H 350.033 3.21036 -0.600289 0
M  V30 3821 H 348.692 2.55452 -2.62944 0
M  V30 3822 H 348.34 4.78429 -1.55288 0
M  V30 3823 H 348.04 4.85679 -3.30741 0
M  V30 3824 H 349.564 5.50647 -2.63857 0
M  V30 3825 H 350.978 3.87815 -4.22223 0
M  V30 3826 H 349.375 3.46696 -4.89818 0
M  V30 3827 H 350.445 2.16983 -4.33643 0
M  V30 3828 N 351.788 1.33704 0.83433 0
M  V30 3829 C 352.751 1.24244 1.92603 0
M  V30 3830 C 353.751 0.160383 1.59998 0
M  V30 3831 O 354.941 0.412228 1.69252 0
M  V30 3832 C 352.073 0.91555 3.28376 0
M  V30 3833 H 353.266 2.21287 2.02416 0
M  V30 3834 H 350.819 1.17827 1.02696 0
M  V30 3835 H 351.554 -0.0521886 3.24258 0
M  V30 3836 H 351.339 1.69811 3.53422 0
M  V30 3837 H 352.829 0.874231 4.08347 0
M  V30 3838 N 353.266 -1.05314 1.17247 0
M  V30 3839 C 354.216 -2.11313 0.856196 0
M  V30 3840 C 355.2 -1.60013 -0.168694 0
M  V30 3841 O 356.392 -1.76968 0.0335624 0
M  V30 3842 C 353.521 -3.41301 0.369917 0
M  V30 3843 C 352.607 -3.99401 1.42616 0
M  V30 3844 N 352.998 -4.31481 2.63928 0
M  V30 3845 C 351.296 -4.27126 1.28373 0
M  V30 3846 C 351.997 -4.77799 3.31787 0
M  V30 3847 N 350.973 -4.77843 2.59166 0
M  V30 3848 H 354.775 -2.33976 1.77856 0
M  V30 3849 H 352.289 -1.2295 1.06099 0
M  V30 3850 H 354.286 -4.16713 0.124897 0
M  V30 3851 H 352.946 -3.20072 -0.546253 0
M  V30 3852 H 353.957 -4.21519 3.00902 0
M  V30 3853 H 350.634 -4.15289 0.429111 0
M  V30 3854 H 352.024 -5.11743 4.35395 0
M  V30 3855 N 354.744 -0.972509 -1.24016 0
M  V30 3856 C 355.654 -0.5143 -2.28893 0
M  V30 3857 C 356.67 0.427078 -1.68677 0
M  V30 3858 O 357.846 0.298939 -1.99169 0
M  V30 3859 C 354.911 0.183598 -3.46214 0
M  V30 3860 C 353.972 -0.798202 -4.21814 0
M  V30 3861 C 353.205 -0.133514 -5.33533 0
M  V30 3862 O 353.428 1.07714 -5.60137 0
M  V30 3863 O 352.362 -0.828103 -5.96176 0
M  V30 3864 H 356.188 -1.38629 -2.70214 0
M  V30 3865 H 353.773 -0.739769 -1.29799 0
M  V30 3866 H 355.655 0.575433 -4.17453 0
M  V30 3867 H 354.33 1.03048 -3.0686 0
M  V30 3868 H 353.237 -1.24059 -3.52931 0
M  V30 3869 H 354.57 -1.61364 -4.64997 0
M  V30 3870 N 356.222 1.38976 -0.743202 0
M  V30 3871 C 357.471 1.99581 -0.291592 0
M  V30 3872 C 357.784 1.59656 1.13001 0
M  V30 3873 O 358.99 2.13157 1.68156 0
M  V30 3874 C 357.446 3.56813 -0.470391 0
M  V30 3875 C 357.054 4.05695 -1.90041 0
M  V30 3876 C 358.798 4.24423 -0.0809709 0
M  V30 3877 C 356.705 5.5553 -2.02832 0
M  V30 3878 H 355.635 0.746615 -0.105272 0
M  V30 3879 H 358.286 1.58872 -0.918258 0
M  V30 3880 H 356.668 3.95359 0.225299 0
M  V30 3881 H 357.842 3.78464 -2.62872 0
M  V30 3882 H 356.157 3.50775 -2.24379 0
M  V30 3883 H 358.754 5.34474 -0.155445 0
M  V30 3884 H 359.097 4.04962 0.96497 0
M  V30 3885 H 359.63 3.9108 -0.728124 0
M  V30 3886 H 356.369 5.79881 -3.05643 0
M  V30 3887 H 355.889 5.84537 -1.34448 0
M  V30 3888 H 357.568 6.21069 -1.81335 0
M  V30 3889 N 357.7 0.491464 1.49741 0
M  V30 3890 C 358.948 -0.0563141 2.02022 0
M  V30 3891 C 359.269 -1.38363 1.37407 0
M  V30 3892 O 358.539 -1.88702 0.526166 0
M  V30 3893 H 357.119 -0.0238014 0.746621 0
M  V30 3894 H 359.781 0.646533 1.83864 0
M  V30 3895 H 358.877 -0.192967 3.11503 0
M  V30 3896 N 359.178 -1.55987 0.224894 0
M  V30 3897 C 360.128 -2.17076 -0.697296 0
M  V30 3898 C 361.112 -1.12006 -1.15514 0
M  V30 3899 O 362.304 -1.37985 -1.10857 0
M  V30 3900 C 359.433 -2.85679 -1.90374 0
M  V30 3901 C 358.519 -3.97977 -1.46543 0
M  V30 3902 N 358.91 -5.00359 -0.739909 0
M  V30 3903 C 357.208 -4.10128 -1.75245 0
M  V30 3904 C 357.909 -5.79407 -0.515939 0
M  V30 3905 N 356.885 -5.32892 -1.07364 0
M  V30 3906 H 360.687 -2.93592 -0.134594 0
M  V30 3907 H 358.201 -1.62379 0.0262885 0
M  V30 3908 H 360.198 -3.27857 -2.57518 0
M  V30 3909 H 358.858 -2.1066 -2.47088 0
M  V30 3910 H 359.869 -5.16412 -0.392253 0
M  V30 3911 H 356.546 -3.46263 -2.33255 0
M  V30 3912 H 357.936 -6.71872 0.0617349 0
M  V30 3913 N 360.656 0.0484629 -1.57525 0
M  V30 3914 C 361.884 0.755421 -1.92616 0
M  V30 3915 C 362.299 1.69919 -0.822984 0
M  V30 3916 O 361.656 1.81378 0.202085 0
M  V30 3917 C 361.707 1.52915 -3.27566 0
M  V30 3918 O 361.428 0.62329 -4.33644 0
M  V30 3919 C 362.929 2.33502 -3.76818 0
M  V30 3920 H 360.149 0.213465 -0.63614 0
M  V30 3921 H 362.693 0.0117698 -2.04497 0
M  V30 3922 H 360.848 2.22486 -3.17142 0
M  V30 3923 H 361.262 1.16383 -5.11425 0
M  V30 3924 H 362.736 2.83214 -4.73808 0
M  V30 3925 H 363.213 3.14068 -3.07014 0
M  V30 3926 H 363.819 1.69043 -3.90262 0
M  V30 3927 N 362.134 1.5431 0.320358 0
M  V30 3928 C 363.064 1.86912 1.3995 0
M  V30 3929 C 364.045 0.726211 1.53819 0
M  V30 3930 O 365.23 0.980233 1.67646 0
M  V30 3931 C 362.36 2.09932 2.7667 0
M  V30 3932 C 361.314 3.25776 2.77586 0
M  V30 3933 C 360.64 3.34173 4.17412 0
M  V30 3934 C 361.94 4.6335 2.41048 0
M  V30 3935 H 363.634 2.77292 1.12914 0
M  V30 3936 H 361.18 1.33421 0.541738 0
M  V30 3937 H 363.133 2.31324 3.52232 0
M  V30 3938 H 361.857 1.16304 3.0519 0
M  V30 3939 H 360.516 3.04276 2.04479 0
M  V30 3940 H 360.164 2.38098 4.43078 0
M  V30 3941 H 359.864 4.12033 4.18931 0
M  V30 3942 H 361.388 3.57803 4.94782 0
M  V30 3943 H 362.802 4.84602 3.06324 0
M  V30 3944 H 361.199 5.43782 2.53813 0
M  V30 3945 H 362.269 4.65381 1.36193 0
M  V30 3946 N 363.613 -0.582584 1.46437 0
M  V30 3947 C 364.861 -1.33814 1.51453 0
M  V30 3948 C 365.182 -1.94277 0.167792 0
M  V30 3949 O 364.452 -1.78566 -0.805677 0
M  V30 3950 H 363.032 -0.496838 0.557818 0
M  V30 3951 H 365.694 -0.682281 1.82568 0
M  V30 3952 H 364.79 -2.14479 2.26728 0
M  V30 3953 N 365.091 -1.34144 -0.827227 0
M  V30 3954 C 366.021 -1.28005 -1.95287 0
M  V30 3955 C 367.002 -0.158321 -1.69362 0
M  V30 3956 O 368.187 -0.349987 -1.9102 0
M  V30 3957 C 365.317 -1.03036 -3.31664 0
M  V30 3958 C 364.271 -2.11628 -3.72019 0
M  V30 3959 C 363.597 -1.71854 -5.0633 0
M  V30 3960 C 364.897 -3.53417 -3.8457 0
M  V30 3961 H 366.591 -2.22187 -2.00682 0
M  V30 3962 H 364.137 -1.0696 -0.964135 0
M  V30 3963 H 366.09 -0.973863 -4.09993 0
M  V30 3964 H 364.814 -0.0529391 -3.26557 0
M  V30 3965 H 363.473 -2.16339 -2.95961 0
M  V30 3966 H 363.121 -0.727841 -4.97706 0
M  V30 3967 H 362.821 -2.44531 -5.34302 0
M  V30 3968 H 364.345 -1.67692 -5.87122 0
M  V30 3969 H 365.759 -3.51142 -4.5318 0
M  V30 3970 H 364.156 -4.24679 -4.2399 0
M  V30 3971 H 365.226 -3.91072 -2.86689 0
M  V30 3972 N 366.569 1.04691 -1.17803 0
M  V30 3973 C 367.797 1.81446 -0.99423 0
M  V30 3974 C 368.212 1.83174 0.457459 0
M  V30 3975 O 367.569 1.26265 1.31771 0
M  V30 3976 C 367.62 3.27334 -1.5341 0
M  V30 3977 O 367.341 3.25798 -2.92895 0
M  V30 3978 C 368.842 4.20759 -1.39559 0
M  V30 3979 H 366.062 0.571599 -0.351447 0
M  V30 3980 H 368.606 1.31982 -1.56208 0
M  V30 3981 H 366.761 3.74052 -1.00815 0
M  V30 3982 H 367.175 4.17144 -3.17949 0
M  V30 3983 H 368.649 5.21084 -1.82141 0
M  V30 3984 H 369.126 4.37856 -0.343394 0
M  V30 3985 H 369.732 3.79901 -1.91195 0
M  V30 3986 N 368.047 0.979072 1.23499 0
M  V30 3987 C 368.997 0.489378 2.22686 0
M  V30 3988 C 369.981 -0.434871 1.54912 0
M  V30 3989 O 371.173 -0.263941 1.75021 0
M  V30 3990 C 368.302 -0.208178 3.42668 0
M  V30 3991 C 367.388 0.735563 4.17672 0
M  V30 3992 N 367.779 1.87763 4.69658 0
M  V30 3993 C 366.077 0.548625 4.42613 0
M  V30 3994 C 366.778 2.46886 5.26709 0
M  V30 3995 N 365.754 1.75287 5.14563 0
M  V30 3996 H 369.556 1.36062 2.60508 0
M  V30 3997 H 367.07 0.83958 1.39014 0
M  V30 3998 H 369.067 -0.576295 4.12898 0
M  V30 3999 H 367.727 -1.07572 3.06363 0
M  V30 4000 H 368.738 2.25885 4.66043 0
M  V30 4001 H 365.415 -0.274006 4.166 0
M  V30 4002 H 366.805 3.43326 5.77561 0
M  V30 4003 N 369.525 -1.3858 0.750561 0
M  V30 4004 C 370.75 -2.04997 0.314812 0
M  V30 4005 C 371.175 -1.56235 -1.04749 0
M  V30 4006 O 370.533 -0.712981 -1.66692 0
M  V30 4007 C 370.581 -3.58961 0.343415 0
M  V30 4008 O 369.685 -4.07025 -0.663628 0
M  V30 4009 H 369.026 -0.649081 0.139962 0
M  V30 4010 H 371.556 -1.77313 1.02084 0
M  V30 4011 H 371.566 -4.07542 0.193233 0
M  V30 4012 H 370.241 -3.93811 1.33738 0
M  V30 4013 H 368.818 -3.6982 -0.478307 0
M  V30 4014 N 371.003 -0.499398 -1.49478 0
M  V30 4015 C 372.414 -0.051215 -1.8663 0
M  V30 4016 C 372.765 1.36238 -1.41186 0
M  V30 4017 O 371.89 2.01502 -0.789051 0
M  V30 4018 C 372.485 -0.0861651 -3.3869 0
M  V30 4019 C 371.044 0.30667 -3.75149 0
M  V30 4020 C 370.191 -0.459397 -2.73468 0
M  V30 4021 H 373.142 -0.712264 -1.41818 0
M  V30 4022 H 373.163 0.709507 -3.73826 0
M  V30 4023 H 372.675 -1.11512 -3.71735 0
M  V30 4024 H 370.776 1.33892 -3.47712 0
M  V30 4025 H 370.889 -0.0116669 -4.79099 0
M  V30 4026 H 369.253 0.0905645 -2.54539 0
M  V30 4027 H 370.036 -1.4884 -3.09357 0
M  V30 4028 N 372.481 1.55866 -0.233164 0
M  V30 4029 C 373.444 2.1953 0.658715 0
M  V30 4030 C 374.444 1.16053 1.11303 0
M  V30 4031 O 375.634 1.41218 1.01996 0
M  V30 4032 C 372.766 2.82791 1.90373 0
M  V30 4033 H 373.959 2.99721 0.10347 0
M  V30 4034 H 371.512 1.56291 0.0164245 0
M  V30 4035 H 372.247 2.06501 2.50056 0
M  V30 4036 H 372.032 3.58578 1.58632 0
M  V30 4037 H 373.522 3.31556 2.53891 0
M  V30 4038 N 373.959 -0.0401083 1.57549 0
M  V30 4039 C 375.37 -0.588097 1.77196 0
M  V30 4040 C 375.721 -1.76209 0.862832 0
M  V30 4041 O 374.846 -2.16331 0.0548389 0
M  V30 4042 C 375.441 -1.07363 3.21339 0
M  V30 4043 C 374 -1.56723 3.42221 0
M  V30 4044 C 373.147 -0.50041 2.72747 0
M  V30 4045 H 376.098 0.186119 1.57605 0
M  V30 4046 H 376.119 -1.94143 3.27244 0
M  V30 4047 H 375.631 -0.218975 3.87482 0
M  V30 4048 H 373.732 -2.4441 2.81237 0
M  V30 4049 H 373.845 -1.62234 4.50796 0
M  V30 4050 H 372.209 -0.952894 2.36203 0
M  V30 4051 H 372.992 0.344599 3.41566 0
M  V30 4052 N 375.437 -1.54477 -0.31217 0
M  V30 4053 C 376.853 -1.45442 -0.657185 0
M  V30 4054 C 377.053 -0.63653 -1.91182 0
M  V30 4055 O 376.109 -0.139815 -2.52113 0
M  V30 4056 C 377.422 -2.89287 -0.82058 0
M  V30 4057 C 378.97 -2.9926 -0.917188 0
M  V30 4058 C 379.445 -4.44279 -1.11267 0
M  V30 4059 N 380.936 -4.4794 -1.17914 0
M  V30 4060 C 381.671 -5.57318 -1.34848 0
M  V30 4061 N 381.167 -6.76642 -1.48752 0
M  V30 4062 N 382.96 -5.44986 -1.37647 0
M  V30 4063 H 375.111 -2.06129 0.512313 0
M  V30 4064 H 377.374 -0.933088 0.167485 0
M  V30 4065 H 377.08 -3.51687 0.0302604 0
M  V30 4066 H 376.954 -3.36061 -1.71298 0
M  V30 4067 H 379.341 -2.36981 -1.75852 0
M  V30 4068 H 379.422 -2.558 -0.00101257 0
M  V30 4069 H 379.066 -5.07149 -0.27614 0
M  V30 4070 H 378.996 -4.85359 -2.04289 0
M  V30 4071 H 381.487 -3.61969 -1.08567 0
M  V30 4072 H 381.8 -7.55758 -1.61397 0
M  V30 4073 H 380.145 -6.79529 -1.45828 0
M  V30 4074 H 383.336 -4.50715 -1.26388 0
M  V30 4075 H 383.509 -6.3028 -1.50501 0
M  V30 4076 N 376.915 0.57481 -1.46744 0
M  V30 4077 C 377.878 1.66533 -1.57478 0
M  V30 4078 C 378.878 1.54338 -0.451263 0
M  V30 4079 O 380.068 1.58814 -0.715813 0
M  V30 4080 C 377.2 3.05999 -1.50259 0
M  V30 4081 H 378.393 1.58372 -2.54673 0
M  V30 4082 H 375.946 0.793301 -1.34672 0
M  V30 4083 H 376.681 3.19709 -0.543725 0
M  V30 4084 H 376.466 3.16259 -2.31781 0
M  V30 4085 H 377.956 3.8537 -1.60872 0
M  V30 4086 N 378.394 1.34581 0.820102 0
M  V30 4087 C 379.324 1.29038 1.94606 0
M  V30 4088 C 380.305 0.1673 1.69275 0
M  V30 4089 O 381.49 0.360112 1.90832 0
M  V30 4090 C 378.62 1.04793 3.31113 0
M  V30 4091 C 377.574 2.13597 3.70891 0
M  V30 4092 C 376.9 1.74537 5.05412 0
M  V30 4093 C 378.2 3.55451 3.8269 0
M  V30 4094 H 379.894 2.23248 1.99501 0
M  V30 4095 H 377.44 1.0747 0.958449 0
M  V30 4096 H 379.393 0.995592 4.0947 0
M  V30 4097 H 378.117 0.0702565 3.26524 0
M  V30 4098 H 376.776 2.17905 2.9481 0
M  V30 4099 H 376.424 0.754226 4.97313 0
M  V30 4100 H 376.124 2.47361 5.32997 0
M  V30 4101 H 377.648 1.70803 5.86224 0
M  V30 4102 H 379.062 3.5354 4.51312 0
M  V30 4103 H 377.459 4.26922 4.21732 0
M  V30 4104 H 378.529 3.92587 2.84611 0
M  V30 4105 N 379.872 -1.04064 1.18357 0
M  V30 4106 C 380.805 -2.11618 0.854 0
M  V30 4107 C 381.783 -1.61555 -0.184043 0
M  V30 4108 O 382.967 -1.88395 -0.0630048 0
M  V30 4109 C 380.094 -3.37574 0.27597 0
M  V30 4110 C 379.14 -4.06485 1.2912 0
M  V30 4111 S 379.973 -4.53543 2.84709 0
M  V30 4112 C 381.129 -5.82732 2.28417 0
M  V30 4113 H 381.362 -2.39247 1.76488 0
M  V30 4114 H 378.895 -1.16832 1.00944 0
M  V30 4115 H 380.853 -4.10468 -0.051026 0
M  V30 4116 H 379.514 -3.0806 -0.613028 0
M  V30 4117 H 378.707 -4.97024 0.835633 0
M  V30 4118 H 378.309 -3.39708 1.56443 0
M  V30 4119 H 380.601 -6.56677 1.66677 0
M  V30 4120 H 381.544 -6.33052 3.17256 0
M  V30 4121 H 381.952 -5.37838 1.71436 0
M  V30 4122 N 381.35 -0.985608 -1.22978 0
M  V30 4123 C 382.313 -0.535071 -2.22867 0
M  V30 4124 C 383.313 0.378123 -1.56291 0
M  V30 4125 O 384.503 0.171092 -1.73358 0
M  V30 4126 C 381.635 0.222702 -3.40172 0
M  V30 4127 H 382.828 -1.41835 -2.6424 0
M  V30 4128 H 380.381 -0.772042 -1.35901 0
M  V30 4129 H 381.116 1.12229 -3.04262 0
M  V30 4130 H 380.901 -0.43288 -3.89703 0
M  V30 4131 H 382.391 0.526335 -4.1427 0
M  V30 4132 N 382.828 1.3818 -0.7579 0
M  V30 4133 C 384.239 1.82726 -0.383134 0
M  V30 4134 C 384.59 1.63214 1.08884 0
M  V30 4135 O 383.715 1.13566 1.84205 0
M  V30 4136 C 384.31 3.31728 -0.688631 0
M  V30 4137 C 382.869 3.74606 -0.367091 0
M  V30 4138 C 382.016 2.60896 -0.939599 0
M  V30 4139 H 384.967 1.26847 -0.953699 0
M  V30 4140 H 384.988 3.80487 0.0316492 0
M  V30 4141 H 384.5 3.45898 -1.76001 0
M  V30 4142 H 382.601 3.66013 0.697532 0
M  V30 4143 H 382.714 4.71215 -0.865658 0
M  V30 4144 H 381.078 2.52075 -0.3647 0
M  V30 4145 H 381.861 2.77864 -2.0161 0
M  V30 4146 N 384.306 0.507319 1.49211 0
M  V30 4147 C 385.536 -0.0315292 2.06576 0
M  V30 4148 C 385.944 -1.30791 1.36713 0
M  V30 4149 O 385.287 -1.78324 0.441181 0
M  V30 4150 C 385.349 -0.349104 3.57801 0
M  V30 4151 C 385.013 0.830475 4.49391 0
M  V30 4152 C 386.01 1.72271 4.90529 0
M  V30 4153 C 383.695 1.03107 4.91604 0
M  V30 4154 C 385.689 2.79964 5.72625 0
M  V30 4155 C 383.376 2.11116 5.73475 0
M  V30 4156 C 384.374 2.99379 6.1389 0
M  V30 4157 O 384.062 4.05523 6.94123 0
M  V30 4158 H 383.794 0.0201002 0.675701 0
M  V30 4159 H 386.348 0.705737 1.92895 0
M  V30 4160 H 384.578 -1.14005 3.69513 0
M  V30 4161 H 386.267 -0.827319 3.97379 0
M  V30 4162 H 387.033 1.57958 4.58557 0
M  V30 4163 H 382.912 0.353417 4.59643 0
M  V30 4164 H 386.456 3.48884 6.04091 0
M  V30 4165 H 382.353 2.25421 6.0486 0
M  V30 4166 H 383.121 4.02953 7.1244 0
M  V30 4167 N 385.784 -1.5574 0.241426 0
M  V30 4168 C 387.014 -2.02913 -0.38857 0
M  V30 4169 C 387.422 -1.12014 -1.52478 0
M  V30 4170 O 386.765 -0.125903 -1.83268 0
M  V30 4171 C 386.827 -3.4636 -0.963075 0
M  V30 4172 C 386.491 -4.56982 0.0401916 0
M  V30 4173 C 387.488 -5.12941 0.847766 0
M  V30 4174 C 385.173 -5.0203 0.164699 0
M  V30 4175 C 387.167 -6.12437 1.76636 0
M  V30 4176 C 384.854 -6.01358 1.0868 0
M  V30 4177 C 385.852 -6.5644 1.88616 0
M  V30 4178 O 385.54 -7.53831 2.79273 0
M  V30 4179 H 385.272 -0.668983 -0.0971452 0
M  V30 4180 H 387.826 -2.02198 0.361248 0
M  V30 4181 H 386.056 -3.44206 -1.76235 0
M  V30 4182 H 387.745 -3.77065 -1.50257 0
M  V30 4183 H 388.511 -4.78974 0.762133 0
M  V30 4184 H 384.39 -4.58824 -0.447411 0
M  V30 4185 H 387.934 -6.55355 2.39071 0
M  V30 4186 H 383.831 -6.34746 1.17338 0
M  V30 4187 H 384.599 -7.71428 2.73572 0
M  V30 4188 N 387.262 0.0317525 -1.57568 0
M  V30 4189 C 388.209 1.0332 -2.06382 0
M  V30 4190 C 389.179 1.36082 -0.952414 0
M  V30 4191 O 390.364 1.46466 -1.2228 0
M  V30 4192 C 387.504 2.32989 -2.54578 0
M  V30 4193 C 386.617 2.0641 -3.79498 0
M  V30 4194 C 385.752 3.2993 -4.16317 0
M  V30 4195 C 384.791 2.98893 -5.34162 0
M  V30 4196 N 383.928 4.14857 -5.66426 0
M  V30 4197 H 388.768 0.609982 -2.9169 0
M  V30 4198 H 386.305 0.289573 -1.44222 0
M  V30 4199 H 388.263 3.0875 -2.80587 0
M  V30 4200 H 386.893 2.73039 -1.7219 0
M  V30 4201 H 385.945 1.21158 -3.6059 0
M  V30 4202 H 387.257 1.79513 -4.65378 0
M  V30 4203 H 386.411 4.1406 -4.4344 0
M  V30 4204 H 385.15 3.59938 -3.29083 0
M  V30 4205 H 384.155 2.13164 -5.06795 0
M  V30 4206 H 385.38 2.70165 -6.23047 0
M  V30 4207 H 383.326 4.44821 -4.82151 0
M  V30 4208 H 383.243 3.91374 -6.4681 0
M  V30 4209 H 384.511 4.99868 -5.98124 0
M  V30 4210 N 388.74 1.54641 0.303973 0
M  V30 4211 C 390.156 1.45788 0.649463 0
M  V30 4212 C 390.356 0.64666 1.90842 0
M  V30 4213 O 389.412 0.153183 2.52035 0
M  V30 4214 C 390.725 2.89718 0.805227 0
M  V30 4215 C 392.273 2.99742 0.901305 0
M  V30 4216 C 392.748 4.44863 1.08909 0
M  V30 4217 N 394.239 4.48559 1.15536 0
M  V30 4218 C 394.974 5.58026 1.3189 0
M  V30 4219 N 394.47 6.77422 1.45161 0
M  V30 4220 N 396.263 5.45708 1.34755 0
M  V30 4221 H 388.414 2.05854 -0.523237 0
M  V30 4222 H 390.677 0.932186 -0.172431 0
M  V30 4223 H 390.383 3.51666 -0.0489108 0
M  V30 4224 H 390.257 3.36964 1.69513 0
M  V30 4225 H 392.644 2.3791 1.74593 0
M  V30 4226 H 392.725 2.55797 -0.0125531 0
M  V30 4227 H 392.369 5.07288 0.249241 0
M  V30 4228 H 392.299 4.86436 2.01713 0
M  V30 4229 H 394.79 3.6254 1.06646 0
M  V30 4230 H 395.103 7.56604 1.57387 0
M  V30 4231 H 393.448 6.80292 1.42223 0
M  V30 4232 H 396.639 4.51378 1.23996 0
M  V30 4233 H 396.812 6.3107 1.47157 0
M  V30 4234 N 390.218 -0.567019 1.47046 0
M  V30 4235 C 391.148 -1.68482 1.61667 0
M  V30 4236 C 392.129 -1.6358 0.466418 0
M  V30 4237 O 393.314 -1.81354 0.694574 0
M  V30 4238 C 390.444 -3.07124 1.62148 0
M  V30 4239 C 389.398 -3.26867 2.76301 0
M  V30 4240 C 388.724 -4.66196 2.61849 0
M  V30 4241 C 390.024 -3.13186 4.17986 0
M  V30 4242 H 391.718 -1.56502 2.5524 0
M  V30 4243 H 389.264 -0.751486 1.22836 0
M  V30 4244 H 391.217 -3.8516 1.70968 0
M  V30 4245 H 389.941 -3.2004 0.651287 0
M  V30 4246 H 388.6 -2.51237 2.66975 0
M  V30 4247 H 388.248 -4.75898 1.62879 0
M  V30 4248 H 387.948 -4.80356 3.38425 0
M  V30 4249 H 389.472 -5.46379 2.72584 0
M  V30 4250 H 390.886 -3.81049 4.2834 0
M  V30 4251 H 389.283 -3.3886 4.95272 0
M  V30 4252 H 390.353 -2.10057 4.3704 0
M  V30 4253 N 391.696 -1.35014 -0.812953 0
M  V30 4254 C 392.944 -1.27678 -1.56661 0
M  V30 4255 C 393.265 0.150359 -1.94419 0
M  V30 4256 O 392.535 1.08532 -1.63088 0
M  V30 4257 H 391.115 -0.469602 -0.580933 0
M  V30 4258 H 393.777 -1.69043 -0.970076 0
M  V30 4259 H 392.873 -1.88833 -2.48492 0
M  V30 4260 N 393.175 1.03435 -1.18907 0
M  V30 4261 C 394.591 1.28973 -0.940111 0
M  V30 4262 C 394.791 1.97676 0.390691 0
M  V30 4263 O 393.847 2.26127 1.12352 0
M  V30 4264 C 395.16 2.14221 -2.11021 0
M  V30 4265 C 396.708 2.27547 -2.14922 0
M  V30 4266 C 397.183 3.16164 -3.31367 0
M  V30 4267 N 398.674 3.23752 -3.31269 0
M  V30 4268 C 399.409 3.92495 -4.18014 0
M  V30 4269 N 398.905 4.63515 -5.14904 0
M  V30 4270 N 400.698 3.88838 -4.05908 0
M  V30 4271 H 392.849 0.57252 -2.04538 0
M  V30 4272 H 395.112 0.315184 -0.894071 0
M  V30 4273 H 394.818 1.71054 -3.073 0
M  V30 4274 H 394.692 3.14919 -2.0762 0
M  V30 4275 H 397.079 2.69947 -1.19217 0
M  V30 4276 H 397.16 1.26418 -2.22378 0
M  V30 4277 H 396.804 2.74474 -4.27348 0
M  V30 4278 H 396.734 4.17339 -3.21148 0
M  V30 4279 H 399.225 2.73167 -2.61129 0
M  V30 4280 H 399.538 5.13583 -5.77453 0
M  V30 4281 H 397.883 4.62398 -5.18857 0
M  V30 4282 H 401.074 3.32491 -3.29495 0
M  V30 4283 H 401.247 4.4214 -4.73726 0
M  V30 4284 N 394.653 0.992116 1.22453 0
M  V30 4285 C 395.93 0.583508 1.86694 0
M  V30 4286 C 396.31 -0.9392 1.89056 0
M  V30 4287 O 395.658 -1.82081 1.38053 0
M  V30 4288 C 395.868 1.20304 3.2761 0
M  V30 4289 C 397.216 1.30308 4.0411 0
M  V30 4290 O 398.24 1.15737 3.36873 0
M  V30 4291 O 397.099 1.53615 5.24466 0
M  V30 4292 H 394.193 0.198129 0.802916 0
M  V30 4293 H 396.739 1.08794 1.30238 0
M  V30 4294 H 395.511 2.24461 3.2052 0
M  V30 4295 H 395.134 0.684144 3.9167 0
M  V30 4296 N 396.131 -1.37776 0.765217 0
M  V30 4297 C 397.094 -2.28686 0.153416 0
M  V30 4298 C 398.094 -1.47727 -0.635081 0
M  V30 4299 O 399.284 -1.68027 -0.459632 0
M  V30 4300 C 396.416 -3.31608 -0.790495 0
M  V30 4301 H 397.609 -2.84297 0.954723 0
M  V30 4302 H 395.162 -1.46932 0.53299 0
M  V30 4303 H 395.897 -2.81109 -1.61705 0
M  V30 4304 H 395.682 -3.9144 -0.227348 0
M  V30 4305 H 397.172 -3.99559 -1.21419 0
M  V30 4306 N 397.609 -0.515225 -1.4894 0
M  V30 4307 C 398.539 0.244628 -2.32215 0
M  V30 4308 C 399.52 0.949136 -1.41157 0
M  V30 4309 O 400.705 0.937783 -1.70057 0
M  V30 4310 C 397.835 1.30096 -3.22013 0
M  V30 4311 C 396.789 0.715486 -4.21977 0
M  V30 4312 C 396.115 1.87339 -5.00808 0
M  V30 4313 C 397.415 -0.302982 -5.2142 0
M  V30 4314 H 399.109 -0.450501 -2.95991 0
M  V30 4315 H 396.655 -0.218098 -1.42339 0
M  V30 4316 H 398.608 1.84037 -3.79089 0
M  V30 4317 H 397.332 2.02547 -2.56207 0
M  V30 4318 H 395.991 0.197715 -3.66066 0
M  V30 4319 H 395.639 2.58592 -4.31438 0
M  V30 4320 H 395.339 1.48764 -5.68457 0
M  V30 4321 H 396.863 2.41686 -5.60732 0
M  V30 4322 H 398.277 0.148802 -5.73107 0
M  V30 4323 H 396.674 -0.60532 -5.97039 0
M  V30 4324 H 397.744 -1.21395 -4.69459 0
M  V30 4325 N 399.087 1.5561 -0.249682 0
M  V30 4326 C 400.017 2.24477 0.642826 0
M  V30 4327 C 400.998 1.22601 1.17911 0
M  V30 4328 O 402.183 1.5126 1.21795 0
M  V30 4329 C 399.313 2.94638 1.83863 0
M  V30 4330 C 398.267 4.03227 1.435 0
M  V30 4331 C 397.593 4.60828 2.71186 0
M  V30 4332 C 398.893 5.18796 0.604002 0
M  V30 4333 H 400.587 2.99321 0.0685625 0
M  V30 4334 H 398.133 1.43965 0.0315363 0
M  V30 4335 H 400.086 3.41517 2.46868 0
M  V30 4336 H 398.81 2.17287 2.43832 0
M  V30 4337 H 397.469 3.57121 0.828275 0
M  V30 4338 H 397.117 3.80174 3.29358 0
M  V30 4339 H 396.817 5.34132 2.44901 0
M  V30 4340 H 398.341 5.10442 3.35084 0
M  V30 4341 H 399.755 5.61883 1.13842 0
M  V30 4342 H 398.152 5.98506 0.437097 0
M  V30 4343 H 399.222 4.83384 -0.383147 0
M  V30 4344 N 400.565 -0.0233959 1.57583 0
M  V30 4345 C 401.79 -0.728376 1.94189 0
M  V30 4346 C 402.215 -1.67793 0.850119 0
M  V30 4347 O 401.573 -1.80262 -0.19371 0
M  V30 4348 C 401.621 -1.45669 3.29868 0
M  V30 4349 O 400.725 -2.57013 3.22518 0
M  V30 4350 H 400.066 -0.195493 0.63457 0
M  V30 4351 H 402.596 0.0228214 2.04587 0
M  V30 4352 H 402.606 -1.82535 3.6489 0
M  V30 4353 H 401.281 -0.760314 4.08891 0
M  V30 4354 H 399.858 -2.22648 2.99136 0
M  V30 4355 N 402.043 -1.548 -0.295768 0
M  V30 4356 C 403.289 -1.75517 -1.02789 0
M  V30 4357 C 403.644 -0.537266 -1.84746 0
M  V30 4358 O 402.937 0.470299 -1.85738 0
M  V30 4359 C 403.131 -2.98797 -1.961 0
M  V30 4360 C 402.96 -4.3246 -1.23321 0
M  V30 4361 C 401.73 -4.96131 -0.95822 0
M  V30 4362 C 403.928 -5.10365 -0.635024 0
M  V30 4363 N 401.91 -6.1357 -0.201257 0
M  V30 4364 C 403.281 -6.19999 -0.0110937 0
M  V30 4365 C 405.336 -4.94957 -0.540594 0
M  V30 4366 C 404.039 -7.15904 0.698136 0
M  V30 4367 C 406.065 -5.91197 0.154992 0
M  V30 4368 C 405.427 -7.00203 0.767752 0
M  V30 4369 H 401.526 -0.694786 -0.358882 0
M  V30 4370 H 404.11 -1.92281 -0.305943 0
M  V30 4371 H 402.281 -2.83448 -2.6554 0
M  V30 4372 H 404.013 -3.08017 -2.62502 0
M  V30 4373 H 400.768 -4.56595 -1.25771 0
M  V30 4374 H 401.192 -6.76802 0.16389 0
M  V30 4375 H 405.834 -4.10803 -1.00003 0
M  V30 4376 H 403.552 -7.99595 1.16933 0
M  V30 4377 H 407.138 -5.81353 0.228069 0
M  V30 4378 H 406.018 -7.73393 1.29743 0
M  V30 4379 N 403.521 0.559213 -1.47345 0
M  V30 4380 C 404.798 1.31997 -1.44348 0
M  V30 4381 C 405.178 2.1064 -0.139358 0
M  V30 4382 O 404.526 2.1091 0.879153 0
M  V30 4383 C 404.736 2.22618 -2.68779 0
M  V30 4384 C 406.084 2.83701 -3.1591 0
M  V30 4385 O 407.108 2.32921 -2.69493 0
M  V30 4386 O 405.967 3.75993 -3.966 0
M  V30 4387 H 403.061 0.594251 -0.575147 0
M  V30 4388 H 405.607 0.578282 -1.59543 0
M  V30 4389 H 404.379 1.64093 -3.55231 0
M  V30 4390 H 404.002 3.04085 -2.5616 0
M  V30 4391 N 404.999 1.35443 0.805782 0
M  V30 4392 C 406.276 1.19325 1.54987 0
M  V30 4393 C 406.656 -0.227294 2.09873 0
M  V30 4394 O 406.004 -1.2309 1.92512 0
M  V30 4395 C 406.214 2.26196 2.65775 0
M  V30 4396 C 407.562 2.62043 3.34094 0
M  V30 4397 O 408.586 2.25115 2.76046 0
M  V30 4398 O 407.445 3.25542 4.38958 0
M  V30 4399 H 404.539 0.463623 0.684823 0
M  V30 4400 H 407.085 1.47127 0.845674 0
M  V30 4401 H 405.857 3.21471 2.23096 0
M  V30 4402 H 405.48 1.99667 3.43829 0
M  V30 4403 N 406.477 -1.02803 1.19454 0
M  V30 4404 C 407.723 -1.76478 0.999171 0
M  V30 4405 C 408.056 -1.88456 -0.468828 0
M  V30 4406 O 407.331 -1.40198 -1.34814 0
M  V30 4407 C 407.614 -3.19044 1.66981 0
M  V30 4408 C 407.467 -3.14932 3.21151 0
M  V30 4409 C 408.786 -4.17456 1.39349 0
M  V30 4410 H 405.905 -0.640614 0.364393 0
M  V30 4411 H 408.547 -1.20005 1.47305 0
M  V30 4412 H 406.697 -3.67263 1.2669 0
M  V30 4413 H 408.369 -2.74605 3.70661 0
M  V30 4414 H 406.612 -2.52625 3.52652 0
M  V30 4415 H 407.283 -4.1566 3.63223 0
M  V30 4416 H 409.759 -3.77842 1.74283 0
M  V30 4417 H 408.635 -5.154 1.88823 0
M  V30 4418 H 408.896 -4.40949 0.318813 0
M  V30 4419 N 407.956 -0.998596 -1.21925 0
M  V30 4420 C 408.886 -0.573688 -2.26343 0
M  V30 4421 C 409.867 0.402296 -1.65274 0
M  V30 4422 O 411.052 0.291683 -1.91997 0
M  V30 4423 C 408.182 0.106839 -3.47136 0
M  V30 4424 C 407.136 -0.788269 -4.20678 0
M  V30 4425 C 406.462 0.0254927 -5.34694 0
M  V30 4426 C 407.762 -2.08784 -4.78755 0
M  V30 4427 H 409.456 -1.44651 -2.62138 0
M  V30 4428 H 407.002 -0.696975 -1.26009 0
M  V30 4429 H 408.955 0.415531 -4.19346 0
M  V30 4430 H 407.679 1.01424 -3.10452 0
M  V30 4431 H 406.338 -1.08069 -3.50309 0
M  V30 4432 H 405.986 0.933989 -4.94253 0
M  V30 4433 H 405.686 -0.570437 -5.84825 0
M  V30 4434 H 407.21 0.328147 -6.09718 0
M  V30 4435 H 408.624 -1.84272 -5.42878 0
M  V30 4436 H 407.021 -2.63307 -5.39249 0
M  V30 4437 H 408.091 -2.76284 -3.98491 0
M  V30 4438 N 409.434 1.37368 -0.772513 0
M  V30 4439 C 410.397 2.28601 -0.165541 0
M  V30 4440 C 411.397 1.48062 0.627238 0
M  V30 4441 O 412.587 1.68268 0.450715 0
M  V30 4442 C 409.719 3.32023 0.772897 0
M  V30 4443 H 410.912 2.83787 -0.969787 0
M  V30 4444 H 408.465 1.46647 -0.540775 0
M  V30 4445 H 409.2 2.81962 1.60212 0
M  V30 4446 H 408.985 3.91555 0.206585 0
M  V30 4447 H 410.475 4.00197 1.19298 0
M  V30 4448 N 410.912 0.523116 1.48665 0
M  V30 4449 C 412.158 -0.0134963 2.02796 0
M  V30 4450 C 412.491 -1.34582 1.40004 0
M  V30 4451 O 411.766 -1.86756 0.543381 0
M  V30 4452 C 412.049 -0.14276 3.59817 0
M  V30 4453 C 411.902 1.21425 4.331 0
M  V30 4454 C 413.221 -0.872856 4.31357 0
M  V30 4455 H 410.34 -0.00343074 0.736992 0
M  V30 4456 H 412.982 0.678816 1.7746 0
M  V30 4457 H 411.132 -0.732401 3.81534 0
M  V30 4458 H 412.804 1.84447 4.2282 0
M  V30 4459 H 411.047 1.79791 3.94788 0
M  V30 4460 H 411.718 1.07687 5.41394 0
M  V30 4461 H 414.194 -0.372555 4.14429 0
M  V30 4462 H 413.07 -0.932185 5.40927 0
M  V30 4463 H 413.331 -1.92161 3.98154 0
M  V30 4464 N 412.39 -1.55475 0.257931 0
M  V30 4465 C 413.322 -2.19192 -0.669881 0
M  V30 4466 C 414.335 -1.17148 -1.1305 0
M  V30 4467 O 415.524 -1.43959 -1.05537 0
M  V30 4468 C 412.624 -2.79016 -1.92363 0
M  V30 4469 C 411.797 -4.06586 -1.61265 0
M  V30 4470 C 410.856 -4.50622 -2.7171 0
M  V30 4471 O 409.882 -5.16765 -2.38627 0
M  V30 4472 N 411.084 -4.19325 -4.01431 0
M  V30 4473 H 413.849 -2.99441 -0.124635 0
M  V30 4474 H 411.41 -1.6171 0.0783311 0
M  V30 4475 H 413.402 -3.05427 -2.65511 0
M  V30 4476 H 411.972 -2.0286 -2.37837 0
M  V30 4477 H 411.192 -3.87646 -0.715811 0
M  V30 4478 H 412.48 -4.89737 -1.37967 0
M  V30 4479 H 411.878 -3.66247 -4.31138 0
M  V30 4480 H 410.435 -4.50547 -4.7101 0
M  V30 4481 N 413.868 0.0150385 -1.57593 0
M  V30 4482 C 415.093 0.718067 -1.94573 0
M  V30 4483 C 415.518 1.6734 -0.859005 0
M  V30 4484 O 414.876 1.80362 0.184147 0
M  V30 4485 C 414.924 1.43918 -3.30636 0
M  V30 4486 O 414.028 2.55299 -3.23876 0
M  V30 4487 H 413.369 0.192125 -0.635597 0
M  V30 4488 H 415.899 -0.0336708 -2.04572 0
M  V30 4489 H 415.909 1.80598 -3.65853 0
M  V30 4490 H 414.584 0.738619 -4.09289 0
M  V30 4491 H 413.161 2.21058 -3.00312 0
M  V30 4492 N 415.346 1.54954 0.287554 0
M  V30 4493 C 416.276 1.89839 1.35954 0
M  V30 4494 C 417.257 0.758675 1.52244 0
M  V30 4495 O 418.442 1.01557 1.65529 0
M  V30 4496 C 415.572 2.15753 2.72154 0
M  V30 4497 C 414.526 3.3159 2.70614 0
M  V30 4498 C 413.852 3.42952 4.10229 0
M  V30 4499 C 415.152 4.68359 2.31165 0
M  V30 4500 H 416.846 2.79625 1.07007 0
M  V30 4501 H 414.392 1.3454 0.513316 0
M  V30 4502 H 416.345 2.38743 3.47246 0
M  V30 4503 H 415.069 1.22752 3.02654 0
M  V30 4504 H 413.728 3.08545 1.97979 0
M  V30 4505 H 413.376 2.47443 4.37928 0
M  V30 4506 H 413.076 4.20826 4.10097 0
M  V30 4507 H 414.6 3.68218 4.87081 0
M  V30 4508 H 416.014 4.9099 2.95976 0
M  V30 4509 H 414.411 5.49044 2.42221 0
M  V30 4510 H 415.481 4.68165 1.26291 0
M  V30 4511 N 416.824 -0.551391 1.4764 0
M  V30 4512 C 418.054 -1.33163 1.57959 0
M  V30 4513 C 418.462 -1.87785 0.23094 0
M  V30 4514 O 417.805 -1.65996 -0.786825 0
M  V30 4515 C 417.867 -2.53449 2.54958 0
M  V30 4516 C 417.531 -2.20071 4.00522 0
M  V30 4517 C 418.528 -1.77017 4.88836 0
M  V30 4518 C 416.213 -2.31252 4.45901 0
M  V30 4519 C 418.207 -1.4558 6.20552 0
M  V30 4520 C 415.894 -1.99427 5.77644 0
M  V30 4521 C 416.892 -1.56659 6.64791 0
M  V30 4522 O 416.58 -1.25242 7.94084 0
M  V30 4523 H 416.312 -0.412022 0.535923 0
M  V30 4524 H 418.866 -0.674186 1.9402 0
M  V30 4525 H 417.096 -3.22104 2.13976 0
M  V30 4526 H 418.785 -3.15523 2.55343 0
M  V30 4527 H 419.551 -1.67867 4.55023 0
M  V30 4528 H 415.43 -2.63498 3.78272 0
M  V30 4529 H 418.974 -1.12125 6.8853 0
M  V30 4530 H 414.871 -2.08211 6.10998 0
M  V30 4531 H 415.639 -1.38822 8.06642 0
M  V30 4532 N 418.302 -1.35869 -0.798587 0
M  V30 4533 C 419.55 -1.29332 -1.55298 0
M  V30 4534 C 419.871 0.129729 -1.94568 0
M  V30 4535 O 419.141 1.06796 -1.6423 0
M  V30 4536 H 417.721 -0.475737 -0.57592 0
M  V30 4537 H 420.383 -1.70062 -0.952093 0
M  V30 4538 H 419.479 -1.91458 -2.46476 0
M  V30 4539 N 419.78 1.02168 -1.19998 0
M  V30 4540 C 420.727 2.10601 -0.944228 0
M  V30 4541 C 421.697 1.65639 0.123664 0
M  V30 4542 O 422.882 1.9079 -0.0199941 0
M  V30 4543 C 420.022 3.41504 -0.496865 0
M  V30 4544 C 419.135 3.99973 -1.63234 0
M  V30 4545 C 418.27 5.18915 -1.13579 0
M  V30 4546 C 417.309 5.69456 -2.24468 0
M  V30 4547 N 416.446 6.79665 -1.76068 0
M  V30 4548 H 421.286 2.31814 -1.8726 0
M  V30 4549 H 418.823 1.13686 -0.933483 0
M  V30 4550 H 420.781 4.16626 -0.218843 0
M  V30 4551 H 419.411 3.2038 0.394508 0
M  V30 4552 H 418.463 3.21997 -2.0254 0
M  V30 4553 H 419.775 4.33492 -2.46752 0
M  V30 4554 H 418.929 6.01222 -0.813429 0
M  V30 4555 H 417.668 4.8695 -0.270434 0
M  V30 4556 H 416.673 4.85757 -2.57526 0
M  V30 4557 H 417.898 6.03459 -3.11472 0
M  V30 4558 H 415.844 6.49538 -0.918516 0
M  V30 4559 H 415.761 7.12349 -2.5317 0
M  V30 4560 H 417.029 7.65549 -1.46817 0
M  V30 4561 N 421.258 1.00505 1.21394 0
M  V30 4562 C 422.669 0.721082 1.72213 0
M  V30 4563 C 423.02 -0.761263 1.80829 0
M  V30 4564 O 422.145 -1.59464 1.46288 0
M  V30 4565 C 422.74 1.30228 3.12772 0
M  V30 4566 C 421.299 1.06743 3.60947 0
M  V30 4567 C 420.446 1.41507 2.38477 0
M  V30 4568 H 423.397 1.17594 1.06571 0
M  V30 4569 H 423.418 0.686955 3.74247 0
M  V30 4570 H 422.93 2.38115 3.06468 0
M  V30 4571 H 421.031 0.00572162 3.726 0
M  V30 4572 H 421.144 1.73936 4.46411 0
M  V30 4573 H 419.508 0.833852 2.40664 0
M  V30 4574 H 420.291 2.50424 2.34824 0
M  V30 4575 N 422.737 -1.36956 0.779787 0
M  V30 4576 C 423.667 -2.32761 0.185651 0
M  V30 4577 C 424.648 -1.56177 -0.673989 0
M  V30 4578 O 425.833 -1.84378 -0.609797 0
M  V30 4579 C 422.963 -3.40418 -0.687964 0
M  V30 4580 C 421.917 -4.27941 0.0710102 0
M  V30 4581 C 421.243 -5.26681 -0.922573 0
M  V30 4582 C 422.543 -5.07006 1.25467 0
M  V30 4583 H 424.237 -2.82698 0.986008 0
M  V30 4584 H 421.783 -1.3592 0.475592 0
M  V30 4585 H 423.736 -4.06423 -1.11348 0
M  V30 4586 H 422.46 -2.89025 -1.52093 0
M  V30 4587 H 421.119 -3.63478 0.47739 0
M  V30 4588 H 420.767 -4.71565 -1.7503 0
M  V30 4589 H 420.467 -5.86103 -0.419237 0
M  V30 4590 H 421.991 -5.9556 -1.34686 0
M  V30 4591 H 423.405 -5.66105 0.905401 0
M  V30 4592 H 421.802 -5.75793 1.69063 0
M  V30 4593 H 422.872 -4.3921 2.05481 0
M  V30 4594 N 424.215 -0.530993 -1.48385 0
M  V30 4595 C 425.463 0.00273189 -2.021 0
M  V30 4596 C 425.784 1.34672 -1.41027 0
M  V30 4597 O 425.054 1.8724 -0.576012 0
M  V30 4598 H 423.634 0.00399774 -0.746989 0
M  V30 4599 H 426.296 -0.695054 -1.82085 0
M  V30 4600 H 425.392 0.11031 -3.11905 0
M  V30 4601 N 425.693 1.55336 -0.266172 0
M  V30 4602 C 426.941 1.99003 0.35246 0
M  V30 4603 C 427.262 1.15591 1.57047 0
M  V30 4604 O 426.532 0.243268 1.94384 0
M  V30 4605 H 425.112 0.735025 0.133217 0
M  V30 4606 H 427.774 1.91367 -0.369434 0
M  V30 4607 H 426.87 3.05289 0.648453 0
M  V30 4608 N 427.171 -0.0066808 1.57599 0
M  V30 4609 C 428.396 -0.707738 1.94951 0
M  V30 4610 C 428.821 -1.66882 0.867868 0
M  V30 4611 O 428.179 -1.80457 -0.17458 0
M  V30 4612 C 428.227 -1.42162 3.31394 0
M  V30 4613 O 427.331 -2.53578 3.25226 0
M  V30 4614 H 426.672 -0.188752 0.636607 0
M  V30 4615 H 429.202 0.0445193 2.04552 0
M  V30 4616 H 429.212 -1.78655 3.66806 0
M  V30 4617 H 427.887 -0.716903 4.09675 0
M  V30 4618 H 426.464 -2.19463 3.01481 0
M  V30 4619 N 428.649 -1.55105 -0.279332 0
M  V30 4620 C 429.895 -1.75672 -1.01327 0
M  V30 4621 C 430.228 -0.552739 -1.86168 0
M  V30 4622 O 429.503 0.449827 -1.89227 0
M  V30 4623 C 429.786 -3.05825 -1.90114 0
M  V30 4624 C 429.639 -4.36565 -1.08309 0
M  V30 4625 C 430.958 -3.31975 -2.8893 0
M  V30 4626 H 428.077 -0.639149 -0.366957 0
M  V30 4627 H 430.719 -1.87833 -0.286154 0
M  V30 4628 H 428.869 -2.95588 -2.52111 0
M  V30 4629 H 430.541 -4.58751 -0.484314 0
M  V30 4630 H 428.784 -4.32076 -0.386362 0
M  V30 4631 H 429.455 -5.23946 -1.73737 0
M  V30 4632 H 431.931 -3.41963 -2.37067 0
M  V30 4633 H 430.807 -4.2432 -3.48201 0
M  V30 4634 H 431.068 -2.51309 -3.63725 0
M  V30 4635 N 430.127 0.543554 -1.4793 0
M  V30 4636 C 431.09 1.63156 -1.60975 0
M  V30 4637 C 432.09 1.53346 -0.483899 0
M  V30 4638 O 433.28 1.5726 -0.749339 0
M  V30 4639 C 430.412 3.02743 -1.56716 0
M  V30 4640 H 431.605 1.52934 -2.57975 0
M  V30 4641 H 429.158 0.764557 -1.36324 0
M  V30 4642 H 429.893 3.18484 -0.611418 0
M  V30 4643 H 429.678 3.11272 -2.38438 0
M  V30 4644 H 431.168 3.81871 -1.6901 0
M  V30 4645 N 431.605 1.3629 0.791371 0
M  V30 4646 C 432.851 1.30605 1.55146 0
M  V30 4647 C 433.184 -0.115042 1.93859 0
M  V30 4648 O 432.459 -1.06798 1.62556 0
M  V30 4649 C 432.742 2.22692 2.82985 0
M  V30 4650 C 432.595 3.73489 2.50651 0
M  V30 4651 C 433.914 2.13588 3.84796 0
M  V30 4652 H 431.033 0.475761 0.562868 0
M  V30 4653 H 433.675 1.66825 0.909358 0
M  V30 4654 H 431.825 1.91933 3.37778 0
M  V30 4655 H 433.497 4.14758 2.01924 0
M  V30 4656 H 431.74 3.93021 1.83622 0
M  V30 4657 H 432.411 4.3333 3.41949 0
M  V30 4658 H 434.887 2.40659 3.39445 0
M  V30 4659 H 433.763 2.80195 4.71998 0
M  V30 4660 H 434.024 1.12256 4.27611 0
M  V30 4661 N 433.083 -1.0153 1.20538 0
M  V30 4662 C 434.015 -2.10224 0.913155 0
M  V30 4663 C 435.028 -1.62495 -0.0995998 0
M  V30 4664 O 436.217 -1.78014 0.131582 0
M  V30 4665 C 433.317 -3.37111 0.347717 0
M  V30 4666 C 432.49 -4.13971 1.41233 0
M  V30 4667 C 431.549 -5.19158 0.857976 0
M  V30 4668 O 430.575 -5.48 1.53897 0
M  V30 4669 N 431.777 -5.7955 -0.331966 0
M  V30 4670 H 434.542 -2.35879 1.84881 0
M  V30 4671 H 432.103 -1.17931 1.10923 0
M  V30 4672 H 434.095 -4.04683 -0.0373026 0
M  V30 4673 H 432.665 -3.08696 -0.492527 0
M  V30 4674 H 431.885 -3.41351 1.97163 0
M  V30 4675 H 433.173 -4.62103 2.12928 0
M  V30 4676 H 432.571 -5.58455 -0.902478 0
M  V30 4677 H 431.128 -6.48464 -0.65861 0
M  V30 4678 N 434.561 -1.01147 -1.20859 0
M  V30 4679 C 435.491 -0.597663 -2.25722 0
M  V30 4680 C 436.472 0.384744 -1.65692 0
M  V30 4681 O 437.657 0.271303 -1.92296 0
M  V30 4682 C 434.787 0.0700149 -3.47229 0
M  V30 4683 C 433.741 -0.832843 -4.19819 0
M  V30 4684 C 433.067 -0.0312202 -5.34691 0
M  V30 4685 C 434.367 -2.1385 -4.76514 0
M  V30 4686 H 436.061 -1.47423 -2.60589 0
M  V30 4687 H 433.607 -0.710301 -1.25263 0
M  V30 4688 H 435.56 0.37103 -4.19763 0
M  V30 4689 H 434.284 0.981259 -3.11511 0
M  V30 4690 H 432.943 -1.11778 -3.49144 0
M  V30 4691 H 432.591 0.881515 -4.95215 0
M  V30 4692 H 432.291 -0.632434 -5.84187 0
M  V30 4693 H 433.815 0.26346 -6.10031 0
M  V30 4694 H 435.229 -1.9002 -5.40893 0
M  V30 4695 H 433.626 -2.69012 -5.36426 0
M  V30 4696 H 434.696 -2.80495 -3.95538 0
M  V30 4697 N 436.039 1.36541 -0.78704 0
M  V30 4698 C 437.45 1.81873 -0.421807 0
M  V30 4699 C 437.801 1.65487 1.05397 0
M  V30 4700 O 436.926 1.17448 1.81755 0
M  V30 4701 C 437.521 3.30192 -0.758841 0
M  V30 4702 C 436.08 3.73743 -0.446468 0
M  V30 4703 C 435.227 2.58844 -0.994728 0
M  V30 4704 H 438.178 1.24796 -0.98039 0
M  V30 4705 H 438.199 3.80468 -0.0490648 0
M  V30 4706 H 437.711 3.42087 -1.83299 0
M  V30 4707 H 435.812 3.6741 0.619739 0
M  V30 4708 H 435.925 4.69272 -0.965415 0
M  V30 4709 H 434.289 2.51245 -0.418087 0
M  V30 4710 H 435.072 2.73525 -2.07458 0
M  V30 4711 N 437.518 0.538854 1.48102 0
M  V30 4712 C 438.766 0.00798599 2.02098 0
M  V30 4713 C 439.087 -1.33922 1.41739 0
M  V30 4714 O 438.357 -1.86932 0.585934 0
M  V30 4715 H 436.937 -3.62179e-05 0.747 0
M  V30 4716 H 439.599 0.7047 1.81714 0
M  V30 4717 H 438.695 -0.0937672 3.11959 0
M  V30 4718 N 438.996 -1.55193 0.274407 0
M  V30 4719 C 439.943 -2.225 -0.613374 0
M  V30 4720 C 440.913 -1.19823 -1.15029 0
M  V30 4721 O 442.098 -1.48362 -1.19973 0
M  V30 4722 C 439.238 -2.94927 -1.79199 0
M  V30 4723 C 438.351 -4.12322 -1.28899 0
M  V30 4724 C 437.486 -4.72394 -2.42934 0
M  V30 4725 C 436.525 -5.81984 -1.89634 0
M  V30 4726 N 435.662 -6.36123 -2.9714 0
M  V30 4727 H 440.502 -2.97982 -0.032756 0
M  V30 4728 H 438.039 -1.47099 -0.00440146 0
M  V30 4729 H 439.997 -3.35134 -2.48478 0
M  V30 4730 H 438.627 -2.2187 -2.34465 0
M  V30 4731 H 437.679 -3.7724 -0.489327 0
M  V30 4732 H 438.991 -4.91355 -0.858587 0
M  V30 4733 H 438.145 -5.15317 -3.20208 0
M  V30 4734 H 436.884 -3.92636 -2.8929 0
M  V30 4735 H 435.889 -5.38511 -1.1084 0
M  V30 4736 H 437.114 -6.6361 -1.44215 0
M  V30 4737 H 435.06 -5.59259 -3.42878 0
M  V30 4738 H 434.977 -7.10427 -2.58515 0
M  V30 4739 H 436.245 -6.83704 -3.74391 0
M  V30 4740 N 440.474 -0.00167713 -1.576 0
M  V30 4741 C 441.404 0.988091 -2.11563 0
M  V30 4742 C 442.385 1.35736 -1.02517 0
M  V30 4743 O 443.57 1.44082 -1.30208 0
M  V30 4744 C 440.7 2.27941 -2.62031 0
M  V30 4745 C 439.654 2.0517 -3.75619 0
M  V30 4746 C 438.98 3.4033 -4.12407 0
M  V30 4747 C 440.28 1.41294 -5.02825 0
M  V30 4748 H 441.974 0.538771 -2.94513 0
M  V30 4749 H 439.52 0.257712 -1.41675 0
M  V30 4750 H 441.473 2.97539 -2.9841 0
M  V30 4751 H 440.197 2.74989 -1.76205 0
M  V30 4752 H 438.856 1.37998 -3.39635 0
M  V30 4753 H 438.504 3.85085 -3.23603 0
M  V30 4754 H 438.204 3.25909 -4.88935 0
M  V30 4755 H 439.728 4.1124 -4.51347 0
M  V30 4756 H 441.142 2.00851 -5.36965 0
M  V30 4757 H 439.539 1.37356 -5.84169 0
M  V30 4758 H 440.609 0.382362 -4.8339 0
M  V30 4759 N 441.952 1.55251 0.271103 0
M  V30 4760 C 443.199 1.75946 1.00245 0
M  V30 4761 C 443.527 0.561611 1.86215 0
M  V30 4762 O 442.782 -0.455832 1.90317 0
M  V30 4763 C 443.081 3.01879 1.91321 0
M  V30 4764 C 442.747 4.34337 1.21086 0
M  V30 4765 C 441.409 4.70338 1.01666 0
M  V30 4766 C 443.761 5.16325 0.71119 0
M  V30 4767 C 441.089 5.8588 0.310099 0
M  V30 4768 C 443.441 6.32597 0.0182157 0
M  V30 4769 C 442.105 6.67236 -0.18768 0
M  V30 4770 H 441.375 0.643833 0.366824 0
M  V30 4771 H 444.022 1.89521 0.27458 0
M  V30 4772 H 442.327 2.83212 2.70736 0
M  V30 4773 H 444.024 3.15088 2.48033 0
M  V30 4774 H 440.614 4.06043 1.37213 0
M  V30 4775 H 444.798 4.88987 0.848844 0
M  V30 4776 H 440.054 6.1124 0.139873 0
M  V30 4777 H 444.228 6.9538 -0.376711 0
M  V30 4778 H 441.855 7.56618 -0.73715 0
M  V30 4779 N 443.43 -0.535701 1.48216 0
M  V30 4780 C 444.658 -1.31671 1.59594 0
M  V30 4781 C 445.073 -1.87083 0.254056 0
M  V30 4782 O 444.43 -1.66112 -0.755854 0
M  V30 4783 C 444.481 -2.47158 2.63809 0
M  V30 4784 O 444.202 -1.94032 3.92789 0
M  V30 4785 C 445.703 -3.39062 2.85573 0
M  V30 4786 H 442.923 -0.400623 0.538277 0
M  V30 4787 H 445.467 -0.646827 1.94001 0
M  V30 4788 H 443.622 -3.10043 2.32276 0
M  V30 4789 H 444.036 -2.69585 4.49916 0
M  V30 4790 H 445.51 -4.16459 3.62306 0
M  V30 4791 H 445.987 -3.93941 1.94184 0
M  V30 4792 H 446.593 -2.81975 3.18387 0
M  V30 4793 N 444.908 -1.36708 -0.784132 0
M  V30 4794 C 446.185 -1.21776 -1.53069 0
M  V30 4795 C 446.565 0.193876 -2.10208 0
M  V30 4796 O 445.913 1.20012 -1.94446 0
M  V30 4797 C 446.123 -2.30395 -2.62143 0
M  V30 4798 C 447.471 -2.67325 -3.29882 0
M  V30 4799 O 448.495 -2.29478 -2.7243 0
M  V30 4800 O 447.354 -3.32485 -4.33724 0
M  V30 4801 H 444.448 -0.474459 -0.677361 0
M  V30 4802 H 446.994 -1.48454 -0.82216 0
M  V30 4803 H 445.766 -3.2498 -2.17953 0
M  V30 4804 H 445.389 -2.05112 -3.40609 0
M  V30 4805 N 446.386 1.0089 -1.21074 0
M  V30 4806 C 447.633 1.74607 -1.0256 0
M  V30 4807 C 447.961 1.89426 0.44136 0
M  V30 4808 O 447.216 1.42266 1.34384 0
M  V30 4809 C 447.515 3.16335 -1.66334 0
M  V30 4810 C 447.181 3.21474 -3.16173 0
M  V30 4811 C 445.843 3.22583 -3.57062 0
M  V30 4812 C 448.195 3.19025 -4.12156 0
M  V30 4813 C 445.523 3.18925 -4.92446 0
M  V30 4814 C 447.875 3.16909 -5.47496 0
M  V30 4815 C 446.539 3.16326 -5.87787 0
M  V30 4816 H 445.809 0.638933 -0.375294 0
M  V30 4817 H 448.456 1.18274 -1.50611 0
M  V30 4818 H 446.761 3.75876 -1.10566 0
M  V30 4819 H 448.458 3.72083 -1.49516 0
M  V30 4820 H 445.048 3.2135 -2.83605 0
M  V30 4821 H 449.232 3.17332 -3.81595 0
M  V30 4822 H 444.488 3.16809 -5.22917 0
M  V30 4823 H 448.662 3.13968 -6.21609 0
M  V30 4824 H 446.289 3.13246 -6.92662 0
M  V30 4825 N 447.864 1.01787 1.20321 0
M  V30 4826 C 448.774 0.598898 2.26827 0
M  V30 4827 C 449.79 -0.36418 1.70146 0
M  V30 4828 O 450.966 -0.224812 2.00141 0
M  V30 4829 C 448.031 -0.0549769 3.46656 0
M  V30 4830 C 447.092 0.954205 4.18561 0
M  V30 4831 C 446.325 0.331439 5.3267 0
M  V30 4832 O 446.548 -0.86851 5.63749 0
M  V30 4833 O 445.482 1.0488 5.92692 0
M  V30 4834 H 449.308 1.48562 2.64883 0
M  V30 4835 H 446.893 0.787434 1.26964 0
M  V30 4836 H 448.775 -0.420102 4.19301 0
M  V30 4837 H 447.45 -0.915876 3.10473 0
M  V30 4838 H 446.357 1.37072 3.48083 0
M  V30 4839 H 447.69 1.78511 4.58688 0
M  V30 4840 N 449.342 -1.36122 0.79427 0
M  V30 4841 C 450.57 -2.03362 0.380989 0
M  V30 4842 C 450.985 -1.59881 -1.00416 0
M  V30 4843 O 450.342 -0.790515 -1.6449 0
M  V30 4844 C 450.393 -3.58804 0.440649 0
M  V30 4845 O 450.114 -4.007 1.77118 0
M  V30 4846 C 451.615 -4.43296 0.0186117 0
M  V30 4847 H 448.835 -0.652526 0.156367 0
M  V30 4848 H 451.379 -1.73998 1.07447 0
M  V30 4849 H 449.534 -3.8686 -0.204458 0
M  V30 4850 H 449.948 -4.95309 1.72538 0
M  V30 4851 H 451.422 -5.51887 0.111488 0
M  V30 4852 H 451.899 -4.2684 -1.03461 0
M  V30 4853 H 452.505 -4.20512 0.636395 0
M  V30 4854 N 450.82 -0.546701 -1.47814 0
M  V30 4855 C 452.066 -0.0269594 -2.03382 0
M  V30 4856 C 452.421 1.30406 -1.41464 0
M  V30 4857 O 451.714 1.8332 -0.557151 0
M  V30 4858 C 451.908 0.134869 -3.57145 0
M  V30 4859 C 451.737 -1.17891 -4.33972 0
M  V30 4860 C 450.507 -1.74336 -4.74273 0
M  V30 4861 C 452.705 -2.09361 -4.69758 0
M  V30 4862 N 450.687 -2.99829 -5.35701 0
M  V30 4863 C 452.058 -3.19431 -5.31379 0
M  V30 4864 C 454.113 -2.09484 -4.51687 0
M  V30 4865 C 452.816 -4.2971 -5.76838 0
M  V30 4866 C 454.842 -3.18767 -4.98138 0
M  V30 4867 C 454.204 -4.27557 -5.59799 0
M  V30 4868 H 450.303 -0.0517733 -0.780284 0
M  V30 4869 H 452.887 -0.731673 -1.80429 0
M  V30 4870 H 451.058 0.80869 -3.79888 0
M  V30 4871 H 452.79 0.655726 -3.99352 0
M  V30 4872 H 449.545 -1.28265 -4.559 0
M  V30 4873 H 449.969 -3.63765 -5.70968 0
M  V30 4874 H 454.611 -1.26663 -4.03381 0
M  V30 4875 H 452.329 -5.13297 -6.24141 0
M  V30 4876 H 455.915 -3.19937 -4.85934 0
M  V30 4877 H 454.795 -5.10725 -5.95088 0
M  V30 4878 N 452.299 1.55045 -0.282633 0
M  V30 4879 C 453.576 1.9179 0.384166 0
M  V30 4880 C 453.956 1.20778 1.73136 0
M  V30 4881 O 453.304 0.33719 2.25998 0
M  V30 4882 C 453.514 3.45149 0.517014 0
M  V30 4883 C 454.862 4.17064 0.796427 0
M  V30 4884 O 455.886 3.51084 0.601535 0
M  V30 4885 O 454.745 5.33837 1.16962 0
M  V30 4886 H 451.839 0.799483 0.211558 0
M  V30 4887 H 454.385 1.66474 -0.32934 0
M  V30 4888 H 453.157 3.88922 -0.430772 0
M  V30 4889 H 452.78 3.76443 1.2797 0
M  V30 4890 N 453.777 0.010035 1.57597 0
M  V30 4891 C 455.002 -0.687021 1.95691 0
M  V30 4892 C 455.427 -1.65952 0.885519 0
M  V30 4893 O 454.785 -1.80633 -0.15543 0
M  V30 4894 C 454.833 -1.3864 3.32884 0
M  V30 4895 O 453.937 -2.50115 3.27897 0
M  V30 4896 H 453.278 -0.181989 0.638573 0
M  V30 4897 H 455.808 0.0662122 2.04493 0
M  V30 4898 H 455.818 -1.74754 3.6868 0
M  V30 4899 H 454.493 -0.673411 4.10412 0
M  V30 4900 H 453.07 -2.16253 3.03791 0
M  V30 4901 N 455.255 -1.55392 -0.262866 0
M  V30 4902 C 456.485 -1.80251 -1.00961 0
M  V30 4903 C 456.893 -0.58117 -1.80053 0
M  V30 4904 O 456.236 0.459427 -1.77862 0
M  V30 4905 C 456.298 -2.98207 -2.00781 0
M  V30 4906 C 455.962 -4.34856 -1.40533 0
M  V30 4907 C 456.959 -5.13459 -0.815853 0
M  V30 4908 C 454.644 -4.8153 -1.42948 0
M  V30 4909 C 456.638 -6.36875 -0.258562 0
M  V30 4910 C 454.325 -6.04899 -0.868334 0
M  V30 4911 C 455.323 -6.8241 -0.283884 0
M  V30 4912 O 455.011 -8.03451 0.268644 0
M  V30 4913 H 454.743 -0.604049 -0.303482 0
M  V30 4914 H 457.297 -2.03257 -0.295926 0
M  V30 4915 H 455.527 -2.70917 -2.75936 0
M  V30 4916 H 457.216 -3.10299 -2.61667 0
M  V30 4917 H 457.982 -4.78526 -0.789812 0
M  V30 4918 H 453.861 -4.21201 -1.87378 0
M  V30 4919 H 457.405 -6.97318 0.198257 0
M  V30 4920 H 453.302 -6.39312 -0.891649 0
M  V30 4921 H 454.07 -8.18346 0.158974 0
M  V30 4922 N 456.733 0.527833 -1.48498 0
M  V30 4923 C 457.958 1.313 -1.60546 0
M  V30 4924 C 458.383 1.86199 -0.26672 0
M  V30 4925 O 457.741 1.64513 0.761918 0
M  V30 4926 C 457.789 2.43818 -2.65678 0
M  V30 4927 O 456.893 3.46916 -2.22987 0
M  V30 4928 H 456.234 0.388784 -0.538277 0
M  V30 4929 H 458.764 0.634896 -1.945 0
M  V30 4930 H 458.774 2.89973 -2.87018 0
M  V30 4931 H 457.449 2.03222 -3.62869 0
M  V30 4932 H 456.026 3.06864 -2.11869 0
M  V30 4933 N 458.211 1.37122 0.776871 0
M  V30 4934 C 459.622 1.28667 1.35284 0
M  V30 4935 C 459.973 -0.0680035 1.96082 0
M  V30 4936 O 459.098 -0.969743 1.93455 0
M  V30 4937 C 459.693 2.32997 2.45963 0
M  V30 4938 C 458.252 2.28191 2.99342 0
M  V30 4939 C 457.399 2.17101 1.72517 0
M  V30 4940 H 460.35 1.47819 0.577527 0
M  V30 4941 H 460.371 1.97366 3.2531 0
M  V30 4942 H 459.883 3.3158 2.01684 0
M  V30 4943 H 457.984 1.33115 3.4801 0
M  V30 4944 H 458.097 3.21397 3.55304 0
M  V30 4945 H 456.461 1.63562 1.95242 0
M  V30 4946 H 457.244 3.17591 1.30348 0
M  V30 4947 N 459.689 -1.00246 1.21608 0
M  V30 4948 C 460.621 -2.09244 0.935401 0
M  V30 4949 C 461.634 -1.62592 -0.0823594 0
M  V30 4950 O 462.823 -1.77865 0.150456 0
M  V30 4951 C 459.923 -3.36724 0.383453 0
M  V30 4952 C 459.096 -4.1245 1.45615 0
M  V30 4953 C 458.155 -5.18219 0.912991 0
M  V30 4954 O 457.181 -5.46337 1.59701 0
M  V30 4955 N 458.383 -5.7987 -0.270478 0
M  V30 4956 H 461.148 -2.33905 1.87373 0
M  V30 4957 H 458.709 -1.16748 1.12167 0
M  V30 4958 H 460.701 -4.047 0.00562157 0
M  V30 4959 H 459.271 -3.09201 -0.459758 0
M  V30 4960 H 458.491 -3.39241 2.00772 0
M  V30 4961 H 459.779 -4.59819 2.17817 0
M  V30 4962 H 459.177 -5.59381 -0.843195 0
M  V30 4963 H 457.734 -6.49126 -0.589794 0
M  V30 4964 N 461.167 -1.02423 -1.1978 0
M  V30 4965 C 462.415 -0.716569 -1.8897 0
M  V30 4966 C 462.736 0.756769 -1.79716 0
M  V30 4967 O 462.006 1.5449 -1.20456 0
M  V30 4968 H 460.586 -0.262062 -0.699523 0
M  V30 4969 H 463.248 -1.29747 -1.45436 0
M  V30 4970 H 462.344 -1.00675 -2.95417 0
M  V30 4971 N 462.645 1.35699 -0.801477 0
M  V30 4972 C 464.061 1.52065 -0.484596 0
M  V30 4973 C 464.261 1.75215 0.995084 0
M  V30 4974 O 463.317 1.79061 1.78026 0
M  V30 4975 C 464.63 2.69908 -1.32552 0
M  V30 4976 C 466.178 2.83784 -1.32044 0
M  V30 4977 C 466.653 4.04646 -2.14536 0
M  V30 4978 N 468.144 4.11814 -2.12046 0
M  V30 4979 C 468.879 5.04437 -2.72636 0
M  V30 4980 N 468.375 6.02426 -3.42133 0
M  V30 4981 N 470.168 4.97144 -2.62305 0
M  V30 4982 H 462.319 1.18928 -1.75983 0
M  V30 4983 H 464.582 0.581455 -0.748741 0
M  V30 4984 H 464.288 2.59363 -2.37537 0
M  V30 4985 H 464.162 3.64376 -0.975181 0
M  V30 4986 H 466.549 2.93783 -0.27846 0
M  V30 4987 H 466.63 1.90188 -1.71062 0
M  V30 4988 H 466.274 3.95407 -3.18772 0
M  V30 4989 H 466.204 4.97413 -1.72882 0
M  V30 4990 H 468.695 3.41664 -1.61476 0
M  V30 4991 H 469.008 6.69688 -3.85666 0
M  V30 4992 H 467.353 6.02615 -3.46237 0
M  V30 4993 H 470.544 4.19546 -2.07603 0
M  V30 4994 H 470.717 5.69138 -3.09815 0
M  V30 4995 N 464.123 0.554532 1.47522 0
M  V30 4996 C 465.539 0.214107 1.58157 0
M  V30 4997 C 465.739 -1.28331 1.55349 0
M  V30 4998 O 464.795 -2.06329 1.45549 0
M  V30 4999 C 466.108 0.838391 2.88776 0
M  V30 5000 C 467.656 0.809374 3.02354 0
M  V30 5001 C 468.131 1.41268 4.35669 0
M  V30 5002 N 469.622 1.37574 4.42298 0
M  V30 5003 C 470.357 1.8122 5.4401 0
M  V30 5004 N 469.853 2.3271 6.52547 0
M  V30 5005 N 471.646 1.72307 5.35039 0
M  V30 5006 H 463.797 1.52744 1.4759 0
M  V30 5007 H 466.06 0.636812 0.702264 0
M  V30 5008 H 465.766 1.89065 2.96559 0
M  V30 5009 H 465.64 0.329847 3.75755 0
M  V30 5010 H 468.027 -0.234187 2.94169 0
M  V30 5011 H 468.108 1.35565 2.16924 0
M  V30 5012 H 467.752 2.45529 4.4461 0
M  V30 5013 H 467.682 0.841871 5.19827 0
M  V30 5014 H 470.173 0.999081 3.64454 0
M  V30 5015 H 470.486 2.63944 7.26329 0
M  V30 5016 H 468.831 2.36719 6.53444 0
M  V30 5017 H 472.022 1.3186 4.49144 0
M  V30 5018 H 472.195 2.06641 6.14169 0
M  V30 5019 N 465.601 -1.54893 0.290851 0
M  V30 5020 C 467.012 -1.85584 -0.203816 0
M  V30 5021 C 467.363 -1.21285 -1.54222 0
M  V30 5022 O 466.488 -0.506841 -2.10381 0
M  V30 5023 C 467.083 -3.367 -0.376595 0
M  V30 5024 C 465.642 -3.6746 -0.815485 0
M  V30 5025 C 464.789 -2.77178 0.0821087 0
M  V30 5026 H 467.74 -1.50208 0.512175 0
M  V30 5027 H 467.761 -3.60656 -1.21275 0
M  V30 5028 H 467.273 -3.8347 0.59767 0
M  V30 5029 H 465.374 -3.26201 -1.80066 0
M  V30 5030 H 465.487 -4.7478 -0.641905 0
M  V30 5031 H 463.851 -2.50925 -0.436895 0
M  V30 5032 H 464.634 -3.26767 1.05254 0
M  V30 5033 N 467.08 -0.0183926 -1.57589 0
M  V30 5034 C 467.99 0.982943 -2.13015 0
M  V30 5035 C 469.006 1.36443 -1.07979 0
M  V30 5036 O 470.182 1.44802 -1.3998 0
M  V30 5037 C 467.247 2.25024 -2.63752 0
M  V30 5038 C 466.308 1.93018 -3.83461 0
M  V30 5039 C 465.541 3.13706 -4.31769 0
M  V30 5040 O 465.764 4.2601 -3.79305 0
M  V30 5041 O 464.698 2.96629 -5.23732 0
M  V30 5042 H 468.524 0.541709 -2.9883 0
M  V30 5043 H 466.109 0.201565 -1.48034 0
M  V30 5044 H 467.991 2.99441 -2.96502 0
M  V30 5045 H 466.666 2.68349 -1.81026 0
M  V30 5046 H 465.573 1.16019 -3.55655 0
M  V30 5047 H 466.906 1.54516 -4.67317 0
M  V30 5048 N 468.558 1.5553 0.254621 0
M  V30 5049 C 469.786 1.81046 1.00149 0
M  V30 5050 C 470.201 0.593047 1.79244 0
M  V30 5051 O 469.558 -0.438196 1.77161 0
M  V30 5052 C 469.609 3.04684 1.94551 0
M  V30 5053 O 469.33 4.21725 1.18658 0
M  V30 5054 C 470.831 3.42943 2.80901 0
M  V30 5055 H 468.051 0.602653 0.295044 0
M  V30 5056 H 470.595 2.02576 0.279842 0
M  V30 5057 H 468.75 2.85226 2.62154 0
M  V30 5058 H 469.164 4.91746 1.82445 0
M  V30 5059 H 470.638 4.32576 3.42902 0
M  V30 5060 H 471.115 2.63176 3.51617 0
M  V30 5061 H 471.721 3.64724 2.18762 0
M  V30 5062 N 470.036 -0.519951 1.48776 0
M  V30 5063 C 470.968 -1.63973 1.60142 0
M  V30 5064 C 471.981 -1.55404 0.485117 0
M  V30 5065 O 473.17 -1.61682 0.756391 0
M  V30 5066 C 470.27 -3.02676 1.52449 0
M  V30 5067 C 469.443 -3.36624 2.79291 0
M  V30 5068 C 468.502 -4.54652 2.64912 0
M  V30 5069 O 467.528 -4.57374 3.38818 0
M  V30 5070 N 468.73 -5.53432 1.75195 0
M  V30 5071 H 471.495 -1.54656 2.56713 0
M  V30 5072 H 469.056 -0.707439 1.45626 0
M  V30 5073 H 471.048 -3.79525 1.4051 0
M  V30 5074 H 469.618 -3.06018 0.638125 0
M  V30 5075 H 468.838 -2.48855 3.0572 0
M  V30 5076 H 470.126 -3.56094 3.6342 0
M  V30 5077 H 469.524 -5.54018 1.14371 0
M  V30 5078 H 468.081 -6.29459 1.69189 0
M  V30 5079 N 471.514 -1.37532 -0.769588 0
M  V30 5080 C 472.762 -1.32597 -1.5252 0
M  V30 5081 C 473.083 0.0884294 -1.94799 0
M  V30 5082 O 472.353 1.03289 -1.66458 0
M  V30 5083 H 470.933 -0.487846 -0.565699 0
M  V30 5084 H 473.595 -1.72044 -0.915806 0
M  V30 5085 H 472.691 -1.96643 -2.42359 0
M  V30 5086 N 472.992 0.995999 -1.22138 0
M  V30 5087 C 474.403 1.54961 -1.04135 0
M  V30 5088 C 474.754 1.92159 0.396147 0
M  V30 5089 O 473.879 1.74435 1.28069 0
M  V30 5090 C 474.474 2.81581 -1.88408 0
M  V30 5091 C 473.033 3.33396 -1.74712 0
M  V30 5092 C 472.18 2.06509 -1.85066 0
M  V30 5093 H 475.131 0.817436 -1.36028 0
M  V30 5094 H 475.152 3.53822 -1.39966 0
M  V30 5095 H 474.664 2.54476 -2.93025 0
M  V30 5096 H 472.765 3.65416 -0.728159 0
M  V30 5097 H 472.878 4.04208 -2.57202 0
M  V30 5098 H 471.242 2.19925 -1.28472 0
M  V30 5099 H 472.025 1.81804 -2.91208 0
M  V30 5100 N 474.47 1.03057 1.19235 0
M  V30 5101 C 475.417 0.612832 2.22515 0
M  V30 5102 C 476.387 -0.374224 1.61829 0
M  V30 5103 O 477.572 -0.270501 1.88873 0
M  V30 5104 C 474.712 -0.028475 3.45088 0
M  V30 5105 C 473.825 1.00483 4.20151 0
M  V30 5106 C 472.96 0.333102 5.30155 0
M  V30 5107 C 471.999 1.3522 5.96977 0
M  V30 5108 N 471.136 0.70616 6.9854 0
M  V30 5109 H 475.976 1.49812 2.57605 0
M  V30 5110 H 473.513 0.749658 1.26564 0
M  V30 5111 H 475.471 -0.417548 4.15105 0
M  V30 5112 H 474.101 -0.877334 3.10649 0
M  V30 5113 H 473.153 1.51194 3.49062 0
M  V30 5114 H 474.465 1.77929 4.65986 0
M  V30 5115 H 473.619 -0.110725 6.06599 0
M  V30 5116 H 472.358 -0.473547 4.85396 0
M  V30 5117 H 471.363 1.80627 5.19282 0
M  V30 5118 H 472.588 2.16037 6.4382 0
M  V30 5119 H 470.534 -0.0803667 6.55951 0
M  V30 5120 H 470.451 1.41848 7.42573 0
M  V30 5121 H 471.719 0.286391 7.78974 0
M  V30 5122 N 475.948 -1.35272 0.808662 0
M  V30 5123 C 477.178 -2.02652 0.401953 0
M  V30 5124 C 477.586 -1.6108 -0.992462 0
M  V30 5125 O 476.929 -0.804984 -1.65123 0
M  V30 5126 C 476.991 -3.57174 0.408246 0
M  V30 5127 C 476.655 -4.22019 1.75353 0
M  V30 5128 C 477.652 -4.43552 2.71215 0
M  V30 5129 C 475.337 -4.59093 2.03811 0
M  V30 5130 C 477.331 -5.01264 3.93717 0
M  V30 5131 C 475.018 -5.16519 3.26576 0
M  V30 5132 C 476.016 -5.37546 4.21347 0
M  V30 5133 O 475.704 -5.93761 5.41944 0
M  V30 5134 H 475.436 -0.656495 0.161216 0
M  V30 5135 H 477.99 -1.73829 1.0942 0
M  V30 5136 H 476.22 -3.85197 -0.340608 0
M  V30 5137 H 477.909 -4.05893 0.0235623 0
M  V30 5138 H 478.675 -4.15288 2.50522 0
M  V30 5139 H 474.554 -4.42039 1.30854 0
M  V30 5140 H 478.098 -5.17592 4.67701 0
M  V30 5141 H 473.995 -5.4421 3.47139 0
M  V30 5142 H 474.763 -6.1221 5.43269 0
M  V30 5143 N 477.426 -0.562348 -1.47226 0
M  V30 5144 C 478.666 -0.0426374 -2.04356 0
M  V30 5145 C 479.03 1.28487 -1.42671 0
M  V30 5146 O 480.231 1.89259 -1.90878 0
M  V30 5147 C 478.502 0.0433826 -3.57374 0
M  V30 5148 S 480.061 0.508472 -4.35844 0
M  V30 5149 H 476.879 -0.0276234 -0.710463 0
M  V30 5150 H 479.481 -0.750245 -1.80531 0
M  V30 5151 H 478.185 -0.927072 -3.99792 0
M  V30 5152 H 477.716 0.774387 -3.85703 0
M  V30 5153 H 479.731 1.76719 -4.63665 0
M  V30 5154 N 478.904 1.54736 -0.299062 0
M  V30 5155 C 479.854 2.20155 0.592932 0
M  V30 5156 C 480.838 1.1739 1.10038 0
M  V30 5157 O 482.03 1.43116 1.04147 0
M  V30 5158 C 479.159 2.94437 1.76527 0
M  V30 5159 C 478.245 4.04516 1.27388 0
M  V30 5160 N 478.636 5.03319 0.500339 0
M  V30 5161 C 476.934 4.18022 1.55478 0
M  V30 5162 C 477.635 5.81209 0.238909 0
M  V30 5163 N 476.611 5.37408 0.818163 0
M  V30 5164 H 480.413 2.93899 -0.00563596 0
M  V30 5165 H 477.927 1.62068 -0.103732 0
M  V30 5166 H 479.924 3.3977 2.41582 0
M  V30 5167 H 478.584 2.22209 2.36756 0
M  V30 5168 H 479.595 5.17696 0.145419 0
M  V30 5169 H 476.272 3.56998 2.16469 0
M  V30 5170 H 477.662 6.70812 -0.382223 0
M  V30 5171 N 480.382 0.0267497 1.57577 0
M  V30 5172 C 481.607 -0.666227 1.96408 0
M  V30 5173 C 482.032 -1.65004 0.903071 0
M  V30 5174 O 481.39 -1.80787 -0.136263 0
M  V30 5175 C 481.438 -1.35101 3.34335 0
M  V30 5176 O 480.542 -2.46623 3.30531 0
M  V30 5177 H 479.883 -0.175206 0.640468 0
M  V30 5178 H 482.413 0.0878977 2.04411 0
M  V30 5179 H 482.423 -1.70834 3.70513 0
M  V30 5180 H 481.098 -0.629844 4.11103 0
M  V30 5181 H 479.675 -2.13019 3.06068 0
M  V30 5182 N 481.861 -1.55662 -0.24637 0
M  V30 5183 C 483.086 -1.81914 -0.996093 0
M  V30 5184 C 483.511 -0.603875 -1.78143 0
M  V30 5185 O 482.869 0.447091 -1.75701 0
M  V30 5186 C 482.917 -3.05908 -1.90925 0
M  V30 5187 O 482.021 -2.82861 -3.00105 0
M  V30 5188 H 481.362 -0.600481 -0.283406 0
M  V30 5189 H 483.892 -2.02848 -0.267199 0
M  V30 5190 H 483.902 -3.35356 -2.3238 0
M  V30 5191 H 482.577 -3.93999 -1.33183 0
M  V30 5192 H 481.154 -2.64583 -2.62775 0
M  V30 5193 N 483.339 0.512053 -1.4905 0
M  V30 5194 C 484.586 1.26686 -1.57978 0
M  V30 5195 C 484.914 1.92733 -0.261553 0
M  V30 5196 O 484.169 1.80772 0.749667 0
M  V30 5197 C 484.468 2.36446 -2.68008 0
M  V30 5198 C 484.134 1.87932 -4.09869 0
M  V30 5199 C 482.796 1.74419 -4.48477 0
M  V30 5200 C 485.148 1.5149 -4.98698 0
M  V30 5201 C 482.476 1.22827 -5.73699 0
M  V30 5202 C 484.828 1.01355 -6.24428 0
M  V30 5203 C 483.492 0.864735 -6.61875 0
M  V30 5204 H 482.762 0.463577 -0.578081 0
M  V30 5205 H 485.409 0.569421 -1.82838 0
M  V30 5206 H 483.714 3.11933 -2.37076 0
M  V30 5207 H 485.411 2.9453 -2.72127 0
M  V30 5208 H 482.001 1.99405 -3.79389 0
M  V30 5209 H 486.185 1.60782 -4.69535 0
M  V30 5210 H 481.441 1.10008 -6.01422 0
M  V30 5211 H 485.615 0.722351 -6.92644 0
M  V30 5212 H 483.242 0.462777 -7.5879 0
M  V30 5213 N 484.817 1.37938 0.762283 0
M  V30 5214 C 486.094 1.24196 1.51112 0
M  V30 5215 C 486.474 -0.160409 2.1049 0
M  V30 5216 O 485.822 -1.16904 1.96331 0
M  V30 5217 C 486.032 2.34537 2.58445 0
M  V30 5218 C 487.38 2.7254 3.25588 0
M  V30 5219 O 488.404 2.33783 2.68745 0
M  V30 5220 O 487.263 3.39343 4.28379 0
M  V30 5221 H 484.357 0.485175 0.669727 0
M  V30 5222 H 486.903 1.49743 0.798438 0
M  V30 5223 H 485.675 3.28406 2.12756 0
M  V30 5224 H 485.298 2.10505 3.37303 0
M  V30 5225 N 486.295 -0.989507 1.22664 0
M  V30 5226 C 487.258 -2.06183 1.00106 0
M  V30 5227 C 488.258 -1.60765 -0.0337726 0
M  V30 5228 O 489.448 -1.72989 0.205072 0
M  V30 5229 C 486.58 -3.37021 0.51279 0
M  V30 5230 H 487.773 -2.27629 1.95256 0
M  V30 5231 H 485.326 -1.16158 1.0458 0
M  V30 5232 H 486.061 -3.21261 -0.442917 0
M  V30 5233 H 485.846 -3.71323 1.25942 0
M  V30 5234 H 487.336 -4.1591 0.375315 0
M  V30 5235 N 487.773 -1.03688 -1.18687 0
M  V30 5236 C 489.022 -0.733235 -1.879 0
M  V30 5237 C 489.335 0.741745 -1.8099 0
M  V30 5238 O 490.541 1.15875 -2.4553 0
M  V30 5239 C 488.997 -1.26127 -3.37076 0
M  V30 5240 C 488.605 -2.76461 -3.52524 0
M  V30 5241 C 490.349 -1.03398 -4.11715 0
M  V30 5242 C 488.256 -3.22642 -4.95637 0
M  V30 5243 H 487.186 -0.270584 -0.703776 0
M  V30 5244 H 489.837 -1.25222 -1.34133 0
M  V30 5245 H 488.219 -0.670165 -3.90288 0
M  V30 5246 H 489.393 -3.41296 -3.09602 0
M  V30 5247 H 487.708 -2.97559 -2.91286 0
M  V30 5248 H 490.305 -1.3542 -5.17267 0
M  V30 5249 H 490.648 0.0289246 -4.1629 0
M  V30 5250 H 491.181 -1.5895 -3.64664 0
M  V30 5251 H 487.92 -4.28296 -4.96228 0
M  V30 5252 H 487.44 -2.62539 -5.39289 0
M  V30 5253 H 489.119 -3.16444 -5.64333 0
M  V30 5254 N 489.251 1.34841 -0.815825 0
M  V30 5255 C 490.479 2.0273 -0.413294 0
M  V30 5256 C 490.894 1.61459 0.978599 0
M  V30 5257 O 490.251 0.816584 1.63212 0
M  V30 5258 C 490.302 3.58058 -0.497676 0
M  V30 5259 O 490.023 3.97832 -1.8347 0
M  V30 5260 C 491.524 4.4321 -0.0891339 0
M  V30 5261 H 488.744 0.649956 -0.166728 0
M  V30 5262 H 491.288 1.72267 -1.10201 0
M  V30 5263 H 489.443 3.87136 0.142886 0
M  V30 5264 H 489.857 4.92501 -1.80396 0
M  V30 5265 H 491.331 5.5164 -0.199274 0
M  V30 5266 H 491.808 4.28432 0.966571 0
M  V30 5267 H 492.414 4.19446 -0.703214 0
M  V30 5268 N 490.729 0.570148 1.46925 0
M  V30 5269 C 491.975 0.0510284 2.02736 0
M  V30 5270 C 492.308 -1.3006 1.44215 0
M  V30 5271 O 491.583 -1.84932 0.602521 0
M  V30 5272 C 491.866 -0.028215 3.60089 0
M  V30 5273 C 491.719 1.35142 4.29018 0
M  V30 5274 C 493.038 -0.735181 4.33916 0
M  V30 5275 H 490.157 0.0200178 0.736728 0
M  V30 5276 H 492.799 0.73493 1.75211 0
M  V30 5277 H 490.949 -0.610648 3.83671 0
M  V30 5278 H 492.621 1.97806 4.16738 0
M  V30 5279 H 490.864 1.9226 3.88868 0
M  V30 5280 H 491.535 1.24857 5.37694 0
M  V30 5281 H 494.011 -0.240519 4.15404 0
M  V30 5282 H 492.887 -0.759622 5.43618 0
M  V30 5283 H 493.148 -1.79397 4.04066 0
M  V30 5284 N 492.207 -1.54576 0.307264 0
M  V30 5285 C 493.484 -1.92377 -0.353605 0
M  V30 5286 C 493.864 -1.23517 -1.71192 0
M  V30 5287 O 493.212 -0.373101 -2.25433 0
M  V30 5288 C 493.422 -3.45928 -0.462039 0
M  V30 5289 C 494.77 -4.18278 -0.729975 0
M  V30 5290 O 495.794 -3.51997 -0.545605 0
M  V30 5291 O 494.653 -5.3563 -1.08454 0
M  V30 5292 H 491.747 -0.802747 -0.198812 0
M  V30 5293 H 494.293 -1.65929 0.355783 0
M  V30 5294 H 493.065 -3.88187 0.492592 0
M  V30 5295 H 492.688 -3.78431 -1.21965 0
M  V30 5296 N 493.685 -0.035106 -1.57561 0
M  V30 5297 C 495.101 0.321334 -1.56332 0
M  V30 5298 C 495.301 1.72509 -1.04129 0
M  V30 5299 O 494.357 2.4287 -0.690694 0
M  V30 5300 C 495.67 0.164469 -3.0025 0
M  V30 5301 C 497.218 0.236786 -3.12103 0
M  V30 5302 C 497.693 0.10864 -4.57871 0
M  V30 5303 N 499.184 0.165433 -4.62904 0
M  V30 5304 C 499.919 0.0901506 -5.73329 0
M  V30 5305 N 499.415 -0.0365606 -6.9279 0
M  V30 5306 N 501.208 0.144572 -5.61914 0
M  V30 5307 H 493.359 -0.952976 -1.89821 0
M  V30 5308 H 495.622 -0.368537 -0.873432 0
M  V30 5309 H 495.328 -0.802746 -3.42416 0
M  V30 5310 H 495.202 0.932194 -3.655 0
M  V30 5311 H 497.589 1.19446 -2.69845 0
M  V30 5312 H 497.67 -0.561419 -2.49563 0
M  V30 5313 H 497.314 -0.845644 -5.00811 0
M  V30 5314 H 497.244 0.925786 -5.18398 0
M  V30 5315 H 499.735 0.263269 -3.76982 0
M  V30 5316 H 500.048 -0.0871487 -7.72751 0
M  V30 5317 H 498.393 -0.0714256 -6.94963 0
M  V30 5318 H 501.584 0.242006 -4.67474 0
M  V30 5319 H 501.757 0.0824413 -6.47948 0
M  V30 5320 N 495.163 1.55791 0.238111 0
M  V30 5321 C 496.095 1.87513 1.31802 0
M  V30 5322 C 497.108 0.762053 1.43863 0
M  V30 5323 O 498.297 1.04024 1.45056 0
M  V30 5324 C 495.397 2.05402 2.69561 0
M  V30 5325 C 494.57 3.3632 2.79656 0
M  V30 5326 C 493.629 3.43844 3.98319 0
M  V30 5327 O 492.655 4.16994 3.87433 0
M  V30 5328 N 493.857 2.73777 5.11885 0
M  V30 5329 H 496.622 2.80734 1.04922 0
M  V30 5330 H 494.183 1.56135 0.428196 0
M  V30 5331 H 496.175 2.07769 3.47296 0
M  V30 5332 H 494.745 1.18884 2.89111 0
M  V30 5333 H 493.965 3.46195 1.88528 0
M  V30 5334 H 495.253 4.22594 2.83358 0
M  V30 5335 H 494.651 2.14094 5.23622 0
M  V30 5336 H 493.208 2.81825 5.87723 0
M  V30 5337 N 496.642 -0.504142 1.49319 0
M  V30 5338 C 497.574 -1.62265 1.61872 0
M  V30 5339 C 498.587 -1.54881 0.501573 0
M  V30 5340 O 499.776 -1.6087 0.773497 0
M  V30 5341 C 496.876 -3.01042 1.55651 0
M  V30 5342 C 496.049 -3.33642 2.82845 0
M  V30 5343 C 495.108 -4.51816 2.69719 0
M  V30 5344 O 494.134 -4.53755 3.4365 0
M  V30 5345 N 495.336 -5.51543 1.81055 0
M  V30 5346 H 498.101 -1.51924 2.58339 0
M  V30 5347 H 495.662 -0.691954 1.46368 0
M  V30 5348 H 497.654 -3.78013 1.44528 0
M  V30 5349 H 496.224 -3.05323 0.670546 0
M  V30 5350 H 495.444 -2.45598 3.08343 0
M  V30 5351 H 496.732 -3.5222 3.67177 0
M  V30 5352 H 496.13 -5.52774 1.20241 0
M  V30 5353 H 494.687 -6.27629 1.75856 0
M  V30 5354 N 498.12 -1.38341 -0.754957 0
M  V30 5355 C 499.052 -1.31347 -1.87831 0
M  V30 5356 C 500.065 -0.225955 -1.61224 0
M  V30 5357 O 501.254 -0.48341 -1.7183 0
M  V30 5358 C 498.354 -1.01201 -3.23437 0
M  V30 5359 C 497.527 -2.20834 -3.77559 0
M  V30 5360 C 496.586 -1.87454 -4.91678 0
M  V30 5361 O 495.612 -2.59934 -5.06382 0
M  V30 5362 N 496.814 -0.828682 -5.74555 0
M  V30 5363 H 499.579 -2.28147 -1.94342 0
M  V30 5364 H 497.14 -1.32184 -0.934828 0
M  V30 5365 H 499.132 -0.769249 -3.97322 0
M  V30 5366 H 497.702 -0.132011 -3.12321 0
M  V30 5367 H 496.922 -2.61184 -2.95256 0
M  V30 5368 H 498.21 -3.00678 -4.10451 0
M  V30 5369 H 497.608 -0.227591 -5.65242 0
M  V30 5370 H 496.165 -0.645802 -6.48593 0
M  V30 5371 N 499.598 0.982988 -1.23187 0
M  V30 5372 C 500.528 2.09301 -1.03515 0
M  V30 5373 C 501.509 1.70035 0.0471136 0
M  V30 5374 O 502.694 1.93847 -0.117029 0
M  V30 5375 C 499.824 3.4167 -0.622791 0
M  V30 5376 C 498.778 3.94828 -1.65211 0
M  V30 5377 C 498.104 5.23362 -1.09527 0
M  V30 5378 C 499.404 4.2439 -3.04451 0
M  V30 5379 H 501.098 2.26016 -1.96359 0
M  V30 5380 H 498.644 1.08611 -0.945501 0
M  V30 5381 H 500.597 4.18746 -0.472233 0
M  V30 5382 H 499.321 3.24811 0.341329 0
M  V30 5383 H 497.98 3.19895 -1.79061 0
M  V30 5384 H 497.628 5.02852 -0.122211 0
M  V30 5385 H 497.328 5.59895 -1.783 0
M  V30 5386 H 498.852 6.03062 -0.956511 0
M  V30 5387 H 500.266 4.92225 -2.93917 0
M  V30 5388 H 498.663 4.72118 -3.70438 0
M  V30 5389 H 499.733 3.31765 -3.53638 0
M  V30 5390 N 501.076 1.04316 1.18135 0
M  V30 5391 C 502.306 0.767003 1.91835 0
M  V30 5392 C 502.714 -0.68002 1.76557 0
M  V30 5393 O 502.057 -1.47548 1.09432 0
M  V30 5394 C 502.119 1.05674 3.43618 0
M  V30 5395 C 501.783 2.49818 3.82675 0
M  V30 5396 C 502.78 3.48003 3.86251 0
M  V30 5397 C 500.465 2.84596 4.13897 0
M  V30 5398 C 502.459 4.79016 4.20503 0
M  V30 5399 C 500.146 4.15813 4.4782 0
M  V30 5400 C 501.144 5.12834 4.51099 0
M  V30 5401 O 500.832 6.41699 4.84229 0
M  V30 5402 H 500.564 0.278948 0.615763 0
M  V30 5403 H 503.118 1.3946 1.50798 0
M  V30 5404 H 501.348 0.372029 3.84906 0
M  V30 5405 H 503.037 0.767994 3.98568 0
M  V30 5406 H 503.803 3.22475 3.62264 0
M  V30 5407 H 499.682 2.09748 4.1052 0
M  V30 5408 H 503.226 5.54739 4.22978 0
M  V30 5409 H 499.123 4.41109 4.71268 0
M  V30 5410 H 499.891 6.46387 5.02121 0
M  V30 5411 N 502.554 -1.34406 0.822964 0
M  V30 5412 C 503.803 -1.97542 0.407458 0
M  V30 5413 C 504.116 -1.65973 -1.035 0
M  V30 5414 O 505.322 -2.22598 -1.55442 0
M  V30 5415 C 503.778 -3.53463 0.677623 0
M  V30 5416 C 503.386 -3.93925 2.1337 0
M  V30 5417 C 505.13 -4.23229 0.328284 0
M  V30 5418 C 503.037 -5.42759 2.34876 0
M  V30 5419 H 501.967 -0.739207 0.148623 0
M  V30 5420 H 504.618 -1.53248 1.00932 0
M  V30 5421 H 503 -3.96 0.00558965 0
M  V30 5422 H 504.174 -3.62494 2.8449 0
M  V30 5423 H 502.489 -3.37097 2.44448 0
M  V30 5424 H 505.086 -5.32659 0.466794 0
M  V30 5425 H 505.429 -4.09899 -0.727224 0
M  V30 5426 H 505.962 -3.86169 0.954896 0
M  V30 5427 H 502.701 -5.61075 3.38932 0
M  V30 5428 H 502.221 -5.75704 1.68299 0
M  V30 5429 H 503.9 -6.0944 2.17236 0
M  V30 5430 N 504.032 -0.577932 -1.46621 0
M  V30 5431 C 505.279 -0.0616879 -2.02406 0
M  V30 5432 C 505.607 1.29638 -1.44997 0
M  V30 5433 O 504.862 1.86176 -0.60308 0
M  V30 5434 C 505.161 0.0590832 -3.57351 0
M  V30 5435 C 504.827 -1.23077 -4.33777 0
M  V30 5436 C 503.489 -1.58416 -4.54376 0
M  V30 5437 C 505.841 -2.08457 -4.77698 0
M  V30 5438 C 503.169 -2.78943 -5.16147 0
M  V30 5439 C 505.521 -3.28204 -5.408 0
M  V30 5440 C 504.185 -3.63832 -5.59627 0
M  V30 5441 H 503.455 -0.0225732 -0.740656 0
M  V30 5442 H 506.102 -0.753609 -1.76048 0
M  V30 5443 H 504.407 0.834104 -3.82818 0
M  V30 5444 H 506.104 0.474202 -3.98186 0
M  V30 5445 H 502.694 -0.945652 -4.18038 0
M  V30 5446 H 506.878 -1.82459 -4.61544 0
M  V30 5447 H 502.134 -3.06689 -5.28916 0
M  V30 5448 H 506.308 -3.94634 -5.73792 0
M  V30 5449 H 503.935 -4.57315 -6.07262 0
M  V30 5450 N 505.51 1.54411 -0.315457 0
M  V30 5451 C 506.457 2.24048 0.554166 0
M  V30 5452 C 507.427 1.2283 1.11812 0
M  V30 5453 O 508.612 1.51491 1.15997 0
M  V30 5454 C 505.752 2.99574 1.71316 0
M  V30 5455 C 504.865 4.15594 1.17922 0
M  V30 5456 C 504 4.78669 2.30324 0
M  V30 5457 C 503.039 5.86807 1.74137 0
M  V30 5458 N 502.176 6.43777 2.8017 0
M  V30 5459 H 507.016 2.97964 -0.0462602 0
M  V30 5460 H 504.553 1.47059 -0.0346009 0
M  V30 5461 H 506.511 3.41604 2.39505 0
M  V30 5462 H 505.141 2.28008 2.285 0
M  V30 5463 H 504.193 3.78404 0.389136 0
M  V30 5464 H 505.505 4.93459 0.728012 0
M  V30 5465 H 504.659 5.23626 3.06433 0
M  V30 5466 H 503.398 4.00168 2.78778 0
M  V30 5467 H 502.403 5.41261 0.965236 0
M  V30 5468 H 503.628 6.67201 1.2657 0
M  V30 5469 H 501.574 5.68153 3.2793 0
M  V30 5470 H 501.491 7.17031 2.39588 0
M  V30 5471 H 502.759 6.9339 3.56132 0
M  V30 5472 N 506.988 0.0434614 1.5754 0
M  V30 5473 C 508.236 -0.630786 1.92004 0
M  V30 5474 C 508.557 -1.71836 0.921807 0
M  V30 5475 O 507.827 -1.9587 -0.034522 0
M  V30 5476 H 506.407 -0.235988 0.708745 0
M  V30 5477 H 509.069 0.0946462 1.9467 0
M  V30 5478 H 508.165 -1.07434 2.93026 0
M  V30 5479 N 508.466 -1.55915 -0.229846 0
M  V30 5480 C 509.691 -1.8296 -0.976743 0
M  V30 5481 C 510.116 -0.622735 -1.77493 0
M  V30 5482 O 509.474 0.428431 -1.76165 0
M  V30 5483 C 509.522 -3.07916 -1.8767 0
M  V30 5484 O 508.626 -2.86028 -2.97088 0
M  V30 5485 H 507.967 -0.603453 -0.277021 0
M  V30 5486 H 510.497 -2.0312 -0.245669 0
M  V30 5487 H 510.507 -3.37802 -2.2881 0
M  V30 5488 H 509.182 -3.95389 -1.28996 0
M  V30 5489 H 507.759 -2.67355 -2.59954 0
M  V30 5490 N 509.944 0.496216 -1.49584 0
M  V30 5491 C 510.894 1.59422 -1.62999 0
M  V30 5492 C 511.878 1.53402 -0.485457 0
M  V30 5493 O 513.07 1.60851 -0.738649 0
M  V30 5494 C 510.199 2.98009 -1.70427 0
M  V30 5495 C 509.285 3.09008 -2.90473 0
M  V30 5496 N 509.676 2.89884 -4.14489 0
M  V30 5497 C 507.974 3.40115 -2.8851 0
M  V30 5498 C 508.675 3.0519 -4.95211 0
M  V30 5499 N 507.651 3.3428 -4.2867 0
M  V30 5500 H 511.453 1.43297 -2.56599 0
M  V30 5501 H 508.967 0.702443 -1.46422 0
M  V30 5502 H 510.964 3.76926 -1.78136 0
M  V30 5503 H 509.624 3.152 -0.77967 0
M  V30 5504 H 510.635 2.65963 -4.44392 0
M  V30 5505 H 507.312 3.63452 -2.05448 0
M  V30 5506 H 508.702 2.94856 -6.03746 0
M  V30 5507 N 511.423 1.38739 0.74761 0
M  V30 5508 C 512.67 1.35274 1.50689 0
M  V30 5509 C 512.998 -0.0553359 1.94421 0
M  V30 5510 O 512.253 -1.03365 1.66175 0
M  V30 5511 C 512.552 2.25992 2.7688 0
M  V30 5512 C 512.218 3.73854 2.5208 0
M  V30 5513 C 510.88 4.14145 2.45025 0
M  V30 5514 C 513.232 4.67427 2.30568 0
M  V30 5515 C 510.56 5.4609 2.14483 0
M  V30 5516 C 512.912 5.99635 2.01545 0
M  V30 5517 C 511.576 6.39004 1.92951 0
M  V30 5518 H 510.846 0.495003 0.55141 0
M  V30 5519 H 513.493 1.71145 0.859158 0
M  V30 5520 H 511.798 1.83196 3.46333 0
M  V30 5521 H 513.495 2.20611 3.34861 0
M  V30 5522 H 510.085 3.41913 2.58444 0
M  V30 5523 H 514.269 4.3714 2.34994 0
M  V30 5524 H 509.525 5.75528 2.06342 0
M  V30 5525 H 513.699 6.71678 1.83906 0
M  V30 5526 H 511.326 7.41165 1.6905 0
M  V30 5527 N 512.901 -0.976442 1.23707 0
M  V30 5528 C 514.147 -1.72158 1.08319 0
M  V30 5529 C 514.502 -1.88701 -0.375445 0
M  V30 5530 O 513.795 -1.43107 -1.274 0
M  V30 5531 C 513.989 -3.11814 1.74662 0
M  V30 5532 C 513.818 -3.08892 3.26827 0
M  V30 5533 C 512.588 -3.13861 3.96004 0
M  V30 5534 C 514.786 -2.9175 4.2354 0
M  V30 5535 N 512.768 -3.00867 5.35119 0
M  V30 5536 C 514.139 -2.8696 5.49595 0
M  V30 5537 C 516.194 -2.76265 4.14225 0
M  V30 5538 C 514.897 -2.68268 6.67401 0
M  V30 5539 C 516.923 -2.58938 5.317 0
M  V30 5540 C 516.285 -2.54849 6.56682 0
M  V30 5541 H 512.384 -0.638896 0.450927 0
M  V30 5542 H 514.968 -1.15835 1.56494 0
M  V30 5543 H 513.139 -3.66347 1.29014 0
M  V30 5544 H 514.871 -3.74984 1.52215 0
M  V30 5545 H 511.626 -3.22198 3.4711 0
M  V30 5546 H 512.05 -2.97634 6.08065 0
M  V30 5547 H 516.692 -2.78213 3.18366 0
M  V30 5548 H 514.41 -2.65063 7.63392 0
M  V30 5549 H 517.996 -2.47914 5.26336 0
M  V30 5550 H 516.876 -2.41611 7.46052 0
M  V30 5551 N 514.379 -1.04941 -1.1758 0
M  V30 5552 C 515.289 -0.658826 -2.25159 0
M  V30 5553 C 516.305 0.318941 -1.71052 0
M  V30 5554 O 517.481 0.171669 -2.00667 0
M  V30 5555 C 514.546 -0.0369522 -3.4668 0
M  V30 5556 C 513.607 -1.06484 -4.15884 0
M  V30 5557 C 512.84 -0.472551 -5.31604 0
M  V30 5558 O 513.063 0.718736 -5.65854 0
M  V30 5559 O 511.997 -1.20557 -5.89703 0
M  V30 5560 H 515.823 -1.55533 -2.60851 0
M  V30 5561 H 513.408 -0.820819 -1.24832 0
M  V30 5562 H 515.29 0.308784 -4.20267 0
M  V30 5563 H 513.965 0.833238 -3.12792 0
M  V30 5564 H 512.872 -1.46253 -3.44327 0
M  V30 5565 H 514.205 -1.9061 -4.53794 0
M  V30 5566 N 515.857 1.33968 -0.830081 0
M  V30 5567 C 517.103 1.98357 -0.422191 0
M  V30 5568 C 517.436 1.65633 1.01387 0
M  V30 5569 O 516.711 0.931648 1.70735 0
M  V30 5570 C 516.994 3.54492 -0.633043 0
M  V30 5571 C 516.847 3.96934 -2.11574 0
M  V30 5572 C 518.166 4.40039 -0.0735584 0
M  V30 5573 H 515.285 0.720544 -0.154871 0
M  V30 5574 H 517.927 1.58749 -1.04397 0
M  V30 5575 H 516.077 3.88361 -0.103775 0
M  V30 5576 H 517.749 3.73363 -2.7092 0
M  V30 5577 H 515.992 3.46984 -2.60354 0
M  V30 5578 H 516.663 5.05651 -2.21406 0
M  V30 5579 H 519.139 4.12764 -0.52585 0
M  V30 5580 H 518.015 5.48327 -0.250841 0
M  V30 5581 H 518.276 4.30124 1.02202 0
M  V30 5582 N 517.335 0.585699 1.46312 0
M  V30 5583 C 518.298 -0.135673 2.28798 0
M  V30 5584 C 519.298 -0.815988 1.38558 0
M  V30 5585 O 520.488 -0.667487 1.60904 0
M  V30 5586 C 517.62 -1.20163 3.1902 0
M  V30 5587 H 518.813 0.589257 2.94054 0
M  V30 5588 H 516.366 0.343794 1.52472 0
M  V30 5589 H 517.101 -1.95804 2.58517 0
M  V30 5590 H 516.886 -0.718282 3.85465 0
M  V30 5591 H 518.376 -1.70749 3.81096 0
M  V30 5592 N 518.813 -1.54241 0.323641 0
M  V30 5593 C 519.776 -2.22997 -0.529602 0
M  V30 5594 C 520.776 -1.22345 -1.04347 0
M  V30 5595 O 521.966 -1.46924 -0.935889 0
M  V30 5596 C 519.098 -2.93409 -1.73562 0
M  V30 5597 H 520.291 -2.99815 0.0714518 0
M  V30 5598 H 517.844 -1.56121 0.0747258 0
M  V30 5599 H 518.579 -2.20729 -2.37591 0
M  V30 5600 H 518.364 -3.67217 -1.37456 0
M  V30 5601 H 519.854 -3.45794 -2.34128 0
M  V30 5602 N 520.291 -0.0518155 -1.57515 0
M  V30 5603 C 521.568 0.661727 -1.84067 0
M  V30 5604 C 521.948 1.88999 -0.940351 0
M  V30 5605 O 521.296 2.285 -0.00155404 0
M  V30 5606 C 521.506 1.01841 -3.3381 0
M  V30 5607 C 522.854 1.40043 -4.00841 0
M  V30 5608 O 523.878 1.11073 -3.38439 0
M  V30 5609 O 522.737 1.94111 -5.10865 0
M  V30 5610 H 519.831 0.326702 -0.759733 0
M  V30 5611 H 522.377 -0.0812277 -1.69505 0
M  V30 5612 H 521.149 0.145202 -3.91031 0
M  V30 5613 H 520.772 1.81879 -3.53562 0
M  V30 5614 N 521.769 1.56035 0.221574 0
M  V30 5615 C 523.017 1.78693 0.944102 0
M  V30 5616 C 523.338 0.620317 1.8487 0
M  V30 5617 O 522.608 -0.362784 1.92512 0
M  V30 5618 H 521.188 0.659082 0.351597 0
M  V30 5619 H 523.85 1.93497 0.233435 0
M  V30 5620 H 522.946 2.70837 1.55093 0
M  V30 5621 N 523.247 -0.488276 1.49845 0
M  V30 5622 C 524.195 -1.60917 1.67954 0
M  V30 5623 C 525.189 -1.6038 0.54539 0
M  V30 5624 O 526.395 -1.64736 0.7254 0
M  V30 5625 H 522.77 -0.533658 0.529824 0
M  V30 5626 H 524.741 -1.428 2.62013 0
M  V30 5627 C 523.49 -2.98975 1.77509 0
M  V30 5628 H 522.813 -3.00099 2.6416 0
M  V30 5629 H 524.253 -3.76906 1.9421 0
M  V30 5630 C 522.712 -3.3282 0.522745 0
M  V30 5631 O 523.242 -4.00208 -0.345866 0
M  V30 5632 N 521.448 -2.8808 0.381882 0
M  V30 5633 H 520.995 -2.33415 1.08974 0
M  V30 5634 H 520.953 -3.11091 -0.454929 0
M  V30 5635 N 524.725 -1.39134 -0.740242 0
M  V30 5636 C 525.971 -1.36273 -1.50192 0
M  V30 5637 C 526.304 0.0430136 -1.94152 0
M  V30 5638 O 525.579 1.00691 -1.66408 0
M  V30 5639 C 525.862 -2.33041 -2.74525 0
M  V30 5640 C 525.715 -3.82535 -2.36617 0
M  V30 5641 C 527.034 -2.27723 -3.76604 0
M  V30 5642 H 524.153 -0.496323 -0.544823 0
M  V30 5643 H 526.795 -1.70085 -0.846815 0
M  V30 5644 H 524.945 -2.04337 -3.30422 0
M  V30 5645 H 526.617 -4.21967 -1.86391 0
M  V30 5646 H 524.86 -3.99565 -1.68909 0
M  V30 5647 H 525.531 -4.45723 -3.2563 0
M  V30 5648 H 528.007 -2.53091 -3.30279 0
M  V30 5649 H 526.883 -2.97519 -4.61274 0
M  V30 5650 H 527.144 -1.28049 -4.2315 0
M  V30 5651 N 526.204 0.969867 -1.24223 0
M  V30 5652 C 527.429 1.75289 -1.10853 0
M  V30 5653 C 527.854 1.85091 0.335079 0
M  V30 5654 O 527.212 1.32024 1.24255 0
M  V30 5655 C 527.26 3.15255 -1.75062 0
M  V30 5656 O 526.364 3.99589 -1.01992 0
M  V30 5657 H 525.705 0.538904 -0.387915 0
M  V30 5658 H 528.235 1.21675 -1.64488 0
M  V30 5659 H 528.245 3.65787 -1.80731 0
M  V30 5660 H 526.92 3.07436 -2.801 0
M  V30 5661 H 525.497 3.58077 -1.04094 0
M  V30 5662 N 527.682 1.05563 1.17022 0
M  V30 5663 C 528.592 0.670758 2.24807 0
M  V30 5664 C 529.608 -0.309865 1.71219 0
M  V30 5665 O 530.784 -0.161025 2.00755 0
M  V30 5666 C 527.849 0.055337 3.46656 0
M  V30 5667 C 526.91 1.08688 4.15314 0
M  V30 5668 C 526.143 0.500736 5.31346 0
M  V30 5669 O 526.366 -0.688718 5.66227 0
M  V30 5670 O 525.3 1.23683 5.89055 0
M  V30 5671 H 529.126 1.56914 2.60023 0
M  V30 5672 H 526.711 0.827428 1.24395 0
M  V30 5673 H 528.593 -0.286492 4.20425 0
M  V30 5674 H 527.268 -0.816638 3.13229 0
M  V30 5675 H 526.175 1.48077 3.43546 0
M  V30 5676 H 527.508 1.93014 4.52777 0
M  V30 5677 N 529.16 -1.33526 0.837174 0
M  V30 5678 C 530.571 -1.80182 0.489017 0
M  V30 5679 C 530.922 -1.69285 -0.991826 0
M  V30 5680 O 530.047 -1.24113 -1.77271 0
M  V30 5681 C 530.642 -3.27149 0.880866 0
M  V30 5682 C 529.201 -3.71828 0.584872 0
M  V30 5683 C 528.348 -2.54974 1.09011 0
M  V30 5684 H 531.299 -1.21071 1.02603 0
M  V30 5685 H 531.32 -3.80024 0.190239 0
M  V30 5686 H 530.832 -3.35048 1.95869 0
M  V30 5687 H 528.933 -3.69457 -0.48295 0
M  V30 5688 H 529.046 -4.65366 1.13892 0
M  V30 5689 H 527.41 -2.4952 0.511047 0
M  V30 5690 H 528.193 -2.65637 2.17467 0
M  V30 5691 N 530.638 -0.59345 -1.46 0
M  V30 5692 C 532.054 -0.255965 -1.57534 0
M  V30 5693 C 532.254 1.24167 -1.58697 0
M  V30 5694 O 531.31 2.02398 -1.50968 0
M  V30 5695 C 532.623 -0.91466 -2.86451 0
M  V30 5696 C 534.171 -0.889253 -3.00102 0
M  V30 5697 C 534.646 -1.52769 -4.3177 0
M  V30 5698 N 536.137 -1.49253 -4.38495 0
M  V30 5699 C 536.872 -1.9558 -5.39014 0
M  V30 5700 N 536.368 -2.49929 -6.46148 0
M  V30 5701 N 538.161 -1.86432 -5.30282 0
M  V30 5702 H 530.312 -1.56604 -1.43489 0
M  V30 5703 H 532.575 -0.655207 -0.685133 0
M  V30 5704 H 532.281 -1.96861 -2.91442 0
M  V30 5705 H 532.155 -0.429356 -3.74748 0
M  V30 5706 H 534.542 0.156111 -2.94687 0
M  V30 5707 H 534.623 -1.41268 -2.13253 0
M  V30 5708 H 534.267 -2.57231 -4.37944 0
M  V30 5709 H 534.197 -0.979398 -5.17412 0
M  V30 5710 H 536.688 -1.09536 -3.61677 0
M  V30 5711 H 537.001 -2.83109 -7.19075 0
M  V30 5712 H 535.346 -2.53961 -6.46938 0
M  V30 5713 H 538.537 -1.43722 -4.4549 0
M  V30 5714 H 538.71 -2.22852 -6.08474 0
M  V30 5715 N 532.116 1.54067 -0.331816 0
M  V30 5716 C 533.527 1.86059 0.15454 0
M  V30 5717 C 533.878 1.25331 1.50952 0
M  V30 5718 O 533.003 0.562441 2.08963 0
M  V30 5719 C 533.598 3.37581 0.287192 0
M  V30 5720 C 532.157 3.69493 0.717773 0
M  V30 5721 C 531.304 2.76863 -0.155569 0
M  V30 5722 H 534.255 1.48797 -0.55182 0
M  V30 5723 H 534.276 3.63744 1.11671 0
M  V30 5724 H 533.788 3.81751 -0.699131 0
M  V30 5725 H 531.889 3.3086 1.71354 0
M  V30 5726 H 532.002 4.76315 0.5158 0
M  V30 5727 H 530.366 2.51995 0.370213 0
M  V30 5728 H 531.149 3.23861 -1.13881 0
M  V30 5729 N 533.594 0.0601682 1.57485 0
M  V30 5730 C 534.524 -0.90889 2.15085 0
M  V30 5731 C 535.505 -1.31838 1.07484 0
M  V30 5732 O 536.69 -1.3915 1.35466 0
M  V30 5733 C 533.82 -2.18059 2.7031 0
M  V30 5734 C 532.774 -1.91088 3.82974 0
M  V30 5735 C 532.1 -3.24789 4.24754 0
M  V30 5736 C 533.4 -1.22535 5.07723 0
M  V30 5737 H 535.094 -0.429093 2.96309 0
M  V30 5738 H 532.64 -0.204952 1.42534 0
M  V30 5739 H 534.593 -2.86258 3.09248 0
M  V30 5740 H 533.317 -2.6826 1.8629 0
M  V30 5741 H 531.976 -1.25297 3.44523 0
M  V30 5742 H 531.624 -3.72809 3.37672 0
M  V30 5743 H 531.324 -3.07538 5.00694 0
M  V30 5744 H 532.848 -3.94205 4.66299 0
M  V30 5745 H 534.262 -1.80783 5.4405 0
M  V30 5746 H 532.659 -1.1558 5.88864 0
M  V30 5747 H 533.729 -0.202692 4.84476 0
M  V30 5748 N 535.072 -1.5615 -0.213296 0
M  V30 5749 C 536.004 -1.89586 -1.28802 0
M  V30 5750 C 537.017 -0.784844 -1.42633 0
M  V30 5751 O 538.206 -1.06319 -1.43383 0
M  V30 5752 C 535.306 -2.09665 -2.66259 0
M  V30 5753 C 534.479 -3.40726 -2.7427 0
M  V30 5754 C 533.538 -3.50137 -3.92798 0
M  V30 5755 O 532.564 -4.23105 -3.8075 0
M  V30 5756 N 533.766 -2.81886 -5.07465 0
M  V30 5757 H 536.531 -2.82368 -1.00442 0
M  V30 5758 H 534.092 -1.56796 -0.403302 0
M  V30 5759 H 536.084 -2.13268 -3.43946 0
M  V30 5760 H 534.654 -1.23469 -2.87183 0
M  V30 5761 H 533.874 -3.4915 -1.82997 0
M  V30 5762 H 535.162 -4.27048 -2.76599 0
M  V30 5763 H 534.56 -2.22397 -5.2015 0
M  V30 5764 H 533.117 -2.91139 -5.83165 0
M  V30 5765 N 536.55 0.480323 -1.50102 0
M  V30 5766 C 537.46 1.60547 -1.71061 0
M  V30 5767 C 538.476 1.63564 -0.593529 0
M  V30 5768 O 539.652 1.81604 -0.870751 0
M  V30 5769 C 536.717 2.96814 -1.79171 0
M  V30 5770 C 535.778 3.04259 -3.02861 0
M  V30 5771 C 535.011 4.34027 -3.10574 0
M  V30 5772 O 535.234 5.24009 -2.25323 0
M  V30 5773 O 534.168 4.46873 -4.03223 0
M  V30 5774 H 537.994 1.45788 -2.6642 0
M  V30 5775 H 535.579 0.658838 -1.34088 0
M  V30 5776 H 537.461 3.77765 -1.86738 0
M  V30 5777 H 536.136 3.11791 -0.869947 0
M  V30 5778 H 535.043 2.22419 -3.008 0
M  V30 5779 H 536.376 2.94216 -3.94586 0
M  V30 5780 N 538.028 1.39524 0.732853 0
M  V30 5781 C 539.444 1.21176 1.03868 0
M  V30 5782 C 539.644 0.0748448 2.01361 0
M  V30 5783 O 538.7 -0.57281 2.45917 0
M  V30 5784 C 540.013 2.54667 1.59892 0
M  V30 5785 C 541.561 2.6153 1.71962 0
M  V30 5786 C 542.036 3.95248 2.31394 0
M  V30 5787 N 543.527 3.96899 2.38801 0
M  V30 5788 C 544.262 4.97138 2.85729 0
M  V30 5789 N 543.758 6.07775 3.32537 0
M  V30 5790 N 545.551 4.84516 2.84957 0
M  V30 5791 H 537.702 2.12225 0.086304 0
M  V30 5792 H 539.965 0.942614 0.100907 0
M  V30 5793 H 539.671 3.38423 0.95721 0
M  V30 5794 H 539.545 2.74538 2.58668 0
M  V30 5795 H 541.932 1.78156 2.35254 0
M  V30 5796 H 542.013 2.45507 0.718327 0
M  V30 5797 H 541.657 4.79054 1.68729 0
M  V30 5798 H 541.587 4.08593 3.32204 0
M  V30 5799 H 544.078 3.16998 2.05719 0
M  V30 5800 H 544.391 6.8017 3.66862 0
M  V30 5801 H 542.736 6.11366 3.30541 0
M  V30 5802 H 545.927 3.97185 2.47713 0
M  V30 5803 H 546.1 5.62783 3.21215 0
M  V30 5804 N 539.506 -0.963266 1.24736 0
M  V30 5805 C 540.752 -1.71 1.10139 0
M  V30 5806 C 541.107 -1.89089 -0.35541 0
M  V30 5807 O 540.4 -1.44451 -1.25875 0
M  V30 5808 C 540.594 -3.09944 1.7796 0
M  V30 5809 C 540.423 -3.05408 3.30085 0
M  V30 5810 C 539.193 -3.09643 3.99311 0
M  V30 5811 C 541.391 -2.87241 4.26611 0
M  V30 5812 N 539.373 -2.95174 5.3828 0
M  V30 5813 C 540.744 -2.81114 5.52607 0
M  V30 5814 C 542.799 -2.71856 4.17132 0
M  V30 5815 C 541.502 -2.61174 6.70209 0
M  V30 5816 C 543.528 -2.53284 5.34417 0
M  V30 5817 C 542.89 -2.4787 6.59348 0
M  V30 5818 H 538.989 -0.634078 0.457678 0
M  V30 5819 H 541.573 -1.14169 1.57713 0
M  V30 5820 H 539.744 -3.64958 1.32893 0
M  V30 5821 H 541.476 -3.73348 1.56183 0
M  V30 5822 H 538.231 -3.18498 3.50508 0
M  V30 5823 H 538.655 -2.91168 6.11188 0
M  V30 5824 H 543.297 -2.74821 3.21299 0
M  V30 5825 H 541.015 -2.56952 7.6616 0
M  V30 5826 H 544.601 -2.42317 5.28936 0
M  V30 5827 H 543.481 -2.33685 7.48573 0
M  V30 5828 N 540.985 -1.06182 -1.16461 0
M  V30 5829 C 542.231 -0.779015 -1.87241 0
M  V30 5830 C 542.564 0.692715 -1.81425 0
M  V30 5831 O 541.839 1.5074 -1.22913 0
M  V30 5832 C 542.122 -1.2728 -3.36856 0
M  V30 5833 C 541.975 -2.80821 -3.51368 0
M  V30 5834 C 543.294 -0.879799 -4.31216 0
M  V30 5835 H 540.413 -0.284464 -0.679889 0
M  V30 5836 H 543.055 -1.31755 -1.36896 0
M  V30 5837 H 541.205 -0.814673 -3.79862 0
M  V30 5838 H 542.877 -3.34833 -3.17308 0
M  V30 5839 H 541.12 -3.19606 -2.93316 0
M  V30 5840 H 541.791 -3.10435 -4.56436 0
M  V30 5841 H 544.267 -1.27436 -3.96105 0
M  V30 5842 H 543.143 -1.25278 -5.34412 0
M  V30 5843 H 543.404 0.215372 -4.41575 0
M  V30 5844 N 542.463 1.3308 -0.844243 0
M  V30 5845 C 543.711 1.97215 -0.441676 0
M  V30 5846 C 544.032 1.67185 1.0037 0
M  V30 5847 O 543.302 0.973588 1.69994 0
M  V30 5848 H 541.882 0.72959 -0.160335 0
M  V30 5849 H 544.544 1.62348 -1.07838 0
M  V30 5850 H 543.64 3.06698 -0.57815 0
M  V30 5851 N 543.941 0.601185 1.45683 0
M  V30 5852 C 544.871 -0.108824 2.33246 0
M  V30 5853 C 545.852 -0.865223 1.46451 0
M  V30 5854 O 547.037 -0.83704 1.75235 0
M  V30 5855 C 544.167 -1.11101 3.2905 0
M  V30 5856 C 543.121 -0.468244 4.25431 0
M  V30 5857 C 542.447 -1.57822 5.10878 0
M  V30 5858 C 543.747 0.606469 5.18767 0
M  V30 5859 H 545.441 0.622306 2.92861 0
M  V30 5860 H 542.987 0.300714 1.40825 0
M  V30 5861 H 544.94 -1.61622 3.89174 0
M  V30 5862 H 543.664 -1.87265 2.67581 0
M  V30 5863 H 542.323 0.0160484 3.66596 0
M  V30 5864 H 541.971 -2.32998 4.45781 0
M  V30 5865 H 541.671 -1.15369 5.76163 0
M  V30 5866 H 543.195 -2.08583 5.73869 0
M  V30 5867 H 544.609 0.185589 5.73 0
M  V30 5868 H 543.006 0.952381 5.92494 0
M  V30 5869 H 544.076 1.48559 4.61582 0
M  V30 5870 N 545.419 -1.53889 0.339982 0
M  V30 5871 C 546.83 -1.86139 -0.144671 0
M  V30 5872 C 547.181 -1.2613 -1.50285 0
M  V30 5873 O 546.306 -0.573515 -2.08662 0
M  V30 5874 C 546.901 -3.37728 -0.269285 0
M  V30 5875 C 545.46 -3.69868 -0.698168 0
M  V30 5876 C 544.607 -2.76777 0.170249 0
M  V30 5877 H 547.558 -1.48503 0.559704 0
M  V30 5878 H 547.579 -3.64331 -1.0974 0
M  V30 5879 H 547.091 -3.81375 0.719366 0
M  V30 5880 H 545.192 -3.31764 -1.69597 0
M  V30 5881 H 545.305 -4.76582 -0.490533 0
M  V30 5882 H 543.669 -2.52188 -0.356844 0
M  V30 5883 H 544.452 -3.23253 1.15597 0
M  V30 5884 N 546.897 -0.0685191 -1.57451 0
M  V30 5885 C 548.308 0.464634 -1.80826 0
M  V30 5886 C 548.659 1.69847 -0.982169 0
M  V30 5887 O 547.784 2.15439 -0.203734 0
M  V30 5888 C 548.379 0.849721 -3.27971 0
M  V30 5889 C 546.938 1.32776 -3.52204 0
M  V30 5890 C 546.085 0.311332 -2.75547 0
M  V30 5891 H 549.036 -0.294248 -1.55948 0
M  V30 5892 H 549.057 1.71138 -3.39841 0
M  V30 5893 H 548.569 -0.0484736 -3.8807 0
M  V30 5894 H 546.67 2.24456 -2.97406 0
M  V30 5895 H 546.783 1.30794 -4.60901 0
M  V30 5896 H 545.147 0.787915 -2.42206 0
M  V30 5897 H 545.93 -0.579078 -3.38381 0
M  V30 5898 N 548.375 1.56261 0.205012 0
M  V30 5899 C 549.323 1.94631 1.27364 0
M  V30 5900 C 550.317 0.830434 1.47649 0
M  V30 5901 O 551.523 1.01538 1.48627 0
M  V30 5902 H 547.898 0.618755 0.427371 0
M  V30 5903 H 549.869 2.83768 0.922941 0
M  V30 5904 C 548.618 2.29358 2.61324 0
M  V30 5905 H 547.941 3.14744 2.46528 0
M  V30 5906 H 549.381 2.60076 3.34868 0
M  V30 5907 C 547.84 1.12461 3.17575 0
M  V30 5908 O 548.37 0.394407 3.99759 0
M  V30 5909 N 546.576 0.904036 2.7618 0
M  V30 5910 H 546.123 1.49956 2.09454 0
M  V30 5911 H 546.081 0.123662 3.14157 0
M  V30 5912 N 549.853 -0.472356 1.50355 0
M  V30 5913 C 551.102 -1.2213 1.60522 0
M  V30 5914 C 551.415 -1.9312 0.310466 0
M  V30 5915 O 552.621 -2.69936 0.291029 0
M  V30 5916 C 551.077 -2.21909 2.83345 0
M  V30 5917 C 550.685 -1.56727 4.19691 0
M  V30 5918 C 552.429 -2.97453 3.02856 0
M  V30 5919 C 550.336 -2.54785 5.33703 0
M  V30 5920 H 549.266 -0.459543 0.597776 0
M  V30 5921 H 551.917 -0.491922 1.76783 0
M  V30 5922 H 550.299 -2.98133 2.60639 0
M  V30 5923 H 551.473 -0.863007 4.52646 0
M  V30 5924 H 549.788 -0.934685 4.05774 0
M  V30 5925 H 552.385 -3.70838 3.85205 0
M  V30 5926 H 552.728 -3.56764 2.14534 0
M  V30 5927 H 553.261 -2.28342 3.25737 0
M  V30 5928 H 550 -2.00214 6.24175 0
M  V30 5929 H 549.52 -3.23367 5.05167 0
M  V30 5930 H 551.199 -3.16639 5.64224 0
M  V30 5931 N 551.331 -1.39911 -0.725443 0
M  V30 5932 C 552.241 -1.41688 -1.8698 0
M  V30 5933 C 553.257 -0.310579 -1.71206 0
M  V30 5934 O 554.433 -0.55359 -1.93642 0
M  V30 5935 C 551.498 -1.26811 -3.22676 0
M  V30 5936 C 550.559 -2.47497 -3.50776 0
M  V30 5937 C 549.792 -2.3332 -4.79997 0
M  V30 5938 O 550.015 -1.34175 -5.54394 0
M  V30 5939 O 548.949 -3.22498 -5.08211 0
M  V30 5940 H 552.775 -2.38171 -1.88436 0
M  V30 5941 H 550.36 -1.21128 -0.874548 0
M  V30 5942 H 552.242 -1.20684 -4.03749 0
M  V30 5943 H 550.917 -0.334289 -3.21969 0
M  V30 5944 H 549.824 -2.59201 -2.69751 0
M  V30 5945 H 551.157 -3.39606 -3.5627 0
M  V30 5946 N 552.809 0.956637 -1.25245 0
M  V30 5947 C 553.772 2.03457 -1.05537 0
M  V30 5948 C 554.772 1.60798 -0.00886317 0
M  V30 5949 O 555.962 1.72384 -0.250865 0
M  V30 5950 C 553.094 3.35543 -0.601965 0
M  V30 5951 H 554.287 2.22372 -2.01223 0
M  V30 5952 H 551.84 1.13344 -1.07623 0
M  V30 5953 H 552.575 3.22323 0.357584 0
M  V30 5954 H 552.36 3.67854 -1.35743 0
M  V30 5955 H 553.85 4.14769 -0.485454 0
M  V30 5956 N 554.287 1.06798 1.15896 0
M  V30 5957 C 555.25 0.687328 2.18651 0
M  V30 5958 C 556.25 -0.269559 1.58524 0
M  V30 5959 O 557.44 -0.0512627 1.74125 0
M  V30 5960 C 554.572 0.0121642 3.40898 0
M  V30 5961 H 555.765 1.59701 2.53842 0
M  V30 5962 H 553.318 0.863828 1.3026 0
M  V30 5963 H 554.053 -0.910025 3.1127 0
M  V30 5964 H 553.838 0.700309 3.85795 0
M  V30 5965 H 555.328 -0.239703 4.16911 0
M  V30 5966 N 555.766 -1.3263 0.851289 0
M  V30 5967 C 556.729 -2.27247 0.298541 0
M  V30 5968 C 557.729 -1.51467 -0.539847 0
M  V30 5969 O 558.919 -1.7061 -0.351843 0
M  V30 5970 C 556.051 -3.35964 -0.578004 0
M  V30 5971 H 557.244 -2.7765 1.13359 0
M  V30 5972 H 554.797 -1.43245 0.625354 0
M  V30 5973 H 555.532 -2.90823 -1.435 0
M  V30 5974 H 555.317 -3.92094 0.0220539 0
M  V30 5975 H 556.807 -4.06472 -0.957626 0
M  V30 5976 N 557.244 -0.608902 -1.45362 0
M  V30 5977 C 558.49 -0.104762 -2.02529 0
M  V30 5978 C 558.823 1.26191 -1.47613 0
M  V30 5979 O 558.098 1.8327 -0.65134 0
M  V30 5980 C 558.381 -0.0672661 -3.60037 0
M  V30 5981 C 558.234 -1.4647 -4.25284 0
M  V30 5982 C 559.553 0.619877 -4.35713 0
M  V30 5983 H 556.672 -0.0395438 -0.735938 0
M  V30 5984 H 559.314 -0.781126 -1.73201 0
M  V30 5985 H 557.464 0.50871 -3.85155 0
M  V30 5986 H 559.136 -2.08785 -4.11347 0
M  V30 5987 H 557.379 -2.02502 -3.83634 0
M  V30 5988 H 558.05 -1.39069 -5.34195 0
M  V30 5989 H 560.526 0.130297 -4.15896 0
M  V30 5990 H 559.402 0.615224 -5.45441 0
M  V30 5991 H 559.663 1.68621 -4.0868 0
M  V30 5992 N 558.722 1.53707 -0.348139 0
M  V30 5993 C 559.947 2.05877 0.250883 0
M  V30 5994 C 560.372 1.22115 1.43072 0
M  V30 5995 O 559.73 0.235986 1.79758 0
M  V30 5996 C 559.778 3.54886 0.639416 0
M  V30 5997 O 558.882 3.73948 1.73888 0
M  V30 5998 H 558.223 0.662754 0.040653 0
M  V30 5999 H 560.753 1.98303 -0.503685 0
M  V30 6000 H 560.763 3.97601 0.915295 0
M  V30 6001 H 559.438 4.153 -0.223386 0
M  V30 6002 H 558.015 3.43134 1.45991 0
M  V30 6003 N 560.2 0.0768682 1.57412 0
M  V30 6004 C 561.13 -0.886026 2.16037 0
M  V30 6005 C 562.111 -1.30691 1.08876 0
M  V30 6006 O 563.296 -1.37705 1.36934 0
M  V30 6007 C 560.426 -2.1518 2.72608 0
M  V30 6008 C 559.38 -1.87015 3.8498 0
M  V30 6009 C 558.706 -3.20266 4.28175 0
M  V30 6010 C 560.006 -1.17143 5.08994 0
M  V30 6011 H 561.7 -0.397642 2.96748 0
M  V30 6012 H 559.246 -0.189823 1.42743 0
M  V30 6013 H 561.199 -2.82962 3.12266 0
M  V30 6014 H 559.923 -2.66269 1.89125 0
M  V30 6015 H 558.582 -1.21636 3.45833 0
M  V30 6016 H 558.23 -3.69207 3.41607 0
M  V30 6017 H 557.93 -3.0221 5.03927 0
M  V30 6018 H 559.454 -3.89237 4.70454 0
M  V30 6019 H 560.868 -1.75003 5.45937 0
M  V30 6020 H 559.265 -1.09328 5.90057 0
M  V30 6021 H 560.335 -0.151295 4.84664 0
M  V30 6022 N 561.678 -1.56367 -0.196722 0
M  V30 6023 C 562.626 -1.95304 -1.2633 0
M  V30 6024 C 563.62 -0.838252 -1.47206 0
M  V30 6025 O 564.826 -1.02325 -1.48087 0
M  V30 6026 H 561.201 -0.621013 -0.424083 0
M  V30 6027 H 563.172 -2.84254 -0.907879 0
M  V30 6028 C 561.921 -2.3074 -2.60104 0
M  V30 6029 H 561.244 -3.16047 -2.44856 0
M  V30 6030 H 562.684 -2.61849 -3.33484 0
M  V30 6031 C 561.143 -1.14143 -3.16975 0
M  V30 6032 O 561.673 -0.415602 -3.99544 0
M  V30 6033 N 559.879 -0.91867 -2.75697 0
M  V30 6034 H 559.426 -1.51065 -2.08656 0
M  V30 6035 H 559.384 -0.140321 -3.14087 0
M  V30 6036 N 563.156 0.464375 -1.50603 0
M  V30 6037 C 564.433 1.22549 -1.5245 0
M  V30 6038 C 564.813 2.09327 -0.273035 0
M  V30 6039 O 564.161 2.16074 0.743242 0
M  V30 6040 C 564.371 2.05074 -2.82393 0
M  V30 6041 C 565.719 2.63036 -3.33313 0
M  V30 6042 O 566.743 2.1531 -2.8376 0
M  V30 6043 O 565.602 3.5001 -4.19709 0
M  V30 6044 H 562.696 0.556471 -0.611775 0
M  V30 6045 H 565.242 0.475648 -1.62898 0
M  V30 6046 H 564.014 1.41169 -3.64948 0
M  V30 6047 H 563.637 2.87179 -2.7498 0
M  V30 6048 N 564.634 1.40294 0.718013 0
M  V30 6049 C 565.882 1.38167 1.47494 0
M  V30 6050 C 566.203 -0.01607 1.94993 0
M  V30 6051 O 565.473 -0.970396 1.70177 0
M  V30 6052 H 564.053 0.508505 0.547203 0
M  V30 6053 H 566.715 1.75324 0.851322 0
M  V30 6054 H 565.811 2.05503 2.34894 0
M  V30 6055 N 566.112 -0.949982 1.2575 0
M  V30 6056 C 567.389 -1.6718 1.01539 0
M  V30 6057 C 567.769 -2.06095 -0.456942 0
M  V30 6058 O 567.117 -1.77792 -1.43534 0
M  V30 6059 C 567.327 -2.8906 1.95564 0
M  V30 6060 C 568.675 -3.60909 2.23673 0
M  V30 6061 O 569.699 -2.9915 1.9336 0
M  V30 6062 O 568.558 -4.72127 2.75243 0
M  V30 6063 H 565.652 -0.731697 0.385419 0
M  V30 6064 H 568.198 -1.00249 1.36924 0
M  V30 6065 H 566.97 -2.57128 2.94959 0
M  V30 6066 H 566.593 -3.63719 1.60605 0
M  V30 6067 N 567.59 -1.07411 -1.15328 0
M  V30 6068 C 568.837 -0.797649 -1.86128 0
M  V30 6069 C 569.165 0.676298 -1.82364 0
M  V30 6070 O 568.42 1.51223 -1.24218 0
M  V30 6071 C 568.719 -1.25191 -3.34757 0
M  V30 6072 C 568.385 -2.73191 -3.58716 0
M  V30 6073 C 567.047 -3.13616 -3.64964 0
M  V30 6074 C 569.399 -3.68718 -3.6837 0
M  V30 6075 C 566.727 -4.48383 -3.78377 0
M  V30 6076 C 569.079 -5.03248 -3.83306 0
M  V30 6077 C 567.743 -5.43293 -3.878 0
M  V30 6078 H 567.013 -0.29188 -0.681092 0
M  V30 6079 H 569.66 -1.34524 -1.36292 0
M  V30 6080 H 567.965 -0.623712 -3.86804 0
M  V30 6081 H 569.662 -1.01489 -3.87945 0
M  V30 6082 H 566.252 -2.40898 -3.54494 0
M  V30 6083 H 570.436 -3.38614 -3.62842 0
M  V30 6084 H 565.692 -4.78877 -3.80114 0
M  V30 6085 H 569.866 -5.77142 -3.89718 0
M  V30 6086 H 567.493 -6.47721 -3.97946 0
M  V30 6087 N 569.068 1.32177 -0.85831 0
M  V30 6088 C 570.298 2.01021 -0.476889 0
M  V30 6089 C 570.706 1.64653 0.931995 0
M  V30 6090 O 570.049 0.865713 1.62022 0
M  V30 6091 C 570.111 3.55413 -0.540528 0
M  V30 6092 C 569.775 4.1522 -1.90895 0
M  V30 6093 C 570.772 4.3318 -2.87491 0
M  V30 6094 C 568.457 4.51212 -2.20709 0
M  V30 6095 C 570.451 4.86306 -4.1205 0
M  V30 6096 C 568.138 5.04042 -3.45521 0
M  V30 6097 C 569.136 5.21538 -4.41007 0
M  V30 6098 O 568.824 5.73238 -5.63608 0
M  V30 6099 H 568.556 0.650059 -0.18547 0
M  V30 6100 H 571.11 1.69648 -1.15796 0
M  V30 6101 H 569.34 3.86196 0.19741 0
M  V30 6102 H 571.029 4.05526 -0.174191 0
M  V30 6103 H 571.795 4.05704 -2.65762 0
M  V30 6104 H 567.674 4.36878 -1.4717 0
M  V30 6105 H 571.218 4.99877 -4.86589 0
M  V30 6106 H 567.115 5.30952 -3.67098 0
M  V30 6107 H 567.883 5.91625 -5.65617 0
M  V30 6108 N 570.547 0.616602 1.45037 0
M  V30 6109 C 571.794 0.115331 2.02171 0
M  V30 6110 C 572.122 -1.25748 1.48383 0
M  V30 6111 O 571.377 -1.84511 0.652229 0
M  V30 6112 C 571.676 0.0356829 3.57382 0
M  V30 6113 C 571.342 1.34535 4.30362 0
M  V30 6114 C 570.004 1.70408 4.50016 0
M  V30 6115 C 572.356 2.21049 4.72003 0
M  V30 6116 C 569.684 2.92529 5.0857 0
M  V30 6117 C 572.036 3.42427 5.31908 0
M  V30 6118 C 570.7 3.78541 5.49784 0
M  V30 6119 H 569.97 0.0422024 0.739797 0
M  V30 6120 H 572.617 0.80002 1.73988 0
M  V30 6121 H 570.922 -0.732314 3.84895 0
M  V30 6122 H 572.619 -0.368463 3.99304 0
M  V30 6123 H 569.209 1.05615 4.15383 0
M  V30 6124 H 573.393 1.94632 4.56544 0
M  V30 6125 H 568.649 3.20605 5.20598 0
M  V30 6126 H 572.823 4.09709 5.63127 0
M  V30 6127 H 570.45 4.73255 5.94923 0
M  V30 6128 N 572.025 -1.5352 0.356285 0
M  V30 6129 C 573.272 -2.01117 -0.236303 0
M  V30 6130 C 573.6 -1.24381 -1.49531 0
M  V30 6131 O 572.855 -0.323057 -1.93015 0
M  V30 6132 C 573.154 -3.52607 -0.583369 0
M  V30 6133 C 572.82 -4.47151 0.58023 0
M  V30 6134 C 571.482 -4.72718 0.899528 0
M  V30 6135 C 573.834 -5.03137 1.36024 0
M  V30 6136 C 571.162 -5.51523 2.00098 0
M  V30 6137 C 573.514 -5.83145 2.45204 0
M  V30 6138 C 572.178 -6.07001 2.77679 0
M  V30 6139 H 571.448 -0.735938 -0.0864695 0
M  V30 6140 H 574.095 -1.85209 0.48683 0
M  V30 6141 H 572.4 -3.66413 -1.38739 0
M  V30 6142 H 574.097 -3.86901 -1.05397 0
M  V30 6143 H 570.687 -4.27394 0.321322 0
M  V30 6144 H 574.871 -4.83339 1.12682 0
M  V30 6145 H 570.127 -5.68229 2.25668 0
M  V30 6146 H 574.301 -6.25537 3.06067 0
M  V30 6147 H 571.928 -6.67851 3.63151 0
M  V30 6148 N 573.503 -0.0852151 -1.57369 0
M  V30 6149 C 574.45 0.877268 -2.13478 0
M  V30 6150 C 575.42 1.28642 -1.05073 0
M  V30 6151 O 576.605 1.36992 -1.32808 0
M  V30 6152 C 573.745 2.13464 -2.71159 0
M  V30 6153 C 572.858 1.77691 -3.93764 0
M  V30 6154 C 571.993 2.98139 -4.39643 0
M  V30 6155 C 571.032 2.58447 -5.54862 0
M  V30 6156 N 570.169 3.71698 -5.95639 0
M  V30 6157 H 575.009 0.391933 -2.95411 0
M  V30 6158 H 572.546 0.181796 -1.45972 0
M  V30 6159 H 574.504 2.87086 -3.02717 0
M  V30 6160 H 573.134 2.59514 -1.91969 0
M  V30 6161 H 572.186 0.940768 -3.68583 0
M  V30 6162 H 573.498 1.44497 -4.77412 0
M  V30 6163 H 572.652 3.80026 -4.72933 0
M  V30 6164 H 571.391 3.34536 -3.54876 0
M  V30 6165 H 570.396 1.74984 -5.21211 0
M  V30 6166 H 571.621 2.23205 -6.41371 0
M  V30 6167 H 569.567 4.07831 -5.13819 0
M  V30 6168 H 569.484 3.42317 -6.74059 0
M  V30 6169 H 570.752 4.54123 -6.33555 0
M  V30 6170 N 574.981 1.5647 0.188427 0
M  V30 6171 C 576.229 1.80655 0.905986 0
M  V30 6172 C 576.55 0.659391 1.83513 0
M  V30 6173 O 575.82 -0.321868 1.93238 0
M  V30 6174 H 574.4 0.666391 0.337538 0
M  V30 6175 H 577.062 1.93949 0.192339 0
M  V30 6176 H 576.158 2.74066 1.49313 0
M  V30 6177 N 576.459 -0.456382 1.50847 0
M  V30 6178 C 577.707 -1.20497 1.62249 0
M  V30 6179 C 578.028 -1.92156 0.331839 0
M  V30 6180 O 577.298 -1.84751 -0.651443 0
M  V30 6181 H 575.878 -0.447775 0.597918 0
M  V30 6182 H 578.54 -0.525099 1.87693 0
M  V30 6183 H 577.636 -1.94492 2.44089 0
M  V30 6184 N 577.937 -1.40673 -0.710563 0
M  V30 6185 C 579.353 -1.22813 -1.01928 0
M  V30 6186 C 579.553 -0.10687 -2.01216 0
M  V30 6187 O 578.609 0.533614 -2.46797 0
M  V30 6188 C 579.922 -2.57178 -1.5582 0
M  V30 6189 C 581.47 -2.64233 -1.67779 0
M  V30 6190 C 581.945 -3.98879 -2.25076 0
M  V30 6191 N 583.436 -4.00647 -2.32456 0
M  V30 6192 C 584.171 -5.01621 -2.77784 0
M  V30 6193 N 583.667 -6.12989 -3.22826 0
M  V30 6194 N 585.46 -4.88988 -2.77213 0
M  V30 6195 H 577.611 -2.12335 -0.05253 0
M  V30 6196 H 579.874 -0.9441 -0.085898 0
M  V30 6197 H 579.58 -3.39903 -0.903249 0
M  V30 6198 H 579.454 -2.78618 -2.54267 0
M  V30 6199 H 581.841 -1.81876 -2.3239 0
M  V30 6200 H 581.922 -2.46619 -0.679178 0
M  V30 6201 H 581.566 -4.81678 -1.61086 0
M  V30 6202 H 581.496 -4.13826 -3.25661 0
M  V30 6203 H 583.987 -3.20231 -2.0065 0
M  V30 6204 H 584.3 -6.85921 -3.55995 0
M  V30 6205 H 582.645 -6.16547 -3.20773 0
M  V30 6206 H 585.836 -4.01075 -2.41363 0
M  V30 6207 H 586.009 -5.67822 -3.12221 0
M  V30 6208 N 579.415 0.9433 -1.26252 0
M  V30 6209 C 580.655 1.70397 -1.1289 0
M  V30 6210 C 581.019 1.89268 0.322713 0
M  V30 6211 O 582.22 2.62503 0.578418 0
M  V30 6212 C 580.491 3.04296 -1.87453 0
M  V30 6213 S 582.05 3.95475 -1.90119 0
M  V30 6214 H 578.868 0.585559 -0.403289 0
M  V30 6215 H 581.47 1.12424 -1.59941 0
M  V30 6216 H 580.174 2.8824 -2.9214 0
M  V30 6217 H 579.705 3.67327 -1.40835 0
M  V30 6218 H 581.72 4.86297 -0.986373 0
M  V30 6219 N 580.893 1.08022 1.14757 0
M  V30 6220 C 582.139 0.818552 1.86202 0
M  V30 6221 C 582.494 -0.648563 1.81139 0
M  V30 6222 O 581.787 -1.4704 1.22841 0
M  V30 6223 C 581.981 1.26964 3.34088 0
M  V30 6224 C 581.81 2.77907 3.5355 0
M  V30 6225 C 580.58 3.45604 3.68627 0
M  V30 6226 C 582.778 3.7609 3.50801 0
M  V30 6227 N 580.76 4.85119 3.76209 0
M  V30 6228 C 582.131 5.0148 3.64579 0
M  V30 6229 C 584.186 3.6915 3.34115 0
M  V30 6230 C 582.889 6.20755 3.63395 0
M  V30 6231 C 584.915 4.87896 3.34233 0
M  V30 6232 C 584.277 6.12123 3.48547 0
M  V30 6233 H 580.376 0.352186 0.698204 0
M  V30 6234 H 582.96 1.37781 1.37567 0
M  V30 6235 H 581.131 0.738008 3.81324 0
M  V30 6236 H 582.863 0.954806 3.93275 0
M  V30 6237 H 579.618 2.96016 3.69691 0
M  V30 6238 H 580.042 5.57748 3.83726 0
M  V30 6239 H 584.684 2.74045 3.21961 0
M  V30 6240 H 582.402 7.16175 3.74326 0
M  V30 6241 H 585.988 4.8421 3.2254 0
M  V30 6242 H 584.868 7.02468 3.48581 0
M  V30 6243 N 582.371 -1.3172 0.865308 0
M  V30 6244 C 583.787 -1.4958 0.556596 0
M  V30 6245 C 583.987 -1.79763 -0.910353 0
M  V30 6246 O 583.043 -1.87351 -1.6928 0
M  V30 6247 C 584.356 -2.63277 1.45279 0
M  V30 6248 C 585.904 -2.77161 1.45433 0
M  V30 6249 C 586.379 -3.93949 2.33598 0
M  V30 6250 N 587.87 -4.01228 2.31453 0
M  V30 6251 C 588.605 -4.90855 2.96393 0
M  V30 6252 N 588.101 -5.85416 3.70486 0
M  V30 6253 N 589.894 -4.84063 2.85726 0
M  V30 6254 H 582.045 -1.10396 1.81456 0
M  V30 6255 H 584.308 -0.54507 0.775631 0
M  V30 6256 H 584.014 -2.47734 2.49641 0
M  V30 6257 H 583.888 -3.59309 1.14792 0
M  V30 6258 H 586.275 -2.9212 0.41831 0
M  V30 6259 H 586.356 -1.8181 1.79941 0
M  V30 6260 H 586 -3.79748 3.37274 0
M  V30 6261 H 585.93 -4.88598 1.96417 0
M  V30 6262 H 588.421 -3.3357 1.77593 0
M  V30 6263 H 588.734 -6.50525 4.17178 0
M  V30 6264 H 587.079 -5.85409 3.74594 0
M  V30 6265 H 590.27 -4.09163 2.27384 0
M  V30 6266 H 590.443 -5.53708 3.36617 0
M  V30 6267 N 583.85 -0.624285 -1.44708 0
M  V30 6268 C 585.096 -0.126051 -2.02107 0
M  V30 6269 C 585.425 1.2496 -1.49048 0
M  V30 6270 O 584.68 1.84163 -0.662005 0
M  V30 6271 C 584.979 -0.0546353 -3.57358 0
M  V30 6272 C 584.644 -1.36815 -4.29642 0
M  V30 6273 C 583.307 -1.72792 -4.49106 0
M  V30 6274 C 585.659 -2.23549 -4.70824 0
M  V30 6275 C 582.986 -2.95222 -5.07012 0
M  V30 6276 C 585.339 -3.45243 -5.30085 0
M  V30 6277 C 584.003 -3.81452 -5.47769 0
M  V30 6278 H 583.273 -0.0461252 -0.739563 0
M  V30 6279 H 585.92 -0.809236 -1.73562 0
M  V30 6280 H 584.225 0.711891 -3.85278 0
M  V30 6281 H 585.922 0.347282 -3.99493 0
M  V30 6282 H 582.512 -1.07817 -4.14817 0
M  V30 6283 H 586.696 -1.9705 -4.55505 0
M  V30 6284 H 581.952 -3.23361 -5.18891 0
M  V30 6285 H 586.125 -4.12689 -5.60946 0
M  V30 6286 H 583.753 -4.76403 -5.92405 0
M  V30 6287 N 585.328 1.53329 -0.364422 0
M  V30 6288 C 586.744 1.59594 -0.0133165 0
M  V30 6289 C 586.944 1.37959 1.46865 0
M  V30 6290 O 586 1.18418 2.2301 0
M  V30 6291 C 587.313 2.97032 -0.468213 0
M  V30 6292 C 588.861 3.10138 -0.422334 0
M  V30 6293 C 589.336 4.49986 -0.853024 0
M  V30 6294 N 590.827 4.56098 -0.808037 0
M  V30 6295 C 591.562 5.62495 -1.11299 0
M  V30 6296 N 591.058 6.7665 -1.48717 0
M  V30 6297 N 592.851 5.52473 -1.03586 0
M  V30 6298 H 585.002 1.65644 -1.32951 0
M  V30 6299 H 587.265 0.77684 -0.543345 0
M  V30 6300 H 586.971 3.18 -1.5023 0
M  V30 6301 H 586.845 3.76918 0.145775 0
M  V30 6302 H 589.232 2.88881 0.602622 0
M  V30 6303 H 589.313 2.32263 -1.0718 0
M  V30 6304 H 588.957 4.7198 -1.87609 0
M  V30 6305 H 588.887 5.26289 -0.180819 0
M  V30 6306 H 591.378 3.74131 -0.532361 0
M  V30 6307 H 591.691 7.53776 -1.70415 0
M  V30 6308 H 590.036 6.78044 -1.52581 0
M  V30 6309 H 593.227 4.6217 -0.742736 0
M  V30 6310 H 593.4 6.35295 -1.27686 0
M  V30 6311 N 586.806 0.0935595 1.57322 0
M  V30 6312 C 588.054 -0.569383 1.93913 0
M  V30 6313 C 588.375 -1.68817 0.976009 0
M  V30 6314 O 587.645 -1.9588 0.0278099 0
M  V30 6315 H 586.225 -0.21332 0.715894 0
M  V30 6316 H 588.887 0.156531 1.9427 0
M  V30 6317 H 587.983 -0.980577 2.96296 0
M  V30 6318 N 588.284 -1.56567 -0.180126 0
M  V30 6319 C 589.695 -1.7126 -0.743422 0
M  V30 6320 C 590.046 -0.70263 -1.83187 0
M  V30 6321 O 589.171 0.137856 -2.1596 0
M  V30 6322 C 589.766 -3.10512 -1.35528 0
M  V30 6323 C 588.325 -3.26919 -1.8655 0
M  V30 6324 C 587.472 -2.67213 -0.741099 0
M  V30 6325 H 590.423 -1.58636 0.0451543 0
M  V30 6326 H 590.444 -3.08673 -2.22489 0
M  V30 6327 H 589.956 -3.83997 -0.562862 0
M  V30 6328 H 588.057 -2.58376 -2.68464 0
M  V30 6329 H 588.17 -4.34574 -2.01699 0
M  V30 6330 H 586.534 -2.26788 -1.15927 0
M  V30 6331 H 587.317 -3.43277 0.0393291 0
M  V30 6332 N 589.762 0.448376 -1.51087 0
M  V30 6333 C 590.709 1.54341 -1.71603 0
M  V30 6334 C 591.679 1.56463 -0.557536 0
M  V30 6335 O 592.864 1.73644 -0.79072 0
M  V30 6336 C 590.004 2.92148 -1.83695 0
M  V30 6337 C 589.117 2.99639 -3.11192 0
M  V30 6338 C 588.252 4.285 -3.13944 0
M  V30 6339 C 587.291 4.29819 -4.35801 0
M  V30 6340 N 586.428 5.50186 -4.36164 0
M  V30 6341 H 591.268 1.36151 -2.65079 0
M  V30 6342 H 588.805 0.661585 -1.31383 0
M  V30 6343 H 590.763 3.72093 -1.88687 0
M  V30 6344 H 589.393 3.0892 -0.936374 0
M  V30 6345 H 588.445 2.12425 -3.15562 0
M  V30 6346 H 589.757 2.96474 -4.01129 0
M  V30 6347 H 588.911 5.16811 -3.17791 0
M  V30 6348 H 587.65 4.34307 -2.21876 0
M  V30 6349 H 586.655 3.39902 -4.32142 0
M  V30 6350 H 587.88 4.25685 -5.29121 0
M  V30 6351 H 585.826 5.56735 -3.46961 0
M  V30 6352 H 585.743 5.48856 -5.19897 0
M  V30 6353 H 587.011 6.40559 -4.44189 0
M  V30 6354 N 591.24 1.41047 0.703093 0
M  V30 6355 C 592.651 1.35657 1.28274 0
M  V30 6356 C 593.002 0.0360309 1.96167 0
M  V30 6357 O 592.127 -0.865833 1.98324 0
M  V30 6358 C 592.722 2.45707 2.33267 0
M  V30 6359 C 591.281 2.43738 2.86825 0
M  V30 6360 C 590.428 2.25941 1.60767 0
M  V30 6361 H 593.379 1.50672 0.49836 0
M  V30 6362 H 593.4 2.14333 3.14391 0
M  V30 6363 H 592.912 3.41805 1.83824 0
M  V30 6364 H 591.013 1.51375 3.40465 0
M  V30 6365 H 591.126 3.39779 3.37768 0
M  V30 6366 H 589.49 1.73681 1.86298 0
M  V30 6367 H 590.273 3.24054 1.1333 0
M  V30 6368 N 592.718 -0.936591 1.26751 0
M  V30 6369 C 593.964 -1.6858 1.12733 0
M  V30 6370 C 594.297 -1.91414 -0.327745 0
M  V30 6371 O 593.572 -1.49812 -1.24043 0
M  V30 6372 C 593.855 -3.05779 1.90187 0
M  V30 6373 C 593.708 -2.90242 3.43627 0
M  V30 6374 C 595.027 -4.0597 1.69931 0
M  V30 6375 H 592.146 -0.61182 0.410908 0
M  V30 6376 H 594.788 -1.08747 1.55801 0
M  V30 6377 H 592.938 -3.56853 1.53584 0
M  V30 6378 H 594.61 -2.46354 3.9001 0
M  V30 6379 H 592.853 -2.2577 3.70419 0
M  V30 6380 H 593.524 -3.87572 3.93055 0
M  V30 6381 H 596 -3.63874 2.0183 0
M  V30 6382 H 594.876 -4.99974 2.26534 0
M  V30 6383 H 595.137 -4.37369 0.64502 0
M  V30 6384 N 594.196 -1.08629 -1.14182 0
M  V30 6385 C 595.442 -0.828415 -1.85766 0
M  V30 6386 C 595.797 0.638947 -1.81481 0
M  V30 6387 O 595.09 1.46386 -1.23619 0
M  V30 6388 C 595.284 -1.28734 -3.3341 0
M  V30 6389 C 595.113 -2.79778 -3.52071 0
M  V30 6390 C 593.883 -3.47554 -3.66789 0
M  V30 6391 C 596.081 -3.77945 -3.48801 0
M  V30 6392 N 594.063 -4.87107 -3.73631 0
M  V30 6393 C 595.434 -5.03406 -3.61914 0
M  V30 6394 C 597.489 -3.70917 -3.32152 0
M  V30 6395 C 596.192 -6.22673 -3.60098 0
M  V30 6396 C 598.218 -4.89662 -3.31641 0
M  V30 6397 C 597.58 -6.13962 -3.45296 0
M  V30 6398 H 593.679 -0.355884 -0.696327 0
M  V30 6399 H 596.263 -1.38508 -1.36834 0
M  V30 6400 H 594.434 -0.75822 -3.80927 0
M  V30 6401 H 596.166 -0.975649 -3.92764 0
M  V30 6402 H 592.921 -2.97972 -3.68116 0
M  V30 6403 H 593.345 -5.59775 -3.80763 0
M  V30 6404 H 597.987 -2.75749 -3.20504 0
M  V30 6405 H 595.705 -7.1815 -3.70522 0
M  V30 6406 H 599.291 -4.85914 -3.19968 0
M  V30 6407 H 598.171 -7.04307 -3.44851 0
M  V30 6408 N 595.674 1.31259 -0.872281 0
M  V30 6409 C 596.922 1.96233 -0.483409 0
M  V30 6410 C 597.243 1.69276 0.968012 0
M  V30 6411 O 596.513 1.00943 1.67891 0
M  V30 6412 H 595.093 0.726025 -0.175774 0
M  V30 6413 H 597.755 1.60024 -1.11258 0
M  V30 6414 H 596.851 3.05403 -0.643075 0
M  V30 6415 N 597.152 0.631951 1.44375 0
M  V30 6416 C 598.082 -0.0593243 2.33425 0
M  V30 6417 C 599.063 -0.833964 1.48253 0
M  V30 6418 O 600.248 -0.799682 1.76971 0
M  V30 6419 C 597.378 -1.04096 3.31333 0
M  V30 6420 C 596.332 -0.377899 4.26328 0
M  V30 6421 C 595.658 -1.4695 5.14111 0
M  V30 6422 C 596.958 0.716371 5.17364 0
M  V30 6423 H 598.652 0.684287 2.91475 0
M  V30 6424 H 596.198 0.330518 1.40156 0
M  V30 6425 H 598.151 -1.53331 3.92514 0
M  V30 6426 H 596.875 -1.81547 2.71493 0
M  V30 6427 H 595.534 0.0938054 3.6648 0
M  V30 6428 H 595.182 -2.2349 4.50623 0
M  V30 6429 H 594.882 -1.03121 5.78481 0
M  V30 6430 H 596.406 -1.96363 5.78164 0
M  V30 6431 H 597.82 0.307089 5.72477 0
M  V30 6432 H 596.217 1.07784 5.90341 0
M  V30 6433 H 597.287 1.58316 4.58327 0
M  V30 6434 N 598.631 -1.53133 0.372548 0
M  V30 6435 C 600.042 -1.86404 -0.105155 0
M  V30 6436 C 600.393 -1.29289 -1.47576 0
M  V30 6437 O 599.518 -0.617646 -2.07398 0
M  V30 6438 C 600.113 -3.38223 -0.197588 0
M  V30 6439 C 598.672 -3.71266 -0.619556 0
M  V30 6440 C 597.819 -2.76353 0.228919 0
M  V30 6441 H 600.77 -1.47282 0.591077 0
M  V30 6442 H 600.791 -3.66577 -1.01987 0
M  V30 6443 H 600.303 -3.79763 0.800099 0
M  V30 6444 H 598.404 -3.35287 -1.62522 0
M  V30 6445 H 598.517 -4.77515 -0.389332 0
M  V30 6446 H 596.881 -2.52888 -0.303271 0
M  V30 6447 H 597.664 -3.20728 1.22428 0
M  V30 6448 N 600.109 -0.101901 -1.5727 0
M  V30 6449 C 601.041 0.884723 -2.11436 0
M  V30 6450 C 602.054 1.24149 -1.05314 0
M  V30 6451 O 603.243 1.19341 -1.3274 0
M  V30 6452 C 600.343 2.19179 -2.58484 0
M  V30 6453 C 599.516 2.00933 -3.88516 0
M  V30 6454 C 598.575 3.15213 -4.2134 0
M  V30 6455 O 597.601 2.88877 -4.90448 0
M  V30 6456 N 598.803 4.41174 -3.77288 0
M  V30 6457 H 601.568 0.422058 -2.96713 0
M  V30 6458 H 599.129 0.0830128 -1.61687 0
M  V30 6459 H 601.121 2.94593 -2.77484 0
M  V30 6460 H 599.691 2.56847 -1.7818 0
M  V30 6461 H 598.911 1.09809 -3.78597 0
M  V30 6462 H 600.199 1.86026 -4.73573 0
M  V30 6463 H 599.597 4.6545 -3.21516 0
M  V30 6464 H 598.154 5.13515 -4.01429 0
M  V30 6465 N 601.587 1.56661 0.17182 0
M  V30 6466 C 602.517 1.99401 1.21498 0
M  V30 6467 C 603.498 0.869516 1.46197 0
M  V30 6468 O 604.683 1.13556 1.57539 0
M  V30 6469 C 601.813 2.35346 2.55401 0
M  V30 6470 C 600.767 3.5075 2.45272 0
M  V30 6471 C 600.093 3.72437 3.8366 0
M  V30 6472 C 601.393 4.84216 1.95787 0
M  V30 6473 H 603.087 2.86792 0.859699 0
M  V30 6474 H 600.633 1.37977 0.412103 0
M  V30 6475 H 602.586 2.63843 3.2858 0
M  V30 6476 H 601.31 1.44864 2.92715 0
M  V30 6477 H 599.969 3.2238 1.74547 0
M  V30 6478 H 599.617 2.79246 4.18367 0
M  V30 6479 H 599.317 4.50087 3.77751 0
M  V30 6480 H 600.841 4.03334 4.58426 0
M  V30 6481 H 602.255 5.11592 2.5874 0
M  V30 6482 H 600.652 5.65498 2.00827 0
M  V30 6483 H 601.722 4.76243 0.912159 0
M  V30 6484 N 603.065 -0.440357 1.51323 0
M  V30 6485 C 604.305 -1.19956 1.65499 0
M  V30 6486 C 604.669 -1.88559 0.361878 0
M  V30 6487 O 605.87 -2.66109 0.379383 0
M  V30 6488 C 604.141 -2.1918 2.82303 0
M  V30 6489 S 605.7 -3.03627 3.1679 0
M  V30 6490 H 602.518 -0.406833 0.583102 0
M  V30 6491 H 605.12 -0.491596 1.89218 0
M  V30 6492 H 603.824 -1.67414 3.74701 0
M  V30 6493 H 603.355 -2.94561 2.60763 0
M  V30 6494 H 605.37 -4.20773 2.62991 0
M  V30 6495 N 604.543 -1.41418 -0.695603 0
M  V30 6496 C 605.959 -1.23887 -1.00619 0
M  V30 6497 C 606.159 -0.128206 -2.01092 0
M  V30 6498 O 605.215 0.507408 -2.47349 0
M  V30 6499 C 606.528 -2.58816 -1.53083 0
M  V30 6500 C 608.076 -2.65998 -1.64967 0
M  V30 6501 C 608.551 -4.01244 -2.20833 0
M  V30 6502 N 610.042 -4.0309 -2.28194 0
M  V30 6503 C 610.777 -5.04539 -2.72448 0
M  V30 6504 N 610.273 -6.16378 -3.16306 0
M  V30 6505 N 612.066 -4.91901 -2.72011 0
M  V30 6506 H 604.217 -2.12379 -0.0300061 0
M  V30 6507 H 606.48 -0.944958 -0.0758797 0
M  V30 6508 H 606.186 -3.40842 -0.867147 0
M  V30 6509 H 606.06 -2.81299 -2.51298 0
M  V30 6510 H 608.447 -1.84331 -2.30448 0
M  V30 6511 H 608.528 -2.47325 -0.652982 0
M  V30 6512 H 608.172 -4.83359 -1.55968 0
M  V30 6513 H 608.102 -4.17257 -3.21254 0
M  V30 6514 H 610.593 -3.22341 -1.97242 0
M  V30 6515 H 610.906 -6.89658 -3.487 0
M  V30 6516 H 609.251 -6.19914 -3.14215 0
M  V30 6517 H 612.442 -4.03613 -2.37095 0
M  V30 6518 H 612.615 -5.71102 -3.06181 0
M  V30 6519 N 606.021 0.929856 -1.27246 0
M  V30 6520 C 606.984 2.01172 -1.09829 0
M  V30 6521 C 607.984 1.60743 -0.0429687 0
M  V30 6522 O 609.174 1.71813 -0.287373 0
M  V30 6523 C 606.306 3.34191 -0.673003 0
M  V30 6524 H 607.499 2.18054 -2.05895 0
M  V30 6525 H 605.052 1.11036 -1.10003 0
M  V30 6526 H 605.787 3.23009 0.289134 0
M  V30 6527 H 605.572 3.64892 -1.43515 0
M  V30 6528 H 607.062 4.13646 -0.573323 0
M  V30 6529 N 607.499 1.09233 1.13605 0
M  V30 6530 C 608.747 0.825525 1.84471 0
M  V30 6531 C 609.068 -0.650702 1.83823 0
M  V30 6532 O 608.338 -1.47204 1.29259 0
M  V30 6533 H 606.918 0.3024 0.683054 0
M  V30 6534 H 609.58 1.38006 1.37624 0
M  V30 6535 H 608.676 1.17727 2.89045 0
M  V30 6536 N 608.977 -1.30795 0.87923 0
M  V30 6537 C 610.225 -1.95974 0.493809 0
M  V30 6538 C 610.546 -1.69787 -0.959021 0
M  V30 6539 O 609.816 -1.01832 -1.67353 0
M  V30 6540 H 608.396 -0.725083 0.179622 0
M  V30 6541 H 611.058 -1.59432 1.12105 0
M  V30 6542 H 610.154 -3.05058 0.659263 0
M  V30 6543 N 610.455 -0.639598 -1.44038 0
M  V30 6544 C 611.385 0.0469443 -2.33453 0
M  V30 6545 C 612.366 0.82609 -1.48694 0
M  V30 6546 O 613.551 0.790285 -1.77393 0
M  V30 6547 C 610.681 1.02338 -3.3188 0
M  V30 6548 C 609.635 0.355284 -4.26523 0
M  V30 6549 C 608.961 1.44221 -5.14883 0
M  V30 6550 C 610.261 -0.743798 -5.16977 0
M  V30 6551 H 611.955 -0.699735 -2.91108 0
M  V30 6552 H 609.501 -0.337946 -1.39978 0
M  V30 6553 H 611.454 1.51247 -3.93322 0
M  V30 6554 H 610.178 1.80105 -2.72451 0
M  V30 6555 H 608.837 -0.113239 -3.66425 0
M  V30 6556 H 608.485 2.21097 -4.51802 0
M  V30 6557 H 608.185 1.00052 -5.79019 0
M  V30 6558 H 609.709 1.93295 -5.79197 0
M  V30 6559 H 611.123 -0.337444 -5.72306 0
M  V30 6560 H 609.52 -1.10914 -5.89761 0
M  V30 6561 H 610.59 -1.60745 -4.57481 0
M  V30 6562 N 611.933 1.52934 -0.380664 0
M  V30 6563 C 613.344 1.86457 0.0952684 0
M  V30 6564 C 613.695 1.3007 1.46889 0
M  V30 6565 O 612.82 0.628636 2.07068 0
M  V30 6566 C 613.415 3.38323 0.179648 0
M  V30 6567 C 611.974 3.71589 0.599858 0
M  V30 6568 C 611.121 2.76228 -0.243572 0
M  V30 6569 H 614.072 1.46966 -0.59888 0
M  V30 6570 H 614.093 3.67113 1.00042 0
M  V30 6571 H 613.605 3.79333 -0.820228 0
M  V30 6572 H 611.706 3.36144 1.60742 0
M  V30 6573 H 611.819 4.77715 0.364003 0
M  V30 6574 H 610.183 2.53045 0.289855 0
M  V30 6575 H 610.966 3.20074 -1.24127 0
M  V30 6576 N 613.412 0.11024 1.57214 0
M  V30 6577 C 614.828 -0.24638 1.57687 0
M  V30 6578 C 615.028 -1.67344 1.12241 0
M  V30 6579 O 614.084 -2.39298 0.805783 0
M  V30 6580 C 615.397 -0.0210288 3.00693 0
M  V30 6581 C 616.945 -0.0876077 3.12877 0
M  V30 6582 C 617.42 0.10994 4.57868 0
M  V30 6583 N 618.911 0.0556135 4.63167 0
M  V30 6584 C 619.646 0.183495 5.73106 0
M  V30 6585 N 619.142 0.367058 6.91827 0
M  V30 6586 N 620.935 0.123689 5.61964 0
M  V30 6587 H 613.086 1.04246 1.85058 0
M  V30 6588 H 615.349 0.40979 0.854854 0
M  V30 6589 H 615.055 0.965203 3.38196 0
M  V30 6590 H 614.929 -0.756748 3.69531 0
M  V30 6591 H 617.316 -1.06436 2.75237 0
M  V30 6592 H 617.397 0.67985 2.466 0
M  V30 6593 H 617.041 1.08362 4.96206 0
M  V30 6594 H 616.971 -0.677397 5.22225 0
M  V30 6595 H 619.462 -0.0831062 3.77809 0
M  V30 6596 H 619.775 0.455739 7.71455 0
M  V30 6597 H 618.12 0.40292 6.93831 0
M  V30 6598 H 621.311 -0.0186928 4.68096 0
M  V30 6599 H 621.484 0.226797 6.47603 0
M  V30 6600 N 614.89 -1.56749 -0.16351 0
M  V30 6601 C 615.84 -1.93424 -1.20712 0
M  V30 6602 C 616.824 -0.803469 -1.39403 0
M  V30 6603 O 618.016 -1.06675 -1.41243 0
M  V30 6604 C 615.145 -2.30431 -2.54473 0
M  V30 6605 C 614.231 -3.5004 -2.39443 0
M  V30 6606 N 614.622 -4.67058 -1.9414 0
M  V30 6607 C 612.92 -3.548 -2.70246 0
M  V30 6608 C 613.621 -5.49184 -1.9176 0
M  V30 6609 N 612.597 -4.9044 -2.34457 0
M  V30 6610 H 616.399 -2.8138 -0.848681 0
M  V30 6611 H 613.913 -1.58089 -0.371717 0
M  V30 6612 H 615.91 -2.54903 -3.29894 0
M  V30 6613 H 614.57 -1.43818 -2.91112 0
M  V30 6614 H 615.581 -4.91128 -1.64357 0
M  V30 6615 H 612.258 -2.78685 -3.10871 0
M  V30 6616 H 613.648 -6.5297 -1.58366 0
M  V30 6617 N 616.368 0.432326 -1.51554 0
M  V30 6618 C 617.779 1.01202 -1.56892 0
M  V30 6619 C 618.13 1.92175 -0.395394 0
M  V30 6620 O 617.255 2.10844 0.487198 0
M  V30 6621 C 617.85 1.84217 -2.8434 0
M  V30 6622 C 616.409 2.37228 -2.92233 0
M  V30 6623 C 615.556 1.16576 -2.51606 0
M  V30 6624 H 618.507 0.213407 -1.57259 0
M  V30 6625 H 618.528 2.69721 -2.68385 0
M  V30 6626 H 618.04 1.17979 -3.69733 0
M  V30 6627 H 616.141 3.06905 -2.11282 0
M  V30 6628 H 616.254 2.69682 -3.95991 0
M  V30 6629 H 614.618 1.51263 -2.04919 0
M  V30 6630 H 615.401 0.519404 -3.39348 0
M  V30 6631 N 617.846 1.41785 0.688094 0
M  V30 6632 C 619.123 1.32031 1.44316 0
M  V30 6633 C 619.503 -0.0486079 2.11044 0
M  V30 6634 O 618.851 -1.06332 2.02252 0
M  V30 6635 C 619.061 2.47906 2.45649 0
M  V30 6636 C 620.409 2.89415 3.10683 0
M  V30 6637 O 621.433 2.477 2.55975 0
M  V30 6638 O 620.292 3.61573 4.09789 0
M  V30 6639 H 617.386 0.519994 0.643067 0
M  V30 6640 H 619.932 1.53765 0.71794 0
M  V30 6641 H 618.704 3.39222 1.95048 0
M  V30 6642 H 618.327 2.28089 3.25671 0
M  V30 6643 N 619.324 -0.923095 1.27737 0
M  V30 6644 C 620.287 -2.00587 1.10894 0
M  V30 6645 C 621.287 -1.60718 0.0514927 0
M  V30 6646 O 622.477 -1.71658 0.296481 0
M  V30 6647 C 619.609 -3.33829 0.690717 0
M  V30 6648 H 620.802 -2.16959 2.07048 0
M  V30 6649 H 618.355 -1.10451 1.1059 0
M  V30 6650 H 619.09 -3.23157 -0.272 0
M  V30 6651 H 618.875 -3.64125 1.45448 0
M  V30 6652 H 620.365 -4.13336 0.595252 0
M  V30 6653 N 620.802 -1.09834 -1.13024 0
M  V30 6654 C 621.765 -0.745058 -2.16752 0
M  V30 6655 C 622.765 0.227435 -1.59183 0
M  V30 6656 O 623.955 0.0050786 -1.74199 0
M  V30 6657 C 621.087 -0.102543 -3.40746 0
M  V30 6658 H 622.28 -1.66375 -2.49518 0
M  V30 6659 H 619.833 -0.898061 -1.27924 0
M  V30 6660 H 620.568 0.827177 -3.13573 0
M  V30 6661 H 620.353 -0.80235 -3.83803 0
M  V30 6662 H 621.843 0.129082 -4.174 0
M  V30 6663 N 622.28 1.30327 -0.886154 0
M  V30 6664 C 623.21 2.30549 -0.370028 0
M  V30 6665 C 624.191 1.61039 0.547751 0
M  V30 6666 O 625.376 1.8864 0.461353 0
M  V30 6667 C 622.506 3.44808 0.415275 0
M  V30 6668 C 621.46 4.26024 -0.41085 0
M  V30 6669 C 620.786 5.32347 0.501128 0
M  V30 6670 C 622.086 4.95433 -1.65359 0
M  V30 6671 H 623.78 2.73969 -1.20754 0
M  V30 6672 H 621.326 1.3171 -0.582097 0
M  V30 6673 H 623.279 4.13986 0.78699 0
M  V30 6674 H 622.003 3.00197 1.28644 0
M  V30 6675 H 620.662 3.58535 -0.764719 0
M  V30 6676 H 620.31 4.83982 1.37004 0
M  V30 6677 H 620.01 5.87581 -0.0478356 0
M  V30 6678 H 621.534 6.0438 0.869333 0
M  V30 6679 H 622.948 5.5712 -1.35239 0
M  V30 6680 H 621.345 5.60537 -2.14284 0
M  V30 6681 H 622.415 4.21493 -2.39733 0
M  V30 6682 N 623.758 0.647228 1.43697 0
M  V30 6683 C 625.005 0.158188 2.01881 0
M  V30 6684 C 625.333 -1.22573 1.51017 0
M  V30 6685 O 624.588 -1.83086 0.69122 0
M  V30 6686 C 624.887 0.111481 3.57226 0
M  V30 6687 C 624.553 1.43633 4.27411 0
M  V30 6688 C 623.215 1.79915 4.463 0
M  V30 6689 C 625.567 2.31011 4.67208 0
M  V30 6690 C 622.895 3.03251 5.02251 0
M  V30 6691 C 625.247 3.53633 5.24525 0
M  V30 6692 C 623.911 3.90118 5.41631 0
M  V30 6693 H 623.181 0.0578851 0.738736 0
M  V30 6694 H 625.828 0.836746 1.72252 0
M  V30 6695 H 624.133 -0.650507 3.86362 0
M  V30 6696 H 625.83 -0.283682 3.99995 0
M  V30 6697 H 622.42 1.14403 4.1305 0
M  V30 6698 H 626.604 2.04272 4.52313 0
M  V30 6699 H 621.86 3.31575 5.13681 0
M  V30 6700 H 626.034 4.21561 5.5431 0
M  V30 6701 H 623.661 4.85768 5.84751 0
M  V30 6702 N 625.236 -1.5273 0.388769 0
M  V30 6703 C 626.483 -2.01573 -0.19359 0
M  V30 6704 C 626.811 -1.27525 -1.46859 0
M  V30 6705 O 626.066 -0.363926 -1.92286 0
M  V30 6706 C 626.365 -3.53765 -0.508445 0
M  V30 6707 C 626.031 -4.4582 0.674947 0
M  V30 6708 C 624.693 -4.70703 0.999596 0
M  V30 6709 C 627.045 -5.00138 1.46666 0
M  V30 6710 C 624.373 -5.47155 2.11751 0
M  V30 6711 C 626.725 -5.77812 2.57518 0
M  V30 6712 C 625.389 -6.00975 2.90492 0
M  V30 6713 H 624.659 -0.737606 -0.0708397 0
M  V30 6714 H 627.306 -1.84134 0.526006 0
M  V30 6715 H 625.611 -3.69274 -1.30936 0
M  V30 6716 H 627.308 -3.8905 -0.971664 0
M  V30 6717 H 623.898 -4.26616 0.411906 0
M  V30 6718 H 628.082 -4.8084 1.22909 0
M  V30 6719 H 623.338 -5.63314 2.3767 0
M  V30 6720 H 627.512 -6.18904 3.19267 0
M  V30 6721 H 625.139 -6.59998 3.77236 0
M  V30 6722 N 626.714 -0.118576 -1.57153 0
M  V30 6723 C 628.125 0.40687 -1.82213 0
M  V30 6724 C 628.476 1.66636 -1.03571 0
M  V30 6725 O 627.601 2.14682 -0.272171 0
M  V30 6726 C 628.196 0.744949 -3.30509 0
M  V30 6727 C 626.755 1.21503 -3.5625 0
M  V30 6728 C 625.902 0.223511 -2.76398 0
M  V30 6729 H 628.853 -0.343712 -1.54933 0
M  V30 6730 H 628.874 1.6024 -3.45114 0
M  V30 6731 H 628.386 -0.171911 -3.87719 0
M  V30 6732 H 626.487 2.1488 -3.04396 0
M  V30 6733 H 626.6 1.16065 -4.64829 0
M  V30 6734 H 624.964 0.71046 -2.44591 0
M  V30 6735 H 625.747 -0.686439 -3.36367 0
M  V30 6736 N 628.193 1.56834 0.155195 0
M  V30 6737 C 629.604 1.72421 0.716082 0
M  V30 6738 C 629.955 0.731685 1.82046 0
M  V30 6739 O 629.08 -0.103481 2.16152 0
M  V30 6740 C 629.675 3.12629 1.30571 0
M  V30 6741 C 628.234 3.29846 1.81325 0
M  V30 6742 C 627.381 2.68359 0.698494 0
M  V30 6743 H 630.332 1.58544 -0.0703861 0
M  V30 6744 H 630.353 3.12174 2.1755 0
M  V30 6745 H 629.865 3.84844 0.501701 0
M  V30 6746 H 627.966 2.62614 2.64319 0
M  V30 6747 H 628.079 4.37727 1.9476 0
M  V30 6748 H 626.443 2.28604 1.12305 0
M  V30 6749 H 627.226 3.43171 -0.0939366 0
M  V30 6750 N 629.671 -0.424282 1.51781 0
M  V30 6751 C 630.601 -1.52305 1.7699 0
M  V30 6752 C 631.582 -1.5839 0.620209 0
M  V30 6753 O 632.767 -1.73908 0.864268 0
M  V30 6754 C 629.897 -2.90271 1.90683 0
M  V30 6755 C 628.851 -2.99043 3.06198 0
M  V30 6756 C 628.177 -4.39116 3.05092 0
M  V30 6757 C 629.477 -2.7192 4.45934 0
M  V30 6758 H 631.171 -1.31461 2.68995 0
M  V30 6759 H 628.717 -0.630985 1.29439 0
M  V30 6760 H 630.67 -3.6711 2.06901 0
M  V30 6761 H 629.394 -3.12376 0.953365 0
M  V30 6762 H 628.053 -2.24646 2.89706 0
M  V30 6763 H 627.701 -4.58207 2.07498 0
M  V30 6764 H 627.401 -4.45912 3.82669 0
M  V30 6765 H 628.925 -5.17911 3.2342 0
M  V30 6766 H 630.339 -3.38487 4.62709 0
M  V30 6767 H 628.736 -2.90111 5.25315 0
M  V30 6768 H 629.806 -1.67445 4.55072 0
M  V30 6769 N 631.149 -1.42148 -0.680565 0
M  V30 6770 C 632.565 -1.24947 -0.992995 0
M  V30 6771 C 632.765 -0.149527 -2.00944 0
M  V30 6772 O 631.821 0.481145 -2.47873 0
M  V30 6773 C 633.134 -2.60426 -1.5033 0
M  V30 6774 C 634.682 -2.67733 -1.62137 0
M  V30 6775 C 635.157 -4.03564 -2.16565 0
M  V30 6776 N 636.648 -4.05488 -2.23905 0
M  V30 6777 C 637.383 -5.07401 -2.67081 0
M  V30 6778 N 636.879 -6.19698 -3.09751 0
M  V30 6779 N 638.672 -4.94758 -2.66778 0
M  V30 6780 H 630.823 -2.12399 -0.0074788 0
M  V30 6781 H 633.086 -0.94571 -0.0658529 0
M  V30 6782 H 632.792 -3.41743 -0.830947 0
M  V30 6783 H 632.666 -2.83949 -2.483 0
M  V30 6784 H 635.053 -1.86765 -2.2848 0
M  V30 6785 H 635.134 -2.48004 -0.626713 0
M  V30 6786 H 634.778 -4.84987 -1.50833 0
M  V30 6787 H 634.708 -4.20641 -3.1681 0
M  V30 6788 H 637.199 -3.24415 -1.93812 0
M  V30 6789 H 637.512 -6.93318 -3.41365 0
M  V30 6790 H 635.857 -6.23212 -3.07623 0
M  V30 6791 H 639.048 -4.06105 -2.32801 0
M  V30 6792 H 639.221 -5.74317 -3.00107 0
M  V30 6793 N 632.627 0.916307 -1.28225 0
M  V30 6794 C 634.043 1.19425 -1.05876 0
M  V30 6795 C 634.243 2.005 0.2005 0
M  V30 6796 O 633.299 2.35806 0.902873 0
M  V30 6797 C 634.612 1.93133 -2.30478 0
M  V30 6798 C 636.16 2.06026 -2.35632 0
M  V30 6799 C 636.635 2.83141 -3.59994 0
M  V30 6800 N 638.126 2.90704 -3.60618 0
M  V30 6801 C 638.861 3.50865 -4.53521 0
M  V30 6802 N 638.357 4.12327 -5.56739 0
M  V30 6803 N 640.15 3.48379 -4.41122 0
M  V30 6804 H 632.301 0.37496 -2.09064 0
M  V30 6805 H 634.564 0.228531 -0.920042 0
M  V30 6806 H 634.27 1.40985 -3.22205 0
M  V30 6807 H 634.144 2.93696 -2.36691 0
M  V30 6808 H 636.531 2.57355 -1.44404 0
M  V30 6809 H 636.612 1.04647 -2.33415 0
M  V30 6810 H 636.256 2.32492 -4.51564 0
M  V30 6811 H 636.186 3.84829 -3.59464 0
M  V30 6812 H 638.677 2.47034 -2.85977 0
M  V30 6813 H 638.99 4.56205 -6.23776 0
M  V30 6814 H 637.335 4.10839 -5.60568 0
M  V30 6815 H 640.526 2.99572 -3.59686 0
M  V30 6816 H 640.699 3.94974 -5.13712 0
M  V30 6817 N 634.105 1.10431 1.1244 0
M  V30 6818 C 635.035 0.775143 2.20258 0
M  V30 6819 C 636.016 -0.25186 1.68225 0
M  V30 6820 O 637.201 -0.117637 1.93843 0
M  V30 6821 C 634.331 0.206133 3.46688 0
M  V30 6822 C 633.285 1.16382 4.11873 0
M  V30 6823 C 632.611 0.456014 5.32752 0
M  V30 6824 C 633.911 2.5104 4.58013 0
M  V30 6825 H 635.605 1.67665 2.4805 0
M  V30 6826 H 633.151 0.807595 1.19222 0
M  V30 6827 H 635.104 -0.036291 4.21384 0
M  V30 6828 H 633.828 -0.730614 3.18323 0
M  V30 6829 H 632.487 1.39169 3.39157 0
M  V30 6830 H 632.135 -0.485203 5.00654 0
M  V30 6831 H 631.835 1.09466 5.77314 0
M  V30 6832 H 633.359 0.222135 6.10196 0
M  V30 6833 H 634.773 2.32401 5.24083 0
M  V30 6834 H 633.17 3.10789 5.13352 0
M  V30 6835 H 634.24 3.11039 3.71998 0
M  V30 6836 N 635.583 -1.29855 0.893053 0
M  V30 6837 C 636.832 -1.95104 0.511597 0
M  V30 6838 C 637.145 -1.71226 -0.945567 0
M  V30 6839 O 638.351 -2.30525 -1.43424 0
M  V30 6840 C 636.807 -3.49374 0.864034 0
M  V30 6841 C 636.415 -3.82061 2.33952 0
M  V30 6842 C 638.159 -4.20894 0.552167 0
M  V30 6843 C 636.066 -5.29546 2.63316 0
M  V30 6844 H 634.996 -0.73029 0.187597 0
M  V30 6845 H 637.647 -1.47682 1.08914 0
M  V30 6846 H 636.029 -3.95413 0.215493 0
M  V30 6847 H 637.203 -3.46904 3.03305 0
M  V30 6848 H 635.518 -3.23665 2.61973 0
M  V30 6849 H 638.115 -5.29435 0.748489 0
M  V30 6850 H 638.458 -4.13178 -0.508924 0
M  V30 6851 H 638.991 -3.80564 1.15825 0
M  V30 6852 H 635.73 -5.4232 3.68197 0
M  V30 6853 H 635.25 -5.65974 1.9858 0
M  V30 6854 H 636.929 -5.97068 2.49236 0
M  V30 6855 N 637.061 -0.65484 -1.43351 0
M  V30 6856 C 637.991 0.0221809 -2.33489 0
M  V30 6857 C 638.972 0.810272 -1.49561 0
M  V30 6858 O 640.157 0.771426 -1.78221 0
M  V30 6859 C 637.287 0.988117 -3.32947 0
M  V30 6860 C 636.241 0.310026 -4.26876 0
M  V30 6861 C 635.567 1.38752 -5.16384 0
M  V30 6862 C 636.867 -0.798589 -5.16159 0
M  V30 6863 H 638.561 -0.730571 -2.9035 0
M  V30 6864 H 636.107 -0.352773 -1.39612 0
M  V30 6865 H 638.06 1.47067 -3.94904 0
M  V30 6866 H 636.784 1.77205 -2.74346 0
M  V30 6867 H 635.443 -0.152097 -3.66284 0
M  V30 6868 H 635.091 2.16293 -4.54121 0
M  V30 6869 H 634.791 0.939051 -5.80048 0
M  V30 6870 H 636.315 1.87141 -5.81215 0
M  V30 6871 H 637.729 -0.398126 -5.71916 0
M  V30 6872 H 636.126 -1.17163 -5.88552 0
M  V30 6873 H 637.196 -1.65588 -4.55751 0
M  V30 6874 N 638.539 1.52521 -0.396863 0
M  V30 6875 C 639.786 2.01672 0.182898 0
M  V30 6876 C 640.114 1.28302 1.46181 0
M  V30 6877 O 639.369 0.374118 1.92091 0
M  V30 6878 C 639.668 3.5403 0.489677 0
M  V30 6879 C 639.334 4.45456 -0.698581 0
M  V30 6880 C 637.996 4.70166 -1.02454 0
M  V30 6881 C 640.348 4.99354 -1.49316 0
M  V30 6882 C 637.676 5.46024 -2.1465 0
M  V30 6883 C 640.028 5.76439 -2.60579 0
M  V30 6884 C 638.692 5.99426 -2.93675 0
M  V30 6885 H 637.962 0.737971 0.066927 0
M  V30 6886 H 640.609 1.83853 -0.535764 0
M  V30 6887 H 638.914 3.69963 1.28976 0
M  V30 6888 H 640.611 3.8956 0.951018 0
M  V30 6889 H 637.201 4.26392 -0.434525 0
M  V30 6890 H 641.385 4.80182 -1.25457 0
M  V30 6891 H 636.641 5.62046 -2.40654 0
M  V30 6892 H 640.815 6.17202 -3.22544 0
M  V30 6893 H 638.442 6.57988 -3.80731 0
M  V30 6894 N 640.017 0.126909 1.57088 0
M  V30 6895 C 640.964 -0.82036 2.15728 0
M  V30 6896 C 641.934 -1.25811 1.08447 0
M  V30 6897 O 643.119 -1.33422 1.36393 0
M  V30 6898 C 640.259 -2.06199 2.76724 0
M  V30 6899 C 639.372 -1.67188 3.98337 0
M  V30 6900 C 638.507 -2.86378 4.47393 0
M  V30 6901 C 637.546 -2.43644 5.61519 0
M  V30 6902 N 636.683 -3.55775 6.05284 0
M  V30 6903 H 641.523 -0.313472 2.96347 0
M  V30 6904 H 639.06 -0.14303 1.46403 0
M  V30 6905 H 641.018 -2.78959 3.10222 0
M  V30 6906 H 639.648 -2.54333 1.98782 0
M  V30 6907 H 638.7 -0.842714 3.70948 0
M  V30 6908 H 640.012 -1.31789 4.81075 0
M  V30 6909 H 639.166 -3.67353 4.82842 0
M  V30 6910 H 637.905 -3.25009 3.63621 0
M  V30 6911 H 636.91 -1.61104 5.25667 0
M  V30 6912 H 638.135 -2.06122 6.47063 0
M  V30 6913 H 636.081 -3.94065 5.24451 0
M  V30 6914 H 635.998 -3.24325 6.82898 0
M  V30 6915 H 637.266 -4.37166 6.45373 0
M  V30 6916 N 641.495 -1.56914 -0.146875 0
M  V30 6917 C 642.743 -1.82994 -0.85777 0
M  V30 6918 C 643.064 -0.707814 -1.817 0
M  V30 6919 O 642.334 0.270521 -1.94023 0
M  V30 6920 H 640.914 -0.675106 -0.319751 0
M  V30 6921 H 643.576 -1.9439 -0.140849 0
M  V30 6922 H 642.672 -2.77928 -1.41994 0
M  V30 6923 N 642.974 0.416227 -1.52004 0
M  V30 6924 C 643.937 1.48926 -1.74223 0
M  V30 6925 C 644.937 1.48693 -0.612119 0
M  V30 6926 O 646.127 1.50343 -0.879921 0
M  V30 6927 C 643.259 2.88372 -1.81809 0
M  V30 6928 H 644.452 1.3052 -2.70008 0
M  V30 6929 H 642.005 0.646271 -1.42313 0
M  V30 6930 H 642.74 3.12157 -0.879135 0
M  V30 6931 H 642.525 2.89944 -2.6396 0
M  V30 6932 H 644.015 3.66173 -2.00766 0
M  V30 6933 N 644.452 1.42507 0.673017 0
M  V30 6934 C 645.868 1.25472 0.986355 0
M  V30 6935 C 646.068 0.160181 2.00862 0
M  V30 6936 O 645.124 -0.467993 2.48125 0
M  V30 6937 C 646.437 2.61219 1.48947 0
M  V30 6938 C 647.985 2.68589 1.60715 0
M  V30 6939 C 648.46 4.04707 2.14422 0
M  V30 6940 N 649.951 4.0667 2.21752 0
M  V30 6941 C 650.686 5.0881 2.64386 0
M  V30 6942 N 650.182 6.21332 3.0646 0
M  V30 6943 N 651.975 4.96166 2.64151 0
M  V30 6944 H 644.126 2.124 -0.00378532 0
M  V30 6945 H 646.389 0.946046 0.0608367 0
M  V30 6946 H 646.095 3.42179 0.812812 0
M  V30 6947 H 645.969 2.85261 2.46791 0
M  V30 6948 H 648.356 1.87974 2.27486 0
M  V30 6949 H 648.437 2.48333 0.613552 0
M  V30 6950 H 648.081 4.8578 1.48258 0
M  V30 6951 H 648.011 4.22315 3.14575 0
M  V30 6952 H 650.502 3.25438 1.92089 0
M  V30 6953 H 650.815 6.95118 3.37684 0
M  V30 6954 H 649.16 6.24835 3.04313 0
M  V30 6955 H 652.351 4.07334 2.30644 0
M  V30 6956 H 652.524 5.759 2.97057 0
M  V30 6957 N 645.93 -0.909495 1.28709 0
M  V30 6958 C 647.16 -1.69027 1.188 0
M  V30 6959 C 647.568 -1.87469 -0.255329 0
M  V30 6960 O 646.911 -1.40458 -1.18394 0
M  V30 6961 C 646.973 -3.10064 1.81936 0
M  V30 6962 C 646.637 -3.14891 3.31199 0
M  V30 6963 C 647.634 -2.95768 4.27571 0
M  V30 6964 C 645.319 -3.37269 3.7223 0
M  V30 6965 C 647.313 -2.98942 5.6295 0
M  V30 6966 C 645 -3.40074 5.07733 0
M  V30 6967 C 645.998 -3.20932 6.02903 0
M  V30 6968 O 645.686 -3.23507 7.35934 0
M  V30 6969 H 645.418 -0.535014 0.413203 0
M  V30 6970 H 647.972 -1.14645 1.70428 0
M  V30 6971 H 646.202 -3.66005 1.24808 0
M  V30 6972 H 647.891 -3.70185 1.66486 0
M  V30 6973 H 648.657 -2.78302 3.97206 0
M  V30 6974 H 644.536 -3.51212 2.98615 0
M  V30 6975 H 648.08 -2.83919 6.37209 0
M  V30 6976 H 643.977 -3.5707 5.37747 0
M  V30 6977 H 644.745 -3.3984 7.44615 0
M  V30 6978 N 647.408 -1.11026 -1.11852 0
M  V30 6979 C 648.638 -0.877544 -1.87037 0
M  V30 6980 C 649.046 0.575925 -1.80221 0
M  V30 6981 O 648.389 1.40916 -1.17849 0
M  V30 6982 C 648.451 -1.25529 -3.36872 0
M  V30 6983 C 648.115 -2.71704 -3.67459 0
M  V30 6984 C 649.112 -3.69931 -3.65304 0
M  V30 6985 C 646.797 -3.08243 -3.966 0
M  V30 6986 C 648.791 -5.02717 -3.9186 0
M  V30 6987 C 646.478 -4.41215 -4.22815 0
M  V30 6988 C 647.476 -5.38262 -4.20432 0
M  V30 6989 O 647.164 -6.68839 -4.45992 0
M  V30 6990 H 646.896 -0.314374 -0.598452 0
M  V30 6991 H 649.45 -1.48015 -1.42411 0
M  V30 6992 H 647.68 -0.595808 -3.82082 0
M  V30 6993 H 649.369 -0.999064 -3.93413 0
M  V30 6994 H 650.135 -3.43047 -3.42846 0
M  V30 6995 H 646.014 -2.33326 -3.97593 0
M  V30 6996 H 649.558 -5.78456 -3.89916 0
M  V30 6997 H 645.455 -4.67835 -4.44748 0
M  V30 6998 H 646.223 -6.74563 -4.63581 0
M  V30 6999 N 648.886 1.2938 -0.899927 0
M  V30 7000 C 650.132 1.9584 -0.526742 0
M  V30 7001 C 650.465 1.70774 0.924651 0
M  V30 7002 O 649.74 1.02084 1.65557 0
M  V30 7003 C 650.023 3.50638 -0.820062 0
M  V30 7004 C 649.876 3.85161 -2.32317 0
M  V30 7005 C 651.195 4.3903 -0.30671 0
M  V30 7006 H 648.314 0.711322 -0.192848 0
M  V30 7007 H 650.956 1.52992 -1.12665 0
M  V30 7008 H 649.106 3.87265 -0.309491 0
M  V30 7009 H 650.778 3.58477 -2.9033 0
M  V30 7010 H 649.021 3.32696 -2.78381 0
M  V30 7011 H 649.692 4.93204 -2.47898 0
M  V30 7012 H 652.168 4.09396 -0.743908 0
M  V30 7013 H 651.044 5.46226 -0.541144 0
M  V30 7014 H 651.305 4.34937 0.792588 0
M  V30 7015 N 650.364 0.662433 1.43002 0
M  V30 7016 C 651.294 -0.00979809 2.33498 0
M  V30 7017 C 652.275 -0.802329 1.49989 0
M  V30 7018 O 653.46 -0.761964 1.78627 0
M  V30 7019 C 650.59 -0.970446 3.33466 0
M  V30 7020 C 649.544 -0.287383 4.27034 0
M  V30 7021 C 648.87 -1.36012 5.17112 0
M  V30 7022 C 650.17 0.82595 5.15728 0
M  V30 7023 H 651.864 0.745959 2.89958 0
M  V30 7024 H 649.41 0.360172 1.39423 0
M  V30 7025 H 651.363 -1.44971 3.95679 0
M  V30 7026 H 650.087 -1.75748 2.75282 0
M  V30 7027 H 648.746 0.17152 3.66199 0
M  V30 7028 H 648.394 -2.13882 4.55262 0
M  V30 7029 H 648.094 -0.908276 5.80538 0
M  V30 7030 H 649.618 -1.84056 5.82199 0
M  V30 7031 H 651.032 0.42845 5.71697 0
M  V30 7032 H 649.429 1.20282 5.87922 0
M  V30 7033 H 650.499 1.68003 4.54866 0
M  V30 7034 N 651.842 -1.52309 0.404946 0
M  V30 7035 C 652.805 -2.25491 -0.410651 0
M  V30 7036 C 653.805 -1.27704 -0.977154 0
M  V30 7037 O 654.995 -1.51679 -0.856691 0
M  V30 7038 C 652.127 -3.02197 -1.57765 0
M  V30 7039 H 653.32 -2.99015 0.230277 0
M  V30 7040 H 650.873 -1.55506 0.157377 0
M  V30 7041 H 651.608 -2.33013 -2.25556 0
M  V30 7042 H 651.393 -3.73987 -1.17797 0
M  V30 7043 H 652.883 -3.57719 -2.15469 0
M  V30 7044 N 653.32 -0.135238 -1.57019 0
M  V30 7045 C 654.736 0.221262 -1.58059 0
M  V30 7046 C 654.936 1.65538 -1.14889 0
M  V30 7047 O 653.992 2.37985 -0.843751 0
M  V30 7048 C 655.305 -0.0268114 -3.00688 0
M  V30 7049 C 656.853 0.0378206 -3.12977 0
M  V30 7050 C 657.328 -0.182769 -4.57635 0
M  V30 7051 N 658.819 -0.129292 -4.6302 0
M  V30 7052 C 659.554 -0.274648 -5.72742 0
M  V30 7053 N 659.05 -0.477075 -6.91155 0
M  V30 7054 N 660.843 -0.213077 -5.61696 0
M  V30 7055 H 652.994 -1.07177 -1.83376 0
M  V30 7056 H 655.257 -0.423338 -0.848227 0
M  V30 7057 H 654.963 -1.01889 -3.36618 0
M  V30 7058 H 654.837 0.697863 -3.70688 0
M  V30 7059 H 657.224 1.02043 -2.76896 0
M  V30 7060 H 657.305 -0.718996 -2.45487 0
M  V30 7061 H 656.949 -1.16243 -4.94419 0
M  V30 7062 H 656.879 0.59423 -5.23237 0
M  V30 7063 H 659.37 0.0229896 -3.77893 0
M  V30 7064 H 659.683 -0.578413 -7.70632 0
M  V30 7065 H 658.028 -0.513252 -6.93102 0
M  V30 7066 H 661.219 -0.0557796 -4.68067 0
M  V30 7067 H 661.392 -0.329796 -6.4716 0
M  V30 7068 N 654.798 1.5699 0.138552 0
M  V30 7069 C 656.046 1.83446 0.848053 0
M  V30 7070 C 656.367 0.71744 1.81322 0
M  V30 7071 O 655.637 -0.260228 1.94164 0
M  V30 7072 H 654.217 0.676792 0.316166 0
M  V30 7073 H 656.879 1.94462 0.130538 0
M  V30 7074 H 655.975 2.78677 1.40518 0
M  V30 7075 N 656.276 -0.40816 1.52223 0
M  V30 7076 C 657.524 -1.15274 1.66001 0
M  V30 7077 C 657.845 -1.91003 0.392803 0
M  V30 7078 O 657.115 -1.8673 -0.592336 0
M  V30 7079 H 655.695 -0.428526 0.611861 0
M  V30 7080 H 658.357 -0.46512 1.89269 0
M  V30 7081 H 657.453 -1.86628 2.50153 0
M  V30 7082 N 657.755 -1.42862 -0.66545 0
M  V30 7083 C 658.685 -1.49867 -1.79059 0
M  V30 7084 C 659.666 -0.354394 -1.66367 0
M  V30 7085 O 660.851 -0.569969 -1.85647 0
M  V30 7086 C 657.981 -1.40943 -3.17415 0
M  V30 7087 C 656.935 -2.53495 -3.44854 0
M  V30 7088 C 656.261 -2.29626 -4.82883 0
M  V30 7089 C 657.561 -3.95781 -3.40815 0
M  V30 7090 H 659.255 -2.44037 -1.73453 0
M  V30 7091 H 656.801 -1.17456 -0.833071 0
M  V30 7092 H 658.754 -1.4445 -3.95869 0
M  V30 7093 H 657.478 -0.432716 -3.23721 0
M  V30 7094 H 656.137 -2.4932 -2.68766 0
M  V30 7095 H 655.785 -1.30226 -4.8585 0
M  V30 7096 H 655.485 -3.05065 -5.02204 0
M  V30 7097 H 657.009 -2.34897 -5.63609 0
M  V30 7098 H 658.423 -4.01508 -4.09224 0
M  V30 7099 H 656.82 -4.71148 -3.71672 0
M  V30 7100 H 657.89 -4.21786 -2.39216 0
M  V30 7101 N 659.233 0.902656 -1.29189 0
M  V30 7102 C 660.165 2.01149 -1.09872 0
M  V30 7103 C 661.178 1.62732 -0.0471046 0
M  V30 7104 O 662.367 1.76107 -0.29132 0
M  V30 7105 C 659.467 3.32612 -0.649818 0
M  V30 7106 C 658.64 3.99574 -1.7793 0
M  V30 7107 C 657.699 5.09325 -1.32191 0
M  V30 7108 O 656.725 5.31919 -2.02611 0
M  V30 7109 N 657.927 5.80185 -0.191171 0
M  V30 7110 H 660.692 2.18276 -2.05368 0
M  V30 7111 H 658.253 1.07466 -1.2109 0
M  V30 7112 H 660.245 4.03375 -0.327199 0
M  V30 7113 H 658.815 3.11876 0.212597 0
M  V30 7114 H 658.035 3.22213 -2.27095 0
M  V30 7115 H 659.323 4.41056 -2.53668 0
M  V30 7116 H 658.721 5.64312 0.396016 0
M  V30 7117 H 657.278 6.5176 0.0721001 0
M  V30 7118 N 660.711 1.11618 1.11262 0
M  V30 7119 C 661.957 0.867463 1.83311 0
M  V30 7120 C 662.29 -0.605366 1.84524 0
M  V30 7121 O 661.565 -1.44704 1.29965 0
M  V30 7122 C 661.848 1.43207 3.30399 0
M  V30 7123 C 661.701 2.97265 3.3757 0
M  V30 7124 C 663.02 1.08454 4.26528 0
M  V30 7125 H 660.139 0.316578 0.665543 0
M  V30 7126 H 662.781 1.38137 1.30454 0
M  V30 7127 H 660.931 0.994982 3.75543 0
M  V30 7128 H 662.603 3.49591 3.00971 0
M  V30 7129 H 660.846 3.33237 2.77733 0
M  V30 7130 H 661.517 3.31859 4.41105 0
M  V30 7131 H 663.993 1.4619 3.89574 0
M  V30 7132 H 662.869 1.50633 5.27826 0
M  V30 7133 H 663.13 -0.00444568 4.421 0
M  V30 7134 N 662.189 -1.289 0.906776 0
M  V30 7135 C 663.099 -2.31256 0.394707 0
M  V30 7136 C 664.115 -1.66231 -0.514121 0
M  V30 7137 O 665.291 -1.97347 -0.401994 0
M  V30 7138 C 662.356 -3.44792 -0.363191 0
M  V30 7139 C 661.417 -4.25391 0.578012 0
M  V30 7140 C 660.65 -5.33506 -0.143811 0
M  V30 7141 O 660.873 -5.53786 -1.36665 0
M  V30 7142 O 659.807 -5.99673 0.5173 0
M  V30 7143 H 663.633 -2.77051 1.24405 0
M  V30 7144 H 661.218 -1.33466 0.671346 0
M  V30 7145 H 663.1 -4.139 -0.791503 0
M  V30 7146 H 661.775 -3.01093 -1.18848 0
M  V30 7147 H 660.682 -3.58899 1.05558 0
M  V30 7148 H 662.015 -4.72752 1.36992 0
M  V30 7149 N 663.667 -0.670007 -1.42649 0
M  V30 7150 C 665.078 -0.268118 -1.84765 0
M  V30 7151 C 665.429 1.18877 -1.56086 0
M  V30 7152 O 664.554 1.90947 -1.01825 0
M  V30 7153 C 665.149 -0.47984 -3.35385 0
M  V30 7154 C 663.708 -0.132116 -3.76168 0
M  V30 7155 C 662.855 -0.774611 -2.66261 0
M  V30 7156 H 665.806 -0.872509 -1.32563 0
M  V30 7157 H 665.827 0.269522 -3.79544 0
M  V30 7158 H 665.339 -1.54026 -3.56227 0
M  V30 7159 H 663.44 0.92505 -3.60934 0
M  V30 7160 H 663.553 -0.569294 -4.75706 0
M  V30 7161 H 661.917 -0.206353 -2.53863 0
M  V30 7162 H 662.7 -1.83839 -2.89928 0
M  V30 7163 N 665.145 1.52092 -0.413018 0
M  V30 7164 C 666.375 2.05974 0.160648 0
M  V30 7165 C 666.783 1.28267 1.39084 0
M  V30 7166 O 666.126 0.328805 1.80733 0
M  V30 7167 C 666.188 3.54918 0.572169 0
M  V30 7168 C 665.852 4.53705 -0.547826 0
M  V30 7169 C 666.849 5.00342 -1.41259 0
M  V30 7170 C 664.534 4.97089 -0.721627 0
M  V30 7171 C 666.528 5.89011 -2.43607 0
M  V30 7172 C 664.215 5.85554 -1.74841 0
M  V30 7173 C 665.213 6.3141 -2.60403 0
M  V30 7174 O 664.901 7.18123 -3.61323 0
M  V30 7175 H 664.633 0.675636 0.0221936 0
M  V30 7176 H 667.187 1.96931 -0.58373 0
M  V30 7177 H 665.417 3.61661 1.36889 0
M  V30 7178 H 667.106 3.91428 1.0742 0
M  V30 7179 H 667.872 4.67537 -1.28974 0
M  V30 7180 H 663.751 4.60954 -0.0652911 0
M  V30 7181 H 667.295 6.24725 -3.10425 0
M  V30 7182 H 663.192 6.17773 -1.87156 0
M  V30 7183 H 663.96 7.36244 -3.57613 0
M  V30 7184 N 666.623 0.143563 1.56945 0
M  V30 7185 C 667.853 -0.514699 2.00086 0
M  V30 7186 C 668.261 -1.59184 1.0226 0
M  V30 7187 O 667.604 -1.83697 0.0110514 0
M  V30 7188 C 667.666 -1.17778 3.39659 0
M  V30 7189 C 667.33 -0.245657 4.56339 0
M  V30 7190 C 668.327 0.525343 5.17239 0
M  V30 7191 C 666.012 -0.149564 5.02077 0
M  V30 7192 C 668.006 1.37992 6.22284 0
M  V30 7193 C 665.693 0.708621 6.06978 0
M  V30 7194 C 666.691 1.47197 6.6695 0
M  V30 7195 O 666.379 2.31586 7.6982 0
M  V30 7196 H 666.111 -0.138789 0.661599 0
M  V30 7197 H 668.665 0.234098 2.04062 0
M  V30 7198 H 666.895 -1.97415 3.32512 0
M  V30 7199 H 668.584 -1.73542 3.6693 0
M  V30 7200 H 669.35 0.461118 4.82803 0
M  V30 7201 H 665.229 -0.733457 4.55128 0
M  V30 7202 H 668.773 1.97621 6.69023 0
M  V30 7203 H 664.67 0.77415 6.40841 0
M  V30 7204 H 665.438 2.24796 7.87025 0
M  V30 7205 N 668.101 -1.57061 -0.130224 0
M  V30 7206 C 669.512 -1.73539 -0.68856 0
M  V30 7207 C 669.863 -0.760554 -1.80859 0
M  V30 7208 O 668.988 0.0690796 -2.1629 0
M  V30 7209 C 669.583 -3.14666 -1.25581 0
M  V30 7210 C 668.142 -3.32689 -1.76055 0
M  V30 7211 C 667.289 -2.69436 -0.655712 0
M  V30 7212 H 670.24 -1.58412 0.0956002 0
M  V30 7213 H 670.261 -3.15595 -2.12556 0
M  V30 7214 H 669.773 -3.85593 -0.440412 0
M  V30 7215 H 667.874 -2.66786 -2.60108 0
M  V30 7216 H 667.987 -4.4077 -1.87772 0
M  V30 7217 H 666.351 -2.30362 -1.08654 0
M  V30 7218 H 667.134 -3.42979 0.14852 0
M  V30 7219 N 669.579 0.400081 -1.52437 0
M  V30 7220 C 670.995 0.739359 -1.41441 0
M  V30 7221 C 671.195 1.94512 -0.526053 0
M  V30 7222 O 670.251 2.525 0.00472502 0
M  V30 7223 C 671.564 0.984824 -2.84116 0
M  V30 7224 C 673.112 1.08698 -2.93519 0
M  V30 7225 C 673.587 1.36515 -4.37181 0
M  V30 7226 N 675.078 1.43361 -4.40457 0
M  V30 7227 C 675.813 1.66528 -5.48686 0
M  V30 7228 N 675.309 1.87239 -6.67018 0
M  V30 7229 N 677.102 1.68617 -5.36213 0
M  V30 7230 H 669.253 -0.393484 -2.08723 0
M  V30 7231 H 671.516 -0.1138 -0.941145 0
M  V30 7232 H 671.222 0.171096 -3.51284 0
M  V30 7233 H 671.096 1.90253 -3.25705 0
M  V30 7234 H 673.483 1.89129 -2.26526 0
M  V30 7235 H 673.564 0.147432 -2.55375 0
M  V30 7236 H 673.208 0.565982 -5.04737 0
M  V30 7237 H 673.138 2.31737 -4.7287 0
M  V30 7238 H 675.629 1.29108 -3.55161 0
M  V30 7239 H 675.942 2.04392 -7.45281 0
M  V30 7240 H 674.287 1.84486 -6.70067 0
M  V30 7241 H 677.478 1.5198 -4.42741 0
M  V30 7242 H 677.651 1.86332 -6.20632 0
M  V30 7243 N 671.057 1.43213 0.657864 0
M  V30 7244 C 672.282 1.48227 1.45064 0
M  V30 7245 C 672.707 0.0999939 1.87834 0
M  V30 7246 O 672.065 -0.905269 1.57081 0
M  V30 7247 C 672.113 2.42931 2.6649 0
M  V30 7248 O 671.217 1.91237 3.6538 0
M  V30 7249 H 670.558 0.501551 0.435135 0
M  V30 7250 H 673.088 1.8808 0.805431 0
M  V30 7251 H 673.098 2.6008 3.1436 0
M  V30 7252 H 671.773 3.43348 2.34701 0
M  V30 7253 H 670.35 1.83726 3.24498 0
M  V30 7254 N 672.536 -0.895792 1.29666 0
M  V30 7255 C 673.466 -2.01673 1.17688 0
M  V30 7256 C 674.447 -1.69955 0.0701317 0
M  V30 7257 O 675.632 -1.9258 0.250289 0
M  V30 7258 C 672.762 -3.36568 0.856681 0
M  V30 7259 C 671.716 -3.82509 1.92017 0
M  V30 7260 C 671.042 -5.14574 1.4532 0
M  V30 7261 C 672.342 -4.02409 3.32963 0
M  V30 7262 H 674.036 -2.11953 2.11463 0
M  V30 7263 H 671.582 -1.01839 1.01807 0
M  V30 7264 H 673.535 -4.14498 0.759577 0
M  V30 7265 H 672.259 -3.26391 -0.116763 0
M  V30 7266 H 670.918 -3.068 2.00673 0
M  V30 7267 H 670.566 -5.00815 0.468325 0
M  V30 7268 H 670.266 -5.46283 2.16447 0
M  V30 7269 H 671.79 -5.9504 1.36968 0
M  V30 7270 H 673.204 -4.70808 3.27127 0
M  V30 7271 H 671.601 -4.45478 4.02082 0
M  V30 7272 H 672.671 -3.06616 3.75652 0
M  V30 7273 N 674.014 -1.12206 -1.10668 0
M  V30 7274 C 674.946 -0.74552 -2.16736 0
M  V30 7275 C 675.959 0.226696 -1.61214 0
M  V30 7276 O 677.148 0.0083936 -1.78498 0
M  V30 7277 C 674.248 -0.0823368 -3.388 0
M  V30 7278 C 673.421 -1.08341 -4.2377 0
M  V30 7279 C 672.48 -0.448292 -5.24287 0
M  V30 7280 O 671.506 -1.10458 -5.58379 0
M  V30 7281 N 672.708 0.785336 -5.75163 0
M  V30 7282 H 675.473 -1.65818 -2.49649 0
M  V30 7283 H 673.034 -1.01335 -1.26265 0
M  V30 7284 H 675.026 0.354476 -4.03145 0
M  V30 7285 H 673.596 0.733041 -3.03884 0
M  V30 7286 H 672.816 -1.69792 -3.55759 0
M  V30 7287 H 674.104 -1.76042 -4.77375 0
M  V30 7288 H 673.502 1.33755 -5.4966 0
M  V30 7289 H 672.059 1.16501 -6.41304 0
M  V30 7290 N 675.492 1.28418 -0.913599 0
M  V30 7291 C 676.769 1.89977 -0.465619 0
M  V30 7292 C 677.149 1.82813 1.05559 0
M  V30 7293 O 676.497 1.26397 1.90358 0
M  V30 7294 C 676.707 3.34492 -0.995813 0
M  V30 7295 C 678.055 4.11468 -1.04782 0
M  V30 7296 O 679.079 3.43451 -0.944445 0
M  V30 7297 O 677.938 5.33046 -1.20518 0
M  V30 7298 H 675.032 0.813734 -0.147532 0
M  V30 7299 H 677.578 1.36786 -1.00437 0
M  V30 7300 H 676.35 3.33929 -2.03978 0
M  V30 7301 H 675.973 3.95181 -0.437878 0
M  V30 7302 N 676.97 0.677563 1.42291 0
M  V30 7303 C 678.216 0.209962 2.02313 0
M  V30 7304 C 678.571 -1.1714 1.52631 0
M  V30 7305 O 677.864 -1.7756 0.719938 0
M  V30 7306 C 678.058 0.187229 3.56909 0
M  V30 7307 C 677.887 1.56484 4.21595 0
M  V30 7308 C 676.657 2.16329 4.56651 0
M  V30 7309 C 678.855 2.50805 4.49 0
M  V30 7310 N 676.837 3.46842 5.06531 0
M  V30 7311 C 678.208 3.65976 5.00461 0
M  V30 7312 C 680.263 2.493 4.30992 0
M  V30 7313 C 678.966 4.79899 5.35807 0
M  V30 7314 C 680.992 3.62322 4.67415 0
M  V30 7315 C 680.354 4.76221 5.19031 0
M  V30 7316 H 676.453 0.121815 0.772454 0
M  V30 7317 H 679.037 0.891148 1.73109 0
M  V30 7318 H 677.208 -0.46338 3.85626 0
M  V30 7319 H 678.94 -0.293512 4.03634 0
M  V30 7320 H 675.695 1.6879 4.42501 0
M  V30 7321 H 676.119 4.13694 5.35898 0
M  V30 7322 H 680.761 1.62467 3.90339 0
M  V30 7323 H 678.479 5.67406 5.75392 0
M  V30 7324 H 682.065 3.62388 4.55155 0
M  V30 7325 H 680.945 5.62228 5.46689 0
M  V30 7326 N 678.448 -1.51871 0.421078 0
M  V30 7327 C 679.696 -2.01539 -0.150492 0
M  V30 7328 C 680.017 -1.30803 -1.44623 0
M  V30 7329 O 679.287 -0.437568 -1.90951 0
M  V30 7330 H 677.867 -0.744698 -0.0586041 0
M  V30 7331 H 680.529 -1.8668 0.560059 0
M  V30 7332 H 679.625 -3.10264 -0.338068 0
M  V30 7333 N 679.926 -0.151884 -1.56866 0
M  V30 7334 C 681.174 0.497021 -1.95893 0
M  V30 7335 C 681.495 1.65078 -1.03799 0
M  V30 7336 O 680.765 1.95642 -0.10049 0
M  V30 7337 H 679.345 0.186603 -0.723318 0
M  V30 7338 H 682.007 -0.228525 -1.93556 0
M  V30 7339 H 681.103 0.869933 -2.99731 0
M  V30 7340 N 681.404 1.57128 0.121893 0
M  V30 7341 C 682.653 1.83888 0.828748 0
M  V30 7342 C 682.966 0.737087 1.81181 0
M  V30 7343 O 684.172 0.891007 2.56463 0
M  V30 7344 C 682.628 3.26014 1.52455 0
M  V30 7345 C 682.236 4.44195 0.58263 0
M  V30 7346 C 683.98 3.62025 2.21671 0
M  V30 7347 C 681.887 5.77349 1.28149 0
M  V30 7348 H 680.817 0.685856 0.313238 0
M  V30 7349 H 683.468 1.83319 0.0814851 0
M  V30 7350 H 681.85 3.21044 2.31834 0
M  V30 7351 H 683.024 4.60457 -0.177729 0
M  V30 7352 H 681.339 4.164 -0.00241228 0
M  V30 7353 H 683.936 4.58776 2.74643 0
M  V30 7354 H 684.279 2.89315 2.99337 0
M  V30 7355 H 684.812 3.68767 1.49184 0
M  V30 7356 H 681.551 6.53221 0.546189 0
M  V30 7357 H 681.071 5.64978 2.01394 0
M  V30 7358 H 682.75 6.21006 1.81549 0
M  V30 7359 N 682.882 -0.391992 1.52647 0
M  V30 7360 C 684.293 -0.970064 1.5952 0
M  V30 7361 C 684.644 -1.91059 0.446207 0
M  V30 7362 O 683.769 -2.12062 -0.431125 0
M  V30 7363 C 684.364 -1.76614 2.89125 0
M  V30 7364 C 682.923 -2.29396 2.9842 0
M  V30 7365 C 682.07 -1.09864 2.54608 0
M  V30 7366 H 685.021 -0.171638 1.57769 0
M  V30 7367 H 685.042 -2.62511 2.75442 0
M  V30 7368 H 684.554 -1.08135 3.72731 0
M  V30 7369 H 682.655 -3.01196 2.19344 0
M  V30 7370 H 682.768 -2.59088 4.03002 0
M  V30 7371 H 681.132 -1.45777 2.08857 0
M  V30 7372 H 681.915 -0.429249 3.40606 0
M  V30 7373 N 684.36 -1.4356 -0.65026 0
M  V30 7374 C 685.27 -1.514 -1.79207 0
M  V30 7375 C 686.286 -0.400895 -1.69319 0
M  V30 7376 O 687.462 -0.655458 -1.90436 0
M  V30 7377 C 684.527 -1.43737 -3.155 0
M  V30 7378 C 683.588 -2.65743 -3.37163 0
M  V30 7379 C 682.821 -2.58436 -4.66954 0
M  V30 7380 O 683.044 -1.63374 -5.46503 0
M  V30 7381 O 681.978 -3.48984 -4.90402 0
M  V30 7382 H 685.804 -2.47825 -1.75547 0
M  V30 7383 H 683.389 -1.25594 -0.809111 0
M  V30 7384 H 685.271 -1.41916 -3.96784 0
M  V30 7385 H 683.946 -0.504488 -3.19745 0
M  V30 7386 H 682.853 -2.73136 -2.55632 0
M  V30 7387 H 684.186 -3.58014 -3.37768 0
M  V30 7388 N 685.838 0.888903 -1.30139 0
M  V30 7389 C 686.748 2.02705 -1.18101 0
M  V30 7390 C 687.764 1.73702 -0.101809 0
M  V30 7391 O 688.94 1.98906 -0.315984 0
M  V30 7392 C 686.005 3.35616 -0.869651 0
M  V30 7393 C 685.066 3.78067 -2.03381 0
M  V30 7394 C 684.299 5.04635 -1.73721 0
M  V30 7395 O 684.522 5.66531 -0.663267 0
M  V30 7396 O 683.456 5.43399 -2.58845 0
M  V30 7397 H 687.282 2.15788 -2.13704 0
M  V30 7398 H 684.867 1.01426 -1.09695 0
M  V30 7399 H 686.749 4.15358 -0.711043 0
M  V30 7400 H 685.424 3.23651 0.0565002 0
M  V30 7401 H 684.331 2.99046 -2.24772 0
M  V30 7402 H 685.664 3.94631 -2.94155 0
M  V30 7403 N 687.317 1.12792 1.10072 0
M  V30 7404 C 688.563 0.886857 1.82381 0
M  V30 7405 C 688.896 -0.58576 1.85155 0
M  V30 7406 O 688.171 -1.43317 1.31493 0
M  V30 7407 C 688.454 1.46703 3.28862 0
M  V30 7408 C 688.307 3.00829 3.34398 0
M  V30 7409 C 689.626 1.12971 4.25353 0
M  V30 7410 H 686.745 0.32362 0.662148 0
M  V30 7411 H 689.387 1.39513 1.28982 0
M  V30 7412 H 687.537 1.03476 3.74466 0
M  V30 7413 H 689.209 3.52764 2.97247 0
M  V30 7414 H 687.452 3.36164 2.74183 0
M  V30 7415 H 688.123 3.36519 4.3756 0
M  V30 7416 H 690.599 1.50313 3.88001 0
M  V30 7417 H 689.475 1.56223 5.26199 0
M  V30 7418 H 689.736 0.0424452 4.4208 0
M  V30 7419 N 688.795 -1.27931 0.920396 0
M  V30 7420 C 690.02 -1.99343 0.572478 0
M  V30 7421 C 690.445 -1.68267 -0.840696 0
M  V30 7422 O 689.803 -0.918805 -1.56294 0
M  V30 7423 C 689.851 -3.51698 0.796284 0
M  V30 7424 O 688.955 -4.12157 -0.141602 0
M  V30 7425 H 688.296 -0.626065 0.221221 0
M  V30 7426 H 690.826 -1.62921 1.23765 0
M  V30 7427 H 690.836 -4.01793 0.708984 0
M  V30 7428 H 689.511 -3.73649 1.82644 0
M  V30 7429 H 688.088 -3.729 -0.005007 0
M  V30 7430 N 690.273 -0.685099 -1.4193 0
M  V30 7431 C 691.521 -0.21124 -2.00993 0
M  V30 7432 C 691.842 1.18985 -1.54491 0
M  V30 7433 O 691.112 1.8009 -0.771 0
M  V30 7434 H 689.692 -0.0751059 -0.743215 0
M  V30 7435 H 692.354 -0.883915 -1.73704 0
M  V30 7436 H 691.45 -0.220513 -3.1132 0
M  V30 7437 N 691.751 1.51645 -0.429126 0
M  V30 7438 C 692.714 2.26116 0.374726 0
M  V30 7439 C 693.714 1.29242 0.956714 0
M  V30 7440 O 694.904 1.53022 0.832452 0
M  V30 7441 C 692.036 3.04669 1.52937 0
M  V30 7442 H 693.229 2.9861 -0.277818 0
M  V30 7443 H 690.782 1.55236 -0.182097 0
M  V30 7444 H 691.517 2.36571 2.21821 0
M  V30 7445 H 691.302 3.75814 1.11833 0
M  V30 7446 H 692.792 3.61102 2.09751 0
M  V30 7447 N 693.229 0.160201 1.56784 0
M  V30 7448 C 694.159 -0.770264 2.2043 0
M  V30 7449 C 695.14 -1.24736 1.15651 0
M  V30 7450 O 696.325 -1.30253 1.44041 0
M  V30 7451 C 693.455 -2.00427 2.83631 0
M  V30 7452 C 692.409 -1.66345 3.94352 0
M  V30 7453 C 691.735 -2.97119 4.4455 0
M  V30 7454 C 693.035 -0.899972 5.14488 0
M  V30 7455 H 694.729 -0.239783 2.98438 0
M  V30 7456 H 692.275 -0.113891 1.43549 0
M  V30 7457 H 694.228 -2.66012 3.26827 0
M  V30 7458 H 692.952 -2.5587 2.02973 0
M  V30 7459 H 691.611 -1.03133 3.51794 0
M  V30 7460 H 691.259 -3.5058 3.60698 0
M  V30 7461 H 690.959 -2.75073 5.19238 0
M  V30 7462 H 692.483 -3.63753 4.90425 0
M  V30 7463 H 693.897 -1.45818 5.54446 0
M  V30 7464 H 692.294 -0.778968 5.95023 0
M  V30 7465 H 693.364 0.105827 4.84785 0
M  V30 7466 N 694.707 -1.5719 -0.113559 0
M  V30 7467 C 696.118 -1.74259 -0.670116 0
M  V30 7468 C 696.469 -0.779694 -1.80042 0
M  V30 7469 O 695.594 0.0461353 -2.16351 0
M  V30 7470 C 696.189 -3.15981 -1.22236 0
M  V30 7471 C 694.748 -3.34537 -1.72516 0
M  V30 7472 C 693.895 -2.70116 -0.627098 0
M  V30 7473 H 696.846 -1.58301 0.112396 0
M  V30 7474 H 696.867 -3.17832 -2.09197 0
M  V30 7475 H 696.379 -3.86038 -0.39949 0
M  V30 7476 H 694.48 -2.6953 -2.57263 0
M  V30 7477 H 694.593 -4.42737 -1.83086 0
M  V30 7478 H 692.957 -2.31501 -1.06204 0
M  V30 7479 H 693.74 -3.42802 0.184889 0
M  V30 7480 N 696.185 0.383891 -1.52853 0
M  V30 7481 C 697.601 0.724316 -1.42218 0
M  V30 7482 C 697.801 1.93943 -0.546654 0
M  V30 7483 O 696.857 2.5249 -0.0220562 0
M  V30 7484 C 698.17 0.954635 -2.85144 0
M  V30 7485 C 699.718 1.05579 -2.94656 0
M  V30 7486 C 700.193 1.3187 -4.38605 0
M  V30 7487 N 701.684 1.38681 -4.41952 0
M  V30 7488 C 702.419 1.60699 -5.50421 0
M  V30 7489 N 701.915 1.80154 -6.68967 0
M  V30 7490 N 703.708 1.6292 -5.37972 0
M  V30 7491 H 695.859 -0.4156 -2.08294 0
M  V30 7492 H 698.122 -0.123776 -0.939885 0
M  V30 7493 H 697.828 0.133829 -3.51445 0
M  V30 7494 H 697.702 1.86788 -3.27704 0
M  V30 7495 H 700.089 1.86716 -2.2852 0
M  V30 7496 H 700.17 0.120338 -2.55517 0
M  V30 7497 H 699.814 0.512416 -5.05309 0
M  V30 7498 H 699.744 2.26708 -4.75301 0
M  V30 7499 H 702.235 1.25334 -3.56511 0
M  V30 7500 H 702.548 1.96476 -7.47407 0
M  V30 7501 H 700.893 1.77368 -6.71986 0
M  V30 7502 H 704.084 1.47276 -4.44328 0
M  V30 7503 H 704.257 1.79739 -6.22574 0
M  V30 7504 N 697.663 1.43903 0.642637 0
M  V30 7505 C 699.074 1.40975 1.22404 0
M  V30 7506 C 699.425 0.1192 1.95838 0
M  V30 7507 O 698.55 -0.780939 2.01818 0
M  V30 7508 C 699.145 2.5538 2.22636 0
M  V30 7509 C 697.704 2.55684 2.76229 0
M  V30 7510 C 696.851 2.32556 1.51039 0
M  V30 7511 H 699.802 1.5265 0.434006 0
M  V30 7512 H 699.823 2.27474 3.05017 0
M  V30 7513 H 699.335 3.49294 1.69161 0
M  V30 7514 H 697.436 1.65679 3.33738 0
M  V30 7515 H 697.549 3.53799 3.23053 0
M  V30 7516 H 695.913 1.81427 1.78764 0
M  V30 7517 H 696.696 3.28569 0.99484 0
M  V30 7518 N 699.141 -0.881989 1.30609 0
M  V30 7519 C 700.418 -1.61563 1.10258 0
M  V30 7520 C 700.798 -2.08228 -0.347053 0
M  V30 7521 O 700.146 -1.85151 -1.33908 0
M  V30 7522 C 700.356 -2.78287 2.10612 0
M  V30 7523 C 701.704 -3.48545 2.4249 0
M  V30 7524 O 702.728 -2.88479 2.08945 0
M  V30 7525 O 701.587 -4.56873 2.99883 0
M  V30 7526 H 698.681 -0.710238 0.423663 0
M  V30 7527 H 701.227 -0.928503 1.42045 0
M  V30 7528 H 699.999 -2.41131 3.08174 0
M  V30 7529 H 699.622 -3.54695 1.79659 0
M  V30 7530 N 700.619 -1.13374 -1.09472 0
M  V30 7531 C 701.867 -0.893422 -1.8128 0
M  V30 7532 C 702.188 0.582029 -1.86111 0
M  V30 7533 O 701.458 1.42305 -1.34633 0
M  V30 7534 H 700.038 -0.327543 -0.67136 0
M  V30 7535 H 702.7 -1.43018 -1.32408 0
M  V30 7536 H 701.796 -1.28374 -2.84476 0
M  V30 7537 N 702.098 1.27442 -0.927168 0
M  V30 7538 C 703.323 1.99036 -0.583042 0
M  V30 7539 C 703.748 1.68711 0.83176 0
M  V30 7540 O 703.106 0.927081 1.55804 0
M  V30 7541 C 703.154 3.51271 -0.814925 0
M  V30 7542 O 702.258 4.12226 0.119742 0
M  V30 7543 H 701.599 0.624883 -0.224538 0
M  V30 7544 H 704.129 1.62263 -1.24628 0
M  V30 7545 H 704.139 4.01411 -0.730282 0
M  V30 7546 H 702.814 3.72676 -1.84623 0
M  V30 7547 H 701.391 3.72897 -0.0147688 0
M  V30 7548 N 703.576 0.692616 1.41565 0
M  V30 7549 C 704.825 0.219452 2.00503 0
M  V30 7550 C 705.138 -1.18683 1.55479 0
M  V30 7551 O 706.344 -1.75731 2.06956 0
M  V30 7552 C 704.8 0.341451 3.58277 0
M  V30 7553 C 704.408 1.75291 4.12283 0
M  V30 7554 C 706.152 -0.0720899 4.24439 0
M  V30 7555 C 704.059 1.82673 5.62481 0
M  V30 7556 H 702.989 0.0782874 0.749925 0
M  V30 7557 H 705.64 0.860386 1.62079 0
M  V30 7558 H 704.022 -0.367683 3.94289 0
M  V30 7559 H 705.196 2.49057 3.87695 0
M  V30 7560 H 703.511 2.11587 3.58636 0
M  V30 7561 H 706.108 -0.0373385 5.34687 0
M  V30 7562 H 706.451 -1.11034 4.0122 0
M  V30 7563 H 706.984 0.586663 3.9345 0
M  V30 7564 H 703.723 2.84539 5.90523 0
M  V30 7565 H 703.243 1.13288 5.89004 0
M  V30 7566 H 704.922 1.58827 6.27203 0
M  V30 7567 N 705.054 -1.51416 0.437162 0
M  V30 7568 C 706.303 -2.01275 -0.130865 0
M  V30 7569 C 706.616 -1.32593 -1.438 0
M  V30 7570 O 707.822 -1.7342 -2.08897 0
M  V30 7571 C 706.278 -3.5878 -0.283763 0
M  V30 7572 C 705.886 -4.36399 1.01293 0
M  V30 7573 C 707.63 -4.16786 -0.805569 0
M  V30 7574 C 705.537 -5.85608 0.825687 0
M  V30 7575 H 704.467 -0.752157 -0.0526818 0
M  V30 7576 H 707.118 -1.74524 0.566896 0
M  V30 7577 H 705.5 -3.81976 -1.04452 0
M  V30 7578 H 706.674 -4.24948 1.78201 0
M  V30 7579 H 704.989 -3.89843 1.46326 0
M  V30 7580 H 707.586 -5.25972 -0.962146 0
M  V30 7581 H 707.929 -3.75949 -1.78796 0
M  V30 7582 H 708.462 -3.97666 -0.103125 0
M  V30 7583 H 705.201 -6.30857 1.78045 0
M  V30 7584 H 704.721 -5.99723 0.0964029 0
M  V30 7585 H 706.4 -6.45226 0.478815 0
M  V30 7586 N 706.532 -0.168513 -1.56696 0
M  V30 7587 C 707.779 0.477158 -1.96798 0
M  V30 7588 C 708.107 1.63442 -1.05437 0
M  V30 7589 O 707.362 1.95503 -0.0878903 0
M  V30 7590 C 707.661 1.00441 -3.42996 0
M  V30 7591 C 707.327 -0.0366556 -4.50885 0
M  V30 7592 C 705.989 -0.322785 -4.80116 0
M  V30 7593 C 708.341 -0.743447 -5.1587 0
M  V30 7594 C 705.669 -1.32114 -5.71632 0
M  V30 7595 C 708.021 -1.73077 -6.08463 0
M  V30 7596 C 706.685 -2.02437 -6.36062 0
M  V30 7597 H 705.955 0.174604 -0.720135 0
M  V30 7598 H 708.602 -0.259884 -1.89728 0
M  V30 7599 H 706.907 1.81922 -3.47004 0
M  V30 7600 H 708.604 1.51294 -3.71364 0
M  V30 7601 H 705.194 0.196532 -4.28149 0
M  V30 7602 H 709.378 -0.535602 -4.93401 0
M  V30 7603 H 704.634 -1.55482 -5.913 0
M  V30 7604 H 708.808 -2.28382 -6.57886 0
M  V30 7605 H 706.435 -2.79946 -7.06777 0
M  V30 7606 N 708.01 1.57248 0.105221 0
M  V30 7607 C 709.257 1.8557 0.810552 0
M  V30 7608 C 709.585 0.755595 1.79223 0
M  V30 7609 O 708.84 -0.251788 1.94073 0
M  V30 7610 C 709.139 3.20437 1.58287 0
M  V30 7611 C 708.805 4.44716 0.744235 0
M  V30 7612 C 707.467 4.78458 0.513013 0
M  V30 7613 C 709.819 5.20953 0.160578 0
M  V30 7614 C 707.147 5.8587 -0.311894 0
M  V30 7615 C 709.499 6.29235 -0.651596 0
M  V30 7616 C 708.163 6.615 -0.893005 0
M  V30 7617 H 707.433 0.67905 0.296602 0
M  V30 7618 H 710.08 1.91363 0.0723968 0
M  V30 7619 H 708.385 3.10283 2.39232 0
M  V30 7620 H 710.082 3.39576 2.13282 0
M  V30 7621 H 706.672 4.18287 0.934555 0
M  V30 7622 H 710.856 4.95226 0.3264 0
M  V30 7623 H 706.112 6.09286 -0.508012 0
M  V30 7624 H 710.286 6.87484 -1.11077 0
M  V30 7625 H 707.913 7.44562 -1.53401 0
M  V30 7626 N 709.488 -0.375779 1.53054 0
M  V30 7627 C 710.904 -0.716764 1.426 0
M  V30 7628 C 711.104 -1.93651 0.556931 0
M  V30 7629 O 710.16 -2.52475 0.0354461 0
M  V30 7630 C 711.473 -0.939499 2.85646 0
M  V30 7631 C 713.021 -1.04015 2.95212 0
M  V30 7632 C 713.496 -1.29543 4.39298 0
M  V30 7633 N 714.987 -1.36335 4.42682 0
M  V30 7634 C 715.722 -1.57778 5.51266 0
M  V30 7635 N 715.218 -1.76604 6.69913 0
M  V30 7636 N 717.011 -1.60065 5.38828 0
M  V30 7637 H 709.162 0.42664 2.08071 0
M  V30 7638 H 711.425 0.128758 0.939215 0
M  V30 7639 H 711.131 -0.115189 3.51511 0
M  V30 7640 H 711.005 -1.85048 3.2869 0
M  V30 7641 H 713.392 -1.85501 2.29507 0
M  V30 7642 H 713.473 -0.106785 2.55577 0
M  V30 7643 H 713.117 -0.485611 5.05573 0
M  V30 7644 H 713.047 -2.24184 4.76497 0
M  V30 7645 H 715.538 -1.23441 3.5717 0
M  V30 7646 H 715.851 -1.9251 7.48438 0
M  V30 7647 H 714.196 -1.73802 6.72917 0
M  V30 7648 H 717.387 -1.44917 4.45103 0
M  V30 7649 H 717.56 -1.76435 6.23518 0
M  V30 7650 N 710.966 -1.44241 -0.634997 0
M  V30 7651 C 712.243 -1.37296 -1.39317 0
M  V30 7652 C 712.623 -0.0297532 -2.11079 0
M  V30 7653 O 711.971 0.987524 -2.06059 0
M  V30 7654 C 712.181 -2.56853 -2.36279 0
M  V30 7655 C 713.529 -3.00747 -2.99728 0
M  V30 7656 O 714.553 -2.5703 -2.46605 0
M  V30 7657 O 713.412 -3.76533 -3.96087 0
M  V30 7658 H 710.506 -0.543503 -0.623325 0
M  V30 7659 H 713.052 -1.56324 -0.660376 0
M  V30 7660 H 711.824 -3.46228 -1.82324 0
M  V30 7661 H 711.447 -2.40019 -3.16981 0
M  V30 7662 N 712.444 0.87505 -1.31075 0
M  V30 7663 C 713.721 1.60976 -1.11113 0
M  V30 7664 C 714.101 2.08409 0.336006 0
M  V30 7665 O 713.449 1.85858 1.32924 0
M  V30 7666 C 713.659 2.77166 -2.12085 0
M  V30 7667 C 715.007 3.47254 -2.44335 0
M  V30 7668 O 716.031 2.87367 -2.10472 0
M  V30 7669 O 714.89 4.55276 -3.02301 0
M  V30 7670 H 711.984 0.707982 -0.427424 0
M  V30 7671 H 714.53 0.920957 -1.42536 0
M  V30 7672 H 713.302 2.39494 -3.09449 0
M  V30 7673 H 712.925 3.53737 -1.81538 0
M  V30 7674 N 713.922 1.13953 1.08869 0
M  V30 7675 C 715.338 0.878924 1.33218 0
M  V30 7676 C 715.538 -0.482478 1.95638 0
M  V30 7677 O 714.594 -1.22778 2.2064 0
M  V30 7678 C 715.907 2.00798 2.23832 0
M  V30 7679 C 717.455 2.04073 2.37325 0
M  V30 7680 C 717.93 3.16258 3.31278 0
M  V30 7681 N 719.421 3.15805 3.38853 0
M  V30 7682 C 720.156 3.99249 4.11567 0
M  V30 7683 N 719.652 4.92721 4.87029 0
M  V30 7684 N 721.445 3.87327 4.0735 0
M  V30 7685 H 713.596 2.01645 0.66731 0
M  V30 7686 H 715.859 0.878395 0.356547 0
M  V30 7687 H 715.565 2.98986 1.85203 0
M  V30 7688 H 715.439 1.92704 3.24261 0
M  V30 7689 H 717.826 1.06495 2.75214 0
M  V30 7690 H 717.907 2.16239 1.36654 0
M  V30 7691 H 717.551 4.14079 2.9411 0
M  V30 7692 H 717.481 3.0133 4.31866 0
M  V30 7693 H 719.972 2.48102 2.8505 0
M  V30 7694 H 720.285 5.52867 5.39961 0
M  V30 7695 H 718.63 4.96723 4.86098 0
M  V30 7696 H 721.821 3.13627 3.475 0
M  V30 7697 H 721.994 4.52585 4.63757 0
M  V30 7698 N 715.4 -1.26948 0.933913 0
M  V30 7699 C 716.63 -1.97898 0.593279 0
M  V30 7700 C 717.038 -1.69806 -0.834412 0
M  V30 7701 O 716.381 -0.958704 -1.56699 0
M  V30 7702 C 716.443 -3.51657 0.746825 0
M  V30 7703 C 716.107 -4.03384 2.14779 0
M  V30 7704 C 717.104 -4.15682 3.12257 0
M  V30 7705 C 714.789 -4.37577 2.46641 0
M  V30 7706 C 716.783 -4.61455 4.39702 0
M  V30 7707 C 714.47 -4.8304 3.7432 0
M  V30 7708 C 715.468 -4.94939 4.70664 0
M  V30 7709 O 715.156 -5.39403 5.96071 0
M  V30 7710 H 714.888 -0.63814 0.223055 0
M  V30 7711 H 717.442 -1.62608 1.2549 0
M  V30 7712 H 715.672 -3.8669 0.0280889 0
M  V30 7713 H 717.361 -4.03821 0.410328 0
M  V30 7714 H 718.127 -3.89519 2.88964 0
M  V30 7715 H 714.006 -4.27554 1.72391 0
M  V30 7716 H 717.55 -4.70658 5.14905 0
M  V30 7717 H 713.447 -5.08646 3.97429 0
M  V30 7718 H 714.215 -5.57641 5.99148 0
M  V30 7719 N 716.879 -0.700114 -1.41195 0
M  V30 7720 C 718.125 -0.242122 -2.01954 0
M  V30 7721 C 718.48 1.14697 -1.54475 0
M  V30 7722 O 717.773 1.76392 -0.748095 0
M  V30 7723 C 717.967 -0.243986 -3.56566 0
M  V30 7724 C 717.796 -1.63172 -4.19053 0
M  V30 7725 C 716.566 -2.23566 -4.53152 0
M  V30 7726 C 718.764 -2.57916 -4.44954 0
M  V30 7727 N 716.746 -3.54856 -5.00949 0
M  V30 7728 C 718.117 -3.73892 -4.94576 0
M  V30 7729 C 720.172 -2.56125 -4.26971 0
M  V30 7730 C 718.875 -4.88363 -5.28104 0
M  V30 7731 C 720.901 -3.69712 -4.61592 0
M  V30 7732 C 720.263 -4.84418 -5.11389 0
M  V30 7733 H 716.362 -0.134088 -0.770418 0
M  V30 7734 H 718.946 -0.918576 -1.71669 0
M  V30 7735 H 717.117 0.401971 -3.86314 0
M  V30 7736 H 718.849 0.229261 -4.0405 0
M  V30 7737 H 715.604 -1.75809 -4.39759 0
M  V30 7738 H 716.028 -4.22167 -5.29249 0
M  V30 7739 H 720.67 -1.68656 -3.87705 0
M  V30 7740 H 718.388 -5.76488 -5.66292 0
M  V30 7741 H 721.974 -3.69583 -4.49332 0
M  V30 7742 H 720.854 -5.70855 -5.37675 0
M  V30 7743 N 718.357 1.51182 -0.445186 0
M  V30 7744 C 719.773 1.59299 -0.0978954 0
M  V30 7745 C 719.973 1.4555 1.39346 0
M  V30 7746 O 719.029 1.30073 2.16419 0
M  V30 7747 C 720.342 2.94133 -0.625005 0
M  V30 7748 C 721.89 3.07463 -0.586137 0
M  V30 7749 C 722.365 4.44832 -1.09035 0
M  V30 7750 N 723.856 4.51173 -1.04867 0
M  V30 7751 C 724.591 5.55804 -1.40959 0
M  V30 7752 N 724.087 6.67816 -1.84375 0
M  V30 7753 N 725.88 5.46205 -1.32726 0
M  V30 7754 H 718.031 1.58363 -1.41544 0
M  V30 7755 H 720.294 0.746946 -0.58376 0
M  V30 7756 H 720 3.09589 -1.66876 0
M  V30 7757 H 719.874 3.77161 -0.0542262 0
M  V30 7758 H 722.261 2.9167 0.448646 0
M  V30 7759 H 722.342 2.26255 -1.19341 0
M  V30 7760 H 721.986 4.61372 -2.12364 0
M  V30 7761 H 721.916 5.24591 -0.459539 0
M  V30 7762 H 724.407 3.70783 -0.729932 0
M  V30 7763 H 724.72 7.43683 -2.10131 0
M  V30 7764 H 723.065 6.69003 -1.88308 0
M  V30 7765 H 726.256 4.57583 -0.986678 0
M  V30 7766 H 726.429 6.27634 -1.61182 0
M  V30 7767 N 719.835 0.176821 1.56605 0
M  V30 7768 C 720.765 -0.746841 2.21234 0
M  V30 7769 C 721.746 -1.23502 1.16967 0
M  V30 7770 O 722.931 -1.28718 1.45414 0
M  V30 7771 C 720.061 -1.97407 2.8574 0
M  V30 7772 C 719.015 -1.62153 3.96094 0
M  V30 7773 C 718.341 -2.92387 4.47676 0
M  V30 7774 C 719.641 -0.845353 5.15413 0
M  V30 7775 H 721.335 -0.208116 2.98676 0
M  V30 7776 H 718.881 -0.0986594 1.43662 0
M  V30 7777 H 720.834 -2.62531 3.2963 0
M  V30 7778 H 719.558 -2.53703 2.05676 0
M  V30 7779 H 718.217 -0.993964 3.52868 0
M  V30 7780 H 717.865 -3.46734 3.64396 0
M  V30 7781 H 717.565 -2.69551 5.22127 0
M  V30 7782 H 719.089 -3.5853 4.94255 0
M  V30 7783 H 720.503 -1.39929 5.55961 0
M  V30 7784 H 718.9 -0.715814 5.95815 0
M  V30 7785 H 719.97 0.157239 4.84645 0
M  V30 7786 N 721.313 -1.57302 -0.09688 0
M  V30 7787 C 722.59 -1.7701 -0.832272 0
M  V30 7788 C 722.97 -0.758025 -1.97021 0
M  V30 7789 O 722.318 0.213824 -2.27497 0
M  V30 7790 C 722.528 -3.22725 -1.32851 0
M  V30 7791 C 723.876 -3.85856 -1.772 0
M  V30 7792 O 724.9 -3.26464 -1.42478 0
M  V30 7793 O 723.759 -4.90295 -2.41398 0
M  V30 7794 H 720.853 -0.725558 -0.396856 0
M  V30 7795 H 723.399 -1.69516 -0.0789005 0
M  V30 7796 H 722.171 -3.87921 -0.51312 0
M  V30 7797 H 721.794 -3.34845 -2.14394 0
M  V30 7798 N 722.791 0.367657 -1.53252 0
M  V30 7799 C 723.723 1.47032 -1.75824 0
M  V30 7800 C 724.736 1.49736 -0.63898 0
M  V30 7801 O 725.925 1.53253 -0.915193 0
M  V30 7802 C 723.025 2.85805 -1.82122 0
M  V30 7803 C 722.198 3.06822 -3.11736 0
M  V30 7804 C 721.257 4.25698 -3.09302 0
M  V30 7805 O 720.283 4.20972 -3.83107 0
M  V30 7806 N 721.485 5.33002 -2.29977 0
M  V30 7807 H 724.25 1.28048 -2.70968 0
M  V30 7808 H 721.811 0.557363 -1.52004 0
M  V30 7809 H 723.803 3.63465 -1.77975 0
M  V30 7810 H 722.373 2.98046 -0.942716 0
M  V30 7811 H 721.593 2.1684 -3.29202 0
M  V30 7812 H 722.881 3.17731 -3.97397 0
M  V30 7813 H 722.279 5.39703 -1.69521 0
M  V30 7814 H 720.836 6.09247 -2.3165 0
M  V30 7815 N 724.269 1.44576 0.627338 0
M  V30 7816 C 725.232 1.51372 1.72102 0
M  V30 7817 C 726.232 0.395329 1.55865 0
M  V30 7818 O 727.422 0.658094 1.61291 0
M  V30 7819 C 724.554 1.39129 3.11217 0
M  V30 7820 H 725.747 2.48798 1.6745 0
M  V30 7821 H 723.3 1.31724 0.841336 0
M  V30 7822 H 724.035 0.428114 3.21462 0
M  V30 7823 H 723.82 2.20229 3.24409 0
M  V30 7824 H 725.31 1.46874 3.90919 0
M  V30 7825 N 725.747 -0.868086 1.31537 0
M  V30 7826 C 726.694 -1.97548 1.19346 0
M  V30 7827 C 727.664 -1.65913 0.0787922 0
M  V30 7828 O 728.849 -1.89129 0.251985 0
M  V30 7829 C 725.989 -3.32922 0.908692 0
M  V30 7830 C 725.102 -3.77141 2.10687 0
M  V30 7831 C 724.237 -5.01241 1.75873 0
M  V30 7832 C 723.276 -5.37914 2.92088 0
M  V30 7833 N 722.413 -6.53192 2.57457 0
M  V30 7834 H 727.253 -2.07307 2.14074 0
M  V30 7835 H 724.79 -1.01483 1.06487 0
M  V30 7836 H 726.748 -4.10867 0.724138 0
M  V30 7837 H 725.378 -3.228 -0.0017611 0
M  V30 7838 H 724.43 -2.94961 2.40213 0
M  V30 7839 H 725.742 -4.00248 2.97663 0
M  V30 7840 H 724.896 -5.86858 1.53891 0
M  V30 7841 H 723.635 -4.80041 0.86091 0
M  V30 7842 H 722.64 -4.50814 3.14717 0
M  V30 7843 H 723.865 -5.61077 3.82582 0
M  V30 7844 H 721.811 -6.33536 1.702 0
M  V30 7845 H 721.728 -6.76252 3.37963 0
M  V30 7846 H 722.996 -7.41997 2.38873 0
M  V30 7847 N 727.225 -1.14528 -1.08264 0
M  V30 7848 C 728.155 -0.856356 -2.1723 0
M  V30 7849 C 729.136 0.189251 -1.69044 0
M  V30 7850 O 730.321 0.0456119 -1.94146 0
M  V30 7851 C 727.451 -0.334662 -3.45684 0
M  V30 7852 C 726.405 -1.31588 -4.0727 0
M  V30 7853 C 725.731 -0.653428 -5.30692 0
M  V30 7854 C 727.031 -2.67866 -4.48381 0
M  V30 7855 H 728.725 -1.76755 -2.41657 0
M  V30 7856 H 726.271 -0.851287 -1.16143 0
M  V30 7857 H 728.224 -0.120128 -4.21229 0
M  V30 7858 H 726.948 0.611967 -3.20815 0
M  V30 7859 H 725.607 -1.51661 -3.33758 0
M  V30 7860 H 725.255 0.299054 -5.0211 0
M  V30 7861 H 724.955 -1.30817 -5.72853 0
M  V30 7862 H 726.479 -0.448453 -6.08951 0
M  V30 7863 H 727.893 -2.51692 -5.15096 0
M  V30 7864 H 726.29 -3.29627 -5.01464 0
M  V30 7865 H 727.36 -3.24632 -3.60198 0
M  V30 7866 N 728.703 1.26451 -0.940633 0
M  V30 7867 C 729.635 2.25556 -0.407104 0
M  V30 7868 C 730.648 1.55888 0.469324 0
M  V30 7869 O 731.837 1.76292 0.279858 0
M  V30 7870 C 728.937 3.36109 0.434064 0
M  V30 7871 C 728.11 4.3532 -0.426082 0
M  V30 7872 C 727.169 5.25004 0.354563 0
M  V30 7873 O 726.195 5.68684 -0.242219 0
M  V30 7874 N 727.397 5.5652 1.65123 0
M  V30 7875 H 730.162 2.7197 -1.25907 0
M  V30 7876 H 727.723 1.40212 -0.809456 0
M  V30 7877 H 729.715 3.93059 0.963684 0
M  V30 7878 H 728.285 2.89194 1.18683 0
M  V30 7879 H 727.505 3.77449 -1.13692 0
M  V30 7880 H 728.793 4.986 -1.01366 0
M  V30 7881 H 728.191 5.22912 2.15822 0
M  V30 7882 H 726.748 6.16115 2.12711 0
M  V30 7883 N 730.181 0.707592 1.40822 0
M  V30 7884 C 731.144 0.0587224 2.29125 0
M  V30 7885 C 732.144 -0.695624 1.44975 0
M  V30 7886 O 733.334 -0.528718 1.65983 0
M  V30 7887 C 730.466 -0.926939 3.28056 0
M  V30 7888 H 731.659 0.836349 2.88002 0
M  V30 7889 H 729.212 0.471778 1.4901 0
M  V30 7890 H 729.947 -1.7319 2.74182 0
M  V30 7891 H 729.732 -0.389015 3.90165 0
M  V30 7892 H 731.222 -1.37837 3.94196 0
M  V30 7893 N 731.66 -1.50943 0.453197 0
M  V30 7894 C 732.888 -2.06628 -0.106135 0
M  V30 7895 C 733.303 -1.31901 -1.35084 0
M  V30 7896 O 732.66 -0.383074 -1.78434 0
M  V30 7897 C 732.711 -3.5914 -0.412368 0
M  V30 7898 O 732.432 -4.31047 0.782948 0
M  V30 7899 C 733.933 -4.31391 -1.02064 0
M  V30 7900 H 731.153 -0.670999 -0.000885896 0
M  V30 7901 H 733.697 -1.94331 0.63684 0
M  V30 7902 H 731.852 -3.71299 -1.10526 0
M  V30 7903 H 732.266 -5.21948 0.516736 0
M  V30 7904 H 733.74 -5.39135 -1.1848 0
M  V30 7905 H 734.217 -3.90714 -2.00598 0
M  V30 7906 H 734.823 -4.23716 -0.366664 0
M  V30 7907 N 733.138 -0.185124 -1.56509 0
M  V30 7908 C 734.366 0.462139 -2.01673 0
M  V30 7909 C 734.781 1.55873 -1.06532 0
M  V30 7910 O 734.138 1.82371 -0.0684805 0
M  V30 7911 C 734.189 1.0277 -3.46584 0
M  V30 7912 O 733.91 -0.0251296 -4.38093 0
M  V30 7913 C 735.411 1.75183 -4.07217 0
M  V30 7914 H 732.631 0.117001 -0.660721 0
M  V30 7915 H 735.175 -0.290905 -2.0242 0
M  V30 7916 H 733.33 1.73118 -3.46568 0
M  V30 7917 H 733.744 0.394387 -5.23015 0
M  V30 7918 H 735.218 2.09999 -5.10494 0
M  V30 7919 H 735.695 2.6519 -3.50101 0
M  V30 7920 H 736.301 1.09445 -4.10977 0
M  V30 7921 N 734.616 1.57351 0.0885366 0
M  V30 7922 C 735.841 1.91011 0.80805 0
M  V30 7923 C 736.266 0.780009 1.71165 0
M  V30 7924 O 735.624 -0.268083 1.79307 0
M  V30 7925 C 735.672 3.23562 1.59185 0
M  V30 7926 O 734.776 3.11615 2.7013 0
M  V30 7927 H 734.117 0.625943 0.221565 0
M  V30 7928 H 736.647 2.04507 0.0617954 0
M  V30 7929 H 736.657 3.5703 1.97468 0
M  V30 7930 H 735.332 4.05398 0.928741 0
M  V30 7931 H 733.909 2.89673 2.34827 0
M  V30 7932 N 736.094 -0.359525 1.53444 0
M  V30 7933 C 737.342 -1.09935 1.69584 0
M  V30 7934 C 737.663 -1.89656 0.453371 0
M  V30 7935 O 736.933 -1.8852 -0.53263 0
M  V30 7936 H 735.513 -0.408843 0.625185 0
M  V30 7937 H 738.175 -0.40467 1.90653 0
M  V30 7938 H 737.271 -1.78575 2.55964 0
M  V30 7939 N 737.572 -1.44907 -0.619662 0
M  V30 7940 C 738.988 -1.29046 -0.939107 0
M  V30 7941 C 739.188 -0.23462 -2.00129 0
M  V30 7942 O 738.244 0.37558 -2.49691 0
M  V30 7943 C 739.557 -2.66567 -1.39149 0
M  V30 7944 C 741.105 -2.74368 -1.50635 0
M  V30 7945 C 741.58 -4.12386 -1.99253 0
M  V30 7946 N 743.071 -4.1462 -2.06506 0
M  V30 7947 C 743.806 -5.18272 -2.4532 0
M  V30 7948 N 743.302 -6.32278 -2.83189 0
M  V30 7949 N 745.095 -5.05628 -2.45554 0
M  V30 7950 H 737.246 -2.12239 0.0826135 0
M  V30 7951 H 739.509 -0.947652 -0.0256829 0
M  V30 7952 H 739.215 -3.4496 -0.685254 0
M  V30 7953 H 739.089 -2.94224 -2.36034 0
M  V30 7954 H 741.476 -1.96287 -2.20353 0
M  V30 7955 H 741.557 -2.50439 -0.520963 0
M  V30 7956 H 741.201 -4.90947 -1.30127 0
M  V30 7957 H 741.131 -4.33699 -2.98684 0
M  V30 7958 H 743.622 -3.32343 -1.79878 0
M  V30 7959 H 743.935 -7.07172 -3.11652 0
M  V30 7960 H 742.28 -6.35699 -2.80913 0
M  V30 7961 H 745.471 -4.15613 -2.15367 0
M  V30 7962 H 745.644 -5.86529 -2.75478 0
M  V30 7963 N 739.05 0.861098 -1.31996 0
M  V30 7964 C 740.296 1.61707 -1.23379 0
M  V30 7965 C 740.651 1.91315 0.204026 0
M  V30 7966 O 739.944 1.53997 1.13998 0
M  V30 7967 C 740.138 2.94822 -2.02027 0
M  V30 7968 C 739.967 2.78212 -3.5331 0
M  V30 7969 C 738.737 2.76933 -4.22654 0
M  V30 7970 C 740.935 2.52432 -4.48088 0
M  V30 7971 N 738.917 2.51466 -5.60034 0
M  V30 7972 C 740.288 2.36312 -5.73198 0
M  V30 7973 C 742.343 2.37848 -4.37416 0
M  V30 7974 C 741.046 2.0709 -6.88844 0
M  V30 7975 C 743.072 2.10016 -5.52854 0
M  V30 7976 C 742.434 1.94691 -6.7696 0
M  V30 7977 H 738.533 0.595703 -0.506618 0
M  V30 7978 H 741.117 1.01275 -1.66287 0
M  V30 7979 H 739.288 3.53243 -1.61474 0
M  V30 7980 H 741.02 3.59756 -1.85358 0
M  V30 7981 H 737.775 2.89638 -3.74709 0
M  V30 7982 H 738.199 2.41679 -6.32392 0
M  V30 7983 H 742.841 2.4842 -3.42122 0
M  V30 7984 H 740.559 1.95256 -7.84156 0
M  V30 7985 H 744.145 1.99519 -5.46519 0
M  V30 7986 H 743.025 1.7346 -7.64775 0
M  V30 7987 N 740.528 1.15101 1.07655 0
M  V30 7988 C 741.491 0.847625 2.12951 0
M  V30 7989 C 742.491 -0.151227 1.60087 0
M  V30 7990 O 743.681 0.0780399 1.74025 0
M  V30 7991 C 740.813 0.265 3.39868 0
M  V30 7992 H 742.006 1.7809 2.41296 0
M  V30 7993 H 739.559 0.958072 1.23494 0
M  V30 7994 H 740.294 -0.676625 3.17163 0
M  V30 7995 H 740.079 0.984554 3.79538 0
M  V30 7996 H 741.569 0.0702121 4.17541 0
M  V30 7997 N 742.006 -1.2595 0.947325 0
M  V30 7998 C 743.234 -1.97544 0.615127 0
M  V30 7999 C 743.649 -1.70484 -0.811221 0
M  V30 8000 O 743.006 -0.97662 -1.5417 0
M  V30 8001 C 743.057 -3.51236 0.855328 0
M  V30 8002 O 742.778 -3.77359 2.22558 0
M  V30 8003 C 744.279 -4.40066 0.534515 0
M  V30 8004 H 741.499 -0.629888 0.231263 0
M  V30 8005 H 744.043 -1.60308 1.26971 0
M  V30 8006 H 742.198 -3.8661 0.247266 0
M  V30 8007 H 742.612 -4.71857 2.29022 0
M  V30 8008 H 744.086 -5.46838 0.753168 0
M  V30 8009 H 744.563 -4.35982 -0.530701 0
M  V30 8010 H 745.169 -4.10245 1.12158 0
M  V30 8011 N 743.484 -0.715051 -1.40445 0
M  V30 8012 C 744.394 -0.0631624 -2.34515 0
M  V30 8013 C 745.41 0.744397 -1.57273 0
M  V30 8014 O 746.586 0.677475 -1.89663 0
M  V30 8015 C 743.651 0.847915 -3.36172 0
M  V30 8016 C 742.712 0.0303655 -4.29289 0
M  V30 8017 C 741.945 0.898051 -5.2609 0
M  V30 8018 O 742.168 2.13729 -5.28844 0
M  V30 8019 O 741.102 0.337328 -6.00954 0
M  V30 8020 H 744.928 -0.839078 -2.91879 0
M  V30 8021 H 742.513 -0.475527 -1.4163 0
M  V30 8022 H 744.395 1.3698 -3.98515 0
M  V30 8023 H 743.07 1.60299 -2.81222 0
M  V30 8024 H 741.977 -0.536573 -3.70232 0
M  V30 8025 H 743.31 -0.686474 -4.87389 0
M  V30 8026 N 744.962 1.50701 -0.461195 0
M  V30 8027 C 745.892 2.31182 0.328184 0
M  V30 8028 C 746.873 1.37644 0.999408 0
M  V30 8029 O 748.058 1.66565 0.99848 0
M  V30 8030 C 745.188 3.17113 1.41621 0
M  V30 8031 C 744.142 4.19124 0.867148 0
M  V30 8032 C 743.468 4.93728 2.05272 0
M  V30 8033 C 744.768 5.22174 -0.114808 0
M  V30 8034 H 746.462 2.97423 -0.343501 0
M  V30 8035 H 744.008 1.43033 -0.166641 0
M  V30 8036 H 745.961 3.72208 1.97584 0
M  V30 8037 H 744.685 2.48739 2.11652 0
M  V30 8038 H 743.344 3.65116 0.329557 0
M  V30 8039 H 742.992 4.21835 2.73978 0
M  V30 8040 H 742.692 5.62724 1.69161 0
M  V30 8041 H 744.216 5.51654 2.61744 0
M  V30 8042 H 745.63 5.72198 0.355316 0
M  V30 8043 H 744.027 5.98833 -0.389689 0
M  V30 8044 H 745.097 4.7353 -1.04391 0
M  V30 8045 N 746.441 0.193421 1.56409 0
M  V30 8046 C 747.852 -0.319471 1.83946 0
M  V30 8047 C 748.203 -1.61505 1.11403 0
M  V30 8048 O 747.328 -2.13139 0.374289 0
M  V30 8049 C 747.923 -0.586411 3.33686 0
M  V30 8050 C 746.482 -1.04368 3.61641 0
M  V30 8051 C 745.629 -0.0913834 2.77149 0
M  V30 8052 H 748.58 0.417242 1.53117 0
M  V30 8053 H 748.601 -1.43591 3.52366 0
M  V30 8054 H 748.113 0.356701 3.86457 0
M  V30 8055 H 746.214 -2.00113 3.14302 0
M  V30 8056 H 746.327 -0.937549 4.69837 0
M  V30 8057 H 744.691 -0.592954 2.47702 0
M  V30 8058 H 745.474 0.846142 3.32709 0
M  V30 8059 N 747.919 -1.57396 -0.0801906 0
M  V30 8060 C 749.165 -1.87979 -0.776884 0
M  V30 8061 C 749.52 -0.786098 -1.75608 0
M  V30 8062 O 748.813 0.210541 -1.9044 0
M  V30 8063 C 749.007 -3.22915 -1.53169 0
M  V30 8064 C 748.836 -4.45306 -0.627099 0
M  V30 8065 C 747.606 -5.04593 -0.267201 0
M  V30 8066 C 749.804 -5.14249 0.0724916 0
M  V30 8067 N 747.786 -6.10513 0.643995 0
M  V30 8068 C 749.157 -6.14267 0.841191 0
M  V30 8069 C 751.212 -4.97689 0.144847 0
M  V30 8070 C 749.915 -6.99514 1.67551 0
M  V30 8071 C 751.941 -5.83455 0.966112 0
M  V30 8072 C 751.303 -6.83005 1.72288 0
M  V30 8073 H 747.402 -0.737519 -0.259979 0
M  V30 8074 H 749.986 -1.94661 -0.0387512 0
M  V30 8075 H 748.157 -3.17256 -2.2406 0
M  V30 8076 H 749.889 -3.41174 -2.17675 0
M  V30 8077 H 746.644 -4.69548 -0.618194 0
M  V30 8078 H 747.068 -6.68125 1.09259 0
M  V30 8079 H 751.71 -4.20649 -0.4259 0
M  V30 8080 H 749.428 -7.75934 2.25726 0
M  V30 8081 H 753.014 -5.727 1.02497 0
M  V30 8082 H 751.894 -7.48219 2.34813 0
M  V30 8083 N 749.397 0.351382 -1.53633 0
M  V30 8084 C 750.33 1.45407 -1.75875 0
M  V30 8085 C 751.308 1.50822 -0.607566 0
M  V30 8086 O 752.492 1.68658 -0.841818 0
M  V30 8087 C 749.619 2.8369 -1.85034 0
M  V30 8088 C 748.665 2.95935 -3.07123 0
M  V30 8089 S 749.498 2.63215 -4.66345 0
M  V30 8090 C 750.654 4.03622 -4.78373 0
M  V30 8091 H 750.887 1.26322 -2.69128 0
M  V30 8092 H 748.42 0.546581 -1.44402 0
M  V30 8093 H 750.378 3.6336 -1.90996 0
M  V30 8094 H 749.039 3.00076 -0.928074 0
M  V30 8095 H 748.232 3.97243 -3.10183 0
M  V30 8096 H 747.834 2.24205 -2.99346 0
M  V30 8097 H 750.126 4.98046 -4.593 0
M  V30 8098 H 751.069 4.05559 -5.80454 0
M  V30 8099 H 751.477 3.91282 -4.06889 0
M  V30 8100 N 750.875 1.45233 0.611969 0
M  V30 8101 C 752.123 1.48727 1.36838 0
M  V30 8102 C 752.444 0.128616 1.94575 0
M  V30 8103 O 751.714 -0.84149 1.76906 0
M  V30 8104 H 750.294 0.547695 0.507976 0
M  V30 8105 H 752.956 1.81156 0.718925 0
M  V30 8106 H 752.052 2.2236 2.19003 0
M  V30 8107 N 752.353 -0.854086 1.3245 0
M  V30 8108 C 753.593 -1.62216 1.2436 0
M  V30 8109 C 753.957 -1.91042 -0.191564 0
M  V30 8110 O 755.158 -2.65864 -0.396211 0
M  V30 8111 C 753.429 -2.9066 2.0797 0
M  V30 8112 S 754.988 -3.81438 2.16911 0
M  V30 8113 H 751.806 -0.556386 0.442669 0
M  V30 8114 H 754.408 -1.01139 1.67305 0
M  V30 8115 H 753.112 -2.6743 3.11302 0
M  V30 8116 H 752.643 -3.56753 1.65805 0
M  V30 8117 H 754.658 -4.78347 1.31903 0
M  V30 8118 N 753.831 -1.1567 -1.07043 0
M  V30 8119 C 755.077 -0.944878 -1.80121 0
M  V30 8120 C 755.432 0.522239 -1.85177 0
M  V30 8121 O 754.725 1.38228 -1.32678 0
M  V30 8122 C 754.919 -1.49677 -3.24548 0
M  V30 8123 C 754.748 -3.01602 -3.33566 0
M  V30 8124 C 753.518 -3.70177 -3.43943 0
M  V30 8125 C 755.716 -3.99362 -3.24059 0
M  V30 8126 N 753.698 -5.09882 -3.41896 0
M  V30 8127 C 755.069 -5.25404 -3.29167 0
M  V30 8128 C 757.124 -3.91289 -3.07891 0
M  V30 8129 C 755.827 -6.44314 -3.19769 0
M  V30 8130 C 757.853 -5.09761 -2.99829 0
M  V30 8131 C 757.215 -6.34679 -3.05552 0
M  V30 8132 H 753.314 -0.399447 -0.672284 0
M  V30 8133 H 755.898 -1.4693 -1.27749 0
M  V30 8134 H 754.069 -0.998941 -3.75334 0
M  V30 8135 H 755.801 -1.22346 -3.85764 0
M  V30 8136 H 752.556 -3.2078 -3.48421 0
M  V30 8137 H 752.98 -5.82857 -3.44393 0
M  V30 8138 H 757.622 -2.95573 -3.02318 0
M  V30 8139 H 755.34 -7.4026 -3.24101 0
M  V30 8140 H 758.926 -5.05279 -2.88418 0
M  V30 8141 H 757.806 -7.24812 -2.99361 0
M  V30 8142 N 755.309 1.25446 -0.953992 0
M  V30 8143 C 756.259 2.23627 -0.444413 0
M  V30 8144 C 757.243 1.54004 0.465993 0
M  V30 8145 O 758.435 1.74454 0.29915 0
M  V30 8146 C 755.564 3.42179 0.277175 0
M  V30 8147 C 754.65 4.1907 -0.651263 0
M  V30 8148 N 755.041 4.73346 -1.78262 0
M  V30 8149 C 753.339 4.43628 -0.459338 0
M  V30 8150 C 754.04 5.31576 -2.36224 0
M  V30 8151 N 753.016 5.17991 -1.64884 0
M  V30 8152 H 756.818 2.63197 -1.30785 0
M  V30 8153 H 754.332 1.40677 -0.811402 0
M  V30 8154 H 756.329 4.11653 0.659367 0
M  V30 8155 H 754.989 3.04134 1.13723 0
M  V30 8156 H 756 4.705 -2.1645 0
M  V30 8157 H 752.677 4.15963 0.357885 0
M  V30 8158 H 754.067 5.84361 -3.3162 0
M  V30 8159 N 756.787 0.722489 1.40064 0
M  V30 8160 C 757.75 0.0830209 2.2905 0
M  V30 8161 C 758.75 -0.680208 1.45705 0
M  V30 8162 O 759.94 -0.511084 1.66534 0
M  V30 8163 C 757.072 -0.892092 3.29021 0
M  V30 8164 H 758.265 0.866848 2.87099 0
M  V30 8165 H 755.818 0.487556 1.48501 0
M  V30 8166 H 756.553 -1.70273 2.76003 0
M  V30 8167 H 756.338 -0.34761 3.90556 0
M  V30 8168 H 757.828 -1.33648 3.95636 0
M  V30 8169 N 758.265 -1.50454 0.469181 0
M  V30 8170 C 759.213 -2.30101 -0.340033 0
M  V30 8171 C 760.207 -1.37306 -0.992135 0
M  V30 8172 O 761.413 -1.54506 -0.923458 0
M  V30 8173 H 757.788 -0.740941 -0.128495 0
M  V30 8174 H 759.759 -2.96315 0.352144 0
M  V30 8175 C 758.508 -3.17804 -1.41052 0
M  V30 8176 H 757.831 -3.89115 -0.918124 0
M  V30 8177 H 759.271 -3.76533 -1.94934 0
M  V30 8178 C 757.73 -2.35272 -2.4114 0
M  V30 8179 O 758.26 -2.03448 -3.4637 0
M  V30 8180 N 756.466 -1.97889 -2.1281 0
M  V30 8181 H 756.013 -2.2397 -1.27261 0
M  V30 8182 H 755.971 -1.42971 -2.80012 0
M  V30 8183 N 759.743 -0.201713 -1.56304 0
M  V30 8184 C 760.968 0.443815 -2.02596 0
M  V30 8185 C 761.393 1.53945 -1.08086 0
M  V30 8186 O 760.751 1.81182 -0.0655056 0
M  V30 8187 C 760.799 0.971066 -3.47279 0
M  V30 8188 O 759.903 2.0836 -3.55893 0
M  V30 8189 H 759.244 0.10294 -0.655972 0
M  V30 8190 H 761.774 -0.314533 -2.02168 0
M  V30 8191 H 761.784 1.28598 -3.87204 0
M  V30 8192 H 760.459 0.169048 -4.15556 0
M  V30 8193 H 759.036 1.77683 -3.27846 0
M  V30 8194 N 761.222 1.57436 0.0718424 0
M  V30 8195 C 762.47 1.86878 0.769484 0
M  V30 8196 C 762.791 0.7937 1.78116 0
M  V30 8197 O 762.061 -0.177642 1.95093 0
M  V30 8198 H 760.641 0.689593 0.287177 0
M  V30 8199 H 763.303 1.94841 0.0479427 0
M  V30 8200 H 762.399 2.84387 1.28572 0
M  V30 8201 N 762.7 -0.34323 1.53817 0
M  V30 8202 C 763.925 -1.1079 1.75329 0
M  V30 8203 C 764.35 -1.81571 0.491293 0
M  V30 8204 O 763.708 -1.72561 -0.556089 0
M  V30 8205 C 763.756 -2.09681 2.9337 0
M  V30 8206 O 762.86 -3.17207 2.63541 0
M  V30 8207 H 762.201 -0.320402 0.581583 0
M  V30 8208 H 764.731 -0.393525 2.0078 0
M  V30 8209 H 764.741 -2.52897 3.20168 0
M  V30 8210 H 763.416 -1.5756 3.84899 0
M  V30 8211 H 761.993 -2.78806 2.47632 0
M  V30 8212 N 764.178 -1.45556 -0.604258 0
M  V30 8213 C 765.141 -1.54091 -1.69672 0
M  V30 8214 C 766.141 -0.420076 -1.55216 0
M  V30 8215 O 767.331 -0.683671 -1.60224 0
M  V30 8216 C 764.463 -1.44063 -3.08964 0
M  V30 8217 H 765.656 -2.51431 -1.6347 0
M  V30 8218 H 763.209 -1.33046 -0.820273 0
M  V30 8219 H 763.944 -0.479201 -3.2074 0
M  V30 8220 H 763.729 -2.25362 -3.20865 0
M  V30 8221 H 765.219 -1.53075 -3.88533 0
M  V30 8222 N 765.656 0.84705 -1.32902 0
M  V30 8223 C 766.586 1.97166 -1.25091 0
M  V30 8224 C 767.567 1.69578 -0.133161 0
M  V30 8225 O 768.752 1.91519 -0.321591 0
M  V30 8226 C 765.882 3.33157 -0.981006 0
M  V30 8227 C 764.836 3.75119 -2.06082 0
M  V30 8228 C 764.162 5.08826 -1.64318 0
M  V30 8229 C 765.462 3.89774 -3.47669 0
M  V30 8230 H 767.156 2.03958 -2.19184 0
M  V30 8231 H 764.702 0.979907 -1.05517 0
M  V30 8232 H 766.655 4.11393 -0.912891 0
M  V30 8233 H 765.379 3.266 -0.00445559 0
M  V30 8234 H 764.038 2.9914 -2.11921 0
M  V30 8235 H 763.686 4.98732 -0.653876 0
M  V30 8236 H 763.386 5.37873 -2.36572 0
M  V30 8237 H 764.91 5.89546 -1.58958 0
M  V30 8238 H 766.324 4.58343 -3.44376 0
M  V30 8239 H 764.721 4.30248 -4.18338 0
M  V30 8240 H 765.791 2.92463 -3.86773 0
M  V30 8241 N 767.134 1.16236 1.06428 0
M  V30 8242 C 768.381 0.943034 1.79201 0
M  V30 8243 C 768.709 -0.529243 1.87161 0
M  V30 8244 O 767.964 -1.40874 1.35842 0
M  V30 8245 C 768.263 1.51396 3.2375 0
M  V30 8246 C 767.929 3.00833 3.35873 0
M  V30 8247 C 766.591 3.41626 3.38888 0
M  V30 8248 C 768.943 3.96825 3.37904 0
M  V30 8249 C 766.271 4.77033 3.4155 0
M  V30 8250 C 768.623 5.32116 3.42104 0
M  V30 8251 C 767.287 5.72392 3.43401 0
M  V30 8252 H 766.557 0.34508 0.655744 0
M  V30 8253 H 769.204 1.44929 1.25171 0
M  V30 8254 H 767.509 0.929114 3.80624 0
M  V30 8255 H 769.206 1.31996 3.78653 0
M  V30 8256 H 765.796 2.68306 3.3423 0
M  V30 8257 H 769.98 3.66376 3.34787 0
M  V30 8258 H 765.236 5.07569 3.40858 0
M  V30 8259 H 769.41 6.06286 3.42623 0
M  V30 8260 H 767.037 6.77296 3.45216 0
M  V30 8261 O 768.651 -1.1913 1.09043 0
M  V30 8262 H 769.342 -1.77084 0.784907 0
M  V30 END ATOM
M  V30 BEGIN BOND
M  V30 END BOND
M  V30 END CTAB
M  END
$$$$
