drugbank_target|Q9H2K8 Serine/threonine-protein kinase TAO3 (DB12010)
 OpenBabel12092121133D

  0  0  0     0  0            999 V3000
M  V30 BEGIN CTAB
M  V30 COUNTS 14787 14906 0 0 0
M  V30 BEGIN ATOM
M  V30 1 H -0.908 1.98254 -0.117106 0
M  V30 2 N 0 1.576 0 0
M  V30 3 C 0.933 2.03868 1.02534 0
M  V30 4 C 1.911 0.928543 1.3348 0
M  V30 5 O 3.095 1.19667 1.45644 0
M  V30 6 C 0.222 2.43627 2.35294 0
M  V30 7 C -0.732 3.65373 2.2001 0
M  V30 8 S 0.101 5.13292 1.52614 0
M  V30 9 C 1.257 5.56322 2.86805 0
M  V30 10 H 1.49 2.90518 0.631377 0
M  V30 11 H -0.977 1.52953 0.210867 0
M  V30 12 H 0.981 2.67203 3.11629 0
M  V30 13 H -0.358 1.57376 2.7183 0
M  V30 14 H -1.165 3.90944 3.18086 0
M  V30 15 H -1.563 3.418 1.51819 0
M  V30 16 H 0.729 5.58782 3.83104 0
M  V30 17 H 1.672 6.56266 2.65933 0
M  V30 18 H 2.08 4.83886 2.90714 0
M  V30 19 N 1.4781 -0.272755 1.55222 0
M  V30 20 C 2.8941 -0.619959 1.47067 0
M  V30 21 C 3.0941 -1.895 0.684978 0
M  V30 22 O 2.1501 -2.51675 0.203931 0
M  V30 23 C 3.4631 -0.746693 2.91282 0
M  V30 24 C 5.0111 -0.840731 3.01497 0
M  V30 25 C 5.4861 -0.99924 4.46967 0
M  V30 26 N 6.9771 -1.06476 4.50796 0
M  V30 27 C 7.7121 -1.20621 5.6057 0
M  V30 28 N 7.2081 -1.31483 6.80209 0
M  V30 29 N 9.0011 -1.23733 5.48312 0
M  V30 30 H 1.1521 0.564606 2.04758 0
M  V30 31 H 3.4151 0.191177 0.928523 0
M  V30 32 H 3.1211 0.119753 3.51496 0
M  V30 33 H 2.9951 -1.6269 3.40311 0
M  V30 34 H 5.3821 -1.69764 2.41379 0
M  V30 35 H 5.4631 0.0640874 2.5572 0
M  V30 36 H 5.1071 -0.146984 5.07687 0
M  V30 37 H 5.0371 -1.91871 4.90401 0
M  V30 38 H 7.5281 -0.993196 3.64615 0
M  V30 39 H 7.8411 -1.42111 7.59621 0
M  V30 40 H 6.1861 -1.28487 6.8302 0
M  V30 41 H 9.3771 -1.14877 4.53785 0
M  V30 42 H 9.5501 -1.34412 6.33906 0
M  V30 43 N 2.9562 -1.48159 -0.537278 0
M  V30 44 C 3.9032 -1.62138 -1.64256 0
M  V30 45 C 4.8732 -0.463668 -1.59497 0
M  V30 46 O 6.0582 -0.686241 -1.78032 0
M  V30 47 C 3.1982 -1.66028 -3.02537 0
M  V30 48 C 2.3112 -2.92855 -3.17585 0
M  V30 49 C 1.4462 -2.87952 -4.46382 0
M  V30 50 C 0.4852 -4.09516 -4.54932 0
M  V30 51 N -0.3778 -4.02733 -5.75109 0
M  V30 52 H 4.4622 -2.56529 -1.51647 0
M  V30 53 H 1.9992 -1.27224 -0.738414 0
M  V30 54 H 3.9572 -1.66265 -3.82638 0
M  V30 55 H 2.5872 -0.751331 -3.13934 0
M  V30 56 H 1.6392 -3.02395 -2.30784 0
M  V30 57 H 2.9512 -3.82822 -3.19764 0
M  V30 58 H 2.1052 -2.8655 -5.34765 0
M  V30 59 H 0.8442 -1.95702 -4.46712 0
M  V30 60 H -0.1508 -4.11201 -3.64957 0
M  V30 61 H 1.0742 -5.02917 -4.56346 0
M  V30 62 H -0.9798 -3.13299 -5.76351 0
M  V30 63 H -1.0628 -4.86397 -5.78752 0
M  V30 64 H 0.2052 -4.05379 -6.65799 0
M  V30 65 N 4.4343 0.785586 -1.36625 0
M  V30 66 C 5.6823 1.54057 -1.30808 0
M  V30 67 C 6.0033 1.94683 0.111157 0
M  V30 68 O 5.2733 1.65241 1.05224 0
M  V30 69 H 3.8533 0.571354 -0.481211 0
M  V30 70 H 6.5153 0.935821 -1.70963 0
M  V30 71 H 5.6113 2.44637 -1.93801 0
M  V30 72 N 5.9124 1.20967 1.01018 0
M  V30 73 C 7.1584 1.02526 1.74975 0
M  V30 74 C 7.4914 -0.4408 1.89131 0
M  V30 75 O 6.7664 -1.32718 1.42184 0
M  V30 76 C 7.0494 1.71699 3.1653 0
M  V30 77 C 6.9024 3.25791 3.10129 0
M  V30 78 C 8.2214 1.45531 4.15342 0
M  V30 79 H 5.3404 0.373863 0.635134 0
M  V30 80 H 7.9824 1.49071 1.17805 0
M  V30 81 H 6.1324 1.32128 3.65341 0
M  V30 82 H 7.8044 3.74697 2.69072 0
M  V30 83 H 6.0474 3.56363 2.47362 0
M  V30 84 H 6.7184 3.69353 4.10222 0
M  V30 85 H 9.1944 1.79872 3.75213 0
M  V30 86 H 8.0704 1.96453 5.1254 0
M  V30 87 H 8.3314 0.384237 4.40427 0
M  V30 88 N 7.3905 -1.2043 1.01659 0
M  V30 89 C 8.3205 -2.25466 0.607226 0
M  V30 90 C 9.3015 -1.65853 -0.377716 0
M  V30 91 O 10.4865 -1.92409 -0.263149 0
M  V30 92 C 7.6165 -3.47256 -0.0552949 0
M  V30 93 C 6.5705 -4.19462 0.850632 0
M  V30 94 C 5.8965 -5.34673 0.0538859 0
M  V30 95 C 7.1965 -4.75603 2.15868 0
M  V30 96 H 8.8905 -2.59962 1.48526 0
M  V30 97 H 6.4365 -1.2496 0.715605 0
M  V30 98 H 8.3895 -4.19917 -0.353233 0
M  V30 99 H 7.1135 -3.11924 -0.968045 0
M  V30 100 H 5.7725 -3.48667 1.13257 0
M  V30 101 H 5.4205 -4.95585 -0.860514 0
M  V30 102 H 5.1205 -5.83913 0.657192 0
M  V30 103 H 6.6445 -6.10138 -0.237598 0
M  V30 104 H 8.0585 -5.40083 1.92311 0
M  V30 105 H 6.4555 -5.3528 2.71284 0
M  V30 106 H 7.5255 -3.94346 2.82169 0
M  V30 107 N 8.8686 -0.792821 -1.36206 0
M  V30 108 C 9.8156 -0.191653 -2.30003 0
M  V30 109 C 10.7856 0.666453 -1.52143 0
M  V30 110 O 11.9706 0.61442 -1.80636 0
M  V30 111 C 9.1106 0.664848 -3.38635 0
M  V30 112 C 8.2236 -0.212175 -4.31479 0
M  V30 113 C 7.3586 0.651022 -5.27196 0
M  V30 114 C 6.3976 -0.227247 -6.11678 0
M  V30 115 N 5.5346 0.595127 -6.99573 0
M  V30 116 H 10.3746 -0.996978 -2.80828 0
M  V30 117 H 7.9116 -0.503206 -1.38225 0
M  V30 118 H 9.8696 1.17645 -4.00269 0
M  V30 119 H 8.4996 1.43557 -2.89122 0
M  V30 120 H 7.5516 -0.841777 -3.70969 0
M  V30 121 H 8.8636 -0.888751 -4.90818 0
M  V30 122 H 8.0176 1.2283 -5.94136 0
M  V30 123 H 6.7566 1.36121 -4.68319 0
M  V30 124 H 5.7616 -0.816904 -5.43697 0
M  V30 125 H 6.9866 -0.93509 -6.72631 0
M  V30 126 H 4.9326 1.28955 -6.432 0
M  V30 127 H 4.8496 -0.0236952 -7.55996 0
M  V30 128 H 6.1176 1.15613 -7.70879 0
M  V30 129 N 10.3467 1.47872 -0.545128 0
M  V30 130 C 11.6237 1.9554 0.0485222 0
M  V30 131 C 12.0037 1.4876 1.49779 0
M  V30 132 O 11.3517 0.720925 2.16829 0
M  V30 133 C 11.5617 3.48898 -0.084417 0
M  V30 134 C 12.9097 4.24547 0.0671239 0
M  V30 135 O 13.9337 3.56198 -0.0113649 0
M  V30 136 O 12.7927 5.45999 0.233882 0
M  V30 137 H 9.8867 0.823957 0.0708773 0
M  V30 138 H 12.4327 1.58327 -0.610798 0
M  V30 139 H 11.2047 3.75714 -1.09337 0
M  V30 140 H 10.8277 3.92845 0.613066 0
M  V30 141 N 11.8248 0.280983 1.55075 0
M  V30 142 C 13.2358 -0.215629 1.85451 0
M  V30 143 C 13.5868 -1.54991 1.203 0
M  V30 144 O 12.7118 -2.10699 0.493435 0
M  V30 145 C 13.3068 -0.398026 3.36454 0
M  V30 146 C 11.8658 -0.838866 3.66933 0
M  V30 147 C 11.0128 0.064458 2.77225 0
M  V30 148 H 13.9638 0.502601 1.50531 0
M  V30 149 H 13.9848 -1.23569 3.59876 0
M  V30 150 H 13.4968 0.573241 3.83843 0
M  V30 151 H 11.5978 -1.8214 3.25048 0
M  V30 152 H 11.7108 -0.672123 4.74362 0
M  V30 153 H 10.0748 -0.452863 2.50642 0
M  V30 154 H 10.8578 1.03172 3.2743 0
M  V30 155 N 13.3029 -1.57598 0.00835791 0
M  V30 156 C 14.2129 -2.12385 -0.996487 0
M  V30 157 C 15.2289 -1.07108 -1.37127 0
M  V30 158 O 16.4049 -1.39055 -1.4569 0
M  V30 159 C 13.4699 -2.62314 -2.26699 0
M  V30 160 C 12.5309 -3.82225 -1.95456 0
M  V30 161 C 11.7639 -4.29763 -3.16449 0
M  V30 162 O 11.9869 -3.76584 -4.28416 0
M  V30 163 O 10.9209 -5.21832 -2.99958 0
M  V30 164 H 14.7469 -2.98479 -0.560725 0
M  V30 165 H 12.3319 -1.47903 -0.210987 0
M  V30 166 H 14.2139 -2.94589 -3.01322 0
M  V30 167 H 12.8889 -1.79313 -2.69497 0
M  V30 168 H 11.7959 -3.54909 -1.18282 0
M  V30 169 H 13.1289 -4.66324 -1.57489 0
M  V30 170 N 14.781 0.264519 -1.55364 0
M  V30 171 C 16.03 0.992812 -1.75574 0
M  V30 172 C 16.343 1.87142 -0.568979 0
M  V30 173 O 17.549 2.63513 -0.653682 0
M  V30 174 C 16.005 1.81519 -3.10771 0
M  V30 175 C 15.613 0.984839 -4.37041 0
M  V30 176 C 17.357 2.53727 -3.40327 0
M  V30 177 C 15.264 1.80209 -5.63275 0
M  V30 178 H 14.194 0.374412 -0.65447 0
M  V30 179 H 16.845 0.248138 -1.81815 0
M  V30 180 H 15.227 2.60115 -2.98591 0
M  V30 181 H 16.401 0.242455 -4.60162 0
M  V30 182 H 14.716 0.37691 -4.14691 0
M  V30 183 H 17.313 3.15292 -4.3185 0
M  V30 184 H 17.656 3.24447 -2.60845 0
M  V30 185 H 18.189 1.82156 -3.53644 0
M  V30 186 H 14.928 1.13896 -6.45529 0
M  V30 187 H 14.448 2.52022 -5.44284 0
M  V30 188 H 16.127 2.37364 -6.01887 0
M  V30 189 N 16.2591 1.48442 0.529413 0
M  V30 190 C 17.2221 1.62524 1.61612 0
M  V30 191 C 18.2221 0.498509 1.52877 0
M  V30 192 O 19.4121 0.76431 1.56537 0
M  V30 193 C 16.5441 1.59597 3.01233 0
M  V30 194 H 17.7371 2.59423 1.50465 0
M  V30 195 H 15.2901 1.37047 0.751514 0
M  V30 196 H 16.0251 0.641781 3.17886 0
M  V30 197 H 15.8101 2.41397 3.08982 0
M  V30 198 H 17.3001 1.72646 3.80241 0
M  V30 199 N 17.7372 -0.778329 1.37039 0
M  V30 200 C 19.0142 -1.52551 1.22424 0
M  V30 201 C 19.3942 -2.10288 -0.184964 0
M  V30 202 O 18.7422 -1.94953 -1.19187 0
M  V30 203 C 18.9522 -2.61164 2.31504 0
M  V30 204 C 20.3002 -3.28746 2.68721 0
M  V30 205 O 21.3242 -2.71455 2.30631 0
M  V30 206 O 20.1832 -4.3231 3.3432 0
M  V30 207 H 17.2772 -0.675343 0.477326 0
M  V30 208 H 19.8232 -0.815859 1.48801 0
M  V30 209 H 18.5952 -2.16574 3.25901 0
M  V30 210 H 18.2182 -3.39737 2.06554 0
M  V30 211 N 19.2153 -1.21501 -1.00376 0
M  V30 212 C 20.1453 -0.999478 -2.11028 0
M  V30 213 C 21.1263 0.0759671 -1.6993 0
M  V30 214 O 22.3113 -0.0841106 -1.94018 0
M  V30 215 C 19.4413 -0.564709 -3.42678 0
M  V30 216 C 18.3953 -1.58486 -3.97576 0
M  V30 217 C 17.7213 -1.00628 -5.25146 0
M  V30 218 C 19.0213 -2.97204 -4.29496 0
M  V30 219 H 20.7153 -1.92495 -2.29317 0
M  V30 220 H 18.2613 -0.92693 -1.102 0
M  V30 221 H 20.2143 -0.401091 -4.19487 0
M  V30 222 H 18.9383 0.396411 -3.24185 0
M  V30 223 H 17.5973 -1.73606 -3.22888 0
M  V30 224 H 17.2453 -0.0368439 -5.02987 0
M  V30 225 H 16.9453 -1.68771 -5.62841 0
M  V30 226 H 18.4693 -0.854015 -6.04598 0
M  V30 227 H 19.8833 -2.8552 -4.97143 0
M  V30 228 H 18.2803 -3.62372 -4.78338 0
M  V30 229 H 19.3503 -3.47956 -3.3772 0
M  V30 230 N 20.6934 1.19889 -1.02296 0
M  V30 231 C 21.9404 1.8942 -0.715972 0
M  V30 232 C 22.2684 1.79251 0.754944 0
M  V30 233 O 21.5234 1.17526 1.56481 0
M  V30 234 C 21.8224 3.39883 -1.10518 0
M  V30 235 C 21.4884 3.70254 -2.57337 0
M  V30 236 C 20.1504 3.78254 -2.97452 0
M  V30 237 C 22.5024 3.84052 -3.52354 0
M  V30 238 C 19.8304 3.97514 -4.31509 0
M  V30 239 C 22.1824 4.04824 -4.86108 0
M  V30 240 C 20.8464 4.11054 -5.25919 0
M  V30 241 H 20.1164 0.693138 -0.261993 0
M  V30 242 H 22.7634 1.42012 -1.28472 0
M  V30 243 H 21.0684 3.8915 -0.454953 0
M  V30 244 H 22.7654 3.9199 -0.845261 0
M  V30 245 H 19.3554 3.64632 -2.25258 0
M  V30 246 H 23.5394 3.77221 -3.22518 0
M  V30 247 H 18.7954 4.00574 -4.61898 0
M  V30 248 H 22.9694 4.14442 -5.59653 0
M  V30 249 H 20.5964 4.2573 -6.29808 0
M  V30 250 N 22.1715 0.800033 1.35784 0
M  V30 251 C 23.4015 0.389041 2.02904 0
M  V30 252 C 23.8095 -1.0027 1.60445 0
M  V30 253 O 23.1525 -1.65633 0.794453 0
M  V30 254 C 23.2145 0.385495 3.57427 0
M  V30 255 C 22.8785 1.72662 4.23127 0
M  V30 256 C 23.8755 2.68385 4.4527 0
M  V30 257 C 21.5605 2.00883 4.60381 0
M  V30 258 C 23.5545 3.90517 5.03761 0
M  V30 259 C 21.2415 3.2328 5.18588 0
M  V30 260 C 22.2395 4.17915 5.40218 0
M  V30 261 O 21.9275 5.38153 5.97199 0
M  V30 262 H 21.6595 0.157032 0.657508 0
M  V30 263 H 24.2135 1.08311 1.74522 0
M  V30 264 H 22.4435 -0.365128 3.84972 0
M  V30 265 H 24.1325 -0.00228296 4.059 0
M  V30 266 H 24.8985 2.47872 4.16874 0
M  V30 267 H 20.7775 1.28037 4.42863 0
M  V30 268 H 24.3215 4.64395 5.2056 0
M  V30 269 H 20.2185 3.43667 5.4641 0
M  V30 270 H 20.9865 5.3936 6.15656 0
M  V30 271 N 23.6496 -1.47581 0.552962 0
M  V30 272 C 24.5966 -2.29957 -0.197108 0
M  V30 273 C 25.5666 -1.38799 -0.912359 0
M  V30 274 O 26.7516 -1.67761 -0.908888 0
M  V30 275 C 23.8916 -3.22672 -1.22379 0
M  V30 276 C 23.0046 -4.28919 -0.515038 0
M  V30 277 C 22.1396 -5.0879 -1.52664 0
M  V30 278 C 21.1786 -6.06815 -0.802631 0
M  V30 279 N 20.3156 -6.7966 -1.76086 0
M  V30 280 H 25.1556 -2.93578 0.511486 0
M  V30 281 H 22.6926 -1.4471 0.264067 0
M  V30 282 H 24.6506 -3.74845 -1.83159 0
M  V30 283 H 23.2806 -2.60925 -1.90047 0
M  V30 284 H 22.3326 -3.79835 0.207192 0
M  V30 285 H 23.6446 -4.98773 0.0523425 0
M  V30 286 H 22.7986 -5.65091 -2.20809 0
M  V30 287 H 21.5376 -4.38828 -2.12794 0
M  V30 288 H 20.5426 -5.49695 -0.107238 0
M  V30 289 H 21.7676 -6.78784 -0.207135 0
M  V30 290 H 19.7136 -6.12432 -2.35081 0
M  V30 291 H 19.6306 -7.45669 -1.24552 0
M  V30 292 H 20.8986 -7.40538 -2.43359 0
M  V30 293 N 25.1277 -0.289203 -1.54924 0
M  V30 294 C 26.4047 0.376032 -1.91951 0
M  V30 295 C 26.7847 1.72622 -1.21511 0
M  V30 296 O 26.1327 2.25853 -0.346767 0
M  V30 297 C 26.3427 0.502378 -3.45365 0
M  V30 298 C 27.6907 0.778741 -4.17398 0
M  V30 299 O 28.7147 0.586647 -3.51336 0
M  V30 300 O 27.5737 1.14698 -5.34328 0
M  V30 301 H 24.6677 0.208167 -0.800372 0
M  V30 302 H 27.2137 -0.336394 -1.66332 0
M  V30 303 H 25.9857 -0.447255 -3.88736 0
M  V30 304 H 25.6087 1.26373 -3.76982 0
M  V30 305 N 26.6058 1.57591 -0.0167156 0
M  V30 306 C 27.8828 1.82547 0.702564 0
M  V30 307 C 28.2628 0.898018 1.91047 0
M  V30 308 O 27.6108 -0.0493456 2.28447 0
M  V30 309 C 27.8208 3.31459 1.09251 0
M  V30 310 C 29.1688 3.97622 1.48937 0
M  V30 311 O 30.1928 3.35881 1.18584 0
M  V30 312 O 29.0518 5.06415 2.05442 0
M  V30 313 H 26.1458 0.752268 0.343544 0
M  V30 314 H 28.6918 1.69644 -0.0434495 0
M  V30 315 H 27.4638 3.9061 0.23227 0
M  V30 316 H 27.0868 3.49422 1.89709 0
M  V30 317 N 28.0839 -0.256276 1.55502 0
M  V30 318 C 29.4949 -0.826068 1.67431 0
M  V30 319 C 29.8459 -1.86396 0.612446 0
M  V30 320 O 28.9709 -2.15031 -0.243025 0
M  V30 321 C 29.5659 -1.50512 3.03532 0
M  V30 322 C 28.1249 -2.02273 3.17431 0
M  V30 323 C 27.2719 -0.870548 2.63281 0
M  V30 324 H 30.2229 -0.0322728 1.58667 0
M  V30 325 H 30.2439 -2.37279 2.97454 0
M  V30 326 H 29.7559 -0.749484 3.80794 0
M  V30 327 H 27.8569 -2.80746 2.44974 0
M  V30 328 H 27.9699 -2.22655 4.24219 0
M  V30 329 H 26.3339 -1.26851 2.20864 0
M  V30 330 H 27.1169 -0.128149 3.43061 0
M  V30 331 N 29.562 -1.4872 -0.521534 0
M  V30 332 C 30.472 -1.66569 -1.65203 0
M  V30 333 C 31.488 -0.548197 -1.65139 0
M  V30 334 O 32.664 -0.820339 -1.83936 0
M  V30 335 C 29.729 -1.70917 -3.01642 0
M  V30 336 C 28.79 -2.94356 -3.12495 0
M  V30 337 C 28.023 -2.98487 -4.42426 0
M  V30 338 O 28.246 -2.10786 -5.30024 0
M  V30 339 O 27.18 -3.90746 -4.57822 0
M  V30 340 H 31.006 -2.62298 -1.5308 0
M  V30 341 H 28.591 -1.3222 -0.695565 0
M  V30 342 H 30.473 -1.7625 -3.82771 0
M  V30 343 H 29.148 -0.783633 -3.14071 0
M  V30 344 H 28.055 -2.94552 -2.3063 0
M  V30 345 H 29.388 -3.86322 -3.04986 0
M  V30 346 N 31.0401 0.771051 -1.3745 0
M  V30 347 C 31.9501 1.91538 -1.35464 0
M  V30 348 C 32.9661 1.72134 -0.254123 0
M  V30 349 O 34.1421 1.95358 -0.489626 0
M  V30 350 C 31.2071 3.26671 -1.16134 0
M  V30 351 C 30.2681 3.58723 -2.35831 0
M  V30 352 C 29.5011 4.87409 -2.17413 0
M  V30 353 O 29.7241 5.58506 -1.15876 0
M  V30 354 O 28.6581 5.18539 -3.05615 0
M  V30 355 H 32.4841 1.96165 -2.31847 0
M  V30 356 H 30.0691 0.9139 -1.18187 0
M  V30 357 H 31.9511 4.07499 -1.07345 0
M  V30 358 H 30.6261 3.22894 -0.228251 0
M  V30 359 H 29.5331 2.78127 -2.50192 0
M  V30 360 H 30.8661 3.67243 -3.27709 0
M  V30 361 N 32.5182 1.22032 0.997298 0
M  V30 362 C 33.4482 1.01065 2.10495 0
M  V30 363 C 34.4292 -0.0669542 1.69968 0
M  V30 364 O 35.6142 0.0943987 1.9397 0
M  V30 365 C 32.7442 0.582874 3.42374 0
M  V30 366 C 31.6982 1.60592 3.96729 0
M  V30 367 C 31.0242 1.03412 5.24605 0
M  V30 368 C 32.3242 2.99478 4.27914 0
M  V30 369 H 34.0182 1.93708 2.28292 0
M  V30 370 H 31.5642 0.932761 1.09707 0
M  V30 371 H 33.5172 0.423332 4.19268 0
M  V30 372 H 32.2412 -0.379213 3.24391 0
M  V30 373 H 30.9002 1.75316 3.21963 0
M  V30 374 H 30.5482 0.063518 5.0296 0
M  V30 375 H 30.2482 1.71754 5.61938 0
M  V30 376 H 31.7722 0.886066 6.04137 0
M  V30 377 H 33.1862 2.88153 4.95622 0
M  V30 378 H 31.5832 3.64903 4.76409 0
M  V30 379 H 32.6532 3.49742 3.3587 0
M  V30 380 N 33.9963 -1.19345 1.0293 0
M  V30 381 C 35.2433 -1.89038 0.726008 0
M  V30 382 C 35.5713 -1.79649 -0.745427 0
M  V30 383 O 34.8263 -1.18354 -1.55855 0
M  V30 384 C 35.1253 -3.39292 1.12319 0
M  V30 385 C 34.7913 -3.68885 2.59297 0
M  V30 386 C 33.4533 -3.76671 2.99453 0
M  V30 387 C 35.8053 -3.82178 3.54386 0
M  V30 388 C 33.1333 -3.9522 4.33611 0
M  V30 389 C 35.4853 -4.0224 4.88248 0
M  V30 390 C 34.1493 -4.08259 5.28092 0
M  V30 391 H 33.4193 -0.691739 0.265665 0
M  V30 392 H 36.0663 -1.41328 1.29223 0
M  V30 393 H 34.3713 -3.88903 0.475584 0
M  V30 394 H 36.0683 -3.91536 0.866037 0
M  V30 395 H 32.6583 -3.63433 2.27189 0
M  V30 396 H 36.8423 -3.75505 3.24514 0
M  V30 397 H 32.0983 -3.98119 4.64016 0
M  V30 398 H 36.2723 -4.11468 5.61843 0
M  V30 399 H 33.8993 -4.22384 6.32057 0
M  V30 400 N 35.4744 -0.807222 -1.35358 0
M  V30 401 C 36.7234 -0.384376 -1.98004 0
M  V30 402 C 37.0364 1.0543 -1.64754 0
M  V30 403 O 38.2424 1.58029 -2.20769 0
M  V30 404 C 36.6984 -0.636326 -3.5423 0
M  V30 405 C 36.3064 -2.08759 -3.96388 0
M  V30 406 C 38.0504 -0.278869 -4.23583 0
M  V30 407 C 35.9574 -2.28525 -5.45463 0
M  V30 408 H 34.8874 -0.139986 -0.740891 0
M  V30 409 H 37.5384 -0.991369 -1.54415 0
M  V30 410 H 35.9204 0.0406256 -3.95979 0
M  V30 411 H 37.0944 -2.8024 -3.6579 0
M  V30 412 H 35.4094 -2.40497 -3.39926 0
M  V30 413 H 38.0064 -0.404599 -5.33167 0
M  V30 414 H 38.3494 0.775012 -4.09022 0
M  V30 415 H 38.8824 -0.909764 -3.87257 0
M  V30 416 H 35.6214 -3.32361 -5.64992 0
M  V30 417 H 35.1414 -1.61569 -5.77629 0
M  V30 418 H 36.8204 -2.10109 -6.11934 0
M  V30 419 N 36.9525 1.47285 -0.560781 0
M  V30 420 C 38.2005 2.02064 -0.0379868 0
M  V30 421 C 38.5215 1.43711 1.31803 0
M  V30 422 O 37.7915 0.61362 1.86042 0
M  V30 423 H 36.3715 0.746918 -0.0110531 0
M  V30 424 H 39.0335 1.80648 -0.731598 0
M  V30 425 H 38.1295 3.12064 0.0474463 0
M  V30 426 N 38.4306 0.297415 1.54768 0
M  V30 427 C 39.3606 -0.573494 2.26348 0
M  V30 428 C 40.3416 -1.14085 1.26169 0
M  V30 429 O 41.5266 -1.17086 1.54934 0
M  V30 430 C 38.6566 -1.74716 3.00153 0
M  V30 431 C 37.6106 -1.31032 4.07449 0
M  V30 432 C 36.9366 -2.56887 4.68949 0
M  V30 433 C 38.2366 -0.444183 5.20408 0
M  V30 434 H 39.9306 0.0235131 2.99391 0
M  V30 435 H 37.4766 0.0127488 1.43994 0
M  V30 436 H 39.4296 -2.3625 3.48947 0
M  V30 437 H 38.1536 -2.37035 2.24682 0
M  V30 438 H 36.8126 -0.718066 3.59499 0
M  V30 439 H 36.4606 -3.17512 3.90122 0
M  V30 440 H 36.1606 -2.2836 5.41411 0
M  V30 441 H 37.6846 -3.19229 5.20505 0
M  V30 442 H 39.0986 -0.9651 5.65118 0
M  V30 443 H 37.4956 -0.252846 5.99567 0
M  V30 444 H 38.5656 0.531609 4.81977 0
M  V30 445 N 39.9087 -1.5758 0.0250728 0
M  V30 446 C 40.8587 -2.06468 -0.967201 0
M  V30 447 C 41.8427 -0.964376 -1.28797 0
M  V30 448 O 43.0347 -1.22797 -1.27475 0
M  V30 449 C 40.1637 -2.59203 -2.25097 0
M  V30 450 C 39.2497 -3.76157 -1.95874 0
M  V30 451 N 39.6407 -4.86919 -1.36905 0
M  V30 452 C 37.9387 -3.84566 -2.25887 0
M  V30 453 C 38.6397 -5.68172 -1.24724 0
M  V30 454 N 37.6157 -5.14953 -1.74138 0
M  V30 455 H 41.4177 -2.89508 -0.506176 0
M  V30 456 H 38.9317 -1.61399 -0.18004 0
M  V30 457 H 40.9287 -2.92517 -2.97052 0
M  V30 458 H 39.5887 -1.77592 -2.71829 0
M  V30 459 H 40.5997 -5.07256 -1.04459 0
M  V30 460 H 37.2767 -3.13854 -2.75321 0
M  V30 461 H 38.6667 -6.67221 -0.791605 0
M  V30 462 N 41.3868 0.248026 -1.55636 0
M  V30 463 C 42.2968 1.32859 -1.93354 0
M  V30 464 C 43.3128 1.52719 -0.833838 0
M  V30 465 O 44.4888 1.66363 -1.13513 0
M  V30 466 C 41.5538 2.66337 -2.21958 0
M  V30 467 C 40.6148 2.55008 -3.45354 0
M  V30 468 C 39.8478 3.82121 -3.72584 0
M  V30 469 O 40.0708 4.83951 -3.01907 0
M  V30 470 O 39.0048 3.80822 -4.6611 0
M  V30 471 H 42.8308 1.03862 -2.85388 0
M  V30 472 H 40.4158 0.448686 -1.42503 0
M  V30 473 H 42.2978 3.45216 -2.4167 0
M  V30 474 H 40.9728 2.95068 -1.33103 0
M  V30 475 H 39.8798 1.7442 -3.30951 0
M  V30 476 H 41.2128 2.31222 -4.34508 0
M  V30 477 N 42.8649 1.48995 0.513639 0
M  V30 478 C 44.1139 1.57093 1.2651 0
M  V30 479 C 44.4269 0.257091 1.93903 0
M  V30 480 O 45.6329 0.216478 2.70636 0
M  V30 481 C 44.0889 2.77118 2.29638 0
M  V30 482 C 43.6969 4.15209 1.68241 0
M  V30 483 C 45.4409 2.94538 3.05692 0
M  V30 484 C 43.3479 5.26474 2.69406 0
M  V30 485 H 42.2779 0.584876 0.475854 0
M  V30 486 H 44.9289 1.7536 0.540487 0
M  V30 487 H 43.3109 2.52319 3.05207 0
M  V30 488 H 44.4849 4.50094 0.987505 0
M  V30 489 H 42.7999 4.03042 1.04623 0
M  V30 490 H 45.3969 3.74832 3.8132 0
M  V30 491 H 45.7399 2.04614 3.62545 0
M  V30 492 H 46.2729 3.19316 2.37238 0
M  V30 493 H 43.0119 6.18417 2.17351 0
M  V30 494 H 42.5319 4.96058 3.37175 0
M  V30 495 H 44.2109 5.55277 3.32078 0
M  V30 496 N 44.343 -0.763751 1.37857 0
M  V30 497 C 45.591 -1.51957 1.33243 0
M  V30 498 C 45.912 -1.94835 -0.0801709 0
M  V30 499 O 45.182 -1.66894 -1.02582 0
M  V30 500 H 43.762 -0.563626 0.49024 0
M  V30 501 H 46.424 -0.908504 1.7243 0
M  V30 502 H 45.52 -2.41523 1.97669 0
M  V30 503 N 45.8211 -1.22559 -0.990812 0
M  V30 504 C 46.7711 -0.964807 -2.0658 0
M  V30 505 C 47.7551 0.0853472 -1.60673 0
M  V30 506 O 48.9471 -0.125443 -1.76555 0
M  V30 507 C 46.0761 -0.546707 -3.38919 0
M  V30 508 C 45.1621 -1.6317 -3.91454 0
M  V30 509 N 45.5531 -2.85985 -4.17189 0
M  V30 510 C 43.8511 -1.50387 -4.19881 0
M  V30 511 C 44.5521 -3.56159 -4.59919 0
M  V30 512 N 43.5281 -2.83637 -4.63736 0
M  V30 513 H 47.3301 -1.89769 -2.24421 0
M  V30 514 H 44.8441 -1.12343 -1.17273 0
M  V30 515 H 46.8411 -0.34119 -4.15502 0
M  V30 516 H 45.5011 0.379254 -3.22478 0
M  V30 517 H 46.5121 -3.22392 -4.05319 0
M  V30 518 H 43.1891 -0.644254 -4.12499 0
M  V30 519 H 44.5791 -4.6139 -4.88435 0
M  V30 520 N 47.2992 1.18797 -1.03562 0
M  V30 521 C 48.5472 1.88278 -0.734569 0
M  V30 522 C 48.8682 1.8043 0.739586 0
M  V30 523 O 48.1382 1.21925 1.53333 0
M  V30 524 H 46.7182 0.696991 -0.268725 0
M  V30 525 H 49.3802 1.44192 -1.31129 0
M  V30 526 H 48.4762 2.94443 -1.03489 0
M  V30 527 N 48.7773 0.814389 1.34928 0
M  V30 528 C 50.0023 0.410097 2.03305 0
M  V30 529 C 50.4273 -0.973464 1.60951 0
M  V30 530 O 49.7853 -1.63185 0.789964 0
M  V30 531 C 49.8333 0.51049 3.56968 0
M  V30 532 O 48.9373 -0.473035 4.09678 0
M  V30 533 H 48.2783 0.170088 0.641846 0
M  V30 534 H 50.8083 1.10244 1.72358 0
M  V30 535 H 50.8183 0.383135 4.06197 0
M  V30 536 H 49.4933 1.51963 3.87144 0
M  V30 537 H 48.0703 -0.305272 3.71648 0
M  V30 538 N 50.2554 -1.46986 0.568584 0
M  V30 539 C 51.5024 -2.02441 0.0487986 0
M  V30 540 C 51.8304 -1.44169 -1.30559 0
M  V30 541 O 51.0854 -0.591213 -1.86556 0
M  V30 542 C 51.3844 -3.57306 -0.081836 0
M  V30 543 C 51.0504 -4.34552 1.20313 0
M  V30 544 C 49.7124 -4.55376 1.5552 0
M  V30 545 C 52.0644 -4.79016 2.05411 0
M  V30 546 C 49.3924 -5.17913 2.7565 0
M  V30 547 C 51.7444 -5.42879 3.24754 0
M  V30 548 C 50.4084 -5.61933 3.60261 0
M  V30 549 H 49.6784 -0.740785 0.0178567 0
M  V30 550 H 52.3254 -1.76525 0.742384 0
M  V30 551 H 50.6304 -3.8228 -0.858463 0
M  V30 552 H 52.3274 -3.97876 -0.499546 0
M  V30 553 H 48.9174 -4.18631 0.919014 0
M  V30 554 H 53.1014 -4.62696 1.79516 0
M  V30 555 H 48.3574 -5.30858 3.03315 0
M  V30 556 H 52.5314 -5.76293 3.90973 0
M  V30 557 H 50.1584 -6.10161 4.53439 0
M  V30 558 N 51.7335 -0.305618 -1.54608 0
M  V30 559 C 52.9815 0.301701 -1.99835 0
M  V30 560 C 53.3025 1.54054 -1.19551 0
M  V30 561 O 52.5725 1.93702 -0.292658 0
M  V30 562 H 51.1525 0.114468 -0.738178 0
M  V30 563 H 53.8145 -0.418016 -1.90364 0
M  V30 564 H 52.9105 0.570548 -3.06841 0
M  V30 565 N 53.2116 1.57565 -0.0334293 0
M  V30 566 C 54.1746 2.09393 0.932048 0
M  V30 567 C 55.1746 1.00986 1.25134 0
M  V30 568 O 56.3646 1.27129 1.19096 0
M  V30 569 C 53.4966 2.56338 2.2473 0
M  V30 570 H 54.6896 2.95984 0.483085 0
M  V30 571 H 52.2426 1.54819 0.21468 0
M  V30 572 H 52.9776 1.7309 2.74245 0
M  V30 573 H 52.7626 3.35542 2.02865 0
M  V30 574 H 54.2526 2.96646 2.93923 0
M  V30 575 N 54.6897 -0.239769 1.55765 0
M  V30 576 C 55.9357 -0.968234 1.78194 0
M  V30 577 C 56.2687 -1.84701 0.599938 0
M  V30 578 O 55.5437 -1.9031 -0.401524 0
M  V30 579 C 55.8267 -1.8227 3.10564 0
M  V30 580 C 55.6797 -0.971633 4.3918 0
M  V30 581 C 56.9987 -2.80388 3.39221 0
M  V30 582 H 54.1177 -0.350572 0.648281 0
M  V30 583 H 56.7597 -0.238259 1.885 0
M  V30 584 H 54.9097 -2.44507 3.01908 0
M  V30 585 H 56.5817 -0.367408 4.59835 0
M  V30 586 H 54.8247 -0.276276 4.32919 0
M  V30 587 H 55.4957 -1.60346 5.28198 0
M  V30 588 H 57.9717 -2.28287 3.47885 0
M  V30 589 H 56.8477 -3.3729 4.33044 0
M  V30 590 H 57.1087 -3.57212 2.60484 0
M  V30 591 N 56.1678 -1.49265 -0.50573 0
M  V30 592 C 57.3978 -1.61979 -1.28243 0
M  V30 593 C 57.8058 -0.288576 -1.86986 0
M  V30 594 O 57.1488 0.735408 -1.68337 0
M  V30 595 C 57.2108 -2.62632 -2.45489 0
M  V30 596 C 56.8748 -4.071 -2.07651 0
M  V30 597 C 57.8718 -4.94049 -1.61901 0
M  V30 598 C 55.5568 -4.52801 -2.17431 0
M  V30 599 C 57.5508 -6.24736 -1.26428 0
M  V30 600 C 55.2378 -5.83503 -1.8157 0
M  V30 601 C 56.2358 -6.69294 -1.36142 0
M  V30 602 O 55.9238 -7.9756 -1.00764 0
M  V30 603 H 55.6558 -0.54834 -0.395347 0
M  V30 604 H 58.2098 -1.96002 -0.614204 0
M  V30 605 H 56.4398 -2.2378 -3.15372 0
M  V30 606 H 58.1288 -2.64925 -3.07522 0
M  V30 607 H 58.8948 -4.5997 -1.53795 0
M  V30 608 H 54.7738 -3.86196 -2.51742 0
M  V30 609 H 58.3178 -6.91652 -0.908992 0
M  V30 610 H 54.2148 -6.17112 -1.89324 0
M  V30 611 H 54.9828 -8.10529 -1.13952 0
M  V30 612 N 57.6459 0.756429 -1.3826 0
M  V30 613 C 58.8929 1.51547 -1.34312 0
M  V30 614 C 59.2209 1.94382 0.0677144 0
M  V30 615 O 58.4759 1.65514 1.04421 0
M  V30 616 C 58.7749 2.78313 -2.24224 0
M  V30 617 C 58.4409 2.54455 -3.72241 0
M  V30 618 C 57.1029 2.47657 -4.12576 0
M  V30 619 C 59.4549 2.3354 -4.65949 0
M  V30 620 C 56.7829 2.17956 -5.44713 0
M  V30 621 C 59.1349 2.05359 -5.9834 0
M  V30 622 C 57.7989 1.97016 -6.37762 0
M  V30 623 H 57.0689 0.55455 -0.491482 0
M  V30 624 H 59.7159 0.870039 -1.70595 0
M  V30 625 H 58.0209 3.47492 -1.80987 0
M  V30 626 H 59.7179 3.36259 -2.18474 0
M  V30 627 H 56.3079 2.60616 -3.40261 0
M  V30 628 H 60.4919 2.37772 -4.35635 0
M  V30 629 H 55.7479 2.10003 -5.74203 0
M  V30 630 H 59.9219 1.88179 -6.70494 0
M  V30 631 H 57.5489 1.73766 -7.40074 0
M  V30 632 N 59.124 1.23083 0.984299 0
M  V30 633 C 60.087 1.00979 2.05757 0
M  V30 634 C 61.087 -0.0269573 1.60777 0
M  V30 635 O 62.277 0.212403 1.729 0
M  V30 636 C 59.409 0.527072 3.36801 0
M  V30 637 H 60.602 1.9622 2.26799 0
M  V30 638 H 58.155 1.05072 1.15714 0
M  V30 639 H 58.89 -0.429294 3.21446 0
M  V30 640 H 58.675 1.27515 3.70786 0
M  V30 641 H 60.165 0.392942 4.15747 0
M  V30 642 N 60.6021 -1.18246 1.0419 0
M  V30 643 C 61.8301 -1.92195 0.766072 0
M  V30 644 C 62.2451 -1.76247 -0.676933 0
M  V30 645 O 61.6021 -1.09293 -1.46155 0
M  V30 646 C 61.6531 -3.43568 1.12442 0
M  V30 647 O 61.3741 -3.59015 2.51078 0
M  V30 648 C 62.8751 -4.34613 0.873275 0
M  V30 649 H 60.0951 -0.610114 0.279288 0
M  V30 650 H 62.6391 -1.50007 1.38989 0
M  V30 651 H 60.7941 -3.8354 0.545542 0
M  V30 652 H 61.2081 -4.5273 2.64831 0
M  V30 653 H 62.6821 -5.39374 1.17385 0
M  V30 654 H 63.1591 -4.38781 -0.191909 0
M  V30 655 H 63.7651 -4.00341 1.43551 0
M  V30 656 N 62.0802 -0.821533 -1.34494 0
M  V30 657 C 63.0282 -0.230702 -2.31453 0
M  V30 658 C 64.0222 0.627793 -1.57338 0
M  V30 659 O 65.2282 0.519288 -1.72347 0
M  V30 660 H 61.6032 -0.0558577 -0.749923 0
M  V30 661 H 63.5742 -1.06332 -2.78812 0
M  V30 662 C 62.3232 0.59391 -3.4259 0
M  V30 663 H 61.6462 -0.0573588 -3.99759 0
M  V30 664 H 63.0862 0.973446 -4.12674 0
M  V30 665 C 61.5452 1.76568 -2.86924 0
M  V30 666 O 62.0752 2.8638 -2.81691 0
M  V30 667 N 60.2812 1.58198 -2.43766 0
M  V30 668 H 59.8282 0.68872 -2.48222 0
M  V30 669 H 59.7862 2.36752 -2.06871 0
M  V30 670 N 63.5583 1.46682 -0.576371 0
M  V30 671 C 64.5213 2.28707 0.150239 0
M  V30 672 C 65.5213 1.38035 0.824794 0
M  V30 673 O 66.7113 1.60476 0.677719 0
M  V30 674 C 63.8433 3.18248 1.22192 0
M  V30 675 H 65.0363 2.94423 -0.570521 0
M  V30 676 H 62.5893 1.52688 -0.334078 0
M  V30 677 H 63.3243 2.57265 1.97447 0
M  V30 678 H 63.1093 3.85 0.742812 0
M  V30 679 H 64.5993 3.80001 1.73172 0
M  V30 680 N 65.0364 0.313813 1.54444 0
M  V30 681 C 65.9864 -0.571898 2.20711 0
M  V30 682 C 66.9704 -1.08913 1.18435 0
M  V30 683 O 68.1624 -1.02777 1.44104 0
M  V30 684 C 65.2914 -1.7371 2.96108 0
M  V30 685 C 64.3774 -1.23522 4.05713 0
M  V30 686 N 64.7684 -0.452288 5.03774 0
M  V30 687 C 63.0664 -1.51482 4.19487 0
M  V30 688 C 63.7674 -0.183438 5.81411 0
M  V30 689 N 62.7434 -0.766845 5.38164 0
M  V30 690 H 66.5454 0.0336802 2.93881 0
M  V30 691 H 64.0594 0.119192 1.61962 0
M  V30 692 H 66.0564 -2.38329 3.4206 0
M  V30 693 H 64.7164 -2.34625 2.24458 0
M  V30 694 H 65.7274 -0.0960131 5.17811 0
M  V30 695 H 62.4044 -2.13053 3.59047 0
M  V30 696 H 63.7944 0.446216 6.70417 0
M  V30 697 N 66.5145 -1.57545 0.0417849 0
M  V30 698 C 67.7425 -1.96624 -0.643928 0
M  V30 699 C 68.1575 -0.918897 -1.64929 0
M  V30 700 O 67.5145 0.0979323 -1.82237 0
M  V30 701 C 67.5655 -3.35781 -1.33914 0
M  V30 702 O 67.2865 -4.365 -0.374048 0
M  V30 703 C 68.7875 -3.89566 -2.1155 0
M  V30 704 H 66.0075 -0.647316 -0.176702 0
M  V30 705 H 68.5515 -2.04229 0.105304 0
M  V30 706 H 66.7065 -3.29357 -2.03968 0
M  V30 707 H 67.1205 -5.17248 -0.869179 0
M  V30 708 H 68.5945 -4.89242 -2.55628 0
M  V30 709 H 69.0715 -3.24488 -2.9598 0
M  V30 710 H 69.6775 -3.99298 -1.46427 0
M  V30 711 N 67.9926 0.231505 -1.5589 0
M  V30 712 C 69.2176 0.978689 -1.82856 0
M  V30 713 C 69.6426 1.77559 -0.620846 0
M  V30 714 O 69.0006 1.76119 0.430305 0
M  V30 715 C 69.0486 1.87997 -3.07716 0
M  V30 716 O 68.1526 2.97393 -2.85712 0
M  V30 717 H 67.4936 0.277663 -0.603158 0
M  V30 718 H 70.0236 0.24783 -2.03093 0
M  V30 719 H 70.0336 2.2917 -3.37558 0
M  V30 720 H 68.7086 1.29417 -3.95252 0
M  V30 721 H 67.2856 2.60238 -2.67078 0
M  V30 722 N 69.4707 1.49531 0.497807 0
M  V30 723 C 70.3807 1.69176 1.62532 0
M  V30 724 C 71.3967 0.5744 1.64246 0
M  V30 725 O 72.5727 0.849497 1.82608 0
M  V30 726 C 69.6377 1.75695 2.98885 0
M  V30 727 C 68.6987 2.9929 3.07773 0
M  V30 728 C 67.9317 3.05488 4.37622 0
M  V30 729 O 68.1547 2.19192 5.26603 0
M  V30 730 O 67.0887 3.9798 4.51548 0
M  V30 731 H 70.9147 2.647 1.48887 0
M  V30 732 H 68.4997 1.3331 0.674441 0
M  V30 733 H 70.3817 1.82317 3.79919 0
M  V30 734 H 69.0567 0.8335 3.12785 0
M  V30 735 H 67.9637 2.98183 2.25915 0
M  V30 736 H 69.2967 3.91125 2.98801 0
M  V30 737 N 70.9488 -0.749086 1.3866 0
M  V30 738 C 72.1948 -1.51056 1.35314 0
M  V30 739 C 72.5278 -1.94121 -0.0553751 0
M  V30 740 O 71.8028 -1.65763 -1.01749 0
M  V30 741 C 72.0858 -2.76003 2.31288 0
M  V30 742 C 71.9388 -2.39047 3.8102 0
M  V30 743 C 73.2578 -3.78046 2.2532 0
M  V30 744 H 70.3768 -0.547972 0.492844 0
M  V30 745 H 73.0188 -0.857628 1.69543 0
M  V30 746 H 71.1688 -3.31716 2.02229 0
M  V30 747 H 72.8408 -1.89074 4.20771 0
M  V30 748 H 71.0838 -1.71449 3.98482 0
M  V30 749 H 71.7548 -3.28462 4.4364 0
M  V30 750 H 74.2308 -3.31884 2.50983 0
M  V30 751 H 73.1068 -4.63159 2.94576 0
M  V30 752 H 73.3678 -4.23957 1.25352 0
M  V30 753 N 72.4269 -1.23603 -0.977757 0
M  V30 754 C 73.6729 -1.07129 -1.72195 0
M  V30 755 C 74.0059 0.390501 -1.90233 0
M  V30 756 O 73.2809 1.28902 -1.45653 0
M  V30 757 C 73.5639 -1.80031 -3.11867 0
M  V30 758 C 73.4169 -3.33899 -3.01383 0
M  V30 759 C 74.7359 -1.56492 -4.11337 0
M  V30 760 H 71.8549 -0.390571 -0.624999 0
M  V30 761 H 74.4969 -1.52142 -1.13811 0
M  V30 762 H 72.6469 -1.41768 -3.6171 0
M  V30 763 H 74.3189 -3.81699 -2.59043 0
M  V30 764 H 72.5619 -3.62796 -2.37827 0
M  V30 765 H 73.2329 -3.801 -4.00285 0
M  V30 766 H 75.7089 -1.89757 -3.70313 0
M  V30 767 H 74.5849 -2.09973 -5.07151 0
M  V30 768 H 74.8459 -0.500874 -4.39254 0
M  V30 769 N 73.905 1.17692 -1.04816 0
M  V30 770 C 74.868 2.19787 -0.650117 0
M  V30 771 C 75.868 1.58044 0.296427 0
M  V30 772 O 77.058 1.74012 0.0808097 0
M  V30 773 C 74.19 3.40869 0.0456987 0
M  V30 774 H 75.383 2.56516 -1.5537 0
M  V30 775 H 72.936 1.31708 -0.841594 0
M  V30 776 H 73.671 3.09681 0.962726 0
M  V30 777 H 73.456 3.86928 -0.634727 0
M  V30 778 H 74.946 4.16445 0.310432 0
M  V30 779 N 75.3831 0.828654 1.34056 0
M  V30 780 C 76.6321 0.415828 1.97367 0
M  V30 781 C 76.9451 -1.02796 1.6641 0
M  V30 782 O 78.1511 -1.54497 2.23255 0
M  V30 783 C 76.6071 0.692601 3.53173 0
M  V30 784 C 76.2151 2.15038 3.93017 0
M  V30 785 C 77.9591 0.346222 4.23086 0
M  V30 786 C 75.8661 2.37174 5.41758 0
M  V30 787 H 74.7961 0.151755 0.738571 0
M  V30 788 H 77.4471 1.01581 1.52819 0
M  V30 789 H 75.8291 0.0223764 3.95994 0
M  V30 790 H 77.0031 2.86024 3.61285 0
M  V30 791 H 75.3181 2.45875 3.36057 0
M  V30 792 H 77.9151 0.48937 5.32456 0
M  V30 793 H 78.2581 -0.709842 4.10204 0
M  V30 794 H 78.7911 0.971258 3.85761 0
M  V30 795 H 75.5301 3.41308 5.59633 0
M  V30 796 H 75.0501 1.70738 5.74986 0
M  V30 797 H 76.7291 2.19818 6.08514 0
M  V30 798 N 76.8612 -1.46375 0.584142 0
M  V30 799 C 77.8082 -2.30323 -0.148286 0
M  V30 800 C 78.7782 -1.40703 -0.882713 0
M  V30 801 O 79.9632 -1.69651 -0.873099 0
M  V30 802 C 77.1032 -3.25196 -1.15507 0
M  V30 803 C 76.2162 -4.29915 -0.423943 0
M  V30 804 C 75.3512 -5.11914 -1.41838 0
M  V30 805 C 74.3902 -6.08381 -0.673736 0
M  V30 806 N 73.5272 -6.83242 -1.6163 0
M  V30 807 H 78.3672 -2.92427 0.573644 0
M  V30 808 H 75.9042 -1.44118 0.294703 0
M  V30 809 H 77.8622 -3.78646 -1.75166 0
M  V30 810 H 76.4922 -2.64898 -1.8447 0
M  V30 811 H 75.5442 -3.7931 0.287714 0
M  V30 812 H 76.8562 -4.98549 0.158128 0
M  V30 813 H 76.0102 -5.69648 -2.08773 0
M  V30 814 H 74.7492 -4.43243 -2.03438 0
M  V30 815 H 73.7542 -5.49799 0.00938483 0
M  V30 816 H 74.9792 -6.79071 -0.0631082 0
M  V30 817 H 72.9252 -6.1728 -2.22038 0
M  V30 818 H 72.8422 -7.48144 -1.08707 0
M  V30 819 H 74.1102 -7.45534 -2.27596 0
M  V30 820 N 78.3393 -0.321999 -1.54275 0
M  V30 821 C 79.2863 0.544664 -2.24281 0
M  V30 822 C 80.2563 1.1129 -1.23303 0
M  V30 823 O 81.4413 1.15354 -1.51981 0
M  V30 824 C 78.5813 1.70045 -3.00298 0
M  V30 825 C 77.6943 1.16159 -4.1609 0
M  V30 826 C 76.8293 2.28293 -4.79641 0
M  V30 827 C 75.8683 1.71648 -5.8754 0
M  V30 828 N 75.0053 2.77438 -6.44959 0
M  V30 829 H 79.8453 -0.0588907 -2.97942 0
M  V30 830 H 77.3823 -0.0408345 -1.47043 0
M  V30 831 H 79.3403 2.38054 -3.42616 0
M  V30 832 H 77.9703 2.27531 -2.28975 0
M  V30 833 H 77.0223 0.373092 -3.78566 0
M  V30 834 H 78.3343 0.707087 -4.93763 0
M  V30 835 H 77.4883 3.0421 -5.2492 0
M  V30 836 H 76.2273 2.77079 -4.01346 0
M  V30 837 H 75.2323 0.942282 -5.41665 0
M  V30 838 H 76.4573 1.23741 -6.67731 0
M  V30 839 H 74.4033 3.25519 -5.69538 0
M  V30 840 H 74.3203 2.36547 -7.1804 0
M  V30 841 H 75.5883 3.53189 -6.94894 0
M  V30 842 N 79.8174 1.5752 -0.0501392 0
M  V30 843 C 80.7504 2.07026 0.959962 0
M  V30 844 C 81.7284 0.970539 1.30458 0
M  V30 845 O 82.9124 1.2424 1.41763 0
M  V30 846 C 80.0394 2.5099 2.27424 0
M  V30 847 C 79.0854 3.72188 2.08275 0
M  V30 848 S 79.9184 5.17888 1.36207 0
M  V30 849 C 81.0744 5.65165 2.6896 0
M  V30 850 H 81.3074 2.9238 0.538631 0
M  V30 851 H 78.8404 1.53547 0.162099 0
M  V30 852 H 80.7984 2.76982 3.02971 0
M  V30 853 H 79.4594 1.65944 2.66686 0
M  V30 854 H 78.6524 4.00866 3.05487 0
M  V30 855 H 78.2544 3.46457 1.40868 0
M  V30 856 H 80.5464 5.70687 3.65133 0
M  V30 857 H 81.4894 6.64394 2.4492 0
M  V30 858 H 81.8974 4.9289 2.75172 0
M  V30 859 N 81.2955 -0.223234 1.56011 0
M  V30 860 C 82.5205 -0.968978 1.83373 0
M  V30 861 C 82.9455 -1.77227 0.630254 0
M  V30 862 O 82.3035 -1.76345 -0.420959 0
M  V30 863 C 82.3515 -1.86363 3.08709 0
M  V30 864 O 81.4555 -2.95873 2.87285 0
M  V30 865 H 80.7965 -0.274461 0.604622 0
M  V30 866 H 83.3265 -0.237056 2.03222 0
M  V30 867 H 83.3365 -2.27376 3.38768 0
M  V30 868 H 82.0115 -1.27319 3.95933 0
M  V30 869 H 80.5885 -2.58818 2.68454 0
M  V30 870 N 82.7736 -1.49793 -0.48987 0
M  V30 871 C 84.0036 -1.6333 -1.26518 0
M  V30 872 C 84.4116 -0.308392 -1.8667 0
M  V30 873 O 83.7546 0.717512 -1.69108 0
M  V30 874 C 83.8166 -2.6522 -2.4269 0
M  V30 875 C 83.4806 -4.09279 -2.03321 0
M  V30 876 C 84.4776 -4.95738 -1.56652 0
M  V30 877 C 82.1626 -4.55082 -2.12616 0
M  V30 878 C 84.1566 -6.26041 -1.19795 0
M  V30 879 C 81.8436 -5.85396 -1.75371 0
M  V30 880 C 82.8416 -6.707 -1.29036 0
M  V30 881 O 82.5296 -7.98584 -0.92299 0
M  V30 882 H 82.2616 -0.552502 -0.389509 0
M  V30 883 H 84.8156 -1.96642 -0.593381 0
M  V30 884 H 83.0456 -2.27112 -3.12981 0
M  V30 885 H 84.7346 -2.68171 -3.04695 0
M  V30 886 H 85.5006 -4.61575 -1.48908 0
M  V30 887 H 81.3796 -3.88844 -2.47631 0
M  V30 888 H 84.9236 -6.92578 -0.835582 0
M  V30 889 H 80.8206 -6.19085 -1.82768 0
M  V30 890 H 81.5886 -8.11692 -1.05349 0
M  V30 891 N 84.2517 0.741722 -1.39055 0
M  V30 892 C 85.4767 1.53607 -1.39354 0
M  V30 893 C 85.9017 1.88096 0.0116905 0
M  V30 894 O 85.2597 1.5143 0.996924 0
M  V30 895 C 85.3077 2.80441 -2.26682 0
M  V30 896 O 84.4117 3.76088 -1.69208 0
M  V30 897 H 83.7527 0.464142 -0.474835 0
M  V30 898 H 86.2827 0.915665 -1.82967 0
M  V30 899 H 86.2927 3.29246 -2.40959 0
M  V30 900 H 84.9677 2.5467 -3.2881 0
M  V30 901 H 83.5447 3.34833 -1.64138 0
M  V30 902 N 85.7298 1.2412 0.971189 0
M  V30 903 C 86.9778 1.07668 1.71032 0
M  V30 904 C 87.2988 -0.385797 1.91146 0
M  V30 905 O 86.5688 -1.27569 1.4867 0
M  V30 906 H 85.1488 0.395429 0.633755 0
M  V30 907 H 87.8108 1.55984 1.16855 0
M  V30 908 H 86.9068 1.57195 2.69622 0
M  V30 909 N 87.2079 -1.17134 1.05439 0
M  V30 910 C 88.1549 -2.21235 0.657539 0
M  V30 911 C 89.1249 -1.62551 -0.341543 0
M  V30 912 O 90.3099 -1.89379 -0.232393 0
M  V30 913 C 87.4499 -3.45076 0.0410575 0
M  V30 914 C 86.5629 -4.18042 1.08927 0
M  V30 915 C 85.6979 -5.29376 0.439848 0
M  V30 916 C 84.7369 -5.94132 1.4722 0
M  V30 917 N 83.8739 -6.96975 0.846756 0
M  V30 918 H 88.7139 -2.54534 1.54972 0
M  V30 919 H 86.2509 -1.25028 0.775006 0
M  V30 920 H 88.2089 -4.15862 -0.33383 0
M  V30 921 H 86.8389 -3.12353 -0.814568 0
M  V30 922 H 85.8909 -3.45945 1.58196 0
M  V30 923 H 87.2029 -4.62306 1.87282 0
M  V30 924 H 86.3569 -6.06699 0.0115125 0
M  V30 925 H 85.0959 -4.86251 -0.375656 0
M  V30 926 H 84.1009 -5.15538 1.91052 0
M  V30 927 H 85.3259 -6.39337 2.28965 0
M  V30 928 H 83.2719 -6.5598 0.0518075 0
M  V30 929 H 83.1889 -7.39565 1.5678 0
M  V30 930 H 84.4569 -7.78239 0.443277 0
M  V30 931 N 88.686 -0.835752 -1.33615 0
M  V30 932 C 89.618 -0.224151 -2.28101 0
M  V30 933 C 90.631 0.593331 -1.51603 0
M  V30 934 O 91.82 0.420911 -1.73466 0
M  V30 935 C 88.92 0.703309 -3.31522 0
M  V30 936 C 88.093 -0.0741528 -4.37337 0
M  V30 937 C 87.152 0.776176 -5.20444 0
M  V30 938 O 86.178 0.216506 -5.68788 0
M  V30 939 N 87.38 2.09401 -5.41416 0
M  V30 940 H 90.145 -1.03598 -2.81225 0
M  V30 941 H 87.706 -0.69392 -1.46275 0
M  V30 942 H 89.698 1.27707 -3.84022 0
M  V30 943 H 88.268 1.41585 -2.78698 0
M  V30 944 H 87.488 -0.82928 -3.85378 0
M  V30 945 H 88.776 -0.608863 -5.05144 0
M  V30 946 H 88.174 2.57229 -5.03835 0
M  V30 947 H 86.731 2.61633 -5.96985 0
M  V30 948 N 90.1641 1.46063 -0.591896 0
M  V30 949 C 91.3921 2.06717 -0.0868936 0
M  V30 950 C 91.8071 1.43916 1.22203 0
M  V30 951 O 91.1641 0.547698 1.74088 0
M  V30 952 C 91.2151 3.6142 0.0758725 0
M  V30 953 O 90.9361 4.21874 -1.18126 0
M  V30 954 C 92.4371 4.39025 0.61416 0
M  V30 955 H 89.6571 0.668162 -0.0616518 0
M  V30 956 H 92.2011 1.8755 -0.815175 0
M  V30 957 H 90.3561 3.79983 0.754413 0
M  V30 958 H 90.7701 5.14861 -1.00092 0
M  V30 959 H 92.2441 5.4783 0.677193 0
M  V30 960 H 92.7211 4.07708 1.63312 0
M  V30 961 H 93.3271 4.2529 -0.0298142 0
M  V30 962 N 91.6422 0.330177 1.54103 0
M  V30 963 C 92.5922 -0.548456 2.21305 0
M  V30 964 C 93.5762 -1.07651 1.19583 0
M  V30 965 O 94.7682 -1.01243 1.45186 0
M  V30 966 C 91.8972 -1.70559 2.97934 0
M  V30 967 C 90.9832 -1.19212 4.07 0
M  V30 968 N 91.3742 -0.398831 5.04225 0
M  V30 969 C 89.6722 -1.47024 4.2107 0
M  V30 970 C 90.3732 -0.121761 5.81573 0
M  V30 971 N 89.3492 -0.709722 5.38947 0
M  V30 972 H 93.1512 0.0648483 2.93828 0
M  V30 973 H 90.6652 0.136363 1.61826 0
M  V30 974 H 92.6622 -2.34688 3.44568 0
M  V30 975 H 91.3222 -2.32231 2.26934 0
M  V30 976 H 92.3332 -0.0410869 5.17884 0
M  V30 977 H 89.0102 -2.09232 3.61287 0
M  V30 978 H 90.4002 0.517298 6.69906 0
M  V30 979 N 93.1203 -1.57491 0.0584922 0
M  V30 980 C 94.0303 -2.15448 -0.928414 0
M  V30 981 C 95.0463 -1.11416 -1.3365 0
M  V30 982 O 96.2223 -1.4362 -1.41193 0
M  V30 983 C 93.2873 -2.69393 -2.18239 0
M  V30 984 C 92.3483 -3.88249 -1.83196 0
M  V30 985 C 91.5813 -4.39613 -3.02616 0
M  V30 986 O 91.8043 -3.90023 -4.16219 0
M  V30 987 O 90.7383 -5.31111 -2.83204 0
M  V30 988 H 94.5643 -3.00112 -0.465483 0
M  V30 989 H 92.1493 -1.48499 -0.163826 0
M  V30 990 H 94.0313 -3.04026 -2.91798 0
M  V30 991 H 92.7063 -1.87796 -2.63656 0
M  V30 992 H 91.6133 -3.58492 -1.06931 0
M  V30 993 H 92.9463 -4.71098 -1.42573 0
M  V30 994 N 94.5984 0.214957 -1.56127 0
M  V30 995 C 95.5454 1.26642 -1.92952 0
M  V30 996 C 96.5154 1.46244 -0.78753 0
M  V30 997 O 97.7004 1.59704 -1.04399 0
M  V30 998 C 94.8404 2.6104 -2.25726 0
M  V30 999 C 93.9534 2.49183 -3.52891 0
M  V30 1000 C 93.0884 3.76149 -3.7508 0
M  V30 1001 C 92.1274 3.59041 -4.95738 0
M  V30 1002 N 91.2644 4.77972 -5.14283 0
M  V30 1003 H 96.1044 0.945384 -2.82607 0
M  V30 1004 H 93.6414 0.455489 -1.3987 0
M  V30 1005 H 95.5994 3.39313 -2.42739 0
M  V30 1006 H 94.2294 2.91227 -1.39236 0
M  V30 1007 H 93.2814 1.6231 -3.44034 0
M  V30 1008 H 94.5934 2.32466 -4.41318 0
M  V30 1009 H 93.7474 4.62865 -3.92226 0
M  V30 1010 H 92.4864 3.95799 -2.84947 0
M  V30 1011 H 91.4914 2.7071 -4.78535 0
M  V30 1012 H 92.7164 3.40856 -5.87362 0
M  V30 1013 H 90.6624 4.97923 -4.27093 0
M  V30 1014 H 90.5794 4.64006 -5.96853 0
M  V30 1015 H 91.8474 5.66096 -5.35869 0
M  V30 1016 N 96.0765 1.50051 0.48192 0
M  V30 1017 C 97.3225 1.61706 1.2338 0
M  V30 1018 C 97.6775 0.308488 1.89911 0
M  V30 1019 O 96.9705 -0.692798 1.78636 0
M  V30 1020 C 97.1645 2.72717 2.30998 0
M  V30 1021 C 96.9935 4.14242 1.75024 0
M  V30 1022 C 95.7635 4.80786 1.55476 0
M  V30 1023 C 97.9615 4.98846 1.25128 0
M  V30 1024 N 95.9435 6.06563 0.946311 0
M  V30 1025 C 97.3145 6.15258 0.765382 0
M  V30 1026 C 99.3695 4.84702 1.13881 0
M  V30 1027 C 98.0725 7.19079 0.178113 0
M  V30 1028 C 100.098 5.8869 0.565486 0
M  V30 1029 C 99.4605 7.04343 0.0899105 0
M  V30 1030 H 95.5595 0.645958 0.440753 0
M  V30 1031 H 98.1435 1.8713 0.537624 0
M  V30 1032 H 96.3145 2.49033 2.98055 0
M  V30 1033 H 98.0465 2.73789 2.9803 0
M  V30 1034 H 94.8015 4.37899 1.80392 0
M  V30 1035 H 95.2255 6.73767 0.660812 0
M  V30 1036 H 99.8675 3.95583 1.49244 0
M  V30 1037 H 97.5855 8.07882 -0.187749 0
M  V30 1038 H 101.171 5.79808 0.480974 0
M  V30 1039 H 100.051 7.83433 -0.346782 0
M  V30 1040 N 97.5546 -0.734337 1.39446 0
M  V30 1041 C 98.4866 -1.85861 1.34121 0
M  V30 1042 C 99.4996 -1.60871 0.249864 0
M  V30 1043 O 100.689 -1.71093 0.508865 0
M  V30 1044 C 97.7886 -3.21899 1.05991 0
M  V30 1045 C 96.9616 -3.74239 2.26415 0
M  V30 1046 C 96.0206 -4.88841 1.94733 0
M  V30 1047 O 95.0466 -5.02468 2.67422 0
M  V30 1048 N 96.2486 -5.73261 0.913884 0
M  V30 1049 H 99.0136 -1.90934 2.31007 0
M  V30 1050 H 96.5746 -0.915102 1.33557 0
M  V30 1051 H 98.5666 -3.96136 0.828147 0
M  V30 1052 H 97.1366 -3.12091 0.178361 0
M  V30 1053 H 96.3566 -2.91347 2.65539 0
M  V30 1054 H 97.6446 -4.05942 3.06738 0
M  V30 1055 H 97.0426 -5.64842 0.311476 0
M  V30 1056 H 95.5996 -6.47563 0.742015 0
M  V30 1057 N 99.0327 -1.24633 -0.964593 0
M  V30 1058 C 100.31 -0.995809 -1.68354 0
M  V30 1059 C 100.69 0.480964 -2.05548 0
M  V30 1060 O 100.038 1.45599 -1.76105 0
M  V30 1061 C 100.248 -1.92177 -2.91323 0
M  V30 1062 C 101.596 -2.19446 -3.63495 0
M  V30 1063 O 102.62 -1.89855 -3.01386 0
M  V30 1064 O 101.479 -2.69714 -4.75307 0
M  V30 1065 H 98.5727 -0.376854 -0.736146 0
M  V30 1066 H 101.119 -1.35745 -1.0184 0
M  V30 1067 H 99.8907 -2.91938 -2.60553 0
M  V30 1068 H 99.5137 -1.56349 -3.65569 0
M  V30 1069 N 100.511 1.16574 -1.06058 0
M  V30 1070 C 101.76 1.86385 -0.770944 0
M  V30 1071 C 102.073 1.82448 0.705129 0
M  V30 1072 O 103.279 2.47815 1.10905 0
M  V30 1073 C 101.735 3.34466 -1.32893 0
M  V30 1074 C 101.343 3.46883 -2.83507 0
M  V30 1075 C 103.087 4.09548 -1.11672 0
M  V30 1076 C 100.994 4.89036 -3.32562 0
M  V30 1077 H 99.9238 0.698181 -0.284709 0
M  V30 1078 H 102.575 1.31583 -1.27899 0
M  V30 1079 H 100.957 3.88859 -0.748662 0
M  V30 1080 H 102.131 3.02663 -3.47465 0
M  V30 1081 H 100.446 2.85232 -3.03368 0
M  V30 1082 H 103.043 5.14434 -1.45814 0
M  V30 1083 H 103.386 4.16264 -0.0549535 0
M  V30 1084 H 103.919 3.61387 -1.66265 0
M  V30 1085 H 100.658 4.87499 -4.38207 0
M  V30 1086 H 100.178 5.3389 -2.73351 0
M  V30 1087 H 101.857 5.57843 -3.2775 0
M  V30 1088 N 101.989 0.842826 1.3317 0
M  V30 1089 C 102.919 0.294028 2.31641 0
M  V30 1090 C 103.9 -0.600401 1.59151 0
M  V30 1091 O 105.085 -0.523124 1.87022 0
M  V30 1092 C 102.215 -0.528416 3.43257 0
M  V30 1093 C 101.169 0.27056 4.27144 0
M  V30 1094 C 100.495 -0.675881 5.30411 0
M  V30 1095 C 101.795 1.48981 5.00602 0
M  V30 1096 H 103.489 1.11681 2.77791 0
M  V30 1097 H 101.035 0.538478 1.33553 0
M  V30 1098 H 102.988 -0.922674 4.11175 0
M  V30 1099 H 101.712 -1.38445 2.95805 0
M  V30 1100 H 100.371 0.646427 3.60856 0
M  V30 1101 H 100.019 -1.52842 4.79216 0
M  V30 1102 H 99.7189 -0.145374 5.8742 0
M  V30 1103 H 101.243 -1.06757 6.01195 0
M  V30 1104 H 102.657 1.16849 5.61266 0
M  V30 1105 H 101.054 1.95739 5.6728 0
M  V30 1106 H 102.124 2.25746 4.29147 0
M  V30 1107 N 103.467 -1.45747 0.599634 0
M  V30 1108 C 104.414 -2.30467 -0.123849 0
M  V30 1109 C 105.384 -1.41632 -0.86774 0
M  V30 1110 O 106.569 -1.70568 -0.855056 0
M  V30 1111 C 103.709 -3.26402 -1.12051 0
M  V30 1112 C 102.822 -4.3034 -0.37832 0
M  V30 1113 C 101.957 -5.13389 -1.364 0
M  V30 1114 C 100.996 -6.09061 -0.609171 0
M  V30 1115 N 100.133 -6.84918 -1.54374 0
M  V30 1116 H 104.973 -2.91802 0.604627 0
M  V30 1117 H 102.51 -1.43797 0.309972 0
M  V30 1118 H 104.468 -3.80482 -1.7114 0
M  V30 1119 H 103.098 -2.66839 -1.8165 0
M  V30 1120 H 102.15 -3.78984 0.327929 0
M  V30 1121 H 103.462 -4.98354 0.210997 0
M  V30 1122 H 102.616 -5.7183 -2.02719 0
M  V30 1123 H 101.355 -4.45376 -1.98725 0
M  V30 1124 H 100.36 -5.49758 0.0676979 0
M  V30 1125 H 101.585 -6.79099 0.00891991 0
M  V30 1126 H 99.531 -6.19601 -2.15478 0
M  V30 1127 H 99.448 -7.49254 -1.00766 0
M  V30 1128 H 100.716 -7.47906 -2.19676 0
M  V30 1129 N 104.945 -0.338344 -1.53925 0
M  V30 1130 C 105.855 0.529421 -2.28548 0
M  V30 1131 C 106.871 1.11645 -1.3346 0
M  V30 1132 O 108.047 1.13325 -1.66492 0
M  V30 1133 C 105.112 1.66713 -3.03987 0
M  V30 1134 C 104.173 1.11041 -4.14691 0
M  V30 1135 C 103.406 2.19389 -4.86522 0
M  V30 1136 O 103.629 3.40013 -4.57982 0
M  V30 1137 O 102.563 1.83976 -5.73094 0
M  V30 1138 H 106.389 -0.0770399 -3.03602 0
M  V30 1139 H 103.974 -0.103555 -1.49041 0
M  V30 1140 H 105.856 2.32918 -3.5118 0
M  V30 1141 H 104.531 2.25949 -2.31794 0
M  V30 1142 H 103.438 0.413024 -3.71813 0
M  V30 1143 H 104.771 0.562975 -4.8897 0
M  V30 1144 N 106.423 1.57458 -0.0668435 0
M  V30 1145 C 107.669 1.93587 0.6043 0
M  V30 1146 C 108.002 0.946722 1.69561 0
M  V30 1147 O 107.277 -0.0248516 1.94484 0
M  V30 1148 C 107.56 3.40014 1.18585 0
M  V30 1149 C 107.413 4.49685 0.101529 0
M  V30 1150 C 108.732 3.87154 2.09284 0
M  V30 1151 H 105.851 0.703958 0.218202 0
M  V30 1152 H 108.493 1.89542 -0.131804 0
M  V30 1153 H 106.643 3.43592 1.81319 0
M  V30 1154 H 108.315 4.5823 -0.531279 0
M  V30 1155 H 106.558 4.30059 -0.568487 0
M  V30 1156 H 107.229 5.49266 0.54874 0
M  V30 1157 H 109.705 3.85551 1.56491 0
M  V30 1158 H 108.581 4.90231 2.46911 0
M  V30 1159 H 108.842 3.2481 2.99918 0
M  V30 1160 N 107.901 -0.206675 1.56239 0
M  V30 1161 C 108.848 -1.25617 1.93621 0
M  V30 1162 C 109.818 -1.45824 0.795274 0
M  V30 1163 O 111.003 -1.59148 1.05245 0
M  V30 1164 C 108.143 -2.59839 2.27107 0
M  V30 1165 C 107.256 -2.47308 3.54207 0
M  V30 1166 C 106.391 -3.74155 3.7707 0
M  V30 1167 C 105.43 -3.56407 4.97635 0
M  V30 1168 N 104.567 -4.75238 5.1681 0
M  V30 1169 H 109.407 -0.930383 2.83104 0
M  V30 1170 H 106.944 -0.448065 1.4011 0
M  V30 1171 H 108.902 -3.38021 2.44535 0
M  V30 1172 H 107.532 -2.90485 1.40778 0
M  V30 1173 H 106.584 -1.60483 3.4489 0
M  V30 1174 H 107.896 -2.30122 4.42544 0
M  V30 1175 H 107.05 -4.60778 3.94675 0
M  V30 1176 H 105.789 -3.94282 2.87042 0
M  V30 1177 H 104.794 -2.68168 4.79964 0
M  V30 1178 H 106.019 -3.37736 5.89161 0
M  V30 1179 H 103.965 -4.95651 4.29728 0
M  V30 1180 H 103.882 -4.60835 5.99306 0
M  V30 1181 H 105.15 -5.63246 5.38864 0
M  V30 1182 N 109.379 -1.50304 -0.473955 0
M  V30 1183 C 110.626 -1.6115 -1.22625 0
M  V30 1184 C 110.954 -0.310517 -1.92005 0
M  V30 1185 O 110.209 0.703419 -1.82621 0
M  V30 1186 C 110.508 -2.73938 -2.29549 0
M  V30 1187 C 110.174 -4.14519 -1.7744 0
M  V30 1188 C 108.836 -4.5277 -1.62949 0
M  V30 1189 C 111.188 -5.02392 -1.3875 0
M  V30 1190 C 108.516 -5.76639 -1.08187 0
M  V30 1191 C 110.868 -6.26805 -0.854309 0
M  V30 1192 C 109.532 -6.63861 -0.696011 0
M  V30 1193 H 108.802 -0.589691 -0.448715 0
M  V30 1194 H 111.449 -1.84228 -0.522705 0
M  V30 1195 H 109.754 -2.44937 -3.05799 0
M  V30 1196 H 111.451 -2.79534 -2.87509 0
M  V30 1197 H 108.041 -3.8434 -1.89685 0
M  V30 1198 H 112.225 -4.73474 -1.4878 0
M  V30 1199 H 107.481 -6.04027 -0.946666 0
M  V30 1200 H 111.655 -6.94258 -0.545843 0
M  V30 1201 H 109.282 -7.59722 -0.26952 0
M  V30 1202 N 110.857 0.726932 -1.39834 0
M  V30 1203 C 111.787 1.85405 -1.41941 0
M  V30 1204 C 112.768 1.67751 -0.281728 0
M  V30 1205 O 113.953 1.8795 -0.488717 0
M  V30 1206 C 111.083 3.23243 -1.2701 0
M  V30 1207 C 110.037 3.55549 -2.38262 0
M  V30 1208 C 109.363 4.9241 -2.08415 0
M  V30 1209 C 110.663 3.577 -3.80589 0
M  V30 1210 H 112.357 1.83899 -2.36266 0
M  V30 1211 H 109.903 0.883349 -1.13723 0
M  V30 1212 H 111.856 4.01775 -1.27103 0
M  V30 1213 H 110.58 3.25296 -0.291564 0
M  V30 1214 H 109.239 2.79351 -2.37399 0
M  V30 1215 H 108.887 4.91052 -1.0898 0
M  V30 1216 H 108.587 5.14992 -2.82943 0
M  V30 1217 H 110.111 5.73289 -2.10171 0
M  V30 1218 H 111.525 4.26293 -3.83337 0
M  V30 1219 H 109.922 3.91804 -4.54543 0
M  V30 1220 H 110.992 2.57328 -4.10987 0
M  V30 1221 N 112.336 1.25143 0.95797 0
M  V30 1222 C 113.752 1.01892 1.22842 0
M  V30 1223 C 113.952 -0.266311 1.99732 0
M  V30 1224 O 113.008 -0.979913 2.3271 0
M  V30 1225 C 114.321 2.24004 2.00606 0
M  V30 1226 C 115.869 2.28731 2.13662 0
M  V30 1227 C 116.344 3.5049 2.94823 0
M  V30 1228 N 117.835 3.50866 3.02403 0
M  V30 1229 C 118.57 4.4174 3.65586 0
M  V30 1230 N 118.066 5.42882 4.30408 0
M  V30 1231 N 119.859 4.29429 3.62694 0
M  V30 1232 H 112.01 2.07718 0.443493 0
M  V30 1233 H 114.273 0.912031 0.258657 0
M  V30 1234 H 113.979 3.17395 1.51503 0
M  V30 1235 H 113.853 2.26907 3.01319 0
M  V30 1236 H 116.24 1.35865 2.61963 0
M  V30 1237 H 116.321 2.29848 1.12265 0
M  V30 1238 H 115.965 4.43676 2.47213 0
M  V30 1239 H 115.895 3.46617 3.96439 0
M  V30 1240 H 118.386 2.777 2.56302 0
M  V30 1241 H 118.699 6.0844 4.76467 0
M  V30 1242 H 117.044 5.46758 4.29047 0
M  V30 1243 H 120.235 3.49643 3.11236 0
M  V30 1244 H 120.408 5.00448 4.1165 0
M  V30 1245 N 113.814 -1.1601 1.06675 0
M  V30 1246 C 114.746 -2.20115 0.638921 0
M  V30 1247 C 115.759 -1.59916 -0.305057 0
M  V30 1248 O 116.948 -1.78245 -0.0954446 0
M  V30 1249 C 114.048 -3.38798 -0.0830083 0
M  V30 1250 C 113.221 -4.2855 0.875426 0
M  V30 1251 C 112.28 -5.25849 0.192042 0
M  V30 1252 O 111.306 -5.63102 0.830921 0
M  V30 1253 N 112.508 -5.70648 -1.06493 0
M  V30 1254 H 115.273 -2.57439 1.53444 0
M  V30 1255 H 112.834 -1.31057 0.950557 0
M  V30 1256 H 114.826 -4.00936 -0.550685 0
M  V30 1257 H 113.396 -2.99947 -0.880386 0
M  V30 1258 H 112.616 -3.63617 1.52238 0
M  V30 1259 H 113.904 -4.85393 1.52548 0
M  V30 1260 H 113.302 -5.42482 -1.60405 0
M  V30 1261 H 111.859 -6.34859 -1.47641 0
M  V30 1262 N 115.292 -0.849877 -1.32721 0
M  V30 1263 C 116.222 -0.306308 -2.31482 0
M  V30 1264 C 117.203 0.591952 -1.59468 0
M  V30 1265 O 118.388 0.513199 -1.87296 0
M  V30 1266 C 115.518 0.510204 -3.43532 0
M  V30 1267 C 114.472 -0.293209 -4.26994 0
M  V30 1268 C 113.798 0.647743 -5.30762 0
M  V30 1269 C 115.098 -1.51634 -4.99804 0
M  V30 1270 H 116.792 -1.13153 -2.77195 0
M  V30 1271 H 114.338 -0.545553 -1.33266 0
M  V30 1272 H 116.291 0.900856 -4.11658 0
M  V30 1273 H 115.015 1.36874 -2.96535 0
M  V30 1274 H 113.674 -0.665555 -3.60508 0
M  V30 1275 H 113.322 1.50299 -4.8002 0
M  V30 1276 H 113.022 0.11422 -5.87489 0
M  V30 1277 H 114.546 1.03567 -6.01753 0
M  V30 1278 H 115.96 -1.19824 -5.60638 0
M  V30 1279 H 114.357 -1.98745 -5.66234 0
M  V30 1280 H 115.427 -2.28018 -4.27943 0
M  V30 1281 N 116.77 1.45427 -0.607355 0
M  V30 1282 C 117.717 2.3053 0.111625 0
M  V30 1283 C 118.687 1.4209 0.860216 0
M  V30 1284 O 119.872 1.71019 0.845998 0
M  V30 1285 C 117.012 3.26992 1.10319 0
M  V30 1286 C 116.125 4.30535 0.355493 0
M  V30 1287 C 115.26 5.14105 1.33676 0
M  V30 1288 C 114.299 6.09376 0.576862 0
M  V30 1289 N 113.436 6.85727 1.5074 0
M  V30 1290 H 118.276 2.91477 -0.620093 0
M  V30 1291 H 115.813 1.43631 -0.317594 0
M  V30 1292 H 117.771 3.81385 1.6912 0
M  V30 1293 H 116.401 2.67799 1.80232 0
M  V30 1294 H 115.453 3.78805 -0.348023 0
M  V30 1295 H 116.765 4.98235 -0.237423 0
M  V30 1296 H 115.919 5.72897 1.99684 0
M  V30 1297 H 114.658 4.46423 1.9636 0
M  V30 1298 H 113.663 5.49715 -0.0968519 0
M  V30 1299 H 114.888 6.79085 -0.0449341 0
M  V30 1300 H 112.834 6.20735 2.12189 0
M  V30 1301 H 112.751 7.49778 0.967913 0
M  V30 1302 H 114.019 7.4906 2.15706 0
M  V30 1303 N 118.248 0.346503 1.53744 0
M  V30 1304 C 119.198 -0.524953 2.21874 0
M  V30 1305 C 120.182 -1.06376 1.20718 0
M  V30 1306 O 121.374 -0.996972 1.46251 0
M  V30 1307 C 118.503 -1.6739 2.99726 0
M  V30 1308 C 117.589 -1.14888 4.08242 0
M  V30 1309 N 117.98 -0.345329 5.0462 0
M  V30 1310 C 116.278 -1.4255 4.22606 0
M  V30 1311 C 116.979 -0.0600706 5.81669 0
M  V30 1312 N 115.955 -0.65252 5.39669 0
M  V30 1313 H 119.757 0.0960091 2.93743 0
M  V30 1314 H 117.271 0.15352 1.61673 0
M  V30 1315 H 119.268 -2.3102 3.47038 0
M  V30 1316 H 117.928 -2.29811 2.29384 0
M  V30 1317 H 118.939 0.0138439 5.17898 0
M  V30 1318 H 115.616 -2.05389 3.63486 0
M  V30 1319 H 117.006 0.588321 6.69319 0
M  V30 1320 N 119.726 -1.57421 0.075193 0
M  V30 1321 C 121.137 -1.81021 -0.456964 0
M  V30 1322 C 121.488 -0.98936 -1.69429 0
M  V30 1323 O 120.613 -0.212865 -2.15351 0
M  V30 1324 C 121.208 -3.28329 -0.83581 0
M  V30 1325 C 119.767 -3.52764 -1.31281 0
M  V30 1326 C 118.914 -2.75676 -0.299648 0
M  V30 1327 H 121.865 -1.55822 0.300856 0
M  V30 1328 H 121.886 -3.40564 -1.69696 0
M  V30 1329 H 121.398 -3.88046 0.0649238 0
M  V30 1330 H 119.499 -2.98355 -2.23193 0
M  V30 1331 H 119.612 -4.61451 -1.28839 0
M  V30 1332 H 117.976 -2.42538 -0.777641 0
M  V30 1333 H 118.759 -3.38132 0.593417 0
M  V30 1334 N 121.204 0.198386 -1.56346 0
M  V30 1335 C 122.152 1.26538 -1.95169 0
M  V30 1336 C 123.146 1.47295 -0.836685 0
M  V30 1337 O 124.352 1.48195 -1.02167 0
M  V30 1338 H 120.727 0.424744 -0.620561 0
M  V30 1339 H 122.698 0.910904 -2.84157 0
M  V30 1340 C 121.447 2.6035 -2.30463 0
M  V30 1341 H 120.77 2.45192 -3.15786 0
M  V30 1342 H 122.21 3.33762 -2.61494 0
M  V30 1343 C 120.669 3.17096 -1.13806 0
M  V30 1344 O 121.199 3.99588 -0.41135 0
M  V30 1345 N 119.405 2.75795 -0.915736 0
M  V30 1346 H 118.952 2.08816 -1.50843 0
M  V30 1347 H 118.91 3.14101 -0.136979 0
M  V30 1348 N 122.682 1.50554 0.465978 0
M  V30 1349 C 123.91 1.65563 1.24083 0
M  V30 1350 C 124.325 0.341051 1.85694 0
M  V30 1351 O 123.682 -0.677543 1.69457 0
M  V30 1352 C 123.733 2.75051 2.34583 0
M  V30 1353 O 123.454 4.01413 1.75497 0
M  V30 1354 C 124.955 3.01078 3.25372 0
M  V30 1355 H 122.175 0.55638 0.375077 0
M  V30 1356 H 124.719 1.96807 0.555624 0
M  V30 1357 H 122.874 2.46486 2.9887 0
M  V30 1358 H 123.288 4.62002 2.48303 0
M  V30 1359 H 124.762 3.81339 3.99105 0
M  V30 1360 H 125.239 2.12349 3.84453 0
M  V30 1361 H 125.845 3.31194 2.66816 0
M  V30 1362 N 124.16 -0.719506 1.40217 0
M  V30 1363 C 125.409 -1.47486 1.37589 0
M  V30 1364 C 125.722 -1.9559 -0.0201568 0
M  V30 1365 O 126.928 -2.70973 -0.169049 0
M  V30 1366 C 125.384 -2.66575 2.41796 0
M  V30 1367 C 124.992 -2.25358 3.87192 0
M  V30 1368 C 126.736 -3.4433 2.48269 0
M  V30 1369 C 124.643 -3.41262 4.83005 0
M  V30 1370 H 123.573 -0.553901 0.511576 0
M  V30 1371 H 126.224 -0.783427 1.65936 0
M  V30 1372 H 124.606 -3.3787 2.06543 0
M  V30 1373 H 125.78 -1.61509 4.31569 0
M  V30 1374 H 124.095 -1.60657 3.84159 0
M  V30 1375 H 126.692 -4.30569 3.17041 0
M  V30 1376 H 127.035 -3.87872 1.51198 0
M  V30 1377 H 127.568 -2.80076 2.82493 0
M  V30 1378 H 124.307 -3.02755 5.81394 0
M  V30 1379 H 123.827 -4.0404 4.43297 0
M  V30 1380 H 125.506 -4.07383 5.02641 0
M  V30 1381 N 125.638 -1.25649 -0.95132 0
M  V30 1382 C 126.548 -1.08073 -2.08224 0
M  V30 1383 C 127.564 -0.0169666 -1.73992 0
M  V30 1384 O 128.74 -0.218593 -2.0021 0
M  V30 1385 C 125.805 -0.704922 -3.39458 0
M  V30 1386 C 124.866 -1.84699 -3.87537 0
M  V30 1387 C 124.099 -1.48902 -5.12508 0
M  V30 1388 O 124.322 -0.386156 -5.69091 0
M  V30 1389 O 123.256 -2.32033 -5.55378 0
M  V30 1390 H 127.082 -2.02924 -2.25954 0
M  V30 1391 H 124.667 -1.04618 -1.06656 0
M  V30 1392 H 126.549 -0.507609 -4.18332 0
M  V30 1393 H 125.224 0.214291 -3.2299 0
M  V30 1394 H 124.131 -2.09919 -3.09653 0
M  V30 1395 H 125.464 -2.74557 -4.08509 0
M  V30 1396 N 127.117 1.15442 -1.07289 0
M  V30 1397 C 128.347 1.89821 -0.815576 0
M  V30 1398 C 128.755 1.7823 0.634867 0
M  V30 1399 O 128.098 1.13152 1.44715 0
M  V30 1400 C 128.16 3.40817 -1.14385 0
M  V30 1401 C 127.824 3.76193 -2.59476 0
M  V30 1402 C 128.821 3.77269 -3.57721 0
M  V30 1403 C 126.506 4.0652 -2.95037 0
M  V30 1404 C 128.5 4.08176 -4.89562 0
M  V30 1405 C 126.187 4.37092 -4.27076 0
M  V30 1406 C 127.185 4.37902 -5.24148 0
M  V30 1407 O 126.873 4.67741 -6.53815 0
M  V30 1408 H 126.605 0.608465 -0.294528 0
M  V30 1409 H 129.159 1.472 -1.43252 0
M  V30 1410 H 127.389 3.83835 -0.469865 0
M  V30 1411 H 129.078 3.96485 -0.869179 0
M  V30 1412 H 129.844 3.5394 -3.3159 0
M  V30 1413 H 125.723 4.05049 -2.20128 0
M  V30 1414 H 129.267 4.08723 -5.65324 0
M  V30 1415 H 125.164 4.59889 -4.5296 0
M  V30 1416 H 125.932 4.85509 -6.58957 0
M  V30 1417 N 128.595 0.856903 1.32268 0
M  V30 1418 C 129.542 0.301172 2.28827 0
M  V30 1419 C 130.512 -0.593104 1.5515 0
M  V30 1420 O 131.697 -0.527537 1.83362 0
M  V30 1421 C 128.837 -0.502523 3.41422 0
M  V30 1422 C 127.95 0.417797 4.29975 0
M  V30 1423 C 127.085 -0.398749 5.29701 0
M  V30 1424 C 126.124 0.518827 6.09897 0
M  V30 1425 N 125.261 -0.260674 7.01616 0
M  V30 1426 H 130.101 1.12983 2.75751 0
M  V30 1427 H 127.638 0.568582 1.35667 0
M  V30 1428 H 129.596 -0.984141 4.05426 0
M  V30 1429 H 128.226 -1.29599 2.95642 0
M  V30 1430 H 127.278 1.01781 3.66531 0
M  V30 1431 H 128.59 1.12191 4.86019 0
M  V30 1432 H 127.744 -0.943435 5.9932 0
M  V30 1433 H 126.483 -1.13622 4.7428 0
M  V30 1434 H 125.488 1.07538 5.39181 0
M  V30 1435 H 126.713 1.25495 6.67404 0
M  V30 1436 H 124.659 -0.981198 6.4862 0
M  V30 1437 H 124.576 0.384364 7.55022 0
M  V30 1438 H 125.844 -0.787014 7.75517 0
M  V30 1439 N 130.073 -1.45103 0.615059 0
M  V30 1440 C 131.321 -2.01784 0.112955 0
M  V30 1441 C 131.642 -1.48504 -1.26378 0
M  V30 1442 O 130.912 -0.682245 -1.83636 0
M  V30 1443 H 129.492 -0.745993 0.0387668 0
M  V30 1444 H 132.154 -1.77808 0.798141 0
M  V30 1445 H 131.25 -3.12025 0.0684069 0
M  V30 1446 N 131.551 -0.354651 -1.53558 0
M  V30 1447 C 132.791 0.238651 -2.03002 0
M  V30 1448 C 133.155 1.46878 -1.23656 0
M  V30 1449 O 134.356 2.13699 -1.63053 0
M  V30 1450 C 132.627 0.534175 -3.53386 0
M  V30 1451 S 134.186 1.10271 -4.24719 0
M  V30 1452 H 131.004 0.0702908 -0.707517 0
M  V30 1453 H 133.606 -0.494987 -1.8913 0
M  V30 1454 H 132.31 -0.368765 -4.0874 0
M  V30 1455 H 131.841 1.29718 -3.71398 0
M  V30 1456 H 133.856 2.38772 -4.34974 0
M  V30 1457 N 133.029 1.57378 -0.0835403 0
M  V30 1458 C 134.259 1.97975 0.590713 0
M  V30 1459 C 134.667 0.961083 1.62972 0
M  V30 1460 O 134.01 -0.0590879 1.83605 0
M  V30 1461 C 134.072 3.34915 1.3066 0
M  V30 1462 C 133.736 4.55069 0.419698 0
M  V30 1463 C 134.733 5.18868 -0.32749 0
M  V30 1464 C 132.418 5.0114 0.341137 0
M  V30 1465 C 134.412 6.27098 -1.14134 0
M  V30 1466 C 132.099 6.0924 -0.476374 0
M  V30 1467 C 133.097 6.72083 -1.21627 0
M  V30 1468 O 132.785 7.781 -2.02028 0
M  V30 1469 H 132.517 0.655818 0.163947 0
M  V30 1470 H 135.071 2.04807 -0.156021 0
M  V30 1471 H 133.301 3.24733 2.09966 0
M  V30 1472 H 134.99 3.60037 1.87424 0
M  V30 1473 H 135.756 4.84211 -0.276459 0
M  V30 1474 H 131.635 4.51996 0.90668 0
M  V30 1475 H 135.179 6.7608 -1.71935 0
M  V30 1476 H 131.076 6.43329 -0.528927 0
M  V30 1477 H 131.844 7.95034 -1.94586 0
M  V30 1478 N 134.507 -0.190092 1.56449 0
M  V30 1479 C 135.437 -1.23816 1.97969 0
M  V30 1480 C 136.418 -1.47201 0.852395 0
M  V30 1481 O 137.603 -1.58854 1.1171 0
M  V30 1482 C 134.733 -2.5813 2.3235 0
M  V30 1483 C 133.687 -2.49348 3.47864 0
M  V30 1484 C 133.013 -3.8798 3.67934 0
M  V30 1485 C 134.313 -2.01424 4.81898 0
M  V30 1486 H 136.007 -0.89311 2.85769 0
M  V30 1487 H 133.553 -0.428177 1.37487 0
M  V30 1488 H 135.506 -3.31637 2.59991 0
M  V30 1489 H 134.23 -2.94386 1.41438 0
M  V30 1490 H 132.889 -1.78297 3.20321 0
M  V30 1491 H 132.537 -4.21597 2.74344 0
M  V30 1492 H 132.237 -3.82978 4.45648 0
M  V30 1493 H 133.761 -4.63101 3.97957 0
M  V30 1494 H 135.175 -2.64693 5.08538 0
M  V30 1495 H 133.572 -2.07413 5.63116 0
M  V30 1496 H 134.642 -0.967677 4.75146 0
M  V30 1497 N 135.985 -1.50799 -0.457987 0
M  V30 1498 C 136.932 -1.70617 -1.5543 0
M  V30 1499 C 137.902 -0.547562 -1.56815 0
M  V30 1500 O 139.087 -0.779647 -1.74144 0
M  V30 1501 C 136.227 -1.81831 -2.93311 0
M  V30 1502 C 135.34 -3.09278 -3.01615 0
M  V30 1503 C 134.475 -3.11209 -4.30491 0
M  V30 1504 C 133.514 -4.33055 -4.32585 0
M  V30 1505 N 132.651 -4.32652 -5.52952 0
M  V30 1506 H 137.491 -2.64207 -1.37836 0
M  V30 1507 H 135.028 -1.30959 -0.669937 0
M  V30 1508 H 136.986 -1.86314 -3.73287 0
M  V30 1509 H 135.616 -0.916685 -3.0951 0
M  V30 1510 H 134.668 -3.14203 -2.1443 0
M  V30 1511 H 135.98 -3.99233 -2.99022 0
M  V30 1512 H 135.134 -3.14494 -5.18824 0
M  V30 1513 H 133.873 -2.19106 -4.35711 0
M  V30 1514 H 132.878 -4.29969 -3.42647 0
M  V30 1515 H 134.103 -5.264 -4.29046 0
M  V30 1516 H 132.049 -3.43409 -5.58933 0
M  V30 1517 H 131.966 -5.16392 -5.52155 0
M  V30 1518 H 133.234 -4.40101 -6.43375 0
M  V30 1519 N 137.463 0.71206 -1.40597 0
M  V30 1520 C 138.373 1.8562 -1.43466 0
M  V30 1521 C 139.389 1.70902 -0.326902 0
M  V30 1522 O 140.565 1.93105 -0.572043 0
M  V30 1523 C 137.63 3.21451 -1.29884 0
M  V30 1524 C 136.691 3.48398 -2.50833 0
M  V30 1525 C 135.924 4.77749 -2.3789 0
M  V30 1526 O 136.147 5.53089 -1.39459 0
M  V30 1527 O 135.081 5.05111 -3.27333 0
M  V30 1528 H 138.907 1.86155 -2.39958 0
M  V30 1529 H 136.492 0.86295 -1.21957 0
M  V30 1530 H 138.374 4.02579 -1.24531 0
M  V30 1531 H 137.049 3.21636 -0.364997 0
M  V30 1532 H 135.956 2.67265 -2.61763 0
M  V30 1533 H 137.289 3.53014 -3.4299 0
M  V30 1534 N 138.941 1.26152 0.944643 0
M  V30 1535 C 139.891 1.04081 2.02857 0
M  V30 1536 C 140.875 -0.0256555 1.6088 0
M  V30 1537 O 142.067 0.190884 1.75968 0
M  V30 1538 C 139.196 0.672118 3.36656 0
M  V30 1539 C 138.282 1.77586 3.85128 0
M  V30 1540 N 138.673 3.01272 4.06287 0
M  V30 1541 C 136.971 1.65867 4.1401 0
M  V30 1542 C 137.672 3.72983 4.46384 0
M  V30 1543 N 136.648 3.00653 4.52889 0
M  V30 1544 H 140.45 1.97968 2.17223 0
M  V30 1545 H 137.964 1.16618 1.13022 0
M  V30 1546 H 139.961 0.495166 4.13949 0
M  V30 1547 H 138.621 -0.259307 3.23663 0
M  V30 1548 H 139.632 3.37213 3.93075 0
M  V30 1549 H 136.309 0.796907 4.09824 0
M  V30 1550 H 137.699 4.792 4.70975 0
M  V30 1551 N 140.419 -1.14872 1.07899 0
M  V30 1552 C 141.647 -1.89661 0.82683 0
M  V30 1553 C 142.062 -1.78312 -0.620519 0
M  V30 1554 O 141.419 -1.13888 -1.42604 0
M  V30 1555 C 141.47 -3.39817 1.23316 0
M  V30 1556 O 141.191 -3.50845 2.62372 0
M  V30 1557 C 142.692 -4.31615 1.0111 0
M  V30 1558 H 139.912 -0.60092 0.298557 0
M  V30 1559 H 142.456 -1.4551 1.43691 0
M  V30 1560 H 140.611 -3.8161 0.667286 0
M  V30 1561 H 141.025 -4.44076 2.79101 0
M  V30 1562 H 142.499 -5.35367 1.34486 0
M  V30 1563 H 142.976 -4.39169 -0.0522168 0
M  V30 1564 H 143.582 -3.95572 1.56215 0
M  V30 1565 N 141.898 -0.863906 -1.31812 0
M  V30 1566 C 142.861 -0.320212 -2.26952 0
M  V30 1567 C 143.861 0.525369 -1.51975 0
M  V30 1568 O 145.051 0.335547 -1.70938 0
M  V30 1569 C 142.183 0.545919 -3.365 0
M  V30 1570 H 143.376 -1.16004 -2.76556 0
M  V30 1571 H 140.929 -0.638995 -1.42641 0
M  V30 1572 H 141.664 1.40718 -2.92179 0
M  V30 1573 H 141.449 -0.0594674 -3.92055 0
M  V30 1574 H 142.939 0.918796 -4.07367 0
M  V30 1575 N 143.376 1.44774 -0.622745 0
M  V30 1576 C 144.622 2.02968 -0.13257 0
M  V30 1577 C 144.977 1.48047 1.22881 0
M  V30 1578 O 144.27 0.651625 1.80179 0
M  V30 1579 C 144.464 3.57364 -0.0508323 0
M  V30 1580 C 144.293 4.27262 -1.40275 0
M  V30 1581 C 143.063 4.64577 -1.98737 0
M  V30 1582 C 145.261 4.58248 -2.3348 0
M  V30 1583 N 143.243 5.19404 -3.27251 0
M  V30 1584 C 144.614 5.14069 -3.46603 0
M  V30 1585 C 146.669 4.40195 -2.32664 0
M  V30 1586 C 145.372 5.53738 -4.59093 0
M  V30 1587 C 147.398 4.80907 -3.44213 0
M  V30 1588 C 146.76 5.36834 -4.56058 0
M  V30 1589 H 142.859 0.776541 -0.0922354 0
M  V30 1590 H 145.443 1.76385 -0.82441 0
M  V30 1591 H 143.614 3.83576 0.610265 0
M  V30 1592 H 145.346 4.02219 0.447397 0
M  V30 1593 H 142.101 4.48622 -1.51774 0
M  V30 1594 H 142.525 5.51301 -3.92933 0
M  V30 1595 H 147.167 3.96257 -1.47446 0
M  V30 1596 H 144.885 5.96635 -5.45025 0
M  V30 1597 H 148.471 4.68659 -3.44747 0
M  V30 1598 H 147.351 5.67755 -5.40947 0
M  V30 1599 N 144.854 0.36279 1.53368 0
M  V30 1600 C 145.784 -0.476976 2.28576 0
M  V30 1601 C 146.765 -1.08631 1.30894 0
M  V30 1602 O 147.95 -1.10409 1.59761 0
M  V30 1603 C 145.08 -1.61828 3.07293 0
M  V30 1604 C 144.034 -1.13633 4.1264 0
M  V30 1605 C 143.36 -2.36766 4.79423 0
M  V30 1606 C 144.66 -0.223061 5.21823 0
M  V30 1607 H 146.354 0.150474 2.99022 0
M  V30 1608 H 143.9 0.0738103 1.43811 0
M  V30 1609 H 145.853 -2.21237 3.58653 0
M  V30 1610 H 144.577 -2.27292 2.34533 0
M  V30 1611 H 143.236 -0.564945 3.62221 0
M  V30 1612 H 142.884 -3.0068 4.03238 0
M  V30 1613 H 142.584 -2.05192 5.50609 0
M  V30 1614 H 144.108 -2.96865 5.33576 0
M  V30 1615 H 145.522 -0.724545 5.68703 0
M  V30 1616 H 143.919 0.001678 6.001 0
M  V30 1617 H 144.989 0.735553 4.79289 0
M  V30 1618 N 146.332 -1.57332 0.0918853 0
M  V30 1619 C 147.578 -1.94524 -0.573425 0
M  V30 1620 C 147.911 -0.973578 -1.68033 0
M  V30 1621 O 147.186 -0.00609226 -1.94499 0
M  V30 1622 C 147.469 -3.41858 -1.13161 0
M  V30 1623 C 147.322 -4.4979 -0.0299747 0
M  V30 1624 C 148.641 -3.90435 -2.03098 0
M  V30 1625 H 145.76 -0.70734 -0.206975 0
M  V30 1626 H 148.402 -1.89309 0.161942 0
M  V30 1627 H 146.552 -3.46433 -1.7583 0
M  V30 1628 H 148.224 -4.57327 0.604112 0
M  V30 1629 H 146.467 -4.291 0.636833 0
M  V30 1630 H 147.138 -5.50069 -0.461287 0
M  V30 1631 H 149.614 -3.87992 -1.50338 0
M  V30 1632 H 148.49 -4.94097 -2.39081 0
M  V30 1633 H 148.751 -3.29541 -2.94712 0
M  V30 1634 N 147.81 0.181792 -1.56548 0
M  V30 1635 C 148.743 1.25366 -1.90679 0
M  V30 1636 C 149.721 1.43299 -0.768376 0
M  V30 1637 O 150.905 1.58475 -1.02068 0
M  V30 1638 C 148.032 2.61826 -2.1486 0
M  V30 1639 C 147.078 2.60688 -3.37556 0
M  V30 1640 S 147.911 2.10804 -4.92262 0
M  V30 1641 C 149.067 3.49062 -5.19525 0
M  V30 1642 H 149.3 0.962277 -2.81296 0
M  V30 1643 H 146.833 0.385892 -1.495 0
M  V30 1644 H 148.791 3.40371 -2.29473 0
M  V30 1645 H 147.452 2.88169 -1.24969 0
M  V30 1646 H 146.645 3.61058 -3.51643 0
M  V30 1647 H 146.247 1.90232 -3.22006 0
M  V30 1648 H 148.539 4.45003 -5.10861 0
M  V30 1649 H 149.482 3.39859 -6.2121 0
M  V30 1650 H 149.89 3.4459 -4.47122 0
M  V30 1651 N 149.288 1.51039 0.449983 0
M  V30 1652 C 150.198 1.74261 1.57067 0
M  V30 1653 C 151.214 0.626363 1.62335 0
M  V30 1654 O 152.39 0.907162 1.79812 0
M  V30 1655 C 149.455 1.85114 2.93144 0
M  V30 1656 C 148.516 3.0893 2.98095 0
M  V30 1657 C 147.749 3.19256 4.27681 0
M  V30 1658 O 147.972 2.35835 5.19363 0
M  V30 1659 O 146.906 4.12144 4.38658 0
M  V30 1660 H 150.732 2.69303 1.40391 0
M  V30 1661 H 148.317 1.35389 0.631688 0
M  V30 1662 H 150.199 1.94311 3.73926 0
M  V30 1663 H 148.874 0.932588 3.09975 0
M  V30 1664 H 147.781 3.0522 2.16314 0
M  V30 1665 H 149.114 4.00433 2.86206 0
M  V30 1666 N 150.766 -0.704594 1.40972 0
M  V30 1667 C 151.996 -1.49138 1.42974 0
M  V30 1668 C 152.404 -1.89175 0.0308406 0
M  V30 1669 O 151.747 -1.56734 -0.958138 0
M  V30 1670 C 151.809 -2.79016 2.26694 0
M  V30 1671 C 151.473 -2.61236 3.74973 0
M  V30 1672 C 152.47 -2.27773 4.67349 0
M  V30 1673 C 150.155 -2.77158 4.18914 0
M  V30 1674 C 152.149 -2.10457 6.01653 0
M  V30 1675 C 149.836 -2.59459 5.53285 0
M  V30 1676 C 150.834 -2.26158 6.4447 0
M  V30 1677 O 150.522 -2.08605 7.76363 0
M  V30 1678 H 150.254 -0.466443 0.489292 0
M  V30 1679 H 152.808 -0.8758 1.85793 0
M  V30 1680 H 151.038 -3.42947 1.78673 0
M  V30 1681 H 152.727 -3.40782 2.20504 0
M  V30 1682 H 153.493 -2.15095 4.34694 0
M  V30 1683 H 149.372 -3.02064 3.48251 0
M  V30 1684 H 152.916 -1.84387 6.72791 0
M  V30 1685 H 148.813 -2.71725 5.85522 0
M  V30 1686 H 149.581 -2.23439 7.87412 0
M  V30 1687 N 152.244 -1.26651 -0.937939 0
M  V30 1688 C 153.484 -1.13611 -1.69917 0
M  V30 1689 C 153.848 0.314687 -1.89404 0
M  V30 1690 O 155.049 0.567285 -2.62746 0
M  V30 1691 C 153.32 -1.88742 -3.03498 0
M  V30 1692 S 154.879 -1.91794 -3.94665 0
M  V30 1693 H 151.697 -0.405767 -0.583844 0
M  V30 1694 H 154.299 -1.60416 -1.11745 0
M  V30 1695 H 153.003 -2.9336 -2.86999 0
M  V30 1696 H 152.534 -1.42391 -3.66727 0
M  V30 1697 H 154.549 -1.00698 -4.85875 0
M  V30 1698 N 153.722 1.14298 -1.08507 0
M  V30 1699 C 154.652 2.21542 -0.737646 0
M  V30 1700 C 155.633 1.67773 0.280377 0
M  V30 1701 O 156.818 1.93616 0.150521 0
M  V30 1702 C 153.948 3.46988 -0.147259 0
M  V30 1703 C 152.902 4.13789 -1.09374 0
M  V30 1704 C 152.228 5.33449 -0.365524 0
M  V30 1705 C 153.528 4.62208 -2.4323 0
M  V30 1706 H 155.222 2.5086 -1.6343 0
M  V30 1707 H 152.768 1.20576 -0.787243 0
M  V30 1708 H 154.721 4.21262 0.107808 0
M  V30 1709 H 153.445 3.17037 0.784538 0
M  V30 1710 H 152.104 3.4147 -1.33393 0
M  V30 1711 H 151.752 4.99759 0.57011 0
M  V30 1712 H 151.452 5.79088 -0.996512 0
M  V30 1713 H 152.976 6.10485 -0.118534 0
M  V30 1714 H 154.39 5.27952 -2.23472 0
M  V30 1715 H 152.787 5.18553 -3.02031 0
M  V30 1716 H 153.857 3.77224 -3.04681 0
M  V30 1717 N 155.201 0.870884 1.31352 0
M  V30 1718 C 156.449 0.48132 1.96285 0
M  V30 1719 C 156.77 -0.969813 1.69173 0
M  V30 1720 O 156.04 -1.67998 1.00764 0
M  V30 1721 H 154.62 0.175002 0.726212 0
M  V30 1722 H 157.282 1.11087 1.60143 0
M  V30 1723 H 156.378 0.639825 3.05471 0
M  V30 1724 N 156.679 -1.44442 0.630414 0
M  V30 1725 C 157.904 -2.06927 0.139944 0
M  V30 1726 C 158.329 -1.46795 -1.17613 0
M  V30 1727 O 157.687 -0.569144 -1.72135 0
M  V30 1728 C 157.735 -3.6058 0.0379581 0
M  V30 1729 O 156.839 -3.99937 -1.0062 0
M  V30 1730 H 156.18 -0.658608 0.0844483 0
M  V30 1731 H 158.71 -1.85327 0.866891 0
M  V30 1732 H 158.72 -4.07714 -0.152856 0
M  V30 1733 H 157.395 -4.03728 0.998809 0
M  V30 1734 H 155.972 -3.64436 -0.79001 0
M  V30 1735 N 158.157 -0.370918 -1.53173 0
M  V30 1736 C 159.12 0.460778 -2.24521 0
M  V30 1737 C 160.12 1.00536 -1.25496 0
M  V30 1738 O 161.31 0.890266 -1.49733 0
M  V30 1739 C 158.442 1.64457 -2.98608 0
M  V30 1740 H 159.635 -0.163613 -2.99453 0
M  V30 1741 H 157.188 -0.122699 -1.55818 0
M  V30 1742 H 157.923 2.30691 -2.2793 0
M  V30 1743 H 157.708 1.26099 -3.7127 0
M  V30 1744 H 159.198 2.23384 -3.5283 0
M  V30 1745 N 159.635 1.57281 -0.100228 0
M  V30 1746 C 160.86 1.99302 0.573881 0
M  V30 1747 C 161.285 0.979059 1.60611 0
M  V30 1748 O 160.643 -0.0517803 1.81226 0
M  V30 1749 C 160.691 3.40274 1.19358 0
M  V30 1750 O 159.795 3.41676 2.30935 0
M  V30 1751 H 159.136 0.647944 0.145138 0
M  V30 1752 H 161.666 2.03779 -0.183156 0
M  V30 1753 H 161.676 3.78078 1.53365 0
M  V30 1754 H 160.351 4.13594 0.437385 0
M  V30 1755 H 158.928 3.15672 1.98509 0
M  V30 1756 N 161.113 -0.173488 1.56642 0
M  V30 1757 C 162.39 -0.917617 1.7274 0
M  V30 1758 C 162.77 -2.00484 0.661027 0
M  V30 1759 O 162.118 -2.26184 -0.32453 0
M  V30 1760 C 162.328 -1.48433 3.15862 0
M  V30 1761 C 163.676 -1.95809 3.76754 0
M  V30 1762 O 164.7 -1.58231 3.19126 0
M  V30 1763 O 163.559 -2.65024 4.77938 0
M  V30 1764 H 160.653 -0.431772 0.705338 0
M  V30 1765 H 163.199 -0.161487 1.6893 0
M  V30 1766 H 161.971 -0.701715 3.84957 0
M  V30 1767 H 161.594 -2.30471 3.23989 0
M  V30 1768 N 162.591 -1.51276 -0.441967 0
M  V30 1769 C 163.521 -1.752 -1.54361 0
M  V30 1770 C 164.502 -0.601682 -1.59103 0
M  V30 1771 O 165.687 -0.843913 -1.74905 0
M  V30 1772 C 162.817 -1.87282 -2.92477 0
M  V30 1773 C 161.771 -3.02687 -3.02596 0
M  V30 1774 C 161.097 -2.99947 -4.42647 0
M  V30 1775 C 162.397 -4.4273 -2.77106 0
M  V30 1776 H 164.091 -2.67442 -1.34592 0
M  V30 1777 H 161.637 -1.28694 -0.646048 0
M  V30 1778 H 163.59 -2.02602 -3.695 0
M  V30 1779 H 162.314 -0.916844 -3.13467 0
M  V30 1780 H 160.973 -2.87065 -2.28012 0
M  V30 1781 H 160.621 -2.02136 -4.60597 0
M  V30 1782 H 160.321 -3.77439 -4.50348 0
M  V30 1783 H 161.845 -3.17354 -5.2165 0
M  V30 1784 H 163.259 -4.58727 -3.43864 0
M  V30 1785 H 161.656 -5.21893 -2.96222 0
M  V30 1786 H 162.726 -4.53087 -1.72744 0
M  V30 1787 N 164.069 0.697108 -1.41344 0
M  V30 1788 C 164.999 1.82353 -1.45841 0
M  V30 1789 C 165.98 1.67115 -0.317247 0
M  V30 1790 O 167.165 1.86871 -0.528474 0
M  V30 1791 C 164.295 3.20476 -1.33838 0
M  V30 1792 C 163.249 3.50415 -2.4575 0
M  V30 1793 C 162.575 4.87878 -2.18813 0
M  V30 1794 C 163.875 3.49546 -3.88091 0
M  V30 1795 H 165.569 1.78846 -2.40113 0
M  V30 1796 H 163.115 0.859028 -1.15571 0
M  V30 1797 H 165.068 3.98988 -1.35596 0
M  V30 1798 H 163.792 3.24604 -0.360498 0
M  V30 1799 H 162.451 2.74253 -2.43271 0
M  V30 1800 H 162.099 4.8863 -1.19371 0
M  V30 1801 H 161.799 5.08875 -2.93803 0
M  V30 1802 H 163.323 5.68702 -2.22284 0
M  V30 1803 H 164.737 4.18066 -3.92293 0
M  V30 1804 H 163.134 3.82075 -4.62751 0
M  V30 1805 H 164.204 2.48552 -4.16353 0
M  V30 1806 N 165.547 1.27147 0.931209 0
M  V30 1807 C 166.457 1.11372 2.06478 0
M  V30 1808 C 167.473 0.044645 1.73943 0
M  V30 1809 O 168.649 0.250417 1.99837 0
M  V30 1810 C 165.714 0.758838 3.38294 0
M  V30 1811 C 164.775 1.90841 3.84549 0
M  V30 1812 C 164.008 1.57036 5.10074 0
M  V30 1813 O 164.231 0.476645 5.68405 0
M  V30 1814 O 163.165 2.40839 5.51616 0
M  V30 1815 H 166.991 2.06493 2.22698 0
M  V30 1816 H 164.576 1.06301 1.04978 0
M  V30 1817 H 166.458 0.574098 4.17471 0
M  V30 1818 H 165.133 -0.162879 3.2329 0
M  V30 1819 H 164.04 2.14819 3.06274 0
M  V30 1820 H 165.373 2.81021 4.04089 0
M  V30 1821 N 167.025 -1.13721 1.09112 0
M  V30 1822 C 168.271 -1.85198 0.826414 0
M  V30 1823 C 168.604 -1.83129 -0.646319 0
M  V30 1824 O 167.879 -1.2671 -1.47563 0
M  V30 1825 C 168.162 -3.33507 1.35812 0
M  V30 1826 C 168.015 -3.44108 2.89672 0
M  V30 1827 C 169.334 -4.28838 0.989256 0
M  V30 1828 H 166.453 -0.67243 0.301675 0
M  V30 1829 H 169.095 -1.33499 1.35197 0
M  V30 1830 H 167.245 -3.77666 0.911082 0
M  V30 1831 H 168.917 -3.08684 3.428 0
M  V30 1832 H 167.16 -2.85087 3.26967 0
M  V30 1833 H 167.831 -4.48388 3.21951 0
M  V30 1834 H 170.307 -3.92734 1.37475 0
M  V30 1835 H 169.183 -5.31051 1.38838 0
M  V30 1836 H 169.444 -4.4198 -0.102924 0
M  V30 1837 N 168.503 -0.877838 -1.30888 0
M  V30 1838 C 169.453 -0.310872 -2.25871 0
M  V30 1839 C 170.437 0.556596 -1.50966 0
M  V30 1840 O 171.629 0.402187 -1.7237 0
M  V30 1841 C 168.758 0.479821 -3.3993 0
M  V30 1842 C 167.844 -0.401333 -4.22197 0
M  V30 1843 N 168.235 -1.49848 -4.83093 0
M  V30 1844 C 166.533 -0.195167 -4.45573 0
M  V30 1845 C 167.234 -2.0425 -5.44662 0
M  V30 1846 N 166.21 -1.33843 -5.26865 0
M  V30 1847 H 170.012 -1.1493 -2.70496 0
M  V30 1848 H 167.526 -0.726458 -1.45246 0
M  V30 1849 H 169.523 0.902582 -4.07012 0
M  V30 1850 H 168.183 1.31577 -2.96846 0
M  V30 1851 H 169.194 -1.88137 -4.82519 0
M  V30 1852 H 165.871 0.604192 -4.13105 0
M  V30 1853 H 167.261 -2.96345 -6.03017 0
M  V30 1854 N 169.982 1.44106 -0.638065 0
M  V30 1855 C 170.929 2.30715 0.062701 0
M  V30 1856 C 171.899 1.43882 0.829883 0
M  V30 1857 O 173.084 1.72775 0.809532 0
M  V30 1858 C 170.224 3.29258 1.03358 0
M  V30 1859 C 169.337 4.31192 0.26409 0
M  V30 1860 C 168.472 5.16825 1.22741 0
M  V30 1861 C 167.511 6.10462 0.447475 0
M  V30 1862 N 166.648 6.8877 1.36161 0
M  V30 1863 H 171.488 2.90096 -0.681781 0
M  V30 1864 H 169.025 1.42925 -0.347988 0
M  V30 1865 H 170.983 3.84886 1.60992 0
M  V30 1866 H 169.613 2.71562 1.74511 0
M  V30 1867 H 168.665 3.77981 -0.428295 0
M  V30 1868 H 169.977 4.97619 -0.343052 0
M  V30 1869 H 169.131 5.77004 1.87487 0
M  V30 1870 H 167.87 4.50488 1.86847 0
M  V30 1871 H 166.875 5.49386 -0.213433 0
M  V30 1872 H 168.1 6.78837 -0.188968 0
M  V30 1873 H 166.046 6.25096 1.98975 0
M  V30 1874 H 165.963 7.51663 0.808656 0
M  V30 1875 H 167.231 7.53467 1.99769 0
M  V30 1876 N 171.46 0.379036 1.52974 0
M  V30 1877 C 172.407 -0.461048 2.26148 0
M  V30 1878 C 173.377 -1.06637 1.27349 0
M  V30 1879 O 174.562 -1.09633 1.56157 0
M  V30 1880 C 171.702 -1.58782 3.06402 0
M  V30 1881 C 170.815 -1.00636 4.20115 0
M  V30 1882 C 169.95 -2.10334 4.87784 0
M  V30 1883 C 168.989 -1.49724 5.93506 0
M  V30 1884 N 168.126 -2.5331 6.54812 0
M  V30 1885 H 172.966 0.169429 2.97518 0
M  V30 1886 H 170.503 0.0953806 1.4679 0
M  V30 1887 H 172.461 -2.25174 3.51215 0
M  V30 1888 H 171.091 -2.18876 2.37261 0
M  V30 1889 H 170.143 -0.232332 3.7969 0
M  V30 1890 H 171.455 -0.523343 4.96047 0
M  V30 1891 H 170.609 -2.84519 5.35849 0
M  V30 1892 H 169.348 -2.61992 4.11353 0
M  V30 1893 H 168.353 -0.740598 5.44789 0
M  V30 1894 H 169.578 -0.988732 6.71864 0
M  V30 1895 H 167.524 -3.04156 5.81227 0
M  V30 1896 H 167.441 -2.09734 7.26325 0
M  V30 1897 H 168.709 -3.27155 7.07524 0
M  V30 1898 N 172.938 -1.57226 0.108567 0
M  V30 1899 C 174.349 -1.8195 -0.418464 0
M  V30 1900 C 174.7 -1.02508 -1.67292 0
M  V30 1901 O 173.825 -0.258496 -2.14851 0
M  V30 1902 C 174.42 -3.30028 -0.765979 0
M  V30 1903 C 172.979 -3.55469 -1.23769 0
M  V30 1904 C 172.126 -2.7625 -0.241106 0
M  V30 1905 H 175.077 -1.55149 0.33384 0
M  V30 1906 H 175.098 -3.44086 -1.62434 0
M  V30 1907 H 174.61 -3.87821 0.147219 0
M  V30 1908 H 172.711 -3.03022 -2.16814 0
M  V30 1909 H 172.824 -4.6408 -1.19022 0
M  V30 1910 H 171.188 -2.44133 -0.72602 0
M  V30 1911 H 171.971 -3.36797 0.665007 0
M  V30 1912 N 174.416 0.165178 -1.56732 0
M  V30 1913 C 175.346 1.20651 -1.99914 0
M  V30 1914 C 176.327 1.45827 -0.875705 0
M  V30 1915 O 177.512 1.57057 -1.14223 0
M  V30 1916 C 174.642 2.54401 -2.36427 0
M  V30 1917 C 173.596 2.43782 -3.51787 0
M  V30 1918 C 172.922 3.82078 -3.7406 0
M  V30 1919 C 174.222 1.93732 -4.85041 0
M  V30 1920 H 175.916 0.847534 -2.87154 0
M  V30 1921 H 173.462 0.40625 -1.38151 0
M  V30 1922 H 175.415 3.27458 -2.65234 0
M  V30 1923 H 174.139 2.92098 -1.46103 0
M  V30 1924 H 172.798 1.73178 -3.23117 0
M  V30 1925 H 172.446 4.17179 -2.81017 0
M  V30 1926 H 172.146 3.7584 -4.51684 0
M  V30 1927 H 173.67 4.56712 -4.05274 0
M  V30 1928 H 175.084 2.56569 -5.12684 0
M  V30 1929 H 173.481 1.98428 -5.66345 0
M  V30 1930 H 174.551 0.891962 -4.76626 0
M  V30 1931 N 175.894 1.51508 0.433938 0
M  V30 1932 C 176.826 1.69266 1.54537 0
M  V30 1933 C 177.839 0.573276 1.52373 0
M  V30 1934 O 179.028 0.847698 1.57087 0
M  V30 1935 C 176.128 1.69524 2.93453 0
M  V30 1936 C 175.301 2.98101 3.20085 0
M  V30 1937 C 174.36 2.90502 4.38742 0
M  V30 1938 O 173.386 3.64442 4.3723 0
M  V30 1939 N 174.588 2.06586 5.42496 0
M  V30 1940 H 177.353 2.65145 1.39708 0
M  V30 1941 H 174.914 1.49437 0.622922 0
M  V30 1942 H 176.906 1.62004 3.70859 0
M  V30 1943 H 175.476 0.812245 3.01863 0
M  V30 1944 H 174.696 3.19464 2.30947 0
M  V30 1945 H 175.984 3.83207 3.34708 0
M  V30 1946 H 175.382 1.45896 5.46563 0
M  V30 1947 H 173.939 2.04943 6.18742 0
M  V30 1948 N 177.372 -0.689602 1.41712 0
M  V30 1949 C 178.282 -1.83314 1.46401 0
M  V30 1950 C 179.298 -1.7036 0.35405 0
M  V30 1951 O 180.474 -1.92171 0.602692 0
M  V30 1952 C 177.539 -3.19344 1.34982 0
M  V30 1953 C 176.6 -3.44363 2.56344 0
M  V30 1954 C 175.833 -4.73904 2.45461 0
M  V30 1955 O 176.056 -5.508 1.48241 0
M  V30 1956 O 174.99 -4.99839 3.35328 0
M  V30 1957 H 178.816 -1.82314 2.42889 0
M  V30 1958 H 176.401 -0.843438 1.23315 0
M  V30 1959 H 178.283 -4.00547 1.3092 0
M  V30 1960 H 176.958 -3.21014 0.41612 0
M  V30 1961 H 175.865 -2.63067 2.65982 0
M  V30 1962 H 177.198 -3.47512 3.48563 0
M  V30 1963 N 178.85 -1.27639 -0.924453 0
M  V30 1964 C 180.096 -1.14336 -1.67497 0
M  V30 1965 C 180.429 0.309465 -1.91718 0
M  V30 1966 O 179.704 1.22608 -1.50989 0
M  V30 1967 C 179.987 -1.93096 -3.0395 0
M  V30 1968 C 179.84 -3.46381 -2.8695 0
M  V30 1969 C 181.159 -1.73798 -4.0433 0
M  V30 1970 H 178.278 -0.416728 -0.607871 0
M  V30 1971 H 180.92 -1.56832 -1.07256 0
M  V30 1972 H 179.07 -1.56982 -3.55372 0
M  V30 1973 H 180.742 -3.92343 -2.42621 0
M  V30 1974 H 178.985 -3.72557 -2.22225 0
M  V30 1975 H 179.656 -3.96735 -3.83804 0
M  V30 1976 H 182.132 -2.05293 -3.61931 0
M  V30 1977 H 181.008 -2.31294 -4.97789 0
M  V30 1978 H 181.269 -0.686725 -4.36734 0
M  V30 1979 N 180.328 1.1314 -1.09713 0
M  V30 1980 C 181.238 2.22242 -0.751367 0
M  V30 1981 C 182.254 1.72224 0.247938 0
M  V30 1982 O 183.43 2.01205 0.0885463 0
M  V30 1983 C 180.495 3.46231 -0.180274 0
M  V30 1984 C 179.556 4.11125 -1.2359 0
M  V30 1985 C 178.789 5.29195 -0.691966 0
M  V30 1986 O 179.012 5.68342 0.48414 0
M  V30 1987 O 177.946 5.84214 -1.44838 0
M  V30 1988 H 181.772 2.54197 -1.66186 0
M  V30 1989 H 179.357 1.21331 -0.871735 0
M  V30 1990 H 181.239 4.21185 0.134739 0
M  V30 1991 H 179.914 3.1597 0.703185 0
M  V30 1992 H 178.821 3.37985 -1.60366 0
M  V30 1993 H 180.154 4.45524 -2.09211 0
M  V30 1994 N 181.806 0.884767 1.30421 0
M  V30 1995 C 183.055 0.499164 1.95426 0
M  V30 1996 C 183.368 -0.95645 1.70621 0
M  V30 1997 O 184.574 -1.44889 2.29607 0
M  V30 1998 C 183.03 0.84177 3.49917 0
M  V30 1999 C 182.638 2.31514 3.83543 0
M  V30 2000 C 184.382 0.525355 4.21237 0
M  V30 2001 C 182.289 2.59939 5.31212 0
M  V30 2002 H 181.219 0.182944 0.73147 0
M  V30 2003 H 183.87 1.07971 1.48373 0
M  V30 2004 H 182.252 0.190311 3.95542 0
M  V30 2005 H 183.426 3.0109 3.48829 0
M  V30 2006 H 181.741 2.59907 3.25326 0
M  V30 2007 H 184.338 0.714762 5.29901 0
M  V30 2008 H 184.681 -0.535222 4.12845 0
M  V30 2009 H 185.214 1.134 3.81294 0
M  V30 2010 H 181.953 3.64736 5.44654 0
M  V30 2011 H 181.473 1.94972 5.67227 0
M  V30 2012 H 183.152 2.45429 5.98643 0
M  V30 2013 N 183.284 -1.43765 0.645699 0
M  V30 2014 C 184.247 -2.29163 -0.0409488 0
M  V30 2015 C 185.247 -1.41813 -0.757996 0
M  V30 2016 O 186.437 -1.63527 -0.600382 0
M  V30 2017 C 183.569 -3.23716 -1.06869 0
M  V30 2018 H 184.762 -2.91366 0.710345 0
M  V30 2019 H 182.315 -1.5092 0.406547 0
M  V30 2020 H 183.05 -2.66393 -1.84947 0
M  V30 2021 H 182.835 -3.88105 -0.558277 0
M  V30 2022 H 184.325 -3.87831 -1.54845 0
M  V30 2023 N 184.763 -0.387143 -1.52771 0
M  V30 2024 C 185.726 0.436939 -2.24997 0
M  V30 2025 C 186.726 0.991991 -1.26555 0
M  V30 2026 O 187.916 0.874335 -1.50669 0
M  V30 2027 C 185.048 1.61281 -3.00335 0
M  V30 2028 H 186.241 -0.195365 -2.99263 0
M  V30 2029 H 183.794 -0.139218 -1.55679 0
M  V30 2030 H 184.529 2.2826 -2.30364 0
M  V30 2031 H 184.314 1.22154 -3.72587 0
M  V30 2032 H 185.804 2.19629 -3.5518 0
M  V30 2033 N 186.241 1.57166 -0.116904 0
M  V30 2034 C 187.49 1.94298 0.541407 0
M  V30 2035 C 187.803 1.00236 1.67964 0
M  V30 2036 O 189.009 1.26826 2.40057 0
M  V30 2037 C 187.465 3.45306 1.01449 0
M  V30 2038 C 187.073 4.47899 -0.0951738 0
M  V30 2039 C 188.817 3.91361 1.6443 0
M  V30 2040 C 186.724 5.90083 0.394491 0
M  V30 2041 H 185.654 0.725308 0.206019 0
M  V30 2042 H 188.305 1.82446 -0.196419 0
M  V30 2043 H 186.687 3.52385 1.80667 0
M  V30 2044 H 187.861 4.52486 -0.871374 0
M  V30 2045 H 186.176 4.11583 -0.631505 0
M  V30 2046 H 188.773 4.95004 2.02176 0
M  V30 2047 H 189.116 3.3122 2.52189 0
M  V30 2048 H 189.649 3.87073 0.917559 0
M  V30 2049 H 186.388 6.53974 -0.447004 0
M  V30 2050 H 185.908 5.88921 1.13722 0
M  V30 2051 H 187.587 6.41307 0.856399 0
M  V30 2052 N 187.719 -0.156864 1.56817 0
M  V30 2053 C 188.947 -0.886316 1.86955 0
M  V30 2054 C 189.362 -1.75185 0.703975 0
M  V30 2055 O 188.719 -1.79555 -0.326552 0
M  V30 2056 C 188.77 -1.75117 3.16253 0
M  V30 2057 O 188.491 -0.920537 4.2832 0
M  V30 2058 C 189.992 -2.58905 3.59837 0
M  V30 2059 H 187.212 -0.25678 0.619923 0
M  V30 2060 H 189.756 -0.152615 2.0393 0
M  V30 2061 H 187.911 -2.43805 3.01062 0
M  V30 2062 H 188.325 -1.51337 5.02192 0
M  V30 2063 H 189.799 -3.1518 4.53172 0
M  V30 2064 H 190.276 -3.34472 2.84649 0
M  V30 2065 H 190.882 -1.95526 3.7769 0
M  V30 2066 N 189.197 -1.51736 -0.425897 0
M  V30 2067 C 190.147 -1.70258 -1.51645 0
M  V30 2068 C 191.131 -0.556488 -1.5097 0
M  V30 2069 O 192.323 -0.812879 -1.5723 0
M  V30 2070 C 189.452 -1.84143 -2.89735 0
M  V30 2071 C 188.538 -3.04572 -2.95122 0
M  V30 2072 N 188.929 -4.2756 -2.70233 0
M  V30 2073 C 187.227 -3.04061 -3.26286 0
M  V30 2074 C 187.928 -5.08908 -2.81757 0
M  V30 2075 N 186.904 -4.43797 -3.13919 0
M  V30 2076 H 190.706 -2.63004 -1.31172 0
M  V30 2077 H 188.22 -1.4954 -0.633375 0
M  V30 2078 H 190.217 -1.95525 -3.68206 0
M  V30 2079 H 188.877 -0.925857 -3.1122 0
M  V30 2080 H 189.888 -4.56315 -2.44943 0
M  V30 2081 H 186.565 -2.22179 -3.53473 0
M  V30 2082 H 187.955 -6.16843 -2.66372 0
M  V30 2083 N 190.675 0.682077 -1.42076 0
M  V30 2084 C 191.923 1.4393 -1.41876 0
M  V30 2085 C 192.244 1.94971 -0.0335599 0
M  V30 2086 O 191.514 1.72591 0.926773 0
M  V30 2087 H 190.094 0.534085 -0.522267 0
M  V30 2088 H 192.756 0.806427 -1.77434 0
M  V30 2089 H 191.852 2.29588 -2.11414 0
M  V30 2090 N 192.153 1.28127 0.917671 0
M  V30 2091 C 193.116 1.11744 2.00115 0
M  V30 2092 C 194.116 0.0583052 1.60694 0
M  V30 2093 O 195.306 0.303755 1.71531 0
M  V30 2094 C 192.438 0.704862 3.33533 0
M  V30 2095 H 193.631 2.07966 2.16079 0
M  V30 2096 H 191.184 1.11058 1.09981 0
M  V30 2097 H 191.919 -0.258299 3.2327 0
M  V30 2098 H 191.704 1.4699 3.63505 0
M  V30 2099 H 193.194 0.612768 4.1308 0
M  V30 2100 N 193.631 -1.12557 1.10312 0
M  V30 2101 C 194.561 -2.20341 0.772798 0
M  V30 2102 C 195.542 -1.68198 -0.25365 0
M  V30 2103 O 196.727 -1.93831 -0.119699 0
M  V30 2104 C 193.857 -3.46709 0.202443 0
M  V30 2105 C 192.811 -4.11996 1.15943 0
M  V30 2106 C 192.137 -5.328 0.450345 0
M  V30 2107 C 193.437 -4.5828 2.50552 0
M  V30 2108 H 195.131 -2.48229 1.674 0
M  V30 2109 H 192.677 -1.19308 0.806326 0
M  V30 2110 H 194.63 -4.2138 -0.0407752 0
M  V30 2111 H 193.354 -3.18245 -0.734001 0
M  V30 2112 H 192.013 -3.39305 1.38808 0
M  V30 2113 H 191.661 -5.00602 -0.490531 0
M  V30 2114 H 191.361 -5.7743 1.08851 0
M  V30 2115 H 192.885 -6.10219 0.215642 0
M  V30 2116 H 194.299 -5.2433 2.31843 0
M  V30 2117 H 192.696 -5.13683 3.10242 0
M  V30 2118 H 193.766 -3.72329 3.10643 0
M  V30 2119 N 195.109 -0.891671 -1.2995 0
M  V30 2120 C 196.059 -0.334811 -2.25528 0
M  V30 2121 C 197.043 0.540553 -1.51548 0
M  V30 2122 O 198.235 0.383882 -1.72787 0
M  V30 2123 C 195.364 0.44374 -3.4042 0
M  V30 2124 C 194.45 -0.44609 -4.21747 0
M  V30 2125 N 194.841 -1.54963 -4.81477 0
M  V30 2126 C 193.139 -0.242415 -4.45341 0
M  V30 2127 C 193.84 -2.10015 -5.42465 0
M  V30 2128 N 192.816 -1.39423 -5.25416 0
M  V30 2129 H 196.618 -1.17792 -2.69262 0
M  V30 2130 H 194.132 -0.741822 -1.44467 0
M  V30 2131 H 196.129 0.859362 -4.07947 0
M  V30 2132 H 194.789 1.28421 -2.98225 0
M  V30 2133 H 195.8 -1.93244 -4.80497 0
M  V30 2134 H 192.477 0.560342 -4.13723 0
M  V30 2135 H 193.867 -3.02724 -5.9984 0
M  V30 2136 N 196.587 1.43421 -0.653314 0
M  V30 2137 C 197.835 2.01414 -0.166415 0
M  V30 2138 C 198.156 1.51803 1.22397 0
M  V30 2139 O 197.426 0.730693 1.81763 0
M  V30 2140 H 196.006 0.744703 -0.0585319 0
M  V30 2141 H 198.668 1.75629 -0.845003 0
M  V30 2142 H 197.764 3.11734 -0.151111 0
M  V30 2143 N 198.065 0.39524 1.52563 0
M  V30 2144 C 198.995 -0.428384 2.29537 0
M  V30 2145 C 199.976 -1.05831 1.33169 0
M  V30 2146 O 201.161 -1.06995 1.62067 0
M  V30 2147 C 198.291 -1.55274 3.10656 0
M  V30 2148 C 197.245 -1.04855 4.14957 0
M  V30 2149 C 196.571 -2.26543 4.84337 0
M  V30 2150 C 197.871 -0.112324 5.22179 0
M  V30 2151 H 199.565 0.213867 2.98635 0
M  V30 2152 H 197.111 0.104298 1.43622 0
M  V30 2153 H 199.064 -2.1358 3.63265 0
M  V30 2154 H 197.788 -2.22266 2.39302 0
M  V30 2155 H 196.447 -0.487985 3.63338 0
M  V30 2156 H 196.095 -2.92059 4.09525 0
M  V30 2157 H 195.795 -1.93466 5.54837 0
M  V30 2158 H 197.319 -2.85481 5.39753 0
M  V30 2159 H 198.733 -0.603752 5.70112 0
M  V30 2160 H 197.13 0.128968 5.99961 0
M  V30 2161 H 198.2 0.837052 4.77621 0
M  V30 2162 N 199.544 -1.57102 0.125237 0
M  V30 2163 C 200.507 -2.14471 -0.80838 0
M  V30 2164 C 201.507 -1.0811 -1.19033 0
M  V30 2165 O 202.697 -1.33856 -1.11482 0
M  V30 2166 C 199.829 -2.69005 -2.09402 0
M  V30 2167 H 201.022 -2.98297 -0.309696 0
M  V30 2168 H 198.575 -1.55807 -0.124051 0
M  V30 2169 H 199.31 -1.88785 -2.63687 0
M  V30 2170 H 199.095 -3.46799 -1.82957 0
M  V30 2171 H 200.585 -3.13278 -2.76128 0
M  V30 2172 N 201.022 0.148545 -1.56898 0
M  V30 2173 C 202.252 0.875118 -1.8715 0
M  V30 2174 C 202.66 1.75322 -0.711262 0
M  V30 2175 O 202.003 1.80745 0.328151 0
M  V30 2176 C 202.065 1.7844 -3.12089 0
M  V30 2177 C 201.729 1.08361 -4.43967 0
M  V30 2178 C 202.726 0.438247 -5.1805 0
M  V30 2179 C 200.411 1.07358 -4.90693 0
M  V30 2180 C 202.405 -0.20779 -6.37061 0
M  V30 2181 C 200.092 0.42373 -6.09629 0
M  V30 2182 C 201.09 -0.215829 -6.82659 0
M  V30 2183 O 200.778 -0.855378 -7.99336 0
M  V30 2184 H 200.51 0.258504 -0.624621 0
M  V30 2185 H 203.064 0.14652 -2.04877 0
M  V30 2186 H 201.294 2.55389 -2.90367 0
M  V30 2187 H 202.983 2.38279 -3.286 0
M  V30 2188 H 203.749 0.437817 -4.8302 0
M  V30 2189 H 199.628 1.5608 -4.33774 0
M  V30 2190 H 203.172 -0.70758 -6.94002 0
M  V30 2191 H 199.069 0.421822 -6.4412 0
M  V30 2192 H 199.837 -0.756892 -8.14993 0
M  V30 2193 N 202.5 1.5196 0.417844 0
M  V30 2194 C 203.43 1.77634 1.51554 0
M  V30 2195 C 204.411 0.626918 1.58126 0
M  V30 2196 O 205.596 0.871632 1.7354 0
M  V30 2197 C 202.726 1.91911 2.8946 0
M  V30 2198 C 201.68 3.07463 2.97743 0
M  V30 2199 C 201.006 3.06951 4.37819 0
M  V30 2200 C 202.306 4.47082 2.70027 0
M  V30 2201 H 204 2.6955 1.3032 0
M  V30 2202 H 201.546 1.29706 0.625492 0
M  V30 2203 H 203.499 2.08455 3.6623 0
M  V30 2204 H 202.223 0.966598 3.11969 0
M  V30 2205 H 200.882 2.90656 2.23416 0
M  V30 2206 H 200.53 2.09438 4.57323 0
M  V30 2207 H 200.23 3.84556 4.44286 0
M  V30 2208 H 201.754 3.25613 5.16535 0
M  V30 2209 H 203.168 4.6414 3.36522 0
M  V30 2210 H 201.565 5.2654 2.87881 0
M  V30 2211 H 202.635 4.55777 1.65514 0
M  V30 2212 N 203.978 -0.674533 1.42435 0
M  V30 2213 C 204.928 -1.7807 1.4239 0
M  V30 2214 C 205.912 -1.58169 0.295202 0
M  V30 2215 O 207.104 -1.68643 0.537449 0
M  V30 2216 C 204.233 -3.16532 1.32901 0
M  V30 2217 C 203.319 -3.42055 2.50717 0
M  V30 2218 N 203.71 -3.38162 3.76139 0
M  V30 2219 C 202.008 -3.72692 2.44983 0
M  V30 2220 C 202.709 -3.63177 4.54398 0
M  V30 2221 N 201.685 -3.83954 3.84812 0
M  V30 2222 H 205.487 -1.73454 2.37257 0
M  V30 2223 H 203.001 -0.875381 1.36788 0
M  V30 2224 H 204.998 -3.958 1.30951 0
M  V30 2225 H 203.658 -3.22345 0.390363 0
M  V30 2226 H 204.669 -3.18057 4.0873 0
M  V30 2227 H 201.346 -3.85749 1.59699 0
M  V30 2228 H 202.736 -3.66125 5.63384 0
M  V30 2229 N 205.456 -1.28612 -0.910864 0
M  V30 2230 C 206.681 -1.1891 -1.69927 0
M  V30 2231 C 207.106 0.248372 -1.86453 0
M  V30 2232 O 206.464 1.17961 -1.37676 0
M  V30 2233 C 206.512 -1.89578 -3.06745 0
M  V30 2234 O 205.616 -1.20521 -3.94396 0
M  V30 2235 H 204.957 -0.412632 -0.520222 0
M  V30 2236 H 207.487 -1.69985 -1.1387 0
M  V30 2237 H 207.497 -1.97597 -3.56958 0
M  V30 2238 H 206.172 -2.94136 -2.94035 0
M  V30 2239 H 204.749 -1.20684 -3.52831 0
M  V30 2240 N 206.934 1.1197 -1.10907 0
M  V30 2241 C 207.884 2.15946 -0.731538 0
M  V30 2242 C 208.868 1.58758 0.261699 0
M  V30 2243 O 210.06 1.76863 0.0696722 0
M  V30 2244 C 207.189 3.42877 -0.170299 0
M  V30 2245 C 206.275 4.07037 -1.19087 0
M  V30 2246 N 206.666 4.46135 -2.38322 0
M  V30 2247 C 204.964 4.33884 -1.03252 0
M  V30 2248 C 205.665 4.96331 -3.03366 0
M  V30 2249 N 204.641 4.9214 -2.30865 0
M  V30 2250 H 208.443 2.43947 -1.63912 0
M  V30 2251 H 205.957 1.28927 -0.987505 0
M  V30 2252 H 207.954 4.16732 0.118271 0
M  V30 2253 H 206.614 3.16343 0.731935 0
M  V30 2254 H 207.625 4.38345 -2.75815 0
M  V30 2255 H 204.302 4.17084 -0.186256 0
M  V30 2256 H 205.692 5.36257 -4.04818 0
M  V30 2257 N 208.412 0.89855 1.29475 0
M  V30 2258 C 209.375 0.380272 2.26023 0
M  V30 2259 C 210.375 -0.484891 1.53315 0
M  V30 2260 O 211.565 -0.290108 1.71767 0
M  V30 2261 C 208.697 -0.45651 3.3783 0
M  V30 2262 H 209.89 1.23295 2.73383 0
M  V30 2263 H 207.443 0.676589 1.40897 0
M  V30 2264 H 208.178 -1.32922 2.95808 0
M  V30 2265 H 207.963 0.163393 3.91759 0
M  V30 2266 H 209.453 -0.810466 4.0966 0
M  V30 2267 N 209.89 -1.43072 0.660911 0
M  V30 2268 C 210.82 -2.33497 -0.0122829 0
M  V30 2269 C 211.801 -1.49903 -0.803925 0
M  V30 2270 O 212.986 -1.78546 -0.763864 0
M  V30 2271 C 210.116 -3.33363 -0.973994 0
M  V30 2272 C 209.07 -4.27003 -0.291928 0
M  V30 2273 C 208.396 -5.16967 -1.36562 0
M  V30 2274 C 209.696 -5.15816 0.820462 0
M  V30 2275 H 211.39 -2.90038 0.742873 0
M  V30 2276 H 208.936 -1.39461 0.358688 0
M  V30 2277 H 210.889 -3.95524 -1.45392 0
M  V30 2278 H 209.613 -2.75095 -1.7604 0
M  V30 2279 H 208.272 -3.66217 0.167623 0
M  V30 2280 H 207.92 -4.55034 -2.14366 0
M  V30 2281 H 207.62 -5.80441 -0.914454 0
M  V30 2282 H 209.144 -5.82003 -1.84675 0
M  V30 2283 H 210.558 -5.71742 0.422366 0
M  V30 2284 H 208.955 -5.8805 1.19656 0
M  V30 2285 H 210.025 -4.55045 1.67518 0
M  V30 2286 N 211.368 -0.403325 -1.52352 0
M  V30 2287 C 212.617 0.175668 -2.00934 0
M  V30 2288 C 212.93 1.46718 -1.29356 0
M  V30 2289 O 214.136 2.12708 -1.68724 0
M  V30 2290 C 212.592 0.363612 -3.58058 0
M  V30 2291 C 212.2 -0.915472 -4.38547 0
M  V30 2292 C 213.944 0.89821 -4.14888 0
M  V30 2293 C 211.851 -0.695035 -5.87302 0
M  V30 2294 H 210.781 0.0694234 -0.750797 0
M  V30 2295 H 213.432 -0.527879 -1.75743 0
M  V30 2296 H 211.814 1.12935 -3.79555 0
M  V30 2297 H 212.988 -1.68691 -4.28812 0
M  V30 2298 H 211.303 -1.37606 -3.93006 0
M  V30 2299 H 213.9 1.07907 -5.23699 0
M  V30 2300 H 214.243 1.87126 -3.71873 0
M  V30 2301 H 214.776 0.191681 -3.97338 0
M  V30 2302 H 211.515 -1.63948 -6.34666 0
M  V30 2303 H 211.035 0.0372116 -5.99788 0
M  V30 2304 H 212.714 -0.33497 -6.46132 0
M  V30 2305 N 212.846 1.57033 -0.133567 0
M  V30 2306 C 213.796 2.12641 0.822671 0
M  V30 2307 C 214.78 1.05081 1.21847 0
M  V30 2308 O 215.972 1.31287 1.18713 0
M  V30 2309 C 213.101 2.74094 2.06706 0
M  V30 2310 C 212.187 3.88757 1.69497 0
M  V30 2311 N 212.578 4.95194 1.03037 0
M  V30 2312 C 210.876 3.99213 1.98859 0
M  V30 2313 C 211.577 5.75414 0.852873 0
M  V30 2314 N 210.553 5.25726 1.3825 0
M  V30 2315 H 214.355 2.92308 0.305537 0
M  V30 2316 H 211.869 1.62256 0.0684276 0
M  V30 2317 H 213.866 3.12285 2.76195 0
M  V30 2318 H 212.526 1.95896 2.5895 0
M  V30 2319 H 213.537 5.13247 0.692669 0
M  V30 2320 H 210.214 3.32075 2.53047 0
M  V30 2321 H 211.604 6.71089 0.330091 0
M  V30 2322 N 214.325 -0.140222 1.56975 0
M  V30 2323 C 215.741 -0.493088 1.51792 0
M  V30 2324 C 215.941 -1.83013 0.843116 0
M  V30 2325 O 214.997 -2.49041 0.416493 0
M  V30 2326 C 216.31 -0.497144 2.96562 0
M  V30 2327 C 217.858 -0.582186 3.07538 0
M  V30 2328 C 218.333 -0.616838 4.53827 0
M  V30 2329 N 219.824 -0.678873 4.58198 0
M  V30 2330 C 220.559 -0.726782 5.68775 0
M  V30 2331 N 220.055 -0.733623 6.88905 0
M  V30 2332 N 221.848 -0.768179 5.56826 0
M  V30 2333 H 213.999 0.736108 1.99237 0
M  V30 2334 H 216.262 0.269182 0.90898 0
M  V30 2335 H 215.968 0.417217 3.49217 0
M  V30 2336 H 215.842 -1.33263 3.52875 0
M  V30 2337 H 218.229 -1.48697 2.54899 0
M  V30 2338 H 218.31 0.280581 2.54257 0
M  V30 2339 H 217.954 0.283812 5.07106 0
M  V30 2340 H 217.884 -1.49619 5.04898 0
M  V30 2341 H 220.375 -0.68061 3.7172 0
M  V30 2342 H 220.688 -0.772215 7.68932 0
M  V30 2343 H 219.033 -0.701389 6.91452 0
M  V30 2344 H 222.224 -0.760051 4.61888 0
M  V30 2345 H 222.397 -0.80205 6.43017 0
M  V30 2346 N 215.803 -1.52179 -0.40978 0
M  V30 2347 C 217.08 -1.56769 -1.16974 0
M  V30 2348 C 217.46 -0.348322 -2.08206 0
M  V30 2349 O 216.808 0.664862 -2.18613 0
M  V30 2350 C 217.018 -2.89603 -1.9476 0
M  V30 2351 C 218.366 -3.42579 -2.50849 0
M  V30 2352 O 219.39 -2.91338 -2.04941 0
M  V30 2353 O 218.249 -4.32054 -3.34652 0
M  V30 2354 H 215.343 -0.631439 -0.534054 0
M  V30 2355 H 217.889 -1.64507 -0.416613 0
M  V30 2356 H 216.661 -3.698 -1.27921 0
M  V30 2357 H 216.284 -2.85155 -2.77079 0
M  V30 2358 N 217.281 0.66697 -1.42791 0
M  V30 2359 C 218.53 1.42278 -1.42968 0
M  V30 2360 C 218.843 1.9553 -0.0524489 0
M  V30 2361 O 220.049 2.71414 0.068363 0
M  V30 2362 C 218.505 2.57418 -2.51524 0
M  V30 2363 C 218.113 2.10832 -3.9529 0
M  V30 2364 C 219.857 3.34878 -2.60877 0
M  V30 2365 C 217.764 3.23101 -4.95338 0
M  V30 2366 H 216.694 0.534533 -0.531781 0
M  V30 2367 H 219.345 0.721302 -1.68729 0
M  V30 2368 H 217.727 3.29971 -2.18941 0
M  V30 2369 H 218.901 1.4538 -4.37266 0
M  V30 2370 H 217.216 1.46289 -3.89857 0
M  V30 2371 H 219.813 4.18505 -3.32802 0
M  V30 2372 H 220.156 3.81993 -1.6549 0
M  V30 2373 H 220.689 2.69398 -2.92693 0
M  V30 2374 H 217.428 2.80969 -5.9223 0
M  V30 2375 H 216.948 3.87309 -4.57987 0
M  V30 2376 H 218.627 3.88447 -5.17415 0
M  V30 2377 N 218.759 1.29093 0.90403 0
M  V30 2378 C 219.706 1.13853 2.00764 0
M  V30 2379 C 220.676 0.0330084 1.66067 0
M  V30 2380 O 221.861 0.199733 1.89752 0
M  V30 2381 C 219.001 0.816537 3.35301 0
M  V30 2382 C 218.114 2.00206 3.82807 0
M  V30 2383 C 217.249 1.61983 5.059 0
M  V30 2384 C 216.288 2.77143 5.45764 0
M  V30 2385 N 215.425 2.39346 6.60044 0
M  V30 2386 H 220.265 2.08276 2.13132 0
M  V30 2387 H 217.802 1.03648 1.04381 0
M  V30 2388 H 219.76 0.610557 4.12708 0
M  V30 2389 H 218.39 -0.090779 3.22672 0
M  V30 2390 H 217.442 2.31988 3.01473 0
M  V30 2391 H 218.754 2.86512 4.08304 0
M  V30 2392 H 217.908 1.37649 5.90879 0
M  V30 2393 H 216.647 0.728202 4.82233 0
M  V30 2394 H 215.652 3.02165 4.59322 0
M  V30 2395 H 216.877 3.66964 5.71414 0
M  V30 2396 H 214.823 1.52665 6.37989 0
M  V30 2397 H 214.74 3.19185 6.85315 0
M  V30 2398 H 216.008 2.1832 7.48303 0
M  V30 2399 N 220.237 -1.11381 1.11499 0
M  V30 2400 C 221.2 -2.15622 0.777153 0
M  V30 2401 C 222.2 -1.59504 -0.203779 0
M  V30 2402 O 223.39 -1.74188 0.020782 0
M  V30 2403 C 220.522 -3.40556 0.153116 0
M  V30 2404 H 221.715 -2.47021 1.70061 0
M  V30 2405 H 219.268 -1.26577 0.916952 0
M  V30 2406 H 220.003 -3.14767 -0.780536 0
M  V30 2407 H 219.788 -3.8257 0.859238 0
M  V30 2408 H 221.278 -4.17546 -0.0671044 0
M  V30 2409 N 221.715 -0.905404 -1.28997 0
M  V30 2410 C 222.963 -0.533192 -1.9494 0
M  V30 2411 C 223.284 0.924618 -1.71685 0
M  V30 2412 O 222.554 1.65268 -1.05183 0
M  V30 2413 H 221.134 -0.194194 -0.721317 0
M  V30 2414 H 223.796 -1.15294 -1.57141 0
M  V30 2415 H 222.892 -0.72059 -3.03667 0
M  V30 2416 N 223.193 1.4272 -0.668489 0
M  V30 2417 C 224.141 2.32586 0.0254857 0
M  V30 2418 C 225.135 1.49471 0.797176 0
M  V30 2419 O 226.341 1.65583 0.705853 0
M  V30 2420 H 222.716 0.751514 0.0270339 0
M  V30 2421 H 224.687 2.88823 -0.749936 0
M  V30 2422 C 223.436 3.3397 0.967427 0
M  V30 2423 H 222.759 3.97961 0.383048 0
M  V30 2424 H 224.199 3.9945 1.42181 0
M  V30 2425 C 222.658 2.65744 2.0708 0
M  V30 2426 O 223.188 2.48454 3.15648 0
M  V30 2427 N 221.394 2.2487 1.8407 0
M  V30 2428 H 220.941 2.39132 0.95778 0
M  V30 2429 H 220.899 1.79552 2.58086 0
M  V30 2430 N 224.671 0.411399 1.52136 0
M  V30 2431 C 225.92 -0.165009 2.01024 0
M  V30 2432 C 226.233 -1.4603 1.30133 0
M  V30 2433 O 227.439 -2.1181 1.69849 0
M  V30 2434 C 225.895 -0.344618 3.58246 0
M  V30 2435 C 225.503 0.938716 4.38055 0
M  V30 2436 C 227.247 -0.876195 4.15359 0
M  V30 2437 C 225.154 0.726172 5.86925 0
M  V30 2438 H 224.084 -0.0654407 0.751155 0
M  V30 2439 H 226.735 0.537192 1.75461 0
M  V30 2440 H 225.117 -1.10921 3.80148 0
M  V30 2441 H 226.291 1.70963 4.27912 0
M  V30 2442 H 224.606 1.39688 3.92271 0
M  V30 2443 H 227.203 -1.05128 5.24263 0
M  V30 2444 H 227.546 -1.85152 3.7286 0
M  V30 2445 H 228.079 -0.170607 3.97434 0
M  V30 2446 H 224.818 1.67312 6.33788 0
M  V30 2447 H 224.338 -0.00540283 5.998 0
M  V30 2448 H 226.017 0.369231 6.45946 0
M  V30 2449 N 226.149 -1.5696 0.141893 0
M  V30 2450 C 227.079 -2.19516 -0.795936 0
M  V30 2451 C 228.06 -1.14187 -1.26077 0
M  V30 2452 O 229.245 -1.42511 -1.31925 0
M  V30 2453 C 226.375 -2.81272 -2.03723 0
M  V30 2454 C 225.329 -3.92384 -1.70936 0
M  V30 2455 C 224.655 -4.41052 -3.02287 0
M  V30 2456 C 225.955 -5.13403 -0.959954 0
M  V30 2457 H 227.649 -2.98138 -0.274596 0
M  V30 2458 H 225.195 -1.43406 -0.130636 0
M  V30 2459 H 227.148 -3.237 -2.69808 0
M  V30 2460 H 225.872 -1.99973 -2.58221 0
M  V30 2461 H 224.531 -3.50566 -1.07232 0
M  V30 2462 H 224.179 -3.56582 -3.54765 0
M  V30 2463 H 223.879 -5.15993 -2.81114 0
M  V30 2464 H 225.403 -4.86146 -3.69451 0
M  V30 2465 H 226.817 -5.52706 -1.52279 0
M  V30 2466 H 225.214 -5.94073 -0.848357 0
M  V30 2467 H 226.284 -4.84875 0.0492434 0
M  V30 2468 N 227.627 0.131896 -1.57047 0
M  V30 2469 C 228.557 1.16384 -2.02428 0
M  V30 2470 C 229.538 1.43936 -0.90644 0
M  V30 2471 O 230.723 1.54599 -1.17528 0
M  V30 2472 C 227.853 2.49328 -2.4177 0
M  V30 2473 C 226.807 2.36266 -3.56879 0
M  V30 2474 C 226.133 3.74057 -3.8208 0
M  V30 2475 C 227.433 1.834 -4.89042 0
M  V30 2476 H 229.127 0.786433 -2.88887 0
M  V30 2477 H 226.673 0.376855 -1.38981 0
M  V30 2478 H 228.626 3.21759 -2.7212 0
M  V30 2479 H 227.35 2.88934 -1.52266 0
M  V30 2480 H 226.009 1.66286 -3.26718 0
M  V30 2481 H 225.657 4.11125 -2.89803 0
M  V30 2482 H 225.357 3.66174 -4.59554 0
M  V30 2483 H 226.881 4.48012 -4.1487 0
M  V30 2484 H 228.295 2.45636 -5.18011 0
M  V30 2485 H 226.692 1.8637 -5.70426 0
M  V30 2486 H 227.762 0.790662 -4.7841 0
M  V30 2487 N 229.106 1.52395 0.401703 0
M  V30 2488 C 230.334 1.70676 1.16949 0
M  V30 2489 C 230.749 0.419503 1.8408 0
M  V30 2490 O 230.106 -0.605061 1.72178 0
M  V30 2491 C 230.157 2.84753 2.22706 0
M  V30 2492 O 229.878 4.08495 1.58314 0
M  V30 2493 C 231.379 3.14608 3.12309 0
M  V30 2494 H 228.599 0.571787 0.351142 0
M  V30 2495 H 231.143 1.98987 0.471652 0
M  V30 2496 H 229.298 2.58941 2.88147 0
M  V30 2497 H 229.712 4.72117 2.28485 0
M  V30 2498 H 231.186 3.97923 3.82572 0
M  V30 2499 H 231.663 2.28464 3.75101 0
M  V30 2500 H 232.269 3.42212 2.52529 0
M  V30 2501 N 230.584 -0.659388 1.43143 0
M  V30 2502 C 231.494 -1.80167 1.50256 0
M  V30 2503 C 232.51 -1.69571 0.390106 0
M  V30 2504 O 233.686 -1.90849 0.643319 0
M  V30 2505 C 230.751 -3.16409 1.41725 0
M  V30 2506 C 229.812 -3.38848 2.63591 0
M  V30 2507 C 229.045 -4.68591 2.55458 0
M  V30 2508 O 229.268 -5.47532 1.59891 0
M  V30 2509 O 228.202 -4.92614 3.45854 0
M  V30 2510 H 232.028 -1.77121 2.46702 0
M  V30 2511 H 229.613 -0.817092 1.25076 0
M  V30 2512 H 231.495 -3.9768 1.39387 0
M  V30 2513 H 230.17 -3.20059 0.484118 0
M  V30 2514 H 229.077 -2.57366 2.71502 0
M  V30 2515 H 230.41 -3.4004 3.55856 0
M  V30 2516 N 232.062 -1.29571 -0.897171 0
M  V30 2517 C 233.473 -1.15964 -1.46319 0
M  V30 2518 C 233.824 0.244267 -1.94674 0
M  V30 2519 O 232.949 1.13998 -1.83939 0
M  V30 2520 C 233.544 -2.09906 -2.65942 0
M  V30 2521 C 232.103 -2.00314 -3.18671 0
M  V30 2522 C 231.25 -2.00687 -1.91363 0
M  V30 2523 H 234.201 -1.42019 -0.708268 0
M  V30 2524 H 234.222 -1.67276 -3.41759 0
M  V30 2525 H 233.734 -3.12075 -2.30718 0
M  V30 2526 H 231.835 -1.01242 -3.58582 0
M  V30 2527 H 231.948 -2.88102 -3.82798 0
M  V30 2528 H 230.312 -1.45319 -2.09175 0
M  V30 2529 H 231.095 -3.04566 -1.58413 0
M  V30 2530 N 233.54 1.10788 -1.12088 0
M  V30 2531 C 234.788 1.8231 -0.872205 0
M  V30 2532 C 235.109 1.85419 0.603709 0
M  V30 2533 O 234.379 1.32963 1.43867 0
M  V30 2534 H 232.959 0.675137 -0.319686 0
M  V30 2535 H 235.621 1.34068 -1.41463 0
M  V30 2536 H 234.717 2.85955 -1.25045 0
M  V30 2537 N 235.018 0.912232 1.28515 0
M  V30 2538 C 235.95 0.35676 2.26406 0
M  V30 2539 C 236.963 -0.503933 1.54804 0
M  V30 2540 O 238.152 -0.319059 1.75625 0
M  V30 2541 C 235.252 -0.508825 3.35058 0
M  V30 2542 C 234.425 0.329007 4.36161 0
M  V30 2543 C 233.484 -0.471422 5.24084 0
M  V30 2544 O 232.51 0.115482 5.69083 0
M  V30 2545 N 233.712 -1.77479 5.52704 0
M  V30 2546 H 236.477 1.19818 2.74707 0
M  V30 2547 H 234.038 0.778022 1.4198 0
M  V30 2548 H 236.03 -1.051 3.90815 0
M  V30 2549 H 234.6 -1.25095 2.86478 0
M  V30 2550 H 233.82 1.05256 3.79888 0
M  V30 2551 H 235.108 0.90234 5.00735 0
M  V30 2552 H 234.506 -2.27417 5.17975 0
M  V30 2553 H 233.063 -2.26382 6.11224 0
M  V30 2554 N 236.496 -1.42363 0.676048 0
M  V30 2555 C 237.742 -2.0182 0.199125 0
M  V30 2556 C 238.075 -1.53339 -1.19168 0
M  V30 2557 O 237.35 -0.736124 -1.80032 0
M  V30 2558 C 237.633 -3.59331 0.235144 0
M  V30 2559 C 237.486 -4.17989 1.66149 0
M  V30 2560 C 238.805 -4.3813 -0.41595 0
M  V30 2561 H 235.924 -0.733293 0.0738311 0
M  V30 2562 H 238.566 -1.69368 0.86107 0
M  V30 2563 H 236.716 -3.87109 -0.328487 0
M  V30 2564 H 238.388 -4.0116 2.27747 0
M  V30 2565 H 236.631 -3.7377 2.20178 0
M  V30 2566 H 237.302 -5.27126 1.63837 0
M  V30 2567 H 239.778 -4.16051 0.0638529 0
M  V30 2568 H 238.654 -5.47717 -0.360115 0
M  V30 2569 H 238.915 -4.16101 -1.49373 0
M  V30 2570 N 237.974 -0.419461 -1.51915 0
M  V30 2571 C 238.921 0.400927 -2.27291 0
M  V30 2572 C 239.891 1.03224 -1.30131 0
M  V30 2573 O 241.076 1.05455 -1.59009 0
M  V30 2574 C 238.216 1.50603 -3.10504 0
M  V30 2575 C 237.329 0.89462 -4.22635 0
M  V30 2576 C 236.464 1.97328 -4.93189 0
M  V30 2577 C 235.503 1.33935 -5.97267 0
M  V30 2578 N 234.64 2.3586 -6.61298 0
M  V30 2579 H 239.48 -0.248251 -2.96964 0
M  V30 2580 H 237.017 -0.134266 -1.46486 0
M  V30 2581 H 238.975 2.15783 -3.57062 0
M  V30 2582 H 237.605 2.12509 -2.42981 0
M  V30 2583 H 236.657 0.131583 -3.80172 0
M  V30 2584 H 237.969 0.391641 -4.9726 0
M  V30 2585 H 237.123 2.70211 -5.43204 0
M  V30 2586 H 235.862 2.50994 -4.18155 0
M  V30 2587 H 234.867 0.595896 -5.46561 0
M  V30 2588 H 236.092 0.810252 -6.74249 0
M  V30 2589 H 234.038 2.88639 -5.89087 0
M  V30 2590 H 233.955 1.90403 -7.3163 0
M  V30 2591 H 235.223 3.08282 -7.15949 0
M  V30 2592 N 239.452 1.56882 -0.150215 0
M  V30 2593 C 240.382 2.19935 0.784284 0
M  V30 2594 C 241.363 1.14854 1.25469 0
M  V30 2595 O 242.548 1.43209 1.31168 0
M  V30 2596 C 239.678 2.82349 2.02229 0
M  V30 2597 C 238.632 3.93285 1.68853 0
M  V30 2598 C 237.958 4.42649 2.99944 0
M  V30 2599 C 239.258 5.13904 0.932714 0
M  V30 2600 H 240.952 2.9828 0.258781 0
M  V30 2601 H 238.498 1.43473 0.123029 0
M  V30 2602 H 240.451 3.25126 2.68088 0
M  V30 2603 H 239.175 2.0134 2.57157 0
M  V30 2604 H 237.834 3.5113 1.05371 0
M  V30 2605 H 237.482 3.58458 3.52869 0
M  V30 2606 H 237.182 5.17476 2.78374 0
M  V30 2607 H 238.706 4.88099 3.66868 0
M  V30 2608 H 240.12 5.53506 1.49345 0
M  V30 2609 H 238.517 5.94515 0.81684 0
M  V30 2610 H 239.587 4.84842 -0.0749568 0
M  V30 2611 N 240.93 -0.123565 1.57115 0
M  V30 2612 C 241.893 -1.13583 1.99076 0
M  V30 2613 C 242.893 -1.34564 0.880296 0
M  V30 2614 O 244.083 -1.31158 1.14644 0
M  V30 2615 C 241.215 -2.49128 2.32698 0
M  V30 2616 H 242.408 -0.775287 2.89706 0
M  V30 2617 H 239.961 -0.36771 1.51913 0
M  V30 2618 H 240.696 -2.90111 1.44934 0
M  V30 2619 H 240.481 -2.35255 3.13684 0
M  V30 2620 H 241.971 -3.2199 2.65918 0
M  V30 2621 N 242.408 -1.52605 -0.393616 0
M  V30 2622 C 243.685 -1.58001 -1.15304 0
M  V30 2623 C 244.065 -0.370385 -2.07825 0
M  V30 2624 O 243.413 0.641638 -2.19306 0
M  V30 2625 C 243.623 -2.91652 -1.91677 0
M  V30 2626 C 244.971 -3.4522 -2.47201 0
M  V30 2627 O 245.995 -2.93495 -2.01839 0
M  V30 2628 O 244.854 -4.35579 -3.3005 0
M  V30 2629 H 241.948 -0.637068 -0.527327 0
M  V30 2630 H 244.494 -1.64939 -0.399141 0
M  V30 2631 H 243.266 -3.71136 -1.23992 0
M  V30 2632 H 242.889 -2.88077 -2.74039 0
M  V30 2633 N 243.887 0.651787 -1.4349 0
M  V30 2634 C 245.134 1.41167 -1.45183 0
M  V30 2635 C 245.462 1.94349 -0.0766601 0
M  V30 2636 O 244.717 1.72804 0.918555 0
M  V30 2637 C 245.016 2.60914 -2.44251 0
M  V30 2638 C 244.682 2.26142 -3.9009 0
M  V30 2639 C 243.344 2.16371 -4.2981 0
M  V30 2640 C 245.696 1.98334 -4.81989 0
M  V30 2641 C 243.024 1.7695 -5.5938 0
M  V30 2642 C 245.376 1.6041 -6.11924 0
M  V30 2643 C 244.04 1.49166 -6.5062 0
M  V30 2644 H 243.31 0.516566 -0.531263 0
M  V30 2645 H 245.957 0.741099 -1.76579 0
M  V30 2646 H 244.262 3.3311 -2.06265 0
M  V30 2647 H 245.959 3.19127 -2.42815 0
M  V30 2648 H 242.549 2.34658 -3.58655 0
M  V30 2649 H 246.733 2.04803 -4.52072 0
M  V30 2650 H 241.989 1.66831 -5.88198 0
M  V30 2651 H 246.163 1.37925 -6.82605 0
M  V30 2652 H 243.79 1.1839 -7.50925 0
M  V30 2653 N 245.365 1.30045 0.890287 0
M  V30 2654 C 246.613 1.18327 1.63839 0
M  V30 2655 C 246.934 -0.263455 1.93212 0
M  V30 2656 O 246.204 -1.17856 1.56482 0
M  V30 2657 H 244.784 0.434933 0.607324 0
M  V30 2658 H 247.446 1.631 1.06698 0
M  V30 2659 H 246.542 1.74024 2.59079 0
M  V30 2660 N 246.843 -1.10192 1.12674 0
M  V30 2661 C 248.068 -1.86523 0.906853 0
M  V30 2662 C 248.493 -1.80221 -0.538711 0
M  V30 2663 O 247.851 -1.17396 -1.38158 0
M  V30 2664 C 247.899 -3.32758 1.3894 0
M  V30 2665 O 247.003 -4.08449 0.5695 0
M  V30 2666 H 246.344 -0.578678 0.325619 0
M  V30 2667 H 248.874 -1.39203 1.49946 0
M  V30 2668 H 248.884 -3.83608 1.38958 0
M  V30 2669 H 247.559 -3.36661 2.44197 0
M  V30 2670 H 246.136 -3.67427 0.636528 0
M  V30 2671 N 248.321 -0.919034 -1.28029 0
M  V30 2672 C 249.284 -0.416182 -2.2539 0
M  V30 2673 C 250.284 0.460438 -1.54067 0
M  V30 2674 O 251.474 0.262744 -1.72207 0
M  V30 2675 C 248.606 0.402707 -3.38513 0
M  V30 2676 H 249.799 -1.27629 -2.71387 0
M  V30 2677 H 247.352 -0.698919 -1.39803 0
M  V30 2678 H 248.087 1.282 -2.97885 0
M  V30 2679 H 247.872 -0.225698 -3.9145 0
M  V30 2680 H 249.362 0.745191 -4.10897 0
M  V30 2681 N 249.799 1.42003 -0.683588 0
M  V30 2682 C 251.024 2.06265 -0.216647 0
M  V30 2683 C 251.449 1.51059 1.12083 0
M  V30 2684 O 250.807 0.632638 1.69904 0
M  V30 2685 C 250.855 3.60191 -0.171759 0
M  V30 2686 O 249.959 4.03396 0.857069 0
M  V30 2687 H 249.3 0.65502 -0.108834 0
M  V30 2688 H 251.83 1.81982 -0.935077 0
M  V30 2689 H 251.84 4.08 0.0014303 0
M  V30 2690 H 250.515 3.99743 -1.14796 0
M  V30 2691 H 249.092 3.67117 0.654208 0
M  V30 2692 N 251.277 0.427512 1.51691 0
M  V30 2693 C 252.21 -0.433876 2.24037 0
M  V30 2694 C 253.188 -1.03287 1.25581 0
M  V30 2695 O 254.372 -1.07722 1.54688 0
M  V30 2696 C 251.499 -1.60385 2.98319 0
M  V30 2697 C 250.545 -1.12648 4.11355 0
M  V30 2698 S 251.378 -0.076543 5.35445 0
M  V30 2699 C 252.534 -1.25141 6.13262 0
M  V30 2700 H 252.767 0.180367 2.96752 0
M  V30 2701 H 250.3 0.211946 1.52938 0
M  V30 2702 H 252.258 -2.27462 3.41718 0
M  V30 2703 H 250.919 -2.18948 2.25213 0
M  V30 2704 H 250.112 -2.0011 4.62571 0
M  V30 2705 H 249.714 -0.534088 3.70167 0
M  V30 2706 H 252.006 -2.17162 6.41753 0
M  V30 2707 H 252.949 -0.779411 7.03797 0
M  V30 2708 H 253.357 -1.48553 5.44603 0
M  V30 2709 N 252.755 -1.56801 0.158532 0
M  V30 2710 C 253.718 -2.16138 -0.762705 0
M  V30 2711 C 254.718 -1.1061 -1.16713 0
M  V30 2712 O 255.908 -1.36191 -1.08617 0
M  V30 2713 C 253.04 -2.73386 -2.03649 0
M  V30 2714 H 254.233 -2.98886 -0.246354 0
M  V30 2715 H 251.786 -1.56035 -0.0909744 0
M  V30 2716 H 252.521 -1.94335 -2.59623 0
M  V30 2717 H 252.306 -3.50601 -1.75559 0
M  V30 2718 H 253.796 -3.19065 -2.6942 0
M  V30 2719 N 254.233 0.115231 -1.57178 0
M  V30 2720 C 255.458 0.840354 -1.89612 0
M  V30 2721 C 255.883 1.72464 -0.750845 0
M  V30 2722 O 255.241 1.78826 0.298478 0
M  V30 2723 C 255.289 1.64654 -3.20814 0
M  V30 2724 O 254.393 2.7538 -3.06985 0
M  V30 2725 H 253.734 0.232158 -0.622092 0
M  V30 2726 H 256.264 0.0964977 -2.04372 0
M  V30 2727 H 256.274 2.03499 -3.53627 0
M  V30 2728 H 254.949 0.997416 -4.03763 0
M  V30 2729 H 253.526 2.3971 -2.85646 0
M  V30 2730 N 255.711 1.52812 0.385517 0
M  V30 2731 C 257.122 1.5993 0.963293 0
M  V30 2732 C 257.473 0.454302 1.90868 0
M  V30 2733 O 256.598 -0.422132 2.12243 0
M  V30 2734 C 257.193 2.89871 1.75387 0
M  V30 2735 C 255.752 2.99389 2.28129 0
M  V30 2736 C 254.899 2.55071 1.08783 0
M  V30 2737 H 257.85 1.5784 0.164948 0
M  V30 2738 H 257.871 2.76553 2.61341 0
M  V30 2739 H 257.383 3.73186 1.06554 0
M  V30 2740 H 255.484 2.20619 3.00263 0
M  V30 2741 H 255.597 4.04096 2.57377 0
M  V30 2742 H 253.961 2.09473 1.4489 0
M  V30 2743 H 254.744 3.40785 0.414807 0
M  V30 2744 N 257.189 -0.644168 1.43834 0
M  V30 2745 C 258.152 -1.73857 1.49353 0
M  V30 2746 C 259.152 -1.56315 0.377112 0
M  V30 2747 O 260.342 -1.62048 0.639226 0
M  V30 2748 C 257.474 -3.12819 1.35488 0
M  V30 2749 H 258.667 -1.70342 2.46827 0
M  V30 2750 H 256.22 -0.856652 1.30733 0
M  V30 2751 H 256.955 -3.2194 0.390569 0
M  V30 2752 H 256.74 -3.26958 2.16428 0
M  V30 2753 H 258.23 -3.92606 1.42302 0
M  V30 2754 N 258.668 -1.30515 -0.883378 0
M  V30 2755 C 259.616 -1.16941 -2.01066 0
M  V30 2756 C 260.61 -0.0809148 -1.69207 0
M  V30 2757 O 261.816 -0.241877 -1.78367 0
M  V30 2758 H 258.191 -0.361705 -0.659298 0
M  V30 2759 H 260.162 -2.12344 -2.09649 0
M  V30 2760 C 258.911 -0.879694 -3.36388 0
M  V30 2761 H 258.234 -1.70936 -3.61415 0
M  V30 2762 H 259.674 -0.82483 -4.159 0
M  V30 2763 C 258.133 0.417409 -3.34304 0
M  V30 2764 O 258.663 1.43843 -3.75063 0
M  V30 2765 N 256.869 0.429141 -2.87414 0
M  V30 2766 H 256.416 -0.402222 -2.5444 0
M  V30 2767 H 256.374 1.29696 -2.86403 0
M  V30 2768 N 260.146 1.09593 -1.13257 0
M  V30 2769 C 261.371 1.8604 -0.916732 0
M  V30 2770 C 261.796 1.80504 0.529146 0
M  V30 2771 O 261.154 1.18127 1.37534 0
M  V30 2772 C 261.202 3.32017 -1.40703 0
M  V30 2773 O 260.306 4.08141 -0.591153 0
M  V30 2774 H 259.647 0.576943 -0.328683 0
M  V30 2775 H 262.177 1.38405 -1.50682 0
M  V30 2776 H 262.187 3.82865 -1.4099 0
M  V30 2777 H 260.862 3.35361 -2.45979 0
M  V30 2778 H 259.439 3.67084 -0.656005 0
M  V30 2779 N 261.624 0.925811 1.2754 0
M  V30 2780 C 262.871 0.565255 1.94451 0
M  V30 2781 C 263.199 -0.89316 1.7278 0
M  V30 2782 O 262.454 -1.65213 1.04895 0
M  V30 2783 C 262.753 0.835296 3.47502 0
M  V30 2784 C 262.419 2.27515 3.89291 0
M  V30 2785 C 261.081 2.66879 4.00411 0
M  V30 2786 C 263.433 3.21158 4.10496 0
M  V30 2787 C 260.761 3.99014 4.30122 0
M  V30 2788 C 263.113 4.52871 4.4169 0
M  V30 2789 C 261.777 4.92072 4.51023 0
M  V30 2790 H 261.047 0.206841 0.711546 0
M  V30 2791 H 263.694 1.16942 1.51647 0
M  V30 2792 H 261.999 0.148442 3.91519 0
M  V30 2793 H 263.696 0.535322 3.97411 0
M  V30 2794 H 260.286 1.95976 3.81171 0
M  V30 2795 H 264.47 2.9195 4.01346 0
M  V30 2796 H 259.726 4.2907 4.35556 0
M  V30 2797 H 263.9 5.25436 4.57045 0
M  V30 2798 H 261.527 5.9449 4.738 0
M  V30 2799 N 263.102 -1.41638 0.69111 0
M  V30 2800 C 264.348 -2.01598 0.220519 0
M  V30 2801 C 264.681 -1.54594 -1.17535 0
M  V30 2802 O 263.956 -0.755177 -1.79241 0
M  V30 2803 C 264.239 -3.59062 0.273243 0
M  V30 2804 C 264.092 -4.16203 1.70573 0
M  V30 2805 C 265.411 -4.38546 -0.369457 0
M  V30 2806 H 262.53 -0.732468 0.0816045 0
M  V30 2807 H 265.172 -1.68445 0.878986 0
M  V30 2808 H 263.322 -3.87435 -0.287411 0
M  V30 2809 H 264.994 -3.98722 2.31989 0
M  V30 2810 H 263.237 -3.71414 2.2413 0
M  V30 2811 H 263.908 -5.25358 1.69419 0
M  V30 2812 H 266.384 -4.1596 0.107977 0
M  V30 2813 H 265.26 -5.48069 -0.302002 0
M  V30 2814 H 265.521 -4.17662 -1.44951 0
M  V30 2815 N 264.58 -0.43555 -1.51462 0
M  V30 2816 C 265.828 0.131254 -2.01673 0
M  V30 2817 C 266.149 1.43368 -1.32177 0
M  V30 2818 O 265.419 1.90524 -0.455769 0
M  V30 2819 H 263.999 0.0514954 -0.745223 0
M  V30 2820 H 266.661 -0.577847 -1.86137 0
M  V30 2821 H 265.757 0.308446 -3.10572 0
M  V30 2822 N 266.058 1.56714 -0.166846 0
M  V30 2823 C 267.286 2.0112 0.485644 0
M  V30 2824 C 267.701 1.04705 1.57106 0
M  V30 2825 O 267.058 0.0471923 1.82439 0
M  V30 2826 C 267.109 3.45361 1.06808 0
M  V30 2827 O 266.83 4.38092 0.0259995 0
M  V30 2828 C 268.331 4.05145 1.79924 0
M  V30 2829 H 265.551 0.65931 0.124704 0
M  V30 2830 H 268.095 2.02746 -0.267262 0
M  V30 2831 H 266.25 3.44524 1.7715 0
M  V30 2832 H 266.664 5.22519 0.455398 0
M  V30 2833 H 268.138 5.08009 2.15942 0
M  V30 2834 H 268.615 3.46982 2.69258 0
M  V30 2835 H 269.221 4.09672 1.14234 0
M  V30 2836 N 267.536 -0.106894 1.57237 0
M  V30 2837 C 268.947 -0.662723 1.74542 0
M  V30 2838 C 269.298 -1.7971 0.787319 0
M  V30 2839 O 268.423 -2.16368 -0.0369636 0
M  V30 2840 C 269.018 -1.20896 3.16496 0
M  V30 2841 C 267.577 -1.71096 3.35266 0
M  V30 2842 C 266.724 -0.615642 2.7038 0
M  V30 2843 H 269.675 0.119106 1.58252 0
M  V30 2844 H 269.696 -2.07847 3.18716 0
M  V30 2845 H 269.208 -0.383122 3.86204 0
M  V30 2846 H 267.309 -2.56119 2.70618 0
M  V30 2847 H 267.422 -1.81208 4.43509 0
M  V30 2848 H 265.786 -1.05222 2.31949 0
M  V30 2849 H 266.569 0.199419 3.4272 0
M  V30 2850 N 269.014 -1.53014 -0.377408 0
M  V30 2851 C 270.244 -1.72265 -1.14054 0
M  V30 2852 C 270.652 -0.44601 -1.83868 0
M  V30 2853 O 269.995 0.590095 -1.73964 0
M  V30 2854 C 270.057 -2.82492 -2.22348 0
M  V30 2855 C 269.721 -4.23233 -1.72402 0
M  V30 2856 C 270.718 -5.05992 -1.19448 0
M  V30 2857 C 268.403 -4.696 -1.78273 0
M  V30 2858 C 270.397 -6.33203 -0.730268 0
M  V30 2859 C 268.084 -5.96792 -1.31464 0
M  V30 2860 C 269.082 -6.78424 -0.789297 0
M  V30 2861 O 268.77 -8.0323 -0.328077 0
M  V30 2862 H 268.502 -0.579873 -0.347453 0
M  V30 2863 H 271.056 -2.00502 -0.445882 0
M  V30 2864 H 269.286 -2.49702 -2.95272 0
M  V30 2865 H 270.975 -2.90034 -2.83963 0
M  V30 2866 H 271.741 -4.71349 -1.14259 0
M  V30 2867 H 267.62 -4.06142 -2.18106 0
M  V30 2868 H 271.164 -6.96868 -0.319542 0
M  V30 2869 H 267.061 -6.30937 -1.36342 0
M  V30 2870 H 267.829 -8.1727 -0.448493 0
M  V30 2871 N 270.492 0.636531 -1.44174 0
M  V30 2872 C 271.738 1.39649 -1.47884 0
M  V30 2873 C 272.093 1.92098 -0.107747 0
M  V30 2874 O 271.386 1.70391 0.876208 0
M  V30 2875 C 271.58 2.58309 -2.47005 0
M  V30 2876 C 271.409 2.17476 -3.93617 0
M  V30 2877 C 270.179 2.0501 -4.61843 0
M  V30 2878 C 272.377 1.76722 -4.82984 0
M  V30 2879 N 270.359 1.57683 -5.93304 0
M  V30 2880 C 271.73 1.40601 -6.03847 0
M  V30 2881 C 273.785 1.64054 -4.70096 0
M  V30 2882 C 272.488 0.930787 -7.13252 0
M  V30 2883 C 274.514 1.17937 -5.79521 0
M  V30 2884 C 273.876 0.827625 -6.99521 0
M  V30 2885 H 269.975 0.506027 -0.596205 0
M  V30 2886 H 272.559 0.730791 -1.80465 0
M  V30 2887 H 270.73 3.22514 -2.16423 0
M  V30 2888 H 272.462 3.25083 -2.41045 0
M  V30 2889 H 269.217 2.25294 -4.16581 0
M  V30 2890 H 269.641 1.36334 -6.63131 0
M  V30 2891 H 274.283 1.89882 -3.77762 0
M  V30 2892 H 272.001 0.660012 -8.054 0
M  V30 2893 H 275.587 1.08601 -5.71574 0
M  V30 2894 H 274.467 0.476231 -7.82753 0
M  V30 2895 N 271.97 1.30982 0.876444 0
M  V30 2896 C 272.903 1.12414 1.98591 0
M  V30 2897 C 273.881 0.0294078 1.62573 0
M  V30 2898 O 275.065 0.184598 1.87594 0
M  V30 2899 C 272.192 0.716276 3.3104 0
M  V30 2900 C 271.238 1.81311 3.86042 0
M  V30 2901 S 272.071 3.41727 4.1229 0
M  V30 2902 C 273.227 3.02863 5.47745 0
M  V30 2903 H 273.46 2.06338 2.14037 0
M  V30 2904 H 270.993 1.15393 1.02586 0
M  V30 2905 H 272.951 0.487697 4.07593 0
M  V30 2906 H 271.612 -0.203749 3.13438 0
M  V30 2907 H 270.805 1.48021 4.81774 0
M  V30 2908 H 270.407 1.99641 3.16259 0
M  V30 2909 H 272.699 2.51353 6.29148 0
M  V30 2910 H 273.642 3.97533 5.8598 0
M  V30 2911 H 274.05 2.40487 5.10711 0
M  V30 2912 N 273.449 -1.08991 1.13837 0
M  V30 2913 C 274.412 -2.13925 0.822715 0
M  V30 2914 C 275.412 -1.599 -0.1699 0
M  V30 2915 O 276.602 -1.74104 0.0577251 0
M  V30 2916 C 273.734 -3.40155 0.225318 0
M  V30 2917 H 274.927 -2.43358 1.75262 0
M  V30 2918 H 272.48 -1.24603 0.943594 0
M  V30 2919 H 273.215 -3.16352 -0.713594 0
M  V30 2920 H 273 -3.80661 0.940193 0
M  V30 2921 H 274.49 -4.17594 0.0214784 0
M  V30 2922 N 274.927 -0.932562 -1.27047 0
M  V30 2923 C 276.338 -0.619451 -1.76124 0
M  V30 2924 C 276.689 0.865397 -1.76083 0
M  V30 2925 O 275.814 1.67722 -1.36742 0
M  V30 2926 C 276.409 -1.11771 -3.19832 0
M  V30 2927 C 274.968 -0.855174 -3.66557 0
M  V30 2928 C 274.115 -1.27362 -2.46321 0
M  V30 2929 H 277.066 -1.11181 -1.13245 0
M  V30 2930 H 277.087 -0.46759 -3.77616 0
M  V30 2931 H 276.599 -2.19842 -3.1983 0
M  V30 2932 H 274.7 0.211524 -3.71999 0
M  V30 2933 H 274.813 -1.47613 -4.55793 0
M  V30 2934 H 273.177 -0.692119 -2.45116 0
M  V30 2935 H 273.96 -2.36307 -2.49025 0
M  V30 2936 N 276.405 1.4127 -0.698611 0
M  V30 2937 C 277.315 2.34573 -0.0357891 0
M  V30 2938 C 278.331 1.56393 0.762701 0
M  V30 2939 O 279.507 1.8886 0.699564 0
M  V30 2940 C 276.572 3.35159 0.887089 0
M  V30 2941 C 275.633 4.29225 0.0804634 0
M  V30 2942 C 274.866 5.25006 0.959387 0
M  V30 2943 O 275.089 5.26314 2.19886 0
M  V30 2944 O 274.023 6.00519 0.407439 0
M  V30 2945 H 277.849 2.92838 -0.804957 0
M  V30 2946 H 275.434 1.42175 -0.458966 0
M  V30 2947 H 277.316 3.9689 1.41621 0
M  V30 2948 H 275.991 2.79333 1.6357 0
M  V30 2949 H 274.898 3.70833 -0.493328 0
M  V30 2950 H 276.231 4.88157 -0.629547 0
M  V30 2951 N 277.883 0.443576 1.51229 0
M  V30 2952 C 279.129 -0.120975 2.02439 0
M  V30 2953 C 279.462 -1.41815 1.32674 0
M  V30 2954 O 278.737 -1.89373 0.443622 0
M  V30 2955 C 279.02 -0.333291 3.58554 0
M  V30 2956 C 278.873 0.982968 4.38928 0
M  V30 2957 C 280.192 -1.10028 4.26124 0
M  V30 2958 H 277.311 -0.0424923 0.735774 0
M  V30 2959 H 279.953 0.583794 1.80809 0
M  V30 2960 H 278.103 -0.933614 3.77115 0
M  V30 2961 H 279.775 1.61775 4.32003 0
M  V30 2962 H 278.018 1.58611 4.03763 0
M  V30 2963 H 278.689 0.788379 5.46341 0
M  V30 2964 H 281.165 -0.591711 4.11871 0
M  V30 2965 H 280.041 -1.21761 5.35225 0
M  V30 2966 H 280.302 -2.12996 3.87408 0
M  V30 2967 N 279.361 -1.56624 0.175154 0
M  V30 2968 C 280.61 -1.96173 -0.468921 0
M  V30 2969 C 280.923 -1.06401 -1.64128 0
M  V30 2970 O 282.129 -1.35648 -2.35185 0
M  V30 2971 C 280.585 -3.48833 -0.885633 0
M  V30 2972 C 280.193 -4.47237 0.261343 0
M  V30 2973 C 281.937 -3.97194 -1.49791 0
M  V30 2974 C 279.844 -5.9114 -0.175214 0
M  V30 2975 H 278.774 -0.732455 -0.178958 0
M  V30 2976 H 281.425 -1.81591 0.263997 0
M  V30 2977 H 279.807 -3.58848 -1.67464 0
M  V30 2978 H 280.981 -4.4894 1.03871 0
M  V30 2979 H 279.296 -4.08956 0.783827 0
M  V30 2980 H 281.893 -5.02167 -1.83665 0
M  V30 2981 H 282.236 -3.40351 -2.39722 0
M  V30 2982 H 282.769 -3.90212 -0.773267 0
M  V30 2983 H 279.508 -6.51865 0.689414 0
M  V30 2984 H 279.028 -5.92735 -0.91786 0
M  V30 2985 H 280.707 -6.44044 -0.617792 0
M  V30 2986 N 280.839 0.0985539 -1.57292 0
M  V30 2987 C 281.769 1.12064 -2.04851 0
M  V30 2988 C 282.75 1.41981 -0.936767 0
M  V30 2989 O 283.935 1.52071 -1.20781 0
M  V30 2990 C 281.065 2.44144 -2.47004 0
M  V30 2991 C 280.019 2.28643 -3.6181 0
M  V30 2992 C 279.345 3.65869 -3.89929 0
M  V30 2993 C 280.645 1.72986 -4.92822 0
M  V30 2994 H 282.339 0.724979 -2.9049 0
M  V30 2995 H 279.885 0.34729 -1.39749 0
M  V30 2996 H 281.838 3.15914 -2.78884 0
M  V30 2997 H 280.562 2.85639 -1.5836 0
M  V30 2998 H 279.221 1.59318 -3.30172 0
M  V30 2999 H 278.869 4.04885 -2.98458 0
M  V30 3000 H 278.569 3.56344 -4.67218 0
M  V30 3001 H 280.093 4.39112 -4.2428 0
M  V30 3002 H 281.507 2.34593 -5.23105 0
M  V30 3003 H 279.904 1.74229 -5.74251 0
M  V30 3004 H 280.974 0.689007 -4.7998 0
M  V30 3005 N 282.317 1.53212 0.369288 0
M  V30 3006 C 283.28 1.7872 1.43498 0
M  V30 3007 C 284.28 0.657554 1.46741 0
M  V30 3008 O 285.47 0.925736 1.47566 0
M  V30 3009 C 282.602 1.90591 2.82645 0
M  V30 3010 H 283.795 2.73894 1.22156 0
M  V30 3011 H 281.348 1.44233 0.602203 0
M  V30 3012 H 282.083 0.974709 3.09306 0
M  V30 3013 H 281.868 2.72751 2.8169 0
M  V30 3014 H 283.358 2.11931 3.59826 0
M  V30 3015 N 283.795 -0.628877 1.44509 0
M  V30 3016 C 284.728 -1.75367 1.46019 0
M  V30 3017 C 285.706 -1.59444 0.318787 0
M  V30 3018 O 286.89 -1.81297 0.516099 0
M  V30 3019 C 284.017 -3.12965 1.29501 0
M  V30 3020 C 283.063 -3.47532 2.47233 0
M  V30 3021 S 283.896 -3.44758 4.09758 0
M  V30 3022 C 285.052 -4.84973 3.95667 0
M  V30 3023 H 285.285 -1.7382 2.41193 0
M  V30 3024 H 282.818 -0.803686 1.31834 0
M  V30 3025 H 284.776 -3.92367 1.20658 0
M  V30 3026 H 283.437 -3.12049 0.358341 0
M  V30 3027 H 282.63 -4.47664 2.31544 0
M  V30 3028 H 282.232 -2.75598 2.52828 0
M  V30 3029 H 284.524 -5.74255 3.59496 0
M  V30 3030 H 285.467 -5.05716 4.95638 0
M  V30 3031 H 285.875 -4.59653 3.27688 0
M  V30 3032 N 285.273 -1.31445 -0.869486 0
M  V30 3033 C 286.55 -1.11795 -1.60503 0
M  V30 3034 C 286.93 0.327168 -2.08549 0
M  V30 3035 O 286.278 1.32135 -1.8642 0
M  V30 3036 C 286.488 -2.13258 -2.76265 0
M  V30 3037 C 287.836 -2.45805 -3.46215 0
M  V30 3038 O 288.86 -2.11688 -2.86473 0
M  V30 3039 O 287.719 -3.04228 -4.5399 0
M  V30 3040 H 284.813 -0.430421 -0.706163 0
M  V30 3041 H 287.359 -1.42925 -0.914907 0
M  V30 3042 H 286.131 -3.10461 -2.3818 0
M  V30 3043 H 285.754 -1.83035 -3.52964 0
M  V30 3044 N 286.751 1.08385 -1.14413 0
M  V30 3045 C 287.661 2.18856 -0.844951 0
M  V30 3046 C 288.677 1.73121 0.174668 0
M  V30 3047 O 289.853 2.014 0.00312857 0
M  V30 3048 C 286.918 3.45155 -0.32696 0
M  V30 3049 C 285.979 4.05513 -1.40916 0
M  V30 3050 C 285.212 5.25784 -0.915793 0
M  V30 3051 O 285.435 5.69884 0.242651 0
M  V30 3052 O 284.369 5.77545 -1.69487 0
M  V30 3053 H 288.195 2.46919 -1.76818 0
M  V30 3054 H 285.78 1.17524 -0.922411 0
M  V30 3055 H 287.662 4.21377 -0.0440211 0
M  V30 3056 H 286.337 3.18668 0.568539 0
M  V30 3057 H 285.244 3.30879 -1.74556 0
M  V30 3058 H 286.577 4.3625 -2.27919 0
M  V30 3059 N 288.23 0.939286 1.26551 0
M  V30 3060 C 289.478 0.58469 1.93457 0
M  V30 3061 C 289.799 -0.878774 1.74076 0
M  V30 3062 O 289.069 -1.62421 1.09528 0
M  V30 3063 H 287.649 0.21325 0.715914 0
M  V30 3064 H 290.311 1.1942 1.54029 0
M  V30 3065 H 289.407 0.800849 3.0165 0
M  V30 3066 N 289.708 -1.40897 0.706093 0
M  V30 3067 C 290.64 -2.29199 0.00815776 0
M  V30 3068 C 291.653 -1.45336 -0.733582 0
M  V30 3069 O 292.842 -1.68727 -0.582537 0
M  V30 3070 C 289.942 -3.23417 -1.01265 0
M  V30 3071 C 289.115 -4.36089 -0.338387 0
M  V30 3072 C 288.174 -5.10811 -1.26326 0
M  V30 3073 O 287.2 -5.64215 -0.751651 0
M  V30 3074 N 288.402 -5.19269 -2.595 0
M  V30 3075 H 291.167 -2.89738 0.766297 0
M  V30 3076 H 288.728 -1.52164 0.55296 0
M  V30 3077 H 290.72 -3.70276 -1.63334 0
M  V30 3078 H 289.29 -2.64112 -1.67223 0
M  V30 3079 H 288.51 -3.91479 0.462352 0
M  V30 3080 H 289.798 -5.08634 0.130031 0
M  V30 3081 H 289.196 -4.77347 -3.03573 0
M  V30 3082 H 287.753 -5.69667 -3.16737 0
M  V30 3083 N 291.186 -0.45159 -1.50991 0
M  V30 3084 C 292.416 0.108177 -2.06317 0
M  V30 3085 C 292.824 1.35774 -1.31765 0
M  V30 3086 O 292.167 1.79838 -0.374694 0
M  V30 3087 C 292.229 0.481659 -3.56259 0
M  V30 3088 C 291.893 -0.663114 -4.52163 0
M  V30 3089 C 292.89 -1.53947 -4.96585 0
M  V30 3090 C 290.575 -0.8479 -4.95092 0
M  V30 3091 C 292.569 -2.58518 -5.82621 0
M  V30 3092 C 290.256 -1.89686 -5.80915 0
M  V30 3093 C 291.254 -2.76388 -6.24579 0
M  V30 3094 O 290.942 -3.79482 -7.08695 0
M  V30 3095 H 290.674 0.00499183 -0.675982 0
M  V30 3096 H 293.228 -0.633659 -1.95381 0
M  V30 3097 H 291.458 1.27641 -3.65027 0
M  V30 3098 H 293.147 0.974233 -3.94035 0
M  V30 3099 H 293.913 -1.4083 -4.64103 0
M  V30 3100 H 289.792 -0.18258 -4.60638 0
M  V30 3101 H 293.336 -3.26224 -6.16623 0
M  V30 3102 H 289.233 -2.02817 -6.12809 0
M  V30 3103 H 290.001 -3.76234 -7.26905 0
M  V30 3104 N 292.664 1.56529 -0.183458 0
M  V30 3105 C 293.941 1.88959 0.50536 0
M  V30 3106 C 294.321 1.09523 1.80466 0
M  V30 3107 O 293.669 0.19278 2.27685 0
M  V30 3108 C 293.879 3.41162 0.73547 0
M  V30 3109 C 295.227 4.11155 1.06005 0
M  V30 3110 O 296.251 3.46548 0.823594 0
M  V30 3111 O 295.11 5.25318 1.50675 0
M  V30 3112 H 292.204 0.78441 0.261973 0
M  V30 3113 H 294.75 1.68231 -0.222802 0
M  V30 3114 H 293.522 3.90874 -0.182561 0
M  V30 3115 H 293.145 3.67543 1.51651 0
M  V30 3116 N 294.142 -0.090211 1.57342 0
M  V30 3117 C 295.39 -0.791241 1.85967 0
M  V30 3118 C 295.711 -1.7903 0.772859 0
M  V30 3119 O 294.981 -1.94872 -0.200398 0
M  V30 3120 H 293.561 -0.295205 0.686195 0
M  V30 3121 H 296.223 -0.0706782 1.94772 0
M  V30 3122 H 295.319 -1.31882 2.82867 0
M  V30 3123 N 295.62 -1.53406 -0.361157 0
M  V30 3124 C 296.567 -1.80156 -1.44265 0
M  V30 3125 C 297.537 -0.646183 -1.53015 0
M  V30 3126 O 298.722 -0.888818 -1.68833 0
M  V30 3127 C 295.862 -2.00116 -2.81154 0
M  V30 3128 C 294.975 -3.27833 -2.81335 0
M  V30 3129 C 294.11 -3.37957 -4.09828 0
M  V30 3130 C 293.149 -4.59689 -4.04168 0
M  V30 3131 N 292.286 -4.66942 -5.24318 0
M  V30 3132 H 297.126 -2.72438 -1.20754 0
M  V30 3133 H 294.663 -1.34954 -0.585296 0
M  V30 3134 H 296.621 -2.09677 -3.60682 0
M  V30 3135 H 295.251 -1.11167 -3.03054 0
M  V30 3136 H 294.303 -3.27204 -1.94014 0
M  V30 3137 H 295.615 -4.17442 -2.73027 0
M  V30 3138 H 294.769 -3.46853 -4.97773 0
M  V30 3139 H 293.508 -2.46372 -4.20894 0
M  V30 3140 H 292.513 -4.50889 -3.14609 0
M  V30 3141 H 293.738 -5.5262 -3.947 0
M  V30 3142 H 291.684 -3.7826 -5.35962 0
M  V30 3143 H 291.601 -5.50462 -5.18197 0
M  V30 3144 H 292.869 -4.80127 -6.14084 0
M  V30 3145 N 297.098 0.621204 -1.44841 0
M  V30 3146 C 298.344 1.3826 -1.48365 0
M  V30 3147 C 298.677 1.93831 -0.119624 0
M  V30 3148 O 297.952 1.74251 0.864111 0
M  V30 3149 C 298.235 2.54058 -2.55199 0
M  V30 3150 C 298.088 2.03772 -4.00995 0
M  V30 3151 C 299.407 3.56225 -2.58442 0
M  V30 3152 H 296.526 0.501374 -0.540179 0
M  V30 3153 H 299.168 0.7015 -1.76576 0
M  V30 3154 H 297.318 3.12162 -2.31274 0
M  V30 3155 H 298.99 1.50423 -4.36086 0
M  V30 3156 H 297.233 1.34876 -4.12299 0
M  V30 3157 H 297.904 2.87185 -4.71411 0
M  V30 3158 H 300.38 3.07939 -2.79844 0
M  V30 3159 H 299.256 4.34756 -3.3508 0
M  V30 3160 H 299.517 4.10949 -1.63013 0
M  V30 3161 N 298.576 1.31904 0.862503 0
M  V30 3162 C 299.853 1.12644 1.59908 0
M  V30 3163 C 300.233 -0.316104 2.0872 0
M  V30 3164 O 299.581 -1.31145 1.87118 0
M  V30 3165 C 299.791 2.1472 2.7513 0
M  V30 3166 C 301.139 2.47637 3.44907 0
M  V30 3167 O 302.163 2.13205 2.85346 0
M  V30 3168 O 301.022 3.06632 4.52371 0
M  V30 3169 H 298.116 0.43416 0.703871 0
M  V30 3170 H 300.662 1.43408 0.907314 0
M  V30 3171 H 299.434 3.1172 2.3653 0
M  V30 3172 H 299.057 1.84905 3.51989 0
M  V30 3173 N 300.054 -1.07777 1.14986 0
M  V30 3174 C 301.303 -1.79669 0.916617 0
M  V30 3175 C 301.616 -1.87474 -0.557917 0
M  V30 3176 O 302.822 -2.55845 -0.908617 0
M  V30 3177 C 301.278 -3.22848 1.59051 0
M  V30 3178 C 300.886 -3.23257 3.10176 0
M  V30 3179 C 302.63 -3.99379 1.43864 0
M  V30 3180 C 300.537 -4.61063 3.70372 0
M  V30 3181 H 299.467 -0.673349 0.33929 0
M  V30 3182 H 302.118 -1.21003 1.37951 0
M  V30 3183 H 300.5 -3.8168 1.0553 0
M  V30 3184 H 301.674 -2.74095 3.70417 0
M  V30 3185 H 299.989 -2.60222 3.25074 0
M  V30 3186 H 302.586 -5.0122 1.86232 0
M  V30 3187 H 302.929 -4.14511 0.385564 0
M  V30 3188 H 303.462 -3.47032 1.94457 0
M  V30 3189 H 300.201 -4.51135 4.7556 0
M  V30 3190 H 299.721 -5.1048 3.14913 0
M  V30 3191 H 301.4 -5.30034 3.71043 0
M  V30 3192 N 301.532 -0.945985 -1.26051 0
M  V30 3193 C 302.778 -0.606539 -1.94146 0
M  V30 3194 C 303.133 0.84586 -1.72809 0
M  V30 3195 O 302.426 1.59781 -1.05738 0
M  V30 3196 C 302.62 -0.890475 -3.46129 0
M  V30 3197 C 302.449 -2.36892 -3.82246 0
M  V30 3198 C 301.219 -3.02494 -4.04753 0
M  V30 3199 C 303.417 -3.34772 -3.90425 0
M  V30 3200 N 301.399 -4.40302 -4.27794 0
M  V30 3201 C 302.77 -4.57855 -4.18054 0
M  V30 3202 C 304.825 -3.2973 -3.73072 0
M  V30 3203 C 303.528 -5.76522 -4.30134 0
M  V30 3204 C 305.554 -4.47727 -3.86386 0
M  V30 3205 C 304.916 -5.69593 -4.14419 0
M  V30 3206 H 301.015 -0.272407 -0.73302 0
M  V30 3207 H 303.599 -1.21638 -1.52027 0
M  V30 3208 H 301.77 -0.309638 -3.87164 0
M  V30 3209 H 303.502 -0.51181 -4.01451 0
M  V30 3210 H 300.257 -2.53095 -4.003 0
M  V30 3211 H 300.681 -5.11646 -4.43337 0
M  V30 3212 H 305.323 -2.36565 -3.50424 0
M  V30 3213 H 303.041 -6.70136 -4.51601 0
M  V30 3214 H 306.627 -4.45363 -3.74356 0
M  V30 3215 H 305.507 -6.59375 -4.24493 0
M  V30 3216 N 303.011 1.40521 -0.713556 0
M  V30 3217 C 304.236 2.05759 -0.26035 0
M  V30 3218 C 304.661 1.53403 1.08854 0
M  V30 3219 O 304.019 0.668535 1.68524 0
M  V30 3220 C 304.067 3.59745 -0.248122 0
M  V30 3221 O 303.171 4.05123 0.77131 0
M  V30 3222 H 302.512 0.652564 -0.122703 0
M  V30 3223 H 305.042 1.79958 -0.973467 0
M  V30 3224 H 305.052 4.07911 -0.0851129 0
M  V30 3225 H 303.727 3.97218 -1.2325 0
M  V30 3226 H 302.304 3.68422 0.57619 0
M  V30 3227 N 304.489 0.459591 1.5075 0
M  V30 3228 C 305.419 -0.330644 2.31147 0
M  V30 3229 C 306.4 -1.00087 1.37538 0
M  V30 3230 O 307.585 -1.00025 1.66459 0
M  V30 3231 C 304.715 -1.41958 3.16962 0
M  V30 3232 C 303.669 -0.871608 4.19031 0
M  V30 3233 C 302.995 -2.05797 4.9351 0
M  V30 3234 C 304.295 0.109251 5.22186 0
M  V30 3235 H 305.989 0.340336 2.97459 0
M  V30 3236 H 303.535 0.165119 1.4305 0
M  V30 3237 H 305.488 -1.9798 3.71997 0
M  V30 3238 H 304.212 -2.11917 2.48513 0
M  V30 3239 H 302.871 -0.333442 3.6508 0
M  V30 3240 H 302.519 -2.74427 4.21544 0
M  V30 3241 H 302.219 -1.6976 5.62544 0
M  V30 3242 H 303.743 -2.62331 5.51375 0
M  V30 3243 H 305.157 -0.361405 5.7216 0
M  V30 3244 H 303.554 0.383316 5.98875 0
M  V30 3245 H 304.624 1.03887 4.73641 0
M  V30 3246 N 305.967 -1.56429 0.191757 0
M  V30 3247 C 307.215 -1.97095 -0.447006 0
M  V30 3248 C 307.536 -1.07967 -1.62383 0
M  V30 3249 O 306.806 -0.150248 -1.95323 0
M  V30 3250 H 305.386 -0.727832 -0.168135 0
M  V30 3251 H 308.048 -1.92911 0.27771 0
M  V30 3252 H 307.144 -3.01848 -0.793371 0
M  V30 3253 N 307.445 0.0818655 -1.57387 0
M  V30 3254 C 308.694 0.781681 -1.85937 0
M  V30 3255 C 309.007 1.79246 -0.782957 0
M  V30 3256 O 310.213 2.54112 -0.955987 0
M  V30 3257 C 308.669 1.44109 -3.29789 0
M  V30 3258 C 308.277 0.469396 -4.45534 0
M  V30 3259 C 310.021 2.12386 -3.67549 0
M  V30 3260 C 307.928 1.13415 -5.80423 0
M  V30 3261 H 306.858 0.295682 -0.693605 0
M  V30 3262 H 309.509 0.0348051 -1.83467 0
M  V30 3263 H 307.891 2.23588 -3.2684 0
M  V30 3264 H 309.065 -0.294856 -4.59856 0
M  V30 3265 H 307.38 -0.108383 -4.16259 0
M  V30 3266 H 309.977 2.62878 -4.65617 0
M  V30 3267 H 310.32 2.91877 -2.96839 0
M  V30 3268 H 310.853 1.39751 -3.72444 0
M  V30 3269 H 307.592 0.379771 -6.54399 0
M  V30 3270 H 307.112 1.8695 -5.69921 0
M  V30 3271 H 308.791 1.65686 -6.25426 0
M  V30 3272 N 308.923 1.53595 0.353017 0
M  V30 3273 C 310.151 1.74311 1.1146 0
M  V30 3274 C 310.566 0.477854 1.82653 0
M  V30 3275 O 309.923 -0.549977 1.74016 0
M  V30 3276 C 309.974 2.91694 2.13534 0
M  V30 3277 O 309.695 4.13325 1.45238 0
M  V30 3278 C 311.196 3.24384 3.02142 0
M  V30 3279 H 308.416 0.582669 0.332773 0
M  V30 3280 H 310.96 2.00386 0.408107 0
M  V30 3281 H 309.115 2.67977 2.79763 0
M  V30 3282 H 309.529 4.79148 2.13349 0
M  V30 3283 H 311.003 4.09893 3.69718 0
M  V30 3284 H 311.48 2.40282 3.67643 0
M  V30 3285 H 312.086 3.50073 2.41514 0
M  V30 3286 N 310.401 -0.613514 1.45168 0
M  V30 3287 C 311.641 -1.38405 1.5041 0
M  V30 3288 C 312.005 -1.91489 0.139922 0
M  V30 3289 O 313.206 -2.68716 0.067033 0
M  V30 3290 C 311.477 -2.50552 2.5487 0
M  V30 3291 S 313.036 -3.38439 2.79292 0
M  V30 3292 H 309.854 -0.471945 0.531779 0
M  V30 3293 H 312.456 -0.708518 1.82209 0
M  V30 3294 H 311.16 -2.09894 3.52665 0
M  V30 3295 H 310.691 -3.22913 2.24701 0
M  V30 3296 H 312.706 -4.48527 2.12222 0
M  V30 3297 N 311.879 -1.3236 -0.855495 0
M  V30 3298 C 313.128 -1.22226 -1.60448 0
M  V30 3299 C 313.441 0.214733 -1.94418 0
M  V30 3300 O 314.647 0.437917 -2.67945 0
M  V30 3301 C 313.103 -2.14063 -2.89318 0
M  V30 3302 C 312.711 -3.62839 -2.62777 0
M  V30 3303 C 314.455 -2.12764 -3.67331 0
M  V30 3304 C 312.362 -4.4664 -3.87643 0
M  V30 3305 H 311.292 -0.453904 -0.602069 0
M  V30 3306 H 313.943 -1.57314 -0.944698 0
M  V30 3307 H 312.325 -1.71889 -3.5675 0
M  V30 3308 H 313.499 -4.1335 -2.03662 0
M  V30 3309 H 311.814 -3.66261 -1.98096 0
M  V30 3310 H 314.411 -2.72611 -4.59987 0
M  V30 3311 H 314.754 -1.11841 -4.00995 0
M  V30 3312 H 315.287 -2.53214 -3.06802 0
M  V30 3313 H 312.026 -5.48373 -3.5912 0
M  V30 3314 H 311.546 -4.0088 -4.46156 0
M  V30 3315 H 313.225 -4.59597 -4.55389 0
M  V30 3316 N 313.357 1.07166 -1.15556 0
M  V30 3317 C 314.267 2.17947 -0.868116 0
M  V30 3318 C 315.283 1.73297 0.156297 0
M  V30 3319 O 316.459 2.01392 -0.0182327 0
M  V30 3320 C 313.524 3.44789 -0.36355 0
M  V30 3321 C 312.585 4.03996 -1.45209 0
M  V30 3322 C 311.818 5.24783 -0.971508 0
M  V30 3323 O 312.041 5.70109 0.182194 0
M  V30 3324 O 310.975 5.75715 -1.75603 0
M  V30 3325 H 314.801 2.4503 -1.79427 0
M  V30 3326 H 312.386 1.16539 -0.934824 0
M  V30 3327 H 314.268 4.21307 -0.0887113 0
M  V30 3328 H 312.943 3.19253 0.534708 0
M  V30 3329 H 311.85 3.29009 -1.78056 0
M  V30 3330 H 313.183 4.33808 -2.32533 0
M  V30 3331 N 314.835 0.952656 1.25548 0
M  V30 3332 C 315.765 0.489287 2.28316 0
M  V30 3333 C 316.746 -0.463359 1.63667 0
M  V30 3334 O 317.931 -0.36274 1.90782 0
M  V30 3335 C 315.061 -0.235603 3.465 0
M  V30 3336 C 314.015 0.631593 4.23314 0
M  V30 3337 C 313.341 -0.223923 5.34231 0
M  V30 3338 C 314.641 1.90871 4.86174 0
M  V30 3339 H 316.335 1.34822 2.67326 0
M  V30 3340 H 313.881 0.649728 1.28509 0
M  V30 3341 H 315.834 -0.570882 4.17515 0
M  V30 3342 H 314.558 -1.12877 3.06474 0
M  V30 3343 H 313.217 0.949929 3.54079 0
M  V30 3344 H 312.865 -1.11678 4.90446 0
M  V30 3345 H 312.565 0.35299 5.86539 0
M  V30 3346 H 314.089 -0.554214 6.0808 0
M  V30 3347 H 315.503 1.63997 5.49343 0
M  V30 3348 H 313.9 2.43112 5.4865 0
M  V30 3349 H 314.97 2.61304 4.08471 0
M  V30 3350 N 316.313 -1.40141 0.720998 0
M  V30 3351 C 317.276 -2.29058 0.0805834 0
M  V30 3352 C 318.276 -1.45632 -0.681758 0
M  V30 3353 O 319.466 -1.6648 -0.512856 0
M  V30 3354 C 316.598 -3.28925 -0.895593 0
M  V30 3355 H 317.791 -2.87191 0.863793 0
M  V30 3356 H 315.344 -1.48553 0.485975 0
M  V30 3357 H 316.079 -2.75822 -1.70566 0
M  V30 3358 H 315.864 -3.90519 -0.351766 0
M  V30 3359 H 317.354 -3.95494 -1.34069 0
M  V30 3360 N 317.792 -0.46758 -1.50504 0
M  V30 3361 C 318.702 0.33382 -2.32213 0
M  V30 3362 C 319.718 0.999323 -1.42441 0
M  V30 3363 O 320.894 0.988068 -1.75497 0
M  V30 3364 C 317.959 1.4035 -3.17022 0
M  V30 3365 C 317.02 0.754961 -4.2261 0
M  V30 3366 C 316.253 1.77367 -5.03365 0
M  V30 3367 O 316.476 2.99976 -4.8515 0
M  V30 3368 O 315.41 1.34744 -5.86624 0
M  V30 3369 H 319.236 -0.334067 -3.01857 0
M  V30 3370 H 316.821 -0.229496 -1.47627 0
M  V30 3371 H 318.703 2.02318 -3.69656 0
M  V30 3372 H 317.378 2.05492 -2.5011 0
M  V30 3373 H 316.285 0.0964244 -3.73976 0
M  V30 3374 H 317.618 0.146545 -4.91982 0
M  V30 3375 N 319.27 1.56325 -0.20005 0
M  V30 3376 C 320.686 1.58839 0.155716 0
M  V30 3377 C 320.886 1.21636 1.60645 0
M  V30 3378 O 319.942 0.941437 2.34293 0
M  V30 3379 C 321.255 3.0032 -0.151124 0
M  V30 3380 C 322.803 3.12866 -0.0916284 0
M  V30 3381 C 323.278 4.56488 -0.371845 0
M  V30 3382 N 324.769 4.62089 -0.320641 0
M  V30 3383 C 325.504 5.71116 -0.511243 0
M  V30 3384 N 325 6.88592 -0.762461 0
M  V30 3385 N 326.793 5.60335 -0.445157 0
M  V30 3386 H 318.944 1.78788 -1.14668 0
M  V30 3387 H 321.207 0.829996 -0.458051 0
M  V30 3388 H 320.913 3.32117 -1.15721 0
M  V30 3389 H 320.787 3.73257 0.543986 0
M  V30 3390 H 323.174 2.80878 0.905065 0
M  V30 3391 H 323.255 2.42304 -0.81989 0
M  V30 3392 H 322.899 4.89189 -1.36588 0
M  V30 3393 H 322.829 5.25246 0.377362 0
M  V30 3394 H 325.32 3.77665 -0.13329 0
M  V30 3395 H 325.633 7.67581 -0.896576 0
M  V30 3396 H 323.978 6.90387 -0.799412 0
M  V30 3397 H 327.169 4.67436 -0.249278 0
M  V30 3398 H 327.342 6.45243 -0.597116 0
M  V30 3399 N 320.748 -0.0735177 1.57428 0
M  V30 3400 C 321.695 -1.08756 2.0357 0
M  V30 3401 C 322.665 -1.38559 0.916 0
M  V30 3402 O 323.85 -1.49656 1.18354 0
M  V30 3403 C 320.99 -2.39657 2.48311 0
M  V30 3404 C 320.103 -2.16399 3.73892 0
M  V30 3405 C 319.238 -3.40852 4.07423 0
M  V30 3406 C 318.277 -3.1295 5.2605 0
M  V30 3407 N 317.414 -4.29729 5.55228 0
M  V30 3408 H 322.254 -0.687104 2.8997 0
M  V30 3409 H 319.791 -0.327709 1.43403 0
M  V30 3410 H 321.749 -3.16081 2.72303 0
M  V30 3411 H 320.379 -2.77508 1.64891 0
M  V30 3412 H 319.431 -1.30676 3.57251 0
M  V30 3413 H 320.743 -1.91788 4.60455 0
M  V30 3414 H 319.897 -4.25671 4.32306 0
M  V30 3415 H 318.636 -3.68537 3.19425 0
M  V30 3416 H 317.641 -2.26526 5.00965 0
M  V30 3417 H 318.866 -2.86589 6.15665 0
M  V30 3418 H 316.812 -4.57448 4.70188 0
M  V30 3419 H 316.729 -4.08385 6.36206 0
M  V30 3420 H 317.997 -5.1555 5.84661 0
M  V30 3421 N 322.226 -1.5378 -0.344866 0
M  V30 3422 C 323.637 -1.62428 -0.920552 0
M  V30 3423 C 323.988 -0.504747 -1.89596 0
M  V30 3424 O 323.113 0.365711 -2.13287 0
M  V30 3425 C 323.708 -2.94419 -1.67639 0
M  V30 3426 C 322.267 -3.05333 -2.20111 0
M  V30 3427 C 321.414 -2.57866 -1.01982 0
M  V30 3428 H 324.365 -1.58222 -0.123042 0
M  V30 3429 H 324.386 -2.83384 -2.53917 0
M  V30 3430 H 323.898 -3.7588 -0.966224 0
M  V30 3431 H 321.999 -2.28502 -2.94308 0
M  V30 3432 H 322.112 -4.10778 -2.46573 0
M  V30 3433 H 320.476 -2.13241 -1.39285 0
M  V30 3434 H 321.259 -3.41765 -0.324308 0
M  V30 3435 N 323.704 0.605807 -1.45491 0
M  V30 3436 C 325.115 1.18777 -1.44045 0
M  V30 3437 C 325.466 1.95471 -0.169001 0
M  V30 3438 O 324.591 2.0374 0.729324 0
M  V30 3439 C 325.186 2.16064 -2.60963 0
M  V30 3440 C 323.745 2.69633 -2.62631 0
M  V30 3441 C 322.892 1.45072 -2.36325 0
M  V30 3442 H 325.843 0.395017 -1.53705 0
M  V30 3443 H 325.864 2.9913 -2.35163 0
M  V30 3444 H 325.376 1.60217 -3.53486 0
M  V30 3445 H 323.477 3.29414 -1.74119 0
M  V30 3446 H 323.59 3.13944 -3.61906 0
M  V30 3447 H 321.954 1.74089 -1.85917 0
M  V30 3448 H 322.737 0.910899 -3.30995 0
M  V30 3449 N 325.182 1.32811 0.848464 0
M  V30 3450 C 326.112 1.24882 1.97299 0
M  V30 3451 C 327.093 0.131357 1.69592 0
M  V30 3452 O 328.278 0.319553 1.91553 0
M  V30 3453 C 325.408 0.97746 3.33261 0
M  V30 3454 C 324.362 2.05682 3.75338 0
M  V30 3455 C 323.688 1.63777 5.09 0
M  V30 3456 C 324.988 3.47254 3.90144 0
M  V30 3457 H 326.682 2.18966 2.04191 0
M  V30 3458 H 324.228 1.05413 0.981029 0
M  V30 3459 H 326.181 0.908513 4.1149 0
M  V30 3460 H 324.905 0.000980011 3.266 0
M  V30 3461 H 323.564 2.11603 2.99366 0
M  V30 3462 H 323.212 0.648569 4.98801 0
M  V30 3463 H 322.912 2.36 5.38124 0
M  V30 3464 H 324.436 1.5833 5.89715 0
M  V30 3465 H 325.85 3.43888 4.58709 0
M  V30 3466 H 324.247 4.1788 4.30693 0
M  V30 3467 H 325.317 3.86462 2.92874 0
M  V30 3468 N 326.66 -1.06551 1.16123 0
M  V30 3469 C 327.907 -1.79302 0.941126 0
M  V30 3470 C 328.235 -1.87105 -0.531235 0
M  V30 3471 O 327.49 -1.35692 -1.41018 0
M  V30 3472 C 327.789 -3.23911 1.51052 0
M  V30 3473 C 327.455 -3.36193 3.00475 0
M  V30 3474 C 326.117 -3.39252 3.41265 0
M  V30 3475 C 328.469 -3.38326 3.96465 0
M  V30 3476 C 325.797 -3.42057 4.76669 0
M  V30 3477 C 328.149 -3.4267 5.31752 0
M  V30 3478 C 326.813 -3.4401 5.72026 0
M  V30 3479 H 326.083 -0.656111 0.344382 0
M  V30 3480 H 328.73 -1.25325 1.44796 0
M  V30 3481 H 327.035 -3.80723 0.925063 0
M  V30 3482 H 328.732 -3.78793 1.31593 0
M  V30 3483 H 325.322 -3.34516 2.6795 0
M  V30 3484 H 329.506 -3.35176 3.6602 0
M  V30 3485 H 324.762 -3.41398 5.07206 0
M  V30 3486 H 328.936 -3.43268 6.05921 0
M  V30 3487 H 326.563 -3.45937 6.76928 0
M  V30 3488 N 328.138 -0.959301 -1.25041 0
M  V30 3489 C 329.086 -0.474437 -2.2771 0
M  V30 3490 C 330.08 0.457697 -1.631 0
M  V30 3491 O 331.286 0.333912 -1.76876 0
M  V30 3492 H 327.661 -0.134936 -0.739795 0
M  V30 3493 H 329.632 -1.35251 -2.65988 0
M  V30 3494 C 328.381 0.227884 -3.46952 0
M  V30 3495 H 327.704 -0.480248 -3.96905 0
M  V30 3496 H 329.144 0.531091 -4.20661 0
M  V30 3497 C 327.603 1.452 -3.04004 0
M  V30 3498 O 328.133 2.54949 -3.10426 0
M  V30 3499 N 326.339 1.31502 -2.59144 0
M  V30 3500 H 325.886 0.422065 -2.54119 0
M  V30 3501 H 325.844 2.13521 -2.30773 0
M  V30 3502 N 329.616 1.39756 -0.72842 0
M  V30 3503 C 330.549 2.28176 -0.0330172 0
M  V30 3504 C 331.527 1.44035 0.754501 0
M  V30 3505 O 332.711 1.73434 0.738445 0
M  V30 3506 C 329.838 3.24795 0.960504 0
M  V30 3507 C 328.884 4.25693 0.262264 0
M  V30 3508 S 329.717 5.25714 -1.01906 0
M  V30 3509 C 330.873 6.25894 -0.0279717 0
M  V30 3510 H 331.106 2.86807 -0.78287 0
M  V30 3511 H 328.639 1.45382 -0.519951 0
M  V30 3512 H 330.597 3.80983 1.52846 0
M  V30 3513 H 329.258 2.65196 1.68315 0
M  V30 3514 H 328.451 4.93699 1.01379 0
M  V30 3515 H 328.053 3.7327 -0.233482 0
M  V30 3516 H 330.345 6.72585 0.814621 0
M  V30 3517 H 331.288 7.04876 -0.67499 0
M  V30 3518 H 331.696 5.63466 0.341489 0
M  V30 3519 N 331.094 0.475555 1.50254 0
M  V30 3520 C 332.042 -0.330276 2.30243 0
M  V30 3521 C 333.036 -0.986306 1.37726 0
M  V30 3522 O 334.242 -0.9169 1.54897 0
M  V30 3523 H 330.617 -0.125353 0.741479 0
M  V30 3524 H 332.588 0.364702 2.96163 0
M  V30 3525 C 331.337 -1.39704 3.18399 0
M  V30 3526 H 330.66 -0.901621 3.89501 0
M  V30 3527 H 332.1 -1.93336 3.77355 0
M  V30 3528 C 330.559 -2.4014 2.36293 0
M  V30 3529 O 331.089 -3.45504 2.04914 0
M  V30 3530 N 329.295 -2.1197 1.98789 0
M  V30 3531 H 328.842 -1.2631 2.24507 0
M  V30 3532 H 328.8 -2.79403 1.44157 0
M  V30 3533 N 332.573 -1.56217 0.208337 0
M  V30 3534 C 333.536 -2.18455 -0.693557 0
M  V30 3535 C 334.536 -1.14268 -1.13135 0
M  V30 3536 O 335.726 -1.39577 -1.0423 0
M  V30 3537 C 332.858 -2.79727 -1.94848 0
M  V30 3538 H 334.051 -2.99519 -0.15114 0
M  V30 3539 H 331.604 -1.56245 -0.041287 0
M  V30 3540 H 332.339 -2.02497 -2.53309 0
M  V30 3541 H 332.124 -3.56009 -1.64316 0
M  V30 3542 H 333.614 -3.27475 -2.59133 0
M  V30 3543 N 334.051 0.0651679 -1.57465 0
M  V30 3544 C 334.984 1.10876 -1.99453 0
M  V30 3545 C 335.962 1.37205 -0.872555 0
M  V30 3546 O 337.146 1.50468 -1.13542 0
M  V30 3547 C 334.273 2.45167 -2.3369 0
M  V30 3548 C 333.319 2.3493 -3.55964 0
M  V30 3549 S 334.152 1.73708 -5.06543 0
M  V30 3550 C 335.308 3.09563 -5.43987 0
M  V30 3551 H 335.541 0.750967 -2.87659 0
M  V30 3552 H 333.074 0.273933 -1.51951 0
M  V30 3553 H 335.032 3.22412 -2.54088 0
M  V30 3554 H 333.693 2.78105 -1.46001 0
M  V30 3555 H 332.886 3.3398 -3.77457 0
M  V30 3556 H 332.488 1.65823 -3.3523 0
M  V30 3557 H 334.78 4.05882 -5.42463 0
M  V30 3558 H 335.723 2.92843 -6.44708 0
M  V30 3559 H 336.131 3.10474 -4.71451 0
M  V30 3560 N 335.529 1.53961 0.336706 0
M  V30 3561 C 336.754 1.75797 1.10046 0
M  V30 3562 C 337.179 0.498985 1.81361 0
M  V30 3563 O 336.537 -0.548769 1.72795 0
M  V30 3564 C 336.585 2.94257 2.08436 0
M  V30 3565 O 335.689 2.64883 3.16087 0
M  V30 3566 H 335.03 0.582936 0.317934 0
M  V30 3567 H 337.56 2.00945 0.38501 0
M  V30 3568 H 337.57 3.21237 2.51537 0
M  V30 3569 H 336.245 3.85564 1.55927 0
M  V30 3570 H 334.822 2.48812 2.77753 0
M  V30 3571 N 337.007 -0.598083 1.45811 0
M  V30 3572 C 337.97 -1.69018 1.54808 0
M  V30 3573 C 338.97 -1.55037 0.426652 0
M  V30 3574 O 340.16 -1.59932 0.690456 0
M  V30 3575 C 337.292 -3.0835 1.45371 0
M  V30 3576 H 338.485 -1.62403 2.52121 0
M  V30 3577 H 336.038 -0.814626 1.33392 0
M  V30 3578 H 336.773 -3.20534 0.492793 0
M  V30 3579 H 336.558 -3.19907 2.26721 0
M  V30 3580 H 338.048 -3.8788 1.54721 0
M  V30 3581 N 338.485 -1.33259 -0.841409 0
M  V30 3582 C 339.415 -1.25926 -1.96634 0
M  V30 3583 C 340.396 -0.140349 -1.6952 0
M  V30 3584 O 341.581 -0.329707 -1.91381 0
M  V30 3585 C 338.711 -0.99512 -3.32738 0
M  V30 3586 C 337.665 -2.0767 -3.74242 0
M  V30 3587 C 336.991 -1.66474 -5.08125 0
M  V30 3588 C 338.291 -3.49318 -3.88297 0
M  V30 3589 H 339.985 -2.20046 -2.03027 0
M  V30 3590 H 337.531 -1.05931 -0.975425 0
M  V30 3591 H 339.484 -0.930323 -4.11002 0
M  V30 3592 H 338.208 -0.0183004 -3.26595 0
M  V30 3593 H 336.867 -2.13187 -2.98239 0
M  V30 3594 H 336.515 -0.675012 -4.9845 0
M  V30 3595 H 336.215 -2.3885 -5.36865 0
M  V30 3596 H 337.739 -1.61455 -5.88867 0
M  V30 3597 H 339.153 -3.46316 -4.56879 0
M  V30 3598 H 337.55 -4.20158 -4.28471 0
M  V30 3599 H 338.62 -3.8801 -2.9082 0
M  V30 3600 N 339.963 1.05934 -1.16686 0
M  V30 3601 C 341.193 1.82226 -0.973515 0
M  V30 3602 C 341.601 1.8297 0.481532 0
M  V30 3603 O 340.944 1.25009 1.34604 0
M  V30 3604 C 341.006 3.29897 -1.42858 0
M  V30 3605 C 340.67 3.52849 -2.90425 0
M  V30 3606 C 341.667 3.45595 -3.88407 0
M  V30 3607 C 339.352 3.80053 -3.28428 0
M  V30 3608 C 341.346 3.65217 -5.22394 0
M  V30 3609 C 339.033 3.99325 -4.62583 0
M  V30 3610 C 340.031 3.91905 -5.59374 0
M  V30 3611 O 339.719 4.10647 -6.91104 0
M  V30 3612 H 339.451 0.581314 -0.345036 0
M  V30 3613 H 342.005 1.3453 -1.55212 0
M  V30 3614 H 340.235 3.78472 -0.793477 0
M  V30 3615 H 341.924 3.87692 -1.20207 0
M  V30 3616 H 342.69 3.24564 -3.60393 0
M  V30 3617 H 338.569 3.84936 -2.53664 0
M  V30 3618 H 342.113 3.59341 -5.9793 0
M  V30 3619 H 338.01 4.19846 -4.90306 0
M  V30 3620 H 338.778 4.27915 -6.97733 0
M  V30 3621 N 341.441 0.965919 1.2453 0
M  V30 3622 C 342.391 0.465731 2.23193 0
M  V30 3623 C 343.375 -0.451277 1.54442 0
M  V30 3624 O 344.567 -0.282489 1.74731 0
M  V30 3625 C 341.696 -0.244511 3.42428 0
M  V30 3626 C 340.782 0.691222 4.18429 0
M  V30 3627 N 341.173 1.82771 4.71623 0
M  V30 3628 C 339.471 0.501649 4.4317 0
M  V30 3629 C 340.172 2.41285 5.29298 0
M  V30 3630 N 339.148 1.69819 5.16394 0
M  V30 3631 H 342.95 1.33291 2.61937 0
M  V30 3632 H 340.464 0.824789 1.39896 0
M  V30 3633 H 342.461 -0.620056 4.12263 0
M  V30 3634 H 341.121 -1.10815 3.05205 0
M  V30 3635 H 342.132 2.20929 4.68413 0
M  V30 3636 H 338.809 -0.318177 4.16286 0
M  V30 3637 H 340.199 3.37181 5.8117 0
M  V30 3638 N 342.919 -1.39368 0.735821 0
M  V30 3639 C 344.168 -1.99733 0.281004 0
M  V30 3640 C 344.481 -1.59055 -1.13846 0
M  V30 3641 O 345.687 -2.12262 -1.69284 0
M  V30 3642 C 344.143 -3.57057 0.451462 0
M  V30 3643 C 343.751 -4.06697 1.87886 0
M  V30 3644 C 345.495 -4.2446 0.0584616 0
M  V30 3645 C 343.402 -5.56598 1.99883 0
M  V30 3646 H 342.332 -0.747163 0.101311 0
M  V30 3647 H 344.983 -1.59357 0.909819 0
M  V30 3648 H 343.365 -3.95234 -0.246263 0
M  V30 3649 H 344.539 -3.79853 2.60861 0
M  V30 3650 H 342.854 -3.5196 2.22515 0
M  V30 3651 H 345.451 -5.34549 0.127099 0
M  V30 3652 H 345.794 -4.04444 -0.986433 0
M  V30 3653 H 346.327 -3.9146 0.707374 0
M  V30 3654 H 343.066 -5.81494 3.02564 0
M  V30 3655 H 342.586 -5.85242 1.31346 0
M  V30 3656 H 344.265 -6.22022 1.78039 0
M  V30 3657 N 344.397 -0.483516 -1.5 0
M  V30 3658 C 345.36 0.292965 -2.2732 0
M  V30 3659 C 346.36 0.909499 -1.32608 0
M  V30 3660 O 347.55 0.776745 -1.55924 0
M  V30 3661 C 344.682 1.41854 -3.09984 0
M  V30 3662 H 345.875 -0.385289 -2.97415 0
M  V30 3663 H 343.428 -0.237942 -1.54478 0
M  V30 3664 H 344.163 2.13148 -2.44414 0
M  V30 3665 H 343.948 0.982114 -3.79601 0
M  V30 3666 H 345.438 1.96597 -3.68429 0
M  V30 3667 N 345.875 1.56104 -0.216619 0
M  V30 3668 C 346.807 2.17339 0.72776 0
M  V30 3669 C 347.82 1.14109 1.16116 0
M  V30 3670 O 349.009 1.4111 1.09317 0
M  V30 3671 C 346.109 2.73818 1.99693 0
M  V30 3672 C 345.282 4.02168 1.71988 0
M  V30 3673 C 344.341 4.43259 2.83562 0
M  V30 3674 O 343.367 5.10257 2.52244 0
M  V30 3675 N 344.569 4.08535 4.12407 0
M  V30 3676 H 347.334 2.99005 0.203983 0
M  V30 3677 H 344.895 1.61861 -0.0354289 0
M  V30 3678 H 346.887 2.9828 2.73516 0
M  V30 3679 H 345.457 1.96483 2.43132 0
M  V30 3680 H 344.677 3.85612 0.818337 0
M  V30 3681 H 345.965 4.85907 1.50903 0
M  V30 3682 H 345.363 3.54687 4.40696 0
M  V30 3683 H 343.92 4.37901 4.8279 0
M  V30 3684 N 347.353 -0.0568162 1.57498 0
M  V30 3685 C 348.301 -1.08452 2.05769 0
M  V30 3686 C 349.295 -1.39164 0.965903 0
M  V30 3687 O 350.501 -1.38395 1.15095 0
M  V30 3688 H 346.876 -0.367148 0.656282 0
M  V30 3689 H 348.847 -0.651368 2.91204 0
M  V30 3690 C 347.596 -2.38543 2.52968 0
M  V30 3691 H 346.919 -2.15765 3.36579 0
M  V30 3692 H 348.359 -3.08863 2.90481 0
M  V30 3693 C 346.818 -3.05562 1.41893 0
M  V30 3694 O 347.348 -3.94262 0.769442 0
M  V30 3695 N 345.554 -2.6643 1.16032 0
M  V30 3696 H 345.101 -1.94387 1.6903 0
M  V30 3697 H 345.059 -3.11593 0.419219 0
M  V30 3698 N 348.832 -1.54138 -0.328536 0
M  V30 3699 C 350.109 -1.62749 -1.08499 0
M  V30 3700 C 350.489 -0.458198 -2.06067 0
M  V30 3701 O 349.837 0.548046 -2.2183 0
M  V30 3702 C 350.047 -2.99519 -1.79135 0
M  V30 3703 C 351.395 -3.55394 -2.32337 0
M  V30 3704 O 352.419 -3.01792 -1.89209 0
M  V30 3705 O 351.278 -4.49186 -3.11279 0
M  V30 3706 H 348.372 -0.65886 -0.499832 0
M  V30 3707 H 350.918 -1.66484 -0.328826 0
M  V30 3708 H 349.69 -3.76061 -1.08139 0
M  V30 3709 H 349.313 -2.99441 -2.61574 0
M  V30 3710 N 350.31 0.590341 -1.46126 0
M  V30 3711 C 351.535 1.37991 -1.54833 0
M  V30 3712 C 351.96 1.87163 -0.187506 0
M  V30 3713 O 351.318 1.61133 0.831008 0
M  V30 3714 C 351.366 2.54867 -2.55098 0
M  V30 3715 O 350.47 3.56061 -2.08073 0
M  V30 3716 H 349.811 0.411265 -0.521303 0
M  V30 3717 H 352.341 0.716819 -1.91632 0
M  V30 3718 H 352.351 3.01886 -2.74461 0
M  V30 3719 H 351.026 2.18429 -3.53923 0
M  V30 3720 H 349.603 3.15574 -1.98664 0
M  V30 3721 N 351.788 1.33704 0.83433 0
M  V30 3722 C 353.199 1.22813 1.4062 0
M  V30 3723 C 353.55 -0.151107 1.95617 0
M  V30 3724 O 352.675 -1.05092 1.89168 0
M  V30 3725 C 353.27 2.22355 2.55624 0
M  V30 3726 C 351.829 2.1529 3.08751 0
M  V30 3727 C 350.976 2.09589 1.8157 0
M  V30 3728 H 353.927 1.45236 0.639702 0
M  V30 3729 H 353.948 1.83391 3.33389 0
M  V30 3730 H 353.46 3.22728 2.15566 0
M  V30 3731 H 351.561 1.18235 3.53343 0
M  V30 3732 H 351.674 3.06038 3.68616 0
M  V30 3733 H 350.038 1.55134 2.02004 0
M  V30 3734 H 350.821 3.11777 1.43701 0
M  V30 3735 N 353.266 -1.05314 1.17247 0
M  V30 3736 C 354.494 -1.81971 0.984593 0
M  V30 3737 C 354.909 -1.82929 -0.467166 0
M  V30 3738 O 354.266 -1.25564 -1.32438 0
M  V30 3739 C 354.317 -3.28143 1.51672 0
M  V30 3740 O 354.038 -3.27347 2.91163 0
M  V30 3741 C 355.539 -4.21493 1.37326 0
M  V30 3742 H 352.759 -0.573455 0.348411 0
M  V30 3743 H 355.303 -1.32808 1.55506 0
M  V30 3744 H 353.458 -3.74582 0.988302 0
M  V30 3745 H 353.872 -4.18824 3.15732 0
M  V30 3746 H 355.346 -5.22043 1.79375 0
M  V30 3747 H 355.823 -4.38031 0.320169 0
M  V30 3748 H 356.429 -3.80909 1.89178 0
M  V30 3749 N 354.744 -0.972509 -1.24016 0
M  V30 3750 C 355.674 -0.525548 -2.27509 0
M  V30 3751 C 356.655 0.437262 -1.64384 0
M  V30 3752 O 357.84 0.332343 -1.91335 0
M  V30 3753 C 354.97 0.180448 -3.46831 0
M  V30 3754 C 353.924 -0.698859 -4.22256 0
M  V30 3755 C 353.25 0.138903 -5.3452 0
M  V30 3756 C 354.55 -1.98582 -4.83076 0
M  V30 3757 H 356.244 -1.39058 -2.65148 0
M  V30 3758 H 353.79 -0.67009 -1.27459 0
M  V30 3759 H 355.743 0.504387 -4.18371 0
M  V30 3760 H 354.467 1.07987 -3.08231 0
M  V30 3761 H 353.126 -1.00614 -3.52523 0
M  V30 3762 H 352.774 1.03862 -4.9216 0
M  V30 3763 H 352.474 -0.446259 -5.85903 0
M  V30 3764 H 353.998 0.457404 -6.08884 0
M  V30 3765 H 355.412 -1.72715 -5.46665 0
M  V30 3766 H 353.809 -2.5181 -5.44713 0
M  V30 3767 H 354.879 -2.67769 -4.04262 0
M  V30 3768 N 356.222 1.38976 -0.743202 0
M  V30 3769 C 357.154 2.29096 -0.0689228 0
M  V30 3770 C 358.167 1.47229 0.694791 0
M  V30 3771 O 359.356 1.70212 0.537597 0
M  V30 3772 C 356.456 3.25988 0.926548 0
M  V30 3773 C 355.629 4.36833 0.222647 0
M  V30 3774 C 354.688 5.13981 1.12739 0
M  V30 3775 O 353.714 5.6601 0.601795 0
M  V30 3776 N 354.916 5.25966 2.45641 0
M  V30 3777 H 357.681 2.87604 -0.842846 0
M  V30 3778 H 355.242 1.50645 -0.593109 0
M  V30 3779 H 357.234 3.74476 1.5346 0
M  V30 3780 H 355.804 2.68453 1.60162 0
M  V30 3781 H 355.024 3.90116 -0.565983 0
M  V30 3782 H 356.312 5.0811 -0.264841 0
M  V30 3783 H 355.71 4.85228 2.9081 0
M  V30 3784 H 354.267 5.77865 3.01522 0
M  V30 3785 N 357.7 0.491464 1.49741 0
M  V30 3786 C 358.925 -0.0557177 2.07325 0
M  V30 3787 C 359.35 -1.30925 1.35056 0
M  V30 3788 O 358.708 -1.76733 0.404365 0
M  V30 3789 C 358.756 -0.302074 3.59333 0
M  V30 3790 O 357.86 -1.37868 3.88672 0
M  V30 3791 H 357.201 0.0219956 0.663636 0
M  V30 3792 H 359.731 0.688352 1.92673 0
M  V30 3793 H 359.741 -0.536464 4.04458 0
M  V30 3794 H 358.416 0.61383 4.11345 0
M  V30 3795 H 356.993 -1.12999 3.55367 0
M  V30 3796 N 359.178 -1.55987 0.224894 0
M  V30 3797 C 360.126 -2.21808 -0.700283 0
M  V30 3798 C 361.12 -1.19854 -1.19714 0
M  V30 3799 O 362.326 -1.37925 -1.15658 0
M  V30 3800 H 358.701 -0.711226 -0.244258 0
M  V30 3801 H 360.672 -2.98152 -0.121749 0
M  V30 3802 C 359.421 -2.91444 -1.8962 0
M  V30 3803 H 358.744 -3.69655 -1.52299 0
M  V30 3804 H 360.184 -3.40894 -2.52125 0
M  V30 3805 C 358.643 -1.94098 -2.75368 0
M  V30 3806 O 359.173 -1.46004 -3.74227 0
M  V30 3807 N 357.379 -1.61675 -2.41474 0
M  V30 3808 H 356.926 -2.00979 -1.61137 0
M  V30 3809 H 356.884 -0.968036 -2.99126 0
M  V30 3810 N 360.656 0.0484629 -1.57525 0
M  V30 3811 C 361.566 1.07241 -2.08654 0
M  V30 3812 C 362.582 1.409 -1.02095 0
M  V30 3813 O 363.758 1.50609 -1.33712 0
M  V30 3814 C 360.823 2.36008 -2.5397 0
M  V30 3815 C 359.884 2.09108 -3.7493 0
M  V30 3816 C 359.117 3.31736 -4.18075 0
M  V30 3817 O 359.34 4.41714 -3.60895 0
M  V30 3818 O 358.274 3.18576 -5.10679 0
M  V30 3819 H 362.1 0.667965 -2.96263 0
M  V30 3820 H 359.685 0.26417 -1.47046 0
M  V30 3821 H 361.567 3.11747 -2.83535 0
M  V30 3822 H 360.242 2.75786 -1.69481 0
M  V30 3823 H 359.149 1.31 -3.50414 0
M  V30 3824 H 360.482 1.74198 -4.60343 0
M  V30 3825 N 362.134 1.5431 0.320358 0
M  V30 3826 C 363.38 1.73859 1.05568 0
M  V30 3827 C 363.735 0.507807 1.85578 0
M  V30 3828 O 363.028 -0.499789 1.84967 0
M  V30 3829 C 363.222 2.95639 2.00828 0
M  V30 3830 C 363.051 4.30444 1.30186 0
M  V30 3831 C 361.821 4.94544 1.03703 0
M  V30 3832 C 364.019 5.0929 0.716138 0
M  V30 3833 N 362.001 6.13172 0.298846 0
M  V30 3834 C 363.372 6.19903 0.109729 0
M  V30 3835 C 365.427 4.94034 0.619269 0
M  V30 3836 C 364.13 7.16924 -0.584153 0
M  V30 3837 C 366.156 5.91369 -0.0609184 0
M  V30 3838 C 365.518 7.01336 -0.656258 0
M  V30 3839 H 361.617 0.688988 0.36989 0
M  V30 3840 H 364.201 1.9177 0.336494 0
M  V30 3841 H 362.372 2.79188 2.70016 0
M  V30 3842 H 364.104 3.03802 2.6737 0
M  V30 3843 H 360.859 4.54536 1.33019 0
M  V30 3844 H 361.283 6.76977 -0.0561964 0
M  V30 3845 H 365.925 4.0916 1.06526 0
M  V30 3846 H 363.643 8.01354 -1.04197 0
M  V30 3847 H 367.229 5.81642 -0.135552 0
M  V30 3848 H 366.109 7.75359 -1.17423 0
M  V30 3849 N 363.613 -0.582584 1.46437 0
M  V30 3850 C 364.841 -1.36682 1.55324 0
M  V30 3851 C 365.256 -1.87796 0.194409 0
M  V30 3852 O 364.613 -1.63623 -0.808318 0
M  V30 3853 C 364.664 -2.55426 2.55812 0
M  V30 3854 O 364.385 -2.0643 3.86417 0
M  V30 3855 C 365.886 -3.47976 2.74641 0
M  V30 3856 H 363.106 -0.417545 0.525259 0
M  V30 3857 H 365.65 -0.708219 1.91845 0
M  V30 3858 H 363.805 -3.17275 2.22295 0
M  V30 3859 H 364.219 -2.83762 4.41111 0
M  V30 3860 H 365.693 -4.27775 3.48874 0
M  V30 3861 H 366.17 -3.99919 1.81553 0
M  V30 3862 H 366.776 -2.91962 3.09255 0
M  V30 3863 N 365.091 -1.34144 -0.827227 0
M  V30 3864 C 366.368 -1.16844 -1.56865 0
M  V30 3865 C 366.748 0.260654 -2.09485 0
M  V30 3866 O 366.096 1.26138 -1.9053 0
M  V30 3867 C 366.306 -2.21939 -2.6934 0
M  V30 3868 C 367.654 -2.56695 -3.3822 0
M  V30 3869 O 368.678 -2.20695 -2.79593 0
M  V30 3870 O 367.537 -3.18518 -4.44082 0
M  V30 3871 H 364.631 -0.452669 -0.692112 0
M  V30 3872 H 367.177 -1.45763 -0.868973 0
M  V30 3873 H 365.949 -3.17882 -2.28182 0
M  V30 3874 H 365.572 -1.94172 -3.46962 0
M  V30 3875 N 366.569 1.04691 -1.17803 0
M  V30 3876 C 367.794 1.81984 -0.994813 0
M  V30 3877 C 368.219 1.82586 0.452112 0
M  V30 3878 O 367.577 1.23854 1.324 0
M  V30 3879 C 367.625 3.2575 -1.54659 0
M  V30 3880 O 366.729 4.05267 -0.763728 0
M  V30 3881 H 366.07 0.562483 -0.352857 0
M  V30 3882 H 368.6 1.3189 -1.56417 0
M  V30 3883 H 368.61 3.76541 -1.57102 0
M  V30 3884 H 367.285 3.24627 -2.59981 0
M  V30 3885 H 365.862 3.63972 -0.811108 0
M  V30 3886 N 368.047 0.979072 1.23499 0
M  V30 3887 C 369.294 0.647219 1.91878 0
M  V30 3888 C 369.622 -0.819074 1.76413 0
M  V30 3889 O 368.877 -1.60616 1.11808 0
M  V30 3890 C 369.176 0.981932 3.43646 0
M  V30 3891 C 368.842 2.43822 3.79291 0
M  V30 3892 C 367.504 2.83622 3.88731 0
M  V30 3893 C 369.856 3.3828 3.96505 0
M  V30 3894 C 367.184 4.16897 4.12812 0
M  V30 3895 C 369.536 4.71197 4.22085 0
M  V30 3896 C 368.2 5.10758 4.29747 0
M  V30 3897 H 367.47 0.236834 0.702133 0
M  V30 3898 H 370.117 1.23268 1.46551 0
M  V30 3899 H 368.422 0.314365 3.90537 0
M  V30 3900 H 370.119 0.703395 3.94783 0
M  V30 3901 H 366.709 2.11966 3.72516 0
M  V30 3902 H 370.893 3.0871 3.88603 0
M  V30 3903 H 366.149 4.47157 4.16966 0
M  V30 3904 H 370.323 5.44348 4.34348 0
M  V30 3905 H 367.95 6.1405 4.48159 0
M  V30 3906 N 369.525 -1.3858 0.750561 0
M  V30 3907 C 370.941 -1.53759 0.427824 0
M  V30 3908 C 371.141 -1.71401 -1.05943 0
M  V30 3909 O 370.197 -1.72331 -1.84549 0
M  V30 3910 C 371.51 -2.74642 1.22443 0
M  V30 3911 C 373.058 -2.88489 1.2142 0
M  V30 3912 C 373.533 -4.12329 1.9937 0
M  V30 3913 N 375.024 -4.194 1.96616 0
M  V30 3914 C 375.759 -5.14209 2.53727 0
M  V30 3915 N 375.255 -6.14709 3.19539 0
M  V30 3916 N 377.048 -5.06537 2.43673 0
M  V30 3917 H 369.199 -1.25377 1.71447 0
M  V30 3918 H 371.462 -0.608844 0.726645 0
M  V30 3919 H 371.168 -2.68 2.27747 0
M  V30 3920 H 371.042 -3.67745 0.839273 0
M  V30 3921 H 373.429 -2.94614 0.169232 0
M  V30 3922 H 373.51 -1.96406 1.63885 0
M  V30 3923 H 373.154 -4.06966 3.03877 0
M  V30 3924 H 373.084 -5.03486 1.54302 0
M  V30 3925 H 375.575 -3.47421 1.48684 0
M  V30 3926 H 375.888 -6.8354 3.60545 0
M  V30 3927 H 374.233 -6.1505 3.23633 0
M  V30 3928 H 377.424 -4.26962 1.91889 0
M  V30 3929 H 377.597 -5.80245 2.88479 0
M  V30 3930 N 371.003 -0.499398 -1.49478 0
M  V30 3931 C 372.419 -0.155261 -1.58843 0
M  V30 3932 C 372.619 1.34008 -1.50479 0
M  V30 3933 O 371.675 2.11589 -1.37791 0
M  V30 3934 C 372.988 -0.730636 -2.91689 0
M  V30 3935 C 374.536 -0.696599 -3.0515 0
M  V30 3936 C 375.011 -1.25001 -4.40612 0
M  V30 3937 N 376.502 -1.21064 -4.47099 0
M  V30 3938 C 377.237 -1.60905 -5.50361 0
M  V30 3939 N 376.733 -2.08331 -6.60735 0
M  V30 3940 N 378.526 -1.52331 -5.41065 0
M  V30 3941 H 370.677 -1.47162 -1.53158 0
M  V30 3942 H 372.94 -0.610309 -0.725415 0
M  V30 3943 H 372.646 -1.77928 -3.03372 0
M  V30 3944 H 372.52 -0.190161 -3.7672 0
M  V30 3945 H 374.907 0.343204 -2.93097 0
M  V30 3946 H 374.988 -1.2742 -2.21806 0
M  V30 3947 H 374.632 -2.28859 -4.53416 0
M  V30 3948 H 374.562 -0.64836 -5.22593 0
M  V30 3949 H 377.053 -0.863128 -3.67911 0
M  V30 3950 H 377.366 -2.36805 -7.35624 0
M  V30 3951 H 375.711 -2.12304 -6.6178 0
M  V30 3952 H 378.902 -1.151 -4.53729 0
M  V30 3953 H 379.075 -1.83704 -6.21415 0
M  V30 3954 N 372.481 1.55866 -0.233164 0
M  V30 3955 C 373.728 1.98603 0.395374 0
M  V30 3956 C 374.056 1.12105 1.58942 0
M  V30 3957 O 373.311 0.168656 1.94972 0
M  V30 3958 C 373.61 3.46856 0.861724 0
M  V30 3959 C 373.276 4.50348 -0.223066 0
M  V30 3960 C 371.938 4.78371 -0.521038 0
M  V30 3961 C 374.29 5.12355 -0.956124 0
M  V30 3962 C 371.618 5.6568 -1.55638 0
M  V30 3963 C 373.97 6.00786 -1.98089 0
M  V30 3964 C 372.634 6.27148 -2.28565 0
M  V30 3965 H 371.904 0.726739 0.144677 0
M  V30 3966 H 374.551 1.88491 -0.338114 0
M  V30 3967 H 372.856 3.5423 1.67418 0
M  V30 3968 H 374.553 3.77302 1.35809 0
M  V30 3969 H 371.143 4.28596 0.0193234 0
M  V30 3970 H 375.327 4.90765 -0.739166 0
M  V30 3971 H 370.583 5.84365 -1.798 0
M  V30 3972 H 374.757 6.4788 -2.55391 0
M  V30 3973 H 372.384 6.94597 -3.08932 0
M  V30 3974 N 373.959 -0.0401083 1.57549 0
M  V30 3975 C 375.205 -0.734211 1.89043 0
M  V30 3976 C 375.538 -1.75591 0.829535 0
M  V30 3977 O 374.813 -1.93868 -0.156706 0
M  V30 3978 C 375.096 -1.41374 3.31188 0
M  V30 3979 C 374.949 -0.406299 4.47961 0
M  V30 3980 C 376.268 -2.35061 3.72068 0
M  V30 3981 H 373.387 -0.265447 0.687537 0
M  V30 3982 H 376.029 0.00294087 1.9 0
M  V30 3983 H 374.179 -2.04206 3.30503 0
M  V30 3984 H 375.851 0.219255 4.60779 0
M  V30 3985 H 374.094 0.275485 4.32924 0
M  V30 3986 H 374.765 -0.920022 5.44279 0
M  V30 3987 H 377.241 -1.82282 3.74049 0
M  V30 3988 H 376.117 -2.79593 4.72355 0
M  V30 3989 H 376.378 -3.21258 3.0372 0
M  V30 3990 N 375.437 -1.54477 -0.31217 0
M  V30 3991 C 376.714 -1.63891 -1.06767 0
M  V30 3992 C 377.094 -0.480028 -2.0557 0
M  V30 3993 O 376.442 0.524487 -2.22399 0
M  V30 3994 C 376.652 -3.01402 -1.75948 0
M  V30 3995 C 378 -3.57838 -2.28554 0
M  V30 3996 O 379.024 -3.03782 -1.85998 0
M  V30 3997 O 377.883 -4.52462 -3.06497 0
M  V30 3998 H 374.977 -0.664125 -0.492816 0
M  V30 3999 H 377.523 -1.66823 -0.311149 0
M  V30 4000 H 376.295 -3.77187 -1.04144 0
M  V30 4001 H 375.918 -3.02199 -2.58383 0
M  V30 4002 N 376.915 0.57481 -1.46744 0
M  V30 4003 C 378.145 1.35659 -1.55821 0
M  V30 4004 C 378.553 1.88129 -0.201036 0
M  V30 4005 O 377.896 1.64723 0.813134 0
M  V30 4006 C 377.958 2.57473 -2.50894 0
M  V30 4007 C 377.622 2.26415 -3.9697 0
M  V30 4008 C 378.619 1.84771 -4.85958 0
M  V30 4009 C 376.304 2.38316 -4.42166 0
M  V30 4010 C 378.298 1.55434 -6.18158 0
M  V30 4011 C 375.985 2.08591 -5.74398 0
M  V30 4012 C 376.983 1.67216 -6.62214 0
M  V30 4013 O 376.671 1.37859 -7.91991 0
M  V30 4014 H 376.403 0.420496 -0.529301 0
M  V30 4015 H 378.957 0.704967 -1.92923 0
M  V30 4016 H 377.187 3.25468 -2.08824 0
M  V30 4017 H 378.876 3.19546 -2.50291 0
M  V30 4018 H 379.642 1.75085 -4.52295 0
M  V30 4019 H 375.521 2.69483 -3.74032 0
M  V30 4020 H 379.065 1.23065 -6.86659 0
M  V30 4021 H 374.962 2.17905 -6.07608 0
M  V30 4022 H 375.73 1.51638 -8.04331 0
M  V30 4023 N 378.394 1.34581 0.820102 0
M  V30 4024 C 379.634 1.28448 1.58998 0
M  V30 4025 C 379.998 -0.142883 1.91468 0
M  V30 4026 O 381.199 -0.328422 2.66786 0
M  V30 4027 C 379.47 2.153 2.85273 0
M  V30 4028 S 381.029 2.26548 3.75794 0
M  V30 4029 H 377.847 0.456685 0.54494 0
M  V30 4030 H 380.449 1.69825 0.968487 0
M  V30 4031 H 379.153 3.18008 2.59421 0
M  V30 4032 H 378.684 1.7483 3.52417 0
M  V30 4033 H 380.699 1.44034 4.74835 0
M  V30 4034 N 379.872 -1.04064 1.18357 0
M  V30 4035 C 380.802 -2.14001 0.934113 0
M  V30 4036 C 381.783 -1.69616 -0.128186 0
M  V30 4037 O 382.968 -1.94185 0.0244093 0
M  V30 4038 C 380.098 -3.44253 0.459066 0
M  V30 4039 C 379.052 -4.02261 1.46185 0
M  V30 4040 C 378.378 -5.27992 0.844322 0
M  V30 4041 C 379.678 -4.38432 2.83856 0
M  V30 4042 H 381.372 -2.35127 1.85352 0
M  V30 4043 H 378.918 -1.12998 0.892604 0
M  V30 4044 H 380.871 -4.20522 0.271907 0
M  V30 4045 H 379.595 -3.22813 -0.495912 0
M  V30 4046 H 378.254 -3.28074 1.63595 0
M  V30 4047 H 377.902 -5.02862 -0.117845 0
M  V30 4048 H 377.602 -5.67765 1.51384 0
M  V30 4049 H 379.126 -6.06938 0.667693 0
M  V30 4050 H 380.54 -5.05688 2.70098 0
M  V30 4051 H 378.937 -4.89254 3.47491 0
M  V30 4052 H 380.007 -3.4826 3.37406 0
M  V30 4053 N 381.35 -0.985608 -1.22978 0
M  V30 4054 C 382.282 -0.488154 -2.23941 0
M  V30 4055 C 383.295 0.41282 -1.57479 0
M  V30 4056 O 384.484 0.216121 -1.77187 0
M  V30 4057 C 381.584 0.312611 -3.37455 0
M  V30 4058 C 380.757 -0.582741 -4.33501 0
M  V30 4059 C 379.816 0.165064 -5.25941 0
M  V30 4060 O 378.842 -0.447077 -5.67442 0
M  V30 4061 N 380.044 1.44953 -5.62111 0
M  V30 4062 H 382.809 -1.3563 -2.67254 0
M  V30 4063 H 380.37 -0.859477 -1.37203 0
M  V30 4064 H 382.362 0.821357 -3.96277 0
M  V30 4065 H 380.932 1.0818 -2.93285 0
M  V30 4066 H 380.152 -1.27225 -3.73105 0
M  V30 4067 H 381.44 -1.19275 -4.94622 0
M  V30 4068 H 380.838 1.9683 -5.30353 0
M  V30 4069 H 379.395 1.90361 -6.23383 0
M  V30 4070 N 382.828 1.3818 -0.7579 0
M  V30 4071 C 383.775 2.30416 -0.133057 0
M  V30 4072 C 384.745 1.50398 0.704957 0
M  V30 4073 O 385.93 1.79014 0.660192 0
M  V30 4074 C 383.07 3.36834 0.750813 0
M  V30 4075 C 382.183 4.31879 -0.102297 0
M  V30 4076 C 381.318 5.25368 0.784979 0
M  V30 4077 C 380.357 6.12058 -0.0715046 0
M  V30 4078 N 379.494 6.97832 0.772972 0
M  V30 4079 H 384.334 2.83274 -0.925186 0
M  V30 4080 H 381.871 1.39461 -0.467866 0
M  V30 4081 H 383.829 3.97145 1.27794 0
M  V30 4082 H 382.459 2.85374 1.50868 0
M  V30 4083 H 381.511 3.72991 -0.747095 0
M  V30 4084 H 382.823 4.92921 -0.763552 0
M  V30 4085 H 381.977 5.90818 1.37911 0
M  V30 4086 H 380.716 4.64703 1.47996 0
M  V30 4087 H 379.721 5.456 -0.678272 0
M  V30 4088 H 380.946 6.74793 -0.763606 0
M  V30 4089 H 378.892 6.3971 1.45282 0
M  V30 4090 H 378.809 7.55812 0.168709 0
M  V30 4091 H 380.077 7.67687 1.35194 0
M  V30 4092 N 384.306 0.507319 1.49211 0
M  V30 4093 C 385.555 -0.0368315 2.01666 0
M  V30 4094 C 385.868 -1.37459 1.39156 0
M  V30 4095 O 387.074 -2.00579 1.82976 0
M  V30 4096 C 385.53 -0.116089 3.59713 0
M  V30 4097 C 385.138 1.2154 4.31198 0
M  V30 4098 C 386.882 -0.610268 4.2009 0
M  V30 4099 C 384.789 1.09796 5.81119 0
M  V30 4100 H 383.719 -0.0175376 0.753796 0
M  V30 4101 H 386.37 0.647691 1.71689 0
M  V30 4102 H 384.752 -0.8652 3.86433 0
M  V30 4103 H 385.926 1.9783 4.16173 0
M  V30 4104 H 384.241 1.64352 3.82593 0
M  V30 4105 H 386.838 -0.715742 5.29888 0
M  V30 4106 H 387.181 -1.61064 3.8388 0
M  V30 4107 H 387.714 0.0824916 3.97714 0
M  V30 4108 H 384.453 2.0728 6.21864 0
M  V30 4109 H 383.973 0.376058 5.9862 0
M  V30 4110 H 385.652 0.779281 6.4229 0
M  V30 4111 N 385.784 -1.5574 0.241426 0
M  V30 4112 C 387.195 -1.84842 -0.262755 0
M  V30 4113 C 387.546 -1.16317 -1.58003 0
M  V30 4114 O 386.671 -0.439653 -2.11887 0
M  V30 4115 C 387.266 -3.35332 -0.483523 0
M  V30 4116 C 385.825 -3.6468 -0.931977 0
M  V30 4117 C 384.972 -2.77299 -0.0061151 0
M  V30 4118 H 387.923 -1.51761 0.464129 0
M  V30 4119 H 387.944 -3.56615 -1.32688 0
M  V30 4120 H 387.456 -3.85178 0.47537 0
M  V30 4121 H 385.557 -3.20307 -1.90353 0
M  V30 4122 H 385.67 -4.72498 -0.792628 0
M  V30 4123 H 384.034 -2.49408 -0.516503 0
M  V30 4124 H 384.817 -3.2995 0.948052 0
M  V30 4125 N 387.262 0.0317525 -1.57568 0
M  V30 4126 C 388.194 1.06073 -2.03178 0
M  V30 4127 C 389.207 1.32627 -0.944132 0
M  V30 4128 O 390.396 1.30162 -1.22148 0
M  V30 4129 C 387.496 2.40297 -2.38978 0
M  V30 4130 C 386.669 2.33137 -3.70089 0
M  V30 4131 C 385.728 3.49787 -3.9311 0
M  V30 4132 O 384.754 3.29403 -4.64201 0
M  V30 4133 N 385.956 4.71562 -3.38541 0
M  V30 4134 H 388.721 0.672006 -2.92069 0
M  V30 4135 H 386.282 0.219745 -1.60402 0
M  V30 4136 H 388.274 3.1705 -2.51518 0
M  V30 4137 H 386.844 2.71024 -1.55771 0
M  V30 4138 H 386.064 1.415 -3.67928 0
M  V30 4139 H 387.352 2.25493 -4.56104 0
M  V30 4140 H 386.75 4.91024 -2.80912 0
M  V30 4141 H 385.307 5.45689 -3.56464 0
M  V30 4142 N 388.74 1.54641 0.303973 0
M  V30 4143 C 389.65 1.88439 1.39743 0
M  V30 4144 C 390.666 0.778239 1.55626 0
M  V30 4145 O 391.842 1.07442 1.70347 0
M  V30 4146 C 388.907 2.12212 2.74166 0
M  V30 4147 C 387.968 3.35936 2.67293 0
M  V30 4148 C 387.201 3.58566 3.95305 0
M  V30 4149 O 387.424 2.84263 4.9452 0
M  V30 4150 O 386.358 4.52078 3.97378 0
M  V30 4151 H 390.184 2.81458 1.14083 0
M  V30 4152 H 387.769 1.40793 0.499768 0
M  V30 4153 H 389.651 2.29067 3.53704 0
M  V30 4154 H 388.326 1.22379 2.99675 0
M  V30 4155 H 387.233 3.24448 1.86237 0
M  V30 4156 H 388.566 4.2589 2.46736 0
M  V30 4157 N 390.218 -0.567019 1.47046 0
M  V30 4158 C 391.634 -0.891975 1.32348 0
M  V30 4159 C 391.834 -1.99154 0.306616 0
M  V30 4160 O 390.89 -2.50883 -0.28532 0
M  V30 4161 C 392.203 -1.29449 2.7141 0
M  V30 4162 C 393.751 -1.40646 2.79621 0
M  V30 4163 C 394.226 -1.84257 4.19301 0
M  V30 4164 N 395.717 -1.91424 4.21795 0
M  V30 4165 C 396.452 -2.26476 5.26779 0
M  V30 4166 N 395.948 -2.60211 6.42077 0
M  V30 4167 N 397.741 -2.27166 5.14152 0
M  V30 4168 H 389.892 0.159074 2.11803 0
M  V30 4169 H 392.155 0.00849752 0.947962 0
M  V30 4170 H 391.861 -0.560448 3.47206 0
M  V30 4171 H 391.735 -2.25273 3.02542 0
M  V30 4172 H 394.122 -2.13133 2.04104 0
M  V30 4173 H 394.203 -0.430339 2.52154 0
M  V30 4174 H 393.847 -1.12343 4.95319 0
M  V30 4175 H 393.777 -2.82855 4.44185 0
M  V30 4176 H 396.268 -1.6778 3.38612 0
M  V30 4177 H 396.581 -2.85956 7.17948 0
M  V30 4178 H 394.926 -2.57813 6.45413 0
M  V30 4179 H 398.117 -2.00244 4.23107 0
M  V30 4180 H 398.29 -2.54154 5.96079 0
M  V30 4181 N 391.696 -1.35014 -0.812953 0
M  V30 4182 C 393.107 -1.25035 -1.38648 0
M  V30 4183 C 393.458 0.119967 -1.95833 0
M  V30 4184 O 392.583 1.02069 -1.90816 0
M  V30 4185 C 393.178 -2.26394 -2.52054 0
M  V30 4186 C 391.737 -2.20175 -3.05287 0
M  V30 4187 C 390.884 -2.12451 -1.78213 0
M  V30 4188 H 393.835 -1.46235 -0.616516 0
M  V30 4189 H 393.856 -1.88672 -3.30429 0
M  V30 4190 H 393.368 -3.26116 -2.10404 0
M  V30 4191 H 391.469 -1.23841 -3.51417 0
M  V30 4192 H 391.582 -3.11863 -3.63701 0
M  V30 4193 H 389.946 -1.58328 -1.9951 0
M  V30 4194 H 390.729 -3.14024 -1.38723 0
M  V30 4195 N 393.175 1.03435 -1.18907 0
M  V30 4196 C 394.403 1.80381 -1.01342 0
M  V30 4197 C 394.818 1.83649 0.438005 0
M  V30 4198 O 394.175 1.27655 1.30424 0
M  V30 4199 C 394.226 3.25689 -1.56873 0
M  V30 4200 O 393.947 3.22673 -2.96334 0
M  V30 4201 C 395.448 4.19255 -1.44014 0
M  V30 4202 H 392.668 0.56784 -0.35749 0
M  V30 4203 H 395.212 1.30317 -1.576 0
M  V30 4204 H 393.367 3.72962 -1.04777 0
M  V30 4205 H 393.781 4.13748 -3.22355 0
M  V30 4206 H 395.255 5.19123 -1.87657 0
M  V30 4207 H 395.732 4.37467 -0.389815 0
M  V30 4208 H 396.338 3.77851 -1.95214 0
M  V30 4209 N 394.653 0.992116 1.22453 0
M  V30 4210 C 395.878 0.685644 1.95739 0
M  V30 4211 C 396.303 -0.743 1.72804 0
M  V30 4212 O 395.661 -1.50778 1.00676 0
M  V30 4213 C 395.709 0.996293 3.46564 0
M  V30 4214 O 394.813 0.0945512 4.12292 0
M  V30 4215 H 394.154 0.256694 0.612376 0
M  V30 4216 H 396.684 1.32888 1.5557 0
M  V30 4217 H 396.694 0.93781 3.97076 0
M  V30 4218 H 395.369 2.03733 3.62582 0
M  V30 4219 H 393.946 0.208451 3.72317 0
M  V30 4220 N 396.131 -1.37776 0.765217 0
M  V30 4221 C 397.094 -2.28686 0.153416 0
M  V30 4222 C 398.094 -1.47727 -0.635081 0
M  V30 4223 O 399.284 -1.68027 -0.459632 0
M  V30 4224 C 396.416 -3.31608 -0.790495 0
M  V30 4225 H 397.609 -2.84297 0.954723 0
M  V30 4226 H 395.162 -1.46932 0.53299 0
M  V30 4227 H 395.897 -2.81109 -1.61705 0
M  V30 4228 H 395.682 -3.9144 -0.227348 0
M  V30 4229 H 397.172 -3.99559 -1.21419 0
M  V30 4230 N 397.609 -0.515225 -1.4894 0
M  V30 4231 C 398.519 0.259774 -2.33157 0
M  V30 4232 C 399.535 0.953501 -1.45548 0
M  V30 4233 O 400.711 0.931735 -1.78552 0
M  V30 4234 C 397.776 1.30193 -3.21326 0
M  V30 4235 C 396.837 0.620129 -4.24797 0
M  V30 4236 C 396.07 1.61263 -5.08753 0
M  V30 4237 O 396.293 2.84389 -4.94448 0
M  V30 4238 O 395.227 1.16013 -5.90614 0
M  V30 4239 H 399.053 -0.429932 -3.00641 0
M  V30 4240 H 396.638 -0.276346 -1.46822 0
M  V30 4241 H 398.52 1.90455 -3.75905 0
M  V30 4242 H 397.195 1.97431 -2.56521 0
M  V30 4243 H 396.102 -0.0226019 -3.74093 0
M  V30 4244 H 397.435 -0.0100493 -4.92199 0
M  V30 4245 N 399.087 1.5561 -0.249682 0
M  V30 4246 C 400.017 2.24477 0.642826 0
M  V30 4247 C 400.998 1.22601 1.17911 0
M  V30 4248 O 402.183 1.5126 1.21795 0
M  V30 4249 C 399.313 2.94638 1.83863 0
M  V30 4250 C 398.267 4.03227 1.435 0
M  V30 4251 C 397.593 4.60828 2.71186 0
M  V30 4252 C 398.893 5.18796 0.604002 0
M  V30 4253 H 400.587 2.99321 0.0685625 0
M  V30 4254 H 398.133 1.43965 0.0315363 0
M  V30 4255 H 400.086 3.41517 2.46868 0
M  V30 4256 H 398.81 2.17287 2.43832 0
M  V30 4257 H 397.469 3.57121 0.828275 0
M  V30 4258 H 397.117 3.80174 3.29358 0
M  V30 4259 H 396.817 5.34132 2.44901 0
M  V30 4260 H 398.341 5.10442 3.35084 0
M  V30 4261 H 399.755 5.61883 1.13842 0
M  V30 4262 H 398.152 5.98506 0.437097 0
M  V30 4263 H 399.222 4.83384 -0.383147 0
M  V30 4264 N 400.565 -0.0233959 1.57583 0
M  V30 4265 C 401.495 -1.02162 2.09965 0
M  V30 4266 C 402.476 -1.3735 1.00344 0
M  V30 4267 O 403.661 -1.46135 1.27899 0
M  V30 4268 C 400.791 -2.32081 2.58371 0
M  V30 4269 C 399.745 -2.1112 3.72307 0
M  V30 4270 C 399.071 -3.46848 4.06941 0
M  V30 4271 C 400.371 -1.49276 5.00514 0
M  V30 4272 H 402.065 -0.585557 2.93618 0
M  V30 4273 H 399.611 -0.280218 1.41247 0
M  V30 4274 H 401.564 -3.02249 2.93639 0
M  V30 4275 H 400.288 -2.77758 1.71808 0
M  V30 4276 H 398.947 -1.43384 3.37397 0
M  V30 4277 H 398.595 -3.90184 3.17436 0
M  V30 4278 H 398.295 -3.33646 4.83688 0
M  V30 4279 H 399.819 -4.18369 4.44747 0
M  V30 4280 H 401.233 -2.09368 5.33702 0
M  V30 4281 H 399.63 -1.46632 5.8191 0
M  V30 4282 H 400.7 -0.459217 4.82721 0
M  V30 4283 N 402.043 -1.548 -0.295768 0
M  V30 4284 C 403.459 -1.4613 -0.641722 0
M  V30 4285 C 403.659 -0.656771 -1.90496 0
M  V30 4286 O 402.715 -0.166547 -2.5195 0
M  V30 4287 C 404.028 -2.90141 -0.789852 0
M  V30 4288 C 405.576 -3.00216 -0.885396 0
M  V30 4289 C 406.051 -4.45434 -1.06548 0
M  V30 4290 N 407.542 -4.49166 -1.13156 0
M  V30 4291 C 408.277 -5.58717 -1.28929 0
M  V30 4292 N 407.773 -6.78182 -1.41567 0
M  V30 4293 N 409.566 -5.46415 -1.31859 0
M  V30 4294 H 401.717 -2.05574 0.534147 0
M  V30 4295 H 403.98 -0.931259 0.177372 0
M  V30 4296 H 403.686 -3.51635 0.0675598 0
M  V30 4297 H 403.56 -3.37859 -1.67724 0
M  V30 4298 H 405.947 -2.38833 -1.73329 0
M  V30 4299 H 406.028 -2.55787 0.0261185 0
M  V30 4300 H 405.672 -5.07413 -0.222335 0
M  V30 4301 H 405.602 -4.87499 -1.9913 0
M  V30 4302 H 408.093 -3.631 -1.04721 0
M  V30 4303 H 408.406 -7.57428 -1.53372 0
M  V30 4304 H 406.751 -6.81037 -1.38613 0
M  V30 4305 H 409.942 -4.5203 -1.21601 0
M  V30 4306 H 410.115 -6.31841 -1.43808 0
M  V30 4307 N 403.521 0.559213 -1.47345 0
M  V30 4308 C 404.471 1.66192 -1.5609 0
M  V30 4309 C 405.455 1.55323 -0.419957 0
M  V30 4310 O 406.647 1.63839 -0.669762 0
M  V30 4311 C 403.776 3.0497 -1.57634 0
M  V30 4312 C 402.862 3.2105 -2.77106 0
M  V30 4313 N 403.253 3.07203 -4.01821 0
M  V30 4314 C 401.551 3.52046 -2.73825 0
M  V30 4315 C 402.252 3.25919 -4.81821 0
M  V30 4316 N 401.228 3.52161 -4.14106 0
M  V30 4317 H 405.03 1.54052 -2.5029 0
M  V30 4318 H 402.544 0.763914 -1.43311 0
M  V30 4319 H 404.541 3.84142 -1.61989 0
M  V30 4320 H 403.201 3.18224 -0.645281 0
M  V30 4321 H 404.212 2.84572 -4.32711 0
M  V30 4322 H 400.889 3.71839 -1.89848 0
M  V30 4323 H 402.279 3.20198 -5.90697 0
M  V30 4324 N 404.999 1.35443 0.805782 0
M  V30 4325 C 406.276 1.19325 1.54987 0
M  V30 4326 C 406.656 -0.227294 2.09873 0
M  V30 4327 O 406.004 -1.2309 1.92512 0
M  V30 4328 C 406.214 2.26196 2.65775 0
M  V30 4329 C 407.562 2.62043 3.34094 0
M  V30 4330 O 408.586 2.25115 2.76046 0
M  V30 4331 O 407.445 3.25542 4.38958 0
M  V30 4332 H 404.539 0.463623 0.684823 0
M  V30 4333 H 407.085 1.47127 0.845674 0
M  V30 4334 H 405.857 3.21471 2.23096 0
M  V30 4335 H 405.48 1.99667 3.43829 0
M  V30 4336 N 406.477 -1.02803 1.19454 0
M  V30 4337 C 407.724 -1.76217 0.997693 0
M  V30 4338 C 408.052 -1.887 -0.47144 0
M  V30 4339 O 407.307 -1.4011 -1.3663 0
M  V30 4340 C 407.606 -3.18941 1.6128 0
M  V30 4341 C 407.272 -3.26463 3.11019 0
M  V30 4342 C 405.934 -3.28223 3.51885 0
M  V30 4343 C 408.286 -3.25542 4.07028 0
M  V30 4344 C 405.614 -3.26719 4.8731 0
M  V30 4345 C 407.966 -3.25579 5.42385 0
M  V30 4346 C 406.63 -3.25637 5.82681 0
M  V30 4347 H 405.9 -0.644823 0.365082 0
M  V30 4348 H 408.547 -1.20655 1.4871 0
M  V30 4349 H 406.852 -3.77587 1.04572 0
M  V30 4350 H 408.549 -3.74415 1.43577 0
M  V30 4351 H 405.139 -3.25822 2.78457 0
M  V30 4352 H 409.323 -3.23362 3.76498 0
M  V30 4353 H 404.579 -3.25089 5.1781 0
M  V30 4354 H 408.753 -3.23817 6.16535 0
M  V30 4355 H 406.38 -3.24226 6.87591 0
M  V30 4356 N 407.956 -0.998596 -1.21925 0
M  V30 4357 C 409.202 -0.678667 -1.91107 0
M  V30 4358 C 409.535 0.78791 -1.77498 0
M  V30 4359 O 408.81 1.57043 -1.1475 0
M  V30 4360 C 409.093 -1.09245 -3.43129 0
M  V30 4361 C 408.946 -2.61801 -3.6576 0
M  V30 4362 C 410.265 -0.649984 -4.35274 0
M  V30 4363 H 407.384 -0.248025 -0.694012 0
M  V30 4364 H 410.026 -1.24314 -1.43688 0
M  V30 4365 H 408.176 -0.612171 -3.83647 0
M  V30 4366 H 409.848 -3.17543 -3.34611 0
M  V30 4367 H 408.091 -3.03609 -3.09845 0
M  V30 4368 H 408.762 -2.85804 -4.7225 0
M  V30 4369 H 411.238 -1.0626 -4.02303 0
M  V30 4370 H 410.114 -0.967743 -5.40302 0
M  V30 4371 H 410.375 0.449139 -4.39813 0
M  V30 4372 N 409.434 1.37368 -0.772513 0
M  V30 4373 C 410.85 1.53059 -0.452231 0
M  V30 4374 C 411.05 1.73065 1.03203 0
M  V30 4375 O 410.106 1.75245 1.81784 0
M  V30 4376 C 411.419 2.72659 -1.26797 0
M  V30 4377 C 412.967 2.86521 -1.25995 0
M  V30 4378 C 413.442 4.09105 -2.05905 0
M  V30 4379 N 414.933 4.16219 -2.03263 0
M  V30 4380 C 415.668 5.10107 -2.61875 0
M  V30 4381 N 415.164 6.09547 -3.29278 0
M  V30 4382 N 416.957 5.02596 -2.51701 0
M  V30 4383 H 409.108 1.22634 -1.7342 0
M  V30 4384 H 411.371 0.597206 -0.736239 0
M  V30 4385 H 411.077 2.64343 -2.31982 0
M  V30 4386 H 410.951 3.66363 -0.897672 0
M  V30 4387 H 413.338 2.94308 -0.216081 0
M  V30 4388 H 413.419 1.93774 -1.66989 0
M  V30 4389 H 413.063 4.0208 -3.10313 0
M  V30 4390 H 412.993 5.00968 -1.62292 0
M  V30 4391 H 415.484 3.45012 -1.54192 0
M  V30 4392 H 415.797 6.77718 -3.71374 0
M  V30 4393 H 414.142 6.09824 -3.33377 0
M  V30 4394 H 417.333 4.23855 -1.98657 0
M  V30 4395 H 417.506 5.75582 -2.97673 0
M  V30 4396 N 410.912 0.523116 1.48665 0
M  V30 4397 C 412.328 0.180511 1.58576 0
M  V30 4398 C 412.528 -1.31597 1.52592 0
M  V30 4399 O 411.584 -2.0937 1.4114 0
M  V30 4400 C 412.897 0.776949 2.90489 0
M  V30 4401 C 414.445 0.745058 3.04003 0
M  V30 4402 C 414.92 1.31995 4.38567 0
M  V30 4403 N 416.411 1.28162 4.45117 0
M  V30 4404 C 417.146 1.6964 5.47731 0
M  V30 4405 N 416.642 2.18816 6.57337 0
M  V30 4406 N 418.435 1.6092 5.38573 0
M  V30 4407 H 410.586 1.4958 1.50797 0
M  V30 4408 H 412.849 0.621772 0.715614 0
M  V30 4409 H 412.555 1.82732 3.00503 0
M  V30 4410 H 412.429 0.25007 3.7637 0
M  V30 4411 H 414.816 -0.296532 2.93606 0
M  V30 4412 H 414.897 1.30933 2.1975 0
M  V30 4413 H 414.541 2.36043 4.49718 0
M  V30 4414 H 414.471 0.731418 5.21496 0
M  V30 4415 H 416.962 0.92155 3.66491 0
M  V30 4416 H 417.275 2.48478 7.31764 0
M  V30 4417 H 415.62 2.22805 6.58318 0
M  V30 4418 H 418.811 1.22304 4.5184 0
M  V30 4419 H 418.984 1.93567 6.18414 0
M  V30 4420 N 412.39 -1.55475 0.257931 0
M  V30 4421 C 413.667 -1.91155 -0.414629 0
M  V30 4422 C 414.047 -1.18008 -1.75035 0
M  V30 4423 O 413.395 -0.301193 -2.26506 0
M  V30 4424 C 413.605 -3.44283 -0.571859 0
M  V30 4425 C 414.953 -4.15744 -0.862678 0
M  V30 4426 O 415.977 -3.50083 -0.657314 0
M  V30 4427 O 414.836 -5.31909 -1.2544 0
M  V30 4428 H 411.93 -0.796016 -0.22425 0
M  V30 4429 H 414.476 -1.66976 0.302814 0
M  V30 4430 H 413.248 -3.89558 0.368844 0
M  V30 4431 H 412.871 -3.7436 -1.33943 0
M  V30 4432 N 413.868 0.0150385 -1.57593 0
M  V30 4433 C 415.284 0.370907 -1.5523 0
M  V30 4434 C 415.484 1.75735 -0.985882 0
M  V30 4435 O 414.54 2.44944 -0.613077 0
M  V30 4436 C 415.853 0.259908 -2.99575 0
M  V30 4437 C 417.401 0.335959 -3.11192 0
M  V30 4438 C 417.876 0.254253 -4.57294 0
M  V30 4439 N 419.367 0.312618 -4.62144 0
M  V30 4440 C 420.102 0.272505 -5.72752 0
M  V30 4441 N 419.598 0.183864 -6.92556 0
M  V30 4442 N 421.391 0.323267 -5.6117 0
M  V30 4443 H 413.542 -0.892104 -1.92757 0
M  V30 4444 H 415.805 -0.340563 -0.884715 0
M  V30 4445 H 415.511 -0.693403 -3.44797 0
M  V30 4446 H 415.385 1.048 -3.62349 0
M  V30 4447 H 417.772 1.27971 -2.65909 0
M  V30 4448 H 417.853 -0.481739 -2.51223 0
M  V30 4449 H 417.497 -0.685887 -5.03247 0
M  V30 4450 H 417.427 1.09024 -5.15191 0
M  V30 4451 H 419.918 0.38307 -3.75953 0
M  V30 4452 H 420.231 0.15874 -7.72637 0
M  V30 4453 H 418.576 0.149708 -6.94839 0
M  V30 4454 H 421.767 0.390607 -4.66467 0
M  V30 4455 H 421.94 0.288539 -6.47357 0
M  V30 4456 N 415.346 1.54954 0.287554 0
M  V30 4457 C 416.757 1.65732 0.859634 0
M  V30 4458 C 417.108 0.574767 1.87592 0
M  V30 4459 O 416.233 -0.286299 2.14498 0
M  V30 4460 C 416.828 3.00438 1.56597 0
M  V30 4461 C 415.387 3.13292 2.08627 0
M  V30 4462 C 414.534 2.61473 0.923416 0
M  V30 4463 H 417.485 1.5857 0.0642338 0
M  V30 4464 H 417.506 2.92613 2.43224 0
M  V30 4465 H 417.018 3.79207 0.826053 0
M  V30 4466 H 415.119 2.39268 2.85625 0
M  V30 4467 H 415.232 4.19647 2.31157 0
M  V30 4468 H 413.596 2.18264 1.31275 0
M  V30 4469 H 414.379 3.42733 0.197241 0
M  V30 4470 N 416.824 -0.551391 1.4764 0
M  V30 4471 C 417.754 -1.66757 1.63445 0
M  V30 4472 C 418.735 -1.63077 0.483742 0
M  V30 4473 O 419.92 -1.80607 0.71377 0
M  V30 4474 C 417.05 -3.05387 1.65396 0
M  V30 4475 C 416.004 -3.23918 2.79752 0
M  V30 4476 C 415.33 -4.63393 2.66779 0
M  V30 4477 C 416.63 -3.08735 4.21284 0
M  V30 4478 H 418.324 -1.53786 2.56886 0
M  V30 4479 H 415.87 -0.738415 1.23626 0
M  V30 4480 H 417.823 -3.83325 1.75043 0
M  V30 4481 H 416.547 -3.19332 0.685195 0
M  V30 4482 H 415.206 -2.48391 2.69625 0
M  V30 4483 H 414.854 -4.74144 1.67918 0
M  V30 4484 H 414.554 -4.7674 3.43501 0
M  V30 4485 H 416.078 -5.43458 2.78364 0
M  V30 4486 H 417.492 -3.76484 4.32357 0
M  V30 4487 H 415.889 -3.33588 4.98838 0
M  V30 4488 H 416.959 -2.0541 4.39243 0
M  V30 4489 N 418.302 -1.35869 -0.798587 0
M  V30 4490 C 419.718 -1.16082 -1.09532 0
M  V30 4491 C 419.918 0.0213124 -2.01489 0
M  V30 4492 O 418.974 0.689488 -2.42904 0
M  V30 4493 C 420.287 -2.46748 -1.7186 0
M  V30 4494 C 421.835 -2.53028 -1.84244 0
M  V30 4495 C 422.31 -3.83758 -2.49988 0
M  V30 4496 N 423.801 -3.85053 -2.57465 0
M  V30 4497 C 424.536 -4.8294 -3.09122 0
M  V30 4498 N 424.032 -5.91217 -3.61157 0
M  V30 4499 N 425.825 -4.70369 -3.0775 0
M  V30 4500 H 417.976 -2.11571 -0.187461 0
M  V30 4501 H 420.239 -0.936726 -0.145765 0
M  V30 4502 H 419.945 -3.33471 -1.11759 0
M  V30 4503 H 419.819 -2.61883 -2.71472 0
M  V30 4504 H 422.206 -1.66729 -2.43486 0
M  V30 4505 H 422.287 -2.418 -0.834643 0
M  V30 4506 H 421.931 -4.70459 -1.91393 0
M  V30 4507 H 421.861 -3.92278 -3.5132 0
M  V30 4508 H 424.352 -3.06822 -2.20609 0
M  V30 4509 H 424.665 -6.61892 -3.98896 0
M  V30 4510 H 423.01 -5.94899 -3.59333 0
M  V30 4511 H 426.201 -3.84914 -2.66381 0
M  V30 4512 H 426.374 -5.46816 -3.47701 0
M  V30 4513 N 419.78 1.02168 -1.19998 0
M  V30 4514 C 421.026 1.75945 -1.00852 0
M  V30 4515 C 421.359 1.88702 0.458828 0
M  V30 4516 O 420.634 1.40911 1.34069 0
M  V30 4517 C 420.917 3.18154 -1.68671 0
M  V30 4518 C 420.77 3.13224 -3.22817 0
M  V30 4519 C 422.089 4.16711 -1.41561 0
M  V30 4520 H 419.208 0.638673 -0.367785 0
M  V30 4521 H 421.85 1.19222 -1.4794 0
M  V30 4522 H 420 3.66586 -1.28636 0
M  V30 4523 H 421.672 2.72635 -3.72112 0
M  V30 4524 H 419.915 2.50751 -3.53986 0
M  V30 4525 H 420.586 4.13728 -3.65422 0
M  V30 4526 H 423.062 3.76913 -1.76284 0
M  V30 4527 H 421.938 5.14391 -1.91553 0
M  V30 4528 H 422.199 4.40774 -0.342193 0
M  V30 4529 N 421.258 1.00505 1.21394 0
M  V30 4530 C 422.188 0.585684 2.26035 0
M  V30 4531 C 423.169 -0.393525 1.65485 0
M  V30 4532 O 424.354 -0.281497 1.92149 0
M  V30 4533 C 421.484 -0.0884283 3.47187 0
M  V30 4534 C 420.438 0.810567 4.20254 0
M  V30 4535 C 419.764 0.00286382 5.347 0
M  V30 4536 C 421.064 2.1132 4.77641 0
M  V30 4537 H 422.758 1.46039 2.61368 0
M  V30 4538 H 420.304 0.703648 1.25638 0
M  V30 4539 H 422.257 -0.393286 4.19561 0
M  V30 4540 H 420.981 -0.997766 3.10986 0
M  V30 4541 H 419.64 1.09925 3.49731 0
M  V30 4542 H 419.288 -0.907765 4.94741 0
M  V30 4543 H 418.988 0.601444 5.84514 0
M  V30 4544 H 420.512 -0.295808 6.09883 0
M  V30 4545 H 421.926 1.87148 5.41893 0
M  V30 4546 H 420.323 2.66164 5.37845 0
M  V30 4547 H 421.393 2.78393 3.9702 0
M  V30 4548 N 422.737 -1.36956 0.779787 0
M  V30 4549 C 423.986 -1.98738 0.344405 0
M  V30 4550 C 424.299 -1.62596 -1.08728 0
M  V30 4551 O 425.505 -2.1754 -1.62445 0
M  V30 4552 C 423.961 -3.5544 0.564829 0
M  V30 4553 C 423.569 -4.00514 2.0073 0
M  V30 4554 C 425.313 -4.24059 0.193471 0
M  V30 4555 C 423.22 -5.49957 2.17489 0
M  V30 4556 H 422.15 -0.743561 0.12503 0
M  V30 4557 H 424.801 -1.56381 0.960057 0
M  V30 4558 H 423.183 -3.95817 -0.120397 0
M  V30 4559 H 424.357 -3.71362 2.72814 0
M  V30 4560 H 422.672 -3.44703 2.336 0
M  V30 4561 H 425.269 -5.33874 0.297097 0
M  V30 4562 H 425.612 -4.07378 -0.857263 0
M  V30 4563 H 426.145 -3.89012 0.831556 0
M  V30 4564 H 422.884 -5.71574 3.2091 0
M  V30 4565 H 422.404 -5.80767 1.49899 0
M  V30 4566 H 424.083 -6.16043 1.97738 0
M  V30 4567 N 424.215 -0.530993 -1.48385 0
M  V30 4568 C 425.492 0.0671788 -1.95485 0
M  V30 4569 C 425.872 1.51191 -1.47324 0
M  V30 4570 O 425.22 2.17507 -0.700202 0
M  V30 4571 C 425.43 -0.0511206 -3.48963 0
M  V30 4572 C 426.778 0.107632 -4.24464 0
M  V30 4573 O 427.802 0.0226248 -3.56193 0
M  V30 4574 O 426.661 0.285972 -5.45751 0
M  V30 4575 H 423.755 0.0787365 -0.823243 0
M  V30 4576 H 426.301 -0.595662 -1.58902 0
M  V30 4577 H 425.073 -1.05747 -3.7674 0
M  V30 4578 H 424.696 0.650525 -3.92242 0
M  V30 4579 N 425.693 1.55336 -0.266172 0
M  V30 4580 C 426.623 2.25146 0.618981 0
M  V30 4581 C 427.604 1.23845 1.16604 0
M  V30 4582 O 428.789 1.52544 1.20183 0
M  V30 4583 C 425.919 2.96572 1.80728 0
M  V30 4584 C 424.873 4.04726 1.39215 0
M  V30 4585 C 424.199 4.63678 2.66283 0
M  V30 4586 C 425.499 5.19407 0.548942 0
M  V30 4587 H 427.193 2.99377 0.0368116 0
M  V30 4588 H 424.739 1.43991 0.0162651 0
M  V30 4589 H 426.692 3.44116 2.43232 0
M  V30 4590 H 425.416 2.19861 2.41514 0
M  V30 4591 H 424.075 3.57979 0.790351 0
M  V30 4592 H 423.723 3.83646 3.25308 0
M  V30 4593 H 423.423 5.367 2.39222 0
M  V30 4594 H 424.947 5.13967 3.29651 0
M  V30 4595 H 426.361 5.63059 1.07876 0
M  V30 4596 H 424.758 5.98936 0.373593 0
M  V30 4597 H 425.828 4.8295 -0.434394 0
M  V30 4598 N 427.171 -0.0066808 1.57599 0
M  V30 4599 C 428.42 -0.692078 1.89455 0
M  V30 4600 C 428.733 -1.75306 0.867586 0
M  V30 4601 O 429.939 -2.49262 1.07614 0
M  V30 4602 C 428.395 -1.2821 3.36289 0
M  V30 4603 C 428.003 -0.256291 4.47266 0
M  V30 4604 C 429.747 -1.94608 3.77264 0
M  V30 4605 C 427.654 -0.855927 5.85173 0
M  V30 4606 H 426.584 -0.262252 0.706923 0
M  V30 4607 H 429.235 0.052769 1.83424 0
M  V30 4608 H 427.617 -2.0774 3.37135 0
M  V30 4609 H 428.791 0.513923 4.57925 0
M  V30 4610 H 427.106 0.306862 4.15268 0
M  V30 4611 H 429.703 -2.40364 4.77629 0
M  V30 4612 H 430.046 -2.77382 3.10427 0
M  V30 4613 H 430.579 -1.21822 3.78688 0
M  V30 4614 H 427.318 -0.0671161 6.55466 0
M  V30 4615 H 426.838 -1.59546 5.78191 0
M  V30 4616 H 428.517 -1.35658 6.32618 0
M  V30 4617 N 428.649 -1.55105 -0.279332 0
M  V30 4618 C 429.581 -1.83952 -1.36727 0
M  V30 4619 C 430.594 -0.723642 -1.45833 0
M  V30 4620 O 431.783 -1.00141 -1.47763 0
M  V30 4621 C 428.883 -1.98183 -2.74912 0
M  V30 4622 C 428.056 -3.28787 -2.88475 0
M  V30 4623 C 427.115 -3.33162 -4.07295 0
M  V30 4624 O 426.141 -4.06576 -3.98353 0
M  V30 4625 N 427.343 -2.60109 -5.18964 0
M  V30 4626 H 430.108 -2.77853 -1.12328 0
M  V30 4627 H 427.669 -1.54945 -0.469442 0
M  V30 4628 H 429.661 -1.98488 -3.52682 0
M  V30 4629 H 428.231 -1.11177 -2.92162 0
M  V30 4630 H 427.451 -3.41075 -1.97641 0
M  V30 4631 H 428.739 -4.14933 -2.94463 0
M  V30 4632 H 428.137 -2.00136 -5.29115 0
M  V30 4633 H 426.694 -2.66143 -5.94988 0
M  V30 4634 N 430.127 0.543554 -1.4793 0
M  V30 4635 C 431.543 0.870806 -1.3375 0
M  V30 4636 C 431.743 1.9864 -0.338261 0
M  V30 4637 O 430.799 2.51305 0.245371 0
M  V30 4638 C 432.112 1.25114 -2.73435 0
M  V30 4639 C 433.66 1.3618 -2.81823 0
M  V30 4640 C 434.135 1.77563 -4.22179 0
M  V30 4641 N 435.626 1.8469 -4.24787 0
M  V30 4642 C 436.361 2.18067 -5.30315 0
M  V30 4643 N 435.857 2.49963 -6.46135 0
M  V30 4644 N 437.65 2.18958 -5.17701 0
M  V30 4645 H 429.801 -0.19275 -2.11524 0
M  V30 4646 H 432.064 -0.0235777 -0.947707 0
M  V30 4647 H 431.77 0.50514 -3.48053 0
M  V30 4648 H 431.644 2.20431 -3.06088 0
M  V30 4649 H 434.031 2.09859 -2.07468 0
M  V30 4650 H 434.112 0.390169 -2.52807 0
M  V30 4651 H 433.756 1.04449 -4.97044 0
M  V30 4652 H 433.686 2.75753 -4.48629 0
M  V30 4653 H 436.177 1.62372 -3.41239 0
M  V30 4654 H 436.49 2.74497 -7.22406 0
M  V30 4655 H 434.835 2.47513 -6.49432 0
M  V30 4656 H 438.026 1.93488 -4.2624 0
M  V30 4657 H 438.199 2.44639 -6.00047 0
M  V30 4658 N 431.605 1.3629 0.791371 0
M  V30 4659 C 432.833 1.33562 1.58016 0
M  V30 4660 C 433.248 -0.0835616 1.88615 0
M  V30 4661 O 432.605 -1.0399 1.49974 0
M  V30 4662 C 432.656 2.15517 2.90232 0
M  V30 4663 O 432.377 3.51902 2.60953 0
M  V30 4664 C 433.878 2.20546 3.84544 0
M  V30 4665 H 431.098 0.458226 0.490173 0
M  V30 4666 H 433.642 1.79361 0.982345 0
M  V30 4667 H 431.797 1.73278 3.46487 0
M  V30 4668 H 432.211 3.94644 3.4548 0
M  V30 4669 H 433.685 2.82252 4.74382 0
M  V30 4670 H 434.162 1.20838 4.2225 0
M  V30 4671 H 434.768 2.63013 3.34222 0
M  V30 4672 N 433.083 -1.0153 1.20538 0
M  V30 4673 C 434.03 -2.10098 0.955383 0
M  V30 4674 C 435 -1.65702 -0.114878 0
M  V30 4675 O 436.185 -1.90776 0.0301118 0
M  V30 4676 C 433.325 -3.41236 0.514969 0
M  V30 4677 C 432.438 -3.99102 1.65353 0
M  V30 4678 C 431.573 -5.18306 1.16329 0
M  V30 4679 C 430.612 -5.68258 2.27485 0
M  V30 4680 N 429.749 -6.78722 1.7967 0
M  V30 4681 H 434.589 -2.30818 1.88486 0
M  V30 4682 H 432.126 -1.13189 0.939499 0
M  V30 4683 H 434.084 -4.16504 0.240935 0
M  V30 4684 H 432.714 -3.20585 -0.377512 0
M  V30 4685 H 431.766 -3.20918 2.04245 0
M  V30 4686 H 433.078 -4.32177 2.49047 0
M  V30 4687 H 432.232 -6.00782 0.845302 0
M  V30 4688 H 430.971 -4.86799 0.296254 0
M  V30 4689 H 429.976 -4.84385 2.60099 0
M  V30 4690 H 431.201 -6.01798 3.14667 0
M  V30 4691 H 429.147 -6.49042 0.95295 0
M  V30 4692 H 429.064 -7.10996 2.56944 0
M  V30 4693 H 430.332 -7.64759 1.50875 0
M  V30 4694 N 434.561 -1.01147 -1.20859 0
M  V30 4695 C 435.838 -0.613136 -1.85742 0
M  V30 4696 C 436.218 0.909004 -1.90526 0
M  V30 4697 O 435.566 1.79862 -1.40932 0
M  V30 4698 C 435.776 -1.255 -3.25654 0
M  V30 4699 C 437.124 -1.3672 -4.01986 0
M  V30 4700 O 438.148 -1.21082 -3.34989 0
M  V30 4701 O 437.007 -1.6194 -5.21956 0
M  V30 4702 H 434.101 -0.210878 -0.799662 0
M  V30 4703 H 436.647 -1.10853 -1.2849 0
M  V30 4704 H 435.419 -2.29532 -3.16908 0
M  V30 4705 H 435.042 -0.746369 -3.90532 0
M  V30 4706 N 436.039 1.36541 -0.78704 0
M  V30 4707 C 437.002 2.28413 -0.189778 0
M  V30 4708 C 438.002 1.48719 0.611499 0
M  V30 4709 O 439.192 1.68737 0.432842 0
M  V30 4710 C 436.324 3.32824 0.737638 0
M  V30 4711 H 437.517 2.82743 -0.999831 0
M  V30 4712 H 435.07 1.46065 -0.556298 0
M  V30 4713 H 435.805 2.83646 1.57212 0
M  V30 4714 H 435.59 3.91752 0.165044 0
M  V30 4715 H 437.08 4.0144 1.15047 0
M  V30 4716 N 437.518 0.538854 1.48102 0
M  V30 4717 C 438.764 0.00801365 2.02798 0
M  V30 4718 C 439.097 -1.3309 1.41424 0
M  V30 4719 O 438.372 -1.86169 0.563158 0
M  V30 4720 C 438.655 -0.104589 3.59948 0
M  V30 4721 C 438.508 1.26012 4.31788 0
M  V30 4722 C 439.827 -0.827055 4.32259 0
M  V30 4723 H 436.946 0.00438624 0.736987 0
M  V30 4724 H 439.588 0.6976 1.7673 0
M  V30 4725 H 437.738 -0.691893 3.82289 0
M  V30 4726 H 439.41 1.88922 4.2084 0
M  V30 4727 H 437.653 1.83968 3.92859 0
M  V30 4728 H 438.324 1.13424 5.40221 0
M  V30 4729 H 440.8 -0.328578 4.14801 0
M  V30 4730 H 439.676 -0.87476 5.41885 0
M  V30 4731 H 439.937 -1.87927 4.0017 0
M  V30 4732 N 438.996 -1.55193 0.274407 0
M  V30 4733 C 440.412 -1.59401 -0.0797543 0
M  V30 4734 C 440.612 -1.29162 -1.54659 0
M  V30 4735 O 439.668 -1.05215 -2.29534 0
M  V30 4736 C 440.981 -2.99257 0.294238 0
M  V30 4737 C 442.529 -3.12072 0.240796 0
M  V30 4738 C 443.004 -4.54194 0.589218 0
M  V30 4739 N 444.495 -4.60033 0.540744 0
M  V30 4740 C 445.23 -5.68027 0.783147 0
M  V30 4741 N 444.726 -6.8417 1.09013 0
M  V30 4742 N 446.519 -5.57572 0.711993 0
M  V30 4743 H 438.67 -1.73113 1.23067 0
M  V30 4744 H 440.933 -0.807197 0.497129 0
M  V30 4745 H 440.639 -3.26217 1.31435 0
M  V30 4746 H 440.513 -3.75427 -0.365281 0
M  V30 4747 H 442.9 -2.84877 -0.770024 0
M  V30 4748 H 442.981 -2.38117 0.934563 0
M  V30 4749 H 442.625 -4.82115 1.59772 0
M  V30 4750 H 442.555 -5.26448 -0.126331 0
M  V30 4751 H 445.046 -3.76599 0.313327 0
M  V30 4752 H 445.359 -7.6243 1.26178 0
M  V30 4753 H 443.704 -6.85787 1.12789 0
M  V30 4754 H 446.895 -4.65714 0.472014 0
M  V30 4755 H 447.068 -6.41659 0.90429 0
M  V30 4756 N 440.474 -0.00167713 -1.576 0
M  V30 4757 C 441.384 1.00548 -2.1196 0
M  V30 4758 C 442.4 1.3758 -1.06526 0
M  V30 4759 O 443.576 1.46278 -1.38436 0
M  V30 4760 C 440.641 2.27809 -2.6135 0
M  V30 4761 C 439.702 1.97074 -3.81393 0
M  V30 4762 C 438.935 3.18267 -4.28417 0
M  V30 4763 O 439.158 4.30009 -3.74765 0
M  V30 4764 O 438.092 3.02167 -5.20556 0
M  V30 4765 H 441.918 0.573373 -2.98238 0
M  V30 4766 H 439.503 0.217255 -1.47812 0
M  V30 4767 H 441.385 3.02568 -2.93309 0
M  V30 4768 H 440.06 2.70254 -1.78169 0
M  V30 4769 H 438.967 1.19785 -3.54404 0
M  V30 4770 H 440.3 1.59464 -4.65652 0
M  V30 4771 N 441.952 1.55251 0.271103 0
M  V30 4772 C 442.882 1.9127 1.33933 0
M  V30 4773 C 443.863 0.77478 1.5143 0
M  V30 4774 O 445.048 1.03307 1.64442 0
M  V30 4775 C 442.178 2.18627 2.69851 0
M  V30 4776 C 441.132 3.34442 2.67081 0
M  V30 4777 C 440.458 3.47284 4.06569 0
M  V30 4778 C 441.758 4.70784 2.26185 0
M  V30 4779 H 443.452 2.80744 1.04035 0
M  V30 4780 H 440.998 1.35077 0.499017 0
M  V30 4781 H 442.951 2.42413 3.44694 0
M  V30 4782 H 441.675 1.25955 3.01335 0
M  V30 4783 H 440.334 3.10627 1.94695 0
M  V30 4784 H 439.982 2.52074 4.35279 0
M  V30 4785 H 439.682 4.25152 4.0561 0
M  V30 4786 H 441.206 3.73363 4.83148 0
M  V30 4787 H 442.62 4.94102 2.90751 0
M  V30 4788 H 441.017 5.51582 2.36384 0
M  V30 4789 H 442.087 4.69478 1.21319 0
M  V30 4790 N 443.43 -0.535701 1.48216 0
M  V30 4791 C 444.707 -1.29683 1.46429 0
M  V30 4792 C 445.087 -2.10391 0.172852 0
M  V30 4793 O 444.435 -2.12282 -0.845488 0
M  V30 4794 C 444.645 -2.18313 2.72287 0
M  V30 4795 C 445.993 -2.78639 3.20383 0
M  V30 4796 O 447.017 -2.28604 2.73164 0
M  V30 4797 O 445.876 -3.69636 4.02531 0
M  V30 4798 H 442.97 -0.585026 0.584529 0
M  V30 4799 H 445.516 -0.552827 1.60443 0
M  V30 4800 H 444.288 -1.58421 3.57797 0
M  V30 4801 H 443.911 -2.99971 2.60966 0
M  V30 4802 N 444.908 -1.36708 -0.784132 0
M  V30 4803 C 445.856 -1.31533 -1.91838 0
M  V30 4804 C 446.85 -0.206205 -1.6814 0
M  V30 4805 O 448.056 -0.373519 -1.76082 0
M  V30 4806 H 444.431 -0.409613 -0.630651 0
M  V30 4807 H 446.402 -2.2731 -1.9332 0
M  V30 4808 C 445.151 -1.12679 -3.28936 0
M  V30 4809 H 444.474 -1.97274 -3.4774 0
M  V30 4810 H 445.914 -1.13106 -4.08636 0
M  V30 4811 C 444.373 0.168281 -3.36479 0
M  V30 4812 O 444.903 1.15625 -3.84699 0
M  V30 4813 N 443.109 0.214762 -2.89805 0
M  V30 4814 H 442.656 -0.589852 -2.50756 0
M  V30 4815 H 442.614 1.08094 -2.95234 0
M  V30 4816 N 446.386 1.0089 -1.21074 0
M  V30 4817 C 447.316 2.1145 -0.990523 0
M  V30 4818 C 448.297 1.69897 0.0831699 0
M  V30 4819 O 449.482 1.94052 -0.0758853 0
M  V30 4820 C 446.612 3.42914 -0.550177 0
M  V30 4821 C 445.566 3.98244 -1.56799 0
M  V30 4822 C 444.892 5.25568 -0.984013 0
M  V30 4823 C 446.192 4.30752 -2.95381 0
M  V30 4824 H 447.886 2.3013 -1.91521 0
M  V30 4825 H 445.432 1.10592 -0.92225 0
M  V30 4826 H 447.385 4.19653 -0.383305 0
M  V30 4827 H 446.109 3.24014 0.41015 0
M  V30 4828 H 444.768 3.23621 -1.72236 0
M  V30 4829 H 444.416 5.02998 -0.0155216 0
M  V30 4830 H 444.116 5.63551 -1.66384 0
M  V30 4831 H 445.64 6.04955 -0.828378 0
M  V30 4832 H 447.054 4.98349 -2.8341 0
M  V30 4833 H 445.451 4.79869 -3.60341 0
M  V30 4834 H 446.521 3.39192 -3.46521 0
M  V30 4835 N 447.864 1.01787 1.20321 0
M  V30 4836 C 448.796 0.547357 2.22568 0
M  V30 4837 C 449.809 -0.370922 1.58518 0
M  V30 4838 O 450.998 -0.169067 1.77698 0
M  V30 4839 C 448.098 -0.223031 3.38165 0
M  V30 4840 C 447.271 0.697472 4.31803 0
M  V30 4841 C 446.33 -0.025562 5.26194 0
M  V30 4842 O 445.356 0.597367 5.66057 0
M  V30 4843 N 446.558 -1.29999 5.65757 0
M  V30 4844 H 449.323 1.42668 2.63564 0
M  V30 4845 H 446.884 0.895552 1.34876 0
M  V30 4846 H 448.876 -0.716002 3.98316 0
M  V30 4847 H 447.446 -1.00366 2.9605 0
M  V30 4848 H 446.666 1.37073 3.69601 0
M  V30 4849 H 447.954 1.32347 4.91286 0
M  V30 4850 H 447.352 -1.827 5.35385 0
M  V30 4851 H 445.909 -1.73766 6.28211 0
M  V30 4852 N 449.342 -1.36122 0.79427 0
M  V30 4853 C 450.572 -2.03067 0.380437 0
M  V30 4854 C 450.98 -1.60018 -1.00949 0
M  V30 4855 O 450.323 -0.787425 -1.65968 0
M  V30 4856 C 450.385 -3.57587 0.37034 0
M  V30 4857 C 450.049 -4.23855 1.70867 0
M  V30 4858 C 451.046 -4.46404 2.66496 0
M  V30 4859 C 448.731 -4.61229 1.9893 0
M  V30 4860 C 450.725 -5.05412 3.88378 0
M  V30 4861 C 448.412 -5.19953 3.21079 0
M  V30 4862 C 449.41 -5.41985 4.15621 0
M  V30 4863 O 449.098 -5.99475 5.35616 0
M  V30 4864 H 448.83 -0.658168 0.154243 0
M  V30 4865 H 451.384 -1.7498 1.0757 0
M  V30 4866 H 449.614 -3.84814 -0.381444 0
M  V30 4867 H 451.303 -4.05895 -0.0194894 0
M  V30 4868 H 452.069 -4.17921 2.46103 0
M  V30 4869 H 447.948 -4.43402 1.26158 0
M  V30 4870 H 451.492 -5.22524 4.62185 0
M  V30 4871 H 447.389 -5.47862 3.41347 0
M  V30 4872 H 448.157 -6.17937 5.36745 0
M  V30 4873 N 450.82 -0.546701 -1.47814 0
M  V30 4874 C 452.236 -0.205717 -1.58269 0
M  V30 4875 C 452.436 1.29153 -1.54667 0
M  V30 4876 O 451.492 2.07098 -1.44453 0
M  V30 4877 C 452.805 -0.823065 -2.89216 0
M  V30 4878 C 454.353 -0.793328 -3.02779 0
M  V30 4879 C 454.828 -1.38955 -4.36412 0
M  V30 4880 N 456.319 -1.35227 -4.43021 0
M  V30 4881 C 457.054 -1.78333 -5.44963 0
M  V30 4882 N 456.55 -2.29246 -6.53772 0
M  V30 4883 N 458.343 -1.69467 -5.35945 0
M  V30 4884 H 450.494 -1.5196 -1.48398 0
M  V30 4885 H 452.757 -0.633078 -0.705632 0
M  V30 4886 H 452.463 -1.8749 -2.97558 0
M  V30 4887 H 452.337 -0.309915 -3.75925 0
M  V30 4888 H 454.724 0.249784 -2.94041 0
M  V30 4889 H 454.805 -1.34412 -2.17639 0
M  V30 4890 H 454.449 -2.43168 -4.45906 0
M  V30 4891 H 454.379 -0.814291 -5.20266 0
M  V30 4892 H 456.87 -0.979739 -3.64979 0
M  V30 4893 H 457.183 -2.60089 -7.27718 0
M  V30 4894 H 455.528 -2.3325 -6.5469 0
M  V30 4895 H 458.719 -1.29477 -4.49837 0
M  V30 4896 H 458.892 -2.03381 -6.15256 0
M  V30 4897 N 452.299 1.55045 -0.282633 0
M  V30 4898 C 453.246 2.22822 0.601566 0
M  V30 4899 C 454.216 1.20431 1.14392 0
M  V30 4900 O 455.401 1.48996 1.19184 0
M  V30 4901 C 452.541 2.95873 1.77632 0
M  V30 4902 C 451.654 4.12999 1.26711 0
M  V30 4903 C 450.789 4.73676 2.40426 0
M  V30 4904 C 449.828 5.82981 1.86545 0
M  V30 4905 N 448.965 6.3769 2.93762 0
M  V30 4906 H 453.805 2.97995 0.0169528 0
M  V30 4907 H 451.342 1.471 -0.00339964 0
M  V30 4908 H 453.3 3.36447 2.46697 0
M  V30 4909 H 451.93 2.2311 2.33285 0
M  V30 4910 H 450.982 3.77494 0.469314 0
M  V30 4911 H 452.294 4.91803 0.832518 0
M  V30 4912 H 451.448 5.17008 3.17471 0
M  V30 4913 H 450.187 3.94164 2.87203 0
M  V30 4914 H 449.192 5.39092 1.07983 0
M  V30 4915 H 450.417 6.64366 1.40694 0
M  V30 4916 H 448.363 5.61069 3.39908 0
M  V30 4917 H 448.28 7.11788 2.54744 0
M  V30 4918 H 449.548 6.8568 3.7076 0
M  V30 4919 N 453.777 0.010035 1.57597 0
M  V30 4920 C 454.71 -1.01234 2.04516 0
M  V30 4921 C 455.688 -1.32886 0.937024 0
M  V30 4922 O 456.872 -1.44879 1.20592 0
M  V30 4923 C 453.999 -2.33738 2.45121 0
M  V30 4924 C 453.045 -2.17679 3.66767 0
M  V30 4925 S 453.878 -1.49343 5.14254 0
M  V30 4926 C 455.034 -2.83256 5.58137 0
M  V30 4927 H 455.267 -0.612866 2.90914 0
M  V30 4928 H 452.8 -0.201124 1.53084 0
M  V30 4929 H 454.758 -3.09922 2.69182 0
M  V30 4930 H 453.419 -2.70823 1.59103 0
M  V30 4931 H 452.612 -3.1559 3.92962 0
M  V30 4932 H 452.214 -1.4964 3.42759 0
M  V30 4933 H 454.506 -3.79538 5.6121 0
M  V30 4934 H 455.449 -2.61749 6.57946 0
M  V30 4935 H 455.857 -2.87627 4.85727 0
M  V30 4936 N 455.255 -1.55392 -0.262866 0
M  V30 4937 C 456.202 -1.88966 -1.32516 0
M  V30 4938 C 457.172 -0.742187 -1.48596 0
M  V30 4939 O 458.357 -0.99439 -1.62839 0
M  V30 4940 C 455.497 -2.17592 -2.67858 0
M  V30 4941 C 454.61 -3.45061 -2.59917 0
M  V30 4942 C 453.745 -3.63336 -3.87505 0
M  V30 4943 C 452.784 -4.84462 -3.74116 0
M  V30 4944 N 451.921 -4.99342 -4.93561 0
M  V30 4945 H 456.761 -2.79566 -1.03184 0
M  V30 4946 H 454.298 -1.38404 -0.498285 0
M  V30 4947 H 456.256 -2.3219 -3.46617 0
M  V30 4948 H 454.886 -1.30215 -2.95371 0
M  V30 4949 H 453.938 -3.38881 -1.72812 0
M  V30 4950 H 455.25 -4.3396 -2.45926 0
M  V30 4951 H 454.404 -3.77807 -4.74707 0
M  V30 4952 H 453.143 -2.72641 -4.04374 0
M  V30 4953 H 452.148 -4.69985 -2.85297 0
M  V30 4954 H 453.373 -5.76603 -3.58757 0
M  V30 4955 H 451.319 -4.1158 -5.10821 0
M  V30 4956 H 451.236 -5.82303 -4.82141 0
M  V30 4957 H 452.504 -5.18208 -5.82306 0
M  V30 4958 N 456.733 0.527833 -1.48498 0
M  V30 4959 C 457.68 1.6322 -1.6318 0
M  V30 4960 C 458.65 1.59199 -0.473815 0
M  V30 4961 O 459.835 1.77591 -0.697563 0
M  V30 4962 C 456.975 3.01474 -1.67951 0
M  V30 4963 C 456.088 3.15713 -2.94871 0
M  V30 4964 C 455.223 4.44539 -2.90789 0
M  V30 4965 C 454.262 4.52315 -4.12404 0
M  V30 4966 N 453.399 5.72533 -4.06387 0
M  V30 4967 H 458.239 1.50011 -2.57489 0
M  V30 4968 H 455.776 0.730298 -1.27691 0
M  V30 4969 H 457.734 3.81572 -1.68698 0
M  V30 4970 H 456.364 3.1345 -0.771306 0
M  V30 4971 H 455.416 2.28854 -3.03859 0
M  V30 4972 H 456.728 3.1732 -3.8485 0
M  V30 4973 H 455.882 5.3293 -2.89949 0
M  V30 4974 H 454.621 4.45457 -1.98542 0
M  V30 4975 H 453.626 3.62331 -4.13517 0
M  V30 4976 H 454.851 4.53134 -5.05812 0
M  V30 4977 H 452.797 5.74344 -3.16962 0
M  V30 4978 H 452.714 5.75643 -4.90073 0
M  V30 4979 H 453.982 6.63204 -4.0961 0
M  V30 4980 N 458.211 1.37122 0.776871 0
M  V30 4981 C 459.46 1.31373 1.53049 0
M  V30 4982 C 459.773 -0.101016 1.95339 0
M  V30 4983 O 460.979 -0.280953 2.70042 0
M  V30 4984 C 459.435 2.30567 2.76346 0
M  V30 4985 C 459.043 3.77543 2.41175 0
M  V30 4986 C 460.787 2.33818 3.54301 0
M  V30 4987 C 458.694 4.68481 3.60943 0
M  V30 4988 H 457.624 0.488234 0.574581 0
M  V30 4989 H 460.275 1.62554 0.851372 0
M  V30 4990 H 458.657 1.92396 3.46121 0
M  V30 4991 H 459.831 4.24521 1.79216 0
M  V30 4992 H 458.146 3.77187 1.76405 0
M  V30 4993 H 460.743 2.98965 4.4331 0
M  V30 4994 H 461.086 1.3503 3.93793 0
M  V30 4995 H 461.619 2.7067 2.91518 0
M  V30 4996 H 458.358 5.68378 3.26537 0
M  V30 4997 H 457.878 4.2621 4.22025 0
M  V30 4998 H 459.557 4.85366 4.27819 0
M  V30 4999 N 459.689 -1.00246 1.21608 0
M  V30 5000 C 460.619 -2.10921 1.00172 0
M  V30 5001 C 461.6 -1.69938 -0.0741587 0
M  V30 5002 O 462.785 -1.94009 0.0861753 0
M  V30 5003 C 459.915 -3.42618 0.568355 0
M  V30 5004 C 458.869 -3.97407 1.58909 0
M  V30 5005 C 458.195 -5.25038 1.01187 0
M  V30 5006 C 459.495 -4.2918 2.97661 0
M  V30 5007 H 461.189 -2.29112 1.92739 0
M  V30 5008 H 458.735 -1.10101 0.928102 0
M  V30 5009 H 460.688 -4.19444 0.405555 0
M  V30 5010 H 459.412 -3.24227 -0.392961 0
M  V30 5011 H 458.071 -3.22703 1.73949 0
M  V30 5012 H 457.719 -5.02982 0.0421965 0
M  V30 5013 H 457.419 -5.62661 1.6937 0
M  V30 5014 H 458.943 -6.04507 0.860448 0
M  V30 5015 H 460.357 -4.96839 2.86049 0
M  V30 5016 H 458.754 -4.77952 3.6288 0
M  V30 5017 H 459.824 -3.3735 3.48315 0
M  V30 5018 N 461.167 -1.02423 -1.1978 0
M  V30 5019 C 462.414 -0.717988 -1.89344 0
M  V30 5020 C 462.742 0.753036 -1.79331 0
M  V30 5021 O 461.997 1.56355 -1.17692 0
M  V30 5022 C 462.296 -1.1088 -3.39765 0
M  V30 5023 C 461.962 -2.57731 -3.6998 0
M  V30 5024 C 460.624 -2.97854 -3.77937 0
M  V30 5025 C 462.976 -3.52763 -3.83677 0
M  V30 5026 C 460.304 -4.31931 -3.97054 0
M  V30 5027 C 462.656 -4.86538 -4.04306 0
M  V30 5028 C 461.32 -5.26356 -4.10494 0
M  V30 5029 H 460.59 -0.26273 -0.692859 0
M  V30 5030 H 463.237 -1.28623 -1.41875 0
M  V30 5031 H 461.542 -0.459094 -3.89101 0
M  V30 5032 H 463.239 -0.849432 -3.919 0
M  V30 5033 H 459.829 -2.25646 -3.64393 0
M  V30 5034 H 464.013 -3.2292 -3.76877 0
M  V30 5035 H 459.269 -4.62324 -4.00083 0
M  V30 5036 H 463.443 -5.60093 -4.13846 0
M  V30 5037 H 461.07 -6.3026 -4.2506 0
M  V30 5038 N 462.645 1.35699 -0.801477 0
M  V30 5039 C 463.577 2.28598 -0.166028 0
M  V30 5040 C 464.59 1.50044 0.631721 0
M  V30 5041 O 465.779 1.72339 0.464921 0
M  V30 5042 C 462.879 3.29625 0.787451 0
M  V30 5043 C 462.052 4.37384 0.037171 0
M  V30 5044 C 461.111 5.183 0.908375 0
M  V30 5045 O 460.137 5.68053 0.361189 0
M  V30 5046 N 461.339 5.35912 2.23112 0
M  V30 5047 H 464.104 2.83771 -0.964071 0
M  V30 5048 H 461.665 1.47994 -0.656469 0
M  V30 5049 H 463.657 3.80648 1.37439 0
M  V30 5050 H 462.227 2.75004 1.48632 0
M  V30 5051 H 461.447 3.87364 -0.730935 0
M  V30 5052 H 462.735 5.0653 -0.480109 0
M  V30 5053 H 462.133 4.97125 2.69968 0
M  V30 5054 H 460.69 5.90133 2.76741 0
M  V30 5055 N 464.123 0.554532 1.47522 0
M  V30 5056 C 465.033 -0.197865 2.33764 0
M  V30 5057 C 466.049 -0.914576 1.48025 0
M  V30 5058 O 467.225 -0.884067 1.80959 0
M  V30 5059 C 464.29 -1.21628 3.24665 0
M  V30 5060 C 463.351 -0.507283 4.26292 0
M  V30 5061 C 462.584 -1.47718 5.1285 0
M  V30 5062 O 462.807 -2.7118 5.01814 0
M  V30 5063 O 461.741 -1.00313 5.93482 0
M  V30 5064 H 465.567 0.50949 2.99396 0
M  V30 5065 H 463.152 0.315176 1.46038 0
M  V30 5066 H 465.034 -1.80421 3.80823 0
M  V30 5067 H 463.709 -1.9056 2.61665 0
M  V30 5068 H 462.616 0.121778 3.73902 0
M  V30 5069 H 463.949 0.140544 4.91999 0
M  V30 5070 N 465.601 -1.54893 0.290851 0
M  V30 5071 C 466.829 -2.04343 -0.324288 0
M  V30 5072 C 467.244 -1.16859 -1.48289 0
M  V30 5073 O 466.601 -0.192018 -1.81487 0
M  V30 5074 C 466.652 -3.52756 -0.79026 0
M  V30 5075 O 466.373 -4.36913 0.322213 0
M  V30 5076 C 467.874 -4.18161 -1.4716 0
M  V30 5077 H 465.094 -0.667135 -0.0719173 0
M  V30 5078 H 467.638 -1.99981 0.427529 0
M  V30 5079 H 465.793 -3.57511 -1.49213 0
M  V30 5080 H 466.207 -5.24486 -0.0387372 0
M  V30 5081 H 467.681 -5.23562 -1.7489 0
M  V30 5082 H 468.158 -3.67282 -2.40834 0
M  V30 5083 H 468.764 -4.17454 -0.813178 0
M  V30 5084 N 467.08 -0.0183926 -1.57589 0
M  V30 5085 C 468.496 0.337897 -1.55982 0
M  V30 5086 C 468.696 1.73604 -1.02294 0
M  V30 5087 O 467.752 2.43589 -0.664895 0
M  V30 5088 C 469.065 0.196305 -3.00059 0
M  V30 5089 C 470.613 0.269875 -3.11834 0
M  V30 5090 C 471.088 0.157197 -4.5773 0
M  V30 5091 N 472.579 0.214521 -4.62703 0
M  V30 5092 C 473.314 0.150955 -5.73201 0
M  V30 5093 N 472.81 0.0369212 -6.9279 0
M  V30 5094 N 474.603 0.204162 -5.61729 0
M  V30 5095 H 466.754 -0.93279 -1.90821 0
M  V30 5096 H 469.017 -0.359253 -0.877292 0
M  V30 5097 H 468.723 -0.766383 -3.43248 0
M  V30 5098 H 468.597 0.970908 -3.6449 0
M  V30 5099 H 470.984 1.22302 -2.68563 0
M  V30 5100 H 471.065 -0.534918 -2.50144 0
M  V30 5101 H 470.709 -0.792479 -5.01679 0
M  V30 5102 H 470.639 0.980717 -5.17387 0
M  V30 5103 H 473.13 0.303238 -3.76681 0
M  V30 5104 H 473.443 -0.00518321 -7.728 0
M  V30 5105 H 471.788 0.0022886 -6.95 0
M  V30 5106 H 474.979 0.291575 -4.67191 0
M  V30 5107 H 475.152 0.15116 -6.47824 0
M  V30 5108 N 468.558 1.5553 0.254621 0
M  V30 5109 C 469.506 1.9048 1.33492 0
M  V30 5110 C 470.5 0.78304 1.50216 0
M  V30 5111 O 471.706 0.967582 1.51782 0
M  V30 5112 H 468.081 0.604846 0.44684 0
M  V30 5113 H 470.052 2.80688 1.01275 0
M  V30 5114 C 468.801 2.20928 2.68489 0
M  V30 5115 H 468.124 3.06742 2.56417 0
M  V30 5116 H 469.564 2.49291 3.42972 0
M  V30 5117 C 468.023 1.023 3.20993 0
M  V30 5118 O 468.553 0.267027 4.00811 0
M  V30 5119 N 466.759 0.815714 2.78917 0
M  V30 5120 H 466.306 1.43217 2.14119 0
M  V30 5121 H 466.264 0.0236532 3.14391 0
M  V30 5122 N 470.036 -0.519951 1.48776 0
M  V30 5123 C 471.284 -1.2727 1.56993 0
M  V30 5124 C 471.605 -1.9339 0.25004 0
M  V30 5125 O 470.875 -1.81822 -0.729216 0
M  V30 5126 H 469.455 -0.472732 0.578389 0
M  V30 5127 H 472.117 -0.604234 1.85297 0
M  V30 5128 H 471.213 -2.04669 2.3562 0
M  V30 5129 N 471.514 -1.37532 -0.769588 0
M  V30 5130 C 472.925 -1.29382 -1.346 0
M  V30 5131 C 473.276 0.0576039 -1.96115 0
M  V30 5132 O 472.401 0.95947 -1.93967 0
M  V30 5133 C 472.996 -2.34298 -2.44724 0
M  V30 5134 C 471.555 -2.29776 -2.98128 0
M  V30 5135 C 470.702 -2.18013 -1.71364 0
M  V30 5136 H 473.653 -1.48123 -0.56968 0
M  V30 5137 H 473.674 -1.99089 -3.24259 0
M  V30 5138 H 473.186 -3.32645 -1.99922 0
M  V30 5139 H 471.287 -1.34959 -3.47299 0
M  V30 5140 H 471.4 -3.23276 -3.53595 0
M  V30 5141 H 469.764 -1.64595 -1.94372 0
M  V30 5142 H 470.547 -3.18278 -1.28662 0
M  V30 5143 N 472.992 0.995999 -1.22138 0
M  V30 5144 C 473.922 2.10387 -1.01289 0
M  V30 5145 C 474.903 1.69975 0.0651454 0
M  V30 5146 O 476.088 1.9396 -0.0964628 0
M  V30 5147 C 473.218 3.42312 -0.586517 0
M  V30 5148 C 472.172 3.96558 -1.61014 0
M  V30 5149 C 471.498 5.24494 -1.0397 0
M  V30 5150 C 472.798 4.27595 -2.99933 0
M  V30 5151 H 474.492 2.28086 -1.93951 0
M  V30 5152 H 472.038 1.09607 -0.933928 0
M  V30 5153 H 473.991 4.19223 -0.427793 0
M  V30 5154 H 472.715 3.24431 0.375761 0
M  V30 5155 H 471.374 3.21776 -1.75658 0
M  V30 5156 H 471.022 5.02953 -0.0688703 0
M  V30 5157 H 470.722 5.61755 -1.72352 0
M  V30 5158 H 472.246 6.04042 -0.892494 0
M  V30 5159 H 473.66 4.95315 -2.8868 0
M  V30 5160 H 472.057 4.76021 -3.6541 0
M  V30 5161 H 473.127 3.35498 -3.50099 0
M  V30 5162 N 474.47 1.03057 1.19235 0
M  V30 5163 C 475.418 0.606391 2.24557 0
M  V30 5164 C 476.412 -0.361826 1.65491 0
M  V30 5165 O 477.618 -0.23022 1.78522 0
M  V30 5166 H 473.993 0.177838 0.730669 0
M  V30 5167 H 475.964 1.50529 2.5765 0
M  V30 5168 C 474.713 -0.0252127 3.47691 0
M  V30 5169 H 474.036 0.710838 3.9343 0
M  V30 5170 H 475.476 -0.284931 4.23042 0
M  V30 5171 C 473.935 -1.27229 3.11953 0
M  V30 5172 O 474.465 -2.36416 3.24762 0
M  V30 5173 N 472.671 -1.16169 2.6637 0
M  V30 5174 H 472.218 -0.273189 2.56147 0
M  V30 5175 H 472.176 -1.99703 2.42829 0
M  V30 5176 N 475.948 -1.35272 0.808662 0
M  V30 5177 C 476.858 -2.33546 0.222079 0
M  V30 5178 C 477.874 -1.6196 -0.636011 0
M  V30 5179 O 479.05 -1.93822 -0.547274 0
M  V30 5180 C 476.115 -3.41148 -0.61795 0
M  V30 5181 C 475.176 -4.28507 0.260875 0
M  V30 5182 C 474.409 -5.3097 -0.539156 0
M  V30 5183 O 474.632 -5.42123 -1.77367 0
M  V30 5184 O 473.566 -6.01858 0.0710526 0
M  V30 5185 H 477.392 -2.85515 1.03512 0
M  V30 5186 H 474.977 -1.38079 0.570495 0
M  V30 5187 H 476.859 -4.06889 -1.09634 0
M  V30 5188 H 475.534 -2.91447 -1.40855 0
M  V30 5189 H 474.441 -3.6574 0.786451 0
M  V30 5190 H 475.774 -4.81611 1.01547 0
M  V30 5191 N 477.426 -0.562348 -1.47226 0
M  V30 5192 C 478.651 -0.0432632 -2.07355 0
M  V30 5193 C 479.076 1.24332 -1.41149 0
M  V30 5194 O 478.434 1.74603 -0.488226 0
M  V30 5195 C 478.482 0.130288 -3.60365 0
M  V30 5196 O 477.586 1.19166 -3.94808 0
M  V30 5197 H 476.927 -0.0536334 -0.66183 0
M  V30 5198 H 479.457 -0.779495 -1.89169 0
M  V30 5199 H 479.467 0.342881 -4.06557 0
M  V30 5200 H 478.142 -0.809389 -4.07948 0
M  V30 5201 H 476.719 0.959153 -3.60354 0
M  V30 5202 N 478.904 1.54736 -0.299062 0
M  V30 5203 C 479.836 2.20891 0.61153 0
M  V30 5204 C 480.849 1.20104 1.09904 0
M  V30 5205 O 482.038 1.46707 1.01683 0
M  V30 5206 C 479.138 2.84018 1.84897 0
M  V30 5207 C 478.311 4.10719 1.50428 0
M  V30 5208 C 477.37 4.57667 2.59667 0
M  V30 5209 O 476.396 5.2291 2.24842 0
M  V30 5210 N 477.598 4.29821 3.90172 0
M  V30 5211 H 480.363 2.99666 0.0452001 0
M  V30 5212 H 477.924 1.61446 -0.121178 0
M  V30 5213 H 479.916 3.1236 2.5732 0
M  V30 5214 H 478.486 2.09095 2.32375 0
M  V30 5215 H 477.706 3.89408 0.612781 0
M  V30 5216 H 478.994 4.93223 1.24934 0
M  V30 5217 H 478.392 3.77549 4.21276 0
M  V30 5218 H 476.949 4.62877 4.58899 0
M  V30 5219 N 480.382 0.0267497 1.57577 0
M  V30 5220 C 481.292 -0.971633 2.13533 0
M  V30 5221 C 482.308 -1.35868 1.08701 0
M  V30 5222 O 483.484 -1.44058 1.40746 0
M  V30 5223 C 480.549 -2.23622 2.64941 0
M  V30 5224 C 479.61 -1.90982 3.8448 0
M  V30 5225 C 478.843 -3.11411 4.33427 0
M  V30 5226 O 479.066 -4.23992 3.81558 0
M  V30 5227 O 478 -2.93848 5.25297 0
M  V30 5228 H 481.826 -0.525853 2.99113 0
M  V30 5229 H 479.411 -0.193712 1.48139 0
M  V30 5230 H 481.293 -2.97864 2.98086 0
M  V30 5231 H 479.968 -2.67386 1.82446 0
M  V30 5232 H 478.875 -1.14132 3.56265 0
M  V30 5233 H 480.208 -1.52036 4.6813 0
M  V30 5234 N 481.861 -1.55662 -0.24637 0
M  V30 5235 C 483.138 -1.68272 -0.997198 0
M  V30 5236 C 483.518 -0.566785 -2.03349 0
M  V30 5237 O 482.866 0.429688 -2.24424 0
M  V30 5238 C 483.076 -3.08594 -1.63006 0
M  V30 5239 C 484.424 -3.6721 -2.13171 0
M  V30 5240 O 485.448 -3.11397 -1.72946 0
M  V30 5241 O 484.307 -4.65054 -2.87031 0
M  V30 5242 H 481.401 -0.684429 -0.464205 0
M  V30 5243 H 483.947 -1.67993 -0.240114 0
M  V30 5244 H 482.719 -3.81264 -0.880527 0
M  V30 5245 H 482.342 -3.12886 -2.45333 0
M  V30 5246 N 483.339 0.512053 -1.4905 0
M  V30 5247 C 484.249 1.64139 -1.67617 0
M  V30 5248 C 485.265 1.64786 -0.558701 0
M  V30 5249 O 486.441 1.8341 -0.832034 0
M  V30 5250 C 483.506 3.00548 -1.72835 0
M  V30 5251 C 482.567 3.10615 -2.96339 0
M  V30 5252 C 481.8 4.40517 -3.01298 0
M  V30 5253 O 482.023 5.28671 -2.14157 0
M  V30 5254 O 480.957 4.55325 -3.93653 0
M  V30 5255 H 484.783 1.51407 -2.63267 0
M  V30 5256 H 482.368 0.687131 -1.32661 0
M  V30 5257 H 484.25 3.81641 -1.78683 0
M  V30 5258 H 482.925 3.13566 -0.803616 0
M  V30 5259 H 481.832 2.2875 -2.96014 0
M  V30 5260 H 483.165 3.0252 -3.88256 0
M  V30 5261 N 484.817 1.37938 0.762283 0
M  V30 5262 C 485.727 1.36681 1.90671 0
M  V30 5263 C 486.743 0.265078 1.71969 0
M  V30 5264 O 487.919 0.502055 1.95042 0
M  V30 5265 C 484.984 1.18211 3.25925 0
M  V30 5266 C 484.045 2.3811 3.57214 0
M  V30 5267 C 483.278 2.20512 4.86014 0
M  V30 5268 O 483.501 1.19429 5.57757 0
M  V30 5269 O 482.435 3.08911 5.16583 0
M  V30 5270 H 486.261 2.33091 1.94685 0
M  V30 5271 H 483.846 1.18767 0.906356 0
M  V30 5272 H 485.728 1.09937 4.06807 0
M  V30 5273 H 484.403 0.248807 3.22742 0
M  V30 5274 H 483.31 2.51958 2.76529 0
M  V30 5275 H 484.643 3.30041 3.65149 0
M  V30 5276 N 486.295 -0.989507 1.22664 0
M  V30 5277 C 487.572 -1.70326 0.961688 0
M  V30 5278 C 487.952 -2.04537 -0.522279 0
M  V30 5279 O 487.3 -1.73136 -1.49118 0
M  V30 5280 C 487.51 -2.95135 1.86269 0
M  V30 5281 C 488.858 -3.67842 2.12078 0
M  V30 5282 O 489.882 -3.0515 1.83745 0
M  V30 5283 O 488.741 -4.80644 2.60083 0
M  V30 5284 H 485.835 -0.743589 0.361946 0
M  V30 5285 H 488.381 -1.04555 1.33665 0
M  V30 5286 H 487.153 -2.66382 2.8663 0
M  V30 5287 H 486.776 -3.68645 1.48952 0
M  V30 5288 N 487.773 -1.03688 -1.18687 0
M  V30 5289 C 488.998 -0.757819 -1.93059 0
M  V30 5290 C 489.423 0.678353 -1.75442 0
M  V30 5291 O 488.781 1.46938 -1.06203 0
M  V30 5292 C 488.829 -1.12423 -3.42627 0
M  V30 5293 O 487.933 -0.247505 -4.11657 0
M  V30 5294 H 487.274 -0.279245 -0.602427 0
M  V30 5295 H 489.804 -1.3857 -1.5053 0
M  V30 5296 H 489.814 -1.08454 -3.93322 0
M  V30 5297 H 488.489 -2.17049 -3.54771 0
M  V30 5298 H 487.066 -0.34649 -3.71287 0
M  V30 5299 N 489.251 1.34841 -0.815825 0
M  V30 5300 C 490.161 2.33425 -0.234462 0
M  V30 5301 C 491.177 1.62295 0.627413 0
M  V30 5302 O 492.353 1.94109 0.536987 0
M  V30 5303 C 489.418 3.41471 0.599849 0
M  V30 5304 C 488.479 4.28362 -0.283596 0
M  V30 5305 C 487.712 5.31248 0.51099 0
M  V30 5306 O 487.935 5.43056 1.7449 0
M  V30 5307 O 486.869 6.01812 -0.10297 0
M  V30 5308 H 490.695 2.84962 -1.05024 0
M  V30 5309 H 488.28 1.37774 -0.577809 0
M  V30 5310 H 490.162 4.07464 1.07475 0
M  V30 5311 H 488.837 2.9219 1.39308 0
M  V30 5312 H 487.744 3.65318 -0.805836 0
M  V30 5313 H 489.077 4.81066 -1.041 0
M  V30 5314 N 490.729 0.570148 1.46925 0
M  V30 5315 C 491.679 -0.190921 2.27199 0
M  V30 5316 C 492.663 -0.873457 1.35128 0
M  V30 5317 O 493.855 -0.769627 1.59392 0
M  V30 5318 C 490.984 -1.21204 3.21192 0
M  V30 5319 C 490.07 -0.532261 4.20747 0
M  V30 5320 N 490.461 0.405038 5.04176 0
M  V30 5321 C 488.759 -0.784582 4.39045 0
M  V30 5322 C 489.46 0.801149 5.76157 0
M  V30 5323 N 488.436 0.153082 5.43384 0
M  V30 5324 H 492.238 0.529535 2.8909 0
M  V30 5325 H 489.752 0.391019 1.57622 0
M  V30 5326 H 491.749 -1.77135 3.77398 0
M  V30 5327 H 490.409 -1.93345 2.6086 0
M  V30 5328 H 491.42 0.779903 5.11994 0
M  V30 5329 H 488.097 -1.49352 3.89872 0
M  V30 5330 H 489.487 1.57208 6.5325 0
M  V30 5331 N 492.207 -1.54576 0.307264 0
M  V30 5332 C 493.455 -1.99867 -0.299574 0
M  V30 5333 C 493.776 -1.19714 -1.53927 0
M  V30 5334 O 493.046 -0.29472 -1.9367 0
M  V30 5335 H 491.626 -0.738299 -0.113683 0
M  V30 5336 H 494.288 -1.9032 0.420042 0
M  V30 5337 H 493.384 -3.06901 -0.567283 0
M  V30 5338 N 493.685 -0.035106 -1.57561 0
M  V30 5339 C 494.913 0.652258 -1.9635 0
M  V30 5340 C 495.328 1.65317 -0.911897 0
M  V30 5341 O 494.685 1.82194 0.105657 0
M  V30 5342 C 494.736 1.35337 -3.35211 0
M  V30 5343 O 494.457 0.392548 -4.36338 0
M  V30 5344 C 495.958 2.13199 -3.88666 0
M  V30 5345 H 493.178 0.179444 -0.646561 0
M  V30 5346 H 495.722 -0.0966459 -2.04271 0
M  V30 5347 H 493.877 2.05362 -3.28489 0
M  V30 5348 H 494.291 0.891097 -5.16875 0
M  V30 5349 H 495.765 2.577 -4.88154 0
M  V30 5350 H 496.242 2.97353 -3.23231 0
M  V30 5351 H 496.848 1.48118 -3.98674 0
M  V30 5352 N 495.163 1.55791 0.238111 0
M  V30 5353 C 496.388 1.8244 0.986432 0
M  V30 5354 C 496.813 0.613314 1.7782 0
M  V30 5355 O 496.171 -0.437767 1.75935 0
M  V30 5356 C 496.219 3.06917 1.893 0
M  V30 5357 O 495.323 2.84449 2.98601 0
M  V30 5358 H 494.664 0.601975 0.280218 0
M  V30 5359 H 497.194 2.02987 0.256437 0
M  V30 5360 H 497.204 3.36583 2.30598 0
M  V30 5361 H 495.879 3.947 1.31091 0
M  V30 5362 H 494.456 2.65972 2.61368 0
M  V30 5363 N 496.642 -0.504142 1.49319 0
M  V30 5364 C 497.572 -1.61473 1.68667 0
M  V30 5365 C 498.553 -1.61455 0.535378 0
M  V30 5366 O 499.738 -1.78245 0.770868 0
M  V30 5367 C 496.868 -2.99971 1.75028 0
M  V30 5368 C 495.822 -3.14854 2.89916 0
M  V30 5369 C 495.148 -4.54671 2.81387 0
M  V30 5370 C 496.448 -2.95176 4.30893 0
M  V30 5371 H 498.142 -1.45535 2.61648 0
M  V30 5372 H 495.688 -0.698711 1.25913 0
M  V30 5373 H 497.641 -3.77562 1.8715 0
M  V30 5374 H 496.365 -3.1699 0.786441 0
M  V30 5375 H 495.024 -2.39687 2.77391 0
M  V30 5376 H 494.672 -4.68562 1.82917 0
M  V30 5377 H 494.372 -4.6557 3.58494 0
M  V30 5378 H 495.896 -5.34327 2.95512 0
M  V30 5379 H 497.31 -3.62538 4.44116 0
M  V30 5380 H 495.707 -3.17549 5.09198 0
M  V30 5381 H 496.777 -1.91332 4.45556 0
M  V30 5382 N 498.12 -1.38341 -0.754957 0
M  V30 5383 C 499.068 -1.35573 -1.89005 0
M  V30 5384 C 500.062 -0.241824 -1.67665 0
M  V30 5385 O 501.268 -0.410785 -1.7525 0
M  V30 5386 H 497.643 -0.422898 -0.621821 0
M  V30 5387 H 499.614 -2.31359 -1.88455 0
M  V30 5388 C 498.363 -1.19631 -3.26471 0
M  V30 5389 H 497.686 -2.04605 -3.43477 0
M  V30 5390 H 499.126 -1.21748 -4.06144 0
M  V30 5391 C 497.585 0.0968705 -3.36761 0
M  V30 5392 O 498.115 1.07439 -3.87066 0
M  V30 5393 N 496.321 0.153242 -2.90196 0
M  V30 5394 H 495.868 -0.642908 -2.49448 0
M  V30 5395 H 495.826 1.01807 -2.9746 0
M  V30 5396 N 499.598 0.982988 -1.23187 0
M  V30 5397 C 501.014 1.2487 -0.993967 0
M  V30 5398 C 501.214 1.99155 0.306498 0
M  V30 5399 O 500.27 2.30688 1.0266 0
M  V30 5400 C 501.583 2.05078 -2.19917 0
M  V30 5401 C 503.131 2.18227 -2.2438 0
M  V30 5402 C 503.606 3.01825 -3.44479 0
M  V30 5403 N 505.097 3.09411 -3.44702 0
M  V30 5404 C 505.832 3.74412 -4.34285 0
M  V30 5405 N 505.328 4.41259 -5.341 0
M  V30 5406 N 507.121 3.71273 -4.22035 0
M  V30 5407 H 499.272 0.485253 -2.06783 0
M  V30 5408 H 501.535 0.276979 -0.906635 0
M  V30 5409 H 501.241 1.57867 -3.14279 0
M  V30 5410 H 501.115 3.05829 -2.2079 0
M  V30 5411 H 503.502 2.64648 -1.30559 0
M  V30 5412 H 503.583 1.16873 -2.2754 0
M  V30 5413 H 503.227 2.56102 -4.38605 0
M  V30 5414 H 503.157 4.03342 -3.38559 0
M  V30 5415 H 505.648 2.61845 -2.7248 0
M  V30 5416 H 505.961 4.88629 -5.98717 0
M  V30 5417 H 504.306 4.39975 -5.38002 0
M  V30 5418 H 507.497 3.18217 -3.43301 0
M  V30 5419 H 507.67 4.21649 -4.92053 0
M  V30 5420 N 501.076 1.04316 1.18135 0
M  V30 5421 C 501.986 0.646876 2.25505 0
M  V30 5422 C 503.002 -0.328008 1.7088 0
M  V30 5423 O 504.178 -0.182309 2.00573 0
M  V30 5424 C 501.243 0.0185664 3.46695 0
M  V30 5425 C 500.304 1.04277 4.16443 0
M  V30 5426 C 499.537 0.444352 5.31847 0
M  V30 5427 O 499.76 -0.748735 5.65465 0
M  V30 5428 O 498.694 1.17428 5.90334 0
M  V30 5429 H 502.52 1.54147 2.61672 0
M  V30 5430 H 500.105 0.814188 1.25265 0
M  V30 5431 H 501.987 -0.331068 4.20097 0
M  V30 5432 H 500.662 -0.849814 3.12346 0
M  V30 5433 H 499.569 1.44425 3.45098 0
M  V30 5434 H 500.902 1.882 4.54798 0
M  V30 5435 N 502.554 -1.34406 0.822964 0
M  V30 5436 C 503.487 -2.27407 0.190124 0
M  V30 5437 C 504.465 -1.4889 -0.653486 0
M  V30 5438 O 505.649 -1.78109 -0.617216 0
M  V30 5439 C 502.776 -3.3064 -0.734477 0
M  V30 5440 C 501.822 -4.26488 0.0316099 0
M  V30 5441 S 502.655 -5.17445 1.3788 0
M  V30 5442 C 503.811 -6.24214 0.45907 0
M  V30 5443 H 504.044 -2.80733 0.978586 0
M  V30 5444 H 501.577 -1.41455 0.618866 0
M  V30 5445 H 503.535 -3.90607 -1.26238 0
M  V30 5446 H 502.196 -2.76161 -1.49646 0
M  V30 5447 H 501.389 -4.9951 -0.671285 0
M  V30 5448 H 500.991 -3.70775 0.490066 0
M  V30 5449 H 503.283 -6.76599 -0.349357 0
M  V30 5450 H 504.226 -6.98551 1.15896 0
M  V30 5451 H 504.634 -5.6448 0.0474825 0
M  V30 5452 N 504.032 -0.577932 -1.46621 0
M  V30 5453 C 505.309 0.00495287 -1.95599 0
M  V30 5454 C 505.689 1.46428 -1.5206 0
M  V30 5455 O 505.037 2.1517 -0.769046 0
M  V30 5456 C 505.247 -0.162114 -3.48623 0
M  V30 5457 C 506.595 -0.0274623 -4.24591 0
M  V30 5458 O 507.619 -0.0907067 -3.56084 0
M  V30 5459 O 506.478 0.1122 -5.46385 0
M  V30 5460 H 503.572 0.0525057 -0.825332 0
M  V30 5461 H 506.118 -0.645914 -1.56927 0
M  V30 5462 H 504.89 -1.17679 -3.73185 0
M  V30 5463 H 504.513 0.525407 -3.94113 0
M  V30 5464 N 505.51 1.54411 -0.315457 0
M  V30 5465 C 506.735 2.05299 0.294496 0
M  V30 5466 C 507.16 1.19052 1.4563 0
M  V30 5467 O 506.518 0.197804 1.80218 0
M  V30 5468 C 506.566 3.5345 0.714549 0
M  V30 5469 O 505.67 3.70175 1.81781 0
M  V30 5470 H 505.011 0.661743 0.0547019 0
M  V30 5471 H 507.541 1.99327 -0.461508 0
M  V30 5472 H 507.551 3.9557 0.999426 0
M  V30 5473 H 506.226 4.1568 -0.135244 0
M  V30 5474 H 504.803 3.3996 1.53236 0
M  V30 5475 N 506.988 0.0434614 1.5754 0
M  V30 5476 C 507.918 -0.931651 2.14109 0
M  V30 5477 C 508.899 -1.32971 1.06079 0
M  V30 5478 O 510.084 -1.40579 1.33982 0
M  V30 5479 C 507.214 -2.20914 2.67982 0
M  V30 5480 C 506.168 -1.95139 3.80926 0
M  V30 5481 C 505.494 -3.29276 4.21285 0
M  V30 5482 C 506.794 -1.27913 5.06395 0
M  V30 5483 H 508.488 -0.460497 2.95837 0
M  V30 5484 H 506.034 -0.220058 1.42309 0
M  V30 5485 H 507.987 -2.89522 3.06194 0
M  V30 5486 H 506.711 -2.70221 1.83434 0
M  V30 5487 H 505.37 -1.28945 3.43175 0
M  V30 5488 H 505.018 -3.76369 3.33699 0
M  V30 5489 H 504.718 -3.12831 4.97404 0
M  V30 5490 H 506.242 -3.99129 4.62091 0
M  V30 5491 H 507.656 -1.86544 5.42102 0
M  V30 5492 H 506.053 -1.2182 5.87605 0
M  V30 5493 H 507.123 -0.254066 4.84234 0
M  V30 5494 N 508.466 -1.55915 -0.229846 0
M  V30 5495 C 509.714 -1.7819 -0.953565 0
M  V30 5496 C 510.035 -0.610504 -1.85197 0
M  V30 5497 O 509.305 0.372988 -1.92316 0
M  V30 5498 H 507.885 -0.657208 -0.355087 0
M  V30 5499 H 510.547 -1.9337 -0.243693 0
M  V30 5500 H 509.643 -2.70011 -1.56527 0
M  V30 5501 N 509.944 0.496216 -1.49584 0
M  V30 5502 C 511.169 1.27865 -1.63295 0
M  V30 5503 C 511.594 1.85592 -0.306156 0
M  V30 5504 O 510.952 1.66092 0.726851 0
M  V30 5505 C 511 2.38128 -2.7079 0
M  V30 5506 O 510.104 3.42108 -2.30296 0
M  V30 5507 H 509.445 0.377279 -0.546403 0
M  V30 5508 H 511.975 0.593497 -1.95803 0
M  V30 5509 H 511.985 2.8382 -2.93104 0
M  V30 5510 H 510.66 1.95479 -3.67098 0
M  V30 5511 H 509.237 3.02301 -2.18331 0
M  V30 5512 N 511.423 1.38739 0.74761 0
M  V30 5513 C 512.371 1.36573 1.88283 0
M  V30 5514 C 513.365 0.250712 1.67534 0
M  V30 5515 O 514.571 0.420073 1.7503 0
M  V30 5516 H 510.946 0.42619 0.619569 0
M  V30 5517 H 512.917 2.32356 1.87226 0
M  V30 5518 C 511.666 1.21361 3.25832 0
M  V30 5519 H 510.989 2.06424 3.42388 0
M  V30 5520 H 512.429 1.23901 4.05493 0
M  V30 5521 C 510.888 -0.0790099 3.36807 0
M  V30 5522 O 511.418 -1.05385 3.8763 0
M  V30 5523 N 509.624 -0.13785 2.90273 0
M  V30 5524 H 509.171 0.656128 2.49104 0
M  V30 5525 H 509.129 -1.00228 2.97996 0
M  V30 5526 N 512.901 -0.976442 1.23707 0
M  V30 5527 C 513.851 -2.0544 0.988851 0
M  V30 5528 C 514.835 -1.60762 -0.0665901 0
M  V30 5529 O 516.027 -1.76396 0.14604 0
M  V30 5530 C 513.156 -3.38258 0.586223 0
M  V30 5531 C 512.242 -3.89523 1.67728 0
M  V30 5532 N 512.633 -4.13823 2.90834 0
M  V30 5533 C 510.931 -4.18097 1.55277 0
M  V30 5534 C 511.632 -4.55731 3.61502 0
M  V30 5535 N 510.608 -4.60394 2.8903 0
M  V30 5536 H 514.41 -2.22191 1.92376 0
M  V30 5537 H 511.924 -1.15954 1.13704 0
M  V30 5538 H 513.921 -4.15075 0.389658 0
M  V30 5539 H 512.581 -3.22898 -0.341594 0
M  V30 5540 H 513.592 -4.01529 3.271 0
M  V30 5541 H 510.269 -4.11719 0.692351 0
M  V30 5542 H 511.659 -4.83018 4.67059 0
M  V30 5543 N 514.379 -1.04941 -1.1758 0
M  V30 5544 C 515.604 -0.778253 -1.92245 0
M  V30 5545 C 516.029 0.659707 -1.76152 0
M  V30 5546 O 515.387 1.45803 -1.07755 0
M  V30 5547 C 515.435 -1.16051 -3.41416 0
M  V30 5548 O 514.539 -0.291153 -4.11371 0
M  V30 5549 H 513.88 -0.285619 -0.599431 0
M  V30 5550 H 516.41 -1.40159 -1.49052 0
M  V30 5551 H 516.42 -1.12619 -3.92149 0
M  V30 5552 H 515.095 -2.208 -3.52449 0
M  V30 5553 H 513.672 -0.385851 -3.70898 0
M  V30 5554 N 515.857 1.33968 -0.830081 0
M  V30 5555 C 517.106 1.97323 -0.417928 0
M  V30 5556 C 517.419 1.6652 1.02618 0
M  V30 5557 O 518.625 2.2342 1.54259 0
M  V30 5558 C 517.081 3.53099 -0.696359 0
M  V30 5559 C 516.689 3.92788 -2.15457 0
M  V30 5560 C 518.433 4.23049 -0.350724 0
M  V30 5561 C 516.34 5.41506 -2.37751 0
M  V30 5562 H 515.27 0.738409 -0.152541 0
M  V30 5563 H 517.921 1.52711 -1.01744 0
M  V30 5564 H 516.303 3.95991 -0.0265904 0
M  V30 5565 H 517.477 3.6098 -2.86408 0
M  V30 5566 H 515.792 3.35795 -2.46232 0
M  V30 5567 H 518.389 5.32403 -0.495036 0
M  V30 5568 H 518.732 4.10279 0.705476 0
M  V30 5569 H 519.265 3.85657 -0.975362 0
M  V30 5570 H 516.004 5.5927 -3.41903 0
M  V30 5571 H 515.524 5.74804 -1.7135 0
M  V30 5572 H 517.203 6.0828 -2.20465 0
M  V30 5573 N 517.335 0.585699 1.46312 0
M  V30 5574 C 518.746 0.159938 1.86014 0
M  V30 5575 C 519.097 -1.27775 1.48889 0
M  V30 5576 O 518.222 -1.96559 0.90519 0
M  V30 5577 C 518.817 0.283485 3.37612 0
M  V30 5578 C 517.376 -0.0874256 3.76298 0
M  V30 5579 C 516.523 0.618055 2.70325 0
M  V30 5580 H 519.474 0.793737 1.37425 0
M  V30 5581 H 519.495 -0.490348 3.77327 0
M  V30 5582 H 519.007 1.32995 3.64601 0
M  V30 5583 H 517.108 -1.13391 3.54927 0
M  V30 5584 H 517.221 0.290975 4.78216 0
M  V30 5585 H 515.585 0.057993 2.54634 0
M  V30 5586 H 516.368 1.66623 3.00153 0
M  V30 5587 N 518.813 -1.54241 0.323641 0
M  V30 5588 C 520.038 -2.05452 -0.283605 0
M  V30 5589 C 520.463 -1.19823 -1.44997 0
M  V30 5590 O 519.821 -0.207358 -1.8011 0
M  V30 5591 C 519.869 -3.53823 -0.695795 0
M  V30 5592 O 518.973 -3.71134 -1.79815 0
M  V30 5593 H 518.314 -0.662024 -0.0511917 0
M  V30 5594 H 520.844 -1.99079 0.472073 0
M  V30 5595 H 520.854 -3.96094 -0.978434 0
M  V30 5596 H 519.529 -4.15602 0.157287 0
M  V30 5597 H 518.106 -3.40768 -1.51431 0
M  V30 5598 N 520.291 -0.0518155 -1.57515 0
M  V30 5599 C 521.224 0.957758 -2.07129 0
M  V30 5600 C 522.202 1.30355 -0.971927 0
M  V30 5601 O 523.386 1.41631 -1.2439 0
M  V30 5602 C 520.513 2.27157 -2.51232 0
M  V30 5603 C 519.559 2.07879 -3.72409 0
M  V30 5604 S 520.392 1.35656 -5.18033 0
M  V30 5605 C 521.548 2.68359 -5.65451 0
M  V30 5606 H 521.781 0.53552 -2.92437 0
M  V30 5607 H 519.314 0.160465 -1.53564 0
M  V30 5608 H 521.272 3.02676 -2.77304 0
M  V30 5609 H 519.933 2.66509 -1.66228 0
M  V30 5610 H 519.126 3.05061 -4.01191 0
M  V30 5611 H 518.728 1.40499 -3.46606 0
M  V30 5612 H 521.02 3.64526 -5.71076 0
M  V30 5613 H 521.963 2.44213 -6.64654 0
M  V30 5614 H 522.371 2.74647 -4.93183 0
M  V30 5615 N 521.769 1.56035 0.221574 0
M  V30 5616 C 522.994 1.83476 0.967026 0
M  V30 5617 C 523.419 0.632139 1.7716 0
M  V30 5618 O 522.777 -0.419082 1.7639 0
M  V30 5619 C 522.825 3.08907 1.86034 0
M  V30 5620 O 521.929 2.876 2.95567 0
M  V30 5621 H 521.27 0.604913 0.273817 0
M  V30 5622 H 523.8 2.03247 0.234893 0
M  V30 5623 H 523.81 3.3901 2.27016 0
M  V30 5624 H 522.485 3.96068 1.26898 0
M  V30 5625 H 521.062 2.6873 2.58532 0
M  V30 5626 N 523.247 -0.488276 1.49845 0
M  V30 5627 C 524.493 -1.24341 1.6021 0
M  V30 5628 C 524.826 -1.91967 0.293651 0
M  V30 5629 O 524.101 -1.81323 -0.703718 0
M  V30 5630 C 524.384 -2.3005 2.77036 0
M  V30 5631 C 524.237 -1.66842 4.17713 0
M  V30 5632 C 525.556 -3.31509 2.89464 0
M  V30 5633 H 522.675 -0.450704 0.583125 0
M  V30 5634 H 525.317 -0.539673 1.82174 0
M  V30 5635 H 523.467 -2.90071 2.58439 0
M  V30 5636 H 525.139 -1.1055 4.47858 0
M  V30 5637 H 523.382 -0.972079 4.22768 0
M  V30 5638 H 524.053 -2.43576 4.95353 0
M  V30 5639 H 526.529 -2.81493 3.06433 0
M  V30 5640 H 525.405 -4.02822 3.72861 0
M  V30 5641 H 525.666 -3.94603 1.99351 0
M  V30 5642 N 524.725 -1.39134 -0.740242 0
M  V30 5643 C 525.95 -1.39518 -1.53459 0
M  V30 5644 C 526.375 0.00968883 -1.88098 0
M  V30 5645 O 525.733 0.995312 -1.51536 0
M  V30 5646 C 525.781 -2.26981 -2.802 0
M  V30 5647 O 524.885 -1.69609 -3.75908 0
M  V30 5648 H 524.226 -0.475328 -0.463637 0
M  V30 5649 H 526.756 -1.83064 -0.913717 0
M  V30 5650 H 526.766 -2.41309 -3.28989 0
M  V30 5651 H 525.441 -3.29081 -2.5432 0
M  V30 5652 H 524.018 -1.64495 -3.34658 0
M  V30 5653 N 526.204 0.969867 -1.24223 0
M  V30 5654 C 527.432 1.74756 -1.10761 0
M  V30 5655 C 527.847 1.85713 0.340041 0
M  V30 5656 O 527.204 1.34389 1.23474 0
M  V30 5657 C 527.255 3.16915 -1.73917 0
M  V30 5658 O 526.976 3.06511 -3.13021 0
M  V30 5659 C 528.477 4.11032 -1.66036 0
M  V30 5660 H 525.697 0.548092 -0.387087 0
M  V30 5661 H 528.241 1.2178 -1.64286 0
M  V30 5662 H 526.396 3.66884 -1.244 0
M  V30 5663 H 526.81 3.96079 -3.43834 0
M  V30 5664 H 528.284 5.08446 -2.14911 0
M  V30 5665 H 528.761 4.34785 -0.621159 0
M  V30 5666 H 529.367 3.66972 -2.14969 0
M  V30 5667 N 527.682 1.05563 1.17022 0
M  V30 5668 C 528.93 0.76642 1.87004 0
M  V30 5669 C 529.251 -0.708854 1.8166 0
M  V30 5670 O 528.521 -1.51242 1.2451 0
M  V30 5671 H 527.101 0.280516 0.692329 0
M  V30 5672 H 529.763 1.33557 1.41945 0
M  V30 5673 H 528.859 1.08472 2.92644 0
M  V30 5674 N 529.16 -1.33526 0.837174 0
M  V30 5675 C 530.385 -2.0258 0.444545 0
M  V30 5676 C 530.81 -1.6258 -0.946006 0
M  V30 5677 O 530.168 -0.817548 -1.6182 0
M  V30 5678 C 530.216 -3.5605 0.571006 0
M  V30 5679 O 529.32 -4.10422 -0.403431 0
M  V30 5680 H 528.661 -0.638866 0.180958 0
M  V30 5681 H 531.191 -1.70462 1.13154 0
M  V30 5682 H 531.201 -4.05488 0.452024 0
M  V30 5683 H 529.876 -3.84509 1.58512 0
M  V30 5684 H 528.453 -3.72113 -0.242147 0
M  V30 5685 N 530.638 -0.59345 -1.46 0
M  V30 5686 C 531.57 0.171569 -2.28557 0
M  V30 5687 C 532.583 0.845273 -1.39137 0
M  V30 5688 O 533.772 0.713033 -1.6364 0
M  V30 5689 C 530.872 1.26311 -3.14482 0
M  V30 5690 C 530.045 0.679258 -4.32094 0
M  V30 5691 C 529.104 1.65987 -4.99334 0
M  V30 5692 O 528.13 1.19171 -5.56585 0
M  V30 5693 N 529.332 2.99414 -4.97324 0
M  V30 5694 H 532.097 -0.536771 -2.94854 0
M  V30 5695 H 529.658 -0.431954 -1.56031 0
M  V30 5696 H 531.65 1.91863 -3.5633 0
M  V30 5697 H 530.22 1.87416 -2.50188 0
M  V30 5698 H 529.44 -0.153992 -3.93899 0
M  V30 5699 H 530.728 0.26916 -5.08088 0
M  V30 5700 H 530.126 3.40064 -4.52076 0
M  V30 5701 H 528.683 3.60426 -5.4308 0
M  V30 5702 N 532.116 1.54067 -0.331816 0
M  V30 5703 C 533.341 2.05599 0.272705 0
M  V30 5704 C 533.766 1.2059 1.44359 0
M  V30 5705 O 533.124 0.216907 1.79998 0
M  V30 5706 C 533.172 3.54188 0.677021 0
M  V30 5707 O 532.276 3.72082 1.77844 0
M  V30 5708 H 531.617 0.662286 0.0476801 0
M  V30 5709 H 534.147 1.98826 -0.482624 0
M  V30 5710 H 534.157 3.96608 0.957415 0
M  V30 5711 H 532.832 4.15513 -0.179325 0
M  V30 5712 H 531.409 3.41566 1.49622 0
M  V30 5713 N 533.594 0.0601682 1.57485 0
M  V30 5714 C 534.819 -0.624416 1.97777 0
M  V30 5715 C 535.244 -1.63051 0.937867 0
M  V30 5716 O 534.602 -1.81036 -0.0978845 0
M  V30 5717 C 534.65 -1.27979 3.37126 0
M  V30 5718 O 533.754 -2.39556 3.35688 0
M  V30 5719 H 533.095 -0.161581 0.64404 0
M  V30 5720 H 535.625 0.131237 2.04179 0
M  V30 5721 H 535.635 -1.62937 3.74053 0
M  V30 5722 H 534.31 -0.542501 4.12347 0
M  V30 5723 H 532.887 -2.06478 3.10517 0
M  V30 5724 N 535.072 -1.5615 -0.213296 0
M  V30 5725 C 536.297 -1.83986 -0.957282 0
M  V30 5726 C 536.722 -0.641526 -1.76822 0
M  V30 5727 O 536.08 0.409722 -1.7661 0
M  V30 5728 C 536.128 -3.09889 -1.84393 0
M  V30 5729 O 535.232 -2.89163 -2.94038 0
M  V30 5730 H 534.573 -0.606357 -0.270605 0
M  V30 5731 H 537.103 -2.03369 -0.224111 0
M  V30 5732 H 537.113 -3.40209 -2.25215 0
M  V30 5733 H 535.788 -3.96735 -1.24795 0
M  V30 5734 H 534.365 -2.70097 -2.57103 0
M  V30 5735 N 536.55 0.480323 -1.50102 0
M  V30 5736 C 537.796 1.23489 -1.60867 0
M  V30 5737 C 538.129 1.91809 -0.303827 0
M  V30 5738 O 537.404 1.81694 0.694092 0
M  V30 5739 C 537.687 2.28578 -2.78252 0
M  V30 5740 C 537.54 1.64624 -4.18592 0
M  V30 5741 C 538.859 3.2997 -2.91218 0
M  V30 5742 H 535.978 0.447605 -0.585507 0
M  V30 5743 H 538.62 0.530005 -1.82458 0
M  V30 5744 H 536.77 2.88697 -2.59974 0
M  V30 5745 H 538.442 1.08173 -4.48438 0
M  V30 5746 H 536.685 0.949645 -4.23278 0
M  V30 5747 H 537.356 2.40946 -4.96638 0
M  V30 5748 H 539.832 2.79864 -3.07921 0
M  V30 5749 H 538.708 4.00839 -3.74993 0
M  V30 5750 H 538.969 3.93541 -2.0144 0
M  V30 5751 N 538.028 1.39524 0.732853 0
M  V30 5752 C 538.976 1.38563 1.86824 0
M  V30 5753 C 539.97 0.268467 1.67259 0
M  V30 5754 O 541.176 0.438613 1.74574 0
M  V30 5755 H 537.551 0.432737 0.615014 0
M  V30 5756 H 539.522 2.34328 1.84751 0
M  V30 5757 C 538.271 1.2481 3.24527 0
M  V30 5758 H 537.594 2.10044 3.40179 0
M  V30 5759 H 539.034 1.28194 4.04156 0
M  V30 5760 C 537.493 -0.0432825 3.36872 0
M  V30 5761 O 538.023 -1.01268 3.88726 0
M  V30 5762 N 536.229 -0.107055 2.90403 0
M  V30 5763 H 535.776 0.682512 2.48394 0
M  V30 5764 H 535.734 -0.970618 2.99042 0
M  V30 5765 N 539.506 -0.963266 1.24736 0
M  V30 5766 C 540.731 -1.74699 1.11781 0
M  V30 5767 C 541.156 -1.85267 -0.325258 0
M  V30 5768 O 540.514 -1.32681 -1.23553 0
M  V30 5769 C 540.562 -3.14322 1.76731 0
M  V30 5770 O 539.666 -3.99043 1.04109 0
M  V30 5771 H 539.007 -0.53684 0.390767 0
M  V30 5772 H 541.537 -1.20801 1.65131 0
M  V30 5773 H 541.547 -3.64824 1.82668 0
M  V30 5774 H 540.222 -3.05946 2.81726 0
M  V30 5775 H 538.799 -3.5752 1.05991 0
M  V30 5776 N 540.985 -1.06182 -1.16461 0
M  V30 5777 C 541.918 -0.615859 -2.19733 0
M  V30 5778 C 542.896 0.360766 -1.58547 0
M  V30 5779 O 544.08 0.270009 -1.86556 0
M  V30 5780 C 541.207 0.097312 -3.3856 0
M  V30 5781 C 540.253 -0.835889 -4.18229 0
M  V30 5782 S 541.086 -2.33052 -4.82128 0
M  V30 5783 C 542.242 -1.62881 -6.04335 0
M  V30 5784 H 542.475 -1.49079 -2.57221 0
M  V30 5785 H 540.008 -0.874692 -1.27234 0
M  V30 5786 H 541.966 0.502563 -4.07412 0
M  V30 5787 H 540.627 0.948418 -2.99439 0
M  V30 5788 H 539.82 -0.283426 -5.03202 0
M  V30 5789 H 539.422 -1.18097 -3.54865 0
M  V30 5790 H 541.714 -0.933764 -6.71034 0
M  V30 5791 H 542.657 -2.45641 -6.64128 0
M  V30 5792 H 543.065 -1.11189 -5.53441 0
M  V30 5793 N 542.463 1.3308 -0.844243 0
M  V30 5794 C 543.395 2.27954 -0.238671 0
M  V30 5795 C 544.408 1.51978 0.583665 0
M  V30 5796 O 545.597 1.73731 0.409857 0
M  V30 5797 C 542.697 3.31963 0.682185 0
M  V30 5798 C 541.87 4.37281 -0.101998 0
M  V30 5799 C 540.929 5.20928 0.743022 0
M  V30 5800 O 539.955 5.68914 0.180285 0
M  V30 5801 N 541.157 5.42738 2.0595 0
M  V30 5802 H 543.922 2.8056 -1.05386 0
M  V30 5803 H 541.483 1.4583 -0.70322 0
M  V30 5804 H 543.475 3.84828 1.25259 0
M  V30 5805 H 542.045 2.79594 1.39808 0
M  V30 5806 H 541.265 3.84843 -0.853802 0
M  V30 5807 H 542.553 5.04746 -0.641015 0
M  V30 5808 H 541.951 5.05463 2.54016 0
M  V30 5809 H 540.508 5.98639 2.57827 0
M  V30 5810 N 543.941 0.601185 1.45683 0
M  V30 5811 C 544.851 -0.123395 2.34275 0
M  V30 5812 C 545.867 -0.86702 1.5086 0
M  V30 5813 O 547.043 -0.826049 1.8368 0
M  V30 5814 C 544.108 -1.11237 3.2837 0
M  V30 5815 C 543.169 -0.371405 4.2769 0
M  V30 5816 C 542.402 -1.31327 5.1729 0
M  V30 5817 O 542.625 -2.55078 5.10188 0
M  V30 5818 O 541.559 -0.813811 5.96373 0
M  V30 5819 H 545.385 0.604483 2.97623 0
M  V30 5820 H 542.97 0.361477 1.44961 0
M  V30 5821 H 544.852 -1.68214 3.8637 0
M  V30 5822 H 543.527 -1.82139 2.67595 0
M  V30 5823 H 542.434 0.24067 3.73325 0
M  V30 5824 H 543.767 0.296998 4.91303 0
M  V30 5825 N 545.419 -1.53889 0.339982 0
M  V30 5826 C 546.665 -2.01152 -0.258003 0
M  V30 5827 C 546.998 -1.22749 -1.50487 0
M  V30 5828 O 546.273 -0.314156 -1.91946 0
M  V30 5829 C 546.556 -3.55468 -0.575717 0
M  V30 5830 C 546.409 -4.44584 0.682996 0
M  V30 5831 C 547.728 -4.1768 -1.38677 0
M  V30 5832 H 544.847 -0.731198 -0.0922992 0
M  V30 5833 H 547.489 -1.84352 0.459814 0
M  V30 5834 H 545.639 -3.69914 -1.18725 0
M  V30 5835 H 547.311 -4.41981 1.32102 0
M  V30 5836 H 545.554 -4.13592 1.3086 0
M  V30 5837 H 546.225 -5.5043 0.416001 0
M  V30 5838 H 548.701 -4.0691 -0.869705 0
M  V30 5839 H 547.577 -5.25734 -1.57783 0
M  V30 5840 H 547.838 -3.72069 -2.38782 0
M  V30 5841 N 546.897 -0.0685191 -1.57451 0
M  V30 5842 C 547.83 0.935736 -2.08133 0
M  V30 5843 C 548.808 1.29317 -0.985698 0
M  V30 5844 O 549.992 1.40304 -1.25886 0
M  V30 5845 C 547.119 2.2448 -2.53627 0
M  V30 5846 C 546.165 2.03917 -3.74593 0
M  V30 5847 S 546.998 1.30154 -5.19442 0
M  V30 5848 C 548.154 2.62346 -5.68265 0
M  V30 5849 H 548.387 0.504473 -2.92989 0
M  V30 5850 H 545.92 0.144169 -1.53725 0
M  V30 5851 H 547.878 2.99718 -2.80499 0
M  V30 5852 H 546.539 2.64731 -1.69045 0
M  V30 5853 H 545.732 3.00788 -4.04404 0
M  V30 5854 H 545.334 1.36815 -3.48077 0
M  V30 5855 H 547.626 3.58448 -5.7491 0
M  V30 5856 H 548.569 2.3715 -6.67207 0
M  V30 5857 H 548.977 2.69401 -4.96068 0
M  V30 5858 N 548.375 1.56261 0.205012 0
M  V30 5859 C 549.652 1.70856 0.952233 0
M  V30 5860 C 550.032 0.620501 2.01775 0
M  V30 5861 O 549.38 -0.370035 2.25484 0
M  V30 5862 C 549.59 3.12807 1.54767 0
M  V30 5863 C 550.938 3.72733 2.0336 0
M  V30 5864 O 551.962 3.15873 1.64629 0
M  V30 5865 O 550.821 4.72501 2.746 0
M  V30 5866 H 547.915 0.696496 0.445895 0
M  V30 5867 H 550.461 1.6857 0.195489 0
M  V30 5868 H 549.233 3.83465 0.779132 0
M  V30 5869 H 548.856 3.1928 2.36951 0
M  V30 5870 N 549.853 -0.472356 1.50355 0
M  V30 5871 C 550.763 -1.59637 1.7191 0
M  V30 5872 C 551.779 -1.63247 0.602195 0
M  V30 5873 O 552.955 -1.81139 0.880369 0
M  V30 5874 C 550.02 -2.9586 1.80742 0
M  V30 5875 C 549.081 -3.02649 3.04471 0
M  V30 5876 C 548.314 -4.32374 3.12872 0
M  V30 5877 O 548.537 -5.22807 2.28099 0
M  V30 5878 O 547.471 -4.44728 4.05587 0
M  V30 5879 H 551.297 -1.44373 2.67189 0
M  V30 5880 H 548.882 -0.651717 1.34436 0
M  V30 5881 H 550.764 -3.7677 1.88739 0
M  V30 5882 H 549.439 -3.11325 0.88647 0
M  V30 5883 H 548.346 -2.20821 3.01975 0
M  V30 5884 H 549.679 -2.92119 3.9614 0
M  V30 5885 N 551.331 -1.39911 -0.725443 0
M  V30 5886 C 552.556 -1.41137 -1.5197 0
M  V30 5887 C 552.981 -0.010262 -1.88097 0
M  V30 5888 O 552.339 0.979184 -1.52583 0
M  V30 5889 C 552.387 -2.2994 -2.77777 0
M  V30 5890 O 551.491 -1.73586 -3.74088 0
M  V30 5891 H 550.832 -0.480219 -0.458569 0
M  V30 5892 H 553.362 -1.84023 -0.894249 0
M  V30 5893 H 553.372 -2.44785 -3.26411 0
M  V30 5894 H 552.047 -3.31759 -2.50816 0
M  V30 5895 H 550.624 -1.68035 -3.32894 0
M  V30 5896 N 552.809 0.956637 -1.25245 0
M  V30 5897 C 554.034 1.74104 -1.12706 0
M  V30 5898 C 554.459 1.85436 0.315429 0
M  V30 5899 O 553.817 1.33334 1.22848 0
M  V30 5900 C 553.865 3.1338 -1.78396 0
M  V30 5901 O 552.969 3.98485 -1.06224 0
M  V30 5902 H 552.31 0.53476 -0.393609 0
M  V30 5903 H 554.84 1.19924 -1.65769 0
M  V30 5904 H 554.85 3.6385 -1.846 0
M  V30 5905 H 553.525 3.04448 -2.83345 0
M  V30 5906 H 552.102 3.56952 -1.07886 0
M  V30 5907 N 554.287 1.06798 1.15896 0
M  V30 5908 C 555.512 0.808739 1.90982 0
M  V30 5909 C 555.937 -0.6316 1.77179 0
M  V30 5910 O 555.295 -1.4407 1.10061 0
M  V30 5911 C 555.343 1.21468 3.39526 0
M  V30 5912 O 554.447 0.356562 4.10856 0
M  V30 5913 H 553.788 0.29512 0.594811 0
M  V30 5914 H 556.318 1.42513 1.46804 0
M  V30 5915 H 556.328 1.18844 3.90308 0
M  V30 5916 H 555.003 2.26379 3.48891 0
M  V30 5917 H 553.58 0.444808 3.70238 0
M  V30 5918 N 555.766 -1.3263 0.851289 0
M  V30 5919 C 556.676 -2.32722 0.296268 0
M  V30 5920 C 557.692 -1.63901 -0.584162 0
M  V30 5921 O 558.868 -1.95465 -0.485334 0
M  V30 5922 C 555.933 -3.42942 -0.509103 0
M  V30 5923 C 554.994 -4.2746 0.397069 0
M  V30 5924 C 554.227 -5.32416 -0.36996 0
M  V30 5925 O 554.45 -5.47491 -1.6003 0
M  V30 5926 O 553.384 -6.01327 0.262493 0
M  V30 5927 H 557.21 -2.82078 1.12543 0
M  V30 5928 H 554.795 -1.36194 0.614135 0
M  V30 5929 H 556.677 -4.1017 -0.96634 0
M  V30 5930 H 555.352 -2.95781 -1.31512 0
M  V30 5931 H 554.259 -3.63053 0.902411 0
M  V30 5932 H 555.592 -4.78136 1.16818 0
M  V30 5933 N 557.244 -0.608902 -1.45362 0
M  V30 5934 C 558.174 0.0964526 -2.33301 0
M  V30 5935 C 559.155 0.857444 -1.46908 0
M  V30 5936 O 560.34 0.827735 -1.75676 0
M  V30 5937 C 557.47 1.09354 -3.29635 0
M  V30 5938 C 556.424 0.445676 -4.25673 0
M  V30 5939 C 555.75 1.5511 -5.11708 0
M  V30 5940 C 557.05 -0.633972 -5.18438 0
M  V30 5941 H 558.744 -0.637829 -2.92527 0
M  V30 5942 H 556.29 -0.308178 -1.40664 0
M  V30 5943 H 558.243 1.59556 -3.90025 0
M  V30 5944 H 556.967 1.85843 -2.6857 0
M  V30 5945 H 555.626 -0.0354897 -3.66583 0
M  V30 5946 H 555.274 2.30631 -4.4701 0
M  V30 5947 H 554.974 1.12311 -5.76767 0
M  V30 5948 H 556.498 2.05537 -5.74967 0
M  V30 5949 H 557.912 -0.215974 -5.72893 0
M  V30 5950 H 556.309 -0.983789 -5.91981 0
M  V30 5951 H 557.379 -1.51005 -4.60788 0
M  V30 5952 N 558.722 1.53707 -0.348139 0
M  V30 5953 C 559.968 2.01286 0.247332 0
M  V30 5954 C 560.301 1.23546 1.49834 0
M  V30 5955 O 559.576 0.324331 1.91777 0
M  V30 5956 C 559.859 3.55768 0.556858 0
M  V30 5957 C 559.712 4.44216 -0.706564 0
M  V30 5958 C 561.031 4.1841 1.3646 0
M  V30 5959 H 558.15 0.731677 0.0884201 0
M  V30 5960 H 560.792 1.84106 -0.469584 0
M  V30 5961 H 558.942 3.70539 1.16761 0
M  V30 5962 H 560.614 4.41274 -1.34444 0
M  V30 5963 H 558.857 4.12892 -1.33052 0
M  V30 5964 H 559.528 5.50202 -0.445186 0
M  V30 5965 H 562.004 4.07365 0.848113 0
M  V30 5966 H 560.88 5.26563 1.54992 0
M  V30 5967 H 561.141 3.7333 2.36805 0
M  V30 5968 N 560.2 0.0768682 1.57412 0
M  V30 5969 C 561.133 -0.924685 2.08626 0
M  V30 5970 C 562.111 -1.28792 0.992542 0
M  V30 5971 O 563.295 -1.39634 1.26628 0
M  V30 5972 C 560.422 -2.23131 2.54814 0
M  V30 5973 C 559.468 -2.01928 3.75669 0
M  V30 5974 S 560.301 -1.27397 5.20125 0
M  V30 5975 C 561.457 -2.59329 5.69648 0
M  V30 5976 H 561.69 -0.488928 2.93252 0
M  V30 5977 H 559.223 -0.136014 1.538 0
M  V30 5978 H 561.181 -2.98226 2.82084 0
M  V30 5979 H 559.842 -2.63831 1.70447 0
M  V30 5980 H 559.035 -2.98639 4.05993 0
M  V30 5981 H 558.637 -1.34967 3.48798 0
M  V30 5982 H 560.929 -3.55394 5.76803 0
M  V30 5983 H 561.872 -2.33608 6.68456 0
M  V30 5984 H 562.28 -2.66767 4.9749 0
M  V30 5985 N 561.678 -1.56367 -0.196722 0
M  V30 5986 C 562.611 -1.89475 -1.2718 0
M  V30 5987 C 563.589 -0.754667 -1.44026 0
M  V30 5988 O 564.773 -1.00551 -1.59442 0
M  V30 5989 C 561.9 -2.12352 -2.63864 0
M  V30 5990 C 560.946 -3.35053 -2.63897 0
M  V30 5991 S 561.779 -4.90228 -2.15492 0
M  V30 5992 C 562.935 -5.16171 -3.54004 0
M  V30 5993 H 563.168 -2.80365 -0.989075 0
M  V30 5994 H 560.701 -1.49125 -0.40014 0
M  V30 5995 H 562.659 -2.26214 -3.42545 0
M  V30 5996 H 561.32 -1.22214 -2.89349 0
M  V30 5997 H 560.513 -3.48182 -3.64397 0
M  V30 5998 H 560.115 -3.20176 -1.93296 0
M  V30 5999 H 562.407 -5.06591 -4.49857 0
M  V30 6000 H 563.35 -6.17938 -3.45771 0
M  V30 6001 H 563.758 -4.43814 -3.48841 0
M  V30 6002 N 563.156 0.464375 -1.50603 0
M  V30 6003 C 564.106 1.55929 -1.66343 0
M  V30 6004 C 565.09 1.52338 -0.517887 0
M  V30 6005 O 566.282 1.59248 -0.772601 0
M  V30 6006 C 563.411 2.94327 -1.7671 0
M  V30 6007 C 562.497 3.02777 -2.96962 0
M  V30 6008 N 562.888 2.81026 -4.20545 0
M  V30 6009 C 561.186 3.33919 -2.95659 0
M  V30 6010 C 561.887 2.94618 -5.01573 0
M  V30 6011 N 560.863 3.25112 -4.35664 0
M  V30 6012 H 564.665 1.37822 -2.59581 0
M  V30 6013 H 562.179 0.671227 -1.47879 0
M  V30 6014 H 564.176 3.73063 -1.86091 0
M  V30 6015 H 562.836 3.13476 -0.846353 0
M  V30 6016 H 563.847 2.56477 -4.49933 0
M  V30 6017 H 560.524 3.59013 -2.13111 0
M  V30 6018 H 561.914 2.81984 -6.09865 0
M  V30 6019 N 564.634 1.40294 0.718013 0
M  V30 6020 C 565.911 1.2894 1.47084 0
M  V30 6021 C 566.291 -0.0933625 2.10893 0
M  V30 6022 O 565.639 -1.10598 1.99951 0
M  V30 6023 C 565.849 2.4264 2.50852 0
M  V30 6024 C 567.197 2.8276 3.16752 0
M  V30 6025 O 568.221 2.42215 2.61171 0
M  V30 6026 O 567.08 3.528 4.17366 0
M  V30 6027 H 564.174 0.506236 0.653952 0
M  V30 6028 H 566.72 1.52208 0.750394 0
M  V30 6029 H 565.492 3.35009 2.022 0
M  V30 6030 H 565.115 2.21129 3.30435 0
M  V30 6031 N 566.112 -0.949982 1.2575 0
M  V30 6032 C 567.389 -1.6718 1.01539 0
M  V30 6033 C 567.769 -2.06095 -0.456942 0
M  V30 6034 O 567.117 -1.77792 -1.43534 0
M  V30 6035 C 567.327 -2.8906 1.95564 0
M  V30 6036 C 568.675 -3.60909 2.23673 0
M  V30 6037 O 569.699 -2.9915 1.9336 0
M  V30 6038 O 568.558 -4.72127 2.75243 0
M  V30 6039 H 565.652 -0.731697 0.385419 0
M  V30 6040 H 568.198 -1.00249 1.36924 0
M  V30 6041 H 566.97 -2.57128 2.94959 0
M  V30 6042 H 566.593 -3.63719 1.60605 0
M  V30 6043 N 567.59 -1.07411 -1.15328 0
M  V30 6044 C 568.5 -0.706438 -2.23711 0
M  V30 6045 C 569.516 0.282586 -1.7169 0
M  V30 6046 O 570.692 0.129066 -2.00986 0
M  V30 6047 C 567.757 -0.11048 -3.46524 0
M  V30 6048 C 566.818 -1.15282 -4.13532 0
M  V30 6049 C 566.051 -0.585205 -5.30482 0
M  V30 6050 O 566.274 0.598549 -5.67251 0
M  V30 6051 O 565.208 -1.33039 -5.87013 0
M  V30 6052 H 569.034 -1.61031 -2.57493 0
M  V30 6053 H 566.619 -0.847113 -1.23062 0
M  V30 6054 H 568.501 0.21957 -4.20828 0
M  V30 6055 H 567.176 0.766703 -3.14489 0
M  V30 6056 H 566.083 -1.53523 -3.41147 0
M  V30 6057 H 567.416 -2.00192 -4.49649 0
M  V30 6058 N 569.068 1.32177 -0.85831 0
M  V30 6059 C 570.293 2.01847 -0.476718 0
M  V30 6060 C 570.718 1.64065 0.920021 0
M  V30 6061 O 570.076 0.843189 1.60499 0
M  V30 6062 C 570.124 3.55097 -0.627578 0
M  V30 6063 O 569.228 4.11012 0.338086 0
M  V30 6064 H 568.569 0.635907 -0.191099 0
M  V30 6065 H 571.099 1.68641 -1.15851 0
M  V30 6066 H 571.109 4.04718 -0.516476 0
M  V30 6067 H 569.784 3.81938 -1.64609 0
M  V30 6068 H 568.361 3.72451 0.182917 0
M  V30 6069 N 570.547 0.616602 1.45037 0
M  V30 6070 C 571.775 0.121968 2.0654 0
M  V30 6071 C 572.19 -1.19743 1.45969 0
M  V30 6072 O 571.547 -1.73133 0.577168 0
M  V30 6073 C 571.598 -0.0145171 3.61497 0
M  V30 6074 O 571.319 1.25269 4.19809 0
M  V30 6075 C 572.82 -0.539555 4.40004 0
M  V30 6076 H 570.04 0.0729837 0.667019 0
M  V30 6077 H 572.584 0.846891 1.8614 0
M  V30 6078 H 570.739 -0.689809 3.81209 0
M  V30 6079 H 571.153 1.08816 5.13088 0
M  V30 6080 H 572.627 -0.584112 5.48901 0
M  V30 6081 H 573.104 -1.56368 4.10421 0
M  V30 6082 H 573.71 0.101995 4.25178 0
M  V30 6083 N 572.025 -1.5352 0.356285 0
M  V30 6084 C 573.274 -2.00298 -0.237373 0
M  V30 6085 C 573.587 -1.24784 -1.50627 0
M  V30 6086 O 574.793 -1.62103 -2.17795 0
M  V30 6087 C 573.249 -3.56771 -0.473545 0
M  V30 6088 C 572.857 -4.41154 0.780183 0
M  V30 6089 C 574.601 -4.1193 -1.02537 0
M  V30 6090 C 572.508 -5.89161 0.514108 0
M  V30 6091 H 571.438 -0.748307 -0.092478 0
M  V30 6092 H 574.089 -1.77283 0.473588 0
M  V30 6093 H 572.471 -3.75902 -1.24553 0
M  V30 6094 H 573.645 -4.33797 1.55425 0
M  V30 6095 H 571.96 -3.97052 1.25455 0
M  V30 6096 H 574.557 -5.20133 -1.2396 0
M  V30 6097 H 574.9 -3.65943 -1.98473 0
M  V30 6098 H 575.433 -3.96561 -0.313775 0
M  V30 6099 H 572.172 -6.39408 1.44355 0
M  V30 6100 H 571.692 -5.9939 -0.221632 0
M  V30 6101 H 573.371 -6.46857 0.136122 0
M  V30 6102 N 573.503 -0.0852151 -1.57369 0
M  V30 6103 C 574.451 0.894856 -2.14698 0
M  V30 6104 C 575.445 1.29903 -1.08727 0
M  V30 6105 O 576.651 1.27471 -1.27088 0
M  V30 6106 H 573.026 0.306569 -0.686673 0
M  V30 6107 H 574.997 0.386542 -2.95886 0
M  V30 6108 C 573.746 2.14798 -2.73417 0
M  V30 6109 H 573.069 1.84585 -3.54638 0
M  V30 6110 H 574.509 2.81456 -3.1711 0
M  V30 6111 C 572.968 2.91546 -1.68828 0
M  V30 6112 O 573.498 3.85733 -1.12129 0
M  V30 6113 N 571.704 2.54901 -1.39549 0
M  V30 6114 H 571.251 1.7838 -1.85845 0
M  V30 6115 H 571.209 3.06553 -0.698054 0
M  V30 6116 N 574.981 1.5647 0.188427 0
M  V30 6117 C 576.206 1.85486 0.927891 0
M  V30 6118 C 576.631 0.669575 1.75779 0
M  V30 6119 O 575.989 -0.381573 1.77239 0
M  V30 6120 C 576.037 3.12784 1.7944 0
M  V30 6121 O 575.141 2.93805 2.894 0
M  V30 6122 H 574.482 0.610585 0.260925 0
M  V30 6123 H 577.012 2.037 0.191729 0
M  V30 6124 H 577.022 3.43749 2.19774 0
M  V30 6125 H 575.697 3.98671 1.18468 0
M  V30 6126 H 574.274 2.74153 2.52774 0
M  V30 6127 N 576.459 -0.456382 1.50847 0
M  V30 6128 C 577.684 -1.2349 1.66628 0
M  V30 6129 C 578.109 -1.84715 0.355254 0
M  V30 6130 O 577.467 -1.67961 -0.682559 0
M  V30 6131 C 577.515 -2.30865 2.77009 0
M  V30 6132 O 576.619 -3.35882 2.39285 0
M  V30 6133 H 575.96 -0.36266 0.556214 0
M  V30 6134 H 578.49 -0.541374 1.97308 0
M  V30 6135 H 578.5 -2.75949 3.00526 0
M  V30 6136 H 577.175 -1.85677 3.72152 0
M  V30 6137 H 575.752 -2.96406 2.26269 0
M  V30 6138 N 577.937 -1.40673 -0.710563 0
M  V30 6139 C 579.162 -1.42741 -1.50465 0
M  V30 6140 C 579.587 -0.0302116 -1.88076 0
M  V30 6141 O 578.945 0.962945 -1.53613 0
M  V30 6142 C 578.993 -2.32873 -2.75322 0
M  V30 6143 O 578.097 -1.77544 -3.72226 0
M  V30 6144 H 577.438 -0.485056 -0.45345 0
M  V30 6145 H 579.968 -1.84961 -0.874681 0
M  V30 6146 H 579.978 -2.48233 -3.23797 0
M  V30 6147 H 578.653 -3.34401 -2.47283 0
M  V30 6148 H 577.23 -1.71556 -3.31093 0
M  V30 6149 N 579.415 0.9433 -1.26252 0
M  V30 6150 C 580.64 1.72898 -1.14547 0
M  V30 6151 C 581.065 1.85761 0.295743 0
M  V30 6152 O 580.423 1.3463 1.21427 0
M  V30 6153 C 580.471 3.11471 -1.8171 0
M  V30 6154 O 579.575 3.97336 -1.10445 0
M  V30 6155 H 578.916 0.530555 -0.399259 0
M  V30 6156 H 581.446 1.18159 -1.67032 0
M  V30 6157 H 581.456 3.61872 -1.88449 0
M  V30 6158 H 580.131 3.01425 -2.86558 0
M  V30 6159 H 578.708 3.55788 -1.11666 0
M  V30 6160 N 580.893 1.08022 1.14757 0
M  V30 6161 C 582.139 0.808705 1.85978 0
M  V30 6162 C 582.472 -0.663764 1.82504 0
M  V30 6163 O 581.747 -1.48765 1.25296 0
M  V30 6164 C 582.03 1.32623 3.34788 0
M  V30 6165 C 581.883 2.86375 3.46856 0
M  V30 6166 C 583.202 0.948291 4.29762 0
M  V30 6167 H 580.321 0.295244 0.675278 0
M  V30 6168 H 582.963 1.33917 1.34783 0
M  V30 6169 H 581.113 0.875002 3.78518 0
M  V30 6170 H 582.785 3.39839 3.11941 0
M  V30 6171 H 581.028 3.24232 2.88194 0
M  V30 6172 H 581.699 3.17658 4.51439 0
M  V30 6173 H 584.175 1.33722 3.94028 0
M  V30 6174 H 583.051 1.33765 5.32352 0
M  V30 6175 H 583.312 -0.145094 4.41862 0
M  V30 6176 N 582.371 -1.3172 0.865308 0
M  V30 6177 C 583.617 -1.97168 0.474633 0
M  V30 6178 C 583.95 -1.68263 -0.969604 0
M  V30 6179 O 583.225 -0.976588 -1.68205 0
M  V30 6180 C 583.508 -3.52689 0.726808 0
M  V30 6181 C 583.361 -3.91185 2.22024 0
M  V30 6182 C 584.68 -4.39689 0.190201 0
M  V30 6183 H 581.799 -0.716185 0.17392 0
M  V30 6184 H 584.441 -1.55925 1.08569 0
M  V30 6185 H 582.591 -3.8795 0.206705 0
M  V30 6186 H 584.263 -3.66049 2.80724 0
M  V30 6187 H 582.506 -3.3996 2.69462 0
M  V30 6188 H 583.177 -4.99604 2.34735 0
M  V30 6189 H 585.653 -4.11225 0.635103 0
M  V30 6190 H 584.529 -5.47469 0.396132 0
M  V30 6191 H 584.79 -4.32683 -0.907625 0
M  V30 6192 N 583.85 -0.624285 -1.44708 0
M  V30 6193 C 584.8 0.106466 -2.27751 0
M  V30 6194 C 585.784 0.822703 -1.38277 0
M  V30 6195 O 586.976 0.709939 -1.62138 0
M  V30 6196 C 584.105 1.092 -3.25469 0
M  V30 6197 C 583.191 0.375737 -4.22432 0
M  V30 6198 N 583.582 -0.591881 -5.02325 0
M  V30 6199 C 581.88 0.621093 -4.41654 0
M  V30 6200 C 582.581 -1.01443 -5.72786 0
M  V30 6201 N 581.557 -0.354651 -5.42442 0
M  V30 6202 H 585.359 -0.636464 -2.86926 0
M  V30 6203 H 582.873 -0.44925 -1.56062 0
M  V30 6204 H 584.87 1.63006 -3.83712 0
M  V30 6205 H 583.529 1.8353 -2.67856 0
M  V30 6206 H 584.541 -0.969389 -5.08747 0
M  V30 6207 H 581.218 1.34779 -3.95147 0
M  V30 6208 H 582.608 -1.81345 -6.46965 0
M  V30 6209 N 585.328 1.53329 -0.364422 0
M  V30 6210 C 586.275 2.25698 0.482607 0
M  V30 6211 C 587.245 1.26325 1.07848 0
M  V30 6212 O 588.43 1.55104 1.11119 0
M  V30 6213 C 585.57 3.04873 1.61699 0
M  V30 6214 C 584.683 4.19135 1.0464 0
M  V30 6215 C 583.818 4.85754 2.14979 0
M  V30 6216 C 582.857 5.9205 1.5538 0
M  V30 6217 N 581.994 6.52365 2.59547 0
M  V30 6218 H 586.834 2.97666 -0.141032 0
M  V30 6219 H 584.371 1.46875 -0.0813692 0
M  V30 6220 H 586.329 3.49051 2.28516 0
M  V30 6221 H 584.959 2.35162 2.2113 0
M  V30 6222 H 584.011 3.79451 0.268553 0
M  V30 6223 H 585.323 4.95525 0.570653 0
M  V30 6224 H 584.477 5.3311 2.89619 0
M  V30 6225 H 583.216 4.08834 2.65906 0
M  V30 6226 H 582.221 5.44058 0.792549 0
M  V30 6227 H 583.446 6.7089 1.0528 0
M  V30 6228 H 581.392 5.78298 3.09689 0
M  V30 6229 H 581.309 7.2429 2.16655 0
M  V30 6230 H 582.577 7.0437 3.33892 0
M  V30 6231 N 586.806 0.0935595 1.57322 0
M  V30 6232 C 587.753 -0.865935 2.1394 0
M  V30 6233 C 588.723 -1.28083 1.05754 0
M  V30 6234 O 589.908 -1.36285 1.33533 0
M  V30 6235 C 587.048 -2.12023 2.72287 0
M  V30 6236 C 586.161 -1.756 3.94701 0
M  V30 6237 C 585.296 -2.95804 4.41218 0
M  V30 6238 C 584.335 -2.555 5.56225 0
M  V30 6239 N 583.472 -3.68534 5.97601 0
M  V30 6240 H 588.312 -0.376261 2.95615 0
M  V30 6241 H 585.849 -0.174052 1.46067 0
M  V30 6242 H 587.807 -2.85477 3.04235 0
M  V30 6243 H 586.437 -2.58492 1.93343 0
M  V30 6244 H 585.489 -0.921208 3.69077 0
M  V30 6245 H 586.801 -1.41964 4.78171 0
M  V30 6246 H 585.955 -3.77513 4.74941 0
M  V30 6247 H 584.694 -3.32649 3.56645 0
M  V30 6248 H 583.699 -1.72218 5.22131 0
M  V30 6249 H 584.924 -2.19801 6.42545 0
M  V30 6250 H 582.87 -4.051 5.15974 0
M  V30 6251 H 582.787 -3.38737 6.75865 0
M  V30 6252 H 584.055 -4.50757 6.35955 0
M  V30 6253 N 588.284 -1.56567 -0.180126 0
M  V30 6254 C 589.561 -1.7235 -0.924931 0
M  V30 6255 C 589.941 -0.652523 -2.00762 0
M  V30 6256 O 589.289 0.334115 -2.26044 0
M  V30 6257 C 589.499 -3.1523 -1.49771 0
M  V30 6258 C 590.847 -3.75921 -1.97405 0
M  V30 6259 O 591.871 -3.18452 -1.59583 0
M  V30 6260 O 590.73 -4.7681 -2.67048 0
M  V30 6261 H 587.824 -0.703502 -0.434758 0
M  V30 6262 H 590.37 -1.6886 -0.168647 0
M  V30 6263 H 589.142 -3.84656 -0.718027 0
M  V30 6264 H 588.765 -3.23009 -2.31842 0
M  V30 6265 N 589.762 0.448376 -1.51087 0
M  V30 6266 C 590.712 1.54156 -1.67988 0
M  V30 6267 C 591.696 1.5178 -0.534015 0
M  V30 6268 O 592.888 1.58419 -0.789448 0
M  V30 6269 C 590.017 2.92437 -1.79822 0
M  V30 6270 C 589.103 2.99611 -3.00157 0
M  V30 6271 N 589.494 2.7655 -4.23502 0
M  V30 6272 C 587.792 3.30764 -2.99184 0
M  V30 6273 C 588.493 2.89281 -5.0467 0
M  V30 6274 N 587.469 3.20473 -4.39088 0
M  V30 6275 H 591.271 1.35061 -2.61028 0
M  V30 6276 H 588.785 0.655504 -1.48583 0
M  V30 6277 H 590.782 3.71068 -1.90037 0
M  V30 6278 H 589.442 3.1256 -0.879554 0
M  V30 6279 H 590.453 2.5169 -4.52628 0
M  V30 6280 H 587.13 3.56732 -2.16907 0
M  V30 6281 H 588.52 2.75499 -6.12821 0
M  V30 6282 N 591.24 1.41047 0.703093 0
M  V30 6283 C 592.486 1.40207 1.46526 0
M  V30 6284 C 592.819 0.00847763 1.94198 0
M  V30 6285 O 592.094 -0.962437 1.69019 0
M  V30 6286 C 592.377 2.40238 2.6825 0
M  V30 6287 C 592.23 3.88674 2.26391 0
M  V30 6288 C 593.549 2.37627 3.70434 0
M  V30 6289 H 590.668 0.510594 0.531472 0
M  V30 6290 H 593.31 1.72271 0.801422 0
M  V30 6291 H 591.46 2.13026 3.24888 0
M  V30 6292 H 593.132 4.2676 1.75138 0
M  V30 6293 H 591.375 4.03903 1.58255 0
M  V30 6294 H 592.046 4.542 3.13698 0
M  V30 6295 H 594.522 2.61759 3.23452 0
M  V30 6296 H 593.398 3.09645 4.53223 0
M  V30 6297 H 593.659 1.39223 4.19606 0
M  V30 6298 N 592.718 -0.936591 1.26751 0
M  V30 6299 C 593.965 -1.68331 1.12566 0
M  V30 6300 C 594.293 -1.91677 -0.330168 0
M  V30 6301 O 593.548 -1.49859 -1.2586 0
M  V30 6302 C 593.847 -3.06099 1.84494 0
M  V30 6303 C 593.513 -3.02493 3.34378 0
M  V30 6304 C 592.175 -3.01217 3.75262 0
M  V30 6305 C 594.527 -2.94453 4.30055 0
M  V30 6306 C 591.855 -2.89672 5.10203 0
M  V30 6307 C 594.207 -2.84449 5.65041 0
M  V30 6308 C 592.871 -2.81518 6.0523 0
M  V30 6309 H 592.141 -0.615965 0.411907 0
M  V30 6310 H 594.788 -1.09292 1.5725 0
M  V30 6311 H 593.093 -3.6879 1.32292 0
M  V30 6312 H 594.79 -3.62733 1.70955 0
M  V30 6313 H 591.38 -3.04269 3.01858 0
M  V30 6314 H 595.564 -2.94544 3.99447 0
M  V30 6315 H 590.82 -2.85783 5.40498 0
M  V30 6316 H 594.994 -2.77192 6.38856 0
M  V30 6317 H 592.621 -2.72329 7.09747 0
M  V30 6318 N 594.196 -1.08629 -1.14182 0
M  V30 6319 C 595.445 -0.812271 -1.84621 0
M  V30 6320 C 595.758 0.664313 -1.83973 0
M  V30 6321 O 596.964 1.05357 -2.50224 0
M  V30 6322 C 595.42 -1.4031 -3.31423 0
M  V30 6323 C 595.028 -2.91164 -3.40481 0
M  V30 6324 C 596.772 -1.20767 -4.06959 0
M  V30 6325 C 594.679 -3.43373 -4.81507 0
M  V30 6326 H 593.609 -0.30019 -0.691666 0
M  V30 6327 H 596.26 -1.30798 -1.28701 0
M  V30 6328 H 594.642 -0.835096 -3.87094 0
M  V30 6329 H 595.816 -3.5412 -2.94848 0
M  V30 6330 H 594.131 -3.09646 -2.78403 0
M  V30 6331 H 596.728 -1.57237 -5.11058 0
M  V30 6332 H 597.071 -0.147664 -4.16038 0
M  V30 6333 H 597.604 -1.74274 -3.57594 0
M  V30 6334 H 594.343 -4.48958 -4.77616 0
M  V30 6335 H 593.863 -2.85176 -5.27669 0
M  V30 6336 H 595.542 -3.40095 -5.50404 0
M  V30 6337 N 595.674 1.31259 -0.872281 0
M  V30 6338 C 597.09 1.49283 -0.564521 0
M  V30 6339 C 597.29 1.80243 0.900807 0
M  V30 6340 O 596.346 1.88246 1.68284 0
M  V30 6341 C 597.659 2.62503 -1.46673 0
M  V30 6342 C 599.207 2.76386 -1.46901 0
M  V30 6343 C 599.682 3.92705 -2.35684 0
M  V30 6344 N 601.173 3.99995 -2.33577 0
M  V30 6345 C 601.908 4.89276 -2.98992 0
M  V30 6346 N 601.404 5.83443 -3.73585 0
M  V30 6347 N 603.197 4.82541 -2.88289 0
M  V30 6348 H 595.348 1.09432 -1.82039 0
M  V30 6349 H 597.611 0.540949 -0.77851 0
M  V30 6350 H 597.317 2.46407 -2.50951 0
M  V30 6351 H 597.191 3.58695 -1.16696 0
M  V30 6352 H 599.578 2.91894 -0.433796 0
M  V30 6353 H 599.659 1.80853 -1.80903 0
M  V30 6354 H 599.303 3.77954 -3.39283 0
M  V30 6355 H 599.233 4.87549 -1.99006 0
M  V30 6356 H 601.724 3.32624 -1.7936 0
M  V30 6357 H 602.037 6.48303 -4.20622 0
M  V30 6358 H 600.382 5.83415 -3.77694 0
M  V30 6359 H 603.573 4.07951 -2.2955 0
M  V30 6360 H 603.746 5.51916 -3.39549 0
M  V30 6361 N 597.152 0.631951 1.44375 0
M  V30 6362 C 598.429 0.067646 1.95483 0
M  V30 6363 C 598.809 -1.40683 1.57389 0
M  V30 6364 O 598.157 -2.12167 0.848375 0
M  V30 6365 C 598.367 0.291392 3.47781 0
M  V30 6366 C 599.715 0.185028 4.24197 0
M  V30 6367 O 600.739 0.222803 3.55503 0
M  V30 6368 O 599.598 0.0906642 5.46425 0
M  V30 6369 H 596.692 -0.0218379 0.826712 0
M  V30 6370 H 599.238 0.703711 1.54421 0
M  V30 6371 H 598.01 1.31449 3.68561 0
M  V30 6372 H 597.633 -0.378772 3.95792 0
M  V30 6373 N 598.631 -1.53133 0.372548 0
M  V30 6374 C 599.541 -2.29671 -0.478379 0
M  V30 6375 C 600.557 -1.35913 -1.08644 0
M  V30 6376 O 601.733 -1.68975 -1.09588 0
M  V30 6377 C 598.798 -3.07625 -1.599 0
M  V30 6378 C 597.859 -4.17061 -1.01776 0
M  V30 6379 C 597.092 -4.91289 -2.08497 0
M  V30 6380 O 597.315 -4.65442 -3.29727 0
M  V30 6381 O 596.249 -5.7705 -1.71164 0
M  V30 6382 H 600.075 -3.03355 0.144649 0
M  V30 6383 H 597.66 -1.48773 0.136729 0
M  V30 6384 H 599.542 -3.56281 -2.25038 0
M  V30 6385 H 598.217 -2.3677 -2.2073 0
M  V30 6386 H 597.124 -3.72641 -0.330098 0
M  V30 6387 H 598.457 -4.90102 -0.453915 0
M  V30 6388 N 600.109 -0.101901 -1.5727 0
M  V30 6389 C 601.072 0.840129 -2.13247 0
M  V30 6390 C 602.072 1.20625 -1.06331 0
M  V30 6391 O 603.262 1.13456 -1.32186 0
M  V30 6392 C 600.394 2.13372 -2.65867 0
M  V30 6393 H 601.587 0.353945 -2.97804 0
M  V30 6394 H 599.14 0.147167 -1.55606 0
M  V30 6395 H 599.875 2.66461 -1.84849 0
M  V30 6396 H 599.66 1.88085 -3.44044 0
M  V30 6397 H 601.15 2.80748 -3.09145 0
M  V30 6398 N 601.587 1.56661 0.17182 0
M  V30 6399 C 602.835 1.81606 0.886774 0
M  V30 6400 C 603.156 0.678818 1.82803 0
M  V30 6401 O 602.426 -0.301354 1.93568 0
M  V30 6402 H 601.006 0.669934 0.330451 0
M  V30 6403 H 603.668 1.94142 0.171757 0
M  V30 6404 H 602.764 2.75634 1.46398 0
M  V30 6405 N 603.065 -0.440357 1.51323 0
M  V30 6406 C 604.015 -1.53263 1.68803 0
M  V30 6407 C 604.999 -1.51494 0.542057 0
M  V30 6408 O 606.191 -1.57999 0.797839 0
M  V30 6409 C 603.32 -2.91479 1.8137 0
M  V30 6410 C 602.406 -2.98015 3.01742 0
M  V30 6411 N 602.797 -2.743 4.24962 0
M  V30 6412 C 601.095 -3.29173 3.00934 0
M  V30 6413 C 601.796 -2.86601 5.06197 0
M  V30 6414 N 600.772 -3.1814 4.40781 0
M  V30 6415 H 604.574 -1.33675 2.61741 0
M  V30 6416 H 602.088 -0.647616 1.48929 0
M  V30 6417 H 604.085 -3.70055 1.92002 0
M  V30 6418 H 602.745 -3.12089 0.896117 0
M  V30 6419 H 603.756 -2.49287 4.53957 0
M  V30 6420 H 600.433 -3.55577 2.18796 0
M  V30 6421 H 601.823 -2.72246 6.14274 0
M  V30 6422 N 604.543 -1.41418 -0.695603 0
M  V30 6423 C 605.791 -1.40496 -1.45277 0
M  V30 6424 C 606.112 -0.0149538 -1.94994 0
M  V30 6425 O 605.382 0.9432 -1.71699 0
M  V30 6426 H 603.962 -0.517147 -0.539044 0
M  V30 6427 H 606.624 -1.76656 -0.823321 0
M  V30 6428 H 605.72 -2.09214 -2.31595 0
M  V30 6429 N 606.021 0.929856 -1.27246 0
M  V30 6430 C 607.298 1.65544 -1.04186 0
M  V30 6431 C 607.678 2.06796 0.424097 0
M  V30 6432 O 607.026 1.80053 1.40688 0
M  V30 6433 C 607.236 2.85912 -2.00138 0
M  V30 6434 C 608.584 3.57305 -2.29387 0
M  V30 6435 O 609.608 2.96036 -1.98094 0
M  V30 6436 O 608.467 4.67688 -2.82719 0
M  V30 6437 H 605.561 0.725473 -0.397011 0
M  V30 6438 H 608.107 0.980583 -1.38501 0
M  V30 6439 H 606.879 2.52403 -2.99013 0
M  V30 6440 H 606.502 3.61118 -1.66371 0
M  V30 6441 N 607.499 1.09233 1.13605 0
M  V30 6442 C 608.91 0.846839 1.6639 0
M  V30 6443 C 609.261 -0.625031 1.85978 0
M  V30 6444 O 608.386 -1.48173 1.57714 0
M  V30 6445 C 608.981 1.5307 3.0225 0
M  V30 6446 C 607.54 1.33223 3.52035 0
M  V30 6447 C 606.687 1.58806 2.27323 0
M  V30 6448 H 609.638 1.25175 0.975541 0
M  V30 6449 H 609.659 0.96267 3.68121 0
M  V30 6450 H 609.171 2.60192 2.87961 0
M  V30 6451 H 607.272 0.282091 3.71531 0
M  V30 6452 H 607.385 2.0657 4.32279 0
M  V30 6453 H 605.749 1.01007 2.33815 0
M  V30 6454 H 606.532 2.67153 2.15602 0
M  V30 6455 N 608.977 -1.30795 0.87923 0
M  V30 6456 C 610.393 -1.48981 0.57243 0
M  V30 6457 C 610.593 -1.80719 -0.891236 0
M  V30 6458 O 609.649 -1.89136 -1.67283 0
M  V30 6459 C 610.962 -2.61721 1.48063 0
M  V30 6460 C 612.51 -2.75603 1.48365 0
M  V30 6461 C 612.985 -3.91449 2.37763 0
M  V30 6462 N 614.476 -3.98751 2.35695 0
M  V30 6463 C 615.211 -4.87684 3.01583 0
M  V30 6464 N 614.707 -5.81454 3.76674 0
M  V30 6465 N 616.5 -4.81005 2.90844 0
M  V30 6466 H 608.651 -1.08465 1.82617 0
M  V30 6467 H 610.914 -0.536813 0.781368 0
M  V30 6468 H 610.62 -2.45073 2.52254 0
M  V30 6469 H 610.494 -3.58071 1.18596 0
M  V30 6470 H 612.881 -2.9166 0.44927 0
M  V30 6471 H 612.962 -1.79891 1.81859 0
M  V30 6472 H 612.606 -3.76149 3.41283 0
M  V30 6473 H 612.536 -4.86487 2.01589 0
M  V30 6474 H 615.027 -3.31668 1.81121 0
M  V30 6475 H 615.34 -6.46063 4.24054 0
M  V30 6476 H 613.685 -5.81403 3.80782 0
M  V30 6477 H 616.876 -4.06728 2.31711 0
M  V30 6478 H 617.049 -5.50107 3.42471 0
M  V30 6479 N 610.455 -0.639598 -1.44038 0
M  V30 6480 C 611.866 -0.228866 -1.85292 0
M  V30 6481 C 612.217 1.22161 -1.53529 0
M  V30 6482 O 611.342 1.93064 -0.977518 0
M  V30 6483 C 611.937 -0.408592 -3.36327 0
M  V30 6484 C 610.496 -0.0522953 -3.76364 0
M  V30 6485 C 609.643 -0.717959 -2.67844 0
M  V30 6486 H 612.594 -0.844194 -1.34384 0
M  V30 6487 H 612.615 0.349968 -3.78887 0
M  V30 6488 H 612.127 -1.46435 -3.59414 0
M  V30 6489 H 610.228 1.0014 -3.58891 0
M  V30 6490 H 610.341 -0.468261 -4.76806 0
M  V30 6491 H 608.705 -0.152459 -2.54243 0
M  V30 6492 H 609.488 -1.77648 -2.93762 0
M  V30 6493 N 611.933 1.52934 -0.380664 0
M  V30 6494 C 612.843 2.29921 0.466192 0
M  V30 6495 C 613.859 1.36488 1.07922 0
M  V30 6496 O 615.035 1.69553 1.0869 0
M  V30 6497 C 612.1 3.08468 1.58266 0
M  V30 6498 C 611.161 4.17595 0.995627 0
M  V30 6499 C 610.394 4.92387 2.05889 0
M  V30 6500 O 610.617 4.67184 3.27254 0
M  V30 6501 O 609.551 5.77949 1.68102 0
M  V30 6502 H 613.377 3.03274 -0.160735 0
M  V30 6503 H 610.962 1.48698 -0.144617 0
M  V30 6504 H 612.844 3.57469 2.23145 0
M  V30 6505 H 611.519 2.37937 2.19471 0
M  V30 6506 H 610.426 3.72811 0.310332 0
M  V30 6507 H 611.759 4.90336 0.427918 0
M  V30 6508 N 613.412 0.11024 1.57214 0
M  V30 6509 C 614.823 -0.416527 1.81994 0
M  V30 6510 C 615.174 -1.67183 1.02686 0
M  V30 6511 O 614.299 -2.14823 0.260782 0
M  V30 6512 C 614.894 -0.762466 3.30109 0
M  V30 6513 C 613.453 -1.23391 3.556 0
M  V30 6514 C 612.6 -0.238166 2.76275 0
M  V30 6515 H 615.551 0.335491 1.55113 0
M  V30 6516 H 615.572 -1.62068 3.44259 0
M  V30 6517 H 615.084 0.151346 3.87805 0
M  V30 6518 H 613.185 -2.16492 3.03253 0
M  V30 6519 H 613.298 -1.18528 4.64207 0
M  V30 6520 H 611.662 -0.723421 2.4421 0
M  V30 6521 H 612.445 0.668591 3.36727 0
M  V30 6522 N 614.89 -1.56749 -0.16351 0
M  V30 6523 C 616.306 -1.51043 -0.515567 0
M  V30 6524 C 616.506 -0.815855 -1.84245 0
M  V30 6525 O 615.562 -0.379477 -2.49632 0
M  V30 6526 C 616.875 -2.95791 -0.541114 0
M  V30 6527 C 618.423 -3.0664 -0.627776 0
M  V30 6528 C 618.898 -4.52861 -0.684141 0
M  V30 6529 N 620.389 -4.5714 -0.746818 0
M  V30 6530 C 621.124 -5.67634 -0.811137 0
M  V30 6531 N 620.62 -6.8774 -0.835811 0
M  V30 6532 N 622.413 -5.55624 -0.850756 0
M  V30 6533 H 614.564 -2.00307 0.70645 0
M  V30 6534 H 616.827 -0.912876 0.255659 0
M  V30 6535 H 616.533 -3.49797 0.365329 0
M  V30 6536 H 616.407 -3.50858 -1.38487 0
M  V30 6537 H 618.794 -2.52663 -1.52464 0
M  V30 6538 H 618.875 -2.54645 0.242805 0
M  V30 6539 H 618.519 -5.07472 0.2085 0
M  V30 6540 H 618.449 -5.02621 -1.57098 0
M  V30 6541 H 620.94 -3.70669 -0.735717 0
M  V30 6542 H 621.253 -7.67701 -0.886279 0
M  V30 6543 H 619.598 -6.90334 -0.803958 0
M  V30 6544 H 622.789 -4.60709 -0.828535 0
M  V30 6545 H 622.962 -6.41756 -0.897418 0
M  V30 6546 N 616.368 0.432326 -1.51554 0
M  V30 6547 C 617.779 1.01202 -1.56892 0
M  V30 6548 C 618.13 1.92175 -0.395394 0
M  V30 6549 O 617.255 2.10844 0.487198 0
M  V30 6550 C 617.85 1.84217 -2.8434 0
M  V30 6551 C 616.409 2.37228 -2.92233 0
M  V30 6552 C 615.556 1.16576 -2.51606 0
M  V30 6553 H 618.507 0.213407 -1.57259 0
M  V30 6554 H 618.528 2.69721 -2.68385 0
M  V30 6555 H 618.04 1.17979 -3.69733 0
M  V30 6556 H 616.141 3.06905 -2.11282 0
M  V30 6557 H 616.254 2.69682 -3.95991 0
M  V30 6558 H 614.618 1.51263 -2.04919 0
M  V30 6559 H 615.401 0.519404 -3.39348 0
M  V30 6560 N 617.846 1.41785 0.688094 0
M  V30 6561 C 619.074 1.44915 1.47673 0
M  V30 6562 C 619.489 0.0565786 1.88715 0
M  V30 6563 O 618.846 -0.92579 1.57275 0
M  V30 6564 C 618.897 2.36452 2.73446 0
M  V30 6565 O 618.618 3.7029 2.34131 0
M  V30 6566 C 620.119 2.48463 3.67125 0
M  V30 6567 H 617.339 0.493324 0.454832 0
M  V30 6568 H 619.883 1.86153 0.846594 0
M  V30 6569 H 618.038 1.98502 3.3268 0
M  V30 6570 H 618.452 4.19183 3.15255 0
M  V30 6571 H 619.926 3.16662 4.52138 0
M  V30 6572 H 620.403 1.51826 4.12123 0
M  V30 6573 H 621.009 2.8708 3.13792 0
M  V30 6574 N 619.324 -0.923095 1.27737 0
M  V30 6575 C 620.256 -2.02871 1.06658 0
M  V30 6576 C 621.269 -1.62786 0.0212095 0
M  V30 6577 O 622.458 -1.76548 0.263267 0
M  V30 6578 C 619.558 -3.33603 0.59682 0
M  V30 6579 C 618.731 -4.02354 1.71551 0
M  V30 6580 C 617.79 -5.11364 1.24071 0
M  V30 6581 O 616.816 -5.35075 1.94123 0
M  V30 6582 N 618.018 -5.80416 0.0988444 0
M  V30 6583 H 620.783 -2.21515 2.01869 0
M  V30 6584 H 618.344 -1.09378 1.19365 0
M  V30 6585 H 620.336 -4.03845 0.262984 0
M  V30 6586 H 618.906 -3.11499 -0.262187 0
M  V30 6587 H 618.126 -3.25786 2.2194 0
M  V30 6588 H 619.414 -4.45035 2.46619 0
M  V30 6589 H 618.812 -5.63611 -0.485743 0
M  V30 6590 H 617.369 -6.51563 -0.17578 0
M  V30 6591 N 620.802 -1.09834 -1.13024 0
M  V30 6592 C 622.027 -0.85909 -1.88771 0
M  V30 6593 C 622.452 0.584402 -1.78791 0
M  V30 6594 O 621.81 1.41101 -1.13842 0
M  V30 6595 C 621.858 -1.30427 -3.36186 0
M  V30 6596 O 620.962 -0.465368 -4.09766 0
M  V30 6597 H 620.303 -0.310786 -0.586778 0
M  V30 6598 H 622.833 -1.46355 -1.42973 0
M  V30 6599 H 622.843 -1.2915 -3.8702 0
M  V30 6600 H 621.518 -2.3555 -3.42767 0
M  V30 6601 H 620.095 -0.542814 -3.68928 0
M  V30 6602 N 622.28 1.30327 -0.886154 0
M  V30 6603 C 623.526 1.96388 -0.505941 0
M  V30 6604 C 623.859 1.69784 0.942712 0
M  V30 6605 O 623.134 1.00322 1.6663 0
M  V30 6606 C 623.417 3.51488 -0.782826 0
M  V30 6607 C 623.27 3.87603 -2.28219 0
M  V30 6608 C 624.589 4.39331 -0.260128 0
M  V30 6609 H 621.708 0.713327 -0.185292 0
M  V30 6610 H 624.35 1.54178 -1.11036 0
M  V30 6611 H 622.5 3.87572 -0.268399 0
M  V30 6612 H 624.172 3.61537 -2.86512 0
M  V30 6613 H 622.415 3.3563 -2.74837 0
M  V30 6614 H 623.086 4.95806 -2.42653 0
M  V30 6615 H 625.562 4.10162 -0.700444 0
M  V30 6616 H 624.438 5.46769 -0.483179 0
M  V30 6617 H 624.699 4.34072 0.838674 0
M  V30 6618 N 623.758 0.647228 1.43697 0
M  V30 6619 C 624.69 -0.0866232 2.29036 0
M  V30 6620 C 625.703 -0.793051 1.42178 0
M  V30 6621 O 626.892 -0.651807 1.66174 0
M  V30 6622 C 623.992 -1.14552 3.18953 0
M  V30 6623 C 623.165 -0.518422 4.34317 0
M  V30 6624 C 622.224 -1.4734 5.05151 0
M  V30 6625 O 621.25 -0.984312 5.60625 0
M  V30 6626 N 622.452 -2.8075 5.08094 0
M  V30 6627 H 625.217 0.645834 2.92659 0
M  V30 6628 H 622.778 0.489567 1.54321 0
M  V30 6629 H 624.77 -1.78505 3.63205 0
M  V30 6630 H 623.34 -1.78001 2.56971 0
M  V30 6631 H 622.56 0.300079 3.93056 0
M  V30 6632 H 623.848 -0.080401 5.08736 0
M  V30 6633 H 623.246 -3.23052 4.64386 0
M  V30 6634 H 621.803 -3.40022 5.56083 0
M  V30 6635 N 625.236 -1.5273 0.388769 0
M  V30 6636 C 626.461 -2.0647 -0.19621 0
M  V30 6637 C 626.886 -1.25865 -1.39784 0
M  V30 6638 O 626.244 -0.283562 -1.79069 0
M  V30 6639 C 626.292 -3.56456 -0.5451 0
M  V30 6640 O 625.396 -3.78426 -1.63912 0
M  V30 6641 H 624.737 -0.663599 -0.023067 0
M  V30 6642 H 627.267 -1.96898 0.556084 0
M  V30 6643 H 627.277 -3.99888 -0.809557 0
M  V30 6644 H 625.952 -4.14561 0.333417 0
M  V30 6645 H 624.529 -3.46884 -1.36842 0
M  V30 6646 N 626.714 -0.118576 -1.57153 0
M  V30 6647 C 627.646 0.862247 -2.12363 0
M  V30 6648 C 628.659 1.23025 -1.06625 0
M  V30 6649 O 629.848 1.17927 -1.33998 0
M  V30 6650 C 626.948 2.16425 -2.60794 0
M  V30 6651 C 626.121 1.96801 -3.90626 0
M  V30 6652 C 625.18 3.10726 -4.2466 0
M  V30 6653 O 624.206 2.83659 -4.93484 0
M  V30 6654 N 625.408 4.37147 -3.81946 0
M  V30 6655 H 628.173 0.390564 -2.97144 0
M  V30 6656 H 625.734 0.0658591 -1.61766 0
M  V30 6657 H 627.726 2.91633 -2.80593 0
M  V30 6658 H 626.296 2.54943 -1.80895 0
M  V30 6659 H 625.516 1.05787 -3.7974 0
M  V30 6660 H 626.804 1.80993 -4.7552 0
M  V30 6661 H 626.202 4.62014 -3.26435 0
M  V30 6662 H 624.759 5.09229 -4.06853 0
M  V30 6663 N 628.193 1.56834 0.155195 0
M  V30 6664 C 629.156 1.96748 1.17571 0
M  V30 6665 C 630.156 0.853006 1.3631 0
M  V30 6666 O 631.346 1.11978 1.33441 0
M  V30 6667 C 628.478 2.27631 2.53765 0
M  V30 6668 H 629.671 2.88085 0.833498 0
M  V30 6669 H 627.224 1.51141 0.398242 0
M  V30 6670 H 627.959 1.39059 2.92973 0
M  V30 6671 H 627.744 3.0888 2.41527 0
M  V30 6672 H 629.234 2.59377 3.27282 0
M  V30 6673 N 629.671 -0.424282 1.51781 0
M  V30 6674 C 630.601 -1.52305 1.7699 0
M  V30 6675 C 631.582 -1.5839 0.620209 0
M  V30 6676 O 632.767 -1.73908 0.864268 0
M  V30 6677 C 629.897 -2.90271 1.90683 0
M  V30 6678 C 628.851 -2.99043 3.06198 0
M  V30 6679 C 628.177 -4.39116 3.05092 0
M  V30 6680 C 629.477 -2.7192 4.45934 0
M  V30 6681 H 631.171 -1.31461 2.68995 0
M  V30 6682 H 628.717 -0.630985 1.29439 0
M  V30 6683 H 630.67 -3.6711 2.06901 0
M  V30 6684 H 629.394 -3.12376 0.953365 0
M  V30 6685 H 628.053 -2.24646 2.89706 0
M  V30 6686 H 627.701 -4.58207 2.07498 0
M  V30 6687 H 627.401 -4.45912 3.82669 0
M  V30 6688 H 628.925 -5.17911 3.2342 0
M  V30 6689 H 630.339 -3.38487 4.62709 0
M  V30 6690 H 628.736 -2.90111 5.25315 0
M  V30 6691 H 629.806 -1.67445 4.55072 0
M  V30 6692 N 631.149 -1.42148 -0.680565 0
M  V30 6693 C 632.099 -1.41634 -1.78672 0
M  V30 6694 C 633.083 -0.288494 -1.58293 0
M  V30 6695 O 634.275 -0.530295 -1.68869 0
M  V30 6696 C 631.404 -1.31558 -3.17092 0
M  V30 6697 C 630.49 -2.49265 -3.43115 0
M  V30 6698 N 630.881 -3.74702 -3.39753 0
M  V30 6699 C 629.179 -2.43401 -3.73727 0
M  V30 6700 C 629.88 -4.52854 -3.651 0
M  V30 6701 N 628.856 -3.83181 -3.85582 0
M  V30 6702 H 632.658 -2.3652 -1.74458 0
M  V30 6703 H 630.172 -1.36415 -0.881171 0
M  V30 6704 H 632.169 -1.29272 -3.96351 0
M  V30 6705 H 630.829 -0.376696 -3.22508 0
M  V30 6706 H 631.84 -4.07378 -3.19787 0
M  V30 6707 H 628.517 -1.58062 -3.86423 0
M  V30 6708 H 629.907 -5.61827 -3.6851 0
M  V30 6709 N 632.627 0.916307 -1.28225 0
M  V30 6710 C 633.857 1.69654 -1.17902 0
M  V30 6711 C 634.265 1.87331 0.265268 0
M  V30 6712 O 633.608 1.39828 1.19137 0
M  V30 6713 C 633.67 3.11024 -1.80289 0
M  V30 6714 C 633.334 3.16643 -3.29525 0
M  V30 6715 C 634.331 2.98032 -4.25997 0
M  V30 6716 C 632.016 3.39238 -3.70436 0
M  V30 6717 C 634.01 3.01924 -5.61356 0
M  V30 6718 C 631.697 3.42762 -5.05922 0
M  V30 6719 C 632.695 3.24125 -6.01192 0
M  V30 6720 O 632.383 3.27406 -7.34208 0
M  V30 6721 H 632.115 0.537197 -0.41036 0
M  V30 6722 H 634.669 1.15547 -1.69817 0
M  V30 6723 H 632.899 3.66662 -1.22865 0
M  V30 6724 H 634.588 3.71063 -1.6452 0
M  V30 6725 H 635.354 2.80405 -3.95725 0
M  V30 6726 H 631.233 3.52791 -2.96749 0
M  V30 6727 H 634.777 2.87295 -6.35694 0
M  V30 6728 H 630.674 3.59916 -5.35846 0
M  V30 6729 H 631.442 3.43784 -7.42802 0
M  V30 6730 N 634.105 1.10431 1.1244 0
M  V30 6731 C 635.521 0.836096 1.35947 0
M  V30 6732 C 635.721 -0.544475 1.94004 0
M  V30 6733 O 634.777 -1.29735 2.16622 0
M  V30 6734 C 636.09 1.93575 2.30107 0
M  V30 6735 C 637.638 1.9642 2.43697 0
M  V30 6736 C 638.113 3.05559 3.41171 0
M  V30 6737 N 639.604 3.04865 3.48728 0
M  V30 6738 C 640.339 3.85954 4.24061 0
M  V30 6739 N 639.835 4.76977 5.02458 0
M  V30 6740 N 641.628 3.74172 4.19466 0
M  V30 6741 H 633.779 1.9942 0.731124 0
M  V30 6742 H 636.042 0.866607 0.384312 0
M  V30 6743 H 635.748 2.92943 1.94621 0
M  V30 6744 H 635.622 1.8229 3.30227 0
M  V30 6745 H 638.009 0.97685 2.78463 0
M  V30 6746 H 638.09 2.11782 1.43465 0
M  V30 6747 H 637.734 4.04513 3.07135 0
M  V30 6748 H 637.664 2.87438 4.41234 0
M  V30 6749 H 640.155 2.38908 2.92799 0
M  V30 6750 H 640.468 5.35409 5.57277 0
M  V30 6751 H 638.813 4.81006 5.01655 0
M  V30 6752 H 642.004 3.02412 3.57302 0
M  V30 6753 H 642.177 4.37602 4.77921 0
M  V30 6754 N 635.583 -1.29855 0.893053 0
M  V30 6755 C 636.531 -2.29867 0.355512 0
M  V30 6756 C 637.525 -1.60502 -0.541801 0
M  V30 6757 O 638.731 -1.74902 -0.425339 0
M  V30 6758 H 635.106 -0.745805 0.0963247 0
M  V30 6759 H 637.077 -2.72655 1.21252 0
M  V30 6760 C 635.826 -3.453 -0.407801 0
M  V30 6761 H 635.149 -3.98864 0.273426 0
M  V30 6762 H 636.589 -4.17334 -0.748887 0
M  V30 6763 C 635.048 -2.96051 -1.60795 0
M  V30 6764 O 635.578 -2.96763 -2.7073 0
M  V30 6765 N 633.784 -2.51963 -1.44786 0
M  V30 6766 H 633.331 -2.51583 -0.553498 0
M  V30 6767 H 633.289 -2.1937 -2.2522 0
M  V30 6768 N 637.061 -0.65484 -1.43351 0
M  V30 6769 C 638.477 -0.32255 -1.56307 0
M  V30 6770 C 638.677 1.17324 -1.63821 0
M  V30 6771 O 637.733 1.95813 -1.59417 0
M  V30 6772 C 639.046 -1.03533 -2.82314 0
M  V30 6773 C 640.594 -1.01574 -2.9606 0
M  V30 6774 C 641.069 -1.70945 -4.24902 0
M  V30 6775 N 642.56 -1.67716 -4.3177 0
M  V30 6776 C 643.295 -2.18265 -5.30234 0
M  V30 6777 N 642.791 -2.7711 -6.34966 0
M  V30 6778 N 644.584 -2.08756 -5.21898 0
M  V30 6779 H 636.735 -1.62549 -1.36717 0
M  V30 6780 H 638.998 -0.683676 -0.656727 0
M  V30 6781 H 638.704 -2.09045 -2.8283 0
M  V30 6782 H 638.578 -0.587913 -3.7259 0
M  V30 6783 H 640.965 0.0309834 -2.95084 0
M  V30 6784 H 641.046 -1.50186 -2.07069 0
M  V30 6785 H 640.69 -2.75574 -4.26639 0
M  V30 6786 H 640.62 -1.19797 -5.12793 0
M  V30 6787 H 643.111 -1.24777 -3.56706 0
M  V30 6788 H 643.424 -3.13353 -7.06421 0
M  V30 6789 H 641.769 -2.81171 -6.35585 0
M  V30 6790 H 644.96 -1.62488 -4.38994 0
M  V30 6791 H 645.133 -2.48459 -5.98475 0
M  V30 6792 N 638.539 1.52521 -0.396863 0
M  V30 6793 C 639.449 2.30403 0.44178 0
M  V30 6794 C 640.465 1.37625 1.06468 0
M  V30 6795 O 641.641 1.70697 1.06886 0
M  V30 6796 C 638.706 3.1013 1.54986 0
M  V30 6797 C 637.767 4.18628 0.951279 0
M  V30 6798 C 637 4.94543 2.00655 0
M  V30 6799 O 637.223 4.70629 3.22281 0
M  V30 6800 O 636.157 5.797 1.61962 0
M  V30 6801 H 639.983 3.03087 -0.192892 0
M  V30 6802 H 637.568 1.48537 -0.16038 0
M  V30 6803 H 639.45 3.59816 2.19341 0
M  V30 6804 H 638.125 2.40251 2.16935 0
M  V30 6805 H 637.032 3.73119 0.270773 0
M  V30 6806 H 638.365 4.90763 0.375887 0
M  V30 6807 N 640.017 0.126909 1.57088 0
M  V30 6808 C 641.433 -0.229641 1.57939 0
M  V30 6809 C 641.633 -1.66145 1.1401 0
M  V30 6810 O 640.689 -2.3843 0.831119 0
M  V30 6811 C 642.002 0.0108648 3.00698 0
M  V30 6812 C 643.55 -0.054418 3.12953 0
M  V30 6813 C 644.025 0.158497 4.57726 0
M  V30 6814 N 645.516 0.104735 4.63082 0
M  V30 6815 C 646.251 0.24427 5.72879 0
M  V30 6816 N 645.747 0.440415 6.91399 0
M  V30 6817 N 647.54 0.183286 5.61801 0
M  V30 6818 H 639.691 1.06203 1.83942 0
M  V30 6819 H 641.954 0.418834 0.85046 0
M  V30 6820 H 641.66 1.00102 3.37154 0
M  V30 6821 H 641.534 -0.717512 3.70313 0
M  V30 6822 H 643.921 -1.0351 2.7635 0
M  V30 6823 H 644.002 0.705967 2.45865 0
M  V30 6824 H 643.646 1.13619 4.95028 0
M  V30 6825 H 643.576 -0.62197 5.22914 0
M  V30 6826 H 646.067 -0.0430298 3.77876 0
M  V30 6827 H 646.38 0.537536 7.70928 0
M  V30 6828 H 644.725 0.476488 6.93365 0
M  V30 6829 H 647.916 0.0309561 4.6809 0
M  V30 6830 H 648.089 0.295471 6.47326 0
M  V30 6831 N 641.495 -1.56914 -0.146875 0
M  V30 6832 C 642.742 -1.83356 -0.859467 0
M  V30 6833 C 643.07 -0.707811 -1.81164 0
M  V30 6834 O 642.325 0.303155 -1.93338 0
M  V30 6835 C 642.624 -3.16128 -1.66727 0
M  V30 6836 C 642.29 -4.42586 -0.861881 0
M  V30 6837 C 640.952 -4.76929 -0.639687 0
M  V30 6838 C 643.304 -5.20344 -0.298643 0
M  V30 6839 C 640.632 -5.86491 0.156451 0
M  V30 6840 C 642.984 -6.30742 0.484536 0
M  V30 6841 C 641.648 -6.63635 0.717306 0
M  V30 6842 H 640.918 -0.670947 -0.314501 0
M  V30 6843 H 643.565 -1.91104 -0.123108 0
M  V30 6844 H 641.87 -3.03831 -2.47374 0
M  V30 6845 H 643.567 -3.33802 -2.2221 0
M  V30 6846 H 640.157 -4.15662 -1.04513 0
M  V30 6847 H 644.341 -4.94186 -0.457585 0
M  V30 6848 H 639.597 -6.10419 0.346292 0
M  V30 6849 H 643.771 -6.90188 0.928105 0
M  V30 6850 H 641.398 -7.48367 1.33607 0
M  V30 6851 N 642.974 0.416227 -1.52004 0
M  V30 6852 C 643.937 1.48926 -1.74223 0
M  V30 6853 C 644.937 1.48693 -0.612119 0
M  V30 6854 O 646.127 1.50343 -0.879921 0
M  V30 6855 C 643.259 2.88372 -1.81809 0
M  V30 6856 H 644.452 1.3052 -2.70008 0
M  V30 6857 H 642.005 0.646271 -1.42313 0
M  V30 6858 H 642.74 3.12157 -0.879135 0
M  V30 6859 H 642.525 2.89944 -2.6396 0
M  V30 6860 H 644.015 3.66173 -2.00766 0
M  V30 6861 N 644.452 1.42507 0.673017 0
M  V30 6862 C 645.68 1.46473 1.46128 0
M  V30 6863 C 646.095 0.0765912 1.88645 0
M  V30 6864 O 645.452 -0.909057 1.58248 0
M  V30 6865 C 645.503 2.39339 2.70923 0
M  V30 6866 O 645.224 3.72752 2.3019 0
M  V30 6867 C 646.725 2.52343 3.64469 0
M  V30 6868 H 643.945 0.49812 0.449575 0
M  V30 6869 H 646.489 1.87041 0.826802 0
M  V30 6870 H 644.644 2.02019 3.30556 0
M  V30 6871 H 645.058 4.22503 3.10791 0
M  V30 6872 H 646.532 3.2144 4.48754 0
M  V30 6873 H 647.009 1.56189 4.1049 0
M  V30 6874 H 647.615 2.90392 3.10729 0
M  V30 6875 N 645.93 -0.909495 1.28709 0
M  V30 6876 C 647.179 -1.65365 1.15487 0
M  V30 6877 C 647.492 -1.93364 -0.294941 0
M  V30 6878 O 648.698 -2.65905 -0.548338 0
M  V30 6879 C 647.154 -2.97923 2.01916 0
M  V30 6880 C 646.762 -2.77556 3.51663 0
M  V30 6881 C 648.506 -3.75814 1.97393 0
M  V30 6882 C 646.413 -4.0578 4.30229 0
M  V30 6883 H 645.343 -0.620323 0.42862 0
M  V30 6884 H 647.994 -1.00894 1.53273 0
M  V30 6885 H 646.376 -3.63552 1.5699 0
M  V30 6886 H 647.55 -2.2058 4.04575 0
M  V30 6887 H 645.865 -2.13072 3.57756 0
M  V30 6888 H 648.462 -4.70866 2.53357 0
M  V30 6889 H 648.805 -4.05277 0.951643 0
M  V30 6890 H 649.338 -3.1701 2.40311 0
M  V30 6891 H 646.077 -3.81488 5.33055 0
M  V30 6892 H 645.597 -4.62351 3.82089 0
M  V30 6893 H 647.276 -4.74004 4.40374 0
M  V30 6894 N 647.408 -1.11026 -1.11852 0
M  V30 6895 C 648.355 -0.764662 -2.17765 0
M  V30 6896 C 649.325 0.261854 -1.64023 0
M  V30 6897 O 650.51 0.139748 -1.90288 0
M  V30 6898 C 647.65 -0.209317 -3.44465 0
M  V30 6899 C 646.763 -1.29187 -4.12231 0
M  V30 6900 C 645.898 -0.697523 -5.266 0
M  V30 6901 C 644.937 -1.76023 -5.86244 0
M  V30 6902 N 644.074 -1.18569 -6.92016 0
M  V30 6903 H 648.914 -1.67202 -2.46673 0
M  V30 6904 H 646.451 -0.835065 -1.21099 0
M  V30 6905 H 648.409 0.130599 -4.16996 0
M  V30 6906 H 647.039 0.661251 -3.15955 0
M  V30 6907 H 646.091 -1.74881 -3.37818 0
M  V30 6908 H 647.403 -2.09607 -4.52622 0
M  V30 6909 H 646.557 -0.307412 -6.05921 0
M  V30 6910 H 645.296 0.138044 -4.87505 0
M  V30 6911 H 644.301 -2.1597 -5.05606 0
M  V30 6912 H 645.526 -2.59875 -6.27409 0
M  V30 6913 H 643.472 -0.371695 -6.54946 0
M  V30 6914 H 643.389 -1.92666 -7.31038 0
M  V30 6915 H 644.657 -0.82233 -7.7515 0
M  V30 6916 N 648.886 1.2938 -0.899927 0
M  V30 6917 C 650.111 2.00228 -0.540692 0
M  V30 6918 C 650.536 1.66909 0.867359 0
M  V30 6919 O 649.894 0.893824 1.57735 0
M  V30 6920 C 649.942 3.52921 -0.740232 0
M  V30 6921 O 649.046 4.11879 0.207154 0
M  V30 6922 H 648.387 0.629505 -0.211233 0
M  V30 6923 H 650.917 1.6487 -1.21158 0
M  V30 6924 H 650.927 4.0287 -0.644973 0
M  V30 6925 H 649.602 3.76508 -1.76677 0
M  V30 6926 H 648.179 3.72845 0.0643315 0
M  V30 6927 N 650.364 0.662433 1.43002 0
M  V30 6928 C 651.327 -0.0142016 2.29196 0
M  V30 6929 C 652.327 -0.741394 1.42688 0
M  V30 6930 O 653.517 -0.581257 1.64216 0
M  V30 6931 C 650.649 -1.03084 3.24941 0
M  V30 6932 H 651.842 0.7443 2.90517 0
M  V30 6933 H 649.395 0.424133 1.50435 0
M  V30 6934 H 650.13 -1.81826 2.68533 0
M  V30 6935 H 649.915 -0.512946 3.8873 0
M  V30 6936 H 651.405 -1.50308 3.89612 0
M  V30 6937 N 651.842 -1.52309 0.404946 0
M  V30 6938 C 653.067 -2.06666 -0.1743 0
M  V30 6939 C 653.492 -1.27341 -1.38441 0
M  V30 6940 O 652.85 -0.302539 -1.78758 0
M  V30 6941 C 652.898 -3.57014 -0.507262 0
M  V30 6942 O 652.002 -3.80144 -1.59889 0
M  V30 6943 H 651.343 -0.663807 -0.0160273 0
M  V30 6944 H 653.873 -1.96297 0.576937 0
M  V30 6945 H 653.883 -4.00724 -0.767098 0
M  V30 6946 H 652.558 -4.14184 0.377368 0
M  V30 6947 H 651.135 -3.48316 -1.33155 0
M  V30 6948 N 653.32 -0.135238 -1.57019 0
M  V30 6949 C 654.25 0.805235 -2.19176 0
M  V30 6950 C 655.231 1.2656 -1.13651 0
M  V30 6951 O 656.416 1.32528 -1.4195 0
M  V30 6952 C 653.546 2.04914 -2.80406 0
M  V30 6953 C 652.5 1.72598 -3.91655 0
M  V30 6954 C 651.826 3.04154 -4.39766 0
M  V30 6955 C 653.126 0.981709 -5.12991 0
M  V30 6956 H 654.82 0.287232 -2.98019 0
M  V30 6957 H 652.366 0.136714 -1.4335 0
M  V30 6958 H 654.319 2.71178 -3.22553 0
M  V30 6959 H 653.043 2.59067 -1.98877 0
M  V30 6960 H 651.702 1.08717 -3.50109 0
M  V30 6961 H 651.35 3.56274 -3.55075 0
M  V30 6962 H 651.05 2.83299 -5.14796 0
M  V30 6963 H 652.574 3.71509 -4.84576 0
M  V30 6964 H 653.988 1.5462 -5.52056 0
M  V30 6965 H 652.385 0.873533 -5.93708 0
M  V30 6966 H 653.455 -0.0286887 -4.84892 0
M  V30 6967 N 654.798 1.5699 0.138552 0
M  V30 6968 C 656.044 1.84081 0.85099 0
M  V30 6969 C 656.377 0.718107 1.80435 0
M  V30 6970 O 655.652 -0.277633 1.92508 0
M  V30 6971 C 655.935 3.21699 1.61808 0
M  V30 6972 C 655.788 4.44544 0.685633 0
M  V30 6973 C 657.107 3.5664 2.57868 0
M  V30 6974 H 654.226 0.669592 0.307922 0
M  V30 6975 H 656.868 1.89646 0.11588 0
M  V30 6976 H 655.018 3.17086 2.24474 0
M  V30 6977 H 656.69 4.61248 0.0693179 0
M  V30 6978 H 654.933 4.338 -0.00421993 0
M  V30 6979 H 655.604 5.3746 1.25858 0
M  V30 6980 H 658.08 3.61918 2.05316 0
M  V30 6981 H 656.956 4.53946 3.08584 0
M  V30 6982 H 657.217 2.83036 3.39622 0
M  V30 6983 N 656.276 -0.40816 1.52223 0
M  V30 6984 C 657.504 -1.17672 1.70179 0
M  V30 6985 C 657.919 -1.84257 0.411696 0
M  V30 6986 O 657.276 -1.7192 -0.612354 0
M  V30 6987 C 657.327 -2.23911 2.83806 0
M  V30 6988 O 657.048 -1.60044 4.0782 0
M  V30 6989 C 658.549 -3.1364 3.13281 0
M  V30 6990 H 655.769 -0.353562 0.570293 0
M  V30 6991 H 658.313 -0.480083 1.98785 0
M  V30 6992 H 656.468 -2.89242 2.57717 0
M  V30 6993 H 656.882 -2.30484 4.71145 0
M  V30 6994 H 658.356 -3.84255 3.96298 0
M  V30 6995 H 658.833 -3.76066 2.26872 0
M  V30 6996 H 659.439 -2.53977 3.41139 0
M  V30 6997 N 657.755 -1.42862 -0.66545 0
M  V30 6998 C 659.171 -1.25993 -0.979687 0
M  V30 6999 C 659.371 -0.170831 -2.00775 0
M  V30 7000 O 658.427 0.454827 -2.4837 0
M  V30 7001 C 659.74 -2.62005 -1.47559 0
M  V30 7002 C 661.288 -2.69437 -1.59288 0
M  V30 7003 C 661.763 -4.05838 -2.12272 0
M  V30 7004 N 663.254 -4.0784 -2.19592 0
M  V30 7005 C 663.989 -5.10205 -2.61684 0
M  V30 7006 N 663.485 -6.22949 -3.03161 0
M  V30 7007 N 665.278 -4.9756 -2.61516 0
M  V30 7008 H 657.429 -2.12395 0.0150493 0
M  V30 7009 H 659.692 -0.946355 -0.0558187 0
M  V30 7010 H 659.398 -3.42605 -0.794654 0
M  V30 7011 H 659.272 -2.86566 -2.45275 0
M  V30 7012 H 661.659 -1.89178 -2.26486 0
M  V30 7013 H 661.74 -2.48655 -0.600374 0
M  V30 7014 H 661.384 -4.86559 -1.4568 0
M  V30 7015 H 661.314 -4.23977 -3.12331 0
M  V30 7016 H 663.805 -3.26452 -1.90361 0
M  V30 7017 H 664.118 -6.96899 -3.33993 0
M  V30 7018 H 662.463 -6.2644 -3.00995 0
M  V30 7019 H 665.654 -4.08551 -2.28481 0
M  V30 7020 H 665.827 -5.77468 -2.93999 0
M  V30 7021 N 659.233 0.902656 -1.29189 0
M  V30 7022 C 660.165 2.01149 -1.09872 0
M  V30 7023 C 661.178 1.62732 -0.0471046 0
M  V30 7024 O 662.367 1.76107 -0.29132 0
M  V30 7025 C 659.467 3.32612 -0.649818 0
M  V30 7026 C 658.64 3.99574 -1.7793 0
M  V30 7027 C 657.699 5.09325 -1.32191 0
M  V30 7028 O 656.725 5.31919 -2.02611 0
M  V30 7029 N 657.927 5.80185 -0.191171 0
M  V30 7030 H 660.692 2.18276 -2.05368 0
M  V30 7031 H 658.253 1.07466 -1.2109 0
M  V30 7032 H 660.245 4.03375 -0.327199 0
M  V30 7033 H 658.815 3.11876 0.212597 0
M  V30 7034 H 658.035 3.22213 -2.27095 0
M  V30 7035 H 659.323 4.41056 -2.53668 0
M  V30 7036 H 658.721 5.64312 0.396016 0
M  V30 7037 H 657.278 6.5176 0.0721001 0
M  V30 7038 N 660.711 1.11618 1.11262 0
M  V30 7039 C 661.96 0.860934 1.82403 0
M  V30 7040 C 662.273 -0.615303 1.8567 0
M  V30 7041 O 663.479 -0.986861 2.52929 0
M  V30 7042 C 661.935 1.49048 3.27586 0
M  V30 7043 C 661.543 3.00089 3.32642 0
M  V30 7044 C 663.287 1.31515 4.03614 0
M  V30 7045 C 661.194 3.56019 4.72234 0
M  V30 7046 H 660.124 0.318423 0.683464 0
M  V30 7047 H 662.775 1.34165 1.25188 0
M  V30 7048 H 661.157 0.937434 3.84744 0
M  V30 7049 H 662.331 3.61813 2.85356 0
M  V30 7050 H 660.646 3.16919 2.70096 0
M  V30 7051 H 663.243 1.70732 5.0671 0
M  V30 7052 H 663.586 0.257917 4.155 0
M  V30 7053 H 664.119 1.83694 3.52848 0
M  V30 7054 H 660.858 4.61463 4.65545 0
M  V30 7055 H 660.378 2.99066 5.19923 0
M  V30 7056 H 662.057 3.54568 5.41193 0
M  V30 7057 N 662.189 -1.289 0.906776 0
M  V30 7058 C 663.139 -2.25122 0.361109 0
M  V30 7059 C 664.123 -1.52169 -0.52283 0
M  V30 7060 O 665.315 -1.73223 -0.363691 0
M  V30 7061 C 662.444 -3.40915 -0.403982 0
M  V30 7062 C 661.53 -4.21198 0.495279 0
M  V30 7063 N 661.921 -4.79636 1.60572 0
M  V30 7064 C 660.219 -4.45027 0.294372 0
M  V30 7065 C 660.92 -5.39977 2.16332 0
M  V30 7066 N 659.896 -5.23753 1.45546 0
M  V30 7067 H 663.698 -2.67869 1.20927 0
M  V30 7068 H 661.212 -1.43592 0.758632 0
M  V30 7069 H 663.209 -4.08922 -0.811695 0
M  V30 7070 H 661.869 -2.99703 -1.24932 0
M  V30 7071 H 662.88 -4.78209 1.98838 0
M  V30 7072 H 659.557 -4.14348 -0.512021 0
M  V30 7073 H 660.947 -5.96266 3.09704 0
M  V30 7074 N 663.667 -0.670007 -1.42649 0
M  V30 7075 C 664.577 0.0114788 -2.34597 0
M  V30 7076 C 665.593 0.794055 -1.54825 0
M  V30 7077 O 666.769 0.737472 -1.87412 0
M  V30 7078 C 663.834 0.954436 -3.33304 0
M  V30 7079 C 662.895 0.166925 -4.28975 0
M  V30 7080 C 662.128 1.06497 -5.22967 0
M  V30 7081 O 662.351 2.30446 -5.21777 0
M  V30 7082 O 661.285 0.528347 -5.99577 0
M  V30 7083 H 665.111 -0.745794 -2.944 0
M  V30 7084 H 662.696 -0.430228 -1.43071 0
M  V30 7085 H 664.578 1.49589 -3.93956 0
M  V30 7086 H 663.253 1.69164 -2.7598 0
M  V30 7087 H 662.16 -0.418515 -3.71752 0
M  V30 7088 H 663.493 -0.531067 -4.89327 0
M  V30 7089 N 665.145 1.52092 -0.413018 0
M  V30 7090 C 666.095 2.23947 0.427993 0
M  V30 7091 C 667.079 1.25229 1.01027 0
M  V30 7092 O 668.271 1.50448 0.932444 0
M  V30 7093 C 665.4 3.0672 1.542 0
M  V30 7094 C 664.486 4.12851 0.970307 0
M  V30 7095 N 664.877 5.05644 0.125611 0
M  V30 7096 C 663.175 4.28404 1.24042 0
M  V30 7097 C 663.876 5.8138 -0.192876 0
M  V30 7098 N 662.852 5.41996 0.417273 0
M  V30 7099 H 666.654 2.93048 -0.223628 0
M  V30 7100 H 664.168 1.60852 -0.223664 0
M  V30 7101 H 666.165 3.56754 2.15714 0
M  V30 7102 H 664.825 2.39159 2.19621 0
M  V30 7103 H 665.836 5.17348 -0.238995 0
M  V30 7104 H 662.513 3.72071 1.89391 0
M  V30 7105 H 663.903 6.66129 -0.878762 0
M  V30 7106 N 666.623 0.143563 1.56945 0
M  V30 7107 C 667.533 -0.810562 2.20152 0
M  V30 7108 C 668.549 -1.27431 1.1848 0
M  V30 7109 O 669.725 -1.33221 1.51044 0
M  V30 7110 C 666.79 -2.03353 2.80799 0
M  V30 7111 C 665.851 -1.61936 3.97587 0
M  V30 7112 C 665.084 -2.78403 4.55332 0
M  V30 7113 O 665.307 -3.94521 4.11958 0
M  V30 7114 O 664.241 -2.54073 5.45647 0
M  V30 7115 H 668.067 -0.30253 3.02189 0
M  V30 7116 H 665.652 -0.0832925 1.49168 0
M  V30 7117 H 667.534 -2.74932 3.19359 0
M  V30 7118 H 666.209 -2.53116 2.01777 0
M  V30 7119 H 665.116 -0.873904 3.6375 0
M  V30 7120 H 666.449 -1.16892 4.78118 0
M  V30 7121 N 668.101 -1.57061 -0.130224 0
M  V30 7122 C 669.033 -1.96147 -1.18571 0
M  V30 7123 C 670.046 -0.859347 -1.38272 0
M  V30 7124 O 671.235 -1.13769 -1.37545 0
M  V30 7125 C 668.335 -2.23484 -2.54771 0
M  V30 7126 C 667.508 -3.54786 -2.55824 0
M  V30 7127 C 666.567 -3.70467 -3.73686 0
M  V30 7128 O 665.593 -4.42693 -3.57787 0
M  V30 7129 N 666.795 -3.08389 -4.91809 0
M  V30 7130 H 669.56 -2.87295 -0.853333 0
M  V30 7131 H 667.121 -1.58714 -0.319621 0
M  V30 7132 H 669.113 -2.312 -3.32158 0
M  V30 7133 H 667.683 -1.38518 -2.80235 0
M  V30 7134 H 666.903 -3.5836 -1.64232 0
M  V30 7135 H 668.191 -4.4111 -2.53573 0
M  V30 7136 H 667.589 -2.49656 -5.0763 0
M  V30 7137 H 666.146 -3.21642 -5.66912 0
M  V30 7138 N 669.579 0.400081 -1.52437 0
M  V30 7139 C 670.489 1.51253 -1.79331 0
M  V30 7140 C 671.505 1.60188 -0.679396 0
M  V30 7141 O 672.681 1.76733 -0.965791 0
M  V30 7142 C 669.746 2.869 -1.94652 0
M  V30 7143 C 668.807 2.87777 -3.18564 0
M  V30 7144 C 668.04 4.16954 -3.33145 0
M  V30 7145 O 668.263 5.11329 -2.52783 0
M  V30 7146 O 667.197 4.2487 -4.26343 0
M  V30 7147 H 671.023 1.31461 -2.73773 0
M  V30 7148 H 668.608 0.586834 -1.37392 0
M  V30 7149 H 670.49 3.67336 -2.065 0
M  V30 7150 H 669.165 3.06741 -1.034 0
M  V30 7151 H 668.072 2.06162 -3.12167 0
M  V30 7152 H 669.405 2.72886 -4.09627 0
M  V30 7153 N 671.057 1.43213 0.657864 0
M  V30 7154 C 672.005 1.48271 1.79216 0
M  V30 7155 C 672.999 0.35675 1.65601 0
M  V30 7156 O 674.205 0.530535 1.72004 0
M  V30 7157 H 670.58 0.464729 0.591211 0
M  V30 7158 H 672.551 2.43792 1.7207 0
M  V30 7159 C 671.3 1.41837 3.17455 0
M  V30 7160 H 670.623 2.27781 3.28567 0
M  V30 7161 H 672.063 1.49438 3.96793 0
M  V30 7162 C 670.522 0.135347 3.36628 0
M  V30 7163 O 671.052 -0.805199 3.93547 0
M  V30 7164 N 669.258 0.0470316 2.90562 0
M  V30 7165 H 668.805 0.813221 2.44427 0
M  V30 7166 H 668.763 -0.810737 3.03767 0
M  V30 7167 N 672.536 -0.895792 1.29666 0
M  V30 7168 C 673.446 -2.03329 1.17024 0
M  V30 7169 C 674.462 -1.73753 0.0925962 0
M  V30 7170 O 675.638 -1.99071 0.305431 0
M  V30 7171 C 672.703 -3.36072 0.851841 0
M  V30 7172 C 671.764 -3.7914 2.01373 0
M  V30 7173 C 670.997 -5.05549 1.71043 0
M  V30 7174 O 671.22 -5.66874 0.633213 0
M  V30 7175 O 670.154 -5.44764 2.5596 0
M  V30 7176 H 673.98 -2.16918 2.12556 0
M  V30 7177 H 671.565 -1.02007 1.09156 0
M  V30 7178 H 673.447 -4.15729 0.689006 0
M  V30 7179 H 672.122 -3.23616 -0.0736634 0
M  V30 7180 H 671.029 -3.00233 2.23183 0
M  V30 7181 H 672.362 -3.96186 2.92058 0
M  V30 7182 N 674.014 -1.12206 -1.10668 0
M  V30 7183 C 674.944 -0.810086 -2.18997 0
M  V30 7184 C 675.925 0.225065 -1.68604 0
M  V30 7185 O 677.11 0.086783 -1.94006 0
M  V30 7186 C 674.24 -0.261262 -3.46316 0
M  V30 7187 C 673.194 -1.2292 -4.09969 0
M  V30 7188 C 672.52 -0.540713 -5.31959 0
M  V30 7189 C 673.82 -2.58295 -4.53962 0
M  V30 7190 H 675.514 -1.7159 -2.45352 0
M  V30 7191 H 673.06 -0.82646 -1.17922 0
M  V30 7192 H 675.013 -0.0307522 -4.21389 0
M  V30 7193 H 673.737 0.679879 -3.19445 0
M  V30 7194 H 672.396 -1.44548 -3.369 0
M  V30 7195 H 672.044 0.405492 -5.01363 0
M  V30 7196 H 671.744 -1.18637 -5.75499 0
M  V30 7197 H 673.268 -0.319184 -6.09765 0
M  V30 7198 H 674.682 -2.40709 -5.20319 0
M  V30 7199 H 673.079 -3.18916 -5.08343 0
M  V30 7200 H 674.149 -3.16918 -3.67002 0
M  V30 7201 N 675.492 1.28418 -0.913599 0
M  V30 7202 C 676.908 1.47411 -0.611728 0
M  V30 7203 C 677.108 1.83018 0.843008 0
M  V30 7204 O 676.164 1.93505 1.6221 0
M  V30 7205 C 677.477 2.57703 -1.5495 0
M  V30 7206 C 679.025 2.71572 -1.5562 0
M  V30 7207 C 679.5 3.85008 -2.48058 0
M  V30 7208 N 680.991 3.92361 -2.46184 0
M  V30 7209 C 681.726 4.79516 -3.14407 0
M  V30 7210 N 681.222 5.71262 -3.91958 0
M  V30 7211 N 683.015 4.73125 -3.03495 0
M  V30 7212 H 675.166 1.03585 -1.85429 0
M  V30 7213 H 677.429 0.515907 -0.795326 0
M  V30 7214 H 677.135 2.38298 -2.58663 0
M  V30 7215 H 677.009 3.54801 -1.28048 0
M  V30 7216 H 679.396 2.90366 -0.526441 0
M  V30 7217 H 679.477 1.75006 -1.86565 0
M  V30 7218 H 679.121 3.66969 -3.51136 0
M  V30 7219 H 679.051 4.80971 -2.14416 0
M  V30 7220 H 681.542 3.26749 -1.89851 0
M  V30 7221 H 681.855 6.34593 -4.41034 0
M  V30 7222 H 680.2 5.71103 -3.96063 0
M  V30 7223 H 683.391 4.00442 -2.42413 0
M  V30 7224 H 683.564 5.40834 -3.56935 0
M  V30 7225 N 676.97 0.677563 1.42291 0
M  V30 7226 C 677.88 0.000962654 2.346 0
M  V30 7227 C 678.896 -0.785833 1.55244 0
M  V30 7228 O 680.072 -0.727523 1.87801 0
M  V30 7229 C 677.137 -0.936746 3.33805 0
M  V30 7230 C 676.198 -0.144173 4.29058 0
M  V30 7231 C 675.431 -1.03722 5.23524 0
M  V30 7232 O 675.654 -2.27675 5.22992 0
M  V30 7233 O 674.588 -0.496542 5.99848 0
M  V30 7234 H 678.414 0.761397 2.94001 0
M  V30 7235 H 675.999 0.43781 1.42841 0
M  V30 7236 H 677.881 -1.47497 3.94744 0
M  V30 7237 H 676.556 -1.67698 2.76874 0
M  V30 7238 H 675.463 0.438224 3.71524 0
M  V30 7239 H 676.796 0.55701 4.89038 0
M  V30 7240 N 678.448 -1.51871 0.421078 0
M  V30 7241 C 679.38 -2.25052 -0.434065 0
M  V30 7242 C 680.393 -1.28458 -1.00013 0
M  V30 7243 O 681.582 -1.54323 -0.897033 0
M  V30 7244 C 678.682 -2.97813 -1.61743 0
M  V30 7245 C 677.855 -4.21374 -1.17315 0
M  V30 7246 C 676.914 -4.76854 -2.22478 0
M  V30 7247 O 675.94 -5.39123 -1.82577 0
M  V30 7248 N 677.142 -4.59467 -3.54782 0
M  V30 7249 H 679.907 -2.99077 0.193073 0
M  V30 7250 H 677.468 -1.59972 0.249088 0
M  V30 7251 H 679.46 -3.3182 -2.31685 0
M  V30 7252 H 678.03 -2.26899 -2.15024 0
M  V30 7253 H 677.25 -3.93046 -0.3014 0
M  V30 7254 H 678.538 -5.01591 -0.853444 0
M  V30 7255 H 677.936 -4.09832 -3.89941 0
M  V30 7256 H 676.493 -4.9788 -4.20665 0
M  V30 7257 N 679.926 -0.151884 -1.56866 0
M  V30 7258 C 680.859 0.824094 -2.128 0
M  V30 7259 C 681.837 1.2391 -1.05286 0
M  V30 7260 O 683.021 1.33433 -1.33146 0
M  V30 7261 C 680.148 2.1072 -2.65169 0
M  V30 7262 C 679.194 1.83774 -3.84876 0
M  V30 7263 S 680.027 1.02436 -5.25611 0
M  V30 7264 C 681.183 2.31855 -5.81373 0
M  V30 7265 H 681.416 0.348456 -2.95251 0
M  V30 7266 H 678.949 0.0624794 -1.54274 0
M  V30 7267 H 680.907 2.84428 -2.95992 0
M  V30 7268 H 679.568 2.55398 -1.8284 0
M  V30 7269 H 678.761 2.78929 -4.19779 0
M  V30 7270 H 678.363 1.18172 -3.5484 0
M  V30 7271 H 680.655 3.27469 -5.93102 0
M  V30 7272 H 681.598 2.01449 -6.7884 0
M  V30 7273 H 682.006 2.42727 -5.09651 0
M  V30 7274 N 681.404 1.57128 0.121893 0
M  V30 7275 C 682.629 1.89254 0.848385 0
M  V30 7276 C 683.054 0.743527 1.72781 0
M  V30 7277 O 682.412 -0.306056 1.78698 0
M  V30 7278 C 682.46 3.20113 1.66012 0
M  V30 7279 O 681.564 3.05815 2.76679 0
M  V30 7280 H 680.905 0.621103 0.234793 0
M  V30 7281 H 683.435 2.0433 0.10516 0
M  V30 7282 H 683.445 3.52761 2.04996 0
M  V30 7283 H 682.12 4.03336 1.01452 0
M  V30 7284 H 680.697 2.84627 2.40918 0
M  V30 7285 N 682.882 -0.391992 1.52647 0
M  V30 7286 C 684.13 -1.13507 1.67214 0
M  V30 7287 C 684.451 -1.90575 0.41304 0
M  V30 7288 O 683.721 -1.87348 -0.572498 0
M  V30 7289 H 682.301 -0.422013 0.616372 0
M  V30 7290 H 684.963 -0.44502 1.89751 0
M  V30 7291 H 684.059 -1.83964 2.52118 0
M  V30 7292 N 684.36 -1.4356 -0.65026 0
M  V30 7293 C 685.59 -1.48563 -1.4357 0
M  V30 7294 C 685.998 -0.103041 -1.88919 0
M  V30 7295 O 685.341 0.897602 -1.60277 0
M  V30 7296 C 685.403 -2.37181 -2.70158 0
M  V30 7297 C 685.067 -3.84673 -2.4673 0
M  V30 7298 C 686.064 -4.75704 -2.09765 0
M  V30 7299 C 683.749 -4.29189 -2.60963 0
M  V30 7300 C 685.743 -6.09249 -1.87334 0
M  V30 7301 C 683.43 -5.62787 -2.38147 0
M  V30 7302 C 684.428 -6.52634 -2.01389 0
M  V30 7303 O 684.116 -7.83761 -1.78813 0
M  V30 7304 H 683.848 -0.506743 -0.447423 0
M  V30 7305 H 686.402 -1.89001 -0.80423 0
M  V30 7306 H 684.632 -1.91636 -3.35876 0
M  V30 7307 H 686.321 -2.33354 -3.32116 0
M  V30 7308 H 687.087 -4.42589 -1.98343 0
M  V30 7309 H 682.966 -3.59529 -2.88548 0
M  V30 7310 H 686.51 -6.7934 -1.58567 0
M  V30 7311 H 682.407 -5.95469 -2.49173 0
M  V30 7312 H 683.175 -7.95368 -1.93214 0
M  V30 7313 N 685.838 0.888903 -1.30139 0
M  V30 7314 C 686.785 1.99422 -1.16188 0
M  V30 7315 C 687.755 1.66017 -0.0523869 0
M  V30 7316 O 688.94 1.89506 -0.221864 0
M  V30 7317 C 686.08 3.34325 -0.855612 0
M  V30 7318 C 685.193 3.80445 -2.0466 0
M  V30 7319 C 684.328 5.03975 -1.67876 0
M  V30 7320 C 683.367 5.42492 -2.83493 0
M  V30 7321 N 682.504 6.57206 -2.47032 0
M  V30 7322 H 687.344 2.10687 -2.10749 0
M  V30 7323 H 684.881 1.03165 -1.04859 0
M  V30 7324 H 686.839 4.11968 -0.658681 0
M  V30 7325 H 685.469 3.22756 0.0531155 0
M  V30 7326 H 684.521 2.98745 -2.3549 0
M  V30 7327 H 685.833 4.04933 -2.91257 0
M  V30 7328 H 684.987 5.89232 -1.44535 0
M  V30 7329 H 683.726 4.8135 -0.784431 0
M  V30 7330 H 682.731 4.55764 -3.07505 0
M  V30 7331 H 683.956 5.67093 -3.73607 0
M  V30 7332 H 681.902 6.36164 -1.601 0
M  V30 7333 H 681.819 6.81543 -3.27161 0
M  V30 7334 H 683.087 7.45704 -2.27038 0
M  V30 7335 N 687.317 1.12792 1.10072 0
M  V30 7336 C 688.733 0.864745 1.34143 0
M  V30 7337 C 688.933 -0.503201 1.95116 0
M  V30 7338 O 687.989 -1.25111 2.19325 0
M  V30 7339 C 689.302 1.98413 2.25949 0
M  V30 7340 C 690.85 2.01545 2.39476 0
M  V30 7341 C 691.325 3.12727 3.34613 0
M  V30 7342 N 692.816 3.12194 3.42183 0
M  V30 7343 C 693.551 3.94862 4.15779 0
M  V30 7344 N 693.047 4.87528 4.92228 0
M  V30 7345 N 694.84 3.82985 4.11435 0
M  V30 7346 H 686.991 2.00926 0.68866 0
M  V30 7347 H 689.254 0.874564 0.365844 0
M  V30 7348 H 688.96 2.97005 1.88364 0
M  V30 7349 H 688.834 1.89254 3.26287 0
M  V30 7350 H 691.221 1.0357 2.76328 0
M  V30 7351 H 691.302 2.14777 1.3894 0
M  V30 7352 H 690.946 4.10936 2.98486 0
M  V30 7353 H 690.876 2.96732 4.35037 0
M  V30 7354 H 693.367 2.45065 2.87666 0
M  V30 7355 H 693.68 5.47109 5.45794 0
M  V30 7356 H 692.025 4.91539 4.9134 0
M  V30 7357 H 695.216 3.09923 3.50807 0
M  V30 7358 H 695.389 4.47641 4.68531 0
M  V30 7359 N 688.795 -1.27931 0.920396 0
M  V30 7360 C 689.728 -2.2537 0.358285 0
M  V30 7361 C 690.706 -1.53328 -0.541242 0
M  V30 7362 O 691.89 -1.82196 -0.483399 0
M  V30 7363 C 689.017 -3.35178 -0.487193 0
M  V30 7364 C 688.063 -4.25079 0.347881 0
M  V30 7365 S 688.896 -5.05792 1.75883 0
M  V30 7366 C 690.052 -6.19089 0.920832 0
M  V30 7367 H 690.285 -2.72701 1.18413 0
M  V30 7368 H 687.818 -1.36474 0.722088 0
M  V30 7369 H 689.776 -3.98895 -0.96916 0
M  V30 7370 H 688.437 -2.865 -1.28749 0
M  V30 7371 H 687.63 -5.03113 -0.298912 0
M  V30 7372 H 687.232 -3.66119 0.763748 0
M  V30 7373 H 689.524 -6.77326 0.15349 0
M  V30 7374 H 690.467 -6.8803 1.67394 0
M  V30 7375 H 690.875 -5.62573 0.466069 0
M  V30 7376 N 690.273 -0.685099 -1.4193 0
M  V30 7377 C 691.689 -0.355632 -1.55587 0
M  V30 7378 C 691.889 1.13823 -1.66273 0
M  V30 7379 O 690.945 1.92387 -1.63534 0
M  V30 7380 C 692.258 -1.09498 -2.80055 0
M  V30 7381 C 693.806 -1.07831 -2.93839 0
M  V30 7382 C 694.281 -1.79919 -4.21181 0
M  V30 7383 N 695.772 -1.76837 -4.28115 0
M  V30 7384 C 696.507 -2.29463 -5.25485 0
M  V30 7385 N 696.003 -2.90516 -6.28945 0
M  V30 7386 N 697.796 -2.19779 -5.17353 0
M  V30 7387 H 689.947 -1.65412 -1.33239 0
M  V30 7388 H 692.21 -0.697453 -0.642078 0
M  V30 7389 H 691.916 -2.14997 -2.78333 0
M  V30 7390 H 691.79 -0.666813 -3.71259 0
M  V30 7391 H 694.177 -0.0316152 -2.95083 0
M  V30 7392 H 694.258 -1.54545 -2.03837 0
M  V30 7393 H 693.902 -2.84562 -4.20698 0
M  V30 7394 H 693.832 -1.30647 -5.10136 0
M  V30 7395 H 696.323 -1.32315 -3.53979 0
M  V30 7396 H 696.636 -3.28266 -6.99615 0
M  V30 7397 H 694.981 -2.94589 -6.29478 0
M  V30 7398 H 698.172 -1.71763 -4.35448 0
M  V30 7399 H 698.345 -2.61097 -5.9307 0
M  V30 7400 N 691.751 1.51645 -0.429126 0
M  V30 7401 C 693.167 1.59394 -0.080994 0
M  V30 7402 C 693.367 1.44064 1.40882 0
M  V30 7403 O 692.423 1.27771 2.17786 0
M  V30 7404 C 693.736 2.94779 -0.593773 0
M  V30 7405 C 695.284 3.08067 -0.553494 0
M  V30 7406 C 695.759 4.45963 -1.04311 0
M  V30 7407 N 697.25 4.5226 -1.00076 0
M  V30 7408 C 697.985 5.57268 -1.35056 0
M  V30 7409 N 697.481 6.69734 -1.77282 0
M  V30 7410 N 699.274 5.47582 -1.26925 0
M  V30 7411 H 691.425 1.59856 -1.39857 0
M  V30 7412 H 693.688 0.753095 -0.575805 0
M  V30 7413 H 693.394 3.11342 -1.63583 0
M  V30 7414 H 693.268 3.77197 -0.0142202 0
M  V30 7415 H 695.655 2.91177 0.479556 0
M  V30 7416 H 695.736 2.27508 -1.16935 0
M  V30 7417 H 695.38 4.63598 -2.07459 0
M  V30 7418 H 695.31 5.25049 -0.403873 0
M  V30 7419 H 697.801 3.71537 -0.690564 0
M  V30 7420 H 698.114 7.4587 -2.02232 0
M  V30 7421 H 696.459 6.70963 -1.81202 0
M  V30 7422 H 699.65 4.58604 -0.93809 0
M  V30 7423 H 699.823 6.29308 -1.54516 0
M  V30 7424 N 693.229 0.160201 1.56784 0
M  V30 7425 C 694.161 -0.80564 2.14574 0
M  V30 7426 C 695.174 -1.20154 1.09849 0
M  V30 7427 O 696.363 -1.14333 1.37078 0
M  V30 7428 C 693.463 -2.09434 2.6644 0
M  V30 7429 C 692.636 -1.86375 3.95706 0
M  V30 7430 C 691.695 -2.99358 4.32749 0
M  V30 7431 O 690.721 -2.70475 5.00831 0
M  V30 7432 N 691.923 -4.26867 3.93402 0
M  V30 7433 H 694.688 -0.311644 2.98075 0
M  V30 7434 H 692.249 -0.0229465 1.61884 0
M  V30 7435 H 694.241 -2.84091 2.88226 0
M  V30 7436 H 692.811 -2.50057 1.8759 0
M  V30 7437 H 692.031 -0.956821 3.82412 0
M  V30 7438 H 693.319 -1.68322 4.80151 0
M  V30 7439 H 692.717 -4.53197 3.38569 0
M  V30 7440 H 691.274 -4.98263 4.20211 0
M  V30 7441 N 694.707 -1.5719 -0.113559 0
M  V30 7442 C 695.657 -1.97166 -1.14497 0
M  V30 7443 C 696.641 -0.847413 -1.36776 0
M  V30 7444 O 697.833 -1.11114 -1.37777 0
M  V30 7445 C 694.962 -2.38411 -2.47013 0
M  V30 7446 C 694.048 -3.5748 -2.28185 0
M  V30 7447 N 694.439 -4.72998 -1.79182 0
M  V30 7448 C 692.737 -3.63218 -2.58821 0
M  V30 7449 C 693.438 -5.55007 -1.74191 0
M  V30 7450 N 692.414 -4.9765 -2.18735 0
M  V30 7451 H 696.216 -2.83937 -0.758733 0
M  V30 7452 H 693.73 -1.59191 -0.321234 0
M  V30 7453 H 695.727 -2.65269 -3.21618 0
M  V30 7454 H 694.387 -1.53007 -2.8639 0
M  V30 7455 H 695.398 -4.96109 -1.48649 0
M  V30 7456 H 692.075 -2.88434 -3.01847 0
M  V30 7457 H 693.465 -6.57678 -1.37512 0
M  V30 7458 N 696.185 0.383891 -1.52853 0
M  V30 7459 C 697.117 1.48889 -1.74255 0
M  V30 7460 C 698.13 1.50405 -0.623063 0
M  V30 7461 O 699.319 1.54215 -0.898887 0
M  V30 7462 C 696.419 2.87721 -1.79081 0
M  V30 7463 C 695.592 3.10111 -3.08464 0
M  V30 7464 C 694.651 4.28954 -3.0477 0
M  V30 7465 O 693.677 4.25012 -3.78621 0
M  V30 7466 N 694.879 5.35411 -2.24311 0
M  V30 7467 H 697.644 1.30915 -2.69595 0
M  V30 7468 H 695.205 0.573454 -1.51404 0
M  V30 7469 H 697.197 3.65333 -1.7411 0
M  V30 7470 H 695.767 2.99029 -0.911052 0
M  V30 7471 H 694.987 2.20319 -3.26884 0
M  V30 7472 H 696.275 3.21928 -3.94005 0
M  V30 7473 H 695.673 5.41471 -1.63787 0
M  V30 7474 H 694.23 6.1167 -2.25175 0
M  V30 7475 N 697.663 1.43903 0.642637 0
M  V30 7476 C 698.61 1.49881 1.75512 0
M  V30 7477 C 699.58 0.347538 1.62423 0
M  V30 7478 O 700.765 0.556177 1.82514 0
M  V30 7479 C 697.905 1.43797 3.13714 0
M  V30 7480 C 697.018 2.6921 3.37861 0
M  V30 7481 C 696.153 2.5504 4.6597 0
M  V30 7482 C 695.192 3.75671 4.83257 0
M  V30 7483 N 694.329 3.60247 6.02633 0
M  V30 7484 H 699.169 2.44935 1.69737 0
M  V30 7485 H 696.706 1.21572 0.828165 0
M  V30 7486 H 698.664 1.38262 3.93624 0
M  V30 7487 H 697.294 0.523173 3.18532 0
M  V30 7488 H 696.346 2.8498 2.51973 0
M  V30 7489 H 697.658 3.58786 3.46517 0
M  V30 7490 H 696.812 2.47273 5.54023 0
M  V30 7491 H 695.551 1.63006 4.59653 0
M  V30 7492 H 694.556 3.83836 3.93637 0
M  V30 7493 H 695.781 4.68728 4.91397 0
M  V30 7494 H 693.727 2.70955 5.97427 0
M  V30 7495 H 693.644 4.43431 6.12295 0
M  V30 7496 H 694.912 3.56351 6.93278 0
M  V30 7497 N 699.141 -0.881989 1.30609 0
M  V30 7498 C 700.073 -1.99375 1.13058 0
M  V30 7499 C 701.086 -1.62636 0.0729879 0
M  V30 7500 O 702.275 -1.75621 0.319301 0
M  V30 7501 C 699.375 -3.31536 0.702651 0
M  V30 7502 C 698.548 -3.96693 1.84265 0
M  V30 7503 C 697.607 -5.07158 1.40277 0
M  V30 7504 O 696.633 -5.28628 2.11048 0
M  V30 7505 N 697.835 -5.79808 0.283449 0
M  V30 7506 H 700.6 -2.14981 2.08814 0
M  V30 7507 H 698.161 -1.05526 1.22784 0
M  V30 7508 H 700.153 -4.02804 0.391331 0
M  V30 7509 H 698.723 -3.12175 -0.162954 0
M  V30 7510 H 697.943 -3.1856 2.32192 0
M  V30 7511 H 699.231 -4.36964 2.60653 0
M  V30 7512 H 698.629 -5.64871 -0.306189 0
M  V30 7513 H 697.186 -6.51792 0.0315985 0
M  V30 7514 N 700.619 -1.13374 -1.09472 0
M  V30 7515 C 701.549 -0.833268 -2.18126 0
M  V30 7516 C 702.53 0.207169 -1.68834 0
M  V30 7517 O 703.715 0.0662012 -1.94087 0
M  V30 7518 C 700.845 -0.297979 -3.46019 0
M  V30 7519 C 699.799 -1.27261 -4.08642 0
M  V30 7520 C 699.125 -0.597104 -5.31356 0
M  V30 7521 C 700.425 -2.63095 -4.51197 0
M  V30 7522 H 702.119 -1.74182 -2.43518 0
M  V30 7523 H 699.665 -0.838921 -1.17039 0
M  V30 7524 H 701.618 -0.0754444 -4.21332 0
M  V30 7525 H 700.342 0.645959 -3.20148 0
M  V30 7526 H 699.001 -1.48113 -3.35348 0
M  V30 7527 H 698.649 0.352293 -5.01765 0
M  V30 7528 H 698.349 -1.24734 -5.74208 0
M  V30 7529 H 699.873 -0.38384 -6.09392 0
M  V30 7530 H 701.287 -2.46214 -5.17737 0
M  V30 7531 H 699.684 -3.2429 -5.04932 0
M  V30 7532 H 700.754 -3.20793 -3.6362 0
M  V30 7533 N 702.098 1.27442 -0.927168 0
M  V30 7534 C 703.347 1.93679 -0.563146 0
M  V30 7535 C 703.66 1.73673 0.899837 0
M  V30 7536 O 704.866 2.34247 1.37262 0
M  V30 7537 C 703.322 3.46961 -0.95636 0
M  V30 7538 C 702.93 3.75724 -2.43999 0
M  V30 7539 C 704.674 4.19282 -0.663565 0
M  V30 7540 C 702.581 5.22378 -2.77263 0
M  V30 7541 H 701.511 0.725059 -0.206894 0
M  V30 7542 H 704.162 1.44743 -1.12791 0
M  V30 7543 H 702.544 3.94703 -0.320254 0
M  V30 7544 H 703.718 3.38741 -3.12396 0
M  V30 7545 H 702.033 3.16605 -2.70463 0
M  V30 7546 H 704.63 5.27265 -0.888596 0
M  V30 7547 H 704.973 4.14382 0.399198 0
M  V30 7548 H 705.506 3.7736 -1.25875 0
M  V30 7549 H 702.245 5.32367 -3.82446 0
M  V30 7550 H 701.765 5.6051 -2.13516 0
M  V30 7551 H 703.444 5.9025 -2.64979 0
M  V30 7552 N 703.576 0.692616 1.41565 0
M  V30 7553 C 704.539 0.0344174 2.29174 0
M  V30 7554 C 705.539 -0.710961 1.44229 0
M  V30 7555 O 706.729 -0.546293 1.65412 0
M  V30 7556 C 703.861 -0.961682 3.27054 0
M  V30 7557 H 705.054 0.805755 2.88873 0
M  V30 7558 H 702.607 0.455947 1.49502 0
M  V30 7559 H 703.342 -1.76089 2.72329 0
M  V30 7560 H 703.127 -0.430375 3.89731 0
M  V30 7561 H 704.617 -1.4201 3.92712 0
M  V30 7562 N 705.054 -1.51416 0.437162 0
M  V30 7563 C 705.984 -2.30631 -0.364922 0
M  V30 7564 C 706.965 -1.36037 -1.02118 0
M  V30 7565 O 708.15 -1.64956 -1.02485 0
M  V30 7566 C 705.28 -3.1482 -1.46648 0
M  V30 7567 C 704.234 -4.17691 -0.933717 0
M  V30 7568 C 703.56 -4.904 -2.13101 0
M  V30 7569 C 704.86 -5.2229 0.0317201 0
M  V30 7570 H 706.554 -2.97932 0.29614 0
M  V30 7571 H 704.1 -1.4328 0.143865 0
M  V30 7572 H 706.053 -3.69017 -2.03481 0
M  V30 7573 H 704.777 -2.4534 -2.15583 0
M  V30 7574 H 703.436 -3.64545 -0.387602 0
M  V30 7575 H 703.084 -4.17423 -2.80654 0
M  V30 7576 H 702.784 -5.59962 -1.78092 0
M  V30 7577 H 704.308 -5.4742 -2.70487 0
M  V30 7578 H 705.722 -5.7156 -0.446302 0
M  V30 7579 H 704.119 -5.99378 0.29437 0
M  V30 7580 H 705.189 -4.75131 0.968447 0
M  V30 7581 N 706.532 -0.168513 -1.56696 0
M  V30 7582 C 707.442 0.775435 -2.21414 0
M  V30 7583 C 708.458 1.25529 -1.20492 0
M  V30 7584 O 709.634 1.30801 -1.53144 0
M  V30 7585 C 706.699 1.9886 -2.83999 0
M  V30 7586 C 705.76 1.5559 -4.00113 0
M  V30 7587 C 704.993 2.71124 -4.59704 0
M  V30 7588 O 705.216 3.87917 -4.18182 0
M  V30 7589 O 704.15 2.4536 -5.4962 0
M  V30 7590 H 707.976 0.254416 -3.02632 0
M  V30 7591 H 705.561 0.0595507 -1.49281 0
M  V30 7592 H 707.443 2.69816 -3.23693 0
M  V30 7593 H 706.118 2.49874 -2.05779 0
M  V30 7594 H 705.025 0.815924 -3.65094 0
M  V30 7595 H 706.358 1.09271 -4.79917 0
M  V30 7596 N 708.01 1.57248 0.105221 0
M  V30 7597 C 708.958 2.02337 1.14728 0
M  V30 7598 C 709.952 0.922652 1.42069 0
M  V30 7599 O 711.158 1.10785 1.41869 0
M  V30 7600 H 707.533 0.644682 0.387155 0
M  V30 7601 H 709.504 2.89063 0.740607 0
M  V30 7602 C 708.253 2.45513 2.46209 0
M  V30 7603 H 707.576 3.29785 2.26013 0
M  V30 7604 H 709.016 2.80846 3.1765 0
M  V30 7605 C 707.475 1.3243 3.09781 0
M  V30 7606 O 708.005 0.647841 3.96442 0
M  V30 7607 N 706.211 1.07785 2.69872 0
M  V30 7608 H 705.758 1.62973 1.99493 0
M  V30 7609 H 705.716 0.323204 3.12734 0
M  V30 7610 N 709.488 -0.375779 1.53054 0
M  V30 7611 C 710.435 -1.45978 1.78771 0
M  V30 7612 C 711.405 -1.53625 0.631552 0
M  V30 7613 O 712.59 -1.69674 0.872667 0
M  V30 7614 C 709.73 -2.8305 1.97425 0
M  V30 7615 C 708.843 -2.84451 3.25134 0
M  V30 7616 C 707.978 -4.13034 3.34031 0
M  V30 7617 C 707.017 -4.08536 4.55812 0
M  V30 7618 N 706.154 -5.2875 4.61918 0
M  V30 7619 H 710.994 -1.23349 2.71273 0
M  V30 7620 H 708.531 -0.598147 1.3439 0
M  V30 7621 H 710.489 -3.62666 2.06225 0
M  V30 7622 H 709.119 -3.04101 1.0827 0
M  V30 7623 H 708.171 -1.97127 3.25338 0
M  V30 7624 H 709.483 -2.76998 4.14818 0
M  V30 7625 H 708.637 -5.0106 3.42087 0
M  V30 7626 H 707.376 -4.23226 2.42345 0
M  V30 7627 H 706.381 -3.18897 4.47867 0
M  V30 7628 H 707.606 -3.99955 5.48828 0
M  V30 7629 H 705.552 -5.39547 3.73129 0
M  V30 7630 H 705.469 -5.23426 5.45492 0
M  V30 7631 H 706.737 -6.18637 4.74245 0
M  V30 7632 N 710.966 -1.44241 -0.634997 0
M  V30 7633 C 711.896 -1.53632 -1.7584 0
M  V30 7634 C 712.877 -0.389603 -1.65578 0
M  V30 7635 O 714.062 -0.609219 -1.84397 0
M  V30 7636 C 711.192 -1.47644 -3.14354 0
M  V30 7637 C 710.146 -2.60752 -3.394 0
M  V30 7638 C 709.472 -2.39817 -4.77904 0
M  V30 7639 C 710.772 -4.02921 -3.32343 0
M  V30 7640 H 712.466 -2.47662 -1.68238 0
M  V30 7641 H 710.012 -1.19197 -0.807969 0
M  V30 7642 H 711.965 -1.52815 -3.92716 0
M  V30 7643 H 710.689 -0.501284 -3.2273 0
M  V30 7644 H 709.348 -2.54965 -2.63417 0
M  V30 7645 H 708.996 -1.40502 -4.82978 0
M  V30 7646 H 708.696 -3.15649 -4.9562 0
M  V30 7647 H 710.22 -2.46799 -5.585 0
M  V30 7648 H 711.634 -4.10098 -4.00615 0
M  V30 7649 H 710.031 -4.78925 -3.61595 0
M  V30 7650 H 711.101 -4.26766 -2.30215 0
M  V30 7651 N 712.444 0.87505 -1.31075 0
M  V30 7652 C 713.391 1.98178 -1.18296 0
M  V30 7653 C 714.361 1.65952 -0.0699923 0
M  V30 7654 O 715.546 1.8926 -0.241951 0
M  V30 7655 C 712.686 3.33399 -0.891024 0
M  V30 7656 C 711.799 3.78253 -2.08684 0
M  V30 7657 C 710.934 5.02166 -1.73212 0
M  V30 7658 C 709.973 5.39455 -2.89231 0
M  V30 7659 N 709.11 6.54549 -2.53989 0
M  V30 7660 H 713.95 2.0844 -2.12971 0
M  V30 7661 H 711.487 1.02047 -1.05948 0
M  V30 7662 H 713.445 4.11246 -0.702338 0
M  V30 7663 H 712.075 3.22794 0.0188799 0
M  V30 7664 H 711.127 2.9623 -2.38646 0
M  V30 7665 H 712.439 4.01821 -2.95536 0
M  V30 7666 H 711.593 5.87666 -1.50777 0
M  V30 7667 H 710.332 4.80491 -0.83544 0
M  V30 7668 H 709.337 4.52477 -3.12321 0
M  V30 7669 H 710.562 5.63098 -3.79601 0
M  V30 7670 H 708.508 6.3443 -1.66838 0
M  V30 7671 H 708.425 6.78035 -3.34372 0
M  V30 7672 H 709.693 7.43254 -2.34934 0
M  V30 7673 N 713.922 1.13953 1.08869 0
M  V30 7674 C 714.885 0.824991 2.13838 0
M  V30 7675 C 715.885 -0.168198 1.59918 0
M  V30 7676 O 717.075 0.0595778 1.74098 0
M  V30 7677 C 714.207 0.228938 3.4013 0
M  V30 7678 H 715.4 1.75521 2.43171 0
M  V30 7679 H 712.953 0.94492 1.24503 0
M  V30 7680 H 713.688 -0.710227 3.16427 0
M  V30 7681 H 713.473 0.944243 3.80561 0
M  V30 7682 H 714.963 0.0259223 4.17592 0
M  V30 7683 N 715.4 -1.26948 0.933913 0
M  V30 7684 C 716.31 -2.30366 0.443671 0
M  V30 7685 C 717.326 -1.67284 -0.478745 0
M  V30 7686 O 718.502 -1.98156 -0.360043 0
M  V30 7687 C 715.567 -3.45485 -0.289974 0
M  V30 7688 C 714.628 -4.24069 0.668114 0
M  V30 7689 C 713.861 -5.33691 -0.0306138 0
M  V30 7690 O 714.084 -5.5656 -1.24888 0
M  V30 7691 O 713.018 -5.98441 0.644384 0
M  V30 7692 H 716.844 -2.74349 1.30254 0
M  V30 7693 H 714.429 -1.32012 0.699506 0
M  V30 7694 H 716.311 -4.15486 -0.70353 0
M  V30 7695 H 714.986 -3.03546 -1.12435 0
M  V30 7696 H 713.893 -3.56579 1.13147 0
M  V30 7697 H 715.226 -4.69739 1.46989 0
M  V30 7698 N 716.879 -0.700114 -1.41195 0
M  V30 7699 C 717.812 0.0129614 -2.28196 0
M  V30 7700 C 718.79 0.783367 -1.42486 0
M  V30 7701 O 719.974 0.773238 -1.71911 0
M  V30 7702 C 717.101 1.02575 -3.22794 0
M  V30 7703 C 716.147 0.347977 -4.25078 0
M  V30 7704 S 716.98 -0.912938 -5.27661 0
M  V30 7705 C 718.136 0.0981362 -6.25823 0
M  V30 7706 H 718.369 -0.724927 -2.88326 0
M  V30 7707 H 715.902 -0.490554 -1.464 0
M  V30 7708 H 717.86 1.60491 -3.77826 0
M  V30 7709 H 716.521 1.73624 -2.61751 0
M  V30 7710 H 715.714 1.11305 -4.91556 0
M  V30 7711 H 715.316 -0.15823 -3.73665 0
M  V30 7712 H 717.608 0.949965 -6.70807 0
M  V30 7713 H 718.551 -0.532838 -7.06092 0
M  V30 7714 H 718.959 0.454944 -5.62664 0
M  V30 7715 N 718.357 1.51182 -0.445186 0
M  V30 7716 C 719.634 1.9478 0.178965 0
M  V30 7717 C 720.014 1.38428 1.59376 0
M  V30 7718 O 719.362 0.574552 2.21159 0
M  V30 7719 C 719.572 3.48683 0.148711 0
M  V30 7720 C 720.92 4.23152 0.35042 0
M  V30 7721 O 721.944 3.55479 0.226474 0
M  V30 7722 O 720.803 5.4322 0.597893 0
M  V30 7723 H 717.897 0.817387 0.12573 0
M  V30 7724 H 720.443 1.62051 -0.503729 0
M  V30 7725 H 719.215 3.82176 -0.84009 0
M  V30 7726 H 718.838 3.87875 0.873979 0
M  V30 7727 N 719.835 0.176821 1.56605 0
M  V30 7728 C 720.745 -0.763682 2.21822 0
M  V30 7729 C 721.761 -1.24889 1.21156 0
M  V30 7730 O 722.937 -1.29987 1.53836 0
M  V30 7731 C 720.002 -1.97352 2.8505 0
M  V30 7732 C 719.063 -1.53466 4.00932 0
M  V30 7733 C 718.296 -2.68682 4.61135 0
M  V30 7734 O 718.519 -3.85694 4.20234 0
M  V30 7735 O 717.453 -2.42442 5.50913 0
M  V30 7736 H 721.279 -0.238363 3.02763 0
M  V30 7737 H 718.864 -0.0516331 1.49311 0
M  V30 7738 H 720.746 -2.68096 3.25119 0
M  V30 7739 H 719.421 -2.48779 2.07101 0
M  V30 7740 H 718.328 -0.796551 3.65521 0
M  V30 7741 H 719.661 -1.06724 4.8049 0
M  V30 7742 N 721.313 -1.57302 -0.09688 0
M  V30 7743 C 722.263 -1.98369 -1.12399 0
M  V30 7744 C 723.247 -0.861872 -1.3587 0
M  V30 7745 O 724.439 -1.1257 -1.36591 0
M  V30 7746 C 721.568 -2.41017 -2.4447 0
M  V30 7747 C 720.654 -3.59881 -2.24381 0
M  V30 7748 N 721.045 -4.74872 -1.74155 0
M  V30 7749 C 719.343 -3.65943 -2.54954 0
M  V30 7750 C 720.044 -5.56823 -1.68294 0
M  V30 7751 N 719.02 -4.99942 -2.13444 0
M  V30 7752 H 722.822 -2.84726 -0.728575 0
M  V30 7753 H 720.336 -1.59523 -0.304332 0
M  V30 7754 H 722.333 -2.68665 -3.18786 0
M  V30 7755 H 720.993 -1.56036 -2.84751 0
M  V30 7756 H 722.004 -4.97657 -1.43379 0
M  V30 7757 H 718.681 -2.9162 -2.98771 0
M  V30 7758 H 720.071 -6.59099 -1.30528 0
M  V30 7759 N 722.791 0.367657 -1.53252 0
M  V30 7760 C 724.207 0.709191 -1.42978 0
M  V30 7761 C 724.407 1.93352 -0.567193 0
M  V30 7762 O 723.463 2.52453 -0.0488349 0
M  V30 7763 C 724.776 0.924338 -2.86141 0
M  V30 7764 C 726.324 1.02448 -2.95759 0
M  V30 7765 C 726.799 1.27211 -4.39979 0
M  V30 7766 N 728.29 1.33986 -4.43398 0
M  V30 7767 C 729.025 1.54852 -5.52095 0
M  V30 7768 N 728.521 1.73049 -6.7084 0
M  V30 7769 N 730.314 1.57205 -5.39669 0
M  V30 7770 H 722.465 -0.437669 -2.07842 0
M  V30 7771 H 724.728 -0.133737 -0.938519 0
M  V30 7772 H 724.434 0.0965455 -3.51567 0
M  V30 7773 H 724.308 1.83302 -3.29667 0
M  V30 7774 H 726.695 1.84282 -2.30487 0
M  V30 7775 H 726.776 0.0932301 -2.5563 0
M  V30 7776 H 726.42 0.458792 -5.05824 0
M  V30 7777 H 726.35 2.21654 -4.77679 0
M  V30 7778 H 728.841 1.21545 -3.5782 0
M  V30 7779 H 729.154 1.88538 -7.49449 0
M  V30 7780 H 727.499 1.70231 -6.7383 0
M  V30 7781 H 730.69 1.42555 -4.45865 0
M  V30 7782 H 730.863 1.73126 -6.24445 0
M  V30 7783 N 724.269 1.44576 0.627338 0
M  V30 7784 C 725.199 1.54562 1.75022 0
M  V30 7785 C 726.18 0.398378 1.65369 0
M  V30 7786 O 727.365 0.61899 1.84071 0
M  V30 7787 C 724.495 1.49309 3.13567 0
M  V30 7788 C 723.449 2.62549 3.38012 0
M  V30 7789 C 722.775 2.42348 4.76625 0
M  V30 7790 C 724.075 4.04678 3.30202 0
M  V30 7791 H 725.769 2.4855 1.66922 0
M  V30 7792 H 723.315 1.19624 0.801636 0
M  V30 7793 H 725.268 1.54895 3.919 0
M  V30 7794 H 723.992 0.518392 3.2246 0
M  V30 7795 H 722.651 2.56358 2.62061 0
M  V30 7796 H 722.299 1.43062 4.82226 0
M  V30 7797 H 721.999 3.18273 4.93939 0
M  V30 7798 H 723.523 2.49758 5.57183 0
M  V30 7799 H 724.937 4.12217 3.98435 0
M  V30 7800 H 723.334 4.80836 3.5905 0
M  V30 7801 H 724.404 4.2798 2.27949 0
M  V30 7802 N 725.747 -0.868086 1.31537 0
M  V30 7803 C 726.694 -1.97548 1.19346 0
M  V30 7804 C 727.664 -1.65913 0.0787922 0
M  V30 7805 O 728.849 -1.89129 0.251985 0
M  V30 7806 C 725.989 -3.32922 0.908692 0
M  V30 7807 C 725.102 -3.77141 2.10687 0
M  V30 7808 C 724.237 -5.01241 1.75873 0
M  V30 7809 C 723.276 -5.37914 2.92088 0
M  V30 7810 N 722.413 -6.53192 2.57457 0
M  V30 7811 H 727.253 -2.07307 2.14074 0
M  V30 7812 H 724.79 -1.01483 1.06487 0
M  V30 7813 H 726.748 -4.10867 0.724138 0
M  V30 7814 H 725.378 -3.228 -0.0017611 0
M  V30 7815 H 724.43 -2.94961 2.40213 0
M  V30 7816 H 725.742 -4.00248 2.97663 0
M  V30 7817 H 724.896 -5.86858 1.53891 0
M  V30 7818 H 723.635 -4.80041 0.86091 0
M  V30 7819 H 722.64 -4.50814 3.14717 0
M  V30 7820 H 723.865 -5.61077 3.82582 0
M  V30 7821 H 721.811 -6.33536 1.702 0
M  V30 7822 H 721.728 -6.76252 3.37963 0
M  V30 7823 H 722.996 -7.41997 2.38873 0
M  V30 7824 N 727.225 -1.14528 -1.08264 0
M  V30 7825 C 728.155 -0.856356 -2.1723 0
M  V30 7826 C 729.136 0.189251 -1.69044 0
M  V30 7827 O 730.321 0.0456119 -1.94146 0
M  V30 7828 C 727.451 -0.334662 -3.45684 0
M  V30 7829 C 726.405 -1.31588 -4.0727 0
M  V30 7830 C 725.731 -0.653428 -5.30692 0
M  V30 7831 C 727.031 -2.67866 -4.48381 0
M  V30 7832 H 728.725 -1.76755 -2.41657 0
M  V30 7833 H 726.271 -0.851287 -1.16143 0
M  V30 7834 H 728.224 -0.120128 -4.21229 0
M  V30 7835 H 726.948 0.611967 -3.20815 0
M  V30 7836 H 725.607 -1.51661 -3.33758 0
M  V30 7837 H 725.255 0.299054 -5.0211 0
M  V30 7838 H 724.955 -1.30817 -5.72853 0
M  V30 7839 H 726.479 -0.448453 -6.08951 0
M  V30 7840 H 727.893 -2.51692 -5.15096 0
M  V30 7841 H 726.29 -3.29627 -5.01464 0
M  V30 7842 H 727.36 -3.24632 -3.60198 0
M  V30 7843 N 728.703 1.26451 -0.940633 0
M  V30 7844 C 729.635 2.25556 -0.407104 0
M  V30 7845 C 730.648 1.55888 0.469324 0
M  V30 7846 O 731.837 1.76292 0.279858 0
M  V30 7847 C 728.937 3.36109 0.434064 0
M  V30 7848 C 728.11 4.3532 -0.426082 0
M  V30 7849 C 727.169 5.25004 0.354563 0
M  V30 7850 O 726.195 5.68684 -0.242219 0
M  V30 7851 N 727.397 5.5652 1.65123 0
M  V30 7852 H 730.162 2.7197 -1.25907 0
M  V30 7853 H 727.723 1.40212 -0.809456 0
M  V30 7854 H 729.715 3.93059 0.963684 0
M  V30 7855 H 728.285 2.89194 1.18683 0
M  V30 7856 H 727.505 3.77449 -1.13692 0
M  V30 7857 H 728.793 4.986 -1.01366 0
M  V30 7858 H 728.191 5.22912 2.15822 0
M  V30 7859 H 726.748 6.16115 2.12711 0
M  V30 7860 N 730.181 0.707592 1.40822 0
M  V30 7861 C 731.128 0.0499029 2.30746 0
M  V30 7862 C 732.098 -0.758718 1.47759 0
M  V30 7863 O 733.283 -0.724299 1.76518 0
M  V30 7864 C 730.423 -0.871756 3.33908 0
M  V30 7865 C 729.536 -0.0534655 4.31967 0
M  V30 7866 C 728.671 -0.973869 5.22197 0
M  V30 7867 C 727.71 -0.149194 6.11918 0
M  V30 7868 N 726.847 -1.02404 6.94592 0
M  V30 7869 H 731.687 0.822461 2.86426 0
M  V30 7870 H 729.224 0.417285 1.41057 0
M  V30 7871 H 731.182 -1.42028 3.9228 0
M  V30 7872 H 729.812 -1.61058 2.7975 0
M  V30 7873 H 728.864 0.612142 3.75442 0
M  V30 7874 H 730.176 0.585354 4.95353 0
M  V30 7875 H 729.33 -1.59121 5.85462 0
M  V30 7876 H 728.069 -1.64652 4.59065 0
M  V30 7877 H 727.074 0.481137 5.47691 0
M  V30 7878 H 728.299 0.519841 6.77107 0
M  V30 7879 H 726.245 -1.6825 6.34057 0
M  V30 7880 H 726.162 -0.441076 7.54712 0
M  V30 7881 H 727.43 -1.62782 7.62314 0
M  V30 7882 N 731.66 -1.50943 0.453197 0
M  V30 7883 C 732.57 -2.31884 -0.355963 0
M  V30 7884 C 733.586 -1.41481 -1.01287 0
M  V30 7885 O 734.762 -1.74546 -1.00477 0
M  V30 7886 C 731.827 -3.15668 -1.43369 0
M  V30 7887 C 730.888 -4.2187 -0.795253 0
M  V30 7888 C 730.121 -5.0165 -1.82162 0
M  V30 7889 O 730.344 -4.82266 -3.04592 0
M  V30 7890 O 729.278 -5.85311 -1.40336 0
M  V30 7891 H 733.104 -3.02162 0.305248 0
M  V30 7892 H 730.689 -1.47839 0.215398 0
M  V30 7893 H 732.571 -3.67709 -2.05836 0
M  V30 7894 H 731.246 -2.48137 -2.07869 0
M  V30 7895 H 730.153 -3.73867 -0.132106 0
M  V30 7896 H 731.486 -4.9182 -0.193484 0
M  V30 7897 N 733.138 -0.185124 -1.56509 0
M  V30 7898 C 734.384 0.456934 -1.97585 0
M  V30 7899 C 734.717 1.61957 -1.07161 0
M  V30 7900 O 733.992 1.9412 -0.121546 0
M  V30 7901 C 734.275 0.926666 -3.47973 0
M  V30 7902 C 734.128 -0.237097 -4.49175 0
M  V30 7903 C 735.447 1.79561 -4.01803 0
M  V30 7904 H 732.566 0.164619 -0.71838 0
M  V30 7905 H 735.208 -0.274039 -1.88013 0
M  V30 7906 H 733.358 1.54954 -3.56261 0
M  V30 7907 H 735.03 -0.87454 -4.52934 0
M  V30 7908 H 733.273 -0.890446 -4.24563 0
M  V30 7909 H 733.944 0.133924 -5.51838 0
M  V30 7910 H 736.42 1.27039 -3.96232 0
M  V30 7911 H 735.296 2.09327 -5.07418 0
M  V30 7912 H 735.557 2.74629 -3.46455 0
M  V30 7913 N 734.616 1.57351 0.0885366 0
M  V30 7914 C 735.526 2.05858 1.12516 0
M  V30 7915 C 736.542 0.984758 1.43452 0
M  V30 7916 O 737.718 1.29836 1.53963 0
M  V30 7917 C 734.783 2.47882 2.42395 0
M  V30 7918 C 733.844 3.69487 2.18582 0
M  V30 7919 C 733.077 4.09497 3.42268 0
M  V30 7920 O 733.3 3.49536 4.50755 0
M  V30 7921 O 732.234 5.02406 3.31469 0
M  V30 7922 H 736.06 2.94467 0.743146 0
M  V30 7923 H 733.645 1.46326 0.301507 0
M  V30 7924 H 735.527 2.75509 3.18862 0
M  V30 7925 H 734.202 1.62408 2.8001 0
M  V30 7926 H 733.109 3.46967 1.39875 0
M  V30 7927 H 734.442 4.55761 1.85857 0
M  V30 7928 N 736.094 -0.359525 1.53444 0
M  V30 7929 C 737.322 -1.12198 1.73837 0
M  V30 7930 C 737.737 -1.82854 0.470107 0
M  V30 7931 O 737.094 -1.73781 -0.557349 0
M  V30 7932 C 737.145 -2.14769 2.90786 0
M  V30 7933 O 736.866 -1.46989 4.12706 0
M  V30 7934 C 738.367 -3.03514 3.231 0
M  V30 7935 H 735.587 -0.33524 0.581253 0
M  V30 7936 H 738.131 -0.416598 2.00212 0
M  V30 7937 H 736.286 -2.80896 2.66788 0
M  V30 7938 H 736.7 -2.15378 4.78239 0
M  V30 7939 H 738.174 -3.71453 4.08322 0
M  V30 7940 H 738.651 -3.68658 2.38721 0
M  V30 7941 H 739.257 -2.42996 3.49046 0
M  V30 7942 N 737.572 -1.44907 -0.619662 0
M  V30 7943 C 738.522 -1.49085 -1.72504 0
M  V30 7944 C 739.506 -0.355372 -1.56926 0
M  V30 7945 O 740.698 -0.601441 -1.66468 0
M  V30 7946 C 737.827 -1.44889 -3.11227 0
M  V30 7947 C 736.913 -2.63593 -3.32234 0
M  V30 7948 N 737.304 -3.88775 -3.23555 0
M  V30 7949 C 735.602 -2.59033 -3.63067 0
M  V30 7950 C 736.303 -4.67932 -3.45564 0
M  V30 7951 N 735.279 -3.9919 -3.68983 0
M  V30 7952 H 739.081 -2.43706 -1.6427 0
M  V30 7953 H 736.595 -1.4003 -0.82252 0
M  V30 7954 H 738.592 -1.45966 -3.90512 0
M  V30 7955 H 737.252 -0.513143 -3.2062 0
M  V30 7956 H 738.263 -4.20574 -3.02221 0
M  V30 7957 H 734.94 -1.7431 -3.79371 0
M  V30 7958 H 736.33 -5.76952 -3.44349 0
M  V30 7959 N 739.05 0.861098 -1.31996 0
M  V30 7960 C 740.013 1.95068 -1.20338 0
M  V30 7961 C 741.013 1.60289 -0.128114 0
M  V30 7962 O 742.203 1.70048 -0.378044 0
M  V30 7963 C 739.335 3.30153 -0.849205 0
M  V30 7964 H 740.528 2.06833 -2.17164 0
M  V30 7965 H 738.081 1.05049 -1.15734 0
M  V30 7966 H 738.816 3.24087 0.117508 0
M  V30 7967 H 738.601 3.56771 -1.62655 0
M  V30 7968 H 740.091 4.10025 -0.791782 0
M  V30 7969 N 740.528 1.15101 1.07655 0
M  V30 7970 C 741.476 0.840714 2.16875 0
M  V30 7971 C 742.47 -0.184594 1.68391 0
M  V30 7972 O 743.676 -0.0399315 1.79956 0
M  V30 7973 H 740.051 0.254192 0.707736 0
M  V30 7974 H 742.022 1.76959 2.40266 0
M  V30 7975 C 740.771 0.343018 3.46004 0
M  V30 7976 H 740.094 1.12335 3.83694 0
M  V30 7977 H 741.534 0.16453 4.23681 0
M  V30 7978 C 739.993 -0.934881 3.23669 0
M  V30 7979 O 740.523 -2.00706 3.47965 0
M  V30 7980 N 738.729 -0.873167 2.77172 0
M  V30 7981 H 738.276 -0.000479072 2.576 0
M  V30 7982 H 738.234 -1.72873 2.62607 0
M  V30 7983 N 742.006 -1.2595 0.947325 0
M  V30 7984 C 742.954 -2.28152 0.452687 0
M  V30 7985 C 743.948 -1.62655 -0.473239 0
M  V30 7986 O 745.154 -1.76549 -0.350774 0
M  V30 7987 H 741.529 -0.741049 0.12787 0
M  V30 7988 H 743.5 -2.67267 1.32707 0
M  V30 7989 C 742.249 -3.46719 -0.26098 0
M  V30 7990 H 741.572 -3.97345 0.442352 0
M  V30 7991 H 743.012 -4.20135 -0.571208 0
M  V30 7992 C 741.471 -3.02605 -1.48094 0
M  V30 7993 O 742.001 -3.07979 -2.57899 0
M  V30 7994 N 740.207 -2.57877 -1.33969 0
M  V30 7995 H 739.754 -2.53704 -0.446295 0
M  V30 7996 H 739.712 -2.28725 -2.15713 0
M  V30 7997 N 743.484 -0.715051 -1.40445 0
M  V30 7998 C 744.709 -0.26254 -2.05732 0
M  V30 7999 C 745.134 1.08691 -1.53519 0
M  V30 8000 O 744.492 1.68453 -0.670328 0
M  V30 8001 C 744.54 -0.25195 -3.59719 0
M  V30 8002 O 743.644 0.766998 -4.05205 0
M  V30 8003 H 742.985 -0.123398 -0.652433 0
M  V30 8004 H 745.515 -0.975382 -1.79854 0
M  V30 8005 H 745.525 -0.0894537 -4.07902 0
M  V30 8006 H 744.2 -1.23672 -3.97087 0
M  V30 8007 H 742.777 0.572269 -3.68483 0
M  V30 8008 N 744.962 1.50701 -0.461195 0
M  V30 8009 C 746.187 2.07171 0.0974773 0
M  V30 8010 C 746.612 1.32391 1.3362 0
M  V30 8011 O 745.97 0.368676 1.77512 0
M  V30 8012 C 746.018 3.58651 0.374409 0
M  V30 8013 O 745.122 3.85816 1.4567 0
M  V30 8014 H 744.463 0.663944 -0.00862047 0
M  V30 8015 H 746.993 1.94021 -0.649394 0
M  V30 8016 H 747.003 4.03295 0.617843 0
M  V30 8017 H 745.678 4.12498 -0.530829 0
M  V30 8018 H 744.255 3.53018 1.20136 0
M  V30 8019 N 746.441 0.193421 1.56409 0
M  V30 8020 C 747.69 -0.445995 1.96707 0
M  V30 8021 C 748.003 -1.62876 1.08309 0
M  V30 8022 O 749.209 -2.33586 1.38383 0
M  V30 8023 C 747.665 -0.844863 3.49843 0
M  V30 8024 C 747.273 0.31352 4.46902 0
M  V30 8025 C 749.017 -1.45146 3.98915 0
M  V30 8026 C 746.924 -0.106214 5.91305 0
M  V30 8027 H 745.854 -0.170398 0.734493 0
M  V30 8028 H 748.505 0.285172 1.81271 0
M  V30 8029 H 746.887 -1.63265 3.60778 0
M  V30 8030 H 748.061 1.09103 4.47698 0
M  V30 8031 H 746.376 0.8315 4.08014 0
M  V30 8032 H 748.973 -1.77792 5.04276 0
M  V30 8033 H 749.316 -2.35734 3.43126 0
M  V30 8034 H 749.849 -0.727675 3.91088 0
M  V30 8035 H 746.588 0.765442 6.51016 0
M  V30 8036 H 746.108 -0.848623 5.93766 0
M  V30 8037 H 747.787 -0.542588 6.44721 0
M  V30 8038 N 747.919 -1.57396 -0.0801906 0
M  V30 8039 C 748.829 -2.06451 -1.11423 0
M  V30 8040 C 749.845 -0.992352 -1.42928 0
M  V30 8041 O 751.021 -1.30651 -1.53272 0
M  V30 8042 C 748.086 -2.49164 -2.41077 0
M  V30 8043 C 747.147 -3.70641 -2.16619 0
M  V30 8044 C 746.38 -4.11307 -3.40092 0
M  V30 8045 O 746.603 -3.51922 -4.48895 0
M  V30 8046 O 745.537 -5.04157 -3.288 0
M  V30 8047 H 749.363 -2.94857 -0.727519 0
M  V30 8048 H 746.948 -1.46484 -0.293743 0
M  V30 8049 H 748.83 -2.77196 -3.17396 0
M  V30 8050 H 747.505 -1.6389 -2.79145 0
M  V30 8051 H 746.412 -3.47703 -1.38033 0
M  V30 8052 H 747.745 -4.5674 -1.83437 0
M  V30 8053 N 749.397 0.351382 -1.53633 0
M  V30 8054 C 750.327 1.43688 -1.84055 0
M  V30 8055 C 751.308 1.55251 -0.695073 0
M  V30 8056 O 752.493 1.69587 -0.946257 0
M  V30 8057 C 749.623 2.80843 -2.04315 0
M  V30 8058 C 748.577 2.84094 -3.20117 0
M  V30 8059 C 747.903 4.2406 -3.25696 0
M  V30 8060 C 749.203 2.50334 -4.58399 0
M  V30 8061 H 750.897 1.18478 -2.74961 0
M  V30 8062 H 748.443 0.568509 -1.32303 0
M  V30 8063 H 750.396 3.56821 -2.2418 0
M  V30 8064 H 749.12 3.07471 -1.10132 0
M  V30 8065 H 747.779 2.10568 -3.00094 0
M  V30 8066 H 747.427 4.47785 -2.29123 0
M  V30 8067 H 747.127 4.27147 -4.03509 0
M  V30 8068 H 748.651 5.0189 -3.47762 0
M  V30 8069 H 750.065 3.16025 -4.78332 0
M  V30 8070 H 748.462 2.64717 -5.38558 0
M  V30 8071 H 749.532 1.45542 -4.62543 0
M  V30 8072 N 750.875 1.45233 0.611969 0
M  V30 8073 C 751.785 1.56098 1.7513 0
M  V30 8074 C 752.801 0.445646 1.68196 0
M  V30 8075 O 753.977 0.705718 1.88631 0
M  V30 8076 C 751.042 1.52052 3.11579 0
M  V30 8077 C 750.103 2.74589 3.29999 0
M  V30 8078 C 749.336 2.70726 4.59938 0
M  V30 8079 O 749.559 1.77806 5.41979 0
M  V30 8080 O 748.493 3.61864 4.80976 0
M  V30 8081 H 752.319 2.52392 1.68914 0
M  V30 8082 H 749.904 1.27695 0.775528 0
M  V30 8083 H 751.786 1.52387 3.92882 0
M  V30 8084 H 750.461 0.589085 3.18295 0
M  V30 8085 H 749.368 2.79817 2.48301 0
M  V30 8086 H 750.701 3.66843 3.28157 0
M  V30 8087 N 752.353 -0.854086 1.3245 0
M  V30 8088 C 753.3 -1.96271 1.21434 0
M  V30 8089 C 754.27 -1.6582 0.0963851 0
M  V30 8090 O 755.455 -1.88851 0.27203 0
M  V30 8091 C 752.595 -3.31939 0.943952 0
M  V30 8092 C 751.708 -3.74885 2.14675 0
M  V30 8093 C 750.843 -4.99347 1.81179 0
M  V30 8094 C 749.882 -5.34785 2.97777 0
M  V30 8095 N 749.019 -6.50425 2.6437 0
M  V30 8096 H 753.859 -2.05025 2.16261 0
M  V30 8097 H 751.396 -1.00348 1.07558 0
M  V30 8098 H 753.354 -4.10076 0.767675 0
M  V30 8099 H 751.984 -3.22784 0.0324763 0
M  V30 8100 H 751.036 -2.92396 2.43328 0
M  V30 8101 H 752.348 -3.97068 3.01891 0
M  V30 8102 H 751.502 -5.85193 1.60107 0
M  V30 8103 H 750.241 -4.79101 0.911777 0
M  V30 8104 H 749.246 -4.47451 3.1948 0
M  V30 8105 H 750.471 -5.56988 3.88511 0
M  V30 8106 H 748.417 -6.31695 1.7691 0
M  V30 8107 H 748.334 -6.7263 3.45116 0
M  V30 8108 H 749.602 -7.39422 2.46729 0
M  V30 8109 N 753.831 -1.1567 -1.07043 0
M  V30 8110 C 754.761 -0.879348 -2.16309 0
M  V30 8111 C 755.742 0.171311 -1.69235 0
M  V30 8112 O 756.927 0.0250175 -1.94184 0
M  V30 8113 C 754.057 -0.371307 -3.45309 0
M  V30 8114 C 753.011 -1.359 -4.05851 0
M  V30 8115 C 752.337 -0.709678 -5.29969 0
M  V30 8116 C 753.637 -2.72606 -4.45514 0
M  V30 8117 H 755.331 -1.79308 -2.39768 0
M  V30 8118 H 752.877 -0.863558 -1.15233 0
M  V30 8119 H 754.83 -0.164798 -4.21078 0
M  V30 8120 H 753.554 0.577906 -3.21446 0
M  V30 8121 H 752.213 -1.55193 -3.32131 0
M  V30 8122 H 751.861 0.245782 -5.02399 0
M  V30 8123 H 751.561 -1.36886 -5.71433 0
M  V30 8124 H 753.085 -0.513015 -6.08441 0
M  V30 8125 H 754.499 -2.57141 -5.12398 0
M  V30 8126 H 752.896 -3.34927 -4.97939 0
M  V30 8127 H 753.966 -3.28434 -3.56734 0
M  V30 8128 N 755.309 1.25446 -0.953992 0
M  V30 8129 C 756.272 2.24156 -0.478179 0
M  V30 8130 C 757.272 1.55278 0.417776 0
M  V30 8131 O 758.462 1.72866 0.215155 0
M  V30 8132 C 755.594 3.39495 0.309202 0
M  V30 8133 H 756.787 2.67764 -1.35064 0
M  V30 8134 H 754.34 1.37822 -0.737206 0
M  V30 8135 H 755.075 3.01307 1.19936 0
M  V30 8136 H 754.86 3.90679 -0.333562 0
M  V30 8137 H 756.35 4.12796 0.631594 0
M  V30 8138 N 756.787 0.722489 1.40064 0
M  V30 8139 C 757.734 0.0743738 2.3068 0
M  V30 8140 C 758.704 -0.743004 1.48555 0
M  V30 8141 O 759.889 -0.705536 1.77276 0
M  V30 8142 C 757.029 -0.836292 3.34814 0
M  V30 8143 C 756.142 -0.00764663 4.31999 0
M  V30 8144 C 755.277 -0.918428 5.232 0
M  V30 8145 C 754.316 -0.0842838 6.12042 0
M  V30 8146 N 753.453 -0.950316 6.95639 0
M  V30 8147 H 758.293 0.852794 2.85537 0
M  V30 8148 H 755.83 0.432222 1.40607 0
M  V30 8149 H 757.788 -1.3786 3.93765 0
M  V30 8150 H 756.418 -1.58082 2.81443 0
M  V30 8151 H 755.47 0.651928 3.74772 0
M  V30 8152 H 756.782 0.63786 4.94705 0
M  V30 8153 H 755.936 -1.52902 5.87116 0
M  V30 8154 H 754.675 -1.59774 4.60786 0
M  V30 8155 H 753.68 0.5392 5.4715 0
M  V30 8156 H 754.905 0.591628 6.76518 0
M  V30 8157 H 752.851 -1.61515 6.35806 0
M  V30 8158 H 752.768 -0.361004 7.55138 0
M  V30 8159 H 754.036 -1.54687 7.63997 0
M  V30 8160 N 758.265 -1.50454 0.469181 0
M  V30 8161 C 759.212 -2.28486 -0.325982 0
M  V30 8162 C 760.182 -1.33455 -0.988893 0
M  V30 8163 O 761.367 -1.6239 -1.0017 0
M  V30 8164 C 758.507 -3.15288 -1.40313 0
M  V30 8165 C 757.62 -4.25348 -0.755183 0
M  V30 8166 C 756.755 -4.9941 -1.81006 0
M  V30 8167 C 755.794 -6.01348 -1.14226 0
M  V30 8168 N 754.931 -6.68695 -2.1399 0
M  V30 8169 H 759.771 -2.95987 0.345753 0
M  V30 8170 H 757.308 -1.45965 0.182355 0
M  V30 8171 H 759.266 -3.63964 -2.03927 0
M  V30 8172 H 757.896 -2.49837 -2.04405 0
M  V30 8173 H 756.948 -3.80399 -0.00651901 0
M  V30 8174 H 758.26 -4.98279 -0.227941 0
M  V30 8175 H 757.414 -5.51794 -2.52206 0
M  V30 8176 H 756.153 -4.26181 -2.3711 0
M  V30 8177 H 755.158 -5.48225 -0.415876 0
M  V30 8178 H 756.383 -6.76548 -0.588135 0
M  V30 8179 H 754.329 -5.98258 -2.69115 0
M  V30 8180 H 754.246 -7.37495 -1.66246 0
M  V30 8181 H 755.514 -7.25697 -2.84576 0
M  V30 8182 N 759.743 -0.201713 -1.56304 0
M  V30 8183 C 760.675 0.748466 -2.16635 0
M  V30 8184 C 761.688 1.172 -1.12996 0
M  V30 8185 O 762.877 1.10658 -1.40061 0
M  V30 8186 C 759.977 2.02296 -2.719 0
M  V30 8187 C 759.15 1.75818 -4.00508 0
M  V30 8188 C 758.209 2.87779 -4.40533 0
M  V30 8189 O 757.235 2.57101 -5.07826 0
M  V30 8190 N 758.437 4.16287 -4.04581 0
M  V30 8191 H 761.202 0.232505 -2.98797 0
M  V30 8192 H 758.763 -0.0199822 -1.61888 0
M  V30 8193 H 760.755 2.7635 -2.95657 0
M  V30 8194 H 759.325 2.44996 -1.94154 0
M  V30 8195 H 758.545 0.855095 -3.84814 0
M  V30 8196 H 759.833 1.55532 -4.84445 0
M  V30 8197 H 759.231 4.44061 -3.50466 0
M  V30 8198 H 757.788 4.86946 -4.33274 0
M  V30 8199 N 761.222 1.57436 0.0718424 0
M  V30 8200 C 762.468 1.87525 0.772149 0
M  V30 8201 C 762.801 0.79399 1.77227 0
M  V30 8202 O 762.076 -0.195733 1.93513 0
M  V30 8203 C 762.359 3.28272 1.48018 0
M  V30 8204 C 762.212 4.47052 0.49647 0
M  V30 8205 C 763.531 3.67256 2.42509 0
M  V30 8206 H 760.65 0.682049 0.279245 0
M  V30 8207 H 763.292 1.89967 0.03534 0
M  V30 8208 H 761.442 3.26321 2.10824 0
M  V30 8209 H 763.114 4.61127 -0.126375 0
M  V30 8210 H 761.357 4.33392 -0.188205 0
M  V30 8211 H 762.028 5.42315 1.02949 0
M  V30 8212 H 764.504 3.70301 1.89781 0
M  V30 8213 H 763.38 4.66626 2.89053 0
M  V30 8214 H 763.641 2.97186 3.27312 0
M  V30 8215 N 762.7 -0.34323 1.53817 0
M  V30 8216 C 763.663 -1.40444 1.8113 0
M  V30 8217 C 764.663 -1.45604 0.682366 0
M  V30 8218 O 765.853 -1.45974 0.950649 0
M  V30 8219 C 762.985 -2.79369 1.95361 0
M  V30 8220 H 764.178 -1.17489 2.75928 0
M  V30 8221 H 761.731 -0.577636 1.45234 0
M  V30 8222 H 762.466 -3.07607 1.02707 0
M  V30 8223 H 762.251 -2.7702 2.77493 0
M  V30 8224 H 763.741 -3.56178 2.18008 0
M  V30 8225 N 764.178 -1.45556 -0.604258 0
M  V30 8226 C 765.427 -1.49019 -1.35928 0
M  V30 8227 C 765.74 -0.137409 -1.95117 0
M  V30 8228 O 766.946 -0.0497032 -2.71455 0
M  V30 8229 C 765.402 -2.62477 -2.46239 0
M  V30 8230 C 765.01 -4.04082 -1.93447 0
M  V30 8231 C 766.754 -2.7519 -3.23219 0
M  V30 8232 C 764.661 -5.08917 -3.0126 0
M  V30 8233 H 763.591 -0.554518 -0.510907 0
M  V30 8234 H 766.242 -1.71705 -0.647262 0
M  V30 8235 H 764.624 -2.3308 -3.2014 0
M  V30 8236 H 765.798 -4.43173 -1.26232 0
M  V30 8237 H 764.113 -3.95849 -1.29201 0
M  V30 8238 H 766.71 -3.50683 -4.0364 0
M  V30 8239 H 767.053 -1.81941 -3.74437 0
M  V30 8240 H 767.586 -3.04129 -2.56418 0
M  V30 8241 H 764.325 -6.03886 -2.54955 0
M  V30 8242 H 763.845 -4.74393 -3.67031 0
M  V30 8243 H 765.524 -5.33814 -3.65584 0
M  V30 8244 N 765.656 0.84705 -1.32902 0
M  V30 8245 C 766.905 1.59667 -1.23245 0
M  V30 8246 C 767.218 1.94551 0.202349 0
M  V30 8247 O 768.424 2.68218 0.420847 0
M  V30 8248 C 766.88 2.8795 -2.15901 0
M  V30 8249 C 766.488 2.60461 -3.64505 0
M  V30 8250 C 768.232 3.65968 -2.15098 0
M  V30 8251 C 766.139 3.84791 -4.49099 0
M  V30 8252 H 765.069 0.599167 -0.457728 0
M  V30 8253 H 767.72 0.934662 -1.57912 0
M  V30 8254 H 766.102 3.55648 -1.74157 0
M  V30 8255 H 767.276 2.01026 -4.14639 0
M  V30 8256 H 765.591 1.9576 -3.67515 0
M  V30 8257 H 768.188 4.58241 -2.75534 0
M  V30 8258 H 768.531 4.00275 -1.14392 0
M  V30 8259 H 769.064 3.05184 -2.55162 0
M  V30 8260 H 765.803 3.55621 -5.50649 0
M  V30 8261 H 765.323 4.43594 -4.03713 0
M  V30 8262 H 767.002 4.52454 -4.62487 0
M  V30 8263 N 767.134 1.16236 1.06428 0
M  V30 8264 C 768.044 0.881976 2.1739 0
M  V30 8265 C 769.06 -0.145259 1.73393 0
M  V30 8266 O 770.236 0.0310558 2.01376 0
M  V30 8267 C 767.301 0.385496 3.4455 0
M  V30 8268 C 766.362 1.47779 4.03063 0
M  V30 8269 C 765.595 1.0049 5.24154 0
M  V30 8270 O 765.818 -0.145889 5.70213 0
M  V30 8271 O 764.752 1.79265 5.74585 0
M  V30 8272 H 768.578 1.80983 2.43883 0
M  V30 8273 H 766.163 0.942226 1.15942 0
M  V30 8274 H 768.045 0.115536 4.21242 0
M  V30 8275 H 766.72 -0.514369 3.19587 0
M  V30 8276 H 765.627 1.80147 3.27869 0
M  V30 8277 H 766.96 2.35291 4.32318 0
M  V30 8278 N 768.612 -1.24939 0.960631 0
M  V30 8279 C 769.559 -2.25658 0.484459 0
M  V30 8280 C 770.529 -1.59422 -0.466242 0
M  V30 8281 O 771.714 -1.87015 -0.378169 0
M  V30 8282 C 768.854 -3.44359 -0.225958 0
M  V30 8283 C 767.967 -4.25214 0.762682 0
M  V30 8284 C 767.102 -5.31192 0.0290931 0
M  V30 8285 C 766.141 -6.03739 1.00827 0
M  V30 8286 N 765.278 -7.01437 0.305155 0
M  V30 8287 H 770.118 -2.65758 1.34821 0
M  V30 8288 H 767.655 -1.30648 0.675983 0
M  V30 8289 H 769.613 -4.12035 -0.654472 0
M  V30 8290 H 768.243 -3.05118 -1.05371 0
M  V30 8291 H 767.295 -3.57144 1.30966 0
M  V30 8292 H 768.607 -4.75406 1.50964 0
M  V30 8293 H 767.761 -6.04971 -0.457763 0
M  V30 8294 H 766.5 -4.81889 -0.750614 0
M  V30 8295 H 765.505 -5.2877 1.50607 0
M  V30 8296 H 766.73 -6.55131 1.7883 0
M  V30 8297 H 764.676 -6.54415 -0.455704 0
M  V30 8298 H 764.593 -7.49475 0.991104 0
M  V30 8299 H 765.861 -7.79336 -0.159966 0
M  V30 8300 N 770.09 -0.729906 -1.39679 0
M  V30 8301 C 771 -0.0880322 -2.34435 0
M  V30 8302 C 772.016 0.727674 -1.58053 0
M  V30 8303 O 773.192 0.657321 -1.90371 0
M  V30 8304 C 770.257 0.812211 -3.37052 0
M  V30 8305 C 769.318 -0.0151681 -4.29297 0
M  V30 8306 C 768.551 0.842202 -5.27013 0
M  V30 8307 O 768.774 2.08108 -5.31081 0
M  V30 8308 O 767.708 0.27357 -6.01278 0
M  V30 8309 H 771.534 -0.869989 -2.90972 0
M  V30 8310 H 769.119 -0.490522 -1.41118 0
M  V30 8311 H 771.001 1.32745 -3.99946 0
M  V30 8312 H 769.676 1.57307 -2.82907 0
M  V30 8313 H 768.583 -0.575811 -3.69642 0
M  V30 8314 H 769.916 -0.738129 -4.86634 0
M  V30 8315 N 771.568 1.50203 -0.477153 0
M  V30 8316 C 772.531 2.27194 0.302599 0
M  V30 8317 C 773.531 1.32221 0.915112 0
M  V30 8318 O 774.721 1.55593 0.783348 0
M  V30 8319 C 771.853 3.0938 1.43167 0
M  V30 8320 H 773.046 2.97575 -0.372678 0
M  V30 8321 H 770.599 1.54578 -0.231392 0
M  V30 8322 H 771.334 2.43509 2.14182 0
M  V30 8323 H 771.119 3.79181 0.998197 0
M  V30 8324 H 772.609 3.67592 1.98157 0
M  V30 8325 N 773.046 0.209999 1.56195 0
M  V30 8326 C 773.993 -0.704854 2.19774 0
M  V30 8327 C 774.963 -1.19886 1.14964 0
M  V30 8328 O 776.148 -1.26005 1.43274 0
M  V30 8329 C 773.288 -1.91241 2.87265 0
M  V30 8330 C 772.401 -1.45838 4.06639 0
M  V30 8331 C 771.536 -2.6226 4.61945 0
M  V30 8332 C 770.575 -2.13537 5.73645 0
M  V30 8333 N 769.712 -3.2319 6.23292 0
M  V30 8334 H 774.552 -0.155944 2.97592 0
M  V30 8335 H 772.089 -0.0652235 1.46955 0
M  V30 8336 H 774.047 -2.62123 3.24573 0
M  V30 8337 H 772.677 -2.43439 2.11985 0
M  V30 8338 H 771.729 -0.644897 3.74894 0
M  V30 8339 H 773.041 -1.06103 4.87384 0
M  V30 8340 H 772.195 -3.41243 5.01636 0
M  V30 8341 H 770.934 -3.05278 3.80338 0
M  V30 8342 H 769.939 -1.33013 5.33468 0
M  V30 8343 H 771.164 -1.71533 6.57079 0
M  V30 8344 H 769.11 -3.65711 5.44602 0
M  V30 8345 H 769.027 -2.8767 6.99129 0
M  V30 8346 H 770.295 -4.02342 6.67639 0
M  V30 8347 N 774.524 -1.57472 -0.0634922 0
M  V30 8348 C 775.77 -1.87932 -0.762194 0
M  V30 8349 C 776.103 -0.803377 -1.76804 0
M  V30 8350 O 775.378 0.185468 -1.93614 0
M  V30 8351 C 775.661 -3.29053 -1.46275 0
M  V30 8352 C 775.514 -4.47309 -0.472755 0
M  V30 8353 C 776.833 -3.68537 -2.40558 0
M  V30 8354 H 773.952 -0.683521 -0.275624 0
M  V30 8355 H 776.594 -1.89983 -0.0252651 0
M  V30 8356 H 774.744 -3.27435 -2.0909 0
M  V30 8357 H 776.416 -4.61053 0.150828 0
M  V30 8358 H 774.659 -4.33286 0.211187 0
M  V30 8359 H 775.33 -5.42853 -1.00072 0
M  V30 8360 H 777.806 -3.71302 -1.87814 0
M  V30 8361 H 776.682 -4.68152 -2.86574 0
M  V30 8362 H 776.943 -2.98917 -3.25731 0
M  V30 8363 N 776.003 0.335068 -1.53997 0
M  V30 8364 C 776.966 1.39481 -1.81872 0
M  V30 8365 C 777.966 1.4524 -0.690078 0
M  V30 8366 O 779.156 1.45467 -0.958377 0
M  V30 8367 C 776.288 2.78329 -1.9684 0
M  V30 8368 H 777.481 1.16024 -2.76547 0
M  V30 8369 H 775.034 0.569926 -1.45539 0
M  V30 8370 H 775.769 3.07058 -1.04337 0
M  V30 8371 H 775.554 2.75544 -2.78958 0
M  V30 8372 H 777.044 3.55016 -2.19894 0
M  V30 8373 N 777.481 1.45874 0.596531 0
M  V30 8374 C 778.444 1.54988 1.68853 0
M  V30 8375 C 779.444 0.428302 1.54991 0
M  V30 8376 O 780.634 0.692158 1.59859 0
M  V30 8377 C 777.766 1.457 3.08195 0
M  V30 8378 H 778.959 2.52294 1.62135 0
M  V30 8379 H 776.512 1.33479 0.813206 0
M  V30 8380 H 777.247 0.496204 3.20481 0
M  V30 8381 H 777.032 2.27061 3.19665 0
M  V30 8382 H 778.522 1.55133 3.87716 0
M  V30 8383 N 778.959 -0.83999 1.33349 0
M  V30 8384 C 779.922 -1.93128 1.23426 0
M  V30 8385 C 780.922 -1.60065 0.153599 0
M  V30 8386 O 782.112 -1.69425 0.405049 0
M  V30 8387 C 779.244 -3.28761 0.901622 0
M  V30 8388 H 780.437 -2.03352 2.20427 0
M  V30 8389 H 777.99 -1.03194 1.17391 0
M  V30 8390 H 778.725 -3.24233 -0.0659337 0
M  V30 8391 H 778.51 -3.54138 1.68311 0
M  V30 8392 H 780 -4.08714 0.856913 0
M  V30 8393 N 780.437 -1.16799 -1.0581 0
M  V30 8394 C 781.714 -0.862616 -1.75551 0
M  V30 8395 C 782.094 0.6385 -2.01212 0
M  V30 8396 O 781.442 1.58784 -1.64317 0
M  V30 8397 C 781.652 -1.6907 -3.05314 0
M  V30 8398 C 783 -1.90675 -3.79379 0
M  V30 8399 O 784.024 -1.65976 -3.15167 0
M  V30 8400 O 782.883 -2.32145 -4.94743 0
M  V30 8401 H 779.977 -0.318789 -0.763088 0
M  V30 8402 H 782.523 -1.27461 -1.12034 0
M  V30 8403 H 781.295 -2.70912 -2.82352 0
M  V30 8404 H 780.918 -1.27606 -3.76567 0
M  V30 8405 N 781.915 1.24427 -0.967243 0
M  V30 8406 C 782.825 2.29109 -0.504592 0
M  V30 8407 C 783.841 1.68495 0.434224 0
M  V30 8408 O 785.017 1.99041 0.307379 0
M  V30 8409 C 782.082 3.46133 0.198273 0
M  V30 8410 C 781.143 4.22149 -0.780313 0
M  V30 8411 C 780.376 5.33585 -0.110896 0
M  V30 8412 O 780.599 5.59676 1.10088 0
M  V30 8413 O 779.533 5.96522 -0.802823 0
M  V30 8414 H 783.359 2.708 -1.37482 0
M  V30 8415 H 780.944 1.30111 -0.73426 0
M  V30 8416 H 782.826 4.17205 0.593124 0
M  V30 8417 H 781.501 3.0642 1.04347 0
M  V30 8418 H 780.408 3.53454 -1.22561 0
M  V30 8419 H 781.741 4.65677 -1.59392 0
M  V30 8420 N 783.393 0.737304 1.3929 0
M  V30 8421 C 784.34 0.0988364 2.30588 0
M  V30 8422 C 785.31 -0.727206 1.49335 0
M  V30 8423 O 786.495 -0.686694 1.78014 0
M  V30 8424 C 783.635 -0.800734 3.35682 0
M  V30 8425 C 782.748 0.0381731 4.31983 0
M  V30 8426 C 781.883 -0.862884 5.24145 0
M  V30 8427 C 780.922 -0.0193639 6.12097 0
M  V30 8428 N 780.059 -0.87648 6.96608 0
M  V30 8429 H 784.899 0.883031 2.84617 0
M  V30 8430 H 782.436 0.447111 1.4014 0
M  V30 8431 H 784.394 -1.33676 3.95205 0
M  V30 8432 H 783.024 -1.55088 2.83103 0
M  V30 8433 H 782.076 0.691641 3.74059 0
M  V30 8434 H 783.388 0.690294 4.94 0
M  V30 8435 H 782.542 -1.46667 5.88705 0
M  V30 8436 H 781.281 -1.54878 4.62454 0
M  V30 8437 H 780.286 0.597202 5.46547 0
M  V30 8438 H 781.511 0.663348 6.75852 0
M  V30 8439 H 779.457 -1.54762 6.37483 0
M  V30 8440 H 779.374 -0.280892 7.55478 0
M  V30 8441 H 780.642 -1.46575 7.65595 0
M  V30 8442 N 784.871 -1.49948 0.485112 0
M  V30 8443 C 785.818 -2.28819 -0.301729 0
M  V30 8444 C 786.788 -1.34496 -0.974683 0
M  V30 8445 O 787.973 -1.63444 -0.984418 0
M  V30 8446 C 785.113 -3.16758 -1.36961 0
M  V30 8447 C 784.226 -4.26125 -0.710027 0
M  V30 8448 C 783.361 -5.01302 -1.75699 0
M  V30 8449 C 782.4 -6.02525 -1.07841 0
M  V30 8450 N 781.537 -6.70927 -2.06886 0
M  V30 8451 H 786.377 -2.95604 0.377127 0
M  V30 8452 H 783.914 -1.45764 0.197826 0
M  V30 8453 H 785.872 -3.66106 -2.00056 0
M  V30 8454 H 784.502 -2.51991 -2.01744 0
M  V30 8455 H 783.554 -3.80385 0.0338278 0
M  V30 8456 H 784.866 -4.98493 -0.175079 0
M  V30 8457 H 784.02 -5.54438 -2.46339 0
M  V30 8458 H 782.759 -4.28672 -2.32577 0
M  V30 8459 H 781.764 -5.48635 -0.357706 0
M  V30 8460 H 782.989 -6.77134 -0.516345 0
M  V30 8461 H 780.935 -6.01079 -2.62755 0
M  V30 8462 H 780.852 -7.39216 -1.58414 0
M  V30 8463 H 782.12 -7.28675 -2.76863 0
M  V30 8464 N 786.349 -0.21828 -1.56081 0
M  V30 8465 C 787.596 0.414307 -1.98216 0
M  V30 8466 C 787.924 1.60005 -1.10584 0
M  V30 8467 O 787.179 1.95124 -0.150043 0
M  V30 8468 C 787.478 0.894782 -3.46018 0
M  V30 8469 C 787.144 -0.180083 -4.5054 0
M  V30 8470 C 785.806 -0.475367 -4.78846 0
M  V30 8471 C 788.158 -0.907191 -5.13244 0
M  V30 8472 C 785.486 -1.50233 -5.67139 0
M  V30 8473 C 787.838 -1.92347 -6.02649 0
M  V30 8474 C 786.502 -2.22571 -6.293 0
M  V30 8475 H 785.772 0.151606 -0.725325 0
M  V30 8476 H 788.419 -0.320113 -1.88806 0
M  V30 8477 H 786.724 1.7079 -3.52616 0
M  V30 8478 H 788.421 1.39403 -3.75989 0
M  V30 8479 H 785.011 0.06022 -4.28558 0
M  V30 8480 H 789.195 -0.692303 -4.91448 0
M  V30 8481 H 784.451 -1.74215 -5.86054 0
M  V30 8482 H 788.625 -2.49197 -6.50288 0
M  V30 8483 H 786.252 -3.0229 -6.97513 0
M  V30 8484 N 787.827 1.57504 0.0551401 0
M  V30 8485 C 788.759 2.0158 1.09078 0
M  V30 8486 C 789.772 0.92434 1.34014 0
M  V30 8487 O 790.961 1.20202 1.31961 0
M  V30 8488 C 788.061 2.35385 2.43818 0
M  V30 8489 C 787.234 3.66588 2.38605 0
M  V30 8490 C 786.293 3.87874 3.55585 0
M  V30 8491 O 785.319 4.59259 3.36258 0
M  V30 8492 N 786.521 3.31503 4.76536 0
M  V30 8493 H 789.286 2.91039 0.71529 0
M  V30 8494 H 786.847 1.60058 0.243532 0
M  V30 8495 H 788.839 2.46784 3.20749 0
M  V30 8496 H 787.409 1.51731 2.73307 0
M  V30 8497 H 786.629 3.65787 1.46947 0
M  V30 8498 H 787.917 4.52706 2.32239 0
M  V30 8499 H 787.315 2.73592 4.9514 0
M  V30 8500 H 785.872 3.48324 5.50921 0
M  V30 8501 N 789.305 -0.326896 1.54172 0
M  V30 8502 C 790.237 -1.42319 1.79661 0
M  V30 8503 C 791.25 -1.47989 0.678456 0
M  V30 8504 O 792.439 -1.50773 0.955503 0
M  V30 8505 C 789.539 -2.80876 1.89636 0
M  V30 8506 C 788.712 -2.98449 3.19761 0
M  V30 8507 C 787.771 -4.17347 3.2048 0
M  V30 8508 O 786.797 -4.10667 3.94134 0
M  V30 8509 N 787.999 -5.26717 2.44027 0
M  V30 8510 H 790.764 -1.20819 2.74268 0
M  V30 8511 H 788.325 -0.516866 1.53428 0
M  V30 8512 H 790.317 -3.58619 1.87549 0
M  V30 8513 H 788.887 -2.95442 1.02141 0
M  V30 8514 H 788.107 -2.08035 3.34836 0
M  V30 8515 H 789.395 -3.07083 4.05681 0
M  V30 8516 H 788.793 -5.35019 1.8377 0
M  V30 8517 H 787.35 -6.02891 2.47721 0
M  V30 8518 N 790.784 -1.46188 -0.588786 0
M  V30 8519 C 791.716 -1.52319 -1.71265 0
M  V30 8520 C 792.729 -0.412096 -1.57498 0
M  V30 8521 O 793.918 -0.680146 -1.65034 0
M  V30 8522 C 791.018 -1.38164 -3.09458 0
M  V30 8523 C 790.191 -2.63284 -3.49286 0
M  V30 8524 C 789.25 -2.43415 -4.66514 0
M  V30 8525 O 788.276 -3.17113 -4.72682 0
M  V30 8526 N 789.478 -1.49187 -5.61002 0
M  V30 8527 H 792.243 -2.49219 -1.66463 0
M  V30 8528 H 789.804 -1.42167 -0.774601 0
M  V30 8529 H 791.796 -1.22653 -3.85666 0
M  V30 8530 H 790.366 -0.494678 -3.08661 0
M  V30 8531 H 789.586 -2.93779 -2.62845 0
M  V30 8532 H 790.874 -3.46413 -3.7266 0
M  V30 8533 H 790.272 -0.884027 -5.5875 0
M  V30 8534 H 788.829 -1.39642 -6.36666 0
M  V30 8535 N 792.262 0.832906 -1.33792 0
M  V30 8536 C 793.511 1.58351 -1.24932 0
M  V30 8537 C 793.824 1.94754 0.181703 0
M  V30 8538 O 795.03 2.6865 0.392375 0
M  V30 8539 C 793.486 2.85643 -2.18943 0
M  V30 8540 C 793.094 2.56581 -3.67247 0
M  V30 8541 C 794.838 3.63667 -2.18968 0
M  V30 8542 C 792.745 3.80006 -4.53155 0
M  V30 8543 H 791.675 0.594278 -0.464058 0
M  V30 8544 H 794.326 0.91786 -1.58895 0
M  V30 8545 H 792.708 3.53781 -1.77919 0
M  V30 8546 H 793.882 1.96617 -4.16747 0
M  V30 8547 H 792.197 1.91851 -3.6957 0
M  V30 8548 H 794.794 4.55293 -2.80379 0
M  V30 8549 H 795.137 3.99039 -1.18631 0
M  V30 8550 H 795.67 3.0246 -2.58384 0
M  V30 8551 H 792.409 3.4976 -5.5439 0
M  V30 8552 H 791.929 4.39288 -4.08395 0
M  V30 8553 H 793.608 4.47523 -4.6726 0
M  V30 8554 N 793.74 1.17359 1.05189 0
M  V30 8555 C 794.67 0.91365 2.14883 0
M  V30 8556 C 795.651 -0.144365 1.69486 0
M  V30 8557 O 796.836 0.00587861 1.94199 0
M  V30 8558 C 793.966 0.426196 3.44675 0
M  V30 8559 C 792.92 1.4234 4.03638 0
M  V30 8560 C 792.246 0.793902 5.28773 0
M  V30 8561 C 793.546 2.7966 4.41121 0
M  V30 8562 H 795.24 1.831 2.36885 0
M  V30 8563 H 792.786 0.881781 1.13845 0
M  V30 8564 H 794.739 0.231767 4.20762 0
M  V30 8565 H 793.463 -0.526693 3.22325 0
M  V30 8566 H 792.122 1.60457 3.2962 0
M  V30 8567 H 791.77 -0.165824 5.02727 0
M  V30 8568 H 791.47 1.45959 5.69183 0
M  V30 8569 H 792.994 0.609747 6.07548 0
M  V30 8570 H 794.408 2.6526 5.08242 0
M  V30 8571 H 792.805 3.42807 4.92548 0
M  V30 8572 H 793.875 3.34068 3.51464 0
M  V30 8573 N 795.218 -1.23913 0.973828 0
M  V30 8574 C 796.181 -2.23367 0.51378 0
M  V30 8575 C 797.181 -1.55923 -0.39302 0
M  V30 8576 O 798.371 -1.73187 -0.187626 0
M  V30 8577 C 795.503 -3.39944 -0.255152 0
M  V30 8578 H 796.696 -2.65581 1.39307 0
M  V30 8579 H 794.249 -1.36632 0.759039 0
M  V30 8580 H 794.984 -3.03177 -1.15127 0
M  V30 8581 H 794.769 -3.90098 0.395673 0
M  V30 8582 H 796.259 -4.13749 -0.565842 0
M  V30 8583 N 796.696 -0.74468 -1.38897 0
M  V30 8584 C 797.628 -0.0713608 -2.29089 0
M  V30 8585 C 798.641 0.693224 -1.47303 0
M  V30 8586 O 799.83 0.535785 -1.70269 0
M  V30 8587 C 796.93 0.923078 -3.26087 0
M  V30 8588 C 796.103 0.217998 -4.36856 0
M  V30 8589 C 795.162 1.12192 -5.14101 0
M  V30 8590 O 794.188 0.595771 -5.66073 0
M  V30 8591 N 795.39 2.45082 -5.26227 0
M  V30 8592 H 798.155 -0.845906 -2.87514 0
M  V30 8593 H 795.716 -0.594712 -1.50581 0
M  V30 8594 H 797.708 1.53061 -3.74639 0
M  V30 8595 H 796.278 1.59876 -2.68623 0
M  V30 8596 H 795.498 -0.570134 -3.90055 0
M  V30 8597 H 796.786 -0.270248 -5.08082 0
M  V30 8598 H 796.184 2.90294 -4.85537 0
M  V30 8599 H 794.741 3.00907 -5.78185 0
M  V30 8600 N 798.174 1.49689 -0.493057 0
M  V30 8601 C 799.106 2.26867 0.326195 0
M  V30 8602 C 800.119 1.33083 0.937697 0
M  V30 8603 O 801.308 1.58427 0.822382 0
M  V30 8604 C 798.408 3.0519 1.4735 0
M  V30 8605 C 797.581 4.26491 0.970767 0
M  V30 8606 C 796.64 4.86926 1.99473 0
M  V30 8607 O 795.666 5.47221 1.56647 0
M  V30 8608 N 796.868 4.75871 3.32456 0
M  V30 8609 H 799.633 2.97816 -0.335547 0
M  V30 8610 H 797.194 1.58602 -0.325129 0
M  V30 8611 H 799.186 3.42496 2.15589 0
M  V30 8612 H 797.756 2.369 2.03954 0
M  V30 8613 H 796.976 3.94036 0.113529 0
M  V30 8614 H 798.264 5.05092 0.613156 0
M  V30 8615 H 797.662 4.2797 3.69944 0
M  V30 8616 H 796.219 5.17383 3.96431 0
M  V30 8617 N 799.652 0.226554 1.55963 0
M  V30 8618 C 800.599 -0.681504 2.20509 0
M  V30 8619 C 801.569 -1.1866 1.16229 0
M  V30 8620 O 802.754 -1.24478 1.44602 0
M  V30 8621 C 799.894 -1.88183 2.89277 0
M  V30 8622 C 799.007 -1.41517 4.08163 0
M  V30 8623 C 798.142 -2.57346 4.647 0
M  V30 8624 C 797.181 -2.07441 5.75877 0
M  V30 8625 N 796.318 -3.16561 6.26685 0
M  V30 8626 H 801.158 -0.124372 2.9774 0
M  V30 8627 H 798.695 -0.0496333 1.47016 0
M  V30 8628 H 800.653 -2.58666 3.27335 0
M  V30 8629 H 799.283 -2.41177 2.14555 0
M  V30 8630 H 798.335 -0.605099 3.75557 0
M  V30 8631 H 799.647 -1.00928 4.88482 0
M  V30 8632 H 798.801 -3.35903 5.05227 0
M  V30 8633 H 797.54 -3.01227 3.83554 0
M  V30 8634 H 796.545 -1.27347 5.34848 0
M  V30 8635 H 797.77 -1.64554 6.58862 0
M  V30 8636 H 795.716 -3.59914 5.48451 0
M  V30 8637 H 795.633 -2.80239 7.02141 0
M  V30 8638 H 796.901 -3.95238 6.71868 0
M  V30 8639 N 801.13 -1.57531 -0.0467866 0
M  V30 8640 C 802.077 -2.05387 -1.05285 0
M  V30 8641 C 803.047 -0.939385 -1.36985 0
M  V30 8642 O 804.232 -1.20877 -1.47626 0
M  V30 8643 C 801.372 -2.52343 -2.35408 0
M  V30 8644 C 800.485 -3.77512 -2.10022 0
M  V30 8645 C 799.62 -4.1315 -3.33887 0
M  V30 8646 C 798.659 -5.31286 -3.03976 0
M  V30 8647 N 797.796 -5.62441 -4.20243 0
M  V30 8648 H 802.636 -2.91095 -0.637788 0
M  V30 8649 H 800.173 -1.43939 -0.303322 0
M  V30 8650 H 802.131 -2.77628 -3.11413 0
M  V30 8651 H 800.761 -1.69577 -2.7467 0
M  V30 8652 H 799.813 -3.59417 -1.24594 0
M  V30 8653 H 801.125 -4.63644 -1.83945 0
M  V30 8654 H 800.279 -4.39469 -4.18273 0
M  V30 8655 H 799.018 -3.25634 -3.63062 0
M  V30 8656 H 798.023 -5.04738 -2.17991 0
M  V30 8657 H 799.248 -6.20441 -2.76098 0
M  V30 8658 H 797.194 -4.77885 -4.49402 0
M  V30 8659 H 797.111 -6.43046 -3.97528 0
M  V30 8660 H 798.379 -5.93327 -5.05553 0
M  V30 8661 N 802.608 0.318715 -1.54344 0
M  V30 8662 C 803.885 1.07461 -1.63437 0
M  V30 8663 C 804.265 2.05771 -0.47131 0
M  V30 8664 O 803.613 2.22175 0.53391 0
M  V30 8665 C 803.823 1.77224 -3.00654 0
M  V30 8666 C 805.171 2.30069 -3.56866 0
M  V30 8667 O 806.195 1.87284 -3.0299 0
M  V30 8668 O 805.054 3.08412 -4.51159 0
M  V30 8669 H 802.148 0.495627 -0.66203 0
M  V30 8670 H 804.694 0.318218 -1.6669 0
M  V30 8671 H 803.466 1.05742 -3.76742 0
M  V30 8672 H 803.089 2.59662 -3.01101 0
M  V30 8673 N 804.086 1.46499 0.581025 0
M  V30 8674 C 805.016 1.60052 1.70017 0
M  V30 8675 C 805.997 0.450788 1.64018 0
M  V30 8676 O 807.182 0.677237 1.82009 0
M  V30 8677 C 804.312 1.5921 3.08658 0
M  V30 8678 C 803.266 2.73169 3.29488 0
M  V30 8679 C 802.592 2.57389 4.68674 0
M  V30 8680 C 803.892 4.14978 3.1716 0
M  V30 8681 H 805.586 2.53735 1.5893 0
M  V30 8682 H 803.132 1.22113 0.763173 0
M  V30 8683 H 805.085 1.67285 3.86773 0
M  V30 8684 H 803.809 0.620718 3.20647 0
M  V30 8685 H 802.468 2.64566 2.53773 0
M  V30 8686 H 802.116 1.58331 4.77431 0
M  V30 8687 H 801.816 3.33826 4.83564 0
M  V30 8688 H 803.34 2.67358 5.48956 0
M  V30 8689 H 804.754 4.24684 3.85119 0
M  V30 8690 H 803.151 4.92016 3.4357 0
M  V30 8691 H 804.221 4.35016 2.14218 0
M  V30 8692 N 805.565 -0.825799 1.34232 0
M  V30 8693 C 806.793 -1.61363 1.29497 0
M  V30 8694 C 807.208 -1.88341 -0.131536 0
M  V30 8695 O 806.565 -1.47279 -1.07773 0
M  V30 8696 C 806.616 -2.95623 2.08061 0
M  V30 8697 O 806.337 -2.69824 3.45147 0
M  V30 8698 C 807.838 -3.90032 2.10688 0
M  V30 8699 H 805.058 -0.501676 0.445603 0
M  V30 8700 H 807.602 -1.02767 1.76803 0
M  V30 8701 H 805.757 -3.50785 1.64404 0
M  V30 8702 H 806.171 -3.55412 3.85723 0
M  V30 8703 H 807.645 -4.81411 2.70087 0
M  V30 8704 H 808.122 -4.25188 1.10052 0
M  V30 8705 H 808.728 -3.40807 2.54422 0
M  V30 8706 N 807.043 -1.17915 -1.04565 0
M  V30 8707 C 808.271 -0.99616 -1.8134 0
M  V30 8708 C 808.686 0.455509 -1.83223 0
M  V30 8709 O 808.043 1.31636 -1.26405 0
M  V30 8710 C 808.094 -1.53758 -3.27171 0
M  V30 8711 O 807.815 -2.93241 -3.25486 0
M  V30 8712 C 809.316 -1.40007 -4.2061 0
M  V30 8713 H 806.536 -0.352055 -0.571225 0
M  V30 8714 H 809.08 -1.56349 -1.31815 0
M  V30 8715 H 807.235 -1.01213 -3.73945 0
M  V30 8716 H 807.649 -3.18392 -4.16805 0
M  V30 8717 H 809.123 -1.82695 -5.2089 0
M  V30 8718 H 809.6 -0.348054 -4.37819 0
M  V30 8719 H 810.206 -1.916 -3.79697 0
M  V30 8720 N 808.521 1.23394 -0.980386 0
M  V30 8721 C 809.768 1.91809 -0.649261 0
M  V30 8722 C 810.096 1.765 0.817197 0
M  V30 8723 O 809.351 1.11979 1.60497 0
M  V30 8724 C 809.65 3.43542 -0.985588 0
M  V30 8725 C 809.316 3.79031 -2.44225 0
M  V30 8726 C 807.978 3.88429 -2.84035 0
M  V30 8727 C 810.33 3.96145 -3.38702 0
M  V30 8728 C 807.658 4.12368 -4.17336 0
M  V30 8729 C 810.01 4.21583 -4.71646 0
M  V30 8730 C 808.674 4.29203 -5.11215 0
M  V30 8731 H 807.944 0.70188 -0.237581 0
M  V30 8732 H 810.591 1.4642 -1.23424 0
M  V30 8733 H 808.896 3.90503 -0.318521 0
M  V30 8734 H 810.593 3.94708 -0.707596 0
M  V30 8735 H 807.183 3.7229 -2.12362 0
M  V30 8736 H 811.367 3.88274 -3.09123 0
M  V30 8737 H 806.623 4.1649 -4.47601 0
M  V30 8738 H 810.797 4.33769 -5.4481 0
M  V30 8739 H 808.424 4.47505 -6.14527 0
M  V30 8740 N 809.999 0.752036 1.385 0
M  V30 8741 C 810.929 0.138718 2.33088 0
M  V30 8742 C 811.91 -0.705318 1.54788 0
M  V30 8743 O 813.095 -0.646821 1.83112 0
M  V30 8744 C 810.225 -0.75641 3.38963 0
M  V30 8745 C 809.179 -0.0152239 4.27997 0
M  V30 8746 C 808.505 -1.0285 5.24715 0
M  V30 8747 C 809.805 1.15226 5.09431 0
M  V30 8748 H 811.499 0.928852 2.84627 0
M  V30 8749 H 809.045 0.448111 1.3685 0
M  V30 8750 H 810.998 -1.19513 4.04097 0
M  V30 8751 H 809.722 -1.57885 2.85902 0
M  V30 8752 H 808.381 0.404061 3.64366 0
M  V30 8753 H 808.029 -1.84496 4.67943 0
M  V30 8754 H 807.729 -0.537238 5.85139 0
M  V30 8755 H 809.253 -1.46657 5.92726 0
M  V30 8756 H 810.667 0.791161 5.67815 0
M  V30 8757 H 809.064 1.57428 5.79082 0
M  V30 8758 H 810.134 1.9659 4.43261 0
M  V30 8759 N 811.477 -1.49425 0.500989 0
M  V30 8760 C 812.387 -2.32899 -0.282011 0
M  V30 8761 C 813.403 -1.44632 -0.967346 0
M  V30 8762 O 814.579 -1.77654 -0.94873 0
M  V30 8763 C 811.644 -3.20069 -1.33253 0
M  V30 8764 C 810.705 -4.24186 -0.660636 0
M  V30 8765 C 809.938 -5.07191 -1.6611 0
M  V30 8766 O 810.161 -4.91712 -2.89094 0
M  V30 8767 O 809.095 -5.8948 -1.21643 0
M  V30 8768 H 812.921 -3.01038 0.401224 0
M  V30 8769 H 810.506 -1.47079 0.262323 0
M  V30 8770 H 812.388 -3.74071 -1.94033 0
M  V30 8771 H 811.063 -2.54625 -1.9987 0
M  V30 8772 H 809.97 -3.74098 -0.0130959 0
M  V30 8773 H 811.303 -4.92186 -0.0369179 0
M  V30 8774 N 812.955 -0.234822 -1.55841 0
M  V30 8775 C 814.18 0.400741 -2.03492 0
M  V30 8776 C 814.605 1.51618 -1.11327 0
M  V30 8777 O 813.963 1.81002 -0.103922 0
M  V30 8778 C 814.011 0.897184 -3.49261 0
M  V30 8779 O 813.115 2.00764 -3.60233 0
M  V30 8780 H 812.456 0.0890023 -0.658008 0
M  V30 8781 H 814.986 -0.357345 -2.01455 0
M  V30 8782 H 814.996 1.20356 -3.89844 0
M  V30 8783 H 813.671 0.0808639 -4.15821 0
M  V30 8784 H 812.248 1.70689 -3.31541 0
M  V30 8785 N 814.433 1.57553 0.0384317 0
M  V30 8786 C 815.365 2.02726 1.06934 0
M  V30 8787 C 816.378 0.938502 1.33026 0
M  V30 8788 O 817.567 1.21595 1.30678 0
M  V30 8789 C 814.667 2.37958 2.41308 0
M  V30 8790 C 813.84 3.69098 2.34703 0
M  V30 8791 C 812.899 3.91623 3.51451 0
M  V30 8792 O 811.925 4.628 3.31368 0
M  V30 8793 N 813.127 3.36538 4.72993 0
M  V30 8794 H 815.892 2.91781 0.684381 0
M  V30 8795 H 813.453 1.60307 0.226542 0
M  V30 8796 H 815.445 2.50172 3.18113 0
M  V30 8797 H 814.015 1.54621 2.71682 0
M  V30 8798 H 813.235 3.67325 1.43059 0
M  V30 8799 H 814.523 4.55144 2.27424 0
M  V30 8800 H 813.921 2.78828 4.92211 0
M  V30 8801 H 812.478 3.54148 5.47195 0
M  V30 8802 N 815.911 -0.310526 1.54511 0
M  V30 8803 C 816.858 -1.38264 1.84802 0
M  V30 8804 C 817.828 -1.50808 0.696141 0
M  V30 8805 O 819.013 -1.6582 0.943846 0
M  V30 8806 C 816.153 -2.74422 2.09252 0
M  V30 8807 C 815.266 -2.70405 3.36906 0
M  V30 8808 C 814.401 -3.98495 3.51248 0
M  V30 8809 C 813.44 -3.88836 4.72729 0
M  V30 8810 N 812.577 -5.08683 4.83928 0
M  V30 8811 H 817.417 -1.11732 2.76261 0
M  V30 8812 H 814.954 -0.540609 1.36806 0
M  V30 8813 H 816.912 -3.53593 2.21422 0
M  V30 8814 H 815.542 -2.99235 1.2107 0
M  V30 8815 H 814.594 -1.83151 3.33406 0
M  V30 8816 H 815.906 -2.59155 4.26193 0
M  V30 8817 H 815.06 -4.861 3.63031 0
M  V30 8818 H 813.799 -4.12567 2.60077 0
M  V30 8819 H 812.804 -2.99615 4.60989 0
M  V30 8820 H 814.029 -3.76318 5.65298 0
M  V30 8821 H 811.975 -5.23236 3.95677 0
M  V30 8822 H 811.892 -4.99819 5.67201 0
M  V30 8823 H 813.16 -5.97966 5.00057 0
M  V30 8824 N 817.389 -1.46805 -0.573248 0
M  V30 8825 C 818.336 -1.58084 -1.68161 0
M  V30 8826 C 819.306 -0.424636 -1.6058 0
M  V30 8827 O 820.491 -0.642623 -1.79652 0
M  V30 8828 C 817.631 -1.58601 -3.06496 0
M  V30 8829 C 816.744 -2.85023 -3.24632 0
M  V30 8830 C 815.879 -2.76981 -4.53271 0
M  V30 8831 C 814.918 -3.983 -4.64783 0
M  V30 8832 N 814.055 -3.88589 -5.84759 0
M  V30 8833 H 818.895 -2.52755 -1.57858 0
M  V30 8834 H 816.432 -1.25385 -0.769218 0
M  V30 8835 H 818.39 -1.56885 -3.86579 0
M  V30 8836 H 817.02 -0.674553 -3.15673 0
M  V30 8837 H 816.072 -2.96678 -2.38089 0
M  V30 8838 H 817.384 -3.7491 -3.29004 0
M  V30 8839 H 816.538 -2.73424 -5.41594 0
M  V30 8840 H 815.277 -1.84751 -4.51352 0
M  V30 8841 H 814.282 -4.02179 -3.74876 0
M  V30 8842 H 815.507 -4.91639 -4.68474 0
M  V30 8843 H 813.453 -2.99151 -5.83819 0
M  V30 8844 H 813.37 -4.7214 -5.90441 0
M  V30 8845 H 814.638 -3.89022 -6.75486 0
M  V30 8846 N 818.867 0.818669 -1.34668 0
M  V30 8847 C 819.799 1.93754 -1.22442 0
M  V30 8848 C 820.812 1.62103 -0.150501 0
M  V30 8849 O 822.001 1.73898 -0.402728 0
M  V30 8850 C 819.101 3.27806 -0.860031 0
M  V30 8851 C 818.274 3.8745 -2.02981 0
M  V30 8852 C 817.333 4.99887 -1.64314 0
M  V30 8853 O 816.359 5.17957 -2.36029 0
M  V30 8854 N 817.561 5.77795 -0.55976 0
M  V30 8855 H 820.326 2.04773 -2.18833 0
M  V30 8856 H 817.887 0.995472 -1.27679 0
M  V30 8857 H 819.879 4.00478 -0.583068 0
M  V30 8858 H 818.449 3.12597 0.0138253 0
M  V30 8859 H 817.669 3.07119 -2.47127 0
M  V30 8860 H 818.957 4.2403 -2.81204 0
M  V30 8861 H 818.355 5.65688 0.0363329 0
M  V30 8862 H 816.912 6.50899 -0.342541 0
M  V30 8863 N 820.346 1.18468 1.03938 0
M  V30 8864 C 821.576 1.0043 1.80547 0
M  V30 8865 C 821.984 -0.450407 1.83761 0
M  V30 8866 O 821.327 -1.32463 1.27276 0
M  V30 8867 C 821.389 1.48437 3.27424 0
M  V30 8868 C 821.053 2.96372 3.47869 0
M  V30 8869 C 822.05 3.94217 3.38953 0
M  V30 8870 C 819.735 3.34831 3.74424 0
M  V30 8871 C 821.729 5.28517 3.56298 0
M  V30 8872 C 819.416 4.69294 3.91416 0
M  V30 8873 C 820.414 5.65946 3.82354 0
M  V30 8874 O 820.102 6.97974 3.98858 0
M  V30 8875 H 819.834 0.354853 0.575374 0
M  V30 8876 H 822.388 1.57473 1.31876 0
M  V30 8877 H 820.618 0.857601 3.7707 0
M  V30 8878 H 822.307 1.2677 3.85596 0
M  V30 8879 H 823.073 3.6585 3.184 0
M  V30 8880 H 818.952 2.60161 3.80575 0
M  V30 8881 H 822.496 6.03943 3.49141 0
M  V30 8882 H 818.393 4.97361 4.11463 0
M  V30 8883 H 819.161 7.04895 4.1601 0
M  V30 8884 N 821.824 -1.22873 0.986916 0
M  V30 8885 C 822.771 -2.2458 0.532215 0
M  V30 8886 C 823.741 -1.60375 -0.432322 0
M  V30 8887 O 824.926 -1.87775 -0.338416 0
M  V30 8888 C 822.066 -3.44761 -0.152864 0
M  V30 8889 C 821.179 -4.23501 0.852704 0
M  V30 8890 C 820.314 -5.31011 0.14176 0
M  V30 8891 C 819.353 -6.01464 1.1361 0
M  V30 8892 N 818.49 -7.00631 0.453871 0
M  V30 8893 H 823.33 -2.62838 1.40428 0
M  V30 8894 H 820.867 -1.29185 0.703543 0
M  V30 8895 H 822.825 -4.1333 -0.566926 0
M  V30 8896 H 821.455 -3.07284 -0.988756 0
M  V30 8897 H 820.507 -3.54286 1.38512 0
M  V30 8898 H 821.819 -4.72097 1.61014 0
M  V30 8899 H 820.973 -6.05805 -0.329337 0
M  V30 8900 H 819.712 -4.83373 -0.648229 0
M  V30 8901 H 818.717 -5.25456 1.61789 0
M  V30 8902 H 819.942 -6.5119 1.92686 0
M  V30 8903 H 817.888 -6.55235 -0.316791 0
M  V30 8904 H 817.805 -7.47204 1.14986 0
M  V30 8905 H 819.073 -7.795 0.00537823 0
M  V30 8906 N 823.302 -0.75937 -1.38099 0
M  V30 8907 C 824.551 -0.314864 -1.99227 0
M  V30 8908 C 824.864 1.1113 -1.60964 0
M  V30 8909 O 826.07 1.65657 -2.15105 0
M  V30 8910 C 824.526 -0.512001 -3.56239 0
M  V30 8911 C 824.134 -1.94762 -4.0345 0
M  V30 8912 C 825.878 -0.130497 -4.24299 0
M  V30 8913 C 823.785 -2.09301 -5.53125 0
M  V30 8914 H 822.715 -0.113978 -0.745335 0
M  V30 8915 H 825.366 -0.936736 -1.57789 0
M  V30 8916 H 823.748 0.179144 -3.95595 0
M  V30 8917 H 824.922 -2.67271 -3.75371 0
M  V30 8918 H 823.237 -2.28457 -3.48133 0
M  V30 8919 H 825.834 -0.21781 -5.34256 0
M  V30 8920 H 826.177 0.917644 -4.0606 0
M  V30 8921 H 826.71 -0.773716 -3.90203 0
M  V30 8922 H 823.449 -3.1239 -5.76275 0
M  V30 8923 H 822.969 -1.41261 -5.82928 0
M  V30 8924 H 824.648 -1.88571 -6.1891 0
M  V30 8925 N 824.78 1.49157 -0.508906 0
M  V30 8926 C 826.02 2.04376 0.0310623 0
M  V30 8927 C 826.384 1.37946 1.33547 0
M  V30 8928 O 827.585 1.83931 1.96017 0
M  V30 8929 C 825.856 3.56985 0.172191 0
M  V30 8930 S 827.415 4.33728 0.665267 0
M  V30 8931 H 824.233 0.710997 -0.00199266 0
M  V30 8932 H 826.835 1.83119 -0.684674 0
M  V30 8933 H 825.539 4.02874 -0.78234 0
M  V30 8934 H 825.07 3.82661 0.912933 0
M  V30 8935 H 827.085 4.56992 1.9332 0
M  V30 8936 N 826.258 0.243083 1.55714 0
M  V30 8937 C 827.205 -0.658078 2.21219 0
M  V30 8938 C 828.175 -1.1742 1.17481 0
M  V30 8939 O 829.36 -1.22937 1.45915 0
M  V30 8940 C 826.5 -1.85104 2.91257 0
M  V30 8941 C 825.613 -1.3718 4.09641 0
M  V30 8942 C 824.748 -2.52403 4.67404 0
M  V30 8943 C 823.787 -2.01321 5.78045 0
M  V30 8944 N 822.924 -3.09896 6.30007 0
M  V30 8945 H 827.764 -0.0927854 2.97856 0
M  V30 8946 H 825.301 -0.0340375 1.47061 0
M  V30 8947 H 827.259 -2.55179 3.3006 0
M  V30 8948 H 825.889 -2.38887 2.17101 0
M  V30 8949 H 824.941 -0.565232 3.76177 0
M  V30 8950 H 826.253 -0.957409 4.89525 0
M  V30 8951 H 825.407 -3.30525 5.08761 0
M  V30 8952 H 824.146 -2.97142 3.86728 0
M  V30 8953 H 823.151 -1.21667 5.36169 0
M  V30 8954 H 824.376 -1.57556 6.6057 0
M  V30 8955 H 822.322 -3.54077 5.52237 0
M  V30 8956 H 822.239 -2.72776 7.05074 0
M  V30 8957 H 823.507 -3.8809 6.76023 0
M  V30 8958 N 827.736 -1.57571 -0.0300757 0
M  V30 8959 C 828.646 -2.09892 -1.04798 0
M  V30 8960 C 829.662 -1.03732 -1.39698 0
M  V30 8961 O 830.838 -1.35461 -1.49038 0
M  V30 8962 C 827.903 -2.56707 -2.33028 0
M  V30 8963 C 826.964 -3.77345 -2.04718 0
M  V30 8964 C 826.197 -4.21918 -3.26834 0
M  V30 8965 O 826.42 -3.66025 -4.37472 0
M  V30 8966 O 825.354 -5.14362 -3.12594 0
M  V30 8967 H 829.18 -2.97023 -0.633344 0
M  V30 8968 H 826.765 -1.47344 -0.246991 0
M  V30 8969 H 828.647 -2.87154 -3.08417 0
M  V30 8970 H 827.322 -1.72688 -2.73789 0
M  V30 8971 H 826.229 -3.51919 -1.26901 0
M  V30 8972 H 827.562 -4.62345 -1.68813 0
M  V30 8973 N 829.214 0.302327 -1.54673 0
M  V30 8974 C 830.161 1.37282 -1.85532 0
M  V30 8975 C 831.131 1.50437 -0.704129 0
M  V30 8976 O 832.316 1.65317 -0.952627 0
M  V30 8977 C 829.456 2.73309 -2.10704 0
M  V30 8978 C 828.569 2.68614 -3.38335 0
M  V30 8979 C 827.704 3.96626 -3.53357 0
M  V30 8980 C 826.743 3.86324 -4.74784 0
M  V30 8981 N 825.88 5.06109 -4.86619 0
M  V30 8982 H 830.72 1.10265 -2.76849 0
M  V30 8983 H 828.257 0.533346 -1.37091 0
M  V30 8984 H 830.215 3.52414 -2.23294 0
M  V30 8985 H 828.845 2.98589 -1.22656 0
M  V30 8986 H 827.897 1.81381 -3.34373 0
M  V30 8987 H 829.209 2.56891 -4.27561 0
M  V30 8988 H 828.363 4.84168 -3.65604 0
M  V30 8989 H 827.102 4.11182 -2.62261 0
M  V30 8990 H 826.107 2.97166 -4.62572 0
M  V30 8991 H 827.332 3.73315 -5.67286 0
M  V30 8992 H 825.278 5.2113 -3.98446 0
M  V30 8993 H 825.195 4.96804 -5.69844 0
M  V30 8994 H 826.463 5.95306 -5.03221 0
M  V30 8995 N 830.692 1.47107 0.565454 0
M  V30 8996 C 831.941 1.5257 1.31929 0
M  V30 8997 C 832.254 0.189092 1.94684 0
M  V30 8998 O 833.46 0.121657 2.71227 0
M  V30 8999 C 831.916 2.68914 2.39193 0
M  V30 9000 C 831.524 4.09069 1.82665 0
M  V30 9001 C 833.268 2.83663 3.1581 0
M  V30 9002 C 831.175 5.16726 2.87661 0
M  V30 9003 H 830.105 0.567869 0.496025 0
M  V30 9004 H 832.756 1.73361 0.60151 0
M  V30 9005 H 831.138 2.41486 3.13848 0
M  V30 9006 H 832.312 4.46364 1.14438 0
M  V30 9007 H 830.627 3.99135 1.1866 0
M  V30 9008 H 833.224 3.61261 3.94201 0
M  V30 9009 H 833.567 1.91804 3.69482 0
M  V30 9010 H 834.1 3.10821 2.48265 0
M  V30 9011 H 830.839 6.10433 2.38854 0
M  V30 9012 H 830.359 4.83957 3.54324 0
M  V30 9013 H 832.038 5.43319 3.51303 0
M  V30 9014 N 832.17 -0.811516 1.35101 0
M  V30 9015 C 833.117 -1.92308 1.27617 0
M  V30 9016 C 834.087 -1.6543 0.149091 0
M  V30 9017 O 835.272 -1.8789 0.331974 0
M  V30 9018 C 832.412 -3.28768 1.04908 0
M  V30 9019 C 831.525 -3.67865 2.26493 0
M  V30 9020 C 830.66 -4.9333 1.96974 0
M  V30 9021 C 829.699 -5.25041 3.1464 0
M  V30 9022 N 828.836 -6.41685 2.84929 0
M  V30 9023 H 833.676 -1.98041 2.22674 0
M  V30 9024 H 831.213 -0.968755 1.10696 0
M  V30 9025 H 833.171 -4.07426 0.897749 0
M  V30 9026 H 831.801 -3.22517 0.135151 0
M  V30 9027 H 830.853 -2.84507 2.52507 0
M  V30 9028 H 832.165 -3.87263 3.14371 0
M  V30 9029 H 831.319 -5.79803 1.78643 0
M  V30 9030 H 830.058 -4.75958 1.06374 0
M  V30 9031 H 829.063 -4.3706 3.33554 0
M  V30 9032 H 830.288 -5.44346 4.06035 0
M  V30 9033 H 828.234 -6.25747 1.96918 0
M  V30 9034 H 828.151 -6.6131 3.66341 0
M  V30 9035 H 829.419 -7.31198 2.70128 0
M  V30 9036 N 833.648 -1.19017 -1.03309 0
M  V30 9037 C 834.558 -0.939303 -2.14975 0
M  V30 9038 C 835.574 0.0992359 -1.73717 0
M  V30 9039 O 836.75 -0.0844362 -2.01223 0
M  V30 9040 C 833.815 -0.476712 -3.43407 0
M  V30 9041 C 832.876 -1.58413 -3.99003 0
M  V30 9042 C 832.109 -1.14352 -5.21305 0
M  V30 9043 O 832.332 -0.00534408 -5.704 0
M  V30 9044 O 831.266 -1.94436 -5.6963 0
M  V30 9045 H 835.092 -1.87386 -2.38998 0
M  V30 9046 H 832.677 -0.972635 -1.13403 0
M  V30 9047 H 834.559 -0.22718 -4.20787 0
M  V30 9048 H 833.234 0.429455 -3.20839 0
M  V30 9049 H 832.141 -1.88777 -3.22977 0
M  V30 9050 H 833.474 -2.4667 -4.25928 0
M  V30 9051 N 835.127 1.22348 -0.993418 0
M  V30 9052 C 836.037 2.27987 -0.553076 0
M  V30 9053 C 837.053 1.69378 0.398386 0
M  V30 9054 O 838.229 1.99648 0.26509 0
M  V30 9055 C 835.294 3.46475 0.124809 0
M  V30 9056 C 834.355 4.20399 -0.869682 0
M  V30 9057 C 833.588 5.33229 -0.224052 0
M  V30 9058 O 833.811 5.61885 0.981915 0
M  V30 9059 O 832.745 5.94685 -0.929174 0
M  V30 9060 H 836.571 2.67822 -1.43195 0
M  V30 9061 H 834.156 1.28525 -0.761694 0
M  V30 9062 H 836.038 4.18369 0.504496 0
M  V30 9063 H 834.713 3.08565 0.978243 0
M  V30 9064 H 833.62 3.50774 -1.30031 0
M  V30 9065 H 834.953 4.62191 -1.69233 0
M  V30 9066 N 836.605 0.766683 1.37694 0
M  V30 9067 C 837.538 0.0959288 2.27998 0
M  V30 9068 C 838.516 -0.714493 1.46061 0
M  V30 9069 O 839.7 -0.690337 1.75404 0
M  V30 9070 C 836.827 -0.87057 3.27321 0
M  V30 9071 C 835.873 -0.144771 4.26254 0
M  V30 9072 S 836.706 1.16365 5.22704 0
M  V30 9073 C 837.862 0.200564 6.25579 0
M  V30 9074 H 838.095 0.861666 2.84539 0
M  V30 9075 H 835.628 0.559845 1.43893 0
M  V30 9076 H 837.586 -1.42282 3.85053 0
M  V30 9077 H 836.247 -1.60938 2.69737 0
M  V30 9078 H 835.44 -0.877259 4.96307 0
M  V30 9079 H 835.042 0.33633 3.72485 0
M  V30 9080 H 837.334 -0.628833 6.74575 0
M  V30 9081 H 838.277 0.869117 7.02746 0
M  V30 9082 H 838.685 -0.185972 5.64194 0
M  V30 9083 N 838.083 -1.48885 0.516809 0
M  V30 9084 C 839.031 -2.31066 -0.266656 0
M  V30 9085 C 840.025 -1.40393 -0.94795 0
M  V30 9086 O 841.231 -1.57366 -0.873836 0
M  V30 9087 H 837.606 -0.744654 -0.104858 0
M  V30 9088 H 839.577 -2.95045 0.446236 0
M  V30 9089 C 838.326 -3.22131 -1.3087 0
M  V30 9090 H 837.649 -3.91839 -0.793865 0
M  V30 9091 H 839.089 -3.82544 -1.82856 0
M  V30 9092 C 837.548 -2.42825 -2.33533 0
M  V30 9093 O 838.078 -2.14364 -3.39722 0
M  V30 9094 N 836.284 -2.04559 -2.06407 0
M  V30 9095 H 835.831 -2.27905 -1.20071 0
M  V30 9096 H 835.789 -1.51807 -2.75322 0
M  V30 9097 N 839.561 -0.251338 -1.55583 0
M  V30 9098 C 840.471 0.656978 -2.25213 0
M  V30 9099 C 841.487 1.18966 -1.26977 0
M  V30 9100 O 842.663 1.22499 -1.59862 0
M  V30 9101 C 839.728 1.83527 -2.94141 0
M  V30 9102 C 838.789 1.34162 -4.07798 0
M  V30 9103 C 838.022 2.46375 -4.73429 0
M  V30 9104 O 838.245 3.65205 -4.38157 0
M  V30 9105 O 837.179 2.15881 -5.61853 0
M  V30 9106 H 841.005 0.0936395 -3.03556 0
M  V30 9107 H 838.59 -0.0196638 -1.49387 0
M  V30 9108 H 840.472 2.52279 -3.3754 0
M  V30 9109 H 839.147 2.38614 -2.18735 0
M  V30 9110 H 838.054 0.621249 -3.68906 0
M  V30 9111 H 839.387 0.836779 -4.85035 0
M  V30 9112 N 841.039 1.57585 0.0217189 0
M  V30 9113 C 842.316 1.80779 0.74687 0
M  V30 9114 C 842.696 0.851163 1.9318 0
M  V30 9115 O 842.044 -0.105039 2.28258 0
M  V30 9116 C 842.254 3.28696 1.17302 0
M  V30 9117 C 843.602 3.93871 1.58589 0
M  V30 9118 O 844.626 3.3289 1.2674 0
M  V30 9119 O 843.485 5.01254 2.1773 0
M  V30 9120 H 840.579 0.743666 0.361786 0
M  V30 9121 H 843.125 1.697 -0.00206785 0
M  V30 9122 H 841.897 3.89927 0.327453 0
M  V30 9123 H 841.52 3.44692 1.98174 0
M  V30 9124 N 842.517 -0.29412 1.54831 0
M  V30 9125 C 843.467 -1.36476 1.82643 0
M  V30 9126 C 844.451 -1.45638 0.683984 0
M  V30 9127 O 845.643 -1.49675 0.944801 0
M  V30 9128 C 842.772 -2.72865 2.08326 0
M  V30 9129 C 841.858 -2.67898 3.28773 0
M  V30 9130 N 842.249 -2.32547 4.49172 0
M  V30 9131 C 840.547 -2.98991 3.30939 0
M  V30 9132 C 841.248 -2.37048 5.31209 0
M  V30 9133 N 840.224 -2.74679 4.69097 0
M  V30 9134 H 844.026 -1.08119 2.7329 0
M  V30 9135 H 841.54 -0.502718 1.54423 0
M  V30 9136 H 843.537 -3.5007 2.264 0
M  V30 9137 H 842.197 -3.02127 1.1895 0
M  V30 9138 H 843.208 -2.04883 4.7565 0
M  V30 9139 H 839.885 -3.33104 2.51691 0
M  V30 9140 H 841.275 -2.12457 6.37426 0
M  V30 9141 N 843.995 -1.47404 -0.557645 0
M  V30 9142 C 845.22 -1.57868 -1.34508 0
M  V30 9143 C 845.645 -0.229151 -1.86699 0
M  V30 9144 O 845.003 0.794908 -1.62944 0
M  V30 9145 C 845.051 -2.60712 -2.49122 0
M  V30 9146 O 844.155 -2.15952 -3.51338 0
M  V30 9147 H 843.496 -0.530335 -0.399551 0
M  V30 9148 H 846.026 -1.93181 -0.673954 0
M  V30 9149 H 846.036 -2.81118 -2.95697 0
M  V30 9150 H 844.711 -3.58701 -2.10491 0
M  V30 9151 H 843.288 -2.05644 -3.11071 0
M  V30 9152 N 845.473 0.80434 -1.35529 0
M  V30 9153 C 846.701 1.59283 -1.32048 0
M  V30 9154 C 847.116 1.88527 0.101556 0
M  V30 9155 O 846.473 1.48975 1.05417 0
M  V30 9156 C 846.524 2.92276 -2.12737 0
M  V30 9157 O 846.245 2.64299 -3.49396 0
M  V30 9158 C 847.746 3.86631 -2.16867 0
M  V30 9159 H 844.966 0.494523 -0.453528 0
M  V30 9160 H 847.51 0.999415 -1.78415 0
M  V30 9161 H 845.665 3.48125 -1.69964 0
M  V30 9162 H 846.079 3.4923 -3.91329 0
M  V30 9163 H 847.553 4.77053 -2.77712 0
M  V30 9164 H 848.03 4.23384 -1.16803 0
M  V30 9165 H 848.636 3.36717 -2.59811 0
M  V30 9166 N 846.951 1.19563 1.02676 0
M  V30 9167 C 848.362 1.00158 1.57561 0
M  V30 9168 C 848.713 -0.444922 1.91089 0
M  V30 9169 O 847.838 -1.32466 1.71119 0
M  V30 9170 C 848.433 1.81181 2.86284 0
M  V30 9171 C 846.992 1.66171 3.37734 0
M  V30 9172 C 846.139 1.7975 2.11152 0
M  V30 9173 H 849.09 1.33904 0.85179 0
M  V30 9174 H 849.111 1.30916 3.57269 0
M  V30 9175 H 848.623 2.86454 2.6185 0
M  V30 9176 H 846.724 0.634927 3.6715 0
M  V30 9177 H 846.837 2.46832 4.10622 0
M  V30 9178 H 845.201 1.22833 2.23123 0
M  V30 9179 H 845.984 2.86487 1.89157 0
M  V30 9180 N 848.429 -1.21819 0.999893 0
M  V30 9181 C 849.376 -2.24003 0.556005 0
M  V30 9182 C 850.346 -1.60825 -0.415287 0
M  V30 9183 O 851.531 -1.88123 -0.318481 0
M  V30 9184 C 848.671 -3.44904 -0.116289 0
M  V30 9185 C 847.784 -4.22573 0.897574 0
M  V30 9186 C 846.919 -5.30831 0.198073 0
M  V30 9187 C 845.958 -6.00225 1.19983 0
M  V30 9188 N 845.095 -7.00111 0.528157 0
M  V30 9189 H 849.935 -2.61334 1.43208 0
M  V30 9190 H 847.472 -1.28431 0.717205 0
M  V30 9191 H 849.43 -4.13908 -0.523055 0
M  V30 9192 H 848.06 -3.08315 -0.956108 0
M  V30 9193 H 847.112 -3.52797 1.42262 0
M  V30 9194 H 848.424 -4.70363 1.66013 0
M  V30 9195 H 847.578 -6.06121 -0.265065 0
M  V30 9196 H 846.317 -4.84033 -0.596924 0
M  V30 9197 H 845.322 -5.23711 1.67353 0
M  V30 9198 H 846.547 -6.4911 1.99582 0
M  V30 9199 H 844.493 -6.55534 -0.247276 0
M  V30 9200 H 844.41 -7.45943 1.22904 0
M  V30 9201 H 845.678 -7.7945 0.0880543 0
M  V30 9202 N 849.908 -0.773975 -1.37286 0
M  V30 9203 C 850.855 -0.159938 -2.30245 0
M  V30 9204 C 851.825 0.687356 -1.51211 0
M  V30 9205 O 853.01 0.639255 -1.79773 0
M  V30 9206 C 850.15 0.711452 -3.37687 0
M  V30 9207 C 849.263 -0.152692 -4.3173 0
M  V30 9208 C 848.398 0.723613 -5.26248 0
M  V30 9209 C 847.437 -0.14293 -6.11933 0
M  V30 9210 N 846.574 0.691479 -6.98687 0
M  V30 9211 H 851.414 -0.958182 -2.82175 0
M  V30 9212 H 848.951 -0.48411 -1.38906 0
M  V30 9213 H 850.909 1.2315 -3.9861 0
M  V30 9214 H 849.539 1.47528 -2.87116 0
M  V30 9215 H 848.591 -0.790574 -3.72094 0
M  V30 9216 H 849.903 -0.821027 -4.91997 0
M  V30 9217 H 849.057 1.31006 -5.92387 0
M  V30 9218 H 847.796 1.42562 -4.66398 0
M  V30 9219 H 846.801 -0.7419 -5.44771 0
M  V30 9220 H 848.026 -0.842305 -6.73856 0
M  V30 9221 H 845.972 1.37806 -6.41362 0
M  V30 9222 H 845.889 0.0804911 -7.55957 0
M  V30 9223 H 847.157 1.26225 -7.69212 0
M  V30 9224 N 851.386 1.48609 -0.524698 0
M  V30 9225 C 852.296 2.33318 0.244923 0
M  V30 9226 C 853.312 1.46153 0.944214 0
M  V30 9227 O 854.488 1.79141 0.920347 0
M  V30 9228 C 851.553 3.22149 1.28144 0
M  V30 9229 C 850.614 4.25184 0.593068 0
M  V30 9230 C 849.847 5.0977 1.5802 0
M  V30 9231 O 850.07 4.96249 2.81235 0
M  V30 9232 O 849.004 5.9134 1.1225 0
M  V30 9233 H 852.83 3.00362 -0.449066 0
M  V30 9234 H 850.415 1.46643 -0.285689 0
M  V30 9235 H 852.297 3.77111 1.88057 0
M  V30 9236 H 850.972 2.57772 1.95793 0
M  V30 9237 H 849.879 3.74071 -0.0464214 0
M  V30 9238 H 851.212 4.92183 -0.0413893 0
M  V30 9239 N 852.864 0.259585 1.55447 0
M  V30 9240 C 853.811 -0.634578 2.21905 0
M  V30 9241 C 854.781 -1.16168 1.18719 0
M  V30 9242 O 855.966 -1.21383 1.4721 0
M  V30 9243 C 853.106 -1.82005 2.93203 0
M  V30 9244 C 852.219 -1.32828 4.11073 0
M  V30 9245 C 851.354 -2.47431 4.70055 0
M  V30 9246 C 850.393 -1.95179 5.80148 0
M  V30 9247 N 849.53 -3.03197 6.33258 0
M  V30 9248 H 854.37 -0.0611886 2.97937 0
M  V30 9249 H 851.907 -0.0184378 1.47088 0
M  V30 9250 H 853.865 -2.51664 3.32748 0
M  V30 9251 H 852.495 -2.36571 2.19622 0
M  V30 9252 H 851.547 -0.525301 3.76756 0
M  V30 9253 H 852.859 -0.905435 4.90513 0
M  V30 9254 H 852.013 -3.25111 5.12238 0
M  V30 9255 H 850.752 -2.93023 3.89857 0
M  V30 9256 H 849.757 -1.15974 5.37429 0
M  V30 9257 H 850.982 -1.50541 6.62204 0
M  V30 9258 H 848.928 -3.48199 5.55961 0
M  V30 9259 H 848.845 -2.65282 7.07928 0
M  V30 9260 H 850.113 -3.80898 6.80101 0
M  V30 9261 N 854.342 -1.57594 -0.0133615 0
M  V30 9262 C 855.274 -2.04402 -1.03695 0
M  V30 9263 C 856.287 -0.959546 -1.31516 0
M  V30 9264 O 857.476 -1.23659 -1.28727 0
M  V30 9265 C 854.576 -2.41766 -2.37491 0
M  V30 9266 C 853.749 -3.72785 -2.28802 0
M  V30 9267 C 852.808 -3.97165 -3.45176 0
M  V30 9268 O 851.834 -4.68013 -3.23963 0
M  V30 9269 N 853.036 -3.44021 -4.67579 0
M  V30 9270 H 855.801 -2.92833 -0.637874 0
M  V30 9271 H 853.362 -1.60647 -0.20101 0
M  V30 9272 H 855.354 -2.55201 -3.14093 0
M  V30 9273 H 853.924 -1.58924 -2.69188 0
M  V30 9274 H 853.144 -3.69555 -1.37197 0
M  V30 9275 H 854.432 -4.58704 -2.20154 0
M  V30 9276 H 853.83 -2.86623 -4.87713 0
M  V30 9277 H 852.387 -3.62808 -5.41492 0
M  V30 9278 N 855.82 0.285905 -1.54985 0
M  V30 9279 C 856.73 1.37534 -1.90057 0
M  V30 9280 C 857.746 1.54707 -0.796348 0
M  V30 9281 O 858.922 1.69082 -1.09423 0
M  V30 9282 C 855.987 2.7167 -2.15398 0
M  V30 9283 C 855.048 2.63354 -3.39033 0
M  V30 9284 C 854.281 3.91093 -3.63155 0
M  V30 9285 O 854.504 4.91169 -2.90015 0
M  V30 9286 O 853.438 3.92075 -4.56685 0
M  V30 9287 H 857.264 1.10791 -2.8277 0
M  V30 9288 H 854.849 0.483303 -1.41367 0
M  V30 9289 H 856.731 3.51006 -2.33179 0
M  V30 9290 H 855.406 2.98226 -1.25868 0
M  V30 9291 H 854.313 1.82438 -3.26599 0
M  V30 9292 H 855.646 2.41749 -4.2874 0
M  V30 9293 N 857.298 1.47698 0.54982 0
M  V30 9294 C 858.714 1.3338 0.876468 0
M  V30 9295 C 858.914 0.329837 1.98782 0
M  V30 9296 O 857.97 -0.256022 2.51199 0
M  V30 9297 C 859.283 2.72903 1.26272 0
M  V30 9298 C 860.831 2.81243 1.37373 0
M  V30 9299 C 861.306 4.21423 1.79351 0
M  V30 9300 N 862.797 4.24 1.86489 0
M  V30 9301 C 863.532 5.29386 2.20313 0
M  V30 9302 N 863.028 6.4507 2.527 0
M  V30 9303 N 864.821 5.16768 2.2115 0
M  V30 9304 H 856.972 2.11603 -0.183781 0
M  V30 9305 H 859.235 0.947798 -0.0195601 0
M  V30 9306 H 858.941 3.47836 0.519889 0
M  V30 9307 H 858.815 3.05151 2.21727 0
M  V30 9308 H 861.202 2.06577 2.10737 0
M  V30 9309 H 861.283 2.52639 0.400882 0
M  V30 9310 H 860.927 4.96597 1.06555 0
M  V30 9311 H 860.857 4.47456 2.77652 0
M  V30 9312 H 863.348 3.40547 1.63817 0
M  V30 9313 H 863.661 7.21236 2.77557 0
M  V30 9314 H 862.006 6.48377 2.50263 0
M  V30 9315 H 865.197 4.25416 1.95293 0
M  V30 9316 H 865.37 5.99004 2.4718 0
M  V30 9317 N 858.776 -0.797141 1.35954 0
M  V30 9318 C 860.025 -1.54983 1.29086 0
M  V30 9319 C 860.338 -1.95167 -0.130003 0
M  V30 9320 O 861.544 -2.69596 -0.32101 0
M  V30 9321 C 860 -2.79738 2.26439 0
M  V30 9322 C 859.608 -2.46753 3.73921 0
M  V30 9323 C 861.352 -3.57733 2.28533 0
M  V30 9324 C 859.259 -3.67858 4.63071 0
M  V30 9325 H 858.189 -0.581766 0.479651 0
M  V30 9326 H 860.84 -0.87541 1.61273 0
M  V30 9327 H 859.222 -3.48939 1.87236 0
M  V30 9328 H 860.396 -1.85499 4.21814 0
M  V30 9329 H 858.711 -1.81985 3.74527 0
M  V30 9330 H 861.308 -4.47699 2.92351 0
M  V30 9331 H 861.651 -3.95754 1.29169 0
M  V30 9332 H 862.184 -2.95504 2.66313 0
M  V30 9333 H 858.923 -3.34939 5.63468 0
M  V30 9334 H 858.443 -4.28305 4.19898 0
M  V30 9335 H 860.122 -4.34977 4.78961 0
M  V30 9336 N 860.254 -1.20106 -1.0204 0
M  V30 9337 C 861.479 -1.0351 -1.79723 0
M  V30 9338 C 861.904 0.411328 -1.83548 0
M  V30 9339 O 861.262 1.29608 -1.26773 0
M  V30 9340 C 861.31 -1.61876 -3.22224 0
M  V30 9341 O 860.414 -0.853813 -4.03465 0
M  V30 9342 H 859.755 -0.365299 -0.554484 0
M  V30 9343 H 862.285 -1.59316 -1.28373 0
M  V30 9344 H 862.295 -1.65451 -3.72948 0
M  V30 9345 H 860.97 -2.67148 -3.18755 0
M  V30 9346 H 859.547 -0.891983 -3.62075 0
M  V30 9347 N 861.732 1.21287 -1.00634 0
M  V30 9348 C 862.679 2.23705 -0.567876 0
M  V30 9349 C 863.649 1.61043 0.406753 0
M  V30 9350 O 864.834 1.88289 0.308499 0
M  V30 9351 C 861.974 3.44961 0.097996 0
M  V30 9352 C 861.087 4.22091 -0.919972 0
M  V30 9353 C 860.222 5.30718 -0.226222 0
M  V30 9354 C 859.261 5.99581 -1.23165 0
M  V30 9355 N 858.398 6.99821 -0.565278 0
M  V30 9356 H 863.238 2.60571 -1.44592 0
M  V30 9357 H 860.775 1.28049 -0.724006 0
M  V30 9358 H 862.733 4.1418 0.501097 0
M  V30 9359 H 861.363 3.08818 0.939744 0
M  V30 9360 H 860.415 3.52038 -1.44131 0
M  V30 9361 H 861.727 4.69476 -1.68505 0
M  V30 9362 H 860.881 6.06253 0.232917 0
M  V30 9363 H 859.62 4.84343 0.571247 0
M  V30 9364 H 858.625 5.22816 -1.70128 0
M  V30 9365 H 859.85 6.48042 -2.03022 0
M  V30 9366 H 857.796 6.55656 0.212508 0
M  V30 9367 H 857.713 7.4528 -1.26858 0
M  V30 9368 H 858.981 7.79393 -0.129389 0
M  V30 9369 N 863.21 0.781244 1.36873 0
M  V30 9370 C 864.16 0.147313 2.27524 0
M  V30 9371 C 865.144 -0.663928 1.46563 0
M  V30 9372 O 866.336 -0.525343 1.69024 0
M  V30 9373 C 863.465 -0.723511 3.35589 0
M  V30 9374 C 862.551 0.0960763 4.23991 0
M  V30 9375 N 862.942 1.14649 4.92635 0
M  V30 9376 C 861.24 -0.126397 4.45821 0
M  V30 9377 C 861.941 1.64474 5.57964 0
M  V30 9378 N 860.917 0.955316 5.3514 0
M  V30 9379 H 864.719 0.951406 2.78075 0
M  V30 9380 H 862.233 0.619913 1.50103 0
M  V30 9381 H 864.23 -1.19351 3.99451 0
M  V30 9382 H 862.89 -1.52624 2.86594 0
M  V30 9383 H 863.901 1.5288 4.94821 0
M  V30 9384 H 860.578 -0.900284 4.07678 0
M  V30 9385 H 861.968 2.52124 6.22803 0
M  V30 9386 N 864.689 -1.48329 0.532571 0
M  V30 9387 C 865.636 -2.29663 -0.228779 0
M  V30 9388 C 866.606 -1.37529 -0.931401 0
M  V30 9389 O 867.791 -1.66493 -0.931921 0
M  V30 9390 C 864.931 -3.20955 -1.26814 0
M  V30 9391 C 864.044 -4.28168 -0.574099 0
M  V30 9392 C 863.179 -5.06638 -1.59661 0
M  V30 9393 C 862.218 -6.05651 -0.88618 0
M  V30 9394 N 861.355 -6.77169 -1.85436 0
M  V30 9395 H 866.195 -2.94255 0.47098 0
M  V30 9396 H 863.732 -1.45061 0.2441 0
M  V30 9397 H 865.69 -3.72285 -1.88307 0
M  V30 9398 H 864.32 -2.58281 -1.93625 0
M  V30 9399 H 863.372 -3.80085 0.154827 0
M  V30 9400 H 864.684 -4.98797 -0.0163984 0
M  V30 9401 H 863.838 -5.61995 -2.28576 0
M  V30 9402 H 862.577 -4.35854 -2.18821 0
M  V30 9403 H 861.582 -5.49495 -0.182981 0
M  V30 9404 H 862.807 -6.78434 -0.300659 0
M  V30 9405 H 860.753 -6.09134 -2.43499 0
M  V30 9406 H 860.67 -7.43882 -1.34816 0
M  V30 9407 H 861.938 -7.37114 -2.53541 0
M  V30 9408 N 866.167 -0.267825 -1.55308 0
M  V30 9409 C 867.077 0.633055 -2.25897 0
M  V30 9410 C 868.093 1.17613 -1.28231 0
M  V30 9411 O 869.269 1.20797 -1.61153 0
M  V30 9412 C 866.334 1.80397 -2.96071 0
M  V30 9413 C 865.395 1.29829 -4.09198 0
M  V30 9414 C 864.628 2.4134 -4.76016 0
M  V30 9415 O 864.851 3.60537 -4.42006 0
M  V30 9416 O 863.785 2.09909 -5.64111 0
M  V30 9417 H 867.611 0.0614381 -3.03638 0
M  V30 9418 H 865.196 -0.0355072 -1.49358 0
M  V30 9419 H 867.078 2.48685 -3.40197 0
M  V30 9420 H 865.753 2.36281 -2.21253 0
M  V30 9421 H 864.66 0.582086 -3.69544 0
M  V30 9422 H 865.993 0.785288 -4.85895 0
M  V30 9423 N 867.645 1.57599 0.00500368 0
M  V30 9424 C 868.593 2.09223 1.01628 0
M  V30 9425 C 869.587 1.01113 1.35913 0
M  V30 9426 O 870.793 1.19583 1.34536 0
M  V30 9427 H 867.168 0.667999 0.345372 0
M  V30 9428 H 869.139 2.93188 0.555274 0
M  V30 9429 C 867.888 2.60674 2.30097 0
M  V30 9430 H 867.211 3.43491 2.04582 0
M  V30 9431 H 868.651 3.00479 2.99146 0
M  V30 9432 C 867.11 1.51862 3.00731 0
M  V30 9433 O 867.64 0.898651 3.91519 0
M  V30 9434 N 865.846 1.24729 2.62471 0
M  V30 9435 H 865.393 1.7533 1.88725 0
M  V30 9436 H 865.351 0.521437 3.10046 0
M  V30 9437 N 869.123 -0.277682 1.55134 0
M  V30 9438 C 870.053 -1.34742 1.90701 0
M  V30 9439 C 871.034 -1.51757 0.768354 0
M  V30 9440 O 872.219 -1.64879 1.02609 0
M  V30 9441 C 869.349 -2.70775 2.17481 0
M  V30 9442 C 868.303 -2.68497 3.33307 0
M  V30 9443 C 867.629 -4.08037 3.45557 0
M  V30 9444 C 868.929 -2.28178 4.69821 0
M  V30 9445 H 870.623 -1.05224 2.803 0
M  V30 9446 H 868.169 -0.504738 1.34864 0
M  V30 9447 H 870.122 -3.45719 2.40949 0
M  V30 9448 H 868.846 -3.01867 1.24676 0
M  V30 9449 H 867.505 -1.9601 3.09799 0
M  V30 9450 H 867.153 -4.36344 2.50226 0
M  V30 9451 H 866.853 -4.07409 4.23429 0
M  V30 9452 H 868.377 -4.84726 3.71312 0
M  V30 9453 H 869.791 -2.92843 4.92865 0
M  V30 9454 H 868.188 -2.3872 5.50575 0
M  V30 9455 H 869.258 -1.23308 4.6896 0
M  V30 9456 N 870.601 -1.47988 -0.541979 0
M  V30 9457 C 871.533 -1.5769 -1.66332 0
M  V30 9458 C 872.546 -0.461994 -1.56107 0
M  V30 9459 O 873.735 -0.732306 -1.62787 0
M  V30 9460 C 870.835 -1.47939 -3.04905 0
M  V30 9461 C 870.008 -2.74263 -3.40733 0
M  V30 9462 C 869.067 -2.58133 -4.58534 0
M  V30 9463 O 868.093 -3.31991 -4.62354 0
M  V30 9464 N 869.295 -1.6696 -5.55972 0
M  V30 9465 H 872.06 -2.54389 -1.5845 0
M  V30 9466 H 869.621 -1.4456 -0.728979 0
M  V30 9467 H 871.613 -1.34861 -3.81569 0
M  V30 9468 H 870.183 -0.592626 -3.06931 0
M  V30 9469 H 869.403 -3.01992 -2.53366 0
M  V30 9470 H 870.691 -3.58094 -3.6145 0
M  V30 9471 H 870.089 -1.06134 -5.55655 0
M  V30 9472 H 868.646 -1.59826 -6.31901 0
M  V30 9473 N 872.079 0.78992 -1.36375 0
M  V30 9474 C 873.029 1.89227 -1.27189 0
M  V30 9475 C 874.013 1.60067 -0.163498 0
M  V30 9476 O 875.205 1.72507 -0.396262 0
M  V30 9477 C 872.334 3.26431 -1.06292 0
M  V30 9478 C 871.42 3.61602 -2.21596 0
M  V30 9479 N 871.811 3.68086 -3.4691 0
M  V30 9480 C 870.109 3.9166 -2.1335 0
M  V30 9481 C 870.81 3.99481 -4.22835 0
M  V30 9482 N 869.786 4.14438 -3.5177 0
M  V30 9483 H 873.588 1.92465 -2.22113 0
M  V30 9484 H 871.102 0.985414 -1.29087 0
M  V30 9485 H 873.099 4.05267 -0.97798 0
M  V30 9486 H 871.759 3.24468 -0.122676 0
M  V30 9487 H 872.77 3.50743 -3.81051 0
M  V30 9488 H 869.447 3.97626 -1.27279 0
M  V30 9489 H 870.837 4.11425 -5.31205 0
M  V30 9490 N 873.557 1.20646 1.01402 0
M  V30 9491 C 874.785 1.04389 1.78635 0
M  V30 9492 C 875.2 -0.406771 1.84366 0
M  V30 9493 O 874.557 -1.28239 1.2985 0
M  V30 9494 C 874.608 1.62378 3.22979 0
M  V30 9495 O 874.329 3.01768 3.17597 0
M  V30 9496 C 875.83 1.5111 4.1675 0
M  V30 9497 H 873.05 0.367077 0.56169 0
M  V30 9498 H 875.594 1.59789 1.27624 0
M  V30 9499 H 873.749 1.11092 3.7113 0
M  V30 9500 H 874.163 3.29331 4.08217 0
M  V30 9501 H 875.637 1.96441 5.15863 0
M  V30 9502 H 876.114 0.464011 4.36742 0
M  V30 9503 H 876.72 2.01599 3.74483 0
M  V30 9504 N 875.035 -1.20752 1.01276 0
M  V30 9505 C 875.967 -2.22798 0.537917 0
M  V30 9506 C 876.98 -1.5836 -0.377638 0
M  V30 9507 O 878.169 -1.77624 -0.176599 0
M  V30 9508 C 875.269 -3.38068 -0.237364 0
M  V30 9509 C 874.442 -4.32095 0.679161 0
M  V30 9510 C 873.501 -5.26178 -0.0478676 0
M  V30 9511 O 872.527 -5.66305 0.573366 0
M  V30 9512 N 873.729 -5.65201 -1.32396 0
M  V30 9513 H 876.494 -2.64166 1.4155 0
M  V30 9514 H 874.055 -1.35254 0.889826 0
M  V30 9515 H 876.047 -3.98009 -0.73288 0
M  V30 9516 H 874.617 -2.95622 -1.0162 0
M  V30 9517 H 873.837 -3.70179 1.35505 0
M  V30 9518 H 875.125 -4.91842 1.30263 0
M  V30 9519 H 874.523 -5.34606 -1.84968 0
M  V30 9520 H 873.08 -6.27468 -1.76428 0
M  V30 9521 N 876.513 -0.788492 -1.36457 0
M  V30 9522 C 877.476 -0.192209 -2.28393 0
M  V30 9523 C 878.476 0.609916 -1.48784 0
M  V30 9524 O 879.666 0.431046 -1.68783 0
M  V30 9525 C 876.798 0.734096 -3.32902 0
M  V30 9526 H 877.991 -1.00284 -2.82636 0
M  V30 9527 H 875.544 -0.557852 -1.46006 0
M  V30 9528 H 876.279 1.5691 -2.83813 0
M  V30 9529 H 876.064 0.160875 -3.9177 0
M  V30 9530 H 877.554 1.1462 -4.01562 0
M  V30 9531 N 877.991 1.48044 -0.54043 0
M  V30 9532 C 878.901 2.33565 0.220163 0
M  V30 9533 C 879.917 1.47146 0.928659 0
M  V30 9534 O 881.093 1.80107 0.901295 0
M  V30 9535 C 878.158 3.2349 1.2472 0
M  V30 9536 C 877.219 4.25789 0.547938 0
M  V30 9537 C 876.452 5.11417 1.52605 0
M  V30 9538 O 876.675 4.99204 2.75956 0
M  V30 9539 O 875.609 5.92498 1.05972 0
M  V30 9540 H 879.435 2.99868 -0.480898 0
M  V30 9541 H 877.02 1.46332 -0.301226 0
M  V30 9542 H 878.902 3.79084 1.84047 0
M  V30 9543 H 877.577 2.59835 1.93048 0
M  V30 9544 H 876.484 3.74001 -0.0860941 0
M  V30 9545 H 877.817 4.92111 -0.0935896 0
M  V30 9546 N 879.47 0.276058 1.55163 0
M  V30 9547 C 880.38 -0.621066 2.2623 0
M  V30 9548 C 881.396 -1.16931 1.28853 0
M  V30 9549 O 882.572 -1.1994 1.61791 0
M  V30 9550 C 879.637 -1.78824 2.97023 0
M  V30 9551 C 878.698 -1.27657 4.09881 0
M  V30 9552 C 877.931 -2.38812 4.77289 0
M  V30 9553 O 878.154 -3.58188 4.43912 0
M  V30 9554 O 877.088 -2.06915 5.65217 0
M  V30 9555 H 880.914 -0.0453346 3.03666 0
M  V30 9556 H 878.499 0.0434275 1.49337 0
M  V30 9557 H 880.381 -2.46877 3.41511 0
M  V30 9558 H 879.056 -2.35104 2.22503 0
M  V30 9559 H 877.963 -0.56248 3.69847 0
M  V30 9560 H 879.296 -0.759509 4.86305 0
M  V30 9561 N 880.948 -1.576 0.00335426 0
M  V30 9562 C 881.858 -2.12067 -1.00322 0
M  V30 9563 C 882.874 -1.06672 -1.37467 0
M  V30 9564 O 884.05 -1.38592 -1.46131 0
M  V30 9565 C 881.115 -2.61593 -2.27531 0
M  V30 9566 C 880.176 -3.81602 -1.96668 0
M  V30 9567 C 879.409 -4.28756 -3.17811 0
M  V30 9568 O 879.632 -3.75222 -4.2961 0
M  V30 9569 O 878.566 -5.20877 -3.01613 0
M  V30 9570 H 882.392 -2.98299 -0.570199 0
M  V30 9571 H 879.977 -1.47835 -0.215682 0
M  V30 9572 H 881.859 -2.93631 -3.02256 0
M  V30 9573 H 880.534 -1.78457 -2.70065 0
M  V30 9574 H 879.441 -3.54531 -1.19408 0
M  V30 9575 H 880.774 -4.65822 -1.58968 0
M  V30 9576 N 882.426 0.269451 -1.5528 0
M  V30 9577 C 883.389 1.31642 -1.87625 0
M  V30 9578 C 884.389 1.42182 -0.751058 0
M  V30 9579 O 885.579 1.41272 -1.01921 0
M  V30 9580 C 882.711 2.6973 -2.08467 0
M  V30 9581 H 883.904 1.0419 -2.81219 0
M  V30 9582 H 881.457 0.507685 -1.47825 0
M  V30 9583 H 882.192 3.02356 -1.17266 0
M  V30 9584 H 881.977 2.63465 -2.90394 0
M  V30 9585 H 883.467 3.4537 -2.34753 0
M  V30 9586 N 883.904 1.48273 0.534124 0
M  V30 9587 C 884.854 1.58889 1.63519 0
M  V30 9588 C 885.838 0.44626 1.54588 0
M  V30 9589 O 887.03 0.697474 1.62679 0
M  V30 9590 C 884.159 1.62787 3.0225 0
M  V30 9591 C 883.245 2.82515 3.16301 0
M  V30 9592 N 883.636 4.06977 3.00338 0
M  V30 9593 C 881.934 2.7976 3.47347 0
M  V30 9594 C 882.635 4.87283 3.17694 0
M  V30 9595 N 881.611 4.20024 3.45081 0
M  V30 9596 H 885.413 2.52869 1.49781 0
M  V30 9597 H 882.927 1.44587 0.739479 0
M  V30 9598 H 884.924 1.68486 3.81337 0
M  V30 9599 H 883.584 0.699201 3.17082 0
M  V30 9600 H 884.595 4.37479 2.77186 0
M  V30 9601 H 881.272 1.96132 3.68563 0
M  V30 9602 H 882.662 5.96047 3.10126 0
M  V30 9603 N 885.382 -0.782676 1.36792 0
M  V30 9604 C 886.312 -1.90973 1.34356 0
M  V30 9605 C 887.293 -1.6875 0.213917 0
M  V30 9606 O 888.478 -1.89766 0.412601 0
M  V30 9607 C 885.608 -3.28097 1.13884 0
M  V30 9608 C 884.562 -3.6486 2.23744 0
M  V30 9609 C 883.888 -5.00406 1.88408 0
M  V30 9610 C 885.188 -3.72742 3.6587 0
M  V30 9611 H 886.882 -1.93268 2.28665 0
M  V30 9612 H 884.428 -0.928447 1.10072 0
M  V30 9613 H 886.381 -4.06569 1.10813 0
M  V30 9614 H 885.105 -3.26206 0.160275 0
M  V30 9615 H 883.764 -2.88689 2.25952 0
M  V30 9616 H 883.412 -4.95044 0.891083 0
M  V30 9617 H 883.112 -5.25973 2.61966 0
M  V30 9618 H 884.636 -5.81291 1.86905 0
M  V30 9619 H 886.05 -4.4139 3.65852 0
M  V30 9620 H 884.447 -4.09798 4.38389 0
M  V30 9621 H 885.517 -2.73676 4.00287 0
M  V30 9622 N 886.86 -1.21182 -1.00761 0
M  V30 9623 C 887.79 -0.992773 -2.11344 0
M  V30 9624 C 888.771 0.0813618 -1.69905 0
M  V30 9625 O 889.956 -0.0779503 -1.94043 0
M  V30 9626 C 887.086 -0.553826 -3.42856 0
M  V30 9627 C 886.04 -1.57223 -3.98077 0
M  V30 9628 C 885.366 -0.989605 -5.25463 0
M  V30 9629 C 886.666 -2.95839 -4.30438 0
M  V30 9630 H 888.36 -1.91766 -2.29927 0
M  V30 9631 H 885.906 -0.923426 -1.10494 0
M  V30 9632 H 887.859 -0.387771 -4.19612 0
M  V30 9633 H 886.583 0.406702 -3.24058 0
M  V30 9634 H 885.242 -1.7258 -3.23437 0
M  V30 9635 H 884.89 -0.0208743 -5.02996 0
M  V30 9636 H 884.59 -1.66984 -5.63374 0
M  V30 9637 H 886.114 -0.834815 -6.04866 0
M  V30 9638 H 887.528 -2.8394 -4.98047 0
M  V30 9639 H 885.925 -3.60851 -4.79486 0
M  V30 9640 H 886.995 -3.46882 -3.38823 0
M  V30 9641 N 888.338 1.20213 -1.01915 0
M  V30 9642 C 889.566 1.93622 -0.729255 0
M  V30 9643 C 889.981 1.74923 0.710444 0
M  V30 9644 O 889.338 1.06484 1.48214 0
M  V30 9645 C 889.389 3.45651 -1.05865 0
M  V30 9646 O 889.11 3.63741 -2.44181 0
M  V30 9647 C 890.611 4.36201 -0.790176 0
M  V30 9648 H 887.831 0.615333 -0.267594 0
M  V30 9649 H 890.375 1.52633 -1.36101 0
M  V30 9650 H 888.53 3.84511 -0.47225 0
M  V30 9651 H 888.944 4.57702 -2.56143 0
M  V30 9652 H 890.418 5.41516 -1.07071 0
M  V30 9653 H 890.895 4.38334 0.275609 0
M  V30 9654 H 891.501 4.03008 -1.35885 0
M  V30 9655 N 889.816 0.795718 1.36037 0
M  V30 9656 C 890.748 0.156336 2.28666 0
M  V30 9657 C 891.761 -0.638075 1.49775 0
M  V30 9658 O 892.95 -0.472222 1.7214 0
M  V30 9659 C 890.05 -0.801417 3.29288 0
M  V30 9660 C 889.223 -0.0557118 4.37365 0
M  V30 9661 C 888.282 -0.930338 5.1791 0
M  V30 9662 O 887.308 -0.385266 5.67895 0
M  V30 9663 N 888.51 -2.25382 5.34961 0
M  V30 9664 H 891.275 0.952033 2.84177 0
M  V30 9665 H 888.836 0.650189 1.48271 0
M  V30 9666 H 890.828 -1.39051 3.80062 0
M  V30 9667 H 889.398 -1.49796 2.74372 0
M  V30 9668 H 888.618 0.714508 3.87671 0
M  V30 9669 H 889.906 0.458633 5.06729 0
M  V30 9670 H 889.304 -2.72073 4.95977 0
M  V30 9671 H 887.861 -2.79241 5.88955 0
M  V30 9672 N 891.294 -1.47756 0.548274 0
M  V30 9673 C 892.226 -2.27921 -0.24177 0
M  V30 9674 C 893.239 -1.36471 -0.887658 0
M  V30 9675 O 894.428 -1.6137 -0.763016 0
M  V30 9676 C 891.528 -3.10449 -1.35922 0
M  V30 9677 C 890.701 -4.298 -0.811808 0
M  V30 9678 C 889.76 -4.93994 -1.81264 0
M  V30 9679 O 888.786 -5.52657 -1.3623 0
M  V30 9680 N 889.988 -4.87882 -3.14566 0
M  V30 9681 H 892.753 -2.96365 0.445848 0
M  V30 9682 H 890.314 -1.57286 0.383769 0
M  V30 9683 H 892.306 -3.50261 -2.02729 0
M  V30 9684 H 890.876 -2.44306 -1.95021 0
M  V30 9685 H 890.096 -3.94186 0.0327929 0
M  V30 9686 H 891.384 -5.0702 -0.425272 0
M  V30 9687 H 890.782 -4.41405 -3.53805 0
M  V30 9688 H 889.339 -5.3174 -3.76956 0
M  V30 9689 N 892.772 -0.284283 -1.55015 0
M  V30 9690 C 894.188 0.069603 -1.59448 0
M  V30 9691 C 894.388 1.53833 -1.30144 0
M  V30 9692 O 893.444 2.2886 -1.06674 0
M  V30 9693 C 894.757 -0.313287 -2.99064 0
M  V30 9694 C 896.305 -0.260662 -3.11913 0
M  V30 9695 C 896.78 -0.618127 -4.5381 0
M  V30 9696 N 898.271 -0.570026 -4.59679 0
M  V30 9697 C 899.006 -0.8193 -5.67517 0
M  V30 9698 N 898.502 -1.13367 -6.83462 0
M  V30 9699 N 900.295 -0.747482 -5.57108 0
M  V30 9700 H 892.446 -1.24167 -1.72326 0
M  V30 9701 H 894.709 -0.502259 -0.804015 0
M  V30 9702 H 894.415 -1.33509 -3.25374 0
M  V30 9703 H 894.289 0.341369 -3.75652 0
M  V30 9704 H 896.676 0.751869 -2.85361 0
M  V30 9705 H 896.757 -0.949706 -2.37517 0
M  V30 9706 H 896.401 -1.62839 -4.81088 0
M  V30 9707 H 896.331 0.092807 -5.26518 0
M  V30 9708 H 898.822 -0.3373 -3.76392 0
M  V30 9709 H 899.135 -1.3103 -7.61611 0
M  V30 9710 H 897.48 -1.17154 -6.85055 0
M  V30 9711 H 900.671 -0.501658 -4.65404 0
M  V30 9712 H 900.844 -0.945128 -6.4107 0
M  V30 9713 N 894.251 1.57596 -0.0117121 0
M  V30 9714 C 895.181 2.12188 0.9746 0
M  V30 9715 C 896.162 1.03379 1.35081 0
M  V30 9716 O 897.347 1.31123 1.4325 0
M  V30 9717 C 894.477 2.63477 2.26268 0
M  V30 9718 C 893.431 3.76917 2.02774 0
M  V30 9719 C 892.757 4.14566 3.37697 0
M  V30 9720 C 894.057 5.03715 1.38089 0
M  V30 9721 H 895.751 2.9485 0.520007 0
M  V30 9722 H 893.297 1.41836 0.248685 0
M  V30 9723 H 895.25 3.00299 2.95633 0
M  V30 9724 H 893.974 1.77953 2.73862 0
M  V30 9725 H 892.633 3.40507 1.35832 0
M  V30 9726 H 892.281 3.26048 3.83016 0
M  V30 9727 H 891.981 4.91 3.22789 0
M  V30 9728 H 893.505 4.53956 4.08358 0
M  V30 9729 H 894.919 5.38233 1.97428 0
M  V30 9730 H 893.316 5.85032 1.33634 0
M  V30 9731 H 894.386 4.83624 0.351575 0
M  V30 9732 N 895.729 -0.261212 1.5542 0
M  V30 9733 C 896.959 -1.00769 1.80358 0
M  V30 9734 C 897.367 -1.79991 0.583085 0
M  V30 9735 O 896.71 -1.77911 -0.457534 0
M  V30 9736 C 896.772 -2.00463 2.9842 0
M  V30 9737 C 896.436 -1.4007 4.35005 0
M  V30 9738 C 897.433 -0.810388 5.13545 0
M  V30 9739 C 895.118 -1.42436 4.81682 0
M  V30 9740 C 897.112 -0.251784 6.36903 0
M  V30 9741 C 894.799 -0.861897 6.04991 0
M  V30 9742 C 895.797 -0.276622 6.8244 0
M  V30 9743 O 895.485 0.277194 8.03422 0
M  V30 9744 H 895.217 -0.302839 0.604371 0
M  V30 9745 H 897.771 -0.293763 2.03288 0
M  V30 9746 H 896.001 -2.75648 2.71211 0
M  V30 9747 H 897.69 -2.61336 3.10577 0
M  V30 9748 H 898.456 -0.784719 4.7861 0
M  V30 9749 H 894.335 -1.8693 4.214 0
M  V30 9750 H 897.879 0.205678 6.97297 0
M  V30 9751 H 893.776 -0.884846 6.39407 0
M  V30 9752 H 894.544 0.167682 8.18328 0
M  V30 9753 N 897.207 -1.48554 -0.526253 0
M  V30 9754 C 898.437 -1.60197 -1.30463 0
M  V30 9755 C 898.845 -0.26278 -1.87366 0
M  V30 9756 O 898.188 0.758537 -1.67308 0
M  V30 9757 C 898.25 -2.59223 -2.49085 0
M  V30 9758 C 897.914 -4.04199 -2.13241 0
M  V30 9759 C 898.911 -4.91771 -1.68694 0
M  V30 9760 C 896.596 -4.49762 -2.2365 0
M  V30 9761 C 898.59 -6.22934 -1.35026 0
M  V30 9762 C 896.277 -5.80945 -1.89594 0
M  V30 9763 C 897.275 -6.67354 -1.45353 0
M  V30 9764 O 896.963 -7.96096 -1.11745 0
M  V30 9765 H 896.695 -0.54284 -0.402866 0
M  V30 9766 H 899.249 -1.95137 -0.641157 0
M  V30 9767 H 897.479 -2.19412 -3.18426 0
M  V30 9768 H 899.168 -2.60661 -3.11144 0
M  V30 9769 H 899.934 -4.57806 -1.6012 0
M  V30 9770 H 895.813 -3.8269 -2.5704 0
M  V30 9771 H 899.357 -6.90334 -1.00422 0
M  V30 9772 H 895.254 -6.14444 -1.9781 0
M  V30 9773 H 896.022 -8.08882 -1.25111 0
M  V30 9774 N 898.685 0.775411 -1.37205 0
M  V30 9775 C 899.962 1.5229 -1.22748 0
M  V30 9776 C 900.342 2.10327 0.180487 0
M  V30 9777 O 899.69 1.95206 1.18772 0
M  V30 9778 C 899.9 2.60671 -2.3206 0
M  V30 9779 C 901.248 3.28173 -2.6942 0
M  V30 9780 O 902.272 2.70963 -2.31208 0
M  V30 9781 O 901.131 4.31598 -3.3524 0
M  V30 9782 H 898.225 0.674326 -0.478762 0
M  V30 9783 H 900.771 0.812691 -1.48975 0
M  V30 9784 H 899.543 2.1588 -3.26361 0
M  V30 9785 H 899.166 3.39296 -2.07277 0
M  V30 9786 N 900.163 1.21714 1.00117 0
M  V30 9787 C 901.11 0.979837 2.08968 0
M  V30 9788 C 902.08 -0.0955324 1.65825 0
M  V30 9789 O 903.265 0.0523742 1.90728 0
M  V30 9790 C 900.405 0.554758 3.40612 0
M  V30 9791 C 899.518 1.69999 3.97145 0
M  V30 9792 C 898.653 1.2237 5.16913 0
M  V30 9793 C 897.692 2.34101 5.65564 0
M  V30 9794 N 896.829 1.87579 6.76579 0
M  V30 9795 H 901.669 1.91167 2.28602 0
M  V30 9796 H 899.206 0.952645 1.12085 0
M  V30 9797 H 901.164 0.289526 4.16194 0
M  V30 9798 H 899.794 -0.340073 3.21004 0
M  V30 9799 H 898.846 2.07976 3.18512 0
M  V30 9800 H 900.158 2.54074 4.29241 0
M  V30 9801 H 899.312 0.915358 5.99755 0
M  V30 9802 H 898.051 0.353045 4.8642 0
M  V30 9803 H 897.056 2.65734 4.81316 0
M  V30 9804 H 898.281 3.21669 5.98085 0
M  V30 9805 H 896.227 1.02863 6.47885 0
M  V30 9806 H 896.144 2.65225 7.07949 0
M  V30 9807 H 897.412 1.5979 7.62947 0
M  V30 9808 N 901.641 -1.19671 1.02551 0
M  V30 9809 C 902.589 -2.24812 0.596867 0
M  V30 9810 C 903.583 -1.65336 -0.368839 0
M  V30 9811 O 904.789 -1.78422 -0.237786 0
M  V30 9812 H 901.164 -0.731417 0.174739 0
M  V30 9813 H 903.135 -2.58286 1.49435 0
M  V30 9814 C 901.884 -3.47677 -0.0399514 0
M  V30 9815 H 901.207 -3.93728 0.694153 0
M  V30 9816 H 902.647 -4.22917 -0.302861 0
M  V30 9817 C 901.106 -3.11411 -1.2855 0
M  V30 9818 O 901.636 -3.23757 -2.37791 0
M  V30 9819 N 899.842 -2.65875 -1.17297 0
M  V30 9820 H 899.389 -2.56029 -0.284045 0
M  V30 9821 H 899.347 -2.41981 -2.00731 0
M  V30 9822 N 903.119 -0.802921 -1.35613 0
M  V30 9823 C 904.359 -0.387163 -2.007 0
M  V30 9824 C 904.723 1.02546 -1.62322 0
M  V30 9825 O 905.924 1.54303 -2.201 0
M  V30 9826 C 904.195 -0.560813 -3.52973 0
M  V30 9827 S 905.754 -0.234935 -4.38171 0
M  V30 9828 H 902.572 -0.147218 -0.695592 0
M  V30 9829 H 905.174 -1.04437 -1.65267 0
M  V30 9830 H 903.878 -1.58897 -3.78391 0
M  V30 9831 H 903.409 0.111845 -3.93241 0
M  V30 9832 H 905.424 0.958715 -4.8685 0
M  V30 9833 N 904.597 1.47463 -0.556102 0
M  V30 9834 C 906.013 1.58134 -0.21579 0
M  V30 9835 C 906.213 1.55486 1.28166 0
M  V30 9836 O 905.269 1.45768 2.06174 0
M  V30 9837 C 906.582 2.88686 -0.841464 0
M  V30 9838 C 908.13 3.02268 -0.812591 0
M  V30 9839 C 908.605 4.35518 -1.41731 0
M  V30 9840 N 910.096 4.42151 -1.38045 0
M  V30 9841 C 910.831 5.43817 -1.81799 0
M  V30 9842 N 910.327 6.52299 -2.33404 0
M  V30 9843 N 912.12 5.34855 -1.72877 0
M  V30 9844 H 904.271 1.47428 -1.52901 0
M  V30 9845 H 906.534 0.701586 -0.637559 0
M  V30 9846 H 906.24 2.96358 -1.8938 0
M  V30 9847 H 906.114 3.7572 -0.333846 0
M  V30 9848 H 908.501 2.94194 0.231056 0
M  V30 9849 H 908.582 2.16779 -1.35796 0
M  V30 9850 H 908.226 4.44348 -2.46002 0
M  V30 9851 H 908.156 5.19737 -0.847402 0
M  V30 9852 H 910.647 3.64348 -1.00296 0
M  V30 9853 H 910.96 7.26047 -2.64717 0
M  V30 9854 H 909.305 6.53192 -2.37414 0
M  V30 9855 H 912.496 4.49004 -1.32338 0
M  V30 9856 H 912.669 6.13949 -2.07294 0
M  V30 9857 N 906.075 0.2925 1.54862 0
M  V30 9858 C 907.322 -0.319263 1.99967 0
M  V30 9859 C 907.65 -1.54547 1.18092 0
M  V30 9860 O 906.905 -1.94186 0.242969 0
M  V30 9861 C 907.204 -0.728674 3.49893 0
M  V30 9862 C 906.87 0.394836 4.49168 0
M  V30 9863 C 905.532 0.703289 4.76033 0
M  V30 9864 C 907.884 1.15103 5.08331 0
M  V30 9865 C 905.212 1.77121 5.59325 0
M  V30 9866 C 907.564 2.20881 5.92785 0
M  V30 9867 C 906.228 2.52342 6.17964 0
M  V30 9868 H 905.498 -0.116827 0.731733 0
M  V30 9869 H 908.145 0.40983 1.87063 0
M  V30 9870 H 906.45 -1.53772 3.60363 0
M  V30 9871 H 908.147 -1.21305 3.82212 0
M  V30 9872 H 904.737 0.144319 4.28357 0
M  V30 9873 H 908.921 0.92599 4.87585 0
M  V30 9874 H 904.177 2.01978 5.77074 0
M  V30 9875 H 908.351 2.79939 6.37657 0
M  V30 9876 H 905.978 3.35225 6.82296 0
M  V30 9877 N 907.553 -1.57587 0.0200696 0
M  V30 9878 C 908.8 -1.91424 -0.660525 0
M  V30 9879 C 909.128 -0.895626 -1.72652 0
M  V30 9880 O 908.383 0.096771 -1.95461 0
M  V30 9881 C 908.682 -3.32002 -1.32323 0
M  V30 9882 C 908.348 -4.49223 -0.388487 0
M  V30 9883 C 907.01 -4.81021 -0.131184 0
M  V30 9884 C 909.362 -5.20581 0.253906 0
M  V30 9885 C 906.69 -5.81539 0.776471 0
M  V30 9886 C 909.042 -6.22067 1.14956 0
M  V30 9887 C 907.706 -6.52311 1.41584 0
M  V30 9888 H 906.976 -0.700472 -0.241703 0
M  V30 9889 H 909.623 -1.91333 0.0798991 0
M  V30 9890 H 907.928 -3.28312 -2.13819 0
M  V30 9891 H 909.625 -3.5545 -1.85623 0
M  V30 9892 H 906.215 -4.24391 -0.599207 0
M  V30 9893 H 910.399 -4.96253 0.068164 0
M  V30 9894 H 905.655 -6.03322 0.990575 0
M  V30 9895 H 909.829 -6.76484 1.65357 0
M  V30 9896 H 907.456 -7.30017 2.12083 0
M  V30 9897 N 909.032 0.252966 -1.55557 0
M  V30 9898 C 909.979 1.3131 -1.89806 0
M  V30 9899 C 910.949 1.48121 -0.751633 0
M  V30 9900 O 912.134 1.62202 -1.00474 0
M  V30 9901 C 909.274 2.66467 -2.19293 0
M  V30 9902 C 908.387 2.57714 -3.46709 0
M  V30 9903 C 907.522 3.85184 -3.65796 0
M  V30 9904 C 906.561 3.71023 -4.86835 0
M  V30 9905 N 905.698 4.90371 -5.02474 0
M  V30 9906 H 910.538 1.01402 -2.80217 0
M  V30 9907 H 908.075 0.489462 -1.38718 0
M  V30 9908 H 910.033 3.45132 -2.34392 0
M  V30 9909 H 908.663 2.94536 -1.32093 0
M  V30 9910 H 907.715 1.70651 -3.39974 0
M  V30 9911 H 909.027 2.43158 -4.35517 0
M  V30 9912 H 908.181 4.72292 -3.80822 0
M  V30 9913 H 906.92 4.0263 -2.7521 0
M  V30 9914 H 905.925 2.82299 -4.71792 0
M  V30 9915 H 907.15 3.55078 -5.78875 0
M  V30 9916 H 905.096 5.0819 -4.14824 0
M  V30 9917 H 905.013 4.78423 -5.85361 0
M  V30 9918 H 906.281 5.78995 -5.21905 0
M  V30 9919 N 910.51 1.48831 0.518367 0
M  V30 9920 C 911.926 1.35209 0.847979 0
M  V30 9921 C 912.126 0.371927 1.98038 0
M  V30 9922 O 911.182 -0.202681 2.51685 0
M  V30 9923 C 912.495 2.7552 1.20455 0
M  V30 9924 C 914.043 2.84094 1.31377 0
M  V30 9925 C 914.518 4.25132 1.70372 0
M  V30 9926 N 916.009 4.27861 1.77453 0
M  V30 9927 C 916.744 5.3394 2.09035 0
M  V30 9928 N 916.24 6.50285 2.3896 0
M  V30 9929 N 918.033 5.21343 2.10139 0
M  V30 9930 H 910.184 2.11166 -0.228624 0
M  V30 9931 H 912.447 0.94717 -0.0396599 0
M  V30 9932 H 912.153 3.48861 0.445991 0
M  V30 9933 H 912.027 3.09785 2.15204 0
M  V30 9934 H 914.414 2.11001 2.06307 0
M  V30 9935 H 914.495 2.53433 0.347203 0
M  V30 9936 H 914.139 4.98745 0.959975 0
M  V30 9937 H 914.069 4.53245 2.68098 0
M  V30 9938 H 916.56 3.43945 1.56557 0
M  V30 9939 H 916.873 7.26961 2.62196 0
M  V30 9940 H 915.218 6.5354 2.36454 0
M  V30 9941 H 918.409 4.29462 1.86225 0
M  V30 9942 H 918.582 6.04112 2.34419 0
M  V30 9943 N 911.988 -0.768124 1.37614 0
M  V30 9944 C 912.935 -1.88151 1.33671 0
M  V30 9945 C 913.905 -1.64871 0.201645 0
M  V30 9946 O 915.09 -1.86739 0.391582 0
M  V30 9947 C 912.23 -3.25264 1.15314 0
M  V30 9948 C 911.343 -3.60473 2.38082 0
M  V30 9949 C 910.478 -4.86814 2.12569 0
M  V30 9950 C 909.517 -5.14765 3.31184 0
M  V30 9951 N 908.654 -6.32295 3.052 0
M  V30 9952 H 913.494 -1.90857 2.28862 0
M  V30 9953 H 911.031 -0.933048 1.13722 0
M  V30 9954 H 912.989 -4.04364 1.02691 0
M  V30 9955 H 911.619 -3.21924 0.237689 0
M  V30 9956 H 910.671 -2.7633 2.61431 0
M  V30 9957 H 911.983 -3.77065 3.26532 0
M  V30 9958 H 911.137 -5.73826 1.96999 0
M  V30 9959 H 909.876 -4.72333 1.21462 0
M  V30 9960 H 908.881 -4.26227 3.4729 0
M  V30 9961 H 910.106 -5.31153 4.23147 0
M  V30 9962 H 908.052 -6.19166 2.16726 0
M  V30 9963 H 907.969 -6.4932 3.87195 0
M  V30 9964 H 909.237 -7.22234 2.93254 0
M  V30 9965 N 913.466 -1.22244 -0.994698 0
M  V30 9966 C 914.715 -1.04005 -1.72817 0
M  V30 9967 C 915.028 0.425413 -1.90918 0
M  V30 9968 O 916.234 0.727429 -2.61574 0
M  V30 9969 C 914.69 -1.81244 -3.10932 0
M  V30 9970 C 914.298 -3.32028 -3.00768 0
M  V30 9971 C 916.042 -1.71448 -3.88337 0
M  V30 9972 C 913.949 -4.01716 -4.34026 0
M  V30 9973 H 912.879 -0.385559 -0.647966 0
M  V30 9974 H 915.53 -1.46077 -1.11058 0
M  V30 9975 H 913.912 -1.3197 -3.73363 0
M  V30 9976 H 915.086 -3.88682 -2.47513 0
M  V30 9977 H 913.401 -3.4248 -2.36846 0
M  V30 9978 H 915.998 -2.20836 -4.86965 0
M  V30 9979 H 916.341 -0.674568 -4.10798 0
M  V30 9980 H 916.874 -2.18256 -3.3258 0
M  V30 9981 H 913.613 -5.05952 -4.16765 0
M  V30 9982 H 913.133 -3.49849 -4.87202 0
M  V30 9983 H 914.812 -4.0721 -5.02782 0
M  V30 9984 N 914.944 1.19125 -1.03184 0
M  V30 9985 C 915.877 2.21229 -0.559739 0
M  V30 9986 C 916.855 1.57578 0.400998 0
M  V30 9987 O 918.039 1.85809 0.317399 0
M  V30 9988 C 915.166 3.38203 0.183442 0
M  V30 9989 C 914.212 4.2022 -0.729182 0
M  V30 9990 S 915.045 4.87903 -2.20706 0
M  V30 9991 C 916.201 6.08284 -1.47448 0
M  V30 9992 H 916.434 2.60932 -1.42484 0
M  V30 9993 H 913.967 1.29419 -0.842028 0
M  V30 9994 H 915.925 4.06001 0.606084 0
M  V30 9995 H 914.586 2.96929 1.02432 0
M  V30 9996 H 913.779 5.03761 -0.155272 0
M  V30 9997 H 913.381 3.57755 -1.09028 0
M  V30 9998 H 915.673 6.73193 -0.762687 0
M  V30 9999 H 916.616 6.70165 -2.28659 0
M  V30 10000 H 917.024 5.56092 -0.97068 0
M  V30 10001 N 916.422 0.810101 1.35185 0
M  V30 10002 C 917.671 0.388589 1.97921 0
M  V30 10003 C 917.984 -1.05079 1.64978 0
M  V30 10004 O 919.19 -1.57559 2.21105 0
M  V30 10005 C 917.646 0.643864 3.54094 0
M  V30 10006 C 917.254 2.09602 3.95943 0
M  V30 10007 C 918.998 0.287883 4.23523 0
M  V30 10008 C 916.905 2.29686 5.44976 0
M  V30 10009 H 915.835 0.141562 0.740592 0
M  V30 10010 H 918.486 0.994653 1.54204 0
M  V30 10011 H 916.868 -0.0321978 3.95987 0
M  V30 10012 H 918.042 2.81018 3.65192 0
M  V30 10013 H 916.357 2.4122 3.39414 0
M  V30 10014 H 918.954 0.415946 5.3308 0
M  V30 10015 H 919.297 -0.766305 4.09186 0
M  V30 10016 H 919.83 0.918004 3.87063 0
M  V30 10017 H 916.569 3.33563 5.64284 0
M  V30 10018 H 916.089 1.62798 5.77284 0
M  V30 10019 H 917.768 2.11411 6.11485 0
M  V30 10020 N 917.9 -1.47166 0.563914 0
M  V30 10021 C 918.847 -2.30097 -0.180013 0
M  V30 10022 C 919.817 -1.39473 -0.902019 0
M  V30 10023 O 921.002 -1.68432 -0.896396 0
M  V30 10024 C 918.142 -3.23573 -1.19978 0
M  V30 10025 C 917.255 -4.2929 -0.483149 0
M  V30 10026 C 916.39 -5.0991 -1.48879 0
M  V30 10027 C 915.429 -6.07395 -0.757513 0
M  V30 10028 N 914.566 -6.8095 -1.71031 0
M  V30 10029 H 919.406 -2.93189 0.53329 0
M  V30 10030 H 916.943 -1.4451 0.274814 0
M  V30 10031 H 918.901 -3.76196 -1.80368 0
M  V30 10032 H 917.531 -2.6233 -1.88103 0
M  V30 10033 H 916.583 -3.79671 0.235414 0
M  V30 10034 H 917.895 -4.9872 0.0894075 0
M  V30 10035 H 917.049 -5.66717 -2.16603 0
M  V30 10036 H 915.788 -4.40397 -2.09527 0
M  V30 10037 H 914.793 -5.4976 -0.0663841 0
M  V30 10038 H 916.018 -6.78919 -0.156685 0
M  V30 10039 H 913.964 -6.14162 -2.30524 0
M  V30 10040 H 913.881 -7.46574 -1.19007 0
M  V30 10041 H 915.149 -7.42326 -2.37849 0
M  V30 10042 N 919.378 -0.300708 -1.54705 0
M  V30 10043 C 920.794 0.0526874 -1.59513 0
M  V30 10044 C 920.994 1.52444 -1.31769 0
M  V30 10045 O 920.05 2.27716 -1.09096 0
M  V30 10046 C 921.363 -0.344989 -2.98714 0
M  V30 10047 C 922.911 -0.29373 -3.11619 0
M  V30 10048 C 923.386 -0.666225 -4.53129 0
M  V30 10049 N 924.877 -0.618749 -4.59049 0
M  V30 10050 C 925.612 -0.879447 -5.66616 0
M  V30 10051 N 925.108 -1.2061 -6.82221 0
M  V30 10052 N 926.901 -0.806528 -5.56284 0
M  V30 10053 H 919.052 -1.25988 -1.71 0
M  V30 10054 H 921.315 -0.510758 -0.798643 0
M  V30 10055 H 921.021 -1.36953 -3.2394 0
M  V30 10056 H 920.895 0.301507 -3.75993 0
M  V30 10057 H 923.282 0.72156 -2.86142 0
M  V30 10058 H 923.363 -0.974844 -2.36496 0
M  V30 10059 H 923.007 -1.67932 -4.79334 0
M  V30 10060 H 922.937 0.0369575 -5.26587 0
M  V30 10061 H 925.428 -0.377202 -3.76013 0
M  V30 10062 H 925.741 -1.391 -7.60178 0
M  V30 10063 H 924.086 -1.24413 -6.83774 0
M  V30 10064 H 927.277 -0.550993 -4.64846 0
M  V30 10065 H 927.45 -1.01307 -6.40032 0
M  V30 10066 N 920.856 1.57574 -0.0284266 0
M  V30 10067 C 921.806 2.06674 0.962804 0
M  V30 10068 C 922.79 0.967115 1.28591 0
M  V30 10069 O 923.982 1.23068 1.27214 0
M  V30 10070 C 921.111 2.59682 2.24545 0
M  V30 10071 C 920.197 3.76573 1.95073 0
M  V30 10072 N 920.588 4.8721 1.35869 0
M  V30 10073 C 918.886 3.85046 2.25068 0
M  V30 10074 C 919.587 5.68436 1.23514 0
M  V30 10075 N 918.563 5.15323 1.73041 0
M  V30 10076 H 922.365 2.89615 0.500013 0
M  V30 10077 H 919.879 1.61437 0.176604 0
M  V30 10078 H 921.876 2.93148 2.96428 0
M  V30 10079 H 920.536 1.7817 2.71451 0
M  V30 10080 H 921.547 5.07477 1.03379 0
M  V30 10081 H 918.224 3.14439 2.74653 0
M  V30 10082 H 919.614 6.67387 0.777403 0
M  V30 10083 N 922.334 -0.244713 1.55689 0
M  V30 10084 C 923.244 -1.32447 1.93636 0
M  V30 10085 C 924.26 -1.52541 0.837086 0
M  V30 10086 O 925.436 -1.66121 1.13867 0
M  V30 10087 C 922.501 -2.65864 2.22525 0
M  V30 10088 C 921.562 -2.54273 3.45896 0
M  V30 10089 C 920.795 -3.81327 3.73397 0
M  V30 10090 O 921.018 -4.83307 3.02936 0
M  V30 10091 O 919.952 -3.79829 4.66919 0
M  V30 10092 H 923.778 -1.03255 2.85608 0
M  V30 10093 H 921.363 -0.445652 1.42598 0
M  V30 10094 H 923.245 -3.447 2.42404 0
M  V30 10095 H 921.92 -2.94784 1.33731 0
M  V30 10096 H 920.827 -1.73715 3.31321 0
M  V30 10097 H 922.16 -2.30297 4.34999 0
M  V30 10098 N 923.813 -1.49104 -0.510467 0
M  V30 10099 C 925.059 -1.58346 -1.26705 0
M  V30 10100 C 925.392 -0.265121 -1.92382 0
M  V30 10101 O 924.667 0.730558 -1.80258 0
M  V30 10102 C 924.95 -2.7359 -2.34137 0
M  V30 10103 C 924.803 -4.1519 -1.73024 0
M  V30 10104 C 926.122 -2.84511 -3.3577 0
M  V30 10105 H 923.241 -0.57637 -0.459311 0
M  V30 10106 H 925.883 -1.81353 -0.566658 0
M  V30 10107 H 924.033 -2.54105 -2.93876 0
M  V30 10108 H 925.705 -4.46167 -1.17186 0
M  V30 10109 H 923.948 -4.21279 -1.03473 0
M  V30 10110 H 924.619 -4.91683 -2.50903 0
M  V30 10111 H 927.095 -3.0222 -2.86011 0
M  V30 10112 H 925.971 -3.6684 -4.08313 0
M  V30 10113 H 926.232 -1.93471 -3.97519 0
M  V30 10114 N 925.291 0.760815 -1.38019 0
M  V30 10115 C 926.201 1.90526 -1.36884 0
M  V30 10116 C 927.217 1.71941 -0.266908 0
M  V30 10117 O 928.393 1.94988 -0.50413 0
M  V30 10118 C 925.458 3.25799 -1.18558 0
M  V30 10119 C 924.519 3.56961 -2.3849 0
M  V30 10120 C 923.752 4.8578 -2.21029 0
M  V30 10121 O 923.975 5.57629 -1.20023 0
M  V30 10122 O 922.909 5.16254 -3.0946 0
M  V30 10123 H 926.735 1.94437 -2.33298 0
M  V30 10124 H 924.32 0.905091 -1.18863 0
M  V30 10125 H 926.202 4.0669 -1.1037 0
M  V30 10126 H 924.877 3.22716 -0.252241 0
M  V30 10127 H 923.784 2.7626 -2.52252 0
M  V30 10128 H 925.117 3.64798 -3.30429 0
M  V30 10129 N 926.769 1.22769 0.988202 0
M  V30 10130 C 927.701 0.959757 2.08138 0
M  V30 10131 C 928.714 -0.0633787 1.62677 0
M  V30 10132 O 929.903 0.171203 1.77677 0
M  V30 10133 C 927.003 0.422724 3.36253 0
M  V30 10134 C 926.176 1.50419 4.10722 0
M  V30 10135 C 925.235 0.973407 5.17118 0
M  V30 10136 O 924.261 1.66066 5.44436 0
M  V30 10137 N 925.463 -0.202787 5.80146 0
M  V30 10138 H 928.228 1.9009 2.31702 0
M  V30 10139 H 925.789 1.13522 1.15431 0
M  V30 10140 H 927.781 0.0528514 4.04665 0
M  V30 10141 H 926.351 -0.423642 3.09716 0
M  V30 10142 H 925.571 2.04718 3.36874 0
M  V30 10143 H 926.859 2.23169 4.57245 0
M  V30 10144 H 926.257 -0.777856 5.60327 0
M  V30 10145 H 924.814 -0.513998 6.4977 0
M  V30 10146 N 928.247 -1.18576 1.03814 0
M  V30 10147 C 929.179 -2.21607 0.585055 0
M  V30 10148 C 930.192 -1.59125 -0.343963 0
M  V30 10149 O 931.381 -1.77959 -0.138882 0
M  V30 10150 C 928.481 -3.38495 -0.165602 0
M  V30 10151 C 927.654 -4.30557 0.770662 0
M  V30 10152 C 926.713 -5.26161 0.0637534 0
M  V30 10153 O 925.739 -5.64961 0.693359 0
M  V30 10154 N 926.941 -5.67882 -1.20377 0
M  V30 10155 H 929.706 -2.61104 1.47121 0
M  V30 10156 H 927.267 -1.33336 0.918316 0
M  V30 10157 H 929.259 -3.99474 -0.648292 0
M  V30 10158 H 927.829 -2.97711 -0.953268 0
M  V30 10159 H 927.049 -3.67221 1.43326 0
M  V30 10160 H 928.337 -4.88969 1.40667 0
M  V30 10161 H 927.735 -5.38409 -1.73586 0
M  V30 10162 H 926.292 -6.31069 -1.63079 0
M  V30 10163 N 929.725 -0.817259 -1.34754 0
M  V30 10164 C 930.673 -0.223352 -2.31525 0
M  V30 10165 C 931.667 0.632785 -1.57137 0
M  V30 10166 O 932.873 0.524757 -1.72181 0
M  V30 10167 H 929.248 -0.0534765 -0.750096 0
M  V30 10168 H 931.219 -1.05446 -2.79148 0
M  V30 10169 C 929.968 0.604784 -3.424 0
M  V30 10170 H 929.291 -0.0446664 -3.99775 0
M  V30 10171 H 930.731 0.986543 -4.12363 0
M  V30 10172 C 929.19 1.77478 -2.86362 0
M  V30 10173 O 929.72 2.87273 -2.8078 0
M  V30 10174 N 927.926 1.58971 -2.43263 0
M  V30 10175 H 927.473 0.696598 -2.48003 0
M  V30 10176 H 927.431 2.37408 -2.06119 0
M  V30 10177 N 931.203 1.46865 -0.571711 0
M  V30 10178 C 932.452 2.01636 -0.050881 0
M  V30 10179 C 932.765 1.45001 1.31279 0
M  V30 10180 O 933.971 1.91523 1.92435 0
M  V30 10181 C 932.427 3.59877 -0.0404114 0
M  V30 10182 C 932.035 4.25506 -1.40172 0
M  V30 10183 C 933.779 4.22346 0.42705 0
M  V30 10184 C 931.686 5.75795 -1.34958 0
M  V30 10185 H 930.616 0.753846 -0.0152514 0
M  V30 10186 H 933.267 1.68711 -0.721723 0
M  V30 10187 H 931.649 3.89829 0.696374 0
M  V30 10188 H 932.823 4.07178 -2.15737 0
M  V30 10189 H 931.138 3.75086 -1.8083 0
M  V30 10190 H 933.735 5.32499 0.484688 0
M  V30 10191 H 934.078 3.9052 1.44222 0
M  V30 10192 H 934.611 3.9698 -0.255326 0
M  V30 10193 H 931.35 6.12265 -2.3412 0
M  V30 10194 H 930.87 5.96419 -0.635962 0
M  V30 10195 H 932.549 6.38294 -1.05779 0
M  V30 10196 N 932.681 0.308908 1.54543 0
M  V30 10197 C 934.097 -0.0442273 1.59539 0
M  V30 10198 C 934.297 -1.51743 1.32575 0
M  V30 10199 O 933.353 -2.27134 1.10302 0
M  V30 10200 C 934.666 0.360826 2.98527 0
M  V30 10201 C 936.214 0.310252 3.11459 0
M  V30 10202 C 936.689 0.690246 4.52769 0
M  V30 10203 N 938.18 0.643084 4.58714 0
M  V30 10204 C 938.915 0.909483 5.66141 0
M  V30 10205 N 938.411 1.24226 6.81572 0
M  V30 10206 N 940.204 0.836018 5.55848 0
M  V30 10207 H 932.355 1.26893 1.70329 0
M  V30 10208 H 934.618 0.514986 0.795923 0
M  V30 10209 H 934.324 1.38669 3.23209 0
M  V30 10210 H 934.198 -0.281563 3.76148 0
M  V30 10211 H 936.585 -0.706375 2.86521 0
M  V30 10212 H 936.666 0.987373 2.35976 0
M  V30 10213 H 936.31 1.70472 4.78437 0
M  V30 10214 H 936.24 -0.00903075 5.26599 0
M  V30 10215 H 938.731 0.397138 3.75807 0
M  V30 10216 H 939.044 1.4313 7.5943 0
M  V30 10217 H 937.389 1.28038 6.83104 0
M  V30 10218 H 940.58 0.575637 4.64547 0
M  V30 10219 H 940.753 1.047 6.39486 0
M  V30 10220 N 934.159 -1.57557 0.0367827 0
M  V30 10221 C 935.069 -2.14148 -0.958017 0
M  V30 10222 C 936.085 -1.09564 -1.35173 0
M  V30 10223 O 937.261 -1.4166 -1.43158 0
M  V30 10224 C 934.326 -2.6636 -2.21931 0
M  V30 10225 C 933.387 -3.85688 -1.8853 0
M  V30 10226 C 932.62 -4.35401 -3.08645 0
M  V30 10227 O 932.843 -3.8425 -4.21554 0
M  V30 10228 O 931.777 -5.27158 -2.90497 0
M  V30 10229 H 935.603 -2.99442 -0.506797 0
M  V30 10230 H 933.188 -1.48259 -0.184275 0
M  V30 10231 H 935.07 -2.99976 -2.9596 0
M  V30 10232 H 933.745 -1.84145 -2.66219 0
M  V30 10233 H 932.652 -3.56985 -1.11861 0
M  V30 10234 H 933.985 -4.69089 -1.49052 0
M  V30 10235 N 935.637 0.236453 -1.55816 0
M  V30 10236 C 936.547 1.31418 -1.94336 0
M  V30 10237 C 937.563 1.52095 -0.845164 0
M  V30 10238 O 938.739 1.65515 -1.14746 0
M  V30 10239 C 935.804 2.6468 -2.23932 0
M  V30 10240 C 934.865 2.52435 -3.47239 0
M  V30 10241 C 934.098 3.79342 -3.75414 0
M  V30 10242 O 934.321 4.81694 -3.05495 0
M  V30 10243 O 933.255 3.77347 -4.68927 0
M  V30 10244 H 937.081 1.01739 -2.86152 0
M  V30 10245 H 934.666 0.438084 -1.42833 0
M  V30 10246 H 936.548 3.4341 -2.44228 0
M  V30 10247 H 935.223 2.94071 -1.35292 0
M  V30 10248 H 934.13 1.71955 -3.32238 0
M  V30 10249 H 935.463 2.27987 -4.36214 0
M  V30 10250 N 937.115 1.49373 0.502552 0
M  V30 10251 C 938.045 1.68839 1.61294 0
M  V30 10252 C 939.026 0.537096 1.61398 0
M  V30 10253 O 940.211 0.772764 1.78163 0
M  V30 10254 C 937.341 1.75347 2.99784 0
M  V30 10255 C 936.295 2.90251 3.14545 0
M  V30 10256 C 935.621 2.8187 4.54371 0
M  V30 10257 C 936.921 4.31207 2.94717 0
M  V30 10258 H 938.615 2.61803 1.45257 0
M  V30 10259 H 936.161 1.25987 0.697371 0
M  V30 10260 H 938.114 1.87552 3.77362 0
M  V30 10261 H 936.838 0.789814 3.16906 0
M  V30 10262 H 935.497 2.77646 2.39392 0
M  V30 10263 H 935.145 1.83416 4.68367 0
M  V30 10264 H 934.845 3.5899 4.65188 0
M  V30 10265 H 936.369 2.96081 5.34012 0
M  V30 10266 H 937.783 4.44501 3.62065 0
M  V30 10267 H 936.18 5.09536 3.17007 0
M  V30 10268 H 937.25 4.45759 1.90857 0
M  V30 10269 N 938.594 -0.753485 1.38421 0
M  V30 10270 C 939.542 -1.8886 1.35774 0
M  V30 10271 C 940.536 -1.67639 0.243608 0
M  V30 10272 O 941.742 -1.75206 0.412649 0
M  V30 10273 H 938.117 -0.62137 0.42356 0
M  V30 10274 H 940.088 -1.88209 2.3156 0
M  V30 10275 C 938.837 -3.26344 1.19979 0
M  V30 10276 H 938.16 -3.43259 2.04971 0
M  V30 10277 H 939.6 -4.06015 1.22181 0
M  V30 10278 C 938.059 -3.36771 -0.0932867 0
M  V30 10279 O 938.589 -3.8718 -1.07027 0
M  V30 10280 N 936.795 -2.90212 -0.150154 0
M  V30 10281 H 936.342 -2.4938 0.645562 0
M  V30 10282 H 936.3 -2.97569 -1.0149 0
M  V30 10283 N 940.072 -1.23292 -0.981677 0
M  V30 10284 C 941.019 -1.01296 -2.07383 0
M  V30 10285 C 941.989 0.069139 -1.65956 0
M  V30 10286 O 943.174 -0.0827108 -1.90621 0
M  V30 10287 C 940.314 -0.608876 -3.39686 0
M  V30 10288 C 939.427 -1.76296 -3.9439 0
M  V30 10289 C 938.562 -1.30578 -5.14901 0
M  V30 10290 C 937.601 -2.4307 -5.61768 0
M  V30 10291 N 936.738 -1.98319 -6.73509 0
M  V30 10292 H 941.578 -1.9478 -2.25532 0
M  V30 10293 H 939.115 -0.970356 -1.10555 0
M  V30 10294 H 941.073 -0.355702 -4.15681 0
M  V30 10295 H 939.703 0.288961 -3.21504 0
M  V30 10296 H 938.755 -2.13017 -3.15163 0
M  V30 10297 H 940.067 -2.60871 -4.25145 0
M  V30 10298 H 939.221 -1.01066 -5.98223 0
M  V30 10299 H 937.96 -0.430386 -4.85797 0
M  V30 10300 H 936.965 -2.73358 -4.77028 0
M  V30 10301 H 938.19 -3.31144 -5.92892 0
M  V30 10302 H 936.136 -1.13157 -6.46167 0
M  V30 10303 H 936.053 -2.76454 -7.0364 0
M  V30 10304 H 937.321 -1.71907 -7.60308 0
M  V30 10305 N 941.55 1.18024 -1.04442 0
M  V30 10306 C 942.497 2.21785 -0.638759 0
M  V30 10307 C 943.467 1.62255 0.355312 0
M  V30 10308 O 944.652 1.89176 0.24844 0
M  V30 10309 C 941.792 3.45098 -0.0118002 0
M  V30 10310 C 940.905 4.1895 -1.05379 0
M  V30 10311 C 940.04 5.2973 -0.394951 0
M  V30 10312 C 939.079 5.95359 -1.42178 0
M  V30 10313 N 938.216 6.97668 -0.787635 0
M  V30 10314 H 943.056 2.55839 -1.52808 0
M  V30 10315 H 940.593 1.25681 -0.764378 0
M  V30 10316 H 942.551 4.15564 0.369075 0
M  V30 10317 H 941.181 3.11652 0.84102 0
M  V30 10318 H 940.233 3.47274 -1.55258 0
M  V30 10319 H 941.545 4.63877 -1.83355 0
M  V30 10320 H 940.699 6.06687 0.0399244 0
M  V30 10321 H 939.438 4.85915 0.416867 0
M  V30 10322 H 938.443 5.17139 -1.86675 0
M  V30 10323 H 939.668 6.41255 -2.23536 0
M  V30 10324 H 937.614 6.56 0.00380893 0
M  V30 10325 H 937.531 7.40867 -1.50505 0
M  V30 10326 H 938.799 7.78586 -0.377282 0
M  V30 10327 N 943.028 0.824394 1.34319 0
M  V30 10328 C 944.444 0.510336 1.51221 0
M  V30 10329 C 944.644 -0.965201 1.76879 0
M  V30 10330 O 943.7 -1.74961 1.82057 0
M  V30 10331 C 945.013 1.37114 2.6762 0
M  V30 10332 C 946.561 1.36842 2.81502 0
M  V30 10333 C 947.036 2.21374 4.00946 0
M  V30 10334 N 948.527 2.19005 4.08156 0
M  V30 10335 C 949.262 2.81159 4.99737 0
M  V30 10336 N 948.758 3.52309 5.96532 0
M  V30 10337 N 950.551 2.70706 4.9262 0
M  V30 10338 H 942.702 1.77976 1.15924 0
M  V30 10339 H 944.965 0.758503 0.568663 0
M  V30 10340 H 944.671 2.41905 2.55294 0
M  V30 10341 H 944.545 1.03689 3.62669 0
M  V30 10342 H 946.932 0.328284 2.93268 0
M  V30 10343 H 947.013 1.74265 1.87257 0
M  V30 10344 H 946.657 3.25437 3.8994 0
M  V30 10345 H 946.587 1.813 4.94407 0
M  V30 10346 H 949.078 1.67252 3.38874 0
M  V30 10347 H 949.391 3.96977 6.63045 0
M  V30 10348 H 947.736 3.56415 5.96652 0
M  V30 10349 H 950.927 2.14694 4.15962 0
M  V30 10350 H 951.1 3.19431 5.63798 0
M  V30 10351 N 944.506 -1.46559 0.579492 0
M  V30 10352 C 945.734 -2.06784 0.0693648 0
M  V30 10353 C 946.149 -1.42875 -1.23419 0
M  V30 10354 O 945.506 -0.532919 -1.74546 0
M  V30 10355 C 945.557 -3.61343 -0.106511 0
M  V30 10356 O 945.278 -4.22861 1.14545 0
M  V30 10357 C 946.779 -4.38489 -0.651359 0
M  V30 10358 H 943.999 -0.66866 0.0559848 0
M  V30 10359 H 946.543 -1.88235 0.799245 0
M  V30 10360 H 944.698 -3.7933 -0.786601 0
M  V30 10361 H 945.112 -5.15691 0.95723 0
M  V30 10362 H 946.586 -5.47237 -0.723615 0
M  V30 10363 H 947.063 -4.06309 -1.66763 0
M  V30 10364 H 947.669 -4.253 -0.0062433 0
M  V30 10365 N 945.984 -0.3171 -1.54377 0
M  V30 10366 C 946.916 0.58571 -2.2159 0
M  V30 10367 C 947.929 1.08495 -1.21378 0
M  V30 10368 O 949.118 0.999638 -1.47883 0
M  V30 10369 C 946.218 1.8157 -2.86156 0
M  V30 10370 C 945.391 1.45625 -4.12447 0
M  V30 10371 C 944.45 2.54308 -4.60667 0
M  V30 10372 O 943.476 2.18724 -5.25498 0
M  V30 10373 N 944.678 3.85129 -4.34345 0
M  V30 10374 H 947.443 0.0102247 -2.99698 0
M  V30 10375 H 945.004 -0.140011 -1.61293 0
M  V30 10376 H 946.996 2.53657 -3.15341 0
M  V30 10377 H 945.566 2.29919 -2.11793 0
M  V30 10378 H 944.786 0.567294 -3.90097 0
M  V30 10379 H 946.074 1.19169 -4.94648 0
M  V30 10380 H 945.472 4.16841 -3.8244 0
M  V30 10381 H 944.029 4.53466 -4.68201 0
M  V30 10382 N 947.462 1.57535 -0.0451378 0
M  V30 10383 C 948.409 2.11176 0.931313 0
M  V30 10384 C 949.379 1.01765 1.31275 0
M  V30 10385 O 950.564 1.29279 1.40327 0
M  V30 10386 C 947.704 2.65639 2.20295 0
M  V30 10387 C 946.817 3.89114 1.87654 0
M  V30 10388 C 945.952 4.31914 3.09232 0
M  V30 10389 C 944.991 5.48105 2.72484 0
M  V30 10390 N 944.128 5.85986 3.86736 0
M  V30 10391 H 948.968 2.94318 0.466986 0
M  V30 10392 H 946.505 1.45462 0.218886 0
M  V30 10393 H 948.463 2.95312 2.94697 0
M  V30 10394 H 947.093 1.85303 2.64316 0
M  V30 10395 H 946.145 3.6607 1.03427 0
M  V30 10396 H 947.457 4.7358 1.56601 0
M  V30 10397 H 946.611 4.63108 3.91939 0
M  V30 10398 H 945.35 3.46247 3.43459 0
M  V30 10399 H 944.355 5.16589 1.88192 0
M  V30 10400 H 945.58 6.35482 2.39455 0
M  V30 10401 H 943.526 5.03273 4.20775 0
M  V30 10402 H 943.443 6.65129 3.5936 0
M  V30 10403 H 944.711 6.21793 4.701 0
M  V30 10404 N 948.94 -0.228186 1.55939 0
M  V30 10405 C 949.85 -1.30386 1.9503 0
M  V30 10406 C 950.866 -1.51645 0.853218 0
M  V30 10407 O 952.042 -1.64904 1.15623 0
M  V30 10408 C 949.107 -2.63489 2.25332 0
M  V30 10409 C 948.168 -2.5059 3.48573 0
M  V30 10410 C 947.401 -3.77345 3.7742 0
M  V30 10411 O 947.624 -4.80067 3.08045 0
M  V30 10412 O 946.558 -3.74855 4.70922 0
M  V30 10413 H 950.384 -1.0022 2.86687 0
M  V30 10414 H 947.969 -0.430503 1.43063 0
M  V30 10415 H 949.851 -3.4211 2.46046 0
M  V30 10416 H 948.526 -2.93349 1.3685 0
M  V30 10417 H 947.433 -1.70191 3.33145 0
M  V30 10418 H 948.766 -2.2567 4.37417 0
M  V30 10419 N 950.418 -1.49637 -0.494624 0
M  V30 10420 C 951.351 -1.61387 -1.61337 0
M  V30 10421 C 952.329 -0.462704 -1.55878 0
M  V30 10422 O 953.513 -0.679103 -1.75842 0
M  V30 10423 C 950.64 -1.57471 -2.99867 0
M  V30 10424 C 949.686 -2.77863 -3.23565 0
M  V30 10425 S 950.519 -4.3946 -3.05999 0
M  V30 10426 C 951.675 -4.382 -4.46914 0
M  V30 10427 H 951.908 -2.56024 -1.51126 0
M  V30 10428 H 949.441 -1.38607 -0.680253 0
M  V30 10429 H 951.399 -1.55898 -3.79745 0
M  V30 10430 H 950.06 -0.641107 -3.07488 0
M  V30 10431 H 949.253 -2.71361 -4.24711 0
M  V30 10432 H 948.855 -2.76882 -2.51421 0
M  V30 10433 H 951.147 -4.10312 -5.3912 0
M  V30 10434 H 952.09 -5.39645 -4.58464 0
M  V30 10435 H 952.498 -3.68197 -4.27891 0
M  V30 10436 N 951.896 0.746133 -1.38819 0
M  V30 10437 C 952.806 1.89063 -1.38897 0
M  V30 10438 C 953.822 1.71648 -0.28513 0
M  V30 10439 O 954.998 1.94443 -0.524783 0
M  V30 10440 C 952.063 3.24523 -1.22007 0
M  V30 10441 C 951.124 3.54411 -2.42263 0
M  V30 10442 C 950.357 4.83408 -2.26169 0
M  V30 10443 O 950.58 5.56325 -1.25931 0
M  V30 10444 O 949.514 5.12943 -3.14918 0
M  V30 10445 H 953.34 1.91951 -2.35347 0
M  V30 10446 H 950.925 0.892433 -1.19816 0
M  V30 10447 H 952.807 4.05496 -1.14677 0
M  V30 10448 H 951.482 3.2243 -0.286455 0
M  V30 10449 H 950.389 2.73569 -2.55168 0
M  V30 10450 H 951.722 3.61273 -3.3428 0
M  V30 10451 N 953.375 1.23811 0.975125 0
M  V30 10452 C 954.325 0.991036 2.05335 0
M  V30 10453 C 955.309 -0.0648793 1.60769 0
M  V30 10454 O 956.501 0.147917 1.76381 0
M  V30 10455 C 953.63 0.589822 3.38195 0
M  V30 10456 C 952.716 1.68142 3.89344 0
M  V30 10457 N 953.107 2.91274 4.13513 0
M  V30 10458 C 951.405 1.55722 4.17931 0
M  V30 10459 C 952.106 3.61987 4.55347 0
M  V30 10460 N 951.082 2.8952 4.60086 0
M  V30 10461 H 954.884 1.92612 2.21986 0
M  V30 10462 H 952.398 1.13827 1.15832 0
M  V30 10463 H 954.395 0.394075 4.15033 0
M  V30 10464 H 953.055 -0.338157 3.22934 0
M  V30 10465 H 954.066 3.27528 4.01181 0
M  V30 10466 H 950.743 0.696732 4.11645 0
M  V30 10467 H 952.133 4.67572 4.8252 0
M  V30 10468 N 954.853 -1.17469 1.05066 0
M  V30 10469 C 955.816 -2.19648 0.654793 0
M  V30 10470 C 956.816 -1.58107 -0.293063 0
M  V30 10471 O 958.006 -1.74029 -0.077106 0
M  V30 10472 C 955.138 -3.40878 -0.0384437 0
M  V30 10473 H 956.331 -2.56184 1.55915 0
M  V30 10474 H 953.884 -1.31528 0.844396 0
M  V30 10475 H 954.619 -3.09885 -0.956133 0
M  V30 10476 H 954.404 -3.86792 0.642961 0
M  V30 10477 H 955.894 -4.1651 -0.301568 0
M  V30 10478 N 956.331 -0.831506 -1.3388 0
M  V30 10479 C 957.264 -0.2046 -2.27281 0
M  V30 10480 C 958.242 0.643992 -1.49303 0
M  V30 10481 O 959.426 0.605863 -1.78498 0
M  V30 10482 C 956.553 0.713409 -3.31101 0
M  V30 10483 C 955.599 -0.0587654 -4.2646 0
M  V30 10484 S 956.432 -1.41172 -5.16557 0
M  V30 10485 C 957.588 -0.498807 -6.23909 0
M  V30 10486 H 957.821 -0.996442 -2.80104 0
M  V30 10487 H 955.354 -0.62786 -1.41058 0
M  V30 10488 H 957.312 1.23748 -3.91403 0
M  V30 10489 H 955.973 1.47885 -2.77108 0
M  V30 10490 H 955.166 0.639466 -4.99927 0
M  V30 10491 H 954.768 -0.513665 -3.70456 0
M  V30 10492 H 957.06 0.306268 -6.76807 0
M  V30 10493 H 958.003 -1.20342 -6.97799 0
M  V30 10494 H 958.411 -0.0834242 -5.64438 0
M  V30 10495 N 957.809 1.4625 -0.587256 0
M  V30 10496 C 958.739 2.33132 0.131076 0
M  V30 10497 C 959.72 1.45619 0.879158 0
M  V30 10498 O 960.905 1.74428 0.853723 0
M  V30 10499 C 958.035 3.27975 1.14236 0
M  V30 10500 C 956.989 4.24965 0.508819 0
M  V30 10501 C 956.315 5.09349 1.62689 0
M  V30 10502 C 957.615 5.19322 -0.55694 0
M  V30 10503 H 959.309 2.93442 -0.594333 0
M  V30 10504 H 956.855 1.41106 -0.287263 0
M  V30 10505 H 958.808 3.87614 1.65328 0
M  V30 10506 H 957.532 2.65781 1.8981 0
M  V30 10507 H 956.191 3.66595 0.0189337 0
M  V30 10508 H 955.839 4.43537 2.37242 0
M  V30 10509 H 955.539 5.75036 1.20861 0
M  V30 10510 H 957.063 5.71852 2.14049 0
M  V30 10511 H 958.477 5.73151 -0.130903 0
M  V30 10512 H 956.874 5.93376 -0.895801 0
M  V30 10513 H 957.944 4.62979 -1.44148 0
M  V30 10514 N 959.287 0.325282 1.54207 0
M  V30 10515 C 960.536 -0.27768 1.99779 0
M  V30 10516 C 960.849 -1.5311 1.21723 0
M  V30 10517 O 962.055 -2.21017 1.57682 0
M  V30 10518 C 960.511 -0.545329 3.55745 0
M  V30 10519 C 960.119 0.691143 4.42637 0
M  V30 10520 C 961.863 -1.10815 4.09781 0
M  V30 10521 C 959.77 0.395302 5.90077 0
M  V30 10522 H 958.7 -0.107536 0.746292 0
M  V30 10523 H 961.351 0.437773 1.78202 0
M  V30 10524 H 959.733 -1.32101 3.73317 0
M  V30 10525 H 960.907 1.46653 4.3684 0
M  V30 10526 H 959.222 1.1743 3.99499 0
M  V30 10527 H 961.819 -1.34414 5.1753 0
M  V30 10528 H 962.162 -2.05806 3.6187 0
M  V30 10529 H 962.695 -0.393608 3.95848 0
M  V30 10530 H 959.434 1.31443 6.42186 0
M  V30 10531 H 958.954 -0.34235 5.98822 0
M  V30 10532 H 960.633 0.00576877 6.47 0
M  V30 10533 N 960.765 -1.57509 0.0534917 0
M  V30 10534 C 962.181 -1.56696 -0.303067 0
M  V30 10535 C 962.381 -1.06135 -1.71282 0
M  V30 10536 O 961.437 -0.71899 -2.42047 0
M  V30 10537 C 962.75 -3.00421 -0.129418 0
M  V30 10538 C 964.298 -3.12358 -0.200346 0
M  V30 10539 C 964.773 -4.57967 -0.0551971 0
M  V30 10540 N 966.264 -4.63066 -0.111398 0
M  V30 10541 C 966.999 -5.73395 -0.0232344 0
M  V30 10542 N 966.495 -6.92701 0.11741 0
M  V30 10543 N 968.288 -5.62045 -0.078984 0
M  V30 10544 H 960.439 -1.88696 0.975064 0
M  V30 10545 H 962.702 -0.869072 0.378706 0
M  V30 10546 H 962.408 -3.41456 0.842653 0
M  V30 10547 H 962.282 -3.66563 -0.889476 0
M  V30 10548 H 964.669 -2.71221 -1.16289 0
M  V30 10549 H 964.75 -2.48891 0.590506 0
M  V30 10550 H 964.394 -4.9979 0.904034 0
M  V30 10551 H 964.324 -5.19443 -0.865223 0
M  V30 10552 H 966.815 -3.77263 -0.219256 0
M  V30 10553 H 967.128 -7.72597 0.177326 0
M  V30 10554 H 965.473 -6.94833 0.152526 0
M  V30 10555 H 968.664 -4.67725 -0.187434 0
M  V30 10556 H 968.837 -6.48 -0.00681731 0
M  V30 10557 N 962.243 0.219913 -1.56058 0
M  V30 10558 C 963.193 1.27606 -1.88946 0
M  V30 10559 C 964.177 1.42209 -0.752691 0
M  V30 10560 O 965.369 1.44996 -1.01514 0
M  V30 10561 C 962.498 2.62614 -2.21108 0
M  V30 10562 C 961.584 2.51906 -3.4118 0
M  V30 10563 N 961.975 2.10851 -4.59756 0
M  V30 10564 C 960.273 2.82861 -3.44827 0
M  V30 10565 C 960.974 2.11434 -5.41914 0
M  V30 10566 N 959.95 2.51985 -4.81669 0
M  V30 10567 H 963.752 0.94957 -2.78137 0
M  V30 10568 H 961.266 0.428468 -1.56646 0
M  V30 10569 H 963.263 3.38869 -2.42844 0
M  V30 10570 H 961.923 2.96108 -1.3323 0
M  V30 10571 H 962.934 1.81956 -4.84884 0
M  V30 10572 H 959.611 3.20716 -2.67297 0
M  V30 10573 H 961.001 1.81803 -6.46836 0
M  V30 10574 N 963.721 1.49897 0.486681 0
M  V30 10575 C 964.998 1.50614 1.24799 0
M  V30 10576 C 965.378 0.24193 2.09709 0
M  V30 10577 O 964.726 -0.775237 2.14947 0
M  V30 10578 C 964.936 2.79318 2.09243 0
M  V30 10579 C 966.284 3.29371 2.67955 0
M  V30 10580 O 967.308 2.80533 2.19499 0
M  V30 10581 O 966.167 4.14466 3.56202 0
M  V30 10582 H 963.261 0.603447 0.565491 0
M  V30 10583 H 965.807 1.62174 0.499778 0
M  V30 10584 H 964.579 3.62812 1.46572 0
M  V30 10585 H 964.202 2.70687 2.91229 0
M  V30 10586 N 965.199 -0.738761 1.39212 0
M  V30 10587 C 966.109 -1.88324 1.39897 0
M  V30 10588 C 967.125 -1.71494 0.294229 0
M  V30 10589 O 968.301 -1.94162 0.535087 0
M  V30 10590 C 965.366 -3.23871 1.23726 0
M  V30 10591 C 964.427 -3.53121 2.44139 0
M  V30 10592 C 963.66 -4.82202 2.2873 0
M  V30 10593 O 963.883 -5.55649 1.28879 0
M  V30 10594 O 962.817 -5.11265 3.17634 0
M  V30 10595 H 966.643 -1.90701 2.36362 0
M  V30 10596 H 964.228 -0.886067 1.20288 0
M  V30 10597 H 966.11 -4.04882 1.16826 0
M  V30 10598 H 964.785 -3.22274 0.303551 0
M  V30 10599 H 963.692 -2.72212 2.56615 0
M  V30 10600 H 965.025 -3.59495 3.36191 0
M  V30 10601 N 966.677 -1.24326 -0.968545 0
M  V30 10602 C 967.902 -1.1104 -1.75171 0
M  V30 10603 C 968.327 0.333109 -1.85127 0
M  V30 10604 O 967.685 1.24115 -1.32156 0
M  V30 10605 C 967.733 -1.75397 -3.15068 0
M  V30 10606 O 966.837 -1.02417 -3.9948 0
M  V30 10607 H 966.178 -0.388488 -0.538491 0
M  V30 10608 H 968.708 -1.64617 -1.215 0
M  V30 10609 H 968.718 -1.8112 -3.65595 0
M  V30 10610 H 967.393 -2.80427 -3.07138 0
M  V30 10611 H 965.97 -1.04475 -3.57966 0
M  V30 10612 N 968.156 1.1691 -1.05688 0
M  V30 10613 C 969.384 1.91204 -0.790485 0
M  V30 10614 C 969.799 1.77095 0.654434 0
M  V30 10615 O 969.156 1.11146 1.44751 0
M  V30 10616 C 969.207 3.42108 -1.16808 0
M  V30 10617 O 968.928 3.55788 -2.55629 0
M  V30 10618 C 970.429 4.33466 -0.92855 0
M  V30 10619 H 967.649 0.606508 -0.287035 0
M  V30 10620 H 970.193 1.48225 -1.40888 0
M  V30 10621 H 968.348 3.82814 -0.59434 0
M  V30 10622 H 968.762 4.49321 -2.70575 0
M  V30 10623 H 970.236 5.37836 -1.24245 0
M  V30 10624 H 970.713 4.38989 0.136016 0
M  V30 10625 H 971.319 3.98481 -1.48638 0
M  V30 10626 N 969.634 0.838594 1.33437 0
M  V30 10627 C 971.05 0.526347 1.50671 0
M  V30 10628 C 971.25 -0.946387 1.77893 0
M  V30 10629 O 970.306 -1.7302 1.83903 0
M  V30 10630 C 971.619 1.39945 2.6615 0
M  V30 10631 C 973.167 1.3982 2.80035 0
M  V30 10632 C 973.642 2.25614 3.98576 0
M  V30 10633 N 975.133 2.23322 4.0581 0
M  V30 10634 C 975.868 2.86443 4.96727 0
M  V30 10635 N 975.364 3.58616 5.92762 0
M  V30 10636 N 977.157 2.75915 4.89722 0
M  V30 10637 H 969.308 1.79195 1.1403 0
M  V30 10638 H 971.571 0.764491 0.560586 0
M  V30 10639 H 971.277 2.44599 2.52714 0
M  V30 10640 H 971.151 1.07529 3.61548 0
M  V30 10641 H 973.538 0.35937 2.92904 0
M  V30 10642 H 973.619 1.76241 1.85399 0
M  V30 10643 H 973.263 3.29555 3.86466 0
M  V30 10644 H 973.193 1.86533 4.92456 0
M  V30 10645 H 975.684 1.70836 3.37081 0
M  V30 10646 H 975.997 4.03987 6.58798 0
M  V30 10647 H 974.342 3.62724 5.92838 0
M  V30 10648 H 977.533 2.19094 4.13661 0
M  V30 10649 H 977.706 3.25393 5.60378 0
M  V30 10650 N 971.112 -1.45937 0.595003 0
M  V30 10651 C 972.022 -2.34221 -0.133325 0
M  V30 10652 C 973.038 -1.50491 -0.873407 0
M  V30 10653 O 974.214 -1.83328 -0.833828 0
M  V30 10654 C 971.279 -3.27896 -1.12628 0
M  V30 10655 C 970.34 -4.27529 -0.389532 0
M  V30 10656 C 969.573 -5.16729 -1.33519 0
M  V30 10657 O 969.796 -5.09102 -2.57238 0
M  V30 10658 O 968.73 -5.96023 -0.839084 0
M  V30 10659 H 972.556 -2.97877 0.591861 0
M  V30 10660 H 970.141 -1.45113 0.355329 0
M  V30 10661 H 972.023 -3.85654 -1.69851 0
M  V30 10662 H 970.698 -2.6682 -1.83272 0
M  V30 10663 H 969.605 -3.73424 0.224843 0
M  V30 10664 H 970.938 -4.91425 0.276169 0
M  V30 10665 N 972.59 -0.333456 -1.54032 0
M  V30 10666 C 973.52 0.52051 -2.27625 0
M  V30 10667 C 974.501 1.1111 -1.28797 0
M  V30 10668 O 975.686 1.13438 -1.57625 0
M  V30 10669 C 972.816 1.67663 -3.04149 0
M  V30 10670 C 971.77 1.21487 -4.10396 0
M  V30 10671 C 971.096 2.45872 -4.74817 0
M  V30 10672 C 972.396 0.322603 -5.21303 0
M  V30 10673 H 974.09 -0.0933823 -2.99254 0
M  V30 10674 H 971.636 -0.0463526 -1.43925 0
M  V30 10675 H 973.589 2.28041 -3.54366 0
M  V30 10676 H 972.313 2.31727 -2.30153 0
M  V30 10677 H 970.972 0.633966 -3.61077 0
M  V30 10678 H 970.62 3.0832 -3.97426 0
M  V30 10679 H 970.32 2.15662 -5.46593 0
M  V30 10680 H 971.844 3.06994 -5.27814 0
M  V30 10681 H 973.258 0.832942 -5.67217 0
M  V30 10682 H 971.655 0.112843 -5.99994 0
M  V30 10683 H 972.725 -0.643954 -4.80605 0
M  V30 10684 N 974.068 1.57479 -0.061844 0
M  V30 10685 C 974.978 2.15645 0.923826 0
M  V30 10686 C 975.994 1.117 1.33413 0
M  V30 10687 O 977.17 1.4392 1.40887 0
M  V30 10688 C 974.235 2.69857 2.17665 0
M  V30 10689 C 973.296 3.88638 1.8237 0
M  V30 10690 C 972.529 4.40256 3.01679 0
M  V30 10691 O 972.752 3.90908 4.15388 0
M  V30 10692 O 971.686 5.31713 2.82073 0
M  V30 10693 H 975.512 3.0021 0.459094 0
M  V30 10694 H 973.097 1.48534 0.160665 0
M  V30 10695 H 974.979 3.04647 2.9115 0
M  V30 10696 H 973.654 1.88357 2.63255 0
M  V30 10697 H 972.561 3.58719 1.06167 0
M  V30 10698 H 973.894 4.71401 1.4157 0
M  V30 10699 N 975.546 -0.211634 1.56173 0
M  V30 10700 C 976.776 -0.949805 1.83473 0
M  V30 10701 C 977.184 -1.78045 0.640053 0
M  V30 10702 O 976.527 -1.79277 -0.400702 0
M  V30 10703 C 976.589 -1.90868 3.04647 0
M  V30 10704 C 976.253 -1.26159 4.39241 0
M  V30 10705 C 977.25 -0.646597 5.15863 0
M  V30 10706 C 974.935 -1.27039 4.85969 0
M  V30 10707 C 976.929 -0.0490313 6.37381 0
M  V30 10708 C 974.616 -0.668987 6.07427 0
M  V30 10709 C 975.614 -0.0593687 6.82974 0
M  V30 10710 O 975.302 0.532656 8.02133 0
M  V30 10711 H 975.034 -0.283458 0.6137 0
M  V30 10712 H 977.588 -0.22894 2.0412 0
M  V30 10713 H 975.818 -2.6688 2.79843 0
M  V30 10714 H 977.507 -2.51323 3.18734 0
M  V30 10715 H 978.273 -0.632056 4.80864 0
M  V30 10716 H 974.152 -1.73429 4.27134 0
M  V30 10717 H 977.696 0.427414 6.96289 0
M  V30 10718 H 973.593 -0.680975 6.41898 0
M  V30 10719 H 974.361 0.427942 8.17381 0
M  V30 10720 N 977.024 -1.50153 -0.478725 0
M  V30 10721 C 978.44 -1.3741 -0.811833 0
M  V30 10722 C 978.64 -0.424303 -1.96982 0
M  V30 10723 O 977.696 0.13588 -2.52134 0
M  V30 10724 C 979.009 -2.78616 -1.13108 0
M  V30 10725 C 980.557 -2.87477 -1.23798 0
M  V30 10726 C 981.032 -4.295 -1.5904 0
M  V30 10727 N 982.523 -4.32415 -1.66047 0
M  V30 10728 C 983.258 -5.39295 -1.94805 0
M  V30 10729 N 982.754 -6.56392 -2.21635 0
M  V30 10730 N 984.547 -5.26731 -1.96243 0
M  V30 10731 H 976.698 -2.10486 0.284531 0
M  V30 10732 H 978.961 -0.945786 0.0647585 0
M  V30 10733 H 978.667 -3.49921 -0.35334 0
M  V30 10734 H 978.541 -3.15382 -2.06915 0
M  V30 10735 H 980.928 -2.16396 -2.00641 0
M  V30 10736 H 981.009 -2.54264 -0.279888 0
M  V30 10737 H 980.653 -5.01115 -0.827404 0
M  V30 10738 H 980.583 -4.60194 -2.55987 0
M  V30 10739 H 983.074 -3.47975 -1.47383 0
M  V30 10740 H 983.387 -7.33658 -2.4283 0
M  V30 10741 H 981.732 -6.59579 -2.19043 0
M  V30 10742 H 984.923 -4.34249 -1.74773 0
M  V30 10743 H 985.096 -6.10115 -2.1832 0
M  V30 10744 N 978.502 0.731368 -1.39602 0
M  V30 10745 C 979.434 1.85575 -1.34516 0
M  V30 10746 C 980.447 1.60818 -0.253287 0
M  V30 10747 O 981.636 1.70984 -0.512505 0
M  V30 10748 C 978.736 3.21673 -1.06676 0
M  V30 10749 C 977.909 3.73757 -2.27211 0
M  V30 10750 C 976.968 4.88426 -1.95773 0
M  V30 10751 O 975.994 5.01898 -2.68491 0
M  V30 10752 N 977.196 5.73065 -0.926083 0
M  V30 10753 H 979.961 1.90442 -2.31413 0
M  V30 10754 H 977.522 0.912258 -1.33752 0
M  V30 10755 H 979.514 3.95959 -0.836577 0
M  V30 10756 H 978.084 3.12052 -0.185003 0
M  V30 10757 H 977.304 2.90781 -2.66158 0
M  V30 10758 H 978.592 4.05289 -3.07601 0
M  V30 10759 H 977.99 5.64774 -0.323497 0
M  V30 10760 H 976.547 6.47403 -0.755795 0
M  V30 10761 N 979.98 1.24838 0.961938 0
M  V30 10762 C 980.91 1.07053 2.07514 0
M  V30 10763 C 981.891 -0.0182465 1.7009 0
M  V30 10764 O 983.076 0.149915 1.9362 0
M  V30 10765 C 980.206 0.680693 3.40564 0
M  V30 10766 C 979.16 1.71889 3.91967 0
M  V30 10767 C 978.486 1.18395 5.21428 0
M  V30 10768 C 979.786 3.1161 4.19161 0
M  V30 10769 H 981.48 2.00167 2.22651 0
M  V30 10770 H 979.026 0.963799 1.0699 0
M  V30 10771 H 980.979 0.54324 4.17884 0
M  V30 10772 H 979.703 -0.28615 3.25344 0
M  V30 10773 H 978.362 1.84465 3.16809 0
M  V30 10774 H 978.01 0.207543 5.02572 0
M  V30 10775 H 977.71 1.87778 5.56788 0
M  V30 10776 H 979.234 1.05873 6.01351 0
M  V30 10777 H 980.648 3.0223 4.87165 0
M  V30 10778 H 979.045 3.78398 4.65763 0
M  V30 10779 H 980.115 3.59218 3.25715 0
M  V30 10780 N 981.458 -1.16348 1.06306 0
M  V30 10781 C 982.408 -2.18717 0.643947 0
M  V30 10782 C 983.392 -1.57574 -0.325445 0
M  V30 10783 O 984.584 -1.76439 -0.140868 0
M  V30 10784 C 981.713 -3.43285 0.0320266 0
M  V30 10785 C 980.799 -4.11504 1.02592 0
M  V30 10786 N 981.19 -4.55374 2.20155 0
M  V30 10787 C 979.488 -4.37691 0.856887 0
M  V30 10788 C 980.189 -5.08149 2.83124 0
M  V30 10789 N 979.165 -5.01042 2.10851 0
M  V30 10790 H 982.967 -2.50353 1.53951 0
M  V30 10791 H 980.481 -1.328 0.934763 0
M  V30 10792 H 982.478 -4.15917 -0.286064 0
M  V30 10793 H 981.138 -3.13137 -0.858786 0
M  V30 10794 H 982.149 -4.49101 2.57931 0
M  V30 10795 H 978.826 -4.17496 0.0180742 0
M  V30 10796 H 980.216 -5.52131 3.82885 0
M  V30 10797 N 982.937 -0.845659 -1.3299 0
M  V30 10798 C 984.165 -0.45835 -2.01759 0
M  V30 10799 C 984.58 0.94239 -1.63598 0
M  V30 10800 O 983.937 1.61353 -0.852738 0
M  V30 10801 C 983.988 -0.577311 -3.5686 0
M  V30 10802 O 983.709 -1.92287 -3.93646 0
M  V30 10803 C 985.21 -0.187839 -4.42902 0
M  V30 10804 H 982.43 -0.181165 -0.646081 0
M  V30 10805 H 984.974 -1.14011 -1.6977 0
M  V30 10806 H 983.129 0.0566146 -3.87359 0
M  V30 10807 H 983.543 -1.91322 -4.88361 0
M  V30 10808 H 985.017 -0.322105 -5.51059 0
M  V30 10809 H 985.494 0.870896 -4.30479 0
M  V30 10810 H 986.1 -0.796473 -4.17776 0
M  V30 10811 N 984.415 1.45619 -0.602734 0
M  V30 10812 C 985.345 2.33258 0.106342 0
M  V30 10813 C 986.326 1.46543 0.863664 0
M  V30 10814 O 987.511 1.75324 0.835175 0
M  V30 10815 C 984.641 3.29168 1.10751 0
M  V30 10816 C 983.595 4.25481 0.463717 0
M  V30 10817 C 982.921 5.11046 1.57278 0
M  V30 10818 C 984.221 5.18702 -0.61199 0
M  V30 10819 H 985.915 2.92795 -0.625423 0
M  V30 10820 H 983.461 1.40793 -0.302213 0
M  V30 10821 H 985.414 3.89346 1.61208 0
M  V30 10822 H 984.138 2.6778 1.8698 0
M  V30 10823 H 982.797 3.66595 -0.0199496 0
M  V30 10824 H 982.445 4.46029 2.32524 0
M  V30 10825 H 982.145 5.76286 1.14755 0
M  V30 10826 H 983.669 5.74091 2.07972 0
M  V30 10827 H 985.083 5.72979 -0.191686 0
M  V30 10828 H 983.48 5.92393 -0.958686 0
M  V30 10829 H 984.55 4.61424 -1.4905 0
M  V30 10830 N 985.893 0.34162 1.53853 0
M  V30 10831 C 986.825 -0.550383 2.22494 0
M  V30 10832 C 987.838 -1.0655 1.23089 0
M  V30 10833 O 989.027 -0.975985 1.49455 0
M  V30 10834 C 986.127 -1.76995 2.89009 0
M  V30 10835 C 985.3 -1.39045 4.14711 0
M  V30 10836 C 984.359 -2.46947 4.64654 0
M  V30 10837 O 983.385 -2.10336 5.28912 0
M  V30 10838 N 984.587 -3.7817 4.40418 0
M  V30 10839 H 987.352 0.037456 2.99677 0
M  V30 10840 H 984.913 0.165654 1.6105 0
M  V30 10841 H 986.905 -2.48608 3.19337 0
M  V30 10842 H 985.475 -2.2652 2.15424 0
M  V30 10843 H 984.695 -0.505161 3.9095 0
M  V30 10844 H 985.983 -1.11284 4.96481 0
M  V30 10845 H 985.381 -4.10704 3.89023 0
M  V30 10846 H 983.938 -4.45959 4.75356 0
M  V30 10847 N 987.371 -1.57444 0.0701946 0
M  V30 10848 C 988.318 -2.12631 -0.897599 0
M  V30 10849 C 989.288 -1.03841 -1.29639 0
M  V30 10850 O 990.473 -1.31495 -1.38253 0
M  V30 10851 C 987.613 -2.6911 -2.16041 0
M  V30 10852 C 986.726 -3.9205 -1.8144 0
M  V30 10853 C 985.861 -4.36778 -3.02321 0
M  V30 10854 C 984.9 -5.52371 -2.63729 0
M  V30 10855 N 984.037 -5.92065 -3.77364 0
M  V30 10856 H 988.877 -2.95024 -0.420104 0
M  V30 10857 H 986.414 -1.45792 -0.195716 0
M  V30 10858 H 988.372 -2.99963 -2.89962 0
M  V30 10859 H 987.002 -1.89484 -2.61334 0
M  V30 10860 H 986.054 -3.67669 -0.975896 0
M  V30 10861 H 987.366 -4.76011 -1.49046 0
M  V30 10862 H 986.52 -4.69285 -3.84521 0
M  V30 10863 H 985.259 -3.51668 -3.37907 0
M  V30 10864 H 984.264 -5.19517 -1.7995 0
M  V30 10865 H 985.489 -6.39212 -2.29315 0
M  V30 10866 H 983.435 -5.09904 -4.12715 0
M  V30 10867 H 983.352 -6.70762 -3.48733 0
M  V30 10868 H 984.62 -6.29193 -4.60148 0
M  V30 10869 N 988.849 0.203349 -1.56283 0
M  V30 10870 C 989.779 1.2549 -1.96912 0
M  V30 10871 C 990.76 1.47919 -0.839884 0
M  V30 10872 O 991.945 1.59795 -1.10359 0
M  V30 10873 C 989.075 2.6009 -2.30153 0
M  V30 10874 C 988.029 2.52289 -3.45738 0
M  V30 10875 C 987.355 3.91086 -3.64632 0
M  V30 10876 C 988.655 2.05503 -4.80173 0
M  V30 10877 H 990.349 0.917306 -2.85002 0
M  V30 10878 H 987.895 0.439818 -1.37119 0
M  V30 10879 H 989.848 3.33829 -2.5717 0
M  V30 10880 H 988.572 2.95574 -1.38937 0
M  V30 10881 H 987.231 1.81006 -3.18798 0
M  V30 10882 H 986.879 4.23908 -2.7076 0
M  V30 10883 H 986.579 3.86742 -4.42385 0
M  V30 10884 H 988.103 4.66459 -3.94016 0
M  V30 10885 H 989.517 2.68995 -5.06275 0
M  V30 10886 H 987.914 2.1218 -5.61337 0
M  V30 10887 H 988.984 1.00793 -4.74309 0
M  V30 10888 N 990.327 1.50405 0.470755 0
M  V30 10889 C 991.743 1.37838 0.804534 0
M  V30 10890 C 991.943 0.434743 1.96754 0
M  V30 10891 O 990.999 -0.122507 2.52203 0
M  V30 10892 C 992.312 2.79212 1.11629 0
M  V30 10893 C 993.86 2.88129 1.22272 0
M  V30 10894 C 994.335 4.30337 1.5676 0
M  V30 10895 N 995.826 4.3329 1.63751 0
M  V30 10896 C 996.561 5.4032 1.91942 0
M  V30 10897 N 996.057 6.57558 2.18151 0
M  V30 10898 N 997.85 5.27764 1.93446 0
M  V30 10899 H 990.001 2.10332 -0.295689 0
M  V30 10900 H 992.264 0.945429 -0.0697733 0
M  V30 10901 H 991.97 3.50103 0.334778 0
M  V30 10902 H 991.844 3.16475 2.0524 0
M  V30 10903 H 994.231 2.17457 1.9949 0
M  V30 10904 H 994.312 2.54409 0.2664 0
M  V30 10905 H 993.956 5.01547 0.800817 0
M  V30 10906 H 993.886 4.61545 2.53543 0
M  V30 10907 H 996.377 3.48752 1.45535 0
M  V30 10908 H 996.69 7.34935 2.38936 0
M  V30 10909 H 995.035 6.60732 2.15542 0
M  V30 10910 H 998.226 4.35169 1.72468 0
M  V30 10911 H 998.399 6.11264 2.15081 0
M  V30 10912 N 991.805 -0.723954 1.39988 0
M  V30 10913 C 992.738 -1.84725 1.33985 0
M  V30 10914 C 993.716 -1.61217 0.211623 0
M  V30 10915 O 994.9 -1.84338 0.393905 0
M  V30 10916 C 992.027 -3.20913 1.08317 0
M  V30 10917 C 991.073 -3.63262 2.23478 0
M  V30 10918 S 991.906 -3.71346 3.85827 0
M  V30 10919 C 993.062 -5.10307 3.62405 0
M  V30 10920 H 993.295 -1.89535 2.2905 0
M  V30 10921 H 990.828 -0.889911 1.26174 0
M  V30 10922 H 992.786 -3.99547 0.941921 0
M  V30 10923 H 991.447 -3.13745 0.149203 0
M  V30 10924 H 990.64 -4.62124 2.01139 0
M  V30 10925 H 990.242 -2.91863 2.33863 0
M  V30 10926 H 992.534 -5.96975 3.20354 0
M  V30 10927 H 993.477 -5.37679 4.60768 0
M  V30 10928 H 993.885 -4.80505 2.96269 0
M  V30 10929 N 993.283 -1.25346 -0.955304 0
M  V30 10930 C 994.56 -1.00829 -1.67609 0
M  V30 10931 C 994.94 0.465675 -2.059 0
M  V30 10932 O 994.288 1.44287 -1.77182 0
M  V30 10933 C 994.498 -1.94337 -2.89886 0
M  V30 10934 C 995.846 -2.22142 -3.61854 0
M  V30 10935 O 996.87 -1.9209 -2.99967 0
M  V30 10936 O 995.729 -2.73239 -4.73289 0
M  V30 10937 H 992.823 -0.382314 -0.733325 0
M  V30 10938 H 995.369 -1.36498 -1.00829 0
M  V30 10939 H 994.141 -2.93867 -2.58376 0
M  V30 10940 H 993.764 -1.59062 -3.64397 0
M  V30 10941 N 994.761 1.15782 -1.06922 0
M  V30 10942 C 995.691 2.22538 -0.707045 0
M  V30 10943 C 996.672 1.67371 0.303471 0
M  V30 10944 O 997.857 1.9339 0.177189 0
M  V30 10945 C 994.987 3.47158 -0.0994269 0
M  V30 10946 C 993.941 4.15257 -1.03661 0
M  V30 10947 C 993.267 5.33902 -0.291974 0
M  V30 10948 C 994.567 4.65516 -2.36837 0
M  V30 10949 H 996.261 2.53089 -1.59958 0
M  V30 10950 H 993.807 1.21649 -0.770552 0
M  V30 10951 H 995.76 4.21073 0.165852 0
M  V30 10952 H 994.484 3.15926 0.828155 0
M  V30 10953 H 993.143 3.43276 -1.28674 0
M  V30 10954 H 992.791 4.98926 0.638928 0
M  V30 10955 H 992.491 5.80407 -0.916613 0
M  V30 10956 H 994.015 6.1059 -0.0343915 0
M  V30 10957 H 995.429 5.30981 -2.16175 0
M  V30 10958 H 993.826 5.22666 -2.94856 0
M  V30 10959 H 994.896 3.81387 -2.99453 0
M  V30 10960 N 996.239 0.8527 1.3254 0
M  V30 10961 C 997.488 0.45136 1.96585 0
M  V30 10962 C 997.801 -0.997773 1.68237 0
M  V30 10963 O 999.007 -1.50445 2.26006 0
M  V30 10964 C 997.463 0.75619 3.51866 0
M  V30 10965 C 997.071 2.22092 3.89075 0
M  V30 10966 C 998.815 0.422478 4.22392 0
M  V30 10967 C 996.722 2.46908 5.37392 0
M  V30 10968 H 995.652 0.165052 0.735713 0
M  V30 10969 H 998.303 1.04321 1.50962 0
M  V30 10970 H 996.685 0.0937988 3.95889 0
M  V30 10971 H 997.859 2.92494 3.56067 0
M  V30 10972 H 996.174 2.51896 3.31568 0
M  V30 10973 H 998.771 0.58533 5.31487 0
M  V30 10974 H 999.114 -0.635737 4.11417 0
M  V30 10975 H 999.647 1.04068 3.83946 0
M  V30 10976 H 996.386 3.51346 5.53386 0
M  V30 10977 H 995.906 1.81082 5.71812 0
M  V30 10978 H 997.585 2.30758 6.0445 0
M  V30 10979 N 997.718 -1.45297 0.610449 0
M  V30 10980 C 999.134 -1.57225 0.274332 0
M  V30 10981 C 999.334 -1.60136 -1.22306 0
M  V30 10982 O 998.39 -1.5332 -2.00622 0
M  V30 10983 C 999.703 -2.85365 0.948028 0
M  V30 10984 C 1001.25 -2.99044 0.924216 0
M  V30 10985 C 1001.73 -4.29958 1.57798 0
M  V30 10986 N 1003.22 -4.36723 1.5436 0
M  V30 10987 C 1003.95 -5.36695 2.01857 0
M  V30 10988 N 1003.45 -6.43187 2.57453 0
M  V30 10989 N 1005.24 -5.28071 1.92608 0
M  V30 10990 H 997.392 -1.41651 1.58268 0
M  V30 10991 H 999.655 -0.67744 0.663158 0
M  V30 10992 H 999.361 -2.89125 2.00249 0
M  V30 10993 H 999.235 -3.74222 0.473062 0
M  V30 10994 H 1001.62 -2.94849 -0.121709 0
M  V30 10995 H 1001.7 -2.1159 1.43748 0
M  V30 10996 H 1001.35 -4.34912 2.62325 0
M  V30 10997 H 1001.28 -5.16234 1.03972 0
M  V30 10998 H 1003.77 -3.60374 1.13749 0
M  V30 10999 H 1004.08 -7.15722 2.91482 0
M  V30 11000 H 1002.43 -6.4393 2.61493 0
M  V30 11001 H 1005.62 -4.43783 1.48912 0
M  V30 11002 H 1005.79 -6.05832 2.29938 0
M  V30 11003 N 999.196 -0.349774 -1.5367 0
M  V30 11004 C 1000.13 0.496338 -2.28164 0
M  V30 11005 C 1001.11 1.09737 -1.29968 0
M  V30 11006 O 1002.29 1.11759 -1.58819 0
M  V30 11007 C 999.422 1.64428 -3.0591 0
M  V30 11008 C 998.376 1.17127 -4.11661 0
M  V30 11009 C 997.702 2.40822 -4.77398 0
M  V30 11010 C 999.002 0.267293 -5.21616 0
M  V30 11011 H 1000.7 -0.125117 -2.99138 0
M  V30 11012 H 998.242 -0.0616152 -1.43868 0
M  V30 11013 H 1000.19 2.2427 -3.56765 0
M  V30 11014 H 998.919 2.29272 -2.32598 0
M  V30 11015 H 997.578 0.595634 -3.61729 0
M  V30 11016 H 997.226 3.04088 -4.00674 0
M  V30 11017 H 996.926 2.09852 -5.48849 0
M  V30 11018 H 998.45 3.01378 -5.3104 0
M  V30 11019 H 999.864 0.772734 -5.68068 0
M  V30 11020 H 998.261 0.0491991 -6.0008 0
M  V30 11021 H 999.331 -0.694892 -4.79895 0
M  V30 11022 N 1000.67 1.57404 -0.0785433 0
M  V30 11023 C 1001.61 2.101 0.916013 0
M  V30 11024 C 1002.62 1.03459 1.25698 0
M  V30 11025 O 1003.81 1.30954 1.21299 0
M  V30 11026 C 1000.91 2.55202 2.22992 0
M  V30 11027 C 1000.08 3.85491 2.06678 0
M  V30 11028 C 999.14 4.16614 3.21433 0
M  V30 11029 O 998.166 4.86105 2.96126 0
M  V30 11030 N 999.368 3.70697 4.46726 0
M  V30 11031 H 1002.13 2.96054 0.466059 0
M  V30 11032 H 999.694 1.61546 0.107006 0
M  V30 11033 H 1001.69 2.7308 2.9868 0
M  V30 11034 H 1000.26 1.74348 2.59464 0
M  V30 11035 H 999.476 3.76925 1.15417 0
M  V30 11036 H 1000.76 4.70759 1.93036 0
M  V30 11037 H 1000.16 3.14571 4.70172 0
M  V30 11038 H 998.719 3.93762 5.19418 0
M  V30 11039 N 1002.15 -0.195058 1.56388 0
M  V30 11040 C 1003.1 -1.24584 1.90952 0
M  V30 11041 C 1004.09 -1.40993 0.77522 0
M  V30 11042 O 1005.28 -1.43363 1.03808 0
M  V30 11043 C 1002.41 -2.59064 2.25258 0
M  V30 11044 C 1001.49 -2.46447 3.45145 0
M  V30 11045 N 1001.88 -2.0351 4.63052 0
M  V30 11046 C 1000.18 -2.77339 3.49283 0
M  V30 11047 C 1000.88 -2.02785 5.45209 0
M  V30 11048 N 999.859 -2.4429 4.85616 0
M  V30 11049 H 1003.66 -0.9052 2.79613 0
M  V30 11050 H 1001.17 -0.403493 1.57308 0
M  V30 11051 H 1003.17 -3.34963 2.48205 0
M  V30 11052 H 1001.83 -2.93951 1.37924 0
M  V30 11053 H 1002.84 -1.74219 4.87717 0
M  V30 11054 H 999.52 -3.16423 2.72365 0
M  V30 11055 H 1000.91 -1.71489 6.49647 0
M  V30 11056 N 1003.63 -1.50653 -0.462772 0
M  V30 11057 C 1004.56 -1.66286 -1.5774 0
M  V30 11058 C 1005.57 -0.544094 -1.53439 0
M  V30 11059 O 1006.76 -0.817566 -1.58676 0
M  V30 11060 C 1003.86 -1.63893 -2.96635 0
M  V30 11061 C 1003.04 -2.91939 -3.25716 0
M  V30 11062 C 1002.1 -2.82076 -4.44206 0
M  V30 11063 O 1001.12 -3.56032 -4.44106 0
M  V30 11064 N 1002.32 -1.96196 -5.4634 0
M  V30 11065 H 1005.09 -2.6243 -1.44742 0
M  V30 11066 H 1002.65 -1.48221 -0.651326 0
M  V30 11067 H 1004.64 -1.54897 -3.73884 0
M  V30 11068 H 1003.21 -0.75449 -3.03358 0
M  V30 11069 H 1002.43 -3.14998 -2.37002 0
M  V30 11070 H 1003.72 -3.7675 -3.4196 0
M  V30 11071 H 1003.12 -1.35439 -5.49247 0
M  V30 11072 H 1001.67 -1.93097 -6.2254 0
M  V30 11073 N 1005.11 0.71652 -1.4037 0
M  V30 11074 C 1006.34 1.50563 -1.4191 0
M  V30 11075 C 1006.75 1.88791 -0.0185456 0
M  V30 11076 O 1006.11 1.55378 0.957289 0
M  V30 11077 C 1006.16 2.78155 -2.30894 0
M  V30 11078 O 1005.88 2.41543 -3.65497 0
M  V30 11079 C 1007.38 3.72057 -2.41016 0
M  V30 11080 H 1004.6 0.464679 -0.48406 0
M  V30 11081 H 1007.15 0.883927 -1.8441 0
M  V30 11082 H 1005.3 3.36611 -1.91759 0
M  V30 11083 H 1005.71 3.23636 -4.12747 0
M  V30 11084 H 1007.19 4.58426 -3.07489 0
M  V30 11085 H 1007.67 4.15098 -1.43492 0
M  V30 11086 H 1008.27 3.19512 -2.80699 0
M  V30 11087 N 1006.59 1.25851 0.948643 0
M  V30 11088 C 1007.5 1.08516 2.07994 0
M  V30 11089 C 1008.51 0.0206696 1.73988 0
M  V30 11090 O 1009.69 0.222854 2.00163 0
M  V30 11091 C 1006.75 0.712145 3.39307 0
M  V30 11092 C 1005.81 1.85523 3.87143 0
M  V30 11093 C 1005.05 1.49992 5.1219 0
M  V30 11094 O 1005.27 0.398268 5.69008 0
M  V30 11095 O 1004.2 2.33215 5.54882 0
M  V30 11096 H 1008.03 2.03405 2.25522 0
M  V30 11097 H 1005.62 1.04844 1.06433 0
M  V30 11098 H 1007.5 0.516512 4.18223 0
M  V30 11099 H 1006.17 -0.207416 3.23035 0
M  V30 11100 H 1005.08 2.10578 3.09205 0
M  V30 11101 H 1006.41 2.75425 4.07924 0
M  V30 11102 N 1008.06 -1.15214 1.07534 0
M  V30 11103 C 1008.99 -2.2216 0.718837 0
M  V30 11104 C 1009.98 -1.6753 -0.29459 0
M  V30 11105 O 1011.16 -1.93481 -0.166931 0
M  V30 11106 C 1008.29 -3.471 0.117836 0
M  V30 11107 C 1007.24 -4.14701 1.05862 0
M  V30 11108 C 1006.57 -5.3374 0.320284 0
M  V30 11109 C 1007.87 -4.64254 2.39302 0
M  V30 11110 H 1009.56 -2.52237 1.61297 0
M  V30 11111 H 1007.11 -1.21239 0.776992 0
M  V30 11112 H 1009.06 -4.21156 -0.143519 0
M  V30 11113 H 1007.79 -3.16361 -0.811389 0
M  V30 11114 H 1006.45 -3.42589 1.30493 0
M  V30 11115 H 1006.09 -4.99257 -0.61246 0
M  V30 11116 H 1005.79 -5.79912 0.947381 0
M  V30 11117 H 1007.32 -6.10563 0.0667721 0
M  V30 11118 H 1008.73 -5.29827 2.18988 0
M  V30 11119 H 1007.13 -5.21095 2.97623 0
M  V30 11120 H 1008.2 -3.79793 3.01472 0
M  V30 11121 N 1009.54 -0.859717 -1.32086 0
M  V30 11122 C 1010.45 -0.31108 -2.32528 0
M  V30 11123 C 1011.47 0.573714 -1.6427 0
M  V30 11124 O 1012.64 0.472878 -1.9577 0
M  V30 11125 C 1009.71 0.487256 -3.43259 0
M  V30 11126 C 1008.77 -0.424279 -4.27198 0
M  V30 11127 C 1008 0.336051 -5.32641 0
M  V30 11128 O 1008.23 1.56541 -5.48499 0
M  V30 11129 O 1007.16 -0.300777 -6.01148 0
M  V30 11130 H 1010.99 -1.14336 -2.81355 0
M  V30 11131 H 1008.57 -0.622794 -1.358 0
M  V30 11132 H 1010.45 0.940203 -4.10777 0
M  V30 11133 H 1009.13 1.29626 -2.96612 0
M  V30 11134 H 1008.04 -0.925509 -3.62471 0
M  V30 11135 H 1009.37 -1.1986 -4.77383 0
M  V30 11136 N 1011.02 1.44971 -0.618145 0
M  V30 11137 C 1011.97 2.32354 0.106846 0
M  V30 11138 C 1012.96 1.4659 0.848984 0
M  V30 11139 O 1014.17 1.63012 0.763354 0
M  V30 11140 H 1010.54 0.750108 0.0533109 0
M  V30 11141 H 1012.51 2.9127 -0.648426 0
M  V30 11142 C 1011.26 3.30381 1.08368 0
M  V30 11143 H 1010.59 3.96377 0.52205 0
M  V30 11144 H 1012.03 3.94231 1.56069 0
M  V30 11145 C 1010.49 2.58336 2.1625 0
M  V30 11146 O 1011.02 2.37258 3.24148 0
M  V30 11147 N 1009.22 2.18292 1.91825 0
M  V30 11148 H 1008.77 2.35635 1.04086 0
M  V30 11149 H 1008.73 1.70413 2.6421 0
M  V30 11150 N 1012.5 0.357919 1.53482 0
M  V30 11151 C 1013.43 -0.526753 2.23065 0
M  V30 11152 C 1014.44 -1.05239 1.24212 0
M  V30 11153 O 1015.63 -0.960078 1.50482 0
M  V30 11154 C 1012.73 -1.73919 2.9087 0
M  V30 11155 C 1011.91 -1.34638 4.16163 0
M  V30 11156 C 1010.96 -2.42005 4.67247 0
M  V30 11157 O 1009.99 -2.04714 5.31113 0
M  V30 11158 N 1011.19 -3.73478 4.44404 0
M  V30 11159 H 1013.96 0.0692386 2.9962 0
M  V30 11160 H 1011.52 0.182726 1.60866 0
M  V30 11161 H 1013.51 -2.45207 3.21956 0
M  V30 11162 H 1012.08 -2.24223 2.17814 0
M  V30 11163 H 1011.3 -0.463667 3.91464 0
M  V30 11164 H 1012.59 -1.06012 4.97633 0
M  V30 11165 H 1011.99 -4.06555 3.93357 0
M  V30 11166 H 1010.54 -4.40893 4.80059 0
M  V30 11167 N 1013.98 -1.5736 0.0868897 0
M  V30 11168 C 1014.91 -2.16596 -0.872252 0
M  V30 11169 C 1015.89 -1.09706 -1.29995 0
M  V30 11170 O 1017.07 -1.37808 -1.36831 0
M  V30 11171 C 1014.2 -2.73972 -2.1344 0
M  V30 11172 C 1013.16 -3.86163 -1.8456 0
M  V30 11173 C 1012.48 -4.30206 -3.17533 0
M  V30 11174 C 1013.78 -5.0973 -1.13899 0
M  V30 11175 H 1015.48 -2.96995 -0.378738 0
M  V30 11176 H 1013.02 -1.42861 -0.18073 0
M  V30 11177 H 1014.98 -3.14062 -2.80968 0
M  V30 11178 H 1013.7 -1.90817 -2.6506 0
M  V30 11179 H 1012.36 -3.466 -1.19432 0
M  V30 11180 H 1012.01 -3.43951 -3.67024 0
M  V30 11181 H 1011.71 -5.05841 -2.98996 0
M  V30 11182 H 1013.23 -4.72922 -3.86234 0
M  V30 11183 H 1014.64 -5.4704 -1.71523 0
M  V30 11184 H 1013.04 -5.90741 -1.05569 0
M  V30 11185 H 1014.11 -4.8475 -0.120432 0
M  V30 11186 N 1015.45 0.186762 -1.56489 0
M  V30 11187 C 1016.36 1.25169 -1.98419 0
M  V30 11188 C 1017.38 1.49329 -0.893124 0
M  V30 11189 O 1018.56 1.61781 -1.19954 0
M  V30 11190 C 1015.62 2.57422 -2.32239 0
M  V30 11191 C 1014.68 2.4126 -3.55095 0
M  V30 11192 C 1013.92 3.67206 -3.87292 0
M  V30 11193 O 1014.14 4.71731 -3.20665 0
M  V30 11194 O 1013.07 3.62238 -4.80695 0
M  V30 11195 H 1016.9 0.925834 -2.89244 0
M  V30 11196 H 1014.48 0.392421 -1.44154 0
M  V30 11197 H 1016.37 3.35466 -2.5503 0
M  V30 11198 H 1015.04 2.89618 -1.44579 0
M  V30 11199 H 1013.95 1.61299 -3.37541 0
M  V30 11200 H 1015.28 2.13994 -4.43247 0
M  V30 11201 N 1016.93 1.50896 0.454776 0
M  V30 11202 C 1018.16 1.66239 1.22671 0
M  V30 11203 C 1018.57 0.351876 1.85899 0
M  V30 11204 O 1017.91 -0.677848 1.70736 0
M  V30 11205 C 1017.98 2.70812 2.36434 0
M  V30 11206 C 1017.64 4.13913 1.93714 0
M  V30 11207 C 1018.64 4.99259 1.45039 0
M  V30 11208 C 1016.32 4.59921 2.01937 0
M  V30 11209 C 1018.32 6.28667 1.05151 0
M  V30 11210 C 1016 5.89329 1.6166 0
M  V30 11211 C 1017 6.73529 1.13347 0
M  V30 11212 O 1016.69 8.0052 0.736354 0
M  V30 11213 H 1016.42 0.561443 0.376508 0
M  V30 11214 H 1018.97 1.97974 0.547325 0
M  V30 11215 H 1017.2 2.34355 3.07595 0
M  V30 11216 H 1018.89 2.7521 2.98353 0
M  V30 11217 H 1019.66 4.64925 1.38095 0
M  V30 11218 H 1015.54 3.94518 2.38488 0
M  V30 11219 H 1019.08 6.94339 0.673711 0
M  V30 11220 H 1014.98 6.23182 1.68269 0
M  V30 11221 H 1015.75 8.1393 0.863759 0
M  V30 11222 N 1018.41 -0.709066 1.40748 0
M  V30 11223 C 1019.36 -1.84445 1.41714 0
M  V30 11224 C 1020.35 -1.66779 0.296818 0
M  V30 11225 O 1021.56 -1.73805 0.468181 0
M  V30 11226 H 1017.93 -0.607581 0.443114 0
M  V30 11227 H 1019.9 -1.80747 2.3743 0
M  V30 11228 C 1018.65 -3.22362 1.303 0
M  V30 11229 H 1017.98 -3.36565 2.15787 0
M  V30 11230 H 1019.42 -4.01922 1.35036 0
M  V30 11231 C 1017.88 -3.36897 0.0139015 0
M  V30 11232 O 1018.41 -3.90389 -0.946553 0
M  V30 11233 N 1016.61 -2.90543 -0.0577491 0
M  V30 11234 H 1016.16 -2.472 0.724574 0
M  V30 11235 H 1016.12 -3.00647 -0.919721 0
M  V30 11236 N 1019.89 -1.26353 -0.941956 0
M  V30 11237 C 1020.84 -1.07842 -2.04056 0
M  V30 11238 C 1021.81 0.0163064 -1.66092 0
M  V30 11239 O 1022.99 -0.143313 -1.90261 0
M  V30 11240 C 1020.13 -0.716636 -3.37577 0
M  V30 11241 C 1019.24 -1.88754 -3.88582 0
M  V30 11242 C 1018.38 -1.46893 -5.10486 0
M  V30 11243 C 1017.42 -2.60819 -5.53751 0
M  V30 11244 N 1016.56 -2.19646 -6.66858 0
M  V30 11245 H 1021.4 -2.01856 -2.19221 0
M  V30 11246 H 1018.93 -1.00504 -1.07412 0
M  V30 11247 H 1020.89 -0.487768 -4.14339 0
M  V30 11248 H 1019.52 0.18653 -3.22261 0
M  V30 11249 H 1018.57 -2.22936 -3.08227 0
M  V30 11250 H 1019.88 -2.74264 -4.1663 0
M  V30 11251 H 1019.04 -1.20047 -5.94705 0
M  V30 11252 H 1017.78 -0.584721 -4.84182 0
M  V30 11253 H 1016.78 -2.88396 -4.6809 0
M  V30 11254 H 1018.01 -3.49838 -5.82057 0
M  V30 11255 H 1015.95 -1.33657 -6.4224 0
M  V30 11256 H 1015.87 -2.987 -6.94489 0
M  V30 11257 H 1017.14 -1.96009 -7.54454 0
M  V30 11258 N 1021.37 1.14642 -1.08144 0
M  V30 11259 C 1022.78 1.37604 -0.808537 0
M  V30 11260 C 1022.98 1.92868 0.583452 0
M  V30 11261 O 1022.04 2.13964 1.34073 0
M  V30 11262 C 1023.35 2.3396 -1.889 0
M  V30 11263 C 1024.9 2.47605 -1.9147 0
M  V30 11264 C 1025.38 3.47258 -2.98623 0
M  V30 11265 N 1026.87 3.548 -2.97777 0
M  V30 11266 C 1027.6 4.31751 -3.77331 0
M  V30 11267 N 1027.1 5.11966 -4.66757 0
M  V30 11268 N 1028.89 4.2692 -3.65645 0
M  V30 11269 H 1021.04 0.771154 -1.97906 0
M  V30 11270 H 1023.3 0.401694 -0.858688 0
M  V30 11271 H 1023.01 2.00484 -2.88962 0
M  V30 11272 H 1022.88 3.33833 -1.756 0
M  V30 11273 H 1025.27 2.80375 -0.920548 0
M  V30 11274 H 1025.35 1.47702 -2.08848 0
M  V30 11275 H 1025 3.15223 -3.98243 0
M  V30 11276 H 1024.93 4.46935 -2.7849 0
M  V30 11277 H 1027.42 2.97553 -2.3296 0
M  V30 11278 H 1027.73 5.67951 -5.24072 0
M  V30 11279 H 1026.08 5.11245 -4.70801 0
M  V30 11280 H 1029.27 3.63322 -2.95152 0
M  V30 11281 H 1029.44 4.8664 -4.27885 0
M  V30 11282 N 1022.85 0.866709 1.31628 0
M  V30 11283 C 1024.26 0.558188 1.49521 0
M  V30 11284 C 1024.46 -0.90844 1.7986 0
M  V30 11285 O 1023.52 -1.6908 1.87531 0
M  V30 11286 C 1024.83 1.45559 2.63122 0
M  V30 11287 C 1026.38 1.45728 2.77006 0
M  V30 11288 C 1026.85 2.34017 3.937 0
M  V30 11289 N 1028.34 2.31879 4.00982 0
M  V30 11290 C 1029.08 2.96915 4.90539 0
M  V30 11291 N 1028.58 3.71109 5.85021 0
M  V30 11292 N 1030.37 2.86241 4.83759 0
M  V30 11293 H 1022.52 1.81574 1.10203 0
M  V30 11294 H 1024.78 0.77621 0.544244 0
M  V30 11295 H 1024.49 2.49904 2.47469 0
M  V30 11296 H 1024.36 1.15174 3.59186 0
M  V30 11297 H 1026.75 0.421419 2.92075 0
M  V30 11298 H 1026.83 1.80134 1.81619 0
M  V30 11299 H 1026.47 3.37678 3.79389 0
M  V30 11300 H 1026.4 1.96937 4.88388 0
M  V30 11301 H 1028.9 1.77948 3.33381 0
M  V30 11302 H 1029.21 4.1787 6.5008 0
M  V30 11303 H 1027.55 3.75217 5.8501 0
M  V30 11304 H 1030.74 2.27819 4.08921 0
M  V30 11305 H 1030.92 3.37206 5.5335 0
M  V30 11306 N 1024.32 -1.44642 0.625825 0
M  V30 11307 C 1025.23 -2.34451 -0.0836134 0
M  V30 11308 C 1026.25 -1.5231 -0.841289 0
M  V30 11309 O 1027.43 -1.85056 -0.794754 0
M  V30 11310 C 1024.49 -3.30211 -1.05648 0
M  V30 11311 C 1023.55 -4.28259 -0.298759 0
M  V30 11312 C 1022.78 -5.19444 -1.22528 0
M  V30 11313 O 1023.01 -5.14444 -2.46382 0
M  V30 11314 O 1021.94 -5.97668 -0.71247 0
M  V30 11315 H 1025.77 -2.96555 0.654912 0
M  V30 11316 H 1023.35 -1.44327 0.386029 0
M  V30 11317 H 1025.23 -3.8917 -1.61632 0
M  V30 11318 H 1023.91 -2.70648 -1.77571 0
M  V30 11319 H 1022.82 -3.72863 0.304001 0
M  V30 11320 H 1024.15 -4.90728 0.380345 0
M  V30 11321 N 1025.8 -0.366053 -1.5329 0
M  V30 11322 C 1027.22 -0.0150149 -1.59593 0
M  V30 11323 C 1027.42 1.46719 -1.38116 0
M  V30 11324 O 1026.47 2.22884 -1.18656 0
M  V30 11325 C 1027.79 -0.471374 -2.96982 0
M  V30 11326 C 1029.33 -0.425634 -3.10092 0
M  V30 11327 C 1029.81 -0.857812 -4.49895 0
M  V30 11328 N 1031.3 -0.81289 -4.56011 0
M  V30 11329 C 1032.04 -1.11898 -5.62376 0
M  V30 11330 N 1031.53 -1.49436 -6.76491 0
M  V30 11331 N 1033.32 -1.04174 -5.52362 0
M  V30 11332 H 1025.48 -1.33127 -1.65502 0
M  V30 11333 H 1027.74 -0.544172 -0.776261 0
M  V30 11334 H 1027.44 -1.50569 -3.1784 0
M  V30 11335 H 1027.32 0.141764 -3.76934 0
M  V30 11336 H 1029.71 0.599548 -2.88945 0
M  V30 11337 H 1029.79 -1.07427 -2.32149 0
M  V30 11338 H 1029.43 -1.88111 -4.7178 0
M  V30 11339 H 1029.36 -0.186419 -5.2627 0
M  V30 11340 H 1031.85 -0.536343 -3.74075 0
M  V30 11341 H 1032.16 -1.71217 -7.53594 0
M  V30 11342 H 1030.51 -1.53302 -6.77882 0
M  V30 11343 H 1033.7 -0.747654 -4.62091 0
M  V30 11344 H 1033.87 -1.28362 -6.35159 0
M  V30 11345 N 1027.28 1.57312 -0.0952337 0
M  V30 11346 C 1028.19 2.17556 0.877877 0
M  V30 11347 C 1029.21 1.14505 1.31014 0
M  V30 11348 O 1030.38 1.46876 1.37802 0
M  V30 11349 C 1027.45 2.74413 2.11892 0
M  V30 11350 C 1026.51 3.92419 1.74085 0
M  V30 11351 C 1025.74 4.46556 2.92273 0
M  V30 11352 O 1025.96 3.99631 4.07002 0
M  V30 11353 O 1024.9 5.37576 2.70732 0
M  V30 11354 H 1028.72 3.01116 0.395312 0
M  V30 11355 H 1026.31 1.48841 0.129123 0
M  V30 11356 H 1028.19 3.10754 2.84622 0
M  V30 11357 H 1026.87 1.93899 2.59201 0
M  V30 11358 H 1025.77 3.6089 0.985346 0
M  V30 11359 H 1027.11 4.74298 1.31539 0
M  V30 11360 N 1028.76 -0.17846 1.56586 0
M  V30 11361 C 1029.69 -1.22342 1.98884 0
M  V30 11362 C 1030.67 -1.46564 0.86331 0
M  V30 11363 O 1031.85 -1.58019 1.12887 0
M  V30 11364 C 1028.98 -2.56396 2.34261 0
M  V30 11365 C 1027.94 -2.46756 3.49708 0
M  V30 11366 C 1027.26 -3.85235 3.70807 0
M  V30 11367 C 1028.56 -1.97838 4.83381 0
M  V30 11368 H 1030.26 -0.871848 2.86425 0
M  V30 11369 H 1027.8 -0.417948 1.37801 0
M  V30 11370 H 1029.76 -3.29695 2.62448 0
M  V30 11371 H 1028.48 -2.93327 1.43621 0
M  V30 11372 H 1027.14 -1.75912 3.21637 0
M  V30 11373 H 1026.79 -4.19547 2.7747 0
M  V30 11374 H 1026.49 -3.79655 4.48481 0
M  V30 11375 H 1028.01 -4.60131 4.01387 0
M  V30 11376 H 1029.43 -2.60906 5.10491 0
M  V30 11377 H 1027.82 -2.03223 5.64642 0
M  V30 11378 H 1028.89 -0.932339 4.75852 0
M  V30 11379 N 1030.24 -1.51135 -0.446768 0
M  V30 11380 C 1031.19 -1.68152 -1.53977 0
M  V30 11381 C 1032.17 -0.53563 -1.51723 0
M  V30 11382 O 1033.36 -0.791134 -1.58335 0
M  V30 11383 C 1030.49 -1.80133 -2.92245 0
M  V30 11384 C 1029.58 -3.00476 -2.99291 0
M  V30 11385 N 1029.97 -4.23796 -2.76099 0
M  V30 11386 C 1028.27 -2.99536 -3.30445 0
M  V30 11387 C 1028.97 -5.04977 -2.88744 0
M  V30 11388 N 1027.94 -4.39428 -3.20006 0
M  V30 11389 H 1031.74 -2.61172 -1.34784 0
M  V30 11390 H 1029.26 -1.48653 -0.653923 0
M  V30 11391 H 1031.26 -1.90432 -3.70866 0
M  V30 11392 H 1029.92 -0.882879 -3.12467 0
M  V30 11393 H 1030.93 -4.52896 -2.51209 0
M  V30 11394 H 1027.6 -2.17286 -3.56501 0
M  V30 11395 H 1028.99 -6.13114 -2.74847 0
M  V30 11396 N 1031.71 0.701592 -1.41122 0
M  V30 11397 C 1033.13 1.01143 -1.23459 0
M  V30 11398 C 1033.33 2.01144 -0.11968 0
M  V30 11399 O 1032.39 2.47132 0.517889 0
M  V30 11400 C 1033.7 1.54179 -2.58165 0
M  V30 11401 C 1035.25 1.66093 -2.65296 0
M  V30 11402 C 1035.72 2.22532 -4.00304 0
M  V30 11403 N 1037.21 2.299 -4.0212 0
M  V30 11404 C 1037.95 2.74584 -5.0338 0
M  V30 11405 N 1037.44 3.18917 -6.15032 0
M  V30 11406 N 1039.24 2.74094 -4.90743 0
M  V30 11407 H 1031.39 0.0390087 -2.12364 0
M  V30 11408 H 1033.65 0.0798848 -0.944628 0
M  V30 11409 H 1033.36 0.881587 -3.40472 0
M  V30 11410 H 1033.23 2.52488 -2.80231 0
M  V30 11411 H 1035.62 2.31227 -1.83352 0
M  V30 11412 H 1035.7 0.663461 -2.47046 0
M  V30 11413 H 1035.34 1.58016 -4.82694 0
M  V30 11414 H 1035.27 3.2302 -4.15891 0
M  V30 11415 H 1037.76 1.98607 -3.21502 0
M  V30 11416 H 1038.08 3.5162 -6.88174 0
M  V30 11417 H 1036.42 3.1684 -6.18577 0
M  V30 11418 H 1039.61 2.38804 -4.02604 0
M  V30 11419 H 1039.79 3.086 -5.69798 0
M  V30 11420 N 1033.19 1.2685 0.935242 0
M  V30 11421 C 1034.14 1.08923 2.03481 0
M  V30 11422 C 1035.11 -0.00749786 1.66098 0
M  V30 11423 O 1036.29 0.153401 1.90182 0
M  V30 11424 C 1033.43 0.734529 3.37192 0
M  V30 11425 C 1032.55 1.90812 3.87576 0
M  V30 11426 C 1031.68 1.49599 5.097 0
M  V30 11427 C 1030.72 2.63752 5.5236 0
M  V30 11428 N 1029.86 2.23179 6.65684 0
M  V30 11429 H 1034.7 2.03016 2.18148 0
M  V30 11430 H 1032.23 1.01072 1.06878 0
M  V30 11431 H 1034.19 0.509734 4.14074 0
M  V30 11432 H 1032.82 -0.169438 3.22355 0
M  V30 11433 H 1031.87 2.24567 3.0704 0
M  V30 11434 H 1033.19 2.7647 4.1517 0
M  V30 11435 H 1032.34 1.23199 5.9406 0
M  V30 11436 H 1031.08 0.61039 4.83865 0
M  V30 11437 H 1030.08 2.90874 4.66554 0
M  V30 11438 H 1031.31 3.5292 5.80193 0
M  V30 11439 H 1029.26 1.37061 6.41522 0
M  V30 11440 H 1029.17 3.02379 6.92895 0
M  V30 11441 H 1030.44 2.00007 7.53404 0
M  V30 11442 N 1034.67 -1.14067 1.0875 0
M  V30 11443 C 1035.62 -2.17302 0.690195 0
M  V30 11444 C 1036.6 -1.58229 -0.291948 0
M  V30 11445 O 1037.8 -1.76698 -0.103411 0
M  V30 11446 C 1034.93 -3.4314 0.104835 0
M  V30 11447 C 1034.01 -4.09235 1.11298 0
M  V30 11448 N 1034.4 -4.50601 2.29765 0
M  V30 11449 C 1032.7 -4.35775 0.949535 0
M  V30 11450 C 1033.4 -5.02029 2.93839 0
M  V30 11451 N 1032.38 -4.96457 2.21431 0
M  V30 11452 H 1036.18 -2.47031 1.59226 0
M  V30 11453 H 1033.69 -1.30788 0.962722 0
M  V30 11454 H 1035.69 -4.16431 -0.197777 0
M  V30 11455 H 1034.35 -3.14888 -0.792172 0
M  V30 11456 H 1035.36 -4.43529 2.67399 0
M  V30 11457 H 1032.04 -4.17364 0.106627 0
M  V30 11458 H 1033.43 -5.43885 3.94511 0
M  V30 11459 N 1036.15 -0.873678 -1.31166 0
M  V30 11460 C 1037.39 -0.487178 -1.96861 0
M  V30 11461 C 1037.73 0.95887 -1.68877 0
M  V30 11462 O 1037 1.6758 -0.987279 0
M  V30 11463 C 1037.29 -0.74925 -3.52219 0
M  V30 11464 C 1037.14 -2.2451 -3.89763 0
M  V30 11465 C 1038.46 -0.218194 -4.39559 0
M  V30 11466 H 1035.58 -0.178477 -0.715063 0
M  V30 11467 H 1038.22 -1.0956 -1.55231 0
M  V30 11468 H 1036.37 -0.231403 -3.8781 0
M  V30 11469 H 1038.04 -2.83049 -3.64254 0
M  V30 11470 H 1036.28 -2.71621 -3.38237 0
M  V30 11471 H 1036.95 -2.37911 -4.98099 0
M  V30 11472 H 1039.43 -0.661274 -4.10812 0
M  V30 11473 H 1038.31 -0.430983 -5.47205 0
M  V30 11474 H 1038.57 0.880056 -4.33252 0
M  V30 11475 N 1037.63 1.44308 -0.633487 0
M  V30 11476 C 1038.56 2.27887 0.119397 0
M  V30 11477 C 1039.54 1.38676 0.848981 0
M  V30 11478 O 1040.72 1.68116 0.85259 0
M  V30 11479 C 1037.85 3.17658 1.17521 0
M  V30 11480 C 1036.89 4.22992 0.54589 0
M  V30 11481 S 1037.73 5.31345 -0.6658 0
M  V30 11482 C 1038.88 6.24684 0.389965 0
M  V30 11483 H 1039.12 2.91394 -0.589638 0
M  V30 11484 H 1036.65 1.48529 -0.421727 0
M  V30 11485 H 1038.61 3.69929 1.77941 0
M  V30 11486 H 1037.27 2.53367 1.85645 0
M  V30 11487 H 1036.46 4.85828 1.34115 0
M  V30 11488 H 1036.06 3.73996 0.0162506 0
M  V30 11489 H 1038.36 6.65645 1.26185 0
M  V30 11490 H 1039.3 7.07809 -0.202878 0
M  V30 11491 H 1039.71 5.59929 0.716922 0
M  V30 11492 N 1039.1 0.374177 1.53094 0
M  V30 11493 C 1040.01 -0.475935 2.29722 0
M  V30 11494 C 1041.03 -1.085 1.36029 0
M  V30 11495 O 1042.21 -1.09408 1.69091 0
M  V30 11496 C 1039.27 -1.59572 3.07795 0
M  V30 11497 C 1038.33 -1.01332 4.17169 0
M  V30 11498 C 1037.57 -2.07975 4.9151 0
M  V30 11499 O 1037.79 -3.29232 4.65793 0
M  V30 11500 O 1036.72 -1.7055 5.77232 0
M  V30 11501 H 1040.55 0.147877 3.0334 0
M  V30 11502 H 1038.13 0.138312 1.48758 0
M  V30 11503 H 1040.02 -2.24658 3.5652 0
M  V30 11504 H 1038.69 -2.20478 2.37005 0
M  V30 11505 H 1037.6 -0.326133 3.72676 0
M  V30 11506 H 1038.93 -0.4487 4.90151 0
M  V30 11507 N 1040.58 -1.57259 0.103575 0
M  V30 11508 C 1041.51 -2.17509 -0.84923 0
M  V30 11509 C 1042.49 -1.11079 -1.28824 0
M  V30 11510 O 1043.68 -1.39252 -1.35361 0
M  V30 11511 C 1040.81 -2.76221 -2.10522 0
M  V30 11512 C 1039.76 -3.88098 -1.80454 0
M  V30 11513 C 1039.09 -4.33549 -3.12952 0
M  V30 11514 C 1040.39 -5.10909 -1.08486 0
M  V30 11515 H 1042.08 -2.9738 -0.347217 0
M  V30 11516 H 1039.63 -1.43045 -0.165568 0
M  V30 11517 H 1041.58 -3.17024 -2.77621 0
M  V30 11518 H 1040.31 -1.93617 -2.63021 0
M  V30 11519 H 1038.96 -3.47847 -1.15749 0
M  V30 11520 H 1038.61 -3.47825 -3.63355 0
M  V30 11521 H 1038.31 -5.08984 -2.93614 0
M  V30 11522 H 1039.84 -4.76992 -3.81196 0
M  V30 11523 H 1041.25 -5.48828 -1.65711 0
M  V30 11524 H 1039.65 -5.91828 -0.992973 0
M  V30 11525 H 1040.72 -4.84851 -0.0690108 0
M  V30 11526 N 1042.06 0.170153 -1.56679 0
M  V30 11527 C 1043.48 0.521966 -1.50823 0
M  V30 11528 C 1043.68 1.84589 -0.808037 0
M  V30 11529 O 1042.73 2.49791 -0.368891 0
M  V30 11530 C 1044.05 0.553648 -2.95559 0
M  V30 11531 C 1045.59 0.640769 -3.06371 0
M  V30 11532 C 1046.07 0.703332 -4.52567 0
M  V30 11533 N 1047.56 0.76619 -4.56819 0
M  V30 11534 C 1048.29 0.835192 -5.67285 0
M  V30 11535 N 1047.79 0.864957 -6.87379 0
M  V30 11536 N 1049.58 0.874302 -5.55259 0
M  V30 11537 H 1041.73 -0.697952 -2.00605 0
M  V30 11538 H 1044 -0.251787 -0.913952 0
M  V30 11539 H 1043.7 -0.350498 -3.49949 0
M  V30 11540 H 1043.58 1.39973 -3.50268 0
M  V30 11541 H 1045.96 1.53534 -2.52015 0
M  V30 11542 H 1046.05 -0.232008 -2.54746 0
M  V30 11543 H 1045.69 -0.186986 -5.07556 0
M  V30 11544 H 1045.62 1.59227 -5.0195 0
M  V30 11545 H 1048.11 0.751424 -3.70354 0
M  V30 11546 H 1048.42 0.918814 -7.67318 0
M  V30 11547 H 1046.77 0.833215 -6.89987 0
M  V30 11548 H 1049.96 0.848057 -4.60354 0
M  V30 11549 H 1050.13 0.924615 -6.4137 0
M  V30 11550 N 1043.54 1.5137 0.438746 0
M  V30 11551 C 1044.47 1.68774 1.55074 0
M  V30 11552 C 1045.48 0.568436 1.52554 0
M  V30 11553 O 1046.67 0.842707 1.57355 0
M  V30 11554 C 1043.77 1.68592 2.9399 0
M  V30 11555 C 1042.95 2.97084 3.2103 0
M  V30 11556 C 1042 2.89108 4.39663 0
M  V30 11557 O 1041.03 3.63052 4.38385 0
M  V30 11558 N 1042.23 2.04863 5.4315 0
M  V30 11559 H 1045 2.647 1.40549 0
M  V30 11560 H 1042.56 1.49238 0.627663 0
M  V30 11561 H 1044.55 1.60826 3.71372 0
M  V30 11562 H 1043.12 0.802657 3.02119 0
M  V30 11563 H 1042.34 3.18729 2.3196 0
M  V30 11564 H 1043.63 3.82143 3.35923 0
M  V30 11565 H 1043.03 1.4416 5.47023 0
M  V30 11566 H 1041.58 2.02977 6.1939 0
M  V30 11567 N 1045.02 -0.694098 1.41492 0
M  V30 11568 C 1045.95 -1.81943 1.39389 0
M  V30 11569 C 1046.96 -1.6009 0.295836 0
M  V30 11570 O 1048.15 -1.69565 0.557658 0
M  V30 11571 C 1045.25 -3.18731 1.15167 0
M  V30 11572 C 1044.42 -3.67601 2.37041 0
M  V30 11573 C 1043.48 -4.83063 2.08654 0
M  V30 11574 O 1042.51 -4.94603 2.81704 0
M  V30 11575 N 1043.71 -5.70409 1.0777 0
M  V30 11576 H 1046.48 -1.84239 2.36381 0
M  V30 11577 H 1044.04 -0.876475 1.36123 0
M  V30 11578 H 1046.03 -3.93602 0.941264 0
M  V30 11579 H 1044.6 -3.11452 0.267673 0
M  V30 11580 H 1043.82 -2.83622 2.73774 0
M  V30 11581 H 1045.11 -3.96991 3.18239 0
M  V30 11582 H 1044.5 -5.63718 0.473123 0
M  V30 11583 H 1043.06 -6.45172 0.927177 0
M  V30 11584 N 1046.49 -1.27344 -0.928501 0
M  V30 11585 C 1047.91 -1.12361 -1.49103 0
M  V30 11586 C 1048.26 0.291667 -1.9402 0
M  V30 11587 O 1047.38 1.18449 -1.81104 0
M  V30 11588 C 1047.98 -2.03358 -2.70981 0
M  V30 11589 C 1046.54 -1.92483 -3.23461 0
M  V30 11590 C 1045.68 -1.95961 -1.962 0
M  V30 11591 H 1048.63 -1.40249 -0.742689 0
M  V30 11592 H 1048.65 -1.58892 -3.45736 0
M  V30 11593 H 1048.17 -3.06356 -2.38259 0
M  V30 11594 H 1046.27 -0.924676 -3.60944 0
M  V30 11595 H 1046.38 -2.78682 -3.89709 0
M  V30 11596 H 1044.74 -1.40175 -2.12657 0
M  V30 11597 H 1045.53 -3.00612 -1.65793 0
M  V30 11598 N 1047.97 1.13488 -1.09353 0
M  V30 11599 C 1048.92 2.18876 -0.732251 0
M  V30 11600 C 1049.89 1.63616 0.286175 0
M  V30 11601 O 1051.07 1.90059 0.167981 0
M  V30 11602 C 1048.21 3.44737 -0.158157 0
M  V30 11603 C 1047.33 4.14104 -1.23053 0
M  V30 11604 C 1046.46 5.27578 -0.619272 0
M  V30 11605 C 1045.5 5.88793 -1.67301 0
M  V30 11606 N 1044.64 6.937 -1.08283 0
M  V30 11607 H 1049.48 2.49128 -1.63522 0
M  V30 11608 H 1047.02 1.22326 -0.816995 0
M  V30 11609 H 1048.97 4.16756 0.192488 0
M  V30 11610 H 1047.6 3.14938 0.708082 0
M  V30 11611 H 1046.66 3.40376 -1.69847 0
M  V30 11612 H 1047.97 4.55683 -2.02865 0
M  V30 11613 H 1047.12 6.0631 -0.217428 0
M  V30 11614 H 1045.86 4.87246 0.210399 0
M  V30 11615 H 1044.87 5.08756 -2.0844 0
M  V30 11616 H 1046.09 6.31197 -2.50533 0
M  V30 11617 H 1044.04 6.55426 -0.274426 0
M  V30 11618 H 1043.95 7.33817 -1.81792 0
M  V30 11619 H 1045.22 7.76286 -0.707167 0
M  V30 11620 N 1049.45 0.880621 1.30701 0
M  V30 11621 C 1050.4 0.333562 2.30196 0
M  V30 11622 C 1051.39 -0.557092 1.59978 0
M  V30 11623 O 1052.6 -0.442009 1.74489 0
M  V30 11624 H 1048.97 0.0892036 0.746691 0
M  V30 11625 H 1050.95 1.18644 2.73799 0
M  V30 11626 C 1049.69 -0.440731 3.44895 0
M  V30 11627 H 1049.02 0.235353 3.99107 0
M  V30 11628 H 1050.46 -0.788676 4.166 0
M  V30 11629 C 1048.92 -1.63613 2.94504 0
M  V30 11630 O 1049.45 -2.73549 2.94166 0
M  V30 11631 N 1047.65 -1.47183 2.5057 0
M  V30 11632 H 1047.2 -0.577479 2.51044 0
M  V30 11633 H 1047.16 -2.27303 2.17211 0
M  V30 11634 N 1050.93 -1.4397 0.641131 0
M  V30 11635 C 1051.86 -2.33458 -0.04446 0
M  V30 11636 C 1052.84 -1.48781 -0.824507 0
M  V30 11637 O 1054.03 -1.77477 -0.788397 0
M  V30 11638 C 1051.16 -3.31989 -1.01984 0
M  V30 11639 C 1050.11 -4.2656 -0.350745 0
M  V30 11640 C 1049.44 -5.15036 -1.43673 0
M  V30 11641 C 1050.74 -5.16897 0.749299 0
M  V30 11642 H 1052.43 -2.91034 0.702832 0
M  V30 11643 H 1049.98 -1.39942 0.339435 0
M  V30 11644 H 1051.93 -3.93483 -1.50828 0
M  V30 11645 H 1050.65 -2.72643 -1.79815 0
M  V30 11646 H 1049.31 -3.66413 0.117139 0
M  V30 11647 H 1048.96 -4.52037 -2.20617 0
M  V30 11648 H 1048.66 -5.79125 -0.994358 0
M  V30 11649 H 1050.18 -5.79403 -1.92678 0
M  V30 11650 H 1051.6 -5.7227 0.343534 0
M  V30 11651 H 1049.99 -5.89643 1.11541 0
M  V30 11652 H 1051.06 -4.5731 1.61232 0
M  V30 11653 N 1052.41 -0.382291 -1.52893 0
M  V30 11654 C 1053.35 0.456234 -2.26246 0
M  V30 11655 C 1054.32 1.06366 -1.27575 0
M  V30 11656 O 1055.51 1.09301 -1.5639 0
M  V30 11657 C 1052.65 1.5813 -3.06739 0
M  V30 11658 C 1051.76 0.997416 -4.20328 0
M  V30 11659 C 1050.9 2.09296 -4.8823 0
M  V30 11660 C 1049.94 1.4846 -5.93823 0
M  V30 11661 N 1049.07 2.51916 -6.55349 0
M  V30 11662 H 1053.91 -0.175761 -2.97481 0
M  V30 11663 H 1051.45 -0.0985046 -1.4677 0
M  V30 11664 H 1053.41 2.24426 -3.51694 0
M  V30 11665 H 1052.04 2.18371 -2.37727 0
M  V30 11666 H 1051.09 0.224251 -3.79738 0
M  V30 11667 H 1052.4 0.512784 -4.96157 0
M  V30 11668 H 1051.56 2.83377 -5.36453 0
M  V30 11669 H 1050.3 2.61116 -4.1191 0
M  V30 11670 H 1049.3 0.729001 -5.44946 0
M  V30 11671 H 1050.53 0.97443 -6.72073 0
M  V30 11672 H 1048.47 3.02919 -5.81873 0
M  V30 11673 H 1048.39 2.08188 -7.26769 0
M  V30 11674 H 1049.66 3.25649 -7.08218 0
M  V30 11675 N 1053.89 1.57202 -0.111913 0
M  V30 11676 C 1054.85 2.13778 0.826534 0
M  V30 11677 C 1055.85 1.07097 1.19945 0
M  V30 11678 O 1057.04 1.32906 1.12613 0
M  V30 11679 C 1054.17 2.6722 2.11675 0
M  V30 11680 H 1055.36 2.98023 0.334975 0
M  V30 11681 H 1052.92 1.55696 0.137256 0
M  V30 11682 H 1053.65 1.86542 2.65278 0
M  V30 11683 H 1053.44 3.45235 1.8589 0
M  V30 11684 H 1054.93 3.10926 2.78774 0
M  V30 11685 N 1055.36 -0.161842 1.56767 0
M  V30 11686 C 1056.3 -1.22927 1.9226 0
M  V30 11687 C 1057.27 -1.42309 0.786562 0
M  V30 11688 O 1058.46 -1.57163 1.04078 0
M  V30 11689 C 1055.59 -2.59069 2.18177 0
M  V30 11690 C 1054.63 -2.56368 3.40849 0
M  V30 11691 S 1055.46 -2.04518 4.94907 0
M  V30 11692 C 1056.62 -3.42418 5.23928 0
M  V30 11693 H 1056.85 -0.926377 2.82499 0
M  V30 11694 H 1054.39 -0.366822 1.49979 0
M  V30 11695 H 1056.34 -3.37421 2.33789 0
M  V30 11696 H 1055.01 -2.86554 1.28629 0
M  V30 11697 H 1054.2 -3.56551 3.56213 0
M  V30 11698 H 1053.8 -1.86116 3.24402 0
M  V30 11699 H 1056.09 -4.38461 5.16486 0
M  V30 11700 H 1057.04 -3.3192 6.25487 0
M  V30 11701 H 1057.44 -3.38868 4.51474 0
M  V30 11702 N 1056.84 -1.516 -0.430713 0
M  V30 11703 C 1057.75 -1.76247 -1.54836 0
M  V30 11704 C 1058.77 -0.646985 -1.61524 0
M  V30 11705 O 1059.94 -0.929987 -1.78643 0
M  V30 11706 C 1057.01 -1.88833 -2.90763 0
M  V30 11707 C 1056.07 -3.12701 -2.94137 0
M  V30 11708 C 1055.3 -3.24676 -4.23581 0
M  V30 11709 O 1055.53 -2.42429 -5.16318 0
M  V30 11710 O 1054.46 -4.17697 -4.33374 0
M  V30 11711 H 1058.29 -2.71069 -1.3695 0
M  V30 11712 H 1055.87 -1.36182 -0.614396 0
M  V30 11713 H 1057.75 -1.99057 -3.71422 0
M  V30 11714 H 1056.43 -0.971987 -3.08762 0
M  V30 11715 H 1055.33 -3.0795 -2.1241 0
M  V30 11716 H 1056.67 -4.04045 -2.81084 0
M  V30 11717 N 1058.32 0.686584 -1.41858 0
M  V30 11718 C 1059.25 1.81107 -1.38836 0
M  V30 11719 C 1060.23 1.60599 -0.254293 0
M  V30 11720 O 1061.41 1.83229 -0.442641 0
M  V30 11721 C 1058.54 3.17928 -1.16787 0
M  V30 11722 C 1057.59 3.5721 -2.33031 0
M  V30 11723 S 1058.42 3.60986 -3.95536 0
M  V30 11724 C 1059.58 5.00519 -3.75808 0
M  V30 11725 H 1059.81 1.83396 -2.33994 0
M  V30 11726 H 1057.34 0.856146 -1.28489 0
M  V30 11727 H 1059.3 3.9691 -1.04752 0
M  V30 11728 H 1057.96 3.1324 -0.232335 0
M  V30 11729 H 1057.15 4.56629 -2.13321 0
M  V30 11730 H 1056.76 2.8556 -2.41519 0
M  V30 11731 H 1059.05 5.88272 -3.36069 0
M  V30 11732 H 1059.99 5.25273 -4.74862 0
M  V30 11733 H 1060.4 4.72481 -3.08904 0
M  V30 11734 N 1059.8 1.27835 0.921735 0
M  V30 11735 C 1060.73 1.06874 2.02758 0
M  V30 11736 C 1061.74 0.0229418 1.62784 0
M  V30 11737 O 1062.93 0.265145 1.7652 0
M  V30 11738 C 1060.03 0.60037 3.3354 0
M  V30 11739 C 1059.2 1.71979 4.02172 0
M  V30 11740 C 1058.26 1.24615 5.11231 0
M  V30 11741 O 1057.29 1.94692 5.34868 0
M  V30 11742 N 1058.49 0.105021 5.80405 0
M  V30 11743 H 1061.26 2.02105 2.213 0
M  V30 11744 H 1058.82 1.19481 1.09251 0
M  V30 11745 H 1060.81 0.267281 4.03816 0
M  V30 11746 H 1059.38 -0.258872 3.11526 0
M  V30 11747 H 1058.6 2.22287 3.25549 0
M  V30 11748 H 1059.89 2.47092 4.44773 0
M  V30 11749 H 1059.29 -0.479745 5.63662 0
M  V30 11750 H 1057.84 -0.168846 6.51581 0
M  V30 11751 N 1061.28 -1.12907 1.09954 0
M  V30 11752 C 1062.52 -1.83661 0.833761 0
M  V30 11753 C 1062.84 -1.84736 -0.642798 0
M  V30 11754 O 1064.04 -2.51437 -1.0243 0
M  V30 11755 C 1062.5 -3.29763 1.44168 0
M  V30 11756 C 1062.11 -3.3706 2.95118 0
M  V30 11757 C 1063.85 -4.05522 1.25509 0
M  V30 11758 C 1061.76 -4.77467 3.48969 0
M  V30 11759 H 1060.69 -0.688115 0.308242 0
M  V30 11760 H 1063.34 -1.27166 1.32291 0
M  V30 11761 H 1061.72 -3.86094 0.880215 0
M  V30 11762 H 1062.9 -2.90695 3.57537 0
M  V30 11763 H 1061.21 -2.7477 3.12874 0
M  V30 11764 H 1063.81 -5.09188 1.63191 0
M  V30 11765 H 1064.15 -4.15837 0.196208 0
M  V30 11766 H 1064.68 -3.55536 1.78435 0
M  V30 11767 H 1061.42 -4.72344 4.54501 0
M  V30 11768 H 1060.94 -5.24305 2.91315 0
M  V30 11769 H 1062.62 -5.46397 3.46495 0
M  V30 11770 N 1062.75 -0.88754 -1.30232 0
M  V30 11771 C 1063.7 -0.354497 -2.28061 0
M  V30 11772 C 1064.67 0.556732 -1.56492 0
M  V30 11773 O 1065.86 0.484597 -1.84543 0
M  V30 11774 C 1063 0.422701 -3.42501 0
M  V30 11775 C 1062.11 -0.518036 -4.28883 0
M  V30 11776 C 1061.24 0.275011 -5.30488 0
M  V30 11777 C 1060.28 -0.661032 -6.0852 0
M  V30 11778 N 1059.42 0.0968509 -7.02033 0
M  V30 11779 H 1064.26 -1.19388 -2.73039 0
M  V30 11780 H 1061.8 -0.600091 -1.34303 0
M  V30 11781 H 1063.75 0.889249 -4.07613 0
M  V30 11782 H 1062.38 1.22664 -2.98586 0
M  V30 11783 H 1061.44 -1.10308 -3.64055 0
M  V30 11784 H 1062.75 -1.23504 -4.83268 0
M  V30 11785 H 1061.9 0.803301 -6.01358 0
M  V30 11786 H 1060.64 1.02522 -4.76802 0
M  V30 11787 H 1059.65 -1.20093 -5.36524 0
M  V30 11788 H 1060.87 -1.41037 -6.64293 0
M  V30 11789 H 1058.82 0.829548 -6.50734 0
M  V30 11790 H 1058.73 -0.560476 -7.5392 0
M  V30 11791 H 1060 0.6058 -7.77142 0
M  V30 11792 N 1064.23 1.43628 -0.648757 0
M  V30 11793 C 1065.18 2.30755 0.0455536 0
M  V30 11794 C 1066.15 1.44495 0.819168 0
M  V30 11795 O 1067.33 1.73372 0.79667 0
M  V30 11796 C 1064.47 3.30017 1.00908 0
M  V30 11797 C 1063.59 4.31376 0.232039 0
M  V30 11798 C 1062.72 5.17723 1.18897 0
M  V30 11799 C 1061.76 6.10778 0.402096 0
M  V30 11800 N 1060.9 6.89763 1.31038 0
M  V30 11801 H 1065.74 2.89581 -0.70332 0
M  V30 11802 H 1063.28 1.42662 -0.3586 0
M  V30 11803 H 1065.23 3.86072 1.58128 0
M  V30 11804 H 1063.86 2.72851 1.72488 0
M  V30 11805 H 1062.92 3.77652 -0.456373 0
M  V30 11806 H 1064.23 4.9735 -0.380023 0
M  V30 11807 H 1063.38 5.78381 1.83194 0
M  V30 11808 H 1062.12 4.51864 1.83494 0
M  V30 11809 H 1061.13 5.49212 -0.254255 0
M  V30 11810 H 1062.35 6.78678 -0.239411 0
M  V30 11811 H 1060.3 6.26557 1.94324 0
M  V30 11812 H 1060.21 7.52243 0.752774 0
M  V30 11813 H 1061.48 7.54931 1.94164 0
M  V30 11814 N 1065.71 0.390394 1.52688 0
M  V30 11815 C 1066.64 -0.479319 2.24132 0
M  V30 11816 C 1067.66 -1.0258 1.26416 0
M  V30 11817 O 1068.84 -0.927943 1.52484 0
M  V30 11818 C 1065.94 -1.67711 2.94493 0
M  V30 11819 C 1065.12 -1.2578 4.18925 0
M  V30 11820 C 1064.18 -2.3204 4.72275 0
M  V30 11821 O 1063.2 -1.93402 5.35336 0
M  V30 11822 N 1064.4 -3.63967 4.52226 0
M  V30 11823 H 1067.17 0.132777 2.99406 0
M  V30 11824 H 1064.73 0.216807 1.60442 0
M  V30 11825 H 1066.72 -2.38323 3.27084 0
M  V30 11826 H 1065.29 -2.19552 2.22521 0
M  V30 11827 H 1064.51 -0.380528 3.92359 0
M  V30 11828 H 1065.8 -0.954329 4.9977 0
M  V30 11829 H 1065.2 -3.98119 4.01892 0
M  V30 11830 H 1063.76 -4.30611 4.89303 0
M  V30 11831 N 1067.19 -1.57141 0.120249 0
M  V30 11832 C 1068.44 -1.95238 -0.537449 0
M  V30 11833 C 1068.76 -1.00361 -1.66607 0
M  V30 11834 O 1068.02 -0.0277306 -1.9568 0
M  V30 11835 C 1068.32 -3.39745 -1.10941 0
M  V30 11836 C 1067.98 -4.50785 -0.102012 0
M  V30 11837 C 1066.65 -4.80882 0.174994 0
M  V30 11838 C 1069 -5.17913 0.584462 0
M  V30 11839 C 1066.33 -5.75424 1.14474 0
M  V30 11840 C 1068.68 -6.13497 1.54284 0
M  V30 11841 C 1067.34 -6.41987 1.82782 0
M  V30 11842 H 1066.61 -0.714425 -0.196666 0
M  V30 11843 H 1069.26 -1.90438 0.201418 0
M  V30 11844 H 1067.56 -3.41246 -1.92506 0
M  V30 11845 H 1069.26 -3.66536 -1.62642 0
M  V30 11846 H 1065.85 -4.27342 -0.328097 0
M  V30 11847 H 1070.03 -4.94815 0.383625 0
M  V30 11848 H 1065.29 -5.95801 1.37226 0
M  V30 11849 H 1069.46 -6.64598 2.08044 0
M  V30 11850 H 1067.09 -7.15052 2.5808 0
M  V30 11851 N 1068.67 0.153526 -1.5685 0
M  V30 11852 C 1069.6 1.2147 -1.94365 0
M  V30 11853 C 1070.61 1.39532 -0.838726 0
M  V30 11854 O 1071.8 1.39219 -1.11715 0
M  V30 11855 C 1068.9 2.5806 -2.19677 0
M  V30 11856 C 1068.07 2.61062 -3.50949 0
M  V30 11857 C 1067.13 3.79144 -3.64878 0
M  V30 11858 O 1066.16 3.64319 -4.37333 0
M  V30 11859 N 1067.36 4.96333 -3.01054 0
M  V30 11860 H 1070.13 0.895889 -2.85996 0
M  V30 11861 H 1067.69 0.343147 -1.58222 0
M  V30 11862 H 1069.68 3.35553 -2.26243 0
M  V30 11863 H 1068.25 2.8226 -1.34343 0
M  V30 11864 H 1067.47 1.69533 -3.55882 0
M  V30 11865 H 1068.76 2.60094 -4.37297 0
M  V30 11866 H 1068.15 5.1128 -2.42093 0
M  V30 11867 H 1066.71 5.71625 -3.13191 0
M  V30 11868 N 1070.14 1.51827 0.422667 0
M  V30 11869 C 1071.42 1.55772 1.18299 0
M  V30 11870 C 1071.8 0.330657 2.08494 0
M  V30 11871 O 1071.15 -0.683373 2.18042 0
M  V30 11872 C 1071.36 2.87941 1.97208 0
M  V30 11873 C 1072.71 3.4044 2.53744 0
M  V30 11874 O 1073.73 2.8959 2.07403 0
M  V30 11875 O 1072.59 4.29201 3.38303 0
M  V30 11876 H 1069.68 0.626889 0.539388 0
M  V30 11877 H 1072.23 1.64147 0.430545 0
M  V30 11878 H 1071 3.68702 1.31052 0
M  V30 11879 H 1070.63 2.82795 2.79486 0
M  V30 11880 N 1071.62 -0.679052 1.4222 0
M  V30 11881 C 1072.85 -1.46747 1.45852 0
M  V30 11882 C 1073.27 -1.88675 0.0685937 0
M  V30 11883 O 1072.62 -1.57861 -0.915757 0
M  V30 11884 C 1072.67 -2.71935 2.38188 0
M  V30 11885 O 1072.39 -2.31768 3.71773 0
M  V30 11886 C 1073.9 -3.65536 2.50796 0
M  V30 11887 H 1071.12 -0.451682 0.49621 0
M  V30 11888 H 1073.66 -0.834723 1.86689 0
M  V30 11889 H 1071.81 -3.31409 2.00616 0
M  V30 11890 H 1072.23 -3.12579 4.21182 0
M  V30 11891 H 1073.7 -4.50113 3.19535 0
M  V30 11892 H 1074.18 -4.11148 1.54447 0
M  V30 11893 H 1074.79 -3.11957 2.89072 0
M  V30 11894 N 1073.1 -1.28322 -0.914942 0
M  V30 11895 C 1074.34 -1.16657 -1.6784 0
M  V30 11896 C 1074.7 0.280473 -1.8994 0
M  V30 11897 O 1075.91 0.519801 -2.63726 0
M  V30 11898 C 1074.18 -1.94185 -3.00045 0
M  V30 11899 S 1075.74 -1.98881 -3.91141 0
M  V30 11900 H 1072.55 -0.416232 -0.57643 0
M  V30 11901 H 1075.16 -1.62405 -1.08834 0
M  V30 11902 H 1073.86 -2.98488 -2.81661 0
M  V30 11903 H 1073.39 -1.48982 -3.64099 0
M  V30 11904 H 1075.41 -1.09445 -4.8398 0
M  V30 11905 N 1074.58 1.12322 -1.10551 0
M  V30 11906 C 1075.53 2.18087 -0.755424 0
M  V30 11907 C 1076.5 1.6391 0.268805 0
M  V30 11908 O 1077.68 1.90227 0.147813 0
M  V30 11909 C 1074.82 3.4455 -0.194713 0
M  V30 11910 C 1073.93 4.12775 -1.27439 0
M  V30 11911 C 1073.07 5.26891 -0.675194 0
M  V30 11912 C 1072.11 5.86985 -1.73536 0
M  V30 11913 N 1071.24 6.92512 -1.15635 0
M  V30 11914 H 1076.08 2.47379 -1.66155 0
M  V30 11915 H 1073.62 1.21452 -0.829924 0
M  V30 11916 H 1075.58 4.16936 0.148275 0
M  V30 11917 H 1074.21 3.15671 0.674638 0
M  V30 11918 H 1073.26 3.38556 -1.73448 0
M  V30 11919 H 1074.57 4.53506 -2.07687 0
M  V30 11920 H 1073.73 6.06046 -0.281723 0
M  V30 11921 H 1072.47 4.87442 0.158708 0
M  V30 11922 H 1071.47 5.06517 -2.13825 0
M  V30 11923 H 1072.7 6.28505 -2.57213 0
M  V30 11924 H 1070.64 6.55098 -0.343928 0
M  V30 11925 H 1070.56 7.31848 -1.89565 0
M  V30 11926 H 1071.83 7.75492 -0.789463 0
M  V30 11927 N 1076.06 0.894434 1.2976 0
M  V30 11928 C 1077.3 0.518435 1.96061 0
M  V30 11929 C 1077.64 -0.931882 1.70381 0
M  V30 11930 O 1076.91 -1.65988 1.01381 0
M  V30 11931 C 1077.19 0.80519 3.50982 0
M  V30 11932 C 1077.05 2.30683 3.86142 0
M  V30 11933 C 1078.37 0.288096 4.39156 0
M  V30 11934 H 1075.48 0.18983 0.712133 0
M  V30 11935 H 1078.13 1.12016 1.53468 0
M  V30 11936 H 1076.28 0.293071 3.87393 0
M  V30 11937 H 1077.95 2.88808 3.59705 0
M  V30 11938 H 1076.19 2.76968 3.33873 0
M  V30 11939 H 1076.86 2.45805 4.94251 0
M  V30 11940 H 1079.34 0.726547 4.09708 0
M  V30 11941 H 1078.21 0.517985 5.4645 0
M  V30 11942 H 1078.48 -0.811018 4.34597 0
M  V30 11943 N 1077.53 -1.43282 0.656365 0
M  V30 11944 C 1078.47 -2.29087 -0.0720378 0
M  V30 11945 C 1079.48 -1.4268 -0.783982 0
M  V30 11946 O 1080.67 -1.66585 -0.641213 0
M  V30 11947 C 1077.77 -3.19676 -1.12519 0
M  V30 11948 C 1076.94 -4.34638 -0.490756 0
M  V30 11949 C 1076 -5.06079 -1.44121 0
M  V30 11950 O 1075.03 -5.6124 -0.948595 0
M  V30 11951 N 1076.23 -5.09872 -2.77509 0
M  V30 11952 H 1078.99 -2.92241 0.664456 0
M  V30 11953 H 1076.55 -1.54006 0.499383 0
M  V30 11954 H 1078.55 -3.64334 -1.76189 0
M  V30 11955 H 1077.12 -2.581 -1.76362 0
M  V30 11956 H 1076.34 -3.92857 0.3251 0
M  V30 11957 H 1077.62 -5.08777 -0.0480061 0
M  V30 11958 H 1077.02 -4.66433 -3.20088 0
M  V30 11959 H 1075.58 -5.58237 -3.36474 0
M  V30 11960 N 1079.01 -0.398486 -1.52479 0
M  V30 11961 C 1080.24 0.180557 -2.06111 0
M  V30 11962 C 1080.66 1.39751 -1.26945 0
M  V30 11963 O 1080.01 1.79699 -0.318497 0
M  V30 11964 C 1080.06 0.541573 -3.5742 0
M  V30 11965 O 1079.79 -0.627043 -4.33589 0
M  V30 11966 C 1081.29 1.17549 -4.27431 0
M  V30 11967 H 1078.51 0.0250754 -0.670531 0
M  V30 11968 H 1081.05 -0.566368 -1.96501 0
M  V30 11969 H 1079.21 1.23839 -3.67073 0
M  V30 11970 H 1079.62 -0.328233 -5.23472 0
M  V30 11971 H 1081.09 1.37839 -5.34513 0
M  V30 11972 H 1081.57 2.14553 -3.83228 0
M  V30 11973 H 1082.18 0.51918 -4.22119 0
M  V30 11974 N 1080.49 1.57075 -0.12858 0
M  V30 11975 C 1081.44 2.15816 0.818064 0
M  V30 11976 C 1082.41 1.08581 1.25696 0
M  V30 11977 O 1083.59 1.36535 1.33277 0
M  V30 11978 C 1080.73 2.76943 2.05905 0
M  V30 11979 C 1079.85 3.98514 1.66764 0
M  V30 11980 C 1078.98 4.47698 2.85902 0
M  V30 11981 C 1078.02 5.61778 2.43047 0
M  V30 11982 N 1077.16 6.05662 3.5513 0
M  V30 11983 H 1082 2.9638 0.310318 0
M  V30 11984 H 1079.53 1.46418 0.141472 0
M  V30 11985 H 1081.49 3.10519 2.78629 0
M  V30 11986 H 1080.12 1.99053 2.54122 0
M  V30 11987 H 1079.17 3.71038 0.838766 0
M  V30 11988 H 1080.49 4.81215 1.31277 0
M  V30 11989 H 1079.64 4.83233 3.66839 0
M  V30 11990 H 1078.38 3.63967 3.24622 0
M  V30 11991 H 1077.38 5.25838 1.60544 0
M  V30 11992 H 1078.61 6.47282 2.05433 0
M  V30 11993 H 1076.56 5.2487 3.93506 0
M  V30 11994 H 1076.47 6.83242 3.23598 0
M  V30 11995 H 1077.74 6.45838 4.36479 0
M  V30 11996 N 1081.97 -0.145205 1.5693 0
M  V30 11997 C 1082.9 -1.20438 1.95006 0
M  V30 11998 C 1083.91 -1.39085 0.846114 0
M  V30 11999 O 1085.1 -1.38625 1.12452 0
M  V30 12000 C 1082.2 -2.56892 2.21043 0
M  V30 12001 C 1081.38 -2.59197 3.52329 0
M  V30 12002 C 1080.44 -3.77204 3.66884 0
M  V30 12003 O 1079.46 -3.61995 4.39259 0
M  V30 12004 N 1080.66 -4.9473 3.03682 0
M  V30 12005 H 1083.43 -0.880709 2.86467 0
M  V30 12006 H 1080.99 -0.334751 1.58401 0
M  V30 12007 H 1082.98 -3.34349 2.2802 0
M  V30 12008 H 1081.55 -2.81544 1.35838 0
M  V30 12009 H 1080.77 -1.67644 3.56776 0
M  V30 12010 H 1082.06 -2.57771 4.3867 0
M  V30 12011 H 1081.46 -5.09989 2.44801 0
M  V30 12012 H 1080.01 -5.69956 3.16218 0
M  V30 12013 N 1083.45 -1.52049 -0.414609 0
M  V30 12014 C 1084.68 -1.69433 -1.18221 0
M  V30 12015 C 1085.09 -0.40104 -1.84901 0
M  V30 12016 O 1084.43 0.632342 -1.72474 0
M  V30 12017 C 1084.49 -2.76986 -2.2917 0
M  V30 12018 C 1084.15 -4.18903 -1.82671 0
M  V30 12019 C 1085.15 -5.02929 -1.31751 0
M  V30 12020 C 1082.84 -4.65113 -1.89672 0
M  V30 12021 C 1084.83 -6.31234 -0.884461 0
M  V30 12022 C 1082.52 -5.93408 -1.45978 0
M  V30 12023 C 1083.52 -6.76297 -0.9545 0
M  V30 12024 O 1083.2 -8.02191 -0.523852 0
M  V30 12025 H 1082.94 -0.571228 -0.36149 0
M  V30 12026 H 1085.49 -1.99355 -0.494643 0
M  V30 12027 H 1083.72 -2.42428 -3.01273 0
M  V30 12028 H 1085.41 -2.83023 -2.90951 0
M  V30 12029 H 1086.17 -4.68422 -1.2572 0
M  V30 12030 H 1082.05 -4.00702 -2.27945 0
M  V30 12031 H 1085.6 -6.95881 -0.489383 0
M  V30 12032 H 1081.49 -6.27424 -1.51687 0
M  V30 12033 H 1082.26 -8.15934 -0.647656 0
M  V30 12034 N 1084.93 0.6715 -1.42579 0
M  V30 12035 C 1085.87 1.78496 -1.46314 0
M  V30 12036 C 1086.84 1.63091 -0.314743 0
M  V30 12037 O 1088.03 1.83597 -0.519292 0
M  V30 12038 C 1085.17 3.16548 -1.37447 0
M  V30 12039 C 1084.28 3.43216 -2.62348 0
M  V30 12040 C 1083.42 4.71014 -2.456 0
M  V30 12041 C 1082.45 4.90728 -3.65859 0
M  V30 12042 N 1081.59 6.09769 -3.48032 0
M  V30 12043 H 1086.43 1.74638 -2.41466 0
M  V30 12044 H 1083.97 0.852491 -1.19879 0
M  V30 12045 H 1085.93 3.96329 -1.30303 0
M  V30 12046 H 1084.56 3.19522 -0.458891 0
M  V30 12047 H 1083.61 2.57664 -2.79846 0
M  V30 12048 H 1084.92 3.53675 -3.51732 0
M  V30 12049 H 1084.07 5.58892 -2.3606 0
M  V30 12050 H 1082.81 4.62843 -1.53712 0
M  V30 12051 H 1081.82 4.01291 -3.75827 0
M  V30 12052 H 1083.04 5.00741 -4.58732 0
M  V30 12053 H 1080.99 6.02765 -2.58864 0
M  V30 12054 H 1080.91 6.21104 -4.31005 0
M  V30 12055 H 1082.17 7.00317 -3.42311 0
M  V30 12056 N 1086.4 1.28806 0.908124 0
M  V30 12057 C 1087.37 1.13228 1.99279 0
M  V30 12058 C 1088.37 0.0702456 1.60646 0
M  V30 12059 O 1089.56 0.316494 1.71301 0
M  V30 12060 C 1086.69 0.729629 3.33 0
M  V30 12061 H 1087.88 2.09566 2.14528 0
M  V30 12062 H 1085.43 1.11872 1.09153 0
M  V30 12063 H 1086.17 -0.234268 3.23453 0
M  V30 12064 H 1085.95 1.49688 3.62403 0
M  V30 12065 H 1087.44 0.643449 4.12613 0
M  V30 12066 N 1087.88 -1.11734 1.11145 0
M  V30 12067 C 1088.81 -2.1976 0.789152 0
M  V30 12068 C 1089.79 -1.68382 -0.241143 0
M  V30 12069 O 1090.98 -1.93914 -0.105292 0
M  V30 12070 C 1088.11 -3.46549 0.228204 0
M  V30 12071 C 1087.06 -4.11123 1.19002 0
M  V30 12072 C 1086.39 -5.32451 0.489928 0
M  V30 12073 C 1087.69 -4.56406 2.53951 0
M  V30 12074 H 1089.38 -2.46978 1.69241 0
M  V30 12075 H 1086.93 -1.18705 0.81517 0
M  V30 12076 H 1088.88 -4.21399 -0.00945908 0
M  V30 12077 H 1087.6 -3.18782 -0.71033 0
M  V30 12078 H 1086.26 -3.38264 1.41326 0
M  V30 12079 H 1085.91 -5.00953 -0.453315 0
M  V30 12080 H 1085.61 -5.76605 1.1314 0
M  V30 12081 H 1087.14 -6.10042 0.260984 0
M  V30 12082 H 1088.55 -5.22592 2.35733 0
M  V30 12083 H 1086.95 -5.11363 3.14051 0
M  V30 12084 H 1088.02 -3.7001 3.13402 0
M  V30 12085 N 1089.36 -0.901303 -1.29284 0
M  V30 12086 C 1090.31 -0.378666 -2.27672 0
M  V30 12087 C 1091.28 0.540102 -1.57074 0
M  V30 12088 O 1092.46 0.464997 -1.85047 0
M  V30 12089 C 1089.6 0.38635 -3.42931 0
M  V30 12090 C 1088.71 -0.563496 -4.28309 0
M  V30 12091 C 1087.85 0.218731 -5.30749 0
M  V30 12092 C 1086.89 -0.725536 -6.07785 0
M  V30 12093 N 1086.03 0.0223854 -7.02096 0
M  V30 12094 H 1090.87 -1.22277 -2.71758 0
M  V30 12095 H 1088.4 -0.614302 -1.33659 0
M  V30 12096 H 1090.36 0.845967 -4.08533 0
M  V30 12097 H 1088.99 1.1949 -2.9987 0
M  V30 12098 H 1088.04 -1.14163 -3.62865 0
M  V30 12099 H 1089.35 -1.28623 -4.81931 0
M  V30 12100 H 1088.51 0.739473 -6.02177 0
M  V30 12101 H 1087.25 0.97459 -4.77863 0
M  V30 12102 H 1086.25 -1.25776 -5.3522 0
M  V30 12103 H 1087.48 -1.48075 -6.6276 0
M  V30 12104 H 1085.42 0.760482 -6.51577 0
M  V30 12105 H 1085.34 -0.640408 -7.53283 0
M  V30 12106 H 1086.61 0.523339 -7.77741 0
M  V30 12107 N 1090.84 1.42931 -0.663954 0
M  V30 12108 C 1091.79 2.32577 0.03287 0
M  V30 12109 C 1092.78 1.49217 0.801918 0
M  V30 12110 O 1093.99 1.65358 0.711106 0
M  V30 12111 H 1090.36 0.751424 0.0294198 0
M  V30 12112 H 1092.33 2.89059 -0.740763 0
M  V30 12113 C 1091.08 3.33661 0.978025 0
M  V30 12114 H 1090.4 3.97837 0.395681 0
M  V30 12115 H 1091.84 3.98997 1.43448 0
M  V30 12116 C 1090.3 2.65085 2.07922 0
M  V30 12117 O 1090.83 2.4745 3.16435 0
M  V30 12118 N 1089.04 2.24285 1.84783 0
M  V30 12119 H 1088.59 2.38827 0.965368 0
M  V30 12120 H 1088.54 1.78732 2.58655 0
M  V30 12121 N 1092.32 0.406567 1.52266 0
M  V30 12122 C 1093.27 -0.437483 2.23763 0
M  V30 12123 C 1094.25 -1.01557 1.248 0
M  V30 12124 O 1095.44 -0.938813 1.50051 0
M  V30 12125 C 1092.57 -1.55499 3.06064 0
M  V30 12126 C 1091.66 -0.987799 4.12436 0
M  V30 12127 N 1092.05 -0.147044 5.05586 0
M  V30 12128 C 1090.35 -1.25857 4.27874 0
M  V30 12129 C 1091.05 0.168229 5.81457 0
M  V30 12130 N 1090.02 -0.440245 5.41814 0
M  V30 12131 H 1093.82 0.211203 2.9314 0
M  V30 12132 H 1091.34 0.216843 1.60946 0
M  V30 12133 H 1093.34 -2.17224 3.55836 0
M  V30 12134 H 1092 -2.20632 2.38226 0
M  V30 12135 H 1093.01 0.217062 5.17445 0
M  V30 12136 H 1089.68 -1.90967 3.71265 0
M  V30 12137 H 1091.07 0.850516 6.66495 0
M  V30 12138 N 1093.79 -1.57004 0.136909 0
M  V30 12139 C 1094.73 -2.13355 -0.837405 0
M  V30 12140 C 1095.74 -1.08053 -1.21772 0
M  V30 12141 O 1096.93 -1.35365 -1.16355 0
M  V30 12142 C 1094.03 -2.63302 -2.13366 0
M  V30 12143 C 1093.2 -3.92896 -1.92228 0
M  V30 12144 C 1092.26 -4.28257 -3.05749 0
M  V30 12145 O 1091.29 -4.96761 -2.7788 0
M  V30 12146 N 1092.49 -3.87021 -4.3266 0
M  V30 12147 H 1095.25 -2.9758 -0.35586 0
M  V30 12148 H 1092.81 -1.61832 -0.0469758 0
M  V30 12149 H 1094.81 -2.83977 -2.88339 0
M  V30 12150 H 1093.38 -1.83858 -2.52814 0
M  V30 12151 H 1092.6 -3.80949 -1.01349 0
M  V30 12152 H 1093.88 -4.776 -1.75431 0
M  V30 12153 H 1093.28 -3.31804 -4.58173 0
M  V30 12154 H 1091.84 -4.12768 -5.04446 0
M  V30 12155 N 1095.27 0.136881 -1.57004 0
M  V30 12156 C 1096.2 1.17026 -2.02057 0
M  V30 12157 C 1097.18 1.44223 -0.901866 0
M  V30 12158 O 1098.37 1.54971 -1.17037 0
M  V30 12159 C 1095.5 2.50095 -2.40977 0
M  V30 12160 C 1094.45 2.37398 -3.56127 0
M  V30 12161 C 1093.78 3.75268 -3.80891 0
M  V30 12162 C 1095.08 1.84952 -4.88457 0
M  V30 12163 H 1096.77 0.795601 -2.88636 0
M  V30 12164 H 1094.32 0.381266 -1.38861 0
M  V30 12165 H 1096.27 3.22621 -2.71097 0
M  V30 12166 H 1095 2.89416 -1.51348 0
M  V30 12167 H 1093.65 1.67322 -3.26188 0
M  V30 12168 H 1093.3 4.12043 -2.88496 0
M  V30 12169 H 1093 3.67631 -4.5839 0
M  V30 12170 H 1094.53 4.49327 -4.13446 0
M  V30 12171 H 1095.94 2.4728 -5.17229 0
M  V30 12172 H 1094.34 1.88181 -5.69832 0
M  V30 12173 H 1095.41 0.805848 -4.78157 0
M  V30 12174 N 1096.75 1.52266 0.40654 0
M  V30 12175 C 1097.66 1.78688 1.52012 0
M  V30 12176 C 1098.68 0.6726 1.60475 0
M  V30 12177 O 1099.85 0.95829 1.77141 0
M  V30 12178 C 1096.92 1.93434 2.87722 0
M  V30 12179 C 1095.98 3.17341 2.89125 0
M  V30 12180 C 1095.21 3.31374 4.18362 0
M  V30 12181 O 1095.43 2.50613 5.12396 0
M  V30 12182 O 1094.37 4.24539 4.26674 0
M  V30 12183 H 1098.19 2.73213 1.3262 0
M  V30 12184 H 1095.78 1.37142 0.592653 0
M  V30 12185 H 1097.66 2.04941 3.68208 0
M  V30 12186 H 1096.34 1.02099 3.07177 0
M  V30 12187 H 1095.24 3.1129 2.07483 0
M  V30 12188 H 1096.58 4.08466 2.7462 0
M  V30 12189 N 1098.23 -0.663929 1.42933 0
M  V30 12190 C 1099.47 -1.42603 1.44195 0
M  V30 12191 C 1099.81 -1.94101 0.0620284 0
M  V30 12192 O 1099.08 -1.71609 -0.91546 0
M  V30 12193 C 1099.37 -2.61522 2.47544 0
M  V30 12194 C 1099.22 -2.15587 3.94769 0
M  V30 12195 C 1100.54 -3.6374 2.47753 0
M  V30 12196 H 1097.66 -0.517189 0.525056 0
M  V30 12197 H 1100.3 -0.75361 1.74415 0
M  V30 12198 H 1098.45 -3.1889 2.21904 0
M  V30 12199 H 1100.12 -1.63303 4.31428 0
M  V30 12200 H 1098.36 -1.47057 4.08114 0
M  V30 12201 H 1099.03 -3.01053 4.62678 0
M  V30 12202 H 1101.51 -3.16111 2.70579 0
M  V30 12203 H 1100.39 -4.44512 3.22025 0
M  V30 12204 H 1100.65 -4.15607 1.50742 0
M  V30 12205 N 1099.71 -1.29285 -0.901281 0
M  V30 12206 C 1100.93 -1.20048 -1.68511 0
M  V30 12207 C 1101.35 0.239128 -1.8728 0
M  V30 12208 O 1100.71 1.16027 -1.40869 0
M  V30 12209 C 1100.76 -1.90798 -3.07048 0
M  V30 12210 O 1100.48 -3.29137 -2.89138 0
M  V30 12211 C 1101.98 -1.88017 -4.01453 0
M  V30 12212 H 1099.2 -0.416157 -0.52636 0
M  V30 12213 H 1101.74 -1.7063 -1.12719 0
M  V30 12214 H 1099.9 -1.44055 -3.5962 0
M  V30 12215 H 1100.31 -3.64747 -3.76908 0
M  V30 12216 H 1101.79 -2.42088 -4.96082 0
M  V30 12217 H 1102.26 -0.855341 -4.30791 0
M  V30 12218 H 1102.87 -2.34497 -3.54812 0
M  V30 12219 N 1101.18 1.11143 -1.11736 0
M  V30 12220 C 1102.6 1.64462 -0.883693 0
M  V30 12221 C 1102.95 1.87324 0.583448 0
M  V30 12222 O 1102.07 1.60975 1.44623 0
M  V30 12223 C 1102.67 2.98765 -1.59764 0
M  V30 12224 C 1101.23 3.4898 -1.41032 0
M  V30 12225 C 1100.37 2.23729 -1.63831 0
M  V30 12226 H 1103.32 0.947415 -1.27317 0
M  V30 12227 H 1103.34 3.65885 -1.04443 0
M  V30 12228 H 1102.86 2.82094 -2.66542 0
M  V30 12229 H 1100.96 3.7081 -0.364781 0
M  V30 12230 H 1101.07 4.27571 -2.16148 0
M  V30 12231 H 1099.43 2.31507 -1.06191 0
M  V30 12232 H 1100.22 2.09597 -2.7189 0
M  V30 12233 N 1102.66 0.908147 1.28804 0
M  V30 12234 C 1103.61 0.390734 2.27468 0
M  V30 12235 C 1104.58 -0.531765 1.57358 0
M  V30 12236 O 1105.76 -0.455177 1.85291 0
M  V30 12237 C 1102.9 -0.368159 3.43131 0
M  V30 12238 C 1102.02 0.586202 4.28004 0
M  V30 12239 C 1101.15 -0.190581 5.30858 0
M  V30 12240 C 1100.19 0.757758 6.07391 0
M  V30 12241 N 1099.33 0.0148488 7.02098 0
M  V30 12242 H 1104.17 1.23717 2.71105 0
M  V30 12243 H 1101.71 0.621382 1.33331 0
M  V30 12244 H 1103.66 -0.824289 4.08976 0
M  V30 12245 H 1102.29 -1.17898 3.00499 0
M  V30 12246 H 1101.35 1.16086 3.62254 0
M  V30 12247 H 1102.66 1.31177 4.81242 0
M  V30 12248 H 1101.81 -0.707528 6.0256 0
M  V30 12249 H 1100.55 -0.949234 4.78373 0
M  V30 12250 H 1099.56 1.28613 5.34545 0
M  V30 12251 H 1100.78 1.51588 6.61965 0
M  V30 12252 H 1098.73 -0.725916 6.51971 0
M  V30 12253 H 1098.64 0.680347 7.52932 0
M  V30 12254 H 1099.91 -0.482086 7.78008 0
M  V30 12255 N 1104.14 -1.42577 0.671525 0
M  V30 12256 C 1105.09 -2.32591 -0.0205354 0
M  V30 12257 C 1106.08 -1.4964 -0.793993 0
M  V30 12258 O 1107.29 -1.65733 -0.702327 0
M  V30 12259 H 1103.66 -0.75157 -0.0254344 0
M  V30 12260 H 1105.63 -2.88662 0.756082 0
M  V30 12261 C 1104.38 -3.34175 -0.960316 0
M  V30 12262 H 1103.71 -3.98041 -0.374577 0
M  V30 12263 H 1105.15 -3.99752 -1.4133 0
M  V30 12264 C 1103.61 -2.66184 -2.06513 0
M  V30 12265 O 1104.14 -2.49125 -3.15119 0
M  V30 12266 N 1102.34 -2.25261 -1.83591 0
M  V30 12267 H 1101.89 -2.39336 -0.952689 0
M  V30 12268 H 1101.85 -1.80101 -2.57703 0
M  V30 12269 N 1105.62 -0.414636 -1.52048 0
M  V30 12270 C 1106.53 0.414861 -2.30903 0
M  V30 12271 C 1107.54 1.04855 -1.38858 0
M  V30 12272 O 1108.72 1.04886 -1.71933 0
M  V30 12273 C 1105.79 1.51356 -3.11917 0
M  V30 12274 C 1104.85 0.902359 -4.19709 0
M  V30 12275 C 1104.08 1.9487 -4.96852 0
M  V30 12276 O 1104.3 3.16766 -4.74358 0
M  V30 12277 O 1103.24 1.55186 -5.8155 0
M  V30 12278 H 1107.06 -0.228251 -3.02841 0
M  V30 12279 H 1104.65 -0.177704 -1.48339 0
M  V30 12280 H 1106.53 2.15127 -3.62351 0
M  V30 12281 H 1105.2 2.14117 -2.42767 0
M  V30 12282 H 1104.11 0.22721 -3.73409 0
M  V30 12283 H 1105.44 0.318587 -4.91168 0
M  V30 12284 N 1107.1 1.56929 -0.145233 0
M  V30 12285 C 1108.05 2.13246 0.806846 0
M  V30 12286 C 1109.03 1.05984 1.21063 0
M  V30 12287 O 1110.22 1.32165 1.17734 0
M  V30 12288 C 1107.35 2.75622 2.04663 0
M  V30 12289 C 1106.44 3.90006 1.66603 0
M  V30 12290 N 1106.83 4.95946 0.993545 0
M  V30 12291 C 1105.13 4.0068 1.95886 0
M  V30 12292 C 1105.83 5.76032 0.810087 0
M  V30 12293 N 1104.8 5.26739 1.34339 0
M  V30 12294 H 1108.61 2.92527 0.283806 0
M  V30 12295 H 1106.12 1.62302 0.0563676 0
M  V30 12296 H 1108.12 3.14329 2.73867 0
M  V30 12297 H 1106.78 1.97815 2.57487 0
M  V30 12298 H 1107.79 5.13748 0.654508 0
M  V30 12299 H 1104.46 3.33946 2.50572 0
M  V30 12300 H 1105.85 6.71315 0.280209 0
M  V30 12301 N 1108.58 -0.128553 1.57075 0
M  V30 12302 C 1109.52 -1.15812 1.9964 0
M  V30 12303 C 1110.49 -1.41679 0.86696 0
M  V30 12304 O 1111.68 -1.53705 1.13046 0
M  V30 12305 C 1108.82 -2.48198 2.39774 0
M  V30 12306 C 1107.93 -2.29348 3.66092 0
M  V30 12307 C 1107.07 -3.54898 3.95248 0
M  V30 12308 C 1106.1 -3.31164 5.14779 0
M  V30 12309 N 1105.24 -4.48891 5.39853 0
M  V30 12310 H 1110.08 -0.788136 2.87389 0
M  V30 12311 H 1107.62 -0.377682 1.42169 0
M  V30 12312 H 1109.58 -3.25414 2.61077 0
M  V30 12313 H 1108.21 -2.83108 1.5508 0
M  V30 12314 H 1107.26 -1.43095 3.5246 0
M  V30 12315 H 1108.57 -2.07781 4.53463 0
M  V30 12316 H 1107.72 -4.40536 4.17148 0
M  V30 12317 H 1106.46 -3.79487 3.06335 0
M  V30 12318 H 1105.47 -2.43915 4.92733 0
M  V30 12319 H 1106.69 -3.07954 6.05261 0
M  V30 12320 H 1104.64 -4.73619 4.53895 0
M  V30 12321 H 1104.56 -4.30394 6.21528 0
M  V30 12322 H 1105.82 -5.35691 5.66265 0
M  V30 12323 N 1110.05 -1.5248 -0.398459 0
M  V30 12324 C 1111.28 -1.70925 -1.16586 0
M  V30 12325 C 1111.7 -0.42342 -1.83991 0
M  V30 12326 O 1111.05 0.601395 -1.72306 0
M  V30 12327 C 1111.1 -2.85226 -2.22099 0
M  V30 12328 O 1110.83 -4.08831 -1.57444 0
M  V30 12329 C 1112.33 -3.15272 -3.11639 0
M  V30 12330 H 1109.55 -0.572533 -0.349924 0
M  V30 12331 H 1112.09 -1.99087 -0.467416 0
M  V30 12332 H 1110.25 -2.59553 -2.87595 0
M  V30 12333 H 1110.66 -4.72603 -2.2748 0
M  V30 12334 H 1112.13 -3.98737 -3.81724 0
M  V30 12335 H 1112.61 -2.29262 -3.74614 0
M  V30 12336 H 1113.22 -3.42749 -2.518 0
M  V30 12337 N 1111.53 0.65634 -1.43283 0
M  V30 12338 C 1112.78 1.41212 -1.44021 0
M  V30 12339 C 1113.09 1.95485 -0.0669783 0
M  V30 12340 O 1114.3 2.71457 0.0481909 0
M  V30 12341 C 1112.76 2.55541 -2.5343 0
M  V30 12342 C 1112.36 2.07889 -3.96845 0
M  V30 12343 C 1114.11 3.3293 -2.63359 0
M  V30 12344 C 1112.01 3.19411 -4.97726 0
M  V30 12345 H 1110.94 0.530566 -0.535739 0
M  V30 12346 H 1113.6 0.708743 -1.6926 0
M  V30 12347 H 1111.98 3.28335 -2.21387 0
M  V30 12348 H 1113.15 1.42127 -4.38334 0
M  V30 12349 H 1111.47 1.43388 -3.90933 0
M  V30 12350 H 1114.06 4.1602 -3.35903 0
M  V30 12351 H 1114.41 3.80753 -1.68324 0
M  V30 12352 H 1114.94 2.67216 -2.94687 0
M  V30 12353 H 1111.68 2.7656 -5.94302 0
M  V30 12354 H 1111.2 3.83895 -4.60853 0
M  V30 12355 H 1112.88 3.84591 -5.20287 0
M  V30 12356 N 1113.01 1.29761 0.894412 0
M  V30 12357 C 1113.94 1.17902 2.01547 0
M  V30 12358 C 1114.92 0.0719402 1.69948 0
M  V30 12359 O 1116.11 0.252338 1.92554 0
M  V30 12360 C 1113.24 0.860262 3.36477 0
M  V30 12361 C 1112.19 1.92424 3.82305 0
M  V30 12362 C 1111.52 1.45868 5.14419 0
M  V30 12363 C 1112.82 3.33391 4.02054 0
M  V30 12364 H 1114.51 2.11688 2.11727 0
M  V30 12365 H 1112.06 1.01916 1.01731 0
M  V30 12366 H 1114.01 0.763987 4.14417 0
M  V30 12367 H 1112.73 -0.113289 3.26403 0
M  V30 12368 H 1111.39 2.00999 3.06586 0
M  V30 12369 H 1111.04 0.473654 5.00765 0
M  V30 12370 H 1110.74 2.17028 5.46052 0
M  V30 12371 H 1112.26 1.37601 5.94894 0
M  V30 12372 H 1113.68 3.27628 4.7046 0
M  V30 12373 H 1112.07 4.02555 4.4505 0
M  V30 12374 H 1113.14 3.75978 3.06216 0
M  V30 12375 N 1114.49 -1.10549 1.12324 0
M  V30 12376 C 1115.43 -2.16858 0.790024 0
M  V30 12377 C 1116.4 -1.64317 -0.242694 0
M  V30 12378 O 1117.59 -1.90438 -0.117531 0
M  V30 12379 C 1114.73 -3.44197 0.249503 0
M  V30 12380 C 1113.84 -4.10696 1.33989 0
M  V30 12381 C 1112.98 -5.25751 0.758932 0
M  V30 12382 C 1112.02 -5.8415 1.82853 0
M  V30 12383 N 1111.15 -6.90585 1.26637 0
M  V30 12384 H 1115.99 -2.44705 1.7007 0
M  V30 12385 H 1113.53 -1.20117 0.849141 0
M  V30 12386 H 1115.49 -4.1712 -0.0819251 0
M  V30 12387 H 1114.12 -3.16705 -0.624332 0
M  V30 12388 H 1113.17 -3.35754 1.78812 0
M  V30 12389 H 1114.48 -4.50144 2.14875 0
M  V30 12390 H 1113.64 -6.05521 0.378104 0
M  V30 12391 H 1112.38 -4.87632 -0.0811405 0
M  V30 12392 H 1111.38 -5.03051 2.21856 0
M  V30 12393 H 1112.61 -6.24333 2.6718 0
M  V30 12394 H 1110.55 -6.54468 0.448105 0
M  V30 12395 H 1110.47 -7.28739 2.01184 0
M  V30 12396 H 1111.74 -7.74138 0.912737 0
M  V30 12397 N 1115.97 -0.914965 -1.28321 0
M  V30 12398 C 1117.19 -0.564654 -1.99046 0
M  V30 12399 C 1117.61 0.854345 -1.68364 0
M  V30 12400 O 1116.97 1.56605 -0.937068 0
M  V30 12401 C 1117.02 -0.765663 -3.53299 0
M  V30 12402 O 1116.74 -2.12883 -3.829 0
M  V30 12403 C 1118.24 -0.422347 -4.41283 0
M  V30 12404 H 1115.46 -0.215158 -0.635569 0
M  V30 12405 H 1118 -1.2285 -1.63487 0
M  V30 12406 H 1116.16 -0.148795 -3.87114 0
M  V30 12407 H 1116.57 -2.1694 -4.77533 0
M  V30 12408 H 1118.05 -0.613757 -5.48577 0
M  V30 12409 H 1118.52 0.641484 -4.3449 0
M  V30 12410 H 1119.13 -1.01681 -4.12966 0
M  V30 12411 N 1117.44 1.42219 -0.679077 0
M  V30 12412 C 1118.37 2.33493 -0.0174528 0
M  V30 12413 C 1119.35 1.50915 0.78477 0
M  V30 12414 O 1120.54 1.79504 0.741065 0
M  V30 12415 C 1117.67 3.34576 0.931463 0
M  V30 12416 C 1116.62 4.2734 0.237527 0
M  V30 12417 C 1115.95 5.18664 1.29967 0
M  V30 12418 C 1117.25 5.14729 -0.886082 0
M  V30 12419 H 1118.94 2.89068 -0.779748 0
M  V30 12420 H 1116.49 1.38993 -0.376419 0
M  V30 12421 H 1118.44 3.97343 1.40343 0
M  V30 12422 H 1117.17 2.77315 1.72523 0
M  V30 12423 H 1115.83 3.65973 -0.214245 0
M  V30 12424 H 1115.47 4.57727 2.08554 0
M  V30 12425 H 1115.17 5.81558 0.840463 0
M  V30 12426 H 1116.7 5.84308 1.77249 0
M  V30 12427 H 1118.11 5.71158 -0.495141 0
M  V30 12428 H 1116.51 5.86478 -1.27135 0
M  V30 12429 H 1117.58 4.52874 -1.733 0
M  V30 12430 N 1118.92 0.422693 1.51826 0
M  V30 12431 C 1119.87 -0.396088 2.27376 0
M  V30 12432 C 1120.84 -1.02946 1.30351 0
M  V30 12433 O 1122.02 -1.05116 1.59233 0
M  V30 12434 C 1119.16 -1.49942 3.10824 0
M  V30 12435 C 1118.28 -0.885623 4.22825 0
M  V30 12436 C 1117.41 -1.96278 4.93608 0
M  V30 12437 C 1116.45 -1.32664 5.97551 0
M  V30 12438 N 1115.59 -2.34452 6.61798 0
M  V30 12439 H 1120.43 0.254571 2.96911 0
M  V30 12440 H 1117.96 0.137383 1.46457 0
M  V30 12441 H 1119.92 -2.15023 3.57521 0
M  V30 12442 H 1118.55 -2.11991 2.43433 0
M  V30 12443 H 1117.6 -0.123491 3.80199 0
M  V30 12444 H 1118.92 -0.381057 4.97342 0
M  V30 12445 H 1118.07 -2.69055 5.43778 0
M  V30 12446 H 1116.81 -2.50103 4.18688 0
M  V30 12447 H 1115.81 -0.584262 5.46687 0
M  V30 12448 H 1117.04 -0.7959 6.7442 0
M  V30 12449 H 1114.99 -2.87385 5.897 0
M  V30 12450 H 1114.9 -1.88845 7.32034 0
M  V30 12451 H 1116.17 -3.06757 7.16603 0
M  V30 12452 N 1120.4 -1.5685 0.153553 0
M  V30 12453 C 1121.68 -1.8796 -0.541328 0
M  V30 12454 C 1122.06 -1.06059 -1.82523 0
M  V30 12455 O 1121.4 -0.149295 -2.28012 0
M  V30 12456 C 1121.61 -3.39697 -0.800442 0
M  V30 12457 C 1122.96 -4.09057 -1.13832 0
M  V30 12458 O 1123.99 -3.44913 -0.889578 0
M  V30 12459 O 1122.85 -5.22347 -1.60673 0
M  V30 12460 H 1119.94 -0.779268 -0.276895 0
M  V30 12461 H 1122.49 -1.68626 0.190657 0
M  V30 12462 H 1121.26 -3.91151 0.107935 0
M  V30 12463 H 1120.88 -3.64582 -1.58638 0
M  V30 12464 N 1121.88 0.120221 -1.57141 0
M  V30 12465 C 1122.79 1.16641 -2.03549 0
M  V30 12466 C 1123.8 1.45407 -0.955656 0
M  V30 12467 O 1124.98 1.56547 -1.26708 0
M  V30 12468 C 1122.04 2.4734 -2.42948 0
M  V30 12469 C 1121.11 2.25982 -3.65008 0
M  V30 12470 C 1120.34 3.50449 -4.02518 0
M  V30 12471 O 1120.56 4.57706 -3.40384 0
M  V30 12472 O 1119.5 3.41524 -4.95626 0
M  V30 12473 H 1123.32 0.802323 -2.9291 0
M  V30 12474 H 1120.91 0.330927 -1.45689 0
M  V30 12475 H 1122.79 3.24348 -2.69029 0
M  V30 12476 H 1121.46 2.83225 -1.56733 0
M  V30 12477 H 1120.37 1.46837 -3.44078 0
M  V30 12478 H 1121.7 1.95002 -4.51924 0
M  V30 12479 N 1123.36 1.52689 0.390367 0
M  V30 12480 C 1124.29 1.73622 1.49626 0
M  V30 12481 C 1125.3 0.616682 1.50668 0
M  V30 12482 O 1126.49 0.892341 1.54595 0
M  V30 12483 C 1123.59 1.77859 2.88477 0
M  V30 12484 C 1122.76 3.07146 3.11416 0
M  V30 12485 C 1121.82 3.02949 4.30242 0
M  V30 12486 O 1120.85 3.76816 4.26613 0
M  V30 12487 N 1122.05 2.22039 5.36357 0
M  V30 12488 H 1124.82 2.69037 1.32057 0
M  V30 12489 H 1122.38 1.51159 0.579867 0
M  V30 12490 H 1124.37 1.72559 3.66067 0
M  V30 12491 H 1122.94 0.898367 2.99413 0
M  V30 12492 H 1122.16 3.25947 2.21703 0
M  V30 12493 H 1123.45 3.92637 3.23595 0
M  V30 12494 H 1122.84 1.6149 5.4216 0
M  V30 12495 H 1121.4 2.2258 6.12619 0
M  V30 12496 N 1124.83 -0.648732 1.43629 0
M  V30 12497 C 1126.06 -1.4362 1.48932 0
M  V30 12498 C 1126.48 -1.88487 0.108599 0
M  V30 12499 O 1125.83 -1.59768 -0.882066 0
M  V30 12500 C 1125.89 -2.66822 2.43903 0
M  V30 12501 O 1125.61 -2.2383 3.76606 0
M  V30 12502 C 1127.11 -3.60134 2.58493 0
M  V30 12503 H 1124.33 -0.441055 0.505679 0
M  V30 12504 H 1126.87 -0.794936 1.88417 0
M  V30 12505 H 1125.03 -3.27079 2.07601 0
M  V30 12506 H 1125.44 -3.03575 4.27718 0
M  V30 12507 H 1126.91 -4.43234 3.29011 0
M  V30 12508 H 1127.39 -4.07779 1.63134 0
M  V30 12509 H 1128 -3.05756 2.95624 0
M  V30 12510 N 1126.31 -1.30234 -0.887518 0
M  V30 12511 C 1127.73 -1.0851 -1.17037 0
M  V30 12512 C 1127.93 0.155788 -2.00897 0
M  V30 12513 O 1126.98 0.850123 -2.37759 0
M  V30 12514 C 1128.3 -2.34723 -1.87951 0
M  V30 12515 C 1129.85 -2.40163 -2.00726 0
M  V30 12516 C 1130.32 -3.66211 -2.75051 0
M  V30 12517 N 1131.81 -3.67004 -2.82599 0
M  V30 12518 C 1132.55 -4.61224 -3.40676 0
M  V30 12519 N 1132.04 -5.65786 -3.99823 0
M  V30 12520 N 1133.84 -4.48772 -3.38467 0
M  V30 12521 H 1125.99 -2.09847 -0.328297 0
M  V30 12522 H 1128.25 -0.924904 -0.20798 0
M  V30 12523 H 1127.96 -3.25265 -1.33773 0
M  V30 12524 H 1127.83 -2.43175 -2.8835 0
M  V30 12525 H 1130.22 -1.50101 -2.54074 0
M  V30 12526 H 1130.3 -2.35688 -0.994218 0
M  V30 12527 H 1129.94 -4.56631 -2.22376 0
M  V30 12528 H 1129.87 -3.67947 -3.76726 0
M  V30 12529 H 1132.36 -2.91409 -2.40602 0
M  V30 12530 H 1132.68 -6.33783 -4.42197 0
M  V30 12531 H 1131.02 -5.69581 -3.9825 0
M  V30 12532 H 1134.21 -3.6627 -2.91485 0
M  V30 12533 H 1134.38 -5.22382 -3.83433 0
M  V30 12534 N 1127.79 1.09952 -1.12909 0
M  V30 12535 C 1128.74 2.16436 -0.801514 0
M  V30 12536 C 1129.71 1.64444 0.233976 0
M  V30 12537 O 1130.89 1.90497 0.10743 0
M  V30 12538 C 1128.03 3.4406 -0.267753 0
M  V30 12539 C 1127.15 4.09979 -1.36165 0
M  V30 12540 C 1126.28 5.25341 -0.786803 0
M  V30 12541 C 1125.32 5.83172 -1.85948 0
M  V30 12542 N 1124.46 6.89904 -1.30298 0
M  V30 12543 H 1129.3 2.43799 -1.71365 0
M  V30 12544 H 1126.83 1.19665 -0.855499 0
M  V30 12545 H 1128.79 4.17157 0.0598031 0
M  V30 12546 H 1127.42 3.17031 0.607528 0
M  V30 12547 H 1126.47 3.34801 -1.8059 0
M  V30 12548 H 1127.79 4.48999 -2.17259 0
M  V30 12549 H 1126.94 6.05312 -0.410211 0
M  V30 12550 H 1125.68 4.87669 0.055279 0
M  V30 12551 H 1124.68 5.01867 -2.24521 0
M  V30 12552 H 1125.91 6.22907 -2.70487 0
M  V30 12553 H 1123.85 6.54221 -0.482806 0
M  V30 12554 H 1123.77 7.27662 -2.05046 0
M  V30 12555 H 1125.04 7.73643 -0.953779 0
M  V30 12556 N 1129.27 0.921757 1.27833 0
M  V30 12557 C 1130.2 0.433466 2.29441 0
M  V30 12558 C 1131.18 -0.503133 1.62489 0
M  V30 12559 O 1132.36 -0.409156 1.89841 0
M  V30 12560 C 1129.49 -0.320029 3.45822 0
M  V30 12561 C 1128.45 0.528178 4.24728 0
M  V30 12562 C 1127.77 -0.354132 5.33526 0
M  V30 12563 C 1129.07 1.78959 4.90684 0
M  V30 12564 H 1130.77 1.28263 2.70535 0
M  V30 12565 H 1128.31 0.618197 1.30055 0
M  V30 12566 H 1130.27 -0.672526 4.15999 0
M  V30 12567 H 1128.99 -1.20317 3.0363 0
M  V30 12568 H 1127.65 0.863302 3.5629 0
M  V30 12569 H 1127.3 -1.23605 4.87576 0
M  V30 12570 H 1127 0.209855 5.87225 0
M  V30 12571 H 1128.52 -0.702333 6.06547 0
M  V30 12572 H 1129.94 1.50552 5.53179 0
M  V30 12573 H 1128.33 2.29661 5.54415 0
M  V30 12574 H 1129.4 2.51265 4.14721 0
M  V30 12575 N 1130.75 -1.41857 0.686609 0
M  V30 12576 C 1131.71 -2.29187 0.0247022 0
M  V30 12577 C 1132.71 -1.43926 -0.717069 0
M  V30 12578 O 1133.9 -1.65179 -0.5533 0
M  V30 12579 C 1131.03 -3.26644 -0.975537 0
M  V30 12580 H 1132.22 -2.89212 0.793503 0
M  V30 12581 H 1129.78 -1.49694 0.449605 0
M  V30 12582 H 1130.51 -2.7158 -1.77242 0
M  V30 12583 H 1130.3 -3.89545 -0.446892 0
M  V30 12584 H 1131.79 -3.92107 -1.43673 0
M  V30 12585 N 1132.22 -0.430739 -1.51599 0
M  V30 12586 C 1133.47 0.139396 -2.01218 0
M  V30 12587 C 1133.79 1.44361 -1.31982 0
M  V30 12588 O 1134.99 2.0963 -1.72533 0
M  V30 12589 C 1133.45 0.298969 -3.58656 0
M  V30 12590 C 1133.06 -0.994424 -4.36824 0
M  V30 12591 C 1134.8 0.82323 -4.16441 0
M  V30 12592 C 1132.71 -0.800855 -5.85952 0
M  V30 12593 H 1131.64 0.0558698 -0.751927 0
M  V30 12594 H 1134.29 -0.559493 -1.74762 0
M  V30 12595 H 1132.67 1.06071 -3.8153 0
M  V30 12596 H 1133.84 -1.76398 -4.257 0
M  V30 12597 H 1132.16 -1.44672 -3.9046 0
M  V30 12598 H 1134.76 0.984434 -5.2556 0
M  V30 12599 H 1135.1 1.80388 -3.75188 0
M  V30 12600 H 1135.63 0.119982 -3.97619 0
M  V30 12601 H 1132.37 -1.75369 -6.31606 0
M  V30 12602 H 1131.89 -0.0709793 -5.99758 0
M  V30 12603 H 1133.57 -0.451459 -6.45423 0
M  V30 12604 N 1133.7 1.56767 -0.161869 0
M  V30 12605 C 1134.63 2.20511 0.767918 0
M  V30 12606 C 1135.61 1.15783 1.24612 0
M  V30 12607 O 1136.8 1.44179 1.301 0
M  V30 12608 C 1133.93 2.83844 2.00125 0
M  V30 12609 C 1132.88 3.94528 1.65926 0
M  V30 12610 C 1132.21 4.44866 2.96646 0
M  V30 12611 C 1133.51 5.14583 0.894497 0
M  V30 12612 H 1135.2 2.98464 0.236607 0
M  V30 12613 H 1132.75 1.43561 0.112363 0
M  V30 12614 H 1134.7 3.27109 2.65664 0
M  V30 12615 H 1133.43 2.03246 2.55654 0
M  V30 12616 H 1132.08 3.51904 1.02759 0
M  V30 12617 H 1131.73 3.61071 3.50196 0
M  V30 12618 H 1131.43 5.19531 2.74521 0
M  V30 12619 H 1132.96 4.90812 3.6323 0
M  V30 12620 H 1134.37 5.54601 1.45228 0
M  V30 12621 H 1132.77 5.95105 0.772636 0
M  V30 12622 H 1133.84 4.84773 -0.110986 0
M  V30 12623 N 1135.18 -0.111886 1.57202 0
M  V30 12624 C 1136.14 -1.12101 1.99915 0
M  V30 12625 C 1137.14 -1.33906 0.890272 0
M  V30 12626 O 1138.33 -1.30303 1.15615 0
M  V30 12627 C 1135.47 -2.47392 2.34543 0
M  V30 12628 H 1136.66 -0.753736 2.90274 0
M  V30 12629 H 1134.21 -0.35641 1.52182 0
M  V30 12630 H 1134.95 -2.89026 1.47086 0
M  V30 12631 H 1134.73 -2.32917 3.15423 0
M  V30 12632 H 1136.22 -3.20004 2.68304 0
M  V30 12633 N 1136.66 -1.52894 -0.382264 0
M  V30 12634 C 1137.57 -1.81084 -1.4915 0
M  V30 12635 C 1138.58 -0.698045 -1.59384 0
M  V30 12636 O 1139.76 -0.98635 -1.75594 0
M  V30 12637 C 1136.83 -1.97987 -2.84608 0
M  V30 12638 C 1135.89 -3.219 -2.8404 0
M  V30 12639 C 1135.12 -3.37988 -4.13037 0
M  V30 12640 O 1135.34 -2.58733 -5.08344 0
M  V30 12641 O 1134.28 -4.31273 -4.19866 0
M  V30 12642 H 1138.1 -2.75289 -1.28257 0
M  V30 12643 H 1135.69 -1.38068 -0.57076 0
M  V30 12644 H 1137.57 -2.10773 -3.64901 0
M  V30 12645 H 1136.24 -1.06972 -3.05514 0
M  V30 12646 H 1135.15 -3.14551 -2.02505 0
M  V30 12647 H 1136.48 -4.12783 -2.68087 0
M  V30 12648 N 1138.14 0.641106 -1.43971 0
M  V30 12649 C 1139.07 1.76645 -1.46046 0
M  V30 12650 C 1140.08 1.58881 -0.355049 0
M  V30 12651 O 1141.27 1.67379 -0.620207 0
M  V30 12652 C 1138.37 3.14237 -1.26918 0
M  V30 12653 C 1137.54 3.5855 -2.50521 0
M  V30 12654 C 1136.6 4.74986 -2.26438 0
M  V30 12655 O 1135.63 4.83807 -2.99866 0
M  V30 12656 N 1136.83 5.66016 -1.28866 0
M  V30 12657 H 1139.6 1.75339 -2.43056 0
M  V30 12658 H 1137.16 0.82535 -1.39282 0
M  V30 12659 H 1139.15 3.89837 -1.0867 0
M  V30 12660 H 1137.72 3.10244 -0.383082 0
M  V30 12661 H 1136.94 2.73265 -2.84112 0
M  V30 12662 H 1138.23 3.84906 -3.32754 0
M  V30 12663 H 1137.63 5.61574 -0.682018 0
M  V30 12664 H 1136.18 6.41286 -1.16599 0
M  V30 12665 N 1139.62 1.30703 0.880598 0
M  V30 12666 C 1140.85 1.22536 1.66339 0
M  V30 12667 C 1141.25 -0.213507 1.87991 0
M  V30 12668 O 1140.6 -1.15236 1.43061 0
M  V30 12669 C 1140.66 1.88798 3.05934 0
M  V30 12670 C 1140.32 3.38131 3.07435 0
M  V30 12671 C 1141.32 4.34053 2.86171 0
M  V30 12672 C 1139 3.79651 3.28893 0
M  V30 12673 C 1141 5.69469 2.86328 0
M  V30 12674 C 1138.69 5.15182 3.2868 0
M  V30 12675 C 1139.68 6.09902 3.07423 0
M  V30 12676 O 1139.37 7.42957 3.07034 0
M  V30 12677 H 1139.1 0.425018 0.525677 0
M  V30 12678 H 1141.66 1.72939 1.1082 0
M  V30 12679 H 1139.89 1.3293 3.63134 0
M  V30 12680 H 1141.58 1.74691 3.66385 0
M  V30 12681 H 1142.34 4.03307 2.69385 0
M  V30 12682 H 1138.22 3.06365 3.44473 0
M  V30 12683 H 1141.77 6.43375 2.69655 0
M  V30 12684 H 1137.66 5.45567 3.45002 0
M  V30 12685 H 1138.43 7.52 3.23169 0
M  V30 12686 N 1141.09 -1.09351 1.1349 0
M  V30 12687 C 1142 -2.19564 0.826366 0
M  V30 12688 C 1143.02 -1.72967 -0.189339 0
M  V30 12689 O 1144.2 -2.0139 -0.0202033 0
M  V30 12690 C 1141.26 -3.4542 0.297685 0
M  V30 12691 C 1140.32 -4.06694 1.37473 0
M  V30 12692 C 1139.55 -5.26542 0.871183 0
M  V30 12693 O 1139.78 -5.69657 -0.290958 0
M  V30 12694 O 1138.71 -5.78961 1.64584 0
M  V30 12695 H 1142.54 -2.4841 1.74718 0
M  V30 12696 H 1140.12 -1.18302 0.912414 0
M  V30 12697 H 1142 -4.21399 0.00829479 0
M  V30 12698 H 1140.68 -3.18175 -0.595536 0
M  V30 12699 H 1139.59 -3.32347 1.71745 0
M  V30 12700 H 1140.92 -4.38166 2.24212 0
M  V30 12701 N 1142.57 -0.928524 -1.27343 0
M  V30 12702 C 1143.5 -0.385563 -2.25934 0
M  V30 12703 C 1144.52 0.484178 -1.55433 0
M  V30 12704 O 1145.71 0.296668 -1.76017 0
M  V30 12705 C 1142.81 0.466116 -3.35679 0
M  V30 12706 C 1141.98 -0.384523 -4.35707 0
M  V30 12707 C 1141.04 0.404644 -5.24642 0
M  V30 12708 O 1140.06 -0.187943 -5.6889 0
M  V30 12709 N 1141.27 1.70426 -5.54919 0
M  V30 12710 H 1144.03 -1.23306 -2.73159 0
M  V30 12711 H 1141.59 -0.796039 -1.40978 0
M  V30 12712 H 1143.58 1.00115 -3.92121 0
M  V30 12713 H 1142.15 1.21437 -2.88048 0
M  V30 12714 H 1141.37 -1.10085 -3.78517 0
M  V30 12715 H 1142.66 -0.966033 -4.99545 0
M  V30 12716 H 1142.06 2.20802 -5.20829 0
M  V30 12717 H 1140.62 2.1858 -6.14057 0
M  V30 12718 N 1144.05 1.41491 -0.694123 0
M  V30 12719 C 1145.27 2.06099 -0.23197 0
M  V30 12720 C 1145.7 1.51888 1.10958 0
M  V30 12721 O 1145.06 0.645247 1.69429 0
M  V30 12722 C 1145.11 3.60053 -0.198522 0
M  V30 12723 O 1144.21 4.04021 0.827067 0
M  V30 12724 H 1143.55 0.654193 -0.113699 0
M  V30 12725 H 1146.08 1.81282 -0.948575 0
M  V30 12726 H 1146.09 4.0799 -0.0288904 0
M  V30 12727 H 1144.77 3.98879 -1.17764 0
M  V30 12728 H 1143.34 3.67593 0.626908 0
M  V30 12729 N 1145.53 0.438773 1.51369 0
M  V30 12730 C 1146.78 -0.128723 2.01289 0
M  V30 12731 C 1147.09 -1.43659 1.32745 0
M  V30 12732 O 1148.3 -2.08712 1.73642 0
M  V30 12733 C 1146.75 -0.279945 3.5881 0
M  V30 12734 C 1146.36 1.01758 4.3629 0
M  V30 12735 C 1148.1 -0.801133 4.16872 0
M  V30 12736 C 1146.01 0.831918 5.85519 0
M  V30 12737 H 1144.94 -0.0518814 0.752213 0
M  V30 12738 H 1147.59 0.568753 1.74463 0
M  V30 12739 H 1145.97 -1.04046 3.82087 0
M  V30 12740 H 1147.15 1.78653 4.24758 0
M  V30 12741 H 1145.46 1.46741 3.89687 0
M  V30 12742 H 1148.06 -0.956548 5.26074 0
M  V30 12743 H 1148.4 -1.78396 3.76139 0
M  V30 12744 H 1148.94 -0.0988934 3.97677 0
M  V30 12745 H 1145.67 1.78716 6.30667 0
M  V30 12746 H 1145.19 0.102785 5.99712 0
M  V30 12747 H 1146.87 0.485681 6.45174 0
M  V30 12748 N 1147.01 -1.56678 0.170181 0
M  V30 12749 C 1147.95 -2.19222 -0.777459 0
M  V30 12750 C 1148.95 -1.15592 -1.23834 0
M  V30 12751 O 1150.15 -1.33794 -1.20412 0
M  V30 12752 H 1146.53 -0.702244 -0.268992 0
M  V30 12753 H 1148.5 -2.97543 -0.225989 0
M  V30 12754 C 1147.25 -2.84631 -1.997 0
M  V30 12755 H 1146.57 -3.641 -1.65139 0
M  V30 12756 H 1148.01 -3.31864 -2.63898 0
M  V30 12757 C 1146.47 -1.84345 -2.81991 0
M  V30 12758 O 1147 -1.32821 -3.79106 0
M  V30 12759 N 1145.21 -1.53127 -2.46983 0
M  V30 12760 H 1144.75 -1.95219 -1.6807 0
M  V30 12761 H 1144.71 -0.862787 -3.0233 0
M  V30 12762 N 1148.48 0.103547 -1.57259 0
M  V30 12763 C 1149.39 1.14475 -2.04774 0
M  V30 12764 C 1150.41 1.44385 -0.971025 0
M  V30 12765 O 1151.59 1.55195 -1.28361 0
M  V30 12766 C 1148.65 2.4475 -2.45558 0
M  V30 12767 C 1147.71 2.22098 -3.67384 0
M  V30 12768 C 1146.94 3.4616 -4.06213 0
M  V30 12769 O 1147.17 4.5407 -3.45219 0
M  V30 12770 O 1146.1 3.36248 -4.9922 0
M  V30 12771 H 1149.93 0.771211 -2.93745 0
M  V30 12772 H 1147.51 0.315456 -1.46032 0
M  V30 12773 H 1149.39 3.21476 -2.72454 0
M  V30 12774 H 1148.07 2.81547 -1.59728 0
M  V30 12775 H 1146.98 1.43179 -3.45616 0
M  V30 12776 H 1148.31 1.90197 -4.53967 0
M  V30 12777 N 1149.96 1.53094 0.37415 0
M  V30 12778 C 1150.89 1.73697 1.48002 0
M  V30 12779 C 1151.87 0.585109 1.51708 0
M  V30 12780 O 1153.06 0.816688 1.6989 0
M  V30 12781 C 1150.18 1.80802 2.86406 0
M  V30 12782 C 1149.23 3.02696 3.00462 0
M  V30 12783 S 1150.06 4.62386 2.70109 0
M  V30 12784 C 1151.22 4.72328 4.10679 0
M  V30 12785 H 1151.45 2.67223 1.30303 0
M  V30 12786 H 1148.98 1.43574 0.567957 0
M  V30 12787 H 1150.94 1.85581 3.66155 0
M  V30 12788 H 1149.6 0.883425 3.01421 0
M  V30 12789 H 1148.8 3.04252 4.01804 0
M  V30 12790 H 1148.4 2.95985 2.28624 0
M  V30 12791 H 1150.69 4.51856 5.04809 0
M  V30 12792 H 1151.63 5.7437 4.14131 0
M  V30 12793 H 1152.04 4.01035 3.9728 0
M  V30 12794 N 1151.44 -0.633461 1.44309 0
M  V30 12795 C 1152.37 -1.7583 1.45462 0
M  V30 12796 C 1153.35 -1.59545 0.313723 0
M  V30 12797 O 1154.53 -1.8146 0.51034 0
M  V30 12798 C 1151.66 -3.13375 1.28506 0
M  V30 12799 C 1150.71 -3.48315 2.46128 0
M  V30 12800 S 1151.54 -3.46058 4.08662 0
M  V30 12801 C 1152.7 -4.86226 3.94125 0
M  V30 12802 H 1152.93 -1.74585 2.4064 0
M  V30 12803 H 1150.46 -0.807868 1.31578 0
M  V30 12804 H 1152.42 -3.92748 1.19411 0
M  V30 12805 H 1151.08 -3.12161 0.348432 0
M  V30 12806 H 1150.27 -4.48397 2.30122 0
M  V30 12807 H 1149.88 -2.76399 2.51951 0
M  V30 12808 H 1152.17 -5.75393 3.57671 0
M  V30 12809 H 1153.11 -5.07287 4.9403 0
M  V30 12810 H 1153.52 -4.60691 3.26227 0
M  V30 12811 N 1152.92 -1.31168 -0.873655 0
M  V30 12812 C 1153.88 -1.18471 -1.96207 0
M  V30 12813 C 1154.88 -0.112814 -1.60404 0
M  V30 12814 O 1156.07 -0.3618 -1.70401 0
M  V30 12815 C 1153.2 -0.817662 -3.30949 0
M  V30 12816 H 1154.4 -2.1518 -2.08896 0
M  V30 12817 H 1151.95 -1.14727 -1.06149 0
M  V30 12818 H 1152.68 0.148428 -3.2396 0
M  V30 12819 H 1152.47 -1.59244 -3.58307 0
M  V30 12820 H 1153.96 -0.75262 -4.10762 0
M  V30 12821 N 1154.4 1.08748 -1.14068 0
M  V30 12822 C 1155.62 1.85353 -0.930532 0
M  V30 12823 C 1156.05 1.80892 0.515717 0
M  V30 12824 O 1155.4 1.19146 1.36652 0
M  V30 12825 C 1155.45 3.30962 -1.43167 0
M  V30 12826 O 1154.56 4.0769 -0.621468 0
M  V30 12827 H 1153.9 0.574485 -0.332962 0
M  V30 12828 H 1156.43 1.37282 -1.51707 0
M  V30 12829 H 1156.44 3.81807 -1.43832 0
M  V30 12830 H 1155.11 3.33524 -2.48464 0
M  V30 12831 H 1153.69 3.66587 -0.683267 0
M  V30 12832 N 1155.87 0.935264 1.26849 0
M  V30 12833 C 1156.81 0.397539 2.25726 0
M  V30 12834 C 1157.82 -0.475928 1.55688 0
M  V30 12835 O 1159.01 -0.287329 1.76172 0
M  V30 12836 C 1156.11 -0.448308 3.35922 0
M  V30 12837 C 1155.28 0.407624 4.35496 0
M  V30 12838 C 1154.34 -0.376815 5.24849 0
M  V30 12839 O 1153.37 0.218109 5.68782 0
M  V30 12840 N 1154.57 -1.67481 5.55815 0
M  V30 12841 H 1157.33 1.24753 2.72501 0
M  V30 12842 H 1154.89 0.803505 1.40554 0
M  V30 12843 H 1156.89 -0.980338 3.92647 0
M  V30 12844 H 1155.46 -1.19908 2.88688 0
M  V30 12845 H 1154.68 1.12091 3.77928 0
M  V30 12846 H 1155.96 0.992512 4.99026 0
M  V30 12847 H 1155.36 -2.18037 5.21993 0
M  V30 12848 H 1153.92 -2.15321 6.15207 0
M  V30 12849 N 1157.35 -1.41121 0.701616 0
M  V30 12850 C 1158.32 -2.29148 0.0490091 0
M  V30 12851 C 1159.32 -1.44679 -0.701763 0
M  V30 12852 O 1160.51 -1.65757 -0.53575 0
M  V30 12853 C 1157.64 -3.2766 -0.940837 0
M  V30 12854 H 1158.83 -2.88354 0.824133 0
M  V30 12855 H 1156.38 -1.49209 0.465457 0
M  V30 12856 H 1157.12 -2.73445 -1.74351 0
M  V30 12857 H 1156.9 -3.89997 -0.405551 0
M  V30 12858 H 1158.39 -3.93609 -1.39507 0
M  V30 12859 N 1158.83 -0.446794 -1.51134 0
M  V30 12860 C 1159.76 0.350229 -2.30858 0
M  V30 12861 C 1160.74 1.0125 -1.36684 0
M  V30 12862 O 1161.93 1.01433 -1.65605 0
M  V30 12863 C 1159.06 1.4464 -3.15748 0
M  V30 12864 C 1158.01 0.907102 -4.18277 0
M  V30 12865 C 1157.34 2.09974 -4.91747 0
M  V30 12866 C 1158.64 -0.0649758 -5.2226 0
M  V30 12867 H 1160.33 -0.315105 -2.97737 0
M  V30 12868 H 1157.88 -0.152985 -1.43185 0
M  V30 12869 H 1159.83 2.01127 -3.70305 0
M  V30 12870 H 1158.55 2.14016 -2.46708 0
M  V30 12871 H 1157.21 0.364382 -3.64785 0
M  V30 12872 H 1156.86 2.77991 -4.19202 0
M  V30 12873 H 1156.56 1.74523 -5.61084 0
M  V30 12874 H 1158.08 2.66996 -5.49131 0
M  V30 12875 H 1159.5 0.4099 -5.71833 0
M  V30 12876 H 1157.9 -0.332529 -5.99178 0
M  V30 12877 H 1158.97 -0.998681 -4.74504 0
M  V30 12878 N 1160.31 1.56586 -0.178487 0
M  V30 12879 C 1161.72 1.58609 0.17759 0
M  V30 12880 C 1161.92 1.19411 1.62306 0
M  V30 12881 O 1160.98 0.90906 2.35568 0
M  V30 12882 C 1162.29 3.005 -0.109722 0
M  V30 12883 C 1163.84 3.12962 -0.0485036 0
M  V30 12884 C 1164.32 4.56957 -0.308901 0
M  V30 12885 N 1165.81 4.62487 -0.25693 0
M  V30 12886 C 1166.54 5.71767 -0.432488 0
M  V30 12887 N 1166.04 6.89577 -0.667494 0
M  V30 12888 N 1167.83 5.60895 -0.367895 0
M  V30 12889 H 1159.98 1.80351 -1.12193 0
M  V30 12890 H 1162.25 0.83623 -0.446569 0
M  V30 12891 H 1161.95 3.3368 -1.11133 0
M  V30 12892 H 1161.83 3.72472 0.595373 0
M  V30 12893 H 1164.21 2.79604 0.943687 0
M  V30 12894 H 1164.29 2.43411 -0.78642 0
M  V30 12895 H 1163.94 4.91025 -1.29833 0
M  V30 12896 H 1163.87 5.24676 0.449711 0
M  V30 12897 H 1166.36 3.77813 -0.0812308 0
M  V30 12898 H 1166.67 7.68744 -0.79071 0
M  V30 12899 H 1165.02 6.91423 -0.704193 0
M  V30 12900 H 1168.21 4.67735 -0.184837 0
M  V30 12901 H 1168.38 6.46005 -0.508138 0
M  V30 12902 N 1161.79 -0.095206 1.57312 0
M  V30 12903 C 1162.72 -1.11627 2.05089 0
M  V30 12904 C 1163.7 -1.41782 0.939787 0
M  V30 12905 O 1164.88 -1.51813 1.21105 0
M  V30 12906 C 1162.01 -2.43618 2.47523 0
M  V30 12907 C 1160.97 -2.27872 3.62296 0
M  V30 12908 C 1160.29 -3.65038 3.90706 0
M  V30 12909 C 1161.59 -1.71936 4.93189 0
M  V30 12910 H 1163.29 -0.718795 2.90644 0
M  V30 12911 H 1160.83 -0.344315 1.39823 0
M  V30 12912 H 1162.79 -3.1532 2.79556 0
M  V30 12913 H 1161.51 -2.85301 1.58968 0
M  V30 12914 H 1160.17 -1.58615 3.3051 0
M  V30 12915 H 1159.82 -4.04249 2.99319 0
M  V30 12916 H 1159.52 -3.55349 4.67976 0
M  V30 12917 H 1161.04 -4.38208 4.25213 0
M  V30 12918 H 1162.45 -2.33479 5.23603 0
M  V30 12919 H 1160.85 -1.73006 5.74621 0
M  V30 12920 H 1161.92 -0.678789 4.80125 0
M  V30 12921 N 1163.26 -1.53291 -0.366026 0
M  V30 12922 C 1164.54 -1.60055 -1.12436 0
M  V30 12923 C 1164.92 -0.407811 -2.07123 0
M  V30 12924 O 1164.27 0.601977 -2.20428 0
M  V30 12925 C 1164.48 -2.95062 -1.86385 0
M  V30 12926 C 1165.83 -3.49623 -2.40934 0
M  V30 12927 O 1166.85 -2.97088 -1.96512 0
M  V30 12928 O 1165.71 -4.41461 -3.2214 0
M  V30 12929 H 1162.8 -0.646476 -0.51575 0
M  V30 12930 H 1165.35 -1.65632 -0.369326 0
M  V30 12931 H 1164.12 -3.73312 -1.17277 0
M  V30 12932 H 1163.75 -2.92973 -2.68798 0
M  V30 12933 N 1164.74 0.6258 -1.44643 0
M  V30 12934 C 1165.65 1.76611 -1.5442 0
M  V30 12935 C 1166.67 1.68614 -0.429576 0
M  V30 12936 O 1167.84 1.89296 -0.687686 0
M  V30 12937 C 1164.91 3.13015 -1.49071 0
M  V30 12938 C 1163.97 3.32604 -2.71428 0
M  V30 12939 C 1163.2 4.62501 -2.66325 0
M  V30 12940 O 1163.43 5.43651 -1.72626 0
M  V30 12941 O 1162.36 4.84408 -3.57258 0
M  V30 12942 H 1166.19 1.71315 -2.50769 0
M  V30 12943 H 1163.77 0.787677 -1.26949 0
M  V30 12944 H 1165.65 3.94318 -1.48631 0
M  V30 12945 H 1164.33 3.18842 -0.558686 0
M  V30 12946 H 1163.24 2.50959 -2.77435 0
M  V30 12947 H 1164.57 3.31642 -3.63695 0
M  V30 12948 N 1166.22 1.31629 0.866686 0
M  V30 12949 C 1167.18 1.1951 1.95576 0
M  V30 12950 C 1168.18 0.121319 1.60342 0
M  V30 12951 O 1169.37 0.370832 1.70207 0
M  V30 12952 C 1166.51 0.835201 3.30511 0
M  V30 12953 H 1167.7 2.16285 2.07752 0
M  V30 12954 H 1165.25 1.15288 1.05539 0
M  V30 12955 H 1165.99 -0.131245 3.24034 0
M  V30 12956 H 1165.77 1.61142 3.57457 0
M  V30 12957 H 1167.26 0.774393 4.10357 0
M  V30 12958 N 1167.7 -1.08142 1.14644 0
M  V30 12959 C 1168.63 -2.15022 0.793614 0
M  V30 12960 C 1169.64 -1.61679 -0.190729 0
M  V30 12961 O 1170.83 -1.78472 0.0313696 0
M  V30 12962 C 1167.93 -3.38532 0.157785 0
M  V30 12963 C 1167.11 -4.21252 1.17753 0
M  V30 12964 C 1166.17 -5.23158 0.564968 0
M  V30 12965 O 1165.19 -5.5578 1.22869 0
M  V30 12966 N 1166.39 -5.7677 -0.657022 0
M  V30 12967 H 1169.16 -2.45893 1.71338 0
M  V30 12968 H 1166.72 -1.23976 1.04122 0
M  V30 12969 H 1168.71 -4.03834 -0.264586 0
M  V30 12970 H 1167.28 -3.05441 -0.665168 0
M  V30 12971 H 1166.5 -3.51888 1.77675 0
M  V30 12972 H 1167.79 -4.73335 1.86632 0
M  V30 12973 H 1167.19 -5.52503 -1.21478 0
M  V30 12974 H 1165.74 -6.4374 -1.02186 0
M  V30 12975 N 1169.18 -0.941978 -1.26351 0
M  V30 12976 C 1170.09 -0.45833 -2.30079 0
M  V30 12977 C 1171.1 0.468084 -1.67586 0
M  V30 12978 O 1172.28 0.347418 -1.98381 0
M  V30 12979 C 1169.34 0.26797 -3.45663 0
M  V30 12980 C 1168.41 -0.695102 -4.23635 0
M  V30 12981 C 1167.64 -0.003369 -5.337 0
M  V30 12982 O 1167.86 1.21342 -5.57344 0
M  V30 12983 O 1166.8 -0.682476 -5.98018 0
M  V30 12984 H 1170.62 -1.31998 -2.73514 0
M  V30 12985 H 1168.21 -0.707897 -1.31564 0
M  V30 12986 H 1170.09 0.677061 -4.15925 0
M  V30 12987 H 1168.76 1.105 -3.04256 0
M  V30 12988 H 1167.67 -1.15415 -3.55851 0
M  V30 12989 H 1169 -1.49977 -4.68794 0
M  V30 12990 N 1170.66 1.40747 -0.709091 0
M  V30 12991 C 1171.62 2.29118 -0.0611607 0
M  V30 12992 C 1172.62 1.45049 0.694081 0
M  V30 12993 O 1173.81 1.66039 0.526952 0
M  V30 12994 C 1170.94 3.28154 0.923447 0
M  V30 12995 H 1172.13 2.87913 -0.839413 0
M  V30 12996 H 1169.69 1.4896 -0.473363 0
M  V30 12997 H 1170.42 2.74366 1.72899 0
M  V30 12998 H 1170.21 3.90207 0.384862 0
M  V30 12999 H 1171.7 3.94343 1.37417 0
M  V30 13000 N 1172.13 0.454803 1.50895 0
M  V30 13001 C 1173.04 -0.353495 2.31921 0
M  V30 13002 C 1174.06 -1.01136 1.41589 0
M  V30 13003 O 1175.24 -1.00291 1.74653 0
M  V30 13004 C 1172.3 -1.43032 3.15821 0
M  V30 13005 C 1171.36 -0.790763 4.21954 0
M  V30 13006 C 1170.59 -1.81628 5.01843 0
M  V30 13007 O 1170.82 -3.04078 4.8259 0
M  V30 13008 O 1169.75 -1.39713 5.8546 0
M  V30 13009 H 1173.58 0.308463 3.02129 0
M  V30 13010 H 1171.16 0.216971 1.47816 0
M  V30 13011 H 1173.04 -2.05444 3.67927 0
M  V30 13012 H 1171.72 -2.07605 2.48358 0
M  V30 13013 H 1170.63 -0.128127 3.73881 0
M  V30 13014 H 1171.96 -0.188251 4.9184 0
M  V30 13015 N 1173.61 -1.56489 0.186789 0
M  V30 13016 C 1174.85 -1.99239 -0.456427 0
M  V30 13017 C 1175.22 -1.07076 -1.5937 0
M  V30 13018 O 1176.42 -1.39028 -2.30054 0
M  V30 13019 C 1174.69 -3.45553 -0.912587 0
M  V30 13020 S 1176.25 -4.1033 -1.55481 0
M  V30 13021 H 1173.06 -0.695792 -0.146267 0
M  V30 13022 H 1175.67 -1.93369 0.287899 0
M  V30 13023 H 1174.37 -4.10332 -0.0746877 0
M  V30 13024 H 1173.9 -3.55222 -1.69058 0
M  V30 13025 H 1175.92 -4.06653 -2.84338 0
M  V30 13026 N 1175.09 0.086862 -1.5736 0
M  V30 13027 C 1176.02 1.13117 -1.99342 0
M  V30 13028 C 1177.03 1.35849 -0.897151 0
M  V30 13029 O 1178.22 1.34356 -1.17519 0
M  V30 13030 C 1175.32 2.48511 -2.30425 0
M  V30 13031 C 1174.5 2.45942 -3.61706 0
M  V30 13032 C 1173.56 3.63327 -3.80631 0
M  V30 13033 O 1172.58 3.45443 -4.52392 0
M  V30 13034 N 1173.78 4.83118 -3.21835 0
M  V30 13035 H 1176.55 0.773782 -2.89539 0
M  V30 13036 H 1174.11 0.275731 -1.59535 0
M  V30 13037 H 1176.1 3.25656 -2.40272 0
M  V30 13038 H 1174.67 2.76308 -1.46194 0
M  V30 13039 H 1173.89 1.54287 -3.62752 0
M  V30 13040 H 1175.18 2.41313 -4.47935 0
M  V30 13041 H 1174.58 5.00552 -2.6356 0
M  V30 13042 H 1173.13 5.57827 -3.37154 0
M  V30 13043 N 1176.57 1.53483 0.357892 0
M  V30 13044 C 1177.53 1.79782 1.42166 0
M  V30 13045 C 1178.53 0.668441 1.46248 0
M  V30 13046 O 1179.72 0.936677 1.46874 0
M  V30 13047 C 1176.85 1.92686 2.8122 0
M  V30 13048 H 1178.05 2.74794 1.20117 0
M  V30 13049 H 1175.6 1.44677 0.591468 0
M  V30 13050 H 1176.33 0.997669 3.08573 0
M  V30 13051 H 1176.12 2.74837 2.79655 0
M  V30 13052 H 1177.61 2.14599 3.58242 0
M  V30 13053 N 1178.05 -0.61812 1.44973 0
M  V30 13054 C 1178.98 -1.74035 1.55673 0
M  V30 13055 C 1179.96 -1.65112 0.4089 0
M  V30 13056 O 1181.14 -1.83673 0.630698 0
M  V30 13057 C 1178.27 -3.1261 1.51303 0
M  V30 13058 C 1177.23 -3.36334 2.64696 0
M  V30 13059 C 1176.55 -4.75072 2.45378 0
M  V30 13060 C 1177.85 -3.27618 4.06772 0
M  V30 13061 H 1179.55 -1.65336 2.49608 0
M  V30 13062 H 1177.09 -0.794003 1.20132 0
M  V30 13063 H 1179.04 -3.90906 1.57388 0
M  V30 13064 H 1177.77 -3.22123 0.538914 0
M  V30 13065 H 1176.43 -2.60423 2.58022 0
M  V30 13066 H 1176.08 -4.81306 1.46129 0
M  V30 13067 H 1175.78 -4.91903 3.21412 0
M  V30 13068 H 1177.3 -5.55582 2.53301 0
M  V30 13069 H 1178.71 -3.95802 4.14746 0
M  V30 13070 H 1177.11 -3.55981 4.83113 0
M  V30 13071 H 1178.18 -2.25219 4.29423 0
M  V30 13072 N 1179.52 -1.32087 -0.859693 0
M  V30 13073 C 1180.94 -1.10968 -1.14709 0
M  V30 13074 C 1181.14 0.113139 -2.01182 0
M  V30 13075 O 1180.2 0.799499 -2.39508 0
M  V30 13076 C 1181.51 -2.38657 -1.8293 0
M  V30 13077 C 1183.06 -2.44366 -1.95587 0
M  V30 13078 C 1183.53 -3.71963 -2.67222 0
M  V30 13079 N 1185.02 -3.72916 -2.7475 0
M  V30 13080 C 1185.76 -4.68346 -3.30816 0
M  V30 13081 N 1185.25 -5.74139 -3.87732 0
M  V30 13082 N 1187.05 -4.55851 -3.28872 0
M  V30 13083 H 1179.2 -2.10497 -0.283711 0
M  V30 13084 H 1181.46 -0.929108 -0.188315 0
M  V30 13085 H 1181.17 -3.2803 -1.26844 0
M  V30 13086 H 1181.04 -2.49236 -2.83128 0
M  V30 13087 H 1183.43 -1.55456 -2.50833 0
M  V30 13088 H 1183.51 -2.37744 -0.944001 0
M  V30 13089 H 1183.15 -4.61245 -2.1264 0
M  V30 13090 H 1183.08 -3.75855 -3.68837 0
M  V30 13091 H 1185.57 -2.96447 -2.34367 0
M  V30 13092 H 1185.89 -6.43021 -4.28654 0
M  V30 13093 H 1184.23 -5.779 -3.86078 0
M  V30 13094 H 1187.42 -3.72371 -2.83651 0
M  V30 13095 H 1187.6 -5.30398 -3.72266 0
M  V30 13096 N 1181 1.07532 -1.15215 0
M  V30 13097 C 1181.93 2.1668 -0.870171 0
M  V30 13098 C 1182.91 1.69161 0.178483 0
M  V30 13099 O 1184.1 1.94172 0.0332489 0
M  V30 13100 C 1181.23 3.45464 -0.356666 0
M  V30 13101 C 1180.18 4.06424 -1.34179 0
M  V30 13102 C 1179.51 5.30266 -0.687206 0
M  V30 13103 C 1180.81 4.46666 -2.70715 0
M  V30 13104 H 1182.5 2.40526 -1.7829 0
M  V30 13105 H 1180.05 1.15598 -0.858665 0
M  V30 13106 H 1182 4.21144 -0.146947 0
M  V30 13107 H 1180.72 3.21199 0.591527 0
M  V30 13108 H 1179.38 3.32786 -1.53783 0
M  V30 13109 H 1179.03 5.0229 0.267077 0
M  V30 13110 H 1178.73 5.72009 -1.34462 0
M  V30 13111 H 1180.26 6.08653 -0.487218 0
M  V30 13112 H 1181.67 5.13483 -2.54966 0
M  V30 13113 H 1180.07 4.99355 -3.32813 0
M  V30 13114 H 1181.14 3.58123 -3.26919 0
M  V30 13115 N 1182.48 0.948665 1.2585 0
M  V30 13116 C 1183.41 0.421458 2.25292 0
M  V30 13117 C 1184.43 -0.459389 1.56184 0
M  V30 13118 O 1185.61 -0.268627 1.76467 0
M  V30 13119 C 1182.71 -0.412653 3.36378 0
M  V30 13120 C 1181.89 0.453792 4.3504 0
M  V30 13121 C 1180.95 -0.321127 5.25219 0
M  V30 13122 O 1179.97 0.278424 5.68519 0
M  V30 13123 N 1181.17 -1.61576 5.5756 0
M  V30 13124 H 1183.94 1.27636 2.71162 0
M  V30 13125 H 1181.5 0.818367 1.39694 0
M  V30 13126 H 1183.49 -0.938637 3.93664 0
M  V30 13127 H 1182.06 -1.16839 2.89944 0
M  V30 13128 H 1181.28 1.16093 3.76718 0
M  V30 13129 H 1182.57 1.04538 4.97945 0
M  V30 13130 H 1181.97 -2.12488 5.24276 0
M  V30 13131 H 1180.53 -2.08783 6.17457 0
M  V30 13132 N 1183.96 -1.40369 0.716545 0
M  V30 13133 C 1184.89 -2.33365 0.0793533 0
M  V30 13134 C 1185.87 -1.52943 -0.744482 0
M  V30 13135 O 1187.05 -1.81406 -0.693212 0
M  V30 13136 C 1184.18 -3.36928 -0.842429 0
M  V30 13137 C 1183.14 -4.2782 -0.124142 0
M  V30 13138 C 1182.46 -5.21928 -1.1617 0
M  V30 13139 C 1183.76 -5.12199 1.02224 0
M  V30 13140 H 1185.46 -2.86899 0.856115 0
M  V30 13141 H 1183 -1.37946 0.413138 0
M  V30 13142 H 1184.96 -4.00925 -1.29759 0
M  V30 13143 H 1183.68 -2.81791 -1.6511 0
M  V30 13144 H 1182.34 -3.65277 0.311201 0
M  V30 13145 H 1181.99 -4.63096 -1.96345 0
M  V30 13146 H 1181.69 -5.83582 -0.685978 0
M  V30 13147 H 1183.21 -5.88802 -1.61694 0
M  V30 13148 H 1184.63 -5.69644 0.646399 0
M  V30 13149 H 1183.02 -5.82901 1.4264 0
M  V30 13150 H 1184.09 -4.4812 1.85246 0
M  V30 13151 N 1185.44 -0.462799 -1.50652 0
M  V30 13152 C 1186.37 0.371837 -2.26164 0
M  V30 13153 C 1187.38 0.96432 -1.31167 0
M  V30 13154 O 1188.57 0.854134 -1.56738 0
M  V30 13155 C 1185.67 1.53469 -3.0216 0
M  V30 13156 C 1184.84 1.0565 -4.24449 0
M  V30 13157 C 1183.9 2.09243 -4.82808 0
M  V30 13158 O 1182.93 1.67641 -5.43953 0
M  V30 13159 N 1184.13 3.41976 -4.69076 0
M  V30 13160 H 1186.9 -0.275476 -2.98431 0
M  V30 13161 H 1184.46 -0.293109 -1.59225 0
M  V30 13162 H 1186.45 2.22446 -3.38083 0
M  V30 13163 H 1185.02 2.08685 -2.32743 0
M  V30 13164 H 1184.24 0.192895 -3.93728 0
M  V30 13165 H 1185.53 0.714796 -5.03754 0
M  V30 13166 H 1184.92 3.78491 -4.20429 0
M  V30 13167 H 1183.48 4.06775 -5.09291 0
M  V30 13168 N 1186.91 1.56388 -0.195085 0
M  V30 13169 C 1187.85 2.16316 0.757643 0
M  V30 13170 C 1188.86 1.12498 1.17678 0
M  V30 13171 O 1190.05 1.39591 1.11251 0
M  V30 13172 C 1187.15 2.7104 2.03447 0
M  V30 13173 C 1186.32 3.99759 1.77514 0
M  V30 13174 C 1185.38 4.3931 2.89644 0
M  V30 13175 O 1184.41 5.06732 2.59252 0
M  V30 13176 N 1185.61 4.02813 4.17998 0
M  V30 13177 H 1188.37 2.98696 0.24517 0
M  V30 13178 H 1185.93 1.61895 -0.0131194 0
M  V30 13179 H 1187.93 2.94483 2.776 0
M  V30 13180 H 1186.5 1.93114 2.45817 0
M  V30 13181 H 1185.72 3.84448 0.8714 0
M  V30 13182 H 1187 4.83782 1.57585 0
M  V30 13183 H 1186.4 3.4858 4.45543 0
M  V30 13184 H 1184.96 4.31206 4.88779 0
M  V30 13185 N 1188.39 -0.0785156 1.57404 0
M  V30 13186 C 1189.3 -1.11203 2.0657 0
M  V30 13187 C 1190.32 -1.42822 0.993872 0
M  V30 13188 O 1191.49 -1.53133 1.30814 0
M  V30 13189 C 1188.56 -2.40812 2.4942 0
M  V30 13190 C 1187.62 -2.16225 3.70871 0
M  V30 13191 C 1186.85 -3.39654 4.11668 0
M  V30 13192 O 1187.08 -4.48521 3.524 0
M  V30 13193 O 1186.01 -3.28263 5.04507 0
M  V30 13194 H 1189.84 -0.724381 2.94935 0
M  V30 13195 H 1187.42 -0.292184 1.46515 0
M  V30 13196 H 1189.3 -3.17101 2.77534 0
M  V30 13197 H 1187.98 -2.7897 1.64187 0
M  V30 13198 H 1186.89 -1.37663 3.4785 0
M  V30 13199 H 1188.22 -1.82951 4.56935 0
M  V30 13200 N 1189.87 -1.5367 -0.349747 0
M  V30 13201 C 1190.8 -1.7603 -1.4522 0
M  V30 13202 C 1191.78 -0.609171 -1.50758 0
M  V30 13203 O 1192.97 -0.843613 -1.68569 0
M  V30 13204 C 1190.09 -1.85336 -2.83493 0
M  V30 13205 C 1189.14 -3.07438 -2.95608 0
M  V30 13206 S 1189.97 -4.66625 -2.62719 0
M  V30 13207 C 1191.13 -4.78802 -4.03112 0
M  V30 13208 H 1191.36 -2.69263 -1.26035 0
M  V30 13209 H 1188.89 -1.4446 -0.545044 0
M  V30 13210 H 1190.85 -1.91383 -3.63157 0
M  V30 13211 H 1189.51 -0.931267 -2.99977 0
M  V30 13212 H 1188.71 -3.10606 -3.96913 0
M  V30 13213 H 1188.31 -2.99585 -2.23886 0
M  V30 13214 H 1190.6 -4.5983 -4.97557 0
M  V30 13215 H 1191.54 -5.80886 -4.04941 0
M  V30 13216 H 1191.95 -4.07305 -3.90849 0
M  V30 13217 N 1191.35 0.610423 -1.45298 0
M  V30 13218 C 1192.26 1.74964 -1.56285 0
M  V30 13219 C 1193.27 1.68149 -0.447436 0
M  V30 13220 O 1194.45 1.88556 -0.707725 0
M  V30 13221 C 1191.52 3.11417 -1.52383 0
M  V30 13222 C 1190.58 3.29707 -2.7494 0
M  V30 13223 C 1189.81 4.5965 -2.71215 0
M  V30 13224 O 1190.03 5.41789 -1.78383 0
M  V30 13225 O 1188.97 4.80591 -3.62375 0
M  V30 13226 H 1192.79 1.68646 -2.52571 0
M  V30 13227 H 1190.38 0.774168 -1.27777 0
M  V30 13228 H 1192.26 3.9272 -1.52805 0
M  V30 13229 H 1190.93 3.18232 -0.592472 0
M  V30 13230 H 1189.84 2.48003 -2.80081 0
M  V30 13231 H 1191.17 3.27766 -3.67192 0
M  V30 13232 N 1192.83 1.32541 0.852676 0
M  V30 13233 C 1193.76 1.24254 1.97694 0
M  V30 13234 C 1194.74 0.125971 1.69633 0
M  V30 13235 O 1195.92 0.31347 1.91653 0
M  V30 13236 C 1193.05 0.966874 3.3357 0
M  V30 13237 C 1192.01 2.0449 3.75989 0
M  V30 13238 C 1191.33 1.6216 5.09518 0
M  V30 13239 C 1192.63 3.46013 3.91244 0
M  V30 13240 H 1194.33 2.18317 2.04886 0
M  V30 13241 H 1191.87 1.05101 0.984371 0
M  V30 13242 H 1193.83 0.895444 4.11776 0
M  V30 13243 H 1192.55 -0.0093893 3.26599 0
M  V30 13244 H 1191.21 2.10651 3.00036 0
M  V30 13245 H 1190.86 0.632729 4.99005 0
M  V30 13246 H 1190.56 2.3429 5.38871 0
M  V30 13247 H 1192.08 1.56457 5.90215 0
M  V30 13248 H 1193.49 3.4243 4.59799 0
M  V30 13249 H 1191.89 4.1651 4.32017 0
M  V30 13250 H 1192.96 3.8553 2.941 0
M  V30 13251 N 1194.3 -1.0692 1.15784 0
M  V30 13252 C 1195.23 -2.16216 0.881649 0
M  V30 13253 C 1196.22 -1.69253 -0.16951 0
M  V30 13254 O 1197.4 -1.94186 -0.0229511 0
M  V30 13255 C 1194.53 -3.4527 0.374982 0
M  V30 13256 C 1193.48 -4.05706 1.36332 0
M  V30 13257 C 1192.81 -5.29894 0.715317 0
M  V30 13258 C 1194.11 -4.45224 2.7308 0
M  V30 13259 H 1195.8 -2.39577 1.79563 0
M  V30 13260 H 1193.35 -1.15141 0.864784 0
M  V30 13261 H 1195.3 -4.2106 0.169279 0
M  V30 13262 H 1194.03 -3.21508 -0.574485 0
M  V30 13263 H 1192.69 -3.31965 1.55546 0
M  V30 13264 H 1192.33 -5.02425 -0.240436 0
M  V30 13265 H 1192.03 -5.71287 1.37494 0
M  V30 13266 H 1193.56 -6.08386 0.519489 0
M  V30 13267 H 1194.97 -5.12124 2.57686 0
M  V30 13268 H 1193.37 -4.97583 3.35457 0
M  V30 13269 H 1194.44 -3.56384 3.28813 0
M  V30 13270 N 1195.78 -0.955326 -1.25345 0
M  V30 13271 C 1196.73 -0.467205 -2.2786 0
M  V30 13272 C 1197.72 0.462873 -1.62954 0
M  V30 13273 O 1198.93 0.339526 -1.76769 0
M  V30 13274 H 1195.31 -0.132586 -0.74022 0
M  V30 13275 H 1197.28 -1.34406 -2.66416 0
M  V30 13276 C 1196.03 0.238898 -3.46878 0
M  V30 13277 H 1195.35 -0.467644 -3.97056 0
M  V30 13278 H 1196.79 0.544444 -4.2049 0
M  V30 13279 C 1195.25 1.46164 -3.03542 0
M  V30 13280 O 1195.78 2.55933 -3.09615 0
M  V30 13281 N 1193.98 1.32324 -2.58725 0
M  V30 13282 H 1193.53 0.430131 -2.53984 0
M  V30 13283 H 1193.49 2.14253 -2.30094 0
M  V30 13284 N 1197.26 1.39987 -0.723979 0
M  V30 13285 C 1198.22 2.29041 -0.0854583 0
M  V30 13286 C 1199.22 1.45777 0.678657 0
M  V30 13287 O 1200.41 1.66588 0.509311 0
M  V30 13288 C 1197.55 3.29115 0.88859 0
M  V30 13289 H 1198.74 2.87006 -0.869903 0
M  V30 13290 H 1196.29 1.48449 -0.489136 0
M  V30 13291 H 1197.03 2.76184 1.69979 0
M  V30 13292 H 1196.81 3.90593 0.343454 0
M  V30 13293 H 1198.3 3.95778 1.33227 0
M  V30 13294 N 1198.74 0.470782 1.50404 0
M  V30 13295 C 1199.97 -0.0818945 2.06438 0
M  V30 13296 C 1200.38 -1.34085 1.33483 0
M  V30 13297 O 1199.72 -1.79346 0.397565 0
M  V30 13298 C 1199.78 -0.436252 3.56843 0
M  V30 13299 C 1199.45 0.720641 4.51282 0
M  V30 13300 C 1200.44 1.60258 4.94584 0
M  V30 13301 C 1198.13 0.910879 4.93972 0
M  V30 13302 C 1200.12 2.65916 5.79282 0
M  V30 13303 C 1197.81 1.97069 5.78452 0
M  V30 13304 C 1198.81 2.84319 6.21008 0
M  V30 13305 O 1198.5 3.88476 7.03805 0
M  V30 13306 H 1198.23 0.00361688 0.67599 0
M  V30 13307 H 1200.78 0.658488 1.94559 0
M  V30 13308 H 1199.01 -1.22982 3.66623 0
M  V30 13309 H 1200.7 -0.923976 3.95244 0
M  V30 13310 H 1201.47 1.46729 4.62272 0
M  V30 13311 H 1197.35 0.241225 4.60368 0
M  V30 13312 H 1200.89 3.3405 6.12419 0
M  V30 13313 H 1196.79 2.10605 6.10177 0
M  V30 13314 H 1197.55 3.8546 7.22054 0
M  V30 13315 N 1200.22 -1.56282 0.203376 0
M  V30 13316 C 1201.15 -2.16714 -0.74616 0
M  V30 13317 C 1202.16 -1.13121 -1.17079 0
M  V30 13318 O 1203.35 -1.40179 -1.10509 0
M  V30 13319 C 1200.45 -2.72115 -2.02007 0
M  V30 13320 C 1199.62 -4.00695 -1.75391 0
M  V30 13321 C 1198.68 -4.40839 -2.8731 0
M  V30 13322 O 1197.71 -5.081 -2.56561 0
M  V30 13323 N 1198.91 -4.05024 -4.15856 0
M  V30 13324 H 1201.68 -2.98821 -0.229326 0
M  V30 13325 H 1199.24 -1.61885 0.0217049 0
M  V30 13326 H 1201.23 -2.95951 -2.76035 0
M  V30 13327 H 1199.8 -1.94415 -2.44789 0
M  V30 13328 H 1199.02 -3.84905 -0.851 0
M  V30 13329 H 1200.31 -4.8461 -1.55017 0
M  V30 13330 H 1199.71 -3.50938 -4.43688 0
M  V30 13331 H 1198.26 -4.33792 -4.86485 0
M  V30 13332 N 1201.7 0.070167 -1.57444 0
M  V30 13333 C 1202.92 0.785703 -1.91941 0
M  V30 13334 C 1203.35 1.70243 -0.799932 0
M  V30 13335 O 1202.7 1.79608 0.247139 0
M  V30 13336 C 1202.75 1.55398 -3.25398 0
M  V30 13337 O 1201.86 2.66475 -3.14746 0
M  V30 13338 H 1201.2 0.214245 -0.628486 0
M  V30 13339 H 1203.73 0.0379243 -2.04565 0
M  V30 13340 H 1203.74 1.93287 -3.5931 0
M  V30 13341 H 1202.41 0.881366 -4.06454 0
M  V30 13342 H 1200.99 2.3143 -2.92394 0
M  V30 13343 N 1203.17 1.53854 0.341593 0
M  V30 13344 C 1204.12 1.81979 1.41959 0
M  V30 13345 C 1205.09 0.665616 1.5218 0
M  V30 13346 O 1206.28 0.910246 1.67688 0
M  V30 13347 C 1203.42 2.03681 2.78583 0
M  V30 13348 C 1202.53 3.31389 2.77137 0
M  V30 13349 C 1201.66 3.43148 4.05491 0
M  V30 13350 C 1200.7 4.64799 3.98282 0
M  V30 13351 N 1199.84 4.73581 5.18329 0
M  V30 13352 H 1204.68 2.73953 1.17275 0
M  V30 13353 H 1202.22 1.35689 0.568062 0
M  V30 13354 H 1204.17 2.14253 3.57983 0
M  V30 13355 H 1202.8 1.15017 3.01614 0
M  V30 13356 H 1201.86 3.29649 1.89832 0
M  V30 13357 H 1203.17 4.20885 2.67689 0
M  V30 13358 H 1202.32 3.53163 4.93316 0
M  V30 13359 H 1201.06 2.51712 4.17723 0
M  V30 13360 H 1200.07 4.54859 3.08842 0
M  V30 13361 H 1201.29 5.57601 3.87631 0
M  V30 13362 H 1199.24 3.85055 5.31102 0
M  V30 13363 H 1199.15 5.57016 5.11145 0
M  V30 13364 H 1200.42 4.87908 6.0792 0
M  V30 13365 N 1204.65 -0.602709 1.4562 0
M  V30 13366 C 1205.9 -1.35769 1.49163 0
M  V30 13367 C 1206.21 -1.95102 0.139485 0
M  V30 13368 O 1207.42 -2.71449 0.0525919 0
M  V30 13369 C 1205.88 -2.45959 2.62739 0
M  V30 13370 C 1205.48 -1.93017 4.04288 0
M  V30 13371 C 1207.23 -3.22926 2.75534 0
M  V30 13372 C 1205.13 -3.00718 5.09237 0
M  V30 13373 H 1204.06 -0.510317 0.555061 0
M  V30 13374 H 1206.72 -0.645434 1.71774 0
M  V30 13375 H 1205.1 -3.19892 2.3342 0
M  V30 13376 H 1206.27 -1.2576 4.43307 0
M  V30 13377 H 1204.59 -1.2878 3.95986 0
M  V30 13378 H 1207.18 -4.03267 3.51112 0
M  V30 13379 H 1207.53 -3.74243 1.82339 0
M  V30 13380 H 1208.06 -2.56095 3.04402 0
M  V30 13381 H 1204.8 -2.54312 6.04157 0
M  V30 13382 H 1204.32 -3.66526 4.74783 0
M  V30 13383 H 1206 -3.65016 5.34202 0
M  V30 13384 N 1206.13 -1.32992 -0.845635 0
M  V30 13385 C 1207.08 -1.22682 -1.95494 0
M  V30 13386 C 1208.05 -0.106942 -1.65755 0
M  V30 13387 O 1209.23 -0.28405 -1.88674 0
M  V30 13388 C 1206.37 -0.965068 -3.31331 0
M  V30 13389 C 1205.48 -2.17058 -3.7351 0
M  V30 13390 C 1204.62 -1.84355 -4.98183 0
M  V30 13391 C 1203.66 -3.01176 -5.32878 0
M  V30 13392 N 1202.8 -2.68506 -6.48729 0
M  V30 13393 H 1207.64 -2.17562 -2.03644 0
M  V30 13394 H 1205.17 -1.08194 -0.996613 0
M  V30 13395 H 1207.13 -0.793771 -4.09579 0
M  V30 13396 H 1205.76 -0.0530285 -3.22756 0
M  V30 13397 H 1204.81 -2.45185 -2.90841 0
M  V30 13398 H 1206.12 -3.04413 -3.95138 0
M  V30 13399 H 1205.28 -1.6383 -5.84162 0
M  V30 13400 H 1204.02 -0.942264 -4.78511 0
M  V30 13401 H 1203.02 -3.22323 -4.45408 0
M  V30 13402 H 1204.25 -3.9205 -5.54503 0
M  V30 13403 H 1202.19 -1.80929 -6.30556 0
M  V30 13404 H 1202.11 -3.49392 -6.70419 0
M  V30 13405 H 1203.38 -2.51432 -7.37836 0
M  V30 13406 N 1207.61 1.06304 -1.1635 0
M  V30 13407 C 1208.54 2.13209 -0.81346 0
M  V30 13408 C 1209.52 1.61174 0.21484 0
M  V30 13409 O 1210.7 1.8824 0.0989458 0
M  V30 13410 C 1207.83 3.38039 -0.211498 0
M  V30 13411 C 1206.88 4.08875 -1.21339 0
M  V30 13412 S 1207.71 4.58894 -2.76001 0
M  V30 13413 C 1208.86 5.86985 -2.17254 0
M  V30 13414 H 1209.1 2.42572 -1.7189 0
M  V30 13415 H 1206.63 1.18737 -0.986957 0
M  V30 13416 H 1208.59 4.10296 0.129349 0
M  V30 13417 H 1207.25 3.06834 0.671705 0
M  V30 13418 H 1206.44 4.98528 -0.740631 0
M  V30 13419 H 1206.04 3.42632 -1.49932 0
M  V30 13420 H 1208.34 6.59738 -1.54115 0
M  V30 13421 H 1209.28 6.38991 -3.05117 0
M  V30 13422 H 1209.69 5.41012 -1.61141 0
M  V30 13423 N 1209.09 0.96196 1.24836 0
M  V30 13424 C 1210.02 0.445329 2.24832 0
M  V30 13425 C 1211.03 -0.442797 1.56663 0
M  V30 13426 O 1212.22 -0.249896 1.76742 0
M  V30 13427 C 1209.32 -0.376953 3.36797 0
M  V30 13428 C 1208.49 0.499908 4.34534 0
M  V30 13429 C 1207.55 -0.265402 5.2553 0
M  V30 13430 O 1206.58 0.338707 5.68191 0
M  V30 13431 N 1207.78 -1.55654 5.59243 0
M  V30 13432 H 1210.54 1.30505 2.69793 0
M  V30 13433 H 1208.11 0.833137 1.38818 0
M  V30 13434 H 1210.1 -0.896831 3.94638 0
M  V30 13435 H 1208.67 -1.13757 2.91167 0
M  V30 13436 H 1207.89 1.20082 3.75465 0
M  V30 13437 H 1209.18 1.09814 4.96808 0
M  V30 13438 H 1208.57 -2.06916 5.265 0
M  V30 13439 H 1207.13 -2.02223 6.19636 0
M  V30 13440 N 1210.56 -1.39601 0.731392 0
M  V30 13441 C 1211.79 -2.04887 0.28789 0
M  V30 13442 C 1212.21 -1.55138 -1.076 0
M  V30 13443 O 1211.56 -0.71471 -1.67923 0
M  V30 13444 C 1211.61 -3.6044 0.276629 0
M  V30 13445 O 1211.34 -4.08358 1.58668 0
M  V30 13446 C 1212.84 -4.4292 -0.183485 0
M  V30 13447 H 1210.06 -0.658976 0.126459 0
M  V30 13448 H 1212.6 -1.78716 0.994031 0
M  V30 13449 H 1210.76 -3.85526 -0.380597 0
M  V30 13450 H 1211.17 -5.02659 1.4978 0
M  V30 13451 H 1212.64 -5.51822 -0.140207 0
M  V30 13452 H 1213.12 -4.2168 -1.22811 0
M  V30 13453 H 1213.73 -4.22976 0.444042 0
M  V30 13454 N 1212.04 -0.478751 -1.50152 0
M  V30 13455 C 1212.95 0.316554 -2.32455 0
M  V30 13456 C 1213.97 0.98871 -1.4318 0
M  V30 13457 O 1215.14 0.974998 -1.76226 0
M  V30 13458 C 1212.21 1.3799 -3.18056 0
M  V30 13459 C 1211.27 0.723534 -4.23159 0
M  V30 13460 C 1210.5 1.73621 -5.0467 0
M  V30 13461 O 1210.73 2.96362 -4.87366 0
M  V30 13462 O 1209.66 1.30381 -5.87609 0
M  V30 13463 H 1213.49 -0.356491 -3.016 0
M  V30 13464 H 1211.07 -0.24046 -1.47452 0
M  V30 13465 H 1212.95 1.99565 -3.71149 0
M  V30 13466 H 1211.63 2.03627 -2.5163 0
M  V30 13467 H 1210.54 0.0686296 -3.74037 0
M  V30 13468 H 1211.87 0.109979 -4.92077 0
M  V30 13469 N 1213.52 1.56172 -0.211661 0
M  V30 13470 C 1214.48 2.18602 0.688906 0
M  V30 13471 C 1215.48 1.14508 1.12892 0
M  V30 13472 O 1216.67 1.39799 1.03932 0
M  V30 13473 C 1213.81 2.80141 1.94253 0
M  V30 13474 H 1215 2.9955 0.144765 0
M  V30 13475 H 1212.55 1.56254 0.0379615 0
M  V30 13476 H 1213.29 2.03035 2.52878 0
M  V30 13477 H 1213.07 3.56358 1.63558 0
M  V30 13478 H 1214.56 3.28026 2.58436 0
M  V30 13479 N 1215 -0.0618163 1.57479 0
M  V30 13480 C 1215.93 -1.09931 2.01116 0
M  V30 13481 C 1216.94 -1.34405 0.91865 0
M  V30 13482 O 1218.13 -1.32469 1.19642 0
M  V30 13483 C 1215.23 -2.44814 2.34349 0
M  V30 13484 C 1214.41 -2.40157 3.65573 0
M  V30 13485 C 1213.46 -3.57226 3.86363 0
M  V30 13486 O 1212.49 -3.38202 4.5783 0
M  V30 13487 N 1213.69 -4.77937 3.2948 0
M  V30 13488 H 1216.46 -0.727621 2.90733 0
M  V30 13489 H 1214.02 -0.250315 1.59953 0
M  V30 13490 H 1216.01 -3.21792 2.45422 0
M  V30 13491 H 1214.58 -2.73947 1.50571 0
M  V30 13492 H 1213.8 -1.48496 3.65161 0
M  V30 13493 H 1215.09 -2.34156 4.51717 0
M  V30 13494 H 1214.49 -4.96296 2.7149 0
M  V30 13495 H 1213.04 -5.52392 3.45986 0
M  V30 13496 N 1216.48 -1.54033 -0.333429 0
M  V30 13497 C 1217.43 -1.7911 -1.4108 0
M  V30 13498 C 1218.41 -0.646699 -1.47332 0
M  V30 13499 O 1219.6 -0.906403 -1.52031 0
M  V30 13500 C 1216.73 -2.01314 -2.78078 0
M  V30 13501 C 1215.82 -3.21849 -2.76178 0
M  V30 13502 N 1216.21 -4.43109 -2.43903 0
M  V30 13503 C 1214.51 -3.23222 -3.07316 0
M  V30 13504 C 1215.21 -5.25004 -2.5049 0
M  V30 13505 N 1214.18 -4.61955 -2.86528 0
M  V30 13506 H 1217.99 -2.7045 -1.15039 0
M  V30 13507 H 1215.5 -1.53094 -0.541854 0
M  V30 13508 H 1217.5 -2.17417 -3.55718 0
M  V30 13509 H 1216.16 -1.11223 -3.05057 0
M  V30 13510 H 1217.17 -4.70282 -2.16922 0
M  V30 13511 H 1213.84 -2.43132 -3.39401 0
M  V30 13512 H 1215.23 -6.31812 -2.28611 0
M  V30 13513 N 1217.95 0.594978 -1.45938 0
M  V30 13514 C 1218.86 1.73296 -1.58132 0
M  V30 13515 C 1219.88 1.67665 -0.465245 0
M  V30 13516 O 1221.06 1.87794 -0.727684 0
M  V30 13517 C 1218.12 3.09783 -1.55677 0
M  V30 13518 C 1217.18 3.26772 -2.78422 0
M  V30 13519 C 1216.42 4.56748 -2.76075 0
M  V30 13520 O 1216.64 5.39867 -1.84119 0
M  V30 13521 O 1215.57 4.76721 -3.67452 0
M  V30 13522 H 1219.4 1.65957 -2.54346 0
M  V30 13523 H 1216.98 0.760572 -1.28591 0
M  V30 13524 H 1218.87 3.91077 -1.56961 0
M  V30 13525 H 1217.54 3.17585 -0.626191 0
M  V30 13526 H 1216.45 2.45018 -2.82696 0
M  V30 13527 H 1217.78 3.23853 -3.70648 0
M  V30 13528 N 1219.43 1.33438 0.838571 0
M  V30 13529 C 1220.85 1.12779 1.12929 0
M  V30 13530 C 1221.05 -0.0811188 2.01337 0
M  V30 13531 O 1220.1 -0.761294 2.4075 0
M  V30 13532 C 1221.42 2.41537 1.7911 0
M  V30 13533 C 1222.97 2.47447 1.91674 0
M  V30 13534 C 1223.44 3.76167 2.6127 0
M  V30 13535 N 1224.93 3.7724 2.68783 0
M  V30 13536 C 1225.67 4.7355 3.23323 0
M  V30 13537 N 1225.16 5.80235 3.78549 0
M  V30 13538 N 1226.96 4.61025 3.21578 0
M  V30 13539 H 1219.11 2.10921 0.250187 0
M  V30 13540 H 1221.37 0.931986 0.17351 0
M  V30 13541 H 1221.08 3.30006 1.21609 0
M  V30 13542 H 1220.95 2.53709 2.79127 0
M  V30 13543 H 1223.34 1.59427 2.48328 0
M  V30 13544 H 1223.42 2.39216 0.906058 0
M  V30 13545 H 1223.06 4.64569 2.05275 0
M  V30 13546 H 1222.99 3.81675 3.62811 0
M  V30 13547 H 1225.48 3.00138 2.29621 0
M  V30 13548 H 1225.8 6.49759 4.1837 0
M  V30 13549 H 1224.14 5.83969 3.76836 0
M  V30 13550 H 1227.33 3.76836 2.77691 0
M  V30 13551 H 1227.5 5.36253 3.63781 0
M  V30 13552 N 1220.91 -1.05686 1.16912 0
M  V30 13553 C 1221.82 -2.16824 0.8958 0
M  V30 13554 C 1222.84 -1.73482 -0.134215 0
M  V30 13555 O 1224.01 -2.01352 0.0438776 0
M  V30 13556 C 1221.08 -3.44298 0.407427 0
M  V30 13557 C 1220.14 -4.02114 1.50342 0
M  V30 13558 C 1219.37 -5.23503 1.03826 0
M  V30 13559 O 1219.59 -5.70295 -0.109579 0
M  V30 13560 O 1218.53 -5.73432 1.8292 0
M  V30 13561 H 1222.35 -2.42725 1.82533 0
M  V30 13562 H 1219.94 -1.15339 0.949589 0
M  V30 13563 H 1221.82 -4.21159 0.142356 0
M  V30 13564 H 1220.5 -3.19908 -0.494009 0
M  V30 13565 H 1219.4 -3.26715 1.82231 0
M  V30 13566 H 1220.74 -4.30811 2.38039 0
M  V30 13567 N 1222.39 -0.968567 -1.24324 0
M  V30 13568 C 1223.32 -0.518323 -2.27674 0
M  V30 13569 C 1224.3 0.442479 -1.64244 0
M  V30 13570 O 1225.48 0.338416 -1.91229 0
M  V30 13571 C 1222.61 0.191459 -3.46772 0
M  V30 13572 C 1221.57 -0.685449 -4.22476 0
M  V30 13573 C 1220.89 0.155873 -5.34473 0
M  V30 13574 C 1222.19 -1.97047 -4.83704 0
M  V30 13575 H 1223.89 -1.38215 -2.65588 0
M  V30 13576 H 1221.43 -0.66604 -1.27671 0
M  V30 13577 H 1223.39 0.517667 -4.18208 0
M  V30 13578 H 1222.11 1.08965 -3.07887 0
M  V30 13579 H 1220.77 -0.994942 -3.52841 0
M  V30 13580 H 1220.42 1.05424 -4.91828 0
M  V30 13581 H 1220.12 -0.427655 -5.86042 0
M  V30 13582 H 1221.64 0.476733 -6.08736 0
M  V30 13583 H 1223.06 -1.70979 -5.4721 0
M  V30 13584 H 1221.45 -2.50079 -5.45509 0
M  V30 13585 H 1222.52 -2.66484 -4.0511 0
M  V30 13586 N 1223.87 1.39211 -0.738786 0
M  V30 13587 C 1224.8 2.29117 -0.0616489 0
M  V30 13588 C 1225.81 1.47008 0.699462 0
M  V30 13589 O 1227 1.70041 0.542998 0
M  V30 13590 C 1224.1 3.25692 0.936893 0
M  V30 13591 C 1223.27 4.3676 0.236515 0
M  V30 13592 C 1222.33 5.1362 1.1437 0
M  V30 13593 O 1221.36 5.65816 0.619762 0
M  V30 13594 N 1222.56 5.25184 2.4731 0
M  V30 13595 H 1225.33 2.8787 -0.833711 0
M  V30 13596 H 1222.89 1.50832 -0.588323 0
M  V30 13597 H 1224.88 3.73987 1.54648 0
M  V30 13598 H 1223.45 2.67943 1.61014 0
M  V30 13599 H 1222.67 3.90293 -0.553594 0
M  V30 13600 H 1223.96 5.08192 -0.248707 0
M  V30 13601 H 1223.35 4.84302 2.92349 0
M  V30 13602 H 1221.91 5.76905 3.03355 0
M  V30 13603 N 1225.34 0.486708 1.49896 0
M  V30 13604 C 1226.29 -0.299294 2.28851 0
M  V30 13605 C 1227.26 -0.973251 1.346 0
M  V30 13606 O 1228.45 -0.982678 1.63548 0
M  V30 13607 C 1225.59 -1.36624 3.16904 0
M  V30 13608 C 1224.7 -0.705492 4.262 0
M  V30 13609 C 1223.83 -1.75165 5.01488 0
M  V30 13610 C 1222.87 -1.072 6.0264 0
M  V30 13611 N 1222.01 -2.06172 6.71147 0
M  V30 13612 H 1226.85 0.380272 2.95564 0
M  V30 13613 H 1224.39 0.199377 1.45743 0
M  V30 13614 H 1226.35 -1.99666 3.66319 0
M  V30 13615 H 1224.98 -2.01476 2.52205 0
M  V30 13616 H 1224.03 0.0378757 3.80381 0
M  V30 13617 H 1225.34 -0.169774 4.98511 0
M  V30 13618 H 1224.49 -2.45749 5.547 0
M  V30 13619 H 1223.23 -2.3212 4.28919 0
M  V30 13620 H 1222.24 -0.351868 5.48673 0
M  V30 13621 H 1223.46 -0.509139 6.77189 0
M  V30 13622 H 1221.41 -2.62115 6.01358 0
M  V30 13623 H 1221.33 -1.57627 7.39385 0
M  V30 13624 H 1222.59 -2.76088 7.28969 0
M  V30 13625 N 1226.82 -1.56058 0.219941 0
M  V30 13626 C 1227.75 -2.2321 -0.685547 0
M  V30 13627 C 1228.73 -1.20328 -1.20229 0
M  V30 13628 O 1229.92 -1.48909 -1.24659 0
M  V30 13629 C 1227.05 -2.91076 -1.89452 0
M  V30 13630 C 1226 -4.00415 -1.51169 0
M  V30 13631 C 1225.33 -4.55569 -2.79931 0
M  V30 13632 C 1226.63 -5.17549 -0.702896 0
M  V30 13633 H 1228.32 -2.99136 -0.125671 0
M  V30 13634 H 1225.87 -1.43879 -0.0590043 0
M  V30 13635 H 1227.82 -3.36744 -2.53341 0
M  V30 13636 H 1226.55 -2.12594 -2.47934 0
M  V30 13637 H 1225.21 -3.55475 -0.896275 0
M  V30 13638 H 1224.85 -3.73819 -3.36553 0
M  V30 13639 H 1224.55 -5.29361 -2.55049 0
M  V30 13640 H 1226.08 -5.03955 -3.44764 0
M  V30 13641 H 1227.49 -5.59608 -1.24544 0
M  V30 13642 H 1225.89 -5.97563 -0.551234 0
M  V30 13643 H 1226.96 -4.84027 0.29083 0
M  V30 13644 N 1228.3 0.053464 -1.57509 0
M  V30 13645 C 1229.21 1.07902 -2.08313 0
M  V30 13646 C 1230.23 1.41223 -1.01647 0
M  V30 13647 O 1231.4 1.51032 -1.33233 0
M  V30 13648 C 1228.47 2.36813 -2.5322 0
M  V30 13649 C 1227.53 2.10297 -3.74264 0
M  V30 13650 C 1226.76 3.33062 -4.1702 0
M  V30 13651 O 1226.99 4.42857 -3.59491 0
M  V30 13652 O 1225.92 3.20195 -5.09665 0
M  V30 13653 H 1229.75 0.677368 -2.9605 0
M  V30 13654 H 1227.33 0.268838 -1.46961 0
M  V30 13655 H 1229.21 3.12645 -2.82544 0
M  V30 13656 H 1227.89 2.76323 -1.68605 0
M  V30 13657 H 1226.79 1.32111 -3.49996 0
M  V30 13658 H 1228.13 1.75658 -4.59788 0
M  V30 13659 N 1229.78 1.54207 0.325255 0
M  V30 13660 C 1230.71 1.79812 1.42128 0
M  V30 13661 C 1231.72 0.68003 1.47917 0
M  V30 13662 O 1232.91 0.957107 1.50671 0
M  V30 13663 C 1230.01 1.89935 2.80674 0
M  V30 13664 C 1229.19 3.20078 2.98108 0
M  V30 13665 C 1228.25 3.20924 4.17006 0
M  V30 13666 O 1227.27 3.94571 4.10247 0
M  V30 13667 N 1228.47 2.44588 5.26457 0
M  V30 13668 H 1231.24 2.74396 1.20527 0
M  V30 13669 H 1228.8 1.53483 0.515233 0
M  V30 13670 H 1230.79 1.8793 3.58419 0
M  V30 13671 H 1229.36 1.02455 2.95333 0
M  V30 13672 H 1228.58 3.35057 2.07679 0
M  V30 13673 H 1229.87 4.06008 3.06651 0
M  V30 13674 H 1229.27 1.8434 5.34823 0
M  V30 13675 H 1227.82 2.48363 6.02627 0
M  V30 13676 N 1231.26 -0.58723 1.46251 0
M  V30 13677 C 1232.67 -0.910129 1.31106 0
M  V30 13678 C 1232.87 -1.99557 0.279141 0
M  V30 13679 O 1231.93 -2.50466 -0.319867 0
M  V30 13680 C 1233.24 -1.33177 2.69601 0
M  V30 13681 C 1234.79 -1.44486 2.77656 0
M  V30 13682 C 1235.27 -1.90018 4.16722 0
M  V30 13683 N 1236.76 -1.97219 4.19117 0
M  V30 13684 C 1237.49 -2.33714 5.23608 0
M  V30 13685 N 1236.99 -2.69034 6.3843 0
M  V30 13686 N 1238.78 -2.3423 5.10972 0
M  V30 13687 H 1230.93 0.12987 2.12003 0
M  V30 13688 H 1233.19 -0.00456718 0.947989 0
M  V30 13689 H 1232.9 -0.608243 3.464 0
M  V30 13690 H 1232.77 -2.29421 2.99409 0
M  V30 13691 H 1235.16 -2.15926 2.01147 0
M  V30 13692 H 1235.24 -0.465047 2.51537 0
M  V30 13693 H 1234.89 -1.19159 4.93724 0
M  V30 13694 H 1234.82 -2.88949 4.40245 0
M  V30 13695 H 1237.31 -1.72431 3.36268 0
M  V30 13696 H 1237.62 -2.95822 7.13939 0
M  V30 13697 H 1235.97 -2.66683 6.41798 0
M  V30 13698 H 1239.16 -2.06056 4.20308 0
M  V30 13699 H 1239.33 -2.62345 5.92519 0
M  V30 13700 N 1232.74 -1.33881 -0.831482 0
M  V30 13701 C 1233.98 -1.25942 -1.58955 0
M  V30 13702 C 1234.31 0.172542 -1.93432 0
M  V30 13703 O 1233.59 1.11577 -1.59314 0
M  V30 13704 C 1233.87 -2.14193 -2.89471 0
M  V30 13705 C 1233.73 -3.65883 -2.61628 0
M  V30 13706 C 1235.04 -2.02071 -3.90967 0
M  V30 13707 H 1232.16 -0.458841 -0.576744 0
M  V30 13708 H 1234.81 -1.64052 -0.958482 0
M  V30 13709 H 1232.96 -1.81821 -3.43327 0
M  V30 13710 H 1234.63 -4.08581 -2.14148 0
M  V30 13711 H 1232.87 -3.87397 -1.95208 0
M  V30 13712 H 1233.54 -4.22988 -3.54662 0
M  V30 13713 H 1236.02 -2.30476 -3.46439 0
M  V30 13714 H 1234.89 -2.66059 -4.80108 0
M  V30 13715 H 1235.15 -0.995121 -4.30755 0
M  V30 13716 N 1234.21 1.05064 -1.1747 0
M  V30 13717 C 1235.44 1.82299 -0.98903 0
M  V30 13718 C 1235.86 1.82441 0.457907 0
M  V30 13719 O 1235.22 1.23433 1.32793 0
M  V30 13720 C 1235.27 3.26239 -1.53624 0
M  V30 13721 O 1234.37 4.05507 -0.750857 0
M  V30 13722 H 1233.71 0.563601 -0.35107 0
M  V30 13723 H 1236.24 1.32386 -1.55997 0
M  V30 13724 H 1236.25 3.77038 -1.55906 0
M  V30 13725 H 1234.93 3.25451 -2.58949 0
M  V30 13726 H 1233.51 3.64227 -0.799548 0
M  V30 13727 N 1235.69 0.975146 1.23809 0
M  V30 13728 C 1236.62 0.530389 2.27396 0
M  V30 13729 C 1237.6 -0.433763 1.64476 0
M  V30 13730 O 1238.79 -0.32827 1.91405 0
M  V30 13731 C 1235.92 -0.173066 3.46869 0
M  V30 13732 C 1234.87 0.707844 4.22106 0
M  V30 13733 C 1234.2 -0.127527 5.34548 0
M  V30 13734 C 1235.5 1.99609 4.82652 0
M  V30 13735 H 1237.19 1.39622 2.64851 0
M  V30 13736 H 1234.74 0.672802 1.27316 0
M  V30 13737 H 1236.69 -0.495481 4.18477 0
M  V30 13738 H 1235.41 -1.0733 3.0846 0
M  V30 13739 H 1234.07 1.01364 3.52308 0
M  V30 13740 H 1233.72 -1.02814 4.9238 0
M  V30 13741 H 1233.42 0.458728 5.85807 0
M  V30 13742 H 1234.95 -0.444443 6.0898 0
M  V30 13743 H 1236.36 1.73878 5.46296 0
M  V30 13744 H 1234.76 2.52969 5.44175 0
M  V30 13745 H 1235.83 2.68629 4.03691 0
M  V30 13746 N 1237.17 -1.38817 0.746158 0
M  V30 13747 C 1238.59 -1.53894 0.42294 0
M  V30 13748 C 1238.79 -1.71064 -1.06486 0
M  V30 13749 O 1237.84 -1.71744 -1.85095 0
M  V30 13750 C 1239.15 -2.75029 1.2157 0
M  V30 13751 C 1240.7 -2.88873 1.20504 0
M  V30 13752 C 1241.18 -4.1296 1.9806 0
M  V30 13753 N 1242.67 -4.20022 1.95283 0
M  V30 13754 C 1243.4 -5.15011 2.52093 0
M  V30 13755 N 1242.9 -6.1572 3.17586 0
M  V30 13756 N 1244.69 -5.07308 2.42064 0
M  V30 13757 H 1236.84 -1.25921 1.71049 0
M  V30 13758 H 1239.11 -0.611148 0.724708 0
M  V30 13759 H 1238.81 -2.68722 2.26895 0
M  V30 13760 H 1238.69 -3.68009 0.827593 0
M  V30 13761 H 1241.07 -2.94667 0.159877 0
M  V30 13762 H 1241.15 -1.96925 1.63261 0
M  V30 13763 H 1240.8 -4.07929 3.02583 0
M  V30 13764 H 1240.73 -5.03974 1.52702 0
M  V30 13765 H 1243.22 -3.47892 1.4758 0
M  V30 13766 H 1243.53 -6.84682 3.58373 0
M  V30 13767 H 1241.88 -6.16075 3.21678 0
M  V30 13768 H 1245.07 -4.27569 1.90532 0
M  V30 13769 H 1245.24 -5.81158 2.86635 0
M  V30 13770 N 1238.65 -0.49465 -1.49636 0
M  V30 13771 C 1240.06 -0.150217 -1.58892 0
M  V30 13772 C 1240.26 1.34485 -1.50053 0
M  V30 13773 O 1239.32 2.12026 -1.37118 0
M  V30 13774 C 1240.63 -0.721372 -2.91919 0
M  V30 13775 C 1242.18 -0.686908 -3.0537 0
M  V30 13776 C 1242.66 -1.23601 -4.41006 0
M  V30 13777 N 1244.15 -1.19644 -4.47481 0
M  V30 13778 C 1244.88 -1.59157 -5.50869 0
M  V30 13779 N 1244.38 -2.06232 -6.61393 0
M  V30 13780 N 1246.17 -1.50612 -5.41546 0
M  V30 13781 H 1238.32 -1.46675 -1.53624 0
M  V30 13782 H 1240.58 -0.608003 -0.727349 0
M  V30 13783 H 1240.29 -1.76964 -3.03935 0
M  V30 13784 H 1240.16 -0.178199 -3.76779 0
M  V30 13785 H 1242.55 0.352508 -2.92987 0
M  V30 13786 H 1242.63 -1.26716 -2.22209 0
M  V30 13787 H 1242.28 -2.27418 -4.5414 0
M  V30 13788 H 1242.21 -0.631765 -5.22797 0
M  V30 13789 H 1244.7 -0.851443 -3.68183 0
M  V30 13790 H 1245.01 -2.34469 -7.36372 0
M  V30 13791 H 1243.36 -2.10202 -6.6245 0
M  V30 13792 H 1246.55 -1.13659 -4.54092 0
M  V30 13793 H 1246.72 -1.8173 -6.21995 0
M  V30 13794 N 1240.13 1.55939 -0.228214 0
M  V30 13795 C 1241.09 2.1932 0.665681 0
M  V30 13796 C 1242.09 1.15699 1.11671 0
M  V30 13797 O 1243.28 1.40893 1.02444 0
M  V30 13798 C 1240.41 2.82185 1.9127 0
M  V30 13799 H 1241.6 2.99687 0.112986 0
M  V30 13800 H 1239.16 1.56285 0.0213865 0
M  V30 13801 H 1239.89 2.05706 2.5071 0
M  V30 13802 H 1239.68 3.58073 1.5977 0
M  V30 13803 H 1241.17 3.30748 2.54942 0
M  V30 13804 N 1241.6 -0.0451101 1.57535 0
M  V30 13805 C 1242.55 -1.05817 2.01958 0
M  V30 13806 C 1243.54 -1.32963 0.906077 0
M  V30 13807 O 1244.73 -1.32816 1.16999 0
M  V30 13808 C 1241.86 -2.36414 2.48924 0
M  V30 13809 C 1240.95 -2.12428 3.67063 0
M  V30 13810 N 1241.34 -1.58448 4.80341 0
M  V30 13811 C 1239.63 -2.42785 3.74128 0
M  V30 13812 C 1240.34 -1.49896 5.62055 0
M  V30 13813 N 1239.31 -1.96892 5.0669 0
M  V30 13814 H 1243.11 -0.634569 2.86968 0
M  V30 13815 H 1240.63 -0.251719 1.60437 0
M  V30 13816 H 1242.62 -3.09781 2.79001 0
M  V30 13817 H 1241.28 -2.79467 1.65313 0
M  V30 13818 H 1242.3 -1.26939 5.02102 0
M  V30 13819 H 1238.97 -2.89022 3.01285 0
M  V30 13820 H 1240.36 -1.08788 6.63035 0
M  V30 13821 N 1243.08 -1.54377 -0.317073 0
M  V30 13822 C 1244.01 -1.8721 -1.39552 0
M  V30 13823 C 1244.99 -0.729483 -1.53664 0
M  V30 13824 O 1246.18 -0.983799 -1.67437 0
M  V30 13825 C 1243.31 -2.1052 -2.76222 0
M  V30 13826 C 1242.26 -3.26366 -2.76892 0
M  V30 13827 C 1241.59 -3.35061 -4.16699 0
M  V30 13828 C 1242.89 -4.63862 -2.40061 0
M  V30 13829 H 1244.58 -2.77532 -1.12323 0
M  V30 13830 H 1242.13 -1.33536 -0.538897 0
M  V30 13831 H 1244.08 -2.32073 -3.51739 0
M  V30 13832 H 1242.81 -1.16953 -3.04942 0
M  V30 13833 H 1241.46 -3.0471 -2.03831 0
M  V30 13834 H 1241.11 -2.39041 -4.4257 0
M  V30 13835 H 1240.81 -4.12923 -4.18053 0
M  V30 13836 H 1242.34 -3.58856 -4.94019 0
M  V30 13837 H 1243.75 -4.85252 -3.05292 0
M  V30 13838 H 1242.15 -5.44321 -2.52655 0
M  V30 13839 H 1243.22 -4.6567 -1.35202 0
M  V30 13840 N 1244.56 0.579466 -1.4656 0
M  V30 13841 C 1245.47 1.71609 -1.59961 0
M  V30 13842 C 1246.49 1.67162 -0.483002 0
M  V30 13843 O 1247.66 1.87012 -0.747561 0
M  V30 13844 C 1244.73 3.08114 -1.58954 0
M  V30 13845 C 1243.79 3.238 -2.81872 0
M  V30 13846 C 1243.02 4.53794 -2.80904 0
M  V30 13847 O 1243.24 5.37884 -1.89835 0
M  V30 13848 O 1242.18 4.72796 -3.72488 0
M  V30 13849 H 1246 1.6325 -2.56092 0
M  V30 13850 H 1243.59 0.746891 -1.2939 0
M  V30 13851 H 1245.47 3.8939 -1.611 0
M  V30 13852 H 1244.15 3.16903 -0.65984 0
M  V30 13853 H 1243.05 2.42006 -2.85279 0
M  V30 13854 H 1244.39 3.19904 -3.74062 0
M  V30 13855 N 1246.04 1.3432 0.824371 0
M  V30 13856 C 1246.97 1.21619 1.94271 0
M  V30 13857 C 1247.98 0.143628 1.62165 0
M  V30 13858 O 1249.17 0.395353 1.74067 0
M  V30 13859 C 1246.27 0.846128 3.28167 0
M  V30 13860 C 1245.45 2.01337 3.88307 0
M  V30 13861 C 1244.5 1.62194 5.00579 0
M  V30 13862 O 1243.53 2.33831 5.18953 0
M  V30 13863 N 1244.73 0.535262 5.78027 0
M  V30 13864 H 1247.5 2.17963 2.05699 0
M  V30 13865 H 1245.06 1.27256 1.00088 0
M  V30 13866 H 1247.05 0.566086 4.00721 0
M  V30 13867 H 1245.62 -0.0270764 3.12588 0
M  V30 13868 H 1244.84 2.45823 3.08164 0
M  V30 13869 H 1246.13 2.79404 4.25219 0
M  V30 13870 H 1245.53 -0.0603126 5.65668 0
M  V30 13871 H 1244.08 0.314946 6.51039 0
M  V30 13872 N 1247.52 -1.0444 1.18026 0
M  V30 13873 C 1248.46 -2.12365 0.903865 0
M  V30 13874 C 1249.43 -1.65373 -0.155252 0
M  V30 13875 O 1250.62 -1.90793 -0.016419 0
M  V30 13876 C 1247.76 -3.4239 0.431603 0
M  V30 13877 C 1246.87 -4.03016 1.55571 0
M  V30 13878 C 1246.01 -5.20988 1.03655 0
M  V30 13879 C 1245.05 -5.73636 2.1356 0
M  V30 13880 N 1244.18 -6.82901 1.63066 0
M  V30 13881 H 1249.02 -2.35346 1.82802 0
M  V30 13882 H 1246.56 -1.15447 0.911618 0
M  V30 13883 H 1248.52 -4.16967 0.139296 0
M  V30 13884 H 1247.15 -3.19569 -0.455576 0
M  V30 13885 H 1246.2 -3.25803 1.96358 0
M  V30 13886 H 1247.51 -4.38122 2.38434 0
M  V30 13887 H 1246.67 -6.02665 0.698546 0
M  V30 13888 H 1245.4 -4.87377 0.177457 0
M  V30 13889 H 1244.41 -4.90583 2.4821 0
M  V30 13890 H 1245.63 -6.09293 2.99899 0
M  V30 13891 H 1243.58 -6.51172 0.794394 0
M  V30 13892 H 1243.5 -7.1705 2.3953 0
M  V30 13893 H 1244.77 -7.68211 1.32181 0
M  V30 13894 N 1248.99 -0.981699 -1.2329 0
M  V30 13895 C 1250.24 -0.646818 -1.91048 0
M  V30 13896 C 1250.56 0.823479 -1.77421 0
M  V30 13897 O 1251.76 1.26948 -2.39993 0
M  V30 13898 C 1250.22 -1.1063 -3.42475 0
M  V30 13899 C 1249.83 -2.60103 -3.6476 0
M  V30 13900 C 1251.57 -0.845227 -4.16 0
M  V30 13901 C 1249.48 -2.99712 -5.0983 0
M  V30 13902 H 1248.41 -0.238221 -0.715379 0
M  V30 13903 H 1251.06 -1.18977 -1.39702 0
M  V30 13904 H 1249.44 -0.491554 -3.92937 0
M  V30 13905 H 1250.61 -3.26828 -3.24839 0
M  V30 13906 H 1248.93 -2.83972 -3.04547 0
M  V30 13907 H 1251.53 -1.11699 -5.22903 0
M  V30 13908 H 1251.87 0.218661 -4.15725 0
M  V30 13909 H 1252.4 -1.42162 -3.7153 0
M  V30 13910 H 1249.14 -4.0523 -5.15237 0
M  V30 13911 H 1248.66 -2.37683 -5.50697 0
M  V30 13912 H 1250.34 -2.9039 -5.78172 0
M  V30 13913 N 1250.47 1.3842 -0.753509 0
M  V30 13914 C 1251.38 2.34252 -0.127811 0
M  V30 13915 C 1252.4 1.59266 0.700743 0
M  V30 13916 O 1253.57 1.9146 0.624914 0
M  V30 13917 C 1250.64 3.38382 0.754886 0
M  V30 13918 C 1249.7 4.2921 -0.0880312 0
M  V30 13919 C 1248.93 5.28367 0.75263 0
M  V30 13920 O 1249.16 5.34537 1.99064 0
M  V30 13921 O 1248.09 6.01656 0.171475 0
M  V30 13922 H 1251.92 2.89454 -0.91925 0
M  V30 13923 H 1249.5 1.40265 -0.514404 0
M  V30 13924 H 1251.38 4.02141 1.25938 0
M  V30 13925 H 1250.06 2.85536 1.52482 0
M  V30 13926 H 1248.97 3.68611 -0.638468 0
M  V30 13927 H 1250.3 4.85311 -0.82062 0
M  V30 13928 N 1251.95 0.502579 1.49372 0
M  V30 13929 C 1252.86 -0.279532 2.32929 0
M  V30 13930 C 1253.88 -0.965806 1.44735 0
M  V30 13931 O 1255.05 -0.946839 1.77755 0
M  V30 13932 C 1252.12 -1.32913 3.20211 0
M  V30 13933 C 1251.18 -0.656121 4.24256 0
M  V30 13934 C 1250.41 -1.65571 5.07368 0
M  V30 13935 O 1250.63 -2.88571 4.92019 0
M  V30 13936 O 1249.57 -1.21016 5.89609 0
M  V30 13937 H 1253.39 0.404427 3.00995 0
M  V30 13938 H 1250.98 0.263888 1.47051 0
M  V30 13939 H 1252.86 -1.93635 3.74277 0
M  V30 13940 H 1251.54 -1.99598 2.54837 0
M  V30 13941 H 1250.44 -0.00911489 3.74099 0
M  V30 13942 H 1251.78 -0.0316802 4.9219 0
M  V30 13943 N 1253.43 -1.55816 0.23648 0
M  V30 13944 C 1254.34 -2.24576 -0.678439 0
M  V30 13945 C 1255.35 -1.25836 -1.20172 0
M  V30 13946 O 1256.53 -1.58686 -1.24019 0
M  V30 13947 C 1253.6 -2.92376 -1.86325 0
M  V30 13948 C 1252.66 -4.06499 -1.38047 0
M  V30 13949 C 1251.89 -4.71057 -2.50881 0
M  V30 13950 O 1252.11 -4.34652 -3.69369 0
M  V30 13951 O 1251.05 -5.59768 -2.21232 0
M  V30 13952 H 1254.87 -3.03452 -0.122601 0
M  V30 13953 H 1252.46 -1.49399 0.00540803 0
M  V30 13954 H 1254.34 -3.35117 -2.55488 0
M  V30 13955 H 1253.01 -2.16448 -2.40691 0
M  V30 13956 H 1251.92 -3.68296 -0.656422 0
M  V30 13957 H 1253.25 -4.84214 -0.883024 0
M  V30 13958 N 1254.91 0.036755 -1.57557 0
M  V30 13959 C 1255.84 1.03939 -2.09091 0
M  V30 13960 C 1256.82 1.38196 -0.991761 0
M  V30 13961 O 1258 1.47214 -1.26656 0
M  V30 13962 C 1255.13 2.34263 -2.56394 0
M  V30 13963 C 1254.09 2.14269 -3.70504 0
M  V30 13964 C 1253.41 3.50286 -4.03985 0
M  V30 13965 C 1254.71 1.53514 -4.9923 0
M  V30 13966 H 1256.41 0.610429 -2.93111 0
M  V30 13967 H 1253.95 0.292183 -1.41005 0
M  V30 13968 H 1255.91 3.04727 -2.91066 0
M  V30 13969 H 1254.63 2.79205 -1.69447 0
M  V30 13970 H 1253.29 1.46239 -3.36169 0
M  V30 13971 H 1252.94 3.92861 -3.14116 0
M  V30 13972 H 1252.64 3.37735 -4.80842 0
M  V30 13973 H 1254.16 4.22124 -4.41184 0
M  V30 13974 H 1255.57 2.13885 -5.31908 0
M  V30 13975 H 1253.97 1.51561 -5.80646 0
M  V30 13976 H 1255.04 0.500126 -4.82314 0
M  V30 13977 N 1256.39 1.54543 0.308881 0
M  V30 13978 C 1257.35 1.84214 1.36374 0
M  V30 13979 C 1258.35 0.71463 1.44047 0
M  V30 13980 O 1259.54 0.98293 1.4382 0
M  V30 13981 C 1256.67 2.01535 2.74948 0
M  V30 13982 H 1257.86 2.78477 1.11314 0
M  V30 13983 H 1255.42 1.46485 0.545141 0
M  V30 13984 H 1256.15 1.09533 3.05242 0
M  V30 13985 H 1255.94 2.83595 2.7077 0
M  V30 13986 H 1257.43 2.25888 3.51233 0
M  V30 13987 N 1257.86 -0.571685 1.46866 0
M  V30 13988 C 1258.83 -1.66198 1.57832 0
M  V30 13989 C 1259.83 -1.54242 0.454547 0
M  V30 13990 O 1261.02 -1.58661 0.719191 0
M  V30 13991 C 1258.15 -3.05678 1.5091 0
M  V30 13992 H 1259.34 -1.57829 2.5501 0
M  V30 13993 H 1256.89 -0.790433 1.3484 0
M  V30 13994 H 1257.63 -3.19593 0.550529 0
M  V30 13995 H 1257.41 -3.15765 2.32454 0
M  V30 13996 H 1258.9 -3.85027 1.61692 0
M  V30 13997 N 1259.34 -1.34755 -0.817236 0
M  V30 13998 C 1260.27 -1.29452 -1.94331 0
M  V30 13999 C 1261.25 -0.170902 -1.69239 0
M  V30 14000 O 1262.44 -0.364173 -1.90755 0
M  V30 14001 C 1259.57 -1.05497 -3.30889 0
M  V30 14002 C 1258.52 -2.14386 -3.70436 0
M  V30 14003 C 1257.85 -1.75612 -5.05039 0
M  V30 14004 C 1259.15 -3.56265 -3.81933 0
M  V30 14005 H 1260.84 -2.23672 -1.99025 0
M  V30 14006 H 1258.39 -1.07674 -0.956159 0
M  V30 14007 H 1260.34 -1.0043 -4.09257 0
M  V30 14008 H 1259.06 -0.0772059 -3.26509 0
M  V30 14009 H 1257.72 -2.18532 -2.94345 0
M  V30 14010 H 1257.37 -0.764809 -4.97152 0
M  V30 14011 H 1257.07 -2.48495 -5.3247 0
M  V30 14012 H 1258.6 -1.72051 -5.85859 0
M  V30 14013 H 1260.01 -3.545 -4.50558 0
M  V30 14014 H 1258.41 -4.27818 -4.20822 0
M  V30 14015 H 1259.48 -3.93192 -2.83775 0
M  V30 14016 N 1260.82 1.03812 -1.18578 0
M  V30 14017 C 1261.75 2.11928 -0.872871 0
M  V30 14018 C 1262.76 1.62275 0.130592 0
M  V30 14019 O 1263.95 1.78233 -0.0975869 0
M  V30 14020 C 1261.05 3.37714 -0.283321 0
M  V30 14021 C 1260.23 4.16591 -1.33307 0
M  V30 14022 C 1259.29 5.20701 -0.758746 0
M  V30 14023 O 1258.31 5.50837 -1.43412 0
M  V30 14024 N 1259.51 5.78811 0.442505 0
M  V30 14025 H 1262.28 2.39364 -1.80346 0
M  V30 14026 H 1259.84 1.20027 -1.08652 0
M  V30 14027 H 1261.83 4.04538 0.114524 0
M  V30 14028 H 1260.4 3.07699 0.551347 0
M  V30 14029 H 1259.62 3.45051 -1.90613 0
M  V30 14030 H 1260.91 4.66082 -2.04071 0
M  V30 14031 H 1260.31 5.56631 1.00889 0
M  V30 14032 H 1258.86 6.47089 0.78224 0
M  V30 14033 N 1262.3 0.988223 1.22768 0
M  V30 14034 C 1263.24 0.534605 2.24523 0
M  V30 14035 C 1264.21 -0.430615 1.60421 0
M  V30 14036 O 1265.4 -0.336417 1.87811 0
M  V30 14037 C 1262.54 -0.149195 3.44777 0
M  V30 14038 C 1261.65 0.85721 4.2341 0
M  V30 14039 C 1260.79 0.147411 5.30995 0
M  V30 14040 C 1259.83 1.1425 6.01343 0
M  V30 14041 N 1258.96 0.461327 7.00583 0
M  V30 14042 H 1263.8 1.40708 2.62689 0
M  V30 14043 H 1261.34 0.704918 1.2911 0
M  V30 14044 H 1263.3 -0.562527 4.1339 0
M  V30 14045 H 1261.93 -0.985485 3.07389 0
M  V30 14046 H 1260.98 1.38889 3.54138 0
M  V30 14047 H 1262.29 1.61517 4.71926 0
M  V30 14048 H 1261.45 -0.32289 6.0584 0
M  V30 14049 H 1260.19 -0.643085 4.83442 0
M  V30 14050 H 1259.19 1.62348 5.25284 0
M  V30 14051 H 1260.42 1.93379 6.50985 0
M  V30 14052 H 1258.36 -0.309818 6.55268 0
M  V30 14053 H 1258.28 1.15781 7.47082 0
M  V30 14054 H 1259.55 0.0136734 7.79499 0
M  V30 14055 N 1263.78 -1.38018 0.760839 0
M  V30 14056 C 1264.69 -2.34181 0.140232 0
M  V30 14057 C 1265.7 -1.59635 -0.692287 0
M  V30 14058 O 1266.88 -1.91788 -0.614752 0
M  V30 14059 C 1263.94 -3.38778 -0.73693 0
M  V30 14060 C 1263 -4.29157 0.110792 0
M  V30 14061 C 1262.24 -5.28758 -0.724599 0
M  V30 14062 O 1262.46 -5.35585 -1.96226 0
M  V30 14063 O 1261.39 -6.01738 -0.139565 0
M  V30 14064 H 1265.22 -2.88962 0.934588 0
M  V30 14065 H 1262.8 -1.3999 0.521835 0
M  V30 14066 H 1264.69 -4.02804 -1.23803 0
M  V30 14067 H 1263.36 -2.86341 -1.50966 0
M  V30 14068 H 1262.27 -3.68268 0.658007 0
M  V30 14069 H 1263.6 -4.84869 0.846346 0
M  V30 14070 N 1265.25 -0.510493 -1.49103 0
M  V30 14071 C 1266.67 -0.167061 -1.58723 0
M  V30 14072 C 1266.87 1.32886 -1.51471 0
M  V30 14073 O 1265.93 2.10559 -1.39359 0
M  V30 14074 C 1267.24 -0.752293 -2.91137 0
M  V30 14075 C 1268.79 -0.719258 -3.04624 0
M  V30 14076 C 1269.26 -1.28272 -4.39671 0
M  V30 14077 N 1270.75 -1.24383 -4.46187 0
M  V30 14078 C 1271.49 -1.6499 -5.4915 0
M  V30 14079 N 1270.98 -2.13235 -6.59168 0
M  V30 14080 N 1272.78 -1.56348 -5.39918 0
M  V30 14081 H 1264.93 -1.48296 -1.5206 0
M  V30 14082 H 1267.19 -0.615683 -0.72086 0
M  V30 14083 H 1266.9 -1.80178 -3.02041 0
M  V30 14084 H 1266.77 -0.218152 -3.76569 0
M  V30 14085 H 1269.16 0.321413 -2.93344 0
M  V30 14086 H 1269.24 -1.29065 -2.20852 0
M  V30 14087 H 1268.88 -2.32222 -4.51703 0
M  V30 14088 H 1268.81 -0.687179 -5.22097 0
M  V30 14089 H 1271.3 -0.890446 -3.67259 0
M  V30 14090 H 1271.62 -2.42266 -7.33844 0
M  V30 14091 H 1269.96 -2.17216 -6.60183 0
M  V30 14092 H 1273.15 -1.18469 -4.52861 0
M  V30 14093 H 1273.33 -1.88317 -6.20033 0
M  V30 14094 N 1266.73 1.55688 -0.24474 0
M  V30 14095 C 1267.96 2.03743 0.387776 0
M  V30 14096 C 1268.38 1.1229 1.50906 0
M  V30 14097 O 1267.74 0.115445 1.80932 0
M  V30 14098 C 1267.79 3.49825 0.874927 0
M  V30 14099 O 1266.89 3.61504 1.98466 0
M  V30 14100 H 1266.23 0.658561 0.0848107 0
M  V30 14101 H 1268.76 2.01224 -0.370165 0
M  V30 14102 H 1268.77 3.90603 1.17871 0
M  V30 14103 H 1267.45 4.15864 0.0543852 0
M  V30 14104 H 1266.02 3.32622 1.68574 0
M  V30 14105 N 1268.21 -0.0283989 1.57574 0
M  V30 14106 C 1269.12 -1.04575 2.10003 0
M  V30 14107 C 1270.14 -1.39588 1.03881 0
M  V30 14108 O 1271.31 -1.48894 1.35619 0
M  V30 14109 C 1268.38 -2.32755 2.56955 0
M  V30 14110 C 1267.44 -2.04317 3.77562 0
M  V30 14111 C 1266.67 -3.26385 4.22266 0
M  V30 14112 O 1266.89 -4.37082 3.66491 0
M  V30 14113 O 1265.83 -3.12046 5.14695 0
M  V30 14114 H 1269.65 -0.630183 2.9709 0
M  V30 14115 H 1267.24 -0.245423 1.4737 0
M  V30 14116 H 1269.12 -3.08111 2.87482 0
M  V30 14117 H 1267.8 -2.73605 1.72979 0
M  V30 14118 H 1266.7 -1.26527 3.52054 0
M  V30 14119 H 1268.04 -1.68321 4.62524 0
M  V30 14120 N 1269.69 -1.54705 -0.300681 0
M  V30 14121 C 1271.1 -1.45926 -0.646359 0
M  V30 14122 C 1271.3 -0.65072 -1.90704 0
M  V30 14123 O 1270.36 -0.158547 -2.52002 0
M  V30 14124 C 1271.67 -2.89889 -0.799059 0
M  V30 14125 C 1273.22 -2.99934 -0.894923 0
M  V30 14126 C 1273.7 -4.45093 -1.07962 0
M  V30 14127 N 1275.19 -4.48804 -1.14581 0
M  V30 14128 C 1275.92 -5.58305 -1.30702 0
M  V30 14129 N 1275.42 -6.77729 -1.43719 0
M  V30 14130 N 1277.21 -5.45994 -1.33593 0
M  V30 14131 H 1269.36 -2.05742 0.527617 0
M  V30 14132 H 1271.62 -0.931817 0.174415 0
M  V30 14133 H 1271.33 -3.51655 0.0563954 0
M  V30 14134 H 1271.2 -3.37325 -1.68796 0
M  V30 14135 H 1273.59 -2.38281 -1.74086 0
M  V30 14136 H 1273.67 -2.55794 0.0179973 0
M  V30 14137 H 1273.32 -5.0734 -0.238444 0
M  V30 14138 H 1273.25 -4.86864 -2.00677 0
M  V30 14139 H 1275.74 -3.62766 -1.05874 0
M  V30 14140 H 1276.05 -7.56937 -1.55776 0
M  V30 14141 H 1274.4 -6.80594 -1.40774 0
M  V30 14142 H 1277.59 -4.51641 -1.23035 0
M  V30 14143 H 1277.76 -6.31381 -1.45813 0
M  V30 14144 N 1271.17 0.563888 -1.47167 0
M  V30 14145 C 1272.42 1.31766 -1.5271 0
M  V30 14146 C 1272.73 1.94664 -0.191164 0
M  V30 14147 O 1273.93 2.71214 -0.124543 0
M  V30 14148 C 1272.39 2.38907 -2.69168 0
M  V30 14149 C 1272 1.8223 -4.09263 0
M  V30 14150 C 1273.74 3.15508 -2.83999 0
M  V30 14151 C 1271.65 2.87111 -5.17031 0
M  V30 14152 H 1270.58 0.495421 -0.568396 0
M  V30 14153 H 1273.23 0.599665 -1.73425 0
M  V30 14154 H 1271.61 3.13591 -2.4182 0
M  V30 14155 H 1272.79 1.13963 -4.46485 0
M  V30 14156 H 1271.1 1.18235 -3.99261 0
M  V30 14157 H 1273.7 3.93816 -3.61681 0
M  V30 14158 H 1274.04 3.69277 -1.92197 0
M  V30 14159 H 1274.57 2.47934 -3.11085 0
M  V30 14160 H 1271.31 2.38204 -6.10687 0
M  V30 14161 H 1270.83 3.53809 -4.84334 0
M  V30 14162 H 1272.51 3.50724 -5.43692 0
M  V30 14163 N 1272.64 1.35187 0.810078 0
M  V30 14164 C 1273.59 1.27822 1.92173 0
M  V30 14165 C 1274.56 0.150851 1.65414 0
M  V30 14166 O 1275.75 0.333973 1.87854 0
M  V30 14167 C 1272.89 1.05258 3.28656 0
M  V30 14168 C 1272 2.26884 3.67624 0
M  V30 14169 C 1271.13 1.97499 4.9312 0
M  V30 14170 C 1270.17 3.15198 5.24706 0
M  V30 14171 N 1269.31 2.85612 6.41381 0
M  V30 14172 H 1274.15 2.22884 1.97804 0
M  V30 14173 H 1271.69 1.10799 0.967577 0
M  V30 14174 H 1273.65 0.902084 4.07331 0
M  V30 14175 H 1272.28 0.138583 3.22502 0
M  V30 14176 H 1271.33 2.5281 2.84238 0
M  V30 14177 H 1272.64 3.14783 3.86928 0
M  V30 14178 H 1271.79 1.7926 5.79613 0
M  V30 14179 H 1270.53 1.0688 4.75844 0
M  V30 14180 H 1269.54 3.34019 4.36705 0
M  V30 14181 H 1270.76 4.06614 5.43913 0
M  V30 14182 H 1268.71 1.97583 6.25537 0
M  V30 14183 H 1268.63 3.67044 6.60919 0
M  V30 14184 H 1269.89 2.70906 7.3091 0
M  V30 14185 N 1274.12 -1.03182 1.19127 0
M  V30 14186 C 1275.07 -2.13507 0.922899 0
M  V30 14187 C 1276.06 -1.68973 -0.120171 0
M  V30 14188 O 1277.27 -1.79977 0.0288007 0
M  V30 14189 H 1273.65 -0.697516 0.281027 0
M  V30 14190 H 1275.62 -2.33335 1.86003 0
M  V30 14191 C 1274.37 -3.44442 0.474864 0
M  V30 14192 H 1273.69 -3.79125 1.26902 0
M  V30 14193 H 1275.13 -4.22744 0.326162 0
M  V30 14194 C 1273.59 -3.27002 -0.81063 0
M  V30 14195 O 1274.12 -3.55374 -1.87276 0
M  V30 14196 N 1272.32 -2.80303 -0.766713 0
M  V30 14197 H 1271.87 -2.57414 0.0978672 0
M  V30 14198 H 1271.83 -2.69015 -1.62721 0
M  V30 14199 N 1275.6 -0.99472 -1.22242 0
M  V30 14200 C 1276.53 -0.566499 -2.26524 0
M  V30 14201 C 1277.51 0.407541 -1.65146 0
M  V30 14202 O 1278.7 0.297777 -1.91903 0
M  V30 14203 C 1275.83 0.11786 -3.471 0
M  V30 14204 C 1274.78 -0.774908 -4.20927 0
M  V30 14205 C 1274.11 0.0424687 -5.34683 0
M  V30 14206 C 1275.41 -2.07263 -4.79416 0
M  V30 14207 H 1277.1 -1.43818 -2.62596 0
M  V30 14208 H 1274.65 -0.692971 -1.2623 0
M  V30 14209 H 1276.6 0.428842 -4.19212 0
M  V30 14210 H 1275.32 1.0241 -3.10129 0
M  V30 14211 H 1273.98 -1.06956 -3.50651 0
M  V30 14212 H 1273.63 0.949677 -4.93954 0
M  V30 14213 H 1273.33 -0.551867 -5.85003 0
M  V30 14214 H 1274.85 0.347504 -6.0961 0
M  V30 14215 H 1276.27 -1.82548 -5.4346 0
M  V30 14216 H 1274.67 -2.61594 -5.40082 0
M  V30 14217 H 1275.74 -2.75017 -3.99366 0
M  V30 14218 N 1277.08 1.37613 -0.768148 0
M  V30 14219 C 1278.01 2.3291 -0.165911 0
M  V30 14220 C 1278.99 1.556 0.687205 0
M  V30 14221 O 1280.17 1.83854 0.625407 0
M  V30 14222 C 1277.3 3.39822 0.7168 0
M  V30 14223 C 1276.26 4.27986 -0.0347264 0
M  V30 14224 C 1275.58 5.2588 0.967192 0
M  V30 14225 C 1276.88 5.08052 -1.21164 0
M  V30 14226 H 1278.58 2.83524 -0.962006 0
M  V30 14227 H 1276.12 1.36318 -0.464051 0
M  V30 14228 H 1278.08 4.05464 1.14789 0
M  V30 14229 H 1276.8 2.87725 1.54538 0
M  V30 14230 H 1275.46 3.6387 -0.446557 0
M  V30 14231 H 1275.11 4.70064 1.79022 0
M  V30 14232 H 1274.81 5.85726 0.468913 0
M  V30 14233 H 1276.33 5.94397 1.3973 0
M  V30 14234 H 1277.75 5.66853 -0.857373 0
M  V30 14235 H 1276.14 5.77206 -1.64176 0
M  V30 14236 H 1277.21 4.40936 -2.0175 0
M  V30 14237 N 1278.56 0.518393 1.4883 0
M  V30 14238 C 1279.47 -0.254811 2.33212 0
M  V30 14239 C 1280.48 -0.950401 1.45751 0
M  V30 14240 O 1281.66 -0.927932 1.78749 0
M  V30 14241 C 1278.72 -1.29509 3.21603 0
M  V30 14242 C 1277.78 -0.611086 4.24928 0
M  V30 14243 C 1277.02 -1.6018 5.09095 0
M  V30 14244 O 1277.24 -2.83336 4.95052 0
M  V30 14245 O 1276.17 -1.14756 5.90859 0
M  V30 14246 H 1280 0.436329 3.00549 0
M  V30 14247 H 1277.59 0.27947 1.46763 0
M  V30 14248 H 1279.47 -1.89654 3.7631 0
M  V30 14249 H 1278.14 -1.96884 2.5694 0
M  V30 14250 H 1277.05 0.0305638 3.74088 0
M  V30 14251 H 1278.38 0.0205249 4.92196 0
M  V30 14252 N 1280.03 -1.55556 0.252993 0
M  V30 14253 C 1281.45 -1.59276 -0.101714 0
M  V30 14254 C 1281.65 -1.27018 -1.56424 0
M  V30 14255 O 1280.71 -1.02042 -2.30963 0
M  V30 14256 C 1282.02 -2.99634 0.252969 0
M  V30 14257 C 1283.57 -3.12375 0.197767 0
M  V30 14258 C 1284.04 -4.54963 0.52657 0
M  V30 14259 N 1285.53 -4.60734 0.477296 0
M  V30 14260 C 1286.27 -5.69052 0.704793 0
M  V30 14261 N 1285.76 -6.85607 0.99574 0
M  V30 14262 N 1287.56 -5.58501 0.635086 0
M  V30 14263 H 1279.71 -1.74793 1.2067 0
M  V30 14264 H 1281.97 -0.813971 0.485958 0
M  V30 14265 H 1281.68 -3.27998 1.26926 0
M  V30 14266 H 1281.55 -3.74888 -0.416984 0
M  V30 14267 H 1283.94 -2.83788 -0.809209 0
M  V30 14268 H 1284.02 -2.39382 0.901659 0
M  V30 14269 H 1283.66 -4.84271 1.53113 0
M  V30 14270 H 1283.59 -5.26224 -0.198869 0
M  V30 14271 H 1286.08 -3.76995 0.261398 0
M  V30 14272 H 1286.4 -7.64096 1.15659 0
M  V30 14273 H 1284.74 -6.87276 1.03328 0
M  V30 14274 H 1287.93 -4.6632 0.407789 0
M  V30 14275 H 1288.11 -6.42845 0.815777 0
M  V30 14276 N 1281.51 0.0200419 -1.57587 0
M  V30 14277 C 1282.44 1.0456 -2.0396 0
M  V30 14278 C 1283.46 1.31922 -0.953962 0
M  V30 14279 O 1284.65 1.2925 -1.23112 0
M  V30 14280 C 1281.75 2.38514 -2.40758 0
M  V30 14281 C 1280.92 2.3038 -3.71812 0
M  V30 14282 C 1279.98 3.46856 -3.95698 0
M  V30 14283 O 1279 3.25944 -4.66636 0
M  V30 14284 N 1280.21 4.69033 -3.42036 0
M  V30 14285 H 1282.97 0.650282 -2.9256 0
M  V30 14286 H 1280.53 0.207818 -1.60561 0
M  V30 14287 H 1282.52 3.15172 -2.53868 0
M  V30 14288 H 1281.09 2.69859 -1.57781 0
M  V30 14289 H 1280.31 1.38762 -3.6897 0
M  V30 14290 H 1281.6 2.22097 -4.57767 0
M  V30 14291 H 1281 4.88923 -2.84553 0
M  V30 14292 H 1279.56 5.43025 -3.6051 0
M  V30 14293 N 1282.99 1.54862 0.292472 0
M  V30 14294 C 1283.9 1.89472 1.38339 0
M  V30 14295 C 1284.92 0.789783 1.55043 0
M  V30 14296 O 1286.09 1.08705 1.69544 0
M  V30 14297 C 1283.16 2.14244 2.72581 0
M  V30 14298 C 1282.22 3.37913 2.64789 0
M  V30 14299 C 1281.45 3.61494 3.92629 0
M  V30 14300 O 1281.67 2.87931 4.92394 0
M  V30 14301 O 1280.61 4.55019 3.94007 0
M  V30 14302 H 1284.43 2.82298 1.11989 0
M  V30 14303 H 1282.02 1.41161 0.489291 0
M  V30 14304 H 1283.9 2.31689 3.51991 0
M  V30 14305 H 1282.58 1.24603 2.98757 0
M  V30 14306 H 1281.48 3.25823 1.83821 0
M  V30 14307 H 1282.82 4.27711 2.43565 0
M  V30 14308 N 1284.47 -0.556076 1.47464 0
M  V30 14309 C 1285.88 -0.882115 1.33007 0
M  V30 14310 C 1286.08 -1.9892 0.321407 0
M  V30 14311 O 1285.14 -2.51088 -0.266668 0
M  V30 14312 C 1286.45 -1.27428 2.72365 0
M  V30 14313 C 1288 -1.38564 2.80658 0
M  V30 14314 C 1288.48 -1.81136 4.20659 0
M  V30 14315 N 1289.97 -1.88284 4.23206 0
M  V30 14316 C 1290.7 -2.22555 5.28447 0
M  V30 14317 N 1290.2 -2.55432 6.43993 0
M  V30 14318 N 1291.99 -2.23339 5.15826 0
M  V30 14319 H 1284.14 0.17481 2.11679 0
M  V30 14320 H 1286.41 0.0155421 0.947873 0
M  V30 14321 H 1286.11 -0.53463 3.47613 0
M  V30 14322 H 1285.99 -2.23019 3.04208 0
M  V30 14323 H 1288.37 -2.1161 2.05682 0
M  V30 14324 H 1288.45 -0.411588 2.52467 0
M  V30 14325 H 1288.1 -1.08659 4.96141 0
M  V30 14326 H 1288.03 -2.79546 4.46275 0
M  V30 14327 H 1290.52 -1.65259 3.3985 0
M  V30 14328 H 1290.83 -2.80612 7.20053 0
M  V30 14329 H 1289.18 -2.5301 6.47311 0
M  V30 14330 H 1292.37 -1.97094 4.24584 0
M  V30 14331 H 1292.54 -2.49717 5.97951 0
M  V30 14332 N 1285.95 -1.35615 -0.802897 0
M  V30 14333 C 1286.86 -1.3096 -1.94645 0
M  V30 14334 C 1287.87 -0.213909 -1.7268 0
M  V30 14335 O 1289.05 -0.443932 -1.96446 0
M  V30 14336 C 1286.11 -1.08483 -3.2929 0
M  V30 14337 C 1285.18 -2.27401 -3.64126 0
M  V30 14338 C 1284.41 -2.05987 -4.92347 0
M  V30 14339 O 1284.63 -1.02819 -5.61057 0
M  V30 14340 O 1283.57 -2.93439 -5.25526 0
M  V30 14341 H 1287.39 -2.27209 -2.01519 0
M  V30 14342 H 1284.98 -1.16024 -0.941214 0
M  V30 14343 H 1286.86 -0.978118 -4.09891 0
M  V30 14344 H 1285.53 -0.152885 -3.23339 0
M  V30 14345 H 1284.44 -2.43638 -2.83886 0
M  V30 14346 H 1285.77 -3.19055 -3.74786 0
M  V30 14347 N 1287.43 1.02549 -1.19673 0
M  V30 14348 C 1288.67 1.75408 -0.995732 0
M  V30 14349 C 1288.99 1.89773 0.473863 0
M  V30 14350 O 1290.19 2.59638 0.793762 0
M  V30 14351 C 1288.65 3.15444 -1.73273 0
M  V30 14352 C 1288.26 3.09121 -3.24266 0
M  V30 14353 C 1290 3.92575 -1.61509 0
M  V30 14354 C 1287.91 4.44109 -3.9054 0
M  V30 14355 H 1286.84 0.657569 -0.368944 0
M  V30 14356 H 1289.49 1.14739 -1.43203 0
M  V30 14357 H 1287.87 3.76601 -1.22425 0
M  V30 14358 H 1289.05 2.57325 -3.82257 0
M  V30 14359 H 1287.36 2.45485 -3.36342 0
M  V30 14360 H 1289.96 4.92428 -2.08372 0
M  V30 14361 H 1290.3 4.12382 -0.569804 0
M  V30 14362 H 1290.83 3.38027 -2.09721 0
M  V30 14363 H 1287.57 4.29506 -4.95182 0
M  V30 14364 H 1287.09 4.95947 -3.37337 0
M  V30 14365 H 1288.77 5.12982 -3.94282 0
M  V30 14366 N 1288.9 1.00119 1.21713 0
M  V30 14367 C 1289.81 0.567582 2.27631 0
M  V30 14368 C 1290.83 -0.387593 1.69628 0
M  V30 14369 O 1292.01 -0.252372 1.99813 0
M  V30 14370 C 1289.07 -0.102745 3.46548 0
M  V30 14371 C 1288.13 0.896433 4.19836 0
M  V30 14372 C 1287.36 0.258 5.33076 0
M  V30 14373 O 1287.59 -0.946118 5.62499 0
M  V30 14374 O 1286.52 0.967021 5.94081 0
M  V30 14375 H 1290.35 1.44898 2.66905 0
M  V30 14376 H 1287.93 0.769862 1.28037 0
M  V30 14377 H 1289.81 -0.477846 4.18682 0
M  V30 14378 H 1288.49 -0.958576 3.09181 0
M  V30 14379 H 1287.4 1.32262 3.49939 0
M  V30 14380 H 1288.73 1.72173 4.61104 0
M  V30 14381 N 1290.38 -1.37203 0.775435 0
M  V30 14382 C 1291.61 -2.03868 0.352927 0
M  V30 14383 C 1292.02 -1.58482 -1.0261 0
M  V30 14384 O 1291.38 -0.767772 -1.65564 0
M  V30 14385 C 1291.43 -3.59378 0.39116 0
M  V30 14386 O 1291.15 -4.03103 1.71579 0
M  V30 14387 C 1292.65 -4.4328 -0.0424808 0
M  V30 14388 H 1289.87 -0.654619 0.14736 0
M  V30 14389 H 1292.42 -1.75463 1.05039 0
M  V30 14390 H 1290.57 -3.86542 -0.257752 0
M  V30 14391 H 1290.99 -4.9764 1.65695 0
M  V30 14392 H 1292.46 -5.51989 0.0354215 0
M  V30 14393 H 1292.94 -4.25374 -1.09333 0
M  V30 14394 H 1293.54 -4.21349 0.578384 0
M  V30 14395 N 1291.86 -0.526279 -1.48553 0
M  V30 14396 C 1293.11 0.0091665 -2.02498 0
M  V30 14397 C 1293.43 1.34632 -1.40373 0
M  V30 14398 O 1292.69 1.88172 -0.537573 0
M  V30 14399 C 1292.99 0.184075 -3.56926 0
M  V30 14400 C 1292.65 -1.07825 -4.37818 0
M  V30 14401 C 1291.32 -1.42422 -4.59641 0
M  V30 14402 C 1293.67 -1.91616 -4.84699 0
M  V30 14403 C 1291 -2.60713 -5.25591 0
M  V30 14404 C 1293.35 -3.09082 -5.51952 0
M  V30 14405 C 1292.01 -3.44029 -5.72014 0
M  V30 14406 H 1291.28 0.00335426 -0.740992 0
M  V30 14407 H 1293.93 -0.691553 -1.78577 0
M  V30 14408 H 1292.23 0.967532 -3.79666 0
M  V30 14409 H 1293.93 0.613226 -3.96283 0
M  V30 14410 H 1290.52 -0.798812 -4.2109 0
M  V30 14411 H 1294.71 -1.66199 -4.67645 0
M  V30 14412 H 1289.96 -2.87996 -5.39322 0
M  V30 14413 H 1294.14 -3.74317 -5.87247 0
M  V30 14414 H 1291.76 -4.35789 -6.2289 0
M  V30 14415 N 1293.34 1.5542 -0.261239 0
M  V30 14416 C 1294.61 1.91243 0.41056 0
M  V30 14417 C 1294.99 1.1838 1.74784 0
M  V30 14418 O 1294.34 0.306013 2.26442 0
M  V30 14419 C 1294.55 3.44404 0.56453 0
M  V30 14420 C 1295.9 4.15927 0.853827 0
M  V30 14421 O 1296.92 3.50222 0.649861 0
M  V30 14422 O 1295.78 5.32175 1.24308 0
M  V30 14423 H 1292.88 0.796491 0.222555 0
M  V30 14424 H 1295.42 1.66912 -0.306367 0
M  V30 14425 H 1294.2 3.89478 -0.377134 0
M  V30 14426 H 1293.82 3.74644 1.33145 0
M  V30 14427 N 1294.82 -0.0116844 1.57596 0
M  V30 14428 C 1295.75 -1.04043 2.03102 0
M  V30 14429 C 1296.73 -1.34164 0.918622 0
M  V30 14430 O 1297.91 -1.46527 1.18584 0
M  V30 14431 C 1295.04 -2.37094 2.41876 0
M  V30 14432 C 1294.08 -2.22713 3.63732 0
M  V30 14433 S 1294.92 -1.56416 5.12147 0
M  V30 14434 C 1296.07 -2.90921 5.5418 0
M  V30 14435 H 1296.31 -0.652899 2.90042 0
M  V30 14436 H 1293.84 -0.222201 1.52793 0
M  V30 14437 H 1295.8 -3.13602 2.64885 0
M  V30 14438 H 1294.46 -2.7299 1.55356 0
M  V30 14439 H 1293.65 -3.20976 3.88575 0
M  V30 14440 H 1293.25 -1.54349 3.40665 0
M  V30 14441 H 1295.54 -3.87237 5.55926 0
M  V30 14442 H 1296.49 -2.70792 6.54276 0
M  V30 14443 H 1296.9 -2.94293 4.81717 0
M  V30 14444 N 1296.29 -1.55015 -0.284256 0
M  V30 14445 C 1297.2 -1.90203 -1.37332 0
M  V30 14446 C 1298.22 -0.797994 -1.54622 0
M  V30 14447 O 1299.4 -1.09602 -1.68965 0
M  V30 14448 C 1296.46 -2.15687 -2.71441 0
M  V30 14449 C 1295.52 -3.39313 -2.62993 0
M  V30 14450 C 1294.75 -3.63571 -3.90707 0
M  V30 14451 O 1294.98 -2.90538 -4.9086 0
M  V30 14452 O 1293.91 -4.57102 -3.91589 0
M  V30 14453 H 1297.74 -2.82888 -1.1049 0
M  V30 14454 H 1295.32 -1.41418 -0.481798 0
M  V30 14455 H 1297.2 -2.33553 -3.50758 0
M  V30 14456 H 1295.88 -1.26185 -2.98092 0
M  V30 14457 H 1294.79 -3.26793 -1.82091 0
M  V30 14458 H 1296.12 -4.28997 -2.41293 0
M  V30 14459 N 1297.77 0.548248 -1.47757 0
M  V30 14460 C 1299 1.335 -1.58722 0
M  V30 14461 C 1299.42 1.86549 -0.241034 0
M  V30 14462 O 1298.78 1.63447 0.784517 0
M  V30 14463 C 1298.83 2.47457 -2.62293 0
M  V30 14464 O 1297.93 3.49956 -2.18185 0
M  V30 14465 H 1297.27 0.396166 -0.532868 0
M  V30 14466 H 1299.8 0.66164 -1.93607 0
M  V30 14467 H 1299.81 2.93901 -2.82995 0
M  V30 14468 H 1298.49 2.08203 -3.60034 0
M  V30 14469 H 1297.06 3.09755 -2.0762 0
M  V30 14470 N 1299.25 1.36039 0.795694 0
M  V30 14471 C 1300.18 1.32528 1.92246 0
M  V30 14472 C 1301.16 0.197805 1.68946 0
M  V30 14473 O 1302.35 0.394474 1.90151 0
M  V30 14474 C 1299.48 1.10748 3.29169 0
M  V30 14475 C 1298.43 2.20253 3.66978 0
M  V30 14476 C 1297.76 1.83624 5.02181 0
M  V30 14477 C 1299.06 3.62296 3.76216 0
M  V30 14478 H 1300.75 2.2681 1.95442 0
M  V30 14479 H 1298.3 1.09181 0.938908 0
M  V30 14480 H 1300.25 1.06929 4.07608 0
M  V30 14481 H 1298.97 0.129141 3.26345 0
M  V30 14482 H 1297.63 2.23187 2.90832 0
M  V30 14483 H 1297.28 0.843804 4.95872 0
M  V30 14484 H 1296.98 2.56935 5.28449 0
M  V30 14485 H 1298.5 1.81349 5.83048 0
M  V30 14486 H 1299.92 3.61623 4.44861 0
M  V30 14487 H 1298.31 4.34459 4.13963 0
M  V30 14488 H 1299.38 3.97657 2.77483 0
M  V30 14489 N 1300.73 -1.01913 1.20215 0
M  V30 14490 C 1302.14 -1.27766 0.956459 0
M  V30 14491 C 1302.34 -1.98158 -0.365486 0
M  V30 14492 O 1301.4 -2.27539 -1.09463 0
M  V30 14493 C 1302.71 -2.11516 2.13732 0
M  V30 14494 C 1304.26 -2.24792 2.17802 0
M  V30 14495 C 1304.74 -3.11919 3.35367 0
M  V30 14496 N 1306.23 -3.19507 3.35364 0
M  V30 14497 C 1306.96 -3.8714 4.22978 0
M  V30 14498 N 1306.46 -4.5692 5.20765 0
M  V30 14499 N 1308.25 -3.83638 4.10827 0
M  V30 14500 H 1300.4 -0.546426 2.05251 0
M  V30 14501 H 1302.67 -0.303772 0.898012 0
M  V30 14502 H 1302.37 -1.67127 3.09453 0
M  V30 14503 H 1302.25 -3.12249 2.11614 0
M  V30 14504 H 1304.63 -2.68407 1.22645 0
M  V30 14505 H 1304.71 -1.23576 2.2397 0
M  V30 14506 H 1304.36 -2.6901 4.30809 0
M  V30 14507 H 1304.29 -4.13215 3.26436 0
M  V30 14508 H 1306.78 -2.69819 2.64587 0
M  V30 14509 H 1307.09 -5.06188 5.83947 0
M  V30 14510 H 1305.44 -4.55753 5.24704 0
M  V30 14511 H 1308.63 -3.28268 3.33703 0
M  V30 14512 H 1308.8 -4.36071 4.79318 0
M  V30 14513 N 1302.21 -1.00763 -1.2118 0
M  V30 14514 C 1303.14 -0.515053 -2.22312 0
M  V30 14515 C 1304.12 0.432665 -1.56738 0
M  V30 14516 O 1305.3 0.35477 -1.85131 0
M  V30 14517 C 1302.43 0.251544 -3.37765 0
M  V30 14518 C 1301.47 -0.64437 -4.21604 0
M  V30 14519 S 1302.31 -2.10832 -4.9225 0
M  V30 14520 C 1303.46 -1.35163 -6.11132 0
M  V30 14521 H 1303.7 -1.37198 -2.6375 0
M  V30 14522 H 1301.23 -0.815783 -1.31089 0
M  V30 14523 H 1303.19 0.687761 -4.04698 0
M  V30 14524 H 1301.85 1.08393 -2.94805 0
M  V30 14525 H 1301.04 -0.0537452 -5.03971 0
M  V30 14526 H 1300.64 -1.01798 -3.5988 0
M  V30 14527 H 1302.94 -0.6269 -6.74593 0
M  V30 14528 H 1303.88 -2.15111 -6.74635 0
M  V30 14529 H 1304.29 -0.858444 -5.57935 0
M  V30 14530 N 1303.68 1.3679 -0.7827 0
M  V30 14531 C 1304.93 1.99023 -0.351316 0
M  V30 14532 C 1305.25 1.62436 1.07887 0
M  V30 14533 O 1304.52 0.895084 1.74256 0
M  V30 14534 H 1303.1 0.736141 -0.126909 0
M  V30 14535 H 1305.77 1.67095 -1.00325 0
M  V30 14536 H 1304.86 3.09015 -0.43774 0
M  V30 14537 N 1305.16 0.53415 1.48272 0
M  V30 14538 C 1306.41 0.00157259 2.025 0
M  V30 14539 C 1306.74 -1.33886 1.41085 0
M  V30 14540 O 1305.99 -1.87884 0.547544 0
M  V30 14541 C 1306.29 -0.165144 3.57018 0
M  V30 14542 C 1305.96 1.10146 4.3724 0
M  V30 14543 C 1304.62 1.44857 4.58879 0
M  V30 14544 C 1306.97 1.94183 4.83676 0
M  V30 14545 C 1304.3 2.63497 5.24201 0
M  V30 14546 C 1306.65 3.12005 5.50305 0
M  V30 14547 C 1305.32 3.47058 5.70182 0
M  V30 14548 H 1304.59 0.00057545 0.741 0
M  V30 14549 H 1307.23 0.701014 1.78208 0
M  V30 14550 H 1305.54 -0.947384 3.80173 0
M  V30 14551 H 1307.23 -0.592202 3.96603 0
M  V30 14552 H 1303.82 0.821132 4.20661 0
M  V30 14553 H 1308.01 1.68677 4.66757 0
M  V30 14554 H 1303.26 2.90852 5.37787 0
M  V30 14555 H 1307.44 3.77426 5.85254 0
M  V30 14556 H 1305.07 4.39086 6.2057 0
M  V30 14557 N 1306.64 -1.55279 0.269478 0
M  V30 14558 C 1307.89 -1.99077 -0.348224 0
M  V30 14559 C 1308.21 -1.15925 -1.568 0
M  V30 14560 O 1307.48 -0.247404 -1.94331 0
M  V30 14561 H 1306.06 -0.735307 -0.131653 0
M  V30 14562 H 1308.72 -1.91288 0.373506 0
M  V30 14563 H 1307.82 -3.05427 -0.641953 0
M  V30 14564 N 1308.12 0.00332656 -1.576 0
M  V30 14565 C 1309.07 1.01406 -2.09331 0
M  V30 14566 C 1310.06 1.35806 -1.01258 0
M  V30 14567 O 1311.27 1.34409 -1.19726 0
M  V30 14568 H 1307.64 0.344661 -0.668366 0
M  V30 14569 H 1309.61 0.552154 -2.93247 0
M  V30 14570 C 1308.36 2.29819 -2.60918 0
M  V30 14571 H 1307.68 2.04216 -3.43709 0
M  V30 14572 H 1309.12 2.98826 -3.00797 0
M  V30 14573 C 1307.58 3.0057 -1.52182 0
M  V30 14574 O 1308.11 3.91423 -0.902817 0
M  V30 14575 N 1306.32 2.62338 -1.25009 0
M  V30 14576 H 1305.87 1.88538 -1.75531 0
M  V30 14577 H 1305.82 3.0999 -0.524736 0
M  V30 14578 N 1309.6 1.55164 0.276031 0
M  V30 14579 C 1310.53 1.90844 1.34539 0
M  V30 14580 C 1311.51 0.769968 1.51676 0
M  V30 14581 O 1312.69 1.02785 1.64769 0
M  V30 14582 C 1309.82 2.17769 2.70543 0
M  V30 14583 C 1308.78 3.33592 2.68142 0
M  V30 14584 C 1308.1 3.45991 4.07669 0
M  V30 14585 C 1309.4 4.70064 2.27678 0
M  V30 14586 H 1311.1 2.80412 1.04926 0
M  V30 14587 H 1308.64 1.34918 0.503303 0
M  V30 14588 H 1310.6 2.41317 3.45462 0
M  V30 14589 H 1309.32 1.24997 3.01734 0
M  V30 14590 H 1307.98 3.10007 1.95681 0
M  V30 14591 H 1307.63 2.50691 4.36077 0
M  V30 14592 H 1307.33 4.23862 4.06958 0
M  V30 14593 H 1308.85 3.71828 4.84331 0
M  V30 14594 H 1310.26 4.93176 2.92319 0
M  V30 14595 H 1308.66 5.50829 2.38134 0
M  V30 14596 H 1309.73 4.69091 1.22808 0
M  V30 14597 N 1311.07 -0.540404 1.48045 0
M  V30 14598 C 1312.32 -1.2987 1.55762 0
M  V30 14599 C 1312.65 -1.92877 0.226307 0
M  V30 14600 O 1311.93 -1.7875 -0.766727 0
M  V30 14601 C 1312.21 -2.39602 2.68817 0
M  V30 14602 C 1312.06 -1.81354 4.1162 0
M  V30 14603 C 1313.38 -3.41434 2.77688 0
M  V30 14604 H 1310.5 -0.47083 0.566999 0
M  V30 14605 H 1313.14 -0.603081 1.80175 0
M  V30 14606 H 1311.29 -2.98936 2.48132 0
M  V30 14607 H 1312.97 -1.26151 4.43716 0
M  V30 14608 H 1311.21 -1.1194 4.19108 0
M  V30 14609 H 1311.88 -2.60758 4.86528 0
M  V30 14610 H 1314.36 -2.92042 2.96396 0
M  V30 14611 H 1313.23 -4.15621 3.5854 0
M  V30 14612 H 1313.49 -4.01336 1.85422 0
M  V30 14613 N 1312.55 -1.36459 -0.788468 0
M  V30 14614 C 1313.78 -1.33898 -1.57731 0
M  V30 14615 C 1314.2 0.0795471 -1.88632 0
M  V30 14616 O 1313.55 1.03671 -1.50195 0
M  V30 14617 C 1313.6 -2.16134 -2.89773 0
M  V30 14618 O 1313.32 -3.52457 -2.60203 0
M  V30 14619 C 1314.83 -2.21364 -3.84074 0
M  V30 14620 H 1312.05 -0.459269 -0.489197 0
M  V30 14621 H 1314.59 -1.79569 -0.978526 0
M  V30 14622 H 1312.74 -1.74015 -3.46118 0
M  V30 14623 H 1313.16 -3.95378 -3.4464 0
M  V30 14624 H 1314.63 -2.83261 -4.7378 0
M  V30 14625 H 1315.11 -1.21736 -4.21992 0
M  V30 14626 H 1315.72 -2.63723 -3.33662 0
M  V30 14627 N 1314.03 1.01274 -1.20754 0
M  V30 14628 C 1314.96 2.11763 -0.983805 0
M  V30 14629 C 1315.94 1.69869 0.0885635 0
M  V30 14630 O 1317.13 1.94075 -0.0697239 0
M  V30 14631 C 1314.26 3.43087 -0.539287 0
M  V30 14632 C 1313.21 3.9874 -1.55534 0
M  V30 14633 C 1312.54 5.25877 -0.967322 0
M  V30 14634 C 1313.84 4.31688 -2.94012 0
M  V30 14635 H 1315.53 2.30737 -1.90789 0
M  V30 14636 H 1313.08 1.10884 -0.918734 0
M  V30 14637 H 1315.03 4.19773 -0.369979 0
M  V30 14638 H 1313.75 3.23883 0.420435 0
M  V30 14639 H 1312.41 3.24166 -1.71207 0
M  V30 14640 H 1312.06 5.03 0.000448307 0
M  V30 14641 H 1311.76 5.64077 -1.64594 0
M  V30 14642 H 1313.28 6.05215 -0.809167 0
M  V30 14643 H 1314.7 4.99246 -2.81827 0
M  V30 14644 H 1313.1 4.81011 -3.58815 0
M  V30 14645 H 1314.17 3.4029 -3.45442 0
M  V30 14646 N 1315.51 1.01404 1.20644 0
M  V30 14647 C 1316.79 0.617088 1.85611 0
M  V30 14648 C 1317.17 -0.904947 1.9072 0
M  V30 14649 O 1316.51 -1.79562 1.41315 0
M  V30 14650 C 1316.72 1.26193 3.25386 0
M  V30 14651 C 1318.07 1.37575 4.01694 0
M  V30 14652 O 1319.1 1.21795 3.34731 0
M  V30 14653 O 1317.96 1.6305 5.2161 0
M  V30 14654 H 1315.05 0.212579 0.799211 0
M  V30 14655 H 1317.6 1.11126 1.28254 0
M  V30 14656 H 1316.37 2.30206 3.16419 0
M  V30 14657 H 1315.99 0.754679 3.90372 0
M  V30 14658 N 1316.99 -1.36373 0.789944 0
M  V30 14659 C 1318.23 -1.99227 0.362582 0
M  V30 14660 C 1318.56 -1.62694 -1.06587 0
M  V30 14661 O 1317.82 -0.873748 -1.75112 0
M  V30 14662 C 1318.12 -3.54243 0.474025 0
M  V30 14663 C 1317.78 -4.10597 1.86336 0
M  V30 14664 C 1316.44 -4.257 2.24349 0
M  V30 14665 C 1318.8 -4.41306 2.77306 0
M  V30 14666 C 1316.12 -4.68824 3.52734 0
M  V30 14667 C 1318.48 -4.85861 4.05119 0
M  V30 14668 C 1317.14 -4.9917 4.43154 0
M  V30 14669 H 1316.41 -0.729025 0.132678 0
M  V30 14670 H 1319.06 -1.62854 1.00751 0
M  V30 14671 H 1317.36 -3.90973 -0.254399 0
M  V30 14672 H 1319.06 -4.00807 0.124384 0
M  V30 14673 H 1315.65 -3.99281 1.55797 0
M  V30 14674 H 1319.83 -4.29205 2.49191 0
M  V30 14675 H 1315.09 -4.77315 3.82073 0
M  V30 14676 H 1319.26 -5.08587 4.75723 0
M  V30 14677 H 1316.89 -5.32344 5.42692 0
M  V30 14678 N 1318.47 -0.542005 -1.47987 0
M  V30 14679 C 1319.88 -0.104646 -1.86406 0
M  V30 14680 C 1320.23 1.32139 -1.4503 0
M  V30 14681 O 1319.35 1.99159 -0.846439 0
M  V30 14682 C 1319.95 -0.183133 -3.38305 0
M  V30 14683 C 1318.51 0.199098 -3.75873 0
M  V30 14684 C 1317.65 -0.537532 -2.7204 0
M  V30 14685 H 1320.6 -0.75259 -1.3972 0
M  V30 14686 H 1320.63 0.602149 -3.75705 0
M  V30 14687 H 1320.14 -1.22113 -3.68389 0
M  V30 14688 H 1318.24 1.23878 -3.51404 0
M  V30 14689 H 1318.35 -0.14888 -4.78869 0
M  V30 14690 H 1316.72 0.0176255 -2.54694 0
M  V30 14691 H 1317.5 -1.57639 -3.04967 0
M  V30 14692 N 1319.94 1.55134 -0.277709 0
M  V30 14693 C 1320.89 2.2263 0.608637 0
M  V30 14694 C 1321.86 1.20067 1.14774 0
M  V30 14695 O 1323.05 1.48617 1.19657 0
M  V30 14696 C 1320.19 2.95308 1.78571 0
M  V30 14697 C 1319.3 4.12595 1.28021 0
M  V30 14698 C 1318.43 4.7291 2.41929 0
M  V30 14699 C 1317.47 5.82386 1.88395 0
M  V30 14700 N 1316.61 6.36754 2.95786 0
M  V30 14701 H 1321.45 2.97988 0.0264138 0
M  V30 14702 H 1318.99 1.471 0.00127068 0
M  V30 14703 H 1320.94 3.35662 2.47764 0
M  V30 14704 H 1319.57 2.22368 2.33992 0
M  V30 14705 H 1318.63 3.77343 0.481297 0
M  V30 14706 H 1319.94 4.91537 0.848128 0
M  V30 14707 H 1319.09 5.15997 3.1911 0
M  V30 14708 H 1317.83 3.93251 2.88453 0
M  V30 14709 H 1316.84 5.38746 1.09694 0
M  V30 14710 H 1318.06 6.63916 1.42803 0
M  V30 14711 H 1316.01 5.59987 3.41687 0
M  V30 14712 H 1315.92 7.10975 2.57002 0
M  V30 14713 H 1317.19 6.845 3.72935 0
M  V30 14714 N 1321.42 0.00503138 1.57599 0
M  V30 14715 C 1322.33 -1.00097 2.12174 0
M  V30 14716 C 1323.35 -1.37353 1.06818 0
M  V30 14717 O 1324.52 -1.45984 1.38747 0
M  V30 14718 C 1321.59 -2.27252 2.61835 0
M  V30 14719 C 1320.65 -1.96262 3.81811 0
M  V30 14720 C 1319.88 -3.17355 4.29094 0
M  V30 14721 O 1320.11 -4.2921 3.75679 0
M  V30 14722 O 1319.04 -3.01059 5.21198 0
M  V30 14723 H 1322.87 -0.567024 2.9836 0
M  V30 14724 H 1320.45 -0.214109 1.47858 0
M  V30 14725 H 1322.33 -3.01944 2.93952 0
M  V30 14726 H 1321.01 -2.69875 1.78744 0
M  V30 14727 H 1319.91 -1.19031 3.54658 0
M  V30 14728 H 1321.25 -1.58473 4.65991 0
M  V30 14729 N 1322.9 -1.55308 -0.267798 0
M  V30 14730 C 1324.18 -1.66881 -1.02029 0
M  V30 14731 C 1324.56 -0.538708 -2.04111 0
M  V30 14732 O 1323.9 0.460575 -2.2381 0
M  V30 14733 C 1324.11 -3.06318 -1.67243 0
M  V30 14734 C 1325.46 -3.64237 -2.18212 0
M  V30 14735 O 1326.49 -3.08984 -1.77221 0
M  V30 14736 O 1325.35 -4.61055 -2.93413 0
M  V30 14737 H 1322.44 -0.677967 -0.473593 0
M  V30 14738 H 1324.99 -1.67646 -0.263242 0
M  V30 14739 H 1323.76 -3.80015 -0.932985 0
M  V30 14740 H 1323.38 -3.09475 -2.49622 0
M  V30 14741 N 1324.38 0.532545 -1.4833 0
M  V30 14742 C 1325.61 1.31141 -1.59642 0
M  V30 14743 C 1326.02 1.87476 -0.254835 0
M  V30 14744 O 1325.36 1.66985 0.765622 0
M  V30 14745 C 1325.42 2.50182 -2.58165 0
M  V30 14746 C 1325.08 2.14953 -4.03292 0
M  V30 14747 C 1326.08 1.70777 -4.91051 0
M  V30 14748 C 1323.77 2.25555 -4.4881 0
M  V30 14749 C 1325.76 1.37665 -6.22356 0
M  V30 14750 C 1323.45 1.92055 -5.80136 0
M  V30 14751 C 1324.45 1.48181 -6.66732 0
M  V30 14752 O 1324.13 1.15119 -7.95615 0
M  V30 14753 H 1323.87 0.405164 -0.541127 0
M  V30 14754 H 1326.42 0.649423 -1.94863 0
M  V30 14755 H 1324.65 3.19353 -2.1806 0
M  V30 14756 H 1326.34 3.12246 -2.5934 0
M  V30 14757 H 1327.1 1.62059 -4.57124 0
M  V30 14758 H 1322.98 2.5866 -3.81597 0
M  V30 14759 H 1326.53 1.03348 -6.89902 0
M  V30 14760 H 1322.42 2.00413 -6.136 0
M  V30 14761 H 1323.19 1.28539 -8.08344 0
M  V30 14762 N 1325.86 1.36875 0.78122 0
M  V30 14763 C 1327.27 1.17467 1.08044 0
M  V30 14764 C 1327.47 0.00434799 2.015 0
M  V30 14765 O 1326.53 -0.658499 2.43762 0
M  V30 14766 C 1327.84 2.48917 1.68704 0
M  V30 14767 C 1329.39 2.55354 1.81007 0
M  V30 14768 C 1329.86 3.8691 2.45081 0
M  V30 14769 N 1331.35 3.88301 2.52541 0
M  V30 14770 C 1332.09 4.86837 3.02947 0
M  V30 14771 N 1331.59 5.95768 3.53598 0
M  V30 14772 N 1333.38 4.74249 3.01735 0
M  V30 14773 H 1325.53 2.11793 0.160503 0
M  V30 14774 H 1327.79 0.938507 0.133825 0
M  V30 14775 H 1327.5 3.34867 1.07503 0
M  V30 14776 H 1327.37 2.65319 2.68115 0
M  V30 14777 H 1329.76 1.69816 2.41343 0
M  V30 14778 H 1329.84 2.42843 0.803783 0
M  V30 14779 H 1329.48 4.72858 1.85386 0
M  V30 14780 H 1329.41 3.9672 3.46296 0
M  V30 14781 H 1331.91 3.09607 2.16684 0
M  V30 14782 H 1332.22 6.66918 3.90435 0
M  V30 14783 H 1330.56 5.99426 3.51728 0
M  V30 14784 H 1333.75 3.88275 2.61458 0
M  V30 14785 H 1333.93 5.512 3.40709 0
M  V30 14786 O 1327.37 -0.920996 1.32665 0
M  V30 14787 H 1328.06 -1.55371 1.1567 0
M  V30 END ATOM
M  V30 BEGIN BOND
M  V30 END BOND
M  V30 END CTAB
M  END
$$$$
