drugbank_target|Q9H2P9 Diphthine methyl ester synthase (DB01752)
 OpenBabel12092120533D

  0  0  0     0  0            999 V3000
M  V30 BEGIN CTAB
M  V30 COUNTS 4466 4499 0 0 0
M  V30 BEGIN ATOM
M  V30 1 H -0.908 1.98254 -0.117106 0
M  V30 2 N 0 1.576 0 0
M  V30 3 C 0.933 2.03868 1.02534 0
M  V30 4 C 1.911 0.928543 1.3348 0
M  V30 5 O 3.095 1.19667 1.45644 0
M  V30 6 C 0.222 2.43627 2.35294 0
M  V30 7 C -0.732 3.65373 2.2001 0
M  V30 8 S 0.101 5.13292 1.52614 0
M  V30 9 C 1.257 5.56322 2.86805 0
M  V30 10 H 1.49 2.90518 0.631377 0
M  V30 11 H -0.977 1.52953 0.210867 0
M  V30 12 H 0.981 2.67203 3.11629 0
M  V30 13 H -0.358 1.57376 2.7183 0
M  V30 14 H -1.165 3.90944 3.18086 0
M  V30 15 H -1.563 3.418 1.51819 0
M  V30 16 H 0.729 5.58782 3.83104 0
M  V30 17 H 1.672 6.56266 2.65933 0
M  V30 18 H 2.08 4.83886 2.90714 0
M  V30 19 N 1.4781 -0.272755 1.55222 0
M  V30 20 C 2.4081 -1.34136 1.91127 0
M  V30 21 C 3.3891 -1.51513 0.773168 0
M  V30 22 O 4.5741 -1.64552 1.03132 0
M  V30 23 C 1.7041 -2.70083 2.1834 0
M  V30 24 C 0.6581 -2.67437 3.34158 0
M  V30 25 C -0.0159 -4.06938 3.46851 0
M  V30 26 C 1.2841 -2.26686 4.70543 0
M  V30 27 H 2.9781 -1.04333 2.80633 0
M  V30 28 H 0.5241 -0.500454 1.35024 0
M  V30 29 H 2.4771 -3.44952 2.42046 0
M  V30 30 H 1.2011 -3.01469 1.25634 0
M  V30 31 H -0.1399 -1.95026 3.1042 0
M  V30 32 H -0.4919 -4.35547 2.51611 0
M  V30 33 H -0.7919 -4.06062 4.2472 0
M  V30 34 H 0.7321 -4.83545 3.72849 0
M  V30 35 H 2.1461 -2.91277 4.93792 0
M  V30 36 H 0.5431 -2.36971 5.5133 0
M  V30 37 H 1.6131 -1.21818 4.69349 0
M  V30 38 N 2.9562 -1.48159 -0.537278 0
M  V30 39 C 4.1862 -1.59223 -1.3165 0
M  V30 40 C 4.5942 -0.248849 -1.87556 0
M  V30 41 O 3.9372 0.770949 -1.6674 0
M  V30 42 C 3.9992 -2.57365 -2.51005 0
M  V30 43 C 3.6632 -4.02603 -2.16239 0
M  V30 44 C 4.6602 -4.90503 -1.72344 0
M  V30 45 C 2.3452 -4.48088 -2.26986 0
M  V30 46 C 4.3392 -6.21913 -1.39651 0
M  V30 47 C 2.0262 -5.7952 -1.93906 0
M  V30 48 C 3.0242 -6.66255 -1.50309 0
M  V30 49 O 2.7122 -7.95243 -1.17659 0
M  V30 50 H 2.4442 -0.539831 -0.406889 0
M  V30 51 H 4.9982 -1.94655 -0.655641 0
M  V30 52 H 3.2282 -2.1704 -3.20048 0
M  V30 53 H 4.9172 -2.58342 -3.13072 0
M  V30 54 H 5.6832 -4.56604 -1.63517 0
M  V30 55 H 1.5622 -3.80769 -2.59877 0
M  V30 56 H 5.1062 -6.89569 -1.0555 0
M  V30 57 H 1.0032 -6.12957 -2.02371 0
M  V30 58 H 1.7712 -8.0793 -1.31119 0
M  V30 59 N 4.4343 0.785586 -1.36625 0
M  V30 60 C 5.3643 1.91259 -1.33949 0
M  V30 61 C 6.3453 1.68795 -0.210325 0
M  V30 62 O 7.5303 1.89854 -0.408561 0
M  V30 63 C 4.6603 3.28339 -1.13186 0
M  V30 64 C 3.6143 3.65335 -2.22967 0
M  V30 65 C 2.9403 5.00806 -1.87342 0
M  V30 66 C 4.2403 3.7352 -3.65075 0
M  V30 67 H 5.9343 1.93755 -2.28253 0
M  V30 68 H 3.4803 0.930788 -1.09874 0
M  V30 69 H 5.4333 4.06804 -1.09948 0
M  V30 70 H 4.1573 3.2624 -0.153332 0
M  V30 71 H 2.8163 2.89169 -2.25337 0
M  V30 72 H 2.4643 4.95233 -0.880545 0
M  V30 73 H 2.1643 5.26529 -2.60846 0
M  V30 74 H 3.6883 5.81687 -1.85667 0
M  V30 75 H 5.1023 4.42168 -3.64911 0
M  V30 76 H 3.4993 4.10731 -4.37516 0
M  V30 77 H 4.5693 2.74527 -3.99703 0
M  V30 78 N 5.9124 1.20967 1.01018 0
M  V30 79 C 7.1614 1.01796 1.74128 0
M  V30 80 C 7.4744 -0.449691 1.90361 0
M  V30 81 O 8.6804 -0.76068 2.60626 0
M  V30 82 C 7.1364 1.7727 3.13215 0
M  V30 83 C 6.7444 3.28171 3.04972 0
M  V30 84 C 8.4884 1.66489 3.90489 0
M  V30 85 C 6.3954 3.96156 4.39107 0
M  V30 86 H 5.3254 0.377276 0.652824 0
M  V30 87 H 7.9764 1.44651 1.12909 0
M  V30 88 H 6.3584 1.27205 3.75013 0
M  V30 89 H 7.5324 3.85499 2.52443 0
M  V30 90 H 5.8474 3.39437 2.41188 0
M  V30 91 H 8.4444 2.14617 4.89738 0
M  V30 92 H 8.7874 0.6222 4.11624 0
M  V30 93 H 9.3204 2.14003 3.35332 0
M  V30 94 H 6.0594 5.00604 4.23174 0
M  V30 95 H 5.5794 3.43617 4.91617 0
M  V30 96 H 7.2584 4.00774 5.07926 0
M  V30 97 N 7.3905 -1.2043 1.01659 0
M  V30 98 C 8.6385 -1.89423 0.704522 0
M  V30 99 C 8.9595 -1.79231 -0.768197 0
M  V30 100 O 8.2295 -1.1947 -1.55254 0
M  V30 101 H 6.8095 -0.701178 0.257602 0
M  V30 102 H 9.4715 -1.4626 1.28818 0
M  V30 103 H 8.5675 -2.96052 0.987916 0
M  V30 104 N 8.8686 -0.792821 -1.36206 0
M  V30 105 C 9.7986 -0.207853 -2.32573 0
M  V30 106 C 10.7796 0.659055 -1.56813 0
M  V30 107 O 11.9646 0.592176 -1.84951 0
M  V30 108 C 9.0946 0.655449 -3.41059 0
M  V30 109 C 8.0486 -0.111842 -4.27854 0
M  V30 110 C 7.3746 0.872274 -5.27537 0
M  V30 111 C 8.6746 -1.30299 -5.05786 0
M  V30 112 H 10.3686 -1.01294 -2.81744 0
M  V30 113 H 7.9146 -0.48854 -1.3546 0
M  V30 114 H 9.8676 1.07464 -4.07467 0
M  V30 115 H 8.5916 1.49328 -2.90463 0
M  V30 116 H 7.2506 -0.512053 -3.63006 0
M  V30 117 H 6.8986 1.70523 -4.73214 0
M  V30 118 H 6.5986 0.363291 -5.86476 0
M  V30 119 H 8.1226 1.28996 -5.96818 0
M  V30 120 H 9.5366 -0.959379 -5.65216 0
M  V30 121 H 7.9336 -1.7455 -5.74154 0
M  V30 122 H 9.0036 -2.09663 -4.37229 0
M  V30 123 N 10.3467 1.47872 -0.545128 0
M  V30 124 C 11.5947 2.02093 -0.016553 0
M  V30 125 C 11.9157 1.42305 1.3332 0
M  V30 126 O 11.1857 0.593853 1.86682 0
M  V30 127 H 9.7657 0.746993 -0.00313038 0
M  V30 128 H 12.4277 1.81414 -0.712397 0
M  V30 129 H 11.5237 3.11996 0.0805422 0
M  V30 130 N 11.8248 0.280983 1.55075 0
M  V30 131 C 12.7548 -0.597469 2.25727 0
M  V30 132 C 13.7358 -1.15417 1.24952 0
M  V30 133 O 14.9208 -1.18722 1.53684 0
M  V30 134 C 12.0508 -1.7789 2.98283 0
M  V30 135 C 11.0048 -1.35347 4.06036 0
M  V30 136 C 10.3308 -2.61846 4.66198 0
M  V30 137 C 11.6308 -0.499354 5.19907 0
M  V30 138 H 13.3248 -0.00824265 2.99399 0
M  V30 139 H 10.8708 -0.0025244 1.44 0
M  V30 140 H 12.8238 -2.39937 3.46422 0
M  V30 141 H 11.5478 -2.39405 2.22155 0
M  V30 142 H 10.2068 -0.756156 3.58717 0
M  V30 143 H 9.8548 -3.21632 3.86732 0
M  V30 144 H 9.5548 -2.3409 5.38958 0
M  V30 145 H 11.0788 -3.24732 5.1709 0
M  V30 146 H 12.4928 -1.02498 5.64063 0
M  V30 147 H 10.8898 -0.316424 5.99265 0
M  V30 148 H 11.9598 0.480459 4.82514 0
M  V30 149 N 13.3029 -1.57598 0.00835791 0
M  V30 150 C 14.5509 -1.90551 -0.6734 0
M  V30 151 C 14.8719 -0.883301 -1.73847 0
M  V30 152 O 14.1419 0.0781442 -1.95744 0
M  V30 153 H 12.7219 -0.703312 -0.251717 0
M  V30 154 H 15.3839 -1.94833 0.0512592 0
M  V30 155 H 14.4799 -2.9056 -1.13935 0
M  V30 156 N 14.781 0.264519 -1.55364 0
M  V30 157 C 16.058 1.01677 -1.67096 0
M  V30 158 C 16.438 2.03996 -0.543015 0
M  V30 159 O 15.786 2.23907 0.45585 0
M  V30 160 C 15.996 1.66596 -3.0667 0
M  V30 161 C 17.344 2.17442 -3.64697 0
M  V30 162 O 18.368 1.76568 -3.09358 0
M  V30 163 O 17.227 2.92439 -4.61673 0
M  V30 164 H 14.321 0.472161 -0.678965 0
M  V30 165 H 16.867 0.259703 -1.67701 0
M  V30 166 H 15.639 0.924962 -3.80211 0
M  V30 167 H 15.262 2.48968 -3.10001 0
M  V30 168 N 16.2591 1.48442 0.529413 0
M  V30 169 C 17.2221 1.62524 1.61612 0
M  V30 170 C 18.2221 0.498509 1.52877 0
M  V30 171 O 19.4121 0.76431 1.56537 0
M  V30 172 C 16.5441 1.59597 3.01233 0
M  V30 173 H 17.7371 2.59423 1.50465 0
M  V30 174 H 15.2901 1.37047 0.751514 0
M  V30 175 H 16.0251 0.641781 3.17886 0
M  V30 176 H 15.8101 2.41397 3.08982 0
M  V30 177 H 17.3001 1.72646 3.80241 0
M  V30 178 N 17.7372 -0.778329 1.37039 0
M  V30 179 C 18.6842 -1.89139 1.32269 0
M  V30 180 C 19.6542 -1.65017 0.189387 0
M  V30 181 O 20.8392 -1.87024 0.377693 0
M  V30 182 C 17.9792 -3.26112 1.12894 0
M  V30 183 C 17.0922 -3.62233 2.35396 0
M  V30 184 C 16.2272 -4.8838 2.08946 0
M  V30 185 C 15.2662 -5.17212 3.2735 0
M  V30 186 N 14.4032 -6.34546 3.00492 0
M  V30 187 H 19.2432 -1.92552 2.27437 0
M  V30 188 H 16.7802 -0.941473 1.13025 0
M  V30 189 H 18.7382 -4.05116 0.996835 0
M  V30 190 H 17.3682 -3.22091 0.213758 0
M  V30 191 H 16.4202 -2.78265 2.5937 0
M  V30 192 H 17.7322 -3.79481 3.23721 0
M  V30 193 H 16.8862 -5.75274 1.92729 0
M  V30 194 H 15.6252 -4.73222 1.17949 0
M  V30 195 H 14.6302 -4.28796 3.44113 0
M  V30 196 H 15.8552 -5.34283 4.19188 0
M  V30 197 H 13.8012 -6.20759 2.12118 0
M  V30 198 H 13.7182 -6.52179 3.82358 0
M  V30 199 H 14.9862 -7.24394 2.87879 0
M  V30 200 N 19.2153 -1.21501 -1.00376 0
M  V30 201 C 20.4923 -0.941745 -1.71437 0
M  V30 202 C 20.8723 0.546114 -2.03914 0
M  V30 203 O 20.2203 1.51128 -1.71384 0
M  V30 204 C 20.4303 -1.82812 -2.97289 0
M  V30 205 C 21.7783 -2.07771 -3.70292 0
M  V30 206 O 22.8023 -1.80171 -3.07273 0
M  V30 207 O 21.6613 -2.54456 -4.83647 0
M  V30 208 H 18.7553 -0.353243 -0.747762 0
M  V30 209 H 21.3013 -1.32436 -1.06108 0
M  V30 210 H 20.0733 -2.83501 -2.69709 0
M  V30 211 H 19.6963 -1.4464 -3.70358 0
M  V30 212 N 20.6934 1.19889 -1.02296 0
M  V30 213 C 21.9424 1.88743 -0.711257 0
M  V30 214 C 22.2554 1.80112 0.762817 0
M  V30 215 O 23.4614 2.44161 1.18733 0
M  V30 216 C 21.9174 3.38525 -1.22185 0
M  V30 217 C 21.5254 3.55727 -2.72328 0
M  V30 218 C 23.2694 4.12893 -0.985864 0
M  V30 219 C 21.1764 4.99369 -3.16835 0
M  V30 220 H 20.1064 0.706885 -0.262353 0
M  V30 221 H 22.7574 1.35586 -1.23648 0
M  V30 222 H 21.1394 3.91044 -0.624571 0
M  V30 223 H 22.3134 3.13564 -3.3766 0
M  V30 224 H 20.6284 2.94739 -2.9414 0
M  V30 225 H 23.2254 5.18813 -1.29374 0
M  V30 226 H 23.5684 4.16228 0.0775055 0
M  V30 227 H 24.1014 3.66494 -1.54684 0
M  V30 228 H 20.8404 5.01193 -4.22476 0
M  V30 229 H 20.3604 5.42317 -2.56228 0
M  V30 230 H 22.0394 5.67988 -3.09837 0
M  V30 231 N 22.1715 0.800033 1.35784 0
M  V30 232 C 23.3995 0.389606 2.03199 0
M  V30 233 C 23.8145 -0.997375 1.60306 0
M  V30 234 O 23.1715 -1.64154 0.797481 0
M  V30 235 C 23.2225 0.455855 3.58614 0
M  V30 236 O 22.9435 1.78815 3.99946 0
M  V30 237 C 24.4445 0.0374032 4.43284 0
M  V30 238 H 21.6645 0.159132 0.651857 0
M  V30 239 H 24.2085 1.08183 1.73541 0
M  V30 240 H 22.3635 -0.188057 3.86943 0
M  V30 241 H 22.7775 1.74636 4.94573 0
M  V30 242 H 24.2515 0.134882 5.51835 0
M  V30 243 H 24.7285 -1.01651 4.27275 0
M  V30 244 H 25.3345 0.654215 4.20238 0
M  V30 245 N 23.6496 -1.47581 0.552962 0
M  V30 246 C 24.8956 -2.02782 0.0273648 0
M  V30 247 C 25.2286 -1.42687 -1.31734 0
M  V30 248 O 24.5036 -0.580897 -1.85623 0
M  V30 249 C 24.7866 -3.60031 -0.0702371 0
M  V30 250 C 24.6396 -4.30566 1.30126 0
M  V30 251 C 25.9586 -4.33028 -0.785771 0
M  V30 252 H 23.0776 -0.736912 0.0114185 0
M  V30 253 H 25.7196 -1.76056 0.714432 0
M  V30 254 H 23.8696 -3.82932 -0.655382 0
M  V30 255 H 25.5416 -4.19018 1.92929 0
M  V30 256 H 23.7846 -3.91086 1.87709 0
M  V30 257 H 24.4556 -5.39114 1.18573 0
M  V30 258 H 26.9316 -4.15095 -0.288982 0
M  V30 259 H 25.8076 -5.42695 -0.823013 0
M  V30 260 H 26.0686 -4.01945 -1.841 0
M  V30 261 N 25.1277 -0.289203 -1.54924 0
M  V30 262 C 26.0747 0.592115 -2.23075 0
M  V30 263 C 27.0447 1.13881 -1.20915 0
M  V30 264 O 28.2297 1.18551 -1.495 0
M  V30 265 C 25.3697 1.76376 -2.96623 0
M  V30 266 C 24.4827 1.24959 -4.13533 0
M  V30 267 C 23.6177 2.38416 -4.74691 0
M  V30 268 C 22.6567 1.84072 -5.83767 0
M  V30 269 N 21.7937 2.91057 -6.38929 0
M  V30 270 H 26.6337 0.00432038 -2.98 0
M  V30 271 H 24.1707 -0.00963529 -1.47097 0
M  V30 272 H 26.1287 2.45268 -3.3749 0
M  V30 273 H 24.7587 2.32337 -2.24097 0
M  V30 274 H 23.8107 0.453307 -3.77689 0
M  V30 275 H 25.1227 0.811662 -4.92152 0
M  V30 276 H 24.2767 3.15276 -5.18349 0
M  V30 277 H 23.0157 2.8553 -3.95378 0
M  V30 278 H 22.0207 1.05697 -5.39545 0
M  V30 279 H 23.2457 1.37877 -6.64956 0
M  V30 280 H 21.1917 3.37526 -5.62505 0
M  V30 281 H 21.1087 2.51724 -7.12861 0
M  V30 282 H 22.3767 3.6785 -6.87246 0
M  V30 283 N 26.6058 1.57591 -0.0167156 0
M  V30 284 C 27.8538 1.90906 0.663285 0
M  V30 285 C 28.1748 0.892509 1.73376 0
M  V30 286 O 27.4448 -0.0677623 1.95783 0
M  V30 287 H 26.0248 0.704637 0.247983 0
M  V30 288 H 28.6868 1.94803 -0.0615909 0
M  V30 289 H 27.7828 2.9116 1.12393 0
M  V30 290 N 28.0839 -0.256276 1.55502 0
M  V30 291 C 29.0139 -1.32102 1.92539 0
M  V30 292 C 29.9949 -1.50684 0.789194 0
M  V30 293 O 31.1799 -1.63449 1.04872 0
M  V30 294 C 28.3099 -2.67752 2.21192 0
M  V30 295 C 27.2639 -2.63878 3.36975 0
M  V30 296 C 26.5899 -4.03236 3.51147 0
M  V30 297 C 27.8899 -2.21682 4.72921 0
M  V30 298 H 29.5839 -1.01351 2.81724 0
M  V30 299 H 27.1299 -0.486105 1.35547 0
M  V30 300 H 29.0829 -3.42365 2.45691 0
M  V30 301 H 27.8069 -3.0012 1.28824 0
M  V30 302 H 26.4659 -1.91722 3.12471 0
M  V30 303 H 26.1139 -4.32854 2.56216 0
M  V30 304 H 25.8139 -4.01535 4.29003 0
M  V30 305 H 27.3379 -4.79563 3.77957 0
M  V30 306 H 28.7519 -2.86023 4.96854 0
M  V30 307 H 27.1489 -2.3111 5.53812 0
M  V30 308 H 28.2189 -1.16833 4.70615 0
M  V30 309 N 29.562 -1.4872 -0.521534 0
M  V30 310 C 30.472 -1.66569 -1.65203 0
M  V30 311 C 31.488 -0.548197 -1.65139 0
M  V30 312 O 32.664 -0.820339 -1.83936 0
M  V30 313 C 29.729 -1.70917 -3.01642 0
M  V30 314 C 28.79 -2.94356 -3.12495 0
M  V30 315 C 28.023 -2.98487 -4.42426 0
M  V30 316 O 28.246 -2.10786 -5.30024 0
M  V30 317 O 27.18 -3.90746 -4.57822 0
M  V30 318 H 31.006 -2.62298 -1.5308 0
M  V30 319 H 28.591 -1.3222 -0.695565 0
M  V30 320 H 30.473 -1.7625 -3.82771 0
M  V30 321 H 29.148 -0.783633 -3.14071 0
M  V30 322 H 28.055 -2.94552 -2.3063 0
M  V30 323 H 29.388 -3.86322 -3.04986 0
M  V30 324 N 31.0401 0.771051 -1.3745 0
M  V30 325 C 32.2861 1.5319 -1.32894 0
M  V30 326 C 32.6191 1.94008 0.0862511 0
M  V30 327 O 31.8941 1.64124 1.04373 0
M  V30 328 C 32.1771 2.79648 -2.26868 0
M  V30 329 C 32.0301 2.45079 -3.77169 0
M  V30 330 C 33.3491 3.81583 -2.19277 0
M  V30 331 H 30.4681 0.555744 -0.484064 0
M  V30 332 H 33.1101 0.884492 -1.68157 0
M  V30 333 H 31.2601 3.34891 -1.96926 0
M  V30 334 H 32.9321 1.95745 -4.1771 0
M  V30 335 H 31.1751 1.77767 -3.95704 0
M  V30 336 H 31.8461 3.35478 -4.38359 0
M  V30 337 H 34.3221 3.35835 -2.45671 0
M  V30 338 H 33.1981 4.67787 -2.87171 0
M  V30 339 H 33.4591 4.25897 -1.18592 0
M  V30 340 N 32.5182 1.22032 0.997298 0
M  V30 341 C 33.7642 1.04376 1.73878 0
M  V30 342 C 34.0972 -0.420716 1.89588 0
M  V30 343 O 33.3722 -1.31202 1.43583 0
M  V30 344 C 33.6552 1.75047 3.14691 0
M  V30 345 C 33.5082 3.29062 3.06656 0
M  V30 346 C 34.8272 1.49928 4.13775 0
M  V30 347 H 31.9462 0.380578 0.631133 0
M  V30 348 H 34.5882 1.50312 1.16217 0
M  V30 349 H 32.7382 1.35996 3.63919 0
M  V30 350 H 34.4102 3.7753 2.65083 0
M  V30 351 H 32.6532 3.58967 2.43568 0
M  V30 352 H 33.3242 3.73683 4.06282 0
M  V30 353 H 35.8002 1.83842 3.73285 0
M  V30 354 H 34.6762 2.01878 5.10428 0
M  V30 355 H 34.9372 0.430929 4.39995 0
M  V30 356 N 33.9963 -1.19345 1.0293 0
M  V30 357 C 35.4123 -1.41069 0.746446 0
M  V30 358 C 35.6123 -1.90078 -0.668776 0
M  V30 359 O 34.6683 -2.0778 -1.4347 0
M  V30 360 C 35.9813 -2.42141 1.78292 0
M  V30 361 C 37.5293 -2.55887 1.80252 0
M  V30 362 C 38.0043 -3.60214 2.8286 0
M  V30 363 N 39.4953 -3.67711 2.81679 0
M  V30 364 C 40.2303 -4.48128 3.57727 0
M  V30 365 N 39.7263 -5.32248 4.43491 0
M  V30 366 N 41.5193 -4.42782 3.46267 0
M  V30 367 H 33.6703 -0.858536 1.94275 0
M  V30 368 H 35.9333 -0.439541 0.839945 0
M  V30 369 H 35.6393 -2.13155 2.79746 0
M  V30 370 H 35.5133 -3.41323 1.60557 0
M  V30 371 H 37.9003 -2.84196 0.794757 0
M  V30 372 H 37.9813 -1.56858 2.02062 0
M  V30 373 H 37.6253 -3.32647 3.83807 0
M  V30 374 H 37.5553 -4.58895 2.58307 0
M  V30 375 H 40.0463 -3.07634 2.19476 0
M  V30 376 H 40.3593 -5.90729 4.98256 0
M  V30 377 H 38.7043 -5.31707 4.47564 0
M  V30 378 H 41.8953 -3.76107 2.78677 0
M  V30 379 H 42.0683 -5.05215 4.05785 0
M  V30 380 N 35.4744 -0.807222 -1.35358 0
M  V30 381 C 36.8904 -0.491038 -1.51858 0
M  V30 382 C 37.0904 0.987648 -1.75635 0
M  V30 383 O 36.1464 1.77265 -1.79815 0
M  V30 384 C 37.4594 -1.33695 -2.69344 0
M  V30 385 C 39.0074 -1.33246 -2.83222 0
M  V30 386 C 39.4824 -2.1625 -4.03733 0
M  V30 387 N 40.9734 -2.1379 -4.10911 0
M  V30 388 C 41.7084 -2.74772 -5.03277 0
M  V30 389 N 41.2044 -3.44684 -6.0097 0
M  V30 390 N 42.9974 -2.6441 -4.96028 0
M  V30 391 H 35.1484 -1.76485 -1.18181 0
M  V30 392 H 37.4114 -0.751199 -0.578276 0
M  V30 393 H 37.1174 -2.38634 -2.58354 0
M  V30 394 H 36.9914 -0.990618 -3.6396 0
M  V30 395 H 39.3784 -0.290911 -2.93663 0
M  V30 396 H 39.4594 -1.71866 -1.89461 0
M  V30 397 H 39.1034 -3.20445 -3.94052 0
M  V30 398 H 39.0334 -1.74989 -4.96675 0
M  V30 399 H 41.5244 -1.62923 -3.40976 0
M  V30 400 H 41.8374 -3.88501 -6.68047 0
M  V30 401 H 40.1824 -3.48788 -6.01142 0
M  V30 402 H 43.3734 -2.0938 -4.18662 0
M  V30 403 H 43.5464 -3.12225 -5.6782 0
M  V30 404 N 36.9525 1.47285 -0.560781 0
M  V30 405 C 38.1925 2.0436 -0.0404627 0
M  V30 406 C 38.5565 1.42534 1.28639 0
M  V30 407 O 39.7575 1.90677 1.89462 0
M  V30 408 C 38.0285 3.57369 0.0471856 0
M  V30 409 S 39.5875 4.3579 0.513109 0
M  V30 410 H 36.4055 0.710492 -0.0268674 0
M  V30 411 H 39.0075 1.80611 -0.748323 0
M  V30 412 H 37.7115 3.9989 -0.922817 0
M  V30 413 H 37.2425 3.8562 0.778491 0
M  V30 414 H 39.2575 4.63476 1.77212 0
M  V30 415 N 38.4306 0.297415 1.54768 0
M  V30 416 C 39.6556 -0.318435 2.04941 0
M  V30 417 C 40.0806 -1.4701 1.17345 0
M  V30 418 O 39.4386 -1.80436 0.176758 0
M  V30 419 C 39.4866 -0.755749 3.52592 0
M  V30 420 O 38.5906 -1.86088 3.68028 0
M  V30 421 H 37.9316 -0.062421 0.661059 0
M  V30 422 H 40.4616 0.438215 1.99852 0
M  V30 423 H 40.4716 -1.04552 3.94376 0
M  V30 424 H 39.1466 0.0867233 4.1581 0
M  V30 425 H 37.7236 -1.57193 3.38149 0
M  V30 426 N 39.9087 -1.5758 0.0250728 0
M  V30 427 C 41.3247 -1.56124 -0.331282 0
M  V30 428 C 41.5247 -1.03029 -1.73169 0
M  V30 429 O 40.5807 -0.675215 -2.43305 0
M  V30 430 C 41.8937 -3.00139 -0.183584 0
M  V30 431 C 43.4417 -3.11946 -0.256654 0
M  V30 432 C 43.9167 -4.57793 -0.137792 0
M  V30 433 N 45.4077 -4.6279 -0.194904 0
M  V30 434 C 46.1427 -5.7326 -0.126655 0
M  V30 435 N 45.6387 -6.928 -0.00755288 0
M  V30 436 N 47.4317 -5.61811 -0.180348 0
M  V30 437 H 39.5827 -1.90424 0.94087 0
M  V30 438 H 41.8457 -0.875761 0.362968 0
M  V30 439 H 41.5517 -3.4292 0.780927 0
M  V30 440 H 41.4257 -3.64899 -0.955448 0
M  V30 441 H 43.8127 -2.69079 -1.21162 0
M  V30 442 H 43.8937 -2.49915 0.545517 0
M  V30 443 H 43.5377 -5.01339 0.813739 0
M  V30 444 H 43.4677 -5.17798 -0.958775 0
M  V30 445 H 45.9587 -3.76807 -0.287267 0
M  V30 446 H 46.2717 -7.72791 0.0379428 0
M  V30 447 H 44.6167 -6.94995 0.0271731 0
M  V30 448 H 47.8077 -4.6731 -0.271767 0
M  V30 449 H 47.9807 -6.47882 -0.123697 0
M  V30 450 N 41.3868 0.248026 -1.55636 0
M  V30 451 C 42.6328 0.97767 -1.77678 0
M  V30 452 C 42.9658 1.85016 -0.590135 0
M  V30 453 O 42.2408 1.90095 0.411611 0
M  V30 454 C 42.5238 1.83914 -3.09593 0
M  V30 455 C 42.3768 0.99491 -4.38659 0
M  V30 456 C 43.6958 2.82183 -3.37729 0
M  V30 457 H 40.8148 0.354005 -0.646413 0
M  V30 458 H 43.4568 0.248253 -1.88371 0
M  V30 459 H 41.6068 2.46104 -3.00608 0
M  V30 460 H 43.2788 0.391789 -4.59633 0
M  V30 461 H 41.5218 0.299231 -4.32767 0
M  V30 462 H 42.1928 1.63145 -5.2734 0
M  V30 463 H 44.6688 2.30129 -3.4667 0
M  V30 464 H 43.5448 3.39582 -4.31249 0
M  V30 465 H 43.8058 3.58588 -2.58586 0
M  V30 466 N 42.8649 1.48995 0.513639 0
M  V30 467 C 44.0949 1.61297 1.291 0
M  V30 468 C 44.5029 0.278656 1.87137 0
M  V30 469 O 43.8459 -0.744325 1.67945 0
M  V30 470 C 43.9079 2.61326 2.46879 0
M  V30 471 C 43.5719 4.05993 2.09807 0
M  V30 472 C 44.5689 4.93183 1.64519 0
M  V30 473 C 42.2539 4.51642 2.19829 0
M  V30 474 C 44.2479 6.24056 1.2974 0
M  V30 475 C 41.9349 5.82532 1.84662 0
M  V30 476 C 42.9329 6.68562 1.3969 0
M  V30 477 O 42.6209 7.97014 1.04992 0
M  V30 478 H 42.3529 0.546236 0.39825 0
M  V30 479 H 44.9069 1.95673 0.62459 0
M  V30 480 H 43.1369 2.22104 3.16554 0
M  V30 481 H 44.8259 2.6329 3.08923 0
M  V30 482 H 45.5919 4.59147 1.56233 0
M  V30 483 H 41.4709 3.84855 2.53786 0
M  V30 484 H 45.0149 6.91161 0.945659 0
M  V30 485 H 40.9119 6.16099 1.92594 0
M  V30 486 H 41.6799 8.09913 1.18249 0
M  V30 487 N 44.343 -0.763751 1.37857 0
M  V30 488 C 45.273 -1.89103 1.36975 0
M  V30 489 C 46.254 -1.68439 0.237152 0
M  V30 490 O 47.439 -1.8918 0.438713 0
M  V30 491 C 44.569 -3.26496 1.18395 0
M  V30 492 C 43.523 -3.61741 2.28751 0
M  V30 493 C 42.849 -4.97762 1.95286 0
M  V30 494 C 44.149 -3.67665 3.70972 0
M  V30 495 H 45.843 -1.90099 2.31307 0
M  V30 496 H 43.389 -0.91319 1.11341 0
M  V30 497 H 45.342 -4.05003 1.16406 0
M  V30 498 H 44.066 -3.25955 0.205215 0
M  V30 499 H 42.725 -2.85547 2.29909 0
M  V30 500 H 42.373 -4.93769 0.959221 0
M  V30 501 H 42.073 -5.22313 2.69189 0
M  V30 502 H 43.597 -5.7866 1.94898 0
M  V30 503 H 45.011 -4.36307 3.719 0
M  V30 504 H 43.408 -4.03718 4.43995 0
M  V30 505 H 44.478 -2.68134 4.0402 0
M  V30 506 N 45.8211 -1.22559 -0.990812 0
M  V30 507 C 46.7311 -1.01394 -2.11557 0
M  V30 508 C 47.7471 0.0383962 -1.73958 0
M  V30 509 O 48.9231 -0.154787 -2.00804 0
M  V30 510 C 45.9881 -0.596569 -3.41529 0
M  V30 511 C 45.0491 -1.72276 -3.93217 0
M  V30 512 C 44.2821 -1.32521 -5.16985 0
M  V30 513 O 44.5051 -0.204909 -5.70032 0
M  V30 514 O 43.4391 -2.14247 -5.62478 0
M  V30 515 H 47.2651 -1.95633 -2.32296 0
M  V30 516 H 44.8501 -1.01172 -1.0993 0
M  V30 517 H 46.7321 -0.374263 -4.19735 0
M  V30 518 H 45.4071 0.316939 -3.22145 0
M  V30 519 H 44.3141 -1.99961 -3.16174 0
M  V30 520 H 45.6471 -2.61421 -4.17037 0
M  V30 521 N 47.2992 1.18797 -1.03562 0
M  V30 522 C 48.2622 2.20464 -0.626769 0
M  V30 523 C 49.2622 1.57721 0.313173 0
M  V30 524 O 50.4522 1.73917 0.0992615 0
M  V30 525 C 47.5842 3.40802 0.0818498 0
M  V30 526 H 48.7772 2.58149 -1.5264 0
M  V30 527 H 46.3302 1.32593 -0.827578 0
M  V30 528 H 47.0652 3.08642 0.995518 0
M  V30 529 H 46.8502 3.8758 -0.593652 0
M  V30 530 H 48.3402 4.16092 0.354584 0
M  V30 531 N 48.7773 0.814389 1.34928 0
M  V30 532 C 50.0073 0.41054 2.0248 0
M  V30 533 C 50.4153 -0.985625 1.61499 0
M  V30 534 O 49.7583 -1.64781 0.811976 0
M  V30 535 C 49.8203 0.423384 3.56998 0
M  V30 536 C 49.4843 1.77141 4.21272 0
M  V30 537 C 50.4813 2.73093 4.42398 0
M  V30 538 C 48.1663 2.05755 4.58225 0
M  V30 539 C 50.1603 3.95838 4.9959 0
M  V30 540 C 47.8473 3.28762 5.1513 0
M  V30 541 C 48.8453 4.23621 5.35755 0
M  V30 542 O 48.5333 5.44456 5.91458 0
M  V30 543 H 48.2653 0.163997 0.655806 0
M  V30 544 H 50.8193 1.10155 1.73364 0
M  V30 545 H 49.0493 -0.324276 3.85338 0
M  V30 546 H 50.7383 0.0407683 4.0588 0
M  V30 547 H 51.5043 2.5228 4.14222 0
M  V30 548 H 47.3833 1.32727 4.4148 0
M  V30 549 H 50.9273 4.69891 5.15605 0
M  V30 550 H 46.8243 3.49443 5.42734 0
M  V30 551 H 47.5923 5.4586 6.09901 0
M  V30 552 N 50.2554 -1.46986 0.568584 0
M  V30 553 C 51.4834 -2.0683 0.0539956 0
M  V30 554 C 51.8984 -1.41953 -1.24478 0
M  V30 555 O 51.2554 -0.519933 -1.74937 0
M  V30 556 C 51.3064 -3.61254 -0.133362 0
M  V30 557 O 51.0274 -4.237 1.11399 0
M  V30 558 C 52.5284 -4.37992 -0.683927 0
M  V30 559 H 49.7484 -0.669058 0.0510141 0
M  V30 560 H 52.2924 -1.88824 0.785234 0
M  V30 561 H 50.4474 -3.78735 -0.81477 0
M  V30 562 H 50.8614 -5.16388 0.91888 0
M  V30 563 H 52.3354 -5.46684 -0.764263 0
M  V30 564 H 52.8124 -4.05058 -1.69778 0
M  V30 565 H 53.4184 -4.25283 -0.0378494 0
M  V30 566 N 51.7335 -0.305618 -1.54608 0
M  V30 567 C 52.9585 0.307562 -2.05107 0
M  V30 568 C 53.3835 1.46385 -1.18123 0
M  V30 569 O 52.7415 1.8034 -0.186324 0
M  V30 570 C 52.7895 0.73704 -3.52987 0
M  V30 571 O 51.8935 1.84134 -3.6901 0
M  V30 572 H 51.2345 0.0589143 -0.661381 0
M  V30 573 H 53.7645 -0.448807 -1.99617 0
M  V30 574 H 53.7745 1.02459 -3.94925 0
M  V30 575 H 52.4495 -0.108773 -4.15758 0
M  V30 576 H 51.0265 1.55398 -3.38978 0
M  V30 577 N 53.2116 1.57565 -0.0334293 0
M  V30 578 C 54.4576 1.92262 0.645226 0
M  V30 579 C 54.7906 0.910543 1.71531 0
M  V30 580 O 54.0656 -0.066099 1.94388 0
M  V30 581 C 54.3486 3.37422 1.2577 0
M  V30 582 C 54.2016 4.49369 0.196891 0
M  V30 583 C 55.5206 3.82628 2.17449 0
M  V30 584 H 52.6396 0.699171 0.233085 0
M  V30 585 H 55.2816 1.89779 -0.0915694 0
M  V30 586 H 53.4316 3.39669 1.88566 0
M  V30 587 H 55.1036 4.59254 -0.433962 0
M  V30 588 H 53.3466 4.31168 -0.477137 0
M  V30 589 H 54.0176 5.47978 0.665124 0
M  V30 590 H 56.4936 3.82145 1.64634 0
M  V30 591 H 55.3696 4.84883 2.57254 0
M  V30 592 H 55.6306 3.18376 3.0674 0
M  V30 593 N 54.6897 -0.239769 1.55765 0
M  V30 594 C 55.6197 -1.30052 1.9393 0
M  V30 595 C 56.6007 -1.49839 0.805132 0
M  V30 596 O 57.7857 -1.62328 1.06599 0
M  V30 597 C 54.9157 -2.65391 2.2402 0
M  V30 598 C 53.8697 -2.60289 3.39755 0
M  V30 599 C 53.1957 -3.99489 3.55405 0
M  V30 600 C 54.4957 -2.16654 4.75246 0
M  V30 601 H 56.1897 -0.983573 2.82783 0
M  V30 602 H 53.7357 -0.471701 1.36055 0
M  V30 603 H 55.6887 -3.3974 2.49308 0
M  V30 604 H 54.4127 -2.98736 1.32 0
M  V30 605 H 53.0717 -1.88398 3.14487 0
M  V30 606 H 52.7197 -4.30112 2.60793 0
M  V30 607 H 52.4197 -3.96962 4.33238 0
M  V30 608 H 53.9437 -4.75528 3.83022 0
M  V30 609 H 55.3577 -2.80737 4.99859 0
M  V30 610 H 53.7547 -2.25223 5.56232 0
M  V30 611 H 54.8247 -1.11835 4.71827 0
M  V30 612 N 56.1678 -1.49265 -0.50573 0
M  V30 613 C 57.3958 -1.62215 -1.28429 0
M  V30 614 C 57.8108 -0.291697 -1.86533 0
M  V30 615 O 57.1678 0.722233 -1.67601 0
M  V30 616 C 57.2188 -2.68735 -2.41793 0
M  V30 617 O 56.9398 -3.96619 -1.86078 0
M  V30 618 C 58.4408 -2.92346 -3.3324 0
M  V30 619 H 55.6608 -0.546239 -0.389697 0
M  V30 620 H 58.2048 -1.95265 -0.607609 0
M  V30 621 H 56.3598 -2.38476 -3.053 0
M  V30 622 H 56.7738 -4.55256 -2.60465 0
M  V30 623 H 58.2478 -3.70623 -4.09075 0
M  V30 624 H 58.7248 -2.02081 -3.89948 0
M  V30 625 H 59.3308 -3.24003 -2.75503 0
M  V30 626 N 57.6459 0.756429 -1.3826 0
M  V30 627 C 58.8919 1.51772 -1.34511 0
M  V30 628 C 59.2249 1.94089 0.0656691 0
M  V30 629 O 58.4999 1.65221 1.02626 0
M  V30 630 C 58.7829 2.77226 -2.29821 0
M  V30 631 C 58.6359 2.41065 -3.79747 0
M  V30 632 C 59.9549 3.79236 -2.23312 0
M  V30 633 H 57.0739 0.550578 -0.489931 0
M  V30 634 H 59.7159 0.866607 -1.69086 0
M  V30 635 H 57.8659 3.32784 -2.00467 0
M  V30 636 H 59.5379 1.91303 -4.19763 0
M  V30 637 H 57.7809 1.7356 -3.97567 0
M  V30 638 H 58.4519 3.3081 -4.41892 0
M  V30 639 H 60.9279 3.3321 -2.49219 0
M  V30 640 H 59.8039 4.64714 -2.92116 0
M  V30 641 H 60.0649 4.24615 -1.23102 0
M  V30 642 N 59.124 1.23083 0.984299 0
M  V30 643 C 60.372 1.05848 1.72165 0
M  V30 644 C 60.693 -0.406049 1.90726 0
M  V30 645 O 59.963 -1.29139 1.47309 0
M  V30 646 H 58.543 0.388685 0.637913 0
M  V30 647 H 61.205 1.54736 1.18503 0
M  V30 648 H 60.301 1.54327 2.71274 0
M  V30 649 N 60.6021 -1.18246 1.0419 0
M  V30 650 C 61.5491 -2.2192 0.634037 0
M  V30 651 C 62.5191 -1.62179 -0.358765 0
M  V30 652 O 63.7041 -1.89122 -0.252466 0
M  V30 653 C 60.8441 -3.451 0.00445535 0
M  V30 654 C 59.9571 -4.19174 1.04487 0
M  V30 655 C 59.0921 -5.29813 0.383676 0
M  V30 656 C 58.1311 -5.9566 1.4091 0
M  V30 657 N 57.2681 -6.97834 0.772784 0
M  V30 658 H 62.1081 -2.56164 1.52263 0
M  V30 659 H 59.6451 -1.25843 0.761701 0
M  V30 660 H 61.6031 -4.15485 -0.377919 0
M  V30 661 H 60.2331 -3.11472 -0.847652 0
M  V30 662 H 59.2851 -3.47604 1.54518 0
M  V30 663 H 60.5971 -4.64267 1.82368 0
M  V30 664 H 59.7511 -6.06677 -0.0528366 0
M  V30 665 H 58.4901 -4.85825 -0.427208 0
M  V30 666 H 57.4951 -5.17535 1.85574 0
M  V30 667 H 58.7201 -6.4173 2.22171 0
M  V30 668 H 56.6661 -6.55998 -0.0177708 0
M  V30 669 H 56.5831 -7.41186 1.48928 0
M  V30 670 H 57.8511 -7.78665 0.36071 0
M  V30 671 N 62.0802 -0.821533 -1.34494 0
M  V30 672 C 62.9902 -0.244355 -2.33324 0
M  V30 673 C 64.0062 0.620527 -1.62559 0
M  V30 674 O 65.1822 0.528754 -1.94335 0
M  V30 675 C 62.2472 0.585368 -3.41723 0
M  V30 676 C 61.3082 -0.301752 -4.28238 0
M  V30 677 C 60.5412 0.488466 -5.3146 0
M  V30 678 O 60.7642 1.72186 -5.4379 0
M  V30 679 O 59.6982 -0.12848 -6.01763 0
M  V30 680 H 63.5242 -1.06231 -2.84515 0
M  V30 681 H 61.1092 -0.583645 -1.37528 0
M  V30 682 H 62.9912 1.05747 -4.07916 0
M  V30 683 H 61.6662 1.38068 -2.92778 0
M  V30 684 H 60.5732 -0.821315 -3.64973 0
M  V30 685 H 61.9062 -1.06138 -4.8062 0
M  V30 686 N 63.5583 1.46682 -0.576371 0
M  V30 687 C 64.5213 2.28707 0.150239 0
M  V30 688 C 65.5213 1.38035 0.824794 0
M  V30 689 O 66.7113 1.60476 0.677719 0
M  V30 690 C 63.8433 3.18248 1.22192 0
M  V30 691 H 65.0363 2.94423 -0.570521 0
M  V30 692 H 62.5893 1.52688 -0.334078 0
M  V30 693 H 63.3243 2.57265 1.97447 0
M  V30 694 H 63.1093 3.85 0.742812 0
M  V30 695 H 64.5993 3.80001 1.73172 0
M  V30 696 N 65.0364 0.313813 1.54444 0
M  V30 697 C 65.9664 -0.549454 2.26943 0
M  V30 698 C 66.9474 -1.12741 1.27372 0
M  V30 699 O 68.1324 -1.15436 1.56167 0
M  V30 700 C 65.2624 -1.71523 3.01989 0
M  V30 701 C 64.2164 -1.26703 4.08816 0
M  V30 702 C 63.5424 -2.51898 4.71647 0
M  V30 703 C 64.8424 -0.388962 5.2085 0
M  V30 704 H 66.5364 0.0552661 2.99349 0
M  V30 705 H 64.0824 0.0280207 1.43973 0
M  V30 706 H 66.0354 -2.32535 3.51433 0
M  V30 707 H 64.7594 -2.34639 2.27183 0
M  V30 708 H 63.4184 -0.679896 3.6024 0
M  V30 709 H 63.0664 -3.13356 3.93468 0
M  V30 710 H 62.7664 -2.22605 5.43802 0
M  V30 711 H 64.2904 -3.1369 5.23861 0
M  V30 712 H 65.7044 -0.905107 5.6611 0
M  V30 713 H 64.1014 -0.18924 5.99802 0
M  V30 714 H 65.1714 0.582699 4.81386 0
M  V30 715 N 66.5145 -1.57545 0.0417849 0
M  V30 716 C 67.4245 -2.14451 -0.951213 0
M  V30 717 C 68.4405 -1.09992 -1.34825 0
M  V30 718 O 69.6165 -1.42114 -1.42708 0
M  V30 719 C 66.6815 -2.67063 -2.21084 0
M  V30 720 C 65.7425 -3.86284 -1.87304 0
M  V30 721 C 64.9755 -4.36378 -3.07261 0
M  V30 722 O 65.1985 -3.85587 -4.20332 0
M  V30 723 O 64.1325 -5.28077 -2.88822 0
M  V30 724 H 67.9585 -2.99601 -0.497287 0
M  V30 725 H 65.5435 -1.48317 -0.179567 0
M  V30 726 H 67.4255 -3.00914 -2.95006 0
M  V30 727 H 66.1005 -1.84989 -2.65633 0
M  V30 728 H 65.0075 -3.57338 -1.10727 0
M  V30 729 H 66.3405 -4.6956 -1.47562 0
M  V30 730 N 67.9926 0.231505 -1.5589 0
M  V30 731 C 68.9026 1.308 -1.94752 0
M  V30 732 C 69.9186 1.51826 -0.849989 0
M  V30 733 O 71.0946 1.6515 -1.15271 0
M  V30 734 C 68.1596 2.63968 -2.24771 0
M  V30 735 C 67.2206 2.51331 -3.48039 0
M  V30 736 C 66.4536 3.78148 -3.76616 0
M  V30 737 O 66.6766 4.80722 -3.07022 0
M  V30 738 O 65.6106 3.75857 -4.70123 0
M  V30 739 H 69.4366 1.0083 -2.86474 0
M  V30 740 H 67.0216 0.433547 -1.42971 0
M  V30 741 H 68.9036 3.42633 -2.45318 0
M  V30 742 H 67.5786 2.9364 -1.36225 0
M  V30 743 H 66.4856 1.709 -3.32782 0
M  V30 744 H 67.8186 2.26601 -4.36936 0
M  V30 745 N 69.4707 1.49531 0.497807 0
M  V30 746 C 70.7177 1.59179 1.25173 0
M  V30 747 C 71.0457 0.279932 1.92475 0
M  V30 748 O 70.3007 -0.732383 1.81479 0
M  V30 749 C 70.5997 2.70252 2.33878 0
M  V30 750 C 70.2657 4.11644 1.84012 0
M  V30 751 C 68.9277 4.50121 1.70132 0
M  V30 752 C 71.2797 5.00121 1.46725 0
M  V30 753 C 68.6077 5.74845 1.17348 0
M  V30 754 C 70.9597 6.25366 0.95392 0
M  V30 755 C 69.6237 6.6267 0.801538 0
M  V30 756 H 68.8937 0.582478 0.45804 0
M  V30 757 H 71.5407 1.83373 0.551948 0
M  V30 758 H 69.8457 2.40041 3.09657 0
M  V30 759 H 71.5427 2.74925 2.9192 0
M  V30 760 H 68.1327 3.81274 1.95775 0
M  V30 761 H 72.3167 4.71048 1.56294 0
M  V30 762 H 67.5727 6.02444 1.04264 0
M  V30 763 H 71.7467 6.93301 0.656225 0
M  V30 764 H 69.3737 7.59197 0.390351 0
M  V30 765 N 70.9488 -0.749086 1.3866 0
M  V30 766 C 72.1788 -1.53611 1.38157 0
M  V30 767 C 72.5868 -1.89177 -0.0293595 0
M  V30 768 O 71.9298 -1.53606 -1.00752 0
M  V30 769 C 71.9918 -2.86087 2.17702 0
M  V30 770 C 71.6558 -2.73034 3.66472 0
M  V30 771 C 72.6528 -2.42526 4.59866 0
M  V30 772 C 70.3378 -2.90345 4.09884 0
M  V30 773 C 72.3318 -2.29492 5.94653 0
M  V30 774 C 70.0188 -2.7693 5.4475 0
M  V30 775 C 71.0168 -2.46547 6.36949 0
M  V30 776 O 70.7048 -2.33199 7.69333 0
M  V30 777 H 70.4368 -0.481773 0.474205 0
M  V30 778 H 72.9908 -0.934465 1.82912 0
M  V30 779 H 71.2208 -3.48458 1.67672 0
M  V30 780 H 72.9098 -3.47625 2.09551 0
M  V30 781 H 73.6758 -2.28816 4.27631 0
M  V30 782 H 69.5548 -3.1299 3.38464 0
M  V30 783 H 73.0988 -2.05698 6.66584 0
M  V30 784 H 68.9958 -2.90215 5.76581 0
M  V30 785 H 69.7638 -2.48376 7.79905 0
M  V30 786 N 72.4269 -1.23603 -0.977757 0
M  V30 787 C 73.6749 -1.06759 -1.71601 0
M  V30 788 C 73.9959 0.395929 -1.90938 0
M  V30 789 O 73.2659 1.28356 -1.47992 0
M  V30 790 H 71.8459 -0.392062 -0.635843 0
M  V30 791 H 74.5079 -1.55362 -1.1768 0
M  V30 792 H 73.6039 -1.55763 -2.70452 0
M  V30 793 N 73.905 1.17692 -1.04816 0
M  V30 794 C 75.321 1.39863 -0.768794 0
M  V30 795 C 75.521 1.91118 0.638451 0
M  V30 796 O 74.577 2.10036 1.40146 0
M  V30 797 C 75.89 2.39274 -1.82122 0
M  V30 798 C 77.438 2.52987 -1.843 0
M  V30 799 C 77.913 3.55669 -2.88555 0
M  V30 800 N 79.404 3.63183 -2.87493 0
M  V30 801 C 80.139 4.42381 -3.64811 0
M  V30 802 N 79.635 5.25125 -4.51903 0
M  V30 803 N 81.428 4.37217 -3.53267 0
M  V30 804 H 73.579 0.82752 -1.95617 0
M  V30 805 H 75.842 0.426123 -0.846831 0
M  V30 806 H 75.548 2.08678 -2.83102 0
M  V30 807 H 75.422 3.38725 -1.65967 0
M  V30 808 H 77.809 2.82896 -0.839869 0
M  V30 809 H 77.89 1.53623 -2.04532 0
M  V30 810 H 77.534 3.26499 -3.89051 0
M  V30 811 H 77.464 4.54728 -2.65575 0
M  V30 812 H 79.955 3.04103 -2.24343 0
M  V30 813 H 80.268 5.82728 -5.07591 0
M  V30 814 H 78.613 5.24519 -4.55966 0
M  V30 815 H 81.804 3.71626 -2.84625 0
M  V30 816 H 81.977 4.98696 -4.13771 0
M  V30 817 N 75.3831 0.828654 1.34056 0
M  V30 818 C 76.3301 0.252567 2.29414 0
M  V30 819 C 77.3001 -0.62588 1.53857 0
M  V30 820 O 78.4851 -0.566312 1.82202 0
M  V30 821 C 75.6251 -0.574831 3.40279 0
M  V30 822 C 74.7381 0.326499 4.30764 0
M  V30 823 C 73.8731 -0.511016 5.28736 0
M  V30 824 C 72.9121 0.389342 6.1086 0
M  V30 825 N 72.0491 -0.409439 7.00905 0
M  V30 826 H 76.8891 1.07108 2.78086 0
M  V30 827 H 74.4261 0.539677 1.36843 0
M  V30 828 H 76.3841 -1.06992 4.03248 0
M  V30 829 H 75.0141 -1.35841 2.92826 0
M  V30 830 H 74.0661 0.939837 3.68607 0
M  V30 831 H 75.3781 1.01857 4.88289 0
M  V30 832 H 74.5321 -1.07035 5.97184 0
M  V30 833 H 73.2711 -1.23657 4.71763 0
M  V30 834 H 72.2761 0.960769 5.4134 0
M  V30 835 H 73.5011 1.1131 6.69916 0
M  V30 836 H 71.4471 -1.11856 6.46393 0
M  V30 837 H 71.3641 0.224126 7.55668 0
M  V30 838 H 72.6321 -0.951336 7.73673 0
M  V30 839 N 76.8612 -1.46375 0.584142 0
M  V30 840 C 77.7912 -2.33103 -0.136037 0
M  V30 841 C 78.7722 -1.45431 -0.882255 0
M  V30 842 O 79.9572 -1.74246 -0.857434 0
M  V30 843 C 77.0872 -3.27731 -1.14933 0
M  V30 844 C 76.0412 -4.24855 -0.517862 0
M  V30 845 C 75.3672 -5.09001 -1.63773 0
M  V30 846 C 76.6672 -5.19439 0.545886 0
M  V30 847 H 78.3612 -2.93568 0.588086 0
M  V30 848 H 75.9072 -1.41166 0.284259 0
M  V30 849 H 77.8602 -3.87261 -1.66153 0
M  V30 850 H 76.5842 -2.65377 -1.90375 0
M  V30 851 H 75.2432 -3.6659 -0.0267361 0
M  V30 852 H 74.8912 -4.43031 -2.38185 0
M  V30 853 H 74.5912 -5.74777 -1.22085 0
M  V30 854 H 76.1152 -5.71396 -2.15266 0
M  V30 855 H 77.5292 -5.73177 0.118704 0
M  V30 856 H 75.9262 -5.93566 0.88317 0
M  V30 857 H 76.9962 -4.63285 1.43162 0
M  V30 858 N 78.3393 -0.321999 -1.54275 0
M  V30 859 C 79.5853 0.281461 -2.00837 0
M  V30 860 C 79.9183 1.51909 -1.20985 0
M  V30 861 O 79.1933 1.923 -0.291733 0
M  V30 862 C 79.4763 0.617162 -3.54772 0
M  V30 863 C 79.3293 -0.631064 -4.45351 0
M  V30 864 C 80.6483 1.43542 -4.16033 0
M  V30 865 H 77.7673 0.100826 -0.730071 0
M  V30 866 H 80.4093 -0.438268 -1.84876 0
M  V30 867 H 78.5593 1.23034 -3.68504 0
M  V30 868 H 80.2313 -1.26934 -4.43492 0
M  V30 869 H 78.4743 -1.26025 -4.15091 0
M  V30 870 H 79.1453 -0.351735 -5.50878 0
M  V30 871 H 81.6213 0.917134 -4.05867 0
M  V30 872 H 80.4973 1.63907 -5.23856 0
M  V30 873 H 80.7583 2.43108 -3.69257 0
M  V30 874 N 79.8174 1.5752 -0.0501392 0
M  V30 875 C 81.0634 1.92936 0.624798 0
M  V30 876 C 81.3964 0.928685 1.70555 0
M  V30 877 O 80.6714 -0.0454779 1.94447 0
M  V30 878 C 80.9544 3.38737 1.22185 0
M  V30 879 C 80.8074 4.49552 0.149218 0
M  V30 880 C 82.1264 3.84913 2.13378 0
M  V30 881 H 79.2454 0.701604 0.225657 0
M  V30 882 H 81.8874 1.89671 -0.111693 0
M  V30 883 H 80.0374 3.4165 1.84953 0
M  V30 884 H 81.7094 4.58768 -0.482648 0
M  V30 885 H 79.9524 4.30638 -0.522841 0
M  V30 886 H 80.6234 5.48653 0.606966 0
M  V30 887 H 83.0994 3.8387 1.60572 0
M  V30 888 H 81.9754 4.87584 2.52097 0
M  V30 889 H 82.2364 3.21611 3.03346 0
M  V30 890 N 81.2955 -0.223234 1.56011 0
M  V30 891 C 82.2585 -1.26014 1.9145 0
M  V30 892 C 83.2585 -1.3989 0.792937 0
M  V30 893 O 84.4485 -1.38184 1.0607 0
M  V30 894 C 81.5805 -2.63422 2.16383 0
M  V30 895 H 82.7735 -0.95796 2.84189 0
M  V30 896 H 80.3265 -0.463576 1.49267 0
M  V30 897 H 81.0615 -2.98741 1.2619 0
M  V30 898 H 80.8465 -2.54728 2.98088 0
M  V30 899 H 82.3365 -3.38249 2.44903 0
M  V30 900 N 82.7736 -1.49793 -0.48987 0
M  V30 901 C 84.0506 -1.50348 -1.25119 0
M  V30 902 C 84.4306 -0.237466 -2.0976 0
M  V30 903 O 83.7786 0.77981 -2.14782 0
M  V30 904 C 83.9886 -2.78872 -2.09837 0
M  V30 905 C 85.3366 -3.288 -2.68655 0
M  V30 906 O 86.3606 -2.80065 -2.20096 0
M  V30 907 O 85.2196 -4.13707 -3.57083 0
M  V30 908 H 82.3136 -0.602242 -0.566775 0
M  V30 909 H 84.8596 -1.62067 -0.503229 0
M  V30 910 H 83.6316 -3.62499 -1.47343 0
M  V30 911 H 83.2546 -2.70066 -2.91805 0
M  V30 912 N 84.2517 0.741722 -1.39055 0
M  V30 913 C 85.6677 1.04638 -1.20512 0
M  V30 914 C 85.8677 2.01405 -0.0620218 0
M  V30 915 O 84.9237 2.45547 0.588457 0
M  V30 916 C 86.2367 1.6151 -2.53643 0
M  V30 917 C 87.7847 1.73623 -2.6043 0
M  V30 918 C 88.2597 2.33906 -3.93767 0
M  V30 919 N 89.7507 2.41323 -3.9537 0
M  V30 920 C 90.4857 2.88888 -4.95309 0
M  V30 921 N 89.9817 3.36401 -6.05645 0
M  V30 922 N 91.7747 2.88037 -4.82692 0
M  V30 923 H 83.9257 0.0998155 -2.12165 0
M  V30 924 H 86.1887 0.106907 -0.941953 0
M  V30 925 H 85.8947 0.978739 -3.37807 0
M  V30 926 H 85.7687 2.60411 -2.72885 0
M  V30 927 H 88.1557 2.36384 -1.76655 0
M  V30 928 H 88.2367 0.733945 -2.45045 0
M  V30 929 H 87.8807 1.71776 -4.7797 0
M  V30 930 H 87.8107 3.34799 -4.06469 0
M  V30 931 H 90.3017 2.07734 -3.15682 0
M  V30 932 H 90.6147 3.71186 -6.77821 0
M  V30 933 H 88.9597 3.34427 -6.09248 0
M  V30 934 H 92.1507 2.50237 -3.95599 0
M  V30 935 H 92.3237 3.24792 -5.60726 0
M  V30 936 N 85.7298 1.2412 0.971189 0
M  V30 937 C 86.6398 1.04747 2.09917 0
M  V30 938 C 87.6558 -0.0107162 1.73997 0
M  V30 939 O 88.8318 0.186714 2.00533 0
M  V30 940 C 85.8968 0.650828 3.40537 0
M  V30 941 C 84.9578 1.7851 3.90426 0
M  V30 942 C 84.1908 1.40729 5.14812 0
M  V30 943 O 84.4138 0.29557 5.69634 0
M  V30 944 O 83.3478 2.23168 5.58999 0
M  V30 945 H 87.1738 1.99304 2.29154 0
M  V30 946 H 84.7588 1.02908 1.08307 0
M  V30 947 H 86.6408 0.440992 4.19086 0
M  V30 948 H 85.3158 -0.265649 3.22608 0
M  V30 949 H 84.2228 2.04966 3.12953 0
M  V30 950 H 85.5558 2.68023 4.12825 0
M  V30 951 N 87.2079 -1.17134 1.05439 0
M  V30 952 C 88.1179 -2.24878 0.668365 0
M  V30 953 C 89.1339 -1.71186 -0.311687 0
M  V30 954 O 90.3099 -2.00738 -0.163161 0
M  V30 955 C 87.3749 -3.46662 0.051648 0
M  V30 956 C 86.4359 -4.15429 1.08246 0
M  V30 957 C 85.6689 -5.31399 0.495082 0
M  V30 958 O 85.8919 -5.66153 -0.694743 0
M  V30 959 O 84.8259 -5.89187 1.23056 0
M  V30 960 H 88.6519 -2.60189 1.56637 0
M  V30 961 H 86.2369 -1.24482 0.826104 0
M  V30 962 H 88.1189 -4.20394 -0.290966 0
M  V30 963 H 86.7939 -3.13142 -0.819971 0
M  V30 964 H 85.7009 -3.43704 1.47711 0
M  V30 965 H 87.0339 -4.52982 1.92532 0
M  V30 966 N 88.686 -0.835752 -1.33615 0
M  V30 967 C 89.932 -0.430596 -1.98176 0
M  V30 968 C 90.265 1.00684 -1.66061 0
M  V30 969 O 89.54 1.70339 -0.938877 0
M  V30 970 C 89.823 -0.648065 -3.5422 0
M  V30 971 C 89.676 -2.13255 -3.96033 0
M  V30 972 C 90.995 -0.0922113 -4.40003 0
M  V30 973 H 88.114 -0.157924 -0.719881 0
M  V30 974 H 90.756 -1.05069 -1.58305 0
M  V30 975 H 88.906 -0.120237 -3.88314 0
M  V30 976 H 90.578 -2.725 -3.72211 0
M  V30 977 H 88.821 -2.61823 -3.45878 0
M  V30 978 H 89.492 -2.23547 -5.04708 0
M  V30 979 H 91.968 -0.543343 -4.12537 0
M  V30 980 H 90.844 -0.274083 -5.48215 0
M  V30 981 H 91.105 1.00378 -4.30554 0
M  V30 982 N 90.1641 1.46063 -0.591896 0
M  V30 983 C 91.0741 2.34192 0.13831 0
M  V30 984 C 92.0901 1.50305 0.876608 0
M  V30 985 O 93.2661 1.8315 0.837728 0
M  V30 986 C 90.3311 3.27656 1.13326 0
M  V30 987 C 89.3921 4.27445 0.39863 0
M  V30 988 C 88.6251 5.16443 1.34618 0
M  V30 989 O 88.8481 5.08553 2.58321 0
M  V30 990 O 87.7821 5.95843 0.851768 0
M  V30 991 H 91.6081 2.98002 -0.58552 0
M  V30 992 H 89.1931 1.45188 -0.352239 0
M  V30 993 H 91.0751 3.85291 1.70671 0
M  V30 994 H 89.7501 2.6643 1.83839 0
M  V30 995 H 88.6571 3.73471 -0.216895 0
M  V30 996 H 89.9901 4.91482 -0.265709 0
M  V30 997 N 91.6422 0.330177 1.54103 0
M  V30 998 C 92.5742 -0.566902 2.22079 0
M  V30 999 C 93.5872 -1.07462 1.22294 0
M  V30 1000 O 94.7762 -0.987065 1.48726 0
M  V30 1001 C 91.8762 -1.79138 2.87685 0
M  V30 1002 C 91.0492 -1.42123 4.13666 0
M  V30 1003 C 90.1082 -2.50394 4.62806 0
M  V30 1004 O 89.1342 -2.14261 5.27334 0
M  V30 1005 N 90.3362 -3.81433 4.37595 0
M  V30 1006 H 93.1012 0.0151844 2.99696 0
M  V30 1007 H 90.6622 0.153681 1.61169 0
M  V30 1008 H 92.6542 -2.50975 3.1748 0
M  V30 1009 H 91.2242 -2.28115 2.13734 0
M  V30 1010 H 90.4442 -0.534201 3.90564 0
M  V30 1011 H 91.7322 -1.14971 4.9564 0
M  V30 1012 H 91.1302 -4.13584 3.8596 0
M  V30 1013 H 89.6872 -4.4948 4.72029 0
M  V30 1014 N 93.1203 -1.57491 0.0584922 0
M  V30 1015 C 94.0303 -2.15448 -0.928414 0
M  V30 1016 C 95.0463 -1.11416 -1.3365 0
M  V30 1017 O 96.2223 -1.4362 -1.41193 0
M  V30 1018 C 93.2873 -2.69393 -2.18239 0
M  V30 1019 C 92.3483 -3.88249 -1.83196 0
M  V30 1020 C 91.5813 -4.39613 -3.02616 0
M  V30 1021 O 91.8043 -3.90023 -4.16219 0
M  V30 1022 O 90.7383 -5.31111 -2.83204 0
M  V30 1023 H 94.5643 -3.00112 -0.465483 0
M  V30 1024 H 92.1493 -1.48499 -0.163826 0
M  V30 1025 H 94.0313 -3.04026 -2.91798 0
M  V30 1026 H 92.7063 -1.87796 -2.63656 0
M  V30 1027 H 91.6133 -3.58492 -1.06931 0
M  V30 1028 H 92.9463 -4.71098 -1.42573 0
M  V30 1029 N 94.5984 0.214957 -1.56127 0
M  V30 1030 C 95.5614 1.24997 -1.92116 0
M  V30 1031 C 96.5614 1.39467 -0.800344 0
M  V30 1032 O 97.7514 1.37619 -1.06802 0
M  V30 1033 C 94.8834 2.62271 -2.17777 0
M  V30 1034 H 96.0764 0.942875 -2.84693 0
M  V30 1035 H 93.6294 0.455654 -1.49511 0
M  V30 1036 H 94.3644 2.98068 -1.27773 0
M  V30 1037 H 94.1494 2.53143 -2.99434 0
M  V30 1038 H 95.6394 3.36946 -2.46693 0
M  V30 1039 N 96.0765 1.50051 0.48192 0
M  V30 1040 C 97.3535 1.51009 1.2432 0
M  V30 1041 C 97.7335 0.248587 2.09631 0
M  V30 1042 O 97.0815 -0.768409 2.15192 0
M  V30 1043 C 97.2915 2.79981 2.08355 0
M  V30 1044 C 98.6395 3.3022 2.66908 0
M  V30 1045 O 99.6635 2.81228 2.18607 0
M  V30 1046 O 98.5225 4.15595 3.54884 0
M  V30 1047 H 95.6165 0.605239 0.563573 0
M  V30 1048 H 98.1625 1.62332 0.494627 0
M  V30 1049 H 96.9345 3.63275 1.45419 0
M  V30 1050 H 96.5575 2.7161 2.90368 0
M  V30 1051 N 97.5546 -0.734337 1.39446 0
M  V30 1052 C 98.5026 -1.86971 1.38364 0
M  V30 1053 C 99.4966 -1.67288 0.266687 0
M  V30 1054 O 100.703 -1.74621 0.436755 0
M  V30 1055 H 97.0776 -0.615474 0.432082 0
M  V30 1056 H 99.0486 -1.85 2.34132 0
M  V30 1057 C 97.7976 -3.2466 1.24465 0
M  V30 1058 H 97.1206 -3.40402 2.09682 0
M  V30 1059 H 98.5606 -4.04292 1.27764 0
M  V30 1060 C 97.0196 -3.36867 -0.0468674 0
M  V30 1061 O 97.5496 -3.88618 -1.01681 0
M  V30 1062 N 95.7556 -2.90391 -0.110145 0
M  V30 1063 H 95.3026 -2.48466 0.679868 0
M  V30 1064 H 95.2606 -2.98939 -0.973799 0
M  V30 1065 N 99.0327 -1.24633 -0.964593 0
M  V30 1066 C 100.282 -1.08188 -1.7023 0
M  V30 1067 C 100.595 0.37873 -1.91898 0
M  V30 1068 O 101.801 0.663427 -2.6327 0
M  V30 1069 C 100.257 -1.88773 -3.06419 0
M  V30 1070 C 99.8647 -3.39263 -2.92582 0
M  V30 1071 C 101.609 -1.80867 -3.84041 0
M  V30 1072 C 99.5157 -4.1218 -4.24101 0
M  V30 1073 H 98.4457 -0.401245 -0.638372 0
M  V30 1074 H 101.097 -1.48742 -1.07462 0
M  V30 1075 H 99.4787 -1.41035 -3.70034 0
M  V30 1076 H 100.653 -3.94603 -2.37961 0
M  V30 1077 H 98.9677 -3.48154 -2.28424 0
M  V30 1078 H 101.565 -2.32646 -4.81435 0
M  V30 1079 H 101.908 -0.774543 -4.09031 0
M  V30 1080 H 102.441 -2.26301 -3.27159 0
M  V30 1081 H 99.1797 -5.15965 -4.04303 0
M  V30 1082 H 98.6997 -3.61626 -4.78526 0
M  V30 1083 H 100.379 -4.19349 -4.92702 0
M  V30 1084 N 100.511 1.16574 -1.06058 0
M  V30 1085 C 101.441 2.23057 -0.690488 0
M  V30 1086 C 102.422 1.67141 0.315901 0
M  V30 1087 O 103.607 1.93253 0.191556 0
M  V30 1088 C 100.737 3.47222 -0.073625 0
M  V30 1089 C 99.6908 4.16016 -1.00573 0
M  V30 1090 C 99.0168 5.34104 -0.252289 0
M  V30 1091 C 100.317 4.67264 -2.33371 0
M  V30 1092 H 102.011 2.54271 -1.58072 0
M  V30 1093 H 99.5568 1.22218 -0.76149 0
M  V30 1094 H 101.51 4.20939 0.19714 0
M  V30 1095 H 100.234 3.15302 0.85161 0
M  V30 1096 H 98.8928 3.44223 -1.2612 0
M  V30 1097 H 98.5408 4.98437 0.675988 0
M  V30 1098 H 98.2408 5.81072 -0.873455 0
M  V30 1099 H 99.7648 6.10599 0.0109857 0
M  V30 1100 H 101.179 5.32573 -2.12223 0
M  V30 1101 H 99.5758 5.24843 -2.90963 0
M  V30 1102 H 100.646 3.83602 -2.96611 0
M  V30 1103 N 101.989 0.842826 1.3317 0
M  V30 1104 C 102.936 0.276885 2.29133 0
M  V30 1105 C 103.906 -0.609527 1.54512 0
M  V30 1106 O 105.091 -0.546955 1.82792 0
M  V30 1107 C 102.231 -0.538707 3.40869 0
M  V30 1108 C 101.344 0.372169 4.30394 0
M  V30 1109 C 100.479 -0.454908 5.29249 0
M  V30 1110 C 99.5179 0.45411 6.10413 0
M  V30 1111 N 98.6549 -0.335075 7.013 0
M  V30 1112 H 103.495 1.10052 2.76934 0
M  V30 1113 H 101.032 0.554161 1.36262 0
M  V30 1114 H 102.99 -1.02709 4.0436 0
M  V30 1115 H 101.62 -1.32727 2.9425 0
M  V30 1116 H 100.672 0.97888 3.6759 0
M  V30 1117 H 101.984 1.0703 4.87182 0
M  V30 1118 H 101.138 -1.00695 5.98285 0
M  V30 1119 H 99.8769 -1.18646 4.73048 0
M  V30 1120 H 98.8819 1.01813 5.40291 0
M  V30 1121 H 100.107 1.18409 6.68697 0
M  V30 1122 H 98.0529 -1.04994 6.47543 0
M  V30 1123 H 97.9699 0.304262 7.55387 0
M  V30 1124 H 99.2379 -0.869224 7.74638 0
M  V30 1125 N 103.467 -1.45747 0.599634 0
M  V30 1126 C 104.744 -1.95585 0.0240846 0
M  V30 1127 C 105.124 -1.54217 -1.44154 0
M  V30 1128 O 104.472 -0.800903 -2.14004 0
M  V30 1129 C 104.682 -3.48344 0.21385 0
M  V30 1130 C 106.03 -4.24504 0.0904902 0
M  V30 1131 O 107.054 -3.55911 0.143558 0
M  V30 1132 O 105.913 -5.46491 -0.0310766 0
M  V30 1133 H 103.007 -0.82602 -0.0402478 0
M  V30 1134 H 105.553 -1.55951 0.669139 0
M  V30 1135 H 104.325 -3.71397 1.23206 0
M  V30 1136 H 103.948 -3.9485 -0.466842 0
M  V30 1137 N 104.945 -0.338344 -1.53925 0
M  V30 1138 C 105.908 0.508299 -2.23493 0
M  V30 1139 C 106.908 1.03175 -1.23335 0
M  V30 1140 O 108.098 0.921826 -1.47811 0
M  V30 1141 C 105.23 1.70754 -2.95052 0
M  V30 1142 H 106.423 -0.100058 -2.99733 0
M  V30 1143 H 103.976 -0.0896198 -1.56043 0
M  V30 1144 H 104.711 2.35474 -2.22986 0
M  V30 1145 H 104.496 1.33946 -3.68512 0
M  V30 1146 H 105.986 2.30818 -3.48013 0
M  V30 1147 N 106.423 1.57458 -0.0668435 0
M  V30 1148 C 107.7 1.8469 0.644132 0
M  V30 1149 C 108.08 0.958343 1.88093 0
M  V30 1150 O 107.428 0.0233579 2.28488 0
M  V30 1151 C 107.638 3.34767 0.986509 0
M  V30 1152 C 108.986 4.02159 1.36212 0
M  V30 1153 O 110.01 3.39484 1.07839 0
M  V30 1154 O 108.869 5.12694 1.89227 0
M  V30 1155 H 105.963 0.762816 0.319437 0
M  V30 1156 H 108.509 1.6942 -0.0973986 0
M  V30 1157 H 107.281 3.91151 0.107883 0
M  V30 1158 H 106.904 3.55281 1.78497 0
M  V30 1159 N 107.901 -0.206675 1.56239 0
M  V30 1160 C 109.15 -0.926964 1.79138 0
M  V30 1161 C 109.463 -1.84901 0.638043 0
M  V30 1162 O 110.669 -2.60906 0.751033 0
M  V30 1163 C 109.125 -1.6986 3.17294 0
M  V30 1164 C 108.733 -0.821956 4.40395 0
M  V30 1165 C 110.477 -2.40922 3.4951 0
M  V30 1166 C 108.384 -1.59179 5.69575 0
M  V30 1167 H 107.314 -0.349864 0.667915 0
M  V30 1168 H 109.965 -0.180487 1.8261 0
M  V30 1169 H 108.347 -2.48853 3.08039 0
M  V30 1170 H 109.521 -0.0715019 4.60745 0
M  V30 1171 H 107.836 -0.222741 4.15804 0
M  V30 1172 H 110.433 -2.99047 4.43255 0
M  V30 1173 H 110.776 -3.14542 2.72707 0
M  V30 1174 H 111.309 -1.68905 3.60161 0
M  V30 1175 H 108.048 -0.898589 6.49312 0
M  V30 1176 H 107.568 -2.31648 5.53262 0
M  V30 1177 H 109.247 -2.14862 6.10281 0
M  V30 1178 N 109.379 -1.50304 -0.473955 0
M  V30 1179 C 110.604 -1.65175 -1.25427 0
M  V30 1180 C 111.029 -0.333673 -1.85117 0
M  V30 1181 O 110.387 0.702114 -1.67153 0
M  V30 1182 C 110.435 -2.74295 -2.34082 0
M  V30 1183 O 109.539 -2.35349 -3.38651 0
M  V30 1184 H 108.88 -0.551944 -0.369126 0
M  V30 1185 H 111.41 -1.96662 -0.564364 0
M  V30 1186 H 111.42 -2.97285 -2.79438 0
M  V30 1187 H 110.095 -3.69959 -1.90008 0
M  V30 1188 H 108.672 -2.22794 -2.99027 0
M  V30 1189 N 110.857 0.726932 -1.39834 0
M  V30 1190 C 112.134 1.47902 -1.28001 0
M  V30 1191 C 112.514 2.1083 0.106789 0
M  V30 1192 O 111.862 1.99242 1.11869 0
M  V30 1193 C 112.072 2.52392 -2.41038 0
M  V30 1194 C 113.42 3.18546 -2.80737 0
M  V30 1195 O 114.444 2.62708 -2.40547 0
M  V30 1196 O 113.303 4.19604 -3.50135 0
M  V30 1197 H 110.397 0.657163 -0.502062 0
M  V30 1198 H 112.943 0.760071 -1.51727 0
M  V30 1199 H 111.715 2.04329 -3.33715 0
M  V30 1200 H 111.338 3.31837 -2.19021 0
M  V30 1201 N 112.336 1.25143 0.95797 0
M  V30 1202 C 113.582 1.09855 1.70469 0
M  V30 1203 C 113.915 -0.360187 1.90831 0
M  V30 1204 O 113.19 -1.26568 1.47685 0
M  V30 1205 C 113.473 1.8497 3.08963 0
M  V30 1206 C 113.326 3.38652 2.96032 0
M  V30 1207 C 114.645 1.63016 4.08795 0
M  V30 1208 H 111.764 0.400465 0.618706 0
M  V30 1209 H 114.406 1.53933 1.11376 0
M  V30 1210 H 112.556 1.47505 3.59409 0
M  V30 1211 H 114.228 3.85772 2.52938 0
M  V30 1212 H 112.471 3.66534 2.32025 0
M  V30 1213 H 113.142 3.8642 3.94187 0
M  V30 1214 H 115.618 1.95625 3.67247 0
M  V30 1215 H 114.494 2.18015 5.03747 0
M  V30 1216 H 114.755 0.570692 4.38401 0
M  V30 1217 N 113.814 -1.1601 1.06675 0
M  V30 1218 C 114.777 -2.18724 0.685001 0
M  V30 1219 C 115.777 -1.58496 -0.271246 0
M  V30 1220 O 116.967 -1.74119 -0.0531156 0
M  V30 1221 C 114.099 -3.40899 0.00853648 0
M  V30 1222 H 115.292 -2.54011 1.59431 0
M  V30 1223 H 112.845 -1.30352 0.862441 0
M  V30 1224 H 113.58 -3.11173 -0.913337 0
M  V30 1225 H 113.365 -3.8587 0.696204 0
M  V30 1226 H 114.855 -4.16886 -0.24414 0
M  V30 1227 N 115.292 -0.849877 -1.32721 0
M  V30 1228 C 116.539 -0.450923 -1.97416 0
M  V30 1229 C 116.867 0.992376 -1.67279 0
M  V30 1230 O 116.122 1.71048 -0.950845 0
M  V30 1231 C 116.421 -0.631272 -3.51781 0
M  V30 1232 C 116.087 -2.04432 -4.01894 0
M  V30 1233 C 114.749 -2.4308 -4.1529 0
M  V30 1234 C 117.101 -2.96679 -4.28522 0
M  V30 1235 C 114.429 -3.73257 -4.52654 0
M  V30 1236 C 116.781 -4.26349 -4.67343 0
M  V30 1237 C 115.445 -4.64939 -4.78945 0
M  V30 1238 H 114.715 -0.165004 -0.722395 0
M  V30 1239 H 117.362 -1.07901 -1.58207 0
M  V30 1240 H 115.667 0.0800767 -3.91718 0
M  V30 1241 H 117.364 -0.302709 -3.99856 0
M  V30 1242 H 113.954 -1.73419 -3.91949 0
M  V30 1243 H 118.138 -2.68054 -4.17685 0
M  V30 1244 H 113.394 -4.02946 -4.59831 0
M  V30 1245 H 117.568 -4.97895 -4.86902 0
M  V30 1246 H 115.195 -5.65855 -5.07654 0
M  V30 1247 N 116.77 1.45427 -0.607355 0
M  V30 1248 C 117.7 2.3329 0.0989352 0
M  V30 1249 C 118.681 1.46816 0.859007 0
M  V30 1250 O 119.866 1.75588 0.829604 0
M  V30 1251 C 116.996 3.29518 1.09705 0
M  V30 1252 C 115.95 4.25626 0.450206 0
M  V30 1253 C 115.276 5.11542 1.55655 0
M  V30 1254 C 116.576 5.18505 -0.628455 0
M  V30 1255 H 118.27 2.92595 -0.634716 0
M  V30 1256 H 115.816 1.40696 -0.306681 0
M  V30 1257 H 117.769 3.89855 1.59971 0
M  V30 1258 H 116.493 2.68372 1.86129 0
M  V30 1259 H 115.152 3.66586 -0.0315886 0
M  V30 1260 H 114.8 4.46765 2.31107 0
M  V30 1261 H 114.5 5.76647 1.12925 0
M  V30 1262 H 116.024 5.74748 2.06148 0
M  V30 1263 H 117.438 5.72916 -0.209877 0
M  V30 1264 H 115.835 5.92085 -0.977489 0
M  V30 1265 H 116.905 4.60948 -1.50514 0
M  V30 1266 N 118.248 0.346503 1.53744 0
M  V30 1267 C 119.494 -0.249473 2.0126 0
M  V30 1268 C 119.827 -1.49965 1.23386 0
M  V30 1269 O 119.102 -1.91811 0.32229 0
M  V30 1270 C 119.385 -0.560643 3.55709 0
M  V30 1271 C 119.238 0.701836 4.44291 0
M  V30 1272 C 120.557 -1.36905 4.18264 0
M  V30 1273 H 117.676 -0.0891987 0.731582 0
M  V30 1274 H 120.318 0.467624 1.84156 0
M  V30 1275 H 118.468 -1.17156 3.70414 0
M  V30 1276 H 120.14 1.33974 4.41417 0
M  V30 1277 H 118.383 1.32612 4.13033 0
M  V30 1278 H 119.054 0.43933 5.50249 0
M  V30 1279 H 121.53 -0.852448 4.07275 0
M  V30 1280 H 120.406 -1.55553 5.26398 0
M  V30 1281 H 120.667 -2.37203 3.73078 0
M  V30 1282 N 119.726 -1.57421 0.075193 0
M  V30 1283 C 120.972 -1.93905 -0.594025 0
M  V30 1284 C 121.305 -0.955701 -1.69056 0
M  V30 1285 O 120.58 0.0145373 -1.94495 0
M  V30 1286 C 120.863 -3.40638 -1.1678 0
M  V30 1287 C 120.716 -4.49733 -0.0776792 0
M  V30 1288 C 122.035 -3.88259 -2.07228 0
M  V30 1289 H 119.154 -0.705105 -0.214466 0
M  V30 1290 H 121.796 -1.8947 0.141854 0
M  V30 1291 H 119.946 -3.44549 -1.79494 0
M  V30 1292 H 121.618 -4.57942 0.555573 0
M  V30 1293 H 119.861 -4.29751 0.591286 0
M  V30 1294 H 120.532 -5.49549 -0.519603 0
M  V30 1295 H 123.008 -3.86376 -1.54445 0
M  V30 1296 H 121.884 -4.91533 -2.44308 0
M  V30 1297 H 122.145 -3.26396 -2.98191 0
M  V30 1298 N 121.204 0.198386 -1.56346 0
M  V30 1299 C 122.452 0.91747 -1.80075 0
M  V30 1300 C 122.773 1.83929 -0.647692 0
M  V30 1301 O 122.043 1.93029 0.334166 0
M  V30 1302 H 120.623 0.341774 -0.664228 0
M  V30 1303 H 123.285 0.204684 -1.93822 0
M  V30 1304 H 122.381 1.51055 -2.7311 0
M  V30 1305 N 122.682 1.50554 0.465978 0
M  V30 1306 C 123.959 1.5232 1.22712 0
M  V30 1307 C 124.339 0.270807 2.09356 0
M  V30 1308 O 123.687 -0.745541 2.15995 0
M  V30 1309 C 123.897 2.82175 2.05374 0
M  V30 1310 C 125.245 3.33033 2.6339 0
M  V30 1311 O 126.269 2.83531 2.15612 0
M  V30 1312 O 125.128 4.19336 3.50456 0
M  V30 1313 H 122.222 0.611183 0.557122 0
M  V30 1314 H 124.768 1.62847 0.477381 0
M  V30 1315 H 123.54 3.64797 1.41558 0
M  V30 1316 H 123.163 2.74675 2.87471 0
M  V30 1317 N 124.16 -0.719506 1.40217 0
M  V30 1318 C 125.571 -1.29848 1.34151 0
M  V30 1319 C 125.922 -1.96196 0.0131349 0
M  V30 1320 O 125.047 -1.973 -0.88892 0
M  V30 1321 C 125.642 -2.36118 2.42968 0
M  V30 1322 C 124.201 -2.8965 2.40374 0
M  V30 1323 C 123.348 -1.63393 2.24049 0
M  V30 1324 H 126.299 -0.51591 1.5008 0
M  V30 1325 H 126.32 -3.16871 2.10649 0
M  V30 1326 H 125.832 -1.878 3.39636 0
M  V30 1327 H 123.933 -3.42208 1.47392 0
M  V30 1328 H 124.046 -3.4171 3.35814 0
M  V30 1329 H 122.41 -1.88312 1.71495 0
M  V30 1330 H 123.193 -1.17104 3.2271 0
M  V30 1331 N 125.638 -1.25649 -0.95132 0
M  V30 1332 C 126.885 -1.10594 -1.69633 0
M  V30 1333 C 127.213 0.352515 -1.91279 0
M  V30 1334 O 126.468 1.27601 -1.4838 0
M  V30 1335 C 126.767 -1.80909 -3.08231 0
M  V30 1336 C 126.433 -3.30825 -3.06375 0
M  V30 1337 C 125.095 -3.71722 -3.05576 0
M  V30 1338 C 127.447 -4.26589 -2.99452 0
M  V30 1339 C 124.775 -5.06788 -2.95606 0
M  V30 1340 C 127.127 -5.61683 -2.91024 0
M  V30 1341 C 125.791 -6.01904 -2.88562 0
M  V30 1342 H 125.061 -0.404691 -0.620731 0
M  V30 1343 H 127.708 -1.55964 -1.11119 0
M  V30 1344 H 126.013 -1.27979 -3.70309 0
M  V30 1345 H 127.71 -1.6671 -3.64704 0
M  V30 1346 H 124.3 -2.98287 -3.07771 0
M  V30 1347 H 128.484 -3.95982 -2.99185 0
M  V30 1348 H 123.74 -5.37126 -2.92071 0
M  V30 1349 H 127.914 -6.35578 -2.84629 0
M  V30 1350 H 125.541 -7.06521 -2.80593 0
M  V30 1351 N 127.117 1.15442 -1.07289 0
M  V30 1352 C 128.365 1.85845 -0.794096 0
M  V30 1353 C 128.686 1.82692 0.681809 0
M  V30 1354 O 127.956 1.26741 1.49377 0
M  V30 1355 H 126.536 0.688089 -0.290763 0
M  V30 1356 H 129.198 1.39947 -1.3565 0
M  V30 1357 H 128.294 2.91001 -1.12804 0
M  V30 1358 N 128.595 0.856903 1.32268 0
M  V30 1359 C 129.558 0.308171 2.27119 0
M  V30 1360 C 130.558 -0.533421 1.51695 0
M  V30 1361 O 131.748 -0.344607 1.70757 0
M  V30 1362 C 128.88 -0.563757 3.36206 0
M  V30 1363 H 130.073 1.14535 2.77167 0
M  V30 1364 H 127.626 0.631421 1.42978 0
M  V30 1365 H 128.361 -1.42266 2.91429 0
M  V30 1366 H 128.146 0.0386749 3.92081 0
M  V30 1367 H 129.636 -0.940386 4.06874 0
M  V30 1368 N 130.073 -1.45103 0.615059 0
M  V30 1369 C 131.301 -2.06553 0.11977 0
M  V30 1370 C 131.716 -1.45842 -1.19898 0
M  V30 1371 O 131.073 -0.575325 -1.73194 0
M  V30 1372 C 131.124 -3.61495 -0.018364 0
M  V30 1373 O 130.845 -4.19942 1.24822 0
M  V30 1374 C 132.346 -4.39947 -0.544237 0
M  V30 1375 H 129.566 -0.667096 0.0722739 0
M  V30 1376 H 132.11 -1.8623 0.84491 0
M  V30 1377 H 130.265 -3.81135 -0.693865 0
M  V30 1378 H 130.679 -5.13204 1.0827 0
M  V30 1379 H 132.153 -5.48838 -0.589953 0
M  V30 1380 H 132.63 -4.10255 -1.56805 0
M  V30 1381 H 133.236 -4.25188 0.0974703 0
M  V30 1382 N 131.551 -0.354651 -1.53558 0
M  V30 1383 C 132.779 0.239515 -2.05509 0
M  V30 1384 C 133.194 1.4333 -1.2289 0
M  V30 1385 O 132.551 1.80538 -0.266899 0
M  V30 1386 C 132.602 0.643719 -3.55723 0
M  V30 1387 O 132.323 -0.502602 -4.35207 0
M  V30 1388 C 133.824 1.29743 -4.23889 0
M  V30 1389 H 131.044 0.0442697 -0.669538 0
M  V30 1390 H 133.588 -0.509856 -1.98042 0
M  V30 1391 H 131.743 1.34302 -3.63376 0
M  V30 1392 H 132.157 -0.178172 -5.24197 0
M  V30 1393 H 133.631 1.53091 -5.30346 0
M  V30 1394 H 134.108 2.25441 -3.76926 0
M  V30 1395 H 134.714 0.639865 -4.20459 0
M  V30 1396 N 133.029 1.57378 -0.0835403 0
M  V30 1397 C 133.979 2.09916 0.889905 0
M  V30 1398 C 134.963 1.01151 1.25129 0
M  V30 1399 O 136.155 1.27443 1.2283 0
M  V30 1400 C 133.284 2.67379 2.15322 0
M  V30 1401 C 132.37 3.83167 1.81779 0
M  V30 1402 N 132.761 4.91665 1.18739 0
M  V30 1403 C 131.059 3.92685 2.11459 0
M  V30 1404 C 131.76 5.72409 1.0355 0
M  V30 1405 N 130.736 5.21062 1.54906 0
M  V30 1406 H 134.538 2.91188 0.398378 0
M  V30 1407 H 132.052 1.61956 0.120013 0
M  V30 1408 H 134.049 3.0334 2.8599 0
M  V30 1409 H 132.709 1.87558 2.65051 0
M  V30 1410 H 133.72 5.10784 0.855604 0
M  V30 1411 H 130.397 3.23856 2.63483 0
M  V30 1412 H 131.787 6.69699 0.543425 0
M  V30 1413 N 134.507 -0.190092 1.56449 0
M  V30 1414 C 135.732 -0.929864 1.85387 0
M  V30 1415 C 136.157 -1.7585 0.667704 0
M  V30 1416 O 135.515 -1.77198 -0.383459 0
M  V30 1417 C 135.563 -1.79773 3.12593 0
M  V30 1418 O 134.667 -2.89713 2.93496 0
M  V30 1419 H 134.008 -0.261574 0.610307 0
M  V30 1420 H 136.538 -0.193896 2.03679 0
M  V30 1421 H 136.548 -2.20139 3.43515 0
M  V30 1422 H 135.223 -1.18892 3.98544 0
M  V30 1423 H 133.8 -2.53065 2.73884 0
M  V30 1424 N 135.985 -1.50799 -0.457987 0
M  V30 1425 C 137.262 -1.52968 -1.21902 0
M  V30 1426 C 137.642 -0.281906 -2.09209 0
M  V30 1427 O 136.99 0.734076 -2.16388 0
M  V30 1428 C 137.2 -2.8326 -2.03875 0
M  V30 1429 C 138.548 -3.34425 -2.6162 0
M  V30 1430 O 139.572 -2.8467 -2.14106 0
M  V30 1431 O 138.431 -4.21188 -3.48228 0
M  V30 1432 H 135.525 -0.614129 -0.553873 0
M  V30 1433 H 138.071 -1.63098 -0.468739 0
M  V30 1434 H 136.843 -3.65543 -1.39621 0
M  V30 1435 H 136.466 -2.76195 -2.8601 0
M  V30 1436 N 137.463 0.71206 -1.40597 0
M  V30 1437 C 138.393 1.83889 -1.43899 0
M  V30 1438 C 139.374 1.67442 -0.299504 0
M  V30 1439 O 140.559 1.87421 -0.508624 0
M  V30 1440 C 137.689 3.21877 -1.30431 0
M  V30 1441 C 136.643 3.53002 -2.42019 0
M  V30 1442 C 135.969 4.90172 -2.13626 0
M  V30 1443 C 137.269 3.53643 -3.84362 0
M  V30 1444 H 138.963 1.81383 -2.38203 0
M  V30 1445 H 136.509 0.871237 -1.14654 0
M  V30 1446 H 138.462 4.00404 -1.31357 0
M  V30 1447 H 137.186 3.24968 -0.326049 0
M  V30 1448 H 135.845 2.76818 -2.40349 0
M  V30 1449 H 135.493 4.89869 -1.14182 0
M  V30 1450 H 135.193 5.11962 -2.88389 0
M  V30 1451 H 136.717 5.71028 -2.1624 0
M  V30 1452 H 138.131 4.22203 -3.87837 0
M  V30 1453 H 136.528 3.86961 -4.58673 0
M  V30 1454 H 137.598 2.52954 -4.13693 0
M  V30 1455 N 138.941 1.26152 0.944643 0
M  V30 1456 C 140.187 1.11657 1.69294 0
M  V30 1457 C 140.52 -0.339926 1.91202 0
M  V30 1458 O 139.795 -1.24994 1.49019 0
M  V30 1459 C 140.078 1.88236 3.06984 0
M  V30 1460 C 139.931 3.41772 2.92424 0
M  V30 1461 C 141.25 1.67343 4.07043 0
M  V30 1462 H 138.369 0.407004 0.614424 0
M  V30 1463 H 141.011 1.55106 1.09737 0
M  V30 1464 H 139.161 1.51308 3.57824 0
M  V30 1465 H 140.833 3.88433 2.48832 0
M  V30 1466 H 139.076 3.68974 2.28124 0
M  V30 1467 H 139.747 3.90579 3.90067 0
M  V30 1468 H 142.223 1.99509 3.65151 0
M  V30 1469 H 141.099 2.23346 5.01406 0
M  V30 1470 H 141.36 0.617158 4.37771 0
M  V30 1471 N 140.419 -1.14872 1.07899 0
M  V30 1472 C 141.349 -2.2193 0.725887 0
M  V30 1473 C 142.33 -1.67622 -0.28927 0
M  V30 1474 O 143.515 -1.93533 -0.160787 0
M  V30 1475 C 140.645 -3.47061 0.128856 0
M  V30 1476 C 139.599 -4.14363 1.07178 0
M  V30 1477 C 138.925 -5.33636 0.337229 0
M  V30 1478 C 140.225 -4.63492 2.40775 0
M  V30 1479 H 141.919 -2.51724 1.62097 0
M  V30 1480 H 139.465 -1.20991 0.780838 0
M  V30 1481 H 141.418 -4.21199 -0.130147 0
M  V30 1482 H 140.142 -3.16617 -0.80134 0
M  V30 1483 H 138.801 -3.42173 1.3158 0
M  V30 1484 H 138.449 -4.99449 -0.596606 0
M  V30 1485 H 138.149 -5.79609 0.965788 0
M  V30 1486 H 139.673 -6.10539 0.0861567 0
M  V30 1487 H 141.087 -5.2913 2.20669 0
M  V30 1488 H 139.484 -5.20148 2.99276 0
M  V30 1489 H 140.554 -3.78834 3.02676 0
M  V30 1490 N 141.898 -0.863906 -1.31812 0
M  V30 1491 C 143.314 -0.555004 -1.49639 0
M  V30 1492 C 143.514 0.912266 -1.79666 0
M  V30 1493 O 142.57 1.69479 -1.87171 0
M  V30 1494 C 143.883 -1.44998 -2.63431 0
M  V30 1495 C 145.431 -1.45138 -2.77316 0
M  V30 1496 C 145.906 -2.33179 -3.94197 0
M  V30 1497 N 147.397 -2.31025 -4.01474 0
M  V30 1498 C 148.132 -2.95871 -4.9117 0
M  V30 1499 N 147.628 -3.69863 -5.8581 0
M  V30 1500 N 149.421 -2.85211 -4.84367 0
M  V30 1501 H 141.572 -1.81339 -1.10589 0
M  V30 1502 H 143.835 -0.77505 -0.545895 0
M  V30 1503 H 143.541 -2.49377 -2.48 0
M  V30 1504 H 143.415 -1.14409 -3.59431 0
M  V30 1505 H 145.802 -0.415201 -2.92164 0
M  V30 1506 H 145.883 -1.79747 -1.82001 0
M  V30 1507 H 145.527 -3.3687 -3.80107 0
M  V30 1508 H 145.457 -1.95897 -4.88807 0
M  V30 1509 H 147.948 -1.77238 -3.33759 0
M  V30 1510 H 148.261 -4.16486 -6.50968 0
M  V30 1511 H 146.606 -3.73971 -5.85808 0
M  V30 1512 H 149.797 -2.26948 -4.09405 0
M  V30 1513 H 149.97 -3.36027 -5.54066 0
M  V30 1514 N 143.376 1.44774 -0.622745 0
M  V30 1515 C 144.339 2.29069 0.0774015 0
M  V30 1516 C 145.339 1.4059 0.780461 0
M  V30 1517 O 146.529 1.62551 0.626322 0
M  V30 1518 C 143.661 3.21974 1.12006 0
M  V30 1519 H 144.854 2.92459 -0.663901 0
M  V30 1520 H 142.407 1.51548 -0.382486 0
M  V30 1521 H 143.142 2.63417 1.89162 0
M  V30 1522 H 142.927 3.87168 0.619951 0
M  V30 1523 H 144.417 3.85318 1.60995 0
M  V30 1524 N 144.854 0.36279 1.53368 0
M  V30 1525 C 146.082 -0.228613 2.05633 0
M  V30 1526 C 146.497 -1.42676 1.23649 0
M  V30 1527 O 145.854 -1.80394 0.27647 0
M  V30 1528 C 145.905 -0.624845 3.56059 0
M  V30 1529 O 145.626 0.525675 4.34935 0
M  V30 1530 C 147.127 -1.27493 4.24571 0
M  V30 1531 H 144.347 -0.0407183 0.669763 0
M  V30 1532 H 146.891 0.520352 1.97769 0
M  V30 1533 H 145.046 -1.32373 3.64083 0
M  V30 1534 H 145.46 0.205969 5.24095 0
M  V30 1535 H 146.934 -1.50277 5.31151 0
M  V30 1536 H 147.411 -2.23439 3.78116 0
M  V30 1537 H 148.017 -0.617558 4.20792 0
M  V30 1538 N 146.332 -1.57332 0.0918853 0
M  V30 1539 C 147.279 -2.13847 -0.868211 0
M  V30 1540 C 148.249 -1.05618 -1.28196 0
M  V30 1541 O 149.434 -1.33387 -1.36427 0
M  V30 1542 C 146.574 -2.72062 -2.12312 0
M  V30 1543 C 145.687 -3.94514 -1.7602 0
M  V30 1544 C 144.822 -4.40903 -2.96273 0
M  V30 1545 C 143.861 -5.55953 -2.56092 0
M  V30 1546 N 142.998 -5.97209 -3.69169 0
M  V30 1547 H 147.838 -2.95575 -0.379406 0
M  V30 1548 H 145.375 -1.46048 -0.175606 0
M  V30 1549 H 147.333 -3.03931 -2.858 0
M  V30 1550 H 145.963 -1.93068 -2.58698 0
M  V30 1551 H 145.015 -3.68979 -0.925135 0
M  V30 1552 H 146.327 -4.7802 -1.42472 0
M  V30 1553 H 145.481 -4.74539 -3.78018 0
M  V30 1554 H 144.22 -3.56291 -3.33029 0
M  V30 1555 H 143.225 -5.21948 -1.72773 0
M  V30 1556 H 144.45 -6.42311 -2.20484 0
M  V30 1557 H 142.396 -5.15543 -4.05649 0
M  V30 1558 H 142.313 -6.75504 -3.39456 0
M  V30 1559 H 143.581 -6.35475 -4.51434 0
M  V30 1560 N 147.81 0.181792 -1.56548 0
M  V30 1561 C 148.74 1.22765 -1.98623 0
M  V30 1562 C 149.721 1.46747 -0.860189 0
M  V30 1563 O 150.906 1.58259 -1.12551 0
M  V30 1564 C 148.036 2.56894 -2.33715 0
M  V30 1565 C 146.99 2.475 -3.49182 0
M  V30 1566 C 146.316 3.86023 -3.69986 0
M  V30 1567 C 147.616 1.98866 -4.82959 0
M  V30 1568 H 149.31 0.877942 -2.86239 0
M  V30 1569 H 146.856 0.42088 -1.37712 0
M  V30 1570 H 148.809 3.30253 -2.61746 0
M  V30 1571 H 147.533 2.93632 -1.42997 0
M  V30 1572 H 146.192 1.76596 -3.21262 0
M  V30 1573 H 145.84 4.20136 -2.76576 0
M  V30 1574 H 145.54 3.80609 -4.47672 0
M  V30 1575 H 147.064 4.60984 -4.00407 0
M  V30 1576 H 148.478 2.61992 -5.09934 0
M  V30 1577 H 146.875 2.04424 -5.64208 0
M  V30 1578 H 147.945 0.942465 -4.75653 0
M  V30 1579 N 149.288 1.51039 0.449983 0
M  V30 1580 C 150.536 1.62759 1.19808 0
M  V30 1581 C 150.857 0.339981 1.92013 0
M  V30 1582 O 150.127 -0.643606 1.85026 0
M  V30 1583 H 148.707 0.599811 0.445237 0
M  V30 1584 H 151.369 1.87914 0.517138 0
M  V30 1585 H 150.465 2.44911 1.93455 0
M  V30 1586 N 150.766 -0.704594 1.40972 0
M  V30 1587 C 152.015 -1.46018 1.39146 0
M  V30 1588 C 152.328 -1.956 0.000589254 0
M  V30 1589 O 153.534 -2.71137 -0.1403 0
M  V30 1590 C 151.99 -2.63996 2.4461 0
M  V30 1591 C 151.598 -2.21238 3.89561 0
M  V30 1592 C 153.342 -3.41677 2.51907 0
M  V30 1593 C 151.249 -3.3612 4.86598 0
M  V30 1594 H 150.179 -0.548444 0.517422 0
M  V30 1595 H 152.83 -0.765784 1.66757 0
M  V30 1596 H 151.212 -3.3566 2.10115 0
M  V30 1597 H 152.386 -1.56923 4.33257 0
M  V30 1598 H 150.701 -1.56574 3.85841 0
M  V30 1599 H 153.298 -4.27182 3.2159 0
M  V30 1600 H 153.641 -3.86247 1.55303 0
M  V30 1601 H 154.174 -2.77064 2.85448 0
M  V30 1602 H 150.913 -2.96572 5.84573 0
M  V30 1603 H 150.433 -3.99315 4.47557 0
M  V30 1604 H 152.112 -4.02029 5.06934 0
M  V30 1605 N 152.244 -1.26651 -0.937939 0
M  V30 1606 C 153.655 -1.1125 -1.49934 0
M  V30 1607 C 154.006 0.306077 -1.93798 0
M  V30 1608 O 153.131 1.19792 -1.80219 0
M  V30 1609 C 153.726 -2.01339 -2.72485 0
M  V30 1610 C 152.285 -1.90074 -3.24883 0
M  V30 1611 C 151.432 -1.94498 -1.97651 0
M  V30 1612 H 154.383 -1.39693 -0.753091 0
M  V30 1613 H 154.404 -1.56319 -3.46907 0
M  V30 1614 H 153.916 -3.04577 -2.40529 0
M  V30 1615 H 152.017 -0.897827 -3.61621 0
M  V30 1616 H 152.13 -2.75778 -3.9177 0
M  V30 1617 H 150.494 -1.38591 -2.13693 0
M  V30 1618 H 151.277 -2.99372 -1.68022 0
M  V30 1619 N 153.722 1.14298 -1.08507 0
M  V30 1620 C 154.952 1.88945 -0.835663 0
M  V30 1621 C 155.36 1.78894 0.615928 0
M  V30 1622 O 154.703 1.1468 1.43506 0
M  V30 1623 C 154.765 3.39585 -1.17994 0
M  V30 1624 C 154.429 3.7342 -2.63451 0
M  V30 1625 C 155.426 3.73454 -3.61702 0
M  V30 1626 C 153.111 4.03368 -2.99332 0
M  V30 1627 C 155.105 4.02961 -4.93864 0
M  V30 1628 C 152.792 4.32538 -4.31687 0
M  V30 1629 C 153.79 4.32318 -5.28763 0
M  V30 1630 O 153.478 4.6078 -6.58739 0
M  V30 1631 H 153.21 0.605307 -0.300965 0
M  V30 1632 H 155.764 1.45673 -1.44806 0
M  V30 1633 H 153.994 3.83315 -0.51055 0
M  V30 1634 H 155.683 3.9554 -0.911182 0
M  V30 1635 H 156.449 3.50403 -3.35325 0
M  V30 1636 H 152.328 4.02692 -2.24411 0
M  V30 1637 H 155.872 4.02704 -5.69627 0
M  V30 1638 H 151.769 4.55059 -4.57812 0
M  V30 1639 H 152.537 4.78492 -6.64069 0
M  V30 1640 N 155.201 0.870884 1.31352 0
M  V30 1641 C 156.617 0.562932 1.49343 0
M  V30 1642 C 156.817 -0.902725 1.80148 0
M  V30 1643 O 155.873 -1.68484 1.88067 0
M  V30 1644 C 157.186 1.46393 2.62659 0
M  V30 1645 C 158.734 1.46607 2.76542 0
M  V30 1646 C 159.209 2.35266 3.92955 0
M  V30 1647 N 160.7 2.33151 4.00243 0
M  V30 1648 C 161.435 2.98471 4.89594 0
M  V30 1649 N 160.931 3.72964 5.8384 0
M  V30 1650 N 162.724 2.87775 4.82848 0
M  V30 1651 H 154.875 1.81923 1.09626 0
M  V30 1652 H 157.138 0.777934 0.541777 0
M  V30 1653 H 156.844 2.50689 2.46674 0
M  V30 1654 H 156.718 1.16314 3.58819 0
M  V30 1655 H 159.105 0.43069 2.9194 0
M  V30 1656 H 159.186 1.8071 1.81046 0
M  V30 1657 H 158.83 3.38881 3.78315 0
M  V30 1658 H 158.76 1.98487 4.87761 0
M  V30 1659 H 161.251 1.79006 3.32814 0
M  V30 1660 H 161.564 4.19932 6.4875 0
M  V30 1661 H 159.909 3.77073 5.83816 0
M  V30 1662 H 163.1 2.29116 4.08195 0
M  V30 1663 H 163.273 3.38961 5.52277 0
M  V30 1664 N 156.679 -1.44442 0.630414 0
M  V30 1665 C 157.925 -2.02351 0.134816 0
M  V30 1666 C 158.258 -1.4947 -1.23986 0
M  V30 1667 O 157.533 -0.678475 -1.82283 0
M  V30 1668 C 157.816 -3.59898 0.120707 0
M  V30 1669 C 157.669 -4.23063 1.52767 0
M  V30 1670 C 158.988 -4.36585 -0.555127 0
M  V30 1671 H 156.107 -0.73527 0.0504646 0
M  V30 1672 H 158.749 -1.72022 0.806751 0
M  V30 1673 H 156.899 -3.85868 -0.451477 0
M  V30 1674 H 158.571 -4.08202 2.14869 0
M  V30 1675 H 156.814 -3.80586 2.08175 0
M  V30 1676 H 157.485 -5.32071 1.46984 0
M  V30 1677 H 159.961 -4.16044 -0.0685429 0
M  V30 1678 H 158.837 -5.46294 -0.534185 0
M  V30 1679 H 159.098 -4.11138 -1.62535 0
M  V30 1680 N 158.157 -0.370918 -1.53173 0
M  V30 1681 C 159.406 0.218249 -2.00516 0
M  V30 1682 C 159.719 1.49429 -1.26215 0
M  V30 1683 O 160.925 2.16239 -1.64174 0
M  V30 1684 C 159.381 0.43948 -3.57207 0
M  V30 1685 C 158.989 -0.822244 -4.4039 0
M  V30 1686 C 160.733 0.986012 -4.1289 0
M  V30 1687 C 158.64 -0.570304 -5.88644 0
M  V30 1688 H 157.57 0.0853333 -0.749156 0
M  V30 1689 H 160.221 -0.490483 -1.76823 0
M  V30 1690 H 158.603 1.20961 -3.77074 0
M  V30 1691 H 159.777 -1.59557 -4.32294 0
M  V30 1692 H 158.092 -1.29238 -3.95836 0
M  V30 1693 H 160.689 1.18991 -5.21292 0
M  V30 1694 H 161.032 1.94972 -3.6782 0
M  V30 1695 H 161.565 0.27592 -3.96842 0
M  V30 1696 H 158.304 -1.50449 -6.38001 0
M  V30 1697 H 157.824 0.164427 -5.99575 0
M  V30 1698 H 159.503 -0.19784 -6.46697 0
M  V30 1699 N 159.635 1.57281 -0.100228 0
M  V30 1700 C 160.585 2.10848 0.86759 0
M  V30 1701 C 161.569 1.02473 1.24049 0
M  V30 1702 O 162.761 1.28739 1.21471 0
M  V30 1703 C 159.89 2.69648 2.12474 0
M  V30 1704 C 158.976 3.85074 1.77704 0
M  V30 1705 N 159.367 4.92897 1.13518 0
M  V30 1706 C 157.665 3.94905 2.07282 0
M  V30 1707 C 158.366 5.73475 0.974735 0
M  V30 1708 N 157.342 5.22675 1.4937 0
M  V30 1709 H 161.144 2.91594 0.367471 0
M  V30 1710 H 158.658 1.62074 0.102829 0
M  V30 1711 H 160.655 3.06356 2.82757 0
M  V30 1712 H 159.315 1.90359 2.63047 0
M  V30 1713 H 160.326 5.11662 0.801381 0
M  V30 1714 H 157.003 3.26633 2.60033 0
M  V30 1715 H 158.393 6.70238 0.472364 0
M  V30 1716 N 161.113 -0.173488 1.56642 0
M  V30 1717 C 162.061 -1.23417 1.97157 0
M  V30 1718 C 163.055 -1.45946 0.860013 0
M  V30 1719 O 164.261 -1.46551 1.04512 0
M  V30 1720 H 160.636 -0.414818 0.62724 0
M  V30 1721 H 162.607 -0.865582 2.8557 0
M  V30 1722 C 161.356 -2.5665 2.34576 0
M  V30 1723 H 160.679 -2.40137 3.19647 0
M  V30 1724 H 162.119 -3.2956 2.6677 0
M  V30 1725 C 160.578 -3.15245 1.18836 0
M  V30 1726 O 161.108 -3.98883 0.474869 0
M  V30 1727 N 159.314 -2.74303 0.959497 0
M  V30 1728 H 158.861 -2.0639 1.54146 0
M  V30 1729 H 158.819 -3.13844 0.186932 0
M  V30 1730 N 162.591 -1.51276 -0.441967 0
M  V30 1731 C 163.554 -1.7167 -1.51862 0
M  V30 1732 C 164.554 -0.586793 -1.49711 0
M  V30 1733 O 165.744 -0.854276 -1.51815 0
M  V30 1734 C 162.876 -1.76889 -2.91416 0
M  V30 1735 H 164.069 -2.67754 -1.35084 0
M  V30 1736 H 161.622 -1.41196 -0.670333 0
M  V30 1737 H 162.357 -0.826026 -3.13604 0
M  V30 1738 H 162.142 -2.59001 -2.94382 0
M  V30 1739 H 163.632 -1.94522 -3.69528 0
M  V30 1740 N 164.069 0.697108 -1.41344 0
M  V30 1741 C 165.294 1.49096 -1.44171 0
M  V30 1742 C 165.719 1.88038 -0.0481568 0
M  V30 1743 O 165.077 1.54525 0.948243 0
M  V30 1744 C 165.125 2.73088 -2.3549 0
M  V30 1745 O 164.229 3.70514 -1.81088 0
M  V30 1746 H 163.57 0.448801 -0.489361 0
M  V30 1747 H 166.1 0.856992 -1.85787 0
M  V30 1748 H 166.11 3.21413 -2.51312 0
M  V30 1749 H 164.785 2.44081 -3.36745 0
M  V30 1750 H 163.362 3.29441 -1.74708 0
M  V30 1751 N 165.547 1.27147 0.931209 0
M  V30 1752 C 166.796 1.12664 1.67302 0
M  V30 1753 C 167.109 -0.327718 1.92835 0
M  V30 1754 O 168.315 -0.593392 2.64936 0
M  V30 1755 C 166.771 1.9683 3.01307 0
M  V30 1756 C 166.379 3.46901 2.83485 0
M  V30 1757 C 168.123 1.90985 3.79111 0
M  V30 1758 C 166.03 4.23279 4.13024 0
M  V30 1759 H 164.96 0.41803 0.627509 0
M  V30 1760 H 167.611 1.51539 1.03481 0
M  V30 1761 H 165.993 1.50797 3.66164 0
M  V30 1762 H 167.167 4.00773 2.27415 0
M  V30 1763 H 165.482 3.54088 2.19113 0
M  V30 1764 H 168.079 2.45328 4.75098 0
M  V30 1765 H 168.422 0.882718 4.06834 0
M  V30 1766 H 168.955 2.34895 3.21044 0
M  V30 1767 H 165.694 5.26503 3.90481 0
M  V30 1768 H 165.214 3.74186 4.6877 0
M  V30 1769 H 166.893 4.32265 4.81411 0
M  V30 1770 N 167.025 -1.13721 1.09112 0
M  V30 1771 C 167.958 -2.18094 0.67158 0
M  V30 1772 C 168.936 -1.59414 -0.320299 0
M  V30 1773 O 170.12 -1.87183 -0.222444 0
M  V30 1774 C 167.247 -3.38698 -0.0111189 0
M  V30 1775 C 166.293 -4.15966 0.942055 0
M  V30 1776 S 167.126 -4.7604 2.45246 0
M  V30 1777 C 168.282 -5.99994 1.78208 0
M  V30 1778 H 168.515 -2.53344 1.55577 0
M  V30 1779 H 166.048 -1.24967 0.906789 0
M  V30 1780 H 168.006 -4.08559 -0.398716 0
M  V30 1781 H 166.667 -3.01756 -0.871905 0
M  V30 1782 H 165.86 -5.02318 0.411396 0
M  V30 1783 H 165.462 -3.51745 1.2709 0
M  V30 1784 H 167.754 -6.68441 1.10424 0
M  V30 1785 H 168.697 -6.57662 2.62463 0
M  V30 1786 H 169.105 -5.50432 1.25238 0
M  V30 1787 N 168.503 -0.877838 -1.30888 0
M  V30 1788 C 169.451 -0.328662 -2.30266 0
M  V30 1789 C 170.445 0.560496 -1.59859 0
M  V30 1790 O 171.651 0.445722 -1.74394 0
M  V30 1791 H 168.026 -0.0876142 -0.746879 0
M  V30 1792 H 169.997 -1.18061 -2.74051 0
M  V30 1793 C 168.746 0.448071 -3.44801 0
M  V30 1794 H 168.069 -0.226859 -3.99156 0
M  V30 1795 H 169.509 0.797541 -4.16432 0
M  V30 1796 C 167.968 1.64239 -2.94155 0
M  V30 1797 O 168.498 2.74175 -2.93583 0
M  V30 1798 N 166.704 1.47716 -2.50256 0
M  V30 1799 H 166.251 0.582821 -2.5092 0
M  V30 1800 H 166.209 2.27765 -2.16727 0
M  V30 1801 N 169.982 1.44106 -0.638065 0
M  V30 1802 C 170.945 2.29138 0.0531013 0
M  V30 1803 C 171.945 1.41409 0.765506 0
M  V30 1804 O 173.135 1.63206 0.609046 0
M  V30 1805 C 170.267 3.23144 1.08584 0
M  V30 1806 H 171.46 2.91739 -0.694883 0
M  V30 1807 H 169.013 1.51134 -0.398538 0
M  V30 1808 H 169.748 2.65408 1.86357 0
M  V30 1809 H 169.533 3.87804 0.578852 0
M  V30 1810 H 171.023 3.87004 1.56899 0
M  V30 1811 N 171.46 0.379036 1.52974 0
M  V30 1812 C 172.706 -0.206727 2.01744 0
M  V30 1813 C 173.039 -1.47314 1.26539 0
M  V30 1814 O 172.314 -1.91084 0.362903 0
M  V30 1815 C 172.597 -0.485066 3.56818 0
M  V30 1816 C 172.45 0.795919 4.42702 0
M  V30 1817 C 173.769 -1.28003 4.21074 0
M  V30 1818 H 170.888 -0.0736607 0.73331 0
M  V30 1819 H 173.53 0.506581 1.83122 0
M  V30 1820 H 171.68 -1.09272 3.72816 0
M  V30 1821 H 173.352 1.43307 4.38476 0
M  V30 1822 H 171.595 1.41344 4.10127 0
M  V30 1823 H 172.266 0.555947 5.49193 0
M  V30 1824 H 174.742 -0.765867 4.08991 0
M  V30 1825 H 173.618 -1.44352 5.29579 0
M  V30 1826 H 173.879 -2.29236 3.78026 0
M  V30 1827 N 172.938 -1.57226 0.108567 0
M  V30 1828 C 174.186 -1.94448 -0.550853 0
M  V30 1829 C 174.507 -0.992074 -1.67878 0
M  V30 1830 O 173.777 -0.0465 -1.95845 0
M  V30 1831 H 172.357 -0.717897 -0.206479 0
M  V30 1832 H 175.019 -1.94112 0.175062 0
M  V30 1833 H 174.115 -2.97218 -0.952259 0
M  V30 1834 N 174.416 0.165178 -1.56732 0
M  V30 1835 C 175.656 0.887231 -1.8414 0
M  V30 1836 C 176.02 1.79159 -0.690353 0
M  V30 1837 O 177.221 2.55172 -0.845032 0
M  V30 1838 C 175.492 1.65674 -3.16681 0
M  V30 1839 S 177.051 2.42671 -3.6559 0
M  V30 1840 H 173.869 0.297042 -0.645978 0
M  V30 1841 H 176.471 0.148439 -1.94936 0
M  V30 1842 H 175.175 0.983507 -3.98441 0
M  V30 1843 H 174.706 2.43679 -3.08843 0
M  V30 1844 H 176.721 3.67499 -3.33406 0
M  V30 1845 N 175.894 1.51508 0.433938 0
M  V30 1846 C 177.134 1.66006 1.19253 0
M  V30 1847 C 177.498 0.369868 1.88404 0
M  V30 1848 O 178.699 0.39066 2.65946 0
M  V30 1849 C 176.97 2.83229 2.17981 0
M  V30 1850 S 178.529 3.18075 3.02281 0
M  V30 1851 H 175.347 0.584821 0.404358 0
M  V30 1852 H 177.949 1.89425 0.48357 0
M  V30 1853 H 176.653 3.75407 1.65824 0
M  V30 1854 H 176.184 2.6201 2.93453 0
M  V30 1855 H 178.199 2.64772 4.19655 0
M  V30 1856 N 177.372 -0.689602 1.41712 0
M  V30 1857 C 178.62 -1.4468 1.4111 0
M  V30 1858 C 178.941 -1.94986 0.0232196 0
M  V30 1859 O 178.211 -1.72097 -0.935913 0
M  V30 1860 H 176.791 -0.536847 0.519427 0
M  V30 1861 H 179.453 -0.815825 1.77004 0
M  V30 1862 H 178.549 -2.30706 2.10193 0
M  V30 1863 N 178.85 -1.27639 -0.924453 0
M  V30 1864 C 179.78 -1.13166 -2.04244 0
M  V30 1865 C 180.761 -0.032256 -1.70069 0
M  V30 1866 O 181.946 -0.207328 -1.9309 0
M  V30 1867 C 179.076 -0.781496 -3.38393 0
M  V30 1868 C 178.03 -1.83449 -3.86692 0
M  V30 1869 C 177.356 -1.33822 -5.17683 0
M  V30 1870 C 178.656 -3.23917 -4.09726 0
M  V30 1871 H 180.35 -2.06689 -2.1661 0
M  V30 1872 H 177.896 -0.995136 -1.04082 0
M  V30 1873 H 179.849 -0.667057 -4.16087 0
M  V30 1874 H 178.573 0.189439 -3.2605 0
M  V30 1875 H 177.232 -1.93789 -3.11193 0
M  V30 1876 H 176.88 -0.35665 -5.01734 0
M  V30 1877 H 176.58 -2.04224 -5.50968 0
M  V30 1878 H 178.104 -1.23679 -5.97943 0
M  V30 1879 H 179.518 -3.16559 -4.77978 0
M  V30 1880 H 177.915 -3.92059 -4.54324 0
M  V30 1881 H 178.985 -3.68729 -3.14908 0
M  V30 1882 N 180.328 1.1314 -1.09713 0
M  V30 1883 C 181.26 2.18343 -0.697056 0
M  V30 1884 C 182.273 1.60669 0.262551 0
M  V30 1885 O 183.462 1.78435 0.0481527 0
M  V30 1886 C 180.562 3.38899 -0.00684728 0
M  V30 1887 C 179.735 4.26078 -0.988741 0
M  V30 1888 C 178.794 5.25155 -0.331394 0
M  V30 1889 O 177.82 5.60701 -0.979926 0
M  V30 1890 N 179.022 5.73271 0.913261 0
M  V30 1891 H 181.787 2.5328 -1.60216 0
M  V30 1892 H 179.348 1.28491 -0.984971 0
M  V30 1893 H 181.34 4.02255 0.444191 0
M  V30 1894 H 179.91 3.02175 0.800551 0
M  V30 1895 H 179.13 3.59453 -1.61826 0
M  V30 1896 H 180.418 4.81178 -1.65364 0
M  V30 1897 H 179.816 5.46544 1.45966 0
M  V30 1898 H 178.373 6.3855 1.30757 0
M  V30 1899 N 181.806 0.884767 1.30421 0
M  V30 1900 C 182.736 0.367574 2.30589 0
M  V30 1901 C 183.717 -0.549464 1.60981 0
M  V30 1902 O 184.902 -0.46336 1.88591 0
M  V30 1903 C 182.032 -0.418944 3.44764 0
M  V30 1904 C 180.986 0.406316 4.26067 0
M  V30 1905 C 180.312 -0.506793 5.32293 0
M  V30 1906 C 181.612 1.64832 4.95608 0
M  V30 1907 H 183.306 1.20462 2.74097 0
M  V30 1908 H 180.852 0.580695 1.31772 0
M  V30 1909 H 182.805 -0.791395 4.13902 0
M  V30 1910 H 181.529 -1.28964 3.0006 0
M  V30 1911 H 180.188 0.760903 3.58617 0
M  V30 1912 H 179.836 -1.37519 4.83836 0
M  V30 1913 H 179.536 0.0415828 5.87585 0
M  V30 1914 H 181.06 -0.875764 6.04287 0
M  V30 1915 H 182.474 1.34646 5.57264 0
M  V30 1916 H 180.871 2.13688 5.60765 0
M  V30 1917 H 181.941 2.39284 4.21748 0
M  V30 1918 N 183.284 -1.43765 0.645699 0
M  V30 1919 C 184.514 -2.05953 0.163318 0
M  V30 1920 C 184.922 -1.48432 -1.17322 0
M  V30 1921 O 184.265 -0.607295 -1.73371 0
M  V30 1922 C 184.327 -3.59499 -0.0103065 0
M  V30 1923 C 183.991 -4.39563 1.25035 0
M  V30 1924 C 184.988 -4.72108 2.17739 0
M  V30 1925 C 182.673 -4.79697 1.48983 0
M  V30 1926 C 184.667 -5.43688 3.3269 0
M  V30 1927 C 182.354 -5.51023 2.64229 0
M  V30 1928 C 183.352 -5.8294 3.55908 0
M  V30 1929 O 183.04 -6.5281 4.69142 0
M  V30 1930 H 182.772 -0.670798 0.0836986 0
M  V30 1931 H 185.326 -1.85384 0.884407 0
M  V30 1932 H 183.556 -3.78613 -0.78669 0
M  V30 1933 H 185.245 -4.03408 -0.449087 0
M  V30 1934 H 186.011 -4.41627 2.00476 0
M  V30 1935 H 181.89 -4.54266 0.785078 0
M  V30 1936 H 185.434 -5.68517 4.04269 0
M  V30 1937 H 181.331 -5.8092 2.81429 0
M  V30 1938 H 182.099 -6.71288 4.6831 0
M  V30 1939 N 184.763 -0.387143 -1.52771 0
M  V30 1940 C 185.71 0.449048 -2.26389 0
M  V30 1941 C 186.68 1.05961 -1.27912 0
M  V30 1942 O 187.865 1.08804 -1.56737 0
M  V30 1943 C 185.005 1.57155 -3.0724 0
M  V30 1944 C 184.118 0.984066 -4.20643 0
M  V30 1945 C 183.253 2.07745 -4.88892 0
M  V30 1946 C 182.292 1.46574 -5.94292 0
M  V30 1947 N 181.429 2.49834 -6.56146 0
M  V30 1948 H 186.269 -0.185205 -2.97424 0
M  V30 1949 H 183.806 -0.103164 -1.46738 0
M  V30 1950 H 185.764 2.23309 -3.52405 0
M  V30 1951 H 184.394 2.17615 -2.38419 0
M  V30 1952 H 183.446 0.212193 -3.79808 0
M  V30 1953 H 184.758 0.497029 -4.96318 0
M  V30 1954 H 183.912 2.81673 -5.3735 0
M  V30 1955 H 182.651 2.59807 -4.12737 0
M  V30 1956 H 181.656 0.711696 -5.45174 0
M  V30 1957 H 182.881 0.953088 -6.72379 0
M  V30 1958 H 180.827 3.0107 -5.82832 0
M  V30 1959 H 180.744 2.05879 -7.27427 0
M  V30 1960 H 182.012 3.23399 -7.09249 0
M  V30 1961 N 186.241 1.57166 -0.116904 0
M  V30 1962 C 187.488 1.95123 0.541603 0
M  V30 1963 C 187.816 1.00006 1.6682 0
M  V30 1964 O 187.071 0.0235658 1.95686 0
M  V30 1965 C 187.37 3.39508 1.11664 0
M  V30 1966 C 187.036 4.50762 0.111606 0
M  V30 1967 C 185.698 4.80918 -0.164758 0
M  V30 1968 C 188.05 5.18036 -0.573438 0
M  V30 1969 C 185.378 5.75666 -1.13249 0
M  V30 1970 C 187.73 6.13824 -1.52978 0
M  V30 1971 C 186.394 6.42374 -1.81415 0
M  V30 1972 H 185.664 0.714005 0.198187 0
M  V30 1973 H 188.311 1.9048 -0.197365 0
M  V30 1974 H 186.616 3.40835 1.93232 0
M  V30 1975 H 188.313 3.66189 1.63422 0
M  V30 1976 H 184.903 4.27272 0.337192 0
M  V30 1977 H 189.087 4.94896 -0.373092 0
M  V30 1978 H 184.343 5.96092 -1.35958 0
M  V30 1979 H 188.517 6.65039 -2.06629 0
M  V30 1980 H 186.144 7.15599 -2.56557 0
M  V30 1981 N 187.719 -0.156864 1.56817 0
M  V30 1982 C 188.967 -0.869404 1.82444 0
M  V30 1983 C 189.288 -1.82147 0.69623 0
M  V30 1984 O 188.558 -1.93847 -0.28287 0
M  V30 1985 H 187.138 -0.324043 0.673056 0
M  V30 1986 H 189.8 -0.153224 1.94297 0
M  V30 1987 H 188.896 -1.43761 2.77019 0
M  V30 1988 N 189.197 -1.51736 -0.425897 0
M  V30 1989 C 190.107 -1.76738 -1.54275 0
M  V30 1990 C 191.123 -0.65211 -1.61318 0
M  V30 1991 O 192.299 -0.935654 -1.78346 0
M  V30 1992 C 189.364 -1.89755 -2.90162 0
M  V30 1993 C 188.425 -3.13633 -2.93143 0
M  V30 1994 C 187.658 -3.2602 -4.22548 0
M  V30 1995 O 187.881 -2.44067 -5.15546 0
M  V30 1996 O 186.815 -4.19071 -4.32046 0
M  V30 1997 H 190.641 -2.71502 -1.36089 0
M  V30 1998 H 188.226 -1.36376 -0.610069 0
M  V30 1999 H 190.108 -2.00236 -3.70788 0
M  V30 2000 H 188.783 -0.981785 -3.08452 0
M  V30 2001 H 187.69 -3.08622 -2.11431 0
M  V30 2002 H 189.023 -4.04936 -2.798 0
M  V30 2003 N 190.675 0.682077 -1.42076 0
M  V30 2004 C 191.903 1.47057 -1.4554 0
M  V30 2005 C 192.318 1.8869 -0.0645779 0
M  V30 2006 O 191.675 1.57666 0.919115 0
M  V30 2007 C 191.726 2.72442 -2.37609 0
M  V30 2008 O 191.447 2.32559 -3.71279 0
M  V30 2009 C 192.948 3.66069 -2.50017 0
M  V30 2010 H 190.168 0.452737 -0.495248 0
M  V30 2011 H 192.712 0.838695 -1.8651 0
M  V30 2012 H 190.867 3.31835 -1.9991 0
M  V30 2013 H 191.281 3.13475 -4.20516 0
M  V30 2014 H 192.755 4.50792 -3.18576 0
M  V30 2015 H 193.232 4.11476 -1.53572 0
M  V30 2016 H 193.838 3.12572 -2.88407 0
M  V30 2017 N 192.153 1.28127 0.917671 0
M  V30 2018 C 193.399 1.15223 1.66888 0
M  V30 2019 C 193.732 -0.299293 1.9188 0
M  V30 2020 O 193.007 -1.21805 1.51637 0
M  V30 2021 C 193.29 1.94706 3.02922 0
M  V30 2022 C 193.143 3.47898 2.85109 0
M  V30 2023 C 194.462 1.75939 4.03402 0
M  V30 2024 H 191.581 0.419946 0.605652 0
M  V30 2025 H 194.223 1.57398 1.06423 0
M  V30 2026 H 192.373 1.58864 3.54534 0
M  V30 2027 H 194.045 3.93624 2.40537 0
M  V30 2028 H 192.288 3.7373 2.20246 0
M  V30 2029 H 192.959 3.98765 3.81694 0
M  V30 2030 H 195.435 2.07209 3.60837 0
M  V30 2031 H 194.311 2.33931 4.96556 0
M  V30 2032 H 194.572 0.709877 4.36364 0
M  V30 2033 N 193.631 -1.12557 1.10312 0
M  V30 2034 C 194.856 -1.88405 0.867085 0
M  V30 2035 C 195.281 -1.79038 -0.576817 0
M  V30 2036 O 194.639 -1.14439 -1.40618 0
M  V30 2037 C 194.687 -3.3563 1.31851 0
M  V30 2038 O 193.791 -4.09565 0.482734 0
M  V30 2039 H 193.132 -0.585455 0.313271 0
M  V30 2040 H 195.662 -1.42352 1.4696 0
M  V30 2041 H 195.672 -3.86469 1.3079 0
M  V30 2042 H 194.347 -3.41765 2.37001 0
M  V30 2043 H 192.924 -3.68695 0.558448 0
M  V30 2044 N 195.109 -0.891671 -1.2995 0
M  V30 2045 C 196.358 -0.509521 -1.95158 0
M  V30 2046 C 196.671 0.947388 -1.71125 0
M  V30 2047 O 197.877 1.43669 -2.30372 0
M  V30 2048 C 196.333 -0.860315 -3.49466 0
M  V30 2049 C 195.941 -2.33545 -3.8231 0
M  V30 2050 C 197.685 -0.547687 -4.20952 0
M  V30 2051 C 195.592 -2.62752 -5.29826 0
M  V30 2052 H 194.522 -0.18682 -0.730489 0
M  V30 2053 H 197.173 -1.08756 -1.47798 0
M  V30 2054 H 195.555 -0.211285 -3.95436 0
M  V30 2055 H 196.729 -3.02936 -3.47227 0
M  V30 2056 H 195.044 -2.61629 -3.23944 0
M  V30 2057 H 197.641 -0.742854 -5.29515 0
M  V30 2058 H 197.984 0.51332 -4.13123 0
M  V30 2059 H 198.517 -1.1542 -3.80688 0
M  V30 2060 H 195.256 -3.6762 -5.42712 0
M  V30 2061 H 194.776 -1.97977 -5.66185 0
M  V30 2062 H 196.455 -2.48601 -5.97333 0
M  V30 2063 N 196.587 1.43421 -0.653314 0
M  V30 2064 C 197.833 2.02111 -0.166992 0
M  V30 2065 C 198.166 1.51423 1.21592 0
M  V30 2066 O 197.441 0.707389 1.8118 0
M  V30 2067 C 197.724 3.5966 -0.177948 0
M  V30 2068 C 197.577 4.20579 -1.59478 0
M  V30 2069 C 198.896 4.37413 0.4856 0
M  V30 2070 H 196.015 0.734374 -0.0621557 0
M  V30 2071 H 198.657 1.70717 -0.834016 0
M  V30 2072 H 196.807 3.86537 0.390032 0
M  V30 2073 H 198.479 4.04732 -2.21336 0
M  V30 2074 H 196.722 3.77226 -2.14204 0
M  V30 2075 H 197.393 5.29665 -1.5543 0
M  V30 2076 H 199.869 4.161 0.00234528 0
M  V30 2077 H 198.745 5.47075 0.447207 0
M  V30 2078 H 199.006 4.13672 1.55974 0
M  V30 2079 N 198.065 0.39524 1.52563 0
M  V30 2080 C 199.312 -0.185044 2.01653 0
M  V30 2081 C 199.64 -1.46317 1.28146 0
M  V30 2082 O 198.895 -1.9213 0.372074 0
M  V30 2083 C 199.194 -0.493444 3.53977 0
M  V30 2084 C 198.86 0.69384 4.4553 0
M  V30 2085 C 197.522 1.01954 4.70275 0
M  V30 2086 C 199.874 1.48785 4.99512 0
M  V30 2087 C 197.202 2.14069 5.46252 0
M  V30 2088 C 199.554 2.59965 5.76716 0
M  V30 2089 C 198.218 2.93037 5.99738 0
M  V30 2090 H 197.488 -0.0677123 0.7379 0
M  V30 2091 H 200.135 0.533807 1.8391 0
M  V30 2092 H 198.44 -1.29369 3.69825 0
M  V30 2093 H 200.137 -0.955163 3.89458 0
M  V30 2094 H 196.727 0.429987 4.26438 0
M  V30 2095 H 200.911 1.24946 4.80315 0
M  V30 2096 H 196.167 2.40056 5.62302 0
M  V30 2097 H 200.341 3.21887 6.17545 0
M  V30 2098 H 197.968 3.8003 6.58393 0
M  V30 2099 N 199.544 -1.57102 0.125237 0
M  V30 2100 C 200.79 -1.96488 -0.525753 0
M  V30 2101 C 201.145 -1.00786 -1.6389 0
M  V30 2102 O 200.438 -0.038979 -1.9156 0
M  V30 2103 C 200.632 -3.40096 -1.09862 0
M  V30 2104 C 200.461 -4.4968 -0.0425004 0
M  V30 2105 C 199.231 -5.03781 0.391463 0
M  V30 2106 C 201.429 -5.08936 0.740829 0
M  V30 2107 N 199.411 -5.96948 1.4327 0
M  V30 2108 C 200.782 -5.98105 1.6331 0
M  V30 2109 C 202.837 -4.91576 0.791029 0
M  V30 2110 C 201.54 -6.71774 2.57122 0
M  V30 2111 C 203.566 -5.6593 1.71688 0
M  V30 2112 C 202.928 -6.5479 2.59672 0
M  V30 2113 H 199.027 -0.765072 -0.161831 0
M  V30 2114 H 201.611 -1.93511 0.214801 0
M  V30 2115 H 199.782 -3.43707 -1.80887 0
M  V30 2116 H 201.514 -3.66591 -1.71444 0
M  V30 2117 H 198.269 -4.736 -0.00213584 0
M  V30 2118 H 198.693 -6.48236 1.95243 0
M  V30 2119 H 203.335 -4.22615 0.124915 0
M  V30 2120 H 201.053 -7.39977 3.24744 0
M  V30 2121 H 204.639 -5.54501 1.76125 0
M  V30 2122 H 203.519 -7.11316 3.30149 0
M  V30 2123 N 201.022 0.148545 -1.56898 0
M  V30 2124 C 202.25 0.876389 -1.87422 0
M  V30 2125 C 202.665 1.74809 -0.713256 0
M  V30 2126 O 202.022 1.79725 0.317025 0
M  V30 2127 C 202.073 1.73438 -3.17178 0
M  V30 2128 O 201.794 0.897809 -4.28802 0
M  V30 2129 C 203.295 2.56993 -3.61205 0
M  V30 2130 H 200.515 0.253489 -0.621277 0
M  V30 2131 H 203.059 0.141798 -2.04008 0
M  V30 2132 H 201.214 2.42205 -3.0235 0
M  V30 2133 H 201.628 1.48672 -5.02988 0
M  V30 2134 H 203.102 3.12773 -4.54838 0
M  V30 2135 H 203.579 3.32958 -2.86419 0
M  V30 2136 H 204.185 1.9352 -3.78722 0
M  V30 2137 N 202.5 1.5196 0.417844 0
M  V30 2138 C 203.777 1.56146 1.17803 0
M  V30 2139 C 204.157 0.337275 2.08388 0
M  V30 2140 O 203.505 -0.676447 2.18258 0
M  V30 2141 C 203.715 2.88566 1.96293 0
M  V30 2142 C 205.063 3.41244 2.52662 0
M  V30 2143 O 206.087 2.90247 2.06483 0
M  V30 2144 O 204.946 4.30273 3.36938 0
M  V30 2145 H 202.04 0.628598 0.537395 0
M  V30 2146 H 204.586 1.64283 0.425331 0
M  V30 2147 H 203.358 3.69116 1.2988 0
M  V30 2148 H 202.981 2.83681 2.78587 0
M  V30 2149 N 203.978 -0.674533 1.42435 0
M  V30 2150 C 205.206 -1.46283 1.46317 0
M  V30 2151 C 205.621 -1.88653 0.0745836 0
M  V30 2152 O 204.978 -1.58151 -0.91074 0
M  V30 2153 C 205.029 -2.71178 2.3905 0
M  V30 2154 O 204.75 -2.30586 3.72507 0
M  V30 2155 C 206.251 -3.64738 2.51955 0
M  V30 2156 H 203.471 -0.450104 0.497642 0
M  V30 2157 H 206.015 -0.828792 1.86953 0
M  V30 2158 H 204.17 -3.3077 2.01667 0
M  V30 2159 H 204.584 -3.11241 4.22172 0
M  V30 2160 H 206.058 -4.49096 3.20962 0
M  V30 2161 H 206.535 -4.10656 1.55752 0
M  V30 2162 H 207.141 -3.11038 2.90061 0
M  V30 2163 N 205.456 -1.28612 -0.910864 0
M  V30 2164 C 206.702 -1.17116 -1.66299 0
M  V30 2165 C 207.057 0.276917 -1.90397 0
M  V30 2166 O 206.35 1.19795 -1.49532 0
M  V30 2167 C 206.544 -1.90624 -3.0232 0
M  V30 2168 C 206.373 -3.42431 -2.91498 0
M  V30 2169 C 205.143 -4.11773 -2.92867 0
M  V30 2170 C 207.341 -4.38124 -2.69355 0
M  V30 2171 N 205.323 -5.50025 -2.72664 0
M  V30 2172 C 206.694 -5.63759 -2.58023 0
M  V30 2173 C 208.749 -4.28016 -2.54375 0
M  V30 2174 C 207.452 -6.80436 -2.33238 0
M  V30 2175 C 209.478 -5.44433 -2.30969 0
M  V30 2176 C 208.84 -6.69034 -2.20394 0
M  V30 2177 H 204.939 -0.483506 -0.61461 0
M  V30 2178 H 207.523 -1.62299 -1.0755 0
M  V30 2179 H 205.694 -1.4787 -3.5915 0
M  V30 2180 H 207.426 -1.71488 -3.66571 0
M  V30 2181 H 204.181 -3.63378 -3.03732 0
M  V30 2182 H 204.605 -6.22705 -2.65646 0
M  V30 2183 H 209.247 -3.32388 -2.613 0
M  V30 2184 H 206.965 -7.7613 -2.25051 0
M  V30 2185 H 210.551 -5.38504 -2.20238 0
M  V30 2186 H 209.431 -7.57595 -2.02531 0
M  V30 2187 N 206.934 1.1197 -1.10907 0
M  V30 2188 C 208.35 1.35591 -0.841852 0
M  V30 2189 C 208.55 1.94233 0.536246 0
M  V30 2190 O 207.606 2.1717 1.28816 0
M  V30 2191 C 208.919 2.29284 -1.94549 0
M  V30 2192 C 210.467 2.42862 -1.97451 0
M  V30 2193 C 210.942 3.39873 -3.07002 0
M  V30 2194 N 212.433 3.47433 -3.06341 0
M  V30 2195 C 213.168 4.22421 -3.87748 0
M  V30 2196 N 212.664 5.00432 -4.79103 0
M  V30 2197 N 214.457 4.17876 -3.75946 0
M  V30 2198 H 206.608 0.722664 -1.99728 0
M  V30 2199 H 208.871 0.380635 -0.868229 0
M  V30 2200 H 208.577 1.93378 -2.93765 0
M  V30 2201 H 208.451 3.29452 -1.83688 0
M  V30 2202 H 210.838 2.78046 -0.988645 0
M  V30 2203 H 210.919 1.42566 -2.12388 0
M  V30 2204 H 210.563 3.05417 -4.05811 0
M  V30 2205 H 210.493 4.40011 -2.89306 0
M  V30 2206 H 212.984 2.91784 -2.40147 0
M  V30 2207 H 213.297 5.55002 -5.37766 0
M  V30 2208 H 211.642 4.99612 -4.83128 0
M  V30 2209 H 214.833 3.56016 -3.03924 0
M  V30 2210 H 215.006 4.76061 -4.39624 0
M  V30 2211 N 208.412 0.89855 1.29475 0
M  V30 2212 C 209.823 0.572537 1.77705 0
M  V30 2213 C 210.174 -0.911778 1.73727 0
M  V30 2214 O 209.299 -1.71288 1.32247 0
M  V30 2215 C 209.894 1.03252 3.22683 0
M  V30 2216 C 208.453 0.757687 3.68695 0
M  V30 2217 C 207.6 1.20787 2.49612 0
M  V30 2218 H 210.551 1.08139 1.16153 0
M  V30 2219 H 210.572 0.367307 3.78723 0
M  V30 2220 H 210.084 2.11285 3.25546 0
M  V30 2221 H 208.185 -0.310079 3.71308 0
M  V30 2222 H 208.298 1.35476 4.59547 0
M  V30 2223 H 206.662 0.626888 2.46865 0
M  V30 2224 H 207.445 2.29622 2.55203 0
M  V30 2225 N 209.89 -1.43072 0.660911 0
M  V30 2226 C 210.8 -2.34585 -0.0264163 0
M  V30 2227 C 211.816 -1.54316 -0.803898 0
M  V30 2228 O 212.992 -1.86939 -0.749391 0
M  V30 2229 C 210.057 -3.32689 -0.975639 0
M  V30 2230 C 209.118 -4.2886 -0.194236 0
M  V30 2231 C 208.351 -5.22278 -1.09825 0
M  V30 2232 O 208.574 -5.20299 -2.33763 0
M  V30 2233 O 207.508 -5.99228 -0.566513 0
M  V30 2234 H 211.334 -2.94869 0.727034 0
M  V30 2235 H 208.919 -1.43342 0.42111 0
M  V30 2236 H 210.801 -3.92995 -1.52094 0
M  V30 2237 H 209.476 -2.74898 -1.70918 0
M  V30 2238 H 208.383 -3.72011 0.394835 0
M  V30 2239 H 209.716 -4.89655 0.499899 0
M  V30 2240 N 211.368 -0.403325 -1.52352 0
M  V30 2241 C 212.593 0.176499 -2.06648 0
M  V30 2242 C 213.018 1.38577 -1.27193 0
M  V30 2243 O 212.376 1.7879 -0.300637 0
M  V30 2244 C 212.424 0.511061 -3.5696 0
M  V30 2245 O 211.528 1.60294 -3.79973 0
M  V30 2246 H 210.869 0.0167337 -0.663789 0
M  V30 2247 H 213.399 -0.574848 -1.96359 0
M  V30 2248 H 213.409 0.771362 -4.00642 0
M  V30 2249 H 212.084 -0.37296 -4.14224 0
M  V30 2250 H 210.661 1.33526 -3.48174 0
M  V30 2251 N 212.846 1.57033 -0.133567 0
M  V30 2252 C 214.093 1.95686 0.520877 0
M  V30 2253 C 214.421 1.0177 1.6575 0
M  V30 2254 O 213.676 0.0443195 1.9565 0
M  V30 2255 C 213.975 3.40674 1.08057 0
M  V30 2256 C 213.641 4.50855 0.0637899 0
M  V30 2257 C 212.303 4.80716 -0.215757 0
M  V30 2258 C 214.655 5.17398 -0.62835 0
M  V30 2259 C 211.983 5.74433 -1.19348 0
M  V30 2260 C 214.335 6.12167 -1.5948 0
M  V30 2261 C 212.999 6.40414 -1.88218 0
M  V30 2262 H 212.269 0.716067 0.190602 0
M  V30 2263 H 214.916 1.9026 -0.217556 0
M  V30 2264 H 213.221 3.42865 1.89606 0
M  V30 2265 H 214.918 3.67902 1.59529 0
M  V30 2266 H 211.508 4.27605 0.291855 0
M  V30 2267 H 215.692 4.94472 -0.425562 0
M  V30 2268 H 210.948 5.94616 -1.42272 0
M  V30 2269 H 215.122 6.6281 -2.13671 0
M  V30 2270 H 212.749 7.12838 -2.64133 0
M  V30 2271 N 214.325 -0.140222 1.56975 0
M  V30 2272 C 215.572 -0.851687 1.83719 0
M  V30 2273 C 215.9 -1.80862 0.715485 0
M  V30 2274 O 215.155 -1.93464 -0.294956 0
M  V30 2275 C 215.454 -1.65386 3.16832 0
M  V30 2276 C 215.12 -0.843112 4.42947 0
M  V30 2277 C 213.782 -0.619464 4.77196 0
M  V30 2278 C 216.134 -0.276582 5.20466 0
M  V30 2279 C 213.462 0.181312 5.8642 0
M  V30 2280 C 215.814 0.51127 6.30531 0
M  V30 2281 C 214.478 0.745432 6.63325 0
M  V30 2282 H 213.748 -0.311654 0.672274 0
M  V30 2283 H 216.395 -0.115006 1.91154 0
M  V30 2284 H 214.7 -2.46084 3.04877 0
M  V30 2285 H 216.397 -2.20793 3.34741 0
M  V30 2286 H 212.987 -1.0275 4.16101 0
M  V30 2287 H 217.171 -0.436632 4.94376 0
M  V30 2288 H 212.427 0.372165 6.10266 0
M  V30 2289 H 216.601 0.957354 6.89788 0
M  V30 2290 H 214.228 1.36778 7.47794 0
M  V30 2291 N 215.803 -1.52179 -0.40978 0
M  V30 2292 C 217.08 -1.56769 -1.16974 0
M  V30 2293 C 217.46 -0.348322 -2.08206 0
M  V30 2294 O 216.808 0.664862 -2.18613 0
M  V30 2295 C 217.018 -2.89603 -1.9476 0
M  V30 2296 C 218.366 -3.42579 -2.50849 0
M  V30 2297 O 219.39 -2.91338 -2.04941 0
M  V30 2298 O 218.249 -4.32054 -3.34652 0
M  V30 2299 H 215.343 -0.631439 -0.534054 0
M  V30 2300 H 217.889 -1.64507 -0.416613 0
M  V30 2301 H 216.661 -3.698 -1.27921 0
M  V30 2302 H 216.284 -2.85155 -2.77079 0
M  V30 2303 N 217.281 0.66697 -1.42791 0
M  V30 2304 C 218.228 1.7803 -1.4688 0
M  V30 2305 C 219.198 1.6299 -0.319919 0
M  V30 2306 O 220.383 1.83432 -0.525118 0
M  V30 2307 C 217.523 3.1611 -1.38451 0
M  V30 2308 C 216.636 3.42381 -2.63437 0
M  V30 2309 C 215.771 4.70232 -2.47094 0
M  V30 2310 C 214.81 4.89564 -3.67415 0
M  V30 2311 N 213.947 6.08661 -3.49966 0
M  V30 2312 H 218.787 1.7387 -2.42019 0
M  V30 2313 H 216.324 0.84868 -1.20149 0
M  V30 2314 H 218.282 3.95914 -1.31561 0
M  V30 2315 H 216.912 3.19374 -0.469033 0
M  V30 2316 H 215.964 2.56774 -2.80662 0
M  V30 2317 H 217.276 3.52557 -3.52853 0
M  V30 2318 H 216.43 5.5814 -2.37834 0
M  V30 2319 H 215.169 4.62353 -1.5518 0
M  V30 2320 H 214.174 4.00096 -3.77099 0
M  V30 2321 H 215.399 4.99282 -4.6032 0
M  V30 2322 H 213.345 6.0194 -2.60776 0
M  V30 2323 H 213.262 6.19733 -4.32975 0
M  V30 2324 H 214.53 6.99226 -3.44532 0
M  V30 2325 N 218.759 1.29093 0.90403 0
M  V30 2326 C 220.005 1.16986 1.65656 0
M  V30 2327 C 220.338 -0.278925 1.92186 0
M  V30 2328 O 219.613 -1.2019 1.5292 0
M  V30 2329 C 219.896 1.97908 3.0084 0
M  V30 2330 C 219.749 3.50903 2.81403 0
M  V30 2331 C 221.068 1.80208 4.01513 0
M  V30 2332 H 218.187 0.426346 0.601164 0
M  V30 2333 H 220.829 1.58518 1.04747 0
M  V30 2334 H 218.979 1.62616 3.52829 0
M  V30 2335 H 220.651 3.96153 2.36348 0
M  V30 2336 H 218.894 3.76045 2.1627 0
M  V30 2337 H 219.565 4.02791 3.77443 0
M  V30 2338 H 222.041 2.11025 3.58619 0
M  V30 2339 H 220.917 2.39184 4.94047 0
M  V30 2340 H 221.178 0.756119 4.35586 0
M  V30 2341 N 220.237 -1.11381 1.11499 0
M  V30 2342 C 221.184 -2.17439 0.773887 0
M  V30 2343 C 222.154 -1.64132 -0.254899 0
M  V30 2344 O 223.339 -1.90345 -0.13168 0
M  V30 2345 C 220.479 -3.44373 0.223917 0
M  V30 2346 C 219.592 -4.1168 1.30934 0
M  V30 2347 C 218.727 -5.263 0.71984 0
M  V30 2348 C 217.766 -5.85493 1.78507 0
M  V30 2349 N 216.903 -6.91507 1.21502 0
M  V30 2350 H 221.743 -2.45962 1.68246 0
M  V30 2351 H 219.28 -1.20744 0.840191 0
M  V30 2352 H 221.238 -4.17047 -0.112921 0
M  V30 2353 H 219.868 -3.16232 -0.647851 0
M  V30 2354 H 218.92 -3.37073 1.76312 0
M  V30 2355 H 220.232 -4.51729 2.11524 0
M  V30 2356 H 219.386 -6.05785 0.333094 0
M  V30 2357 H 218.125 -4.87559 -0.117377 0
M  V30 2358 H 217.13 -5.04686 2.18111 0
M  V30 2359 H 218.355 -6.26301 2.62533 0
M  V30 2360 H 216.301 -6.54783 0.399455 0
M  V30 2361 H 216.218 -7.30214 1.95763 0
M  V30 2362 H 217.486 -7.74795 0.855181 0
M  V30 2363 N 221.715 -0.905404 -1.28997 0
M  V30 2364 C 222.662 -0.385892 -2.27551 0
M  V30 2365 C 223.632 0.535113 -1.57244 0
M  V30 2366 O 224.817 0.459119 -1.85194 0
M  V30 2367 C 221.957 0.375461 -3.43051 0
M  V30 2368 C 221.07 -0.577092 -4.28128 0
M  V30 2369 C 220.205 0.201879 -5.30816 0
M  V30 2370 C 219.244 -0.744829 -6.07551 0
M  V30 2371 N 218.381 9.42587e-05 -7.021 0
M  V30 2372 H 223.221 -1.23139 -2.71368 0
M  V30 2373 H 220.758 -0.618542 -1.33463 0
M  V30 2374 H 222.716 0.832992 -4.088 0
M  V30 2375 H 221.346 1.18537 -3.00248 0
M  V30 2376 H 220.398 -1.15315 -3.62501 0
M  V30 2377 H 221.71 -1.30152 -4.8152 0
M  V30 2378 H 220.864 0.720351 -6.02408 0
M  V30 2379 H 219.603 0.959413 -4.7817 0
M  V30 2380 H 218.608 -1.27475 -5.34818 0
M  V30 2381 H 219.833 -1.50178 -6.62286 0
M  V30 2382 H 217.779 0.739791 -6.51815 0
M  V30 2383 H 217.696 -0.664321 -7.53076 0
M  V30 2384 H 218.964 0.498644 -7.77903 0
M  V30 2385 N 223.193 1.4272 -0.668489 0
M  V30 2386 C 224.141 2.32586 0.0254857 0
M  V30 2387 C 225.135 1.49471 0.797176 0
M  V30 2388 O 226.341 1.65583 0.705853 0
M  V30 2389 H 222.716 0.751514 0.0270339 0
M  V30 2390 H 224.687 2.88823 -0.749936 0
M  V30 2391 C 223.436 3.3397 0.967427 0
M  V30 2392 H 222.759 3.97961 0.383048 0
M  V30 2393 H 224.199 3.9945 1.42181 0
M  V30 2394 C 222.658 2.65744 2.0708 0
M  V30 2395 O 223.188 2.48454 3.15648 0
M  V30 2396 N 221.394 2.2487 1.8407 0
M  V30 2397 H 220.941 2.39132 0.95778 0
M  V30 2398 H 220.899 1.79552 2.58086 0
M  V30 2399 N 224.671 0.411399 1.52136 0
M  V30 2400 C 226.087 0.0623865 1.59478 0
M  V30 2401 C 226.287 -1.42554 1.4241 0
M  V30 2402 O 225.343 -2.19263 1.2522 0
M  V30 2403 C 226.656 0.559331 2.95452 0
M  V30 2404 C 228.204 0.517503 3.08692 0
M  V30 2405 C 228.679 0.990994 4.4715 0
M  V30 2406 N 230.17 0.947908 4.53397 0
M  V30 2407 C 230.905 1.28544 5.58806 0
M  V30 2408 N 230.401 1.69454 6.71757 0
M  V30 2409 N 232.194 1.20526 5.49026 0
M  V30 2410 H 224.345 1.37982 1.61477 0
M  V30 2411 H 226.608 0.566977 0.759764 0
M  V30 2412 H 226.314 1.59938 3.1323 0
M  V30 2413 H 226.188 -0.0298014 3.77188 0
M  V30 2414 H 228.575 -0.513505 2.90598 0
M  V30 2415 H 228.656 1.14272 2.28857 0
M  V30 2416 H 228.3 2.02034 4.65988 0
M  V30 2417 H 228.23 0.34257 5.25485 0
M  V30 2418 H 230.721 0.647157 3.72317 0
M  V30 2419 H 231.034 1.93513 7.48179 0
M  V30 2420 H 229.379 1.73359 6.73032 0
M  V30 2421 H 232.57 0.884505 4.59667 0
M  V30 2422 H 232.743 1.47161 6.31069 0
M  V30 2423 N 226.149 -1.5696 0.141893 0
M  V30 2424 C 227.081 -2.13619 -0.830627 0
M  V30 2425 C 228.094 -1.08439 -1.21428 0
M  V30 2426 O 229.283 -1.35734 -1.15925 0
M  V30 2427 C 226.383 -2.63978 -2.12529 0
M  V30 2428 C 225.556 -3.93504 -1.9098 0
M  V30 2429 C 224.615 -4.29225 -3.04388 0
M  V30 2430 O 223.641 -4.97641 -2.76302 0
M  V30 2431 N 224.843 -3.88393 -4.31429 0
M  V30 2432 H 227.608 -2.97691 -0.34641 0
M  V30 2433 H 225.169 -1.61846 -0.0418375 0
M  V30 2434 H 227.161 -2.84891 -2.87436 0
M  V30 2435 H 225.731 -1.84659 -2.52229 0
M  V30 2436 H 224.951 -3.81269 -1.00139 0
M  V30 2437 H 226.239 -4.78154 -1.73914 0
M  V30 2438 H 225.637 -3.33257 -4.57117 0
M  V30 2439 H 224.194 -4.14368 -5.03133 0
M  V30 2440 N 227.627 0.131896 -1.57047 0
M  V30 2441 C 228.575 1.18146 -2.0036 0
M  V30 2442 C 229.569 1.43614 -0.898406 0
M  V30 2443 O 230.775 1.43729 -1.08361 0
M  V30 2444 H 227.15 0.398042 -0.638018 0
M  V30 2445 H 229.121 0.789564 -2.87765 0
M  V30 2446 C 227.87 2.50341 -2.41298 0
M  V30 2447 H 227.193 2.31578 -3.25902 0
M  V30 2448 H 228.633 3.22371 -2.75414 0
M  V30 2449 C 227.092 3.11984 -1.27153 0
M  V30 2450 O 227.622 3.97484 -0.580459 0
M  V30 2451 N 225.828 2.71662 -1.03189 0
M  V30 2452 H 225.375 2.02231 -1.59564 0
M  V30 2453 H 225.333 3.13238 -0.270077 0
M  V30 2454 N 229.106 1.52395 0.401703 0
M  V30 2455 C 230.354 1.66488 1.14569 0
M  V30 2456 C 230.675 0.400897 1.90835 0
M  V30 2457 O 229.945 -0.584415 1.8698 0
M  V30 2458 H 228.525 0.613672 0.425929 0
M  V30 2459 H 231.187 1.89464 0.457093 0
M  V30 2460 H 230.283 2.50942 1.85566 0
M  V30 2461 N 230.584 -0.659388 1.43143 0
M  V30 2462 C 231.517 -1.78425 1.42267 0
M  V30 2463 C 232.495 -1.60085 0.284894 0
M  V30 2464 O 233.679 -1.82351 0.477527 0
M  V30 2465 C 230.806 -3.15642 1.22833 0
M  V30 2466 C 229.852 -3.52698 2.39806 0
M  V30 2467 S 230.685 -3.53372 4.02353 0
M  V30 2468 C 231.841 -4.93256 3.85291 0
M  V30 2469 H 232.074 -1.78897 2.37452 0
M  V30 2470 H 229.607 -0.831469 1.301 0
M  V30 2471 H 231.565 -3.94838 1.12308 0
M  V30 2472 H 230.226 -3.12739 0.29207 0
M  V30 2473 H 229.419 -4.52475 2.21996 0
M  V30 2474 H 229.021 -2.80899 2.46925 0
M  V30 2475 H 231.313 -5.81751 3.47235 0
M  V30 2476 H 232.256 -5.16115 4.84799 0
M  V30 2477 H 232.664 -4.665 3.17865 0
M  V30 2478 N 232.062 -1.29571 -0.897171 0
M  V30 2479 C 233.012 -1.11539 -1.98855 0
M  V30 2480 C 233.996 -0.0340716 -1.60864 0
M  V30 2481 O 235.188 -0.256062 -1.75138 0
M  V30 2482 C 232.317 -0.796603 -3.3393 0
M  V30 2483 C 231.403 -1.91758 -3.78272 0
M  V30 2484 N 231.794 -3.16143 -3.94826 0
M  V30 2485 C 230.092 -1.81119 -4.07568 0
M  V30 2486 C 230.793 -3.89293 -4.32233 0
M  V30 2487 N 229.769 -3.17255 -4.41419 0
M  V30 2488 H 233.571 -2.05894 -2.09726 0
M  V30 2489 H 231.085 -1.20732 -1.08616 0
M  V30 2490 H 233.082 -0.648459 -4.11826 0
M  V30 2491 H 231.742 0.139003 -3.24402 0
M  V30 2492 H 232.753 -3.5157 -3.80288 0
M  V30 2493 H 229.43 -0.948461 -4.06584 0
M  V30 2494 H 230.82 -4.9635 -4.52865 0
M  V30 2495 N 233.54 1.10788 -1.12088 0
M  V30 2496 C 234.768 1.86461 -0.896651 0
M  V30 2497 C 235.183 1.80492 0.553912 0
M  V30 2498 O 234.54 1.19102 1.38278 0
M  V30 2499 C 234.591 3.35006 -1.35843 0
M  V30 2500 O 234.312 3.40866 -2.75213 0
M  V30 2501 C 235.813 4.27565 -1.1706 0
M  V30 2502 H 233.033 0.589425 -0.320654 0
M  V30 2503 H 235.577 1.40076 -1.48993 0
M  V30 2504 H 233.732 3.7887 -0.808458 0
M  V30 2505 H 234.146 4.33411 -2.9539 0
M  V30 2506 H 235.62 5.30007 -1.54263 0
M  V30 2507 H 236.097 4.3906 -0.110814 0
M  V30 2508 H 236.703 3.89501 -1.70789 0
M  V30 2509 N 235.018 0.912232 1.28515 0
M  V30 2510 C 235.948 0.416403 2.29757 0
M  V30 2511 C 236.929 -0.515194 1.6211 0
M  V30 2512 O 238.114 -0.423253 1.89532 0
M  V30 2513 C 235.244 -0.34572 3.45575 0
M  V30 2514 C 234.198 0.496599 4.25109 0
M  V30 2515 C 233.524 -0.393771 5.33248 0
M  V30 2516 C 234.824 1.75307 4.92001 0
M  V30 2517 H 236.518 1.26249 2.7148 0
M  V30 2518 H 234.064 0.608515 1.30511 0
M  V30 2519 H 236.017 -0.703422 4.15488 0
M  V30 2520 H 234.741 -1.2257 3.02728 0
M  V30 2521 H 233.4 0.8368 3.56922 0
M  V30 2522 H 233.048 -1.27225 4.86644 0
M  V30 2523 H 232.748 0.166209 5.87365 0
M  V30 2524 H 234.272 -0.747389 6.06009 0
M  V30 2525 H 235.686 1.46437 5.54283 0
M  V30 2526 H 234.083 2.25534 5.56106 0
M  V30 2527 H 235.153 2.48176 4.16577 0
M  V30 2528 N 236.496 -1.42363 0.676048 0
M  V30 2529 C 237.736 -2.03392 0.20273 0
M  V30 2530 C 238.1 -1.52306 -1.16906 0
M  V30 2531 O 239.301 -2.05129 -1.73711 0
M  V30 2532 C 237.572 -3.56614 0.236947 0
M  V30 2533 S 239.131 -4.38489 -0.165186 0
M  V30 2534 H 235.949 -0.70611 0.0832418 0
M  V30 2535 H 238.551 -1.74093 0.88948 0
M  V30 2536 H 237.255 -3.91293 1.23767 0
M  V30 2537 H 236.786 -3.90587 -0.469596 0
M  V30 2538 H 238.801 -4.76093 -1.39822 0
M  V30 2539 N 237.974 -0.419461 -1.51915 0
M  V30 2540 C 238.904 0.391813 -2.30189 0
M  V30 2541 C 239.885 1.03699 -1.34836 0
M  V30 2542 O 241.07 1.04403 -1.63748 0
M  V30 2543 C 238.2 1.50312 -3.13087 0
M  V30 2544 C 237.154 0.9824 -4.16573 0
M  V30 2545 C 236.48 2.18809 -4.8788 0
M  V30 2546 C 237.78 0.0292356 -5.22292 0
M  V30 2547 H 239.474 -0.26135 -2.98257 0
M  V30 2548 H 237.02 -0.127134 -1.43438 0
M  V30 2549 H 238.973 2.07773 -3.66617 0
M  V30 2550 H 237.697 2.18431 -2.42807 0
M  V30 2551 H 236.356 0.430119 -3.64068 0
M  V30 2552 H 236.004 2.85507 -4.14119 0
M  V30 2553 H 235.704 1.84615 -5.57845 0
M  V30 2554 H 237.228 2.76858 -5.44226 0
M  V30 2555 H 238.642 0.512976 -5.71 0
M  V30 2556 H 237.039 -0.2244 -5.9968 0
M  V30 2557 H 238.109 -0.912931 -4.76228 0
M  V30 2558 N 239.452 1.56882 -0.150215 0
M  V30 2559 C 240.382 2.19935 0.784284 0
M  V30 2560 C 241.363 1.14854 1.25469 0
M  V30 2561 O 242.548 1.43209 1.31168 0
M  V30 2562 C 239.678 2.82349 2.02229 0
M  V30 2563 C 238.632 3.93285 1.68853 0
M  V30 2564 C 237.958 4.42649 2.99944 0
M  V30 2565 C 239.258 5.13904 0.932714 0
M  V30 2566 H 240.952 2.9828 0.258781 0
M  V30 2567 H 238.498 1.43473 0.123029 0
M  V30 2568 H 240.451 3.25126 2.68088 0
M  V30 2569 H 239.175 2.0134 2.57157 0
M  V30 2570 H 237.834 3.5113 1.05371 0
M  V30 2571 H 237.482 3.58458 3.52869 0
M  V30 2572 H 237.182 5.17476 2.78374 0
M  V30 2573 H 238.706 4.88099 3.66868 0
M  V30 2574 H 240.12 5.53506 1.49345 0
M  V30 2575 H 238.517 5.94515 0.81684 0
M  V30 2576 H 239.587 4.84842 -0.0749568 0
M  V30 2577 N 240.93 -0.123565 1.57115 0
M  V30 2578 C 242.207 -0.862196 1.75572 0
M  V30 2579 C 242.587 -1.98279 0.724475 0
M  V30 2580 O 241.935 -2.27102 -0.252407 0
M  V30 2581 C 242.145 -1.38309 3.20424 0
M  V30 2582 C 243.493 -1.83724 3.82793 0
M  V30 2583 O 244.517 -1.47999 3.23998 0
M  V30 2584 O 243.376 -2.49685 4.86127 0
M  V30 2585 H 240.47 -0.409113 0.718718 0
M  V30 2586 H 243.016 -0.107661 1.69358 0
M  V30 2587 H 241.788 -0.578889 3.86994 0
M  V30 2588 H 241.411 -2.20046 3.31158 0
M  V30 2589 N 242.408 -1.52605 -0.393616 0
M  V30 2590 C 243.657 -1.66649 -1.13627 0
M  V30 2591 C 243.97 -0.410364 -1.91247 0
M  V30 2592 O 245.176 -0.430854 -2.68059 0
M  V30 2593 C 243.632 -2.9449 -2.06891 0
M  V30 2594 C 243.24 -4.27266 -1.34714 0
M  V30 2595 C 244.984 -3.17899 -2.81319 0
M  V30 2596 C 242.891 -5.46217 -2.26717 0
M  V30 2597 H 241.821 -0.62084 -0.427871 0
M  V30 2598 H 244.472 -1.791 -0.399428 0
M  V30 2599 H 242.854 -2.75774 -2.84191 0
M  V30 2600 H 244.028 -4.56518 -0.626714 0
M  V30 2601 H 242.343 -4.10081 -0.722643 0
M  V30 2602 H 244.94 -4.03949 -3.50328 0
M  V30 2603 H 245.283 -2.32777 -3.45139 0
M  V30 2604 H 245.816 -3.37159 -2.11113 0
M  V30 2605 H 242.555 -6.33733 -1.67521 0
M  V30 2606 H 242.075 -5.21283 -2.96689 0
M  V30 2607 H 243.754 -5.7991 -2.86903 0
M  V30 2608 N 243.887 0.651787 -1.4349 0
M  V30 2609 C 244.834 1.76462 -1.4876 0
M  V30 2610 C 245.804 1.62641 -0.337189 0
M  V30 2611 O 246.989 1.82864 -0.544544 0
M  V30 2612 C 244.129 3.14623 -1.41796 0
M  V30 2613 C 243.242 3.39568 -2.67053 0
M  V30 2614 C 242.377 4.67585 -2.52068 0
M  V30 2615 C 241.416 4.85639 -3.72587 0
M  V30 2616 N 240.553 6.04915 -3.56402 0
M  V30 2617 H 245.393 1.71293 -2.43849 0
M  V30 2618 H 242.93 0.835889 -1.21043 0
M  V30 2619 H 244.888 3.94496 -1.35753 0
M  V30 2620 H 243.518 3.18859 -0.50288 0
M  V30 2621 H 242.57 2.53783 -2.8337 0
M  V30 2622 H 243.882 3.48795 -3.56572 0
M  V30 2623 H 243.036 5.55586 -2.4374 0
M  V30 2624 H 241.775 4.60681 -1.60075 0
M  V30 2625 H 240.78 3.96073 -3.81321 0
M  V30 2626 H 242.005 4.94372 -4.65589 0
M  V30 2627 H 239.951 5.9914 -2.67146 0
M  V30 2628 H 239.868 6.15106 -4.39524 0
M  V30 2629 H 241.136 6.95533 -3.51929 0
M  V30 2630 N 245.365 1.30045 0.890287 0
M  V30 2631 C 246.611 1.18737 1.64406 0
M  V30 2632 C 246.944 -0.258525 1.92472 0
M  V30 2633 O 246.219 -1.18562 1.54186 0
M  V30 2634 C 246.502 2.01087 2.98724 0
M  V30 2635 C 246.355 3.53867 2.77665 0
M  V30 2636 C 247.674 1.84457 3.9958 0
M  V30 2637 H 244.793 0.432698 0.596608 0
M  V30 2638 H 247.435 1.5962 1.0306 0
M  V30 2639 H 245.585 1.66349 3.51084 0
M  V30 2640 H 247.257 3.98637 2.32133 0
M  V30 2641 H 245.5 3.78318 2.12269 0
M  V30 2642 H 246.171 4.06772 3.7315 0
M  V30 2643 H 248.647 2.14817 3.56361 0
M  V30 2644 H 247.523 2.44411 4.91482 0
M  V30 2645 H 247.784 0.802276 4.3476 0
M  V30 2646 N 246.843 -1.10192 1.12674 0
M  V30 2647 C 247.79 -2.16606 0.796906 0
M  V30 2648 C 248.76 -1.64394 -0.237476 0
M  V30 2649 O 249.945 -1.90474 -0.111484 0
M  V30 2650 C 247.085 -3.44116 0.26043 0
M  V30 2651 C 246.198 -4.10268 1.35293 0
M  V30 2652 C 245.333 -5.25507 0.775621 0
M  V30 2653 C 244.372 -5.83567 1.84706 0
M  V30 2654 N 243.509 -6.90179 1.28829 0
M  V30 2655 H 248.349 -2.44163 1.70846 0
M  V30 2656 H 245.886 -1.19846 0.85295 0
M  V30 2657 H 247.844 -4.17143 -0.0686814 0
M  V30 2658 H 246.474 -3.16901 -0.614274 0
M  V30 2659 H 245.526 -3.35184 1.79877 0
M  V30 2660 H 246.838 -4.4946 2.16303 0
M  V30 2661 H 245.992 -6.05398 0.397327 0
M  V30 2662 H 244.731 -4.87656 -0.0656581 0
M  V30 2663 H 243.736 -5.02344 2.23452 0
M  V30 2664 H 244.961 -6.23482 2.69161 0
M  V30 2665 H 242.907 -6.54322 0.468881 0
M  V30 2666 H 242.824 -7.28097 2.03497 0
M  V30 2667 H 244.092 -7.73844 0.937311 0
M  V30 2668 N 248.321 -0.919034 -1.28029 0
M  V30 2669 C 249.231 -0.416756 -2.30869 0
M  V30 2670 C 250.247 0.498235 -1.66714 0
M  V30 2671 O 251.423 0.383144 -1.97722 0
M  V30 2672 C 248.488 0.330274 -3.45123 0
M  V30 2673 C 247.549 -0.618578 -4.2482 0
M  V30 2674 C 246.782 0.0928959 -5.33619 0
M  V30 2675 O 247.005 1.31375 -5.55065 0
M  V30 2676 O 245.939 -0.574499 -5.99152 0
M  V30 2677 H 249.765 -1.27043 -2.75851 0
M  V30 2678 H 247.35 -0.684052 -1.3282 0
M  V30 2679 H 249.232 0.751972 -4.14636 0
M  V30 2680 H 247.907 1.1597 -3.02213 0
M  V30 2681 H 246.814 -1.08978 -3.57875 0
M  V30 2682 H 248.147 -1.41497 -4.71423 0
M  V30 2683 N 249.799 1.42003 -0.683588 0
M  V30 2684 C 250.731 2.29183 0.0283068 0
M  V30 2685 C 251.744 1.4415 0.756611 0
M  V30 2686 O 252.933 1.67779 0.609306 0
M  V30 2687 C 250.033 3.21765 1.06398 0
M  V30 2688 C 249.206 4.35496 0.407723 0
M  V30 2689 C 248.265 5.08737 1.34437 0
M  V30 2690 O 247.291 5.62948 0.841318 0
M  V30 2691 N 248.493 5.15075 2.67728 0
M  V30 2692 H 251.258 2.9092 -0.720105 0
M  V30 2693 H 248.819 1.53025 -0.528682 0
M  V30 2694 H 250.811 3.6763 1.69204 0
M  V30 2695 H 249.381 2.61418 1.71404 0
M  V30 2696 H 248.601 3.92165 -0.400012 0
M  V30 2697 H 249.889 5.08776 -0.0490956 0
M  V30 2698 H 249.287 4.72457 3.11129 0
M  V30 2699 H 247.844 5.64556 3.2576 0
M  V30 2700 N 251.277 0.427512 1.51691 0
M  V30 2701 C 252.502 -0.143601 2.06902 0
M  V30 2702 C 252.927 -1.36536 1.29382 0
M  V30 2703 O 252.285 -1.78289 0.329043 0
M  V30 2704 C 252.333 -0.454207 3.57728 0
M  V30 2705 O 251.437 -1.54228 3.82475 0
M  V30 2706 H 250.778 -0.00617128 0.663971 0
M  V30 2707 H 253.308 0.606014 1.95419 0
M  V30 2708 H 253.318 -0.707525 4.01818 0
M  V30 2709 H 251.993 0.438812 4.13579 0
M  V30 2710 H 250.57 -1.2797 3.50254 0
M  V30 2711 N 252.755 -1.56801 0.158532 0
M  V30 2712 C 253.685 -2.20347 -0.772609 0
M  V30 2713 C 254.666 -1.15518 -1.24859 0
M  V30 2714 O 255.851 -1.43902 -1.30406 0
M  V30 2715 C 252.981 -2.83417 -2.00729 0
M  V30 2716 C 251.935 -3.94174 -1.66765 0
M  V30 2717 C 251.261 -4.44233 -2.97592 0
M  V30 2718 C 252.561 -5.14392 -0.905447 0
M  V30 2719 H 254.255 -2.98413 -0.242959 0
M  V30 2720 H 251.801 -1.43537 -0.115419 0
M  V30 2721 H 253.754 -3.26543 -2.6636 0
M  V30 2722 H 252.478 -2.02701 -2.56086 0
M  V30 2723 H 251.137 -3.51684 -1.03508 0
M  V30 2724 H 250.785 -3.60325 -3.50963 0
M  V30 2725 H 250.485 -5.18945 -2.75626 0
M  V30 2726 H 252.009 -4.90037 -3.64274 0
M  V30 2727 H 253.423 -5.5429 -1.46408 0
M  V30 2728 H 251.82 -5.9494 -0.7853 0
M  V30 2729 H 252.89 -4.84795 0.100668 0
M  V30 2730 N 254.233 0.115231 -1.57178 0
M  V30 2731 C 255.143 1.15994 -2.03918 0
M  V30 2732 C 256.159 1.45103 -0.960268 0
M  V30 2733 O 257.335 1.56144 -1.27204 0
M  V30 2734 C 254.4 2.46568 -2.43732 0
M  V30 2735 C 253.461 2.24822 -3.65723 0
M  V30 2736 C 252.694 3.4917 -4.03629 0
M  V30 2737 O 252.917 4.56623 -3.41835 0
M  V30 2738 O 251.851 3.39949 -4.96708 0
M  V30 2739 H 255.677 0.793019 -2.93164 0
M  V30 2740 H 253.262 0.3263 -1.45793 0
M  V30 2741 H 255.144 3.23492 -2.70057 0
M  V30 2742 H 253.819 2.82726 -1.57631 0
M  V30 2743 H 252.726 1.45744 -3.44542 0
M  V30 2744 H 254.059 1.93566 -4.52541 0
M  V30 2745 N 255.711 1.52812 0.385517 0
M  V30 2746 C 256.659 1.78482 1.49155 0
M  V30 2747 C 257.653 0.652914 1.56312 0
M  V30 2748 O 258.859 0.835464 1.59436 0
M  V30 2749 H 255.234 0.5648 0.496493 0
M  V30 2750 H 257.205 2.71095 1.24699 0
M  V30 2751 C 255.954 1.97378 2.86247 0
M  V30 2752 H 255.277 2.83907 2.81491 0
M  V30 2753 H 256.717 2.19327 3.62866 0
M  V30 2754 C 255.176 0.74728 3.28508 0
M  V30 2755 O 255.706 -0.0736232 4.01633 0
M  V30 2756 N 253.912 0.576396 2.84826 0
M  V30 2757 H 253.459 1.24555 2.25486 0
M  V30 2758 H 253.417 -0.24288 3.1346 0
M  V30 2759 N 257.189 -0.644168 1.43834 0
M  V30 2760 C 258.119 -1.76814 1.52509 0
M  V30 2761 C 259.1 -1.65823 0.379052 0
M  V30 2762 O 260.285 -1.84781 0.597466 0
M  V30 2763 C 257.415 -3.15288 1.4564 0
M  V30 2764 C 256.369 -3.41053 2.58586 0
M  V30 2765 C 255.695 -4.79421 2.36769 0
M  V30 2766 C 256.995 -3.34902 4.00797 0
M  V30 2767 H 258.689 -1.69812 2.46586 0
M  V30 2768 H 256.235 -0.815542 1.1868 0
M  V30 2769 H 258.188 -3.93681 1.50311 0
M  V30 2770 H 256.912 -3.23043 0.480725 0
M  V30 2771 H 255.571 -2.65035 2.53282 0
M  V30 2772 H 255.219 -4.83863 1.37424 0
M  V30 2773 H 254.919 -4.9762 3.12487 0
M  V30 2774 H 256.443 -5.6006 2.43238 0
M  V30 2775 H 257.857 -4.03218 4.07539 0
M  V30 2776 H 256.254 -3.64637 4.76613 0
M  V30 2777 H 257.324 -2.32928 4.25291 0
M  V30 2778 N 258.668 -1.30515 -0.883378 0
M  V30 2779 C 259.917 -1.18795 -1.63005 0
M  V30 2780 C 260.23 0.255923 -1.93919 0
M  V30 2781 O 261.436 0.494654 -2.66956 0
M  V30 2782 C 259.892 -2.07878 -2.93794 0
M  V30 2783 C 259.5 -3.57184 -2.70414 0
M  V30 2784 C 261.244 -2.04924 -3.71761 0
M  V30 2785 C 259.151 -4.38317 -3.97029 0
M  V30 2786 H 258.081 -0.441031 -0.611562 0
M  V30 2787 H 260.732 -1.55275 -0.977854 0
M  V30 2788 H 259.114 -1.64283 -3.60315 0
M  V30 2789 H 260.288 -4.08937 -2.12384 0
M  V30 2790 H 258.603 -3.61976 -2.0582 0
M  V30 2791 H 261.2 -2.62792 -4.65665 0
M  V30 2792 H 261.543 -1.0331 -4.03277 0
M  V30 2793 H 262.076 -2.46649 -3.12104 0
M  V30 2794 H 258.815 -5.40632 -3.70671 0
M  V30 2795 H 258.335 -3.91326 -4.54559 0
M  V30 2796 H 260.014 -4.49834 -4.65036 0
M  V30 2797 N 260.146 1.09593 -1.13257 0
M  V30 2798 C 261.093 2.1618 -0.808381 0
M  V30 2799 C 262.063 1.64517 0.228754 0
M  V30 2800 O 263.248 1.9053 0.101381 0
M  V30 2801 C 260.388 3.43973 -0.278675 0
M  V30 2802 C 259.501 4.09545 -1.37466 0
M  V30 2803 C 258.636 5.25088 -0.803479 0
M  V30 2804 C 257.675 5.82579 -1.87799 0
M  V30 2805 N 256.812 6.89486 -1.32488 0
M  V30 2806 H 261.652 2.43254 -1.72138 0
M  V30 2807 H 259.189 1.19392 -0.859294 0
M  V30 2808 H 261.147 4.17174 0.0465583 0
M  V30 2809 H 259.777 3.17223 0.597459 0
M  V30 2810 H 258.829 3.34226 -1.81652 0
M  V30 2811 H 260.141 4.48307 -2.18684 0
M  V30 2812 H 259.295 6.05178 -0.429427 0
M  V30 2813 H 258.034 4.87684 0.0397956 0
M  V30 2814 H 257.039 5.01152 -2.26113 0
M  V30 2815 H 258.264 6.22045 -2.72463 0
M  V30 2816 H 256.21 6.54064 -0.503575 0
M  V30 2817 H 256.127 7.27007 -2.07355 0
M  V30 2818 H 257.395 7.73336 -0.978336 0
M  V30 2819 N 261.624 0.925811 1.2754 0
M  V30 2820 C 262.872 0.564138 1.94067 0
M  V30 2821 C 263.193 -0.897188 1.73134 0
M  V30 2822 O 262.463 -1.63573 1.07799 0
M  V30 2823 H 261.043 0.205645 0.718136 0
M  V30 2824 H 263.705 1.1778 1.55287 0
M  V30 2825 H 262.801 0.76881 3.02483 0
M  V30 2826 N 263.102 -1.41638 0.69111 0
M  V30 2827 C 264.518 -1.55435 0.362224 0
M  V30 2828 C 264.718 -1.66754 -1.13117 0
M  V30 2829 O 263.774 -1.64348 -1.91692 0
M  V30 2830 C 265.087 -2.79588 1.10684 0
M  V30 2831 C 266.635 -2.9338 1.09075 0
M  V30 2832 C 267.11 -4.20414 1.81703 0
M  V30 2833 N 268.601 -4.27362 1.7865 0
M  V30 2834 C 269.336 -5.24507 2.31689 0
M  V30 2835 N 268.832 -6.27708 2.93179 0
M  V30 2836 N 270.625 -5.16416 2.2197 0
M  V30 2837 H 262.776 -1.32536 1.65976 0
M  V30 2838 H 265.039 -0.639115 0.700168 0
M  V30 2839 H 264.745 -2.77419 2.16175 0
M  V30 2840 H 264.619 -3.70973 0.682545 0
M  V30 2841 H 267.006 -2.95067 0.0441238 0
M  V30 2842 H 267.087 -2.0318 1.55407 0
M  V30 2843 H 266.731 -4.19488 2.86343 0
M  V30 2844 H 266.661 -5.09578 1.32808 0
M  V30 2845 H 269.152 -3.53415 1.33815 0
M  V30 2846 H 269.465 -6.98217 3.31229 0
M  V30 2847 H 267.81 -6.28223 2.97255 0
M  V30 2848 H 271.001 -4.34716 1.73607 0
M  V30 2849 H 271.174 -5.91958 2.63609 0
M  V30 2850 N 264.58 -0.43555 -1.51462 0
M  V30 2851 C 265.527 0.376797 -2.27703 0
M  V30 2852 C 266.497 1.01838 -1.31219 0
M  V30 2853 O 267.682 1.03762 -1.60119 0
M  V30 2854 C 264.822 1.47301 -3.12084 0
M  V30 2855 C 263.935 0.849744 -4.2356 0
M  V30 2856 C 263.07 1.92086 -4.95254 0
M  V30 2857 C 262.109 1.27593 -5.98654 0
M  V30 2858 N 261.246 2.28833 -6.63762 0
M  V30 2859 H 266.086 -0.279734 -2.96684 0
M  V30 2860 H 263.623 -0.149795 -1.46335 0
M  V30 2861 H 265.581 2.11984 -3.59331 0
M  V30 2862 H 264.211 2.0992 -2.45221 0
M  V30 2863 H 263.263 0.0912529 -3.80291 0
M  V30 2864 H 264.575 0.338878 -4.97648 0
M  V30 2865 H 263.729 2.64435 -5.46039 0
M  V30 2866 H 262.468 2.46545 -4.20793 0
M  V30 2867 H 261.473 0.537893 -5.47162 0
M  V30 2868 H 262.698 0.738693 -6.7507 0
M  V30 2869 H 260.644 2.82375 -5.92115 0
M  V30 2870 H 260.561 1.82632 -7.33608 0
M  V30 2871 H 261.829 3.00671 -7.19178 0
M  V30 2872 N 266.058 1.56714 -0.166846 0
M  V30 2873 C 267.307 1.95922 0.479318 0
M  V30 2874 C 267.62 1.05529 1.6469 0
M  V30 2875 O 268.826 1.34399 2.35901 0
M  V30 2876 C 267.282 3.48359 0.90412 0
M  V30 2877 C 266.89 4.47369 -0.237621 0
M  V30 2878 C 268.634 3.96394 1.51896 0
M  V30 2879 C 266.541 5.91039 0.206561 0
M  V30 2880 H 265.471 0.731495 0.18284 0
M  V30 2881 H 268.122 1.81728 -0.254363 0
M  V30 2882 H 266.504 3.57955 1.69365 0
M  V30 2883 H 267.678 4.49485 -1.01489 0
M  V30 2884 H 265.993 4.09366 -0.762128 0
M  V30 2885 H 268.59 5.01186 1.86325 0
M  V30 2886 H 268.933 3.39075 2.41524 0
M  V30 2887 H 269.466 3.89796 0.79395 0
M  V30 2888 H 266.205 6.52221 -0.654834 0
M  V30 2889 H 265.725 5.9224 0.949282 0
M  V30 2890 H 267.404 6.43707 0.651939 0
M  V30 2891 N 267.536 -0.106894 1.57237 0
M  V30 2892 C 268.766 -0.825191 1.89405 0
M  V30 2893 C 269.174 -1.73374 0.757496 0
M  V30 2894 O 268.517 -1.81552 -0.280115 0
M  V30 2895 C 268.579 -1.70102 3.1671 0
M  V30 2896 C 268.243 -0.965523 4.46684 0
M  V30 2897 C 269.24 -0.300741 5.19029 0
M  V30 2898 C 266.925 -0.943105 4.93367 0
M  V30 2899 C 268.919 0.376622 6.36286 0
M  V30 2900 C 266.606 -0.261949 6.10538 0
M  V30 2901 C 267.604 0.396748 6.81847 0
M  V30 2902 O 267.292 1.06701 7.96787 0
M  V30 2903 H 267.024 -0.241852 0.631255 0
M  V30 2904 H 269.578 -0.0921491 2.05193 0
M  V30 2905 H 267.808 -2.47601 2.97036 0
M  V30 2906 H 269.497 -2.29483 3.34802 0
M  V30 2907 H 270.263 -0.309599 4.84011 0
M  V30 2908 H 266.142 -1.44524 4.3776 0
M  V30 2909 H 269.686 0.891334 6.91882 0
M  V30 2910 H 265.583 -0.250896 6.45012 0
M  V30 2911 H 266.351 0.972707 8.127 0
M  V30 2912 N 269.014 -1.53014 -0.377408 0
M  V30 2913 C 269.924 -1.81557 -1.48574 0
M  V30 2914 C 270.94 -0.703102 -1.59162 0
M  V30 2915 O 272.116 -0.99192 -1.75279 0
M  V30 2916 C 269.181 -1.9889 -2.83978 0
M  V30 2917 C 268.242 -3.22801 -2.83016 0
M  V30 2918 C 267.475 -3.39298 -4.11962 0
M  V30 2919 O 267.698 -2.60345 -5.0752 0
M  V30 2920 O 266.632 -4.32604 -4.18494 0
M  V30 2921 H 270.458 -2.75695 -1.27382 0
M  V30 2922 H 268.043 -1.38248 -0.566373 0
M  V30 2923 H 269.925 -2.11931 -3.6423 0
M  V30 2924 H 268.6 -1.07942 -3.05172 0
M  V30 2925 H 267.507 -3.15193 -2.01505 0
M  V30 2926 H 268.84 -4.13632 -2.66775 0
M  V30 2927 N 270.492 0.636531 -1.44174 0
M  V30 2928 C 271.903 1.21806 -1.41493 0
M  V30 2929 C 272.254 1.95785 -0.1275 0
M  V30 2930 O 271.379 2.02147 0.772376 0
M  V30 2931 C 271.974 2.21551 -2.56321 0
M  V30 2932 C 270.533 2.75143 -2.56853 0
M  V30 2933 C 269.68 1.50052 -2.33195 0
M  V30 2934 H 272.631 0.427531 -1.52833 0
M  V30 2935 H 272.652 3.0405 -2.28765 0
M  V30 2936 H 272.164 1.67679 -3.50008 0
M  V30 2937 H 270.265 3.33033 -1.67093 0
M  V30 2938 H 270.378 3.2155 -3.55165 0
M  V30 2939 H 268.742 1.77993 -1.82183 0
M  V30 2940 H 269.525 0.980903 -3.28988 0
M  V30 2941 N 271.97 1.30982 0.876444 0
M  V30 2942 C 273.381 1.18277 1.44456 0
M  V30 2943 C 273.732 -0.213265 1.95037 0
M  V30 2944 O 272.857 -1.11057 1.85729 0
M  V30 2945 C 273.452 2.1411 2.62569 0
M  V30 2946 C 272.011 2.05358 3.15444 0
M  V30 2947 C 271.158 2.03706 1.88146 0
M  V30 2948 H 274.109 1.43127 0.685584 0
M  V30 2949 H 274.13 1.72692 3.39054 0
M  V30 2950 H 273.642 3.15706 2.25724 0
M  V30 2951 H 271.743 1.06934 3.56926 0
M  V30 2952 H 271.856 2.94156 3.78166 0
M  V30 2953 H 270.22 1.48629 2.06837 0
M  V30 2954 H 271.003 3.07047 1.53547 0
M  V30 2955 N 273.449 -1.08991 1.13837 0
M  V30 2956 C 274.865 -1.33312 0.877506 0
M  V30 2957 C 275.065 -1.95587 -0.48456 0
M  V30 2958 O 274.121 -2.20509 -1.23013 0
M  V30 2959 C 275.434 -2.24045 2.0056 0
M  V30 2960 C 276.982 -2.37542 2.03821 0
M  V30 2961 C 277.457 -3.31614 3.15905 0
M  V30 2962 N 278.948 -3.39189 3.15445 0
M  V30 2963 C 279.683 -4.11992 3.98811 0
M  V30 2964 N 279.179 -4.87553 4.92203 0
M  V30 2965 N 280.972 -4.07762 3.86894 0
M  V30 2966 H 273.123 -0.669456 2.01574 0
M  V30 2967 H 275.386 -0.357482 0.878015 0
M  V30 2968 H 275.092 -1.85521 2.98789 0
M  V30 2969 H 274.966 -3.24466 1.92359 0
M  V30 2970 H 277.353 -2.75327 1.06202 0
M  V30 2971 H 277.434 -1.36884 2.16093 0
M  V30 2972 H 277.078 -2.94551 4.13766 0
M  V30 2973 H 277.008 -4.32186 3.0087 0
M  V30 2974 H 279.499 -2.85314 2.47799 0
M  V30 2975 H 279.812 -5.40549 5.52292 0
M  V30 2976 H 278.157 -4.86627 4.96205 0
M  V30 2977 H 281.348 -3.47833 3.13257 0
M  V30 2978 H 281.521 -4.64238 4.52092 0
M  V30 2979 N 274.927 -0.932562 -1.27047 0
M  V30 2980 C 276.157 -0.591173 -1.97961 0
M  V30 2981 C 276.565 0.836219 -1.69717 0
M  V30 2982 O 275.908 1.56801 -0.957036 0
M  V30 2983 C 275.97 -0.743082 -3.51736 0
M  V30 2984 C 275.634 -2.1435 -4.03613 0
M  V30 2985 C 276.631 -3.11815 -4.16014 0
M  V30 2986 C 274.316 -2.46175 -4.37839 0
M  V30 2987 C 276.31 -4.39211 -4.61923 0
M  V30 2988 C 273.997 -3.73806 -4.83438 0
M  V30 2989 C 274.995 -4.70137 -4.95439 0
M  V30 2990 O 274.683 -5.95496 -5.40037 0
M  V30 2991 H 274.415 -0.222375 -0.638377 0
M  V30 2992 H 276.969 -1.25317 -1.62742 0
M  V30 2993 H 275.199 -0.0239739 -3.86693 0
M  V30 2994 H 276.888 -0.40603 -4.03864 0
M  V30 2995 H 277.654 -2.88549 -3.89826 0
M  V30 2996 H 273.533 -1.71936 -4.27737 0
M  V30 2997 H 277.077 -5.14404 -4.71205 0
M  V30 2998 H 272.974 -3.96888 -5.09068 0
M  V30 2999 H 273.742 -5.98554 -5.58279 0
M  V30 3000 N 276.405 1.4127 -0.698611 0
M  V30 3001 C 277.338 2.28195 0.0153898 0
M  V30 3002 C 278.316 1.42402 0.784883 0
M  V30 3003 O 279.5 1.71828 0.775067 0
M  V30 3004 C 276.627 3.22685 1.02918 0
M  V30 3005 C 275.673 4.25041 0.352501 0
M  V30 3006 S 276.506 5.27757 -0.907322 0
M  V30 3007 C 277.662 6.25812 0.104796 0
M  V30 3008 H 277.895 2.88403 -0.721858 0
M  V30 3009 H 275.428 1.46452 -0.488996 0
M  V30 3010 H 277.386 3.77655 1.60893 0
M  V30 3011 H 276.047 2.61566 1.73902 0
M  V30 3012 H 275.24 4.91437 1.11828 0
M  V30 3013 H 274.842 3.73682 -0.154254 0
M  V30 3014 H 277.134 6.70705 0.957103 0
M  V30 3015 H 278.077 7.06149 -0.525323 0
M  V30 3016 H 278.485 5.62615 0.460931 0
M  V30 3017 N 277.883 0.443576 1.51229 0
M  V30 3018 C 279.108 -0.121648 2.07043 0
M  V30 3019 C 279.533 -1.35156 1.30823 0
M  V30 3020 O 278.891 -1.7793 0.347934 0
M  V30 3021 C 278.939 -0.41624 3.5819 0
M  V30 3022 O 278.043 -1.50163 3.8409 0
M  V30 3023 H 277.384 0.000871367 0.663999 0
M  V30 3024 H 279.914 0.626706 1.94765 0
M  V30 3025 H 279.924 -0.664867 4.02546 0
M  V30 3026 H 278.599 0.482653 4.1309 0
M  V30 3027 H 277.176 -1.24248 3.51592 0
M  V30 3028 N 279.361 -1.56624 0.175154 0
M  V30 3029 C 280.607 -1.9729 -0.469506 0
M  V30 3030 C 280.94 -1.06128 -1.62636 0
M  V30 3031 O 280.215 -0.109183 -1.94193 0
M  V30 3032 C 280.498 -3.47375 -0.948804 0
M  V30 3033 C 280.351 -4.49317 0.208491 0
M  V30 3034 C 281.67 -4.00652 -1.82116 0
M  V30 3035 H 278.789 -0.717317 -0.16919 0
M  V30 3036 H 281.431 -1.88184 0.262062 0
M  V30 3037 H 279.581 -3.55267 -1.57219 0
M  V30 3038 H 281.253 -4.53482 0.845682 0
M  V30 3039 H 279.496 -4.25121 0.863395 0
M  V30 3040 H 280.167 -5.51741 -0.169059 0
M  V30 3041 H 282.643 -3.95416 -1.2956 0
M  V30 3042 H 281.519 -5.06075 -2.12554 0
M  V30 3043 H 281.78 -3.44699 -2.7683 0
M  V30 3044 N 280.839 0.0985539 -1.57292 0
M  V30 3045 C 281.787 1.1387 -2.02821 0
M  V30 3046 C 282.781 1.41676 -0.928666 0
M  V30 3047 O 283.987 1.41398 -1.11385 0
M  V30 3048 H 280.362 0.384419 -0.646317 0
M  V30 3049 H 282.333 0.728347 -2.89375 0
M  V30 3050 C 281.082 2.45166 -2.46554 0
M  V30 3051 H 280.405 2.24613 -3.3074 0
M  V30 3052 H 281.845 3.16456 -2.8219 0
M  V30 3053 C 280.304 3.09216 -1.33742 0
M  V30 3054 O 280.834 3.96163 -0.66464 0
M  V30 3055 N 279.04 2.69413 -1.08928 0
M  V30 3056 H 278.587 1.98801 -1.63817 0
M  V30 3057 H 278.545 3.12594 -0.336458 0
M  V30 3058 N 282.317 1.53212 0.369288 0
M  V30 3059 C 283.249 1.75668 1.47219 0
M  V30 3060 C 284.262 0.637387 1.49804 0
M  V30 3061 O 285.451 0.913561 1.5335 0
M  V30 3062 C 282.551 1.81818 2.85999 0
M  V30 3063 C 281.724 3.11409 3.07153 0
M  V30 3064 C 280.783 3.08849 4.26026 0
M  V30 3065 O 279.809 3.82659 4.2138 0
M  V30 3066 N 281.011 2.29409 5.33246 0
M  V30 3067 H 283.776 2.70832 1.28337 0
M  V30 3068 H 281.337 1.51944 0.55898 0
M  V30 3069 H 283.329 1.77588 3.63655 0
M  V30 3070 H 281.899 0.939544 2.98146 0
M  V30 3071 H 281.119 3.28971 2.1719 0
M  V30 3072 H 282.407 3.97059 3.18154 0
M  V30 3073 H 281.805 1.68946 5.39883 0
M  V30 3074 H 280.362 2.31001 6.09493 0
M  V30 3075 N 283.795 -0.628877 1.44509 0
M  V30 3076 C 284.758 -1.72263 1.51188 0
M  V30 3077 C 285.758 -1.55907 0.39367 0
M  V30 3078 O 286.948 -1.61361 0.656377 0
M  V30 3079 C 284.08 -3.11365 1.38798 0
M  V30 3080 H 285.273 -1.67714 2.4862 0
M  V30 3081 H 282.826 -0.842737 1.31634 0
M  V30 3082 H 283.561 -3.21507 0.424693 0
M  V30 3083 H 283.346 -3.24644 2.19884 0
M  V30 3084 H 284.836 -3.91075 1.46458 0
M  V30 3085 N 285.273 -1.31445 -0.869486 0
M  V30 3086 C 286.236 -1.19094 -1.9583 0
M  V30 3087 C 287.236 -0.117906 -1.60367 0
M  V30 3088 O 288.426 -0.367208 -1.70286 0
M  V30 3089 C 285.558 -0.828165 -3.30688 0
M  V30 3090 H 286.751 -2.15842 -2.08212 0
M  V30 3091 H 284.304 -1.15063 -1.05784 0
M  V30 3092 H 285.039 0.138142 -3.24006 0
M  V30 3093 H 284.824 -1.6038 -3.578 0
M  V30 3094 H 286.314 -0.765658 -4.10521 0
M  V30 3095 N 286.751 1.08385 -1.14413 0
M  V30 3096 C 287.683 2.1519 -0.789036 0
M  V30 3097 C 288.696 1.61638 0.19417 0
M  V30 3098 O 289.885 1.78479 -0.0275711 0
M  V30 3099 C 286.985 3.38565 -0.15058 0
M  V30 3100 C 286.158 4.21501 -1.16857 0
M  V30 3101 C 285.217 5.23277 -0.553832 0
M  V30 3102 O 284.243 5.56041 -1.21686 0
M  V30 3103 N 285.445 5.76629 0.669296 0
M  V30 3104 H 288.21 2.46257 -1.70814 0
M  V30 3105 H 285.771 1.24198 -1.03858 0
M  V30 3106 H 287.763 4.03777 0.273181 0
M  V30 3107 H 286.333 3.05299 0.671667 0
M  V30 3108 H 285.553 3.52265 -1.76926 0
M  V30 3109 H 286.841 4.73731 -1.85624 0
M  V30 3110 H 286.239 5.52243 1.22654 0
M  V30 3111 H 284.796 6.43521 1.03556 0
M  V30 3112 N 288.23 0.939286 1.26551 0
M  V30 3113 C 289.162 0.404704 2.25599 0
M  V30 3114 C 290.175 -0.470983 1.55838 0
M  V30 3115 O 291.364 -0.281734 1.76263 0
M  V30 3116 C 288.464 -0.43764 3.36062 0
M  V30 3117 C 287.637 0.421449 4.35365 0
M  V30 3118 C 286.696 -0.36015 5.24966 0
M  V30 3119 O 285.722 0.236167 5.6871 0
M  V30 3120 N 286.924 -1.65715 5.56344 0
M  V30 3121 H 289.689 1.25618 2.72103 0
M  V30 3122 H 287.25 0.807963 1.40298 0
M  V30 3123 H 289.242 -0.967866 3.92956 0
M  V30 3124 H 287.812 -1.18991 2.89067 0
M  V30 3125 H 287.032 1.1329 3.7757 0
M  V30 3126 H 288.32 1.00835 4.98708 0
M  V30 3127 H 287.718 -2.16378 5.22682 0
M  V30 3128 H 286.275 -2.13366 6.15888 0
M  V30 3129 N 289.708 -1.40897 0.706093 0
M  V30 3130 C 290.638 -2.33418 0.0620085 0
M  V30 3131 C 291.619 -1.52385 -0.755827 0
M  V30 3132 O 292.804 -1.80886 -0.706674 0
M  V30 3133 C 289.934 -3.36293 -0.867445 0
M  V30 3134 C 288.888 -4.27716 -0.155932 0
M  V30 3135 C 288.214 -5.2105 -1.20046 0
M  V30 3136 C 289.514 -5.12944 0.984149 0
M  V30 3137 H 291.208 -2.87527 0.83477 0
M  V30 3138 H 288.754 -1.38249 0.402875 0
M  V30 3139 H 290.707 -3.99949 -1.32735 0
M  V30 3140 H 289.431 -2.80556 -1.67199 0
M  V30 3141 H 288.09 -3.65498 0.284047 0
M  V30 3142 H 287.738 -4.61624 -1.99781 0
M  V30 3143 H 287.438 -5.83056 -0.729328 0
M  V30 3144 H 288.962 -5.87584 -1.66066 0
M  V30 3145 H 290.376 -5.70109 0.604048 0
M  V30 3146 H 288.773 -5.83945 1.38304 0
M  V30 3147 H 289.843 -4.49485 1.81911 0
M  V30 3148 N 291.186 -0.45159 -1.50991 0
M  V30 3149 C 292.116 0.342898 -2.30969 0
M  V30 3150 C 293.097 1.00815 -1.37005 0
M  V30 3151 O 294.282 1.00907 -1.65926 0
M  V30 3152 C 291.412 1.43637 -3.16205 0
M  V30 3153 C 290.366 0.893818 -4.18563 0
M  V30 3154 C 289.692 2.08411 -4.92411 0
M  V30 3155 C 290.992 -0.0815568 -5.22236 0
M  V30 3156 H 292.686 -0.324556 -2.97636 0
M  V30 3157 H 290.232 -0.157531 -1.43136 0
M  V30 3158 H 292.185 1.9995 -3.70942 0
M  V30 3159 H 290.909 2.13232 -2.47386 0
M  V30 3160 H 289.568 0.352798 -3.64898 0
M  V30 3161 H 289.216 2.76658 -4.20082 0
M  V30 3162 H 288.916 1.72741 -5.61636 0
M  V30 3163 H 290.44 2.65251 -5.49976 0
M  V30 3164 H 291.854 0.391742 -5.7196 0
M  V30 3165 H 290.251 -0.351551 -5.99069 0
M  V30 3166 H 291.321 -1.01374 -4.74185 0
M  V30 3167 N 292.664 1.56529 -0.183458 0
M  V30 3168 C 293.574 2.22144 0.754272 0
M  V30 3169 C 294.59 1.21684 1.24374 0
M  V30 3170 O 295.766 1.54385 1.29333 0
M  V30 3171 C 292.831 2.85884 1.96141 0
M  V30 3172 C 291.892 4.01579 1.51765 0
M  V30 3173 C 291.125 4.6227 2.66725 0
M  V30 3174 O 291.348 4.21865 3.83909 0
M  V30 3175 O 290.282 5.51936 2.40104 0
M  V30 3176 H 294.108 3.02861 0.225527 0
M  V30 3177 H 291.693 1.49331 0.0453032 0
M  V30 3178 H 293.575 3.26253 2.66715 0
M  V30 3179 H 292.25 2.08154 2.47899 0
M  V30 3180 H 291.157 3.65856 0.781049 0
M  V30 3181 H 292.49 4.80938 1.04686 0
M  V30 3182 N 294.142 -0.090211 1.57342 0
M  V30 3183 C 295.391 -0.791531 1.8552 0
M  V30 3184 C 295.704 -1.79659 0.773441 0
M  V30 3185 O 296.91 -2.54616 0.942497 0
M  V30 3186 C 295.366 -1.45856 3.2902 0
M  V30 3187 C 294.974 -0.493017 4.45279 0
M  V30 3188 C 296.718 -2.14332 3.66418 0
M  V30 3189 C 294.625 -1.16491 5.79814 0
M  V30 3190 H 293.555 -0.299356 0.692027 0
M  V30 3191 H 296.206 -0.0445343 1.83446 0
M  V30 3192 H 294.588 -2.25318 3.2565 0
M  V30 3193 H 295.762 0.270464 4.60006 0
M  V30 3194 H 294.077 0.0863061 4.16311 0
M  V30 3195 H 296.674 -2.65344 4.64216 0
M  V30 3196 H 297.017 -2.93447 2.95287 0
M  V30 3197 H 297.55 -1.41724 3.71698 0
M  V30 3198 H 294.289 -0.41447 6.54188 0
M  V30 3199 H 293.809 -1.8997 5.68921 0
M  V30 3200 H 295.488 -1.69001 6.24538 0
M  V30 3201 N 295.62 -1.53406 -0.361157 0
M  V30 3202 C 296.866 -1.70054 -1.10496 0
M  V30 3203 C 297.199 -0.453278 -1.88836 0
M  V30 3204 O 296.474 0.5495 -1.86576 0
M  V30 3205 C 296.757 -2.95317 -2.06058 0
M  V30 3206 C 296.61 -4.3021 -1.31298 0
M  V30 3207 C 297.929 -3.16193 -3.06121 0
M  V30 3208 H 295.048 -0.618799 -0.400321 0
M  V30 3209 H 297.69 -1.86052 -0.385318 0
M  V30 3210 H 295.84 -2.81809 -2.67425 0
M  V30 3211 H 297.512 -4.55538 -0.726807 0
M  V30 3212 H 295.755 -4.29421 -0.614853 0
M  V30 3213 H 296.426 -5.14 -2.01265 0
M  V30 3214 H 298.902 -3.28916 -2.5486 0
M  V30 3215 H 297.778 -4.05266 -3.70204 0
M  V30 3216 H 298.039 -2.31676 -3.76535 0
M  V30 3217 N 297.098 0.621204 -1.44841 0
M  V30 3218 C 298.03 1.74615 -1.48466 0
M  V30 3219 C 299.043 1.58377 -0.37691 0
M  V30 3220 O 300.232 1.66508 -0.643215 0
M  V30 3221 C 297.332 3.12459 -1.31236 0
M  V30 3222 C 296.505 3.55064 -2.55438 0
M  V30 3223 C 295.564 4.71821 -2.32963 0
M  V30 3224 O 294.59 4.79628 -3.06505 0
M  V30 3225 N 295.792 5.64186 -1.36654 0
M  V30 3226 H 298.557 1.71973 -2.45449 0
M  V30 3227 H 296.118 0.806077 -1.40407 0
M  V30 3228 H 298.11 3.88302 -1.14032 0
M  V30 3229 H 296.68 3.09686 -0.4258 0
M  V30 3230 H 295.9 2.69324 -2.87851 0
M  V30 3231 H 297.188 3.80284 -3.38026 0
M  V30 3232 H 296.586 5.6058 -0.759344 0
M  V30 3233 H 295.143 6.39618 -1.25425 0
M  V30 3234 N 298.576 1.31904 0.862503 0
M  V30 3235 C 299.524 1.20125 1.9918 0
M  V30 3236 C 300.518 0.107824 1.69056 0
M  V30 3237 O 301.724 0.270223 1.7796 0
M  V30 3238 H 298.099 0.372148 0.65346 0
M  V30 3239 H 300.07 2.15652 2.06244 0
M  V30 3240 C 298.819 0.933099 3.34946 0
M  V30 3241 H 298.142 1.76664 3.5865 0
M  V30 3242 H 299.582 0.890892 4.14535 0
M  V30 3243 C 298.041 -0.364172 3.34926 0
M  V30 3244 O 298.571 -1.37858 3.77304 0
M  V30 3245 N 296.777 -0.383362 2.8806 0
M  V30 3246 H 296.324 0.442651 2.53768 0
M  V30 3247 H 296.282 -1.25123 2.8843 0
M  V30 3248 N 300.054 -1.07777 1.14986 0
M  V30 3249 C 300.986 -2.14769 0.800436 0
M  V30 3250 C 301.999 -1.61739 -0.185595 0
M  V30 3251 O 303.188 -1.78462 0.0370358 0
M  V30 3252 C 300.288 -3.38481 0.168533 0
M  V30 3253 C 299.461 -4.20876 1.1909 0
M  V30 3254 C 298.52 -5.22976 0.581575 0
M  V30 3255 O 297.546 -5.55388 1.24633 0
M  V30 3256 N 298.748 -5.76976 -0.638706 0
M  V30 3257 H 301.513 -2.45348 1.72118 0
M  V30 3258 H 299.074 -1.23645 1.04515 0
M  V30 3259 H 301.066 -4.03916 -0.251764 0
M  V30 3260 H 299.636 -3.05651 -0.655467 0
M  V30 3261 H 298.856 -3.51322 1.78791 0
M  V30 3262 H 300.144 -4.7274 1.88133 0
M  V30 3263 H 299.542 -5.52886 -1.19723 0
M  V30 3264 H 298.099 -6.44061 -1.00142 0
M  V30 3265 N 301.532 -0.945985 -1.26051 0
M  V30 3266 C 302.948 -0.649045 -1.45807 0
M  V30 3267 C 303.148 0.796158 -1.85104 0
M  V30 3268 O 302.204 1.57233 -1.97571 0
M  V30 3269 C 303.517 -1.61458 -2.53677 0
M  V30 3270 C 305.065 -1.62481 -2.67524 0
M  V30 3271 C 305.54 -2.57776 -3.7857 0
M  V30 3272 N 307.031 -2.5609 -3.85969 0
M  V30 3273 C 307.766 -3.26508 -4.7136 0
M  V30 3274 N 307.262 -4.0637 -5.61102 0
M  V30 3275 N 309.055 -3.15437 -4.65248 0
M  V30 3276 H 301.206 -1.88005 -0.988328 0
M  V30 3277 H 303.469 -0.808198 -0.4955 0
M  V30 3278 H 303.175 -2.64644 -2.31638 0
M  V30 3279 H 303.049 -1.37036 -3.51427 0
M  V30 3280 H 305.436 -0.600167 -2.88933 0
M  V30 3281 H 305.517 -1.90958 -1.70202 0
M  V30 3282 H 305.161 -3.60361 -3.57913 0
M  V30 3283 H 305.091 -2.26587 -4.75359 0
M  V30 3284 H 307.582 -1.98105 -3.21812 0
M  V30 3285 H 307.895 -4.57042 -6.23164 0
M  V30 3286 H 306.24 -4.10469 -5.60839 0
M  V30 3287 H 309.431 -2.52525 -3.94143 0
M  V30 3288 H 309.604 -3.70584 -5.31575 0
M  V30 3289 N 303.011 1.40521 -0.713556 0
M  V30 3290 C 304.26 2.00155 -0.249192 0
M  V30 3291 C 304.573 1.57224 1.16362 0
M  V30 3292 O 305.779 2.09542 1.72639 0
M  V30 3293 C 304.235 3.5773 -0.3946 0
M  V30 3294 C 303.843 4.09635 -1.81392 0
M  V30 3295 C 305.587 4.24499 0.00907364 0
M  V30 3296 C 303.494 5.59707 -1.91003 0
M  V30 3297 H 302.424 0.74868 -0.0894114 0
M  V30 3298 H 305.075 1.60784 -0.884352 0
M  V30 3299 H 303.457 3.94792 0.30911 0
M  V30 3300 H 304.631 3.83955 -2.54785 0
M  V30 3301 H 302.946 3.55456 -2.16888 0
M  V30 3302 H 305.543 5.34683 -0.0420404 0
M  V30 3303 H 305.886 4.02824 1.05065 0
M  V30 3304 H 306.419 3.92536 -0.645007 0
M  V30 3305 H 303.158 5.86234 -2.93275 0
M  V30 3306 H 302.678 5.87258 -1.22019 0
M  V30 3307 H 304.357 6.24776 -1.6812 0
M  V30 3308 N 304.489 0.459591 1.5075 0
M  V30 3309 C 305.905 0.113092 1.59199 0
M  V30 3310 C 306.105 -1.37951 1.46874 0
M  V30 3311 O 305.161 -2.15168 1.32132 0
M  V30 3312 C 306.474 0.653043 2.93523 0
M  V30 3313 C 308.022 0.615449 3.0689 0
M  V30 3314 C 308.497 1.13275 4.43771 0
M  V30 3315 N 309.988 1.09167 4.50152 0
M  V30 3316 C 310.723 1.46256 5.54434 0
M  V30 3317 N 310.219 1.90739 6.66026 0
M  V30 3318 N 312.012 1.37932 5.44914 0
M  V30 3319 H 304.163 1.43049 1.57005 0
M  V30 3320 H 306.426 0.590861 0.741341 0
M  V30 3321 H 306.132 1.69822 3.07983 0
M  V30 3322 H 306.006 0.0902132 3.77092 0
M  V30 3323 H 308.393 -0.420793 2.92084 0
M  V30 3324 H 308.474 1.21495 2.25106 0
M  V30 3325 H 308.118 2.16757 4.59324 0
M  V30 3326 H 308.048 0.509576 5.24129 0
M  V30 3327 H 310.539 0.76528 3.7007 0
M  V30 3328 H 310.852 2.17218 7.41644 0
M  V30 3329 H 309.197 1.94683 6.67176 0
M  V30 3330 H 312.388 1.0303 4.56621 0
M  V30 3331 H 312.561 1.67164 6.26067 0
M  V30 3332 N 305.967 -1.56429 0.191757 0
M  V30 3333 C 307.215 -1.97095 -0.447006 0
M  V30 3334 C 307.536 -1.07967 -1.62383 0
M  V30 3335 O 306.806 -0.150248 -1.95323 0
M  V30 3336 H 305.386 -0.727832 -0.168135 0
M  V30 3337 H 308.048 -1.92911 0.27771 0
M  V30 3338 H 307.144 -3.01848 -0.793371 0
M  V30 3339 N 307.445 0.0818655 -1.57387 0
M  V30 3340 C 308.355 1.11642 -2.06333 0
M  V30 3341 C 309.371 1.43033 -0.99083 0
M  V30 3342 O 310.547 1.53411 -1.30488 0
M  V30 3343 C 307.612 2.41342 -2.48907 0
M  V30 3344 C 306.673 2.17014 -3.7041 0
M  V30 3345 C 305.906 3.4053 -4.10944 0
M  V30 3346 O 306.129 4.4927 -3.51444 0
M  V30 3347 O 305.063 3.29336 -5.03807 0
M  V30 3348 H 308.889 0.730657 -2.9478 0
M  V30 3349 H 306.474 0.295301 -1.46452 0
M  V30 3350 H 308.356 3.17691 -2.76858 0
M  V30 3351 H 307.031 2.79319 -1.63593 0
M  V30 3352 H 305.938 1.38403 -3.47556 0
M  V30 3353 H 307.271 1.83923 -4.56545 0
M  V30 3354 N 308.923 1.53595 0.353017 0
M  V30 3355 C 309.833 1.83897 1.45667 0
M  V30 3356 C 310.849 0.728334 1.58023 0
M  V30 3357 O 312.025 1.01968 1.73679 0
M  V30 3358 C 309.09 2.03383 2.80778 0
M  V30 3359 C 308.151 3.27262 2.77845 0
M  V30 3360 C 307.384 3.45809 4.06512 0
M  V30 3361 O 307.607 2.68387 5.03314 0
M  V30 3362 O 306.541 4.39207 4.11559 0
M  V30 3363 H 310.367 2.77686 1.2298 0
M  V30 3364 H 307.952 1.39132 0.544308 0
M  V30 3365 H 309.834 2.17698 3.60812 0
M  V30 3366 H 308.509 1.12783 3.03417 0
M  V30 3367 H 307.416 3.18359 1.96465 0
M  V30 3368 H 308.749 4.17824 2.60161 0
M  V30 3369 N 310.401 -0.613514 1.45168 0
M  V30 3370 C 311.812 -1.19539 1.43413 0
M  V30 3371 C 312.163 -1.95558 0.158632 0
M  V30 3372 O 311.288 -2.0335 -0.740119 0
M  V30 3373 C 311.883 -2.17445 2.59813 0
M  V30 3374 C 310.442 -2.71022 2.61197 0
M  V30 3375 C 309.589 -1.46323 2.35552 0
M  V30 3376 H 312.54 -0.403163 1.53494 0
M  V30 3377 H 312.561 -3.00373 2.33574 0
M  V30 3378 H 312.073 -1.62089 3.52631 0
M  V30 3379 H 310.174 -3.30332 1.7237 0
M  V30 3380 H 310.287 -3.15859 3.60236 0
M  V30 3381 H 308.651 -1.75072 1.84992 0
M  V30 3382 H 309.434 -0.92844 3.30507 0
M  V30 3383 N 311.879 -1.3236 -0.855495 0
M  V30 3384 C 312.842 -1.21164 -1.94556 0
M  V30 3385 C 313.842 -0.134908 -1.60233 0
M  V30 3386 O 315.032 -0.385249 -1.69887 0
M  V30 3387 C 312.164 -0.863192 -3.29791 0
M  V30 3388 H 313.357 -2.18038 -2.05911 0
M  V30 3389 H 310.91 -1.16179 -1.04557 0
M  V30 3390 H 311.645 0.103769 -3.24134 0
M  V30 3391 H 311.43 -1.64166 -3.56078 0
M  V30 3392 H 312.92 -0.809156 -4.09686 0
M  V30 3393 N 313.357 1.07166 -1.15556 0
M  V30 3394 C 314.603 1.80065 -0.932984 0
M  V30 3395 C 314.936 1.86586 0.53845 0
M  V30 3396 O 314.211 1.35098 1.39924 0
M  V30 3397 C 314.494 3.25022 -1.55025 0
M  V30 3398 C 314.347 3.26634 -3.09242 0
M  V30 3399 C 315.666 4.22341 -1.2376 0
M  V30 3400 H 312.785 0.653697 -0.340366 0
M  V30 3401 H 315.427 1.25389 -1.4275 0
M  V30 3402 H 313.577 3.71712 -1.12972 0
M  V30 3403 H 315.249 2.88173 -3.60214 0
M  V30 3404 H 313.492 2.65539 -3.43033 0
M  V30 3405 H 314.163 4.28854 -3.47546 0
M  V30 3406 H 316.639 3.8405 -1.60139 0
M  V30 3407 H 315.515 5.22053 -1.69564 0
M  V30 3408 H 315.776 4.41828 -0.154938 0
M  V30 3409 N 314.835 0.952656 1.25548 0
M  V30 3410 C 316.063 0.623496 1.97282 0
M  V30 3411 C 316.478 -0.803987 1.70826 0
M  V30 3412 O 315.835 -1.53755 0.983147 0
M  V30 3413 C 315.886 0.870209 3.5087 0
M  V30 3414 O 315.607 2.24156 3.76412 0
M  V30 3415 C 317.108 0.553164 4.39835 0
M  V30 3416 H 314.328 0.233931 0.628902 0
M  V30 3417 H 316.872 1.27649 1.59768 0
M  V30 3418 H 315.027 0.263652 3.86502 0
M  V30 3419 H 315.441 2.31021 4.70882 0
M  V30 3420 H 316.915 0.776342 5.46513 0
M  V30 3421 H 317.392 -0.512215 4.36203 0
M  V30 3422 H 317.998 1.13896 4.09766 0
M  V30 3423 N 316.313 -1.40141 0.720998 0
M  V30 3424 C 317.223 -2.34486 0.0731031 0
M  V30 3425 C 318.239 -1.57587 -0.737723 0
M  V30 3426 O 319.415 -1.89949 -0.669429 0
M  V30 3427 C 316.48 -3.36528 -0.833656 0
M  V30 3428 C 315.541 -4.29298 -0.0121673 0
M  V30 3429 C 314.774 -5.26466 -0.875742 0
M  V30 3430 O 314.997 -5.29745 -2.11485 0
M  V30 3431 O 313.931 -6.01092 -0.31185 0
M  V30 3432 H 317.757 -2.9152 0.851444 0
M  V30 3433 H 315.342 -1.41427 0.481527 0
M  V30 3434 H 317.224 -3.99093 -1.35289 0
M  V30 3435 H 315.899 -2.81899 -1.59105 0
M  V30 3436 H 314.806 -3.70001 0.552262 0
M  V30 3437 H 316.139 -4.87094 0.707129 0
M  V30 3438 N 317.792 -0.46758 -1.50504 0
M  V30 3439 C 318.702 0.33382 -2.32213 0
M  V30 3440 C 319.718 0.999323 -1.42441 0
M  V30 3441 O 320.894 0.988068 -1.75497 0
M  V30 3442 C 317.959 1.4035 -3.17022 0
M  V30 3443 C 317.02 0.754961 -4.2261 0
M  V30 3444 C 316.253 1.77367 -5.03365 0
M  V30 3445 O 316.476 2.99976 -4.8515 0
M  V30 3446 O 315.41 1.34744 -5.86624 0
M  V30 3447 H 319.236 -0.334067 -3.01857 0
M  V30 3448 H 316.821 -0.229496 -1.47627 0
M  V30 3449 H 318.703 2.02318 -3.69656 0
M  V30 3450 H 317.378 2.05492 -2.5011 0
M  V30 3451 H 316.285 0.0964244 -3.73976 0
M  V30 3452 H 317.618 0.146545 -4.91982 0
M  V30 3453 N 319.27 1.56325 -0.20005 0
M  V30 3454 C 320.498 2.02105 0.442874 0
M  V30 3455 C 320.913 1.08014 1.5485 0
M  V30 3456 O 320.27 0.0858797 1.82298 0
M  V30 3457 C 320.321 3.47549 0.994583 0
M  V30 3458 O 320.042 4.38049 -0.0669322 0
M  V30 3459 C 321.543 4.0887 1.7129 0
M  V30 3460 H 318.763 0.661807 0.110691 0
M  V30 3461 H 321.307 2.02134 -0.310207 0
M  V30 3462 H 319.462 3.48204 1.69803 0
M  V30 3463 H 319.876 5.23368 0.344462 0
M  V30 3464 H 321.35 5.12475 2.05118 0
M  V30 3465 H 321.827 3.52615 2.61838 0
M  V30 3466 H 322.433 4.12002 1.05518 0
M  V30 3467 N 320.748 -0.0735177 1.57428 0
M  V30 3468 C 321.678 -1.0879 2.06608 0
M  V30 3469 C 322.659 -1.40473 0.959237 0
M  V30 3470 O 323.844 -1.5013 1.23185 0
M  V30 3471 C 320.974 -2.40183 2.50857 0
M  V30 3472 C 319.928 -2.22858 3.65402 0
M  V30 3473 C 319.254 -3.59619 3.957 0
M  V30 3474 C 320.554 -1.65123 4.95511 0
M  V30 3475 H 322.248 -0.678673 2.91607 0
M  V30 3476 H 319.794 -0.325013 1.40284 0
M  V30 3477 H 321.747 -3.11437 2.83874 0
M  V30 3478 H 320.471 -2.83083 1.62885 0
M  V30 3479 H 319.13 -1.54045 3.32664 0
M  V30 3480 H 318.778 -4.00086 3.04861 0
M  V30 3481 H 318.478 -3.48866 4.72828 0
M  V30 3482 H 320.002 -4.32306 4.31212 0
M  V30 3483 H 321.416 -2.26241 5.26771 0
M  V30 3484 H 319.813 -1.65071 5.7695 0
M  V30 3485 H 320.883 -0.612559 4.81015 0
M  V30 3486 N 322.226 -1.5378 -0.344866 0
M  V30 3487 C 323.466 -1.72677 -1.09371 0
M  V30 3488 C 323.83 -0.479084 -1.85927 0
M  V30 3489 O 325.031 -0.54505 -2.63216 0
M  V30 3490 C 323.302 -2.95457 -2.01097 0
M  V30 3491 S 324.861 -3.35158 -2.83222 0
M  V30 3492 H 321.679 -0.607402 -0.369573 0
M  V30 3493 H 324.281 -1.91922 -0.372307 0
M  V30 3494 H 322.985 -3.84437 -1.43655 0
M  V30 3495 H 322.516 -2.78673 -2.77678 0
M  V30 3496 H 324.531 -2.88789 -4.03504 0
M  V30 3497 N 323.704 0.605807 -1.45491 0
M  V30 3498 C 324.95 1.36679 -1.49823 0
M  V30 3499 C 325.283 1.93693 -0.140175 0
M  V30 3500 O 324.558 1.75158 0.845581 0
M  V30 3501 C 324.841 2.51337 -2.57879 0
M  V30 3502 C 324.694 1.99508 -4.03134 0
M  V30 3503 C 326.013 3.53463 -2.62205 0
M  V30 3504 H 323.132 0.495617 -0.545466 0
M  V30 3505 H 325.774 0.682732 -1.7731 0
M  V30 3506 H 323.924 3.09691 -2.34571 0
M  V30 3507 H 325.596 1.45789 -4.37656 0
M  V30 3508 H 323.839 1.30496 -4.13707 0
M  V30 3509 H 324.51 2.82169 -4.74431 0
M  V30 3510 H 326.986 3.04953 -2.83095 0
M  V30 3511 H 325.862 4.31178 -3.39672 0
M  V30 3512 H 326.123 4.09197 -1.67363 0
M  V30 3513 N 325.182 1.32811 0.848464 0
M  V30 3514 C 326.43 1.23479 1.59991 0
M  V30 3515 C 326.751 -0.201853 1.93952 0
M  V30 3516 O 326.021 -1.12818 1.60153 0
M  V30 3517 H 324.601 0.454034 0.593179 0
M  V30 3518 H 327.263 1.66412 1.01455 0
M  V30 3519 H 326.359 1.82178 2.53412 0
M  V30 3520 N 326.66 -1.06551 1.16123 0
M  V30 3521 C 327.59 -2.15935 0.88851 0
M  V30 3522 C 328.571 -1.69306 -0.164135 0
M  V30 3523 O 329.756 -1.94193 -0.0167857 0
M  V30 3524 C 326.886 -3.45149 0.385942 0
M  V30 3525 C 325.84 -4.05271 1.3762 0
M  V30 3526 C 325.166 -5.29664 0.732137 0
M  V30 3527 C 326.466 -4.44355 2.74493 0
M  V30 3528 H 328.16 -2.39006 1.80323 0
M  V30 3529 H 325.706 -1.14866 0.868435 0
M  V30 3530 H 327.659 -4.21004 0.182647 0
M  V30 3531 H 326.383 -3.21689 -0.564274 0
M  V30 3532 H 325.042 -3.3147 1.56599 0
M  V30 3533 H 324.69 -5.02499 -0.224483 0
M  V30 3534 H 324.39 -5.70848 1.39307 0
M  V30 3535 H 325.914 -6.08218 0.538802 0
M  V30 3536 H 327.328 -5.11303 2.59311 0
M  V30 3537 H 325.725 -4.96515 3.37035 0
M  V30 3538 H 326.795 -3.55339 3.29943 0
M  V30 3539 N 328.138 -0.959301 -1.25041 0
M  V30 3540 C 329.101 -0.487677 -2.23952 0
M  V30 3541 C 330.101 0.41119 -1.55454 0
M  V30 3542 O 331.291 0.207825 -1.72956 0
M  V30 3543 C 328.423 0.294807 -3.39623 0
M  V30 3544 H 329.616 -1.36198 -2.67189 0
M  V30 3545 H 327.169 -0.743042 -1.37508 0
M  V30 3546 H 327.904 1.18658 -3.01813 0
M  V30 3547 H 327.689 -0.35012 -3.90534 0
M  V30 3548 H 329.179 0.614089 -4.1306 0
M  V30 3549 N 329.616 1.39756 -0.72842 0
M  V30 3550 C 331.032 1.5442 -0.403308 0
M  V30 3551 C 331.232 1.69694 1.08656 0
M  V30 3552 O 330.288 1.69373 1.87267 0
M  V30 3553 C 331.601 2.76555 -1.18058 0
M  V30 3554 C 333.149 2.90384 -1.16815 0
M  V30 3555 C 333.624 4.15449 -1.92785 0
M  V30 3556 N 335.115 4.22475 -1.89918 0
M  V30 3557 C 335.85 5.1818 -2.45514 0
M  V30 3558 N 335.346 6.19714 -3.09719 0
M  V30 3559 N 337.139 5.1035 -2.35584 0
M  V30 3560 H 329.29 1.28089 -1.69431 0
M  V30 3561 H 331.553 0.620327 -0.716867 0
M  V30 3562 H 331.259 2.7159 -2.23455 0
M  V30 3563 H 331.133 3.69033 -0.780662 0
M  V30 3564 H 333.52 2.94846 -0.12234 0
M  V30 3565 H 333.601 1.98988 -1.6074 0
M  V30 3566 H 333.245 4.11749 -2.97364 0
M  V30 3567 H 333.175 5.05877 -1.46272 0
M  V30 3568 H 335.666 3.49743 -1.43138 0
M  V30 3569 H 335.979 6.8919 -3.49625 0
M  V30 3570 H 334.324 6.20121 -3.13807 0
M  V30 3571 H 337.515 4.2996 -1.85072 0
M  V30 3572 H 337.688 5.84761 -2.79211 0
M  V30 3573 N 331.094 0.475555 1.50254 0
M  V30 3574 C 332.34 -0.0780073 2.0265 0
M  V30 3575 C 332.673 -1.38968 1.35652 0
M  V30 3576 O 331.948 -1.8839 0.483691 0
M  V30 3577 C 332.231 -0.257161 3.59181 0
M  V30 3578 C 332.084 1.07585 4.36744 0
M  V30 3579 C 333.403 -1.00965 4.28362 0
M  V30 3580 H 330.522 -0.0268758 0.73651 0
M  V30 3581 H 333.164 0.622015 1.7953 0
M  V30 3582 H 331.314 -0.853412 3.79011 0
M  V30 3583 H 332.986 1.70902 4.28474 0
M  V30 3584 H 331.229 1.6714 4.00308 0
M  V30 3585 H 331.9 0.904088 5.44546 0
M  V30 3586 H 334.376 -0.504214 4.13034 0
M  V30 3587 H 333.252 -1.10381 5.37687 0
M  V30 3588 H 333.513 -2.04731 3.91839 0
M  V30 3589 N 332.573 -1.56217 0.208337 0
M  V30 3590 C 333.821 -1.97558 -0.426076 0
M  V30 3591 C 334.142 -1.09683 -1.61229 0
M  V30 3592 O 333.412 -0.170956 -1.95153 0
M  V30 3593 H 331.992 -0.729575 -0.160405 0
M  V30 3594 H 334.654 -1.92606 0.298155 0
M  V30 3595 H 333.75 -3.02672 -0.761312 0
M  V30 3596 N 334.051 0.0651679 -1.57465 0
M  V30 3597 C 335.014 1.06117 -2.03155 0
M  V30 3598 C 336.014 1.31204 -0.929632 0
M  V30 3599 O 337.204 1.26813 -1.19432 0
M  V30 3600 C 334.336 2.4032 -2.41783 0
M  V30 3601 H 335.529 0.667231 -2.92383 0
M  V30 3602 H 333.082 0.311075 -1.53173 0
M  V30 3603 H 333.817 2.84532 -1.55601 0
M  V30 3604 H 333.602 2.23451 -3.22199 0
M  V30 3605 H 335.092 3.11898 -2.77685 0
M  V30 3606 N 335.529 1.53961 0.336706 0
M  V30 3607 C 336.806 1.62171 1.09361 0
M  V30 3608 C 337.186 0.447263 2.06307 0
M  V30 3609 O 336.534 -0.559802 2.21537 0
M  V30 3610 C 336.744 2.98565 1.80721 0
M  V30 3611 C 338.092 3.54157 2.34218 0
M  V30 3612 O 339.116 3.00784 1.90807 0
M  V30 3613 O 337.975 4.47528 3.13657 0
M  V30 3614 H 335.069 0.6562 0.503319 0
M  V30 3615 H 337.615 1.66307 0.33765 0
M  V30 3616 H 336.387 3.75482 1.10132 0
M  V30 3617 H 336.01 2.9805 2.63158 0
M  V30 3618 N 337.007 -0.598083 1.45811 0
M  V30 3619 C 338.284 -1.35777 1.40797 0
M  V30 3620 C 338.664 -2.10935 0.083462 0
M  V30 3621 O 338.012 -2.08505 -0.934763 0
M  V30 3622 C 338.222 -2.29666 2.62783 0
M  V30 3623 C 339.57 -2.91977 3.08277 0
M  V30 3624 O 340.594 -2.39984 2.63223 0
M  V30 3625 O 339.453 -3.86376 3.86491 0
M  V30 3626 H 336.547 -0.609291 0.55919 0
M  V30 3627 H 339.093 -0.620379 1.57954 0
M  V30 3628 H 337.865 -1.73454 3.50756 0
M  V30 3629 H 337.488 -3.1077 2.48008 0
M  V30 3630 N 338.485 -1.33259 -0.841409 0
M  V30 3631 C 339.417 -1.19136 -1.95804 0
M  V30 3632 C 340.43 -0.122965 -1.62335 0
M  V30 3633 O 341.619 -0.373154 -1.74556 0
M  V30 3634 C 338.719 -0.804268 -3.29218 0
M  V30 3635 C 337.892 -1.96376 -3.90839 0
M  V30 3636 C 336.951 -1.55806 -5.02604 0
M  V30 3637 O 335.977 -2.27203 -5.21888 0
M  V30 3638 N 337.179 -0.461609 -5.78662 0
M  V30 3639 H 339.944 -2.15326 -2.08458 0
M  V30 3640 H 337.505 -1.25971 -1.017 0
M  V30 3641 H 339.497 -0.51501 -4.0141 0
M  V30 3642 H 338.067 0.0668809 -3.12528 0
M  V30 3643 H 337.287 -2.41879 -3.11269 0
M  V30 3644 H 338.575 -2.73966 -4.28742 0
M  V30 3645 H 337.973 0.132343 -5.65545 0
M  V30 3646 H 336.53 -0.232013 -6.51387 0
M  V30 3647 N 339.963 1.05934 -1.16686 0
M  V30 3648 C 340.91 2.13499 -0.876748 0
M  V30 3649 C 341.88 1.65162 0.176299 0
M  V30 3650 O 343.065 1.90757 0.0407143 0
M  V30 3651 C 340.205 3.42912 -0.387967 0
M  V30 3652 C 339.318 4.04964 -1.50426 0
M  V30 3653 C 338.453 5.22266 -0.970125 0
M  V30 3654 C 337.492 5.76309 -2.06238 0
M  V30 3655 N 336.629 6.84922 -1.54356 0
M  V30 3656 H 341.469 2.37654 -1.7979 0
M  V30 3657 H 339.006 1.16598 -0.896843 0
M  V30 3658 H 340.964 4.17111 -0.086186 0
M  V30 3659 H 339.594 3.18963 0.496235 0
M  V30 3660 H 338.646 3.28277 -1.92193 0
M  V30 3661 H 339.958 4.41122 -2.32836 0
M  V30 3662 H 339.112 6.03506 -0.621743 0
M  V30 3663 H 337.851 4.87564 -0.115377 0
M  V30 3664 H 336.856 4.93704 -2.41942 0
M  V30 3665 H 338.081 6.13062 -2.92115 0
M  V30 3666 H 336.027 6.52131 -0.711406 0
M  V30 3667 H 335.944 7.20043 -2.30379 0
M  V30 3668 H 337.212 7.69832 -1.22387 0
M  V30 3669 N 341.441 0.965919 1.2453 0
M  V30 3670 C 342.69 0.622437 1.91856 0
M  V30 3671 C 343.003 -0.846006 1.76358 0
M  V30 3672 O 344.209 -1.29993 2.38357 0
M  V30 3673 C 342.665 1.0626 3.43856 0
M  V30 3674 C 342.273 2.55437 3.68043 0
M  V30 3675 C 344.017 0.792183 4.17043 0
M  V30 3676 C 341.924 2.93196 5.13605 0
M  V30 3677 H 340.854 0.229092 0.718354 0
M  V30 3678 H 343.505 1.17189 1.41206 0
M  V30 3679 H 341.887 0.441476 3.93531 0
M  V30 3680 H 343.061 3.22665 3.28974 0
M  V30 3681 H 341.376 2.8007 3.08139 0
M  V30 3682 H 343.973 1.05031 5.24283 0
M  V30 3683 H 344.316 -0.271584 4.15413 0
M  V30 3684 H 344.849 1.37419 3.73311 0
M  V30 3685 H 341.588 3.98636 5.20355 0
M  V30 3686 H 341.108 2.30651 5.53679 0
M  V30 3687 H 342.787 2.83004 5.81823 0
M  V30 3688 N 342.919 -1.39368 0.735821 0
M  V30 3689 C 343.882 -2.2896 0.104874 0
M  V30 3690 C 344.882 -1.46347 -0.666274 0
M  V30 3691 O 346.072 -1.67014 -0.49517 0
M  V30 3692 C 343.204 -3.29857 -0.860656 0
M  V30 3693 H 344.397 -2.86259 0.894205 0
M  V30 3694 H 341.95 -1.48029 0.501704 0
M  V30 3695 H 342.685 -2.77615 -1.67631 0
M  V30 3696 H 342.47 -3.9087 -0.310327 0
M  V30 3697 H 343.96 -3.96893 -1.29867 0
M  V30 3698 N 344.397 -0.483516 -1.5 0
M  V30 3699 C 345.36 0.292965 -2.2732 0
M  V30 3700 C 346.36 0.909499 -1.32608 0
M  V30 3701 O 347.55 0.776745 -1.55924 0
M  V30 3702 C 344.682 1.41854 -3.09984 0
M  V30 3703 H 345.875 -0.385289 -2.97415 0
M  V30 3704 H 343.428 -0.237942 -1.54478 0
M  V30 3705 H 344.163 2.13148 -2.44414 0
M  V30 3706 H 343.948 0.982114 -3.79601 0
M  V30 3707 H 345.438 1.96597 -3.68429 0
M  V30 3708 N 345.875 1.56104 -0.216619 0
M  V30 3709 C 347.123 1.97781 0.415593 0
M  V30 3710 C 347.444 1.10536 1.60645 0
M  V30 3711 O 346.714 0.181303 1.95059 0
M  V30 3712 H 345.294 0.730415 0.156534 0
M  V30 3713 H 347.956 1.92445 -0.308366 0
M  V30 3714 H 347.052 3.03072 0.74525 0
M  V30 3715 N 347.353 -0.0568162 1.57498 0
M  V30 3716 C 348.581 -0.765626 1.92213 0
M  V30 3717 C 348.996 -1.70353 0.813961 0
M  V30 3718 O 348.353 -1.81268 -0.211701 0
M  V30 3719 C 348.404 -1.5465 3.2675 0
M  V30 3720 O 348.125 -0.646278 4.33307 0
M  V30 3721 C 349.626 -2.35497 3.75574 0
M  V30 3722 H 346.846 -0.216835 0.634999 0
M  V30 3723 H 349.39 -0.0226146 2.04487 0
M  V30 3724 H 347.545 -2.24165 3.15957 0
M  V30 3725 H 347.959 -1.19093 5.108 0
M  V30 3726 H 349.433 -2.85722 4.72299 0
M  V30 3727 H 349.91 -3.15692 3.05344 0
M  V30 3728 H 350.516 -1.7111 3.8936 0
M  V30 3729 N 348.832 -1.54138 -0.328536 0
M  V30 3730 C 349.762 -1.86167 -1.40939 0
M  V30 3731 C 350.743 -0.718044 -1.54202 0
M  V30 3732 O 351.928 -0.971328 -1.68163 0
M  V30 3733 C 349.058 -2.08461 -2.77779 0
M  V30 3734 C 348.012 -3.24299 -2.7931 0
M  V30 3735 C 347.338 -3.31955 -4.19178 0
M  V30 3736 C 348.638 -4.62065 -2.43502 0
M  V30 3737 H 350.332 -2.76689 -1.14383 0
M  V30 3738 H 347.878 -1.33132 -0.548806 0
M  V30 3739 H 349.831 -2.29453 -3.53454 0
M  V30 3740 H 348.555 -1.14684 -3.05802 0
M  V30 3741 H 347.214 -3.03187 -2.0609 0
M  V30 3742 H 346.862 -2.35745 -4.44335 0
M  V30 3743 H 346.562 -4.09805 -4.2111 0
M  V30 3744 H 348.086 -3.55175 -4.96672 0
M  V30 3745 H 349.5 -4.8297 -3.08889 0
M  V30 3746 H 347.897 -5.42429 -2.56693 0
M  V30 3747 H 348.967 -4.64652 -1.38659 0
M  V30 3748 N 350.31 0.590341 -1.46126 0
M  V30 3749 C 351.726 0.912917 -1.30912 0
M  V30 3750 C 351.926 1.99616 -0.274893 0
M  V30 3751 O 350.982 2.50397 0.325197 0
M  V30 3752 C 352.295 1.3375 -2.69317 0
M  V30 3753 C 353.843 1.45077 -2.77348 0
M  V30 3754 C 354.318 1.90904 -4.16317 0
M  V30 3755 N 355.809 1.9811 -4.18696 0
M  V30 3756 C 356.544 2.34828 -5.23109 0
M  V30 3757 N 356.04 2.70393 -6.37856 0
M  V30 3758 N 357.833 2.35317 -5.10473 0
M  V30 3759 H 349.984 -0.125358 -2.1203 0
M  V30 3760 H 352.247 0.00658481 -0.947977 0
M  V30 3761 H 351.953 0.615614 -3.4627 0
M  V30 3762 H 351.827 2.30058 -2.9892 0
M  V30 3763 H 354.214 2.16353 -2.00687 0
M  V30 3764 H 354.295 0.4704 -2.51438 0
M  V30 3765 H 353.939 1.20209 -4.9347 0
M  V30 3766 H 353.869 2.89886 -4.39629 0
M  V30 3767 H 356.36 1.73146 -3.359 0
M  V30 3768 H 356.673 2.97341 -7.13308 0
M  V30 3769 H 355.018 2.68048 -6.41229 0
M  V30 3770 H 358.209 2.0695 -4.19868 0
M  V30 3771 H 358.382 2.63605 -5.9196 0
M  V30 3772 N 351.788 1.33704 0.83433 0
M  V30 3773 C 352.72 1.20172 1.9517 0
M  V30 3774 C 353.733 0.131572 1.62267 0
M  V30 3775 O 354.922 0.382406 1.74356 0
M  V30 3776 C 352.022 0.821716 3.28787 0
M  V30 3777 C 351.195 1.98446 3.89792 0
M  V30 3778 C 350.254 1.58469 5.01771 0
M  V30 3779 O 349.28 2.29968 5.20676 0
M  V30 3780 N 350.482 0.492291 5.78409 0
M  V30 3781 H 353.247 2.16429 2.07313 0
M  V30 3782 H 350.808 1.26509 1.0103 0
M  V30 3783 H 352.8 0.536291 4.01131 0
M  V30 3784 H 351.37 -0.0503058 3.1256 0
M  V30 3785 H 350.59 2.43526 3.09982 0
M  V30 3786 H 351.878 2.76236 4.27283 0
M  V30 3787 H 351.276 -0.102349 5.65607 0
M  V30 3788 H 349.833 0.266555 6.51255 0
M  V30 3789 N 353.266 -1.05314 1.17247 0
M  V30 3790 C 354.199 -2.12512 0.831507 0
M  V30 3791 C 355.177 -1.61351 -0.201168 0
M  V30 3792 O 356.361 -1.88317 -0.0829831 0
M  V30 3793 C 353.488 -3.37848 0.24015 0
M  V30 3794 C 352.534 -4.07832 1.24801 0
M  V30 3795 S 353.367 -4.56537 2.79882 0
M  V30 3796 C 354.523 -5.85122 2.22223 0
M  V30 3797 H 354.756 -2.41106 1.7394 0
M  V30 3798 H 352.289 -1.17896 0.996988 0
M  V30 3799 H 354.247 -4.10391 -0.0945588 0
M  V30 3800 H 352.908 -3.07392 -0.645668 0
M  V30 3801 H 352.101 -4.97883 0.78287 0
M  V30 3802 H 351.703 -3.41348 1.52831 0
M  V30 3803 H 353.995 -6.58408 1.59703 0
M  V30 3804 H 354.938 -6.36381 3.10523 0
M  V30 3805 H 355.346 -5.39626 1.65722 0
M  V30 3806 N 354.744 -0.972509 -1.24016 0
M  V30 3807 C 355.984 -0.644951 -1.93958 0
M  V30 3808 C 356.348 0.80559 -1.74282 0
M  V30 3809 O 357.549 1.2436 -2.38302 0
M  V30 3810 C 355.82 -1.01521 -3.42678 0
M  V30 3811 S 357.379 -0.802927 -4.31391 0
M  V30 3812 H 354.197 -0.236452 -0.670531 0
M  V30 3813 H 356.799 -1.25048 -1.50277 0
M  V30 3814 H 355.503 -2.06769 -3.54506 0
M  V30 3815 H 355.034 -0.400648 -3.91355 0
M  V30 3816 H 357.049 0.317256 -4.95185 0
M  V30 3817 N 356.222 1.38976 -0.743202 0
M  V30 3818 C 357.45 2.04636 -0.30525 0
M  V30 3819 C 357.865 1.56044 1.06281 0
M  V30 3820 O 357.222 0.728921 1.67311 0
M  V30 3821 C 357.273 3.60193 -0.307177 0
M  V30 3822 O 356.994 4.06998 -1.62124 0
M  V30 3823 C 358.495 4.4306 0.145928 0
M  V30 3824 H 355.715 0.65788 -0.132041 0
M  V30 3825 H 358.259 1.77866 -1.00915 0
M  V30 3826 H 356.414 3.85835 0.347898 0
M  V30 3827 H 356.828 5.01371 -1.54036 0
M  V30 3828 H 358.302 5.51921 0.0934183 0
M  V30 3829 H 358.779 4.22706 1.19231 0
M  V30 3830 H 359.385 4.22584 -0.479886 0
M  V30 3831 N 357.7 0.491464 1.49741 0
M  V30 3832 C 358.946 -0.0565092 2.02721 0
M  V30 3833 C 359.279 -1.37522 1.37118 0
M  V30 3834 O 358.554 -1.87866 0.503645 0
M  V30 3835 C 358.837 -0.219051 3.59433 0
M  V30 3836 C 358.69 1.12211 4.35579 0
M  V30 3837 C 360.009 -0.964157 4.29409 0
M  V30 3838 H 357.128 -0.0190627 0.736753 0
M  V30 3839 H 359.77 0.641021 1.7886 0
M  V30 3840 H 357.92 -0.813165 3.79895 0
M  V30 3841 H 359.592 1.75437 4.26637 0
M  V30 3842 H 357.835 1.71377 3.98513 0
M  V30 3843 H 358.506 0.961794 5.43556 0
M  V30 3844 H 360.982 -0.460378 4.13545 0
M  V30 3845 H 359.858 -1.04671 5.38828 0
M  V30 3846 H 360.119 -2.00563 3.93988 0
M  V30 3847 N 359.178 -1.55987 0.224894 0
M  V30 3848 C 360.455 -1.90232 -0.455083 0
M  V30 3849 C 360.835 -1.14269 -1.77499 0
M  V30 3850 O 360.183 -0.253079 -2.27094 0
M  V30 3851 C 360.393 -3.42993 -0.644758 0
M  V30 3852 C 361.741 -4.13821 -0.950669 0
M  V30 3853 O 362.765 -3.4861 -0.731423 0
M  V30 3854 O 361.624 -5.29128 -1.36695 0
M  V30 3855 H 358.718 -0.79108 -0.241084 0
M  V30 3856 H 361.264 -1.67581 0.267327 0
M  V30 3857 H 360.036 -3.90252 0.28613 0
M  V30 3858 H 359.659 -3.71434 -1.41853 0
M  V30 3859 N 360.656 0.0484629 -1.57525 0
M  V30 3860 C 361.586 1.0549 -2.08313 0
M  V30 3861 C 362.567 1.38929 -0.981463 0
M  V30 3862 O 363.752 1.48151 -1.25558 0
M  V30 3863 C 360.882 2.36162 -2.54646 0
M  V30 3864 C 359.836 2.17016 -3.68901 0
M  V30 3865 C 359.162 3.53278 -4.01371 0
M  V30 3866 C 360.462 1.57219 -4.98076 0
M  V30 3867 H 362.156 0.632195 -2.92649 0
M  V30 3868 H 359.702 0.302654 -1.40784 0
M  V30 3869 H 361.655 3.06882 -2.88793 0
M  V30 3870 H 360.379 2.80456 -1.67368 0
M  V30 3871 H 359.038 1.48733 -3.35073 0
M  V30 3872 H 358.686 3.95185 -3.11188 0
M  V30 3873 H 358.386 3.41299 -4.78318 0
M  V30 3874 H 359.91 4.25391 -4.38035 0
M  V30 3875 H 361.324 2.17832 -5.30304 0
M  V30 3876 H 359.721 1.55871 -5.79503 0
M  V30 3877 H 360.791 0.535956 -4.81929 0
M  V30 3878 N 362.134 1.5431 0.320358 0
M  V30 3879 C 363.382 1.72327 1.05583 0
M  V30 3880 C 363.703 0.50149 1.88441 0
M  V30 3881 O 362.973 -0.48448 1.89815 0
M  V30 3882 H 361.553 0.635387 0.3928 0
M  V30 3883 H 364.215 1.91621 0.356019 0
M  V30 3884 H 363.311 2.60426 1.72003 0
M  V30 3885 N 363.613 -0.582584 1.46437 0
M  V30 3886 C 364.523 -1.71949 1.59595 0
M  V30 3887 C 365.539 -1.67264 0.479443 0
M  V30 3888 O 366.715 -1.87171 0.743579 0
M  V30 3889 C 363.78 -3.08452 1.58298 0
M  V30 3890 C 362.841 -3.244 2.81182 0
M  V30 3891 C 362.074 -4.54391 2.79937 0
M  V30 3892 O 362.297 -5.38287 1.8869 0
M  V30 3893 O 361.231 -4.73588 3.71481 0
M  V30 3894 H 365.057 -1.63795 2.55744 0
M  V30 3895 H 362.642 -0.749643 1.29231 0
M  V30 3896 H 364.524 -3.89732 1.60271 0
M  V30 3897 H 363.199 -3.17043 0.653094 0
M  V30 3898 H 362.106 -2.42613 2.84763 0
M  V30 3899 H 363.439 -3.20699 3.7338 0
M  V30 3900 N 365.091 -1.34144 -0.827227 0
M  V30 3901 C 366.502 -1.23557 -1.39966 0
M  V30 3902 C 366.853 0.140731 -1.95695 0
M  V30 3903 O 365.978 1.04087 -1.89723 0
M  V30 3904 C 366.573 -2.23708 -2.54441 0
M  V30 3905 C 365.132 -2.16924 -3.07605 0
M  V30 3906 C 364.279 -2.10549 -1.80456 0
M  V30 3907 H 367.23 -1.45573 -0.631991 0
M  V30 3908 H 367.251 -1.85157 -3.32411 0
M  V30 3909 H 366.763 -3.23866 -2.13851 0
M  V30 3910 H 364.864 -1.20107 -3.52711 0
M  V30 3911 H 364.977 -3.07988 -3.66988 0
M  V30 3912 H 363.341 -1.56203 -2.01178 0
M  V30 3913 H 364.124 -3.12535 -1.42046 0
M  V30 3914 N 366.569 1.04691 -1.17803 0
M  V30 3915 C 367.499 2.14494 -0.92275 0
M  V30 3916 C 368.48 1.69546 0.137179 0
M  V30 3917 O 369.665 1.94195 -0.0141108 0
M  V30 3918 C 366.795 3.44491 -0.440803 0
M  V30 3919 C 365.749 4.03031 -1.4405 0
M  V30 3920 C 365.075 5.28432 -0.81631 0
M  V30 3921 C 366.375 4.39932 -2.81527 0
M  V30 3922 H 368.069 2.36107 -1.84103 0
M  V30 3923 H 365.615 1.1347 -0.886599 0
M  V30 3924 H 367.568 4.2066 -0.249602 0
M  V30 3925 H 366.292 3.22546 0.513025 0
M  V30 3926 H 364.951 3.28937 -1.61853 0
M  V30 3927 H 364.599 5.02792 0.144511 0
M  V30 3928 H 364.299 5.68559 -1.48371 0
M  V30 3929 H 365.823 6.07284 -0.635496 0
M  V30 3930 H 367.237 5.07113 -2.67412 0
M  V30 3931 H 365.634 4.9109 -3.44892 0
M  V30 3932 H 366.704 3.50045 -3.35554 0
M  V30 3933 N 368.047 0.979072 1.23499 0
M  V30 3934 C 368.997 0.489378 2.22686 0
M  V30 3935 C 369.981 -0.434871 1.54912 0
M  V30 3936 O 371.173 -0.263941 1.75021 0
M  V30 3937 C 368.302 -0.208178 3.42668 0
M  V30 3938 C 367.388 0.735563 4.17672 0
M  V30 3939 N 367.779 1.87763 4.69658 0
M  V30 3940 C 366.077 0.548625 4.42613 0
M  V30 3941 C 366.778 2.46886 5.26709 0
M  V30 3942 N 365.754 1.75287 5.14563 0
M  V30 3943 H 369.556 1.36062 2.60508 0
M  V30 3944 H 367.07 0.83958 1.39014 0
M  V30 3945 H 369.067 -0.576295 4.12898 0
M  V30 3946 H 367.727 -1.07572 3.06363 0
M  V30 3947 H 368.738 2.25885 4.66043 0
M  V30 3948 H 365.415 -0.274006 4.166 0
M  V30 3949 H 366.805 3.43326 5.77561 0
M  V30 3950 N 369.525 -1.3858 0.750561 0
M  V30 3951 C 370.75 -2.04997 0.314812 0
M  V30 3952 C 371.175 -1.56235 -1.04749 0
M  V30 3953 O 370.533 -0.712981 -1.66692 0
M  V30 3954 C 370.581 -3.58961 0.343415 0
M  V30 3955 O 369.685 -4.07025 -0.663628 0
M  V30 3956 H 369.026 -0.649081 0.139962 0
M  V30 3957 H 371.556 -1.77313 1.02084 0
M  V30 3958 H 371.566 -4.07542 0.193233 0
M  V30 3959 H 370.241 -3.93811 1.33738 0
M  V30 3960 H 368.818 -3.6982 -0.478307 0
M  V30 3961 N 371.003 -0.499398 -1.49478 0
M  V30 3962 C 371.933 0.269244 -2.31943 0
M  V30 3963 C 372.914 0.964054 -1.40143 0
M  V30 3964 O 374.099 0.955767 -1.69052 0
M  V30 3965 C 371.229 1.33504 -3.20615 0
M  V30 3966 C 370.183 0.760202 -4.21195 0
M  V30 3967 C 369.509 1.9264 -4.98792 0
M  V30 3968 C 370.809 -0.247661 -5.21712 0
M  V30 3969 H 372.503 -0.419082 -2.96452 0
M  V30 3970 H 370.049 -0.202988 -1.42562 0
M  V30 3971 H 372.002 1.88048 -3.77115 0
M  V30 3972 H 370.726 2.05253 -2.54045 0
M  V30 3973 H 369.385 0.23653 -3.65836 0
M  V30 3974 H 369.033 2.63154 -4.28671 0
M  V30 3975 H 368.733 1.54785 -5.66847 0
M  V30 3976 H 370.257 2.4762 -5.58137 0
M  V30 3977 H 371.671 0.209579 -5.72917 0
M  V30 3978 H 370.068 -0.541962 -5.97648 0
M  V30 3979 H 371.138 -1.16409 -4.7072 0
M  V30 3980 N 372.481 1.55866 -0.233164 0
M  V30 3981 C 373.73 1.97779 0.39579 0
M  V30 3982 C 374.043 1.12419 1.60066 0
M  V30 3983 O 375.249 1.44283 2.29988 0
M  V30 3984 C 373.705 3.5188 0.755556 0
M  V30 3985 C 373.313 4.45959 -0.427152 0
M  V30 3986 C 375.057 4.02479 1.34946 0
M  V30 3987 C 372.964 5.91383 -0.0443043 0
M  V30 3988 H 371.894 0.738592 0.15165 0
M  V30 3989 H 374.545 1.80486 -0.331212 0
M  V30 3990 H 372.927 3.64816 1.5403 0
M  V30 3991 H 374.101 4.44776 -1.20462 0
M  V30 3992 H 372.416 4.05765 -0.935068 0
M  V30 3993 H 375.013 5.08637 1.649 0
M  V30 3994 H 375.356 3.49014 2.26925 0
M  V30 3995 H 375.889 3.92813 0.62791 0
M  V30 3996 H 372.628 6.48857 -0.930874 0
M  V30 3997 H 372.148 5.95734 0.697238 0
M  V30 3998 H 373.827 6.45893 0.378334 0
M  V30 3999 N 373.959 -0.0401083 1.57549 0
M  V30 4000 C 375.208 -0.732108 1.87944 0
M  V30 4001 C 375.521 -1.77107 0.830206 0
M  V30 4002 O 376.727 -2.51488 1.02302 0
M  V30 4003 C 375.183 -1.35315 3.33494 0
M  V30 4004 C 374.791 -0.351105 4.46622 0
M  V30 4005 C 376.535 -2.02566 3.73051 0
M  V30 4006 C 374.442 -0.979859 5.83226 0
M  V30 4007 H 373.372 -0.277188 0.701201 0
M  V30 4008 H 376.023 0.0138501 1.83495 0
M  V30 4009 H 374.405 -2.14844 3.32653 0
M  V30 4010 H 375.579 0.416674 4.58912 0
M  V30 4011 H 373.894 0.218708 4.15825 0
M  V30 4012 H 376.491 -2.50441 4.72423 0
M  V30 4013 H 376.834 -2.83904 3.04474 0
M  V30 4014 H 377.367 -1.29827 3.76018 0
M  V30 4015 H 374.106 -0.206135 6.55176 0
M  V30 4016 H 373.626 -1.71774 5.74677 0
M  V30 4017 H 375.305 -1.49046 6.29599 0
M  V30 4018 N 375.437 -1.54477 -0.31217 0
M  V30 4019 C 376.665 -1.77205 -1.068 0
M  V30 4020 C 377.08 -0.526114 -1.81321 0
M  V30 4021 O 376.437 0.503647 -1.75413 0
M  V30 4022 C 376.488 -2.97253 -2.05725 0
M  V30 4023 O 376.209 -4.1703 -1.34228 0
M  V30 4024 C 377.71 -3.32281 -2.93435 0
M  V30 4025 H 374.93 -0.591287 -0.317208 0
M  V30 4026 H 377.474 -2.01398 -0.354834 0
M  V30 4027 H 375.629 -2.753 -2.72559 0
M  V30 4028 H 376.043 -4.84636 -2.00571 0
M  V30 4029 H 377.517 -4.19551 -3.58721 0
M  V30 4030 H 377.994 -2.49945 -3.61143 0
M  V30 4031 H 378.6 -3.56353 -2.32147 0
M  V30 4032 N 376.915 0.57481 -1.46744 0
M  V30 4033 C 378.163 1.33009 -1.52161 0
M  V30 4034 C 378.484 1.94185 -0.178092 0
M  V30 4035 O 377.754 1.7899 0.796196 0
M  V30 4036 H 376.334 0.493873 -0.560445 0
M  V30 4037 H 378.996 0.672589 -1.82927 0
M  V30 4038 H 378.092 2.13273 -2.27862 0
M  V30 4039 N 378.394 1.34581 0.820102 0
M  V30 4040 C 379.642 1.26845 1.57336 0
M  V30 4041 C 379.963 -0.160667 1.94337 0
M  V30 4042 O 379.233 -1.09396 1.6251 0
M  V30 4043 H 377.813 0.466514 0.583415 0
M  V30 4044 H 380.475 1.68526 0.979027 0
M  V30 4045 H 379.571 1.87513 2.4949 0
M  V30 4046 N 379.872 -1.04064 1.18357 0
M  V30 4047 C 381.097 -1.81454 1.00445 0
M  V30 4048 C 381.522 -1.82823 -0.442423 0
M  V30 4049 O 380.88 -1.24555 -1.31741 0
M  V30 4050 C 380.928 -3.24925 1.56384 0
M  V30 4051 O 380.032 -4.04856 0.785209 0
M  V30 4052 H 379.373 -0.560604 0.355835 0
M  V30 4053 H 381.903 -1.31059 1.57114 0
M  V30 4054 H 381.913 -3.75702 1.59097 0
M  V30 4055 H 380.588 -3.23244 2.61699 0
M  V30 4056 H 379.165 -3.63537 0.830399 0
M  V30 4057 N 381.35 -0.985608 -1.22978 0
M  V30 4058 C 382.599 -0.652881 -1.90841 0
M  V30 4059 C 382.912 0.817842 -1.77681 0
M  V30 4060 O 384.118 1.26185 -2.40395 0
M  V30 4061 C 382.574 -1.11717 -3.42122 0
M  V30 4062 C 382.182 -2.6126 -3.63933 0
M  V30 4063 C 383.926 -0.85843 -4.1573 0
M  V30 4064 C 381.833 -3.0133 -5.08876 0
M  V30 4065 H 380.763 -0.240491 -0.714619 0
M  V30 4066 H 383.414 -1.1942 -1.39324 0
M  V30 4067 H 381.796 -0.504027 -3.92779 0
M  V30 4068 H 382.97 -3.27858 -3.23799 0
M  V30 4069 H 381.285 -2.84937 -3.03644 0
M  V30 4070 H 383.882 -1.13359 -5.22546 0
M  V30 4071 H 384.225 0.205461 -4.15793 0
M  V30 4072 H 384.758 -1.43341 -3.71077 0
M  V30 4073 H 381.497 -4.06864 -5.13947 0
M  V30 4074 H 381.017 -2.3943 -5.49939 0
M  V30 4075 H 382.696 -2.92224 -5.77247 0
M  V30 4076 N 382.828 1.3818 -0.7579 0
M  V30 4077 C 383.778 2.27741 -0.108674 0
M  V30 4078 C 384.762 1.45415 0.688709 0
M  V30 4079 O 385.954 1.68108 0.553956 0
M  V30 4080 C 383.083 3.34313 0.780367 0
M  V30 4081 C 382.169 4.24093 -0.0240977 0
M  V30 4082 N 382.56 4.9451 -1.06271 0
M  V30 4083 C 380.858 4.45542 0.202049 0
M  V30 4084 C 381.559 5.60675 -1.54979 0
M  V30 4085 N 380.535 5.36684 -0.864348 0
M  V30 4086 H 384.337 2.79649 -0.904071 0
M  V30 4087 H 381.851 1.51133 -0.594346 0
M  V30 4088 H 383.848 3.97368 1.26114 0
M  V30 4089 H 382.508 2.83962 1.57467 0
M  V30 4090 H 383.519 4.97345 -1.44459 0
M  V30 4091 H 380.196 4.06091 0.96935 0
M  V30 4092 H 381.586 6.26992 -2.41517 0
M  V30 4093 N 384.306 0.507319 1.49211 0
M  V30 4094 C 385.717 0.0611118 1.866 0
M  V30 4095 C 386.068 -1.35488 1.41907 0
M  V30 4096 O 385.193 -2.0108 0.799726 0
M  V30 4097 C 385.788 0.104125 3.3864 0
M  V30 4098 C 384.347 -0.28677 3.75306 0
M  V30 4099 C 383.494 0.473893 2.73221 0
M  V30 4100 H 386.445 0.719775 1.41439 0
M  V30 4101 H 386.466 -0.689672 3.74198 0
M  V30 4102 H 385.978 1.13482 3.71138 0
M  V30 4103 H 384.079 -1.32046 3.48417 0
M  V30 4104 H 384.192 0.0370745 4.79086 0
M  V30 4105 H 382.556 -0.0770644 2.54583 0
M  V30 4106 H 383.339 1.50478 3.08563 0
M  V30 4107 N 385.784 -1.5574 0.241426 0
M  V30 4108 C 386.717 -2.17168 -0.700935 0
M  V30 4109 C 387.695 -1.12206 -1.1768 0
M  V30 4110 O 388.879 -1.40565 -1.25593 0
M  V30 4111 C 386.006 -2.76796 -1.95196 0
M  V30 4112 C 385.052 -3.94764 -1.61442 0
M  V30 4113 S 385.885 -5.30613 -0.72182 0
M  V30 4114 C 387.041 -5.93691 -1.98197 0
M  V30 4115 H 387.274 -2.96761 -0.178882 0
M  V30 4116 H 384.807 -1.54378 0.0259299 0
M  V30 4117 H 386.765 -3.11787 -2.67019 0
M  V30 4118 H 385.426 -1.9716 -2.44514 0
M  V30 4119 H 384.619 -4.35057 -2.54443 0
M  V30 4120 H 384.221 -3.61022 -0.976672 0
M  V30 4121 H 386.513 -6.10874 -2.92983 0
M  V30 4122 H 387.456 -6.89258 -1.62262 0
M  V30 4123 H 387.864 -5.22709 -2.13156 0
M  V30 4124 N 387.262 0.0317525 -1.57568 0
M  V30 4125 C 388.172 1.05021 -2.0978 0
M  V30 4126 C 389.188 1.39809 -1.03583 0
M  V30 4127 O 390.364 1.49182 -1.35302 0
M  V30 4128 C 387.429 2.33301 -2.56459 0
M  V30 4129 C 386.49 2.0512 -3.77127 0
M  V30 4130 C 385.723 3.27283 -4.2157 0
M  V30 4131 O 385.946 4.37861 -3.65559 0
M  V30 4132 O 384.88 3.13141 -5.14029 0
M  V30 4133 H 388.706 0.636505 -2.96955 0
M  V30 4134 H 386.291 0.248559 -1.47318 0
M  V30 4135 H 388.173 3.08722 -2.86825 0
M  V30 4136 H 386.848 2.73973 -1.72397 0
M  V30 4137 H 385.755 1.27276 -3.51784 0
M  V30 4138 H 387.088 1.69305 -4.62165 0
M  V30 4139 N 388.74 1.54641 0.303973 0
M  V30 4140 C 389.673 1.80263 1.3993 0
M  V30 4141 C 390.651 0.653657 1.48883 0
M  V30 4142 O 391.835 0.893284 1.6599 0
M  V30 4143 C 388.962 1.9367 2.77866 0
M  V30 4144 C 388.008 3.16078 2.86351 0
M  V30 4145 S 388.841 4.74219 2.4875 0
M  V30 4146 C 389.997 4.90558 3.88721 0
M  V30 4147 H 390.23 2.72886 1.17986 0
M  V30 4148 H 387.763 1.46014 0.501918 0
M  V30 4149 H 389.721 2.0208 3.57315 0
M  V30 4150 H 388.382 1.01991 2.9708 0
M  V30 4151 H 387.575 3.22252 3.87517 0
M  V30 4152 H 387.177 3.06099 2.14893 0
M  V30 4153 H 389.469 4.74398 4.83687 0
M  V30 4154 H 390.412 5.92651 3.87518 0
M  V30 4155 H 390.82 4.18728 3.78585 0
M  V30 4156 N 390.218 -0.567019 1.47046 0
M  V30 4157 C 391.128 -1.70247 1.6141 0
M  V30 4158 C 392.144 -1.66746 0.497157 0
M  V30 4159 O 393.32 -1.86371 0.763389 0
M  V30 4160 C 390.385 -3.06756 1.61561 0
M  V30 4161 C 389.446 -3.21399 2.84607 0
M  V30 4162 C 388.679 -4.51396 2.84741 0
M  V30 4163 O 388.902 -5.36255 1.94388 0
M  V30 4164 O 387.836 -4.69621 3.76483 0
M  V30 4165 H 391.662 -1.61073 2.57467 0
M  V30 4166 H 389.247 -0.735894 1.30019 0
M  V30 4167 H 391.129 -3.8801 1.64396 0
M  V30 4168 H 389.804 -3.16333 0.686684 0
M  V30 4169 H 388.711 -2.39579 2.8732 0
M  V30 4170 H 390.044 -3.16721 3.76761 0
M  V30 4171 N 391.696 -1.35014 -0.812953 0
M  V30 4172 C 392.629 -1.21761 -1.93001 0
M  V30 4173 C 393.607 -0.10694 -1.62248 0
M  V30 4174 O 394.791 -0.273891 -1.865 0
M  V30 4175 C 391.918 -0.873404 -3.27245 0
M  V30 4176 C 390.964 -1.99523 -3.76952 0
M  V30 4177 S 391.797 -3.61009 -3.95516 0
M  V30 4178 C 392.953 -3.28651 -5.32672 0
M  V30 4179 H 393.186 -2.16315 -2.03948 0
M  V30 4180 H 390.719 -1.20156 -0.969631 0
M  V30 4181 H 392.677 -0.68161 -4.04802 0
M  V30 4182 H 391.338 0.053971 -3.14054 0
M  V30 4183 H 390.531 -1.70838 -4.74163 0
M  V30 4184 H 390.133 -2.14503 -3.06373 0
M  V30 4185 H 392.425 -2.81085 -6.1644 0
M  V30 4186 H 393.368 -4.25039 -5.66346 0
M  V30 4187 H 393.776 -2.6458 -4.98656 0
M  V30 4188 N 393.175 1.03435 -1.18907 0
M  V30 4189 C 394.105 2.13503 -0.945448 0
M  V30 4190 C 395.086 1.69682 0.119189 0
M  V30 4191 O 396.271 1.94169 -0.034707 0
M  V30 4192 C 393.401 3.44004 -0.477316 0
M  V30 4193 C 392.355 4.0148 -1.48316 0
M  V30 4194 C 391.681 5.27537 -0.872311 0
M  V30 4195 C 392.981 4.36921 -2.86177 0
M  V30 4196 H 394.675 2.34141 -1.86597 0
M  V30 4197 H 392.221 1.12523 -0.898584 0
M  V30 4198 H 394.174 4.20372 -0.294204 0
M  V30 4199 H 392.898 3.23072 0.478786 0
M  V30 4200 H 391.557 3.27201 -1.65332 0
M  V30 4201 H 391.205 5.02917 0.0911752 0
M  V30 4202 H 390.905 5.66954 -1.54393 0
M  V30 4203 H 392.429 6.06576 -0.699871 0
M  V30 4204 H 393.843 5.04248 -2.72776 0
M  V30 4205 H 392.24 4.87405 -3.50081 0
M  V30 4206 H 393.31 3.46466 -3.39248 0
M  V30 4207 N 394.653 0.992116 1.22453 0
M  V30 4208 C 395.878 0.685644 1.95739 0
M  V30 4209 C 396.303 -0.743 1.72804 0
M  V30 4210 O 395.661 -1.50778 1.00676 0
M  V30 4211 C 395.709 0.996293 3.46564 0
M  V30 4212 O 394.813 0.0945512 4.12292 0
M  V30 4213 H 394.154 0.256694 0.612376 0
M  V30 4214 H 396.684 1.32888 1.5557 0
M  V30 4215 H 396.694 0.93781 3.97076 0
M  V30 4216 H 395.369 2.03733 3.62582 0
M  V30 4217 H 393.946 0.208451 3.72317 0
M  V30 4218 N 396.131 -1.37776 0.765217 0
M  V30 4219 C 397.061 -2.32945 0.160953 0
M  V30 4220 C 398.042 -1.55454 -0.690516 0
M  V30 4221 O 399.227 -1.83721 -0.629318 0
M  V30 4222 C 396.357 -3.39669 -0.724031 0
M  V30 4223 C 395.311 -4.27992 0.0256173 0
M  V30 4224 C 394.637 -5.25673 -0.978383 0
M  V30 4225 C 395.937 -5.08309 1.20082 0
M  V30 4226 H 397.631 -2.83728 0.955969 0
M  V30 4227 H 395.177 -1.36416 0.461149 0
M  V30 4228 H 397.13 -4.05219 -1.15652 0
M  V30 4229 H 395.854 -2.87396 -1.5515 0
M  V30 4230 H 394.513 -3.63964 0.438812 0
M  V30 4231 H 394.161 -4.69682 -1.80022 0
M  V30 4232 H 393.861 -5.85625 -0.481378 0
M  V30 4233 H 395.385 -5.94098 -1.40995 0
M  V30 4234 H 396.799 -5.67034 0.845307 0
M  V30 4235 H 395.196 -5.77554 1.62947 0
M  V30 4236 H 396.266 -4.41365 2.00811 0
M  V30 4237 N 397.609 -0.515225 -1.4894 0
M  V30 4238 C 398.856 0.024215 -2.02486 0
M  V30 4239 C 399.184 1.35671 -1.39368 0
M  V30 4240 O 398.439 1.88566 -0.523574 0
M  V30 4241 C 398.738 0.210595 -3.56779 0
M  V30 4242 C 398.404 -1.04569 -4.38607 0
M  V30 4243 C 397.066 -1.39002 -4.60686 0
M  V30 4244 C 399.418 -1.88008 -4.86109 0
M  V30 4245 C 396.746 -2.568 -5.27514 0
M  V30 4246 C 399.098 -3.04972 -5.54234 0
M  V30 4247 C 397.762 -3.39768 -5.74555 0
M  V30 4248 H 397.032 0.00886088 -0.740947 0
M  V30 4249 H 399.679 -0.678263 -1.79086 0
M  V30 4250 H 397.984 0.99572 -3.78936 0
M  V30 4251 H 399.681 0.642659 -3.95817 0
M  V30 4252 H 396.271 -0.767497 -4.21672 0
M  V30 4253 H 400.455 -1.62719 -4.68867 0
M  V30 4254 H 395.711 -2.8398 -5.41447 0
M  V30 4255 H 399.885 -3.69943 -5.90013 0
M  V30 4256 H 397.512 -4.31148 -6.26112 0
M  V30 4257 N 399.087 1.5561 -0.249682 0
M  V30 4258 C 400.312 2.03865 0.381305 0
M  V30 4259 C 400.737 1.12769 1.50548 0
M  V30 4260 O 400.095 0.121189 1.80895 0
M  V30 4261 C 400.143 3.50101 0.863816 0
M  V30 4262 O 399.247 3.62132 1.97318 0
M  V30 4263 H 398.588 0.658827 0.0827194 0
M  V30 4264 H 401.118 2.01105 -0.376552 0
M  V30 4265 H 401.128 3.90975 1.1663 0
M  V30 4266 H 399.803 4.1588 0.0411816 0
M  V30 4267 H 398.38 3.33155 1.67517 0
M  V30 4268 N 400.565 -0.0233959 1.57583 0
M  V30 4269 C 401.814 -0.712133 1.8871 0
M  V30 4270 C 402.127 -1.76217 0.848944 0
M  V30 4271 O 403.333 -2.50389 1.04964 0
M  V30 4272 C 401.789 -1.3177 3.3491 0
M  V30 4273 C 401.397 -0.303715 4.46969 0
M  V30 4274 C 403.141 -1.98598 3.75179 0
M  V30 4275 C 401.048 -0.917945 5.84233 0
M  V30 4276 H 399.978 -0.269735 0.704101 0
M  V30 4277 H 402.629 0.0333114 1.8347 0
M  V30 4278 H 401.011 -2.11304 3.34913 0
M  V30 4279 H 402.185 0.465325 4.58445 0
M  V30 4280 H 400.5 0.2628 4.1557 0
M  V30 4281 H 403.097 -2.45416 4.75053 0
M  V30 4282 H 403.44 -2.80659 3.07468 0
M  V30 4283 H 403.973 -1.25831 3.77374 0
M  V30 4284 H 400.712 -0.136633 6.55358 0
M  V30 4285 H 400.232 -1.65669 5.76467 0
M  V30 4286 H 401.911 -1.4236 6.31144 0
M  V30 4287 N 402.043 -1.548 -0.295768 0
M  V30 4288 C 403.454 -1.65274 -0.868411 0
M  V30 4289 C 403.805 -0.56481 -1.87894 0
M  V30 4290 O 402.93 0.29767 -2.14343 0
M  V30 4291 C 403.525 -2.99603 -1.58188 0
M  V30 4292 C 402.084 -3.12181 -2.10286 0
M  V30 4293 C 401.231 -2.6098 -0.93727 0
M  V30 4294 H 404.182 -1.58534 -0.0726422 0
M  V30 4295 H 404.203 -2.91319 -2.44772 0
M  V30 4296 H 403.715 -3.78764 -0.846151 0
M  V30 4297 H 401.816 -2.3775 -2.8689 0
M  V30 4298 H 401.929 -4.18415 -2.33379 0
M  V30 4299 H 400.293 -2.17564 -1.32431 0
M  V30 4300 H 401.076 -3.42623 -0.215414 0
M  V30 4301 N 403.521 0.559213 -1.47345 0
M  V30 4302 C 404.431 1.69388 -1.62311 0
M  V30 4303 C 405.447 1.6648 -0.505993 0
M  V30 4304 O 406.623 1.85964 -0.773262 0
M  V30 4305 C 403.688 3.05894 -1.63185 0
M  V30 4306 C 402.749 3.19885 -2.86307 0
M  V30 4307 C 401.982 4.49879 -2.87131 0
M  V30 4308 O 402.205 5.35217 -1.97229 0
M  V30 4309 O 401.139 4.67618 -3.78968 0
M  V30 4310 H 404.965 1.59706 -2.58317 0
M  V30 4311 H 402.55 0.728989 -1.30407 0
M  V30 4312 H 404.432 3.87133 -1.66451 0
M  V30 4313 H 403.107 3.15964 -0.70345 0
M  V30 4314 H 402.014 2.38052 -2.88587 0
M  V30 4315 H 403.347 3.14718 -3.78435 0
M  V30 4316 N 404.999 1.35443 0.805782 0
M  V30 4317 C 405.947 1.28465 1.93906 0
M  V30 4318 C 406.941 0.17943 1.68447 0
M  V30 4319 O 408.147 0.345459 1.76654 0
M  V30 4320 H 404.522 0.399528 0.637088 0
M  V30 4321 H 406.493 2.24206 1.96912 0
M  V30 4322 C 405.242 1.07432 3.30687 0
M  V30 4323 H 404.565 1.91716 3.50835 0
M  V30 4324 H 406.005 1.06591 4.10383 0
M  V30 4325 C 404.464 -0.22179 3.36169 0
M  V30 4326 O 404.994 -1.21731 3.82811 0
M  V30 4327 N 403.2 -0.260841 2.89427 0
M  V30 4328 H 402.747 0.549884 2.51663 0
M  V30 4329 H 402.705 -1.12777 2.93477 0
M  V30 4330 N 406.477 -1.02803 1.19454 0
M  V30 4331 C 407.702 -1.80378 1.02364 0
M  V30 4332 C 408.127 -1.83282 -0.423007 0
M  V30 4333 O 407.485 -1.25945 -1.30413 0
M  V30 4334 C 407.533 -3.23248 1.59821 0
M  V30 4335 O 406.637 -4.04 0.828105 0
M  V30 4336 H 405.978 -0.556799 0.361761 0
M  V30 4337 H 408.508 -1.29385 1.58495 0
M  V30 4338 H 408.518 -3.73994 1.63073 0
M  V30 4339 H 407.193 -3.2045 2.65113 0
M  V30 4340 H 405.77 -3.62635 0.86891 0
M  V30 4341 N 407.956 -0.998596 -1.21925 0
M  V30 4342 C 409.181 -0.696015 -1.95372 0
M  V30 4343 C 409.606 0.733826 -1.73195 0
M  V30 4344 O 408.964 1.50242 -1.01474 0
M  V30 4345 C 409.012 -1.01466 -3.4603 0
M  V30 4346 O 408.116 -0.116415 -4.12236 0
M  V30 4347 H 407.457 -0.259938 -0.611006 0
M  V30 4348 H 409.987 -1.33711 -1.54863 0
M  V30 4349 H 409.997 -0.958855 -3.96573 0
M  V30 4350 H 408.672 -2.05653 -3.61497 0
M  V30 4351 H 407.249 -0.228193 -3.72201 0
M  V30 4352 N 409.434 1.37368 -0.772513 0
M  V30 4353 C 410.344 2.34053 -0.160081 0
M  V30 4354 C 411.36 1.60216 0.678728 0
M  V30 4355 O 412.536 1.92303 0.59847 0
M  V30 4356 C 409.601 3.3939 0.708182 0
M  V30 4357 C 408.662 4.29048 -0.147172 0
M  V30 4358 C 407.895 5.29354 0.679744 0
M  V30 4359 O 408.118 5.3723 1.91678 0
M  V30 4360 O 407.052 6.01835 0.0885444 0
M  V30 4361 H 410.878 2.88159 -0.959053 0
M  V30 4362 H 408.463 1.39543 -0.533685 0
M  V30 4363 H 410.345 4.03839 1.20384 0
M  V30 4364 H 409.02 2.8761 1.48533 0
M  V30 4365 H 407.927 3.67697 -0.689205 0
M  V30 4366 H 409.26 4.84134 -0.887423 0
M  V30 4367 N 410.912 0.523116 1.48665 0
M  V30 4368 C 412.137 -0.0117284 2.07397 0
M  V30 4369 C 412.562 -1.28031 1.37803 0
M  V30 4370 O 411.92 -1.75836 0.441762 0
M  V30 4371 C 411.968 -0.225786 3.59892 0
M  V30 4372 O 411.072 -1.29592 3.91509 0
M  V30 4373 H 410.413 0.0360673 0.66302 0
M  V30 4374 H 412.943 0.729066 1.9117 0
M  V30 4375 H 412.953 -0.450552 4.05505 0
M  V30 4376 H 411.628 0.700944 4.09951 0
M  V30 4377 H 410.205 -1.05436 3.57684 0
M  V30 4378 N 412.39 -1.55475 0.257931 0
M  V30 4379 C 413.322 -2.19192 -0.669881 0
M  V30 4380 C 414.335 -1.17148 -1.1305 0
M  V30 4381 O 415.524 -1.43959 -1.05537 0
M  V30 4382 C 412.624 -2.79016 -1.92363 0
M  V30 4383 C 411.797 -4.06586 -1.61265 0
M  V30 4384 C 410.856 -4.50622 -2.7171 0
M  V30 4385 O 409.882 -5.16765 -2.38627 0
M  V30 4386 N 411.084 -4.19325 -4.01431 0
M  V30 4387 H 413.849 -2.99441 -0.124635 0
M  V30 4388 H 411.41 -1.6171 0.0783311 0
M  V30 4389 H 413.402 -3.05427 -2.65511 0
M  V30 4390 H 411.972 -2.0286 -2.37837 0
M  V30 4391 H 411.192 -3.87646 -0.715811 0
M  V30 4392 H 412.48 -4.89737 -1.37967 0
M  V30 4393 H 411.878 -3.66247 -4.31138 0
M  V30 4394 H 410.435 -4.50547 -4.7101 0
M  V30 4395 N 413.868 0.0150385 -1.57593 0
M  V30 4396 C 415.093 0.718067 -1.94573 0
M  V30 4397 C 415.518 1.6734 -0.859005 0
M  V30 4398 O 414.876 1.80362 0.184147 0
M  V30 4399 C 414.924 1.43918 -3.30636 0
M  V30 4400 O 414.028 2.55299 -3.23876 0
M  V30 4401 H 413.369 0.192125 -0.635597 0
M  V30 4402 H 415.899 -0.0336708 -2.04572 0
M  V30 4403 H 415.909 1.80598 -3.65853 0
M  V30 4404 H 414.584 0.738619 -4.09289 0
M  V30 4405 H 413.161 2.21058 -3.00312 0
M  V30 4406 N 415.346 1.54954 0.287554 0
M  V30 4407 C 416.595 1.74081 1.01877 0
M  V30 4408 C 416.908 0.541135 1.87966 0
M  V30 4409 O 418.114 0.614491 2.64455 0
M  V30 4410 C 416.57 3.08042 1.86113 0
M  V30 4411 C 416.178 4.35531 1.04961 0
M  V30 4412 C 417.922 3.36523 2.58752 0
M  V30 4413 C 415.829 5.60538 1.88551 0
M  V30 4414 H 414.759 0.64884 0.384087 0
M  V30 4415 H 417.41 1.81426 0.275101 0
M  V30 4416 H 415.792 2.94696 2.64519 0
M  V30 4417 H 416.966 4.59751 0.31074 0
M  V30 4418 H 415.281 4.14085 0.43843 0
M  V30 4419 H 417.878 4.27122 3.21668 0
M  V30 4420 H 418.221 2.56 3.28283 0
M  V30 4421 H 418.754 3.50901 1.87386 0
M  V30 4422 H 415.493 6.43767 1.23466 0
M  V30 4423 H 415.013 5.40483 2.60074 0
M  V30 4424 H 416.692 5.98297 2.46273 0
M  V30 4425 N 416.824 -0.551391 1.4764 0
M  V30 4426 C 417.772 -1.67896 1.60978 0
M  V30 4427 C 418.766 -1.62549 0.476877 0
M  V30 4428 O 419.972 -1.67664 0.654878 0
M  V30 4429 H 416.347 -0.555649 0.506713 0
M  V30 4430 H 418.318 -1.53784 2.55721 0
M  V30 4431 C 417.067 -3.06234 1.64669 0
M  V30 4432 H 416.39 -3.11033 2.51194 0
M  V30 4433 H 417.83 -3.84804 1.7805 0
M  V30 4434 C 416.289 -3.34737 0.381115 0
M  V30 4435 O 416.819 -3.98381 -0.515297 0
M  V30 4436 N 415.025 -2.8944 0.259354 0
M  V30 4437 H 414.572 -2.37827 0.98976 0
M  V30 4438 H 414.53 -3.08882 -0.586464 0
M  V30 4439 N 418.302 -1.35869 -0.798587 0
M  V30 4440 C 419.55 -1.29332 -1.55298 0
M  V30 4441 C 419.871 0.129729 -1.94568 0
M  V30 4442 O 419.141 1.06796 -1.6423 0
M  V30 4443 H 417.721 -0.475737 -0.57592 0
M  V30 4444 H 420.383 -1.70062 -0.952093 0
M  V30 4445 H 419.479 -1.91458 -2.46476 0
M  V30 4446 N 419.78 1.02168 -1.19998 0
M  V30 4447 C 420.71 2.12488 -0.96804 0
M  V30 4448 C 421.691 1.69799 0.101185 0
M  V30 4449 O 422.876 1.94121 -0.0552993 0
M  V30 4450 C 420.006 3.43479 -0.513776 0
M  V30 4451 C 418.96 3.99884 -1.52566 0
M  V30 4452 C 418.286 5.26582 -0.928214 0
M  V30 4453 C 419.586 4.33861 -2.90795 0
M  V30 4454 H 421.28 2.32149 -1.89069 0
M  V30 4455 H 418.826 1.11564 -0.910468 0
M  V30 4456 H 420.779 4.20036 -0.338774 0
M  V30 4457 H 419.503 3.23561 0.444493 0
M  V30 4458 H 418.162 3.25429 -1.68794 0
M  V30 4459 H 417.81 5.02986 0.0378289 0
M  V30 4460 H 417.51 5.65284 -1.60397 0
M  V30 4461 H 419.034 6.05799 -0.764167 0
M  V30 4462 H 420.448 5.01327 -2.78109 0
M  V30 4463 H 418.845 4.83664 -3.55231 0
M  V30 4464 H 419.915 3.42848 -3.42904 0
M  V30 4465 O 421.297 1.13266 1.15122 0
M  V30 4466 H 421.988 0.848237 1.7414 0
M  V30 END ATOM
M  V30 BEGIN BOND
M  V30 END BOND
M  V30 END CTAB
M  END
$$$$
