drugbank_target|Q9H2X6 Homeodomain-interacting protein kinase 2 (DB12010)
 OpenBabel12092121153D

  0  0  0     0  0            999 V3000
M  V30 BEGIN CTAB
M  V30 COUNTS 18248 18478 0 0 0
M  V30 BEGIN ATOM
M  V30 1 H -0.908 1.98254 -0.117106 0
M  V30 2 N 0 1.576 0 0
M  V30 3 C 0.933 2.03868 1.02534 0
M  V30 4 C 1.911 0.928543 1.3348 0
M  V30 5 O 3.095 1.19667 1.45644 0
M  V30 6 C 0.222 2.43627 2.35294 0
M  V30 7 C -0.732 3.65373 2.2001 0
M  V30 8 S 0.101 5.13292 1.52614 0
M  V30 9 C 1.257 5.56322 2.86805 0
M  V30 10 H 1.49 2.90518 0.631377 0
M  V30 11 H -0.977 1.52953 0.210867 0
M  V30 12 H 0.981 2.67203 3.11629 0
M  V30 13 H -0.358 1.57376 2.7183 0
M  V30 14 H -1.165 3.90944 3.18086 0
M  V30 15 H -1.563 3.418 1.51819 0
M  V30 16 H 0.729 5.58782 3.83104 0
M  V30 17 H 1.672 6.56266 2.65933 0
M  V30 18 H 2.08 4.83886 2.90714 0
M  V30 19 N 1.4781 -0.272755 1.55222 0
M  V30 20 C 2.4411 -1.32041 1.87344 0
M  V30 21 C 3.4411 -1.42342 0.74803 0
M  V30 22 O 4.6311 -1.41488 1.0162 0
M  V30 23 C 1.7631 -2.70173 2.07893 0
M  V30 24 H 2.9561 -1.04789 2.80997 0
M  V30 25 H 0.5091 -0.51083 1.47717 0
M  V30 26 H 1.2441 -3.02605 1.16622 0
M  V30 27 H 1.0291 -2.64082 2.89833 0
M  V30 28 H 2.5191 -3.45869 2.34017 0
M  V30 29 N 2.9562 -1.48159 -0.537278 0
M  V30 30 C 4.3672 -1.49429 -1.11928 0
M  V30 31 C 4.7182 -0.26 -1.9447 0
M  V30 32 O 3.8432 0.633489 -2.0692 0
M  V30 33 C 4.4382 -2.70758 -2.03656 0
M  V30 34 C 2.9972 -2.74923 -2.57088 0
M  V30 35 C 2.1442 -2.42835 -1.3389 0
M  V30 36 H 5.0952 -1.55381 -0.322886 0
M  V30 37 H 5.1162 -2.48861 -2.87834 0
M  V30 38 H 4.6282 -3.60575 -1.43553 0
M  V30 39 H 2.7292 -1.89296 -3.20933 0
M  V30 40 H 2.8422 -3.76157 -2.9672 0
M  V30 41 H 1.2062 -1.93836 -1.65226 0
M  V30 42 H 1.9892 -3.34884 -0.755504 0
M  V30 43 N 4.4343 0.785586 -1.36625 0
M  V30 44 C 5.6803 1.54591 -1.31261 0
M  V30 45 C 6.0133 1.93906 0.106823 0
M  V30 46 O 5.2883 1.63007 1.06108 0
M  V30 47 C 5.5713 2.82038 -2.23889 0
M  V30 48 C 5.4243 2.49066 -3.74548 0
M  V30 49 C 6.7433 3.83887 -2.15217 0
M  V30 50 H 3.8623 0.560846 -0.478143 0
M  V30 51 H 6.5043 0.902278 -1.67209 0
M  V30 52 H 4.6543 3.36961 -1.93363 0
M  V30 53 H 6.3263 2.00164 -4.15611 0
M  V30 54 H 4.5693 1.81954 -3.93796 0
M  V30 55 H 5.2403 3.40109 -4.34776 0
M  V30 56 H 7.7163 3.38421 -2.42096 0
M  V30 57 H 6.5923 4.70806 -2.82193 0
M  V30 58 H 6.8533 4.27131 -1.14068 0
M  V30 59 N 5.9124 1.20967 1.01018 0
M  V30 60 C 7.1424 1.04803 1.78044 0
M  V30 61 C 7.5504 -0.405462 1.84804 0
M  V30 62 O 6.8934 -1.2932 1.30468 0
M  V30 63 C 6.9554 1.56377 3.23707 0
M  V30 64 C 6.6194 3.04767 3.40538 0
M  V30 65 C 7.6164 4.02366 3.29239 0
M  V30 66 C 5.3014 3.43862 3.66147 0
M  V30 67 C 7.2954 5.37049 3.43304 0
M  V30 68 C 4.9824 4.78699 3.79855 0
M  V30 69 C 5.9804 5.75101 3.68439 0
M  V30 70 O 5.6684 7.07493 3.81719 0
M  V30 71 H 5.4004 0.368778 0.56655 0
M  V30 72 H 7.9544 1.60642 1.27997 0
M  V30 73 H 6.1844 0.949297 3.74867 0
M  V30 74 H 7.8734 1.36136 3.8239 0
M  V30 75 H 8.6394 3.73506 3.09384 0
M  V30 76 H 4.5184 2.69364 3.74118 0
M  V30 77 H 8.0624 6.12277 3.34309 0
M  V30 78 H 3.9594 5.07247 3.99213 0
M  V30 79 H 4.7274 7.1483 3.98697 0
M  V30 80 N 7.3905 -1.2043 1.01659 0
M  V30 81 C 8.3005 -2.2689 0.596484 0
M  V30 82 C 9.3165 -1.70107 -0.36599 0
M  V30 83 O 10.4925 -2.00117 -0.226942 0
M  V30 84 C 7.5575 -3.4665 -0.0586659 0
M  V30 85 C 6.6185 -4.18662 0.949751 0
M  V30 86 C 5.8515 -5.32705 0.32577 0
M  V30 87 O 6.0745 -5.63656 -0.874509 0
M  V30 88 O 5.0085 -5.92803 1.04249 0
M  V30 89 H 8.8345 -2.65041 1.4828 0
M  V30 90 H 6.4195 -1.27048 0.786082 0
M  V30 91 H 8.3015 -4.19256 -0.424564 0
M  V30 92 H 6.9765 -3.10375 -0.91918 0
M  V30 93 H 5.8835 -3.48229 1.36702 0
M  V30 94 H 7.2165 -4.58878 1.78023 0
M  V30 95 N 8.8686 -0.792821 -1.36206 0
M  V30 96 C 10.1166 -0.366062 -1.98757 0
M  V30 97 C 10.4376 1.0668 -1.63231 0
M  V30 98 O 9.7076 1.73587 -0.907978 0
M  V30 99 H 8.2876 -0.132364 -0.735179 0
M  V30 100 H 10.9496 -1.01562 -1.66347 0
M  V30 101 H 10.0456 -0.460638 -3.08682 0
M  V30 102 N 10.3467 1.47872 -0.545128 0
M  V30 103 C 11.2797 2.2675 0.256885 0
M  V30 104 C 12.2577 1.33293 0.931228 0
M  V30 105 O 13.4417 1.62657 0.95262 0
M  V30 106 C 10.5687 3.09976 1.36501 0
M  V30 107 C 9.6147 4.1892 0.800496 0
M  V30 108 S 10.4477 5.34397 -0.343505 0
M  V30 109 C 11.6037 6.21186 0.766733 0
M  V30 110 H 11.8367 2.94425 -0.412479 0
M  V30 111 H 9.3697 1.50806 -0.331204 0
M  V30 112 H 11.3277 3.585 1.9997 0
M  V30 113 H 9.9887 2.41686 2.00616 0
M  V30 114 H 9.1817 4.76836 1.63227 0
M  V30 115 H 8.7837 3.73215 0.242217 0
M  V30 116 H 11.0757 6.56804 1.66178 0
M  V30 117 H 12.0187 7.07742 0.225204 0
M  V30 118 H 12.4267 5.54574 1.05396 0
M  V30 119 N 11.8248 0.280983 1.55075 0
M  V30 120 C 12.7878 -0.590896 2.21452 0
M  V30 121 C 13.7878 -1.07682 1.19421 0
M  V30 122 O 14.9778 -0.97605 1.44288 0
M  V30 123 C 12.1098 -1.81587 2.88511 0
M  V30 124 H 13.3028 -0.0112554 2.99898 0
M  V30 125 H 10.8558 0.0316438 1.56268 0
M  V30 126 H 11.5908 -2.43587 2.14093 0
M  V30 127 H 11.3758 -1.4753 3.63287 0
M  V30 128 H 12.8658 -2.43575 3.39206 0
M  V30 129 N 13.3029 -1.57598 0.00835791 0
M  V30 130 C 14.5279 -1.95617 -0.689103 0
M  V30 131 C 14.9529 -0.883753 -1.66046 0
M  V30 132 O 14.3109 0.157352 -1.80616 0
M  V30 133 C 14.3589 -3.32736 -1.38994 0
M  V30 134 O 13.4629 -3.27631 -2.50463 0
M  V30 135 H 12.8039 -0.638379 -0.182668 0
M  V30 136 H 15.3339 -2.045 0.064036 0
M  V30 137 H 15.3439 -3.68494 -1.75147 0
M  V30 138 H 14.0189 -4.1034 -0.677778 0
M  V30 139 H 12.5959 -3.03561 -2.16576 0
M  V30 140 N 14.781 0.264519 -1.55364 0
M  V30 141 C 15.731 1.32966 -1.85214 0
M  V30 142 C 16.715 1.44306 -0.711653 0
M  V30 143 O 17.907 1.47844 -0.973192 0
M  V30 144 C 15.036 2.68839 -2.13495 0
M  V30 145 C 14.122 2.61575 -3.33825 0
M  V30 146 N 14.513 2.23933 -4.53528 0
M  V30 147 C 12.811 2.92621 -3.36584 0
M  V30 148 C 13.512 2.26868 -5.35636 0
M  V30 149 N 12.488 2.65677 -4.74254 0
M  V30 150 H 16.29 1.02884 -2.75304 0
M  V30 151 H 13.804 0.473157 -1.55354 0
M  V30 152 H 15.801 3.45685 -2.33039 0
M  V30 153 H 14.461 2.99802 -1.24694 0
M  V30 154 H 15.472 1.95769 -4.79474 0
M  V30 155 H 12.149 3.2824 -2.58002 0
M  V30 156 H 13.539 2.00254 -6.41364 0
M  V30 157 N 16.2591 1.48442 0.529413 0
M  V30 158 C 17.5051 1.5672 1.28711 0
M  V30 159 C 17.8381 0.2406 1.92704 0
M  V30 160 O 17.1131 -0.753454 1.79313 0
M  V30 161 C 17.3961 2.70587 2.37603 0
M  V30 162 C 17.2491 4.12953 1.78297 0
M  V30 163 C 18.5681 2.80212 3.39366 0
M  V30 164 H 15.6871 0.570474 0.466613 0
M  V30 165 H 18.3291 1.80617 0.589706 0
M  V30 166 H 16.4791 2.50342 2.97088 0
M  V30 167 H 18.1511 4.44639 1.22858 0
M  V30 168 H 16.3941 4.19927 1.0883 0
M  V30 169 H 17.0651 4.88448 2.57144 0
M  V30 170 H 19.5411 2.98553 2.89836 0
M  V30 171 H 18.4171 3.61611 4.12951 0
M  V30 172 H 18.6781 1.88393 3.99951 0
M  V30 173 N 17.7372 -0.778329 1.37039 0
M  V30 174 C 18.6692 -1.90034 1.2814 0
M  V30 175 C 19.6822 -1.61585 0.198558 0
M  V30 176 O 20.8712 -1.72625 0.454175 0
M  V30 177 C 17.9712 -3.25108 0.956968 0
M  V30 178 C 17.1442 -3.81253 2.14394 0
M  V30 179 C 16.2032 -4.94789 1.79082 0
M  V30 180 O 15.2292 -5.10721 2.51301 0
M  V30 181 N 16.4312 -5.75878 0.731043 0
M  V30 182 H 19.1962 -1.98186 2.24816 0
M  V30 183 H 16.7572 -0.957129 1.30578 0
M  V30 184 H 18.7492 -3.9857 0.701701 0
M  V30 185 H 17.3192 -3.125 0.0789812 0
M  V30 186 H 16.5392 -2.99647 2.56135 0
M  V30 187 H 17.8272 -4.15495 2.93668 0
M  V30 188 H 17.2252 -5.65547 0.131618 0
M  V30 189 H 15.7822 -6.49596 0.535622 0
M  V30 190 N 19.2153 -1.21501 -1.00376 0
M  V30 191 C 20.4613 -1.03452 -1.74429 0
M  V30 192 C 20.7943 0.430764 -1.89362 0
M  V30 193 O 20.0693 1.31962 -1.42886 0
M  V30 194 C 20.3523 -1.73375 -3.15615 0
M  V30 195 C 20.2053 -3.27431 -3.08397 0
M  V30 196 C 21.5243 -1.47732 -4.14564 0
M  V30 197 H 18.6433 -0.377226 -0.633143 0
M  V30 198 H 21.2853 -1.49693 -1.17013 0
M  V30 199 H 19.4353 -1.34064 -3.64636 0
M  V30 200 H 21.1073 -3.76119 -2.67081 0
M  V30 201 H 19.3503 -3.5767 -2.45468 0
M  V30 202 H 20.0213 -3.71524 -4.08258 0
M  V30 203 H 22.4973 -1.8186 -3.74254 0
M  V30 204 H 21.3733 -1.99169 -5.11491 0
M  V30 205 H 21.6343 -0.407589 -4.40217 0
M  V30 206 N 20.6934 1.19889 -1.02296 0
M  V30 207 C 21.9404 1.8942 -0.715972 0
M  V30 208 C 22.2684 1.79251 0.754944 0
M  V30 209 O 21.5234 1.17526 1.56481 0
M  V30 210 C 21.8224 3.39883 -1.10518 0
M  V30 211 C 21.4884 3.70254 -2.57337 0
M  V30 212 C 20.1504 3.78254 -2.97452 0
M  V30 213 C 22.5024 3.84052 -3.52354 0
M  V30 214 C 19.8304 3.97514 -4.31509 0
M  V30 215 C 22.1824 4.04824 -4.86108 0
M  V30 216 C 20.8464 4.11054 -5.25919 0
M  V30 217 H 20.1164 0.693138 -0.261993 0
M  V30 218 H 22.7634 1.42012 -1.28472 0
M  V30 219 H 21.0684 3.8915 -0.454953 0
M  V30 220 H 22.7654 3.9199 -0.845261 0
M  V30 221 H 19.3554 3.64632 -2.25258 0
M  V30 222 H 23.5394 3.77221 -3.22518 0
M  V30 223 H 18.7954 4.00574 -4.61898 0
M  V30 224 H 22.9694 4.14442 -5.59653 0
M  V30 225 H 20.5964 4.2573 -6.29808 0
M  V30 226 N 22.1715 0.800033 1.35784 0
M  V30 227 C 23.3965 0.388511 2.03729 0
M  V30 228 C 23.8215 -0.990481 1.5991 0
M  V30 229 O 23.1795 -1.64013 0.772612 0
M  V30 230 C 23.2275 0.4726 3.5749 0
M  V30 231 O 22.3315 -0.51646 4.09153 0
M  V30 232 H 21.6725 0.163271 0.643614 0
M  V30 233 H 24.2025 1.0841 1.73518 0
M  V30 234 H 24.2125 0.34003 4.06581 0
M  V30 235 H 22.8875 1.47848 3.88734 0
M  V30 236 H 21.4645 -0.344673 3.71304 0
M  V30 237 N 23.6496 -1.47581 0.552962 0
M  V30 238 C 25.0606 -1.86324 0.118463 0
M  V30 239 C 25.4116 -1.46006 -1.3106 0
M  V30 240 O 24.5366 -0.861182 -1.98526 0
M  V30 241 C 25.1316 -3.3816 0.20821 0
M  V30 242 C 23.6906 -3.7601 -0.171226 0
M  V30 243 C 22.8376 -2.71634 0.557686 0
M  V30 244 H 25.7886 -1.39159 0.762928 0
M  V30 245 H 25.8096 -3.76141 -0.574278 0
M  V30 246 H 25.3216 -3.67473 1.24841 0
M  V30 247 H 23.4226 -3.52313 -1.21269 0
M  V30 248 H 23.5356 -4.78745 0.184379 0
M  V30 249 H 21.8996 -2.547 0.00125792 0
M  V30 250 H 22.6826 -3.0379 1.59896 0
M  V30 251 N 25.1277 -0.289203 -1.54924 0
M  V30 252 C 26.0777 0.606939 -2.19773 0
M  V30 253 C 27.0617 1.10783 -1.16687 0
M  V30 254 O 28.2537 1.05057 -1.4245 0
M  V30 255 C 25.3827 1.78398 -2.93307 0
M  V30 256 C 24.4687 1.29961 -4.03697 0
M  V30 257 N 24.8597 0.532377 -5.0299 0
M  V30 258 C 23.1577 1.58136 -4.17024 0
M  V30 259 C 23.8587 0.275912 -5.81045 0
M  V30 260 N 22.8347 0.852365 -5.36876 0
M  V30 261 H 26.6367 0.0130779 -2.93897 0
M  V30 262 H 24.1507 -0.09341 -1.62131 0
M  V30 263 H 26.1477 2.43741 -3.38225 0
M  V30 264 H 24.8077 2.38166 -2.20697 0
M  V30 265 H 25.8187 0.17838 -5.17593 0
M  V30 266 H 22.4957 2.18738 -3.55612 0
M  V30 267 H 23.8857 -0.339502 -6.71042 0
M  V30 268 N 26.6058 1.57591 -0.0167156 0
M  V30 269 C 27.8338 1.95575 0.675128 0
M  V30 270 C 28.2488 0.892542 1.6637 0
M  V30 271 O 27.6058 -0.126912 1.82058 0
M  V30 272 C 27.6568 3.33608 1.39239 0
M  V30 273 O 27.3778 4.3585 0.443444 0
M  V30 274 C 28.8788 3.86151 2.17721 0
M  V30 275 H 26.0988 0.644423 0.186978 0
M  V30 276 H 28.6428 2.0437 -0.0728 0
M  V30 277 H 26.7978 3.2607 2.09182 0
M  V30 278 H 27.2118 5.158 0.951358 0
M  V30 279 H 28.6858 4.85114 2.63379 0
M  V30 280 H 29.1628 3.19738 3.01105 0
M  V30 281 H 29.7688 3.96918 1.52761 0
M  V30 282 N 28.0839 -0.256276 1.55502 0
M  V30 283 C 29.0139 -1.32102 1.92539 0
M  V30 284 C 29.9949 -1.50684 0.789194 0
M  V30 285 O 31.1799 -1.63449 1.04872 0
M  V30 286 C 28.3099 -2.67752 2.21192 0
M  V30 287 C 27.2639 -2.63878 3.36975 0
M  V30 288 C 26.5899 -4.03236 3.51147 0
M  V30 289 C 27.8899 -2.21682 4.72921 0
M  V30 290 H 29.5839 -1.01351 2.81724 0
M  V30 291 H 27.1299 -0.486105 1.35547 0
M  V30 292 H 29.0829 -3.42365 2.45691 0
M  V30 293 H 27.8069 -3.0012 1.28824 0
M  V30 294 H 26.4659 -1.91722 3.12471 0
M  V30 295 H 26.1139 -4.32854 2.56216 0
M  V30 296 H 25.8139 -4.01535 4.29003 0
M  V30 297 H 27.3379 -4.79563 3.77957 0
M  V30 298 H 28.7519 -2.86023 4.96854 0
M  V30 299 H 27.1489 -2.3111 5.53812 0
M  V30 300 H 28.2189 -1.16833 4.70615 0
M  V30 301 N 29.562 -1.4872 -0.521534 0
M  V30 302 C 30.494 -1.59968 -1.64143 0
M  V30 303 C 31.507 -0.483463 -1.55456 0
M  V30 304 O 32.696 -0.75467 -1.61762 0
M  V30 305 C 29.796 -1.52127 -3.02838 0
M  V30 306 C 28.969 -2.78932 -3.36921 0
M  V30 307 C 28.028 -2.64428 -4.54933 0
M  V30 308 O 27.054 -3.38331 -4.57735 0
M  V30 309 N 28.256 -1.74606 -5.53618 0
M  V30 310 H 31.021 -2.56548 -1.54929 0
M  V30 311 H 28.582 -1.45551 -0.708988 0
M  V30 312 H 30.574 -1.40106 -3.79674 0
M  V30 313 H 29.144 -0.634868 -3.06085 0
M  V30 314 H 28.364 -3.05455 -2.4918 0
M  V30 315 H 29.652 -3.63041 -3.56481 0
M  V30 316 H 29.05 -1.13782 -5.54139 0
M  V30 317 H 27.607 -1.6852 -6.29638 0
M  V30 318 N 31.0401 0.771051 -1.3745 0
M  V30 319 C 32.2651 1.56529 -1.36065 0
M  V30 320 C 32.6901 1.88029 0.0515859 0
M  V30 321 O 32.0481 1.49282 1.02882 0
M  V30 322 C 32.0961 2.85187 -2.20683 0
M  V30 323 O 31.2001 3.79593 -1.61193 0
M  V30 324 H 30.5411 0.47411 -0.464883 0
M  V30 325 H 33.0711 0.954269 -1.80983 0
M  V30 326 H 33.0811 3.34283 -2.33921 0
M  V30 327 H 31.7561 2.61588 -3.23334 0
M  V30 328 H 30.3331 3.38239 -1.56999 0
M  V30 329 N 32.5182 1.22032 0.997298 0
M  V30 330 C 33.7432 1.06921 1.77715 0
M  V30 331 C 34.1682 -0.376226 1.84299 0
M  V30 332 O 33.5262 -1.27165 1.29223 0
M  V30 333 C 33.5742 1.67996 3.19076 0
M  V30 334 O 32.6782 0.930653 4.01762 0
M  V30 335 H 32.0192 0.375814 0.547412 0
M  V30 336 H 34.5492 1.61737 1.25309 0
M  V30 337 H 34.5592 1.72538 3.69723 0
M  V30 338 H 33.2342 2.73182 3.13599 0
M  V30 339 H 31.8112 0.960917 3.60307 0
M  V30 340 N 33.9963 -1.19345 1.0293 0
M  V30 341 C 34.9593 -2.20793 0.615069 0
M  V30 342 C 35.9593 -1.57553 -0.321533 0
M  V30 343 O 37.1493 -1.73862 -0.108483 0
M  V30 344 C 34.2813 -3.40754 -0.0999222 0
M  V30 345 H 35.4743 -2.58955 1.51269 0
M  V30 346 H 33.0273 -1.3303 0.820534 0
M  V30 347 H 33.7623 -3.0811 -1.01187 0
M  V30 348 H 33.5473 -3.87889 0.57309 0
M  V30 349 H 35.0373 -4.15898 -0.376645 0
M  V30 350 N 35.4744 -0.807222 -1.35358 0
M  V30 351 C 36.7214 -0.387888 -1.9875 0
M  V30 352 C 37.0494 1.04509 -1.64037 0
M  V30 353 O 36.3044 1.73986 -0.895946 0
M  V30 354 C 36.6034 -0.519036 -3.53611 0
M  V30 355 C 36.2694 -1.91542 -4.08194 0
M  V30 356 C 34.9314 -2.29745 -4.22813 0
M  V30 357 C 37.2834 -2.82896 -4.37744 0
M  V30 358 C 34.6114 -3.58668 -4.643 0
M  V30 359 C 36.9634 -4.11265 -4.8067 0
M  V30 360 C 35.6274 -4.49466 -4.93494 0
M  V30 361 H 34.8974 -0.141938 -0.727279 0
M  V30 362 H 37.5444 -1.02814 -1.6156 0
M  V30 363 H 35.8494 0.204658 -3.91265 0
M  V30 364 H 37.5464 -0.175345 -4.00616 0
M  V30 365 H 34.1364 -1.60862 -3.97268 0
M  V30 366 H 38.3204 -2.54629 -4.26002 0
M  V30 367 H 33.5764 -3.88113 -4.72418 0
M  V30 368 H 37.7504 -4.82153 -5.02496 0
M  V30 369 H 35.3774 -5.49418 -5.25399 0
M  V30 370 N 36.9525 1.47285 -0.560781 0
M  V30 371 C 38.1925 2.0436 -0.0404627 0
M  V30 372 C 38.5565 1.42534 1.28639 0
M  V30 373 O 39.7575 1.90677 1.89462 0
M  V30 374 C 38.0285 3.57369 0.0471856 0
M  V30 375 S 39.5875 4.3579 0.513109 0
M  V30 376 H 36.4055 0.710492 -0.0268674 0
M  V30 377 H 39.0075 1.80611 -0.748323 0
M  V30 378 H 37.7115 3.9989 -0.922817 0
M  V30 379 H 37.2425 3.8562 0.778491 0
M  V30 380 H 39.2575 4.63476 1.77212 0
M  V30 381 N 38.4306 0.297415 1.54768 0
M  V30 382 C 39.6556 -0.318435 2.04941 0
M  V30 383 C 40.0806 -1.4701 1.17345 0
M  V30 384 O 39.4386 -1.80436 0.176758 0
M  V30 385 C 39.4866 -0.755749 3.52592 0
M  V30 386 O 38.5906 -1.86088 3.68028 0
M  V30 387 H 37.9316 -0.062421 0.661059 0
M  V30 388 H 40.4616 0.438215 1.99852 0
M  V30 389 H 40.4716 -1.04552 3.94376 0
M  V30 390 H 39.1466 0.0867233 4.1581 0
M  V30 391 H 37.7236 -1.57193 3.38149 0
M  V30 392 N 39.9087 -1.5758 0.0250728 0
M  V30 393 C 41.1547 -1.91917 -0.655413 0
M  V30 394 C 41.4877 -0.901433 -1.72011 0
M  V30 395 O 40.7627 0.0764069 -1.9435 0
M  V30 396 C 41.0457 -3.36751 -1.27558 0
M  V30 397 C 40.8987 -4.49258 -0.220719 0
M  V30 398 C 42.2177 -3.81469 -2.19475 0
M  V30 399 H 39.3367 -0.697925 -0.23679 0
M  V30 400 H 41.9787 -1.89825 0.0815036 0
M  V30 401 H 40.1287 -3.38664 -1.90365 0
M  V30 402 H 41.8007 -4.59478 0.409601 0
M  V30 403 H 40.0437 -4.31415 0.454264 0
M  V30 404 H 40.7147 -5.47618 -0.694175 0
M  V30 405 H 43.1907 -3.81266 -1.66659 0
M  V30 406 H 42.0667 -4.83512 -2.59822 0
M  V30 407 H 42.3277 -3.16744 -3.08424 0
M  V30 408 N 41.3868 0.248026 -1.55636 0
M  V30 409 C 42.3338 1.30707 -1.90222 0
M  V30 410 C 43.3038 1.47881 -0.756332 0
M  V30 411 O 44.4888 1.61883 -1.00988 0
M  V30 412 C 41.6288 2.65769 -2.20138 0
M  V30 413 C 40.7418 2.56612 -3.47526 0
M  V30 414 C 39.8768 3.8402 -3.67017 0
M  V30 415 C 38.9158 3.69476 -4.8801 0
M  V30 416 N 38.0528 4.88774 -5.04029 0
M  V30 417 H 42.8928 1.00512 -2.80538 0
M  V30 418 H 40.4298 0.485055 -1.38873 0
M  V30 419 H 42.3878 3.44386 -2.35487 0
M  V30 420 H 41.0178 2.94115 -1.33027 0
M  V30 421 H 40.0698 1.69571 -3.40514 0
M  V30 422 H 41.3818 2.41774 -4.36287 0
M  V30 423 H 40.5358 4.7108 -3.8232 0
M  V30 424 H 39.2748 4.01754 -2.76487 0
M  V30 425 H 38.2798 2.80799 -4.72686 0
M  V30 426 H 39.5048 3.53238 -5.8 0
M  V30 427 H 37.4508 5.0687 -4.16435 0
M  V30 428 H 37.3678 4.76562 -5.86877 0
M  V30 429 H 38.6358 5.77335 -5.23741 0
M  V30 430 N 42.8649 1.48995 0.513639 0
M  V30 431 C 43.8119 1.6473 1.61656 0
M  V30 432 C 44.7819 0.488984 1.58739 0
M  V30 433 O 45.9669 0.714478 1.76918 0
M  V30 434 C 43.1069 1.7082 2.99858 0
M  V30 435 C 42.2199 2.9787 3.12885 0
M  V30 436 C 41.3549 2.95017 4.41744 0
M  V30 437 C 40.3939 4.16702 4.48359 0
M  V30 438 N 39.5309 4.11832 5.68629 0
M  V30 439 H 44.3709 2.58909 1.47547 0
M  V30 440 H 41.9079 1.28382 0.71808 0
M  V30 441 H 43.8659 1.72331 3.79944 0
M  V30 442 H 42.4959 0.801181 3.12699 0
M  V30 443 H 41.5479 3.06029 2.25944 0
M  V30 444 H 42.8599 3.8786 3.13633 0
M  V30 445 H 42.0139 2.95021 5.30139 0
M  V30 446 H 40.7529 2.02784 4.43542 0
M  V30 447 H 39.7579 4.16955 3.58369 0
M  V30 448 H 40.9829 5.10113 4.48287 0
M  V30 449 H 38.9289 3.22428 5.71293 0
M  V30 450 H 38.8459 4.95543 5.7094 0
M  V30 451 H 40.1139 4.1592 6.59266 0
M  V30 452 N 44.343 -0.763751 1.37857 0
M  V30 453 C 45.273 -1.89103 1.36975 0
M  V30 454 C 46.254 -1.68439 0.237152 0
M  V30 455 O 47.439 -1.8918 0.438713 0
M  V30 456 C 44.569 -3.26496 1.18395 0
M  V30 457 C 43.523 -3.61741 2.28751 0
M  V30 458 C 42.849 -4.97762 1.95286 0
M  V30 459 C 44.149 -3.67665 3.70972 0
M  V30 460 H 45.843 -1.90099 2.31307 0
M  V30 461 H 43.389 -0.91319 1.11341 0
M  V30 462 H 45.342 -4.05003 1.16406 0
M  V30 463 H 44.066 -3.25955 0.205215 0
M  V30 464 H 42.725 -2.85547 2.29909 0
M  V30 465 H 42.373 -4.93769 0.959221 0
M  V30 466 H 42.073 -5.22313 2.69189 0
M  V30 467 H 43.597 -5.7866 1.94898 0
M  V30 468 H 45.011 -4.36307 3.719 0
M  V30 469 H 43.408 -4.03718 4.43995 0
M  V30 470 H 44.478 -2.68134 4.0402 0
M  V30 471 N 45.8211 -1.22559 -0.990812 0
M  V30 472 C 46.7681 -0.997519 -2.0813 0
M  V30 473 C 47.7381 0.0814702 -1.659 0
M  V30 474 O 48.9231 -0.0685424 -1.90677 0
M  V30 475 C 46.0631 -0.583615 -3.40129 0
M  V30 476 C 45.1761 -1.7336 -3.9569 0
M  V30 477 C 44.3111 -1.26748 -5.15857 0
M  V30 478 C 43.3501 -2.38888 -5.63559 0
M  V30 479 N 42.4871 -1.93308 -6.74964 0
M  V30 480 H 47.3271 -1.93099 -2.26973 0
M  V30 481 H 44.8641 -0.962114 -1.11273 0
M  V30 482 H 46.8221 -0.324801 -4.15934 0
M  V30 483 H 45.4521 0.312845 -3.2128 0
M  V30 484 H 44.5041 -2.10669 -3.16738 0
M  V30 485 H 45.8161 -2.57704 -4.27071 0
M  V30 486 H 44.9701 -0.966173 -5.98957 0
M  V30 487 H 43.7091 -0.394272 -4.86104 0
M  V30 488 H 42.7141 -2.69805 -4.79046 0
M  V30 489 H 43.9391 -3.26728 -5.95336 0
M  V30 490 H 41.8851 -1.08352 -6.4699 0
M  V30 491 H 41.8021 -2.71217 -7.05675 0
M  V30 492 H 43.0701 -1.66252 -7.61564 0
M  V30 493 N 47.2992 1.18797 -1.03562 0
M  V30 494 C 48.5482 1.87978 -0.731235 0
M  V30 495 C 48.8612 1.80911 0.743671 0
M  V30 496 O 50.0672 2.45407 1.16137 0
M  V30 497 C 48.5232 3.3721 -1.25768 0
M  V30 498 C 48.1312 3.52818 -2.76085 0
M  V30 499 C 49.8752 4.11825 -1.0296 0
M  V30 500 C 47.7822 4.9598 -3.22114 0
M  V30 501 H 46.7122 0.704063 -0.269835 0
M  V30 502 H 49.3632 1.34266 -1.25079 0
M  V30 503 H 47.7452 3.90359 -0.666011 0
M  V30 504 H 48.9192 3.09965 -3.40966 0
M  V30 505 H 47.2342 2.91602 -2.97249 0
M  V30 506 H 49.8312 5.17411 -1.34869 0
M  V30 507 H 50.1742 4.16287 0.0333546 0
M  V30 508 H 50.7072 3.64833 -1.58562 0
M  V30 509 H 47.4462 4.96684 -4.27768 0
M  V30 510 H 46.9662 5.39569 -2.61965 0
M  V30 511 H 48.6452 5.6467 -3.15844 0
M  V30 512 N 48.7773 0.814389 1.34928 0
M  V30 513 C 49.6873 0.231978 2.3345 0
M  V30 514 C 50.7033 -0.629139 1.62228 0
M  V30 515 O 51.8793 -0.539052 1.94052 0
M  V30 516 C 48.9443 -0.603482 3.41407 0
M  V30 517 C 48.0053 0.279037 4.28392 0
M  V30 518 C 47.2383 -0.516643 5.31193 0
M  V30 519 O 47.4613 -1.75068 5.4287 0
M  V30 520 O 46.3953 0.0965652 6.01823 0
M  V30 521 H 50.2213 1.04721 2.85074 0
M  V30 522 H 47.8063 0.576343 1.37836 0
M  V30 523 H 49.6883 -1.07908 4.0735 0
M  V30 524 H 48.3633 -1.39618 2.92042 0
M  V30 525 H 47.2703 0.801948 3.65403 0
M  V30 526 H 48.6033 1.03588 4.81176 0
M  V30 527 N 50.2554 -1.46986 0.568584 0
M  V30 528 C 51.6664 -1.86188 0.138219 0
M  V30 529 C 52.0174 -1.47388 -1.29504 0
M  V30 530 O 51.1424 -0.88219 -1.97602 0
M  V30 531 C 51.7374 -3.3792 0.244065 0
M  V30 532 C 50.2964 -3.76171 -0.131335 0
M  V30 533 C 49.4434 -2.71027 0.586465 0
M  V30 534 H 52.3944 -1.38342 0.777645 0
M  V30 535 H 52.4154 -3.76729 -0.534351 0
M  V30 536 H 51.9274 -3.66128 1.28731 0
M  V30 537 H 50.0284 -3.5358 -1.17526 0
M  V30 538 H 50.1414 -4.78523 0.235146 0
M  V30 539 H 48.5054 -2.54684 0.0282722 0
M  V30 540 H 49.2884 -3.02077 1.63109 0
M  V30 541 N 51.7335 -0.305618 -1.54608 0
M  V30 542 C 52.9585 0.307562 -2.05107 0
M  V30 543 C 53.3835 1.46385 -1.18123 0
M  V30 544 O 52.7415 1.8034 -0.186324 0
M  V30 545 C 52.7895 0.73704 -3.52987 0
M  V30 546 O 51.8935 1.84134 -3.6901 0
M  V30 547 H 51.2345 0.0589143 -0.661381 0
M  V30 548 H 53.7645 -0.448807 -1.99617 0
M  V30 549 H 53.7745 1.02459 -3.94925 0
M  V30 550 H 52.4495 -0.108773 -4.15758 0
M  V30 551 H 51.0265 1.55398 -3.38978 0
M  V30 552 N 53.2116 1.57565 -0.0334293 0
M  V30 553 C 54.4366 1.96689 0.657895 0
M  V30 554 C 54.8616 0.910057 1.64619 0
M  V30 555 O 54.2196 -0.128598 1.80843 0
M  V30 556 C 54.2676 3.34905 1.33683 0
M  V30 557 O 53.3716 3.31574 2.45219 0
M  V30 558 H 52.7126 0.641205 0.172489 0
M  V30 559 H 55.2426 2.04372 -0.0965621 0
M  V30 560 H 55.2526 3.71234 1.69262 0
M  V30 561 H 53.9276 4.11366 0.612411 0
M  V30 562 H 52.5046 3.06968 2.11719 0
M  V30 563 N 54.6897 -0.239769 1.55765 0
M  V30 564 C 55.6377 -1.31668 1.91745 0
M  V30 565 C 56.6317 -1.49462 0.797338 0
M  V30 566 O 57.8377 -1.50852 0.982021 0
M  V30 567 H 54.2127 -0.441048 0.609082 0
M  V30 568 H 56.1837 -0.985923 2.81642 0
M  V30 569 C 54.9327 -2.66368 2.2348 0
M  V30 570 H 54.2557 -2.53478 3.09175 0
M  V30 571 H 55.6957 -3.40578 2.52553 0
M  V30 572 C 54.1547 -3.20002 1.05359 0
M  V30 573 O 54.6847 -4.00538 0.305261 0
M  V30 574 N 52.8907 -2.78126 0.842292 0
M  V30 575 H 52.4377 -2.12742 1.45253 0
M  V30 576 H 52.3957 -3.14354 0.053652 0
M  V30 577 N 56.1678 -1.49265 -0.50573 0
M  V30 578 C 57.4138 -1.59723 -1.25937 0
M  V30 579 C 57.7688 -0.278236 -1.90378 0
M  V30 580 O 57.0618 0.72113 -1.77511 0
M  V30 581 C 57.2558 -2.69008 -2.35308 0
M  V30 582 C 57.0848 -4.11405 -1.81592 0
M  V30 583 C 55.8548 -4.78252 -1.63105 0
M  V30 584 C 58.0528 -4.96792 -1.33048 0
M  V30 585 N 56.0348 -6.0498 -1.04269 0
M  V30 586 C 57.4058 -6.13962 -0.863168 0
M  V30 587 C 59.4608 -4.82828 -1.21577 0
M  V30 588 C 58.1638 -7.18705 -0.292489 0
M  V30 589 C 60.1898 -5.87716 -0.65907 0
M  V30 590 C 59.5518 -7.0411 -0.201954 0
M  V30 591 H 55.6508 -0.638864 -0.450973 0
M  V30 592 H 58.2348 -1.86251 -0.567326 0
M  V30 593 H 56.4058 -2.4426 -3.01979 0
M  V30 594 H 58.1378 -2.69013 -3.02348 0
M  V30 595 H 54.8928 -4.34974 -1.87336 0
M  V30 596 H 55.3168 -6.72631 -0.767919 0
M  V30 597 H 59.9588 -3.93159 -1.55518 0
M  V30 598 H 57.6768 -8.08078 0.0591987 0
M  V30 599 H 61.2628 -5.7897 -0.573156 0
M  V30 600 H 60.1428 -7.83885 0.222101 0
M  V30 601 N 57.6459 0.756429 -1.3826 0
M  V30 602 C 58.9229 1.50584 -1.24835 0
M  V30 603 C 59.3029 2.10556 0.151485 0
M  V30 604 O 58.6509 1.96825 1.1607 0
M  V30 605 C 58.8609 2.57448 -2.3563 0
M  V30 606 C 60.2089 3.24429 -2.73917 0
M  V30 607 O 61.2329 2.67751 -2.34921 0
M  V30 608 O 60.0919 4.26937 -3.41156 0
M  V30 609 H 57.1859 0.667664 -0.48801 0
M  V30 610 H 59.7319 0.792083 -1.5008 0
M  V30 611 H 58.5039 2.11362 -3.29305 0
M  V30 612 H 58.1269 3.36408 -2.11933 0
M  V30 613 N 59.124 1.23083 0.984299 0
M  V30 614 C 60.057 0.951786 2.07404 0
M  V30 615 C 61.035 -0.10848 1.62238 0
M  V30 616 O 62.219 0.0249467 1.88483 0
M  V30 617 C 59.346 0.433142 3.35919 0
M  V30 618 C 58.392 1.47941 4.0002 0
M  V30 619 S 59.225 3.05556 4.39768 0
M  V30 620 C 60.381 2.55351 5.71442 0
M  V30 621 H 60.614 1.87456 2.30754 0
M  V30 622 H 58.147 1.06284 1.11996 0
M  V30 623 H 60.105 0.140506 4.10259 0
M  V30 624 H 58.766 -0.468656 3.10584 0
M  V30 625 H 57.959 1.06658 4.92585 0
M  V30 626 H 57.561 1.7212 3.3204 0
M  V30 627 H 59.853 1.97128 6.48187 0
M  V30 628 H 60.796 3.46441 6.17563 0
M  V30 629 H 61.204 1.96339 5.29255 0
M  V30 630 N 60.6021 -1.18246 1.0419 0
M  V30 631 C 61.8301 -1.92195 0.766072 0
M  V30 632 C 62.2451 -1.76247 -0.676933 0
M  V30 633 O 61.6021 -1.09293 -1.46155 0
M  V30 634 C 61.6531 -3.43568 1.12442 0
M  V30 635 O 61.3741 -3.59015 2.51078 0
M  V30 636 C 62.8751 -4.34613 0.873275 0
M  V30 637 H 60.0951 -0.610114 0.279288 0
M  V30 638 H 62.6391 -1.50007 1.38989 0
M  V30 639 H 60.7941 -3.8354 0.545542 0
M  V30 640 H 61.2081 -4.5273 2.64831 0
M  V30 641 H 62.6821 -5.39374 1.17385 0
M  V30 642 H 63.1591 -4.38781 -0.191909 0
M  V30 643 H 63.7651 -4.00341 1.43551 0
M  V30 644 N 62.0802 -0.821533 -1.34494 0
M  V30 645 C 63.3282 -0.408139 -1.97936 0
M  V30 646 C 63.6492 1.03193 -1.65457 0
M  V30 647 O 62.9192 1.71622 -0.944595 0
M  V30 648 H 61.4992 -0.147928 -0.732206 0
M  V30 649 H 64.1612 -1.05067 -1.64155 0
M  V30 650 H 63.2572 -0.52601 -3.07635 0
M  V30 651 N 63.5583 1.46682 -0.576371 0
M  V30 652 C 64.7883 2.06498 -0.0648694 0
M  V30 653 C 65.1963 1.42665 1.24271 0
M  V30 654 O 64.5393 0.523886 1.76071 0
M  V30 655 C 64.6013 3.5904 0.181816 0
M  V30 656 C 64.2653 4.45028 -1.0392 0
M  V30 657 C 65.2623 4.81959 -1.94966 0
M  V30 658 C 62.9473 4.86259 -1.25927 0
M  V30 659 C 64.9413 5.58942 -3.06371 0
M  V30 660 C 62.6283 5.63002 -2.37638 0
M  V30 661 C 63.6263 5.99257 -3.2769 0
M  V30 662 O 63.3143 6.7445 -4.37461 0
M  V30 663 H 63.0463 0.674028 -0.0515987 0
M  V30 664 H 65.6003 1.89393 -0.794951 0
M  V30 665 H 63.8303 3.74429 0.966436 0
M  V30 666 H 65.5193 4.00806 0.641047 0
M  V30 667 H 66.2853 4.50689 -1.79177 0
M  V30 668 H 62.1643 4.57494 -0.567448 0
M  V30 669 H 65.7083 5.87158 -3.76684 0
M  V30 670 H 61.6053 5.93686 -2.53392 0
M  V30 671 H 62.3733 6.92867 -4.35749 0
M  V30 672 N 65.0364 0.313813 1.54444 0
M  V30 673 C 66.2844 -0.291099 1.99993 0
M  V30 674 C 66.6054 -1.53418 1.20366 0
M  V30 675 O 65.8754 -1.93544 0.302927 0
M  V30 676 H 64.4554 -0.110552 0.738774 0
M  V30 677 H 67.1174 0.428106 1.9014 0
M  V30 678 H 66.2134 -0.554268 3.07139 0
M  V30 679 N 66.5145 -1.57545 0.0417849 0
M  V30 680 C 67.7395 -1.97035 -0.647455 0
M  V30 681 C 68.1645 -0.918775 -1.64135 0
M  V30 682 O 67.5225 0.119006 -1.80909 0
M  V30 683 C 67.5705 -3.35609 -1.31905 0
M  V30 684 O 66.6745 -3.3287 -2.43457 0
M  V30 685 H 66.0155 -0.64211 -0.169086 0
M  V30 686 H 68.5455 -2.04318 0.107399 0
M  V30 687 H 68.5555 -3.72126 -1.67291 0
M  V30 688 H 67.2305 -4.11685 -0.590586 0
M  V30 689 H 65.8075 -3.08087 -2.10088 0
M  V30 690 N 67.9926 0.231505 -1.5589 0
M  V30 691 C 68.9426 1.29007 -1.87993 0
M  V30 692 C 69.9266 1.42764 -0.742102 0
M  V30 693 O 71.1186 1.45747 -1.00433 0
M  V30 694 C 68.2476 2.6425 -2.1915 0
M  V30 695 C 67.3336 2.54435 -3.39299 0
M  V30 696 N 67.7246 2.14262 -4.58176 0
M  V30 697 C 66.0226 2.85416 -3.42715 0
M  V30 698 C 66.7236 2.15455 -5.40328 0
M  V30 699 N 65.6996 2.55558 -4.79783 0
M  V30 700 H 69.5016 0.970213 -2.77424 0
M  V30 701 H 67.0156 0.440097 -1.56323 0
M  V30 702 H 69.0126 3.40665 -2.40319 0
M  V30 703 H 67.6726 2.9709 -1.31025 0
M  V30 704 H 68.6836 1.85554 -4.83518 0
M  V30 705 H 65.3606 3.22693 -2.64906 0
M  V30 706 H 66.7506 1.86605 -6.45467 0
M  V30 707 N 69.4707 1.49531 0.497807 0
M  V30 708 C 70.6957 1.63159 1.28039 0
M  V30 709 C 71.1207 0.30418 1.85624 0
M  V30 710 O 70.4787 -0.728618 1.66015 0
M  V30 711 C 70.5267 2.70537 2.38416 0
M  V30 712 O 69.6307 2.29931 3.42353 0
M  V30 713 H 68.9717 0.546001 0.377861 0
M  V30 714 H 71.5017 1.9574 0.59558 0
M  V30 715 H 71.5117 2.92802 2.84132 0
M  V30 716 H 70.1867 3.6689 1.95869 0
M  V30 717 H 68.7637 2.18009 3.02533 0
M  V30 718 N 70.9488 -0.749086 1.3866 0
M  V30 719 C 71.8958 -1.86291 1.36251 0
M  V30 720 C 72.8658 -1.64578 0.224347 0
M  V30 721 O 74.0508 -1.86181 0.417279 0
M  V30 722 C 71.1908 -3.23644 1.19786 0
M  V30 723 C 70.3038 -3.57158 2.43027 0
M  V30 724 C 69.4388 -4.83838 2.19258 0
M  V30 725 C 68.4778 -5.10152 3.38247 0
M  V30 726 N 67.6148 -6.28029 3.13884 0
M  V30 727 H 72.4548 -1.87685 2.3147 0
M  V30 728 H 69.9918 -0.917287 1.14997 0
M  V30 729 H 71.9498 -4.0291 1.08254 0
M  V30 730 H 70.5798 -3.21566 0.282031 0
M  V30 731 H 69.6318 -2.72701 2.65214 0
M  V30 732 H 70.9438 -3.7253 3.31697 0
M  V30 733 H 70.0978 -5.71057 2.04888 0
M  V30 734 H 68.8368 -4.70614 1.2796 0
M  V30 735 H 67.8418 -4.21401 3.53131 0
M  V30 736 H 69.0668 -5.25271 4.30427 0
M  V30 737 H 67.0128 -6.1612 2.25238 0
M  V30 738 H 66.9298 -6.43922 3.96106 0
M  V30 739 H 68.1978 -7.18124 3.03179 0
M  V30 740 N 72.4269 -1.23603 -0.977757 0
M  V30 741 C 73.6729 -1.07129 -1.72195 0
M  V30 742 C 74.0059 0.390501 -1.90233 0
M  V30 743 O 73.2809 1.28902 -1.45653 0
M  V30 744 C 73.5639 -1.80031 -3.11867 0
M  V30 745 C 73.4169 -3.33899 -3.01383 0
M  V30 746 C 74.7359 -1.56492 -4.11337 0
M  V30 747 H 71.8549 -0.390571 -0.624999 0
M  V30 748 H 74.4969 -1.52142 -1.13811 0
M  V30 749 H 72.6469 -1.41768 -3.6171 0
M  V30 750 H 74.3189 -3.81699 -2.59043 0
M  V30 751 H 72.5619 -3.62796 -2.37827 0
M  V30 752 H 73.2329 -3.801 -4.00285 0
M  V30 753 H 75.7089 -1.89757 -3.70313 0
M  V30 754 H 74.5849 -2.09973 -5.07151 0
M  V30 755 H 74.8459 -0.500874 -4.39254 0
M  V30 756 N 73.905 1.17692 -1.04816 0
M  V30 757 C 75.135 1.91508 -0.775128 0
M  V30 758 C 75.543 1.76844 0.67253 0
M  V30 759 O 74.886 1.10057 1.47082 0
M  V30 760 C 74.948 3.43167 -1.0713 0
M  V30 761 C 74.612 3.81612 -2.51438 0
M  V30 762 C 75.609 3.84772 -3.49638 0
M  V30 763 C 73.294 4.12687 -2.86348 0
M  V30 764 C 75.288 4.18469 -4.80794 0
M  V30 765 C 72.975 4.46053 -4.17708 0
M  V30 766 C 73.973 4.48921 -5.14741 0
M  V30 767 O 73.661 4.81504 -6.43746 0
M  V30 768 H 73.393 0.614575 -0.281555 0
M  V30 769 H 75.947 1.50206 -1.40098 0
M  V30 770 H 74.177 3.84745 -0.388342 0
M  V30 771 H 75.866 3.98239 -0.784883 0
M  V30 772 H 76.632 3.60893 -3.24008 0
M  V30 773 H 72.511 4.09627 -2.11486 0
M  V30 774 H 76.055 4.20623 -5.56527 0
M  V30 775 H 71.952 4.69393 -4.43103 0
M  V30 776 H 72.72 4.99377 -6.4851 0
M  V30 777 N 75.3831 0.828654 1.34056 0
M  V30 778 C 76.6081 0.431637 2.02859 0
M  V30 779 C 77.0331 -0.956339 1.61975 0
M  V30 780 O 76.3911 -1.62338 0.807228 0
M  V30 781 C 76.4391 0.548323 3.56407 0
M  V30 782 O 75.5431 -0.429556 4.10157 0
M  V30 783 H 74.8841 0.176886 0.640006 0
M  V30 784 H 77.4141 1.12066 1.71179 0
M  V30 785 H 77.4241 0.426196 4.05768 0
M  V30 786 H 76.0991 1.5606 3.8551 0
M  V30 787 H 74.6761 -0.265836 3.71951 0
M  V30 788 N 76.8612 -1.46375 0.584142 0
M  V30 789 C 77.7932 -2.28443 -0.186119 0
M  V30 790 C 78.8062 -1.38596 -0.854115 0
M  V30 791 O 79.9952 -1.63183 -0.723438 0
M  V30 792 C 77.0952 -3.13671 -1.28311 0
M  V30 793 C 76.2682 -4.31652 -0.706758 0
M  V30 794 C 75.3272 -4.98267 -1.69163 0
M  V30 795 O 74.3532 -5.55815 -1.22712 0
M  V30 796 N 75.5552 -4.95408 -3.02575 0
M  V30 797 H 78.3202 -2.9519 0.517986 0
M  V30 798 H 75.8812 -1.56303 0.42201 0
M  V30 799 H 77.8732 -3.55101 -1.94128 0
M  V30 800 H 76.4432 -2.48989 -1.89005 0
M  V30 801 H 75.6632 -3.93989 0.128908 0
M  V30 802 H 76.9512 -5.07906 -0.301506 0
M  V30 803 H 76.3492 -4.49902 -3.42936 0
M  V30 804 H 74.9062 -5.40774 -3.63877 0
M  V30 805 N 78.3393 -0.321999 -1.54275 0
M  V30 806 C 79.5643 0.285791 -2.05422 0
M  V30 807 C 79.9893 1.45124 -1.19669 0
M  V30 808 O 79.3473 1.80132 -0.205441 0
M  V30 809 C 79.3953 0.69956 -3.53749 0
M  V30 810 O 78.4993 1.8021 -3.70942 0
M  V30 811 H 77.8403 0.0518962 -0.661969 0
M  V30 812 H 80.3703 -0.469954 -1.9913 0
M  V30 813 H 80.3803 0.982649 -3.9599 0
M  V30 814 H 79.0553 -0.152864 -4.15619 0
M  V30 815 H 77.6323 1.51794 -3.40607 0
M  V30 816 N 79.8174 1.5752 -0.0501392 0
M  V30 817 C 80.7644 2.1147 0.924603 0
M  V30 818 C 81.7344 1.02182 1.30951 0
M  V30 819 O 82.9194 1.29723 1.39916 0
M  V30 820 C 80.0594 2.66337 2.19451 0
M  V30 821 C 79.1724 3.89708 1.86418 0
M  V30 822 C 78.3074 4.32893 3.07859 0
M  V30 823 C 77.3464 5.48967 2.70742 0
M  V30 824 N 76.4834 5.87211 3.84874 0
M  V30 825 H 81.3234 2.94465 0.457639 0
M  V30 826 H 78.8604 1.45531 0.214266 0
M  V30 827 H 80.8184 2.96247 2.93758 0
M  V30 828 H 79.4484 1.86141 2.63726 0
M  V30 829 H 78.5004 3.66396 1.02264 0
M  V30 830 H 79.8124 4.74074 1.55096 0
M  V30 831 H 78.9664 4.6435 3.90466 0
M  V30 832 H 77.7054 3.47336 3.42358 0
M  V30 833 H 76.7104 5.17183 1.86551 0
M  V30 834 H 77.9354 6.3624 2.37436 0
M  V30 835 H 75.8814 5.04607 4.19175 0
M  V30 836 H 75.7984 6.66266 3.57247 0
M  V30 837 H 77.0664 6.23282 4.68123 0
M  V30 838 N 81.2955 -0.223234 1.56011 0
M  V30 839 C 82.2435 -1.29627 1.93131 0
M  V30 840 C 83.2375 -1.48608 0.813146 0
M  V30 841 O 84.4435 -1.49802 0.997966 0
M  V30 842 H 80.8185 -0.434563 0.613726 0
M  V30 843 H 82.7895 -0.955995 2.82672 0
M  V30 844 C 81.5385 -2.63983 2.26292 0
M  V30 845 H 80.8615 -2.50185 3.11846 0
M  V30 846 H 82.3015 -3.3788 2.56151 0
M  V30 847 C 80.7605 -3.18866 1.08747 0
M  V30 848 O 81.2905 -4.00192 0.347727 0
M  V30 849 N 79.4965 -2.77217 0.871743 0
M  V30 850 H 79.0435 -2.1119 1.47501 0
M  V30 851 H 79.0015 -3.1428 0.0869905 0
M  V30 852 N 82.7736 -1.49793 -0.48987 0
M  V30 853 C 84.0226 -1.59085 -1.23995 0
M  V30 854 C 84.3356 -0.287907 -1.9347 0
M  V30 855 O 85.5416 -0.259506 -2.70257 0
M  V30 856 C 83.9976 -2.80736 -2.252 0
M  V30 857 C 83.6056 -4.17833 -1.61614 0
M  V30 858 C 85.3496 -2.99364 -3.00967 0
M  V30 859 C 83.2566 -5.30693 -2.60996 0
M  V30 860 H 82.1866 -0.592372 -0.466488 0
M  V30 861 H 84.8376 -1.76197 -0.51252 0
M  V30 862 H 83.2196 -2.57142 -3.01154 0
M  V30 863 H 84.3936 -4.51608 -0.915774 0
M  V30 864 H 82.7086 -4.04656 -0.981977 0
M  V30 865 H 85.3056 -3.80851 -3.75308 0
M  V30 866 H 85.6486 -2.10356 -3.59244 0
M  V30 867 H 86.1816 -3.2305 -2.32128 0
M  V30 868 H 82.9206 -6.21796 -2.07485 0
M  V30 869 H 82.4406 -5.01359 -3.2924 0
M  V30 870 H 84.1196 -5.6049 -3.23202 0
M  V30 871 N 84.2517 0.741722 -1.39055 0
M  V30 872 C 85.6627 1.31966 -1.32068 0
M  V30 873 C 86.0137 1.96192 0.0180797 0
M  V30 874 O 85.1387 1.95861 0.920196 0
M  V30 875 C 85.7337 2.39954 -2.39181 0
M  V30 876 C 84.2927 2.93438 -2.35735 0
M  V30 877 C 83.4397 1.66936 -2.21422 0
M  V30 878 H 86.3907 0.539721 -1.4924 0
M  V30 879 H 86.4117 3.20182 -2.05581 0
M  V30 880 H 85.9237 1.9318 -3.36605 0
M  V30 881 H 84.0247 3.4451 -1.41929 0
M  V30 882 H 84.1377 3.4701 -3.30335 0
M  V30 883 H 82.5017 1.91016 -1.68478 0
M  V30 884 H 83.2847 1.22224 -3.20806 0
M  V30 885 N 85.7298 1.2412 0.971189 0
M  V30 886 C 86.6598 1.05508 2.08304 0
M  V30 887 C 87.6408 -0.0308864 1.70072 0
M  V30 888 O 88.8258 0.135521 1.93727 0
M  V30 889 C 85.9558 0.655365 3.4106 0
M  V30 890 C 84.9098 1.68971 3.93234 0
M  V30 891 C 84.2358 1.14516 5.22293 0
M  V30 892 C 85.5358 3.08487 4.21465 0
M  V30 893 H 87.2298 1.98507 2.24132 0
M  V30 894 H 84.7758 0.955821 1.07704 0
M  V30 895 H 86.7288 0.51217 4.18276 0
M  V30 896 H 85.4528 -0.31032 3.25122 0
M  V30 897 H 84.1118 1.82106 3.18171 0
M  V30 898 H 83.7598 0.170189 5.02712 0
M  V30 899 H 83.4598 1.83635 5.58168 0
M  V30 900 H 84.9838 1.01401 6.02121 0
M  V30 901 H 86.3978 2.98601 4.89398 0
M  V30 902 H 84.7948 3.74926 4.68562 0
M  V30 903 H 85.8648 3.56787 3.28376 0
M  V30 904 N 87.2079 -1.17134 1.05439 0
M  V30 905 C 88.4329 -1.91913 0.786396 0
M  V30 906 C 88.8579 -1.7643 -0.652234 0
M  V30 907 O 88.2159 -1.08372 -1.45345 0
M  V30 908 C 88.2639 -3.40921 1.17497 0
M  V30 909 O 87.3679 -4.11244 0.308589 0
M  V30 910 H 86.7089 -0.598215 0.288158 0
M  V30 911 H 89.2389 -1.48457 1.4079 0
M  V30 912 H 89.2489 -3.91668 1.14281 0
M  V30 913 H 87.9239 -3.5151 2.22292 0
M  V30 914 H 86.5009 -3.70731 0.40157 0
M  V30 915 N 88.686 -0.835752 -1.33615 0
M  V30 916 C 89.618 -0.224151 -2.28101 0
M  V30 917 C 90.631 0.593331 -1.51603 0
M  V30 918 O 91.82 0.420911 -1.73466 0
M  V30 919 C 88.92 0.703309 -3.31522 0
M  V30 920 C 88.093 -0.0741528 -4.37337 0
M  V30 921 C 87.152 0.776176 -5.20444 0
M  V30 922 O 86.178 0.216506 -5.68788 0
M  V30 923 N 87.38 2.09401 -5.41416 0
M  V30 924 H 90.145 -1.03598 -2.81225 0
M  V30 925 H 87.706 -0.69392 -1.46275 0
M  V30 926 H 89.698 1.27707 -3.84022 0
M  V30 927 H 88.268 1.41585 -2.78698 0
M  V30 928 H 87.488 -0.82928 -3.85378 0
M  V30 929 H 88.776 -0.608863 -5.05144 0
M  V30 930 H 88.174 2.57229 -5.03835 0
M  V30 931 H 86.731 2.61633 -5.96985 0
M  V30 932 N 90.1641 1.46063 -0.591896 0
M  V30 933 C 91.5751 1.85944 -0.167822 0
M  V30 934 C 91.9261 1.49429 1.27143 0
M  V30 935 O 91.0511 0.913515 1.96173 0
M  V30 936 C 91.6461 3.37489 -0.297794 0
M  V30 937 C 90.2051 3.76332 0.0714732 0
M  V30 938 C 89.3521 2.7006 -0.629509 0
M  V30 939 H 92.3031 1.37087 -0.799555 0
M  V30 940 H 92.3241 3.77532 0.474349 0
M  V30 941 H 91.8361 3.64034 -1.3454 0
M  V30 942 H 89.9371 3.55405 1.11886 0
M  V30 943 H 90.0501 4.78088 -0.311245 0
M  V30 944 H 88.4141 2.54607 -0.0687867 0
M  V30 945 H 89.1971 2.99444 -1.67894 0
M  V30 946 N 91.6422 0.330177 1.54103 0
M  V30 947 C 92.6052 -0.520144 2.2322 0
M  V30 948 C 93.6052 -1.03828 1.22786 0
M  V30 949 O 94.7952 -0.929652 1.4732 0
M  V30 950 C 91.9272 -1.72317 2.94142 0
M  V30 951 H 93.1202 0.0841605 2.99782 0
M  V30 952 H 90.6732 0.0813433 1.56088 0
M  V30 953 H 91.4082 -2.36653 2.21734 0
M  V30 954 H 91.1932 -1.35898 3.67796 0
M  V30 955 H 92.6832 -2.3266 3.46784 0
M  V30 956 N 93.1203 -1.57491 0.0584922 0
M  V30 957 C 94.3483 -1.97296 -0.623037 0
M  V30 958 C 94.7633 -0.936338 -1.63946 0
M  V30 959 O 94.1203 0.0785981 -1.82331 0
M  V30 960 C 94.1713 -3.37183 -1.30345 0
M  V30 961 O 93.8923 -4.36872 -0.32773 0
M  V30 962 C 95.3933 -3.91788 -2.07406 0
M  V30 963 H 92.6133 -0.649153 -0.169826 0
M  V30 964 H 95.1573 -2.04106 0.12696 0
M  V30 965 H 93.3123 -3.31502 -2.00463 0
M  V30 966 H 93.7263 -5.18141 -0.814269 0
M  V30 967 H 95.2003 -4.91926 -2.50425 0
M  V30 968 H 95.6773 -3.27609 -2.92521 0
M  V30 969 H 96.2833 -4.00829 -1.42184 0
M  V30 970 N 94.5984 0.214957 -1.56127 0
M  V30 971 C 95.8264 0.955092 -1.83536 0
M  V30 972 C 96.2414 1.77677 -0.638472 0
M  V30 973 O 95.5984 1.78219 0.392968 0
M  V30 974 C 95.6494 1.86734 -3.09536 0
M  V30 975 O 95.3704 1.07887 -4.24608 0
M  V30 976 C 96.8714 2.72082 -3.4998 0
M  V30 977 H 94.0914 0.279611 -0.609966 0
M  V30 978 H 96.6354 0.228197 -2.03223 0
M  V30 979 H 94.7904 2.5481 -2.91806 0
M  V30 980 H 95.2044 1.69872 -4.9623 0
M  V30 981 H 96.6784 3.31782 -4.41163 0
M  V30 982 H 97.1554 3.44806 -2.7204 0
M  V30 983 H 97.7614 2.09409 -3.70173 0
M  V30 984 N 96.0765 1.50051 0.48192 0
M  V30 985 C 97.3045 1.64237 1.25832 0
M  V30 986 C 97.7195 0.321336 1.86045 0
M  V30 987 O 97.0765 -0.695478 1.68729 0
M  V30 988 C 97.1275 2.72548 2.37487 0
M  V30 989 O 96.8485 3.99529 1.79745 0
M  V30 990 C 98.3495 2.9761 3.28547 0
M  V30 991 H 95.5695 0.55237 0.380957 0
M  V30 992 H 98.1135 1.96207 0.576467 0
M  V30 993 H 96.2685 2.43303 3.01467 0
M  V30 994 H 96.6825 4.59342 2.5319 0
M  V30 995 H 98.1565 3.77084 4.03127 0
M  V30 996 H 98.6335 2.0826 3.86684 0
M  V30 997 H 99.2395 3.28345 2.70314 0
M  V30 998 N 97.5546 -0.734337 1.39446 0
M  V30 999 C 98.8006 -1.49613 1.36908 0
M  V30 1000 C 99.1336 -1.94169 -0.0347829 0
M  V30 1001 O 98.4086 -1.66833 -0.999847 0
M  V30 1002 C 98.6916 -2.73534 2.34203 0
M  V30 1003 C 98.5446 -2.34993 3.83534 0
M  V30 1004 C 99.8636 -3.75635 2.29317 0
M  V30 1005 H 96.9826 -0.542714 0.498629 0
M  V30 1006 H 99.6246 -0.839597 1.70443 0
M  V30 1007 H 97.7746 -3.29553 2.05736 0
M  V30 1008 H 99.4466 -1.84601 4.22753 0
M  V30 1009 H 97.6896 -1.67213 4.00278 0
M  V30 1010 H 98.3606 -3.23738 4.47099 0
M  V30 1011 H 100.837 -3.29203 2.54489 0
M  V30 1012 H 99.7126 -4.60008 2.99472 0
M  V30 1013 H 99.9736 -4.22603 1.29842 0
M  V30 1014 N 99.0327 -1.24633 -0.964593 0
M  V30 1015 C 100.258 -1.11596 -1.74818 0
M  V30 1016 C 100.683 0.32723 -1.85232 0
M  V30 1017 O 100.041 1.23695 -1.32549 0
M  V30 1018 C 100.089 -1.76397 -3.1451 0
M  V30 1019 O 99.1927 -1.03685 -3.99153 0
M  V30 1020 H 98.5337 -0.390196 -0.537255 0
M  V30 1021 H 101.064 -1.65002 -1.20977 0
M  V30 1022 H 101.074 -1.8228 -3.65018 0
M  V30 1023 H 99.7487 -2.81401 -3.06246 0
M  V30 1024 H 98.3257 -1.05611 -3.57632 0
M  V30 1025 N 100.511 1.16574 -1.06058 0
M  V30 1026 C 101.739 1.90952 -0.796552 0
M  V30 1027 C 102.154 1.77302 0.648808 0
M  V30 1028 O 101.511 1.11605 1.44397 0
M  V30 1029 C 101.562 3.41736 -1.17894 0
M  V30 1030 O 101.283 3.54975 -2.56758 0
M  V30 1031 C 102.784 4.33169 -0.942308 0
M  V30 1032 H 100.004 0.605594 -0.288959 0
M  V30 1033 H 102.548 1.47777 -1.41358 0
M  V30 1034 H 100.703 3.82623 -0.606491 0
M  V30 1035 H 101.117 4.4846 -2.72 0
M  V30 1036 H 102.591 5.37439 -1.25952 0
M  V30 1037 H 103.068 4.3903 0.122078 0
M  V30 1038 H 103.674 3.98007 -1.49902 0
M  V30 1039 N 101.989 0.842826 1.3317 0
M  V30 1040 C 103.214 0.453129 2.02389 0
M  V30 1041 C 103.639 -0.939105 1.6298 0
M  V30 1042 O 102.997 -1.61472 0.8244 0
M  V30 1043 C 103.045 0.586094 3.55805 0
M  V30 1044 O 102.149 -0.386029 4.10589 0
M  V30 1045 H 101.49 0.183664 0.638094 0
M  V30 1046 H 104.02 1.13875 1.69981 0
M  V30 1047 H 104.03 0.469209 4.05293 0
M  V30 1048 H 102.705 1.6014 3.83833 0
M  V30 1049 H 101.282 -0.226371 3.72212 0
M  V30 1050 N 103.467 -1.45747 0.599634 0
M  V30 1051 C 104.397 -2.33235 -0.111306 0
M  V30 1052 C 105.378 -1.46359 -0.866781 0
M  V30 1053 O 106.563 -1.75146 -0.838904 0
M  V30 1054 C 103.693 -3.28932 -1.11451 0
M  V30 1055 C 102.647 -4.25381 -0.472772 0
M  V30 1056 C 101.973 -5.1071 -1.58365 0
M  V30 1057 C 103.273 -5.18831 0.600948 0
M  V30 1058 H 104.967 -2.92927 0.61919 0
M  V30 1059 H 102.513 -1.40857 0.299215 0
M  V30 1060 H 104.466 -3.89002 -1.62036 0
M  V30 1061 H 103.19 -2.67381 -1.8755 0
M  V30 1062 H 101.849 -3.66598 0.0121472 0
M  V30 1063 H 101.497 -4.45533 -2.33473 0
M  V30 1064 H 101.197 -5.7604 -1.15982 0
M  V30 1065 H 102.721 -5.73647 -2.09194 0
M  V30 1066 H 104.135 -5.73019 0.179491 0
M  V30 1067 H 102.532 -5.92595 0.946076 0
M  V30 1068 H 103.602 -4.6174 1.48068 0
M  V30 1069 N 104.945 -0.338344 -1.53925 0
M  V30 1070 C 106.356 0.146651 -1.86123 0
M  V30 1071 C 106.707 1.5042 -1.2597 0
M  V30 1072 O 105.832 2.08723 -0.571294 0
M  V30 1073 C 106.427 0.272879 -3.37699 0
M  V30 1074 C 104.986 0.702103 -3.69794 0
M  V30 1075 C 104.133 -0.167304 -2.76795 0
M  V30 1076 H 107.084 -0.558123 -1.48562 0
M  V30 1077 H 107.105 1.10128 -3.64214 0
M  V30 1078 H 106.617 -0.715307 -3.81451 0
M  V30 1079 H 104.718 1.6995 -3.31584 0
M  V30 1080 H 104.831 0.495604 -4.7653 0
M  V30 1081 H 103.195 0.359527 -2.5215 0
M  V30 1082 H 103.978 -1.15253 -3.23375 0
M  V30 1083 N 106.423 1.57458 -0.0668435 0
M  V30 1084 C 107.669 1.93587 0.6043 0
M  V30 1085 C 108.002 0.946722 1.69561 0
M  V30 1086 O 107.277 -0.0248516 1.94484 0
M  V30 1087 C 107.56 3.40014 1.18585 0
M  V30 1088 C 107.413 4.49685 0.101529 0
M  V30 1089 C 108.732 3.87154 2.09284 0
M  V30 1090 H 105.851 0.703958 0.218202 0
M  V30 1091 H 108.493 1.89542 -0.131804 0
M  V30 1092 H 106.643 3.43592 1.81319 0
M  V30 1093 H 108.315 4.5823 -0.531279 0
M  V30 1094 H 106.558 4.30059 -0.568487 0
M  V30 1095 H 107.229 5.49266 0.54874 0
M  V30 1096 H 109.705 3.85551 1.56491 0
M  V30 1097 H 108.581 4.90231 2.46911 0
M  V30 1098 H 108.842 3.2481 2.99918 0
M  V30 1099 N 107.901 -0.206675 1.56239 0
M  V30 1100 C 109.312 -0.772383 1.69974 0
M  V30 1101 C 109.663 -1.84353 0.671436 0
M  V30 1102 O 108.788 -2.15695 -0.174491 0
M  V30 1103 C 109.383 -1.40779 3.08167 0
M  V30 1104 C 107.942 -1.92072 3.23706 0
M  V30 1105 C 107.089 -0.786347 2.65917 0
M  V30 1106 H 110.04 0.0182223 1.5869 0
M  V30 1107 H 110.061 -2.27696 3.04852 0
M  V30 1108 H 109.573 -0.627958 3.82986 0
M  V30 1109 H 107.674 -2.7281 2.53782 0
M  V30 1110 H 107.787 -2.09046 4.31087 0
M  V30 1111 H 106.151 -1.1976 2.24788 0
M  V30 1112 H 106.934 -0.0189416 3.43295 0
M  V30 1113 N 109.379 -1.50304 -0.473955 0
M  V30 1114 C 110.327 -1.69482 -1.59307 0
M  V30 1115 C 111.321 -0.560669 -1.59853 0
M  V30 1116 O 112.527 -0.741087 -1.64036 0
M  V30 1117 H 108.902 -0.534892 -0.528578 0
M  V30 1118 H 110.873 -2.63364 -1.40293 0
M  V30 1119 C 109.622 -1.80354 -2.97267 0
M  V30 1120 H 108.945 -2.67012 -2.97564 0
M  V30 1121 H 110.385 -1.97798 -3.75036 0
M  V30 1122 C 108.844 -0.55448 -3.32306 0
M  V30 1123 O 109.374 0.307661 -4.0052 0
M  V30 1124 N 107.58 -0.409354 -2.87702 0
M  V30 1125 H 107.127 -1.11196 -2.32364 0
M  V30 1126 H 107.085 0.425223 -3.11511 0
M  V30 1127 N 110.857 0.726932 -1.39834 0
M  V30 1128 C 112.268 1.30558 -1.3346 0
M  V30 1129 C 112.619 1.962 -0.00273003 0
M  V30 1130 O 111.744 1.96826 0.899371 0
M  V30 1131 C 112.339 2.37404 -2.41713 0
M  V30 1132 C 110.898 2.90921 -2.38835 0
M  V30 1133 C 110.045 1.64578 -2.2318 0
M  V30 1134 H 112.996 0.523862 -1.49804 0
M  V30 1135 H 113.017 3.17984 -2.08966 0
M  V30 1136 H 112.529 1.89599 -3.38635 0
M  V30 1137 H 110.63 3.42985 -1.45575 0
M  V30 1138 H 110.743 3.43487 -3.33997 0
M  V30 1139 H 109.107 1.89219 -1.70494 0
M  V30 1140 H 109.89 1.18814 -3.22084 0
M  V30 1141 N 112.336 1.25143 0.95797 0
M  V30 1142 C 113.561 1.12521 1.74223 0
M  V30 1143 C 113.986 -0.317402 1.85403 0
M  V30 1144 O 113.344 -1.2299 1.33204 0
M  V30 1145 C 113.392 1.78062 3.1357 0
M  V30 1146 O 112.496 1.058 3.98598 0
M  V30 1147 H 111.837 0.39304 0.535178 0
M  V30 1148 H 114.367 1.65641 1.201 0
M  V30 1149 H 114.377 1.84213 3.64046 0
M  V30 1150 H 113.052 2.83021 3.04749 0
M  V30 1151 H 111.629 1.07506 3.57067 0
M  V30 1152 N 113.814 -1.1601 1.06675 0
M  V30 1153 C 114.744 -2.22688 0.702307 0
M  V30 1154 C 115.725 -1.67306 -0.307032 0
M  V30 1155 O 116.91 -1.93352 -0.181305 0
M  V30 1156 C 114.04 -3.47178 0.092038 0
M  V30 1157 C 112.994 -4.15477 1.02777 0
M  V30 1158 C 112.32 -5.33963 0.28061 0
M  V30 1159 C 113.62 -4.66019 2.35846 0
M  V30 1160 H 115.314 -2.53429 1.59419 0
M  V30 1161 H 112.86 -1.21813 0.767961 0
M  V30 1162 H 114.813 -4.21037 -0.174814 0
M  V30 1163 H 113.537 -3.15749 -0.834877 0
M  V30 1164 H 112.196 -3.43549 1.27944 0
M  V30 1165 H 111.844 -4.98788 -0.649545 0
M  V30 1166 H 111.544 -5.806 0.904258 0
M  V30 1167 H 113.068 -6.10596 0.021396 0
M  V30 1168 H 114.482 -5.3144 2.15045 0
M  V30 1169 H 112.879 -5.23293 2.93743 0
M  V30 1170 H 113.949 -3.82023 2.98641 0
M  V30 1171 N 115.292 -0.849877 -1.32721 0
M  V30 1172 C 116.703 -0.506188 -1.79707 0
M  V30 1173 C 117.054 0.975627 -1.70223 0
M  V30 1174 O 116.179 1.76078 -1.25799 0
M  V30 1175 C 116.774 -0.912044 -3.26293 0
M  V30 1176 C 115.333 -0.620326 -3.71253 0
M  V30 1177 C 114.48 -1.11439 -2.53922 0
M  V30 1178 H 117.431 -1.03754 -1.20087 0
M  V30 1179 H 117.452 -0.226493 -3.79825 0
M  V30 1180 H 116.964 -1.99057 -3.33164 0
M  V30 1181 H 115.065 0.447674 -3.69901 0
M  V30 1182 H 115.178 -1.18327 -4.64258 0
M  V30 1183 H 113.542 -0.534834 -2.49021 0
M  V30 1184 H 114.325 -2.19992 -2.6355 0
M  V30 1185 N 116.77 1.45427 -0.607355 0
M  V30 1186 C 118 2.06314 -0.108656 0
M  V30 1187 C 118.408 1.45269 1.21217 0
M  V30 1188 O 117.751 0.561115 1.74921 0
M  V30 1189 C 117.813 3.59345 0.105618 0
M  V30 1190 C 117.477 4.42723 -1.13337 0
M  V30 1191 C 118.474 4.77715 -2.05145 0
M  V30 1192 C 116.159 4.83478 -1.36213 0
M  V30 1193 C 118.153 5.52317 -3.18158 0
M  V30 1194 C 115.84 5.57835 -2.49527 0
M  V30 1195 C 116.838 5.92171 -3.40327 0
M  V30 1196 O 116.526 6.65019 -4.51669 0
M  V30 1197 H 116.258 0.672782 -0.0658842 0
M  V30 1198 H 118.812 1.87664 -0.834945 0
M  V30 1199 H 117.042 3.76394 0.886796 0
M  V30 1200 H 118.731 4.02076 0.555886 0
M  V30 1201 H 119.497 4.46787 -1.88697 0
M  V30 1202 H 115.376 4.56188 -0.664362 0
M  V30 1203 H 118.92 5.79036 -3.89054 0
M  V30 1204 H 114.817 5.88177 -2.65928 0
M  V30 1205 H 115.585 6.83469 -4.50348 0
M  V30 1206 N 118.248 0.346503 1.53744 0
M  V30 1207 C 119.158 -0.517293 2.28826 0
M  V30 1208 C 120.174 -1.10935 1.3405 0
M  V30 1209 O 121.35 -1.1244 1.6709 0
M  V30 1210 C 118.415 -1.65098 3.04866 0
M  V30 1211 C 117.476 -1.0884 4.15274 0
M  V30 1212 C 116.709 -2.16806 4.87679 0
M  V30 1213 O 116.932 -3.3758 4.59778 0
M  V30 1214 O 115.866 -1.80934 5.74061 0
M  V30 1215 H 119.692 0.0931396 3.03557 0
M  V30 1216 H 117.277 0.111458 1.48984 0
M  V30 1217 H 119.159 -2.31053 3.5241 0
M  V30 1218 H 117.834 -2.24717 2.32989 0
M  V30 1219 H 116.741 -0.3933 3.72027 0
M  V30 1220 H 118.074 -0.537036 4.89261 0
M  V30 1221 N 119.726 -1.57421 0.075193 0
M  V30 1222 C 120.658 -2.09904 -0.920483 0
M  V30 1223 C 121.671 -1.03191 -1.25918 0
M  V30 1224 O 122.86 -1.30695 -1.21577 0
M  V30 1225 C 119.96 -2.54726 -2.23534 0
M  V30 1226 C 119.133 -3.8505 -2.07498 0
M  V30 1227 C 118.192 -4.15929 -3.22319 0
M  V30 1228 O 117.218 -4.85474 -2.9716 0
M  V30 1229 N 118.42 -3.69745 -4.47514 0
M  V30 1230 H 121.185 -2.95954 -0.472359 0
M  V30 1231 H 118.746 -1.61523 -0.110444 0
M  V30 1232 H 120.738 -2.72443 -2.9926 0
M  V30 1233 H 119.308 -1.73795 -2.59835 0
M  V30 1234 H 118.528 -3.76679 -1.16219 0
M  V30 1235 H 119.816 -4.70348 -1.94038 0
M  V30 1236 H 119.214 -3.13569 -4.7084 0
M  V30 1237 H 117.771 -3.92655 -5.20255 0
M  V30 1238 N 121.204 0.198386 -1.56346 0
M  V30 1239 C 122.432 0.935572 -1.84539 0
M  V30 1240 C 122.847 1.76989 -0.657281 0
M  V30 1241 O 122.204 1.78626 0.374043 0
M  V30 1242 C 122.255 1.8344 -3.11499 0
M  V30 1243 O 121.976 1.03377 -4.25728 0
M  V30 1244 C 123.477 2.68355 -3.52846 0
M  V30 1245 H 120.697 0.273126 -0.612897 0
M  V30 1246 H 123.241 0.20663 -2.03453 0
M  V30 1247 H 121.396 2.51701 -2.94492 0
M  V30 1248 H 121.81 1.64599 -4.98003 0
M  V30 1249 H 123.284 3.27085 -4.44657 0
M  V30 1250 H 123.761 3.41901 -2.75681 0
M  V30 1251 H 124.367 2.05471 -3.72373 0
M  V30 1252 N 122.682 1.50554 0.465978 0
M  V30 1253 C 123.931 1.61038 1.21448 0
M  V30 1254 C 124.244 0.31865 1.92987 0
M  V30 1255 O 125.45 0.302469 2.6981 0
M  V30 1256 C 123.906 2.84283 2.20706 0
M  V30 1257 C 123.514 4.20352 1.54946 0
M  V30 1258 C 125.258 3.04115 2.96166 0
M  V30 1259 C 123.165 5.34778 2.5252 0
M  V30 1260 H 122.095 0.599718 0.457005 0
M  V30 1261 H 124.746 1.7699 0.484424 0
M  V30 1262 H 123.128 2.61901 2.97025 0
M  V30 1263 H 124.302 4.53008 0.843811 0
M  V30 1264 H 122.617 4.06167 0.917475 0
M  V30 1265 H 125.214 3.86774 3.69202 0
M  V30 1266 H 125.557 2.16045 3.55852 0
M  V30 1267 H 126.09 3.26702 2.26959 0
M  V30 1268 H 122.829 6.25018 1.97566 0
M  V30 1269 H 122.349 5.06534 3.21222 0
M  V30 1270 H 124.028 5.65561 3.14245 0
M  V30 1271 N 124.16 -0.719506 1.40217 0
M  V30 1272 C 125.406 -1.48152 1.38488 0
M  V30 1273 C 125.739 -1.94195 -0.0141867 0
M  V30 1274 O 125.014 -1.67884 -0.982096 0
M  V30 1275 C 125.297 -2.71035 2.37091 0
M  V30 1276 C 125.15 -2.30912 3.86005 0
M  V30 1277 C 126.469 -3.73182 2.33288 0
M  V30 1278 H 123.588 -0.537395 0.504357 0
M  V30 1279 H 126.23 -0.821472 1.71324 0
M  V30 1280 H 124.38 -3.27352 2.0922 0
M  V30 1281 H 126.052 -1.80107 4.24687 0
M  V30 1282 H 124.295 -1.62958 4.02029 0
M  V30 1283 H 124.966 -3.18978 4.50508 0
M  V30 1284 H 127.442 -3.26485 2.57966 0
M  V30 1285 H 126.318 -4.56806 3.04334 0
M  V30 1286 H 126.579 -4.21202 1.34317 0
M  V30 1287 N 125.638 -1.25649 -0.95132 0
M  V30 1288 C 126.885 -1.10594 -1.69633 0
M  V30 1289 C 127.213 0.352515 -1.91279 0
M  V30 1290 O 126.468 1.27601 -1.4838 0
M  V30 1291 C 126.767 -1.80909 -3.08231 0
M  V30 1292 C 126.433 -3.30825 -3.06375 0
M  V30 1293 C 125.095 -3.71722 -3.05576 0
M  V30 1294 C 127.447 -4.26589 -2.99452 0
M  V30 1295 C 124.775 -5.06788 -2.95606 0
M  V30 1296 C 127.127 -5.61683 -2.91024 0
M  V30 1297 C 125.791 -6.01904 -2.88562 0
M  V30 1298 H 125.061 -0.404691 -0.620731 0
M  V30 1299 H 127.708 -1.55964 -1.11119 0
M  V30 1300 H 126.013 -1.27979 -3.70309 0
M  V30 1301 H 127.71 -1.6671 -3.64704 0
M  V30 1302 H 124.3 -2.98287 -3.07771 0
M  V30 1303 H 128.484 -3.95982 -2.99185 0
M  V30 1304 H 123.74 -5.37126 -2.92071 0
M  V30 1305 H 127.914 -6.35578 -2.84629 0
M  V30 1306 H 125.541 -7.06521 -2.80593 0
M  V30 1307 N 127.117 1.15442 -1.07289 0
M  V30 1308 C 128.528 1.67803 -0.818475 0
M  V30 1309 C 128.879 1.8489 0.656507 0
M  V30 1310 O 128.004 1.55176 1.50829 0
M  V30 1311 C 128.599 3.04805 -1.47917 0
M  V30 1312 C 127.158 3.54245 -1.27229 0
M  V30 1313 C 126.305 2.29986 -1.54925 0
M  V30 1314 H 129.256 0.996646 -1.23502 0
M  V30 1315 H 129.277 3.69702 -0.90005 0
M  V30 1316 H 128.789 2.92336 -2.55267 0
M  V30 1317 H 126.89 3.71956 -0.21899 0
M  V30 1318 H 127.003 4.35723 -1.99203 0
M  V30 1319 H 125.367 2.35496 -0.970242 0
M  V30 1320 H 126.15 2.20105 -2.63455 0
M  V30 1321 N 128.595 0.856903 1.32268 0
M  V30 1322 C 129.843 0.460474 1.96784 0
M  V30 1323 C 130.164 -0.987701 1.68135 0
M  V30 1324 O 129.434 -1.69058 0.989765 0
M  V30 1325 H 128.014 0.167289 0.728027 0
M  V30 1326 H 130.676 1.09383 1.61312 0
M  V30 1327 H 129.772 0.60739 3.06133 0
M  V30 1328 N 130.073 -1.45103 0.615059 0
M  V30 1329 C 131.298 -2.07064 0.117988 0
M  V30 1330 C 131.723 -1.4554 -1.19163 0
M  V30 1331 O 131.081 -0.550855 -1.72729 0
M  V30 1332 C 131.129 -3.606 -0.000288387 0
M  V30 1333 O 130.233 -3.98847 -1.04856 0
M  V30 1334 H 129.574 -0.659467 0.0774581 0
M  V30 1335 H 132.104 -1.86236 0.847186 0
M  V30 1336 H 132.114 -4.07529 -0.196091 0
M  V30 1337 H 130.789 -4.04765 0.955932 0
M  V30 1338 H 129.366 -3.63577 -0.828619 0
M  V30 1339 N 131.551 -0.354651 -1.53558 0
M  V30 1340 C 132.779 0.239515 -2.05509 0
M  V30 1341 C 133.194 1.4333 -1.2289 0
M  V30 1342 O 132.551 1.80538 -0.266899 0
M  V30 1343 C 132.602 0.643719 -3.55723 0
M  V30 1344 O 132.323 -0.502602 -4.35207 0
M  V30 1345 C 133.824 1.29743 -4.23889 0
M  V30 1346 H 131.044 0.0442697 -0.669538 0
M  V30 1347 H 133.588 -0.509856 -1.98042 0
M  V30 1348 H 131.743 1.34302 -3.63376 0
M  V30 1349 H 132.157 -0.178172 -5.24197 0
M  V30 1350 H 133.631 1.53091 -5.30346 0
M  V30 1351 H 134.108 2.25441 -3.76926 0
M  V30 1352 H 134.714 0.639865 -4.20459 0
M  V30 1353 N 133.029 1.57378 -0.0835403 0
M  V30 1354 C 134.277 1.93547 0.581718 0
M  V30 1355 C 134.598 0.96524 1.69435 0
M  V30 1356 O 133.868 0.0153369 1.95894 0
M  V30 1357 H 132.448 0.714521 0.217874 0
M  V30 1358 H 135.11 1.94366 -0.144158 0
M  V30 1359 H 134.206 2.95665 0.999423 0
M  V30 1360 N 134.507 -0.190092 1.56449 0
M  V30 1361 C 135.457 -1.23977 1.91347 0
M  V30 1362 C 136.441 -1.40747 0.779693 0
M  V30 1363 O 137.633 -1.43033 1.04262 0
M  V30 1364 C 134.762 -2.58347 2.26079 0
M  V30 1365 C 133.848 -2.4535 3.45925 0
M  V30 1366 N 134.239 -2.02039 4.63696 0
M  V30 1367 C 132.537 -2.76229 3.50162 0
M  V30 1368 C 133.238 -2.01053 5.4585 0
M  V30 1369 N 132.214 -2.42747 4.8639 0
M  V30 1370 H 136.016 -0.896318 2.79899 0
M  V30 1371 H 133.53 -0.398496 1.57435 0
M  V30 1372 H 135.527 -3.34173 2.49267 0
M  V30 1373 H 134.187 -2.93512 1.38856 0
M  V30 1374 H 135.198 -1.7267 4.88268 0
M  V30 1375 H 131.875 -3.15556 2.73369 0
M  V30 1376 H 133.265 -1.69426 6.50188 0
M  V30 1377 N 135.985 -1.50799 -0.457987 0
M  V30 1378 C 137.234 -1.6168 -1.20593 0
M  V30 1379 C 137.547 -0.32888 -1.92815 0
M  V30 1380 O 138.753 -0.316773 -2.69646 0
M  V30 1381 C 137.209 -2.8545 -2.19195 0
M  V30 1382 C 136.817 -4.21168 -1.52715 0
M  V30 1383 C 138.561 -3.05681 -2.94549 0
M  V30 1384 C 136.468 -5.3611 -2.4968 0
M  V30 1385 H 135.398 -0.602134 -0.453818 0
M  V30 1386 H 138.049 -1.77245 -0.475031 0
M  V30 1387 H 136.431 -2.63472 -2.95632 0
M  V30 1388 H 137.605 -4.53449 -0.819775 0
M  V30 1389 H 135.92 -4.06648 -0.895922 0
M  V30 1390 H 138.517 -3.88727 -3.67145 0
M  V30 1391 H 138.86 -2.17929 -3.54701 0
M  V30 1392 H 139.393 -3.27901 -2.25223 0
M  V30 1393 H 136.132 -6.26057 -1.94249 0
M  V30 1394 H 135.652 -5.0823 -3.18532 0
M  V30 1395 H 137.331 -5.6722 -3.11241 0
M  V30 1396 N 137.463 0.71206 -1.40597 0
M  V30 1397 C 138.709 1.47416 -1.39271 0
M  V30 1398 C 139.042 1.942 0.00388791 0
M  V30 1399 O 138.317 1.68403 0.973179 0
M  V30 1400 C 138.6 2.69774 -2.38525 0
M  V30 1401 C 138.453 2.28861 -3.87224 0
M  V30 1402 C 139.772 3.71939 -2.35264 0
M  V30 1403 H 136.891 0.534713 -0.5072 0
M  V30 1404 H 139.533 0.812375 -1.71757 0
M  V30 1405 H 137.683 3.26238 -2.10953 0
M  V30 1406 H 139.355 1.77852 -4.25636 0
M  V30 1407 H 137.598 1.60824 -4.02887 0
M  V30 1408 H 138.269 3.16584 -4.52193 0
M  V30 1409 H 140.745 3.25113 -2.59694 0
M  V30 1410 H 139.621 4.55186 -3.06753 0
M  V30 1411 H 139.882 4.20484 -1.36549 0
M  V30 1412 N 138.941 1.26152 0.944643 0
M  V30 1413 C 140.187 1.11657 1.69294 0
M  V30 1414 C 140.52 -0.339926 1.91202 0
M  V30 1415 O 139.795 -1.24994 1.49019 0
M  V30 1416 C 140.078 1.88236 3.06984 0
M  V30 1417 C 139.931 3.41772 2.92424 0
M  V30 1418 C 141.25 1.67343 4.07043 0
M  V30 1419 H 138.369 0.407004 0.614424 0
M  V30 1420 H 141.011 1.55106 1.09737 0
M  V30 1421 H 139.161 1.51308 3.57824 0
M  V30 1422 H 140.833 3.88433 2.48832 0
M  V30 1423 H 139.076 3.68974 2.28124 0
M  V30 1424 H 139.747 3.90579 3.90067 0
M  V30 1425 H 142.223 1.99509 3.65151 0
M  V30 1426 H 141.099 2.23346 5.01406 0
M  V30 1427 H 141.36 0.617158 4.37771 0
M  V30 1428 N 140.419 -1.14872 1.07899 0
M  V30 1429 C 141.647 -1.89661 0.82683 0
M  V30 1430 C 142.062 -1.78312 -0.620519 0
M  V30 1431 O 141.419 -1.13888 -1.42604 0
M  V30 1432 C 141.47 -3.39817 1.23316 0
M  V30 1433 O 141.191 -3.50845 2.62372 0
M  V30 1434 C 142.692 -4.31615 1.0111 0
M  V30 1435 H 139.912 -0.60092 0.298557 0
M  V30 1436 H 142.456 -1.4551 1.43691 0
M  V30 1437 H 140.611 -3.8161 0.667286 0
M  V30 1438 H 141.025 -4.44076 2.79101 0
M  V30 1439 H 142.499 -5.35367 1.34486 0
M  V30 1440 H 142.976 -4.39169 -0.0522168 0
M  V30 1441 H 143.582 -3.95572 1.56215 0
M  V30 1442 N 141.898 -0.863906 -1.31812 0
M  V30 1443 C 143.123 -0.48527 -2.01643 0
M  V30 1444 C 143.548 0.913058 -1.64453 0
M  V30 1445 O 142.906 1.6014 -0.849985 0
M  V30 1446 C 142.954 -0.642625 -3.54828 0
M  V30 1447 O 142.058 0.320659 -4.11151 0
M  V30 1448 H 141.399 -0.193793 -0.635091 0
M  V30 1449 H 143.929 -1.16565 -1.68148 0
M  V30 1450 H 143.939 -0.533628 -4.04495 0
M  V30 1451 H 142.614 -1.66227 -3.81237 0
M  V30 1452 H 141.191 0.167126 -3.72525 0
M  V30 1453 N 143.376 1.44774 -0.622745 0
M  V30 1454 C 144.339 2.29069 0.0774015 0
M  V30 1455 C 145.339 1.4059 0.780461 0
M  V30 1456 O 146.529 1.62551 0.626322 0
M  V30 1457 C 143.661 3.21974 1.12006 0
M  V30 1458 H 144.854 2.92459 -0.663901 0
M  V30 1459 H 142.407 1.51548 -0.382486 0
M  V30 1460 H 143.142 2.63417 1.89162 0
M  V30 1461 H 142.927 3.87168 0.619951 0
M  V30 1462 H 144.417 3.85318 1.60995 0
M  V30 1463 N 144.854 0.36279 1.53368 0
M  V30 1464 C 146.079 -0.231226 2.06107 0
M  V30 1465 C 146.504 -1.419 1.23474 0
M  V30 1466 O 145.862 -1.79524 0.253128 0
M  V30 1467 C 145.91 -0.605523 3.5548 0
M  V30 1468 O 145.014 -1.70312 3.7559 0
M  V30 1469 H 144.355 -0.034327 0.663112 0
M  V30 1470 H 146.885 0.522584 1.97814 0
M  V30 1471 H 146.895 -0.877314 3.98456 0
M  V30 1472 H 145.57 0.263004 4.15068 0
M  V30 1473 H 144.147 -1.4271 3.44512 0
M  V30 1474 N 146.332 -1.57332 0.0918853 0
M  V30 1475 C 147.557 -1.98995 -0.584442 0
M  V30 1476 C 147.982 -0.970528 -1.61128 0
M  V30 1477 O 147.34 0.0613904 -1.81196 0
M  V30 1478 C 147.388 -3.39636 -1.21161 0
M  V30 1479 O 146.492 -3.40447 -2.32744 0
M  V30 1480 H 145.833 -0.647165 -0.148572 0
M  V30 1481 H 148.363 -2.03873 0.172347 0
M  V30 1482 H 148.373 -3.7726 -1.55367 0
M  V30 1483 H 147.048 -4.13356 -0.459313 0
M  V30 1484 H 145.625 -3.14614 -2.0018 0
M  V30 1485 N 147.81 0.181792 -1.56548 0
M  V30 1486 C 149.038 0.915947 -1.85521 0
M  V30 1487 C 149.453 1.76282 -0.676016 0
M  V30 1488 O 148.81 1.79012 0.355077 0
M  V30 1489 C 148.861 1.80126 -3.13427 0
M  V30 1490 O 148.582 0.988562 -4.26801 0
M  V30 1491 C 150.083 2.64597 -3.55673 0
M  V30 1492 H 147.303 0.26661 -0.61576 0
M  V30 1493 H 149.847 0.185039 -2.03661 0
M  V30 1494 H 148.002 2.48563 -2.97145 0
M  V30 1495 H 148.416 1.59308 -4.99721 0
M  V30 1496 H 149.89 3.2235 -4.48101 0
M  V30 1497 H 150.367 3.38958 -2.79292 0
M  V30 1498 H 150.973 2.0151 -3.74532 0
M  V30 1499 N 149.288 1.51039 0.449983 0
M  V30 1500 C 150.513 1.6715 1.22783 0
M  V30 1501 C 150.938 0.363081 1.84563 0
M  V30 1502 O 150.296 -0.675433 1.68249 0
M  V30 1503 C 150.344 2.77985 2.29689 0
M  V30 1504 O 149.448 2.40707 3.34864 0
M  V30 1505 H 148.789 0.557746 0.360299 0
M  V30 1506 H 151.319 1.97535 0.533005 0
M  V30 1507 H 151.329 3.01693 2.74673 0
M  V30 1508 H 150.004 3.72935 1.84098 0
M  V30 1509 H 148.581 2.27523 2.95445 0
M  V30 1510 N 150.766 -0.704594 1.40972 0
M  V30 1511 C 152.012 -1.46675 1.40051 0
M  V30 1512 C 152.345 -1.94199 0.00641102 0
M  V30 1513 O 151.62 -1.68916 -0.964235 0
M  V30 1514 C 151.903 -2.68505 2.39952 0
M  V30 1515 C 151.756 -2.26805 3.88432 0
M  V30 1516 C 153.075 -3.70686 2.37233 0
M  V30 1517 H 150.194 -0.532015 0.510028 0
M  V30 1518 H 152.836 -0.803255 1.72185 0
M  V30 1519 H 150.986 -3.25114 2.1268 0
M  V30 1520 H 152.658 -1.75592 4.26574 0
M  V30 1521 H 150.901 -1.58685 4.03734 0
M  V30 1522 H 151.572 -3.14181 4.53866 0
M  V30 1523 H 154.048 -3.23731 2.61415 0
M  V30 1524 H 152.924 -4.53553 3.09162 0
M  V30 1525 H 153.185 -4.19754 1.38777 0
M  V30 1526 N 152.244 -1.26651 -0.937939 0
M  V30 1527 C 153.472 -1.15173 -1.7188 0
M  V30 1528 C 153.887 0.292668 -1.86518 0
M  V30 1529 O 153.244 1.20014 -1.37488 0
M  V30 1530 C 153.295 -1.81925 -3.12387 0
M  V30 1531 O 153.016 -3.2072 -2.98446 0
M  V30 1532 C 154.517 -1.76442 -4.06673 0
M  V30 1533 H 151.737 -0.400911 -0.538063 0
M  V30 1534 H 154.281 -1.67332 -1.1756 0
M  V30 1535 H 152.436 -1.33696 -3.63599 0
M  V30 1536 H 152.85 -3.53802 -3.872 0
M  V30 1537 H 154.324 -2.27781 -5.02812 0
M  V30 1538 H 154.801 -0.731608 -4.33064 0
M  V30 1539 H 155.407 -2.24238 -3.61382 0
M  V30 1540 N 153.722 1.14298 -1.08507 0
M  V30 1541 C 154.97 1.84993 -0.813763 0
M  V30 1542 C 155.291 1.83405 0.662393 0
M  V30 1543 O 154.561 1.28319 1.48024 0
M  V30 1544 H 153.141 0.684966 -0.298045 0
M  V30 1545 H 155.803 1.385 -1.37126 0
M  V30 1546 H 154.899 2.89788 -1.15884 0
M  V30 1547 N 155.201 0.870884 1.31352 0
M  V30 1548 C 156.133 0.28455 2.27427 0
M  V30 1549 C 157.146 -0.552927 1.53123 0
M  V30 1550 O 158.335 -0.374771 1.74521 0
M  V30 1551 C 155.435 -0.615164 3.3327 0
M  V30 1552 C 154.608 0.190079 4.36987 0
M  V30 1553 C 153.667 -0.637917 5.22319 0
M  V30 1554 O 152.693 -0.065626 5.69162 0
M  V30 1555 N 153.895 -1.94973 5.46778 0
M  V30 1556 H 156.66 1.11017 2.7838 0
M  V30 1557 H 154.221 0.732458 1.44384 0
M  V30 1558 H 156.213 -1.1748 3.87273 0
M  V30 1559 H 154.783 -1.34146 2.82354 0
M  V30 1560 H 154.003 0.931165 3.83044 0
M  V30 1561 H 155.291 0.742579 5.03352 0
M  V30 1562 H 154.689 -2.4378 5.10478 0
M  V30 1563 H 153.246 -2.45713 6.03712 0
M  V30 1564 N 156.679 -1.44442 0.630414 0
M  V30 1565 C 157.925 -2.02351 0.134816 0
M  V30 1566 C 158.258 -1.4947 -1.23986 0
M  V30 1567 O 157.533 -0.678475 -1.82283 0
M  V30 1568 C 157.816 -3.59898 0.120707 0
M  V30 1569 C 157.669 -4.23063 1.52767 0
M  V30 1570 C 158.988 -4.36585 -0.555127 0
M  V30 1571 H 156.107 -0.73527 0.0504646 0
M  V30 1572 H 158.749 -1.72022 0.806751 0
M  V30 1573 H 156.899 -3.85868 -0.451477 0
M  V30 1574 H 158.571 -4.08202 2.14869 0
M  V30 1575 H 156.814 -3.80586 2.08175 0
M  V30 1576 H 157.485 -5.32071 1.46984 0
M  V30 1577 H 159.961 -4.16044 -0.0685429 0
M  V30 1578 H 158.837 -5.46294 -0.534185 0
M  V30 1579 H 159.098 -4.11138 -1.62535 0
M  V30 1580 N 158.157 -0.370918 -1.53173 0
M  V30 1581 C 159.087 0.464847 -2.28826 0
M  V30 1582 C 160.068 1.07936 -1.31468 0
M  V30 1583 O 161.253 1.0956 -1.60344 0
M  V30 1584 C 158.383 1.60196 -3.08147 0
M  V30 1585 C 157.337 1.11443 -4.13237 0
M  V30 1586 C 156.663 2.3422 -4.80672 0
M  V30 1587 C 157.963 0.195384 -5.21934 0
M  V30 1588 H 159.657 -0.166329 -2.98938 0
M  V30 1589 H 157.203 -0.0814359 -1.4377 0
M  V30 1590 H 159.156 2.19332 -3.59822 0
M  V30 1591 H 157.88 2.26045 -2.35735 0
M  V30 1592 H 156.539 0.545727 -3.62515 0
M  V30 1593 H 156.187 2.98537 -4.04827 0
M  V30 1594 H 155.887 2.02269 -5.51689 0
M  V30 1595 H 157.411 2.94032 -5.35143 0
M  V30 1596 H 158.825 0.694375 -5.69079 0
M  V30 1597 H 157.222 -0.0335027 -6.00091 0
M  V30 1598 H 158.292 -0.760961 -4.78892 0
M  V30 1599 N 159.635 1.57281 -0.100228 0
M  V30 1600 C 160.883 1.94153 0.561157 0
M  V30 1601 C 161.204 0.983157 1.68401 0
M  V30 1602 O 160.474 0.0361132 1.95867 0
M  V30 1603 H 159.054 0.716791 0.210283 0
M  V30 1604 H 161.716 1.94202 -0.164765 0
M  V30 1605 H 160.812 2.96709 0.968008 0
M  V30 1606 N 161.113 -0.173488 1.56642 0
M  V30 1607 C 162.361 -0.888706 1.81512 0
M  V30 1608 C 162.682 -1.82875 0.676872 0
M  V30 1609 O 161.952 -1.93536 -0.303414 0
M  V30 1610 H 160.532 -0.331164 0.669582 0
M  V30 1611 H 163.194 -0.173823 1.94123 0
M  V30 1612 H 162.29 -1.46691 2.75478 0
M  V30 1613 N 162.591 -1.51276 -0.441967 0
M  V30 1614 C 164.002 -1.56244 -1.02199 0
M  V30 1615 C 164.353 -0.383149 -1.92422 0
M  V30 1616 O 163.478 0.500613 -2.1053 0
M  V30 1617 C 164.073 -2.83162 -1.86024 0
M  V30 1618 C 162.632 -2.90716 -2.39084 0
M  V30 1619 C 161.779 -2.50858 -1.18175 0
M  V30 1620 H 164.73 -1.5712 -0.223416 0
M  V30 1621 H 164.751 -2.66663 -2.71425 0
M  V30 1622 H 164.263 -3.68974 -1.20331 0
M  V30 1623 H 162.364 -2.09323 -3.08244 0
M  V30 1624 H 162.477 -3.94266 -2.72198 0
M  V30 1625 H 160.841 -2.03951 -1.52565 0
M  V30 1626 H 161.624 -3.3901 -0.541001 0
M  V30 1627 N 164.069 0.697108 -1.41344 0
M  V30 1628 C 165.019 1.80313 -1.39539 0
M  V30 1629 C 166.003 1.58618 -0.270001 0
M  V30 1630 O 167.195 1.69477 -0.510551 0
M  V30 1631 C 164.324 3.18606 -1.27848 0
M  V30 1632 C 163.41 3.46001 -2.45244 0
M  V30 1633 N 163.801 3.44103 -3.70711 0
M  V30 1634 C 162.099 3.76542 -2.39023 0
M  V30 1635 C 162.8 3.7036 -4.48563 0
M  V30 1636 N 161.776 3.90027 -3.78655 0
M  V30 1637 H 165.578 1.77207 -2.34468 0
M  V30 1638 H 163.092 0.897031 -1.35378 0
M  V30 1639 H 165.089 3.97833 -1.24637 0
M  V30 1640 H 163.749 3.22925 -0.339032 0
M  V30 1641 H 164.76 3.2452 -4.03618 0
M  V30 1642 H 161.437 3.88241 -1.53542 0
M  V30 1643 H 162.827 3.75042 -5.57488 0
M  V30 1644 N 165.547 1.27147 0.931209 0
M  V30 1645 C 166.495 1.09398 2.05268 0
M  V30 1646 C 167.489 0.0180591 1.6939 0
M  V30 1647 O 168.695 0.17551 1.79142 0
M  V30 1648 H 165.07 0.336986 0.672268 0
M  V30 1649 H 167.041 2.04416 2.17386 0
M  V30 1650 C 165.79 0.75424 3.39421 0
M  V30 1651 H 165.113 1.57404 3.67511 0
M  V30 1652 H 166.553 0.669903 4.18674 0
M  V30 1653 C 165.012 -0.541197 3.32525 0
M  V30 1654 O 165.542 -1.57664 3.69466 0
M  V30 1655 N 163.748 -0.535517 2.85623 0
M  V30 1656 H 163.295 0.307511 2.55758 0
M  V30 1657 H 163.253 -1.40236 2.81392 0
M  V30 1658 N 167.025 -1.13721 1.09112 0
M  V30 1659 C 167.955 -2.21148 0.749385 0
M  V30 1660 C 168.936 -1.6792 -0.271475 0
M  V30 1661 O 170.121 -1.93693 -0.140251 0
M  V30 1662 C 167.251 -3.46905 0.165659 0
M  V30 1663 C 166.205 -4.13203 1.11567 0
M  V30 1664 C 165.531 -5.33248 0.393809 0
M  V30 1665 C 166.831 -4.60912 2.45678 0
M  V30 1666 H 168.525 -2.4999 1.64758 0
M  V30 1667 H 166.071 -1.20156 0.793626 0
M  V30 1668 H 168.024 -4.21313 -0.085466 0
M  V30 1669 H 166.748 -3.17449 -0.767714 0
M  V30 1670 H 165.407 -3.40758 1.35202 0
M  V30 1671 H 165.055 -5.00054 -0.543599 0
M  V30 1672 H 164.755 -5.78552 1.02721 0
M  V30 1673 H 166.279 -6.10413 0.150908 0
M  V30 1674 H 167.693 -5.26759 2.26269 0
M  V30 1675 H 166.09 -5.16944 3.04776 0
M  V30 1676 H 167.16 -3.75603 3.06677 0
M  V30 1677 N 168.503 -0.877838 -1.30888 0
M  V30 1678 C 169.436 -0.283995 -2.26426 0
M  V30 1679 C 170.414 0.591361 -1.51465 0
M  V30 1680 O 171.598 0.54304 -1.80509 0
M  V30 1681 C 168.725 0.597129 -3.33395 0
M  V30 1682 C 167.771 -0.207937 -4.25993 0
M  V30 1683 S 168.604 -1.59158 -5.11301 0
M  V30 1684 C 169.76 -0.716791 -6.21782 0
M  V30 1685 H 169.993 -1.09383 -2.76446 0
M  V30 1686 H 167.526 -0.676828 -1.38775 0
M  V30 1687 H 169.484 1.09978 -3.95493 0
M  V30 1688 H 168.145 1.38099 -2.82113 0
M  V30 1689 H 167.338 0.464163 -5.01858 0
M  V30 1690 H 166.94 -0.642963 -3.68432 0
M  V30 1691 H 169.232 0.0692833 -6.77465 0
M  V30 1692 H 170.175 -1.44682 -6.93161 0
M  V30 1693 H 170.583 -0.280855 -5.63801 0
M  V30 1694 N 169.982 1.44106 -0.638065 0
M  V30 1695 C 171.398 1.56672 -0.304286 0
M  V30 1696 C 171.598 1.6244 1.19228 0
M  V30 1697 O 170.654 1.57121 1.9766 0
M  V30 1698 C 171.967 2.83503 -1.00231 0
M  V30 1699 C 173.515 2.97226 -0.981116 0
M  V30 1700 C 173.99 4.26868 -1.65974 0
M  V30 1701 N 175.481 4.33698 -1.62666 0
M  V30 1702 C 176.216 5.32745 -2.12063 0
M  V30 1703 N 175.712 6.38157 -2.6968 0
M  V30 1704 N 177.505 5.24299 -2.02651 0
M  V30 1705 H 169.656 1.38605 -1.60942 0
M  V30 1706 H 171.919 0.664661 -0.675965 0
M  V30 1707 H 171.625 2.85251 -2.0573 0
M  V30 1708 H 171.499 3.73251 -0.54439 0
M  V30 1709 H 173.886 2.95027 0.0654188 0
M  V30 1710 H 173.967 2.08808 -1.47759 0
M  V30 1711 H 173.611 4.29826 -2.70576 0
M  V30 1712 H 173.541 5.14156 -1.13804 0
M  V30 1713 H 176.032 3.58138 -1.20606 0
M  V30 1714 H 176.345 7.10029 -3.05087 0
M  V30 1715 H 174.69 6.38823 -2.73734 0
M  V30 1716 H 177.881 4.4086 -1.57353 0
M  V30 1717 H 178.054 6.01334 -2.41457 0
M  V30 1718 N 171.46 0.379036 1.52974 0
M  V30 1719 C 172.876 0.0285448 1.59574 0
M  V30 1720 C 173.076 -1.45542 1.39355 0
M  V30 1721 O 172.132 -2.2187 1.20541 0
M  V30 1722 C 173.445 0.496535 2.96572 0
M  V30 1723 C 174.993 0.451909 3.0972 0
M  V30 1724 C 175.468 0.895924 4.49152 0
M  V30 1725 N 176.959 0.851522 4.55306 0
M  V30 1726 C 177.694 1.16661 5.61407 0
M  V30 1727 N 177.19 1.55166 6.752 0
M  V30 1728 N 178.983 1.08853 5.51459 0
M  V30 1729 H 171.134 1.34525 1.64367 0
M  V30 1730 H 173.397 0.550733 0.771619 0
M  V30 1731 H 173.103 1.53258 3.16552 0
M  V30 1732 H 172.977 -0.109802 3.7704 0
M  V30 1733 H 175.364 -0.575029 2.89443 0
M  V30 1734 H 175.445 1.09392 2.3123 0
M  V30 1735 H 175.089 1.92104 4.70168 0
M  V30 1736 H 175.019 0.23103 5.26093 0
M  V30 1737 H 177.51 0.568038 3.73606 0
M  V30 1738 H 177.823 1.776 7.52116 0
M  V30 1739 H 176.168 1.59044 6.76557 0
M  V30 1740 H 179.359 0.786803 4.6144 0
M  V30 1741 H 179.532 1.33742 6.34048 0
M  V30 1742 N 172.938 -1.57226 0.108567 0
M  V30 1743 C 174.163 -1.99604 -0.563303 0
M  V30 1744 C 174.588 -0.987563 -1.6009 0
M  V30 1745 O 173.946 0.0421687 -1.81251 0
M  V30 1746 C 173.994 -3.40902 -1.17552 0
M  V30 1747 O 173.098 -3.42896 -2.2912 0
M  V30 1748 H 172.439 -0.648704 -0.1417 0
M  V30 1749 H 174.969 -2.03679 0.193961 0
M  V30 1750 H 174.979 -3.78886 -1.51357 0
M  V30 1751 H 173.654 -4.1382 -0.415445 0
M  V30 1752 H 172.231 -3.1672 -1.96832 0
M  V30 1753 N 174.416 0.165178 -1.56732 0
M  V30 1754 C 175.644 0.896218 -1.86482 0
M  V30 1755 C 176.059 1.75555 -0.694675 0
M  V30 1756 O 175.416 1.79379 0.33607 0
M  V30 1757 C 175.467 1.76792 -3.1532 0
M  V30 1758 O 175.188 0.943239 -4.27825 0
M  V30 1759 C 176.689 2.6081 -3.58459 0
M  V30 1760 H 173.909 0.260064 -0.618553 0
M  V30 1761 H 176.453 0.163428 -2.03846 0
M  V30 1762 H 174.608 2.45398 -2.99764 0
M  V30 1763 H 175.022 1.53998 -5.01383 0
M  V30 1764 H 176.496 3.17579 -4.51495 0
M  V30 1765 H 176.973 3.35977 -2.82872 0
M  V30 1766 H 177.579 1.97526 -3.76648 0
M  V30 1767 N 175.894 1.51508 0.433938 0
M  V30 1768 C 177.14 1.64588 1.18484 0
M  V30 1769 C 177.473 0.362666 1.90784 0
M  V30 1770 O 176.748 -0.637892 1.83742 0
M  V30 1771 C 177.031 2.85149 2.19913 0
M  V30 1772 C 176.884 4.23456 1.51674 0
M  V30 1773 C 178.203 3.01227 3.20858 0
M  V30 1774 H 175.322 0.598994 0.429389 0
M  V30 1775 H 177.964 1.84002 0.473647 0
M  V30 1776 H 176.114 2.68729 2.80566 0
M  V30 1777 H 177.786 4.51552 0.943322 0
M  V30 1778 H 176.029 4.25998 0.819035 0
M  V30 1779 H 176.7 5.03812 2.2556 0
M  V30 1780 H 179.176 3.16382 2.70263 0
M  V30 1781 H 178.052 3.87141 3.89118 0
M  V30 1782 H 178.313 2.13447 3.8716 0
M  V30 1783 N 177.372 -0.689602 1.41712 0
M  V30 1784 C 178.597 -1.48329 1.44959 0
M  V30 1785 C 179.022 -1.8801 0.0581283 0
M  V30 1786 O 178.38 -1.55026 -0.940035 0
M  V30 1787 C 178.428 -2.71835 2.36935 0
M  V30 1788 O 177.532 -3.69549 1.8305 0
M  V30 1789 H 176.873 -0.446199 0.491734 0
M  V30 1790 H 179.403 -0.847127 1.86239 0
M  V30 1791 H 179.413 -3.20076 2.53013 0
M  V30 1792 H 178.088 -2.42291 3.38035 0
M  V30 1793 H 176.665 -3.2851 1.76452 0
M  V30 1794 N 178.85 -1.27639 -0.924453 0
M  V30 1795 C 179.78 -1.13166 -2.04244 0
M  V30 1796 C 180.761 -0.032256 -1.70069 0
M  V30 1797 O 181.946 -0.207328 -1.9309 0
M  V30 1798 C 179.076 -0.781496 -3.38393 0
M  V30 1799 C 178.03 -1.83449 -3.86692 0
M  V30 1800 C 177.356 -1.33822 -5.17683 0
M  V30 1801 C 178.656 -3.23917 -4.09726 0
M  V30 1802 H 180.35 -2.06689 -2.1661 0
M  V30 1803 H 177.896 -0.995136 -1.04082 0
M  V30 1804 H 179.849 -0.667057 -4.16087 0
M  V30 1805 H 178.573 0.189439 -3.2605 0
M  V30 1806 H 177.232 -1.93789 -3.11193 0
M  V30 1807 H 176.88 -0.35665 -5.01734 0
M  V30 1808 H 176.58 -2.04224 -5.50968 0
M  V30 1809 H 178.104 -1.23679 -5.97943 0
M  V30 1810 H 179.518 -3.16559 -4.77978 0
M  V30 1811 H 177.915 -3.92059 -4.54324 0
M  V30 1812 H 178.985 -3.68729 -3.14908 0
M  V30 1813 N 180.328 1.1314 -1.09713 0
M  V30 1814 C 181.258 2.20748 -0.761102 0
M  V30 1815 C 182.239 1.68061 0.262566 0
M  V30 1816 O 183.424 1.93765 0.129977 0
M  V30 1817 C 180.554 3.46812 -0.184054 0
M  V30 1818 C 179.508 4.12606 -1.13757 0
M  V30 1819 C 178.834 5.33031 -0.422083 0
M  V30 1820 C 180.134 4.59603 -2.48118 0
M  V30 1821 H 181.828 2.49113 -1.66082 0
M  V30 1822 H 179.374 1.19734 -0.799987 0
M  V30 1823 H 181.327 4.21353 0.0631215 0
M  V30 1824 H 180.051 3.17851 0.750868 0
M  V30 1825 H 178.71 3.40036 -1.37007 0
M  V30 1826 H 178.358 5.00335 0.517072 0
M  V30 1827 H 178.058 5.77999 -1.05788 0
M  V30 1828 H 179.582 6.10325 -0.183277 0
M  V30 1829 H 180.996 5.25552 -2.29059 0
M  V30 1830 H 179.393 5.15321 -3.07514 0
M  V30 1831 H 180.463 3.73971 -3.08665 0
M  V30 1832 N 181.806 0.884767 1.30421 0
M  V30 1833 C 183.083 0.423185 1.90967 0
M  V30 1834 C 183.463 -1.09605 1.80416 0
M  V30 1835 O 182.811 -1.93126 1.22125 0
M  V30 1836 C 183.021 0.921056 3.36627 0
M  V30 1837 C 184.369 0.955903 4.137 0
M  V30 1838 O 185.393 0.867706 3.4547 0
M  V30 1839 O 184.252 1.08614 5.35598 0
M  V30 1840 H 181.346 0.129369 0.816819 0
M  V30 1841 H 183.892 0.973653 1.3899 0
M  V30 1842 H 182.664 1.96489 3.3839 0
M  V30 1843 H 182.287 0.349741 3.96059 0
M  V30 1844 N 183.284 -1.43765 0.645699 0
M  V30 1845 C 184.512 -2.06253 0.163556 0
M  V30 1846 C 184.927 -1.48352 -1.16778 0
M  V30 1847 O 184.284 -0.611932 -1.71935 0
M  V30 1848 C 184.335 -3.61453 0.0583186 0
M  V30 1849 O 184.056 -4.172 1.33702 0
M  V30 1850 C 185.557 -4.41002 -0.450795 0
M  V30 1851 H 182.777 -0.665413 0.0864077 0
M  V30 1852 H 185.321 -1.84396 0.884222 0
M  V30 1853 H 183.476 -3.82522 -0.612865 0
M  V30 1854 H 183.89 -5.10791 1.19131 0
M  V30 1855 H 185.364 -5.49966 -0.473403 0
M  V30 1856 H 185.841 -4.13488 -1.48068 0
M  V30 1857 H 186.447 -4.24886 0.187637 0
M  V30 1858 N 184.763 -0.387143 -1.52771 0
M  V30 1859 C 185.993 0.195585 -2.05672 0
M  V30 1860 C 186.401 1.41241 -1.25887 0
M  V30 1861 O 185.744 1.81265 -0.298081 0
M  V30 1862 C 185.806 0.632327 -3.53895 0
M  V30 1863 C 185.47 -0.470739 -4.54569 0
M  V30 1864 C 186.467 -1.32746 -5.02667 0
M  V30 1865 C 184.152 -0.637151 -4.98243 0
M  V30 1866 C 186.146 -2.33574 -5.93061 0
M  V30 1867 C 183.833 -1.64877 -5.88438 0
M  V30 1868 C 184.831 -2.49649 -6.35739 0
M  V30 1869 O 184.519 -3.49082 -7.24153 0
M  V30 1870 H 184.251 0.033658 -0.675162 0
M  V30 1871 H 186.805 -0.550221 -1.97893 0
M  V30 1872 H 185.035 1.43008 -3.59285 0
M  V30 1873 H 186.724 1.14048 -3.89548 0
M  V30 1874 H 187.49 -1.21019 -4.69659 0
M  V30 1875 H 183.369 0.0129567 -4.60998 0
M  V30 1876 H 186.913 -2.99777 -6.29904 0
M  V30 1877 H 182.81 -1.76643 -6.2086 0
M  V30 1878 H 183.578 -3.45065 -7.42208 0
M  V30 1879 N 186.241 1.57166 -0.116904 0
M  V30 1880 C 187.173 2.12271 0.864507 0
M  V30 1881 C 188.186 1.06494 1.23138 0
M  V30 1882 O 189.375 1.33873 1.18069 0
M  V30 1883 C 186.475 2.60564 2.16702 0
M  V30 1884 C 185.648 3.90416 1.97216 0
M  V30 1885 C 184.707 4.24329 3.11178 0
M  V30 1886 O 183.733 4.93182 2.84184 0
M  V30 1887 N 184.935 3.8148 4.37554 0
M  V30 1888 H 187.7 2.97102 0.393726 0
M  V30 1889 H 185.261 1.61759 0.0675805 0
M  V30 1890 H 187.253 2.80282 2.91932 0
M  V30 1891 H 185.823 1.80623 2.55135 0
M  V30 1892 H 185.043 3.79627 1.06192 0
M  V30 1893 H 186.331 4.75327 1.81499 0
M  V30 1894 H 185.729 3.25943 4.62361 0
M  V30 1895 H 184.286 4.06311 5.09661 0
M  V30 1896 N 187.719 -0.156864 1.56817 0
M  V30 1897 C 188.666 -1.19394 1.97519 0
M  V30 1898 C 189.636 -1.4322 0.841265 0
M  V30 1899 O 190.821 -1.55719 1.10255 0
M  V30 1900 C 187.961 -2.52483 2.35258 0
M  V30 1901 C 187.074 -2.35914 3.61896 0
M  V30 1902 C 186.209 -3.61969 3.88782 0
M  V30 1903 C 185.248 -3.40395 5.08722 0
M  V30 1904 N 184.385 -4.58556 5.31668 0
M  V30 1905 H 189.225 -0.839845 2.85921 0
M  V30 1906 H 186.762 -0.403264 1.41464 0
M  V30 1907 H 188.72 -3.30071 2.55165 0
M  V30 1908 H 187.35 -2.85859 1.49949 0
M  V30 1909 H 186.402 -1.49429 3.49821 0
M  V30 1910 H 187.714 -2.15926 4.49641 0
M  V30 1911 H 186.868 -4.47989 4.09135 0
M  V30 1912 H 185.607 -3.84951 2.9944 0
M  V30 1913 H 184.612 -2.52763 4.88253 0
M  V30 1914 H 185.837 -3.18822 5.99608 0
M  V30 1915 H 183.783 -4.81729 4.45279 0
M  V30 1916 H 183.7 -4.41535 6.13664 0
M  V30 1917 H 184.968 -5.45817 5.5651 0
M  V30 1918 N 189.197 -1.51736 -0.425897 0
M  V30 1919 C 190.437 -1.66636 -1.18371 0
M  V30 1920 C 190.801 -0.379854 -1.88205 0
M  V30 1921 O 192.002 -0.404758 -2.65735 0
M  V30 1922 C 190.273 -2.84382 -2.16476 0
M  V30 1923 S 191.832 -3.19673 -3.0059 0
M  V30 1924 H 188.65 -0.586957 -0.40125 0
M  V30 1925 H 191.252 -1.89679 -0.473518 0
M  V30 1926 H 189.956 -3.76281 -1.63831 0
M  V30 1927 H 189.487 -2.63562 -2.92059 0
M  V30 1928 H 191.502 -2.66994 -4.18245 0
M  V30 1929 N 190.675 0.682077 -1.42076 0
M  V30 1930 C 191.923 1.4393 -1.41876 0
M  V30 1931 C 192.244 1.94971 -0.0335599 0
M  V30 1932 O 191.514 1.72591 0.926773 0
M  V30 1933 H 190.094 0.534085 -0.522267 0
M  V30 1934 H 192.756 0.806427 -1.77434 0
M  V30 1935 H 191.852 2.29588 -2.11414 0
M  V30 1936 N 192.153 1.28127 0.917671 0
M  V30 1937 C 193.083 1.14248 2.03641 0
M  V30 1938 C 194.064 0.0412748 1.7005 0
M  V30 1939 O 195.249 0.217566 1.92977 0
M  V30 1940 C 192.379 0.799431 3.37974 0
M  V30 1941 C 191.333 1.85497 3.85713 0
M  V30 1942 C 190.659 1.36565 5.16966 0
M  V30 1943 C 191.959 3.26085 4.08002 0
M  V30 1944 H 193.653 2.07835 2.15511 0
M  V30 1945 H 191.199 1.00064 1.03553 0
M  V30 1946 H 193.152 0.689114 4.15727 0
M  V30 1947 H 191.876 -0.172145 3.26146 0
M  V30 1948 H 190.535 1.95437 3.10161 0
M  V30 1949 H 190.183 0.383253 5.01538 0
M  V30 1950 H 189.883 2.07143 5.49878 0
M  V30 1951 H 191.407 1.26848 5.97279 0
M  V30 1952 H 192.821 3.19089 4.76293 0
M  V30 1953 H 191.218 3.94462 4.52238 0
M  V30 1954 H 192.288 3.70394 3.12948 0
M  V30 1955 N 193.631 -1.12557 1.10312 0
M  V30 1956 C 194.578 -2.18247 0.750781 0
M  V30 1957 C 195.548 -1.63853 -0.272293 0
M  V30 1958 O 196.733 -1.90195 -0.151862 0
M  V30 1959 C 193.873 -3.44591 0.187379 0
M  V30 1960 C 192.986 -4.13046 1.2656 0
M  V30 1961 C 192.121 -5.27034 0.663978 0
M  V30 1962 C 191.16 -5.87353 1.72287 0
M  V30 1963 N 190.297 -6.92757 1.1416 0
M  V30 1964 H 195.137 -2.47732 1.65628 0
M  V30 1965 H 192.674 -1.21629 0.827337 0
M  V30 1966 H 194.632 -4.16904 -0.157148 0
M  V30 1967 H 193.262 -3.15527 -0.681355 0
M  V30 1968 H 192.314 -3.38924 1.72727 0
M  V30 1969 H 193.626 -4.53947 2.06721 0
M  V30 1970 H 192.78 -6.06104 0.268824 0
M  V30 1971 H 191.519 -4.87407 -0.169082 0
M  V30 1972 H 190.524 -5.06971 2.12746 0
M  V30 1973 H 191.749 -6.29051 2.55875 0
M  V30 1974 H 189.695 -6.5517 0.329984 0
M  V30 1975 H 189.612 -7.3225 1.88007 0
M  V30 1976 H 190.88 -7.75658 0.772956 0
M  V30 1977 N 195.109 -0.891671 -1.2995 0
M  V30 1978 C 196.525 -0.58662 -1.48428 0
M  V30 1979 C 196.725 0.873951 -1.81561 0
M  V30 1980 O 195.781 1.65471 -1.90724 0
M  V30 1981 C 197.094 -1.50553 -2.60296 0
M  V30 1982 C 198.642 -1.50988 -2.74175 0
M  V30 1983 C 199.117 -2.41488 -3.89163 0
M  V30 1984 N 200.608 -2.39489 -3.96483 0
M  V30 1985 C 201.343 -3.06223 -4.84784 0
M  V30 1986 N 200.839 -3.82206 -5.77833 0
M  V30 1987 N 202.632 -2.95421 -4.78208 0
M  V30 1988 H 194.783 -1.83644 -1.06718 0
M  V30 1989 H 197.046 -0.786455 -0.529332 0
M  V30 1990 H 196.752 -2.54581 -2.42654 0
M  V30 1991 H 196.626 -1.22008 -3.56923 0
M  V30 1992 H 199.013 -0.47708 -2.91218 0
M  V30 1993 H 199.094 -1.83567 -1.78148 0
M  V30 1994 H 198.738 -3.44857 -3.72876 0
M  V30 1995 H 198.668 -2.06222 -4.84541 0
M  V30 1996 H 201.159 -1.84278 -3.29924 0
M  V30 1997 H 201.472 -4.302 -6.41988 0
M  V30 1998 H 199.817 -3.86313 -5.77743 0
M  V30 1999 H 203.008 -2.35581 -4.04499 0
M  V30 2000 H 203.181 -3.47704 -5.46814 0
M  V30 2001 N 196.587 1.43421 -0.653314 0
M  V30 2002 C 197.534 2.30768 0.0382271 0
M  V30 2003 C 198.504 1.44755 0.814576 0
M  V30 2004 O 199.689 1.73624 0.791162 0
M  V30 2005 C 196.829 3.30336 0.998599 0
M  V30 2006 C 195.942 4.31448 0.218342 0
M  V30 2007 C 195.077 5.18098 1.17252 0
M  V30 2008 C 194.116 6.10902 0.382702 0
M  V30 2009 N 193.253 6.90176 1.28848 0
M  V30 2010 H 198.093 2.89357 -0.712511 0
M  V30 2011 H 195.63 1.42548 -0.363128 0
M  V30 2012 H 197.588 3.86572 1.56901 0
M  V30 2013 H 196.218 2.73397 1.71621 0
M  V30 2014 H 195.27 3.77506 -0.46836 0
M  V30 2015 H 196.582 4.97227 -0.395812 0
M  V30 2016 H 195.736 5.7896 1.81356 0
M  V30 2017 H 194.475 4.52444 1.82058 0
M  V30 2018 H 193.48 5.49128 -0.27169 0
M  V30 2019 H 194.705 6.78598 -0.260957 0
M  V30 2020 H 192.651 6.27171 1.92334 0
M  V30 2021 H 192.568 7.52478 0.728887 0
M  V30 2022 H 193.836 7.55543 1.91766 0
M  V30 2023 N 198.065 0.39524 1.52563 0
M  V30 2024 C 199.29 -0.187456 2.06551 0
M  V30 2025 C 199.715 -1.39249 1.26457 0
M  V30 2026 O 199.073 -1.78947 0.291151 0
M  V30 2027 C 199.121 -0.529985 3.56684 0
M  V30 2028 O 198.225 -1.62307 3.79118 0
M  V30 2029 H 197.566 -0.0202537 0.663691 0
M  V30 2030 H 200.096 0.564426 1.96661 0
M  V30 2031 H 200.106 -0.792598 4.00227 0
M  V30 2032 H 198.781 0.350987 4.14416 0
M  V30 2033 H 197.358 -1.3537 3.47461 0
M  V30 2034 N 199.544 -1.57102 0.125237 0
M  V30 2035 C 200.454 -2.19191 -0.8362 0
M  V30 2036 C 201.47 -1.16985 -1.28805 0
M  V30 2037 O 202.646 -1.49479 -1.34974 0
M  V30 2038 C 199.711 -2.78407 -2.06617 0
M  V30 2039 C 198.772 -3.9567 -1.66565 0
M  V30 2040 C 198.005 -4.52052 -2.83698 0
M  V30 2041 O 198.228 -4.07326 -3.99302 0
M  V30 2042 O 197.162 -5.42645 -2.60423 0
M  V30 2043 H 200.988 -3.01816 -0.337776 0
M  V30 2044 H 198.573 -1.4906 -0.100695 0
M  V30 2045 H 200.455 -3.16129 -2.7864 0
M  V30 2046 H 199.13 -1.9881 -2.55453 0
M  V30 2047 H 198.037 -3.62705 -0.916296 0
M  V30 2048 H 199.37 -4.76722 -1.22464 0
M  V30 2049 N 201.022 0.148545 -1.56898 0
M  V30 2050 C 201.932 1.20293 -2.01412 0
M  V30 2051 C 202.948 1.47107 -0.929273 0
M  V30 2052 O 204.124 1.58807 -1.23863 0
M  V30 2053 C 201.189 2.51682 -2.38447 0
M  V30 2054 C 200.25 2.32529 -3.60872 0
M  V30 2055 C 199.483 3.57653 -3.96132 0
M  V30 2056 O 199.706 4.63771 -3.32073 0
M  V30 2057 O 198.64 3.50408 -4.89385 0
M  V30 2058 H 202.466 0.855025 -2.91416 0
M  V30 2059 H 200.051 0.357151 -1.45068 0
M  V30 2060 H 201.933 3.29147 -2.63135 0
M  V30 2061 H 200.608 2.86006 -1.51599 0
M  V30 2062 H 199.515 1.53019 -3.41373 0
M  V30 2063 H 200.848 2.03121 -4.48333 0
M  V30 2064 N 202.5 1.5196 0.417844 0
M  V30 2065 C 203.749 1.6482 1.16264 0
M  V30 2066 C 204.062 0.379886 1.91876 0
M  V30 2067 O 205.268 0.388154 2.68711 0
M  V30 2068 C 203.724 2.91161 2.1155 0
M  V30 2069 C 203.332 4.25068 1.41495 0
M  V30 2070 C 205.076 3.13383 2.86341 0
M  V30 2071 C 202.983 5.42541 2.35379 0
M  V30 2072 H 201.913 0.613954 0.437694 0
M  V30 2073 H 204.564 1.78442 0.427871 0
M  V30 2074 H 202.946 2.71218 2.88543 0
M  V30 2075 H 204.12 4.55463 0.699263 0
M  V30 2076 H 202.435 4.0888 0.787792 0
M  V30 2077 H 205.032 3.98324 3.5671 0
M  V30 2078 H 205.375 2.27256 3.48798 0
M  V30 2079 H 205.908 3.33757 2.1645 0
M  V30 2080 H 202.647 6.30987 1.77582 0
M  V30 2081 H 202.167 5.16497 3.04945 0
M  V30 2082 H 203.846 5.75272 2.96093 0
M  V30 2083 N 203.978 -0.674533 1.42435 0
M  V30 2084 C 204.888 -1.81751 1.48337 0
M  V30 2085 C 205.904 -1.69975 0.372099 0
M  V30 2086 O 207.08 -1.91521 0.62304 0
M  V30 2087 C 204.145 -3.17895 1.38361 0
M  V30 2088 C 203.206 -3.41625 2.59982 0
M  V30 2089 C 202.439 -4.71274 2.50473 0
M  V30 2090 O 202.662 -5.49197 1.54075 0
M  V30 2091 O 201.596 -4.96254 3.4061 0
M  V30 2092 H 205.422 -1.79728 2.44809 0
M  V30 2093 H 203.007 -0.830312 1.24202 0
M  V30 2094 H 204.889 -3.99136 1.35161 0
M  V30 2095 H 203.564 -3.20555 0.450144 0
M  V30 2096 H 202.471 -2.60231 2.68757 0
M  V30 2097 H 203.804 -3.43796 3.52229 0
M  V30 2098 N 205.456 -1.28612 -0.910864 0
M  V30 2099 C 206.404 -1.1265 -2.03501 0
M  V30 2100 C 207.398 -0.0450054 -1.6934 0
M  V30 2101 O 208.604 -0.203988 -1.7884 0
M  V30 2102 H 204.979 -0.347639 -0.666822 0
M  V30 2103 H 206.95 -2.07849 -2.14106 0
M  V30 2104 C 205.699 -0.808143 -3.38178 0
M  V30 2105 H 205.022 -1.63231 -3.6496 0
M  V30 2106 H 206.462 -0.736426 -4.17556 0
M  V30 2107 C 204.921 0.488226 -3.33344 0
M  V30 2108 O 205.451 1.51766 -3.71927 0
M  V30 2109 N 203.657 0.490009 -2.86439 0
M  V30 2110 H 203.204 -0.348161 -2.55236 0
M  V30 2111 H 203.162 1.35741 -2.83587 0
M  V30 2112 N 206.934 1.1197 -1.10907 0
M  V30 2113 C 208.162 1.87402 -0.876824 0
M  V30 2114 C 208.577 1.79894 0.573025 0
M  V30 2115 O 207.934 1.17629 1.39534 0
M  V30 2116 C 207.985 3.36428 -1.32282 0
M  V30 2117 O 207.706 3.43765 -2.71582 0
M  V30 2118 C 209.207 4.28783 -1.12518 0
M  V30 2119 H 206.427 0.592793 -0.314384 0
M  V30 2120 H 208.971 1.41649 -1.47499 0
M  V30 2121 H 207.126 3.79706 -0.768229 0
M  V30 2122 H 207.54 4.3652 -2.90776 0
M  V30 2123 H 209.014 5.31613 -1.48633 0
M  V30 2124 H 209.491 4.39153 -0.0642394 0
M  V30 2125 H 210.097 3.91291 -1.66648 0
M  V30 2126 N 208.412 0.89855 1.29475 0
M  V30 2127 C 209.637 0.538561 2.00285 0
M  V30 2128 C 210.062 -0.869135 1.66816 0
M  V30 2129 O 209.42 -1.57831 0.892145 0
M  V30 2130 C 209.468 0.736475 3.52999 0
M  V30 2131 O 208.572 -0.211537 4.11857 0
M  V30 2132 H 207.913 0.210563 0.62973 0
M  V30 2133 H 210.443 1.20982 1.64998 0
M  V30 2134 H 210.453 0.640685 4.02938 0
M  V30 2135 H 209.128 1.76276 3.76696 0
M  V30 2136 H 207.705 -0.0682991 3.72837 0
M  V30 2137 N 209.89 -1.43072 0.660911 0
M  V30 2138 C 211.115 -2.06584 0.183805 0
M  V30 2139 C 211.54 -1.49257 -1.14472 0
M  V30 2140 O 210.898 -0.605528 -1.70889 0
M  V30 2141 C 210.946 -3.60418 0.114434 0
M  V30 2142 O 210.05 -4.01981 -0.921137 0
M  V30 2143 H 209.391 -0.656669 0.0983994 0
M  V30 2144 H 211.921 -1.83447 0.906006 0
M  V30 2145 H 211.931 -4.07946 -0.0663394 0
M  V30 2146 H 210.606 -4.01519 1.08422 0
M  V30 2147 H 209.183 -3.66029 -0.71253 0
M  V30 2148 N 211.368 -0.403325 -1.52352 0
M  V30 2149 C 212.614 0.174605 -2.02047 0
M  V30 2150 C 212.947 1.45282 -1.28867 0
M  V30 2151 O 212.222 1.90483 -0.393257 0
M  V30 2152 C 212.505 0.428238 -3.57545 0
M  V30 2153 C 212.358 -0.866248 -4.4138 0
M  V30 2154 C 213.677 1.21287 -4.23057 0
M  V30 2155 H 210.796 0.0619851 -0.734389 0
M  V30 2156 H 213.438 -0.53565 -1.82293 0
M  V30 2157 H 211.588 1.03327 -3.74507 0
M  V30 2158 H 213.26 -1.50265 -4.3614 0
M  V30 2159 H 211.503 -1.47851 -4.07827 0
M  V30 2160 H 212.174 -0.643249 -5.48239 0
M  V30 2161 H 214.65 0.700703 -4.10158 0
M  V30 2162 H 213.526 1.35909 -5.31808 0
M  V30 2163 H 213.787 2.23193 -3.81625 0
M  V30 2164 N 212.846 1.57033 -0.133567 0
M  V30 2165 C 213.778 2.13176 0.841944 0
M  V30 2166 C 214.791 1.07794 1.22001 0
M  V30 2167 O 215.98 1.35117 1.16643 0
M  V30 2168 C 213.08 2.62847 2.13926 0
M  V30 2169 C 212.253 3.92486 1.93064 0
M  V30 2170 C 211.312 4.27605 3.0666 0
M  V30 2171 O 210.338 4.96168 2.78937 0
M  V30 2172 N 211.54 3.861 4.33483 0
M  V30 2173 H 214.305 2.97503 0.362192 0
M  V30 2174 H 211.866 1.61821 0.05042 0
M  V30 2175 H 213.858 2.83363 2.88942 0
M  V30 2176 H 212.428 1.83319 2.53205 0
M  V30 2177 H 211.648 3.80732 1.02159 0
M  V30 2178 H 212.936 4.77225 1.76447 0
M  V30 2179 H 212.334 3.30828 4.58878 0
M  V30 2180 H 210.891 4.11694 5.05323 0
M  V30 2181 N 214.325 -0.140222 1.56975 0
M  V30 2182 C 215.574 -0.850152 1.82908 0
M  V30 2183 C 215.887 -1.82028 0.715892 0
M  V30 2184 O 217.093 -2.57485 0.861016 0
M  V30 2185 C 215.549 -1.5625 3.24213 0
M  V30 2186 C 215.157 -0.63443 4.43485 0
M  V30 2187 C 216.901 -2.25881 3.59413 0
M  V30 2188 C 214.808 -1.34879 5.75814 0
M  V30 2189 H 213.738 -0.321221 0.682153 0
M  V30 2190 H 216.389 -0.102874 1.83211 0
M  V30 2191 H 214.771 -2.35565 3.18316 0
M  V30 2192 H 215.945 0.12398 4.60633 0
M  V30 2193 H 214.26 -0.0461836 4.16374 0
M  V30 2194 H 216.857 -2.79978 4.5554 0
M  V30 2195 H 217.2 -3.02693 2.85802 0
M  V30 2196 H 217.733 -1.53477 3.67001 0
M  V30 2197 H 214.472 -0.622385 6.52539 0
M  V30 2198 H 213.992 -2.07974 5.6259 0
M  V30 2199 H 215.671 -1.88784 6.18845 0
M  V30 2200 N 215.803 -1.52179 -0.40978 0
M  V30 2201 C 217.052 -1.65434 -1.15388 0
M  V30 2202 C 217.365 -0.390056 -1.91671 0
M  V30 2203 O 218.571 -0.402399 -2.68501 0
M  V30 2204 C 217.027 -2.92279 -2.10003 0
M  V30 2205 C 216.635 -4.25813 -1.39239 0
M  V30 2206 C 218.379 -3.14897 -2.84675 0
M  V30 2207 C 216.286 -5.43782 -2.32498 0
M  V30 2208 H 215.216 -0.616267 -0.434432 0
M  V30 2209 H 217.867 -1.78666 -0.418401 0
M  V30 2210 H 216.249 -2.72744 -2.871 0
M  V30 2211 H 217.423 -4.55828 -0.675099 0
M  V30 2212 H 215.738 -4.09292 -0.766097 0
M  V30 2213 H 218.335 -4.0021 -3.54593 0
M  V30 2214 H 218.678 -2.29103 -3.47588 0
M  V30 2215 H 219.211 -3.34901 -2.14677 0
M  V30 2216 H 215.95 -6.3192 -1.74233 0
M  V30 2217 H 215.47 -5.18106 -3.02201 0
M  V30 2218 H 217.149 -5.76834 -2.93038 0
M  V30 2219 N 217.281 0.66697 -1.42791 0
M  V30 2220 C 218.191 1.80962 -1.49299 0
M  V30 2221 C 219.207 1.69775 -0.381108 0
M  V30 2222 O 220.383 1.91188 -0.633188 0
M  V30 2223 C 217.448 3.17156 -1.40045 0
M  V30 2224 C 216.509 3.40242 -2.6179 0
M  V30 2225 C 215.742 4.69939 -2.52969 0
M  V30 2226 O 215.965 5.48372 -1.56985 0
M  V30 2227 O 214.899 4.94441 -3.43237 0
M  V30 2228 H 218.725 1.78427 -2.45759 0
M  V30 2229 H 216.31 0.823713 -1.24641 0
M  V30 2230 H 218.192 3.98413 -1.37276 0
M  V30 2231 H 216.867 3.20312 -0.467138 0
M  V30 2232 H 215.774 2.58802 -2.70134 0
M  V30 2233 H 217.107 3.41923 -3.54047 0
M  V30 2234 N 218.759 1.29093 0.90403 0
M  V30 2235 C 219.669 1.15727 2.0407 0
M  V30 2236 C 220.685 0.0815308 1.73809 0
M  V30 2237 O 221.861 0.292749 1.99261 0
M  V30 2238 C 218.926 0.830424 3.36608 0
M  V30 2239 C 217.987 1.98955 3.80415 0
M  V30 2240 C 217.22 1.6782 5.06628 0
M  V30 2241 O 217.443 0.597105 5.67266 0
M  V30 2242 O 216.377 2.52486 5.46383 0
M  V30 2243 H 220.203 2.11171 2.18267 0
M  V30 2244 H 217.788 1.08504 1.027 0
M  V30 2245 H 219.67 0.662521 4.16159 0
M  V30 2246 H 218.345 -0.0942678 3.23563 0
M  V30 2247 H 217.252 2.21267 3.01648 0
M  V30 2248 H 218.585 2.89529 3.98037 0
M  V30 2249 N 220.237 -1.11381 1.11499 0
M  V30 2250 C 221.187 -2.15555 0.74298 0
M  V30 2251 C 222.171 -1.58894 -0.253276 0
M  V30 2252 O 223.363 -1.76897 -0.0602918 0
M  V30 2253 C 220.492 -3.42782 0.188481 0
M  V30 2254 C 219.578 -4.064 1.21244 0
M  V30 2255 N 219.969 -4.44864 2.40685 0
M  V30 2256 C 218.267 -4.3333 1.05552 0
M  V30 2257 C 218.968 -4.94715 3.05994 0
M  V30 2258 N 217.944 -4.90909 2.33472 0
M  V30 2259 H 221.746 -2.43074 1.65203 0
M  V30 2260 H 219.26 -1.28401 0.994329 0
M  V30 2261 H 221.257 -4.16789 -0.0961693 0
M  V30 2262 H 219.917 -3.16727 -0.715149 0
M  V30 2263 H 220.928 -4.36876 2.78136 0
M  V30 2264 H 217.605 -4.1698 0.208372 0
M  V30 2265 H 218.995 -5.34103 4.07656 0
M  V30 2266 N 221.715 -0.905404 -1.28997 0
M  V30 2267 C 223.126 -0.581953 -1.77398 0
M  V30 2268 C 223.477 0.902552 -1.74208 0
M  V30 2269 O 222.602 1.70584 -1.33154 0
M  V30 2270 C 223.197 -1.04961 -3.22131 0
M  V30 2271 C 221.756 -0.777229 -3.68288 0
M  V30 2272 C 220.903 -1.22109 -2.48967 0
M  V30 2273 H 223.854 -1.08754 -1.15578 0
M  V30 2274 H 223.875 -0.387387 -3.78523 0
M  V30 2275 H 223.387 -2.13008 -3.24421 0
M  V30 2276 H 221.488 0.290383 -3.71467 0
M  V30 2277 H 221.601 -1.37911 -4.58822 0
M  V30 2278 H 219.965 -0.639971 -2.46529 0
M  V30 2279 H 220.748 -2.30972 -2.53982 0
M  V30 2280 N 223.193 1.4272 -0.668489 0
M  V30 2281 C 224.604 1.84793 -0.266151 0
M  V30 2282 C 224.955 1.55959 1.19043 0
M  V30 2283 O 224.08 1.01622 1.91055 0
M  V30 2284 C 224.675 3.35436 -0.476271 0
M  V30 2285 C 223.234 3.76182 -0.128113 0
M  V30 2286 C 222.381 2.66344 -0.771777 0
M  V30 2287 H 225.332 1.32656 -0.871098 0
M  V30 2288 H 225.353 3.79515 0.273561 0
M  V30 2289 H 224.865 3.5639 -1.53647 0
M  V30 2290 H 222.966 3.60836 0.928891 0
M  V30 2291 H 223.079 4.75766 -0.564231 0
M  V30 2292 H 221.443 2.53885 -0.203652 0
M  V30 2293 H 222.226 2.90123 -1.83531 0
M  V30 2294 N 224.671 0.411399 1.52136 0
M  V30 2295 C 225.604 -0.457614 2.23565 0
M  V30 2296 C 226.582 -1.04613 1.24478 0
M  V30 2297 O 227.766 -1.09356 1.53536 0
M  V30 2298 C 224.893 -1.6354 2.96602 0
M  V30 2299 C 223.939 -1.17005 4.10137 0
M  V30 2300 S 224.772 -0.13333 5.35334 0
M  V30 2301 C 225.928 -1.31638 6.119 0
M  V30 2302 H 226.161 0.148883 2.96927 0
M  V30 2303 H 223.694 0.195713 1.53155 0
M  V30 2304 H 225.652 -2.31074 3.39286 0
M  V30 2305 H 224.313 -2.21324 2.22878 0
M  V30 2306 H 223.506 -2.05005 4.60422 0
M  V30 2307 H 223.108 -0.573319 3.6958 0
M  V30 2308 H 225.4 -2.23957 6.39413 0
M  V30 2309 H 226.343 -0.854014 7.02931 0
M  V30 2310 H 226.751 -1.54321 5.42997 0
M  V30 2311 N 226.149 -1.5696 0.141893 0
M  V30 2312 C 227.398 -1.95135 -0.510427 0
M  V30 2313 C 227.711 -1.02896 -1.66348 0
M  V30 2314 O 228.917 -1.30629 -2.38009 0
M  V30 2315 C 227.373 -3.46876 -0.959427 0
M  V30 2316 C 226.981 -4.47691 0.166419 0
M  V30 2317 C 228.725 -3.93927 -1.58183 0
M  V30 2318 C 226.632 -5.90636 -0.300565 0
M  V30 2319 H 225.562 -0.728494 -0.194454 0
M  V30 2320 H 228.213 -1.8211 0.22542 0
M  V30 2321 H 226.595 -3.55215 -1.75038 0
M  V30 2322 H 227.769 -4.51043 0.94325 0
M  V30 2323 H 226.084 -4.10527 0.696905 0
M  V30 2324 H 228.681 -4.98158 -1.94275 0
M  V30 2325 H 229.024 -3.3519 -2.46888 0
M  V30 2326 H 229.557 -3.88484 -0.855863 0
M  V30 2327 H 226.296 -6.5318 0.550989 0
M  V30 2328 H 225.816 -5.90655 -1.04338 0
M  V30 2329 H 227.495 -6.42588 -0.754265 0
M  V30 2330 N 227.627 0.131896 -1.57047 0
M  V30 2331 C 228.559 1.1878 -1.9602 0
M  V30 2332 C 229.572 1.38363 -0.857875 0
M  V30 2333 O 230.761 1.37666 -1.13623 0
M  V30 2334 C 227.861 2.55008 -2.23213 0
M  V30 2335 C 227.034 2.56201 -3.54513 0
M  V30 2336 C 226.093 3.7408 -3.70069 0
M  V30 2337 O 225.119 3.58258 -4.42312 0
M  V30 2338 N 226.321 4.92137 -3.07866 0
M  V30 2339 H 229.086 0.85639 -2.87204 0
M  V30 2340 H 226.647 0.321309 -1.5868 0
M  V30 2341 H 228.639 3.32404 -2.30846 0
M  V30 2342 H 227.209 2.80382 -1.3822 0
M  V30 2343 H 226.429 1.64613 -3.58185 0
M  V30 2344 H 227.717 2.54043 -4.4084 0
M  V30 2345 H 227.115 5.07895 -2.49116 0
M  V30 2346 H 225.672 5.67254 -3.21039 0
M  V30 2347 N 229.106 1.52395 0.401703 0
M  V30 2348 C 230.054 1.7689 1.51039 0
M  V30 2349 C 231.048 0.636298 1.56996 0
M  V30 2350 O 232.254 0.818507 1.60314 0
M  V30 2351 H 228.629 0.559502 0.502456 0
M  V30 2352 H 230.6 2.69757 1.27568 0
M  V30 2353 C 229.349 1.94331 2.88324 0
M  V30 2354 H 228.672 2.80905 2.84486 0
M  V30 2355 H 230.112 2.15466 3.65172 0
M  V30 2356 C 228.571 0.712396 3.29282 0
M  V30 2357 O 229.101 -0.116218 4.01532 0
M  V30 2358 N 227.307 0.546154 2.85422 0
M  V30 2359 H 226.854 1.22156 2.26794 0
M  V30 2360 H 226.812 -0.276113 3.13185 0
M  V30 2361 N 230.584 -0.659388 1.43143 0
M  V30 2362 C 231.532 -1.79374 1.4808 0
M  V30 2363 C 232.526 -1.65639 0.354988 0
M  V30 2364 O 233.732 -1.7206 0.528704 0
M  V30 2365 H 230.107 -0.591705 0.4641 0
M  V30 2366 H 232.078 -1.72329 2.43609 0
M  V30 2367 C 230.827 -3.17606 1.41499 0
M  V30 2368 H 230.15 -3.28809 2.27431 0
M  V30 2369 H 231.59 -3.96951 1.49015 0
M  V30 2370 C 230.049 -3.36642 0.131765 0
M  V30 2371 O 230.579 -3.93461 -0.809386 0
M  V30 2372 N 228.785 -2.90567 0.0439396 0
M  V30 2373 H 228.332 -2.44513 0.810619 0
M  V30 2374 H 228.29 -3.03681 -0.813969 0
M  V30 2375 N 232.062 -1.29571 -0.897171 0
M  V30 2376 C 233.025 -1.14913 -1.98312 0
M  V30 2377 C 234.025 -0.0838629 -1.60581 0
M  V30 2378 O 235.215 -0.331006 -1.71026 0
M  V30 2379 C 232.347 -0.757835 -3.3237 0
M  V30 2380 H 233.54 -2.11377 -2.12743 0
M  V30 2381 H 231.093 -1.12793 -1.08201 0
M  V30 2382 H 231.828 0.206837 -3.2364 0
M  V30 2383 H 231.613 -1.52755 -3.61121 0
M  V30 2384 H 233.103 -0.678408 -4.12053 0
M  V30 2385 N 233.54 1.10788 -1.12088 0
M  V30 2386 C 234.765 1.87002 -0.896949 0
M  V30 2387 C 235.19 1.79933 0.548261 0
M  V30 2388 O 234.548 1.16662 1.38779 0
M  V30 2389 C 234.596 3.3349 -1.37174 0
M  V30 2390 O 233.7 4.08745 -0.547831 0
M  V30 2391 H 233.041 0.580397 -0.322545 0
M  V30 2392 H 235.571 1.39996 -1.49206 0
M  V30 2393 H 235.581 3.84339 -1.36922 0
M  V30 2394 H 234.256 3.37951 -2.42408 0
M  V30 2395 H 232.833 3.6776 -0.617034 0
M  V30 2396 N 235.018 0.912232 1.28515 0
M  V30 2397 C 236.266 0.543523 1.94654 0
M  V30 2398 C 236.587 -0.9155 1.72173 0
M  V30 2399 O 235.857 -1.64708 1.06058 0
M  V30 2400 H 234.437 0.198017 0.720277 0
M  V30 2401 H 237.099 1.16126 1.56527 0
M  V30 2402 H 236.195 0.736684 3.03281 0
M  V30 2403 N 236.496 -1.42363 0.676048 0
M  V30 2404 C 237.459 -2.29199 0.00766941 0
M  V30 2405 C 238.459 -1.43389 -0.727745 0
M  V30 2406 O 239.649 -1.64764 -0.56556 0
M  V30 2407 C 236.781 -3.2591 -0.999785 0
M  V30 2408 H 237.974 -2.89794 0.771988 0
M  V30 2409 H 235.527 -1.50024 0.438468 0
M  V30 2410 H 236.262 -2.70256 -1.79255 0
M  V30 2411 H 236.047 -3.89202 -0.475829 0
M  V30 2412 H 237.537 -3.91028 -1.46583 0
M  V30 2413 N 237.974 -0.419461 -1.51915 0
M  V30 2414 C 239.202 0.152136 -2.0634 0
M  V30 2415 C 239.617 1.37988 -1.28859 0
M  V30 2416 O 238.974 1.79243 -0.343232 0
M  V30 2417 C 239.025 0.492266 -3.58133 0
M  V30 2418 O 238.746 -0.686736 -4.32684 0
M  V30 2419 C 240.247 1.11648 -4.2901 0
M  V30 2420 H 237.467 0.0158325 -0.670813 0
M  V30 2421 H 240.011 -0.593394 -1.95702 0
M  V30 2422 H 238.166 1.18769 -3.68745 0
M  V30 2423 H 238.58 -0.400341 -5.2297 0
M  V30 2424 H 240.054 1.3046 -5.36362 0
M  V30 2425 H 240.531 2.09251 -3.86148 0
M  V30 2426 H 241.137 0.460958 -4.22795 0
M  V30 2427 N 239.452 1.56882 -0.150215 0
M  V30 2428 C 240.698 1.96518 0.500834 0
M  V30 2429 C 241.031 1.03527 1.64304 0
M  V30 2430 O 240.306 0.0782751 1.94342 0
M  V30 2431 C 240.589 3.45822 1.00395 0
M  V30 2432 C 240.442 4.49591 -0.136983 0
M  V30 2433 C 241.761 3.97704 1.88467 0
M  V30 2434 H 238.88 0.714535 0.18058 0
M  V30 2435 H 241.522 1.88577 -0.232091 0
M  V30 2436 H 239.672 3.5272 1.62851 0
M  V30 2437 H 241.344 4.5477 -0.77343 0
M  V30 2438 H 239.587 4.26441 -0.795652 0
M  V30 2439 H 240.258 5.51402 0.256815 0
M  V30 2440 H 242.734 3.93304 1.35834 0
M  V30 2441 H 241.61 5.0263 2.20578 0
M  V30 2442 H 241.871 3.40252 2.82279 0
M  V30 2443 N 240.93 -0.123565 1.57115 0
M  V30 2444 C 241.893 -1.13583 1.99076 0
M  V30 2445 C 242.893 -1.34564 0.880296 0
M  V30 2446 O 244.083 -1.31158 1.14644 0
M  V30 2447 C 241.215 -2.49128 2.32698 0
M  V30 2448 H 242.408 -0.775287 2.89706 0
M  V30 2449 H 239.961 -0.36771 1.51913 0
M  V30 2450 H 240.696 -2.90111 1.44934 0
M  V30 2451 H 240.481 -2.35255 3.13684 0
M  V30 2452 H 241.971 -3.2199 2.65918 0
M  V30 2453 N 242.408 -1.52605 -0.393616 0
M  V30 2454 C 243.636 -1.71294 -1.16043 0
M  V30 2455 C 244.051 -0.429259 -1.83855 0
M  V30 2456 O 243.408 0.595921 -1.72496 0
M  V30 2457 C 243.459 -2.8593 -2.21193 0
M  V30 2458 O 243.18 -4.09329 -1.56146 0
M  V30 2459 C 244.681 -3.16259 -3.10636 0
M  V30 2460 H 241.901 -0.573641 -0.348104 0
M  V30 2461 H 244.445 -1.99234 -0.461092 0
M  V30 2462 H 242.6 -2.60465 -2.86769 0
M  V30 2463 H 243.014 -4.73323 -2.25978 0
M  V30 2464 H 244.488 -3.99946 -3.80456 0
M  V30 2465 H 244.965 -2.3045 -3.73884 0
M  V30 2466 H 245.571 -3.43547 -2.50711 0
M  V30 2467 N 243.887 0.651787 -1.4349 0
M  V30 2468 C 244.85 1.74647 -1.48429 0
M  V30 2469 C 245.85 1.56513 -0.368817 0
M  V30 2470 O 247.04 1.62385 -0.630623 0
M  V30 2471 C 244.172 3.13533 -1.33827 0
M  V30 2472 H 245.365 1.71649 -2.4592 0
M  V30 2473 H 242.918 0.863573 -1.30277 0
M  V30 2474 H 243.653 3.22142 -0.37349 0
M  V30 2475 H 243.438 3.28101 -2.14691 0
M  V30 2476 H 244.928 3.93356 -1.40218 0
M  V30 2477 N 245.365 1.30045 0.890287 0
M  V30 2478 C 246.593 1.21472 1.67487 0
M  V30 2479 C 247.008 -0.223241 1.87476 0
M  V30 2480 O 246.365 -1.14828 1.41847 0
M  V30 2481 C 246.416 1.93394 3.05419 0
M  V30 2482 O 246.137 3.31576 2.86337 0
M  V30 2483 C 247.638 1.91414 3.99844 0
M  V30 2484 H 244.858 0.420604 0.522813 0
M  V30 2485 H 247.402 1.7158 1.11268 0
M  V30 2486 H 245.557 1.47099 3.58386 0
M  V30 2487 H 245.971 3.67929 3.73802 0
M  V30 2488 H 247.445 2.46285 4.94012 0
M  V30 2489 H 247.922 0.891833 4.3005 0
M  V30 2490 H 248.528 2.37496 3.52811 0
M  V30 2491 N 246.843 -1.10192 1.12674 0
M  V30 2492 C 248.071 -1.85983 0.906527 0
M  V30 2493 C 248.486 -1.80783 -0.544333 0
M  V30 2494 O 247.843 -1.19834 -1.37645 0
M  V30 2495 C 247.894 -3.34281 1.37618 0
M  V30 2496 O 247.615 -3.39401 2.77017 0
M  V30 2497 C 249.116 -4.26938 1.19325 0
M  V30 2498 H 246.336 -0.587716 0.323775 0
M  V30 2499 H 248.88 -1.39284 1.49734 0
M  V30 2500 H 247.035 -3.78436 0.828539 0
M  V30 2501 H 247.449 -4.31838 2.97684 0
M  V30 2502 H 248.923 -5.29181 1.57071 0
M  V30 2503 H 249.4 -4.38995 0.134097 0
M  V30 2504 H 250.006 -3.8859 1.72852 0
M  V30 2505 N 248.321 -0.919034 -1.28029 0
M  V30 2506 C 249.546 -0.570357 -1.99403 0
M  V30 2507 C 249.971 0.842486 -1.68178 0
M  V30 2508 O 249.329 1.56391 -0.917141 0
M  V30 2509 C 249.377 -0.792541 -3.51783 0
M  V30 2510 O 248.481 0.145988 -4.12142 0
M  V30 2511 H 247.822 -0.220555 -0.6263 0
M  V30 2512 H 250.352 -1.23592 -1.63053 0
M  V30 2513 H 250.362 -0.704708 -4.01868 0
M  V30 2514 H 249.037 -1.82247 -3.73844 0
M  V30 2515 H 247.614 0.00897528 -3.72899 0
M  V30 2516 N 249.799 1.42003 -0.683588 0
M  V30 2517 C 251.027 2.05746 -0.218182 0
M  V30 2518 C 251.442 1.51396 1.12804 0
M  V30 2519 O 250.799 0.657303 1.70252 0
M  V30 2520 C 250.85 3.61171 -0.154131 0
M  V30 2521 O 250.571 4.13508 -1.44716 0
M  V30 2522 C 252.072 4.42042 0.333713 0
M  V30 2523 H 249.292 0.662888 -0.10402 0
M  V30 2524 H 251.836 1.81987 -0.9328 0
M  V30 2525 H 249.991 3.84012 0.511231 0
M  V30 2526 H 250.405 5.07453 -1.32632 0
M  V30 2527 H 251.879 5.51028 0.327423 0
M  V30 2528 H 252.356 4.17269 1.37053 0
M  V30 2529 H 252.962 4.24239 -0.300222 0
M  V30 2530 N 251.277 0.427512 1.51691 0
M  V30 2531 C 252.24 -0.377132 2.26076 0
M  V30 2532 C 253.24 -0.958089 1.29141 0
M  V30 2533 O 254.43 -0.83408 1.52934 0
M  V30 2534 C 251.562 -1.53262 3.04506 0
M  V30 2535 H 252.755 0.27464 2.9864 0
M  V30 2536 H 250.308 0.180445 1.55255 0
M  V30 2537 H 251.043 -2.22072 2.36335 0
M  V30 2538 H 250.828 -1.12232 3.75694 0
M  V30 2539 H 252.318 -2.10135 3.60878 0
M  V30 2540 N 252.755 -1.56801 0.158532 0
M  V30 2541 C 253.983 -2.00859 -0.496303 0
M  V30 2542 C 254.398 -1.03871 -1.57659 0
M  V30 2543 O 253.755 -0.0375165 -1.82461 0
M  V30 2544 C 253.806 -3.4479 -1.08638 0
M  V30 2545 O 253.527 -4.38072 -0.0492322 0
M  V30 2546 C 255.028 -4.04185 -1.8207 0
M  V30 2547 H 252.248 -0.65864 -0.128199 0
M  V30 2548 H 254.792 -2.02885 0.256506 0
M  V30 2549 H 252.947 -3.43579 -1.78975 0
M  V30 2550 H 253.361 -5.2227 -0.483102 0
M  V30 2551 H 254.835 -5.06857 -2.18633 0
M  V30 2552 H 255.312 -3.45549 -2.71095 0
M  V30 2553 H 255.918 -4.0906 -1.16405 0
M  V30 2554 N 254.233 0.115231 -1.57178 0
M  V30 2555 C 255.458 0.840354 -1.89612 0
M  V30 2556 C 255.883 1.72464 -0.750845 0
M  V30 2557 O 255.241 1.78826 0.298478 0
M  V30 2558 C 255.289 1.64654 -3.20814 0
M  V30 2559 O 254.393 2.7538 -3.06985 0
M  V30 2560 H 253.734 0.232158 -0.622092 0
M  V30 2561 H 256.264 0.0964977 -2.04372 0
M  V30 2562 H 256.274 2.03499 -3.53627 0
M  V30 2563 H 254.949 0.997416 -4.03763 0
M  V30 2564 H 253.526 2.3971 -2.85646 0
M  V30 2565 N 255.711 1.52812 0.385517 0
M  V30 2566 C 256.658 1.77838 1.47113 0
M  V30 2567 C 257.628 0.621757 1.54024 0
M  V30 2568 O 258.813 0.861846 1.70226 0
M  V30 2569 C 255.953 1.95618 2.84302 0
M  V30 2570 C 255.066 3.23316 2.86515 0
M  V30 2571 C 254.201 3.31394 4.15152 0
M  V30 2572 C 253.24 4.53201 4.1143 0
M  V30 2573 N 252.377 4.58542 5.3168 0
M  V30 2574 H 257.217 2.70482 1.25073 0
M  V30 2575 H 254.754 1.34006 0.606692 0
M  V30 2576 H 256.712 2.03912 3.63972 0
M  V30 2577 H 255.342 1.06331 3.04784 0
M  V30 2578 H 254.394 3.24076 1.99195 0
M  V30 2579 H 255.706 4.13045 2.79634 0
M  V30 2580 H 254.86 3.3889 5.03228 0
M  V30 2581 H 253.599 2.39645 4.24761 0
M  V30 2582 H 252.604 4.45827 3.21742 0
M  V30 2583 H 253.829 5.46271 4.03442 0
M  V30 2584 H 251.775 3.69686 5.41912 0
M  V30 2585 H 251.692 5.42148 5.26889 0
M  V30 2586 H 252.96 4.70296 6.21644 0
M  V30 2587 N 257.189 -0.644168 1.43834 0
M  V30 2588 C 258.137 -1.77793 1.49974 0
M  V30 2589 C 259.131 -1.65253 0.372536 0
M  V30 2590 O 260.337 -1.7149 0.546924 0
M  V30 2591 H 256.712 -0.58675 0.47035 0
M  V30 2592 H 258.683 -1.69736 2.45423 0
M  V30 2593 C 257.432 -3.16087 1.4486 0
M  V30 2594 H 256.755 -3.26378 2.30905 0
M  V30 2595 H 258.195 -3.95349 1.53217 0
M  V30 2596 C 256.654 -3.36484 0.167463 0
M  V30 2597 O 257.184 -3.94298 -0.767609 0
M  V30 2598 N 255.39 -2.90504 0.0747556 0
M  V30 2599 H 254.937 -2.4364 0.836507 0
M  V30 2600 H 254.895 -3.04527 -0.781714 0
M  V30 2601 N 258.668 -1.30515 -0.883378 0
M  V30 2602 C 259.893 -1.22487 -1.67367 0
M  V30 2603 C 260.318 0.208767 -1.86938 0
M  V30 2604 O 259.676 1.15015 -1.40148 0
M  V30 2605 C 259.724 -1.96041 -3.02655 0
M  V30 2606 O 258.828 -1.28859 -3.91751 0
M  V30 2607 H 258.169 -0.423573 -0.511353 0
M  V30 2608 H 260.699 -1.72362 -1.10239 0
M  V30 2609 H 260.709 -2.05124 -3.52687 0
M  V30 2610 H 259.384 -3.00307 -2.8773 0
M  V30 2611 H 257.961 -1.28141 -3.50192 0
M  V30 2612 N 260.146 1.09593 -1.13257 0
M  V30 2613 C 261.394 1.81375 -0.891492 0
M  V30 2614 C 261.715 1.86049 0.584009 0
M  V30 2615 O 260.985 1.34481 1.42449 0
M  V30 2616 H 259.565 0.671708 -0.326828 0
M  V30 2617 H 262.227 1.3256 -1.42877 0
M  V30 2618 H 261.323 2.84612 -1.28071 0
M  V30 2619 N 261.624 0.925811 1.2754 0
M  V30 2620 C 262.849 0.580924 1.99098 0
M  V30 2621 C 263.274 -0.833555 1.68622 0
M  V30 2622 O 262.632 -1.55903 0.925422 0
M  V30 2623 C 262.68 0.811186 3.51358 0
M  V30 2624 O 261.784 -0.124129 4.12213 0
M  V30 2625 H 261.125 0.223873 0.625122 0
M  V30 2626 H 263.655 1.24455 1.62395 0
M  V30 2627 H 263.665 0.72601 4.01489 0
M  V30 2628 H 262.34 1.84227 3.72872 0
M  V30 2629 H 260.917 0.0108006 3.72898 0
M  V30 2630 N 263.102 -1.41638 0.69111 0
M  V30 2631 C 264.05 -2.32597 0.0115199 0
M  V30 2632 C 265.044 -1.5072 -0.773296 0
M  V30 2633 O 266.25 -1.66685 -0.67942 0
M  V30 2634 H 262.625 -0.751849 -0.0150746 0
M  V30 2635 H 264.596 -2.87593 0.795791 0
M  V30 2636 C 263.345 -3.35467 -0.914172 0
M  V30 2637 H 262.668 -3.9852 -0.319687 0
M  V30 2638 H 264.108 -4.01662 -1.35808 0
M  V30 2639 C 262.567 -2.69004 -2.02826 0
M  V30 2640 O 263.097 -2.53444 -3.11655 0
M  V30 2641 N 261.303 -2.2777 -1.80469 0
M  V30 2642 H 260.85 -2.40626 -0.919615 0
M  V30 2643 H 260.808 -1.83635 -2.55197 0
M  V30 2644 N 264.58 -0.43555 -1.51462 0
M  V30 2645 C 265.805 0.132627 -2.06976 0
M  V30 2646 C 266.23 1.35848 -1.30104 0
M  V30 2647 O 265.588 1.78112 -0.338493 0
M  V30 2648 C 265.636 0.43523 -3.57964 0
M  V30 2649 O 264.74 1.52198 -3.83288 0
M  V30 2650 H 264.081 0.00265 -0.663995 0
M  V30 2651 H 266.611 -0.616369 -1.95095 0
M  V30 2652 H 266.621 0.686206 -4.02188 0
M  V30 2653 H 265.296 -0.460739 -4.1334 0
M  V30 2654 H 263.873 1.2611 -3.50928 0
M  V30 2655 N 266.058 1.56714 -0.166846 0
M  V30 2656 C 266.968 2.21331 0.777791 0
M  V30 2657 C 267.984 1.20358 1.25658 0
M  V30 2658 O 269.16 1.53005 1.30964 0
M  V30 2659 C 266.225 2.83787 1.99163 0
M  V30 2660 C 265.286 3.99947 1.56016 0
M  V30 2661 C 264.519 4.59415 2.71613 0
M  V30 2662 O 264.742 4.17769 3.88362 0
M  V30 2663 O 263.676 5.49359 2.45945 0
M  V30 2664 H 267.502 3.02605 0.257636 0
M  V30 2665 H 265.087 1.49275 0.0611393 0
M  V30 2666 H 266.969 3.23405 2.70161 0
M  V30 2667 H 265.644 2.05513 2.50092 0
M  V30 2668 H 264.551 3.65007 0.819809 0
M  V30 2669 H 265.884 4.79801 1.09782 0
M  V30 2670 N 267.536 -0.106894 1.57237 0
M  V30 2671 C 268.784 -0.810921 1.85117 0
M  V30 2672 C 269.105 -1.7984 0.753827 0
M  V30 2673 O 268.375 -1.94649 -0.221056 0
M  V30 2674 H 266.955 -0.302466 0.683025 0
M  V30 2675 H 269.617 -0.0913324 1.94686 0
M  V30 2676 H 268.713 -1.34875 2.81452 0
M  V30 2677 N 269.014 -1.53014 -0.377408 0
M  V30 2678 C 270.291 -1.59215 -1.13622 0
M  V30 2679 C 270.671 -0.392407 -2.07421 0
M  V30 2680 O 270.019 0.618342 -2.19975 0
M  V30 2681 C 270.229 -2.93669 -1.88573 0
M  V30 2682 C 271.577 -3.47822 -2.43526 0
M  V30 2683 O 272.601 -2.9562 -1.98715 0
M  V30 2684 O 271.46 -4.39055 -3.25412 0
M  V30 2685 H 268.554 -0.642625 -0.52054 0
M  V30 2686 H 271.1 -1.65353 -0.381625 0
M  V30 2687 H 269.872 -3.7243 -1.20048 0
M  V30 2688 H 269.495 -2.90968 -2.70968 0
M  V30 2689 N 270.492 0.636531 -1.44174 0
M  V30 2690 C 271.722 1.42146 -1.49927 0
M  V30 2691 C 272.13 1.88812 -0.121063 0
M  V30 2692 O 271.473 1.61126 0.882267 0
M  V30 2693 C 271.535 2.67883 -2.39748 0
M  V30 2694 C 271.199 2.43048 -3.8701 0
M  V30 2695 C 272.196 2.05216 -4.77684 0
M  V30 2696 C 269.881 2.56856 -4.3166 0
M  V30 2697 C 271.875 1.81512 -6.11009 0
M  V30 2698 C 269.562 2.32766 -5.65034 0
M  V30 2699 C 270.56 1.95152 -6.54526 0
M  V30 2700 O 270.248 1.71326 -7.85431 0
M  V30 2701 H 269.98 0.442567 -0.51099 0
M  V30 2702 H 272.534 0.786158 -1.8976 0
M  V30 2703 H 270.764 3.34032 -1.94832 0
M  V30 2704 H 272.453 3.29874 -2.36513 0
M  V30 2705 H 273.219 1.94111 -4.44462 0
M  V30 2706 H 269.098 2.85104 -3.62266 0
M  V30 2707 H 272.642 1.52077 -6.80822 0
M  V30 2708 H 268.539 2.43479 -5.97819 0
M  V30 2709 H 269.307 1.85616 -7.97176 0
M  V30 2710 N 271.97 1.30982 0.876444 0
M  V30 2711 C 272.902 1.13902 1.98894 0
M  V30 2712 C 273.915 0.0798815 1.62604 0
M  V30 2713 O 275.104 0.326743 1.75484 0
M  V30 2714 C 272.204 0.716699 3.31235 0
M  V30 2715 C 271.377 1.85945 3.95908 0
M  V30 2716 C 270.436 1.42426 5.06558 0
M  V30 2717 O 269.462 2.13287 5.27729 0
M  V30 2718 N 270.664 0.308025 5.79682 0
M  V30 2719 H 273.429 2.09724 2.14094 0
M  V30 2720 H 270.99 1.2323 1.05004 0
M  V30 2721 H 272.982 0.408403 4.02634 0
M  V30 2722 H 271.552 -0.149719 3.12241 0
M  V30 2723 H 270.772 2.33541 3.17573 0
M  V30 2724 H 272.06 2.62503 4.35855 0
M  V30 2725 H 271.458 -0.282241 5.64995 0
M  V30 2726 H 270.015 0.0592282 6.51773 0
M  V30 2727 N 273.449 -1.08991 1.13837 0
M  V30 2728 C 274.379 -2.17771 0.842507 0
M  V30 2729 C 275.36 -1.6892 -0.20001 0
M  V30 2730 O 276.545 -1.94113 -0.0579731 0
M  V30 2731 C 273.675 -3.4589 0.312644 0
M  V30 2732 C 272.629 -4.08099 1.28992 0
M  V30 2733 C 271.955 -5.31098 0.619623 0
M  V30 2734 C 273.255 -4.50077 2.65005 0
M  V30 2735 H 274.949 -2.42777 1.75213 0
M  V30 2736 H 272.495 -1.16682 0.843875 0
M  V30 2737 H 274.448 -4.21297 0.0933043 0
M  V30 2738 H 273.172 -3.20419 -0.632382 0
M  V30 2739 H 271.831 -3.34717 1.49533 0
M  V30 2740 H 271.479 -5.0191 -0.33102 0
M  V30 2741 H 271.179 -5.73674 1.27167 0
M  V30 2742 H 272.703 -6.09224 0.409669 0
M  V30 2743 H 274.117 -5.16688 2.48407 0
M  V30 2744 H 272.514 -5.03553 3.26427 0
M  V30 2745 H 273.584 -3.62257 3.22332 0
M  V30 2746 N 274.927 -0.932562 -1.27047 0
M  V30 2747 C 276.173 -0.576412 -1.94436 0
M  V30 2748 C 276.506 0.880891 -1.73072 0
M  V30 2749 O 275.781 1.62905 -1.06264 0
M  V30 2750 C 276.064 -0.909031 -3.48437 0
M  V30 2751 C 275.917 -2.42044 -3.79123 0
M  V30 2752 C 277.236 -0.418341 -4.38107 0
M  V30 2753 H 274.355 -0.210888 -0.706184 0
M  V30 2754 H 276.997 -1.16522 -1.50075 0
M  V30 2755 H 275.147 -0.407947 -3.86352 0
M  V30 2756 H 276.819 -2.99359 -3.50973 0
M  V30 2757 H 275.062 -2.86758 -3.25503 0
M  V30 2758 H 275.733 -2.6037 -4.86736 0
M  V30 2759 H 278.209 -0.847856 -4.0737 0
M  V30 2760 H 277.085 -0.679981 -5.44672 0
M  V30 2761 H 277.346 0.681642 -4.36814 0
M  V30 2762 N 276.405 1.4127 -0.698611 0
M  V30 2763 C 277.337 2.292 0.00399731 0
M  V30 2764 C 278.35 1.44944 0.741279 0
M  V30 2765 O 279.539 1.68416 0.591477 0
M  V30 2766 C 276.639 3.22875 1.02979 0
M  V30 2767 C 275.812 4.35904 0.36151 0
M  V30 2768 C 274.871 5.10134 1.29033 0
M  V30 2769 O 273.897 5.63809 0.781562 0
M  V30 2770 N 275.099 5.17885 2.6225 0
M  V30 2771 H 277.864 2.9014 -0.750921 0
M  V30 2772 H 275.425 1.52455 -0.544882 0
M  V30 2773 H 277.417 3.69404 1.65296 0
M  V30 2774 H 275.987 2.63221 1.68622 0
M  V30 2775 H 275.207 3.91719 -0.441584 0
M  V30 2776 H 276.495 5.08696 -0.103055 0
M  V30 2777 H 275.893 4.7573 3.061 0
M  V30 2778 H 274.45 5.6798 3.19754 0
M  V30 2779 N 277.883 0.443576 1.51229 0
M  V30 2780 C 278.833 -0.382787 2.24764 0
M  V30 2781 C 279.817 -0.984836 1.27239 0
M  V30 2782 O 281.009 -0.901943 1.52296 0
M  V30 2783 C 278.138 -1.47989 3.09765 0
M  V30 2784 C 277.224 -0.886931 4.14722 0
M  V30 2785 N 277.615 -0.0237103 5.05794 0
M  V30 2786 C 275.913 -1.15385 4.30816 0
M  V30 2787 C 276.614 0.309971 5.80874 0
M  V30 2788 N 275.59 -0.307989 5.42727 0
M  V30 2789 H 279.392 0.282624 2.92538 0
M  V30 2790 H 276.906 0.256027 1.60369 0
M  V30 2791 H 278.903 -2.08482 3.61027 0
M  V30 2792 H 277.563 -2.14758 2.43535 0
M  V30 2793 H 278.574 0.34318 5.16762 0
M  V30 2794 H 275.251 -1.81857 3.75812 0
M  V30 2795 H 276.641 1.01279 6.64223 0
M  V30 2796 N 279.361 -1.56624 0.175154 0
M  V30 2797 C 280.271 -2.21741 -0.766042 0
M  V30 2798 C 281.287 -1.21023 -1.25018 0
M  V30 2799 O 282.463 -1.53697 -1.3015 0
M  V30 2800 C 279.528 -2.84839 -1.97655 0
M  V30 2801 C 278.589 -4.00769 -1.53892 0
M  V30 2802 C 277.822 -4.60849 -2.69173 0
M  V30 2803 O 278.045 -4.19823 -3.86141 0
M  V30 2804 O 276.979 -5.50655 -2.43028 0
M  V30 2805 H 280.805 -3.02738 -0.241585 0
M  V30 2806 H 278.39 -1.49305 -0.053222 0
M  V30 2807 H 280.272 -3.24834 -2.68442 0
M  V30 2808 H 278.947 -2.06836 -2.48999 0
M  V30 2809 H 277.854 -3.65436 -0.80044 0
M  V30 2810 H 279.187 -4.80376 -1.07236 0
M  V30 2811 N 280.839 0.0985539 -1.57292 0
M  V30 2812 C 282.085 0.803867 -1.86188 0
M  V30 2813 C 282.418 1.78549 -0.763794 0
M  V30 2814 O 281.693 1.93153 0.22855 0
M  V30 2815 C 281.976 1.53568 -3.25713 0
M  V30 2816 C 281.829 0.572277 -4.46145 0
M  V30 2817 C 283.148 2.48708 -3.63087 0
M  V30 2818 H 280.267 0.290781 -0.677211 0
M  V30 2819 H 282.909 0.0675783 -1.8988 0
M  V30 2820 H 281.059 2.16332 -3.22696 0
M  V30 2821 H 282.731 -0.0480894 -4.61275 0
M  V30 2822 H 280.974 -0.114618 -4.33649 0
M  V30 2823 H 281.645 1.12139 -5.40489 0
M  V30 2824 H 284.121 1.96039 -3.67026 0
M  V30 2825 H 282.997 2.96932 -4.61652 0
M  V30 2826 H 283.258 3.32309 -2.91588 0
M  V30 2827 N 282.317 1.53212 0.369288 0
M  V30 2828 C 283.247 1.82365 1.45826 0
M  V30 2829 C 284.228 0.676907 1.56051 0
M  V30 2830 O 285.413 0.926401 1.70679 0
M  V30 2831 C 282.543 2.01023 2.83208 0
M  V30 2832 C 281.497 3.1678 2.8781 0
M  V30 2833 C 280.823 3.20724 4.27832 0
M  V30 2834 C 282.123 4.55447 2.55667 0
M  V30 2835 H 283.817 2.73559 1.21678 0
M  V30 2836 H 281.363 1.3163 0.583911 0
M  V30 2837 H 283.316 2.20001 3.59413 0
M  V30 2838 H 282.04 1.06536 3.08736 0
M  V30 2839 H 280.699 2.97616 2.14056 0
M  V30 2840 H 280.347 2.23882 4.50429 0
M  V30 2841 H 280.047 3.98496 4.31827 0
M  V30 2842 H 281.571 3.41881 5.05915 0
M  V30 2843 H 282.985 4.74611 3.21586 0
M  V30 2844 H 281.382 5.35432 2.70984 0
M  V30 2845 H 282.452 4.60812 1.5093 0
M  V30 2846 N 283.795 -0.628877 1.44509 0
M  V30 2847 C 285.035 -1.39993 1.48934 0
M  V30 2848 C 285.399 -1.91627 0.119604 0
M  V30 2849 O 286.6 -2.68772 0.0385283 0
M  V30 2850 C 284.871 -2.53241 2.52198 0
M  V30 2851 S 286.43 -3.41383 2.75687 0
M  V30 2852 H 283.248 -0.477558 0.526744 0
M  V30 2853 H 285.85 -0.727804 1.81448 0
M  V30 2854 H 284.554 -2.13622 3.50419 0
M  V30 2855 H 284.085 -3.25278 2.21264 0
M  V30 2856 H 286.1 -4.50752 2.07453 0
M  V30 2857 N 285.273 -1.31445 -0.869486 0
M  V30 2858 C 286.498 -1.24256 -1.66058 0
M  V30 2859 C 286.923 0.188928 -1.87149 0
M  V30 2860 O 286.281 1.13522 -1.4136 0
M  V30 2861 C 286.329 -1.9924 -3.00559 0
M  V30 2862 O 285.433 -1.33007 -3.90362 0
M  V30 2863 H 284.774 -0.428973 -0.506831 0
M  V30 2864 H 287.304 -1.73521 -1.08404 0
M  V30 2865 H 287.314 -2.08854 -3.50491 0
M  V30 2866 H 285.989 -3.03342 -2.84528 0
M  V30 2867 H 284.566 -1.31848 -3.48813 0
M  V30 2868 N 286.751 1.08385 -1.14413 0
M  V30 2869 C 287.684 2.14642 -0.774871 0
M  V30 2870 C 288.662 1.60761 0.243876 0
M  V30 2871 O 289.846 1.88031 0.132883 0
M  V30 2872 C 286.973 3.38366 -0.150491 0
M  V30 2873 C 286.019 4.10997 -1.13945 0
M  V30 2874 S 286.852 4.63797 -2.67679 0
M  V30 2875 C 288.008 5.90808 -2.06631 0
M  V30 2876 H 288.241 2.45633 -1.67487 0
M  V30 2877 H 285.774 1.20498 -0.96538 0
M  V30 2878 H 287.732 4.09996 0.203334 0
M  V30 2879 H 286.393 3.05572 0.72694 0
M  V30 2880 H 285.586 4.99783 -0.65059 0
M  V30 2881 H 285.188 3.4528 -1.43727 0
M  V30 2882 H 287.48 6.62411 -1.4219 0
M  V30 2883 H 288.423 6.4439 -2.93542 0
M  V30 2884 H 288.831 5.4383 -1.51357 0
M  V30 2885 N 288.23 0.939286 1.26551 0
M  V30 2886 C 289.458 0.602536 1.97932 0
M  V30 2887 C 289.873 -0.82206 1.69964 0
M  V30 2888 O 289.23 -1.54789 0.966784 0
M  V30 2889 C 289.281 0.832946 3.51773 0
M  V30 2890 O 289.002 2.20151 3.78768 0
M  V30 2891 C 290.503 0.506483 4.40397 0
M  V30 2892 H 287.723 0.227248 0.631347 0
M  V30 2893 H 290.267 1.25948 1.61113 0
M  V30 2894 H 288.422 0.222644 3.8676 0
M  V30 2895 H 288.836 2.26013 4.73306 0
M  V30 2896 H 290.31 0.718333 5.47306 0
M  V30 2897 H 290.787 -0.558451 4.35635 0
M  V30 2898 H 291.393 1.09543 4.10951 0
M  V30 2899 N 289.708 -1.40897 0.706093 0
M  V30 2900 C 290.656 -2.32572 0.0361893 0
M  V30 2901 C 291.65 -1.51532 -0.757266 0
M  V30 2902 O 292.856 -1.67396 -0.661703 0
M  V30 2903 H 289.231 -0.751966 -0.00709935 0
M  V30 2904 H 291.202 -2.86733 0.826249 0
M  V30 2905 C 289.951 -3.36418 -0.87854 0
M  V30 2906 H 289.274 -3.98836 -0.277401 0
M  V30 2907 H 290.714 -4.0308 -1.3154 0
M  V30 2908 C 289.173 -2.71141 -1.99961 0
M  V30 2909 O 289.703 -2.56735 -3.0895 0
M  V30 2910 N 287.909 -2.29671 -1.78043 0
M  V30 2911 H 287.456 -2.41588 -0.894042 0
M  V30 2912 H 287.414 -1.86332 -2.53235 0
M  V30 2913 N 291.186 -0.45159 -1.50991 0
M  V30 2914 C 292.414 0.108334 -2.06616 0
M  V30 2915 C 292.829 1.35224 -1.31757 0
M  V30 2916 O 292.186 1.78475 -0.381174 0
M  V30 2917 C 292.237 0.41619 -3.59096 0
M  V30 2918 O 291.958 -0.778361 -4.3113 0
M  V30 2919 C 293.459 1.02523 -4.31282 0
M  V30 2920 H 290.679 0.00159995 -0.670998 0
M  V30 2921 H 293.223 -0.634771 -1.94399 0
M  V30 2922 H 291.378 1.10921 -3.71181 0
M  V30 2923 H 291.792 -0.511181 -5.22003 0
M  V30 2924 H 293.266 1.19053 -5.39009 0
M  V30 2925 H 293.743 2.01013 -3.905 0
M  V30 2926 H 294.349 0.371173 -4.23677 0
M  V30 2927 N 292.664 1.56529 -0.183458 0
M  V30 2928 C 293.894 2.01331 0.463612 0
M  V30 2929 C 294.302 1.06278 1.5653 0
M  V30 2930 O 293.645 0.0577976 1.83609 0
M  V30 2931 C 293.707 3.42547 1.09096 0
M  V30 2932 C 293.371 4.56817 0.129442 0
M  V30 2933 C 294.368 5.15734 -0.656807 0
M  V30 2934 C 292.053 5.02295 0.02174 0
M  V30 2935 C 294.047 6.1857 -1.53784 0
M  V30 2936 C 291.734 6.04978 -0.862864 0
M  V30 2937 C 292.732 6.62988 -1.64123 0
M  V30 2938 O 292.42 7.63677 -2.51103 0
M  V30 2939 H 292.152 0.664917 0.121907 0
M  V30 2940 H 294.706 2.034 -0.285954 0
M  V30 2941 H 292.936 3.37428 1.88889 0
M  V30 2942 H 294.625 3.71228 1.64148 0
M  V30 2943 H 295.391 4.81473 -0.583839 0
M  V30 2944 H 291.27 4.56847 0.617392 0
M  V30 2945 H 294.814 6.63777 -2.14583 0
M  V30 2946 H 290.711 6.38663 -0.93699 0
M  V30 2947 H 291.479 7.81049 -2.44753 0
M  V30 2948 N 294.142 -0.090211 1.57342 0
M  V30 2949 C 295.052 -1.12735 2.05738 0
M  V30 2950 C 296.068 -1.43557 0.983231 0
M  V30 2951 O 297.244 -1.54101 1.29672 0
M  V30 2952 C 294.309 -2.42659 2.47624 0
M  V30 2953 C 293.37 -2.18975 3.69254 0
M  V30 2954 C 292.603 -3.42704 4.09133 0
M  V30 2955 O 292.826 -4.51127 3.49057 0
M  V30 2956 O 291.76 -3.32003 5.02053 0
M  V30 2957 H 295.586 -0.746279 2.94388 0
M  V30 2958 H 293.171 -0.303064 1.46294 0
M  V30 2959 H 295.053 -3.19155 2.7517 0
M  V30 2960 H 293.728 -2.80182 1.62109 0
M  V30 2961 H 292.635 -1.40244 3.46818 0
M  V30 2962 H 293.968 -1.86342 4.55563 0
M  V30 2963 N 295.62 -1.53406 -0.361157 0
M  V30 2964 C 296.866 -1.70054 -1.10496 0
M  V30 2965 C 297.199 -0.453278 -1.88836 0
M  V30 2966 O 296.474 0.5495 -1.86576 0
M  V30 2967 C 296.757 -2.95317 -2.06058 0
M  V30 2968 C 296.61 -4.3021 -1.31298 0
M  V30 2969 C 297.929 -3.16193 -3.06121 0
M  V30 2970 H 295.048 -0.618799 -0.400321 0
M  V30 2971 H 297.69 -1.86052 -0.385318 0
M  V30 2972 H 295.84 -2.81809 -2.67425 0
M  V30 2973 H 297.512 -4.55538 -0.726807 0
M  V30 2974 H 295.755 -4.29421 -0.614853 0
M  V30 2975 H 296.426 -5.14 -2.01265 0
M  V30 2976 H 298.902 -3.28916 -2.5486 0
M  V30 2977 H 297.778 -4.05266 -3.70204 0
M  V30 2978 H 298.039 -2.31676 -3.76535 0
M  V30 2979 N 297.098 0.621204 -1.44841 0
M  V30 2980 C 298.028 1.74366 -1.55303 0
M  V30 2981 C 299.009 1.65199 -0.405385 0
M  V30 2982 O 300.194 1.83807 -0.626787 0
M  V30 2983 C 297.324 3.12931 -1.50637 0
M  V30 2984 C 296.278 3.36896 -2.63979 0
M  V30 2985 C 295.604 4.75594 -2.44366 0
M  V30 2986 C 296.904 3.28483 -4.06074 0
M  V30 2987 H 298.598 1.65867 -2.49256 0
M  V30 2988 H 296.144 0.796558 -1.19962 0
M  V30 2989 H 298.097 3.9124 -1.56555 0
M  V30 2990 H 296.821 3.22237 -0.532057 0
M  V30 2991 H 295.48 2.60972 -2.57467 0
M  V30 2992 H 295.128 4.81616 -1.45105 0
M  V30 2993 H 294.828 4.92586 -3.20364 0
M  V30 2994 H 296.352 5.5612 -2.52117 0
M  V30 2995 H 297.766 3.96684 -4.13902 0
M  V30 2996 H 296.163 3.57008 -4.82354 0
M  V30 2997 H 297.233 2.26133 -4.28943 0
M  V30 2998 N 298.576 1.31904 0.862503 0
M  V30 2999 C 299.486 1.22161 2.00285 0
M  V30 3000 C 300.502 0.136785 1.73462 0
M  V30 3001 O 301.678 0.355994 1.98229 0
M  V30 3002 C 298.743 0.937093 3.33796 0
M  V30 3003 C 297.804 2.10957 3.73893 0
M  V30 3004 C 297.037 1.83853 5.01033 0
M  V30 3005 O 297.26 0.777274 5.65079 0
M  V30 3006 O 296.194 2.69741 5.38074 0
M  V30 3007 H 300.02 2.18008 2.11439 0
M  V30 3008 H 297.605 1.11716 0.991957 0
M  V30 3009 H 299.487 0.794583 4.13841 0
M  V30 3010 H 298.162 0.00871894 3.23699 0
M  V30 3011 H 297.069 2.30752 2.94456 0
M  V30 3012 H 298.402 3.02046 3.88625 0
M  V30 3013 N 300.054 -1.07777 1.14986 0
M  V30 3014 C 301.301 -1.8029 0.922056 0
M  V30 3015 C 301.629 -1.86531 -0.55105 0
M  V30 3016 O 300.884 -1.34189 -1.42449 0
M  V30 3017 C 301.183 -3.25495 1.47608 0
M  V30 3018 C 300.849 -3.39361 2.96893 0
M  V30 3019 C 299.511 -3.42852 3.37647 0
M  V30 3020 C 301.863 -3.42512 3.92854 0
M  V30 3021 C 299.191 -3.47094 4.73015 0
M  V30 3022 C 301.543 -3.4829 5.28088 0
M  V30 3023 C 300.207 -3.50058 5.68345 0
M  V30 3024 H 299.477 -0.659727 0.337404 0
M  V30 3025 H 302.124 -1.26854 1.43459 0
M  V30 3026 H 300.429 -3.81683 0.88463 0
M  V30 3027 H 302.126 -3.80168 1.27568 0
M  V30 3028 H 298.716 -3.37339 2.64387 0
M  V30 3029 H 302.9 -3.3904 3.62444 0
M  V30 3030 H 298.156 -3.46758 5.03556 0
M  V30 3031 H 302.33 -3.49675 6.02246 0
M  V30 3032 H 299.957 -3.53097 6.73221 0
M  V30 3033 N 301.532 -0.945985 -1.26051 0
M  V30 3034 C 302.462 -0.477172 -2.28572 0
M  V30 3035 C 303.443 0.472032 -1.63419 0
M  V30 3036 O 304.628 0.372853 -1.90587 0
M  V30 3037 C 301.758 0.253975 -3.4637 0
M  V30 3038 C 300.712 -0.609135 -4.23643 0
M  V30 3039 C 300.038 0.252252 -5.34105 0
M  V30 3040 C 301.338 -1.8829 -4.8718 0
M  V30 3041 H 303.032 -1.33402 -2.68038 0
M  V30 3042 H 300.578 -0.642904 -1.28852 0
M  V30 3043 H 302.531 0.593016 -4.17207 0
M  V30 3044 H 301.255 1.145 -3.05871 0
M  V30 3045 H 299.914 -0.931138 -3.54578 0
M  V30 3046 H 299.562 1.14278 -4.89846 0
M  V30 3047 H 299.262 -0.32188 -5.86718 0
M  V30 3048 H 300.786 0.586454 -6.07777 0
M  V30 3049 H 302.2 -1.61081 -5.50205 0
M  V30 3050 H 300.597 -2.40199 -5.49931 0
M  V30 3051 H 301.667 -2.59134 -4.09851 0
M  V30 3052 N 303.011 1.40521 -0.713556 0
M  V30 3053 C 304.259 2.00527 -0.251692 0
M  V30 3054 C 304.58 1.56857 1.15848 0
M  V30 3055 O 303.85 0.807127 1.785 0
M  V30 3056 H 302.43 0.741551 -0.0900646 0
M  V30 3057 H 305.092 1.71887 -0.918733 0
M  V30 3058 H 304.188 3.10813 -0.283192 0
M  V30 3059 N 304.489 0.459591 1.5075 0
M  V30 3060 C 305.905 0.113092 1.59199 0
M  V30 3061 C 306.105 -1.37951 1.46874 0
M  V30 3062 O 305.161 -2.15168 1.32132 0
M  V30 3063 C 306.474 0.653043 2.93523 0
M  V30 3064 C 308.022 0.615449 3.0689 0
M  V30 3065 C 308.497 1.13275 4.43771 0
M  V30 3066 N 309.988 1.09167 4.50152 0
M  V30 3067 C 310.723 1.46256 5.54434 0
M  V30 3068 N 310.219 1.90739 6.66026 0
M  V30 3069 N 312.012 1.37932 5.44914 0
M  V30 3070 H 304.163 1.43049 1.57005 0
M  V30 3071 H 306.426 0.590861 0.741341 0
M  V30 3072 H 306.132 1.69822 3.07983 0
M  V30 3073 H 306.006 0.0902132 3.77092 0
M  V30 3074 H 308.393 -0.420793 2.92084 0
M  V30 3075 H 308.474 1.21495 2.25106 0
M  V30 3076 H 308.118 2.16757 4.59324 0
M  V30 3077 H 308.048 0.509576 5.24129 0
M  V30 3078 H 310.539 0.76528 3.7007 0
M  V30 3079 H 310.852 2.17218 7.41644 0
M  V30 3080 H 309.197 1.94683 6.67176 0
M  V30 3081 H 312.388 1.0303 4.56621 0
M  V30 3082 H 312.561 1.67164 6.26067 0
M  V30 3083 N 305.967 -1.56429 0.191757 0
M  V30 3084 C 307.215 -1.97095 -0.447006 0
M  V30 3085 C 307.536 -1.07967 -1.62383 0
M  V30 3086 O 306.806 -0.150248 -1.95323 0
M  V30 3087 H 305.386 -0.727832 -0.168135 0
M  V30 3088 H 308.048 -1.92911 0.27771 0
M  V30 3089 H 307.144 -3.01848 -0.793371 0
M  V30 3090 N 307.445 0.0818655 -1.57387 0
M  V30 3091 C 308.673 0.796108 -1.9097 0
M  V30 3092 C 309.088 1.71626 -0.786757 0
M  V30 3093 O 308.445 1.80908 0.240513 0
M  V30 3094 C 308.496 1.59829 -3.24248 0
M  V30 3095 O 308.217 0.715131 -4.32224 0
M  V30 3096 C 309.718 2.41442 -3.7178 0
M  V30 3097 H 306.938 0.22691 -0.631469 0
M  V30 3098 H 309.482 0.0551439 -2.04426 0
M  V30 3099 H 307.637 2.29163 -3.12351 0
M  V30 3100 H 308.051 1.27205 -5.08841 0
M  V30 3101 H 309.525 2.932 -4.67694 0
M  V30 3102 H 310.002 3.2051 -3.00283 0
M  V30 3103 H 310.608 1.77283 -3.86589 0
M  V30 3104 N 308.923 1.53595 0.353017 0
M  V30 3105 C 310.17 1.70385 1.09431 0
M  V30 3106 C 310.498 0.462113 1.88931 0
M  V30 3107 O 309.753 -0.556074 1.87633 0
M  V30 3108 C 310.052 2.91313 2.07054 0
M  V30 3109 C 309.718 4.27308 1.43939 0
M  V30 3110 C 308.38 4.64287 1.26454 0
M  V30 3111 C 310.732 5.11829 0.983883 0
M  V30 3112 C 308.06 5.83412 0.620226 0
M  V30 3113 C 310.412 6.31611 0.353516 0
M  V30 3114 C 309.076 6.67293 0.166272 0
M  V30 3115 H 308.346 0.623484 0.400436 0
M  V30 3116 H 310.993 1.87799 0.374655 0
M  V30 3117 H 309.298 2.68463 2.85368 0
M  V30 3118 H 310.995 3.01497 2.64387 0
M  V30 3119 H 307.585 3.98198 1.58543 0
M  V30 3120 H 311.769 4.838 1.10685 0
M  V30 3121 H 307.025 6.09639 0.463681 0
M  V30 3122 H 311.199 6.964 -0.00757555 0
M  V30 3123 H 308.826 7.59461 -0.335047 0
M  V30 3124 N 310.401 -0.613514 1.45168 0
M  V30 3125 C 311.649 -1.36997 1.48581 0
M  V30 3126 C 311.97 -1.94589 0.126545 0
M  V30 3127 O 311.24 -1.76816 -0.843372 0
M  V30 3128 H 309.82 -0.508558 0.547154 0
M  V30 3129 H 312.482 -0.720853 1.81079 0
M  V30 3130 H 311.578 -2.1924 2.22127 0
M  V30 3131 N 311.879 -1.3236 -0.855495 0
M  V30 3132 C 312.811 -1.17052 -1.97057 0
M  V30 3133 C 313.824 -0.10574 -1.62456 0
M  V30 3134 O 315.013 -0.354619 -1.74942 0
M  V30 3135 C 312.113 -0.769305 -3.30053 0
M  V30 3136 C 311.286 -1.9222 -3.929 0
M  V30 3137 C 310.345 -1.50466 -5.04228 0
M  V30 3138 O 309.371 -2.21655 -5.24269 0
M  V30 3139 N 310.573 -0.400209 -5.79119 0
M  V30 3140 H 313.338 -2.13103 -2.1073 0
M  V30 3141 H 310.899 -1.24885 -1.0303 0
M  V30 3142 H 312.891 -0.472407 -4.01933 0
M  V30 3143 H 311.461 0.100025 -3.1244 0
M  V30 3144 H 310.681 -2.38563 -3.13817 0
M  V30 3145 H 311.969 -2.69403 -4.31624 0
M  V30 3146 H 311.367 0.192319 -5.65373 0
M  V30 3147 H 309.924 -0.162912 -6.51596 0
M  V30 3148 N 313.357 1.07166 -1.15556 0
M  V30 3149 C 314.603 1.80065 -0.932984 0
M  V30 3150 C 314.936 1.86586 0.53845 0
M  V30 3151 O 314.211 1.35098 1.39924 0
M  V30 3152 C 314.494 3.25022 -1.55025 0
M  V30 3153 C 314.347 3.26634 -3.09242 0
M  V30 3154 C 315.666 4.22341 -1.2376 0
M  V30 3155 H 312.785 0.653697 -0.340366 0
M  V30 3156 H 315.427 1.25389 -1.4275 0
M  V30 3157 H 313.577 3.71712 -1.12972 0
M  V30 3158 H 315.249 2.88173 -3.60214 0
M  V30 3159 H 313.492 2.65539 -3.43033 0
M  V30 3160 H 314.163 4.28854 -3.47546 0
M  V30 3161 H 316.639 3.8405 -1.60139 0
M  V30 3162 H 315.515 5.22053 -1.69564 0
M  V30 3163 H 315.776 4.41828 -0.154938 0
M  V30 3164 N 314.835 0.952656 1.25548 0
M  V30 3165 C 316.081 0.607272 1.93494 0
M  V30 3166 C 316.414 -0.853245 1.74452 0
M  V30 3167 O 315.689 -1.61194 1.08843 0
M  V30 3168 C 315.972 0.96435 3.46947 0
M  V30 3169 C 315.825 2.48045 3.75225 0
M  V30 3170 C 317.144 0.487987 4.37386 0
M  V30 3171 H 314.263 0.222096 0.702739 0
M  V30 3172 H 316.905 1.18895 1.48203 0
M  V30 3173 H 315.055 0.469361 3.85654 0
M  V30 3174 H 316.727 3.04905 3.46166 0
M  V30 3175 H 314.97 2.919 3.209 0
M  V30 3176 H 315.641 2.6808 4.82532 0
M  V30 3177 H 318.117 0.912558 4.0597 0
M  V30 3178 H 316.993 0.766547 5.43521 0
M  V30 3179 H 317.254 -0.612063 4.37843 0
M  V30 3180 N 316.313 -1.40141 0.720998 0
M  V30 3181 C 317.26 -2.30688 0.071919 0
M  V30 3182 C 318.23 -1.48476 -0.744584 0
M  V30 3183 O 319.415 -1.77201 -0.707423 0
M  V30 3184 C 316.555 -3.34724 -0.839855 0
M  V30 3185 C 315.668 -4.31998 -0.0122438 0
M  V30 3186 C 314.803 -5.23102 -0.923995 0
M  V30 3187 C 313.842 -6.12033 -0.0907969 0
M  V30 3188 N 312.979 -6.95537 -0.957718 0
M  V30 3189 H 317.819 -2.85628 0.849755 0
M  V30 3190 H 315.356 -1.40653 0.430726 0
M  V30 3191 H 317.314 -3.93618 -1.38279 0
M  V30 3192 H 315.944 -2.81274 -1.58381 0
M  V30 3193 H 314.996 -3.74841 0.64794 0
M  V30 3194 H 316.308 -4.94772 0.632595 0
M  V30 3195 H 315.462 -5.86953 -1.53527 0
M  V30 3196 H 314.201 -4.60615 -1.60264 0
M  V30 3197 H 313.206 -5.47207 0.533377 0
M  V30 3198 H 314.431 -6.76581 0.584428 0
M  V30 3199 H 312.377 -6.35633 -1.62192 0
M  V30 3200 H 312.294 -7.55099 -0.36904 0
M  V30 3201 H 313.562 -7.63832 -1.555 0
M  V30 3202 N 317.792 -0.46758 -1.50504 0
M  V30 3203 C 319.032 0.0874114 -2.04213 0
M  V30 3204 C 319.396 1.37301 -1.34211 0
M  V30 3205 O 320.597 2.01015 -1.78456 0
M  V30 3206 C 318.868 0.270571 -3.56374 0
M  V30 3207 S 320.427 0.784623 -4.31728 0
M  V30 3208 H 317.245 0.0176153 -0.710782 0
M  V30 3209 H 319.847 -0.633915 -1.84937 0
M  V30 3210 H 318.551 -0.670942 -4.04878 0
M  V30 3211 H 318.082 1.01811 -3.79997 0
M  V30 3212 H 320.097 2.05849 -4.51487 0
M  V30 3213 N 319.27 1.56325 -0.20005 0
M  V30 3214 C 320.516 1.98772 0.431408 0
M  V30 3215 C 320.871 1.0849 1.58895 0
M  V30 3216 O 320.164 0.130331 1.91156 0
M  V30 3217 C 320.358 3.4495 0.935103 0
M  V30 3218 C 320.187 4.49371 -0.172096 0
M  V30 3219 C 318.957 5.0134 -0.631377 0
M  V30 3220 C 321.155 5.04822 -0.982806 0
M  V30 3221 N 319.137 5.89433 -1.71588 0
M  V30 3222 C 320.508 5.89632 -1.91661 0
M  V30 3223 C 322.563 4.87242 -1.02467 0
M  V30 3224 C 321.266 6.58741 -2.88881 0
M  V30 3225 C 323.292 5.57094 -1.98494 0
M  V30 3226 C 322.654 6.41655 -2.90617 0
M  V30 3227 H 318.753 0.771922 0.125144 0
M  V30 3228 H 321.337 1.92266 -0.306883 0
M  V30 3229 H 319.508 3.51946 1.64282 0
M  V30 3230 H 321.24 3.74354 1.53758 0
M  V30 3231 H 317.995 4.73071 -0.223827 0
M  V30 3232 H 318.419 6.38182 -2.25948 0
M  V30 3233 H 323.061 4.21538 -0.326408 0
M  V30 3234 H 320.779 7.23641 -3.5968 0
M  V30 3235 H 324.365 5.45466 -2.0238 0
M  V30 3236 H 323.245 6.94755 -3.63711 0
M  V30 3237 N 320.748 -0.0735177 1.57428 0
M  V30 3238 C 321.695 -1.08756 2.0357 0
M  V30 3239 C 322.665 -1.38559 0.916 0
M  V30 3240 O 323.85 -1.49656 1.18354 0
M  V30 3241 C 320.99 -2.39657 2.48311 0
M  V30 3242 C 320.103 -2.16399 3.73892 0
M  V30 3243 C 319.238 -3.40852 4.07423 0
M  V30 3244 C 318.277 -3.1295 5.2605 0
M  V30 3245 N 317.414 -4.29729 5.55228 0
M  V30 3246 H 322.254 -0.687104 2.8997 0
M  V30 3247 H 319.791 -0.327709 1.43403 0
M  V30 3248 H 321.749 -3.16081 2.72303 0
M  V30 3249 H 320.379 -2.77508 1.64891 0
M  V30 3250 H 319.431 -1.30676 3.57251 0
M  V30 3251 H 320.743 -1.91788 4.60455 0
M  V30 3252 H 319.897 -4.25671 4.32306 0
M  V30 3253 H 318.636 -3.68537 3.19425 0
M  V30 3254 H 317.641 -2.26526 5.00965 0
M  V30 3255 H 318.866 -2.86589 6.15665 0
M  V30 3256 H 316.812 -4.57448 4.70188 0
M  V30 3257 H 316.729 -4.08385 6.36206 0
M  V30 3258 H 317.997 -5.1555 5.84661 0
M  V30 3259 N 322.226 -1.5378 -0.344866 0
M  V30 3260 C 323.642 -1.44015 -0.687888 0
M  V30 3261 C 323.842 -0.595834 -1.92489 0
M  V30 3262 O 322.898 -0.0863064 -2.52352 0
M  V30 3263 C 324.211 -2.87481 -0.881758 0
M  V30 3264 C 325.759 -2.97247 -0.980459 0
M  V30 3265 C 326.234 -4.41819 -1.20665 0
M  V30 3266 N 327.725 -4.45339 -1.27389 0
M  V30 3267 C 328.46 -5.54333 -1.46639 0
M  V30 3268 N 327.956 -6.73335 -1.63071 0
M  V30 3269 N 329.749 -5.41944 -1.49176 0
M  V30 3270 H 321.9 -2.07169 0.468475 0
M  V30 3271 H 324.163 -0.93643 0.147655 0
M  V30 3272 H 323.869 -3.51672 -0.0443444 0
M  V30 3273 H 323.743 -3.32352 -1.78388 0
M  V30 3274 H 326.13 -2.33197 -1.8084 0
M  V30 3275 H 326.211 -2.5574 -0.0552713 0
M  V30 3276 H 325.855 -5.06449 -0.383652 0
M  V30 3277 H 325.785 -4.80917 -2.14539 0
M  V30 3278 H 328.276 -3.59585 -1.1622 0
M  V30 3279 H 328.589 -7.52165 -1.77391 0
M  V30 3280 H 326.934 -6.76282 -1.60209 0
M  V30 3281 H 330.125 -4.47932 -1.3592 0
M  V30 3282 H 330.298 -6.26946 -1.63837 0
M  V30 3283 N 323.704 0.605807 -1.45491 0
M  V30 3284 C 324.952 1.36207 -1.49305 0
M  V30 3285 C 325.273 1.94519 -0.136863 0
M  V30 3286 O 324.543 1.77261 0.833983 0
M  V30 3287 H 323.123 0.50565 -0.549843 0
M  V30 3288 H 325.785 0.711239 -1.81459 0
M  V30 3289 H 324.881 2.18058 -2.23287 0
M  V30 3290 N 325.182 1.32811 0.848464 0
M  V30 3291 C 326.41 1.26739 1.63538 0
M  V30 3292 C 326.825 -0.163484 1.88091 0
M  V30 3293 O 326.182 -1.10258 1.45429 0
M  V30 3294 C 326.233 2.03013 2.99112 0
M  V30 3295 O 325.954 3.40518 2.75643 0
M  V30 3296 C 327.455 2.04038 3.93552 0
M  V30 3297 H 324.675 0.437024 0.509167 0
M  V30 3298 H 327.219 1.75033 1.05753 0
M  V30 3299 H 325.374 1.58426 3.53525 0
M  V30 3300 H 325.788 3.79635 3.61908 0
M  V30 3301 H 327.262 2.61877 4.85926 0
M  V30 3302 H 327.739 1.0282 4.26995 0
M  V30 3303 H 328.345 2.486 3.45077 0
M  V30 3304 N 326.66 -1.06551 1.16123 0
M  V30 3305 C 327.608 -2.16063 0.861371 0
M  V30 3306 C 328.602 -1.6856 -0.168517 0
M  V30 3307 O 329.808 -1.79986 -0.0227579 0
M  V30 3308 H 326.183 -0.705278 0.260934 0
M  V30 3309 H 328.154 -2.38567 1.79244 0
M  V30 3310 C 326.903 -3.45661 0.376018 0
M  V30 3311 H 326.226 -3.82604 1.15992 0
M  V30 3312 H 327.666 -4.23504 0.204951 0
M  V30 3313 C 326.125 -3.24546 -0.903954 0
M  V30 3314 O 326.655 -3.49865 -1.97377 0
M  V30 3315 N 324.861 -2.77992 -0.846679 0
M  V30 3316 H 324.408 -2.57589 0.0241017 0
M  V30 3317 H 324.366 -2.64244 -1.70359 0
M  V30 3318 N 328.138 -0.959301 -1.25041 0
M  V30 3319 C 329.048 -0.489994 -2.29426 0
M  V30 3320 C 330.064 0.444944 -1.68215 0
M  V30 3321 O 331.24 0.320046 -1.98841 0
M  V30 3322 C 328.305 0.220309 -3.45999 0
M  V30 3323 C 327.366 -0.753418 -4.22637 0
M  V30 3324 C 326.599 -0.076918 -5.33645 0
M  V30 3325 O 326.822 1.13649 -5.58963 0
M  V30 3326 O 325.756 -0.764824 -5.97021 0
M  V30 3327 H 329.582 -1.35755 -2.71669 0
M  V30 3328 H 327.167 -0.725961 -1.30576 0
M  V30 3329 H 329.049 0.619677 -4.16819 0
M  V30 3330 H 327.724 1.06296 -3.0575 0
M  V30 3331 H 326.631 -1.20308 -3.54227 0
M  V30 3332 H 327.964 -1.56423 -4.66683 0
M  V30 3333 N 329.616 1.39756 -0.72842 0
M  V30 3334 C 330.865 1.99879 -0.270407 0
M  V30 3335 C 331.178 1.58449 1.14688 0
M  V30 3336 O 332.384 2.11362 1.70407 0
M  V30 3337 C 330.84 3.57292 -0.43252 0
M  V30 3338 C 330.448 4.07688 -1.85727 0
M  V30 3339 C 332.192 4.24485 -0.0359507 0
M  V30 3340 C 330.099 5.5765 -1.96928 0
M  V30 3341 H 329.029 0.747689 -0.0973472 0
M  V30 3342 H 331.68 1.59837 -0.901355 0
M  V30 3343 H 330.062 3.95097 0.267219 0
M  V30 3344 H 331.236 3.81231 -2.58843 0
M  V30 3345 H 329.551 3.53135 -2.20646 0
M  V30 3346 H 332.148 5.34609 -0.0987484 0
M  V30 3347 H 332.491 4.03915 1.00787 0
M  V30 3348 H 333.024 3.9183 -0.686604 0
M  V30 3349 H 329.763 5.8309 -2.99476 0
M  V30 3350 H 329.283 5.8593 -1.28241 0
M  V30 3351 H 330.962 6.22957 -1.74737 0
M  V30 3352 N 331.094 0.475555 1.50254 0
M  V30 3353 C 332.34 -0.0780073 2.0265 0
M  V30 3354 C 332.673 -1.38968 1.35652 0
M  V30 3355 O 331.948 -1.8839 0.483691 0
M  V30 3356 C 332.231 -0.257161 3.59181 0
M  V30 3357 C 332.084 1.07585 4.36744 0
M  V30 3358 C 333.403 -1.00965 4.28362 0
M  V30 3359 H 330.522 -0.0268758 0.73651 0
M  V30 3360 H 333.164 0.622015 1.7953 0
M  V30 3361 H 331.314 -0.853412 3.79011 0
M  V30 3362 H 332.986 1.70902 4.28474 0
M  V30 3363 H 331.229 1.6714 4.00308 0
M  V30 3364 H 331.9 0.904088 5.44546 0
M  V30 3365 H 334.376 -0.504214 4.13034 0
M  V30 3366 H 333.252 -1.10381 5.37687 0
M  V30 3367 H 333.513 -2.04731 3.91839 0
M  V30 3368 N 332.573 -1.56217 0.208337 0
M  V30 3369 C 333.536 -2.18455 -0.693557 0
M  V30 3370 C 334.536 -1.14268 -1.13135 0
M  V30 3371 O 335.726 -1.39577 -1.0423 0
M  V30 3372 C 332.858 -2.79727 -1.94848 0
M  V30 3373 H 334.051 -2.99519 -0.15114 0
M  V30 3374 H 331.604 -1.56245 -0.041287 0
M  V30 3375 H 332.339 -2.02497 -2.53309 0
M  V30 3376 H 332.124 -3.56009 -1.64316 0
M  V30 3377 H 333.614 -3.27475 -2.59133 0
M  V30 3378 N 334.051 0.0651679 -1.57465 0
M  V30 3379 C 335.3 0.761916 -1.86756 0
M  V30 3380 C 335.613 1.78406 -0.801925 0
M  V30 3381 O 336.819 2.53084 -0.982885 0
M  V30 3382 C 335.275 1.40603 -3.31299 0
M  V30 3383 C 334.883 0.422115 -4.46007 0
M  V30 3384 C 336.627 2.08476 -3.69781 0
M  V30 3385 C 334.534 1.07252 -5.81593 0
M  V30 3386 H 333.464 0.288308 -0.696702 0
M  V30 3387 H 336.115 0.015344 -1.83494 0
M  V30 3388 H 334.497 2.20109 -3.29193 0
M  V30 3389 H 335.671 -0.343613 -4.59517 0
M  V30 3390 H 333.986 -0.152527 -4.16121 0
M  V30 3391 H 336.583 2.57925 -4.68379 0
M  V30 3392 H 336.926 2.88712 -2.99919 0
M  V30 3393 H 337.459 1.35792 -3.73905 0
M  V30 3394 H 334.198 0.310342 -6.54765 0
M  V30 3395 H 333.718 1.80895 -5.71872 0
M  V30 3396 H 335.397 1.59043 -6.27148 0
M  V30 3397 N 335.529 1.53961 0.336706 0
M  V30 3398 C 336.476 1.82428 1.41381 0
M  V30 3399 C 337.446 0.670444 1.51968 0
M  V30 3400 O 338.631 0.915565 1.67398 0
M  V30 3401 C 335.771 2.04564 2.77934 0
M  V30 3402 C 334.884 3.32267 2.76084 0
M  V30 3403 C 334.019 3.44434 4.04399 0
M  V30 3404 C 333.058 4.66061 3.96804 0
M  V30 3405 N 332.195 4.75224 5.16823 0
M  V30 3406 H 337.035 2.74324 1.16405 0
M  V30 3407 H 334.572 1.35869 0.563752 0
M  V30 3408 H 336.53 2.15388 3.57301 0
M  V30 3409 H 335.16 1.15974 3.01247 0
M  V30 3410 H 334.212 3.3025 1.88784 0
M  V30 3411 H 335.524 4.21733 2.66351 0
M  V30 3412 H 334.678 3.54728 4.92192 0
M  V30 3413 H 333.417 2.53037 4.16921 0
M  V30 3414 H 332.422 4.55838 3.07396 0
M  V30 3415 H 333.647 5.58829 3.85858 0
M  V30 3416 H 331.593 3.86739 5.29876 0
M  V30 3417 H 331.51 5.58636 5.09374 0
M  V30 3418 H 332.778 4.89835 6.06367 0
M  V30 3419 N 337.007 -0.598083 1.45811 0
M  V30 3420 C 338.256 -1.35295 1.49594 0
M  V30 3421 C 338.569 -1.95057 0.145679 0
M  V30 3422 O 339.775 -2.71431 0.0612099 0
M  V30 3423 C 338.231 -2.45124 2.63519 0
M  V30 3424 C 337.839 -1.91732 4.04899 0
M  V30 3425 C 339.583 -3.2205 2.76558 0
M  V30 3426 C 337.49 -2.991 5.1019 0
M  V30 3427 H 336.42 -0.508552 0.556679 0
M  V30 3428 H 339.071 -0.639977 1.71978 0
M  V30 3429 H 337.453 -3.19149 2.34435 0
M  V30 3430 H 338.627 -1.24352 4.43704 0
M  V30 3431 H 336.942 -1.27522 3.96393 0
M  V30 3432 H 339.539 -4.0215 3.52391 0
M  V30 3433 H 339.882 -3.73663 1.83526 0
M  V30 3434 H 340.415 -2.55127 3.05213 0
M  V30 3435 H 337.154 -2.52393 6.04961 0
M  V30 3436 H 336.674 -3.65017 4.75944 0
M  V30 3437 H 338.353 -3.63318 5.35359 0
M  V30 3438 N 338.485 -1.33259 -0.841409 0
M  V30 3439 C 339.415 -1.25926 -1.96634 0
M  V30 3440 C 340.396 -0.140349 -1.6952 0
M  V30 3441 O 341.581 -0.329707 -1.91381 0
M  V30 3442 C 338.711 -0.99512 -3.32738 0
M  V30 3443 C 337.665 -2.0767 -3.74242 0
M  V30 3444 C 336.991 -1.66474 -5.08125 0
M  V30 3445 C 338.291 -3.49318 -3.88297 0
M  V30 3446 H 339.985 -2.20046 -2.03027 0
M  V30 3447 H 337.531 -1.05931 -0.975425 0
M  V30 3448 H 339.484 -0.930323 -4.11002 0
M  V30 3449 H 338.208 -0.0183004 -3.26595 0
M  V30 3450 H 336.867 -2.13187 -2.98239 0
M  V30 3451 H 336.515 -0.675012 -4.9845 0
M  V30 3452 H 336.215 -2.3885 -5.36865 0
M  V30 3453 H 337.739 -1.61455 -5.88867 0
M  V30 3454 H 339.153 -3.46316 -4.56879 0
M  V30 3455 H 337.55 -4.20158 -4.28471 0
M  V30 3456 H 338.62 -3.8801 -2.9082 0
M  V30 3457 N 339.963 1.05934 -1.16686 0
M  V30 3458 C 340.91 2.13499 -0.876748 0
M  V30 3459 C 341.88 1.65162 0.176299 0
M  V30 3460 O 343.065 1.90757 0.0407143 0
M  V30 3461 C 340.205 3.42912 -0.387967 0
M  V30 3462 C 339.318 4.04964 -1.50426 0
M  V30 3463 C 338.453 5.22266 -0.970125 0
M  V30 3464 C 337.492 5.76309 -2.06238 0
M  V30 3465 N 336.629 6.84922 -1.54356 0
M  V30 3466 H 341.469 2.37654 -1.7979 0
M  V30 3467 H 339.006 1.16598 -0.896843 0
M  V30 3468 H 340.964 4.17111 -0.086186 0
M  V30 3469 H 339.594 3.18963 0.496235 0
M  V30 3470 H 338.646 3.28277 -1.92193 0
M  V30 3471 H 339.958 4.41122 -2.32836 0
M  V30 3472 H 339.112 6.03506 -0.621743 0
M  V30 3473 H 337.851 4.87564 -0.115377 0
M  V30 3474 H 336.856 4.93704 -2.41942 0
M  V30 3475 H 338.081 6.13062 -2.92115 0
M  V30 3476 H 336.027 6.52131 -0.711406 0
M  V30 3477 H 335.944 7.20043 -2.30379 0
M  V30 3478 H 337.212 7.69832 -1.22387 0
M  V30 3479 N 341.441 0.965919 1.2453 0
M  V30 3480 C 342.389 0.486506 2.27455 0
M  V30 3481 C 343.383 -0.449041 1.6334 0
M  V30 3482 O 344.589 -0.324527 1.7705 0
M  V30 3483 H 340.964 0.138857 0.739069 0
M  V30 3484 H 342.935 1.3666 2.65267 0
M  V30 3485 C 341.684 -0.209481 3.47068 0
M  V30 3486 H 341.007 0.50129 3.96645 0
M  V30 3487 H 342.447 -0.508775 4.20936 0
M  V30 3488 C 340.906 -1.43586 3.0477 0
M  V30 3489 O 341.436 -2.53299 3.11773 0
M  V30 3490 N 339.642 -1.30126 2.59838 0
M  V30 3491 H 339.189 -0.408583 2.54339 0
M  V30 3492 H 339.147 -2.12294 2.31902 0
M  V30 3493 N 342.919 -1.39368 0.735821 0
M  V30 3494 C 343.869 -2.27885 0.0724287 0
M  V30 3495 C 344.853 -1.44301 -0.711756 0
M  V30 3496 O 346.045 -1.67206 -0.58063 0
M  V30 3497 C 343.174 -3.33029 -0.833454 0
M  V30 3498 C 342.26 -4.24078 -0.0433749 0
M  V30 3499 N 342.651 -4.96138 0.983903 0
M  V30 3500 C 340.949 -4.45164 -0.272905 0
M  V30 3501 C 341.65 -5.63069 1.4604 0
M  V30 3502 N 340.626 -5.37991 0.778857 0
M  V30 3503 H 344.428 -2.81052 0.859467 0
M  V30 3504 H 341.942 -1.5206 0.570227 0
M  V30 3505 H 343.939 -3.95311 -1.32419 0
M  V30 3506 H 342.599 -2.81421 -1.61964 0
M  V30 3507 H 343.61 -4.9958 1.36528 0
M  V30 3508 H 340.287 -4.04497 -1.03383 0
M  V30 3509 H 341.677 -6.30755 2.31511 0
M  V30 3510 N 344.397 -0.483516 -1.5 0
M  V30 3511 C 345.808 -0.0314176 -1.86674 0
M  V30 3512 C 346.159 1.37728 -1.39733 0
M  V30 3513 O 345.284 2.02327 -0.767635 0
M  V30 3514 C 345.879 -0.0502376 -3.38763 0
M  V30 3515 C 344.438 0.346442 -3.74802 0
M  V30 3516 C 343.585 -0.430366 -2.7394 0
M  V30 3517 H 346.536 -0.697182 -1.42566 0
M  V30 3518 H 346.557 0.749116 -3.73053 0
M  V30 3519 H 346.069 -1.07563 -3.72897 0
M  V30 3520 H 344.17 1.37572 -3.46273 0
M  V30 3521 H 344.283 0.0391486 -4.79084 0
M  V30 3522 H 342.647 0.117557 -2.54429 0
M  V30 3523 H 343.43 -1.4555 -3.10918 0
M  V30 3524 N 345.875 1.56104 -0.216619 0
M  V30 3525 C 347.1 2.0301 0.424462 0
M  V30 3526 C 347.525 1.0955 1.52907 0
M  V30 3527 O 346.883 0.0827914 1.81111 0
M  V30 3528 C 346.931 3.4819 0.937883 0
M  V30 3529 O 346.035 3.57865 2.04955 0
M  V30 3530 H 345.376 0.656925 0.0966755 0
M  V30 3531 H 347.906 2.01859 -0.33381 0
M  V30 3532 H 347.916 3.88413 1.24897 0
M  V30 3533 H 346.591 4.15699 0.129387 0
M  V30 3534 H 345.168 3.29527 1.74546 0
M  V30 3535 N 347.353 -0.0568162 1.57498 0
M  V30 3536 C 348.583 -0.764515 1.91934 0
M  V30 3537 C 348.991 -1.70877 0.81227 0
M  V30 3538 O 348.334 -1.82351 -0.222213 0
M  V30 3539 C 348.396 -1.5994 3.21962 0
M  V30 3540 C 348.06 -0.822925 4.4953 0
M  V30 3541 C 349.057 -0.135464 5.19723 0
M  V30 3542 C 346.742 -0.785666 4.96117 0
M  V30 3543 C 348.736 0.578861 6.34766 0
M  V30 3544 C 346.423 -0.0675784 6.11063 0
M  V30 3545 C 347.421 0.613471 6.80239 0
M  V30 3546 O 347.109 1.31996 7.92989 0
M  V30 3547 H 346.841 -0.221647 0.63863 0
M  V30 3548 H 349.395 -0.0268218 2.05382 0
M  V30 3549 H 347.625 -2.38026 3.04763 0
M  V30 3550 H 349.314 -2.18715 3.41934 0
M  V30 3551 H 350.08 -0.155458 4.84751 0
M  V30 3552 H 345.959 -1.30524 4.42136 0
M  V30 3553 H 349.503 1.111 6.88696 0
M  V30 3554 H 345.4 -0.0455636 6.45484 0
M  V30 3555 H 346.168 1.23077 8.09194 0
M  V30 3556 N 348.832 -1.54138 -0.328536 0
M  V30 3557 C 349.795 -1.82462 -1.38709 0
M  V30 3558 C 350.795 -0.696229 -1.44946 0
M  V30 3559 O 351.985 -0.964535 -1.4506 0
M  V30 3560 C 349.117 -1.98018 -2.77492 0
M  V30 3561 H 350.31 -2.77037 -1.14851 0
M  V30 3562 H 347.863 -1.45779 -0.563751 0
M  V30 3563 H 348.598 -1.05637 -3.06613 0
M  V30 3564 H 348.383 -2.80124 -2.74359 0
M  V30 3565 H 349.873 -2.21396 -3.54081 0
M  V30 3566 N 350.31 0.590341 -1.46126 0
M  V30 3567 C 351.726 0.912917 -1.30912 0
M  V30 3568 C 351.926 1.99616 -0.274893 0
M  V30 3569 O 350.982 2.50397 0.325197 0
M  V30 3570 C 352.295 1.3375 -2.69317 0
M  V30 3571 C 353.843 1.45077 -2.77348 0
M  V30 3572 C 354.318 1.90904 -4.16317 0
M  V30 3573 N 355.809 1.9811 -4.18696 0
M  V30 3574 C 356.544 2.34828 -5.23109 0
M  V30 3575 N 356.04 2.70393 -6.37856 0
M  V30 3576 N 357.833 2.35317 -5.10473 0
M  V30 3577 H 349.984 -0.125358 -2.1203 0
M  V30 3578 H 352.247 0.00658481 -0.947977 0
M  V30 3579 H 351.953 0.615614 -3.4627 0
M  V30 3580 H 351.827 2.30058 -2.9892 0
M  V30 3581 H 354.214 2.16353 -2.00687 0
M  V30 3582 H 354.295 0.4704 -2.51438 0
M  V30 3583 H 353.939 1.20209 -4.9347 0
M  V30 3584 H 353.869 2.89886 -4.39629 0
M  V30 3585 H 356.36 1.73146 -3.359 0
M  V30 3586 H 356.673 2.97341 -7.13308 0
M  V30 3587 H 355.018 2.68048 -6.41229 0
M  V30 3588 H 358.209 2.0695 -4.19868 0
M  V30 3589 H 358.382 2.63605 -5.9196 0
M  V30 3590 N 351.788 1.33704 0.83433 0
M  V30 3591 C 352.72 1.20172 1.9517 0
M  V30 3592 C 353.733 0.131572 1.62267 0
M  V30 3593 O 354.922 0.382406 1.74356 0
M  V30 3594 C 352.022 0.821716 3.28787 0
M  V30 3595 C 351.195 1.98446 3.89792 0
M  V30 3596 C 350.254 1.58469 5.01771 0
M  V30 3597 O 349.28 2.29968 5.20676 0
M  V30 3598 N 350.482 0.492291 5.78409 0
M  V30 3599 H 353.247 2.16429 2.07313 0
M  V30 3600 H 350.808 1.26509 1.0103 0
M  V30 3601 H 352.8 0.536291 4.01131 0
M  V30 3602 H 351.37 -0.0503058 3.1256 0
M  V30 3603 H 350.59 2.43526 3.09982 0
M  V30 3604 H 351.878 2.76236 4.27283 0
M  V30 3605 H 351.276 -0.102349 5.65607 0
M  V30 3606 H 349.833 0.266555 6.51255 0
M  V30 3607 N 353.266 -1.05314 1.17247 0
M  V30 3608 C 354.514 -1.77941 0.958194 0
M  V30 3609 C 354.835 -1.88089 -0.514556 0
M  V30 3610 O 354.105 -1.39676 -1.37359 0
M  V30 3611 H 352.685 -0.659116 0.351533 0
M  V30 3612 H 355.347 -1.27166 1.47699 0
M  V30 3613 H 354.443 -2.79663 1.38546 0
M  V30 3614 N 354.744 -0.972509 -1.24016 0
M  V30 3615 C 355.676 -0.464375 -2.24446 0
M  V30 3616 C 356.689 0.4295 -1.57032 0
M  V30 3617 O 357.878 0.234902 -1.76948 0
M  V30 3618 C 354.978 0.348385 -3.37105 0
M  V30 3619 C 354.151 -0.53673 -4.34094 0
M  V30 3620 C 353.21 0.220838 -5.25736 0
M  V30 3621 O 352.236 -0.386867 -5.67884 0
M  V30 3622 N 353.438 1.50907 -5.60542 0
M  V30 3623 H 356.203 -1.32788 -2.68677 0
M  V30 3624 H 353.764 -0.844877 -1.38107 0
M  V30 3625 H 355.756 0.863341 -3.95384 0
M  V30 3626 H 354.326 1.11285 -2.92121 0
M  V30 3627 H 353.546 -1.23261 -3.74433 0
M  V30 3628 H 354.834 -1.14022 -4.95859 0
M  V30 3629 H 354.232 2.02444 -5.28236 0
M  V30 3630 H 352.789 1.96962 -6.21329 0
M  V30 3631 N 356.222 1.38976 -0.743202 0
M  V30 3632 C 357.471 1.99581 -0.291592 0
M  V30 3633 C 357.784 1.59656 1.13001 0
M  V30 3634 O 358.99 2.13157 1.68156 0
M  V30 3635 C 357.446 3.56813 -0.470391 0
M  V30 3636 C 357.054 4.05695 -1.90041 0
M  V30 3637 C 358.798 4.24423 -0.0809709 0
M  V30 3638 C 356.705 5.5553 -2.02832 0
M  V30 3639 H 355.635 0.746615 -0.105272 0
M  V30 3640 H 358.286 1.58872 -0.918258 0
M  V30 3641 H 356.668 3.95359 0.225299 0
M  V30 3642 H 357.842 3.78464 -2.62872 0
M  V30 3643 H 356.157 3.50775 -2.24379 0
M  V30 3644 H 358.754 5.34474 -0.155445 0
M  V30 3645 H 359.097 4.04962 0.96497 0
M  V30 3646 H 359.63 3.9108 -0.728124 0
M  V30 3647 H 356.369 5.79881 -3.05643 0
M  V30 3648 H 355.889 5.84537 -1.34448 0
M  V30 3649 H 357.568 6.21069 -1.81335 0
M  V30 3650 N 357.7 0.491464 1.49741 0
M  V30 3651 C 358.61 -0.296835 2.32715 0
M  V30 3652 C 359.626 -0.976536 1.44013 0
M  V30 3653 O 360.802 -0.960023 1.77047 0
M  V30 3654 C 357.867 -1.35288 3.19215 0
M  V30 3655 C 356.928 -0.687632 4.23757 0
M  V30 3656 C 356.161 -1.69336 5.06123 0
M  V30 3657 O 356.384 -2.92219 4.89861 0
M  V30 3658 O 355.318 -1.25394 5.88693 0
M  V30 3659 H 359.144 0.382048 3.01287 0
M  V30 3660 H 356.729 0.252953 1.47243 0
M  V30 3661 H 358.611 -1.96411 3.72828 0
M  V30 3662 H 357.286 -2.01487 2.53347 0
M  V30 3663 H 356.193 -0.0369159 3.74082 0
M  V30 3664 H 357.526 -0.0682566 4.92153 0
M  V30 3665 N 359.178 -1.55987 0.224894 0
M  V30 3666 C 360.424 -1.98684 -0.406502 0
M  V30 3667 C 360.757 -1.11248 -1.59177 0
M  V30 3668 O 360.032 -0.170909 -1.93748 0
M  V30 3669 C 360.315 -3.50218 -0.837808 0
M  V30 3670 C 360.168 -4.48426 0.351332 0
M  V30 3671 C 361.487 -4.06243 -1.69278 0
M  V30 3672 H 358.606 -0.722337 -0.146283 0
M  V30 3673 H 361.248 -1.87255 0.321799 0
M  V30 3674 H 359.398 -3.60089 -1.45837 0
M  V30 3675 H 361.07 -4.50562 0.989526 0
M  V30 3676 H 359.313 -4.22159 0.998207 0
M  V30 3677 H 359.984 -5.52 0.00655905 0
M  V30 3678 H 362.46 -3.99337 -1.16914 0
M  V30 3679 H 361.336 -5.12581 -1.96346 0
M  V30 3680 H 361.597 -3.53332 -2.65723 0
M  V30 3681 N 360.656 0.0484629 -1.57525 0
M  V30 3682 C 361.881 0.759177 -1.93006 0
M  V30 3683 C 362.306 1.69125 -0.823317 0
M  V30 3684 O 361.664 1.79931 0.222364 0
M  V30 3685 C 361.712 1.50899 -3.27509 0
M  V30 3686 O 360.816 2.62112 -3.18388 0
M  V30 3687 H 360.157 0.205564 -0.631379 0
M  V30 3688 H 362.687 0.00972959 -2.04598 0
M  V30 3689 H 362.697 1.88317 -3.6194 0
M  V30 3690 H 361.372 0.825269 -4.0763 0
M  V30 3691 H 359.949 2.27379 -2.95556 0
M  V30 3692 N 362.134 1.5431 0.320358 0
M  V30 3693 C 363.383 1.7188 1.05546 0
M  V30 3694 C 363.696 0.501143 1.89071 0
M  V30 3695 O 364.902 0.558258 2.65699 0
M  V30 3696 C 363.358 3.04025 1.92605 0
M  V30 3697 C 362.966 4.33207 1.14176 0
M  V30 3698 C 364.71 3.30959 2.65832 0
M  V30 3699 C 362.617 5.56412 2.00399 0
M  V30 3700 H 361.547 0.640547 0.397763 0
M  V30 3701 H 364.198 1.80802 0.313522 0
M  V30 3702 H 362.58 2.89019 2.7071 0
M  V30 3703 H 363.754 4.58989 0.40819 0
M  V30 3704 H 362.069 4.13062 0.526165 0
M  V30 3705 H 364.666 4.20203 3.30656 0
M  V30 3706 H 365.009 2.48979 3.33639 0
M  V30 3707 H 365.542 3.46847 1.94787 0
M  V30 3708 H 362.281 6.41004 1.37094 0
M  V30 3709 H 361.801 5.34844 2.7148 0
M  V30 3710 H 363.48 5.92938 2.58908 0
M  V30 3711 N 363.613 -0.582584 1.46437 0
M  V30 3712 C 364.543 -1.70187 1.59871 0
M  V30 3713 C 365.524 -1.64066 0.449042 0
M  V30 3714 O 366.709 -1.82081 0.6753 0
M  V30 3715 C 363.839 -3.08827 1.58881 0
M  V30 3716 C 362.793 -3.29779 2.72819 0
M  V30 3717 C 362.119 -4.68947 2.5689 0
M  V30 3718 C 363.419 -3.17601 4.1464 0
M  V30 3719 H 365.113 -1.592 2.53566 0
M  V30 3720 H 362.659 -0.764472 1.22032 0
M  V30 3721 H 364.612 -3.86951 1.66873 0
M  V30 3722 H 363.336 -3.20713 0.617306 0
M  V30 3723 H 361.995 -2.54054 2.64296 0
M  V30 3724 H 361.643 -4.77599 1.57823 0
M  V30 3725 H 361.343 -4.83919 3.33312 0
M  V30 3726 H 362.867 -5.4924 2.66773 0
M  V30 3727 H 364.281 -3.8557 4.24274 0
M  V30 3728 H 362.678 -3.44094 4.9165 0
M  V30 3729 H 363.748 -2.14681 4.34788 0
M  V30 3730 N 365.091 -1.34144 -0.827227 0
M  V30 3731 C 366.054 -1.25264 -1.91942 0
M  V30 3732 C 367.054 -0.168866 -1.59911 0
M  V30 3733 O 368.244 -0.421198 -1.69031 0
M  V30 3734 C 365.376 -0.932952 -3.27885 0
M  V30 3735 H 366.569 -2.22357 -2.0124 0
M  V30 3736 H 364.122 -1.1837 -1.0207 0
M  V30 3737 H 364.857 0.0349917 -3.24281 0
M  V30 3738 H 364.642 -1.71682 -3.52516 0
M  V30 3739 H 366.132 -0.895874 -4.07877 0
M  V30 3740 N 366.569 1.04691 -1.17803 0
M  V30 3741 C 367.985 1.29963 -0.926379 0
M  V30 3742 C 368.185 1.97251 0.411635 0
M  V30 3743 O 367.241 2.24922 1.14744 0
M  V30 3744 C 368.554 2.16447 -2.08737 0
M  V30 3745 C 370.102 2.29814 -2.12496 0
M  V30 3746 C 370.577 3.19661 -3.27995 0
M  V30 3747 N 372.068 3.27247 -3.27816 0
M  V30 3748 C 372.803 3.96906 -4.13827 0
M  V30 3749 N 372.299 4.6895 -5.09959 0
M  V30 3750 N 374.092 3.93122 -4.01761 0
M  V30 3751 H 366.243 0.594182 -2.0392 0
M  V30 3752 H 368.506 0.324649 -0.890678 0
M  V30 3753 H 368.212 1.74304 -3.05469 0
M  V30 3754 H 368.086 3.17103 -2.04268 0
M  V30 3755 H 370.473 2.71196 -1.16347 0
M  V30 3756 H 370.554 1.2877 -2.21025 0
M  V30 3757 H 370.198 2.78991 -4.24413 0
M  V30 3758 H 370.128 4.20722 -3.16703 0
M  V30 3759 H 372.619 2.75921 -2.58217 0
M  V30 3760 H 372.932 5.19679 -5.71974 0
M  V30 3761 H 371.277 4.67875 -5.13924 0
M  V30 3762 H 374.468 3.35967 -3.2595 0
M  V30 3763 H 374.641 4.47139 -4.6901 0
M  V30 3764 N 368.047 0.979072 1.23499 0
M  V30 3765 C 368.977 0.537606 2.27227 0
M  V30 3766 C 369.958 -0.428539 1.64613 0
M  V30 3767 O 371.143 -0.322191 1.91509 0
M  V30 3768 C 368.273 -0.162052 3.46922 0
M  V30 3769 C 367.227 0.721242 4.21879 0
M  V30 3770 C 366.553 -0.110555 5.34586 0
M  V30 3771 C 367.853 2.01141 4.82016 0
M  V30 3772 H 369.547 1.40462 2.64406 0
M  V30 3773 H 367.093 0.67684 1.27102 0
M  V30 3774 H 369.046 -0.482192 4.18632 0
M  V30 3775 H 367.77 -1.06351 3.08799 0
M  V30 3776 H 366.429 1.02482 3.51984 0
M  V30 3777 H 366.077 -1.0125 4.92704 0
M  V30 3778 H 365.777 0.477325 5.85658 0
M  V30 3779 H 367.301 -0.425107 6.09118 0
M  V30 3780 H 368.715 1.75612 5.45741 0
M  V30 3781 H 367.112 2.54695 5.43369 0
M  V30 3782 H 368.182 2.69909 4.02836 0
M  V30 3783 N 369.525 -1.3858 0.750561 0
M  V30 3784 C 370.75 -2.04997 0.314812 0
M  V30 3785 C 371.175 -1.56235 -1.04749 0
M  V30 3786 O 370.533 -0.712981 -1.66692 0
M  V30 3787 C 370.581 -3.58961 0.343415 0
M  V30 3788 O 369.685 -4.07025 -0.663628 0
M  V30 3789 H 369.026 -0.649081 0.139962 0
M  V30 3790 H 371.556 -1.77313 1.02084 0
M  V30 3791 H 371.566 -4.07542 0.193233 0
M  V30 3792 H 370.241 -3.93811 1.33738 0
M  V30 3793 H 368.818 -3.6982 -0.478307 0
M  V30 3794 N 371.003 -0.499398 -1.49478 0
M  V30 3795 C 372.231 0.0425456 -2.06856 0
M  V30 3796 C 372.646 1.30964 -1.35992 0
M  V30 3797 O 372.003 1.77172 -0.437762 0
M  V30 3798 C 372.054 0.301735 -3.60239 0
M  V30 3799 O 371.775 -0.915127 -4.28436 0
M  V30 3800 C 373.276 0.887499 -4.34325 0
M  V30 3801 H 370.496 -0.0197482 -0.670709 0
M  V30 3802 H 373.04 -0.696297 -1.92281 0
M  V30 3803 H 371.195 0.990556 -3.74522 0
M  V30 3804 H 371.609 -0.676993 -5.20113 0
M  V30 3805 H 373.083 1.01845 -5.42523 0
M  V30 3806 H 373.56 1.88488 -3.96698 0
M  V30 3807 H 374.166 0.236196 -4.24644 0
M  V30 3808 N 372.481 1.55866 -0.233164 0
M  V30 3809 C 373.391 2.24431 0.683217 0
M  V30 3810 C 374.407 1.2558 1.2044 0
M  V30 3811 O 375.583 1.58422 1.24356 0
M  V30 3812 C 372.648 2.91979 1.86947 0
M  V30 3813 C 371.709 4.06204 1.38912 0
M  V30 3814 C 370.942 4.70522 2.51883 0
M  V30 3815 O 371.165 4.33865 3.70293 0
M  V30 3816 O 370.099 5.59296 2.22423 0
M  V30 3817 H 373.925 3.03426 0.129059 0
M  V30 3818 H 371.51 1.494 -0.0022283 0
M  V30 3819 H 373.392 3.34573 2.56201 0
M  V30 3820 H 372.067 2.15935 2.41151 0
M  V30 3821 H 370.974 3.68155 0.664259 0
M  V30 3822 H 372.307 4.84025 0.893328 0
M  V30 3823 N 373.959 -0.0401083 1.57549 0
M  V30 3824 C 375.184 -0.748931 1.93406 0
M  V30 3825 C 375.609 -1.68686 0.832274 0
M  V30 3826 O 374.967 -1.80047 -0.212818 0
M  V30 3827 C 375.015 -1.4916 3.28304 0
M  V30 3828 O 374.119 -2.6042 3.19774 0
M  V30 3829 H 373.46 -0.202212 0.63246 0
M  V30 3830 H 375.99 0.00112086 2.046 0
M  V30 3831 H 376 -1.86395 3.62934 0
M  V30 3832 H 374.675 -0.80364 4.08062 0
M  V30 3833 H 373.252 -2.25808 2.96758 0
M  V30 3834 N 375.437 -1.54477 -0.31217 0
M  V30 3835 C 376.4 -1.83923 -1.36766 0
M  V30 3836 C 377.4 -0.711563 -1.44199 0
M  V30 3837 O 378.59 -0.979866 -1.44029 0
M  V30 3838 C 375.722 -2.0095 -2.75376 0
M  V30 3839 H 376.915 -2.78239 -1.11906 0
M  V30 3840 H 374.468 -1.46369 -0.548257 0
M  V30 3841 H 375.203 -1.08883 -3.05475 0
M  V30 3842 H 374.988 -2.83018 -2.71373 0
M  V30 3843 H 376.478 -2.2514 -3.51713 0
M  V30 3844 N 376.915 0.57481 -1.46744 0
M  V30 3845 C 378.192 1.3352 -1.4294 0
M  V30 3846 C 378.572 2.10775 -0.117009 0
M  V30 3847 O 377.92 2.09966 0.901474 0
M  V30 3848 C 378.13 2.25456 -2.66403 0
M  V30 3849 C 379.478 2.87035 -3.12883 0
M  V30 3850 O 380.502 2.35766 -2.67007 0
M  V30 3851 O 379.361 3.80179 -3.92589 0
M  V30 3852 H 376.455 0.600318 -0.568812 0
M  V30 3853 H 379.001 0.595171 -1.58921 0
M  V30 3854 H 377.773 1.67851 -3.53471 0
M  V30 3855 H 377.396 3.06785 -2.52921 0
M  V30 3856 N 378.394 1.34581 0.820102 0
M  V30 3857 C 379.671 1.17675 1.56244 0
M  V30 3858 C 380.051 -0.249541 2.0962 0
M  V30 3859 O 379.399 -1.25125 1.91196 0
M  V30 3860 C 379.609 2.23364 2.6816 0
M  V30 3861 C 380.957 2.58485 3.36854 0
M  V30 3862 O 381.981 2.22175 2.78418 0
M  V30 3863 O 380.84 3.20868 4.42386 0
M  V30 3864 H 377.934 0.456333 0.689702 0
M  V30 3865 H 380.48 1.46222 0.861231 0
M  V30 3866 H 379.252 3.19087 2.26493 0
M  V30 3867 H 378.875 1.96009 3.45928 0
M  V30 3868 N 379.872 -1.04064 1.18357 0
M  V30 3869 C 381.102 -1.80654 1.00238 0
M  V30 3870 C 381.51 -1.83713 -0.452362 0
M  V30 3871 O 380.853 -1.27135 -1.32599 0
M  V30 3872 C 380.915 -3.27582 1.48088 0
M  V30 3873 C 380.579 -3.48184 2.96002 0
M  V30 3874 C 381.576 -3.39372 3.93856 0
M  V30 3875 C 379.261 -3.7478 3.34433 0
M  V30 3876 C 381.255 -3.5686 5.28138 0
M  V30 3877 C 378.942 -3.91915 4.68877 0
M  V30 3878 C 379.94 -3.82956 5.65539 0
M  V30 3879 O 379.628 -3.996 6.97549 0
M  V30 3880 H 379.36 -0.575751 0.354241 0
M  V30 3881 H 381.914 -1.32044 1.57333 0
M  V30 3882 H 380.144 -3.77161 0.853588 0
M  V30 3883 H 381.833 -3.8573 1.2636 0
M  V30 3884 H 382.599 -3.18789 3.65511 0
M  V30 3885 H 378.478 -3.80852 2.59756 0
M  V30 3886 H 382.022 -3.49783 6.03571 0
M  V30 3887 H 377.919 -4.11992 4.96923 0
M  V30 3888 H 378.687 -4.1676 7.04452 0
M  V30 3889 N 381.35 -0.985608 -1.22978 0
M  V30 3890 C 382.298 -0.522631 -2.26652 0
M  V30 3891 C 383.292 0.422998 -1.64034 0
M  V30 3892 O 384.498 0.296319 -1.77544 0
M  V30 3893 H 380.873 -0.150597 -0.736766 0
M  V30 3894 H 382.844 -1.40863 -2.63059 0
M  V30 3895 C 381.593 0.154238 -3.47358 0
M  V30 3896 H 380.916 -0.564329 -3.95797 0
M  V30 3897 H 382.356 0.441744 -4.21693 0
M  V30 3898 C 380.815 1.38719 -3.07016 0
M  V30 3899 O 381.345 2.48307 -3.15764 0
M  V30 3900 N 379.551 1.25975 -2.61875 0
M  V30 3901 H 379.098 0.368068 -2.54957 0
M  V30 3902 H 379.056 2.08578 -2.3525 0
M  V30 3903 N 382.828 1.3818 -0.7579 0
M  V30 3904 C 384.075 2.00019 -0.315985 0
M  V30 3905 C 384.403 1.60163 1.10355 0
M  V30 3906 O 383.658 0.83264 1.77103 0
M  V30 3907 C 383.957 3.55252 -0.391218 0
M  V30 3908 C 383.623 4.14834 -1.76702 0
M  V30 3909 C 382.285 4.30821 -2.14353 0
M  V30 3910 C 384.637 4.47658 -2.66931 0
M  V30 3911 C 381.965 4.76928 -3.41696 0
M  V30 3912 C 384.317 4.95184 -3.93669 0
M  V30 3913 C 382.981 5.09377 -4.31383 0
M  V30 3914 H 382.251 0.731923 -0.115627 0
M  V30 3915 H 384.898 1.65161 -0.969223 0
M  V30 3916 H 383.203 3.90273 0.34558 0
M  V30 3917 H 384.9 4.00988 -0.030805 0
M  V30 3918 H 381.49 4.02808 -1.46435 0
M  V30 3919 H 385.674 4.34904 -2.39106 0
M  V30 3920 H 380.93 4.86103 -3.70829 0
M  V30 3921 H 385.104 5.19551 -4.63724 0
M  V30 3922 H 382.731 5.44865 -5.30119 0
M  V30 3923 N 384.306 0.507319 1.49211 0
M  V30 3924 C 385.552 -0.0350047 2.0277 0
M  V30 3925 C 385.885 -1.3606 1.38569 0
M  V30 3926 O 385.16 -1.87321 0.523542 0
M  V30 3927 C 385.443 -0.180916 3.59645 0
M  V30 3928 C 385.296 1.16825 4.34364 0
M  V30 3929 C 386.615 -0.918558 4.30407 0
M  V30 3930 H 383.734 -0.0112473 0.736914 0
M  V30 3931 H 386.376 0.659956 1.7817 0
M  V30 3932 H 384.526 -0.772826 3.80736 0
M  V30 3933 H 386.198 1.79952 4.24753 0
M  V30 3934 H 384.441 1.75594 3.96673 0
M  V30 3935 H 385.112 1.01939 5.42506 0
M  V30 3936 H 387.588 -0.41649 4.1401 0
M  V30 3937 H 386.464 -0.989505 5.39907 0
M  V30 3938 H 386.725 -1.96373 3.96093 0
M  V30 3939 N 385.784 -1.5574 0.241426 0
M  V30 3940 C 387.2 -1.59196 -0.113548 0
M  V30 3941 C 387.4 -1.25852 -1.57364 0
M  V30 3942 O 386.456 -1.00322 -2.31715 0
M  V30 3943 C 387.769 -2.99814 0.230695 0
M  V30 3944 C 389.317 -3.12513 0.174547 0
M  V30 3945 C 389.792 -4.55342 0.492744 0
M  V30 3946 N 391.283 -4.61076 0.443043 0
M  V30 3947 C 392.018 -5.6956 0.662484 0
M  V30 3948 N 391.514 -6.86328 0.944761 0
M  V30 3949 N 393.307 -5.58957 0.593564 0
M  V30 3950 H 385.458 -1.75685 1.19368 0
M  V30 3951 H 387.721 -0.81756 0.479896 0
M  V30 3952 H 387.427 -3.28932 1.24485 0
M  V30 3953 H 387.301 -3.74568 -0.444833 0
M  V30 3954 H 389.688 -2.83179 -0.830277 0
M  V30 3955 H 389.769 -2.40045 0.883845 0
M  V30 3956 H 389.413 -4.85396 1.4951 0
M  V30 3957 H 389.343 -5.26062 -0.23797 0
M  V30 3958 H 391.834 -3.77179 0.233374 0
M  V30 3959 H 392.147 -7.64935 1.09977 0
M  V30 3960 H 390.492 -6.88025 0.982175 0
M  V30 3961 H 393.683 -4.66611 0.373123 0
M  V30 3962 H 393.856 -6.43433 0.767981 0
M  V30 3963 N 387.262 0.0317525 -1.57568 0
M  V30 3964 C 388.225 1.01783 -2.0536 0
M  V30 3965 C 389.225 1.29203 -0.957253 0
M  V30 3966 O 390.415 1.24251 -1.22095 0
M  V30 3967 C 387.547 2.35137 -2.46827 0
M  V30 3968 H 388.74 0.605062 -2.93733 0
M  V30 3969 H 386.293 0.278514 -1.53799 0
M  V30 3970 H 387.028 2.81168 -1.61602 0
M  V30 3971 H 386.813 2.16566 -3.26866 0
M  V30 3972 H 388.303 3.05938 -2.84239 0
M  V30 3973 N 388.74 1.54641 0.303973 0
M  V30 3974 C 389.97 1.77511 1.05705 0
M  V30 3975 C 390.378 0.533228 1.81531 0
M  V30 3976 O 389.721 -0.506423 1.76582 0
M  V30 3977 C 389.783 2.92779 2.08617 0
M  V30 3978 C 389.447 4.30977 1.52013 0
M  V30 3979 C 390.444 5.11115 0.9517 0
M  V30 3980 C 388.129 4.77571 1.55665 0
M  V30 3981 C 390.123 6.35966 0.427327 0
M  V30 3982 C 387.81 6.02384 1.02841 0
M  V30 3983 C 388.808 6.81417 0.464713 0
M  V30 3984 O 388.496 8.03881 -0.0555283 0
M  V30 3985 H 388.228 0.59579 0.319391 0
M  V30 3986 H 390.782 2.02401 0.349712 0
M  V30 3987 H 389.012 2.63506 2.83022 0
M  V30 3988 H 390.701 3.03252 2.69802 0
M  V30 3989 H 391.467 4.76264 0.916407 0
M  V30 3990 H 387.346 4.16085 1.9848 0
M  V30 3991 H 390.89 6.97599 -0.0133062 0
M  V30 3992 H 386.787 6.36723 1.06084 0
M  V30 3993 H 387.555 8.18479 0.0580522 0
M  V30 3994 N 390.218 -0.567019 1.47046 0
M  V30 3995 C 391.128 -1.70247 1.6141 0
M  V30 3996 C 392.144 -1.66746 0.497157 0
M  V30 3997 O 393.32 -1.86371 0.763389 0
M  V30 3998 C 390.385 -3.06756 1.61561 0
M  V30 3999 C 389.446 -3.21399 2.84607 0
M  V30 4000 C 388.679 -4.51396 2.84741 0
M  V30 4001 O 388.902 -5.36255 1.94388 0
M  V30 4002 O 387.836 -4.69621 3.76483 0
M  V30 4003 H 391.662 -1.61073 2.57467 0
M  V30 4004 H 389.247 -0.735894 1.30019 0
M  V30 4005 H 391.129 -3.8801 1.64396 0
M  V30 4006 H 389.804 -3.16333 0.686684 0
M  V30 4007 H 388.711 -2.39579 2.8732 0
M  V30 4008 H 390.044 -3.16721 3.76761 0
M  V30 4009 N 391.696 -1.35014 -0.812953 0
M  V30 4010 C 392.936 -1.29289 -1.58315 0
M  V30 4011 C 393.3 0.132727 -1.91541 0
M  V30 4012 O 394.501 0.314269 -2.66957 0
M  V30 4013 C 392.772 -2.1681 -2.84127 0
M  V30 4014 S 394.331 -2.28538 -3.74588 0
M  V30 4015 H 391.149 -0.459569 -0.542511 0
M  V30 4016 H 393.751 -1.70336 -0.959467 0
M  V30 4017 H 392.455 -3.19379 -2.57731 0
M  V30 4018 H 391.986 -1.76697 -3.51485 0
M  V30 4019 H 394.001 -1.4655 -4.74065 0
M  V30 4020 N 393.175 1.03435 -1.18907 0
M  V30 4021 C 394.422 1.76743 -0.988334 0
M  V30 4022 C 394.75 1.88447 0.481441 0
M  V30 4023 O 394.005 1.39383 1.37371 0
M  V30 4024 C 394.304 3.19792 -1.59586 0
M  V30 4025 C 393.97 3.28108 -3.09283 0
M  V30 4026 C 392.632 3.30084 -3.5014 0
M  V30 4027 C 394.984 3.27696 -4.05296 0
M  V30 4028 C 392.312 3.29299 -4.85571 0
M  V30 4029 C 394.664 3.28451 -5.4065 0
M  V30 4030 C 393.328 3.28723 -5.80946 0
M  V30 4031 H 392.598 0.64675 -0.361657 0
M  V30 4032 H 395.245 1.21442 -1.48068 0
M  V30 4033 H 393.55 3.78136 -1.02568 0
M  V30 4034 H 395.247 3.75171 -1.41589 0
M  V30 4035 H 391.837 3.27294 -2.76725 0
M  V30 4036 H 396.021 3.25354 -3.74778 0
M  V30 4037 H 391.277 3.2783 -5.16079 0
M  V30 4038 H 395.451 3.27082 -6.14809 0
M  V30 4039 H 393.078 3.27868 -6.85862 0
M  V30 4040 N 394.653 0.992116 1.22453 0
M  V30 4041 C 395.585 0.500024 2.23679 0
M  V30 4042 C 396.598 -0.404463 1.57696 0
M  V30 4043 O 397.787 -0.206722 1.77299 0
M  V30 4044 C 394.887 -0.294711 3.37616 0
M  V30 4045 C 394.06 0.605723 4.33186 0
M  V30 4046 C 393.119 -0.13717 5.26021 0
M  V30 4047 O 392.145 0.477164 5.67196 0
M  V30 4048 N 393.347 -1.4197 5.62872 0
M  V30 4049 H 396.112 1.37045 2.66531 0
M  V30 4050 H 393.673 0.866741 1.36745 0
M  V30 4051 H 395.665 -0.800329 3.96707 0
M  V30 4052 H 394.235 -1.06623 2.93854 0
M  V30 4053 H 393.455 1.29202 3.72425 0
M  V30 4054 H 394.743 1.21896 4.93983 0
M  V30 4055 H 394.141 -1.94015 5.31389 0
M  V30 4056 H 392.698 -1.87052 6.24383 0
M  V30 4057 N 396.131 -1.37776 0.765217 0
M  V30 4058 C 397.081 -2.2768 0.12075 0
M  V30 4059 C 398.065 -1.45778 -0.680988 0
M  V30 4060 O 399.257 -1.684 -0.545033 0
M  V30 4061 C 396.386 -3.34722 -0.762626 0
M  V30 4062 C 395.472 -4.24074 0.0465881 0
M  V30 4063 N 395.863 -4.93939 1.08892 0
M  V30 4064 C 394.161 -4.45643 -0.178418 0
M  V30 4065 C 394.862 -5.59845 1.57951 0
M  V30 4066 N 393.838 -5.36218 0.892797 0
M  V30 4067 H 397.64 -2.79166 0.918889 0
M  V30 4068 H 395.154 -1.50816 0.602353 0
M  V30 4069 H 397.151 -3.98031 -1.24005 0
M  V30 4070 H 395.811 -2.84793 -1.55959 0
M  V30 4071 H 396.822 -4.96572 1.47095 0
M  V30 4072 H 393.499 -4.06599 -0.9478 0
M  V30 4073 H 394.889 -6.25703 2.44838 0
M  V30 4074 N 397.609 -0.515225 -1.4894 0
M  V30 4075 C 398.556 0.255567 -2.29381 0
M  V30 4076 C 399.526 0.947387 -1.36432 0
M  V30 4077 O 400.711 0.951288 -1.65394 0
M  V30 4078 C 397.851 1.30551 -3.19453 0
M  V30 4079 C 396.964 0.624029 -4.27469 0
M  V30 4080 C 396.099 1.65563 -5.0474 0
M  V30 4081 C 395.138 0.956802 -6.04576 0
M  V30 4082 N 394.275 1.93326 -6.74959 0
M  V30 4083 H 399.115 -0.436607 -2.94784 0
M  V30 4084 H 396.652 -0.227154 -1.45336 0
M  V30 4085 H 398.61 1.92639 -3.70062 0
M  V30 4086 H 397.24 1.96626 -2.56004 0
M  V30 4087 H 396.292 -0.110459 -3.8024 0
M  V30 4088 H 397.604 0.0746092 -4.98744 0
M  V30 4089 H 396.758 2.35119 -5.59289 0
M  V30 4090 H 395.497 2.23893 -4.3327 0
M  V30 4091 H 394.502 0.247097 -5.49244 0
M  V30 4092 H 395.727 0.379814 -6.78037 0
M  V30 4093 H 393.673 2.50591 -6.06251 0
M  V30 4094 H 393.59 1.43489 -7.42258 0
M  V30 4095 H 394.858 2.62126 -7.34105 0
M  V30 4096 N 399.087 1.5561 -0.249682 0
M  V30 4097 C 400.035 2.22894 0.664906 0
M  V30 4098 C 401.029 1.21743 1.17792 0
M  V30 4099 O 402.235 1.39748 1.13449 0
M  V30 4100 H 398.61 0.715022 0.232912 0
M  V30 4101 H 400.581 2.98307 0.0742998 0
M  V30 4102 C 399.33 2.94424 1.84959 0
M  V30 4103 H 398.653 3.72031 1.46399 0
M  V30 4104 H 400.093 3.44862 2.4667 0
M  V30 4105 C 398.552 1.98454 2.72245 0
M  V30 4106 O 399.082 1.51939 3.71857 0
M  V30 4107 N 397.288 1.65496 2.38871 0
M  V30 4108 H 396.835 2.03517 1.57919 0
M  V30 4109 H 396.793 1.0155 2.97548 0
M  V30 4110 N 400.565 -0.0233959 1.57583 0
M  V30 4111 C 401.515 -1.03023 2.03397 0
M  V30 4112 C 402.499 -1.31701 0.924315 0
M  V30 4113 O 403.691 -1.31191 1.18819 0
M  V30 4114 C 400.82 -2.32961 2.52159 0
M  V30 4115 C 399.906 -2.07349 3.69956 0
M  V30 4116 N 400.297 -1.51814 4.82479 0
M  V30 4117 C 398.595 -2.37606 3.77438 0
M  V30 4118 C 399.296 -1.42136 5.64068 0
M  V30 4119 N 398.272 -1.89891 5.09355 0
M  V30 4120 H 402.074 -0.594962 2.87815 0
M  V30 4121 H 399.588 -0.229586 1.60769 0
M  V30 4122 H 401.585 -3.05906 2.83244 0
M  V30 4123 H 400.245 -2.77162 1.69149 0
M  V30 4124 H 401.256 -1.20008 5.03804 0
M  V30 4125 H 397.933 -2.84842 3.05239 0
M  V30 4126 H 399.323 -0.996405 6.64471 0
M  V30 4127 N 402.043 -1.548 -0.295768 0
M  V30 4128 C 403.271 -1.78327 -1.04914 0
M  V30 4129 C 403.686 -0.545316 -1.80753 0
M  V30 4130 O 403.043 0.485013 -1.75937 0
M  V30 4131 C 403.094 -2.99418 -2.02561 0
M  V30 4132 O 402.815 -4.18431 -1.29798 0
M  V30 4133 C 404.316 -3.35375 -2.89895 0
M  V30 4134 H 401.536 -0.594618 -0.310918 0
M  V30 4135 H 404.08 -2.01763 -0.333454 0
M  V30 4136 H 402.235 -2.78175 -2.69624 0
M  V30 4137 H 402.649 -4.86736 -1.95419 0
M  V30 4138 H 404.123 -4.23332 -3.54251 0
M  V30 4139 H 404.6 -2.53761 -3.58472 0
M  V30 4140 H 405.206 -3.58796 -2.28355 0
M  V30 4141 N 403.521 0.559213 -1.47345 0
M  V30 4142 C 404.761 1.32728 -1.55444 0
M  V30 4143 C 405.125 1.90838 -0.210895 0
M  V30 4144 O 406.326 2.68282 -0.166719 0
M  V30 4145 C 404.597 2.4092 -2.63993 0
M  V30 4146 S 406.156 3.2784 -2.91661 0
M  V30 4147 H 402.974 0.451883 -0.548929 0
M  V30 4148 H 405.576 0.640404 -1.84714 0
M  V30 4149 H 404.28 1.9666 -3.60212 0
M  V30 4150 H 403.811 3.14351 -2.36531 0
M  V30 4151 H 405.826 4.40341 -2.28722 0
M  V30 4152 N 404.999 1.35443 0.805782 0
M  V30 4153 C 405.929 1.31095 1.93226 0
M  V30 4154 C 406.91 0.185244 1.69088 0
M  V30 4155 O 408.095 0.380332 1.90439 0
M  V30 4156 C 405.225 1.08299 3.29983 0
M  V30 4157 C 404.179 2.17519 3.68605 0
M  V30 4158 C 403.505 1.79887 5.03532 0
M  V30 4159 C 404.805 3.5949 3.78898 0
M  V30 4160 H 406.499 2.25352 1.97122 0
M  V30 4161 H 404.045 1.0848 0.946996 0
M  V30 4162 H 405.998 1.03897 4.08391 0
M  V30 4163 H 404.722 0.104885 3.26432 0
M  V30 4164 H 403.381 2.2102 2.92482 0
M  V30 4165 H 403.029 0.80693 4.96485 0
M  V30 4166 H 402.729 2.53001 5.30344 0
M  V30 4167 H 404.253 1.77011 5.84379 0
M  V30 4168 H 405.667 3.58307 4.47536 0
M  V30 4169 H 404.064 4.31371 4.1718 0
M  V30 4170 H 405.134 3.95584 2.80431 0
M  V30 4171 N 406.477 -1.02803 1.19454 0
M  V30 4172 C 407.723 -1.76478 0.999171 0
M  V30 4173 C 408.056 -1.88456 -0.468828 0
M  V30 4174 O 407.331 -1.40198 -1.34814 0
M  V30 4175 C 407.614 -3.19044 1.66981 0
M  V30 4176 C 407.467 -3.14932 3.21151 0
M  V30 4177 C 408.786 -4.17456 1.39349 0
M  V30 4178 H 405.905 -0.640614 0.364393 0
M  V30 4179 H 408.547 -1.20005 1.47305 0
M  V30 4180 H 406.697 -3.67263 1.2669 0
M  V30 4181 H 408.369 -2.74605 3.70661 0
M  V30 4182 H 406.612 -2.52625 3.52652 0
M  V30 4183 H 407.283 -4.1566 3.63223 0
M  V30 4184 H 409.759 -3.77842 1.74283 0
M  V30 4185 H 408.635 -5.154 1.88823 0
M  V30 4186 H 408.896 -4.40949 0.318813 0
M  V30 4187 N 407.956 -0.998596 -1.21925 0
M  V30 4188 C 409.203 -0.677663 -1.90824 0
M  V30 4189 C 409.531 0.790905 -1.77693 0
M  V30 4190 O 408.786 1.58817 -1.14349 0
M  V30 4191 C 409.085 -1.03648 -3.42041 0
M  V30 4192 C 408.751 -2.49825 -3.75364 0
M  V30 4193 C 407.413 -2.8977 -3.8417 0
M  V30 4194 C 409.765 -3.44545 -3.91073 0
M  V30 4195 C 407.093 -4.23412 -4.06127 0
M  V30 4196 C 409.445 -4.77853 -4.14535 0
M  V30 4197 C 408.109 -5.17531 -4.21566 0
M  V30 4198 H 407.379 -0.247975 -0.698276 0
M  V30 4199 H 410.026 -1.25584 -1.44571 0
M  V30 4200 H 408.331 -0.376457 -3.89987 0
M  V30 4201 H 410.028 -0.766113 -3.93614 0
M  V30 4202 H 406.618 -2.17866 -3.69097 0
M  V30 4203 H 410.802 -3.14853 -3.83642 0
M  V30 4204 H 406.058 -4.53734 -4.09799 0
M  V30 4205 H 410.232 -5.51189 -4.25633 0
M  V30 4206 H 407.859 -6.21102 -4.38333 0
M  V30 4207 N 409.434 1.37368 -0.772513 0
M  V30 4208 C 410.344 2.34053 -0.160081 0
M  V30 4209 C 411.36 1.60216 0.678728 0
M  V30 4210 O 412.536 1.92303 0.59847 0
M  V30 4211 C 409.601 3.3939 0.708182 0
M  V30 4212 C 408.662 4.29048 -0.147172 0
M  V30 4213 C 407.895 5.29354 0.679744 0
M  V30 4214 O 408.118 5.3723 1.91678 0
M  V30 4215 O 407.052 6.01835 0.0885444 0
M  V30 4216 H 410.878 2.88159 -0.959053 0
M  V30 4217 H 408.463 1.39543 -0.533685 0
M  V30 4218 H 410.345 4.03839 1.20384 0
M  V30 4219 H 409.02 2.8761 1.48533 0
M  V30 4220 H 407.927 3.67697 -0.689205 0
M  V30 4221 H 409.26 4.84134 -0.887423 0
M  V30 4222 N 410.912 0.523116 1.48665 0
M  V30 4223 C 411.845 -0.290518 2.26343 0
M  V30 4224 C 412.823 -0.950913 1.31895 0
M  V30 4225 O 414.007 -0.976662 1.61225 0
M  V30 4226 C 411.134 -1.41088 3.07915 0
M  V30 4227 C 410.18 -0.862597 4.17686 0
M  V30 4228 S 411.013 0.264135 5.34848 0
M  V30 4229 C 412.169 -0.858864 6.19979 0
M  V30 4230 H 412.402 0.368726 2.95005 0
M  V30 4231 H 409.935 0.30878 1.51281 0
M  V30 4232 H 411.893 -2.0527 3.55492 0
M  V30 4233 H 410.554 -2.04182 2.38681 0
M  V30 4234 H 409.747 -1.70287 4.74361 0
M  V30 4235 H 409.349 -0.297595 3.72814 0
M  V30 4236 H 411.641 -1.7591 6.54264 0
M  V30 4237 H 412.584 -0.330244 7.07329 0
M  V30 4238 H 412.992 -1.13617 5.52948 0
M  V30 4239 N 412.39 -1.55475 0.257931 0
M  V30 4240 C 413.32 -2.24815 -0.630912 0
M  V30 4241 C 414.301 -1.23224 -1.17259 0
M  V30 4242 O 415.486 -1.51904 -1.20991 0
M  V30 4243 C 412.616 -2.95609 -1.82298 0
M  V30 4244 C 411.57 -4.03982 -1.41359 0
M  V30 4245 C 410.896 -4.6226 -2.68738 0
M  V30 4246 C 412.196 -5.19109 -0.57648 0
M  V30 4247 H 413.89 -2.99354 -0.0526878 0
M  V30 4248 H 411.436 -1.4398 -0.023901 0
M  V30 4249 H 413.389 -3.42822 -2.45054 0
M  V30 4250 H 412.113 -2.18577 -2.42676 0
M  V30 4251 H 410.772 -3.57555 -0.809324 0
M  V30 4252 H 410.42 -3.81915 -3.27338 0
M  V30 4253 H 410.12 -5.35424 -2.42065 0
M  V30 4254 H 411.644 -5.12212 -3.32372 0
M  V30 4255 H 413.058 -5.62479 -1.10861 0
M  V30 4256 H 411.455 -5.98729 -0.405351 0
M  V30 4257 H 412.525 -4.83174 0.408776 0
M  V30 4258 N 413.868 0.0150385 -1.57593 0
M  V30 4259 C 414.778 1.02791 -2.10882 0
M  V30 4260 C 415.794 1.38702 -1.0506 0
M  V30 4261 O 416.97 1.47739 -1.36877 0
M  V30 4262 C 414.035 2.30568 -2.58919 0
M  V30 4263 C 413.096 2.01108 -3.79281 0
M  V30 4264 C 412.329 3.22794 -4.25018 0
M  V30 4265 O 412.552 4.33959 -3.70183 0
M  V30 4266 O 411.486 3.07672 -5.17322 0
M  V30 4267 H 415.312 0.604973 -2.97613 0
M  V30 4268 H 412.897 0.23292 -1.47573 0
M  V30 4269 H 414.779 3.05662 -2.90084 0
M  V30 4270 H 413.454 2.72129 -1.75293 0
M  V30 4271 H 412.361 1.23537 -3.53114 0
M  V30 4272 H 413.694 1.64394 -4.63935 0
M  V30 4273 N 415.346 1.54954 0.287554 0
M  V30 4274 C 416.278 1.83224 1.37701 0
M  V30 4275 C 417.291 0.715898 1.46215 0
M  V30 4276 O 418.48 0.993565 1.48292 0
M  V30 4277 C 415.58 1.96723 2.75959 0
M  V30 4278 C 414.753 3.27253 2.90215 0
M  V30 4279 C 413.812 3.30998 4.09056 0
M  V30 4280 O 412.838 4.04457 4.00503 0
M  V30 4281 N 414.04 2.57353 5.20336 0
M  V30 4282 H 416.805 2.77254 1.138 0
M  V30 4283 H 414.366 1.54694 0.477652 0
M  V30 4284 H 416.358 1.96615 3.5373 0
M  V30 4285 H 414.928 1.09626 2.92747 0
M  V30 4286 H 414.148 3.40022 1.99447 0
M  V30 4287 H 415.436 4.13365 2.96659 0
M  V30 4288 H 414.834 1.97327 5.30169 0
M  V30 4289 H 413.391 2.62984 5.96391 0
M  V30 4290 N 416.824 -0.551391 1.4764 0
M  V30 4291 C 417.772 -1.67896 1.60978 0
M  V30 4292 C 418.766 -1.62549 0.476877 0
M  V30 4293 O 419.972 -1.67664 0.654878 0
M  V30 4294 H 416.347 -0.555649 0.506713 0
M  V30 4295 H 418.318 -1.53784 2.55721 0
M  V30 4296 C 417.067 -3.06234 1.64669 0
M  V30 4297 H 416.39 -3.11033 2.51194 0
M  V30 4298 H 417.83 -3.84804 1.7805 0
M  V30 4299 C 416.289 -3.34737 0.381115 0
M  V30 4300 O 416.819 -3.98381 -0.515297 0
M  V30 4301 N 415.025 -2.8944 0.259354 0
M  V30 4302 H 414.572 -2.37827 0.98976 0
M  V30 4303 H 414.53 -3.08882 -0.586464 0
M  V30 4304 N 418.302 -1.35869 -0.798587 0
M  V30 4305 C 419.232 -1.32118 -1.92528 0
M  V30 4306 C 420.213 -0.194209 -1.68988 0
M  V30 4307 O 421.398 -0.390426 -1.90235 0
M  V30 4308 C 418.528 -1.10047 -3.29404 0
M  V30 4309 C 417.482 -2.19471 -3.67446 0
M  V30 4310 C 416.808 -1.82555 -5.02571 0
M  V30 4311 C 418.108 -3.61495 -3.76987 0
M  V30 4312 H 419.802 -2.26394 -1.95924 0
M  V30 4313 H 417.348 -1.08981 -0.94123 0
M  V30 4314 H 419.301 -1.06061 -4.07835 0
M  V30 4315 H 418.025 -0.122195 -3.26371 0
M  V30 4316 H 416.684 -2.22568 -2.91306 0
M  V30 4317 H 416.332 -0.833249 -4.9605 0
M  V30 4318 H 416.032 -2.5581 -5.28995 0
M  V30 4319 H 417.556 -1.80108 -5.83432 0
M  V30 4320 H 418.97 -3.60676 -4.4563 0
M  V30 4321 H 417.367 -4.33577 -4.14887 0
M  V30 4322 H 418.437 -3.97065 -2.78329 0
M  V30 4323 N 419.78 1.02168 -1.19998 0
M  V30 4324 C 421.01 1.79036 -1.031 0
M  V30 4325 C 421.418 1.84409 0.423078 0
M  V30 4326 O 420.761 1.29228 1.30559 0
M  V30 4327 C 420.823 3.25185 -1.53281 0
M  V30 4328 C 420.487 3.43431 -3.01503 0
M  V30 4329 C 421.484 3.33063 -3.99206 0
M  V30 4330 C 419.169 3.69412 -3.40353 0
M  V30 4331 C 421.163 3.48413 -5.33748 0
M  V30 4332 C 418.85 3.84406 -4.75053 0
M  V30 4333 C 419.848 3.7391 -5.71559 0
M  V30 4334 O 419.536 3.88452 -7.03818 0
M  V30 4335 H 419.268 0.570043 -0.363355 0
M  V30 4336 H 421.822 1.29524 -1.59414 0
M  V30 4337 H 420.052 3.75756 -0.913483 0
M  V30 4338 H 421.741 3.83671 -1.32481 0
M  V30 4339 H 422.507 3.12934 -3.70537 0
M  V30 4340 H 418.386 3.76671 -2.65782 0
M  V30 4341 H 421.93 3.40137 -6.09059 0
M  V30 4342 H 417.827 4.04035 -5.03415 0
M  V30 4343 H 418.595 4.055 -7.10993 0
M  V30 4344 N 421.258 1.00505 1.21394 0
M  V30 4345 C 422.535 0.603277 1.86064 0
M  V30 4346 C 422.915 -0.919095 1.90042 0
M  V30 4347 O 422.263 -1.80607 1.39977 0
M  V30 4348 C 422.473 1.23772 3.26315 0
M  V30 4349 C 423.821 1.34586 4.02705 0
M  V30 4350 O 424.845 1.19304 3.35626 0
M  V30 4351 O 423.704 1.59169 5.22807 0
M  V30 4352 H 420.798 0.206634 0.800769 0
M  V30 4353 H 423.344 1.1017 1.29076 0
M  V30 4354 H 422.116 2.27848 3.18121 0
M  V30 4355 H 421.739 0.725648 3.90922 0
M  V30 4356 N 422.737 -1.36956 0.779787 0
M  V30 4357 C 423.984 -1.99491 0.347766 0
M  V30 4358 C 424.312 -1.61898 -1.07793 0
M  V30 4359 O 423.567 -0.86071 -1.75756 0
M  V30 4360 C 423.866 -3.54585 0.447686 0
M  V30 4361 C 423.532 -4.1197 1.83279 0
M  V30 4362 C 422.194 -4.27356 2.2118 0
M  V30 4363 C 424.546 -4.43354 2.74019 0
M  V30 4364 C 421.874 -4.71432 3.4924 0
M  V30 4365 C 424.226 -4.88858 4.01497 0
M  V30 4366 C 422.89 -5.0245 4.39432 0
M  V30 4367 H 422.16 -0.729991 0.127257 0
M  V30 4368 H 424.807 -1.63599 0.995376 0
M  V30 4369 H 423.112 -3.90773 -0.283447 0
M  V30 4370 H 424.809 -4.00888 0.0945948 0
M  V30 4371 H 421.399 -4.00428 1.52825 0
M  V30 4372 H 425.583 -4.31045 2.45995 0
M  V30 4373 H 420.839 -4.80141 3.78516 0
M  V30 4374 H 425.013 -5.12108 4.71931 0
M  V30 4375 H 422.64 -5.36362 5.38721 0
M  V30 4376 N 424.215 -0.530993 -1.48385 0
M  V30 4377 C 425.145 0.219985 -2.32461 0
M  V30 4378 C 426.126 0.934111 -1.42156 0
M  V30 4379 O 427.311 0.919694 -1.71042 0
M  V30 4380 C 424.441 1.26674 -3.23375 0
M  V30 4381 C 423.395 0.67069 -4.22712 0
M  V30 4382 C 422.721 1.82017 -5.02766 0
M  V30 4383 C 424.021 -0.358268 -5.2107 0
M  V30 4384 H 425.715 -0.48187 -2.95497 0
M  V30 4385 H 423.261 -0.233182 -1.42099 0
M  V30 4386 H 425.214 1.80006 -3.81019 0
M  V30 4387 H 423.938 1.99818 -2.58341 0
M  V30 4388 H 422.597 0.158878 -3.66256 0
M  V30 4389 H 422.245 2.54002 -4.34157 0
M  V30 4390 H 421.945 1.42727 -5.70003 0
M  V30 4391 H 423.469 2.35725 -5.63264 0
M  V30 4392 H 424.883 0.0880081 -5.73232 0
M  V30 4393 H 423.28 -0.66861 -5.96364 0
M  V30 4394 H 424.35 -1.26367 -4.68145 0
M  V30 4395 N 425.693 1.55336 -0.266172 0
M  V30 4396 C 426.64 2.22172 0.625165 0
M  V30 4397 C 427.61 1.19211 1.15663 0
M  V30 4398 O 428.795 1.47723 1.20758 0
M  V30 4399 C 425.935 2.93972 1.8076 0
M  V30 4400 C 425.048 4.11632 1.31084 0
M  V30 4401 C 424.183 4.71099 2.45436 0
M  V30 4402 C 423.222 5.8097 1.92718 0
M  V30 4403 N 422.359 6.34538 3.00509 0
M  V30 4404 H 427.199 2.9796 0.0485582 0
M  V30 4405 H 424.736 1.47095 0.0122024 0
M  V30 4406 H 426.694 3.33811 2.50251 0
M  V30 4407 H 425.324 2.20623 2.35638 0
M  V30 4408 H 424.376 3.76975 0.509326 0
M  V30 4409 H 425.688 4.90893 0.884633 0
M  V30 4410 H 424.842 5.13612 3.22936 0
M  V30 4411 H 423.581 3.91096 2.91368 0
M  V30 4412 H 422.586 5.37916 1.13695 0
M  V30 4413 H 423.811 6.62836 1.47733 0
M  V30 4414 H 421.757 5.57433 3.45839 0
M  V30 4415 H 421.674 7.09046 2.62279 0
M  V30 4416 H 422.942 6.81709 3.78011 0
M  V30 4417 N 427.171 -0.0066808 1.57599 0
M  V30 4418 C 428.103 -1.02827 2.04839 0
M  V30 4419 C 429.116 -1.31108 0.965113 0
M  V30 4420 O 430.305 -1.28202 1.24203 0
M  V30 4421 C 427.405 -2.36464 2.42771 0
M  V30 4422 C 426.578 -2.27219 3.73751 0
M  V30 4423 C 425.637 -3.43489 3.98625 0
M  V30 4424 O 424.663 -3.21976 4.69382 0
M  V30 4425 N 425.865 -4.66116 3.46 0
M  V30 4426 H 428.63 -0.625455 2.93101 0
M  V30 4427 H 426.191 -0.194198 1.60731 0
M  V30 4428 H 428.183 -3.13008 2.56531 0
M  V30 4429 H 426.753 -2.68512 1.60063 0
M  V30 4430 H 425.973 -1.35629 3.70133 0
M  V30 4431 H 427.261 -2.18208 4.59633 0
M  V30 4432 H 426.659 -4.86493 2.88688 0
M  V30 4433 H 425.216 -5.39949 3.65101 0
M  V30 4434 N 428.649 -1.55105 -0.279332 0
M  V30 4435 C 429.597 -1.88333 -1.36505 0
M  V30 4436 C 430.591 -0.759043 -1.51443 0
M  V30 4437 O 431.797 -0.943312 -1.53302 0
M  V30 4438 H 428.172 -0.59766 -0.456406 0
M  V30 4439 H 430.143 -2.79041 -1.05728 0
M  V30 4440 C 428.892 -2.16628 -2.7197 0
M  V30 4441 H 428.215 -3.02624 -2.61264 0
M  V30 4442 H 429.655 -2.43803 -3.46895 0
M  V30 4443 C 428.114 -0.971807 -3.22579 0
M  V30 4444 O 428.644 -0.203228 -4.01186 0
M  V30 4445 N 426.85 -0.771238 -2.80179 0
M  V30 4446 H 426.397 -1.39792 -2.1637 0
M  V30 4447 H 426.355 0.0263667 -3.14389 0
M  V30 4448 N 430.127 0.543554 -1.4793 0
M  V30 4449 C 431.074 1.64942 -1.6144 0
M  V30 4450 C 432.044 1.59692 -0.456903 0
M  V30 4451 O 433.229 1.78321 -0.678688 0
M  V30 4452 C 430.369 3.03238 -1.64744 0
M  V30 4453 C 429.482 3.18823 -2.91506 0
M  V30 4454 C 428.617 4.47599 -2.86057 0
M  V30 4455 C 427.656 4.56664 -4.07584 0
M  V30 4456 N 426.793 5.76811 -4.00292 0
M  V30 4457 H 431.633 1.52733 -2.55884 0
M  V30 4458 H 429.17 0.7438 -1.2691 0
M  V30 4459 H 431.128 3.83339 -1.64641 0
M  V30 4460 H 429.758 3.1425 -0.738017 0
M  V30 4461 H 428.81 2.32064 -3.01414 0
M  V30 4462 H 430.122 3.21384 -3.81463 0
M  V30 4463 H 429.276 5.35975 -2.84281 0
M  V30 4464 H 428.015 4.47538 -1.93807 0
M  V30 4465 H 427.02 3.66697 -4.09651 0
M  V30 4466 H 428.245 4.58474 -5.00978 0
M  V30 4467 H 426.191 5.77673 -3.10853 0
M  V30 4468 H 426.108 5.80808 -4.8394 0
M  V30 4469 H 427.376 6.67512 -4.02553 0
M  V30 4470 N 431.605 1.3629 0.791371 0
M  V30 4471 C 432.852 1.30412 1.54916 0
M  V30 4472 C 433.18 -0.117162 1.94147 0
M  V30 4473 O 432.435 -1.08599 1.62803 0
M  V30 4474 C 432.734 2.17068 2.8393 0
M  V30 4475 C 432.4 3.65645 2.63846 0
M  V30 4476 C 431.062 4.0614 2.58077 0
M  V30 4477 C 433.414 4.59855 2.45322 0
M  V30 4478 C 430.742 5.3899 2.31748 0
M  V30 4479 C 433.094 5.9292 2.2052 0
M  V30 4480 C 431.758 6.32542 2.13183 0
M  V30 4481 H 431.028 0.47721 0.566879 0
M  V30 4482 H 433.675 1.68325 0.913172 0
M  V30 4483 H 431.98 1.72085 3.51986 0
M  V30 4484 H 433.677 2.09846 3.4171 0
M  V30 4485 H 430.267 3.33518 2.69191 0
M  V30 4486 H 434.451 4.29443 2.48782 0
M  V30 4487 H 429.707 5.68672 2.24548 0
M  V30 4488 H 433.881 6.65487 2.05182 0
M  V30 4489 H 431.508 7.35412 1.92544 0
M  V30 4490 N 433.083 -1.0153 1.20538 0
M  V30 4491 C 434.308 -1.79283 1.04271 0
M  V30 4492 C 434.733 -1.8372 -0.403544 0
M  V30 4493 O 434.091 -1.27321 -1.2907 0
M  V30 4494 C 434.139 -3.21535 1.63241 0
M  V30 4495 O 433.243 -4.03099 0.870908 0
M  V30 4496 H 432.584 -0.55293 0.367647 0
M  V30 4497 H 435.114 -1.27696 1.59859 0
M  V30 4498 H 435.124 -3.72243 1.6703 0
M  V30 4499 H 433.799 -3.1762 2.68497 0
M  V30 4500 H 432.376 -3.61693 0.907323 0
M  V30 4501 N 434.561 -1.01147 -1.20859 0
M  V30 4502 C 435.972 -0.730205 -1.71828 0
M  V30 4503 C 436.323 0.751662 -1.8123 0
M  V30 4504 O 435.448 1.58686 -1.47132 0
M  V30 4505 C 436.043 -1.31885 -3.12077 0
M  V30 4506 C 434.602 -1.08656 -3.60376 0
M  V30 4507 C 433.749 -1.42769 -2.37723 0
M  V30 4508 H 436.7 -1.18158 -1.05945 0
M  V30 4509 H 436.721 -0.706793 -3.73878 0
M  V30 4510 H 436.233 -2.39737 -3.05201 0
M  V30 4511 H 434.334 -0.0254814 -3.72591 0
M  V30 4512 H 434.447 -1.76301 -4.45483 0
M  V30 4513 H 432.811 -0.846603 -2.40218 0
M  V30 4514 H 433.594 -2.51666 -2.33493 0
M  V30 4515 N 436.039 1.36541 -0.78704 0
M  V30 4516 C 436.969 2.32659 -0.197992 0
M  V30 4517 C 437.95 1.56533 0.665697 0
M  V30 4518 O 439.135 1.84698 0.60001 0
M  V30 4519 C 436.265 3.40778 0.669901 0
M  V30 4520 C 435.219 4.27897 -0.0937039 0
M  V30 4521 C 434.545 5.27163 0.894629 0
M  V30 4522 C 435.845 5.06334 -1.28154 0
M  V30 4523 H 437.539 2.82171 -1.00099 0
M  V30 4524 H 435.085 1.35665 -0.482793 0
M  V30 4525 H 437.038 4.07008 1.09191 0
M  V30 4526 H 435.762 2.89827 1.50558 0
M  V30 4527 H 434.421 3.6322 -0.49666 0
M  V30 4528 H 434.069 4.72486 1.72527 0
M  V30 4529 H 433.769 5.86317 0.388149 0
M  V30 4530 H 435.293 5.96266 1.31525 0
M  V30 4531 H 436.707 5.65617 -0.93541 0
M  V30 4532 H 435.104 5.74888 -1.72115 0
M  V30 4533 H 436.174 4.38114 -2.07807 0
M  V30 4534 N 437.518 0.538854 1.48102 0
M  V30 4535 C 438.929 0.100679 1.86428 0
M  V30 4536 C 439.28 -1.32447 1.44749 0
M  V30 4537 O 438.405 -1.99339 0.842199 0
M  V30 4538 C 439 0.175933 3.38343 0
M  V30 4539 C 437.559 -0.207098 3.7583 0
M  V30 4540 C 436.706 0.531741 2.72154 0
M  V30 4541 H 439.657 0.749614 1.3988 0
M  V30 4542 H 439.678 -0.610144 3.75576 0
M  V30 4543 H 439.19 1.21328 3.68648 0
M  V30 4544 H 437.291 -1.24626 3.5114 0
M  V30 4545 H 437.404 0.138687 4.78899 0
M  V30 4546 H 435.768 -0.0230462 2.5469 0
M  V30 4547 H 436.551 1.56989 3.05302 0
M  V30 4548 N 438.996 -1.55193 0.274407 0
M  V30 4549 C 439.926 -2.25471 -0.607032 0
M  V30 4550 C 440.907 -1.24461 -1.15946 0
M  V30 4551 O 442.092 -1.53179 -1.19373 0
M  V30 4552 C 439.222 -2.97526 -1.79153 0
M  V30 4553 C 438.176 -4.05459 -1.37067 0
M  V30 4554 C 437.502 -4.65084 -2.6382 0
M  V30 4555 C 438.802 -5.19691 -0.521389 0
M  V30 4556 H 440.496 -2.99393 -0.0209343 0
M  V30 4557 H 438.042 -1.43997 -0.00862866 0
M  V30 4558 H 439.995 -3.45402 -2.41404 0
M  V30 4559 H 438.719 -2.21138 -2.40344 0
M  V30 4560 H 437.378 -3.58393 -0.771355 0
M  V30 4561 H 437.026 -3.85365 -3.23268 0
M  V30 4562 H 436.726 -5.37961 -2.36372 0
M  V30 4563 H 438.25 -5.15708 -3.26921 0
M  V30 4564 H 439.664 -5.63623 -1.04889 0
M  V30 4565 H 438.061 -5.99126 -0.341825 0
M  V30 4566 H 439.131 -4.82713 0.46 0
M  V30 4567 N 440.474 -0.00167713 -1.576 0
M  V30 4568 C 441.421 0.989195 -2.08527 0
M  V30 4569 C 442.391 1.34031 -0.981065 0
M  V30 4570 O 443.576 1.43839 -1.2536 0
M  V30 4571 C 440.716 2.27537 -2.59463 0
M  V30 4572 C 439.829 1.98314 -3.83791 0
M  V30 4573 C 438.964 3.21025 -4.23222 0
M  V30 4574 C 438.003 2.87495 -5.40382 0
M  V30 4575 N 437.14 4.02749 -5.75098 0
M  V30 4576 H 441.98 0.547973 -2.92919 0
M  V30 4577 H 439.517 0.258917 -1.44803 0
M  V30 4578 H 441.475 3.02729 -2.87073 0
M  V30 4579 H 440.105 2.69325 -1.77943 0
M  V30 4580 H 439.157 1.13482 -3.63078 0
M  V30 4581 H 440.469 1.69601 -4.69081 0
M  V30 4582 H 439.623 4.04561 -4.52123 0
M  V30 4583 H 438.362 3.52877 -3.36644 0
M  V30 4584 H 437.367 2.02367 -5.11202 0
M  V30 4585 H 438.592 2.56889 -6.28637 0
M  V30 4586 H 436.538 4.34494 -4.91478 0
M  V30 4587 H 436.455 3.77566 -6.54966 0
M  V30 4588 H 437.723 4.87068 -6.08592 0
M  V30 4589 N 441.952 1.55251 0.271103 0
M  V30 4590 C 443.182 1.79713 1.01916 0
M  V30 4591 C 443.59 0.571613 1.80359 0
M  V30 4592 O 442.933 -0.468853 1.77616 0
M  V30 4593 C 442.995 2.97138 2.02359 0
M  V30 4594 C 442.659 4.34104 1.42837 0
M  V30 4595 C 443.656 5.13019 0.843071 0
M  V30 4596 C 441.341 4.80765 1.455 0
M  V30 4597 C 443.335 6.36729 0.292333 0
M  V30 4598 C 441.022 6.0443 0.900402 0
M  V30 4599 C 442.02 6.8225 0.32007 0
M  V30 4600 O 441.708 8.03582 -0.226031 0
M  V30 4601 H 441.44 0.602431 0.306681 0
M  V30 4602 H 443.994 2.03097 0.306701 0
M  V30 4603 H 442.224 2.6945 2.77369 0
M  V30 4604 H 443.913 3.08907 2.63309 0
M  V30 4605 H 444.679 4.781 0.815178 0
M  V30 4606 H 440.558 4.20202 1.89609 0
M  V30 4607 H 444.102 6.97414 -0.161274 0
M  V30 4608 H 439.999 6.3883 0.925541 0
M  V30 4609 H 440.767 8.18418 -0.115572 0
M  V30 4610 N 443.43 -0.535701 1.48216 0
M  V30 4611 C 444.679 -1.28828 1.55197 0
M  V30 4612 C 444.992 -1.94263 0.228278 0
M  V30 4613 O 446.198 -2.70927 0.176278 0
M  V30 4614 C 444.654 -2.33727 2.73678 0
M  V30 4615 C 444.262 -1.74386 4.12666 0
M  V30 4616 C 446.006 -3.1003 2.89968 0
M  V30 4617 C 443.913 -2.77192 5.22416 0
M  V30 4618 H 442.843 -0.484484 0.577747 0
M  V30 4619 H 445.494 -0.56646 1.74538 0
M  V30 4620 H 443.876 -3.08919 2.4776 0
M  V30 4621 H 445.05 -1.05421 4.48579 0
M  V30 4622 H 443.365 -1.10595 4.01445 0
M  V30 4623 H 445.962 -3.86842 3.6913 0
M  V30 4624 H 446.305 -3.65542 1.9921 0
M  V30 4625 H 446.838 -2.41952 3.15759 0
M  V30 4626 H 443.577 -2.26507 6.15122 0
M  V30 4627 H 443.097 -3.44502 4.90998 0
M  V30 4628 H 444.776 -3.40285 5.50286 0
M  V30 4629 N 444.908 -1.36708 -0.784132 0
M  V30 4630 C 446.324 -1.17237 -1.08294 0
M  V30 4631 C 446.524 -5.93947e-05 -2.015 0
M  V30 4632 O 445.58 0.663686 -2.43622 0
M  V30 4633 C 446.893 -2.48557 -1.69233 0
M  V30 4634 C 448.441 -2.54968 -1.8155 0
M  V30 4635 C 448.916 -3.86388 -2.45904 0
M  V30 4636 N 450.407 -3.87762 -2.53367 0
M  V30 4637 C 451.142 -4.86191 -3.03983 0
M  V30 4638 N 450.638 -5.95015 -3.54866 0
M  V30 4639 N 452.431 -4.73606 -3.02743 0
M  V30 4640 H 444.582 -2.11758 -0.16501 0
M  V30 4641 H 446.845 -0.93822 -0.135822 0
M  V30 4642 H 446.551 -3.34638 -1.08215 0
M  V30 4643 H 446.425 -2.64748 -2.68679 0
M  V30 4644 H 448.812 -1.69302 -2.41704 0
M  V30 4645 H 448.893 -2.42672 -0.80895 0
M  V30 4646 H 448.537 -4.72462 -1.86392 0
M  V30 4647 H 448.467 -3.95982 -3.4714 0
M  V30 4648 H 450.958 -3.09145 -2.17343 0
M  V30 4649 H 451.271 -6.66086 -3.91854 0
M  V30 4650 H 449.616 -5.98676 -3.53003 0
M  V30 4651 H 452.807 -3.87717 -2.62284 0
M  V30 4652 H 452.98 -5.50473 -3.41881 0
M  V30 4653 N 446.386 1.0089 -1.21074 0
M  V30 4654 C 447.797 1.56056 -1.02486 0
M  V30 4655 C 448.148 1.91728 0.416506 0
M  V30 4656 O 447.273 1.73066 1.29912 0
M  V30 4657 C 447.868 2.83563 -1.85411 0
M  V30 4658 C 446.427 3.3523 -1.71166 0
M  V30 4659 C 445.574 2.0846 -1.82865 0
M  V30 4660 H 448.525 0.831818 -1.35154 0
M  V30 4661 H 448.546 3.55286 -1.36205 0
M  V30 4662 H 448.058 2.57569 -2.9031 0
M  V30 4663 H 446.159 3.66167 -0.689361 0
M  V30 4664 H 446.272 4.06913 -2.52901 0
M  V30 4665 H 444.636 2.21275 -1.26132 0
M  V30 4666 H 445.419 1.84883 -2.89263 0
M  V30 4667 N 447.864 1.01787 1.20321 0
M  V30 4668 C 449.11 0.708985 1.90003 0
M  V30 4669 C 449.443 -0.759572 1.78729 0
M  V30 4670 O 448.718 -1.55198 1.17234 0
M  V30 4671 C 449.001 1.1469 3.41348 0
M  V30 4672 C 448.854 2.67586 3.61549 0
M  V30 4673 C 450.173 0.71915 4.34185 0
M  V30 4674 H 447.292 0.259034 0.689978 0
M  V30 4675 H 449.934 1.26584 1.41692 0
M  V30 4676 H 448.084 0.673128 3.82624 0
M  V30 4677 H 449.756 3.22826 3.29517 0
M  V30 4678 H 447.999 3.085 3.04976 0
M  V30 4679 H 448.67 2.93281 4.67643 0
M  V30 4680 H 451.146 1.12647 4.00562 0
M  V30 4681 H 450.022 1.05358 5.38694 0
M  V30 4682 H 450.283 -0.379111 4.40472 0
M  V30 4683 N 449.342 -1.36122 0.79427 0
M  V30 4684 C 450.272 -2.32551 0.210328 0
M  V30 4685 C 451.253 -1.56884 -0.657386 0
M  V30 4686 O 452.438 -1.85014 -0.590207 0
M  V30 4687 C 449.568 -3.41128 -0.651819 0
M  V30 4688 C 448.522 -4.27842 0.116395 0
M  V30 4689 C 447.848 -5.2763 -0.86666 0
M  V30 4690 C 449.148 -5.05647 1.30837 0
M  V30 4691 H 450.842 -2.81636 1.01594 0
M  V30 4692 H 448.388 -1.35407 0.489981 0
M  V30 4693 H 450.341 -4.07581 -1.07031 0
M  V30 4694 H 449.065 -2.90622 -1.49019 0
M  V30 4695 H 447.724 -3.62952 0.515915 0
M  V30 4696 H 447.372 -4.73395 -1.70019 0
M  V30 4697 H 447.072 -5.86514 -0.35705 0
M  V30 4698 H 448.596 -5.96955 -1.28361 0
M  V30 4699 H 450.01 -5.65113 0.965393 0
M  V30 4700 H 448.407 -5.73967 1.75161 0
M  V30 4701 H 449.477 -4.37006 2.10128 0
M  V30 4702 N 450.82 -0.546701 -1.47814 0
M  V30 4703 C 451.752 0.244196 -2.27895 0
M  V30 4704 C 452.765 0.88911 -1.36377 0
M  V30 4705 O 453.954 0.764733 -1.61289 0
M  V30 4706 C 451.054 1.36252 -3.10304 0
M  V30 4707 C 450.227 0.816382 -4.29714 0
M  V30 4708 C 449.286 1.81789 -4.93801 0
M  V30 4709 O 448.312 1.36818 -5.52512 0
M  V30 4710 N 449.514 3.15085 -4.87547 0
M  V30 4711 H 452.279 -0.442694 -2.96412 0
M  V30 4712 H 449.84 -0.382095 -1.57327 0
M  V30 4713 H 451.832 2.03102 -3.50045 0
M  V30 4714 H 450.402 1.95281 -2.44099 0
M  V30 4715 H 449.622 -0.0285981 -3.9419 0
M  V30 4716 H 450.91 0.430668 -5.06974 0
M  V30 4717 H 450.308 3.54275 -4.41028 0
M  V30 4718 H 448.865 3.77522 -5.31339 0
M  V30 4719 N 452.299 1.55045 -0.282633 0
M  V30 4720 C 453.231 2.2023 0.634924 0
M  V30 4721 C 454.244 1.18931 1.11172 0
M  V30 4722 O 455.433 1.4562 1.03233 0
M  V30 4723 C 452.533 2.82041 1.87899 0
M  V30 4724 C 451.706 4.091 1.54776 0
M  V30 4725 C 450.765 4.54887 2.64507 0
M  V30 4726 O 449.791 5.20496 2.30375 0
M  V30 4727 N 450.993 4.25659 3.94709 0
M  V30 4728 H 453.758 2.99601 0.0769811 0
M  V30 4729 H 451.319 1.61565 -0.104048 0
M  V30 4730 H 453.311 3.09613 2.60619 0
M  V30 4731 H 451.881 2.06618 2.3458 0
M  V30 4732 H 451.101 3.88736 0.654049 0
M  V30 4733 H 452.389 4.9187 1.30158 0
M  V30 4734 H 451.787 3.7306 4.25256 0
M  V30 4735 H 450.344 4.57984 4.63782 0
M  V30 4736 N 453.777 0.010035 1.57597 0
M  V30 4737 C 455.023 -0.673697 1.91283 0
M  V30 4738 C 455.356 -1.72863 0.884979 0
M  V30 4739 O 454.631 -1.94268 -0.0949487 0
M  V30 4740 C 454.914 -1.30766 3.35518 0
M  V30 4741 C 454.767 -0.263578 4.49027 0
M  V30 4742 C 456.086 -2.23105 3.79358 0
M  V30 4743 H 453.205 -0.243439 0.695634 0
M  V30 4744 H 455.847 0.0633864 1.89894 0
M  V30 4745 H 453.997 -1.93588 3.36832 0
M  V30 4746 H 455.669 0.365738 4.59848 0
M  V30 4747 H 453.912 0.413077 4.31829 0
M  V30 4748 H 454.583 -0.746398 5.4693 0
M  V30 4749 H 457.059 -1.70289 3.79659 0
M  V30 4750 H 455.935 -2.64424 4.81011 0
M  V30 4751 H 456.196 -3.11433 3.13787 0
M  V30 4752 N 455.255 -1.55392 -0.262866 0
M  V30 4753 C 456.218 -1.88181 -1.30846 0
M  V30 4754 C 457.218 -0.757079 -1.41862 0
M  V30 4755 O 458.408 -1.02519 -1.40838 0
M  V30 4756 C 455.54 -2.09609 -2.68844 0
M  V30 4757 H 456.733 -2.81659 -1.02997 0
M  V30 4758 H 454.286 -1.48039 -0.501414 0
M  V30 4759 H 455.021 -1.18547 -3.01856 0
M  V30 4760 H 454.806 -2.91508 -2.62231 0
M  V30 4761 H 456.296 -2.36215 -3.44372 0
M  V30 4762 N 456.733 0.527833 -1.48498 0
M  V30 4763 C 457.961 1.30823 -1.6029 0
M  V30 4764 C 458.376 1.86945 -0.263974 0
M  V30 4765 O 457.733 1.6651 0.747034 0
M  V30 4766 C 457.784 2.45756 -2.65116 0
M  V30 4767 O 457.505 1.91946 -3.93813 0
M  V30 4768 C 459.006 3.37543 -2.87367 0
M  V30 4769 H 456.226 0.397763 -0.540394 0
M  V30 4770 H 458.77 0.636529 -1.94341 0
M  V30 4771 H 456.925 3.08806 -2.33917 0
M  V30 4772 H 457.339 2.67195 -4.51339 0
M  V30 4773 H 458.813 4.14532 -3.6451 0
M  V30 4774 H 459.29 3.92905 -1.9627 0
M  V30 4775 H 459.896 2.80283 -3.19878 0
M  V30 4776 N 458.211 1.37122 0.776871 0
M  V30 4777 C 459.174 1.32301 1.8716 0
M  V30 4778 C 460.174 0.228099 1.59174 0
M  V30 4779 O 461.364 0.483642 1.67352 0
M  V30 4780 C 458.496 1.054 3.24197 0
M  V30 4781 H 459.689 2.29673 1.92848 0
M  V30 4782 H 457.242 1.22077 0.97606 0
M  V30 4783 H 457.977 0.0853872 3.24188 0
M  V30 4784 H 457.762 1.84648 3.45901 0
M  V30 4785 H 459.252 1.04664 4.04271 0
M  V30 4786 N 459.689 -1.00246 1.21608 0
M  V30 4787 C 460.619 -2.10921 1.00172 0
M  V30 4788 C 461.6 -1.69938 -0.0741587 0
M  V30 4789 O 462.785 -1.94009 0.0861753 0
M  V30 4790 C 459.915 -3.42618 0.568355 0
M  V30 4791 C 458.869 -3.97407 1.58909 0
M  V30 4792 C 458.195 -5.25038 1.01187 0
M  V30 4793 C 459.495 -4.2918 2.97661 0
M  V30 4794 H 461.189 -2.29112 1.92739 0
M  V30 4795 H 458.735 -1.10101 0.928102 0
M  V30 4796 H 460.688 -4.19444 0.405555 0
M  V30 4797 H 459.412 -3.24227 -0.392961 0
M  V30 4798 H 458.071 -3.22703 1.73949 0
M  V30 4799 H 457.719 -5.02982 0.0421965 0
M  V30 4800 H 457.419 -5.62661 1.6937 0
M  V30 4801 H 458.943 -6.04507 0.860448 0
M  V30 4802 H 460.357 -4.96839 2.86049 0
M  V30 4803 H 458.754 -4.77952 3.6288 0
M  V30 4804 H 459.824 -3.3735 3.48315 0
M  V30 4805 N 461.167 -1.02423 -1.1978 0
M  V30 4806 C 462.1 -0.545641 -2.21581 0
M  V30 4807 C 463.078 0.411024 -1.57319 0
M  V30 4808 O 464.262 0.329223 -1.85603 0
M  V30 4809 C 461.389 0.204973 -3.38079 0
M  V30 4810 C 460.435 -0.70241 -4.20676 0
M  V30 4811 S 461.268 -2.17595 -4.89298 0
M  V30 4812 C 462.424 -1.43572 -6.09211 0
M  V30 4813 H 462.657 -1.4082 -2.61834 0
M  V30 4814 H 460.19 -0.833771 -1.29952 0
M  V30 4815 H 462.148 0.631924 -4.05607 0
M  V30 4816 H 460.809 1.0432 -2.9627 0
M  V30 4817 H 460.002 -0.123193 -5.03849 0
M  V30 4818 H 459.604 -1.06747 -3.58442 0
M  V30 4819 H 461.896 -0.719806 -6.73665 0
M  V30 4820 H 462.839 -2.24388 -6.71607 0
M  V30 4821 H 463.247 -0.935252 -5.56699 0
M  V30 4822 N 462.645 1.35699 -0.801477 0
M  V30 4823 C 463.592 2.29876 -0.206294 0
M  V30 4824 C 464.562 1.52565 0.656752 0
M  V30 4825 O 465.747 1.81024 0.602906 0
M  V30 4826 C 462.887 3.39052 0.643272 0
M  V30 4827 C 462 4.31335 -0.239644 0
M  V30 4828 C 461.135 5.27599 0.61744 0
M  V30 4829 C 460.174 6.11521 -0.26619 0
M  V30 4830 N 459.311 6.99938 0.550571 0
M  V30 4831 H 464.151 2.80187 -1.01484 0
M  V30 4832 H 461.688 1.37902 -0.511997 0
M  V30 4833 H 463.646 4.0101 1.15094 0
M  V30 4834 H 462.276 2.9003 1.41713 0
M  V30 4835 H 461.328 3.70426 -0.865381 0
M  V30 4836 H 462.64 4.90243 -0.919985 0
M  V30 4837 H 461.794 5.94906 1.19045 0
M  V30 4838 H 460.533 4.69176 1.33137 0
M  V30 4839 H 459.538 5.43166 -0.851507 0
M  V30 4840 H 460.763 6.72022 -0.9779 0
M  V30 4841 H 458.709 6.44008 1.24856 0
M  V30 4842 H 458.626 7.55966 -0.071832 0
M  V30 4843 H 459.894 7.71599 1.10702 0
M  V30 4844 N 464.123 0.554532 1.47522 0
M  V30 4845 C 465.053 -0.182974 2.32782 0
M  V30 4846 C 466.034 -0.911377 1.43624 0
M  V30 4847 O 467.219 -0.892366 1.72483 0
M  V30 4848 C 464.349 -1.21513 3.25349 0
M  V30 4849 C 463.303 -0.603355 4.23726 0
M  V30 4850 C 462.629 -1.73995 5.05598 0
M  V30 4851 C 463.929 0.441121 5.20434 0
M  V30 4852 H 465.623 0.52882 2.94693 0
M  V30 4853 H 463.169 0.255759 1.41711 0
M  V30 4854 H 465.122 -1.73922 3.83835 0
M  V30 4855 H 463.846 -1.95683 2.61487 0
M  V30 4856 H 462.505 -0.10059 3.66462 0
M  V30 4857 H 462.153 -2.47063 4.38143 0
M  V30 4858 H 461.853 -1.3364 5.72201 0
M  V30 4859 H 463.377 -2.26735 5.66942 0
M  V30 4860 H 464.791 0.00319931 5.733 0
M  V30 4861 H 463.188 0.763402 5.95224 0
M  V30 4862 H 464.258 1.33799 4.66075 0
M  V30 4863 N 465.601 -1.54893 0.290851 0
M  V30 4864 C 466.548 -2.23138 -0.58974 0
M  V30 4865 C 467.518 -1.21036 -1.13752 0
M  V30 4866 O 468.703 -1.49626 -1.18392 0
M  V30 4867 C 465.843 -2.96811 -1.76061 0
M  V30 4868 C 464.956 -4.13665 -1.24519 0
M  V30 4869 C 464.091 -4.74944 -2.3791 0
M  V30 4870 C 463.13 -5.83963 -1.83451 0
M  V30 4871 N 462.267 -6.39239 -2.90376 0
M  V30 4872 H 467.107 -2.98 -0.00114915 0
M  V30 4873 H 464.644 -1.47096 0.0112006 0
M  V30 4874 H 466.602 -3.37751 -2.44909 0
M  V30 4875 H 465.232 -2.24344 -2.32098 0
M  V30 4876 H 464.284 -3.77737 -0.449288 0
M  V30 4877 H 465.596 -4.92238 -0.806424 0
M  V30 4878 H 464.75 -5.18684 -3.14724 0
M  V30 4879 H 463.489 -3.95682 -2.85109 0
M  V30 4880 H 462.494 -5.39657 -1.05122 0
M  V30 4881 H 463.719 -6.65103 -1.37169 0
M  V30 4882 H 461.665 -5.62864 -3.36927 0
M  V30 4883 H 461.582 -7.13129 -2.50965 0
M  V30 4884 H 462.85 -6.87637 -3.67118 0
M  V30 4885 N 467.08 -0.0183926 -1.57589 0
M  V30 4886 C 468.305 0.676634 -1.96052 0
M  V30 4887 C 468.73 1.6548 -0.894307 0
M  V30 4888 O 468.088 1.80712 0.145849 0
M  V30 4889 C 468.136 1.36872 -3.33614 0
M  V30 4890 O 467.24 2.48372 -3.29219 0
M  V30 4891 H 466.581 0.1786 -0.63953 0
M  V30 4892 H 469.111 -0.077056 -2.04455 0
M  V30 4893 H 469.121 1.72797 -3.69601 0
M  V30 4894 H 467.796 0.651636 -4.10763 0
M  V30 4895 H 466.373 2.14639 -3.04934 0
M  V30 4896 N 468.558 1.5553 0.254621 0
M  V30 4897 C 469.488 1.9268 1.31897 0
M  V30 4898 C 470.469 0.790797 1.506 0
M  V30 4899 O 471.654 1.05045 1.63337 0
M  V30 4900 C 468.784 2.21477 2.67517 0
M  V30 4901 C 467.738 3.37256 2.63519 0
M  V30 4902 C 467.064 3.51576 4.02862 0
M  V30 4903 C 468.364 4.73157 2.21179 0
M  V30 4904 H 470.058 2.81832 1.01051 0
M  V30 4905 H 467.604 1.35599 0.484662 0
M  V30 4906 H 469.557 2.46055 3.42104 0
M  V30 4907 H 468.281 1.29144 2.99982 0
M  V30 4908 H 466.94 3.12675 1.9139 0
M  V30 4909 H 466.588 2.56676 4.32581 0
M  V30 4910 H 466.288 4.2943 4.01078 0
M  V30 4911 H 467.812 3.78467 4.79161 0
M  V30 4912 H 469.226 4.97158 2.85494 0
M  V30 4913 H 467.623 5.54058 2.30521 0
M  V30 4914 H 468.693 4.70739 1.16332 0
M  V30 4915 N 470.036 -0.519951 1.48776 0
M  V30 4916 C 471.284 -1.2727 1.56993 0
M  V30 4917 C 471.605 -1.9339 0.25004 0
M  V30 4918 O 470.875 -1.81822 -0.729216 0
M  V30 4919 H 469.455 -0.472732 0.578389 0
M  V30 4920 H 472.117 -0.604234 1.85297 0
M  V30 4921 H 471.213 -2.04669 2.3562 0
M  V30 4922 N 471.514 -1.37532 -0.769588 0
M  V30 4923 C 472.444 -1.36172 -1.89682 0
M  V30 4924 C 473.425 -0.23001 -1.68538 0
M  V30 4925 O 474.61 -0.43069 -1.89364 0
M  V30 4926 C 471.74 -1.1701 -3.26995 0
M  V30 4927 C 470.694 -2.27216 -3.62708 0
M  V30 4928 C 470.02 -1.93174 -4.98586 0
M  V30 4929 C 471.32 -3.6941 -3.69234 0
M  V30 4930 H 473.014 -2.30499 -1.91078 0
M  V30 4931 H 470.56 -1.10953 -0.917902 0
M  V30 4932 H 472.513 -1.14688 -4.05493 0
M  V30 4933 H 471.237 -0.191395 -3.26039 0
M  V30 4934 H 469.896 -2.28697 -2.86519 0
M  V30 4935 H 469.544 -0.938281 -4.94171 0
M  V30 4936 H 469.244 -2.66973 -5.23449 0
M  V30 4937 H 470.768 -1.92443 -5.79481 0
M  V30 4938 H 472.182 -3.70047 -4.37879 0
M  V30 4939 H 470.579 -4.4228 -4.05597 0
M  V30 4940 H 471.649 -4.0288 -2.69844 0
M  V30 4941 N 472.992 0.995999 -1.22138 0
M  V30 4942 C 474.241 1.72928 -1.03821 0
M  V30 4943 C 474.554 1.90872 0.427444 0
M  V30 4944 O 475.76 2.61496 0.730212 0
M  V30 4945 C 474.216 3.11124 -1.80913 0
M  V30 4946 C 473.824 3.01122 -3.31707 0
M  V30 4947 C 475.568 3.8852 -1.71035 0
M  V30 4948 C 473.475 4.34453 -4.01253 0
M  V30 4949 H 472.405 0.648376 -0.384869 0
M  V30 4950 H 475.056 1.11213 -1.45959 0
M  V30 4951 H 473.438 3.73503 -1.31573 0
M  V30 4952 H 474.612 2.47926 -3.88419 0
M  V30 4953 H 472.927 2.3721 -3.42228 0
M  V30 4954 H 475.524 4.872 -2.20318 0
M  V30 4955 H 475.867 4.1087 -0.670196 0
M  V30 4956 H 476.4 3.32812 -2.17902 0
M  V30 4957 H 473.139 4.17303 -5.05508 0
M  V30 4958 H 472.659 4.87574 -3.49331 0
M  V30 4959 H 474.338 5.03215 -4.06674 0
M  V30 4960 N 474.47 1.03057 1.19235 0
M  V30 4961 C 475.42 0.583386 2.2041 0
M  V30 4962 C 476.404 -0.368776 1.56617 0
M  V30 4963 O 477.596 -0.189471 1.75983 0
M  V30 4964 C 474.725 -0.0626534 3.43243 0
M  V30 4965 C 473.811 0.91205 4.14177 0
M  V30 4966 N 474.202 2.07514 4.61272 0
M  V30 4967 C 472.5 0.735859 4.39888 0
M  V30 4968 C 473.201 2.69003 5.15764 0
M  V30 4969 N 472.177 1.96954 5.06666 0
M  V30 4970 H 475.979 1.46988 2.54503 0
M  V30 4971 H 473.493 0.897785 1.35328 0
M  V30 4972 H 475.49 -0.400653 4.1497 0
M  V30 4973 H 474.15 -0.944813 3.1065 0
M  V30 4974 H 475.161 2.45448 4.56043 0
M  V30 4975 H 471.838 -0.0970656 4.17387 0
M  V30 4976 H 473.228 3.67514 5.6248 0
M  V30 4977 N 475.948 -1.35272 0.808662 0
M  V30 4978 C 476.911 -2.28082 0.226093 0
M  V30 4979 C 477.911 -1.49673 -0.587762 0
M  V30 4980 O 479.101 -1.69404 -0.405943 0
M  V30 4981 C 476.233 -3.33955 -0.684596 0
M  V30 4982 H 477.426 -2.81116 1.04469 0
M  V30 4983 H 474.979 -1.45162 0.579466 0
M  V30 4984 H 475.714 -2.86111 -1.5268 0
M  V30 4985 H 475.499 -3.91965 -0.102699 0
M  V30 4986 H 476.989 -4.03219 -1.08646 0
M  V30 4987 N 477.426 -0.562348 -1.47226 0
M  V30 4988 C 478.703 0.0256985 -1.95583 0
M  V30 4989 C 479.083 1.48032 -1.50498 0
M  V30 4990 O 478.431 2.15973 -0.746181 0
M  V30 4991 C 478.641 -0.125129 -3.48776 0
M  V30 4992 C 479.989 0.0175728 -4.24596 0
M  V30 4993 O 481.013 -0.0529341 -3.56161 0
M  V30 4994 O 479.872 0.170145 -5.46235 0
M  V30 4995 H 476.966 0.0612565 -0.824728 0
M  V30 4996 H 479.512 -0.629233 -1.57603 0
M  V30 4997 H 478.284 -1.13715 -3.74412 0
M  V30 4998 H 477.907 0.567178 -3.93534 0
M  V30 4999 N 478.904 1.54736 -0.299062 0
M  V30 5000 C 479.834 2.26409 0.571085 0
M  V30 5001 C 480.815 1.2629 1.13951 0
M  V30 5002 O 482 1.55059 1.16921 0
M  V30 5003 C 479.13 3.00338 1.74396 0
M  V30 5004 C 478.084 4.07588 1.30599 0
M  V30 5005 C 477.41 4.69222 2.56387 0
M  V30 5006 C 478.71 5.20455 0.438645 0
M  V30 5007 H 480.404 2.99388 -0.0266991 0
M  V30 5008 H 477.95 1.43993 -0.0142812 0
M  V30 5009 H 479.903 3.49198 2.35878 0
M  V30 5010 H 478.627 2.24934 2.36796 0
M  V30 5011 H 477.286 3.59575 0.71424 0
M  V30 5012 H 476.934 3.9046 3.17097 0
M  V30 5013 H 476.634 5.41653 2.27784 0
M  V30 5014 H 478.158 5.20844 3.18675 0
M  V30 5015 H 479.572 5.65221 0.959085 0
M  V30 5016 H 477.969 5.99594 0.246466 0
M  V30 5017 H 479.039 4.8192 -0.536738 0
M  V30 5018 N 480.382 0.0267497 1.57577 0
M  V30 5019 C 481.329 -0.955894 2.10075 0
M  V30 5020 C 482.299 -1.32453 1.00226 0
M  V30 5021 O 483.484 -1.41826 1.27632 0
M  V30 5022 C 480.624 -2.2338 2.6305 0
M  V30 5023 C 479.737 -1.92183 3.86898 0
M  V30 5024 C 478.872 -3.14251 4.28275 0
M  V30 5025 C 477.911 -2.78862 5.44888 0
M  V30 5026 N 477.048 -3.93548 5.81433 0
M  V30 5027 H 481.888 -0.501303 2.93753 0
M  V30 5028 H 479.425 -0.235847 1.45197 0
M  V30 5029 H 481.383 -2.98124 2.91853 0
M  V30 5030 H 480.013 -2.6646 1.82205 0
M  V30 5031 H 479.065 -1.07692 3.64838 0
M  V30 5032 H 480.377 -1.62117 4.7172 0
M  V30 5033 H 479.531 -3.97317 4.58502 0
M  V30 5034 H 478.27 -3.47476 3.42215 0
M  V30 5035 H 477.275 -1.94208 5.14357 0
M  V30 5036 H 478.5 -2.46855 6.32645 0
M  V30 5037 H 476.446 -4.2662 4.98328 0
M  V30 5038 H 476.363 -3.67098 6.6089 0
M  V30 5039 H 477.631 -4.77325 6.16264 0
M  V30 5040 N 481.861 -1.55662 -0.24637 0
M  V30 5041 C 483.272 -1.67953 -0.81539 0
M  V30 5042 C 483.623 -0.624302 -1.86002 0
M  V30 5043 O 482.748 0.229328 -2.15181 0
M  V30 5044 C 483.343 -3.04484 -1.48576 0
M  V30 5045 C 481.902 -3.18713 -2.00248 0
M  V30 5046 C 481.049 -2.6383 -0.853766 0
M  V30 5047 H 484 -1.58685 -0.0221692 0
M  V30 5048 H 484.021 -2.98959 -2.3538 0
M  V30 5049 H 483.533 -3.81264 -0.725222 0
M  V30 5050 H 481.634 -2.46757 -2.79181 0
M  V30 5051 H 481.747 -4.25628 -2.1995 0
M  V30 5052 H 480.111 -2.21667 -1.25442 0
M  V30 5053 H 480.894 -3.43135 -0.106302 0
M  V30 5054 N 483.339 0.512053 -1.4905 0
M  V30 5055 C 484.249 1.64139 -1.67617 0
M  V30 5056 C 485.265 1.64786 -0.558701 0
M  V30 5057 O 486.441 1.8341 -0.832034 0
M  V30 5058 C 483.506 3.00548 -1.72835 0
M  V30 5059 C 482.567 3.10615 -2.96339 0
M  V30 5060 C 481.8 4.40517 -3.01298 0
M  V30 5061 O 482.023 5.28671 -2.14157 0
M  V30 5062 O 480.957 4.55325 -3.93653 0
M  V30 5063 H 484.783 1.51407 -2.63267 0
M  V30 5064 H 482.368 0.687131 -1.32661 0
M  V30 5065 H 484.25 3.81641 -1.78683 0
M  V30 5066 H 482.925 3.13566 -0.803616 0
M  V30 5067 H 481.832 2.2875 -2.96014 0
M  V30 5068 H 483.165 3.0252 -3.88256 0
M  V30 5069 N 484.817 1.37938 0.762283 0
M  V30 5070 C 485.765 1.34569 1.89721 0
M  V30 5071 C 486.759 0.232929 1.67791 0
M  V30 5072 O 487.965 0.401485 1.75465 0
M  V30 5073 H 484.34 0.419594 0.624055 0
M  V30 5074 H 486.311 2.30357 1.8968 0
M  V30 5075 C 485.06 1.17898 3.27101 0
M  V30 5076 H 484.383 2.02781 3.44558 0
M  V30 5077 H 485.823 1.19593 4.06784 0
M  V30 5078 C 484.282 -0.114728 3.36705 0
M  V30 5079 O 484.812 -1.0949 3.8649 0
M  V30 5080 N 483.018 -0.16863 2.9011 0
M  V30 5081 H 482.565 0.62967 2.49786 0
M  V30 5082 H 482.523 -1.03383 2.96916 0
M  V30 5083 N 486.295 -0.989507 1.22664 0
M  V30 5084 C 487.544 -1.72375 1.04737 0
M  V30 5085 C 487.857 -1.91096 -0.417316 0
M  V30 5086 O 489.063 -2.6188 -0.716334 0
M  V30 5087 C 487.519 -3.10161 1.82561 0
M  V30 5088 C 487.127 -2.99358 3.333 0
M  V30 5089 C 488.871 -3.87607 1.73093 0
M  V30 5090 C 486.778 -4.32319 4.03552 0
M  V30 5091 H 485.708 -0.646326 0.388302 0
M  V30 5092 H 488.359 -1.10437 1.46546 0
M  V30 5093 H 486.741 -3.728 1.33552 0
M  V30 5094 H 487.915 -2.45863 3.89728 0
M  V30 5095 H 486.23 -2.35392 3.43481 0
M  V30 5096 H 488.827 -4.86025 2.22899 0
M  V30 5097 H 489.17 -4.10509 0.691976 0
M  V30 5098 H 489.703 -3.31652 2.19663 0
M  V30 5099 H 486.442 -4.14616 5.07714 0
M  V30 5100 H 485.962 -4.85714 3.51911 0
M  V30 5101 H 487.641 -5.01051 4.09337 0
M  V30 5102 N 487.773 -1.03688 -1.18687 0
M  V30 5103 C 488.706 -0.569112 -2.2099 0
M  V30 5104 C 489.684 0.394315 -1.57746 0
M  V30 5105 O 490.868 0.309519 -1.85941 0
M  V30 5106 C 487.995 0.169104 -3.38278 0
M  V30 5107 C 487.041 -0.746989 -4.19908 0
M  V30 5108 S 487.874 -2.22773 -4.86963 0
M  V30 5109 C 489.03 -1.50025 -6.07654 0
M  V30 5110 H 489.263 -1.43589 -2.60326 0
M  V30 5111 H 486.796 -0.847507 -1.29061 0
M  V30 5112 H 488.754 0.588868 -4.06254 0
M  V30 5113 H 487.415 1.01172 -2.9736 0
M  V30 5114 H 486.608 -0.176626 -5.0369 0
M  V30 5115 H 486.21 -1.10543 -3.5729 0
M  V30 5116 H 488.502 -0.791217 -6.72864 0
M  V30 5117 H 489.445 -2.31498 -6.69189 0
M  V30 5118 H 489.853 -0.994245 -5.55675 0
M  V30 5119 N 489.251 1.34841 -0.815825 0
M  V30 5120 C 490.181 2.32187 -0.247298 0
M  V30 5121 C 491.162 1.5791 0.632344 0
M  V30 5122 O 492.347 1.8593 0.560698 0
M  V30 5123 C 489.477 3.42122 0.597466 0
M  V30 5124 C 488.431 4.27602 -0.184446 0
M  V30 5125 C 487.757 5.28942 0.782609 0
M  V30 5126 C 489.057 5.03502 -1.38865 0
M  V30 5127 H 490.751 2.79985 -1.06061 0
M  V30 5128 H 488.297 1.34611 -0.511461 0
M  V30 5129 H 490.25 4.09232 1.00533 0
M  V30 5130 H 488.974 2.92956 1.44376 0
M  V30 5131 H 487.633 3.62085 -0.573592 0
M  V30 5132 H 487.281 4.7604 1.62466 0
M  V30 5133 H 486.981 5.87008 0.263695 0
M  V30 5134 H 488.505 5.98922 1.18848 0
M  V30 5135 H 489.919 5.63506 -1.05518 0
M  V30 5136 H 488.316 5.71108 -1.8427 0
M  V30 5137 H 489.386 4.33608 -2.17054 0
M  V30 5138 N 490.729 0.570148 1.46925 0
M  V30 5139 C 491.975 0.0510284 2.02736 0
M  V30 5140 C 492.308 -1.3006 1.44215 0
M  V30 5141 O 491.583 -1.84932 0.602521 0
M  V30 5142 C 491.866 -0.028215 3.60089 0
M  V30 5143 C 491.719 1.35142 4.29018 0
M  V30 5144 C 493.038 -0.735181 4.33916 0
M  V30 5145 H 490.157 0.0200178 0.736728 0
M  V30 5146 H 492.799 0.73493 1.75211 0
M  V30 5147 H 490.949 -0.610648 3.83671 0
M  V30 5148 H 492.621 1.97806 4.16738 0
M  V30 5149 H 490.864 1.9226 3.88868 0
M  V30 5150 H 491.535 1.24857 5.37694 0
M  V30 5151 H 494.011 -0.240519 4.15404 0
M  V30 5152 H 492.887 -0.759622 5.43618 0
M  V30 5153 H 493.148 -1.79397 4.04066 0
M  V30 5154 N 492.207 -1.54576 0.307264 0
M  V30 5155 C 493.484 -1.92377 -0.353605 0
M  V30 5156 C 493.864 -1.23517 -1.71192 0
M  V30 5157 O 493.212 -0.373101 -2.25433 0
M  V30 5158 C 493.422 -3.45928 -0.462039 0
M  V30 5159 C 494.77 -4.18278 -0.729975 0
M  V30 5160 O 495.794 -3.51997 -0.545605 0
M  V30 5161 O 494.653 -5.3563 -1.08454 0
M  V30 5162 H 491.747 -0.802747 -0.198812 0
M  V30 5163 H 494.293 -1.65929 0.355783 0
M  V30 5164 H 493.065 -3.88187 0.492592 0
M  V30 5165 H 492.688 -3.78431 -1.21965 0
M  V30 5166 N 493.685 -0.035106 -1.57561 0
M  V30 5167 C 495.096 0.502885 -1.798 0
M  V30 5168 C 495.447 1.71892 -0.945921 0
M  V30 5169 O 494.572 2.15822 -0.157991 0
M  V30 5170 C 495.167 0.919097 -3.26095 0
M  V30 5171 C 493.726 1.40216 -3.49308 0
M  V30 5172 C 492.873 0.369709 -2.74824 0
M  V30 5173 H 495.824 -0.261102 -1.56537 0
M  V30 5174 H 495.845 1.78308 -3.36135 0
M  V30 5175 H 495.357 0.0338526 -3.88085 0
M  V30 5176 H 493.458 2.30714 -2.92578 0
M  V30 5177 H 493.571 1.40541 -4.58023 0
M  V30 5178 H 491.935 0.839113 -2.40481 0
M  V30 5179 H 492.718 -0.507173 -3.39533 0
M  V30 5180 N 495.163 1.55791 0.238111 0
M  V30 5181 C 496.388 1.8244 0.986432 0
M  V30 5182 C 496.813 0.613314 1.7782 0
M  V30 5183 O 496.171 -0.437767 1.75935 0
M  V30 5184 C 496.219 3.06917 1.893 0
M  V30 5185 O 495.323 2.84449 2.98601 0
M  V30 5186 H 494.664 0.601975 0.280218 0
M  V30 5187 H 497.194 2.02987 0.256437 0
M  V30 5188 H 497.204 3.36583 2.30598 0
M  V30 5189 H 495.879 3.947 1.31091 0
M  V30 5190 H 494.456 2.65972 2.61368 0
M  V30 5191 N 496.642 -0.504142 1.49319 0
M  V30 5192 C 498.058 -0.835039 1.36012 0
M  V30 5193 C 498.258 -1.97674 0.390808 0
M  V30 5194 O 497.314 -2.51867 -0.178655 0
M  V30 5195 C 498.627 -1.17821 2.76656 0
M  V30 5196 C 500.175 -1.2866 2.85334 0
M  V30 5197 C 500.65 -1.66307 4.26739 0
M  V30 5198 N 502.141 -1.73362 4.29534 0
M  V30 5199 C 502.876 -2.0393 5.35911 0
M  V30 5200 N 502.372 -2.32744 6.52535 0
M  V30 5201 N 504.165 -2.05155 5.23324 0
M  V30 5202 H 496.316 0.248764 2.10938 0
M  V30 5203 H 498.579 0.0486962 0.946748 0
M  V30 5204 H 498.285 -0.412682 3.4927 0
M  V30 5205 H 498.159 -2.12239 3.11825 0
M  V30 5206 H 500.546 -2.04285 2.1296 0
M  V30 5207 H 500.627 -0.323004 2.53752 0
M  V30 5208 H 500.271 -0.91234 4.99639 0
M  V30 5209 H 500.201 -2.63761 4.55782 0
M  V30 5210 H 502.692 -1.53268 3.45424 0
M  V30 5211 H 503.005 -2.55248 7.2943 0
M  V30 5212 H 501.35 -2.30207 6.55767 0
M  V30 5213 H 504.541 -1.82119 4.3122 0
M  V30 5214 H 504.714 -2.28644 6.06322 0
M  V30 5215 N 498.12 -1.38341 -0.754957 0
M  V30 5216 C 499.052 -1.31347 -1.87831 0
M  V30 5217 C 500.065 -0.225955 -1.61224 0
M  V30 5218 O 501.254 -0.48341 -1.7183 0
M  V30 5219 C 498.354 -1.01201 -3.23437 0
M  V30 5220 C 497.527 -2.20834 -3.77559 0
M  V30 5221 C 496.586 -1.87454 -4.91678 0
M  V30 5222 O 495.612 -2.59934 -5.06382 0
M  V30 5223 N 496.814 -0.828682 -5.74555 0
M  V30 5224 H 499.579 -2.28147 -1.94342 0
M  V30 5225 H 497.14 -1.32184 -0.934828 0
M  V30 5226 H 499.132 -0.769249 -3.97322 0
M  V30 5227 H 497.702 -0.132011 -3.12321 0
M  V30 5228 H 496.922 -2.61184 -2.95256 0
M  V30 5229 H 498.21 -3.00678 -4.10451 0
M  V30 5230 H 497.608 -0.227591 -5.65242 0
M  V30 5231 H 496.165 -0.645802 -6.48593 0
M  V30 5232 N 499.598 0.982988 -1.23187 0
M  V30 5233 C 501.009 1.53847 -1.05773 0
M  V30 5234 C 501.36 1.92568 0.375744 0
M  V30 5235 O 500.485 1.75783 1.26211 0
M  V30 5236 C 501.08 2.79567 -1.91384 0
M  V30 5237 C 499.639 3.31524 -1.78238 0
M  V30 5238 C 498.786 2.04534 -1.87246 0
M  V30 5239 H 501.737 0.802962 -1.36888 0
M  V30 5240 H 501.758 3.52317 -1.43711 0
M  V30 5241 H 501.27 2.51353 -2.95708 0
M  V30 5242 H 499.371 3.64623 -0.766875 0
M  V30 5243 H 499.484 4.01457 -2.61475 0
M  V30 5244 H 497.848 2.1855 -1.30797 0
M  V30 5245 H 498.631 1.78706 -2.9312 0
M  V30 5246 N 501.076 1.04316 1.18135 0
M  V30 5247 C 502.306 0.767003 1.91835 0
M  V30 5248 C 502.714 -0.68002 1.76557 0
M  V30 5249 O 502.057 -1.47548 1.09432 0
M  V30 5250 C 502.119 1.05674 3.43618 0
M  V30 5251 C 501.783 2.49818 3.82675 0
M  V30 5252 C 502.78 3.48003 3.86251 0
M  V30 5253 C 500.465 2.84596 4.13897 0
M  V30 5254 C 502.459 4.79016 4.20503 0
M  V30 5255 C 500.146 4.15813 4.4782 0
M  V30 5256 C 501.144 5.12834 4.51099 0
M  V30 5257 O 500.832 6.41699 4.84229 0
M  V30 5258 H 500.564 0.278948 0.615763 0
M  V30 5259 H 503.118 1.3946 1.50798 0
M  V30 5260 H 501.348 0.372029 3.84906 0
M  V30 5261 H 503.037 0.767994 3.98568 0
M  V30 5262 H 503.803 3.22475 3.62264 0
M  V30 5263 H 499.682 2.09748 4.1052 0
M  V30 5264 H 503.226 5.54739 4.22978 0
M  V30 5265 H 499.123 4.41109 4.71268 0
M  V30 5266 H 499.891 6.46387 5.02121 0
M  V30 5267 N 502.554 -1.34406 0.822964 0
M  V30 5268 C 503.97 -1.51275 0.508727 0
M  V30 5269 C 504.17 -1.76776 -0.967083 0
M  V30 5270 O 503.226 -1.81871 -1.75155 0
M  V30 5271 C 504.539 -2.67765 1.36829 0
M  V30 5272 C 506.087 -2.81647 1.36542 0
M  V30 5273 C 506.562 -4.01181 2.20947 0
M  V30 5274 N 508.053 -4.08388 2.18571 0
M  V30 5275 C 508.788 -5.00036 2.80627 0
M  V30 5276 N 508.284 -5.96906 3.51674 0
M  V30 5277 N 510.077 -4.92908 2.70181 0
M  V30 5278 H 502.228 -1.16113 1.77852 0
M  V30 5279 H 504.491 -0.56947 0.757897 0
M  V30 5280 H 504.197 -2.55551 2.41633 0
M  V30 5281 H 504.071 -3.62779 1.03303 0
M  V30 5282 H 506.458 -2.93303 0.325163 0
M  V30 5283 H 506.539 -1.87443 1.74066 0
M  V30 5284 H 506.183 -3.90286 3.25022 0
M  V30 5285 H 506.113 -4.94599 1.80774 0
M  V30 5286 H 508.604 -3.39051 1.66891 0
M  V30 5287 H 508.917 -6.63468 3.96271 0
M  V30 5288 H 507.262 -5.9703 3.5578 0
M  V30 5289 H 510.453 -4.1619 2.14251 0
M  V30 5290 H 510.626 -5.64137 3.18831 0
M  V30 5291 N 504.032 -0.577932 -1.46621 0
M  V30 5292 C 505.278 -0.0617793 -2.02706 0
M  V30 5293 C 505.611 1.29294 -1.44903 0
M  V30 5294 O 504.886 1.8461 -0.61232 0
M  V30 5295 C 505.169 0.00911824 -3.60099 0
M  V30 5296 C 505.022 -1.37416 -4.28295 0
M  V30 5297 C 506.341 0.712159 -4.343 0
M  V30 5298 H 503.46 -0.0239246 -0.736612 0
M  V30 5299 H 506.102 -0.744211 -1.74818 0
M  V30 5300 H 504.252 0.590292 -3.83989 0
M  V30 5301 H 505.924 -2.00013 -4.15683 0
M  V30 5302 H 504.167 -1.94319 -3.87843 0
M  V30 5303 H 504.838 -1.27707 -5.37024 0
M  V30 5304 H 507.314 0.218486 -4.15526 0
M  V30 5305 H 506.19 0.730782 -5.44014 0
M  V30 5306 H 506.451 1.77251 -4.05012 0
M  V30 5307 N 505.51 1.54411 -0.315457 0
M  V30 5308 C 506.457 2.24048 0.554166 0
M  V30 5309 C 507.427 1.2283 1.11812 0
M  V30 5310 O 508.612 1.51491 1.15997 0
M  V30 5311 C 505.752 2.99574 1.71316 0
M  V30 5312 C 504.865 4.15594 1.17922 0
M  V30 5313 C 504 4.78669 2.30324 0
M  V30 5314 C 503.039 5.86807 1.74137 0
M  V30 5315 N 502.176 6.43777 2.8017 0
M  V30 5316 H 507.016 2.97964 -0.0462602 0
M  V30 5317 H 504.553 1.47059 -0.0346009 0
M  V30 5318 H 506.511 3.41604 2.39505 0
M  V30 5319 H 505.141 2.28008 2.285 0
M  V30 5320 H 504.193 3.78404 0.389136 0
M  V30 5321 H 505.505 4.93459 0.728012 0
M  V30 5322 H 504.659 5.23626 3.06433 0
M  V30 5323 H 503.398 4.00168 2.78778 0
M  V30 5324 H 502.403 5.41261 0.965236 0
M  V30 5325 H 503.628 6.67201 1.2657 0
M  V30 5326 H 501.574 5.68153 3.2793 0
M  V30 5327 H 501.491 7.17031 2.39588 0
M  V30 5328 H 502.759 6.9339 3.56132 0
M  V30 5329 N 506.988 0.0434614 1.5754 0
M  V30 5330 C 508.234 -0.632971 1.92669 0
M  V30 5331 C 508.567 -1.70947 0.921446 0
M  V30 5332 O 507.842 -1.94426 -0.0537202 0
M  V30 5333 C 508.125 -1.23619 3.38216 0
M  V30 5334 C 507.978 -0.168274 4.49485 0
M  V30 5335 C 509.297 -2.15008 3.84005 0
M  V30 5336 H 506.416 -0.228629 0.700641 0
M  V30 5337 H 509.058 0.103651 1.89717 0
M  V30 5338 H 507.208 -1.864 3.40863 0
M  V30 5339 H 508.88 0.463196 4.58969 0
M  V30 5340 H 507.123 0.504581 4.30855 0
M  V30 5341 H 507.794 -0.630218 5.48391 0
M  V30 5342 H 510.27 -1.62198 3.83185 0
M  V30 5343 H 509.146 -2.54161 4.86511 0
M  V30 5344 H 509.407 -3.04707 3.20322 0
M  V30 5345 N 508.466 -1.55915 -0.229846 0
M  V30 5346 C 509.715 -1.77742 -0.953455 0
M  V30 5347 C 510.028 -0.610524 -1.85828 0
M  V30 5348 O 511.234 -0.712219 -2.61992 0
M  V30 5349 C 509.69 -3.14738 -1.74551 0
M  V30 5350 C 509.298 -4.39126 -0.887242 0
M  V30 5351 C 511.042 -3.45895 -2.46084 0
M  V30 5352 C 508.949 -5.67149 -1.67617 0
M  V30 5353 H 507.879 -0.662648 -0.359741 0
M  V30 5354 H 510.53 -1.82322 -0.207576 0
M  V30 5355 H 508.912 -3.04311 -2.53399 0
M  V30 5356 H 510.086 -4.60588 -0.139892 0
M  V30 5357 H 508.401 -4.15427 -0.284443 0
M  V30 5358 H 510.998 -4.38767 -3.05594 0
M  V30 5359 H 511.341 -2.68007 -3.18556 0
M  V30 5360 H 511.874 -3.57614 -1.74233 0
M  V30 5361 H 508.613 -6.47906 -0.994881 0
M  V30 5362 H 508.133 -5.49763 -2.39836 0
M  V30 5363 H 509.812 -6.07025 -2.23898 0
M  V30 5364 N 509.944 0.496216 -1.49584 0
M  V30 5365 C 511.221 1.25755 -1.49816 0
M  V30 5366 C 511.601 2.09859 -0.228572 0
M  V30 5367 O 510.949 2.14449 0.788908 0
M  V30 5368 C 511.159 2.11017 -2.7798 0
M  V30 5369 C 512.507 2.70047 -3.27658 0
M  V30 5370 O 513.531 2.21281 -2.79129 0
M  V30 5371 O 512.39 3.58834 -4.1219 0
M  V30 5372 H 509.484 0.569322 -0.599834 0
M  V30 5373 H 512.03 0.510094 -1.61852 0
M  V30 5374 H 510.802 1.48879 -3.61871 0
M  V30 5375 H 510.425 2.92947 -2.68827 0
M  V30 5376 N 511.423 1.38739 0.74761 0
M  V30 5377 C 512.67 1.35274 1.50689 0
M  V30 5378 C 512.998 -0.0553359 1.94421 0
M  V30 5379 O 512.253 -1.03365 1.66175 0
M  V30 5380 C 512.552 2.25992 2.7688 0
M  V30 5381 C 512.218 3.73854 2.5208 0
M  V30 5382 C 510.88 4.14145 2.45025 0
M  V30 5383 C 513.232 4.67427 2.30568 0
M  V30 5384 C 510.56 5.4609 2.14483 0
M  V30 5385 C 512.912 5.99635 2.01545 0
M  V30 5386 C 511.576 6.39004 1.92951 0
M  V30 5387 H 510.846 0.495003 0.55141 0
M  V30 5388 H 513.493 1.71145 0.859158 0
M  V30 5389 H 511.798 1.83196 3.46333 0
M  V30 5390 H 513.495 2.20611 3.34861 0
M  V30 5391 H 510.085 3.41913 2.58444 0
M  V30 5392 H 514.269 4.3714 2.34994 0
M  V30 5393 H 509.525 5.75528 2.06342 0
M  V30 5394 H 513.699 6.71678 1.83906 0
M  V30 5395 H 511.326 7.41165 1.6905 0
M  V30 5396 N 512.901 -0.976442 1.23707 0
M  V30 5397 C 514.149 -1.71487 1.06942 0
M  V30 5398 C 514.47 -1.9098 -0.393897 0
M  V30 5399 O 513.74 -1.48128 -1.28198 0
M  V30 5400 H 512.32 -0.635425 0.392739 0
M  V30 5401 H 514.982 -1.17515 1.55487 0
M  V30 5402 H 514.078 -2.70286 1.56051 0
M  V30 5403 N 514.379 -1.04941 -1.1758 0
M  V30 5404 C 515.604 -0.778253 -1.92245 0
M  V30 5405 C 516.029 0.659707 -1.76152 0
M  V30 5406 O 515.387 1.45803 -1.07755 0
M  V30 5407 C 515.435 -1.16051 -3.41416 0
M  V30 5408 O 514.539 -0.291153 -4.11371 0
M  V30 5409 H 513.88 -0.285619 -0.599431 0
M  V30 5410 H 516.41 -1.40159 -1.49052 0
M  V30 5411 H 516.42 -1.12619 -3.92149 0
M  V30 5412 H 515.095 -2.208 -3.52449 0
M  V30 5413 H 513.672 -0.385851 -3.70898 0
M  V30 5414 N 515.857 1.33968 -0.830081 0
M  V30 5415 C 516.82 2.27694 -0.26235 0
M  V30 5416 C 517.82 1.50589 0.563876 0
M  V30 5417 O 519.01 1.70028 0.378941 0
M  V30 5418 C 516.142 3.35002 0.63138 0
M  V30 5419 H 517.335 2.79419 -1.08928 0
M  V30 5420 H 514.888 1.44221 -0.602486 0
M  V30 5421 H 515.623 2.88504 1.48109 0
M  V30 5422 H 515.408 3.92079 0.0403276 0
M  V30 5423 H 516.898 4.04897 1.02217 0
M  V30 5424 N 517.335 0.585699 1.46312 0
M  V30 5425 C 518.56 0.0762461 2.0726 0
M  V30 5426 C 518.985 -1.22071 1.43109 0
M  V30 5427 O 518.343 -1.73804 0.515942 0
M  V30 5428 C 518.391 -0.0729404 3.60526 0
M  V30 5429 O 517.495 -1.1287 3.96654 0
M  V30 5430 H 516.836 0.0641558 0.660893 0
M  V30 5431 H 519.366 0.809492 1.87905 0
M  V30 5432 H 519.376 -0.278158 4.07051 0
M  V30 5433 H 518.051 0.874188 4.06609 0
M  V30 5434 H 516.628 -0.901703 3.61834 0
M  V30 5435 N 518.813 -1.54241 0.323641 0
M  V30 5436 C 519.763 -2.21071 -0.557833 0
M  V30 5437 C 520.747 -1.19126 -1.08157 0
M  V30 5438 O 521.939 -1.44755 -1.01857 0
M  V30 5439 C 519.068 -2.97208 -1.71821 0
M  V30 5440 C 518.154 -4.06491 -1.20936 0
M  V30 5441 N 518.545 -5.04052 -0.420202 0
M  V30 5442 C 516.843 -4.20443 -1.48808 0
M  V30 5443 C 517.544 -5.81516 -0.146413 0
M  V30 5444 N 516.52 -5.38641 -0.732562 0
M  V30 5445 H 520.322 -2.93853 0.0523921 0
M  V30 5446 H 517.836 -1.61883 0.129502 0
M  V30 5447 H 519.833 -3.4357 -2.36146 0
M  V30 5448 H 518.493 -2.25947 -2.33191 0
M  V30 5449 H 519.504 -5.17862 -0.0630401 0
M  V30 5450 H 516.181 -3.60396 -2.10762 0
M  V30 5451 H 517.571 -6.70119 0.488895 0
M  V30 5452 N 520.291 -0.0518155 -1.57515 0
M  V30 5453 C 521.537 0.622745 -1.93002 0
M  V30 5454 C 521.87 1.70456 -0.930499 0
M  V30 5455 O 521.145 1.94452 0.0434086 0
M  V30 5456 C 521.428 1.21824 -3.38867 0
M  V30 5457 C 521.281 0.144434 -4.49568 0
M  V30 5458 C 522.6 2.12968 -3.8514 0
M  V30 5459 H 519.719 0.22491 -0.701844 0
M  V30 5460 H 522.361 -0.113711 -1.89659 0
M  V30 5461 H 520.511 1.8459 -3.41846 0
M  V30 5462 H 522.183 -0.48753 -4.58717 0
M  V30 5463 H 520.426 -0.527424 -4.30582 0
M  V30 5464 H 521.097 0.601127 -5.48717 0
M  V30 5465 H 523.573 1.60163 -3.8404 0
M  V30 5466 H 522.449 2.51578 -4.87852 0
M  V30 5467 H 522.71 3.03004 -3.21934 0
M  V30 5468 N 521.769 1.56035 0.221574 0
M  V30 5469 C 522.994 1.83476 0.967026 0
M  V30 5470 C 523.419 0.632139 1.7716 0
M  V30 5471 O 522.777 -0.419082 1.7639 0
M  V30 5472 C 522.825 3.08907 1.86034 0
M  V30 5473 O 521.929 2.876 2.95567 0
M  V30 5474 H 521.27 0.604913 0.273817 0
M  V30 5475 H 523.8 2.03247 0.234893 0
M  V30 5476 H 523.81 3.3901 2.27016 0
M  V30 5477 H 522.485 3.96068 1.26898 0
M  V30 5478 H 521.062 2.6873 2.58532 0
M  V30 5479 N 523.247 -0.488276 1.49845 0
M  V30 5480 C 524.194 -1.58836 1.67451 0
M  V30 5481 C 525.164 -1.57886 0.515857 0
M  V30 5482 O 526.349 -1.75679 0.744403 0
M  V30 5483 C 523.489 -2.96915 1.75885 0
M  V30 5484 C 522.602 -3.07784 3.03138 0
M  V30 5485 C 521.737 -4.36673 3.02473 0
M  V30 5486 C 520.776 -4.41222 4.24252 0
M  V30 5487 N 519.913 -5.61557 4.21424 0
M  V30 5488 H 524.753 -1.43131 2.61376 0
M  V30 5489 H 522.29 -0.696186 1.29583 0
M  V30 5490 H 524.248 -3.76965 1.78755 0
M  V30 5491 H 522.878 -3.11295 0.85414 0
M  V30 5492 H 521.93 -2.20717 3.09819 0
M  V30 5493 H 523.242 -3.07005 3.93128 0
M  V30 5494 H 522.396 -5.25055 3.03977 0
M  V30 5495 H 521.135 -4.40037 2.10283 0
M  V30 5496 H 520.14 -3.5124 4.22978 0
M  V30 5497 H 521.365 -4.39564 5.17649 0
M  V30 5498 H 519.311 -5.65738 3.32078 0
M  V30 5499 H 519.228 -5.62447 5.05163 0
M  V30 5500 H 520.496 -6.52111 4.2705 0
M  V30 5501 N 524.725 -1.39134 -0.740242 0
M  V30 5502 C 525.688 -1.37217 -1.83587 0
M  V30 5503 C 526.688 -0.270221 -1.58513 0
M  V30 5504 O 527.878 -0.527843 -1.6601 0
M  V30 5505 C 525.01 -1.13959 -3.21288 0
M  V30 5506 H 526.203 -2.34705 -1.86691 0
M  V30 5507 H 523.756 -1.24622 -0.94335 0
M  V30 5508 H 524.491 -0.17131 -3.23847 0
M  V30 5509 H 524.276 -1.93754 -3.40884 0
M  V30 5510 H 525.766 -1.15346 -4.01354 0
M  V30 5511 N 526.204 0.969867 -1.24223 0
M  V30 5512 C 527.45 1.7151 -1.08223 0
M  V30 5513 C 527.783 1.90478 0.37838 0
M  V30 5514 O 527.058 1.4647 1.27971 0
M  V30 5515 C 527.341 3.10714 -1.82013 0
M  V30 5516 C 527.194 2.9925 -3.35811 0
M  V30 5517 C 528.513 4.10332 -1.59108 0
M  V30 5518 H 525.632 0.622499 -0.394543 0
M  V30 5519 H 528.274 1.1284 -1.52863 0
M  V30 5520 H 526.424 3.608 -1.44068 0
M  V30 5521 H 528.096 2.56608 -3.83341 0
M  V30 5522 H 526.339 2.35512 -3.64303 0
M  V30 5523 H 527.01 3.97857 -3.82641 0
M  V30 5524 H 529.486 3.69097 -1.92111 0
M  V30 5525 H 528.362 5.05804 -2.13198 0
M  V30 5526 H 528.623 4.38926 -0.528832 0
M  V30 5527 N 527.682 1.05563 1.17022 0
M  V30 5528 C 528.922 0.777033 1.89054 0
M  V30 5529 C 529.286 -0.683617 1.79418 0
M  V30 5530 O 530.487 -1.07648 2.46303 0
M  V30 5531 C 528.758 1.24886 3.34871 0
M  V30 5532 S 530.317 1.0982 4.24835 0
M  V30 5533 H 527.135 0.282082 0.652649 0
M  V30 5534 H 529.737 1.35103 1.41306 0
M  V30 5535 H 528.441 2.30699 3.3942 0
M  V30 5536 H 527.972 0.669292 3.87665 0
M  V30 5537 H 529.987 0.02462 4.96194 0
M  V30 5538 N 529.16 -1.33526 0.837174 0
M  V30 5539 C 530.385 -2.0258 0.444545 0
M  V30 5540 C 530.81 -1.6258 -0.946006 0
M  V30 5541 O 530.168 -0.817548 -1.6182 0
M  V30 5542 C 530.216 -3.5605 0.571006 0
M  V30 5543 O 529.32 -4.10422 -0.403431 0
M  V30 5544 H 528.661 -0.638866 0.180958 0
M  V30 5545 H 531.191 -1.70462 1.13154 0
M  V30 5546 H 531.201 -4.05488 0.452024 0
M  V30 5547 H 529.876 -3.84509 1.58512 0
M  V30 5548 H 528.453 -3.72113 -0.242147 0
M  V30 5549 N 530.638 -0.59345 -1.46 0
M  V30 5550 C 531.866 -0.0890934 -2.06708 0
M  V30 5551 C 532.281 1.2205 -1.44046 0
M  V30 5552 O 531.638 1.74029 -0.549551 0
M  V30 5553 C 531.689 0.0720263 -3.61428 0
M  V30 5554 O 531.41 -1.18574 -4.21748 0
M  V30 5555 C 532.911 0.609487 -4.3909 0
M  V30 5556 H 530.131 -0.0623628 -0.668096 0
M  V30 5557 H 532.675 -0.817171 -1.87464 0
M  V30 5558 H 530.83 0.750369 -3.80063 0
M  V30 5559 H 531.244 -1.0064 -5.14754 0
M  V30 5560 H 532.718 0.671363 -5.47902 0
M  V30 5561 H 533.195 1.62878 -4.07882 0
M  V30 5562 H 533.801 -0.03434 -4.25286 0
M  V30 5563 N 532.116 1.54067 -0.331816 0
M  V30 5564 C 533.346 2.04833 0.269605 0
M  V30 5565 C 533.754 1.20714 1.45687 0
M  V30 5566 O 533.097 0.232539 1.82222 0
M  V30 5567 C 533.159 3.51386 0.759499 0
M  V30 5568 C 532.823 4.55971 -0.306557 0
M  V30 5569 C 533.82 5.07126 -1.14538 0
M  V30 5570 C 531.505 5.00216 -0.457116 0
M  V30 5571 C 533.499 6.01096 -2.12042 0
M  V30 5572 C 531.186 5.93999 -1.43556 0
M  V30 5573 C 532.184 6.44326 -2.26568 0
M  V30 5574 O 531.872 7.36267 -3.22749 0
M  V30 5575 H 531.604 0.673509 0.0579763 0
M  V30 5576 H 534.158 1.99748 -0.478521 0
M  V30 5577 H 532.388 3.53896 1.55867 0
M  V30 5578 H 534.077 3.85184 1.28017 0
M  V30 5579 H 534.843 4.73716 -1.04009 0
M  V30 5580 H 530.722 4.60652 0.179142 0
M  V30 5581 H 534.266 6.40302 -2.76873 0
M  V30 5582 H 530.163 6.26825 -1.54146 0
M  V30 5583 H 530.931 7.54165 -3.18083 0
M  V30 5584 N 533.594 0.0601682 1.57485 0
M  V30 5585 C 534.524 -0.90889 2.15085 0
M  V30 5586 C 535.505 -1.31838 1.07484 0
M  V30 5587 O 536.69 -1.3915 1.35466 0
M  V30 5588 C 533.82 -2.18059 2.7031 0
M  V30 5589 C 532.774 -1.91088 3.82974 0
M  V30 5590 C 532.1 -3.24789 4.24754 0
M  V30 5591 C 533.4 -1.22535 5.07723 0
M  V30 5592 H 535.094 -0.429093 2.96309 0
M  V30 5593 H 532.64 -0.204952 1.42534 0
M  V30 5594 H 534.593 -2.86258 3.09248 0
M  V30 5595 H 533.317 -2.6826 1.8629 0
M  V30 5596 H 531.976 -1.25297 3.44523 0
M  V30 5597 H 531.624 -3.72809 3.37672 0
M  V30 5598 H 531.324 -3.07538 5.00694 0
M  V30 5599 H 532.848 -3.94205 4.66299 0
M  V30 5600 H 534.262 -1.80783 5.4405 0
M  V30 5601 H 532.659 -1.1558 5.88864 0
M  V30 5602 H 533.729 -0.202692 4.84476 0
M  V30 5603 N 535.072 -1.5615 -0.213296 0
M  V30 5604 C 536.004 -1.89586 -1.28802 0
M  V30 5605 C 537.017 -0.784844 -1.42633 0
M  V30 5606 O 538.206 -1.06319 -1.43383 0
M  V30 5607 C 535.306 -2.09665 -2.66259 0
M  V30 5608 C 534.479 -3.40726 -2.7427 0
M  V30 5609 C 533.538 -3.50137 -3.92798 0
M  V30 5610 O 532.564 -4.23105 -3.8075 0
M  V30 5611 N 533.766 -2.81886 -5.07465 0
M  V30 5612 H 536.531 -2.82368 -1.00442 0
M  V30 5613 H 534.092 -1.56796 -0.403302 0
M  V30 5614 H 536.084 -2.13268 -3.43946 0
M  V30 5615 H 534.654 -1.23469 -2.87183 0
M  V30 5616 H 533.874 -3.4915 -1.82997 0
M  V30 5617 H 535.162 -4.27048 -2.76599 0
M  V30 5618 H 534.56 -2.22397 -5.2015 0
M  V30 5619 H 533.117 -2.91139 -5.83165 0
M  V30 5620 N 536.55 0.480323 -1.50102 0
M  V30 5621 C 537.775 1.26126 -1.64642 0
M  V30 5622 C 538.2 1.85257 -0.325823 0
M  V30 5623 O 537.558 1.66854 0.709194 0
M  V30 5624 C 537.606 2.35243 -2.73301 0
M  V30 5625 O 536.71 3.39646 -2.33911 0
M  V30 5626 H 536.051 0.371463 -0.550374 0
M  V30 5627 H 538.581 0.572696 -1.96421 0
M  V30 5628 H 538.591 2.80695 -2.96098 0
M  V30 5629 H 537.266 1.91574 -3.6915 0
M  V30 5630 H 535.843 2.99969 -2.21525 0
M  V30 5631 N 538.028 1.39524 0.732853 0
M  V30 5632 C 539.444 1.21176 1.03868 0
M  V30 5633 C 539.644 0.0748448 2.01361 0
M  V30 5634 O 538.7 -0.57281 2.45917 0
M  V30 5635 C 540.013 2.54667 1.59892 0
M  V30 5636 C 541.561 2.6153 1.71962 0
M  V30 5637 C 542.036 3.95248 2.31394 0
M  V30 5638 N 543.527 3.96899 2.38801 0
M  V30 5639 C 544.262 4.97138 2.85729 0
M  V30 5640 N 543.758 6.07775 3.32537 0
M  V30 5641 N 545.551 4.84516 2.84957 0
M  V30 5642 H 537.702 2.12225 0.086304 0
M  V30 5643 H 539.965 0.942614 0.100907 0
M  V30 5644 H 539.671 3.38423 0.95721 0
M  V30 5645 H 539.545 2.74538 2.58668 0
M  V30 5646 H 541.932 1.78156 2.35254 0
M  V30 5647 H 542.013 2.45507 0.718327 0
M  V30 5648 H 541.657 4.79054 1.68729 0
M  V30 5649 H 541.587 4.08593 3.32204 0
M  V30 5650 H 544.078 3.16998 2.05719 0
M  V30 5651 H 544.391 6.8017 3.66862 0
M  V30 5652 H 542.736 6.11366 3.30541 0
M  V30 5653 H 545.927 3.97185 2.47713 0
M  V30 5654 H 546.1 5.62783 3.21215 0
M  V30 5655 N 539.506 -0.963266 1.24736 0
M  V30 5656 C 540.736 -1.73913 1.11524 0
M  V30 5657 C 541.144 -1.86218 -0.334612 0
M  V30 5658 O 540.487 -1.3531 -1.24245 0
M  V30 5659 C 540.549 -3.17501 1.68622 0
M  V30 5660 C 540.213 -3.28655 3.17546 0
M  V30 5661 C 541.21 -3.13637 4.14642 0
M  V30 5662 C 538.895 -3.52753 3.5759 0
M  V30 5663 C 540.889 -3.2255 5.49764 0
M  V30 5664 C 538.576 -3.61303 4.92852 0
M  V30 5665 C 539.574 -3.46214 5.88748 0
M  V30 5666 O 539.262 -3.5443 7.2155 0
M  V30 5667 H 538.994 -0.552057 0.390139 0
M  V30 5668 H 541.548 -1.2177 1.65412 0
M  V30 5669 H 539.778 -3.70969 1.09172 0
M  V30 5670 H 541.467 -3.76914 1.50635 0
M  V30 5671 H 542.233 -2.94899 3.85045 0
M  V30 5672 H 538.112 -3.63561 2.83451 0
M  V30 5673 H 541.656 -3.1069 6.24594 0
M  V30 5674 H 537.553 -3.79556 5.22118 0
M  V30 5675 H 538.321 -3.71116 7.29531 0
M  V30 5676 N 540.985 -1.06182 -1.16461 0
M  V30 5677 C 542.215 -0.797425 -1.9059 0
M  V30 5678 C 542.623 0.651845 -1.77616 0
M  V30 5679 O 541.966 1.45788 -1.11766 0
M  V30 5680 C 542.028 -1.11128 -3.41893 0
M  V30 5681 C 541.692 -2.55874 -3.78652 0
M  V30 5682 C 542.689 -3.54104 -3.80665 0
M  V30 5683 C 540.374 -2.91144 -4.09317 0
M  V30 5684 C 542.368 -4.85645 -4.12829 0
M  V30 5685 C 540.055 -4.22885 -4.41148 0
M  V30 5686 C 541.053 -5.19945 -4.42883 0
M  V30 5687 O 540.741 -6.49322 -4.73959 0
M  V30 5688 H 540.473 -0.288709 -0.611247 0
M  V30 5689 H 543.027 -1.41841 -1.4856 0
M  V30 5690 H 541.257 -0.433217 -3.84266 0
M  V30 5691 H 542.946 -0.831306 -3.97296 0
M  V30 5692 H 543.712 -3.28197 -3.57088 0
M  V30 5693 H 539.591 -2.16252 -4.07131 0
M  V30 5694 H 543.135 -5.61398 -4.14099 0
M  V30 5695 H 539.032 -4.48551 -4.6419 0
M  V30 5696 H 539.8 -6.54294 -4.91774 0
M  V30 5697 N 542.463 1.3308 -0.844243 0
M  V30 5698 C 543.879 1.50447 -0.532729 0
M  V30 5699 C 544.079 1.78292 0.938837 0
M  V30 5700 O 543.135 1.84635 1.72239 0
M  V30 5701 C 544.448 2.65555 -1.41072 0
M  V30 5702 C 545.996 2.7944 -1.41005 0
M  V30 5703 C 546.471 3.97616 -2.27301 0
M  V30 5704 N 547.962 4.0486 -2.2504 0
M  V30 5705 C 548.697 4.95508 -2.88547 0
M  V30 5706 N 548.193 5.91236 -3.61126 0
M  V30 5707 N 549.986 4.88548 -2.77989 0
M  V30 5708 H 542.137 1.13269 -1.79677 0
M  V30 5709 H 544.4 0.55734 -0.766861 0
M  V30 5710 H 544.106 2.51675 -2.45668 0
M  V30 5711 H 543.98 3.61089 -1.09061 0
M  V30 5712 H 546.367 2.92749 -0.371784 0
M  V30 5713 H 546.448 1.8465 -1.77026 0
M  V30 5714 H 546.092 3.85066 -3.3119 0
M  V30 5715 H 546.022 4.91661 -1.88619 0
M  V30 5716 H 548.513 3.36353 -1.72264 0
M  V30 5717 H 548.826 6.57079 -4.06776 0
M  V30 5718 H 547.171 5.91295 -3.65234 0
M  V30 5719 H 550.362 4.12729 -2.20846 0
M  V30 5720 H 550.535 5.58994 -3.27765 0
M  V30 5721 N 543.941 0.601185 1.45683 0
M  V30 5722 C 544.904 -0.111398 2.28929 0
M  V30 5723 C 545.904 -0.801246 1.39416 0
M  V30 5724 O 547.094 -0.650383 1.61603 0
M  V30 5725 C 544.226 -1.16773 3.20276 0
M  V30 5726 H 545.419 0.620412 2.93413 0
M  V30 5727 H 542.972 0.359946 1.52099 0
M  V30 5728 H 543.707 -1.93051 2.60579 0
M  V30 5729 H 543.492 -0.677358 3.86205 0
M  V30 5730 H 544.982 -1.66698 3.82886 0
M  V30 5731 N 545.419 -1.53889 0.339982 0
M  V30 5732 C 546.83 -1.86139 -0.144671 0
M  V30 5733 C 547.181 -1.2613 -1.50285 0
M  V30 5734 O 546.306 -0.573515 -2.08662 0
M  V30 5735 C 546.901 -3.37728 -0.269285 0
M  V30 5736 C 545.46 -3.69868 -0.698168 0
M  V30 5737 C 544.607 -2.76777 0.170249 0
M  V30 5738 H 547.558 -1.48503 0.559704 0
M  V30 5739 H 547.579 -3.64331 -1.0974 0
M  V30 5740 H 547.091 -3.81375 0.719366 0
M  V30 5741 H 545.192 -3.31764 -1.69597 0
M  V30 5742 H 545.305 -4.76582 -0.490533 0
M  V30 5743 H 543.669 -2.52188 -0.356844 0
M  V30 5744 H 544.452 -3.23253 1.15597 0
M  V30 5745 N 546.897 -0.0685191 -1.57451 0
M  V30 5746 C 547.807 0.914677 -2.16034 0
M  V30 5747 C 548.823 1.32938 -1.12265 0
M  V30 5748 O 549.999 1.40275 -1.44516 0
M  V30 5749 C 547.064 2.16519 -2.70777 0
M  V30 5750 C 546.125 1.80721 -3.89408 0
M  V30 5751 C 545.358 2.9981 -4.41531 0
M  V30 5752 O 545.581 4.13727 -3.92666 0
M  V30 5753 O 544.515 2.79817 -5.32903 0
M  V30 5754 H 548.341 0.446364 -3.00402 0
M  V30 5755 H 545.926 0.154367 -1.486 0
M  V30 5756 H 547.808 2.89856 -3.05878 0
M  V30 5757 H 546.483 2.62454 -1.89471 0
M  V30 5758 H 545.39 1.04646 -3.59166 0
M  V30 5759 H 546.723 1.39571 -4.71997 0
M  V30 5760 N 548.375 1.56261 0.205012 0
M  V30 5761 C 549.624 1.79236 0.925058 0
M  V30 5762 C 549.937 0.640011 1.84833 0
M  V30 5763 O 551.143 0.753809 2.60826 0
M  V30 5764 C 549.599 3.17475 1.69522 0
M  V30 5765 C 549.207 4.40482 0.817269 0
M  V30 5766 C 550.951 3.49766 2.4055 0
M  V30 5767 C 548.858 5.69744 1.58573 0
M  V30 5768 H 547.788 0.668287 0.349153 0
M  V30 5769 H 550.439 1.82629 0.178544 0
M  V30 5770 H 548.821 3.08304 2.48526 0
M  V30 5771 H 549.995 4.60752 0.0665988 0
M  V30 5772 H 548.31 4.15827 0.218316 0
M  V30 5773 H 550.907 4.43573 2.98575 0
M  V30 5774 H 551.25 2.73041 3.14252 0
M  V30 5775 H 551.783 3.60341 1.68522 0
M  V30 5776 H 548.522 6.49407 0.891679 0
M  V30 5777 H 548.042 5.53509 2.31059 0
M  V30 5778 H 549.721 6.1051 2.14212 0
M  V30 5779 N 549.853 -0.472356 1.50355 0
M  V30 5780 C 551.102 -1.2213 1.60522 0
M  V30 5781 C 551.415 -1.9312 0.310466 0
M  V30 5782 O 552.621 -2.69936 0.291029 0
M  V30 5783 C 551.077 -2.21909 2.83345 0
M  V30 5784 C 550.685 -1.56727 4.19691 0
M  V30 5785 C 552.429 -2.97453 3.02856 0
M  V30 5786 C 550.336 -2.54785 5.33703 0
M  V30 5787 H 549.266 -0.459543 0.597776 0
M  V30 5788 H 551.917 -0.491922 1.76783 0
M  V30 5789 H 550.299 -2.98133 2.60639 0
M  V30 5790 H 551.473 -0.863007 4.52646 0
M  V30 5791 H 549.788 -0.934685 4.05774 0
M  V30 5792 H 552.385 -3.70838 3.85205 0
M  V30 5793 H 552.728 -3.56764 2.14534 0
M  V30 5794 H 553.261 -2.28342 3.25737 0
M  V30 5795 H 550 -2.00214 6.24175 0
M  V30 5796 H 549.52 -3.23367 5.05167 0
M  V30 5797 H 551.199 -3.16639 5.64224 0
M  V30 5798 N 551.331 -1.39911 -0.725443 0
M  V30 5799 C 552.261 -1.42138 -1.85254 0
M  V30 5800 C 553.242 -0.283513 -1.67721 0
M  V30 5801 O 554.427 -0.490717 -1.87898 0
M  V30 5802 C 551.557 -1.27354 -3.23107 0
M  V30 5803 C 550.511 -2.3864 -3.55296 0
M  V30 5804 C 549.837 -2.08939 -4.92188 0
M  V30 5805 C 551.137 -3.8097 -3.57295 0
M  V30 5806 H 552.831 -2.36461 -1.83648 0
M  V30 5807 H 550.377 -1.13817 -0.882138 0
M  V30 5808 H 552.33 -1.2753 -4.01639 0
M  V30 5809 H 551.054 -0.295025 -3.25265 0
M  V30 5810 H 549.713 -2.37696 -2.79099 0
M  V30 5811 H 549.361 -1.09502 -4.90936 0
M  V30 5812 H 549.061 -2.83491 -5.14691 0
M  V30 5813 H 550.585 -2.10781 -5.73065 0
M  V30 5814 H 551.999 -3.8379 -4.25885 0
M  V30 5815 H 550.396 -4.5496 -3.9132 0
M  V30 5816 H 551.466 -4.11261 -2.5689 0
M  V30 5817 N 552.809 0.956637 -1.25245 0
M  V30 5818 C 554.057 1.69764 -1.09657 0
M  V30 5819 C 554.378 1.91583 0.363464 0
M  V30 5820 O 553.648 1.50149 1.25825 0
M  V30 5821 H 552.228 0.629097 -0.402798 0
M  V30 5822 H 554.89 1.15026 -1.57337 0
M  V30 5823 H 553.986 2.67769 -1.60331 0
M  V30 5824 N 554.287 1.06798 1.15896 0
M  V30 5825 C 555.217 0.704677 2.22613 0
M  V30 5826 C 556.198 -0.305252 1.67339 0
M  V30 5827 O 557.383 -0.179247 1.93371 0
M  V30 5828 C 554.513 0.0957325 3.47168 0
M  V30 5829 C 553.467 1.0322 4.15367 0
M  V30 5830 C 552.793 0.286293 5.33933 0
M  V30 5831 C 554.093 2.36341 4.65768 0
M  V30 5832 H 555.787 1.59688 2.53259 0
M  V30 5833 H 553.333 0.769257 1.21731 0
M  V30 5834 H 555.286 -0.170333 4.21056 0
M  V30 5835 H 554.01 -0.831516 3.15838 0
M  V30 5836 H 552.669 1.28309 3.43413 0
M  V30 5837 H 552.317 -0.644237 4.98857 0
M  V30 5838 H 552.017 0.910436 5.80504 0
M  V30 5839 H 553.541 0.0278938 6.10594 0
M  V30 5840 H 554.955 2.1561 5.31211 0
M  V30 5841 H 553.352 2.94299 5.2298 0
M  V30 5842 H 554.422 2.99047 3.81705 0
M  V30 5843 N 555.766 -1.3263 0.851289 0
M  V30 5844 C 557.177 -1.79653 0.5081 0
M  V30 5845 C 557.528 -1.70327 -0.973815 0
M  V30 5846 O 556.653 -1.25986 -1.75944 0
M  V30 5847 C 557.248 -3.26196 0.915515 0
M  V30 5848 C 555.807 -3.71187 0.624277 0
M  V30 5849 C 554.954 -2.53804 1.11709 0
M  V30 5850 H 557.905 -1.19976 1.03882 0
M  V30 5851 H 557.926 -3.79801 0.230535 0
M  V30 5852 H 557.438 -3.32952 1.99411 0
M  V30 5853 H 555.539 -3.69948 -0.443737 0
M  V30 5854 H 555.652 -4.64132 1.18821 0
M  V30 5855 H 554.016 -2.48964 0.537484 0
M  V30 5856 H 554.799 -2.63315 2.20272 0
M  V30 5857 N 557.244 -0.608902 -1.45362 0
M  V30 5858 C 558.491 -0.104607 -2.0223 0
M  V30 5859 C 558.819 1.26534 -1.47714 0
M  V30 5860 O 558.074 1.84855 -0.642435 0
M  V30 5861 C 558.373 -0.0167296 -3.57396 0
M  V30 5862 C 558.039 -1.32251 -4.31069 0
M  V30 5863 C 556.701 -1.68019 -4.50914 0
M  V30 5864 C 559.053 -2.18542 -4.73169 0
M  V30 5865 C 556.381 -2.89828 -5.10114 0
M  V30 5866 C 558.733 -3.39602 -5.33717 0
M  V30 5867 C 557.397 -3.7562 -5.51784 0
M  V30 5868 H 556.667 -0.0382785 -0.740011 0
M  V30 5869 H 559.314 -0.790782 -1.7441 0
M  V30 5870 H 557.619 0.752715 -3.84502 0
M  V30 5871 H 559.316 0.389634 -3.99103 0
M  V30 5872 H 555.906 -1.03411 -4.15938 0
M  V30 5873 H 560.09 -1.92208 -4.5757 0
M  V30 5874 H 555.346 -3.17839 -5.22291 0
M  V30 5875 H 559.52 -4.06716 -5.65292 0
M  V30 5876 H 557.147 -4.70093 -5.97425 0
M  V30 5877 N 558.722 1.53707 -0.348139 0
M  V30 5878 C 559.962 2.02899 0.247254 0
M  V30 5879 C 560.326 1.23033 1.47401 0
M  V30 5880 O 561.527 1.62146 2.14388 0
M  V30 5881 C 559.798 3.53156 0.549151 0
M  V30 5882 S 561.357 4.24247 1.1207 0
M  V30 5883 H 558.175 0.707213 0.0732894 0
M  V30 5884 H 560.777 1.89338 -0.486965 0
M  V30 5885 H 559.481 4.08893 -0.351435 0
M  V30 5886 H 559.012 3.70845 1.31291 0
M  V30 5887 H 561.027 4.33958 2.40613 0
M  V30 5888 N 560.2 0.0768682 1.57412 0
M  V30 5889 C 561.11 -0.903207 2.16516 0
M  V30 5890 C 562.126 -1.32341 1.12968 0
M  V30 5891 O 563.302 -1.39507 1.45258 0
M  V30 5892 C 560.367 -2.1508 2.71922 0
M  V30 5893 C 559.428 -1.78653 3.90361 0
M  V30 5894 C 558.661 -2.97465 4.43114 0
M  V30 5895 O 558.884 -4.11638 3.94854 0
M  V30 5896 O 557.818 -2.76987 5.3438 0
M  V30 5897 H 561.644 -0.430427 3.00634 0
M  V30 5898 H 559.229 -0.146485 1.4868 0
M  V30 5899 H 561.111 -2.8823 3.07411 0
M  V30 5900 H 559.786 -2.61446 1.9086 0
M  V30 5901 H 558.693 -1.0274 3.59716 0
M  V30 5902 H 560.026 -1.37066 4.7273 0
M  V30 5903 N 561.678 -1.56367 -0.196722 0
M  V30 5904 C 562.641 -1.93561 -1.22746 0
M  V30 5905 C 563.641 -0.816566 -1.38524 0
M  V30 5906 O 564.831 -1.084 -1.36363 0
M  V30 5907 C 561.963 -2.20823 -2.59712 0
M  V30 5908 H 563.156 -2.85774 -0.909586 0
M  V30 5909 H 560.709 -1.50032 -0.438174 0
M  V30 5910 H 561.444 -1.31243 -2.96557 0
M  V30 5911 H 561.229 -3.02368 -2.49632 0
M  V30 5912 H 562.719 -2.50608 -3.34044 0
M  V30 5913 N 563.156 0.464375 -1.50603 0
M  V30 5914 C 564.405 1.21277 -1.61167 0
M  V30 5915 C 564.718 1.92953 -0.320704 0
M  V30 5916 O 565.924 2.69778 -0.30534 0
M  V30 5917 C 564.38 2.20403 -2.84518 0
M  V30 5918 C 563.988 1.54499 -4.20516 0
M  V30 5919 C 565.732 2.95843 -3.0443 0
M  V30 5920 C 563.639 2.51951 -5.35047 0
M  V30 5921 H 562.569 0.456367 -0.600204 0
M  V30 5922 H 565.22 0.48254 -1.77042 0
M  V30 5923 H 563.602 2.96746 -2.62217 0
M  V30 5924 H 564.776 0.83899 -4.53098 0
M  V30 5925 H 563.091 0.913152 -4.06264 0
M  V30 5926 H 565.688 3.6879 -3.87167 0
M  V30 5927 H 566.031 3.55622 -2.16423 0
M  V30 5928 H 566.564 2.26611 -3.26944 0
M  V30 5929 H 563.303 1.96901 -6.25228 0
M  V30 5930 H 562.823 3.20683 -5.06875 0
M  V30 5931 H 564.502 3.13643 -5.65895 0
M  V30 5932 N 564.634 1.40294 0.718013 0
M  V30 5933 C 565.911 1.2894 1.47084 0
M  V30 5934 C 566.291 -0.0933625 2.10893 0
M  V30 5935 O 565.639 -1.10598 1.99951 0
M  V30 5936 C 565.849 2.4264 2.50852 0
M  V30 5937 C 567.197 2.8276 3.16752 0
M  V30 5938 O 568.221 2.42215 2.61171 0
M  V30 5939 O 567.08 3.528 4.17366 0
M  V30 5940 H 564.174 0.506236 0.653952 0
M  V30 5941 H 566.72 1.52208 0.750394 0
M  V30 5942 H 565.492 3.35009 2.022 0
M  V30 5943 H 565.115 2.21129 3.30435 0
M  V30 5944 N 566.112 -0.949982 1.2575 0
M  V30 5945 C 567.045 -2.047 1.00862 0
M  V30 5946 C 568.023 -1.62475 -0.0636982 0
M  V30 5947 O 569.207 -1.88343 0.0769153 0
M  V30 5948 C 566.334 -3.34597 0.525613 0
M  V30 5949 C 565.38 -3.95788 1.58916 0
M  V30 5950 S 566.213 -4.31175 3.17567 0
M  V30 5951 C 567.369 -5.64183 2.71013 0
M  V30 5952 H 567.602 -2.25497 1.93749 0
M  V30 5953 H 565.135 -1.09022 1.09332 0
M  V30 5954 H 567.093 -4.09716 0.25359 0
M  V30 5955 H 565.754 -3.11758 -0.382828 0
M  V30 5956 H 564.947 -4.89457 1.20201 0
M  V30 5957 H 564.549 -3.27168 1.81211 0
M  V30 5958 H 566.841 -6.42504 2.14928 0
M  V30 5959 H 567.784 -6.07774 3.6334 0
M  V30 5960 H 568.192 -5.2364 2.1086 0
M  V30 5961 N 567.59 -1.07411 -1.15328 0
M  V30 5962 C 568.836 -0.808666 -1.86634 0
M  V30 5963 C 569.191 0.65816 -1.80793 0
M  V30 5964 O 568.484 1.47689 -1.22059 0
M  V30 5965 C 568.678 -1.25191 -3.34757 0
M  V30 5966 C 568.507 -2.76028 -3.55019 0
M  V30 5967 C 567.277 -3.43644 -3.70455 0
M  V30 5968 C 569.475 -3.74224 -3.5279 0
M  V30 5969 N 567.457 -4.83117 -3.78776 0
M  V30 5970 C 568.828 -4.9954 -3.67233 0
M  V30 5971 C 570.883 -3.67373 -3.36068 0
M  V30 5972 C 569.586 -6.18819 -3.66682 0
M  V30 5973 C 571.612 -4.86116 -3.36816 0
M  V30 5974 C 570.974 -6.10266 -3.51789 0
M  V30 5975 H 567.073 -0.348478 -0.700062 0
M  V30 5976 H 569.657 -1.37049 -1.38295 0
M  V30 5977 H 567.828 -0.717775 -3.8171 0
M  V30 5978 H 569.56 -0.933936 -3.93776 0
M  V30 5979 H 566.315 -2.94051 -3.71256 0
M  V30 5980 H 566.739 -5.55705 -3.86679 0
M  V30 5981 H 571.381 -2.72334 -3.2341 0
M  V30 5982 H 569.099 -7.14179 -3.78118 0
M  V30 5983 H 572.685 -4.82492 -3.25103 0
M  V30 5984 H 571.565 -7.00609 -3.52301 0
M  V30 5985 N 569.068 1.32177 -0.85831 0
M  V30 5986 C 570.293 2.01847 -0.476718 0
M  V30 5987 C 570.718 1.64065 0.920021 0
M  V30 5988 O 570.076 0.843189 1.60499 0
M  V30 5989 C 570.124 3.55097 -0.627578 0
M  V30 5990 O 569.228 4.11012 0.338086 0
M  V30 5991 H 568.569 0.635907 -0.191099 0
M  V30 5992 H 571.099 1.68641 -1.15851 0
M  V30 5993 H 571.109 4.04718 -0.516476 0
M  V30 5994 H 569.784 3.81938 -1.64609 0
M  V30 5995 H 568.361 3.72451 0.182917 0
M  V30 5996 N 570.547 0.616602 1.45037 0
M  V30 5997 C 571.477 -0.0840787 2.33349 0
M  V30 5998 C 572.458 -0.849641 1.4736 0
M  V30 5999 O 573.643 -0.818407 1.76113 0
M  V30 6000 C 570.773 -1.07604 3.3021 0
M  V30 6001 C 569.727 -0.423096 4.25904 0
M  V30 6002 C 569.053 -1.52394 5.12523 0
M  V30 6003 C 570.353 0.661457 5.18095 0
M  V30 6004 H 572.047 0.653333 2.92185 0
M  V30 6005 H 569.593 0.315634 1.40498 0
M  V30 6006 H 571.546 -1.57485 3.90866 0
M  V30 6007 H 570.27 -1.84416 2.69552 0
M  V30 6008 H 568.929 0.05493 3.66559 0
M  V30 6009 H 568.577 -2.28257 4.48227 0
M  V30 6010 H 568.277 -1.09251 5.77354 0
M  V30 6011 H 569.801 -2.02485 5.76049 0
M  V30 6012 H 571.215 0.246353 5.7277 0
M  V30 6013 H 569.612 1.01517 5.91451 0
M  V30 6014 H 570.682 1.53446 4.59981 0
M  V30 6015 N 572.025 -1.5352 0.356285 0
M  V30 6016 C 573.273 -2.00719 -0.235837 0
M  V30 6017 C 573.594 -1.24551 -1.5004 0
M  V30 6018 O 572.864 -0.356185 -1.92635 0
M  V30 6019 H 571.444 -0.741542 -0.0901366 0
M  V30 6020 H 574.106 -1.88887 0.480378 0
M  V30 6021 H 573.202 -3.08551 -0.469357 0
M  V30 6022 N 573.503 -0.0852151 -1.57369 0
M  V30 6023 C 574.743 0.584297 -1.95871 0
M  V30 6024 C 575.107 1.6596 -0.965473 0
M  V30 6025 O 576.308 2.38561 -1.23862 0
M  V30 6026 C 574.579 1.13411 -3.38929 0
M  V30 6027 S 576.138 1.81687 -3.99419 0
M  V30 6028 H 572.956 0.19095 -0.684879 0
M  V30 6029 H 575.558 -0.162267 -1.94825 0
M  V30 6030 H 574.262 0.339845 -4.0899 0
M  V30 6031 H 573.793 1.91672 -3.43548 0
M  V30 6032 H 575.808 3.10037 -3.87417 0
M  V30 6033 N 574.981 1.5647 0.188427 0
M  V30 6034 C 576.227 1.81281 0.909124 0
M  V30 6035 C 576.56 0.66034 1.82628 0
M  V30 6036 O 575.835 -0.338737 1.91528 0
M  V30 6037 C 576.118 3.16388 1.7196 0
M  V30 6038 C 575.971 4.42137 0.826714 0
M  V30 6039 C 577.29 3.48256 2.69083 0
M  V30 6040 H 574.409 0.659457 0.329068 0
M  V30 6041 H 577.051 1.89182 0.176156 0
M  V30 6042 H 575.201 3.09784 2.34448 0
M  V30 6043 H 576.873 4.60794 0.216025 0
M  V30 6044 H 575.116 4.33594 0.133792 0
M  V30 6045 H 575.787 5.33184 1.42893 0
M  V30 6046 H 578.263 3.55203 2.16726 0
M  V30 6047 H 577.139 4.43899 3.2287 0
M  V30 6048 H 577.4 2.72088 3.48455 0
M  V30 6049 N 576.459 -0.456382 1.50847 0
M  V30 6050 C 577.708 -1.2042 1.61808 0
M  V30 6051 C 578.021 -1.9278 0.330932 0
M  V30 6052 O 579.227 -2.69612 0.319643 0
M  V30 6053 C 577.683 -2.18891 2.85683 0
M  V30 6054 C 577.291 -1.52267 4.2133 0
M  V30 6055 C 579.035 -2.94224 3.05994 0
M  V30 6056 C 576.942 -2.4911 5.36375 0
M  V30 6057 H 575.872 -0.453177 0.602616 0
M  V30 6058 H 578.523 -0.473144 1.77295 0
M  V30 6059 H 576.905 -2.95351 2.63787 0
M  V30 6060 H 578.079 -0.814949 4.53536 0
M  V30 6061 H 576.394 -0.891594 4.06743 0
M  V30 6062 H 578.991 -3.66732 3.89117 0
M  V30 6063 H 579.334 -3.54469 2.18306 0
M  V30 6064 H 579.867 -2.24874 3.28141 0
M  V30 6065 H 576.606 -1.93582 6.26264 0
M  V30 6066 H 576.126 -3.17991 5.08569 0
M  V30 6067 H 577.805 -3.10637 5.67551 0
M  V30 6068 N 577.937 -1.40673 -0.710563 0
M  V30 6069 C 578.9 -1.4108 -1.80635 0
M  V30 6070 C 579.9 -0.303783 -1.57904 0
M  V30 6071 O 581.09 -0.562937 -1.64853 0
M  V30 6072 C 578.222 -1.20748 -3.18799 0
M  V30 6073 H 579.415 -2.38612 -1.81671 0
M  V30 6074 H 576.968 -1.26595 -0.916704 0
M  V30 6075 H 577.703 -0.239964 -3.23411 0
M  V30 6076 H 577.488 -2.00941 -3.36698 0
M  V30 6077 H 578.978 -1.23833 -3.98817 0
M  V30 6078 N 579.415 0.9433 -1.26252 0
M  V30 6079 C 580.325 2.07532 -1.09397 0
M  V30 6080 C 581.341 1.73977 -0.0280449 0
M  V30 6081 O 582.517 2.00067 -0.231337 0
M  V30 6082 C 579.582 3.39002 -0.726523 0
M  V30 6083 C 578.643 3.86353 -1.87163 0
M  V30 6084 C 577.876 5.11549 -1.52162 0
M  V30 6085 O 578.099 5.68834 -0.422385 0
M  V30 6086 O 577.033 5.53889 -2.35565 0
M  V30 6087 H 580.859 2.24658 -2.04359 0
M  V30 6088 H 578.444 1.05988 -1.05295 0
M  V30 6089 H 580.326 4.18 -0.534236 0
M  V30 6090 H 579.001 3.2312 0.193721 0
M  V30 6091 H 577.908 3.0831 -2.11886 0
M  V30 6092 H 579.241 4.06752 -2.77152 0
M  V30 6093 N 580.893 1.08022 1.14757 0
M  V30 6094 C 581.823 0.728248 2.21853 0
M  V30 6095 C 582.804 -0.287486 1.67653 0
M  V30 6096 O 583.989 -0.158727 1.9355 0
M  V30 6097 C 581.119 0.132549 3.47047 0
M  V30 6098 C 580.073 1.07619 4.14249 0
M  V30 6099 C 579.399 0.342907 5.33599 0
M  V30 6100 C 580.699 2.41268 4.63235 0
M  V30 6101 H 582.393 1.62365 2.51551 0
M  V30 6102 H 579.939 0.782125 1.20908 0
M  V30 6103 H 581.892 -0.125665 4.21213 0
M  V30 6104 H 580.616 -0.797971 3.16702 0
M  V30 6105 H 579.275 1.31944 3.42033 0
M  V30 6106 H 578.923 -0.59129 4.99513 0
M  V30 6107 H 578.623 0.971955 5.79506 0
M  V30 6108 H 580.147 0.0926538 6.1053 0
M  V30 6109 H 581.561 2.21232 5.28894 0
M  V30 6110 H 579.958 2.9983 5.19829 0
M  V30 6111 H 581.028 3.03079 3.78512 0
M  V30 6112 N 582.371 -1.3172 0.865308 0
M  V30 6113 C 583.618 -1.96876 0.473931 0
M  V30 6114 C 583.946 -1.68425 -0.972786 0
M  V30 6115 O 583.201 -0.970742 -1.69927 0
M  V30 6116 C 583.5 -3.5102 0.672283 0
M  V30 6117 C 583.166 -3.9948 2.09108 0
M  V30 6118 C 581.828 -4.12425 2.4791 0
M  V30 6119 C 584.18 -4.2503 3.0166 0
M  V30 6120 C 581.508 -4.48267 3.78515 0
M  V30 6121 C 583.86 -4.62335 4.31774 0
M  V30 6122 C 582.524 -4.73486 4.70497 0
M  V30 6123 H 581.794 -0.72042 0.173424 0
M  V30 6124 H 584.441 -1.56937 1.0974 0
M  V30 6125 H 582.746 -3.91785 -0.034356 0
M  V30 6126 H 584.443 -3.99475 0.349353 0
M  V30 6127 H 581.033 -3.89898 1.77981 0
M  V30 6128 H 585.217 -4.14529 2.7291 0
M  V30 6129 H 580.473 -4.55097 4.08285 0
M  V30 6130 H 584.647 -4.81058 5.03543 0
M  V30 6131 H 582.274 -5.01016 5.71741 0
M  V30 6132 N 583.85 -0.624285 -1.44708 0
M  V30 6133 C 584.779 0.0717025 -2.3339 0
M  V30 6134 C 585.76 0.841814 -1.47809 0
M  V30 6135 O 586.946 0.809056 -1.76544 0
M  V30 6136 C 584.076 1.05852 -3.30776 0
M  V30 6137 C 583.029 0.400503 -4.26122 0
M  V30 6138 C 582.356 1.49674 -5.13324 0
M  V30 6139 C 583.656 -0.688924 -5.17737 0
M  V30 6140 H 585.35 -0.668819 -2.91834 0
M  V30 6141 H 582.896 -0.32308 -1.40329 0
M  V30 6142 H 584.849 1.5541 -3.91696 0
M  V30 6143 H 583.572 1.82984 -2.70526 0
M  V30 6144 H 582.231 -0.0743687 -3.66525 0
M  V30 6145 H 581.88 2.25877 -4.49431 0
M  V30 6146 H 581.58 1.06188 -5.77926 0
M  V30 6147 H 583.104 1.99427 -5.77115 0
M  V30 6148 H 584.518 -0.276724 -5.72632 0
M  V30 6149 H 582.915 -1.04652 -5.90904 0
M  V30 6150 H 583.985 -1.55884 -4.5916 0
M  V30 6151 N 585.328 1.53329 -0.364422 0
M  V30 6152 C 586.576 2.00842 0.225189 0
M  V30 6153 C 586.897 1.25345 1.49378 0
M  V30 6154 O 586.167 0.366396 1.92443 0
M  V30 6155 H 584.747 0.742009 0.0862027 0
M  V30 6156 H 587.409 1.8863 -0.490389 0
M  V30 6157 H 586.505 3.08795 0.452987 0
M  V30 6158 N 586.806 0.0935595 1.57322 0
M  V30 6159 C 588.052 -0.565234 1.95388 0
M  V30 6160 C 588.407 -1.65888 0.974632 0
M  V30 6161 O 587.7 -1.916 0.000376385 0
M  V30 6162 C 587.894 -1.16692 3.37813 0
M  V30 6163 C 587.723 -0.133091 4.49503 0
M  V30 6164 C 586.493 0.289884 5.04468 0
M  V30 6165 C 588.691 0.638141 5.10326 0
M  V30 6166 N 586.673 1.31214 5.99713 0
M  V30 6167 C 588.044 1.51227 6.01274 0
M  V30 6168 C 590.099 0.691827 4.9307 0
M  V30 6169 C 588.802 2.43536 6.76818 0
M  V30 6170 C 590.828 1.60251 5.69274 0
M  V30 6171 C 590.19 2.46427 6.59889 0
M  V30 6172 H 586.289 -0.177212 0.761656 0
M  V30 6173 H 588.873 0.175769 1.93905 0
M  V30 6174 H 587.044 -1.87775 3.39993 0
M  V30 6175 H 588.776 -1.78795 3.63063 0
M  V30 6176 H 585.531 -0.0975541 4.735 0
M  V30 6177 H 585.955 1.82143 6.52038 0
M  V30 6178 H 590.597 0.0397431 4.22781 0
M  V30 6179 H 588.315 3.0977 7.4637 0
M  V30 6180 H 591.901 1.64917 5.57937 0
M  V30 6181 H 590.781 3.15751 7.17824 0
M  V30 6182 N 588.284 -1.56567 -0.180126 0
M  V30 6183 C 589.695 -1.7126 -0.743422 0
M  V30 6184 C 590.046 -0.70263 -1.83187 0
M  V30 6185 O 589.171 0.137856 -2.1596 0
M  V30 6186 C 589.766 -3.10512 -1.35528 0
M  V30 6187 C 588.325 -3.26919 -1.8655 0
M  V30 6188 C 587.472 -2.67213 -0.741099 0
M  V30 6189 H 590.423 -1.58636 0.0451543 0
M  V30 6190 H 590.444 -3.08673 -2.22489 0
M  V30 6191 H 589.956 -3.83997 -0.562862 0
M  V30 6192 H 588.057 -2.58376 -2.68464 0
M  V30 6193 H 588.17 -4.34574 -2.01699 0
M  V30 6194 H 586.534 -2.26788 -1.15927 0
M  V30 6195 H 587.317 -3.43277 0.0393291 0
M  V30 6196 N 589.762 0.448376 -1.51087 0
M  V30 6197 C 590.692 1.55102 -1.74544 0
M  V30 6198 C 591.673 1.59357 -0.594932 0
M  V30 6199 O 592.858 1.75261 -0.836491 0
M  V30 6200 C 589.988 2.93268 -1.86041 0
M  V30 6201 C 588.942 3.03877 -3.01402 0
M  V30 6202 C 588.268 4.43914 -2.98068 0
M  V30 6203 C 589.568 2.7898 -4.41551 0
M  V30 6204 H 591.262 1.35724 -2.66869 0
M  V30 6205 H 588.808 0.651498 -1.28419 0
M  V30 6206 H 590.761 3.70356 -2.01034 0
M  V30 6207 H 589.485 3.13853 -0.903548 0
M  V30 6208 H 588.144 2.29227 -2.86096 0
M  V30 6209 H 587.792 4.6145 -2.00182 0
M  V30 6210 H 587.492 4.51944 -3.75527 0
M  V30 6211 H 589.016 5.22991 -3.1514 0
M  V30 6212 H 590.43 3.45805 -4.57265 0
M  V30 6213 H 588.827 2.98431 -5.20633 0
M  V30 6214 H 589.897 1.74663 -4.5235 0
M  V30 6215 N 591.24 1.41047 0.703093 0
M  V30 6216 C 592.47 1.43133 1.48985 0
M  V30 6217 C 592.878 0.0328537 1.89171 0
M  V30 6218 O 592.221 -0.956469 1.56835 0
M  V30 6219 C 592.283 2.26991 2.78775 0
M  V30 6220 C 591.947 3.7525 2.60837 0
M  V30 6221 C 592.944 4.67591 2.27276 0
M  V30 6222 C 590.629 4.19208 2.76712 0
M  V30 6223 C 592.623 6.01877 2.09817 0
M  V30 6224 C 590.31 5.53561 2.5887 0
M  V30 6225 C 591.308 6.4471 2.25472 0
M  V30 6226 O 590.996 7.76584 2.07778 0
M  V30 6227 H 590.728 0.489788 0.465922 0
M  V30 6228 H 593.282 1.85886 0.873822 0
M  V30 6229 H 591.512 1.79038 3.42757 0
M  V30 6230 H 593.201 2.20867 3.40547 0
M  V30 6231 H 593.967 4.34923 2.14633 0
M  V30 6232 H 589.846 3.48572 3.01693 0
M  V30 6233 H 593.39 6.72986 1.83671 0
M  V30 6234 H 589.287 5.85811 2.71102 0
M  V30 6235 H 590.055 7.87649 2.22601 0
M  V30 6236 N 592.718 -0.936591 1.26751 0
M  V30 6237 C 594.129 -1.49816 1.1141 0
M  V30 6238 C 594.48 -1.9383 -0.304015 0
M  V30 6239 O 593.605 -1.80346 -1.196 0
M  V30 6240 C 594.2 -2.72271 2.01629 0
M  V30 6241 C 592.759 -3.2468 1.9042 0
M  V30 6242 C 591.906 -1.97444 1.94708 0
M  V30 6243 H 594.857 -0.751604 1.39773 0
M  V30 6244 H 594.878 -3.46741 1.56688 0
M  V30 6245 H 594.39 -2.40205 3.04833 0
M  V30 6246 H 592.491 -3.61525 0.901674 0
M  V30 6247 H 592.604 -3.91476 2.76195 0
M  V30 6248 H 590.968 -2.13545 1.38818 0
M  V30 6249 H 591.751 -1.67703 2.9955 0
M  V30 6250 N 594.196 -1.08629 -1.14182 0
M  V30 6251 C 595.444 -0.815731 -1.84906 0
M  V30 6252 C 595.765 0.660441 -1.83475 0
M  V30 6253 O 595.035 1.47888 -1.28476 0
M  V30 6254 H 593.615 -0.298773 -0.684648 0
M  V30 6255 H 596.277 -1.37274 -1.38354 0
M  V30 6256 H 595.373 -1.16193 -2.89665 0
M  V30 6257 N 595.674 1.31259 -0.872281 0
M  V30 6258 C 596.637 2.26744 -0.334656 0
M  V30 6259 C 597.637 1.52307 0.515681 0
M  V30 6260 O 598.827 1.71148 0.324656 0
M  V30 6261 C 595.959 3.36841 0.524482 0
M  V30 6262 H 597.152 2.75812 -1.17762 0
M  V30 6263 H 594.705 1.42232 -0.648064 0
M  V30 6264 H 595.44 2.93069 1.38855 0
M  V30 6265 H 595.225 3.92009 -0.0844299 0
M  V30 6266 H 596.715 4.07944 0.892838 0
M  V30 6267 N 597.152 0.631951 1.44375 0
M  V30 6268 C 598.377 0.142146 2.06912 0
M  V30 6269 C 598.802 -1.17456 1.4692 0
M  V30 6270 O 598.16 -1.72074 0.570975 0
M  V30 6271 C 598.208 0.0417952 3.60576 0
M  V30 6272 O 597.312 -1.00194 4.00044 0
M  V30 6273 H 596.653 0.0851491 0.658518 0
M  V30 6274 H 599.183 0.868863 1.85235 0
M  V30 6275 H 599.193 -0.148517 4.0773 0
M  V30 6276 H 597.868 1.0031 4.03622 0
M  V30 6277 H 596.445 -0.786131 3.64519 0
M  V30 6278 N 598.631 -1.53133 0.372548 0
M  V30 6279 C 599.541 -2.29671 -0.478379 0
M  V30 6280 C 600.557 -1.35913 -1.08644 0
M  V30 6281 O 601.733 -1.68975 -1.09588 0
M  V30 6282 C 598.798 -3.07625 -1.599 0
M  V30 6283 C 597.859 -4.17061 -1.01776 0
M  V30 6284 C 597.092 -4.91289 -2.08497 0
M  V30 6285 O 597.315 -4.65442 -3.29727 0
M  V30 6286 O 596.249 -5.7705 -1.71164 0
M  V30 6287 H 600.075 -3.03355 0.144649 0
M  V30 6288 H 597.66 -1.48773 0.136729 0
M  V30 6289 H 599.542 -3.56281 -2.25038 0
M  V30 6290 H 598.217 -2.3677 -2.2073 0
M  V30 6291 H 597.124 -3.72641 -0.330098 0
M  V30 6292 H 598.457 -4.90102 -0.453915 0
M  V30 6293 N 600.109 -0.101901 -1.5727 0
M  V30 6294 C 601.339 0.567568 -1.98651 0
M  V30 6295 C 601.747 1.61839 -0.980037 0
M  V30 6296 O 601.09 1.83661 0.0376564 0
M  V30 6297 C 601.152 1.26742 -3.36417 0
M  V30 6298 C 600.816 0.366561 -4.55528 0
M  V30 6299 C 601.813 -0.388022 -5.1845 0
M  V30 6300 C 599.498 0.282629 -5.01504 0
M  V30 6301 C 601.492 -1.21445 -6.25724 0
M  V30 6302 C 599.179 -0.547443 -6.08643 0
M  V30 6303 C 600.177 -1.29462 -6.70618 0
M  V30 6304 O 599.865 -2.11095 -7.7569 0
M  V30 6305 H 599.597 0.156282 -0.657687 0
M  V30 6306 H 602.151 -0.179912 -2.04611 0
M  V30 6307 H 600.381 2.06162 -3.27161 0
M  V30 6308 H 602.07 1.8321 -3.622 0
M  V30 6309 H 602.836 -0.332949 -4.83856 0
M  V30 6310 H 598.715 0.853868 -4.53023 0
M  V30 6311 H 602.259 -1.79814 -6.74027 0
M  V30 6312 H 598.156 -0.603971 -6.42668 0
M  V30 6313 H 598.924 -2.03851 -7.92709 0
M  V30 6314 N 601.587 1.56661 0.17182 0
M  V30 6315 C 602.864 1.72838 0.915778 0
M  V30 6316 C 603.244 0.66316 2.00413 0
M  V30 6317 O 602.592 -0.322123 2.26218 0
M  V30 6318 C 602.802 3.16019 1.48097 0
M  V30 6319 C 604.15 3.76962 1.95408 0
M  V30 6320 O 605.174 3.19294 1.57892 0
M  V30 6321 O 604.033 4.78219 2.64516 0
M  V30 6322 H 601.127 0.705797 0.431021 0
M  V30 6323 H 603.673 1.68947 0.159689 0
M  V30 6324 H 602.445 3.85031 0.697618 0
M  V30 6325 H 602.068 3.24234 2.30126 0
M  V30 6326 N 603.065 -0.440357 1.51323 0
M  V30 6327 C 603.997 -1.55254 1.68609 0
M  V30 6328 C 605.01 -1.52614 0.566812 0
M  V30 6329 O 606.199 -1.57445 0.841032 0
M  V30 6330 C 603.299 -2.94169 1.68279 0
M  V30 6331 C 602.472 -3.21346 2.96742 0
M  V30 6332 C 601.531 -4.3997 2.8864 0
M  V30 6333 O 600.557 -4.38771 3.62586 0
M  V30 6334 N 601.759 -5.43367 2.04285 0
M  V30 6335 H 604.524 -1.40831 2.6455 0
M  V30 6336 H 602.085 -0.629251 1.49171 0
M  V30 6337 H 604.077 -3.71543 1.60431 0
M  V30 6338 H 602.647 -3.02205 0.799441 0
M  V30 6339 H 601.867 -2.32299 3.18482 0
M  V30 6340 H 603.155 -3.3633 3.81785 0
M  V30 6341 H 602.553 -5.47176 1.43578 0
M  V30 6342 H 601.11 -6.19605 2.02318 0
M  V30 6343 N 604.543 -1.41418 -0.695603 0
M  V30 6344 C 605.792 -1.40073 -1.4513 0
M  V30 6345 C 606.105 -0.0130439 -1.95596 0
M  V30 6346 O 607.311 0.123032 -2.71221 0
M  V30 6347 C 605.767 -2.46286 -2.62433 0
M  V30 6348 C 605.375 -3.90962 -2.18753 0
M  V30 6349 C 607.119 -2.54077 -3.40066 0
M  V30 6350 C 605.026 -4.88728 -3.33015 0
M  V30 6351 H 603.956 -0.520903 -0.545138 0
M  V30 6352 H 606.607 -1.67242 -0.75515 0
M  V30 6353 H 604.989 -2.12248 -3.34315 0
M  V30 6354 H 606.163 -4.34248 -1.54161 0
M  V30 6355 H 604.478 -3.86831 -1.54114 0
M  V30 6356 H 607.075 -3.24303 -4.25125 0
M  V30 6357 H 607.418 -1.5776 -3.8525 0
M  V30 6358 H 607.951 -2.87206 -2.75241 0
M  V30 6359 H 604.69 -5.86449 -2.92844 0
M  V30 6360 H 604.21 -4.50091 -3.96457 0
M  V30 6361 H 605.889 -5.09483 -3.98793 0
M  V30 6362 N 606.021 0.929856 -1.27246 0
M  V30 6363 C 607.437 1.20542 -1.04603 0
M  V30 6364 C 607.637 2.00276 0.221754 0
M  V30 6365 O 606.693 2.34835 0.927833 0
M  V30 6366 C 608.006 1.95566 -2.28417 0
M  V30 6367 C 609.554 2.08513 -2.33433 0
M  V30 6368 C 610.029 2.86943 -3.5697 0
M  V30 6369 N 611.52 2.94512 -3.57515 0
M  V30 6370 C 612.255 3.55656 -4.49774 0
M  V30 6371 N 611.751 4.18209 -5.52334 0
M  V30 6372 N 613.544 3.53038 -4.37402 0
M  V30 6373 H 605.695 0.397113 -2.08655 0
M  V30 6374 H 607.958 0.238277 -0.917566 0
M  V30 6375 H 607.664 1.44395 -3.20691 0
M  V30 6376 H 607.538 2.9619 -2.33563 0
M  V30 6377 H 609.925 2.58872 -1.41666 0
M  V30 6378 H 610.006 1.07117 -2.32292 0
M  V30 6379 H 609.65 2.37268 -4.49072 0
M  V30 6380 H 609.58 3.8862 -3.55362 0
M  V30 6381 H 612.071 2.50053 -2.83341 0
M  V30 6382 H 612.384 4.62796 -6.18902 0
M  V30 6383 H 610.729 4.16761 -5.56179 0
M  V30 6384 H 613.92 3.0337 -3.56489 0
M  V30 6385 H 614.093 4.004 -5.09493 0
M  V30 6386 N 607.499 1.09233 1.13605 0
M  V30 6387 C 608.729 0.847677 1.88409 0
M  V30 6388 C 609.137 -0.604524 1.79282 0
M  V30 6389 O 608.48 -1.42773 1.15592 0
M  V30 6390 C 608.542 1.20153 3.38827 0
M  V30 6391 C 608.206 2.65824 3.71735 0
M  V30 6392 C 609.203 3.64072 3.71143 0
M  V30 6393 C 606.888 3.01894 4.01454 0
M  V30 6394 C 608.882 4.96419 3.99808 0
M  V30 6395 C 606.569 4.34433 4.29781 0
M  V30 6396 C 607.567 5.31505 4.28942 0
M  V30 6397 O 607.255 6.61659 4.56576 0
M  V30 6398 H 606.987 0.304813 0.603378 0
M  V30 6399 H 609.541 1.4573 1.44748 0
M  V30 6400 H 607.771 0.534946 3.82982 0
M  V30 6401 H 609.46 0.936349 3.94952 0
M  V30 6402 H 610.226 3.37549 3.4826 0
M  V30 6403 H 606.105 2.26971 4.01255 0
M  V30 6404 H 609.649 5.7218 3.99069 0
M  V30 6405 H 605.546 4.607 4.52135 0
M  V30 6406 H 606.314 6.67102 4.74254 0
M  V30 6407 N 608.977 -1.30795 0.87923 0
M  V30 6408 C 610.226 -1.95636 0.490875 0
M  V30 6409 C 610.539 -1.70214 -0.963674 0
M  V30 6410 O 611.745 -2.28991 -1.45861 0
M  V30 6411 C 610.201 -3.50271 0.826929 0
M  V30 6412 C 609.809 -3.84521 2.29886 0
M  V30 6413 C 611.553 -4.21456 0.507494 0
M  V30 6414 C 609.46 -5.32309 2.57685 0
M  V30 6415 H 608.39 -0.732238 0.179841 0
M  V30 6416 H 611.041 -1.48829 1.07341 0
M  V30 6417 H 609.423 -3.9562 0.173542 0
M  V30 6418 H 610.597 -3.50102 2.99609 0
M  V30 6419 H 608.912 -3.26425 2.58526 0
M  V30 6420 H 611.509 -5.30199 0.692293 0
M  V30 6421 H 611.852 -4.12614 -0.552718 0
M  V30 6422 H 612.385 -3.81772 1.11782 0
M  V30 6423 H 609.124 -5.46195 3.62424 0
M  V30 6424 H 608.644 -5.68048 1.92566 0
M  V30 6425 H 610.323 -5.99678 2.42889 0
M  V30 6426 N 610.455 -0.639598 -1.44038 0
M  V30 6427 C 611.68 -0.153117 -2.06834 0
M  V30 6428 C 612.105 1.16676 -1.47541 0
M  V30 6429 O 611.463 1.71769 -0.580093 0
M  V30 6430 C 611.511 -0.0609169 -3.60549 0
M  V30 6431 O 610.615 0.98071 -4.00569 0
M  V30 6432 H 609.956 -0.0886402 -0.658057 0
M  V30 6433 H 612.486 -0.878674 -1.84771 0
M  V30 6434 H 612.496 0.126892 -4.07803 0
M  V30 6435 H 611.171 -1.0245 -4.03084 0
M  V30 6436 H 609.748 0.766789 -3.64931 0
M  V30 6437 N 611.933 1.52934 -0.380664 0
M  V30 6438 C 612.865 2.23822 0.493581 0
M  V30 6439 C 613.878 1.25761 1.03383 0
M  V30 6440 O 615.067 1.5189 0.937633 0
M  V30 6441 C 612.167 2.9342 1.69582 0
M  V30 6442 C 611.34 4.18115 1.28445 0
M  V30 6443 C 610.399 4.70788 2.35042 0
M  V30 6444 O 609.425 5.34093 1.96807 0
M  V30 6445 N 610.627 4.49899 3.66839 0
M  V30 6446 H 613.392 2.99484 -0.11371 0
M  V30 6447 H 610.953 1.60577 -0.206587 0
M  V30 6448 H 612.945 3.2556 2.40401 0
M  V30 6449 H 611.515 2.21119 2.20965 0
M  V30 6450 H 610.735 3.92109 0.405503 0
M  V30 6451 H 612.023 4.99152 0.986132 0
M  V30 6452 H 611.421 3.99349 4.0067 0
M  V30 6453 H 609.978 4.86551 4.33718 0
M  V30 6454 N 613.412 0.11024 1.57214 0
M  V30 6455 C 614.64 -0.557834 1.99238 0
M  V30 6456 C 615.055 -1.60778 0.989734 0
M  V30 6457 O 614.412 -1.82491 -0.0186092 0
M  V30 6458 C 614.463 -1.19189 3.41286 0
M  V30 6459 O 614.184 -0.183919 4.37714 0
M  V30 6460 C 615.685 -1.94413 3.98395 0
M  V30 6461 H 612.905 -0.148392 0.654386 0
M  V30 6462 H 615.449 0.193996 2.03578 0
M  V30 6463 H 613.604 -1.89456 3.37913 0
M  V30 6464 H 614.018 -0.643475 5.20538 0
M  V30 6465 H 615.492 -2.34116 4.99894 0
M  V30 6466 H 615.969 -2.81592 3.3705 0
M  V30 6467 H 616.575 -1.28928 4.05287 0
M  V30 6468 N 614.89 -1.56749 -0.16351 0
M  V30 6469 C 615.822 -1.93587 -1.22705 0
M  V30 6470 C 616.835 -0.829824 -1.40063 0
M  V30 6471 O 618.024 -1.10826 -1.39928 0
M  V30 6472 C 615.124 -2.1803 -2.59454 0
M  V30 6473 C 614.297 -3.4928 -2.63292 0
M  V30 6474 C 613.356 -3.62457 -3.8146 0
M  V30 6475 O 612.382 -4.35004 -3.67096 0
M  V30 6476 N 613.584 -2.97888 -4.9824 0
M  V30 6477 H 616.349 -2.8542 -0.914081 0
M  V30 6478 H 613.91 -1.58 -0.353214 0
M  V30 6479 H 615.902 -2.24102 -3.36987 0
M  V30 6480 H 614.472 -1.32543 -2.8311 0
M  V30 6481 H 613.692 -3.54795 -1.71796 0
M  V30 6482 H 614.98 -4.35632 -2.62873 0
M  V30 6483 H 614.378 -2.38833 -5.12811 0
M  V30 6484 H 612.935 -3.09545 -5.73607 0
M  V30 6485 N 616.368 0.432326 -1.51554 0
M  V30 6486 C 617.616 1.17901 -1.64146 0
M  V30 6487 C 617.937 1.91604 -0.362367 0
M  V30 6488 O 617.207 1.85764 0.621968 0
M  V30 6489 H 615.787 0.438206 -0.604966 0
M  V30 6490 H 618.449 0.495172 -1.88505 0
M  V30 6491 H 617.545 1.90584 -2.47152 0
M  V30 6492 N 617.846 1.41785 0.688094 0
M  V30 6493 C 618.776 1.47 1.8142 0
M  V30 6494 C 619.757 0.327881 1.6691 0
M  V30 6495 O 620.942 0.540362 1.86531 0
M  V30 6496 C 618.072 1.35876 3.19617 0
M  V30 6497 C 617.026 2.47976 3.48844 0
M  V30 6498 C 616.352 2.21915 4.86475 0
M  V30 6499 C 617.652 3.90309 3.47068 0
M  V30 6500 H 619.346 2.41247 1.77314 0
M  V30 6501 H 616.892 1.16116 0.851651 0
M  V30 6502 H 618.845 1.38134 3.98117 0
M  V30 6503 H 617.569 0.38116 3.24368 0
M  V30 6504 H 616.228 2.45013 2.72698 0
M  V30 6505 H 615.876 1.2248 4.8786 0
M  V30 6506 H 615.576 2.97037 5.06994 0
M  V30 6507 H 617.1 2.25901 5.67275 0
M  V30 6508 H 618.514 3.94947 4.1556 0
M  V30 6509 H 616.911 4.65175 3.7912 0
M  V30 6510 H 617.981 4.17927 2.45896 0
M  V30 6511 N 619.324 -0.923095 1.27737 0
M  V30 6512 C 620.735 -1.48626 1.12993 0
M  V30 6513 C 621.086 -1.94142 -0.283439 0
M  V30 6514 O 620.211 -1.81605 -1.17681 0
M  V30 6515 C 620.806 -2.70117 2.04505 0
M  V30 6516 C 619.365 -3.22642 1.93853 0
M  V30 6517 C 618.512 -1.95368 1.96791 0
M  V30 6518 H 621.463 -0.736737 1.40563 0
M  V30 6519 H 621.484 -3.4506 1.60356 0
M  V30 6520 H 620.996 -2.36959 3.07363 0
M  V30 6521 H 619.097 -3.60549 0.939968 0
M  V30 6522 H 619.21 -3.88525 2.80331 0
M  V30 6523 H 617.574 -2.12061 1.41076 0
M  V30 6524 H 618.357 -1.64517 3.01312 0
M  V30 6525 N 620.802 -1.09834 -1.13024 0
M  V30 6526 C 621.765 -0.745058 -2.16752 0
M  V30 6527 C 622.765 0.227435 -1.59183 0
M  V30 6528 O 623.955 0.0050786 -1.74199 0
M  V30 6529 C 621.087 -0.102543 -3.40746 0
M  V30 6530 H 622.28 -1.66375 -2.49518 0
M  V30 6531 H 619.833 -0.898061 -1.27924 0
M  V30 6532 H 620.568 0.827177 -3.13573 0
M  V30 6533 H 620.353 -0.80235 -3.83803 0
M  V30 6534 H 621.843 0.129082 -4.174 0
M  V30 6535 N 622.28 1.30327 -0.886154 0
M  V30 6536 C 623.19 2.31854 -0.357866 0
M  V30 6537 C 624.206 1.65392 0.540502 0
M  V30 6538 O 625.382 1.96683 0.433339 0
M  V30 6539 C 622.447 3.44171 0.417999 0
M  V30 6540 C 621.508 4.26257 -0.510263 0
M  V30 6541 C 620.741 5.3321 0.228669 0
M  V30 6542 O 620.964 5.51542 1.45458 0
M  V30 6543 O 619.898 6.0042 -0.421832 0
M  V30 6544 H 623.724 2.78995 -1.19982 0
M  V30 6545 H 621.309 1.34518 -0.650028 0
M  V30 6546 H 623.191 4.12588 0.857251 0
M  V30 6547 H 621.866 2.99164 1.23623 0
M  V30 6548 H 620.773 3.60533 -0.99835 0
M  V30 6549 H 622.106 4.74871 -1.29454 0
M  V30 6550 N 623.758 0.647228 1.43697 0
M  V30 6551 C 624.988 0.16551 2.05936 0
M  V30 6552 C 625.396 -1.17164 1.48557 0
M  V30 6553 O 624.739 -1.73307 0.60914 0
M  V30 6554 C 624.801 -0.00648082 3.59499 0
M  V30 6555 C 624.465 1.25503 4.39429 0
M  V30 6556 C 625.462 2.18241 4.71876 0
M  V30 6557 C 623.147 1.49494 4.79538 0
M  V30 6558 C 625.141 3.33268 5.43333 0
M  V30 6559 C 622.828 2.64815 5.50742 0
M  V30 6560 C 623.826 3.56528 5.82561 0
M  V30 6561 O 623.514 4.69836 6.52311 0
M  V30 6562 H 623.246 0.0844124 0.670709 0
M  V30 6563 H 625.8 0.88638 1.8529 0
M  V30 6564 H 624.03 -0.782661 3.78697 0
M  V30 6565 H 625.719 -0.444794 4.03456 0
M  V30 6566 H 626.485 2.00946 4.41413 0
M  V30 6567 H 622.364 0.789912 4.54182 0
M  V30 6568 H 625.908 4.04874 5.68087 0
M  V30 6569 H 621.805 2.82047 5.8062 0
M  V30 6570 H 622.573 4.69024 6.70789 0
M  V30 6571 N 625.236 -1.5273 0.388769 0
M  V30 6572 C 626.166 -2.29353 -0.438111 0
M  V30 6573 C 627.147 -1.32719 -1.06394 0
M  V30 6574 O 628.332 -1.61612 -1.07681 0
M  V30 6575 C 625.462 -3.09995 -1.56589 0
M  V30 6576 C 624.416 -4.14509 -1.06613 0
M  V30 6577 C 623.742 -4.83372 -2.28594 0
M  V30 6578 C 625.042 -5.22127 -0.134459 0
M  V30 6579 H 626.736 -2.98723 0.201206 0
M  V30 6580 H 624.282 -1.43665 0.0982089 0
M  V30 6581 H 626.235 -3.62357 -2.15118 0
M  V30 6582 H 624.959 -2.38357 -2.23279 0
M  V30 6583 H 623.618 -3.63128 -0.503383 0
M  V30 6584 H 623.266 -4.08283 -2.93792 0
M  V30 6585 H 622.966 -5.54012 -1.95817 0
M  V30 6586 H 624.49 -5.38538 -2.87766 0
M  V30 6587 H 625.904 -5.69851 -0.627914 0
M  V30 6588 H 624.301 -6.00011 0.103534 0
M  V30 6589 H 625.371 -4.77971 0.816798 0
M  V30 6590 N 626.714 -0.118576 -1.57153 0
M  V30 6591 C 627.644 0.828436 -2.1831 0
M  V30 6592 C 628.625 1.27758 -1.12303 0
M  V30 6593 O 629.81 1.34026 -1.40537 0
M  V30 6594 C 626.94 2.07876 -2.78217 0
M  V30 6595 C 625.894 1.76742 -3.89803 0
M  V30 6596 C 625.22 3.08801 -4.36516 0
M  V30 6597 C 626.52 1.03606 -5.11921 0
M  V30 6598 H 628.214 0.318824 -2.97698 0
M  V30 6599 H 625.76 0.151911 -1.43196 0
M  V30 6600 H 627.713 2.74584 -3.19659 0
M  V30 6601 H 626.437 2.61161 -1.96118 0
M  V30 6602 H 625.096 1.12424 -3.48936 0
M  V30 6603 H 624.744 3.6002 -3.51276 0
M  V30 6604 H 624.444 2.88743 -5.11763 0
M  V30 6605 H 625.968 3.76627 -4.80608 0
M  V30 6606 H 627.382 1.60467 -5.50385 0
M  V30 6607 H 625.779 0.936454 -5.92748 0
M  V30 6608 H 626.849 0.0227421 -4.84895 0
M  V30 6609 N 628.193 1.56834 0.155195 0
M  V30 6610 C 629.418 1.87412 0.888337 0
M  V30 6611 C 629.843 0.70671 1.74319 0
M  V30 6612 O 629.201 -0.343892 1.78009 0
M  V30 6613 C 629.249 3.1652 1.72765 0
M  V30 6614 O 628.353 2.99877 2.83103 0
M  V30 6615 H 627.694 0.615983 0.247914 0
M  V30 6616 H 630.224 2.04061 0.148478 0
M  V30 6617 H 630.234 3.48334 2.12433 0
M  V30 6618 H 628.909 4.01094 1.09985 0
M  V30 6619 H 627.486 2.79453 2.46902 0
M  V30 6620 N 629.671 -0.424282 1.51781 0
M  V30 6621 C 630.634 -1.49848 1.73431 0
M  V30 6622 C 631.634 -1.49016 0.604225 0
M  V30 6623 O 632.824 -1.50808 0.871935 0
M  V30 6624 C 629.956 -2.89332 1.80277 0
M  V30 6625 H 631.149 -1.3195 2.69312 0
M  V30 6626 H 628.702 -0.653809 1.41968 0
M  V30 6627 H 629.437 -3.12618 0.862568 0
M  V30 6628 H 629.222 -2.9134 2.62419 0
M  V30 6629 H 630.712 -3.67233 1.98821 0
M  V30 6630 N 631.149 -1.42148 -0.680565 0
M  V30 6631 C 632.397 -1.42029 -1.43779 0
M  V30 6632 C 632.718 -0.0356347 -1.94967 0
M  V30 6633 O 631.988 0.924936 -1.7269 0
M  V30 6634 H 630.568 -0.522835 -0.533529 0
M  V30 6635 H 633.23 -1.7752 -0.804538 0
M  V30 6636 H 632.326 -2.11658 -2.29363 0
M  V30 6637 N 632.627 0.916307 -1.28225 0
M  V30 6638 C 633.855 1.69901 -1.18073 0
M  V30 6639 C 634.27 1.86988 0.260968 0
M  V30 6640 O 633.627 1.39505 1.17663 0
M  V30 6641 C 633.678 3.09254 -1.87201 0
M  V30 6642 O 633.399 2.92959 -3.2574 0
M  V30 6643 C 634.9 4.0362 -1.83319 0
M  V30 6644 H 632.12 0.531181 -0.409985 0
M  V30 6645 H 634.664 1.14703 -1.69303 0
M  V30 6646 H 632.819 3.61277 -1.39848 0
M  V30 6647 H 633.233 3.81139 -3.60324 0
M  V30 6648 H 634.707 4.98873 -2.36282 0
M  V30 6649 H 635.184 4.3176 -0.805007 0
M  V30 6650 H 635.79 3.57524 -2.3034 0
M  V30 6651 N 634.105 1.10431 1.1244 0
M  V30 6652 C 635.052 0.753103 2.18167 0
M  V30 6653 C 636.022 -0.270549 1.63882 0
M  V30 6654 O 637.207 -0.149837 1.90211 0
M  V30 6655 C 634.347 0.191046 3.44571 0
M  V30 6656 C 633.46 1.26999 4.12911 0
M  V30 6657 C 632.595 0.669586 5.26963 0
M  V30 6658 C 631.634 1.72912 5.87169 0
M  V30 6659 N 630.771 1.14898 6.92635 0
M  V30 6660 H 635.611 1.65892 2.47556 0
M  V30 6661 H 633.148 0.828631 1.21541 0
M  V30 6662 H 635.106 -0.152712 4.1692 0
M  V30 6663 H 633.736 -0.677997 3.15599 0
M  V30 6664 H 632.788 1.73087 3.3874 0
M  V30 6665 H 634.1 2.07204 4.53727 0
M  V30 6666 H 633.254 0.275274 6.06075 0
M  V30 6667 H 631.993 -0.163895 4.87425 0
M  V30 6668 H 630.998 2.13286 5.06744 0
M  V30 6669 H 632.223 2.56544 6.28778 0
M  V30 6670 H 630.169 0.336956 6.55134 0
M  V30 6671 H 630.086 1.88786 7.32049 0
M  V30 6672 H 631.354 0.78121 7.75576 0
M  V30 6673 N 635.583 -1.29855 0.893053 0
M  V30 6674 C 636.811 -1.99976 0.530788 0
M  V30 6675 C 637.226 -1.66889 -0.882799 0
M  V30 6676 O 636.583 -0.910352 -1.58173 0
M  V30 6677 C 636.634 -3.54547 0.705587 0
M  V30 6678 O 636.355 -3.86458 2.06353 0
M  V30 6679 C 637.856 -4.41937 0.347387 0
M  V30 6680 H 635.076 -0.639129 0.204339 0
M  V30 6681 H 637.62 -1.65549 1.20057 0
M  V30 6682 H 635.775 -3.87311 0.0830685 0
M  V30 6683 H 636.189 -4.81146 2.08803 0
M  V30 6684 H 637.663 -5.4954 0.520557 0
M  V30 6685 H 638.14 -4.33339 -0.715139 0
M  V30 6686 H 638.746 -4.14633 0.946567 0
M  V30 6687 N 637.061 -0.65484 -1.43351 0
M  V30 6688 C 638.289 -0.176685 -2.06144 0
M  V30 6689 C 638.704 1.15831 -1.49093 0
M  V30 6690 O 638.061 1.71542 -0.622868 0
M  V30 6691 C 638.112 -0.0813326 -3.61408 0
M  V30 6692 O 637.833 -1.36355 -4.1634 0
M  V30 6693 C 639.334 0.422706 -4.4128 0
M  V30 6694 H 636.554 -0.0906429 -0.66485 0
M  V30 6695 H 639.098 -0.895945 -1.83829 0
M  V30 6696 H 637.253 0.588496 -3.82904 0
M  V30 6697 H 637.667 -1.22381 -5.10023 0
M  V30 6698 H 639.141 0.438375 -5.50257 0
M  V30 6699 H 639.618 1.45432 -4.14423 0
M  V30 6700 H 640.224 -0.214687 -4.24758 0
M  V30 6701 N 638.539 1.52521 -0.396863 0
M  V30 6702 C 639.955 1.5953 -0.0471659 0
M  V30 6703 C 640.155 1.41044 1.43906 0
M  V30 6704 O 639.211 1.23122 2.20448 0
M  V30 6705 C 640.524 2.95972 -0.531113 0
M  V30 6706 C 642.072 3.09172 -0.488024 0
M  V30 6707 C 642.547 4.48075 -0.948281 0
M  V30 6708 N 644.038 4.54281 -0.9046 0
M  V30 6709 C 644.773 5.60007 -1.23205 0
M  V30 6710 N 644.269 6.73343 -1.63036 0
M  V30 6711 N 646.062 5.50151 -1.15282 0
M  V30 6712 H 638.213 1.62786 -1.36435 0
M  V30 6713 H 640.476 0.76514 -0.559701 0
M  V30 6714 H 640.182 3.14741 -1.56942 0
M  V30 6715 H 640.056 3.77143 0.0657922 0
M  V30 6716 H 642.443 2.90095 0.541211 0
M  V30 6717 H 642.524 2.29937 -1.12083 0
M  V30 6718 H 642.168 4.67894 -1.97578 0
M  V30 6719 H 642.098 5.25788 -0.292412 0
M  V30 6720 H 644.589 3.72918 -0.6116 0
M  V30 6721 H 644.902 7.49992 -1.86365 0
M  V30 6722 H 643.247 6.74655 -1.66929 0
M  V30 6723 H 646.438 4.6049 -0.840602 0
M  V30 6724 H 646.611 6.32444 -1.41133 0
M  V30 6725 N 640.017 0.126909 1.57088 0
M  V30 6726 C 641.264 -0.529168 1.95464 0
M  V30 6727 C 641.592 -1.6618 1.01067 0
M  V30 6728 O 640.847 -1.95667 0.0360254 0
M  V30 6729 C 641.146 -1.095 3.40212 0
M  V30 6730 C 640.812 -0.0829015 4.50824 0
M  V30 6731 C 639.474 0.195377 4.80803 0
M  V30 6732 C 641.826 0.606411 5.1766 0
M  V30 6733 C 639.154 1.16912 5.74933 0
M  V30 6734 C 641.506 1.56884 6.12838 0
M  V30 6735 C 640.17 1.85502 6.41206 0
M  V30 6736 H 639.44 -0.193636 0.715252 0
M  V30 6737 H 642.087 0.209489 1.90351 0
M  V30 6738 H 640.392 -1.91058 3.42059 0
M  V30 6739 H 642.089 -1.61087 3.67222 0
M  V30 6740 H 638.679 -0.309979 4.27478 0
M  V30 6741 H 642.863 0.404597 4.94648 0
M  V30 6742 H 638.119 1.3975 5.95214 0
M  V30 6743 H 642.293 2.10859 6.6371 0
M  V30 6744 H 639.92 2.61109 7.13951 0
M  V30 6745 N 641.495 -1.56914 -0.146875 0
M  V30 6746 C 642.742 -1.83356 -0.859467 0
M  V30 6747 C 643.07 -0.707811 -1.81164 0
M  V30 6748 O 642.325 0.303155 -1.93338 0
M  V30 6749 C 642.624 -3.16128 -1.66727 0
M  V30 6750 C 642.29 -4.42586 -0.861881 0
M  V30 6751 C 640.952 -4.76929 -0.639687 0
M  V30 6752 C 643.304 -5.20344 -0.298643 0
M  V30 6753 C 640.632 -5.86491 0.156451 0
M  V30 6754 C 642.984 -6.30742 0.484536 0
M  V30 6755 C 641.648 -6.63635 0.717306 0
M  V30 6756 H 640.918 -0.670947 -0.314501 0
M  V30 6757 H 643.565 -1.91104 -0.123108 0
M  V30 6758 H 641.87 -3.03831 -2.47374 0
M  V30 6759 H 643.567 -3.33802 -2.2221 0
M  V30 6760 H 640.157 -4.15662 -1.04513 0
M  V30 6761 H 644.341 -4.94186 -0.457585 0
M  V30 6762 H 639.597 -6.10419 0.346292 0
M  V30 6763 H 643.771 -6.90188 0.928105 0
M  V30 6764 H 641.398 -7.48367 1.33607 0
M  V30 6765 N 642.974 0.416227 -1.52004 0
M  V30 6766 C 643.922 1.5272 -1.7544 0
M  V30 6767 C 644.916 1.57596 -0.621289 0
M  V30 6768 O 646.122 1.61087 -0.803172 0
M  V30 6769 H 642.497 0.507772 -0.554682 0
M  V30 6770 H 644.468 1.30136 -2.68528 0
M  V30 6771 C 643.217 2.90165 -1.91571 0
M  V30 6772 H 642.54 2.87154 -2.78178 0
M  V30 6773 H 643.98 3.67211 -2.11972 0
M  V30 6774 C 642.439 3.29947 -0.680942 0
M  V30 6775 O 642.969 4.01403 0.154527 0
M  V30 6776 N 641.175 2.8593 -0.518894 0
M  V30 6777 H 640.722 2.2795 -1.19986 0
M  V30 6778 H 640.68 3.12907 0.305985 0
M  V30 6779 N 644.452 1.42507 0.673017 0
M  V30 6780 C 645.868 1.25472 0.986355 0
M  V30 6781 C 646.068 0.160181 2.00862 0
M  V30 6782 O 645.124 -0.467993 2.48125 0
M  V30 6783 C 646.437 2.61219 1.48947 0
M  V30 6784 C 647.985 2.68589 1.60715 0
M  V30 6785 C 648.46 4.04707 2.14422 0
M  V30 6786 N 649.951 4.0667 2.21752 0
M  V30 6787 C 650.686 5.0881 2.64386 0
M  V30 6788 N 650.182 6.21332 3.0646 0
M  V30 6789 N 651.975 4.96166 2.64151 0
M  V30 6790 H 644.126 2.124 -0.00378532 0
M  V30 6791 H 646.389 0.946046 0.0608367 0
M  V30 6792 H 646.095 3.42179 0.812812 0
M  V30 6793 H 645.969 2.85261 2.46791 0
M  V30 6794 H 648.356 1.87974 2.27486 0
M  V30 6795 H 648.437 2.48333 0.613552 0
M  V30 6796 H 648.081 4.8578 1.48258 0
M  V30 6797 H 648.011 4.22315 3.14575 0
M  V30 6798 H 650.502 3.25438 1.92089 0
M  V30 6799 H 650.815 6.95118 3.37684 0
M  V30 6800 H 649.16 6.24835 3.04313 0
M  V30 6801 H 652.351 4.07334 2.30644 0
M  V30 6802 H 652.524 5.759 2.97057 0
M  V30 6803 N 645.93 -0.909495 1.28709 0
M  V30 6804 C 647.207 -1.63865 1.06806 0
M  V30 6805 C 647.587 -2.07445 -0.391143 0
M  V30 6806 O 646.935 -1.82269 -1.37805 0
M  V30 6807 C 647.145 -2.82692 2.04661 0
M  V30 6808 C 648.493 -3.5361 2.35042 0
M  V30 6809 O 649.517 -2.92847 2.02779 0
M  V30 6810 O 648.376 -4.63131 2.90124 0
M  V30 6811 H 645.47 -0.719065 0.408502 0
M  V30 6812 H 648.016 -0.958424 1.40044 0
M  V30 6813 H 646.788 -2.47614 3.0299 0
M  V30 6814 H 646.411 -3.58426 1.72095 0
M  V30 6815 N 647.408 -1.11026 -1.11852 0
M  V30 6816 C 648.636 -0.878818 -1.87308 0
M  V30 6817 C 649.051 0.57111 -1.79955 0
M  V30 6818 O 648.408 1.39409 -1.17777 0
M  V30 6819 C 648.459 -1.3264 -3.36287 0
M  V30 6820 O 648.18 -2.71948 -3.43476 0
M  V30 6821 C 649.681 -1.12974 -4.28663 0
M  V30 6822 H 646.901 -0.315015 -0.592458 0
M  V30 6823 H 649.445 -1.47649 -1.41492 0
M  V30 6824 H 647.6 -0.772269 -3.79625 0
M  V30 6825 H 648.014 -2.91241 -4.3621 0
M  V30 6826 H 649.488 -1.49198 -5.31454 0
M  V30 6827 H 649.965 -0.0689127 -4.39146 0
M  V30 6828 H 650.571 -1.67064 -3.91113 0
M  V30 6829 N 648.886 1.2938 -0.899927 0
M  V30 6830 C 650.163 1.9046 -0.445443 0
M  V30 6831 C 650.543 1.81683 1.07492 0
M  V30 6832 O 649.891 1.24371 1.91688 0
M  V30 6833 C 650.101 3.35529 -0.960279 0
M  V30 6834 C 651.449 4.12556 -1.00412 0
M  V30 6835 O 652.473 3.44434 -0.907965 0
M  V30 6836 O 651.332 5.34294 -1.14857 0
M  V30 6837 H 648.426 0.815253 -0.138893 0
M  V30 6838 H 650.972 1.37844 -0.989808 0
M  V30 6839 H 649.744 3.36074 -2.00425 0
M  V30 6840 H 649.367 3.95624 -0.395939 0
M  V30 6841 N 650.364 0.662433 1.43002 0
M  V30 6842 C 651.589 0.186003 2.06564 0
M  V30 6843 C 652.014 -1.14314 1.49379 0
M  V30 6844 O 651.372 -1.70824 0.607346 0
M  V30 6845 C 651.42 0.118269 3.60406 0
M  V30 6846 O 650.524 -0.916859 4.02079 0
M  V30 6847 H 649.865 0.0990981 0.656563 0
M  V30 6848 H 652.395 0.907958 1.8335 0
M  V30 6849 H 652.405 -0.0619981 4.07953 0
M  V30 6850 H 651.08 1.08849 4.01403 0
M  V30 6851 H 649.657 -0.708635 3.66105 0
M  V30 6852 N 651.842 -1.52309 0.404946 0
M  V30 6853 C 653.253 -1.86585 -0.0655926 0
M  V30 6854 C 653.604 -1.3239 -1.44801 0
M  V30 6855 O 652.729 -0.6615 -2.06042 0
M  V30 6856 C 653.324 -3.38566 -0.125801 0
M  V30 6857 C 651.883 -3.72497 -0.540666 0
M  V30 6858 C 651.03 -2.75806 0.287487 0
M  V30 6859 H 653.981 -1.45995 0.622185 0
M  V30 6860 H 654.002 -3.68658 -0.941888 0
M  V30 6861 H 653.514 -3.77981 0.880473 0
M  V30 6862 H 651.615 -3.38659 -1.55373 0
M  V30 6863 H 651.728 -4.78234 -0.287956 0
M  V30 6864 H 650.092 -2.53474 -0.249561 0
M  V30 6865 H 650.875 -3.18059 1.29203 0
M  V30 6866 N 653.32 -0.135238 -1.57019 0
M  V30 6867 C 654.55 0.525303 -1.9981 0
M  V30 6868 C 654.958 1.59724 -1.01415 0
M  V30 6869 O 654.301 1.837 -0.00130938 0
M  V30 6870 C 654.363 1.19578 -3.3903 0
M  V30 6871 C 654.027 0.269855 -4.56203 0
M  V30 6872 C 655.024 -0.497905 -5.1751 0
M  V30 6873 C 652.709 0.176188 -5.01991 0
M  V30 6874 C 654.703 -1.3469 -6.23007 0
M  V30 6875 C 652.39 -0.676422 -6.07345 0
M  V30 6876 C 653.388 -1.43658 -6.67721 0
M  V30 6877 O 653.076 -2.27501 -7.71037 0
M  V30 6878 H 652.808 0.142296 -0.660854 0
M  V30 6879 H 655.362 -0.223272 -2.04183 0
M  V30 6880 H 653.592 1.99176 -3.3146 0
M  V30 6881 H 655.281 1.75486 -3.66005 0
M  V30 6882 H 656.047 -0.435507 -4.83041 0
M  V30 6883 H 651.926 0.757583 -4.54733 0
M  V30 6884 H 655.47 -1.9407 -6.70062 0
M  V30 6885 H 651.367 -0.740154 -6.41243 0
M  V30 6886 H 652.135 -2.20619 -7.88206 0
M  V30 6887 N 654.798 1.5699 0.138552 0
M  V30 6888 C 656.209 1.73171 0.697754 0
M  V30 6889 C 656.56 0.750952 1.8126 0
M  V30 6890 O 655.685 -0.080549 2.1625 0
M  V30 6891 C 656.28 3.13996 1.27248 0
M  V30 6892 C 654.839 3.3175 1.77816 0
M  V30 6893 C 653.986 2.69084 0.669991 0
M  V30 6894 H 656.937 1.5846 -0.0871979 0
M  V30 6895 H 656.958 3.14463 2.14227 0
M  V30 6896 H 656.47 3.85354 0.460855 0
M  V30 6897 H 654.571 2.65403 2.61519 0
M  V30 6898 H 654.684 4.39768 1.90107 0
M  V30 6899 H 653.048 2.29782 1.09874 0
M  V30 6900 H 653.831 3.43053 -0.130329 0
M  V30 6901 N 656.276 -0.40816 1.52223 0
M  V30 6902 C 657.206 -1.5042 1.78595 0
M  V30 6903 C 658.187 -1.57723 0.636974 0
M  V30 6904 O 659.372 -1.72982 0.882664 0
M  V30 6905 C 656.502 -2.88232 1.93751 0
M  V30 6906 C 655.456 -2.95779 3.09352 0
M  V30 6907 C 654.782 -4.35855 3.09732 0
M  V30 6908 C 656.082 -2.67175 4.48793 0
M  V30 6909 H 657.776 -1.28601 2.70374 0
M  V30 6910 H 655.322 -0.617221 1.30101 0
M  V30 6911 H 657.275 -3.64895 2.10783 0
M  V30 6912 H 655.999 -3.11347 0.986443 0
M  V30 6913 H 654.658 -2.21561 2.92072 0
M  V30 6914 H 654.306 -4.55981 2.12346 0
M  V30 6915 H 654.006 -4.41829 3.87377 0
M  V30 6916 H 655.53 -5.14451 3.28895 0
M  V30 6917 H 656.944 -3.3356 4.66273 0
M  V30 6918 H 655.341 -2.84523 5.28362 0
M  V30 6919 H 656.411 -1.62609 4.56822 0
M  V30 6920 N 657.755 -1.42862 -0.66545 0
M  V30 6921 C 659.001 -1.4504 -1.426 0
M  V30 6922 C 659.356 -0.0690217 -1.92276 0
M  V30 6923 O 658.649 0.91036 -1.68591 0
M  V30 6924 C 658.843 -2.4175 -2.63233 0
M  V30 6925 C 658.672 -3.89155 -2.25362 0
M  V30 6926 C 657.442 -4.57619 -2.14273 0
M  V30 6927 C 659.64 -4.79326 -1.86417 0
M  V30 6928 N 657.622 -5.90006 -1.69604 0
M  V30 6929 C 658.993 -6.00892 -1.52738 0
M  V30 6930 C 661.048 -4.66696 -1.73492 0
M  V30 6931 C 659.751 -7.11232 -1.0743 0
M  V30 6932 C 661.777 -5.77027 -1.29589 0
M  V30 6933 C 661.139 -6.97712 -0.968393 0
M  V30 6934 H 657.238 -0.585889 -0.517936 0
M  V30 6935 H 659.822 -1.78956 -0.767002 0
M  V30 6936 H 657.993 -2.09881 -3.26809 0
M  V30 6937 H 659.725 -2.34447 -3.29874 0
M  V30 6938 H 656.48 -4.11957 -2.33641 0
M  V30 6939 H 656.904 -6.60249 -1.49666 0
M  V30 6940 H 661.546 -3.7386 -1.97455 0
M  V30 6941 H 659.264 -8.03907 -0.822147 0
M  V30 6942 H 662.85 -5.6927 -1.20095 0
M  V30 6943 H 661.73 -7.81634 -0.63384 0
M  V30 6944 N 659.233 0.902656 -1.29189 0
M  V30 6945 C 660.649 1.18296 -1.07137 0
M  V30 6946 C 660.849 2.00701 0.179223 0
M  V30 6947 O 659.905 2.3675 0.877812 0
M  V30 6948 C 661.218 1.90677 -2.32514 0
M  V30 6949 C 662.766 2.03515 -2.37804 0
M  V30 6950 C 663.241 2.79307 -3.62976 0
M  V30 6951 N 664.732 2.86862 -3.63681 0
M  V30 6952 C 665.467 3.46035 -4.57217 0
M  V30 6953 N 664.963 4.06399 -5.61081 0
M  V30 6954 N 666.756 3.43681 -4.44792 0
M  V30 6955 H 658.907 0.352765 -2.0945 0
M  V30 6956 H 661.17 0.21876 -0.922414 0
M  V30 6957 H 660.876 1.3756 -3.23682 0
M  V30 6958 H 660.75 2.91169 -2.39793 0
M  V30 6959 H 663.137 2.55809 -1.47125 0
M  V30 6960 H 663.218 1.02166 -2.34512 0
M  V30 6961 H 662.862 2.2769 -4.54004 0
M  V30 6962 H 662.792 3.80995 -3.63525 0
M  V30 6963 H 665.283 2.43987 -2.88581 0
M  V30 6964 H 665.596 4.49564 -6.2858 0
M  V30 6965 H 663.941 4.0487 -5.64894 0
M  V30 6966 H 667.132 2.9574 -3.62843 0
M  V30 6967 H 667.305 3.89503 -5.17872 0
M  V30 6968 N 660.711 1.11618 1.11262 0
M  V30 6969 C 661.641 0.79846 2.19424 0
M  V30 6970 C 662.622 -0.234003 1.68483 0
M  V30 6971 O 663.807 -0.0970704 1.93957 0
M  V30 6972 C 660.937 0.242892 3.4645 0
M  V30 6973 C 659.891 1.20744 4.10615 0
M  V30 6974 C 659.217 0.512494 5.32238 0
M  V30 6975 C 660.517 2.55884 4.55325 0
M  V30 6976 H 662.211 1.70286 2.46258 0
M  V30 6977 H 659.757 0.820195 1.18359 0
M  V30 6978 H 661.71 0.00840447 4.21399 0
M  V30 6979 H 660.434 -0.696811 3.1908 0
M  V30 6980 H 659.093 1.42759 3.37662 0
M  V30 6981 H 658.741 -0.432075 5.01141 0
M  V30 6982 H 658.441 1.15583 5.7612 0
M  V30 6983 H 659.965 0.286842 6.09926 0
M  V30 6984 H 661.379 2.37946 5.21588 0
M  V30 6985 H 659.776 3.16216 5.10027 0
M  V30 6986 H 660.846 3.14968 3.68678 0
M  V30 6987 N 662.189 -1.289 0.906776 0
M  V30 6988 C 663.136 -2.2751 0.388313 0
M  V30 6989 C 664.106 -1.57301 -0.533439 0
M  V30 6990 O 665.291 -1.85243 -0.457148 0
M  V30 6991 C 662.431 -3.43091 -0.37181 0
M  V30 6992 C 661.544 -4.28066 0.581647 0
M  V30 6993 C 660.679 -5.30837 -0.19623 0
M  V30 6994 C 659.718 -6.07472 0.751294 0
M  V30 6995 N 658.855 -7.021 0.00737727 0
M  V30 6996 H 663.695 -2.71237 1.23428 0
M  V30 6997 H 661.232 -1.33397 0.619962 0
M  V30 6998 H 663.19 -4.08888 -0.828641 0
M  V30 6999 H 661.82 -3.00374 -1.18218 0
M  V30 7000 H 660.872 -3.62378 1.157 0
M  V30 7001 H 662.184 -4.81382 1.30665 0
M  V30 7002 H 661.338 -6.02485 -0.71394 0
M  V30 7003 H 660.077 -4.78272 -0.954324 0
M  V30 7004 H 659.082 -5.34682 1.28044 0
M  V30 7005 H 660.307 -6.62126 1.50883 0
M  V30 7006 H 658.253 -6.51894 -0.732854 0
M  V30 7007 H 658.17 -7.53004 0.672334 0
M  V30 7008 H 659.438 -7.77956 -0.490365 0
M  V30 7009 N 663.667 -0.670007 -1.42649 0
M  V30 7010 C 664.895 -0.19854 -2.05945 0
M  V30 7011 C 665.31 1.14243 -1.50313 0
M  V30 7012 O 664.667 1.70872 -0.641027 0
M  V30 7013 C 664.718 -0.11966 -3.61302 0
M  V30 7014 O 664.439 -1.40764 -4.1487 0
M  V30 7015 C 665.94 0.375878 -4.41704 0
M  V30 7016 H 663.16 -0.0976894 -0.663851 0
M  V30 7017 H 665.704 -0.915392 -1.82868 0
M  V30 7018 H 663.859 0.547851 -3.83507 0
M  V30 7019 H 664.273 -1.27784 -5.08696 0
M  V30 7020 H 665.747 0.379988 -5.50691 0
M  V30 7021 H 666.224 1.41028 -4.15942 0
M  V30 7022 H 666.83 -0.259727 -4.24506 0
M  V30 7023 N 665.145 1.52092 -0.413018 0
M  V30 7024 C 666.556 1.86617 0.0556967 0
M  V30 7025 C 666.907 1.33156 1.44097 0
M  V30 7026 O 666.032 0.672417 2.05688 0
M  V30 7027 C 666.627 3.38628 0.107844 0
M  V30 7028 C 665.186 3.72778 0.520904 0
M  V30 7029 C 664.333 2.75649 -0.302109 0
M  V30 7030 H 667.284 1.45663 -0.629919 0
M  V30 7031 H 667.305 3.69152 0.922324 0
M  V30 7032 H 666.817 3.77508 -0.900506 0
M  V30 7033 H 664.918 3.39478 1.53575 0
M  V30 7034 H 665.031 4.7838 0.262591 0
M  V30 7035 H 663.395 2.53603 0.236115 0
M  V30 7036 H 664.178 3.17369 -1.30888 0
M  V30 7037 N 666.623 0.143563 1.56945 0
M  V30 7038 C 667.9 -0.553285 1.87612 0
M  V30 7039 C 668.28 -1.83195 1.04894 0
M  V30 7040 O 667.628 -2.28102 0.134773 0
M  V30 7041 C 667.838 -0.822055 3.3918 0
M  V30 7042 C 669.186 -1.16435 4.08324 0
M  V30 7043 O 670.21 -0.911522 3.4434 0
M  V30 7044 O 669.069 -1.63996 5.21313 0
M  V30 7045 H 666.163 -0.281851 0.777489 0
M  V30 7046 H 668.709 0.179916 1.68744 0
M  V30 7047 H 667.481 0.0830265 3.91212 0
M  V30 7048 H 667.104 -1.60956 3.63564 0
M  V30 7049 N 668.101 -1.57061 -0.130224 0
M  V30 7050 C 669.378 -1.75205 -0.869631 0
M  V30 7051 C 669.758 -0.716063 -1.98584 0
M  V30 7052 O 669.106 0.262032 -2.26993 0
M  V30 7053 C 669.316 -3.19835 -1.39666 0
M  V30 7054 C 670.664 -3.82011 -1.85345 0
M  V30 7055 O 671.688 -3.23368 -1.49371 0
M  V30 7056 O 670.547 -4.85064 -2.51744 0
M  V30 7057 H 667.641 -0.716977 -0.412157 0
M  V30 7058 H 670.187 -1.69311 -0.11484 0
M  V30 7059 H 668.959 -3.86745 -0.595288 0
M  V30 7060 H 668.582 -3.30222 -2.21448 0
M  V30 7061 N 669.579 0.400081 -1.52437 0
M  V30 7062 C 670.529 1.48734 -1.72807 0
M  V30 7063 C 671.513 1.50004 -0.582032 0
M  V30 7064 O 672.705 1.55828 -0.839449 0
M  V30 7065 C 669.834 2.86568 -1.89034 0
M  V30 7066 C 668.92 2.8991 -3.09537 0
M  V30 7067 N 669.311 2.62937 -4.32086 0
M  V30 7068 C 667.609 3.21078 -3.09556 0
M  V30 7069 C 668.31 2.73079 -5.13617 0
M  V30 7070 N 667.286 3.06342 -4.49061 0
M  V30 7071 H 671.088 1.26689 -2.65193 0
M  V30 7072 H 668.602 0.607902 -1.50593 0
M  V30 7073 H 670.599 3.64834 -2.01746 0
M  V30 7074 H 669.259 3.09604 -0.978547 0
M  V30 7075 H 670.27 2.37163 -4.60406 0
M  V30 7076 H 666.947 3.49651 -2.28146 0
M  V30 7077 H 668.337 2.55863 -6.21276 0
M  V30 7078 N 671.057 1.43213 0.657864 0
M  V30 7079 C 671.967 1.50448 1.80007 0
M  V30 7080 C 672.983 0.39191 1.69529 0
M  V30 7081 O 674.159 0.645349 1.90781 0
M  V30 7082 C 671.224 1.42062 3.16258 0
M  V30 7083 C 670.285 2.63951 3.38568 0
M  V30 7084 C 669.518 2.55956 4.68318 0
M  V30 7085 O 669.741 1.60473 5.47361 0
M  V30 7086 O 668.675 3.46378 4.92245 0
M  V30 7087 H 672.501 2.4689 1.76858 0
M  V30 7088 H 670.086 1.25163 0.81576 0
M  V30 7089 H 671.968 1.3981 3.97531 0
M  V30 7090 H 670.643 0.487524 3.20008 0
M  V30 7091 H 669.55 2.71776 2.57077 0
M  V30 7092 H 670.883 3.56217 3.39662 0
M  V30 7093 N 672.536 -0.895792 1.29666 0
M  V30 7094 C 673.499 -1.98189 1.15124 0
M  V30 7095 C 674.499 -1.60572 0.0855717 0
M  V30 7096 O 675.689 -1.70991 0.332826 0
M  V30 7097 C 672.821 -3.32289 0.761372 0
M  V30 7098 H 674.014 -2.12518 2.11603 0
M  V30 7099 H 671.567 -1.0808 1.12908 0
M  V30 7100 H 672.302 -3.23662 -0.203393 0
M  V30 7101 H 672.087 -3.60958 1.53139 0
M  V30 7102 H 673.577 -4.1198 0.682792 0
M  V30 7103 N 674.014 -1.12206 -1.10668 0
M  V30 7104 C 674.924 -0.800686 -2.20513 0
M  V30 7105 C 675.94 0.209512 -1.72734 0
M  V30 7106 O 677.116 0.043705 -2.01353 0
M  V30 7107 C 674.181 -0.257353 -3.45744 0
M  V30 7108 C 673.242 -1.32718 -4.0827 0
M  V30 7109 C 672.475 -0.809674 -5.27522 0
M  V30 7110 O 672.698 0.35742 -5.69279 0
M  V30 7111 O 671.632 -1.57816 -5.80842 0
M  V30 7112 H 675.458 -1.71807 -2.50432 0
M  V30 7113 H 673.043 -0.898546 -1.19359 0
M  V30 7114 H 674.925 0.0408849 -4.2138 0
M  V30 7115 H 673.6 0.632627 -3.17458 0
M  V30 7116 H 672.507 -1.67855 -3.34329 0
M  V30 7117 H 673.84 -2.19083 -4.40753 0
M  V30 7118 N 675.492 1.28418 -0.913599 0
M  V30 7119 C 676.72 1.99106 -0.562536 0
M  V30 7120 C 677.135 1.68273 0.856137 0
M  V30 7121 O 676.492 0.935401 1.56705 0
M  V30 7122 C 676.543 3.5338 -0.761903 0
M  V30 7123 O 676.264 3.83127 -2.12475 0
M  V30 7124 C 677.765 4.41328 -0.417651 0
M  V30 7125 H 674.985 0.635798 -0.214481 0
M  V30 7126 H 677.529 1.63618 -1.22676 0
M  V30 7127 H 675.684 3.8713 -0.144676 0
M  V30 7128 H 676.098 4.77763 -2.16431 0
M  V30 7129 H 677.572 5.48642 -0.607919 0
M  V30 7130 H 678.049 4.34422 0.646108 0
M  V30 7131 H 678.655 4.13074 -1.01241 0
M  V30 7132 N 676.97 0.677563 1.42291 0
M  V30 7133 C 678.218 0.200578 2.01102 0
M  V30 7134 C 678.539 -1.19803 1.53858 0
M  V30 7135 O 677.809 -1.80496 0.761439 0
M  V30 7136 H 676.389 0.0711634 0.743603 0
M  V30 7137 H 679.051 0.874691 1.7417 0
M  V30 7138 H 678.147 0.204 3.11433 0
M  V30 7139 N 678.448 -1.51871 0.421078 0
M  V30 7140 C 679.697 -2.01125 -0.152206 0
M  V30 7141 C 680.01 -1.3106 -1.45199 0
M  V30 7142 O 681.216 -1.71195 -2.10724 0
M  V30 7143 C 679.672 -3.58458 -0.3218 0
M  V30 7144 C 679.28 -4.37448 0.96659 0
M  V30 7145 C 681.024 -4.15908 -0.84973 0
M  V30 7146 C 678.931 -5.86451 0.763529 0
M  V30 7147 H 677.861 -0.751556 -0.0606565 0
M  V30 7148 H 680.512 -1.75115 0.548354 0
M  V30 7149 H 678.894 -3.80847 -1.08498 0
M  V30 7150 H 680.068 -4.26814 1.73684 0
M  V30 7151 H 678.383 -3.91373 1.42183 0
M  V30 7152 H 680.98 -5.24922 -1.01788 0
M  V30 7153 H 681.323 -3.74031 -1.82774 0
M  V30 7154 H 681.856 -3.97535 -0.145297 0
M  V30 7155 H 678.595 -6.3271 1.71344 0
M  V30 7156 H 678.115 -5.99791 0.0327889 0
M  V30 7157 H 679.794 -6.45697 0.410354 0
M  V30 7158 N 679.926 -0.151884 -1.56866 0
M  V30 7159 C 680.873 0.785936 -2.17006 0
M  V30 7160 C 681.843 1.2407 -1.10435 0
M  V30 7161 O 683.028 1.31235 -1.38499 0
M  V30 7162 C 680.168 2.01771 -2.79969 0
M  V30 7163 C 679.281 1.6083 -4.00946 0
M  V30 7164 C 678.416 2.79224 -4.51893 0
M  V30 7165 C 677.455 2.3468 -5.65324 0
M  V30 7166 N 676.592 3.461 -6.10867 0
M  V30 7167 H 681.432 0.266286 -2.96808 0
M  V30 7168 H 678.969 0.11972 -1.46612 0
M  V30 7169 H 680.927 2.73989 -3.14621 0
M  V30 7170 H 679.557 2.51139 -2.02803 0
M  V30 7171 H 678.609 0.783592 -3.72242 0
M  V30 7172 H 679.921 1.24119 -4.83111 0
M  V30 7173 H 679.075 3.59625 -4.88625 0
M  V30 7174 H 677.814 3.19183 -3.68746 0
M  V30 7175 H 676.819 1.52721 -5.28163 0
M  V30 7176 H 678.044 1.95801 -6.5026 0
M  V30 7177 H 675.99 3.85671 -5.30654 0
M  V30 7178 H 675.907 3.1342 -6.87971 0
M  V30 7179 H 677.175 4.26844 -6.52246 0
M  V30 7180 N 681.404 1.57128 0.121893 0
M  V30 7181 C 682.629 1.89254 0.848385 0
M  V30 7182 C 683.054 0.743527 1.72781 0
M  V30 7183 O 682.412 -0.306056 1.78698 0
M  V30 7184 C 682.46 3.20113 1.66012 0
M  V30 7185 O 681.564 3.05815 2.76679 0
M  V30 7186 H 680.905 0.621103 0.234793 0
M  V30 7187 H 683.435 2.0433 0.10516 0
M  V30 7188 H 683.445 3.52761 2.04996 0
M  V30 7189 H 682.12 4.03336 1.01452 0
M  V30 7190 H 680.697 2.84627 2.40918 0
M  V30 7191 N 682.882 -0.391992 1.52647 0
M  V30 7192 C 683.829 -1.47866 1.77213 0
M  V30 7193 C 684.799 -1.54286 0.615223 0
M  V30 7194 O 685.984 -1.7059 0.854622 0
M  V30 7195 C 683.124 -2.85129 1.94411 0
M  V30 7196 C 682.237 -2.87883 3.22098 0
M  V30 7197 C 681.372 -4.16553 3.29631 0
M  V30 7198 C 680.411 -4.13348 4.51453 0
M  V30 7199 N 679.548 -5.33619 4.56284 0
M  V30 7200 H 684.388 -1.26219 2.6995 0
M  V30 7201 H 681.925 -0.612367 1.33748 0
M  V30 7202 H 683.883 -3.64833 2.02367 0
M  V30 7203 H 682.513 -3.05232 1.05038 0
M  V30 7204 H 681.565 -2.00567 3.23229 0
M  V30 7205 H 682.877 -2.81382 4.11856 0
M  V30 7206 H 682.031 -5.0466 3.36753 0
M  V30 7207 H 680.77 -4.25773 2.37842 0
M  V30 7208 H 679.775 -3.23629 4.44459 0
M  V30 7209 H 681 -4.05754 5.44555 0
M  V30 7210 H 678.946 -5.43474 3.67385 0
M  V30 7211 H 678.863 -5.29182 5.3991 0
M  V30 7212 H 680.131 -6.23632 4.67657 0
M  V30 7213 N 684.36 -1.4356 -0.65026 0
M  V30 7214 C 685.27 -1.514 -1.79207 0
M  V30 7215 C 686.286 -0.400895 -1.69319 0
M  V30 7216 O 687.462 -0.655458 -1.90436 0
M  V30 7217 C 684.527 -1.43737 -3.155 0
M  V30 7218 C 683.588 -2.65743 -3.37163 0
M  V30 7219 C 682.821 -2.58436 -4.66954 0
M  V30 7220 O 683.044 -1.63374 -5.46503 0
M  V30 7221 O 681.978 -3.48984 -4.90402 0
M  V30 7222 H 685.804 -2.47825 -1.75547 0
M  V30 7223 H 683.389 -1.25594 -0.809111 0
M  V30 7224 H 685.271 -1.41916 -3.96784 0
M  V30 7225 H 683.946 -0.504488 -3.19745 0
M  V30 7226 H 682.853 -2.73136 -2.55632 0
M  V30 7227 H 684.186 -3.58014 -3.37768 0
M  V30 7228 N 685.838 0.888903 -1.30139 0
M  V30 7229 C 686.801 1.97576 -1.16174 0
M  V30 7230 C 687.801 1.60525 -0.094086 0
M  V30 7231 O 688.991 1.70812 -0.341889 0
M  V30 7232 C 686.123 3.3188 -0.778983 0
M  V30 7233 H 687.316 2.11393 -2.12728 0
M  V30 7234 H 684.869 1.0748 -1.1348 0
M  V30 7235 H 685.604 3.23765 0.186225 0
M  V30 7236 H 685.389 3.60141 -1.55051 0
M  V30 7237 H 686.879 4.11612 -0.704631 0
M  V30 7238 N 687.317 1.12792 1.10072 0
M  V30 7239 C 688.733 0.864745 1.34143 0
M  V30 7240 C 688.933 -0.503201 1.95116 0
M  V30 7241 O 687.989 -1.25111 2.19325 0
M  V30 7242 C 689.302 1.98413 2.25949 0
M  V30 7243 C 690.85 2.01545 2.39476 0
M  V30 7244 C 691.325 3.12727 3.34613 0
M  V30 7245 N 692.816 3.12194 3.42183 0
M  V30 7246 C 693.551 3.94862 4.15779 0
M  V30 7247 N 693.047 4.87528 4.92228 0
M  V30 7248 N 694.84 3.82985 4.11435 0
M  V30 7249 H 686.991 2.00926 0.68866 0
M  V30 7250 H 689.254 0.874564 0.365844 0
M  V30 7251 H 688.96 2.97005 1.88364 0
M  V30 7252 H 688.834 1.89254 3.26287 0
M  V30 7253 H 691.221 1.0357 2.76328 0
M  V30 7254 H 691.302 2.14777 1.3894 0
M  V30 7255 H 690.946 4.10936 2.98486 0
M  V30 7256 H 690.876 2.96732 4.35037 0
M  V30 7257 H 693.367 2.45065 2.87666 0
M  V30 7258 H 693.68 5.47109 5.45794 0
M  V30 7259 H 692.025 4.91539 4.9134 0
M  V30 7260 H 695.216 3.09923 3.50807 0
M  V30 7261 H 695.389 4.47641 4.68531 0
M  V30 7262 N 688.795 -1.27931 0.920396 0
M  V30 7263 C 689.742 -2.27085 0.412422 0
M  V30 7264 C 690.712 -1.57858 -0.516725 0
M  V30 7265 O 691.897 -1.85717 -0.437475 0
M  V30 7266 C 689.037 -3.43466 -0.335399 0
M  V30 7267 C 688.15 -4.27425 0.627017 0
M  V30 7268 C 687.285 -5.31016 -0.139916 0
M  V30 7269 C 686.324 -6.06641 0.815683 0
M  V30 7270 N 685.461 -7.02052 0.0818439 0
M  V30 7271 H 690.301 -2.69913 1.26298 0
M  V30 7272 H 687.838 -1.32732 0.634076 0
M  V30 7273 H 689.796 -4.09744 -0.785226 0
M  V30 7274 H 688.426 -3.01611 -1.15025 0
M  V30 7275 H 687.478 -3.6113 1.19537 0
M  V30 7276 H 688.79 -4.79969 1.35763 0
M  V30 7277 H 687.944 -6.03208 -0.649998 0
M  V30 7278 H 686.683 -4.79257 -0.903543 0
M  V30 7279 H 685.688 -5.33294 1.33708 0
M  V30 7280 H 686.913 -6.60489 1.57897 0
M  V30 7281 H 684.859 -6.52634 -0.663671 0
M  V30 7282 H 684.776 -7.52249 0.752163 0
M  V30 7283 H 686.044 -7.78432 -0.407825 0
M  V30 7284 N 690.273 -0.685099 -1.4193 0
M  V30 7285 C 691.503 -0.220052 -2.05425 0
M  V30 7286 C 691.911 1.13185 -1.51611 0
M  V30 7287 O 691.254 1.71631 -0.654875 0
M  V30 7288 C 691.316 -0.0888364 -3.5939 0
M  V30 7289 C 690.98 -1.37109 -4.35947 0
M  V30 7290 C 691.977 -2.30675 -4.65924 0
M  V30 7291 C 689.662 -1.62155 -4.75406 0
M  V30 7292 C 691.656 -3.47556 -5.34306 0
M  V30 7293 C 689.343 -2.79324 -5.43527 0
M  V30 7294 C 690.341 -3.71848 -5.72903 0
M  V30 7295 O 690.029 -4.86966 -6.39624 0
M  V30 7296 H 689.761 -0.102165 -0.668235 0
M  V30 7297 H 692.315 -0.935194 -1.82875 0
M  V30 7298 H 690.545 0.681981 -3.80639 0
M  V30 7299 H 692.234 0.337669 -4.04493 0
M  V30 7300 H 693 -2.12579 -4.3593 0
M  V30 7301 H 688.879 -0.910053 -4.51928 0
M  V30 7302 H 692.423 -4.19794 -5.57153 0
M  V30 7303 H 688.32 -2.97342 -5.72938 0
M  V30 7304 H 689.088 -4.86644 -6.58118 0
M  V30 7305 N 691.751 1.51645 -0.429126 0
M  V30 7306 C 693 2.01203 0.141538 0
M  V30 7307 C 693.313 1.31828 1.44502 0
M  V30 7308 O 694.519 1.7231 2.09813 0
M  V30 7309 C 692.975 3.58624 0.302786 0
M  V30 7310 C 692.583 4.3693 -0.989775 0
M  V30 7311 C 694.327 4.16353 0.827661 0
M  V30 7312 C 692.234 5.86037 -0.794619 0
M  V30 7313 H 691.164 0.751867 0.05667 0
M  V30 7314 H 693.815 1.74822 -0.557633 0
M  V30 7315 H 692.197 3.81417 1.06476 0
M  V30 7316 H 693.371 4.25887 -1.75945 0
M  V30 7317 H 691.686 3.90614 -1.44256 0
M  V30 7318 H 694.283 5.25455 0.990026 0
M  V30 7319 H 694.626 3.74995 1.80787 0
M  V30 7320 H 695.159 3.97606 0.124213 0
M  V30 7321 H 691.898 6.31792 -1.74697 0
M  V30 7322 H 691.418 5.99765 -0.0645968 0
M  V30 7323 H 693.097 6.45471 -0.444591 0
M  V30 7324 N 693.229 0.160201 1.56784 0
M  V30 7325 C 694.476 -0.487588 1.96542 0
M  V30 7326 C 694.804 -1.63999 1.04569 0
M  V30 7327 O 694.059 -1.95546 0.0775211 0
M  V30 7328 C 694.358 -1.02259 3.42459 0
M  V30 7329 C 694.024 0.0127436 4.50898 0
M  V30 7330 C 692.686 0.297318 4.80281 0
M  V30 7331 C 695.038 0.716078 5.16257 0
M  V30 7332 C 692.366 1.29081 5.72324 0
M  V30 7333 C 694.718 1.69847 6.09372 0
M  V30 7334 C 693.382 1.99061 6.37127 0
M  V30 7335 H 692.652 -0.178421 0.719199 0
M  V30 7336 H 695.299 0.249818 1.89864 0
M  V30 7337 H 693.604 -1.8376 3.46034 0
M  V30 7338 H 695.301 -1.53261 3.70556 0
M  V30 7339 H 691.891 -0.219235 4.28039 0
M  V30 7340 H 696.075 0.509428 4.93679 0
M  V30 7341 H 691.331 1.52344 5.92116 0
M  V30 7342 H 695.505 2.2489 6.59088 0
M  V30 7343 H 693.132 2.76194 7.08252 0
M  V30 7344 N 694.707 -1.5719 -0.113559 0
M  V30 7345 C 695.655 -2.01725 -1.158 0
M  V30 7346 C 696.649 -0.915105 -1.42556 0
M  V30 7347 O 697.855 -1.10031 -1.42454 0
M  V30 7348 H 694.23 -0.64262 -0.390569 0
M  V30 7349 H 696.201 -2.88666 -0.755926 0
M  V30 7350 C 694.95 -2.44203 -2.47507 0
M  V30 7351 H 694.273 -3.28582 -2.27758 0
M  V30 7352 H 695.713 -2.79158 -3.19135 0
M  V30 7353 C 694.172 -1.30785 -3.10478 0
M  V30 7354 O 694.702 -0.626807 -3.9678 0
M  V30 7355 N 692.908 -1.06352 -2.7044 0
M  V30 7356 H 692.455 -1.61913 -2.00355 0
M  V30 7357 H 692.413 -0.306614 -3.12901 0
M  V30 7358 N 696.185 0.383891 -1.52853 0
M  V30 7359 C 697.425 1.13731 -1.69837 0
M  V30 7360 C 697.789 1.87086 -0.431611 0
M  V30 7361 O 698.99 2.64518 -0.477886 0
M  V30 7362 C 697.261 2.08551 -2.90243 0
M  V30 7363 S 698.82 2.9166 -3.27841 0
M  V30 7364 H 695.638 0.384911 -0.5978 0
M  V30 7365 H 698.24 0.42103 -1.90913 0
M  V30 7366 H 696.944 1.53392 -3.80656 0
M  V30 7367 H 696.475 2.8468 -2.71516 0
M  V30 7368 H 698.49 4.10723 -2.78426 0
M  V30 7369 N 697.663 1.43903 0.642637 0
M  V30 7370 C 698.593 1.52697 1.76652 0
M  V30 7371 C 699.574 0.380816 1.65782 0
M  V30 7372 O 700.759 0.599432 1.84717 0
M  V30 7373 C 697.889 1.45975 3.15133 0
M  V30 7374 C 696.843 2.58949 3.40778 0
M  V30 7375 C 696.169 2.37279 4.79169 0
M  V30 7376 C 697.469 4.01153 3.34475 0
M  V30 7377 H 699.163 2.46766 1.69549 0
M  V30 7378 H 696.709 1.18767 0.814279 0
M  V30 7379 H 698.662 1.5073 3.93521 0
M  V30 7380 H 697.386 0.484162 3.22991 0
M  V30 7381 H 696.045 2.53564 2.64765 0
M  V30 7382 H 695.693 1.37939 4.83717 0
M  V30 7383 H 695.393 3.13016 4.97287 0
M  V30 7384 H 696.917 2.43834 5.59801 0
M  V30 7385 H 698.331 4.07968 4.02784 0
M  V30 7386 H 696.728 4.77001 3.64129 0
M  V30 7387 H 697.798 4.25539 2.32475 0
M  V30 7388 N 699.141 -0.881989 1.30609 0
M  V30 7389 C 700.418 -1.61563 1.10258 0
M  V30 7390 C 700.798 -2.08228 -0.347053 0
M  V30 7391 O 700.146 -1.85151 -1.33908 0
M  V30 7392 C 700.356 -2.78287 2.10612 0
M  V30 7393 C 701.704 -3.48545 2.4249 0
M  V30 7394 O 702.728 -2.88479 2.08945 0
M  V30 7395 O 701.587 -4.56873 2.99883 0
M  V30 7396 H 698.681 -0.710238 0.423663 0
M  V30 7397 H 701.227 -0.928503 1.42045 0
M  V30 7398 H 699.999 -2.41131 3.08174 0
M  V30 7399 H 699.622 -3.54695 1.79659 0
M  V30 7400 N 700.619 -1.13374 -1.09472 0
M  V30 7401 C 701.896 -0.806329 -1.78207 0
M  V30 7402 C 702.276 0.702191 -1.99079 0
M  V30 7403 O 701.624 1.63931 -1.59182 0
M  V30 7404 C 701.834 -1.59271 -3.10538 0
M  V30 7405 C 703.182 -1.78509 -3.85253 0
M  V30 7406 O 704.206 -1.55866 -3.20288 0
M  V30 7407 O 703.065 -2.16287 -5.01879 0
M  V30 7408 H 700.159 -0.29435 -0.772843 0
M  V30 7409 H 702.705 -1.23833 -1.16033 0
M  V30 7410 H 701.477 -2.61792 -2.90828 0
M  V30 7411 H 701.1 -1.15562 -3.80436 0
M  V30 7412 N 702.098 1.27442 -0.927168 0
M  V30 7413 C 703.031 2.25177 -0.370232 0
M  V30 7414 C 704.009 1.53612 0.533103 0
M  V30 7415 O 705.193 1.8245 0.47373 0
M  V30 7416 C 702.32 3.35431 0.469411 0
M  V30 7417 C 701.366 4.24888 -0.370419 0
M  V30 7418 S 702.199 5.04852 -1.78562 0
M  V30 7419 C 703.355 6.18592 -0.953651 0
M  V30 7420 H 703.588 2.72069 -1.19858 0
M  V30 7421 H 701.121 1.36089 -0.729316 0
M  V30 7422 H 703.079 3.99404 0.947992 0
M  V30 7423 H 701.74 2.87179 1.27228 0
M  V30 7424 H 700.933 5.03264 0.272226 0
M  V30 7425 H 700.535 3.65709 -0.783153 0
M  V30 7426 H 702.827 6.77235 -0.189408 0
M  V30 7427 H 703.77 6.87132 -1.7104 0
M  V30 7428 H 704.178 5.62318 -0.495897 0
M  V30 7429 N 703.576 0.692616 1.41565 0
M  V30 7430 C 704.539 0.0344174 2.29174 0
M  V30 7431 C 705.539 -0.710961 1.44229 0
M  V30 7432 O 706.729 -0.546293 1.65412 0
M  V30 7433 C 703.861 -0.961682 3.27054 0
M  V30 7434 H 705.054 0.805755 2.88873 0
M  V30 7435 H 702.607 0.455947 1.49502 0
M  V30 7436 H 703.342 -1.76089 2.72329 0
M  V30 7437 H 703.127 -0.430375 3.89731 0
M  V30 7438 H 704.617 -1.4201 3.92712 0
M  V30 7439 N 705.054 -1.51416 0.437162 0
M  V30 7440 C 705.986 -2.255 -0.410171 0
M  V30 7441 C 706.999 -1.29511 -0.986444 0
M  V30 7442 O 708.188 -1.55266 -0.880614 0
M  V30 7443 C 705.288 -2.99511 -1.58575 0
M  V30 7444 C 704.461 -4.22595 -1.12839 0
M  V30 7445 C 703.52 -4.79187 -2.17407 0
M  V30 7446 O 702.546 -5.4103 -1.76849 0
M  V30 7447 N 703.748 -4.63204 -3.49889 0
M  V30 7448 H 706.513 -2.98856 0.224783 0
M  V30 7449 H 704.074 -1.59699 0.266041 0
M  V30 7450 H 706.066 -3.34258 -2.28152 0
M  V30 7451 H 704.636 -2.29167 -2.12606 0
M  V30 7452 H 703.856 -3.93344 -0.259695 0
M  V30 7453 H 705.144 -5.02468 -0.800196 0
M  V30 7454 H 704.542 -4.13945 -3.85573 0
M  V30 7455 H 703.099 -5.02313 -4.15361 0
M  V30 7456 N 706.532 -0.168513 -1.56696 0
M  V30 7457 C 707.778 0.477865 -1.9709 0
M  V30 7458 C 708.111 1.63084 -1.05438 0
M  V30 7459 O 707.386 1.94238 -0.10095 0
M  V30 7460 C 707.669 0.963521 -3.4697 0
M  V30 7461 C 707.522 -0.189443 -4.49401 0
M  V30 7462 C 708.841 1.83813 -3.99876 0
M  V30 7463 H 705.96 0.172229 -0.716593 0
M  V30 7464 H 708.602 -0.254083 -1.88293 0
M  V30 7465 H 706.752 1.58724 -3.54597 0
M  V30 7466 H 708.424 -0.826451 -4.53836 0
M  V30 7467 H 706.667 -0.845366 -4.25483 0
M  V30 7468 H 707.338 0.192446 -5.51664 0
M  V30 7469 H 709.814 1.31235 -3.94863 0
M  V30 7470 H 708.69 2.14697 -5.0517 0
M  V30 7471 H 708.951 2.78289 -3.43523 0
M  V30 7472 N 708.01 1.57248 0.105221 0
M  V30 7473 C 708.958 2.02337 1.14728 0
M  V30 7474 C 709.952 0.922652 1.42069 0
M  V30 7475 O 711.158 1.10785 1.41869 0
M  V30 7476 H 707.533 0.644682 0.387155 0
M  V30 7477 H 709.504 2.89063 0.740607 0
M  V30 7478 C 708.253 2.45513 2.46209 0
M  V30 7479 H 707.576 3.29785 2.26013 0
M  V30 7480 H 709.016 2.80846 3.1765 0
M  V30 7481 C 707.475 1.3243 3.09781 0
M  V30 7482 O 708.005 0.647841 3.96442 0
M  V30 7483 N 706.211 1.07785 2.69872 0
M  V30 7484 H 705.758 1.62973 1.99493 0
M  V30 7485 H 705.716 0.323204 3.12734 0
M  V30 7486 N 709.488 -0.375779 1.53054 0
M  V30 7487 C 710.421 -1.48187 1.7354 0
M  V30 7488 C 711.399 -1.5177 0.583495 0
M  V30 7489 O 712.583 -1.69976 0.81488 0
M  V30 7490 C 709.71 -2.86598 1.80497 0
M  V30 7491 C 708.756 -3.00784 3.02376 0
M  V30 7492 S 709.589 -2.70601 4.62099 0
M  V30 7493 C 710.745 -4.11181 4.71891 0
M  V30 7494 H 710.978 -1.30587 2.67085 0
M  V30 7495 H 708.511 -0.569485 1.43514 0
M  V30 7496 H 710.469 -3.66353 1.85192 0
M  V30 7497 H 709.13 -3.01514 0.880217 0
M  V30 7498 H 708.323 -4.02128 3.03824 0
M  V30 7499 H 707.925 -2.28939 2.95742 0
M  V30 7500 H 710.217 -5.0529 4.51319 0
M  V30 7501 H 711.16 -4.14742 5.73929 0
M  V30 7502 H 711.568 -3.97706 4.00612 0
M  V30 7503 N 710.966 -1.44241 -0.634997 0
M  V30 7504 C 712.194 -1.50296 -1.42193 0
M  V30 7505 C 712.609 -0.12658 -1.88375 0
M  V30 7506 O 711.966 0.86678 -1.60603 0
M  V30 7507 C 712.017 -2.46437 -2.64482 0
M  V30 7508 O 711.738 -3.78724 -2.20226 0
M  V30 7509 C 713.239 -2.61918 -3.57651 0
M  V30 7510 H 710.459 -0.509865 -0.43621 0
M  V30 7511 H 713.003 -1.89167 -0.776921 0
M  V30 7512 H 711.158 -2.10712 -3.25083 0
M  V30 7513 H 711.572 -4.30595 -2.9948 0
M  V30 7514 H 713.046 -3.33225 -4.40074 0
M  V30 7515 H 713.523 -1.67017 -4.06204 0
M  V30 7516 H 714.129 -2.98528 -3.02921 0
M  V30 7517 N 712.444 0.87505 -1.31075 0
M  V30 7518 C 713.672 1.66058 -1.23419 0
M  V30 7519 C 714.087 1.87723 0.201347 0
M  V30 7520 O 713.444 1.43178 1.13165 0
M  V30 7521 C 713.495 3.03142 -1.96945 0
M  V30 7522 O 713.216 2.82448 -3.34895 0
M  V30 7523 C 714.717 3.97583 -1.96067 0
M  V30 7524 H 711.937 0.517868 -0.426677 0
M  V30 7525 H 714.481 1.09258 -1.72867 0
M  V30 7526 H 712.636 3.56645 -1.51271 0
M  V30 7527 H 713.05 3.69483 -3.72267 0
M  V30 7528 H 714.524 4.91104 -2.52034 0
M  V30 7529 H 715.001 4.2898 -0.941961 0
M  V30 7530 H 715.607 3.50015 -2.41597 0
M  V30 7531 N 713.922 1.13953 1.08869 0
M  V30 7532 C 715.199 0.815768 1.77777 0
M  V30 7533 C 715.579 -0.691624 1.99449 0
M  V30 7534 O 714.927 -1.63085 1.60049 0
M  V30 7535 C 715.137 1.60916 3.09689 0
M  V30 7536 C 716.485 1.80549 3.84301 0
M  V30 7537 O 717.509 1.57562 3.19457 0
M  V30 7538 O 716.368 2.18946 5.00724 0
M  V30 7539 H 713.462 0.298445 0.771271 0
M  V30 7540 H 716.008 1.24446 1.15374 0
M  V30 7541 H 714.78 2.6333 2.89435 0
M  V30 7542 H 714.403 1.17578 3.79817 0
M  V30 7543 N 715.4 -1.26948 0.933913 0
M  V30 7544 C 716.33 -2.29017 0.45534 0
M  V30 7545 C 717.311 -1.62961 -0.487605 0
M  V30 7546 O 718.496 -1.90223 -0.391022 0
M  V30 7547 C 715.626 -3.46112 -0.287015 0
M  V30 7548 C 714.58 -4.24205 0.568682 0
M  V30 7549 C 713.906 -5.3384 -0.303206 0
M  V30 7550 C 715.206 -4.88954 1.83633 0
M  V30 7551 H 716.9 -2.69298 1.30839 0
M  V30 7552 H 714.446 -1.29459 0.630579 0
M  V30 7553 H 716.399 -4.16622 -0.6328 0
M  V30 7554 H 715.123 -3.04765 -1.17414 0
M  V30 7555 H 713.782 -3.5545 0.897261 0
M  V30 7556 H 713.43 -4.88734 -1.18947 0
M  V30 7557 H 713.13 -5.86998 0.265879 0
M  V30 7558 H 714.654 -6.0719 -0.644423 0
M  V30 7559 H 716.068 -5.51717 1.55823 0
M  V30 7560 H 714.465 -5.52198 2.34941 0
M  V30 7561 H 715.535 -4.12305 2.55211 0
M  V30 7562 N 716.879 -0.700114 -1.41195 0
M  V30 7563 C 717.789 -0.0382854 -2.34569 0
M  V30 7564 C 718.805 0.761036 -1.56474 0
M  V30 7565 O 719.981 0.697553 -1.88934 0
M  V30 7566 C 717.046 0.883522 -3.35253 0
M  V30 7567 C 716.107 0.0758957 -4.29233 0
M  V30 7568 C 715.34 0.9538 -5.25108 0
M  V30 7569 O 715.563 2.19326 -5.26547 0
M  V30 7570 O 714.497 0.401049 -6.00562 0
M  V30 7571 H 718.323 -0.808073 -2.92752 0
M  V30 7572 H 715.908 -0.460479 -1.42127 0
M  V30 7573 H 717.79 1.41199 -3.9704 0
M  V30 7574 H 716.465 1.63272 -2.79506 0
M  V30 7575 H 715.372 -0.497274 -3.7078 0
M  V30 7576 H 716.705 -0.634741 -4.8809 0
M  V30 7577 N 718.357 1.51182 -0.445186 0
M  V30 7578 C 719.605 2.01753 0.11841 0
M  V30 7579 C 719.926 1.33087 1.42523 0
M  V30 7580 O 719.196 0.467891 1.9023 0
M  V30 7581 H 717.776 0.745536 0.0467492 0
M  V30 7582 H 720.438 1.85765 -0.589688 0
M  V30 7583 H 719.534 3.10762 0.288665 0
M  V30 7584 N 719.835 0.176821 1.56605 0
M  V30 7585 C 721.06 -0.47599 2.01864 0
M  V30 7586 C 721.485 -1.55645 1.05623 0
M  V30 7587 O 720.843 -1.81263 0.0366729 0
M  V30 7588 C 720.891 -1.02619 3.4569 0
M  V30 7589 O 719.995 -2.13996 3.52533 0
M  V30 7590 H 719.336 -0.113363 0.654251 0
M  V30 7591 H 721.866 0.28233 2.02643 0
M  V30 7592 H 721.876 -1.34742 3.85109 0
M  V30 7593 H 720.551 -0.235138 4.15235 0
M  V30 7594 H 719.128 -1.82876 3.24978 0
M  V30 7595 N 721.313 -1.57302 -0.09688 0
M  V30 7596 C 722.59 -1.7701 -0.832272 0
M  V30 7597 C 722.97 -0.758025 -1.97021 0
M  V30 7598 O 722.318 0.213824 -2.27497 0
M  V30 7599 C 722.528 -3.22725 -1.32851 0
M  V30 7600 C 723.876 -3.85856 -1.772 0
M  V30 7601 O 724.9 -3.26464 -1.42478 0
M  V30 7602 O 723.759 -4.90295 -2.41398 0
M  V30 7603 H 720.853 -0.725558 -0.396856 0
M  V30 7604 H 723.399 -1.69516 -0.0789005 0
M  V30 7605 H 722.171 -3.87921 -0.51312 0
M  V30 7606 H 721.794 -3.34845 -2.14394 0
M  V30 7607 N 722.791 0.367657 -1.53252 0
M  V30 7608 C 723.724 1.47264 -1.74323 0
M  V30 7609 C 724.702 1.51458 -0.591535 0
M  V30 7610 O 725.886 1.69542 -0.823883 0
M  V30 7611 C 723.013 2.85637 -1.82015 0
M  V30 7612 C 722.059 2.99176 -3.03967 0
M  V30 7613 S 722.892 2.68147 -4.63527 0
M  V30 7614 C 724.048 4.08673 -4.74065 0
M  V30 7615 H 724.281 1.29169 -2.67773 0
M  V30 7616 H 721.814 0.561866 -1.43814 0
M  V30 7617 H 723.772 3.65365 -1.87132 0
M  V30 7618 H 722.433 3.01043 -0.896195 0
M  V30 7619 H 721.626 4.00511 -3.05953 0
M  V30 7620 H 721.228 2.27367 -2.96952 0
M  V30 7621 H 723.52 5.02889 -4.53992 0
M  V30 7622 H 724.463 4.11693 -5.7612 0
M  V30 7623 H 724.871 3.95576 -4.02716 0
M  V30 7624 N 724.269 1.44576 0.627338 0
M  V30 7625 C 725.199 1.54562 1.75022 0
M  V30 7626 C 726.18 0.398378 1.65369 0
M  V30 7627 O 727.365 0.61899 1.84071 0
M  V30 7628 C 724.495 1.49309 3.13567 0
M  V30 7629 C 723.449 2.62549 3.38012 0
M  V30 7630 C 722.775 2.42348 4.76625 0
M  V30 7631 C 724.075 4.04678 3.30202 0
M  V30 7632 H 725.769 2.4855 1.66922 0
M  V30 7633 H 723.315 1.19624 0.801636 0
M  V30 7634 H 725.268 1.54895 3.919 0
M  V30 7635 H 723.992 0.518392 3.2246 0
M  V30 7636 H 722.651 2.56358 2.62061 0
M  V30 7637 H 722.299 1.43062 4.82226 0
M  V30 7638 H 721.999 3.18273 4.93939 0
M  V30 7639 H 723.523 2.49758 5.57183 0
M  V30 7640 H 724.937 4.12217 3.98435 0
M  V30 7641 H 723.334 4.80836 3.5905 0
M  V30 7642 H 724.404 4.2798 2.27949 0
M  V30 7643 N 725.747 -0.868086 1.31537 0
M  V30 7644 C 726.993 -1.62367 1.2151 0
M  V30 7645 C 727.326 -1.92883 -0.225819 0
M  V30 7646 O 726.601 -1.56176 -1.15927 0
M  V30 7647 C 726.884 -2.95268 2.06129 0
M  V30 7648 C 726.737 -2.71619 3.58529 0
M  V30 7649 C 728.056 -3.96391 1.91212 0
M  V30 7650 H 725.175 -0.589178 0.442762 0
M  V30 7651 H 727.817 -1.00336 1.61347 0
M  V30 7652 H 725.967 -3.4821 1.72284 0
M  V30 7653 H 727.639 -2.25334 4.0252 0
M  V30 7654 H 725.882 -2.05817 3.81866 0
M  V30 7655 H 726.553 -3.66192 4.13047 0
M  V30 7656 H 729.029 -3.52663 2.20834 0
M  V30 7657 H 727.905 -4.87263 2.52718 0
M  V30 7658 H 728.166 -4.33335 0.875953 0
M  V30 7659 N 727.225 -1.14528 -1.08264 0
M  V30 7660 C 728.135 -0.84728 -2.18765 0
M  V30 7661 C 729.151 0.172826 -1.7314 0
M  V30 7662 O 730.327 0.000985336 -2.014 0
M  V30 7663 C 727.392 -0.330633 -3.4512 0
M  V30 7664 C 726.453 -1.41348 -4.05363 0
M  V30 7665 C 725.686 -0.921387 -5.25686 0
M  V30 7666 O 725.909 0.236587 -5.69909 0
M  V30 7667 O 724.843 -1.70101 -5.77364 0
M  V30 7668 H 728.669 -1.7708 -2.46731 0
M  V30 7669 H 726.254 -0.923661 -1.17426 0
M  V30 7670 H 728.136 -0.0485053 -4.21372 0
M  V30 7671 H 726.811 0.565147 -3.18728 0
M  V30 7672 H 725.718 -1.74908 -3.30693 0
M  V30 7673 H 727.051 -2.28383 -4.36007 0
M  V30 7674 N 728.703 1.26451 -0.940633 0
M  V30 7675 C 729.65 2.264 -0.448497 0
M  V30 7676 C 730.62 1.5866 0.491546 0
M  V30 7677 O 731.805 1.86389 0.407874 0
M  V30 7678 C 728.945 3.43956 0.280715 0
M  V30 7679 C 728.058 4.26374 -0.694937 0
M  V30 7680 C 727.193 5.31171 0.0554186 0
M  V30 7681 C 726.232 6.05266 -0.912091 0
M  V30 7682 N 725.369 7.01833 -0.193524 0
M  V30 7683 H 730.209 2.67869 -1.30576 0
M  V30 7684 H 727.746 1.31707 -0.655112 0
M  V30 7685 H 729.704 4.10941 0.71994 0
M  V30 7686 H 728.334 3.03403 1.10212 0
M  V30 7687 H 727.386 3.59183 -1.25267 0
M  V30 7688 H 728.698 4.77748 -1.43382 0
M  V30 7689 H 727.852 6.04166 0.553951 0
M  V30 7690 H 726.591 4.80634 0.827183 0
M  V30 7691 H 725.596 5.31099 -1.42175 0
M  V30 7692 H 726.821 6.57893 -1.68385 0
M  V30 7693 H 724.767 6.53607 0.559758 0
M  V30 7694 H 724.684 7.50957 -0.871744 0
M  V30 7695 H 725.952 7.78983 0.283932 0
M  V30 7696 N 730.181 0.707592 1.40822 0
M  V30 7697 C 731.144 0.0587224 2.29125 0
M  V30 7698 C 732.144 -0.695624 1.44975 0
M  V30 7699 O 733.334 -0.528718 1.65983 0
M  V30 7700 C 730.466 -0.926939 3.28056 0
M  V30 7701 H 731.659 0.836349 2.88002 0
M  V30 7702 H 729.212 0.471778 1.4901 0
M  V30 7703 H 729.947 -1.7319 2.74182 0
M  V30 7704 H 729.732 -0.389015 3.90165 0
M  V30 7705 H 731.222 -1.37837 3.94196 0
M  V30 7706 N 731.66 -1.50943 0.453197 0
M  V30 7707 C 732.937 -1.94872 -0.168633 0
M  V30 7708 C 733.317 -1.39272 -1.5864 0
M  V30 7709 O 732.665 -0.586272 -2.20851 0
M  V30 7710 C 732.875 -3.48757 -0.130217 0
M  V30 7711 C 734.223 -4.23331 -0.327975 0
M  V30 7712 O 735.247 -3.55594 -0.207619 0
M  V30 7713 O 734.106 -5.43529 -0.569077 0
M  V30 7714 H 731.2 -0.818042 -0.121394 0
M  V30 7715 H 733.746 -1.61782 0.512316 0
M  V30 7716 H 732.518 -3.81725 0.860346 0
M  V30 7717 H 732.141 -3.88333 -0.853397 0
M  V30 7718 N 733.138 -0.185124 -1.56509 0
M  V30 7719 C 734.554 0.170865 -1.58683 0
M  V30 7720 C 734.754 1.61799 -1.20098 0
M  V30 7721 O 733.81 2.35181 -0.919038 0
M  V30 7722 C 735.123 -0.122459 -3.00451 0
M  V30 7723 C 736.671 -0.0617699 -3.12939 0
M  V30 7724 C 737.146 -0.328269 -4.56822 0
M  V30 7725 N 738.637 -0.276533 -4.62374 0
M  V30 7726 C 739.372 -0.456722 -5.71578 0
M  V30 7727 N 738.868 -0.69672 -6.89288 0
M  V30 7728 N 740.661 -0.391669 -5.60734 0
M  V30 7729 H 732.812 -1.12956 -1.79874 0
M  V30 7730 H 735.075 -0.45011 -0.834329 0
M  V30 7731 H 734.781 -1.12546 -3.33206 0
M  V30 7732 H 734.655 0.579578 -3.72721 0
M  V30 7733 H 737.042 0.931826 -2.80002 0
M  V30 7734 H 737.123 -0.796732 -2.43076 0
M  V30 7735 H 736.767 -1.31914 -4.9047 0
M  V30 7736 H 736.697 0.427465 -5.24862 0
M  V30 7737 H 739.188 -0.0972458 -3.77775 0
M  V30 7738 H 739.501 -0.823291 -7.68402 0
M  V30 7739 H 737.846 -0.733497 -6.91119 0
M  V30 7740 H 741.037 -0.204663 -4.67652 0
M  V30 7741 H 741.21 -0.535518 -6.45783 0
M  V30 7742 N 734.616 1.57351 0.0885366 0
M  V30 7743 C 736.032 1.53331 0.442916 0
M  V30 7744 C 736.232 0.902831 1.80142 0
M  V30 7745 O 735.288 0.498147 2.47537 0
M  V30 7746 C 736.601 2.98036 0.399372 0
M  V30 7747 C 738.149 3.09286 0.480759 0
M  V30 7748 C 738.624 4.5561 0.467296 0
M  V30 7749 N 740.115 4.60182 0.52786 0
M  V30 7750 C 740.85 5.70857 0.539388 0
M  V30 7751 N 740.346 6.90944 0.506729 0
M  V30 7752 N 742.139 5.59051 0.584691 0
M  V30 7753 H 734.29 1.96709 -0.801215 0
M  V30 7754 H 736.553 0.899639 -0.298922 0
M  V30 7755 H 736.259 3.47656 -0.531806 0
M  V30 7756 H 736.133 3.57066 1.21589 0
M  V30 7757 H 738.52 2.5965 1.40236 0
M  V30 7758 H 738.601 2.53197 -0.364023 0
M  V30 7759 H 738.245 5.05899 -0.450384 0
M  V30 7760 H 738.175 5.09544 1.32938 0
M  V30 7761 H 740.666 3.73757 0.558028 0
M  V30 7762 H 740.979 7.71055 0.518989 0
M  V30 7763 H 739.324 6.93384 0.473675 0
M  V30 7764 H 742.515 4.64138 0.607781 0
M  V30 7765 H 742.688 6.45307 0.590206 0
M  V30 7766 N 736.094 -0.359525 1.53444 0
M  V30 7767 C 737.004 -1.46445 1.83278 0
M  V30 7768 C 738.02 -1.5833 0.721629 0
M  V30 7769 O 739.196 -1.7411 1.01231 0
M  V30 7770 C 736.261 -2.81638 2.02191 0
M  V30 7771 C 735.322 -2.7923 3.26082 0
M  V30 7772 C 734.555 -4.07974 3.44082 0
M  V30 7773 O 734.778 -5.04447 2.66251 0
M  V30 7774 O 733.712 -4.13417 4.37458 0
M  V30 7775 H 737.538 -1.24156 2.77162 0
M  V30 7776 H 735.123 -0.550201 1.389 0
M  V30 7777 H 737.005 -3.61732 2.16167 0
M  V30 7778 H 735.68 -3.03892 1.11496 0
M  V30 7779 H 734.587 -1.97813 3.17523 0
M  V30 7780 H 735.92 -2.6193 4.16718 0
M  V30 7781 N 737.572 -1.44907 -0.619662 0
M  V30 7782 C 738.819 -1.48292 -1.37898 0
M  V30 7783 C 739.147 -0.119933 -1.9413 0
M  V30 7784 O 738.402 0.879834 -1.74807 0
M  V30 7785 C 738.701 -2.50002 -2.55409 0
M  V30 7786 C 738.367 -3.95031 -2.17397 0
M  V30 7787 C 737.029 -4.34524 -2.06743 0
M  V30 7788 C 739.381 -4.86287 -1.87548 0
M  V30 7789 C 736.709 -5.63183 -1.64445 0
M  V30 7790 C 739.061 -6.15346 -1.4674 0
M  V30 7791 C 737.725 -6.53781 -1.34636 0
M  V30 7792 H 736.995 -0.542638 -0.504603 0
M  V30 7793 H 739.642 -1.78186 -0.701581 0
M  V30 7794 H 737.947 -2.13634 -3.28433 0
M  V30 7795 H 739.644 -2.49864 -3.13639 0
M  V30 7796 H 736.234 -3.63793 -2.26611 0
M  V30 7797 H 740.418 -4.56522 -1.94682 0
M  V30 7798 H 735.674 -5.91769 -1.53687 0
M  V30 7799 H 739.848 -6.85508 -1.22685 0
M  V30 7800 H 737.475 -7.53375 -1.01634 0
M  V30 7801 N 739.05 0.861098 -1.31996 0
M  V30 7802 C 740.299 1.60965 -1.21545 0
M  V30 7803 C 740.612 1.94325 0.222972 0
M  V30 7804 O 741.818 2.67757 0.449272 0
M  V30 7805 C 740.274 2.90223 -2.12834 0
M  V30 7806 C 739.882 2.64313 -3.61722 0
M  V30 7807 C 741.626 3.68229 -2.11205 0
M  V30 7808 C 739.533 3.89532 -4.44993 0
M  V30 7809 H 738.463 0.603988 -0.451348 0
M  V30 7810 H 741.114 0.951358 -1.56912 0
M  V30 7811 H 739.496 3.57475 -1.70375 0
M  V30 7812 H 740.67 2.05413 -4.12483 0
M  V30 7813 H 738.985 1.99647 -3.65418 0
M  V30 7814 H 741.582 4.61138 -2.70658 0
M  V30 7815 H 741.925 4.01466 -1.1014 0
M  V30 7816 H 742.458 3.07873 -2.51911 0
M  V30 7817 H 739.197 3.61441 -5.46846 0
M  V30 7818 H 738.717 4.47851 -3.98985 0
M  V30 7819 H 740.396 4.57334 -4.57663 0
M  V30 7820 N 740.528 1.15101 1.07655 0
M  V30 7821 C 741.805 0.834578 1.76902 0
M  V30 7822 C 742.185 -0.670431 2.00171 0
M  V30 7823 O 741.533 -1.61378 1.6177 0
M  V30 7824 C 741.743 1.64191 3.07965 0
M  V30 7825 C 743.091 1.84615 3.82364 0
M  V30 7826 O 744.115 1.60941 3.17768 0
M  V30 7827 O 742.974 2.24244 4.98374 0
M  V30 7828 H 740.068 0.306608 0.768063 0
M  V30 7829 H 742.614 1.25663 1.14048 0
M  V30 7830 H 741.386 2.66386 2.86626 0
M  V30 7831 H 741.009 1.216 3.78549 0
M  V30 7832 N 742.006 -1.2595 0.947325 0
M  V30 7833 C 742.936 -2.28521 0.479604 0
M  V30 7834 C 743.917 -1.63469 -0.470293 0
M  V30 7835 O 745.102 -1.90627 -0.370824 0
M  V30 7836 C 742.232 -3.46397 -0.250289 0
M  V30 7837 C 741.186 -4.23578 0.613643 0
M  V30 7838 C 740.512 -5.34131 -0.246568 0
M  V30 7839 C 741.812 -4.86979 1.88809 0
M  V30 7840 H 743.506 -2.67895 1.33688 0
M  V30 7841 H 741.052 -1.28783 0.644274 0
M  V30 7842 H 743.005 -4.17269 -0.588576 0
M  V30 7843 H 741.729 -3.05993 -1.14175 0
M  V30 7844 H 740.388 -3.54478 0.93491 0
M  V30 7845 H 740.036 -4.89968 -1.13756 0
M  V30 7846 H 739.736 -5.86683 0.328123 0
M  V30 7847 H 741.26 -6.07839 -0.579986 0
M  V30 7848 H 742.674 -5.50034 1.61666 0
M  V30 7849 H 741.071 -5.49675 2.40784 0
M  V30 7850 H 742.141 -4.09575 2.5957 0
M  V30 7851 N 743.484 -0.715051 -1.40445 0
M  V30 7852 C 744.414 -0.0768699 -2.33373 0
M  V30 7853 C 745.395 0.746109 -1.52863 0
M  V30 7854 O 746.58 0.695142 -1.81332 0
M  V30 7855 C 743.71 0.846014 -3.36838 0
M  V30 7856 C 742.664 0.128694 -4.27806 0
M  V30 7857 C 741.99 1.16726 -5.21804 0
M  V30 7858 C 743.29 -1.01679 -5.12307 0
M  V30 7859 H 744.984 -0.853061 -2.8699 0
M  V30 7860 H 742.53 -0.41167 -1.3799 0
M  V30 7861 H 744.483 1.30185 -4.00786 0
M  V30 7862 H 743.207 1.6541 -2.81615 0
M  V30 7863 H 741.866 -0.307314 -3.6531 0
M  V30 7864 H 741.514 1.96838 -4.62887 0
M  V30 7865 H 741.214 0.692188 -5.83509 0
M  V30 7866 H 742.738 1.62321 -5.88629 0
M  V30 7867 H 744.152 -0.640337 -5.69713 0
M  V30 7868 H 742.549 -1.4202 -5.83053 0
M  V30 7869 H 743.619 -1.84769 -4.48317 0
M  V30 7870 N 744.962 1.50701 -0.461195 0
M  V30 7871 C 745.909 2.2831 0.338094 0
M  V30 7872 C 746.879 1.32928 0.995957 0
M  V30 7873 O 748.064 1.61857 1.0103 0
M  V30 7874 C 745.204 3.14539 1.41983 0
M  V30 7875 C 744.317 4.24942 0.77773 0
M  V30 7876 C 743.452 4.98443 1.83652 0
M  V30 7877 C 742.491 6.00733 1.17413 0
M  V30 7878 N 741.628 6.6755 2.17533 0
M  V30 7879 H 746.468 2.96167 -0.330051 0
M  V30 7880 H 744.005 1.4606 -0.174611 0
M  V30 7881 H 745.963 3.62877 2.05855 0
M  V30 7882 H 744.593 2.48749 2.05727 0
M  V30 7883 H 743.645 3.80391 0.0266924 0
M  V30 7884 H 744.957 4.98151 0.254362 0
M  V30 7885 H 744.111 5.50449 2.55129 0
M  V30 7886 H 742.85 4.24917 2.39367 0
M  V30 7887 H 741.855 5.47997 0.444944 0
M  V30 7888 H 743.08 6.76227 0.624006 0
M  V30 7889 H 741.026 5.96823 2.72284 0
M  V30 7890 H 740.943 7.36603 1.70154 0
M  V30 7891 H 742.211 7.24178 2.88421 0
M  V30 7892 N 746.441 0.193421 1.56409 0
M  V30 7893 C 747.388 -0.728124 2.19014 0
M  V30 7894 C 748.358 -1.21098 1.13686 0
M  V30 7895 O 749.543 -1.27517 1.4193 0
M  V30 7896 C 746.683 -1.94277 2.8522 0
M  V30 7897 C 745.796 -1.50143 4.05069 0
M  V30 7898 C 744.931 -2.67145 4.59137 0
M  V30 7899 C 743.97 -2.19609 5.71348 0
M  V30 7900 N 743.107 -3.29782 6.19829 0
M  V30 7901 H 747.947 -0.187499 2.9741 0
M  V30 7902 H 745.484 -0.0808064 1.46878 0
M  V30 7903 H 747.442 -2.65551 3.21774 0
M  V30 7904 H 746.072 -2.45673 2.09391 0
M  V30 7905 H 745.124 -0.684624 3.74189 0
M  V30 7906 H 746.436 -1.11266 4.86232 0
M  V30 7907 H 745.59 -3.46544 4.97988 0
M  V30 7908 H 744.329 -3.09295 3.77078 0
M  V30 7909 H 743.334 -1.38664 5.32027 0
M  V30 7910 H 744.559 -1.78492 6.55223 0
M  V30 7911 H 742.505 -3.71466 5.40693 0
M  V30 7912 H 742.422 -2.95069 6.96039 0
M  V30 7913 H 743.69 -4.094 6.63334 0
M  V30 7914 N 747.919 -1.57396 -0.0801906 0
M  V30 7915 C 748.852 -1.98386 -1.12774 0
M  V30 7916 C 749.83 -0.859423 -1.38031 0
M  V30 7917 O 751.014 -1.12101 -1.51544 0
M  V30 7918 C 748.141 -2.3134 -2.47386 0
M  V30 7919 C 747.187 -3.53706 -2.38316 0
M  V30 7920 S 748.02 -5.04862 -1.78534 0
M  V30 7921 C 749.176 -5.41008 -3.1474 0
M  V30 7922 H 749.409 -2.86929 -0.778382 0
M  V30 7923 H 746.942 -1.51682 -0.28842 0
M  V30 7924 H 748.9 -2.51 -3.24822 0
M  V30 7925 H 747.561 -1.4334 -2.79486 0
M  V30 7926 H 746.754 -3.74253 -3.37566 0
M  V30 7927 H 746.356 -3.33632 -1.69014 0
M  V30 7928 H 748.648 -5.38565 -4.1104 0
M  V30 7929 H 749.591 -6.41885 -2.98981 0
M  V30 7930 H 749.999 -4.68467 -3.14958 0
M  V30 7931 N 749.397 0.351382 -1.53633 0
M  V30 7932 C 750.327 1.43688 -1.84055 0
M  V30 7933 C 751.308 1.55251 -0.695073 0
M  V30 7934 O 752.493 1.69587 -0.946257 0
M  V30 7935 C 749.623 2.80843 -2.04315 0
M  V30 7936 C 748.577 2.84094 -3.20117 0
M  V30 7937 C 747.903 4.2406 -3.25696 0
M  V30 7938 C 749.203 2.50334 -4.58399 0
M  V30 7939 H 750.897 1.18478 -2.74961 0
M  V30 7940 H 748.443 0.568509 -1.32303 0
M  V30 7941 H 750.396 3.56821 -2.2418 0
M  V30 7942 H 749.12 3.07471 -1.10132 0
M  V30 7943 H 747.779 2.10568 -3.00094 0
M  V30 7944 H 747.427 4.47785 -2.29123 0
M  V30 7945 H 747.127 4.27147 -4.03509 0
M  V30 7946 H 748.651 5.0189 -3.47762 0
M  V30 7947 H 750.065 3.16025 -4.78332 0
M  V30 7948 H 748.462 2.64717 -5.38558 0
M  V30 7949 H 749.532 1.45542 -4.62543 0
M  V30 7950 N 750.875 1.45233 0.611969 0
M  V30 7951 C 752.103 1.52539 1.39784 0
M  V30 7952 C 752.518 0.156533 1.8815 0
M  V30 7953 O 751.875 -0.84112 1.61961 0
M  V30 7954 C 751.926 2.50614 2.60528 0
M  V30 7955 O 751.647 3.8218 2.14173 0
M  V30 7956 C 753.148 2.67574 3.53439 0
M  V30 7957 H 750.368 0.51674 0.428043 0
M  V30 7958 H 752.912 1.90379 0.746727 0
M  V30 7959 H 751.067 2.15858 3.2169 0
M  V30 7960 H 751.481 4.35305 2.92592 0
M  V30 7961 H 752.955 3.40184 4.34717 0
M  V30 7962 H 753.432 1.73458 4.03496 0
M  V30 7963 H 754.038 3.0331 2.98133 0
M  V30 7964 N 752.353 -0.854086 1.3245 0
M  V30 7965 C 753.602 -1.60318 1.22397 0
M  V30 7966 C 753.915 -1.9444 -0.212664 0
M  V30 7967 O 755.121 -2.67991 -0.435066 0
M  V30 7968 C 753.577 -2.8909 2.1437 0
M  V30 7969 C 753.185 -2.62391 3.63119 0
M  V30 7970 C 754.929 -3.67104 2.13155 0
M  V30 7971 C 752.836 -3.87167 4.47052 0
M  V30 7972 H 751.766 -0.601586 0.454544 0
M  V30 7973 H 754.417 -0.943023 1.57415 0
M  V30 7974 H 752.799 -3.56567 1.72268 0
M  V30 7975 H 753.973 -2.03222 4.13567 0
M  V30 7976 H 752.288 -1.97706 3.66471 0
M  V30 7977 H 754.885 -4.59696 2.731 0
M  V30 7978 H 755.228 -4.00876 1.12268 0
M  V30 7979 H 755.761 -3.06533 2.5354 0
M  V30 7980 H 752.5 -3.58536 5.48755 0
M  V30 7981 H 752.02 -4.45729 4.01355 0
M  V30 7982 H 753.699 -4.549 4.60081 0
M  V30 7983 N 753.831 -1.1567 -1.07043 0
M  V30 7984 C 755.108 -0.843948 -1.76456 0
M  V30 7985 C 755.488 0.659806 -2.00524 0
M  V30 7986 O 754.836 1.60518 -1.62623 0
M  V30 7987 C 755.046 -1.65822 -3.0709 0
M  V30 7988 C 756.394 -1.8664 -3.8138 0
M  V30 7989 O 757.418 -1.62624 -3.1691 0
M  V30 7990 O 756.277 -2.26884 -4.97178 0
M  V30 7991 H 753.371 -0.310677 -0.766426 0
M  V30 7992 H 755.917 -1.26266 -1.1338 0
M  V30 7993 H 754.689 -2.67902 -2.85209 0
M  V30 7994 H 754.312 -1.23605 -3.77899 0
M  V30 7995 N 755.309 1.25446 -0.953992 0
M  V30 7996 C 756.272 2.24156 -0.478179 0
M  V30 7997 C 757.272 1.55278 0.417776 0
M  V30 7998 O 758.462 1.72866 0.215155 0
M  V30 7999 C 755.594 3.39495 0.309202 0
M  V30 8000 H 756.787 2.67764 -1.35064 0
M  V30 8001 H 754.34 1.37822 -0.737206 0
M  V30 8002 H 755.075 3.01307 1.19936 0
M  V30 8003 H 754.86 3.90679 -0.333562 0
M  V30 8004 H 756.35 4.12796 0.631594 0
M  V30 8005 N 756.787 0.722489 1.40064 0
M  V30 8006 C 758.064 0.191829 1.94657 0
M  V30 8007 C 758.444 -1.30389 1.66018 0
M  V30 8008 O 757.792 -2.06342 0.981588 0
M  V30 8009 C 758.002 0.511978 3.45224 0
M  V30 8010 C 759.35 0.454426 4.22161 0
M  V30 8011 O 760.374 0.448438 3.53366 0
M  V30 8012 O 759.233 0.437986 5.44742 0
M  V30 8013 H 756.327 0.0307821 0.826427 0
M  V30 8014 H 758.873 0.800493 1.49634 0
M  V30 8015 H 757.645 1.54622 3.59455 0
M  V30 8016 H 757.268 -0.126296 3.97399 0
M  V30 8017 N 758.265 -1.50454 0.469181 0
M  V30 8018 C 759.212 -2.28486 -0.325982 0
M  V30 8019 C 760.182 -1.33455 -0.988893 0
M  V30 8020 O 761.367 -1.6239 -1.0017 0
M  V30 8021 C 758.507 -3.15288 -1.40313 0
M  V30 8022 C 757.62 -4.25348 -0.755183 0
M  V30 8023 C 756.755 -4.9941 -1.81006 0
M  V30 8024 C 755.794 -6.01348 -1.14226 0
M  V30 8025 N 754.931 -6.68695 -2.1399 0
M  V30 8026 H 759.771 -2.95987 0.345753 0
M  V30 8027 H 757.308 -1.45965 0.182355 0
M  V30 8028 H 759.266 -3.63964 -2.03927 0
M  V30 8029 H 757.896 -2.49837 -2.04405 0
M  V30 8030 H 756.948 -3.80399 -0.00651901 0
M  V30 8031 H 758.26 -4.98279 -0.227941 0
M  V30 8032 H 757.414 -5.51794 -2.52206 0
M  V30 8033 H 756.153 -4.26181 -2.3711 0
M  V30 8034 H 755.158 -5.48225 -0.415876 0
M  V30 8035 H 756.383 -6.76548 -0.588135 0
M  V30 8036 H 754.329 -5.98258 -2.69115 0
M  V30 8037 H 754.246 -7.37495 -1.66246 0
M  V30 8038 H 755.514 -7.25697 -2.84576 0
M  V30 8039 N 759.743 -0.201713 -1.56304 0
M  V30 8040 C 761.159 0.154025 -1.58855 0
M  V30 8041 C 761.359 1.60516 -1.21807 0
M  V30 8042 O 760.415 2.34193 -0.94393 0
M  V30 8043 C 761.728 -0.154319 -3.00304 0
M  V30 8044 C 763.276 -0.0949578 -3.12856 0
M  V30 8045 C 763.751 -0.376703 -4.56448 0
M  V30 8046 N 765.242 -0.325558 -4.62054 0
M  V30 8047 C 765.977 -0.51732 -5.71062 0
M  V30 8048 N 765.473 -0.769789 -6.8851 0
M  V30 8049 N 767.266 -0.45112 -5.60287 0
M  V30 8050 H 759.417 -1.14858 -1.78666 0
M  V30 8051 H 761.68 -0.458934 -0.829508 0
M  V30 8052 H 761.386 -1.16074 -3.31994 0
M  V30 8053 H 761.26 0.540014 -3.73314 0
M  V30 8054 H 763.647 0.902075 -2.80974 0
M  V30 8055 H 763.728 -0.822468 -2.42217 0
M  V30 8056 H 763.372 -1.37108 -4.89044 0
M  V30 8057 H 763.302 0.371772 -5.25286 0
M  V30 8058 H 765.793 -0.137308 -3.7765 0
M  V30 8059 H 766.106 -0.904744 -7.67486 0
M  V30 8060 H 764.451 -0.806758 -6.90302 0
M  V30 8061 H 767.642 -0.254253 -4.67409 0
M  V30 8062 H 767.815 -0.603982 -6.45179 0
M  V30 8063 N 761.222 1.57436 0.0718424 0
M  V30 8064 C 762.471 1.86431 0.769826 0
M  V30 8065 C 762.784 0.794355 1.78744 0
M  V30 8066 O 763.99 0.972148 2.53499 0
M  V30 8067 C 762.446 3.307 1.42006 0
M  V30 8068 C 762.054 4.45824 0.441017 0
M  V30 8069 C 763.798 3.68894 2.10041 0
M  V30 8070 C 761.705 5.81134 1.09717 0
M  V30 8071 H 760.635 0.695474 0.291259 0
M  V30 8072 H 763.286 1.83485 0.0231224 0
M  V30 8073 H 761.668 3.28257 2.21502 0
M  V30 8074 H 762.842 4.59659 -0.32413 0
M  V30 8075 H 761.157 4.16181 -0.134886 0
M  V30 8076 H 763.754 4.67281 2.59908 0
M  V30 8077 H 764.097 2.98692 2.89981 0
M  V30 8078 H 764.63 3.73326 1.37376 0
M  V30 8079 H 761.369 6.54628 0.338095 0
M  V30 8080 H 760.889 5.711 1.83317 0
M  V30 8081 H 762.568 6.26468 1.617 0
M  V30 8082 N 762.7 -0.34323 1.53817 0
M  V30 8083 C 763.928 -1.10348 1.75017 0
M  V30 8084 C 764.343 -1.82345 0.489475 0
M  V30 8085 O 763.7 -1.74362 -0.538886 0
M  V30 8086 C 763.751 -2.11672 2.93048 0
M  V30 8087 O 763.472 -1.42603 4.14241 0
M  V30 8088 C 764.973 -3.0007 3.26301 0
M  V30 8089 H 762.193 -0.329056 0.584776 0
M  V30 8090 H 764.737 -0.395339 2.00642 0
M  V30 8091 H 762.892 -2.78051 2.69753 0
M  V30 8092 H 763.306 -2.10294 4.80496 0
M  V30 8093 H 764.78 -3.67101 4.12239 0
M  V30 8094 H 765.257 -3.66105 2.42618 0
M  V30 8095 H 765.863 -2.3928 3.51604 0
M  V30 8096 N 764.178 -1.45556 -0.604258 0
M  V30 8097 C 765.589 -1.44171 -1.18624 0
M  V30 8098 C 765.94 -0.171081 -1.95453 0
M  V30 8099 O 765.065 0.727156 -2.03817 0
M  V30 8100 C 765.66 -2.61193 -2.15786 0
M  V30 8101 C 764.219 -2.62918 -2.69353 0
M  V30 8102 C 763.366 -2.36479 -1.4482 0
M  V30 8103 H 766.317 -1.53747 -0.393381 0
M  V30 8104 H 766.338 -2.35481 -2.98879 0
M  V30 8105 H 765.85 -3.53656 -1.59841 0
M  V30 8106 H 763.951 -1.7447 -3.29228 0
M  V30 8107 H 764.064 -3.6224 -3.13559 0
M  V30 8108 H 762.428 -1.86103 -1.73891 0
M  V30 8109 H 763.211 -3.31091 -0.907376 0
M  V30 8110 N 765.656 0.84705 -1.32902 0
M  V30 8111 C 766.905 1.59667 -1.23245 0
M  V30 8112 C 767.218 1.94551 0.202349 0
M  V30 8113 O 768.424 2.68218 0.420847 0
M  V30 8114 C 766.88 2.8795 -2.15901 0
M  V30 8115 C 766.488 2.60461 -3.64505 0
M  V30 8116 C 768.232 3.65968 -2.15098 0
M  V30 8117 C 766.139 3.84791 -4.49099 0
M  V30 8118 H 765.069 0.599167 -0.457728 0
M  V30 8119 H 767.72 0.934662 -1.57912 0
M  V30 8120 H 766.102 3.55648 -1.74157 0
M  V30 8121 H 767.276 2.01026 -4.14639 0
M  V30 8122 H 765.591 1.9576 -3.67515 0
M  V30 8123 H 768.188 4.58241 -2.75534 0
M  V30 8124 H 768.531 4.00275 -1.14392 0
M  V30 8125 H 769.064 3.05184 -2.55162 0
M  V30 8126 H 765.803 3.55621 -5.50649 0
M  V30 8127 H 765.323 4.43594 -4.03713 0
M  V30 8128 H 767.002 4.52454 -4.62487 0
M  V30 8129 N 767.134 1.16236 1.06428 0
M  V30 8130 C 768.044 0.881976 2.1739 0
M  V30 8131 C 769.06 -0.145259 1.73393 0
M  V30 8132 O 770.236 0.0310558 2.01376 0
M  V30 8133 C 767.301 0.385496 3.4455 0
M  V30 8134 C 766.362 1.47779 4.03063 0
M  V30 8135 C 765.595 1.0049 5.24154 0
M  V30 8136 O 765.818 -0.145889 5.70213 0
M  V30 8137 O 764.752 1.79265 5.74585 0
M  V30 8138 H 768.578 1.80983 2.43883 0
M  V30 8139 H 766.163 0.942226 1.15942 0
M  V30 8140 H 768.045 0.115536 4.21242 0
M  V30 8141 H 766.72 -0.514369 3.19587 0
M  V30 8142 H 765.627 1.80147 3.27869 0
M  V30 8143 H 766.96 2.35291 4.32318 0
M  V30 8144 N 768.612 -1.24939 0.960631 0
M  V30 8145 C 769.84 -1.96881 0.636045 0
M  V30 8146 C 770.255 -1.71334 -0.793093 0
M  V30 8147 O 769.612 -0.992917 -1.53125 0
M  V30 8148 C 769.663 -3.50309 0.892533 0
M  V30 8149 O 769.384 -3.74977 2.26548 0
M  V30 8150 C 770.885 -4.39474 0.581159 0
M  V30 8151 H 768.105 -0.627399 0.237931 0
M  V30 8152 H 770.649 -1.58952 1.28664 0
M  V30 8153 H 768.804 -3.86326 0.288257 0
M  V30 8154 H 769.218 -4.69401 2.34014 0
M  V30 8155 H 770.692 -5.46008 0.811125 0
M  V30 8156 H 771.169 -4.3652 -0.48443 0
M  V30 8157 H 771.775 -4.09032 1.16502 0
M  V30 8158 N 770.09 -0.729906 -1.39679 0
M  V30 8159 C 771.02 -0.101618 -2.33279 0
M  V30 8160 C 772.001 0.729854 -1.53646 0
M  V30 8161 O 773.186 0.67587 -1.82059 0
M  V30 8162 C 770.316 0.81024 -3.37716 0
M  V30 8163 C 769.27 0.0833126 -4.27919 0
M  V30 8164 C 768.596 1.11185 -5.23012 0
M  V30 8165 C 769.896 -1.07107 -5.112 0
M  V30 8166 H 771.59 -0.883452 -2.86069 0
M  V30 8167 H 769.136 -0.426283 -1.37546 0
M  V30 8168 H 771.089 1.25927 -4.02145 0
M  V30 8169 H 769.813 1.62413 -2.83354 0
M  V30 8170 H 768.472 -0.346043 -3.64963 0
M  V30 8171 H 768.12 1.91917 -4.64948 0
M  V30 8172 H 767.82 0.63026 -5.8421 0
M  V30 8173 H 769.344 1.56068 -5.90318 0
M  V30 8174 H 770.758 -0.700726 -5.69002 0
M  V30 8175 H 769.155 -1.48196 -5.81514 0
M  V30 8176 H 770.225 -1.89513 -4.46332 0
M  V30 8177 N 771.568 1.50203 -0.477153 0
M  V30 8178 C 772.516 2.30278 0.327826 0
M  V30 8179 C 773.51 1.37831 0.984839 0
M  V30 8180 O 774.716 1.54994 0.915251 0
M  V30 8181 H 771.091 0.741612 0.124564 0
M  V30 8182 H 773.062 2.96124 -0.367853 0
M  V30 8183 C 771.811 3.18548 1.39365 0
M  V30 8184 H 771.134 3.89596 0.897475 0
M  V30 8185 H 772.574 3.77561 1.92934 0
M  V30 8186 C 771.033 2.36548 2.39889 0
M  V30 8187 O 771.563 2.05282 3.45286 0
M  V30 8188 N 769.769 1.99015 2.11758 0
M  V30 8189 H 769.316 2.24641 1.26071 0
M  V30 8190 H 769.274 1.44454 2.7925 0
M  V30 8191 N 773.046 0.209999 1.56195 0
M  V30 8192 C 773.996 -0.717978 2.164 0
M  V30 8193 C 774.98 -1.16577 1.10899 0
M  V30 8194 O 776.172 -1.12169 1.3692 0
M  V30 8195 C 773.301 -1.93091 2.8385 0
M  V30 8196 C 772.387 -1.50333 3.96561 0
M  V30 8197 N 772.778 -0.787621 4.9963 0
M  V30 8198 C 771.076 -1.79151 4.08437 0
M  V30 8199 C 771.777 -0.571204 5.78889 0
M  V30 8200 N 770.753 -1.12444 5.31843 0
M  V30 8201 H 774.555 -0.162603 2.9345 0
M  V30 8202 H 772.069 0.0107928 1.62396 0
M  V30 8203 H 774.066 -2.60635 3.25384 0
M  V30 8204 H 772.726 -2.49087 2.08293 0
M  V30 8205 H 773.737 -0.441513 5.16015 0
M  V30 8206 H 770.414 -2.36549 3.44022 0
M  V30 8207 H 771.804 -0.00237941 6.719 0
M  V30 8208 N 774.524 -1.57472 -0.0634922 0
M  V30 8209 C 775.935 -1.76303 -0.614337 0
M  V30 8210 C 776.286 -0.836578 -1.77471 0
M  V30 8211 O 775.411 -0.0227184 -2.16388 0
M  V30 8212 C 776.006 -3.19709 -1.12122 0
M  V30 8213 C 774.565 -3.39856 -1.61786 0
M  V30 8214 C 773.712 -2.71975 -0.540845 0
M  V30 8215 H 776.663 -1.57864 0.162702 0
M  V30 8216 H 776.684 -3.24326 -1.98979 0
M  V30 8217 H 776.196 -3.87114 -0.276472 0
M  V30 8218 H 774.297 -2.77578 -2.48558 0
M  V30 8219 H 774.41 -4.48338 -1.68908 0
M  V30 8220 H 772.774 -2.34763 -0.987854 0
M  V30 8221 H 773.557 -3.4204 0.293856 0
M  V30 8222 N 776.003 0.335068 -1.53997 0
M  V30 8223 C 777.25 1.07435 -1.71651 0
M  V30 8224 C 777.578 1.88378 -0.48413 0
M  V30 8225 O 776.833 1.8827 0.534139 0
M  V30 8226 C 777.132 2.0364 -2.9371 0
M  V30 8227 C 776.798 1.38942 -4.28959 0
M  V30 8228 C 775.46 1.21027 -4.65732 0
M  V30 8229 C 777.812 0.924083 -5.12943 0
M  V30 8230 C 775.14 0.552097 -5.84097 0
M  V30 8231 C 777.492 0.27978 -6.31981 0
M  V30 8232 C 776.156 0.0883843 -6.67441 0
M  V30 8233 H 775.426 0.393133 -0.628114 0
M  V30 8234 H 778.073 0.352712 -1.88224 0
M  V30 8235 H 776.378 2.82215 -2.71775 0
M  V30 8236 H 778.075 2.6085 -3.04562 0
M  V30 8237 H 774.665 1.53885 -4.00022 0
M  V30 8238 H 778.849 1.05032 -4.85059 0
M  V30 8239 H 774.105 0.392502 -6.10139 0
M  V30 8240 H 778.279 -0.0888479 -6.96343 0
M  V30 8241 H 775.906 -0.423657 -7.59019 0
M  V30 8242 N 777.481 1.45874 0.596531 0
M  V30 8243 C 778.727 1.5069 1.35722 0
M  V30 8244 C 779.06 0.152506 1.936 0
M  V30 8245 O 778.335 -0.834411 1.75692 0
M  V30 8246 C 778.618 2.59474 2.4969 0
M  V30 8247 C 778.471 4.04396 1.96937 0
M  V30 8248 C 779.79 2.64451 3.51787 0
M  V30 8249 H 776.909 0.548611 0.492133 0
M  V30 8250 H 779.551 1.77741 0.671428 0
M  V30 8251 H 777.701 2.36539 3.08191 0
M  V30 8252 H 779.373 4.38576 1.43 0
M  V30 8253 H 777.616 4.14529 1.27859 0
M  V30 8254 H 778.287 4.76218 2.79143 0
M  V30 8255 H 780.763 2.85031 3.03145 0
M  V30 8256 H 779.639 3.42411 4.29006 0
M  V30 8257 H 779.9 1.69965 4.08123 0
M  V30 8258 N 778.959 -0.83999 1.33349 0
M  V30 8259 C 780.187 -1.62728 1.27778 0
M  V30 8260 C 780.602 -1.88191 -0.151505 0
M  V30 8261 O 779.959 -1.46128 -1.09329 0
M  V30 8262 C 780.01 -2.97813 2.04913 0
M  V30 8263 O 779.731 -2.73469 3.42266 0
M  V30 8264 C 781.232 -3.92245 2.0654 0
M  V30 8265 H 778.452 -0.506374 0.440257 0
M  V30 8266 H 780.996 -1.04637 1.75703 0
M  V30 8267 H 779.151 -3.52509 1.60674 0
M  V30 8268 H 779.565 -3.59483 3.81932 0
M  V30 8269 H 781.039 -4.84249 2.64966 0
M  V30 8270 H 781.516 -4.26332 1.05537 0
M  V30 8271 H 782.122 -3.43487 2.50793 0
M  V30 8272 N 780.437 -1.16799 -1.0581 0
M  V30 8273 C 781.37 -0.822491 -2.12862 0
M  V30 8274 C 782.348 0.208006 -1.61264 0
M  V30 8275 O 783.532 0.0909652 -1.8828 0
M  V30 8276 C 780.659 -0.225826 -3.37946 0
M  V30 8277 C 779.705 -1.23071 -4.08357 0
M  V30 8278 S 780.538 -2.77944 -4.5772 0
M  V30 8279 C 781.694 -2.19741 -5.86059 0
M  V30 8280 H 781.927 -1.72917 -2.41841 0
M  V30 8281 H 779.46 -0.991982 -1.18318 0
M  V30 8282 H 781.418 0.111955 -4.10347 0
M  V30 8283 H 780.079 0.658692 -3.07116 0
M  V30 8284 H 779.272 -0.761758 -4.9821 0
M  V30 8285 H 778.874 -1.51383 -3.41993 0
M  V30 8286 H 781.166 -1.5691 -6.59079 0
M  V30 8287 H 782.109 -3.07823 -6.37692 0
M  V30 8288 H 782.517 -1.63433 -5.40324 0
M  V30 8289 N 781.915 1.24427 -0.967243 0
M  V30 8290 C 783.143 1.96541 -0.646477 0
M  V30 8291 C 783.558 1.71753 0.783996 0
M  V30 8292 O 782.915 1.00102 1.52597 0
M  V30 8293 C 782.966 3.4983 -0.911098 0
M  V30 8294 O 782.687 3.7377 -2.28534 0
M  V30 8295 C 784.188 4.3916 -0.604458 0
M  V30 8296 H 781.408 0.626129 -0.241255 0
M  V30 8297 H 783.952 1.58268 -1.29505 0
M  V30 8298 H 782.107 3.86168 -0.308741 0
M  V30 8299 H 782.521 4.68154 -2.365 0
M  V30 8300 H 783.995 5.4557 -0.840069 0
M  V30 8301 H 784.472 4.36771 0.461273 0
M  V30 8302 H 785.078 4.08409 -1.1867 0
M  V30 8303 N 783.393 0.737304 1.3929 0
M  V30 8304 C 784.343 0.0748537 2.27877 0
M  V30 8305 C 785.327 -0.71022 1.44377 0
M  V30 8306 O 786.519 -0.578851 1.67267 0
M  V30 8307 C 783.648 -0.82991 3.33118 0
M  V30 8308 C 782.734 -0.0388619 4.24082 0
M  V30 8309 N 783.125 0.989182 4.96033 0
M  V30 8310 C 781.423 -0.268167 4.45193 0
M  V30 8311 C 782.124 1.46639 5.62914 0
M  V30 8312 N 781.1 0.784581 5.37908 0
M  V30 8313 H 784.902 0.862457 2.80961 0
M  V30 8314 H 782.416 0.571845 1.51999 0
M  V30 8315 H 784.413 -1.31999 3.95452 0
M  V30 8316 H 783.073 -1.61665 2.81593 0
M  V30 8317 H 784.084 1.3706 4.99435 0
M  V30 8318 H 780.761 -1.02953 4.04607 0
M  V30 8319 H 782.151 2.32182 6.30508 0
M  V30 8320 N 784.871 -1.49948 0.485112 0
M  V30 8321 C 785.801 -2.31675 -0.291364 0
M  V30 8322 C 786.782 -1.39216 -0.977383 0
M  V30 8323 O 787.967 -1.68133 -0.971855 0
M  V30 8324 C 785.097 -3.19326 -1.36558 0
M  V30 8325 C 784.051 -4.2045 -0.800359 0
M  V30 8326 C 783.377 -4.96931 -1.97391 0
M  V30 8327 C 784.677 -5.21925 0.197867 0
M  V30 8328 H 786.371 -2.96839 0.390775 0
M  V30 8329 H 783.917 -1.42749 0.189375 0
M  V30 8330 H 785.87 -3.75304 -1.91638 0
M  V30 8331 H 784.594 -2.52074 -2.07668 0
M  V30 8332 H 783.253 -3.65594 -0.271428 0
M  V30 8333 H 782.901 -4.26141 -2.67232 0
M  V30 8334 H 782.601 -5.65344 -1.60187 0
M  V30 8335 H 784.125 -5.55749 -2.52935 0
M  V30 8336 H 785.539 -5.72691 -0.264239 0
M  V30 8337 H 783.936 -5.98138 0.484908 0
M  V30 8338 H 785.006 -4.71809 1.11912 0
M  V30 8339 N 786.349 -0.21828 -1.56081 0
M  V30 8340 C 787.279 0.687922 -2.23136 0
M  V30 8341 C 788.26 1.20357 -1.202 0
M  V30 8342 O 789.445 1.24817 -1.48776 0
M  V30 8343 C 786.575 1.89762 -2.90874 0
M  V30 8344 C 785.529 1.51595 -4.00254 0
M  V30 8345 C 784.855 2.80415 -4.55271 0
M  V30 8346 C 786.155 0.708404 -5.17474 0
M  V30 8347 H 787.849 0.128854 -2.99123 0
M  V30 8348 H 785.395 0.0605354 -1.43873 0
M  V30 8349 H 787.348 2.53699 -3.36474 0
M  V30 8350 H 786.072 2.4816 -2.1233 0
M  V30 8351 H 784.731 0.900058 -3.55379 0
M  V30 8352 H 784.379 3.36951 -3.73461 0
M  V30 8353 H 784.079 2.55613 -5.2909 0
M  V30 8354 H 785.603 3.453 -5.03587 0
M  V30 8355 H 787.017 1.2514 -5.59476 0
M  V30 8356 H 785.414 0.557593 -5.97504 0
M  V30 8357 H 786.484 -0.285679 -4.84058 0
M  V30 8358 N 787.827 1.57504 0.0551401 0
M  V30 8359 C 789.104 1.79155 0.785048 0
M  V30 8360 C 789.484 0.809995 1.94942 0
M  V30 8361 O 788.832 -0.153432 2.27984 0
M  V30 8362 C 789.042 3.26134 1.24247 0
M  V30 8363 C 790.39 3.90419 1.66908 0
M  V30 8364 O 791.414 3.30126 1.33772 0
M  V30 8365 O 790.273 4.96523 2.28314 0
M  V30 8366 H 787.367 0.735825 0.377479 0
M  V30 8367 H 789.913 1.69666 0.0339285 0
M  V30 8368 H 788.685 3.89145 0.410089 0
M  V30 8369 H 788.308 3.40411 2.05441 0
M  V30 8370 N 789.305 -0.326896 1.54172 0
M  V30 8371 C 790.552 -1.06523 1.72218 0
M  V30 8372 C 790.88 -1.88119 0.494114 0
M  V30 8373 O 790.135 -1.8855 -0.524147 0
M  V30 8374 C 790.434 -2.0208 2.94785 0
M  V30 8375 C 790.1 -1.36665 4.2969 0
M  V30 8376 C 788.762 -1.18556 4.66367 0
M  V30 8377 C 791.114 -0.896868 5.13425 0
M  V30 8378 C 788.442 -0.521113 5.84381 0
M  V30 8379 C 790.794 -0.246261 6.3212 0
M  V30 8380 C 789.458 -0.052987 6.67479 0
M  V30 8381 H 788.728 -0.389796 0.63019 0
M  V30 8382 H 791.375 -0.342725 1.88408 0
M  V30 8383 H 789.68 -2.8077 2.73268 0
M  V30 8384 H 791.377 -2.59231 3.05941 0
M  V30 8385 H 787.967 -1.51762 4.00832 0
M  V30 8386 H 792.151 -1.02458 4.85609 0
M  V30 8387 H 787.407 -0.36014 6.10338 0
M  V30 8388 H 791.581 0.125775 6.96286 0
M  V30 8389 H 789.208 0.463903 7.58783 0
M  V30 8390 N 790.784 -1.46188 -0.588786 0
M  V30 8391 C 792.195 -1.45421 -1.17088 0
M  V30 8392 C 792.546 -0.191801 -1.9526 0
M  V30 8393 O 791.671 0.705497 -2.04577 0
M  V30 8394 C 792.266 -2.63467 -2.13004 0
M  V30 8395 C 790.825 -2.6576 -2.6655 0
M  V30 8396 C 789.972 -2.38002 -1.42304 0
M  V30 8397 H 792.923 -1.54156 -0.377052 0
M  V30 8398 H 792.944 -2.38638 -2.96365 0
M  V30 8399 H 792.456 -3.55331 -1.56081 0
M  V30 8400 H 790.557 -1.77952 -3.27359 0
M  V30 8401 H 790.67 -3.65545 -3.09699 0
M  V30 8402 H 789.034 -1.87936 -1.71907 0
M  V30 8403 H 789.817 -3.32035 -0.872209 0
M  V30 8404 N 792.262 0.832906 -1.33792 0
M  V30 8405 C 793.212 1.93178 -1.21105 0
M  V30 8406 C 794.196 1.60506 -0.112491 0
M  V30 8407 O 795.388 1.73681 -0.341179 0
M  V30 8408 C 792.517 3.29647 -0.958526 0
M  V30 8409 C 791.603 3.68469 -2.0998 0
M  V30 8410 N 791.994 3.78936 -3.35024 0
M  V30 8411 C 790.292 3.98249 -2.00782 0
M  V30 8412 C 790.993 4.12731 -4.09912 0
M  V30 8413 N 789.969 4.25419 -3.38407 0
M  V30 8414 H 793.771 1.99434 -2.15878 0
M  V30 8415 H 791.285 1.02598 -1.25886 0
M  V30 8416 H 793.282 4.08173 -0.848552 0
M  V30 8417 H 791.942 3.24694 -0.019387 0
M  V30 8418 H 792.953 3.62688 -3.69699 0
M  V30 8419 H 789.63 4.01474 -1.14564 0
M  V30 8420 H 791.02 4.28117 -5.17847 0
M  V30 8421 N 793.74 1.17359 1.05189 0
M  V30 8422 C 794.965 0.98709 1.82404 0
M  V30 8423 C 795.39 -0.459848 1.82392 0
M  V30 8424 O 794.748 -1.32924 1.23292 0
M  V30 8425 C 794.796 1.53276 3.26403 0
M  V30 8426 O 793.9 0.746541 4.05587 0
M  V30 8427 H 793.241 0.35047 0.563974 0
M  V30 8428 H 795.771 1.55856 1.32552 0
M  V30 8429 H 795.781 1.55504 3.77203 0
M  V30 8430 H 794.456 2.58603 3.25726 0
M  V30 8431 H 793.033 0.795671 3.64312 0
M  V30 8432 N 795.218 -1.23913 0.973828 0
M  V30 8433 C 796.446 -1.96195 0.656891 0
M  V30 8434 C 796.861 -1.72166 -0.774876 0
M  V30 8435 O 796.218 -1.0091 -1.52064 0
M  V30 8436 C 796.269 -3.49342 0.929638 0
M  V30 8437 O 795.99 -3.72553 2.30512 0
M  V30 8438 C 797.491 -4.38833 0.627739 0
M  V30 8439 H 794.711 -0.624841 0.244572 0
M  V30 8440 H 797.255 -1.57579 1.30343 0
M  V30 8441 H 795.41 -3.85999 0.329216 0
M  V30 8442 H 795.824 -4.66893 2.3898 0
M  V30 8443 H 797.298 -5.45117 0.868991 0
M  V30 8444 H 797.775 -4.37009 -0.438104 0
M  V30 8445 H 798.381 -4.07773 1.20834 0
M  V30 8446 N 796.696 -0.74468 -1.38897 0
M  V30 8447 C 797.646 -0.0869375 -2.27834 0
M  V30 8448 C 798.63 0.702553 -1.44751 0
M  V30 8449 O 799.822 0.569972 -1.67572 0
M  V30 8450 C 796.951 0.812232 -3.33553 0
M  V30 8451 C 796.037 0.0163713 -4.24097 0
M  V30 8452 N 796.428 -1.01547 -4.95502 0
M  V30 8453 C 794.726 0.244554 -4.45329 0
M  V30 8454 C 795.427 -1.49622 -5.62128 0
M  V30 8455 N 794.403 -0.813097 -5.37485 0
M  V30 8456 H 798.205 -0.877345 -2.80499 0
M  V30 8457 H 795.719 -0.579898 -1.51694 0
M  V30 8458 H 797.716 1.299 -3.96146 0
M  V30 8459 H 796.376 1.60169 -2.82446 0
M  V30 8460 H 797.387 -1.39707 -4.98701 0
M  V30 8461 H 794.064 1.00806 -4.05147 0
M  V30 8462 H 795.454 -2.35523 -6.29268 0
M  V30 8463 N 798.174 1.49689 -0.493057 0
M  V30 8464 C 799.42 2.02727 0.0543518 0
M  V30 8465 C 799.753 1.37264 1.37376 0
M  V30 8466 O 799.028 0.505644 1.87812 0
M  V30 8467 C 799.311 3.59456 0.215226 0
M  V30 8468 C 799.164 4.35459 -1.12675 0
M  V30 8469 C 800.483 4.29511 0.959586 0
M  V30 8470 H 797.602 0.736773 0.0182786 0
M  V30 8471 H 800.244 1.78792 -0.642924 0
M  V30 8472 H 798.394 3.79981 0.809122 0
M  V30 8473 H 800.066 4.2645 -1.75891 0
M  V30 8474 H 798.309 3.9833 -1.71801 0
M  V30 8475 H 798.98 5.43454 -0.967578 0
M  V30 8476 H 801.456 4.13594 0.455977 0
M  V30 8477 H 800.332 5.38939 1.04098 0
M  V30 8478 H 800.593 3.94202 2.00144 0
M  V30 8479 N 799.652 0.226554 1.55963 0
M  V30 8480 C 800.599 -0.681504 2.20509 0
M  V30 8481 C 801.569 -1.1866 1.16229 0
M  V30 8482 O 802.754 -1.24478 1.44602 0
M  V30 8483 C 799.894 -1.88183 2.89277 0
M  V30 8484 C 799.007 -1.41517 4.08163 0
M  V30 8485 C 798.142 -2.57346 4.647 0
M  V30 8486 C 797.181 -2.07441 5.75877 0
M  V30 8487 N 796.318 -3.16561 6.26685 0
M  V30 8488 H 801.158 -0.124372 2.9774 0
M  V30 8489 H 798.695 -0.0496333 1.47016 0
M  V30 8490 H 800.653 -2.58666 3.27335 0
M  V30 8491 H 799.283 -2.41177 2.14555 0
M  V30 8492 H 798.335 -0.605099 3.75557 0
M  V30 8493 H 799.647 -1.00928 4.88482 0
M  V30 8494 H 798.801 -3.35903 5.05227 0
M  V30 8495 H 797.54 -3.01227 3.83554 0
M  V30 8496 H 796.545 -1.27347 5.34848 0
M  V30 8497 H 797.77 -1.64554 6.58862 0
M  V30 8498 H 795.716 -3.59914 5.48451 0
M  V30 8499 H 795.633 -2.80239 7.02141 0
M  V30 8500 H 796.901 -3.95238 6.71868 0
M  V30 8501 N 801.13 -1.57531 -0.0467866 0
M  V30 8502 C 802.355 -1.93087 -0.757123 0
M  V30 8503 C 802.78 -0.825116 -1.69037 0
M  V30 8504 O 802.138 0.220449 -1.79955 0
M  V30 8505 C 802.186 -3.27669 -1.5055 0
M  V30 8506 O 801.29 -3.18667 -2.61773 0
M  V30 8507 H 800.631 -0.631597 -0.204892 0
M  V30 8508 H 803.161 -2.04599 -0.00755232 0
M  V30 8509 H 803.171 -3.6214 -1.87932 0
M  V30 8510 H 801.846 -4.07717 -0.820931 0
M  V30 8511 H 800.423 -2.95798 -2.27064 0
M  V30 8512 N 802.608 0.318715 -1.54344 0
M  V30 8513 C 803.848 1.06425 -1.74508 0
M  V30 8514 C 804.212 1.85087 -0.510572 0
M  V30 8515 O 805.413 2.62253 -0.589647 0
M  V30 8516 C 803.684 1.96054 -2.98827 0
M  V30 8517 S 805.243 2.77493 -3.39916 0
M  V30 8518 H 802.061 0.35921 -0.613587 0
M  V30 8519 H 804.663 0.339679 -1.92526 0
M  V30 8520 H 803.367 1.37109 -3.8682 0
M  V30 8521 H 802.898 2.72908 -2.83346 0
M  V30 8522 H 804.913 3.98544 -2.95596 0
M  V30 8523 N 804.086 1.46499 0.581025 0
M  V30 8524 C 805.333 1.51896 1.33918 0
M  V30 8525 C 805.661 0.171361 1.93744 0
M  V30 8526 O 804.916 -0.833178 1.77078 0
M  V30 8527 C 805.215 2.56686 2.48691 0
M  V30 8528 C 804.881 4.00656 2.06847 0
M  V30 8529 C 803.543 4.39852 1.9515 0
M  V30 8530 C 805.895 4.91089 1.74589 0
M  V30 8531 C 803.223 5.67345 1.49456 0
M  V30 8532 C 805.575 6.1902 1.30373 0
M  V30 8533 C 804.239 6.57121 1.17255 0
M  V30 8534 H 803.509 0.555826 0.490039 0
M  V30 8535 H 806.156 1.79983 0.654092 0
M  V30 8536 H 804.461 2.22266 3.22653 0
M  V30 8537 H 806.158 2.58091 3.06904 0
M  V30 8538 H 802.748 3.69674 2.16886 0
M  V30 8539 H 806.932 4.61523 1.8251 0
M  V30 8540 H 802.188 5.95635 1.37944 0
M  V30 8541 H 806.362 6.8852 1.04467 0
M  V30 8542 H 803.989 7.55805 0.816236 0
M  V30 8543 N 805.565 -0.825799 1.34232 0
M  V30 8544 C 806.497 -1.94401 1.21413 0
M  V30 8545 C 807.51 -1.6218 0.141902 0
M  V30 8546 O 808.699 -1.74109 0.3935 0
M  V30 8547 C 805.799 -3.28257 0.842635 0
M  V30 8548 C 804.972 -3.88521 2.00924 0
M  V30 8549 C 804.031 -5.00752 1.61661 0
M  V30 8550 O 803.057 -5.19201 2.33279 0
M  V30 8551 N 804.259 -5.78084 0.52911 0
M  V30 8552 H 807.024 -2.05931 2.17744 0
M  V30 8553 H 804.585 -1.00223 1.27149 0
M  V30 8554 H 806.577 -4.00781 0.561822 0
M  V30 8555 H 805.147 -3.12585 -0.0304029 0
M  V30 8556 H 804.367 -3.08425 2.45495 0
M  V30 8557 H 805.655 -4.25516 2.78951 0
M  V30 8558 H 805.053 -5.65661 -0.0663322 0
M  V30 8559 H 803.61 -6.51072 0.308017 0
M  V30 8560 N 807.043 -1.17915 -1.04565 0
M  V30 8561 C 807.991 -0.897919 -2.1457 0
M  V30 8562 C 808.985 0.139883 -1.68821 0
M  V30 8563 O 810.191 -0.00779463 -1.79998 0
M  V30 8564 H 806.566 -0.272867 -0.700748 0
M  V30 8565 H 808.537 -1.83268 -2.3549 0
M  V30 8566 C 807.286 -0.434634 -3.44973 0
M  V30 8567 H 806.609 -1.22469 -3.8058 0
M  V30 8568 H 808.049 -0.276804 -4.23095 0
M  V30 8569 C 806.508 0.848738 -3.26034 0
M  V30 8570 O 807.038 1.9141 -3.53164 0
M  V30 8571 N 805.244 0.799373 -2.79389 0
M  V30 8572 H 804.791 -0.0678192 -2.57511 0
M  V30 8573 H 804.749 1.6585 -2.67098 0
M  V30 8574 N 808.521 1.23394 -0.980386 0
M  V30 8575 C 809.454 2.23404 -0.465404 0
M  V30 8576 C 810.432 1.55735 0.467471 0
M  V30 8577 O 811.616 1.84295 0.395921 0
M  V30 8578 C 808.743 3.3712 0.32672 0
M  V30 8579 C 807.789 4.22935 -0.550296 0
M  V30 8580 S 808.622 4.96824 -1.99814 0
M  V30 8581 C 809.778 6.13991 -1.21516 0
M  V30 8582 H 810.011 2.6674 -1.31289 0
M  V30 8583 H 807.544 1.32874 -0.78638 0
M  V30 8584 H 809.502 4.03065 0.777738 0
M  V30 8585 H 808.163 2.92317 1.14933 0
M  V30 8586 H 807.356 5.03966 0.0585298 0
M  V30 8587 H 806.958 3.62058 -0.937558 0
M  V30 8588 H 809.25 6.75822 -0.476476 0
M  V30 8589 H 810.193 6.7926 -2.0003 0
M  V30 8590 H 810.601 5.59708 -0.733949 0
M  V30 8591 N 809.999 0.752036 1.385 0
M  V30 8592 C 810.909 0.125318 2.34265 0
M  V30 8593 C 811.925 -0.702437 1.59191 0
M  V30 8594 O 813.101 -0.626951 1.91393 0
M  V30 8595 C 810.166 -0.758486 3.38301 0
M  V30 8596 C 809.227 0.0834636 4.29219 0
M  V30 8597 C 808.46 -0.758252 5.28286 0
M  V30 8598 O 808.683 -1.99632 5.34325 0
M  V30 8599 O 807.617 -0.177878 6.01637 0
M  V30 8600 H 811.443 0.91617 2.89551 0
M  V30 8601 H 809.028 0.512911 1.4032 0
M  V30 8602 H 810.91 -1.26365 4.02007 0
M  V30 8603 H 809.585 -1.52786 2.85374 0
M  V30 8604 H 808.492 0.634545 3.68679 0
M  V30 8605 H 809.825 0.815455 4.85398 0
M  V30 8606 N 811.477 -1.49425 0.500989 0
M  V30 8607 C 812.726 -2.01649 -0.04538 0
M  V30 8608 C 813.039 -1.38572 -1.38047 0
M  V30 8609 O 814.245 -1.82124 -2.01353 0
M  V30 8610 C 812.701 -3.5966 -0.131337 0
M  V30 8611 C 812.309 -4.3171 1.19711 0
M  V30 8612 C 814.053 -4.19828 -0.628071 0
M  V30 8613 C 811.96 -5.81579 1.07332 0
M  V30 8614 H 810.89 -0.753715 -0.0207329 0
M  V30 8615 H 813.541 -1.71962 0.640407 0
M  V30 8616 H 811.923 -3.86063 -0.881574 0
M  V30 8617 H 813.097 -4.17008 1.96064 0
M  V30 8618 H 811.412 -3.83286 1.62729 0
M  V30 8619 H 814.009 -5.2958 -0.738198 0
M  V30 8620 H 814.352 -3.83194 -1.6269 0
M  V30 8621 H 814.885 -3.97746 0.0656314 0
M  V30 8622 H 811.624 -6.22738 2.04642 0
M  V30 8623 H 811.144 -5.98774 0.350679 0
M  V30 8624 H 812.823 -6.42614 0.752047 0
M  V30 8625 N 812.955 -0.234822 -1.55841 0
M  V30 8626 C 814.195 0.394944 -2.00548 0
M  V30 8627 C 814.559 1.56002 -1.11926 0
M  V30 8628 O 815.76 2.2567 -1.46037 0
M  V30 8629 C 814.031 0.805896 -3.48195 0
M  V30 8630 S 815.59 1.4279 -4.14918 0
M  V30 8631 H 812.408 0.124802 -0.699961 0
M  V30 8632 H 815.01 -0.347224 -1.92392 0
M  V30 8633 H 813.714 -0.0515271 -4.10368 0
M  V30 8634 H 813.245 1.58055 -3.60253 0
M  V30 8635 H 815.26 2.71699 -4.15204 0
M  V30 8636 N 814.433 1.57553 0.0384317 0
M  V30 8637 C 815.38 2.05942 1.04194 0
M  V30 8638 C 816.35 0.946637 1.36484 0
M  V30 8639 O 817.535 1.21658 1.46983 0
M  V30 8640 C 814.675 2.53588 2.34066 0
M  V30 8641 C 813.788 3.7862 2.08017 0
M  V30 8642 C 812.923 4.14915 3.31692 0
M  V30 8643 C 811.962 5.32891 3.01155 0
M  V30 8644 N 811.099 5.64662 4.17254 0
M  V30 8645 H 815.939 2.91429 0.622341 0
M  V30 8646 H 813.476 1.44098 0.295684 0
M  V30 8647 H 815.434 2.79276 3.09937 0
M  V30 8648 H 814.064 1.71031 2.73767 0
M  V30 8649 H 813.116 3.60073 1.22686 0
M  V30 8650 H 814.428 4.64613 1.81484 0
M  V30 8651 H 813.582 4.41681 4.15936 0
M  V30 8652 H 812.321 3.27555 3.6133 0
M  V30 8653 H 811.326 5.05887 2.15311 0
M  V30 8654 H 812.551 6.21896 2.72804 0
M  V30 8655 H 810.497 4.80261 4.46861 0
M  V30 8656 H 810.414 6.45145 3.94112 0
M  V30 8657 H 811.682 5.96 5.02399 0
M  V30 8658 N 815.911 -0.310526 1.54511 0
M  V30 8659 C 817.327 -0.655637 1.45511 0
M  V30 8660 C 817.527 -1.91114 0.638564 0
M  V30 8661 O 816.583 -2.52098 0.142497 0
M  V30 8662 C 817.896 -0.817501 2.89374 0
M  V30 8663 C 819.444 -0.914003 2.99358 0
M  V30 8664 C 819.919 -1.10794 4.44397 0
M  V30 8665 N 821.41 -1.17437 4.48066 0
M  V30 8666 C 822.145 -1.34255 5.57461 0
M  V30 8667 N 821.641 -1.48032 6.768 0
M  V30 8668 N 823.434 -1.37067 5.45132 0
M  V30 8669 H 815.585 0.514506 2.06074 0
M  V30 8670 H 817.848 0.168478 0.932909 0
M  V30 8671 H 817.554 0.034003 3.51684 0
M  V30 8672 H 817.428 -1.7094 3.36243 0
M  V30 8673 H 819.815 -1.756 2.37168 0
M  V30 8674 H 819.896 0.00170958 2.558 0
M  V30 8675 H 819.54 -0.270743 5.07178 0
M  V30 8676 H 819.47 -2.03773 4.85576 0
M  V30 8677 H 821.961 -1.08181 3.62084 0
M  V30 8678 H 822.274 -1.60593 7.5593 0
M  V30 8679 H 820.619 -1.45105 6.79683 0
M  V30 8680 H 823.81 -1.25909 4.50849 0
M  V30 8681 H 823.983 -1.49831 6.3044 0
M  V30 8682 N 817.389 -1.46805 -0.573248 0
M  V30 8683 C 818.805 -1.31969 -0.897577 0
M  V30 8684 C 819.005 -0.298171 -1.99282 0
M  V30 8685 O 818.061 0.295953 -2.5076 0
M  V30 8686 C 819.374 -2.70859 -1.30598 0
M  V30 8687 C 820.922 -2.79022 -1.4183 0
M  V30 8688 C 821.397 -4.18516 -1.86033 0
M  V30 8689 N 822.888 -4.2098 -1.9321 0
M  V30 8690 C 823.623 -5.25814 -2.28707 0
M  V30 8691 N 823.119 -6.40968 -2.6293 0
M  V30 8692 N 824.912 -5.13184 -2.29343 0
M  V30 8693 H 817.063 -2.11869 0.150094 0
M  V30 8694 H 819.326 -0.947989 0.00447895 0
M  V30 8695 H 819.032 -3.46965 -0.575161 0
M  V30 8696 H 818.906 -3.01585 -2.26554 0
M  V30 8697 H 821.293 -2.03198 -2.13996 0
M  V30 8698 H 821.374 -2.51969 -0.441024 0
M  V30 8699 H 821.018 -4.94839 -1.14442 0
M  V30 8700 H 820.948 -4.42982 -2.84735 0
M  V30 8701 H 823.439 -3.37898 -1.69214 0
M  V30 8702 H 823.752 -7.16729 -2.88996 0
M  V30 8703 H 822.097 -6.44314 -2.60547 0
M  V30 8704 H 825.288 -4.22255 -2.02036 0
M  V30 8705 H 825.461 -5.94996 -2.56679 0
M  V30 8706 N 818.867 0.818669 -1.34668 0
M  V30 8707 C 820.113 1.57746 -1.27453 0
M  V30 8708 C 820.446 1.93588 0.154077 0
M  V30 8709 O 819.721 1.60371 1.10051 0
M  V30 8710 C 820.004 2.87414 -2.16945 0
M  V30 8711 C 819.857 2.58125 -3.68363 0
M  V30 8712 C 821.176 3.89021 -2.05792 0
M  V30 8713 H 818.295 0.572339 -0.464324 0
M  V30 8714 H 820.937 0.942784 -1.64959 0
M  V30 8715 H 819.087 3.41576 -1.85089 0
M  V30 8716 H 820.759 2.10239 -4.10606 0
M  V30 8717 H 819.002 1.91503 -3.89242 0
M  V30 8718 H 819.673 3.5061 -4.26353 0
M  V30 8719 H 822.149 3.44224 -2.33771 0
M  V30 8720 H 821.025 4.77548 -2.70628 0
M  V30 8721 H 821.286 4.29786 -1.03618 0
M  V30 8722 N 820.346 1.18468 1.03938 0
M  V30 8723 C 821.294 0.909286 2.14091 0
M  V30 8724 C 822.288 -0.130928 1.68893 0
M  V30 8725 O 823.494 0.0173403 1.79992 0
M  V30 8726 H 819.869 0.27658 0.699291 0
M  V30 8727 H 821.84 1.84514 2.34515 0
M  V30 8728 C 820.589 0.452922 3.44737 0
M  V30 8729 H 819.912 1.24485 3.79926 0
M  V30 8730 H 821.352 0.299238 4.22943 0
M  V30 8731 C 819.811 -0.831435 3.26479 0
M  V30 8732 O 820.341 -1.89535 3.54174 0
M  V30 8733 N 818.547 -0.784545 2.79809 0
M  V30 8734 H 818.094 0.0814746 2.57471 0
M  V30 8735 H 818.052 -1.64431 2.67973 0
M  V30 8736 N 821.824 -1.22873 0.986916 0
M  V30 8737 C 822.757 -2.23154 0.477245 0
M  V30 8738 C 823.735 -1.55981 -0.459206 0
M  V30 8739 O 824.919 -1.84503 -0.386141 0
M  V30 8740 C 822.046 -3.37289 -0.308838 0
M  V30 8741 C 821.092 -4.22637 0.572717 0
M  V30 8742 S 821.925 -4.95758 2.02446 0
M  V30 8743 C 823.081 -6.13338 1.2477 0
M  V30 8744 H 823.314 -2.6604 1.32702 0
M  V30 8745 H 820.847 -1.32455 0.793415 0
M  V30 8746 H 822.805 -4.03472 -0.756351 0
M  V30 8747 H 821.466 -2.92922 -1.13381 0
M  V30 8748 H 820.659 -5.0399 -0.0318024 0
M  V30 8749 H 820.261 -3.61555 0.956746 0
M  V30 8750 H 822.553 -6.7556 0.51231 0
M  V30 8751 H 823.496 -6.78189 2.03629 0
M  V30 8752 H 823.904 -5.59311 0.763622 0
M  V30 8753 N 823.302 -0.75937 -1.38099 0
M  V30 8754 C 824.532 -0.328634 -2.0397 0
M  V30 8755 C 824.94 1.04989 -1.57398 0
M  V30 8756 O 824.283 1.67918 -0.744932 0
M  V30 8757 C 824.345 -0.279216 -3.58414 0
M  V30 8758 C 824.009 -1.60025 -4.28067 0
M  V30 8759 C 825.006 -2.55048 -4.53041 0
M  V30 8760 C 822.691 -1.87128 -4.66142 0
M  V30 8761 C 824.685 -3.7539 -5.15132 0
M  V30 8762 C 822.372 -3.07742 -5.27956 0
M  V30 8763 C 823.37 -4.01694 -5.52387 0
M  V30 8764 O 823.058 -5.20186 -6.12912 0
M  V30 8765 H 822.79 -0.137443 -0.66188 0
M  V30 8766 H 825.344 -1.03082 -1.77661 0
M  V30 8767 H 823.574 0.479254 -3.83719 0
M  V30 8768 H 825.263 0.122781 -4.05714 0
M  V30 8769 H 826.029 -2.35387 -4.24049 0
M  V30 8770 H 821.908 -1.14833 -4.46469 0
M  V30 8771 H 825.452 -4.48737 -5.34117 0
M  V30 8772 H 821.349 -3.27294 -5.56371 0
M  V30 8773 H 822.117 -5.20846 -6.31397 0
M  V30 8774 N 824.78 1.49157 -0.508906 0
M  V30 8775 C 826.057 1.95363 0.0961913 0
M  V30 8776 C 826.437 1.45064 1.53362 0
M  V30 8777 O 825.785 0.667835 2.18523 0
M  V30 8778 C 825.995 3.49 0.000688881 0
M  V30 8779 C 827.343 4.24257 0.170632 0
M  V30 8780 O 828.367 3.5612 0.0754994 0
M  V30 8781 O 827.226 5.45267 0.366957 0
M  V30 8782 H 824.32 0.821984 0.0909489 0
M  V30 8783 H 826.866 1.59769 -0.572007 0
M  V30 8784 H 825.638 3.78269 -1.00143 0
M  V30 8785 H 825.261 3.91233 0.708682 0
M  V30 8786 N 826.258 0.243083 1.55714 0
M  V30 8787 C 827.486 -0.386971 2.03249 0
M  V30 8788 C 827.901 -1.51812 1.12243 0
M  V30 8789 O 827.258 -1.81992 0.136119 0
M  V30 8790 C 827.309 -0.898361 3.5016 0
M  V30 8791 O 827.03 0.187708 4.37698 0
M  V30 8792 C 828.531 -1.59949 4.13438 0
M  V30 8793 H 825.751 -0.0923981 0.664608 0
M  V30 8794 H 828.295 0.365832 2.01201 0
M  V30 8795 H 826.45 -1.60136 3.52754 0
M  V30 8796 H 826.864 -0.200001 5.24119 0
M  V30 8797 H 828.338 -1.90907 5.17937 0
M  V30 8798 H 828.815 -2.52014 3.59702 0
M  V30 8799 H 829.421 -0.941163 4.14756 0
M  V30 8800 N 827.736 -1.57571 -0.0300757 0
M  V30 8801 C 828.982 -1.89506 -0.722159 0
M  V30 8802 C 829.315 -0.840699 -1.7506 0
M  V30 8803 O 828.59 0.144358 -1.93964 0
M  V30 8804 C 828.873 -3.32081 -1.39262 0
M  V30 8805 C 828.726 -4.48211 -0.377768 0
M  V30 8806 C 830.045 -3.73557 -2.32687 0
M  V30 8807 H 827.164 -0.689213 -0.261064 0
M  V30 8808 H 829.806 -1.89994 0.0150388 0
M  V30 8809 H 827.956 -3.31796 -2.02098 0
M  V30 8810 H 829.628 -4.6063 0.248591 0
M  V30 8811 H 827.871 -4.3274 0.303045 0
M  V30 8812 H 828.542 -5.44854 -0.885347 0
M  V30 8813 H 831.018 -3.75202 -1.79896 0
M  V30 8814 H 829.894 -4.74125 -2.7658 0
M  V30 8815 H 830.155 -3.05759 -3.19317 0
M  V30 8816 N 829.214 0.302327 -1.54673 0
M  V30 8817 C 830.162 1.39286 -1.86285 0
M  V30 8818 C 831.156 1.52553 -0.736478 0
M  V30 8819 O 832.362 1.54686 -0.92045 0
M  V30 8820 H 828.737 0.465228 -0.590819 0
M  V30 8821 H 830.708 1.09859 -2.77441 0
M  V30 8822 C 829.457 2.75155 -2.12567 0
M  V30 8823 H 828.78 2.65728 -2.98712 0
M  V30 8824 H 830.22 3.50476 -2.38627 0
M  V30 8825 C 828.679 3.23987 -0.923813 0
M  V30 8826 O 829.209 4.01443 -0.143649 0
M  V30 8827 N 827.415 2.81293 -0.72956 0
M  V30 8828 H 826.962 2.18421 -1.36565 0
M  V30 8829 H 826.92 3.14315 0.0730351 0
M  V30 8830 N 830.692 1.47107 0.565454 0
M  V30 8831 C 831.624 1.55024 1.6882 0
M  V30 8832 C 832.637 0.4371 1.56822 0
M  V30 8833 O 833.826 0.706315 1.63931 0
M  V30 8834 C 830.926 1.43069 3.0722 0
M  V30 8835 C 830.099 2.68807 3.45053 0
M  V30 8836 C 829.158 2.50806 4.62583 0
M  V30 8837 O 828.184 3.24593 4.67577 0
M  V30 8838 N 829.386 1.58093 5.58558 0
M  V30 8839 H 832.151 2.51836 1.62477 0
M  V30 8840 H 829.712 1.43382 0.751885 0
M  V30 8841 H 831.704 1.28773 3.83666 0
M  V30 8842 H 830.274 0.543721 3.07835 0
M  V30 8843 H 829.494 2.97923 2.58138 0
M  V30 8844 H 830.782 3.52298 3.67101 0
M  V30 8845 H 830.18 0.972807 5.57273 0
M  V30 8846 H 828.737 1.49753 6.34364 0
M  V30 8847 N 832.17 -0.811516 1.35101 0
M  V30 8848 C 833.395 -1.60499 1.31358 0
M  V30 8849 C 833.82 -1.87793 -0.107383 0
M  V30 8850 O 833.178 -1.46161 -1.07268 0
M  V30 8851 C 833.226 -2.91612 2.12119 0
M  V30 8852 O 832.33 -3.84211 1.49853 0
M  V30 8853 H 831.671 -0.487702 0.450603 0
M  V30 8854 H 834.201 -1.00758 1.7807 0
M  V30 8855 H 834.211 -3.4108 2.23894 0
M  V30 8856 H 832.886 -2.71071 3.15426 0
M  V30 8857 H 831.463 -3.42751 1.46889 0
M  V30 8858 N 833.648 -1.19017 -1.03309 0
M  V30 8859 C 834.595 -0.924088 -2.11493 0
M  V30 8860 C 835.565 0.139464 -1.65513 0
M  V30 8861 O 836.75 -0.00178761 -1.908 0
M  V30 8862 C 833.89 -0.464255 -3.41963 0
M  V30 8863 C 833.003 -1.5941 -4.01513 0
M  V30 8864 C 832.138 -1.08622 -5.19976 0
M  V30 8865 C 831.177 -2.19024 -5.71572 0
M  V30 8866 N 830.314 -1.69575 -6.81314 0
M  V30 8867 H 835.154 -1.85039 -2.33591 0
M  V30 8868 H 832.691 -0.922593 -1.14572 0
M  V30 8869 H 834.649 -0.179078 -4.16815 0
M  V30 8870 H 833.279 0.425062 -3.19989 0
M  V30 8871 H 832.331 -1.99458 -3.23915 0
M  V30 8872 H 833.643 -2.42604 -4.35826 0
M  V30 8873 H 832.797 -0.756022 -6.01971 0
M  V30 8874 H 831.536 -0.223955 -4.87186 0
M  V30 8875 H 830.541 -2.5288 -4.88193 0
M  V30 8876 H 831.766 -3.05699 -6.06403 0
M  V30 8877 H 829.712 -0.856494 -6.50385 0
M  V30 8878 H 829.629 -2.46361 -7.14732 0
M  V30 8879 H 830.897 -1.39505 -7.66915 0
M  V30 8880 N 835.127 1.22348 -0.993418 0
M  V30 8881 C 836.355 1.95125 -0.688021 0
M  V30 8882 C 836.77 1.73377 0.747388 0
M  V30 8883 O 836.127 1.03317 1.50439 0
M  V30 8884 C 836.178 3.47819 -0.985097 0
M  V30 8885 O 835.899 3.68838 -2.3641 0
M  V30 8886 C 837.4 4.37779 -0.697474 0
M  V30 8887 H 834.62 0.62087 -0.254481 0
M  V30 8888 H 837.164 1.55485 -1.32833 0
M  V30 8889 H 835.319 3.85426 -0.390583 0
M  V30 8890 H 835.733 4.63032 -2.46377 0
M  V30 8891 H 837.207 5.43666 -0.955604 0
M  V30 8892 H 837.684 4.37651 0.368524 0
M  V30 8893 H 838.29 4.05799 -1.27306 0
M  V30 8894 N 836.605 0.766683 1.37694 0
M  V30 8895 C 838.016 0.394761 1.82479 0
M  V30 8896 C 838.367 -1.07842 1.63904 0
M  V30 8897 O 837.492 -1.83479 1.14737 0
M  V30 8898 C 838.087 0.70974 3.31283 0
M  V30 8899 C 836.646 0.390936 3.74364 0
M  V30 8900 C 835.793 0.956192 2.60293 0
M  V30 8901 H 838.744 0.961756 1.26238 0
M  V30 8902 H 838.765 -0.00742144 3.80499 0
M  V30 8903 H 838.277 1.782 3.4477 0
M  V30 8904 H 836.378 -0.674213 3.66449 0
M  V30 8905 H 836.491 0.895645 4.70654 0
M  V30 8906 H 834.855 0.380744 2.51838 0
M  V30 8907 H 835.638 2.03375 2.76575 0
M  V30 8908 N 838.083 -1.48885 0.516809 0
M  V30 8909 C 839.33 -2.02488 -0.0220602 0
M  V30 8910 C 839.658 -1.39513 -1.35523 0
M  V30 8911 O 838.913 -0.52558 -1.8851 0
M  V30 8912 C 839.212 -3.56801 -0.206798 0
M  V30 8913 C 838.878 -4.38496 1.05035 0
M  V30 8914 C 837.54 -4.60538 1.39492 0
M  V30 8915 C 839.892 -4.85909 1.88525 0
M  V30 8916 C 837.22 -5.2724 2.57361 0
M  V30 8917 C 839.572 -5.53909 3.05561 0
M  V30 8918 C 838.236 -5.74193 3.4038 0
M  V30 8919 H 837.506 -0.740956 -0.00807238 0
M  V30 8920 H 840.153 -1.79014 0.680168 0
M  V30 8921 H 838.458 -3.79042 -0.991687 0
M  V30 8922 H 840.155 -3.95885 -0.638447 0
M  V30 8923 H 836.745 -4.2159 0.771984 0
M  V30 8924 H 840.929 -4.68694 1.63218 0
M  V30 8925 H 836.185 -5.41145 2.84556 0
M  V30 8926 H 840.359 -5.89619 3.7057 0
M  V30 8927 H 837.986 -6.25652 4.31814 0
M  V30 8928 N 839.561 -0.251338 -1.55583 0
M  V30 8929 C 840.81 0.372681 -1.98227 0
M  V30 8930 C 841.123 1.58743 -1.1428 0
M  V30 8931 O 842.329 2.28289 -1.46957 0
M  V30 8932 C 840.785 0.714439 -3.52738 0
M  V30 8933 C 840.393 -0.479168 -4.4543 0
M  V30 8934 C 842.137 1.3024 -4.04027 0
M  V30 8935 C 840.044 -0.113318 -5.91291 0
M  V30 8936 H 838.974 0.14302 -0.740312 0
M  V30 8937 H 841.625 -0.352253 -1.80087 0
M  V30 8938 H 840.007 1.49762 -3.66589 0
M  V30 8939 H 841.181 -1.25644 -4.4334 0
M  V30 8940 H 839.496 -0.982359 -4.04646 0
M  V30 8941 H 842.093 1.58953 -5.10527 0
M  V30 8942 H 842.436 2.22837 -3.51638 0
M  V30 8943 H 842.969 0.582024 -3.93519 0
M  V30 8944 H 839.708 -1.00654 -6.47726 0
M  V30 8945 H 839.228 0.627666 -5.96507 0
M  V30 8946 H 840.907 0.30293 -6.4629 0
M  V30 8947 N 841.039 1.57585 0.0217189 0
M  V30 8948 C 842.267 1.93871 0.722619 0
M  V30 8949 C 842.682 0.851706 1.68498 0
M  V30 8950 O 842.039 -0.17127 1.81695 0
M  V30 8951 C 842.09 3.30114 1.47333 0
M  V30 8952 O 841.811 4.34639 0.549597 0
M  V30 8953 C 843.312 3.80727 2.27072 0
M  V30 8954 H 840.532 0.639671 0.202637 0
M  V30 8955 H 843.076 2.04487 -0.0229414 0
M  V30 8956 H 841.231 3.20872 2.17071 0
M  V30 8957 H 841.645 5.13326 1.07686 0
M  V30 8958 H 843.119 4.78547 2.75131 0
M  V30 8959 H 843.596 3.12301 3.08812 0
M  V30 8960 H 844.202 3.93075 1.62395 0
M  V30 8961 N 842.517 -0.29412 1.54831 0
M  V30 8962 C 843.467 -1.36476 1.82643 0
M  V30 8963 C 844.451 -1.45638 0.683984 0
M  V30 8964 O 845.643 -1.49675 0.944801 0
M  V30 8965 C 842.772 -2.72865 2.08326 0
M  V30 8966 C 841.858 -2.67898 3.28773 0
M  V30 8967 N 842.249 -2.32547 4.49172 0
M  V30 8968 C 840.547 -2.98991 3.30939 0
M  V30 8969 C 841.248 -2.37048 5.31209 0
M  V30 8970 N 840.224 -2.74679 4.69097 0
M  V30 8971 H 844.026 -1.08119 2.7329 0
M  V30 8972 H 841.54 -0.502718 1.54423 0
M  V30 8973 H 843.537 -3.5007 2.264 0
M  V30 8974 H 842.197 -3.02127 1.1895 0
M  V30 8975 H 843.208 -2.04883 4.7565 0
M  V30 8976 H 839.885 -3.33104 2.51691 0
M  V30 8977 H 841.275 -2.12457 6.37426 0
M  V30 8978 N 843.995 -1.47404 -0.557645 0
M  V30 8979 C 845.241 -1.54235 -1.31679 0
M  V30 8980 C 845.574 -0.203782 -1.93128 0
M  V30 8981 O 844.849 0.787536 -1.77843 0
M  V30 8982 C 845.132 -2.66003 -2.42723 0
M  V30 8983 C 844.985 -4.09475 -1.86145 0
M  V30 8984 C 846.304 -2.73685 -3.44652 0
M  V30 8985 H 843.423 -0.561466 -0.477415 0
M  V30 8986 H 846.065 -1.79459 -0.624067 0
M  V30 8987 H 844.215 -2.44627 -3.01811 0
M  V30 8988 H 845.887 -4.42213 -1.31321 0
M  V30 8989 H 844.13 -4.17774 -1.16823 0
M  V30 8990 H 844.801 -4.83451 -2.66418 0
M  V30 8991 H 847.277 -2.92968 -2.95481 0
M  V30 8992 H 846.153 -3.53665 -4.19777 0
M  V30 8993 H 846.414 -1.80726 -4.03473 0
M  V30 8994 N 845.473 0.80434 -1.35529 0
M  V30 8995 C 846.436 1.89788 -1.28503 0
M  V30 8996 C 847.436 1.59601 -0.195983 0
M  V30 8997 O 848.626 1.68292 -0.449827 0
M  V30 8998 C 845.758 3.26255 -0.98847 0
M  V30 8999 H 846.951 1.97436 -2.25741 0
M  V30 9000 H 844.504 1.00046 -1.20086 0
M  V30 9001 H 845.239 3.24294 -0.0200541 0
M  V30 9002 H 845.024 3.49551 -1.77641 0
M  V30 9003 H 846.514 4.06298 -0.964975 0
M  V30 9004 N 846.951 1.19563 1.02676 0
M  V30 9005 C 848.362 1.00158 1.57561 0
M  V30 9006 C 848.713 -0.444922 1.91089 0
M  V30 9007 O 847.838 -1.32466 1.71119 0
M  V30 9008 C 848.433 1.81181 2.86284 0
M  V30 9009 C 846.992 1.66171 3.37734 0
M  V30 9010 C 846.139 1.7975 2.11152 0
M  V30 9011 H 849.09 1.33904 0.85179 0
M  V30 9012 H 849.111 1.30916 3.57269 0
M  V30 9013 H 848.623 2.86454 2.6185 0
M  V30 9014 H 846.724 0.634927 3.6715 0
M  V30 9015 H 846.837 2.46832 4.10622 0
M  V30 9016 H 845.201 1.22833 2.23123 0
M  V30 9017 H 845.984 2.86487 1.89157 0
M  V30 9018 N 848.429 -1.21819 0.999893 0
M  V30 9019 C 849.654 -1.95298 0.698094 0
M  V30 9020 C 850.079 -1.73273 -0.731982 0
M  V30 9021 O 849.437 -1.01634 -1.50134 0
M  V30 9022 C 849.485 -3.45922 1.01834 0
M  V30 9023 O 848.589 -4.12223 0.120801 0
M  V30 9024 H 847.93 -0.610729 0.260588 0
M  V30 9025 H 850.46 -1.5472 1.33876 0
M  V30 9026 H 850.47 -3.96471 0.963074 0
M  V30 9027 H 849.145 -3.61278 2.06037 0
M  V30 9028 H 847.722 -3.72177 0.232153 0
M  V30 9029 N 849.908 -0.773975 -1.37286 0
M  V30 9030 C 851.136 -0.350758 -2.03905 0
M  V30 9031 C 851.551 1.02779 -1.58373 0
M  V30 9032 O 850.908 1.65646 -0.766009 0
M  V30 9033 C 850.959 -0.387335 -3.59419 0
M  V30 9034 O 850.68 -1.7115 -4.03286 0
M  V30 9035 C 852.181 0.047198 -4.43275 0
M  V30 9036 H 849.401 -0.146663 -0.654775 0
M  V30 9037 H 851.945 -1.04852 -1.75574 0
M  V30 9038 H 850.1 0.261865 -3.86514 0
M  V30 9039 H 850.514 -1.65166 -4.97816 0
M  V30 9040 H 851.988 -0.0295474 -5.51992 0
M  V30 9041 H 852.465 1.09786 -4.25257 0
M  V30 9042 H 853.071 -0.573899 -4.2141 0
M  V30 9043 N 851.386 1.48609 -0.524698 0
M  V30 9044 C 852.611 2.07398 0.00952139 0
M  V30 9045 C 853.036 1.37939 1.27884 0
M  V30 9046 O 852.394 0.443633 1.75788 0
M  V30 9047 C 852.442 3.59916 0.221956 0
M  V30 9048 O 851.546 3.91647 1.29175 0
M  V30 9049 H 850.887 0.662981 -0.0367729 0
M  V30 9050 H 853.417 1.91092 -0.7311 0
M  V30 9051 H 853.427 4.05552 0.446236 0
M  V30 9052 H 852.102 4.09876 -0.705306 0
M  V30 9053 H 850.679 3.57796 1.05055 0
M  V30 9054 N 852.864 0.259585 1.55447 0
M  V30 9055 C 854.092 -0.365392 2.03648 0
M  V30 9056 C 854.507 -1.50613 1.13847 0
M  V30 9057 O 853.864 -1.81837 0.155414 0
M  V30 9058 C 853.915 -0.861172 3.51093 0
M  V30 9059 O 853.636 0.234121 4.37474 0
M  V30 9060 C 855.137 -1.55555 4.15111 0
M  V30 9061 H 852.357 -0.0853439 0.66555 0
M  V30 9062 H 854.901 0.387151 2.00802 0
M  V30 9063 H 853.056 -1.56385 3.54433 0
M  V30 9064 H 853.47 -0.1444 5.24301 0
M  V30 9065 H 854.944 -1.85403 5.19932 0
M  V30 9066 H 855.421 -2.48185 3.62355 0
M  V30 9067 H 856.027 -0.89712 4.15731 0
M  V30 9068 N 854.342 -1.57594 -0.0133615 0
M  V30 9069 C 855.29 -2.08682 -1.02736 0
M  V30 9070 C 856.284 -1.00391 -1.36448 0
M  V30 9071 O 857.49 -1.18868 -1.35168 0
M  V30 9072 H 853.865 -0.666158 -0.34891 0
M  V30 9073 H 855.836 -2.9289 -0.570815 0
M  V30 9074 C 854.585 -2.5945 -2.31476 0
M  V30 9075 H 853.908 -3.42401 -2.06401 0
M  V30 9076 H 855.348 -2.98888 -3.00735 0
M  V30 9077 C 853.807 -1.50266 -3.01533 0
M  V30 9078 O 854.337 -0.877875 -3.9199 0
M  V30 9079 N 852.543 -1.23336 -2.63129 0
M  V30 9080 H 852.09 -1.74327 -1.89652 0
M  V30 9081 H 852.048 -0.504987 -3.10318 0
M  V30 9082 N 855.82 0.285905 -1.54985 0
M  V30 9083 C 856.75 1.35752 -1.89983 0
M  V30 9084 C 857.731 1.52163 -0.760295 0
M  V30 9085 O 858.916 1.65421 -1.01733 0
M  V30 9086 C 856.046 2.71925 -2.16042 0
M  V30 9087 C 855 2.70261 -3.31878 0
M  V30 9088 C 854.326 4.09864 -3.43388 0
M  V30 9089 C 855.626 2.30667 -4.68604 0
M  V30 9090 H 857.32 1.06709 -2.79738 0
M  V30 9091 H 854.866 0.511884 -1.34595 0
M  V30 9092 H 856.819 3.46992 -2.39113 0
M  V30 9093 H 855.543 3.02523 -1.23074 0
M  V30 9094 H 854.202 1.97651 -3.08755 0
M  V30 9095 H 853.85 4.37664 -2.47909 0
M  V30 9096 H 853.55 4.09648 -4.21262 0
M  V30 9097 H 855.074 4.86689 -3.68736 0
M  V30 9098 H 856.488 2.95453 -4.91305 0
M  V30 9099 H 854.885 2.41637 -5.49301 0
M  V30 9100 H 855.955 1.25793 -4.68299 0
M  V30 9101 N 857.298 1.47698 0.54982 0
M  V30 9102 C 858.526 1.5833 1.33188 0
M  V30 9103 C 858.941 0.236193 1.87317 0
M  V30 9104 O 858.298 -0.77167 1.65383 0
M  V30 9105 C 858.349 2.61438 2.49664 0
M  V30 9106 O 858.07 3.9092 1.97771 0
M  V30 9107 C 859.571 2.82324 3.41772 0
M  V30 9108 H 856.791 0.53443 0.405741 0
M  V30 9109 H 859.335 1.93375 0.665309 0
M  V30 9110 H 857.49 2.29307 3.12245 0
M  V30 9111 H 857.904 4.47323 2.73866 0
M  V30 9112 H 859.378 3.58316 4.19897 0
M  V30 9113 H 859.855 1.90416 3.95776 0
M  V30 9114 H 860.461 3.15682 2.85 0
M  V30 9115 N 858.776 -0.797141 1.35954 0
M  V30 9116 C 859.709 -1.91567 1.24005 0
M  V30 9117 C 860.687 -1.62112 0.125868 0
M  V30 9118 O 861.871 -1.86167 0.295638 0
M  V30 9119 C 858.998 -3.26204 0.911535 0
M  V30 9120 C 858.044 -3.74598 2.03909 0
M  V30 9121 S 858.877 -3.91276 3.656 0
M  V30 9122 C 860.033 -5.288 3.34846 0
M  V30 9123 H 860.266 -2.0141 2.18681 0
M  V30 9124 H 857.799 -0.955542 1.2128 0
M  V30 9125 H 859.757 -4.03979 0.728805 0
M  V30 9126 H 858.418 -3.14095 -0.0173159 0
M  V30 9127 H 857.611 -4.72137 1.7636 0
M  V30 9128 H 857.213 -3.03849 2.18064 0
M  V30 9129 H 859.505 -6.13117 2.8826 0
M  V30 9130 H 860.448 -5.61347 4.31619 0
M  V30 9131 H 860.856 -4.95534 2.70382 0
M  V30 9132 N 860.254 -1.20106 -1.0204 0
M  V30 9133 C 861.482 -1.0344 -1.79186 0
M  V30 9134 C 861.897 0.416542 -1.84148 0
M  V30 9135 O 861.254 1.28925 -1.29168 0
M  V30 9136 C 861.305 -1.60663 -3.23836 0
M  V30 9137 O 861.026 -3.00079 -3.19193 0
M  V30 9138 C 862.527 -1.48897 -4.17546 0
M  V30 9139 H 859.747 -0.364093 -0.563629 0
M  V30 9140 H 862.291 -1.5911 -1.28469 0
M  V30 9141 H 860.446 -1.09122 -3.71714 0
M  V30 9142 H 860.86 -3.27162 -4.09958 0
M  V30 9143 H 862.334 -1.93703 -5.16898 0
M  V30 9144 H 862.811 -0.440843 -4.36982 0
M  V30 9145 H 863.417 -1.9961 -3.75547 0
M  V30 9146 N 861.732 1.21287 -1.00634 0
M  V30 9147 C 862.979 1.90389 -0.6898 0
M  V30 9148 C 863.307 1.78193 0.779574 0
M  V30 9149 O 862.562 1.15358 1.58085 0
M  V30 9150 C 862.861 3.41374 -1.05824 0
M  V30 9151 C 862.527 3.73766 -2.5221 0
M  V30 9152 C 861.189 3.82317 -2.92211 0
M  V30 9153 C 863.541 3.88871 -3.47028 0
M  V30 9154 C 860.869 4.03423 -4.2599 0
M  V30 9155 C 863.221 4.11484 -4.80483 0
M  V30 9156 C 861.885 4.18263 -5.20204 0
M  V30 9157 H 861.155 0.696683 -0.252416 0
M  V30 9158 H 863.802 1.43769 -1.26502 0
M  V30 9159 H 862.107 3.8974 -0.401281 0
M  V30 9160 H 863.804 3.93118 -0.79116 0
M  V30 9161 H 860.394 3.67702 -2.20212 0
M  V30 9162 H 864.578 3.8163 -3.17289 0
M  V30 9163 H 859.834 4.06902 -4.56334 0
M  V30 9164 H 864.008 4.22115 -5.53888 0
M  V30 9165 H 861.635 4.34369 -6.23881 0
M  V30 9166 N 863.21 0.781244 1.36873 0
M  V30 9167 C 864.158 0.161889 2.32036 0
M  V30 9168 C 865.152 -0.674225 1.55405 0
M  V30 9169 O 866.358 -0.570223 1.70729 0
M  V30 9170 H 862.733 0.0335702 0.75125 0
M  V30 9171 H 864.704 0.980078 2.81846 0
M  V30 9172 C 863.453 -0.695352 3.40676 0
M  V30 9173 H 862.776 -0.0613425 3.99753 0
M  V30 9174 H 864.216 -1.09553 4.09602 0
M  V30 9175 C 862.675 -1.85008 2.81556 0
M  V30 9176 O 863.205 -2.94616 2.73065 0
M  V30 9177 N 861.411 -1.65364 2.38962 0
M  V30 9178 H 860.958 -0.762106 2.46068 0
M  V30 9179 H 860.916 -2.42789 1.99752 0
M  V30 9180 N 864.689 -1.48329 0.532571 0
M  V30 9181 C 865.637 -2.31336 -0.242133 0
M  V30 9182 C 866.631 -1.41391 -0.933006 0
M  V30 9183 O 867.837 -1.58284 -0.857096 0
M  V30 9184 H 864.212 -0.745724 -0.0969536 0
M  V30 9185 H 866.183 -2.94555 0.477504 0
M  V30 9186 C 864.932 -3.23501 -1.27446 0
M  V30 9187 H 864.255 -3.92659 -0.752261 0
M  V30 9188 H 865.695 -3.84461 -1.78789 0
M  V30 9189 C 864.154 -2.45288 -2.30944 0
M  V30 9190 O 864.684 -2.17955 -3.37429 0
M  V30 9191 N 862.89 -2.06737 -2.04226 0
M  V30 9192 H 862.437 -2.29166 -1.17647 0
M  V30 9193 H 862.395 -1.54719 -2.73696 0
M  V30 9194 N 866.167 -0.267825 -1.55308 0
M  V30 9195 C 867.099 0.65591 -2.19614 0
M  V30 9196 C 868.112 1.12302 -1.17865 0
M  V30 9197 O 869.301 1.04618 -1.44628 0
M  V30 9198 C 866.401 1.90582 -2.80235 0
M  V30 9199 C 865.574 1.58673 -4.07605 0
M  V30 9200 C 864.633 2.68836 -4.52343 0
M  V30 9201 O 863.659 2.35331 -5.18274 0
M  V30 9202 N 864.861 3.98752 -4.21873 0
M  V30 9203 H 867.626 0.105566 -2.99514 0
M  V30 9204 H 865.187 -0.0886263 -1.61657 0
M  V30 9205 H 867.179 2.63561 -3.07112 0
M  V30 9206 H 865.749 2.3654 -2.04371 0
M  V30 9207 H 864.969 0.691113 -3.88094 0
M  V30 9208 H 866.257 1.34845 -4.90606 0
M  V30 9209 H 865.655 4.28797 -3.68985 0
M  V30 9210 H 864.212 4.68131 -4.53537 0
M  V30 9211 N 867.645 1.57599 0.00500368 0
M  V30 9212 C 868.575 2.11143 0.99705 0
M  V30 9213 C 869.556 1.0194 1.3617 0
M  V30 9214 O 870.741 1.29596 1.44632 0
M  V30 9215 C 867.871 2.61062 2.2905 0
M  V30 9216 C 866.825 3.74745 2.0676 0
M  V30 9217 C 866.151 4.10961 3.42075 0
M  V30 9218 C 867.451 5.02222 1.43424 0
M  V30 9219 H 869.145 2.94281 0.551251 0
M  V30 9220 H 866.691 1.41565 0.263715 0
M  V30 9221 H 868.644 2.97146 2.98801 0
M  V30 9222 H 867.368 1.75038 2.75734 0
M  V30 9223 H 866.027 3.39047 1.39436 0
M  V30 9224 H 865.675 3.21968 3.86453 0
M  V30 9225 H 865.375 4.87549 3.27979 0
M  V30 9226 H 866.899 4.49599 4.1315 0
M  V30 9227 H 868.313 5.36109 2.03125 0
M  V30 9228 H 866.71 5.83581 1.39831 0
M  V30 9229 H 867.78 4.83224 0.40285 0
M  V30 9230 N 869.123 -0.277682 1.55134 0
M  V30 9231 C 870.351 -1.02826 1.7954 0
M  V30 9232 C 870.766 -1.80105 0.566373 0
M  V30 9233 O 870.123 -1.76491 -0.464448 0
M  V30 9234 C 870.174 -1.99053 3.01762 0
M  V30 9235 O 869.895 -1.24906 4.19917 0
M  V30 9236 C 871.396 -2.85961 3.38735 0
M  V30 9237 H 868.616 -0.303958 0.598206 0
M  V30 9238 H 871.16 -0.309884 2.02138 0
M  V30 9239 H 869.315 -2.66359 2.81303 0
M  V30 9240 H 869.729 -1.89725 4.88983 0
M  V30 9241 H 871.203 -3.49286 4.27438 0
M  V30 9242 H 871.68 -3.55486 2.57928 0
M  V30 9243 H 872.286 -2.24152 3.61436 0
M  V30 9244 N 870.601 -1.47988 -0.541979 0
M  V30 9245 C 871.829 -1.59034 -1.32347 0
M  V30 9246 C 872.244 -0.246123 -1.87189 0
M  V30 9247 O 871.601 0.762889 -1.6579 0
M  V30 9248 C 871.652 -2.62759 -2.48274 0
M  V30 9249 O 871.373 -3.91963 -1.95695 0
M  V30 9250 C 872.874 -2.84133 -3.4027 0
M  V30 9251 H 870.094 -0.536574 -0.402901 0
M  V30 9252 H 872.638 -1.93725 -0.655045 0
M  V30 9253 H 870.793 -2.3096 -3.11025 0
M  V30 9254 H 871.207 -4.48769 -2.7149 0
M  V30 9255 H 872.681 -3.60538 -4.17991 0
M  V30 9256 H 873.158 -1.92512 -3.9476 0
M  V30 9257 H 873.764 -3.17188 -2.83322 0
M  V30 9258 N 872.079 0.78992 -1.36375 0
M  V30 9259 C 873.325 1.55007 -1.3077 0
M  V30 9260 C 873.658 1.93871 0.112979 0
M  V30 9261 O 872.933 1.6267 1.06625 0
M  V30 9262 C 873.216 2.82748 -2.22993 0
M  V30 9263 C 873.069 2.50253 -3.73756 0
M  V30 9264 C 874.388 3.84569 -2.13998 0
M  V30 9265 H 871.507 0.562362 -0.476359 0
M  V30 9266 H 874.149 0.907582 -1.66922 0
M  V30 9267 H 872.299 3.37573 -1.92292 0
M  V30 9268 H 873.971 2.01482 -4.14973 0
M  V30 9269 H 872.214 1.83203 -3.93216 0
M  V30 9270 H 872.885 3.41487 -4.33694 0
M  V30 9271 H 875.361 3.39188 -2.4102 0
M  V30 9272 H 874.237 4.717 -2.80697 0
M  V30 9273 H 874.498 4.27491 -1.12711 0
M  V30 9274 N 873.557 1.20646 1.01402 0
M  V30 9275 C 874.507 0.925209 2.08384 0
M  V30 9276 C 875.491 -0.115994 1.60481 0
M  V30 9277 O 876.683 0.0917276 1.76762 0
M  V30 9278 C 873.812 0.48193 3.399 0
M  V30 9279 C 872.898 1.5567 3.94497 0
M  V30 9280 N 873.289 2.77971 4.2257 0
M  V30 9281 C 871.587 1.42347 4.22674 0
M  V30 9282 C 872.288 3.47317 4.66632 0
M  V30 9283 N 871.264 2.74736 4.69064 0
M  V30 9284 H 875.066 1.85452 2.28002 0
M  V30 9285 H 872.58 1.10084 1.19395 0
M  V30 9286 H 874.577 0.261835 4.16077 0
M  V30 9287 H 873.237 -0.440725 3.21695 0
M  V30 9288 H 874.248 3.14598 4.11398 0
M  V30 9289 H 870.925 0.565417 4.13654 0
M  V30 9290 H 872.315 4.51985 4.97151 0
M  V30 9291 N 875.035 -1.20752 1.01276 0
M  V30 9292 C 875.983 -2.25432 0.572989 0
M  V30 9293 C 876.977 -1.64935 -0.386354 0
M  V30 9294 O 878.183 -1.7816 -0.256696 0
M  V30 9295 H 874.558 -0.733229 0.166972 0
M  V30 9296 H 876.529 -2.59856 1.46687 0
M  V30 9297 C 875.278 -3.47615 -0.0768249 0
M  V30 9298 H 874.601 -3.94442 0.652354 0
M  V30 9299 H 876.041 -4.22572 -0.3477 0
M  V30 9300 C 874.5 -3.1003 -1.31845 0
M  V30 9301 O 875.03 -3.21216 -2.41211 0
M  V30 9302 N 873.236 -2.64616 -1.20111 0
M  V30 9303 H 872.783 -2.55714 -0.311184 0
M  V30 9304 H 872.741 -2.39838 -2.03286 0
M  V30 9305 N 876.513 -0.788492 -1.36457 0
M  V30 9306 C 877.445 -0.144208 -2.28746 0
M  V30 9307 C 878.458 0.646009 -1.49434 0
M  V30 9308 O 879.647 0.481344 -1.71888 0
M  V30 9309 C 876.747 0.818869 -3.28858 0
M  V30 9310 C 875.92 0.0789055 -4.37329 0
M  V30 9311 C 874.979 0.957791 -5.1741 0
M  V30 9312 O 874.005 0.415378 -5.67682 0
M  V30 9313 N 875.207 2.28216 -5.33758 0
M  V30 9314 H 877.972 -0.936949 -2.84678 0
M  V30 9315 H 875.533 -0.642317 -1.48613 0
M  V30 9316 H 877.525 1.41065 -3.79319 0
M  V30 9317 H 876.095 1.51249 -2.73573 0
M  V30 9318 H 875.315 -0.693939 -3.88044 0
M  V30 9319 H 876.603 -0.431753 -5.06965 0
M  V30 9320 H 876.001 2.747 -4.94527 0
M  V30 9321 H 874.558 2.8236 -5.87466 0
M  V30 9322 N 877.991 1.48044 -0.54043 0
M  V30 9323 C 878.954 2.28273 0.205966 0
M  V30 9324 C 879.954 1.35983 0.858209 0
M  V30 9325 O 881.144 1.58776 0.716651 0
M  V30 9326 C 878.276 3.15174 1.29917 0
M  V30 9327 H 879.469 2.95727 -0.498555 0
M  V30 9328 H 877.022 1.53457 -0.296745 0
M  V30 9329 H 877.757 2.52374 2.03661 0
M  V30 9330 H 877.542 3.83074 0.836475 0
M  V30 9331 H 879.032 3.75666 1.82387 0
M  V30 9332 N 879.47 0.276058 1.55163 0
M  V30 9333 C 880.881 -0.221516 1.85381 0
M  V30 9334 C 881.232 -1.55372 1.19808 0
M  V30 9335 O 880.357 -2.10855 0.486742 0
M  V30 9336 C 880.952 -0.408706 3.36326 0
M  V30 9337 C 879.511 -0.850512 3.66665 0
M  V30 9338 C 878.658 0.055656 2.77244 0
M  V30 9339 H 881.609 0.497819 1.5069 0
M  V30 9340 H 881.63 -1.24711 3.59482 0
M  V30 9341 H 881.142 0.561052 3.84023 0
M  V30 9342 H 879.243 -1.83171 3.24468 0
M  V30 9343 H 879.356 -0.687181 4.74146 0
M  V30 9344 H 877.72 -0.460819 2.50497 0
M  V30 9345 H 878.503 1.02131 3.27756 0
M  V30 9346 N 880.948 -1.576 0.00335426 0
M  V30 9347 C 882.173 -1.95398 -0.695311 0
M  V30 9348 C 882.598 -0.878476 -1.66326 0
M  V30 9349 O 881.956 0.163086 -1.80565 0
M  V30 9350 C 882.004 -3.32293 -1.40049 0
M  V30 9351 O 881.108 -3.26834 -2.51502 0
M  V30 9352 H 880.449 -0.637796 -0.184694 0
M  V30 9353 H 882.979 -2.04519 0.057543 0
M  V30 9354 H 882.989 -3.67936 -1.76316 0
M  V30 9355 H 881.664 -4.10123 -0.690803 0
M  V30 9356 H 880.241 -3.02872 -2.17539 0
M  V30 9357 N 882.426 0.269451 -1.5528 0
M  V30 9358 C 883.651 1.02299 -1.80415 0
M  V30 9359 C 884.076 1.7902 -0.577363 0
M  V30 9360 O 883.434 1.75018 0.473125 0
M  V30 9361 C 883.482 1.95445 -3.0304 0
M  V30 9362 O 882.586 3.04271 -2.78375 0
M  V30 9363 H 881.927 0.292289 -0.596207 0
M  V30 9364 H 884.457 0.297282 -2.02429 0
M  V30 9365 H 884.467 2.37333 -3.31869 0
M  V30 9366 H 883.142 1.39017 -3.91978 0
M  V30 9367 H 881.719 2.66673 -2.60653 0
M  V30 9368 N 883.904 1.48273 0.534124 0
M  V30 9369 C 885.132 1.59734 1.31501 0
M  V30 9370 C 885.547 0.256047 1.87056 0
M  V30 9371 O 884.904 -0.754086 1.66192 0
M  V30 9372 C 884.955 2.64072 2.46877 0
M  V30 9373 O 884.676 3.92995 1.93613 0
M  V30 9374 C 886.177 2.85933 3.38758 0
M  V30 9375 H 883.397 0.538703 0.40005 0
M  V30 9376 H 885.941 1.9407 0.644762 0
M  V30 9377 H 884.096 2.32606 3.09795 0
M  V30 9378 H 884.51 4.50203 2.69106 0
M  V30 9379 H 885.984 3.62749 4.16073 0
M  V30 9380 H 886.461 1.94603 3.93734 0
M  V30 9381 H 887.067 3.18687 2.81636 0
M  V30 9382 N 885.382 -0.782676 1.36792 0
M  V30 9383 C 886.607 -1.57676 1.34733 0
M  V30 9384 C 887.032 -1.87979 -0.0675253 0
M  V30 9385 O 886.39 -1.48404 -1.04144 0
M  V30 9386 C 886.438 -2.87047 2.18257 0
M  V30 9387 O 885.542 -3.80946 1.57969 0
M  V30 9388 H 884.883 -0.478034 0.460846 0
M  V30 9389 H 887.413 -0.969578 1.80168 0
M  V30 9390 H 887.423 -3.36254 2.31079 0
M  V30 9391 H 886.098 -2.64319 3.21104 0
M  V30 9392 H 884.675 -3.39558 1.54126 0
M  V30 9393 N 886.86 -1.21182 -1.00761 0
M  V30 9394 C 887.823 -0.970339 -2.07646 0
M  V30 9395 C 888.823 0.0576345 -1.60697 0
M  V30 9396 O 890.013 -0.179369 -1.73274 0
M  V30 9397 C 887.145 -0.462703 -3.37745 0
M  V30 9398 H 888.338 -1.91856 -2.30502 0
M  V30 9399 H 885.891 -1.02844 -1.17698 0
M  V30 9400 H 886.626 0.490559 -3.20568 0
M  V30 9401 H 886.411 -1.20416 -3.73152 0
M  V30 9402 H 887.901 -0.313531 -4.16421 0
M  V30 9403 N 888.338 1.20213 -1.01915 0
M  V30 9404 C 889.566 1.93622 -0.729255 0
M  V30 9405 C 889.981 1.74923 0.710444 0
M  V30 9406 O 889.338 1.06484 1.48214 0
M  V30 9407 C 889.389 3.45651 -1.05865 0
M  V30 9408 O 889.11 3.63741 -2.44181 0
M  V30 9409 C 890.611 4.36201 -0.790176 0
M  V30 9410 H 887.831 0.615333 -0.267594 0
M  V30 9411 H 890.375 1.52633 -1.36101 0
M  V30 9412 H 888.53 3.84511 -0.47225 0
M  V30 9413 H 888.944 4.57702 -2.56143 0
M  V30 9414 H 890.418 5.41516 -1.07071 0
M  V30 9415 H 890.895 4.38334 0.275609 0
M  V30 9416 H 891.501 4.03008 -1.35885 0
M  V30 9417 N 889.816 0.795718 1.36037 0
M  V30 9418 C 891.065 0.367575 1.98322 0
M  V30 9419 C 891.378 -1.06823 1.63854 0
M  V30 9420 O 892.584 -1.59895 2.19421 0
M  V30 9421 C 891.04 0.606272 3.54757 0
M  V30 9422 C 890.648 2.0539 3.98144 0
M  V30 9423 C 892.392 0.242947 4.23804 0
M  V30 9424 C 890.299 2.23893 5.47381 0
M  V30 9425 H 889.229 0.133699 0.742052 0
M  V30 9426 H 891.88 0.978242 1.5525 0
M  V30 9427 H 890.262 -0.0741957 3.9593 0
M  V30 9428 H 891.436 2.77129 3.68152 0
M  V30 9429 H 889.751 2.37607 3.41953 0
M  V30 9430 H 892.348 0.359382 5.33491 0
M  V30 9431 H 892.691 -0.809661 4.08351 0
M  V30 9432 H 893.224 0.876899 3.88015 0
M  V30 9433 H 889.963 3.27559 5.6779 0
M  V30 9434 H 889.483 1.56666 5.78978 0
M  V30 9435 H 891.162 2.04914 6.13693 0
M  V30 9436 N 891.294 -1.47756 0.548274 0
M  V30 9437 C 892.519 -2.07387 0.023475 0
M  V30 9438 C 892.944 -1.39956 -1.25674 0
M  V30 9439 O 892.302 -0.471543 -1.7506 0
M  V30 9440 C 892.35 -3.60224 -0.164669 0
M  V30 9441 O 891.454 -3.93653 -1.22928 0
M  V30 9442 H 890.795 -0.662312 0.0473156 0
M  V30 9443 H 893.325 -1.89905 0.761409 0
M  V30 9444 H 893.335 -4.06211 -0.38166 0
M  V30 9445 H 892.01 -4.08702 0.770425 0
M  V30 9446 H 890.587 -3.59422 -0.993495 0
M  V30 9447 N 892.772 -0.284283 -1.55015 0
M  V30 9448 C 893.702 0.592663 -2.25853 0
M  V30 9449 C 894.683 1.15151 -1.25197 0
M  V30 9450 O 895.868 1.18395 -1.53936 0
M  V30 9451 C 892.998 1.77254 -2.98661 0
M  V30 9452 C 891.952 1.34482 -4.06323 0
M  V30 9453 C 891.278 2.60853 -4.66754 0
M  V30 9454 C 892.578 0.488288 -5.20013 0
M  V30 9455 H 894.272 0.00187041 -2.994 0
M  V30 9456 H 891.818 -0.000540402 -1.44 0
M  V30 9457 H 893.771 2.39199 -3.46932 0
M  V30 9458 H 892.495 2.38931 -2.22664 0
M  V30 9459 H 891.154 0.748519 -3.58877 0
M  V30 9460 H 890.802 3.20808 -3.87416 0
M  V30 9461 H 890.502 2.32942 -5.39455 0
M  V30 9462 H 892.026 3.23631 -5.1778 0
M  V30 9463 H 893.44 1.01298 -5.6428 0
M  V30 9464 H 891.837 0.303669 -5.99331 0
M  V30 9465 H 892.907 -0.490727 -4.8241 0
M  V30 9466 N 894.251 1.57596 -0.0117121 0
M  V30 9467 C 895.214 2.08089 0.960816 0
M  V30 9468 C 896.214 0.992519 1.26514 0
M  V30 9469 O 897.404 1.25475 1.20837 0
M  V30 9470 C 894.536 2.53217 2.28241 0
M  V30 9471 H 895.729 2.9529 0.523829 0
M  V30 9472 H 893.282 1.54508 0.235995 0
M  V30 9473 H 894.017 1.69294 2.76604 0
M  V30 9474 H 893.802 3.32714 2.0747 0
M  V30 9475 H 895.292 2.92568 2.97983 0
M  V30 9476 N 895.729 -0.261212 1.5542 0
M  V30 9477 C 896.677 -1.34298 1.89913 0
M  V30 9478 C 897.671 -1.50547 0.776665 0
M  V30 9479 O 898.877 -1.52191 0.961139 0
M  V30 9480 H 895.252 -0.4494 0.602946 0
M  V30 9481 H 897.223 -1.02464 2.80256 0
M  V30 9482 C 895.972 -2.69423 2.19788 0
M  V30 9483 H 895.295 -2.57715 3.05652 0
M  V30 9484 H 896.735 -3.44026 2.47835 0
M  V30 9485 C 895.194 -3.21423 1.00939 0
M  V30 9486 O 895.724 -4.00921 0.250034 0
M  V30 9487 N 893.93 -2.7926 0.803883 0
M  V30 9488 H 893.477 -2.14724 1.42308 0
M  V30 9489 H 893.435 -3.14398 0.0103257 0
M  V30 9490 N 897.207 -1.48554 -0.526253 0
M  V30 9491 C 898.618 -1.50256 -1.10815 0
M  V30 9492 C 898.969 -0.274445 -1.94271 0
M  V30 9493 O 898.094 0.618094 -2.07385 0
M  V30 9494 C 898.689 -2.72264 -2.01638 0
M  V30 9495 C 897.248 -2.76826 -2.55038 0
M  V30 9496 C 896.395 -2.43823 -1.32081 0
M  V30 9497 H 899.346 -1.55616 -0.31133 0
M  V30 9498 H 899.367 -2.50993 -2.85977 0
M  V30 9499 H 898.879 -3.61632 -1.4087 0
M  V30 9500 H 896.98 -1.91676 -3.19517 0
M  V30 9501 H 897.093 -3.78351 -2.93917 0
M  V30 9502 H 895.457 -1.95058 -1.63781 0
M  V30 9503 H 896.24 -3.35436 -0.730596 0
M  V30 9504 N 898.685 0.775411 -1.37205 0
M  V30 9505 C 899.595 1.91967 -1.34855 0
M  V30 9506 C 900.611 1.72214 -0.248656 0
M  V30 9507 O 901.787 1.95512 -0.483421 0
M  V30 9508 C 898.852 3.27038 -1.15096 0
M  V30 9509 C 897.913 3.5947 -2.34691 0
M  V30 9510 C 897.146 4.88097 -2.15865 0
M  V30 9511 O 897.369 5.58871 -1.14102 0
M  V30 9512 O 896.303 5.19507 -3.03967 0
M  V30 9513 H 900.129 1.969 -2.31223 0
M  V30 9514 H 897.714 0.917647 -1.17897 0
M  V30 9515 H 899.596 4.07837 -1.0605 0
M  V30 9516 H 898.271 3.22965 -0.217999 0
M  V30 9517 H 897.178 2.7892 -2.49308 0
M  V30 9518 H 898.511 3.68282 -3.26541 0
M  V30 9519 N 900.163 1.21714 1.00117 0
M  V30 9520 C 901.409 1.03823 1.74208 0
M  V30 9521 C 901.742 -0.426733 1.89454 0
M  V30 9522 O 901.017 -1.31658 1.43166 0
M  V30 9523 C 901.3 1.74047 3.15246 0
M  V30 9524 C 901.153 3.28087 3.077 0
M  V30 9525 C 902.472 1.48614 4.14249 0
M  V30 9526 H 899.591 0.378573 0.632338 0
M  V30 9527 H 902.233 1.49942 1.16694 0
M  V30 9528 H 900.383 1.3484 3.64349 0
M  V30 9529 H 902.055 3.76686 2.6628 0
M  V30 9530 H 900.298 3.58191 2.44707 0
M  V30 9531 H 900.969 3.72392 4.07466 0
M  V30 9532 H 903.445 1.82656 3.73866 0
M  V30 9533 H 902.321 2.00257 5.11066 0
M  V30 9534 H 902.582 0.416957 4.40129 0
M  V30 9535 N 901.641 -1.19671 1.02551 0
M  V30 9536 C 902.866 -1.93774 0.739363 0
M  V30 9537 C 903.291 -1.74787 -0.695064 0
M  V30 9538 O 902.649 -1.04796 -1.47944 0
M  V30 9539 C 902.697 -3.43684 1.09149 0
M  V30 9540 O 901.801 -4.11874 0.208213 0
M  V30 9541 H 901.142 -0.605064 0.273484 0
M  V30 9542 H 903.672 -1.51846 1.37128 0
M  V30 9543 H 903.682 -3.94339 1.04695 0
M  V30 9544 H 902.357 -3.56826 2.13654 0
M  V30 9545 H 900.934 -3.716 0.311045 0
M  V30 9546 N 903.119 -0.802921 -1.35613 0
M  V30 9547 C 904.368 -0.378087 -1.98125 0
M  V30 9548 C 904.681 1.05953 -1.64418 0
M  V30 9549 O 905.887 1.58729 -2.20266 0
M  V30 9550 C 904.343 -0.625077 -3.5443 0
M  V30 9551 C 903.951 -2.07499 -3.97049 0
M  V30 9552 C 905.695 -0.265419 -4.23669 0
M  V30 9553 C 903.602 -2.26793 -5.46186 0
M  V30 9554 H 902.532 -0.137633 -0.741332 0
M  V30 9555 H 905.183 -0.986461 -1.54729 0
M  V30 9556 H 903.565 0.0531975 -3.95964 0
M  V30 9557 H 904.739 -2.79077 -3.66678 0
M  V30 9558 H 903.054 -2.39417 -3.40688 0
M  V30 9559 H 905.651 -0.387669 -5.33293 0
M  V30 9560 H 905.994 0.787994 -4.08774 0
M  V30 9561 H 906.527 -0.897464 -3.87544 0
M  V30 9562 H 903.266 -3.30566 -5.66045 0
M  V30 9563 H 902.786 -1.59735 -5.78139 0
M  V30 9564 H 904.465 -2.08165 -6.12598 0
M  V30 9565 N 904.597 1.47463 -0.556102 0
M  V30 9566 C 905.527 2.32801 0.180497 0
M  V30 9567 C 906.508 1.43721 0.909848 0
M  V30 9568 O 907.693 1.72578 0.89053 0
M  V30 9569 C 904.823 3.25478 1.21167 0
M  V30 9570 C 903.777 4.2379 0.598846 0
M  V30 9571 C 903.103 5.05783 1.73457 0
M  V30 9572 C 904.403 5.20387 -0.446659 0
M  V30 9573 H 906.097 2.94636 -0.531956 0
M  V30 9574 H 903.643 1.41683 -0.257267 0
M  V30 9575 H 905.596 3.8402 1.73513 0
M  V30 9576 H 904.32 2.61695 1.95405 0
M  V30 9577 H 902.979 3.66472 0.0966897 0
M  V30 9578 H 902.627 4.38405 2.46596 0
M  V30 9579 H 902.327 5.72343 1.33031 0
M  V30 9580 H 903.851 5.67183 2.26131 0
M  V30 9581 H 905.265 5.73299 -0.00930019 0
M  V30 9582 H 903.662 5.95143 -0.769735 0
M  V30 9583 H 904.732 4.65932 -1.34295 0
M  V30 9584 N 906.075 0.2925 1.54862 0
M  V30 9585 C 907.023 -0.603186 2.24643 0
M  V30 9586 C 908.017 -1.1439 1.24946 0
M  V30 9587 O 909.223 -1.09552 1.42823 0
M  V30 9588 H 905.598 -0.213105 0.721173 0
M  V30 9589 H 907.569 0.00799278 2.98399 0
M  V30 9590 C 906.318 -1.76769 2.99413 0
M  V30 9591 H 905.641 -1.36084 3.75927 0
M  V30 9592 H 907.081 -2.37066 3.51533 0
M  V30 9593 C 905.54 -2.66669 2.05886 0
M  V30 9594 O 906.07 -3.67525 1.62136 0
M  V30 9595 N 904.276 -2.34216 1.7202 0
M  V30 9596 H 903.823 -1.52246 2.07795 0
M  V30 9597 H 903.781 -2.94635 1.09717 0
M  V30 9598 N 907.553 -1.57587 0.0200696 0
M  V30 9599 C 908.783 -1.95435 -0.669991 0
M  V30 9600 C 909.191 -0.894647 -1.66711 0
M  V30 9601 O 908.534 0.133009 -1.83218 0
M  V30 9602 C 908.596 -3.29379 -1.44047 0
M  V30 9603 C 908.26 -4.53008 -0.602691 0
M  V30 9604 C 909.257 -5.19766 0.118188 0
M  V30 9605 C 906.942 -4.99359 -0.542754 0
M  V30 9606 C 908.936 -6.31187 0.887774 0
M  V30 9607 C 906.623 -6.10665 0.230543 0
M  V30 9608 C 907.621 -6.76438 0.944522 0
M  V30 9609 O 907.309 -7.85608 1.70516 0
M  V30 9610 H 907.041 -0.648681 -0.190234 0
M  V30 9611 H 909.595 -2.05269 0.0733838 0
M  V30 9612 H 907.825 -3.1601 -2.22878 0
M  V30 9613 H 909.514 -3.52194 -2.01777 0
M  V30 9614 H 910.28 -4.84932 0.0811604 0
M  V30 9615 H 906.159 -4.47976 -1.08804 0
M  V30 9616 H 909.703 -6.82458 1.44558 0
M  V30 9617 H 905.6 -6.44938 0.26932 0
M  V30 9618 H 906.368 -8.02228 1.62398 0
M  V30 9619 N 909.032 0.252966 -1.55557 0
M  V30 9620 C 910.443 0.822503 -1.67606 0
M  V30 9621 C 910.794 1.86265 -0.616411 0
M  V30 9622 O 909.919 2.15082 0.238447 0
M  V30 9623 C 910.514 1.49866 -3.03852 0
M  V30 9624 C 909.073 2.01597 -3.17861 0
M  V30 9625 C 908.22 0.864943 -2.63465 0
M  V30 9626 H 911.171 0.0288958 -1.58674 0
M  V30 9627 H 911.192 2.36646 -2.97958 0
M  V30 9628 H 910.704 0.741378 -3.80953 0
M  V30 9629 H 908.805 2.80224 -2.45571 0
M  V30 9630 H 908.918 2.21752 -4.24692 0
M  V30 9631 H 907.282 1.2638 -2.21134 0
M  V30 9632 H 908.065 0.120847 -3.43087 0
M  V30 9633 N 910.51 1.48831 0.518367 0
M  V30 9634 C 911.735 1.61379 1.30275 0
M  V30 9635 C 912.16 0.278571 1.86026 0
M  V30 9636 O 911.518 -0.751427 1.64995 0
M  V30 9637 C 911.566 2.67225 2.42122 0
M  V30 9638 O 910.67 2.25192 3.45489 0
M  V30 9639 H 910.011 0.540742 0.385349 0
M  V30 9640 H 912.541 1.949 0.622498 0
M  V30 9641 H 912.551 2.88859 2.8814 0
M  V30 9642 H 911.226 3.64155 2.00907 0
M  V30 9643 H 909.803 2.13819 3.05509 0
M  V30 9644 N 911.988 -0.768124 1.37614 0
M  V30 9645 C 913.216 -1.55726 1.36224 0
M  V30 9646 C 913.631 -1.8873 -0.0515357 0
M  V30 9647 O 912.988 -1.51718 -1.0143 0
M  V30 9648 C 913.039 -2.86533 2.20412 0
M  V30 9649 O 912.76 -2.54942 3.56281 0
M  V30 9650 C 914.261 -3.80745 2.27041 0
M  V30 9651 H 911.481 -0.482325 0.46648 0
M  V30 9652 H 914.025 -0.95176 1.81002 0
M  V30 9653 H 912.18 -3.43496 1.79134 0
M  V30 9654 H 912.594 -3.38732 4.00451 0
M  V30 9655 H 914.068 -4.69523 2.90263 0
M  V30 9656 H 914.545 -4.20138 1.27987 0
M  V30 9657 H 915.151 -3.2971 2.68647 0
M  V30 9658 N 913.466 -1.22244 -0.994698 0
M  V30 9659 C 914.396 -1.01513 -2.10279 0
M  V30 9660 C 915.377 0.0633365 -1.69982 0
M  V30 9661 O 916.562 -0.0985268 -1.9395 0
M  V30 9662 C 913.692 -0.59016 -3.42249 0
M  V30 9663 C 912.646 -1.61436 -3.96387 0
M  V30 9664 C 911.972 -1.04528 -5.24383 0
M  V30 9665 C 913.272 -3.00388 -4.27276 0
M  V30 9666 H 914.966 -1.94194 -2.2788 0
M  V30 9667 H 912.512 -0.935094 -1.09508 0
M  V30 9668 H 914.465 -0.432254 -4.19177 0
M  V30 9669 H 913.189 0.372308 -3.24471 0
M  V30 9670 H 911.848 -1.76001 -3.21589 0
M  V30 9671 H 911.496 -0.0742225 -5.02945 0
M  V30 9672 H 911.196 -1.72949 -5.61571 0
M  V30 9673 H 912.72 -0.898922 -6.03947 0
M  V30 9674 H 914.134 -2.89207 -4.95007 0
M  V30 9675 H 912.531 -3.65916 -4.75631 0
M  V30 9676 H 913.601 -3.50456 -3.35125 0
M  V30 9677 N 914.944 1.19125 -1.03184 0
M  V30 9678 C 916.174 1.92558 -0.748663 0
M  V30 9679 C 916.582 1.759 0.696837 0
M  V30 9680 O 915.925 1.08019 1.48585 0
M  V30 9681 C 915.987 3.4461 -1.02391 0
M  V30 9682 C 915.651 3.85041 -2.46155 0
M  V30 9683 C 916.648 3.89554 -3.44302 0
M  V30 9684 C 914.333 4.16594 -2.80633 0
M  V30 9685 C 916.327 4.25055 -4.74981 0
M  V30 9686 C 914.014 4.51767 -4.11521 0
M  V30 9687 C 915.012 4.55972 -5.08506 0
M  V30 9688 O 914.7 4.9033 -6.37049 0
M  V30 9689 H 914.432 0.618397 -0.273059 0
M  V30 9690 H 916.986 1.52122 -1.38015 0
M  V30 9691 H 915.216 3.85244 -0.335284 0
M  V30 9692 H 916.905 3.99283 -0.729927 0
M  V30 9693 H 917.671 3.65324 -3.19003 0
M  V30 9694 H 913.55 4.12503 -2.05821 0
M  V30 9695 H 917.094 4.28252 -5.50678 0
M  V30 9696 H 912.991 4.75455 -4.36592 0
M  V30 9697 H 913.759 5.08266 -6.41566 0
M  V30 9698 N 916.422 0.810101 1.35185 0
M  V30 9699 C 917.354 0.180581 2.28488 0
M  V30 9700 C 918.367 -0.622154 1.50443 0
M  V30 9701 O 919.556 -0.453938 1.72632 0
M  V30 9702 C 916.656 -0.766447 3.30119 0
M  V30 9703 C 915.829 -0.00932028 4.37399 0
M  V30 9704 C 914.888 -0.875354 5.18868 0
M  V30 9705 O 913.914 -0.325012 5.68271 0
M  V30 9706 N 915.116 -2.19695 5.37321 0
M  V30 9707 H 917.881 0.98212 2.83151 0
M  V30 9708 H 915.442 0.665879 1.47573 0
M  V30 9709 H 917.434 -1.35012 3.81515 0
M  V30 9710 H 916.004 -1.46878 2.75945 0
M  V30 9711 H 915.224 0.755585 3.86891 0
M  V30 9712 H 916.512 0.512352 5.06214 0
M  V30 9713 H 915.91 -2.66797 4.98834 0
M  V30 9714 H 914.467 -2.72978 5.91884 0
M  V30 9715 N 917.9 -1.47166 0.563914 0
M  V30 9716 C 919.311 -1.86231 0.132307 0
M  V30 9717 C 919.662 -1.46976 -1.29971 0
M  V30 9718 O 918.787 -0.875911 -1.97881 0
M  V30 9719 C 919.382 -3.37996 0.233335 0
M  V30 9720 C 917.941 -3.76127 -0.143278 0
M  V30 9721 C 917.088 -2.71212 0.577857 0
M  V30 9722 H 920.039 -1.38588 0.773249 0
M  V30 9723 H 920.06 -3.76558 -0.546309 0
M  V30 9724 H 919.572 -3.66535 1.27568 0
M  V30 9725 H 917.673 -3.53205 -1.18648 0
M  V30 9726 H 917.786 -4.78595 0.219952 0
M  V30 9727 H 916.15 -2.54692 0.020186 0
M  V30 9728 H 916.933 -3.02593 1.62149 0
M  V30 9729 N 919.378 -0.300708 -1.54705 0
M  V30 9730 C 920.603 0.314073 -2.05008 0
M  V30 9731 C 921.028 1.46759 -1.17657 0
M  V30 9732 O 920.386 1.80398 -0.180598 0
M  V30 9733 C 920.434 0.748243 -3.52752 0
M  V30 9734 O 919.538 1.85305 -3.68424 0
M  V30 9735 H 918.879 0.0610139 -0.661191 0
M  V30 9736 H 921.409 -0.442467 -1.99758 0
M  V30 9737 H 921.419 1.03713 -3.94598 0
M  V30 9738 H 920.094 -0.095573 -4.1579 0
M  V30 9739 H 918.671 1.56473 -3.38483 0
M  V30 9740 N 920.856 1.57574 -0.0284266 0
M  V30 9741 C 921.819 2.09096 0.938691 0
M  V30 9742 C 922.819 1.00588 1.25454 0
M  V30 9743 O 924.009 1.2675 1.19499 0
M  V30 9744 C 921.141 2.55624 2.25542 0
M  V30 9745 H 922.334 2.95829 0.49248 0
M  V30 9746 H 919.887 1.5475 0.219594 0
M  V30 9747 H 920.622 1.72218 2.74793 0
M  V30 9748 H 920.407 3.34896 2.03929 0
M  V30 9749 H 921.897 2.95712 2.94863 0
M  V30 9750 N 922.334 -0.244713 1.55689 0
M  V30 9751 C 923.297 -1.2864 1.89695 0
M  V30 9752 C 924.297 -1.40969 0.773583 0
M  V30 9753 O 925.487 -1.39632 1.04156 0
M  V30 9754 C 922.619 -2.66379 2.12732 0
M  V30 9755 H 923.812 -0.997033 2.82841 0
M  V30 9756 H 921.365 -0.484103 1.48614 0
M  V30 9757 H 922.1 -3.00452 1.22062 0
M  V30 9758 H 921.885 -2.58812 2.94549 0
M  V30 9759 H 923.375 -3.41592 2.40218 0
M  V30 9760 N 923.813 -1.49104 -0.510467 0
M  V30 9761 C 925.038 -1.62068 -1.29417 0
M  V30 9762 C 925.463 -0.288432 -1.85875 0
M  V30 9763 O 924.821 0.742667 -1.65391 0
M  V30 9764 C 924.869 -2.68506 -2.40701 0
M  V30 9765 O 923.973 -2.27021 -3.4429 0
M  V30 9766 H 923.314 -0.542778 -0.382476 0
M  V30 9767 H 925.844 -1.95228 -0.612154 0
M  V30 9768 H 925.854 -2.90383 -2.86604 0
M  V30 9769 H 924.529 -3.65216 -1.98973 0
M  V30 9770 H 923.106 -2.15436 -3.04371 0
M  V30 9771 N 925.291 0.760815 -1.38019 0
M  V30 9772 C 926.224 1.88212 -1.2904 0
M  V30 9773 C 927.202 1.61721 -0.168805 0
M  V30 9774 O 928.386 1.85318 -0.344893 0
M  V30 9775 C 925.513 3.23672 -0.997702 0
M  V30 9776 C 924.559 3.6906 -2.13769 0
M  V30 9777 S 925.392 3.81445 -3.75845 0
M  V30 9778 C 926.548 5.19736 -3.48748 0
M  V30 9779 H 926.781 1.95541 -2.23944 0
M  V30 9780 H 924.314 0.923051 -1.2377 0
M  V30 9781 H 926.272 4.01904 -0.835657 0
M  V30 9782 H 924.933 3.14031 -0.065967 0
M  V30 9783 H 924.126 4.67295 -1.88816 0
M  V30 9784 H 923.728 2.97961 -2.26043 0
M  V30 9785 H 926.02 6.05259 -3.04414 0
M  V30 9786 H 926.963 5.49706 -4.46351 0
M  V30 9787 H 927.371 4.88191 -2.83425 0
M  V30 9788 N 926.769 1.22769 0.988202 0
M  V30 9789 C 927.732 1.00325 2.06076 0
M  V30 9790 C 928.732 -0.0320618 1.60768 0
M  V30 9791 O 929.922 0.206912 1.72967 0
M  V30 9792 C 927.054 0.516376 3.36966 0
M  V30 9793 H 928.247 1.95499 2.27421 0
M  V30 9794 H 925.8 1.04704 1.16047 0
M  V30 9795 H 926.535 -0.439498 3.21308 0
M  V30 9796 H 926.32 1.26337 3.71189 0
M  V30 9797 H 927.81 0.37974 4.1587 0
M  V30 9798 N 928.247 -1.18576 1.03814 0
M  V30 9799 C 929.21 -2.2033 0.63146 0
M  V30 9800 C 930.21 -1.57787 -0.309816 0
M  V30 9801 O 931.4 -1.73938 -0.0955598 0
M  V30 9802 C 928.532 -3.40818 -0.0745963 0
M  V30 9803 H 929.725 -2.57824 1.53189 0
M  V30 9804 H 927.278 -1.32416 0.830398 0
M  V30 9805 H 928.013 -3.08853 -0.988947 0
M  V30 9806 H 927.798 -3.87453 0.6019 0
M  V30 9807 H 929.288 -4.16166 -0.345727 0
M  V30 9808 N 929.725 -0.817259 -1.34754 0
M  V30 9809 C 930.971 -0.403244 -1.98751 0
M  V30 9810 C 931.304 1.02963 -1.64658 0
M  V30 9811 O 930.579 1.71617 -0.915314 0
M  V30 9812 C 930.862 -0.599188 -3.5508 0
M  V30 9813 C 930.715 -2.07777 -3.98934 0
M  V30 9814 C 932.034 -0.0315656 -4.40089 0
M  V30 9815 H 929.153 -0.147988 -0.721989 0
M  V30 9816 H 931.795 -1.02877 -1.59738 0
M  V30 9817 H 929.945 -0.0667116 -3.88443 0
M  V30 9818 H 931.617 -2.67345 -3.75931 0
M  V30 9819 H 929.86 -2.57031 -3.49453 0
M  V30 9820 H 930.531 -2.16571 -5.07741 0
M  V30 9821 H 933.007 -0.48644 -4.13247 0
M  V30 9822 H 931.883 -0.198507 -5.48541 0
M  V30 9823 H 932.144 1.06302 -4.2913 0
M  V30 9824 N 931.203 1.46865 -0.571711 0
M  V30 9825 C 932.166 2.28658 0.157499 0
M  V30 9826 C 933.166 1.37773 0.829172 0
M  V30 9827 O 934.356 1.6026 0.682811 0
M  V30 9828 C 931.488 3.17859 1.23202 0
M  V30 9829 H 932.681 2.94603 -0.561171 0
M  V30 9830 H 930.234 1.52793 -0.329229 0
M  V30 9831 H 930.969 2.56637 1.98262 0
M  V30 9832 H 930.754 3.84762 0.755031 0
M  V30 9833 H 932.244 3.7945 1.74378 0
M  V30 9834 N 932.681 0.308908 1.54543 0
M  V30 9835 C 933.613 -0.597453 2.21276 0
M  V30 9836 C 934.626 -1.09137 1.20801 0
M  V30 9837 O 935.815 -1.00747 1.47351 0
M  V30 9838 C 932.915 -1.83085 2.85189 0
M  V30 9839 C 932.088 -1.4781 4.11669 0
M  V30 9840 C 931.147 -2.56748 4.59311 0
M  V30 9841 O 930.173 -2.21507 5.24331 0
M  V30 9842 N 931.375 -3.87427 4.32297 0
M  V30 9843 H 934.14 -0.0261183 2.99689 0
M  V30 9844 H 931.701 0.131456 1.61365 0
M  V30 9845 H 933.693 -2.55326 3.13992 0
M  V30 9846 H 932.263 -2.31039 2.1057 0
M  V30 9847 H 931.483 -0.587974 3.8979 0
M  V30 9848 H 932.771 -1.2179 4.94009 0
M  V30 9849 H 932.169 -4.18863 3.80224 0
M  V30 9850 H 930.726 -4.55942 4.6579 0
M  V30 9851 N 934.159 -1.57557 0.0367827 0
M  V30 9852 C 935.575 -1.56366 -0.31967 0
M  V30 9853 C 935.775 -1.04313 -1.72398 0
M  V30 9854 O 934.831 -0.693278 -2.42796 0
M  V30 9855 C 936.144 -3.00267 -0.161274 0
M  V30 9856 C 937.692 -3.12128 -0.233464 0
M  V30 9857 C 938.167 -4.57882 -0.103767 0
M  V30 9858 N 939.658 -4.62922 -0.160506 0
M  V30 9859 C 940.393 -5.73338 -0.0840493 0
M  V30 9860 N 939.889 -6.92786 0.043933 0
M  V30 9861 N 941.682 -5.61929 -0.138592 0
M  V30 9862 H 933.833 -1.8972 0.954996 0
M  V30 9863 H 936.096 -0.87304 0.369467 0
M  V30 9864 H 935.802 -3.42331 0.80639 0
M  V30 9865 H 935.676 -3.65599 -0.928304 0
M  V30 9866 H 938.063 -2.69972 -1.19159 0
M  V30 9867 H 938.144 -2.49503 0.564075 0
M  V30 9868 H 937.788 -5.0072 0.850973 0
M  V30 9869 H 937.718 -5.18496 -0.920268 0
M  V30 9870 H 940.209 -3.7701 -0.259257 0
M  V30 9871 H 940.522 -7.72741 0.095372 0
M  V30 9872 H 938.867 -6.94955 0.0788211 0
M  V30 9873 H 942.058 -4.67499 -0.237031 0
M  V30 9874 H 942.231 -6.47956 -0.075546 0
M  V30 9875 N 935.637 0.236453 -1.55816 0
M  V30 9876 C 936.862 0.98449 -1.82545 0
M  V30 9877 C 937.287 1.77755 -0.615206 0
M  V30 9878 O 936.645 1.75982 0.435895 0
M  V30 9879 C 936.693 1.88973 -3.07118 0
M  V30 9880 O 935.797 2.98298 -2.84766 0
M  V30 9881 H 935.138 0.279577 -0.602273 0
M  V30 9882 H 937.668 0.254277 -2.03014 0
M  V30 9883 H 937.678 2.3024 -3.36829 0
M  V30 9884 H 936.353 1.30671 -3.94839 0
M  V30 9885 H 934.93 2.61085 -2.6625 0
M  V30 9886 N 937.115 1.49373 0.502552 0
M  V30 9887 C 938.048 1.60529 1.6219 0
M  V30 9888 C 939.026 0.454431 1.56121 0
M  V30 9889 O 940.21 0.669768 1.762 0
M  V30 9890 C 937.337 1.55879 3.00698 0
M  V30 9891 C 936.383 2.76143 3.25034 0
M  V30 9892 S 937.216 4.37831 3.08325 0
M  V30 9893 C 938.372 4.35824 4.49231 0
M  V30 9894 H 938.605 2.55219 1.52482 0
M  V30 9895 H 936.138 1.38244 0.687594 0
M  V30 9896 H 938.096 1.53882 3.80566 0
M  V30 9897 H 936.757 0.624791 3.07823 0
M  V30 9898 H 935.95 2.69104 4.26144 0
M  V30 9899 H 935.552 2.75544 2.52886 0
M  V30 9900 H 937.844 4.07447 5.41288 0
M  V30 9901 H 938.787 5.37206 4.6132 0
M  V30 9902 H 939.195 3.65923 4.29838 0
M  V30 9903 N 938.594 -0.753485 1.38421 0
M  V30 9904 C 940.005 -1.33081 1.30944 0
M  V30 9905 C 940.356 -1.96169 -0.0347124 0
M  V30 9906 O 939.481 -1.95073 -0.936768 0
M  V30 9907 C 940.076 -2.41973 2.37138 0
M  V30 9908 C 938.635 -2.95426 2.33239 0
M  V30 9909 C 937.782 -1.68808 2.19998 0
M  V30 9910 H 940.733 -0.552354 1.48777 0
M  V30 9911 H 940.754 -3.21913 2.02859 0
M  V30 9912 H 940.266 -1.96027 3.34956 0
M  V30 9913 H 938.367 -3.45701 1.39003 0
M  V30 9914 H 938.48 -3.49798 3.27381 0
M  V30 9915 H 936.844 -1.92438 1.66852 0
M  V30 9916 H 937.627 -1.24939 3.19758 0
M  V30 9917 N 940.072 -1.23292 -0.981677 0
M  V30 9918 C 941.002 -1.03738 -2.09191 0
M  V30 9919 C 941.983 0.0453041 -1.7004 0
M  V30 9920 O 943.168 -0.119092 -1.93834 0
M  V30 9921 C 940.298 -0.626426 -3.41604 0
M  V30 9922 C 939.252 -1.65631 -3.94652 0
M  V30 9923 C 938.578 -1.10084 -5.23245 0
M  V30 9924 C 939.878 -3.04903 -4.24066 0
M  V30 9925 H 941.572 -1.966 -2.25807 0
M  V30 9926 H 939.118 -0.946656 -1.0851 0
M  V30 9927 H 941.071 -0.476689 -4.18695 0
M  V30 9928 H 939.795 0.337873 -3.24848 0
M  V30 9929 H 938.454 -1.79402 -3.19704 0
M  V30 9930 H 938.102 -0.127562 -5.02838 0
M  V30 9931 H 937.802 -1.78896 -5.59705 0
M  V30 9932 H 939.326 -0.962928 -6.02959 0
M  V30 9933 H 940.74 -2.94441 -4.91912 0
M  V30 9934 H 939.137 -3.70941 -4.71724 0
M  V30 9935 H 940.207 -3.53991 -3.31389 0
M  V30 9936 N 941.55 1.18024 -1.04442 0
M  V30 9937 C 942.482 2.21294 -0.596799 0
M  V30 9938 C 943.495 1.59305 0.33552 0
M  V30 9939 O 944.684 1.7803 0.129443 0
M  V30 9940 C 941.784 3.38578 0.147648 0
M  V30 9941 C 940.957 4.30143 -0.793484 0
M  V30 9942 C 940.016 5.2612 -0.0916561 0
M  V30 9943 O 939.042 5.64586 -0.72331 0
M  V30 9944 N 940.244 5.68512 1.17364 0
M  V30 9945 H 943.009 2.6032 -1.48504 0
M  V30 9946 H 940.57 1.32847 -0.925374 0
M  V30 9947 H 942.562 3.99812 0.627098 0
M  V30 9948 H 941.132 2.98212 0.937466 0
M  V30 9949 H 940.352 3.66456 -1.45272 0
M  V30 9950 H 941.64 4.88216 -1.43258 0
M  V30 9951 H 941.038 5.39322 1.70729 0
M  V30 9952 H 939.595 6.31925 1.5973 0
M  V30 9953 N 943.028 0.824394 1.34319 0
M  V30 9954 C 944.256 0.426194 2.02463 0
M  V30 9955 C 944.671 -0.968298 1.62078 0
M  V30 9956 O 944.028 -1.62689 0.82696 0
M  V30 9957 C 944.079 0.520465 3.57734 0
M  V30 9958 O 943.8 1.86 3.96656 0
M  V30 9959 C 945.301 0.117353 4.43145 0
M  V30 9960 H 942.521 0.170864 0.648881 0
M  V30 9961 H 945.065 1.11296 1.71562 0
M  V30 9962 H 943.22 -0.118233 3.8722 0
M  V30 9963 H 943.634 1.83528 4.91343 0
M  V30 9964 H 945.108 0.234395 5.51502 0
M  V30 9965 H 945.585 -0.939271 4.29039 0
M  V30 9966 H 946.191 0.729908 4.1899 0
M  V30 9967 N 944.506 -1.46559 0.579492 0
M  V30 9968 C 945.754 -2.02 0.0637157 0
M  V30 9969 C 946.075 -1.45378 -1.29962 0
M  V30 9970 O 945.345 -0.637262 -1.85245 0
M  V30 9971 H 943.925 -0.746717 0.0205638 0
M  V30 9972 H 946.587 -1.79702 0.754544 0
M  V30 9973 H 945.683 -3.12099 -0.00770254 0
M  V30 9974 N 945.984 -0.3171 -1.54377 0
M  V30 9975 C 947.212 0.289558 -2.04864 0
M  V30 9976 C 947.627 1.46284 -1.19359 0
M  V30 9977 O 946.984 1.81135 -0.222795 0
M  V30 9978 C 947.035 0.730273 -3.54047 0
M  V30 9979 O 946.756 -0.396325 -4.36304 0
M  V30 9980 C 948.257 1.40041 -4.20599 0
M  V30 9981 H 945.477 0.0605836 -0.668259 0
M  V30 9982 H 948.021 -0.461411 -1.99227 0
M  V30 9983 H 946.176 1.43123 -3.59992 0
M  V30 9984 H 946.59 -0.0502901 -5.24476 0
M  V30 9985 H 948.064 1.65979 -5.26455 0
M  V30 9986 H 948.541 2.34565 -3.71316 0
M  V30 9987 H 949.147 0.742206 -4.18774 0
M  V30 9988 N 947.462 1.57535 -0.0451378 0
M  V30 9989 C 948.425 2.1008 0.916461 0
M  V30 9990 C 949.425 1.01913 1.2438 0
M  V30 9991 O 950.615 1.2801 1.18148 0
M  V30 9992 C 947.747 2.58001 2.22818 0
M  V30 9993 H 948.94 2.96334 0.461076 0
M  V30 9994 H 946.493 1.54974 0.203169 0
M  V30 9995 H 947.228 1.75123 2.72951 0
M  V30 9996 H 947.013 3.3704 2.00366 0
M  V30 9997 H 948.503 2.98822 2.9171 0
M  V30 9998 N 948.94 -0.228186 1.55939 0
M  V30 9999 C 949.872 -1.30605 1.88348 0
M  V30 10000 C 950.885 -1.43375 0.771198 0
M  V30 10001 O 952.074 -1.44391 1.04945 0
M  V30 10002 C 949.174 -2.68248 2.07115 0
M  V30 10003 C 948.347 -2.77509 3.38094 0
M  V30 10004 C 947.406 -3.96121 3.46373 0
M  V30 10005 O 946.432 -3.8477 4.19453 0
M  V30 10006 N 947.634 -5.10132 2.77031 0
M  V30 10007 H 950.399 -1.03132 2.81396 0
M  V30 10008 H 947.96 -0.418245 1.56404 0
M  V30 10009 H 949.952 -3.45966 2.09976 0
M  V30 10010 H 948.522 -2.88348 1.20723 0
M  V30 10011 H 947.742 -1.8632 3.47388 0
M  V30 10012 H 949.03 -2.80662 4.2439 0
M  V30 10013 H 948.428 -5.22249 2.17424 0
M  V30 10014 H 946.985 -5.85916 2.85561 0
M  V30 10015 N 950.418 -1.49637 -0.494624 0
M  V30 10016 C 951.667 -1.58691 -1.24499 0
M  V30 10017 C 951.98 -0.281763 -1.9356 0
M  V30 10018 O 953.186 -0.250925 -2.70338 0
M  V30 10019 C 951.642 -2.8002 -2.26091 0
M  V30 10020 C 951.25 -4.17318 -1.6294 0
M  V30 10021 C 952.994 -2.98407 -3.01916 0
M  V30 10022 C 950.901 -5.29862 -2.62679 0
M  V30 10023 H 949.831 -0.590888 -0.468367 0
M  V30 10024 H 952.482 -1.76034 -0.518112 0
M  V30 10025 H 950.864 -2.56185 -3.01969 0
M  V30 10026 H 952.038 -4.51315 -0.930108 0
M  V30 10027 H 950.353 -4.04342 -0.994819 0
M  V30 10028 H 952.95 -3.79658 -3.76516 0
M  V30 10029 H 953.293 -2.09214 -3.5991 0
M  V30 10030 H 953.826 -3.22312 -2.33152 0
M  V30 10031 H 950.565 -6.21134 -2.09458 0
M  V30 10032 H 950.085 -5.00311 -3.3083 0
M  V30 10033 H 951.764 -5.59461 -3.2498 0
M  V30 10034 N 951.896 0.746133 -1.38819 0
M  V30 10035 C 953.136 1.51821 -1.36857 0
M  V30 10036 C 953.5 1.9196 0.0391461 0
M  V30 10037 O 954.701 2.68172 0.183689 0
M  V30 10038 C 952.972 2.73214 -2.3041 0
M  V30 10039 S 954.531 3.62995 -2.46536 0
M  V30 10040 H 951.349 0.51945 -0.485482 0
M  V30 10041 H 953.951 0.875244 -1.74813 0
M  V30 10042 H 952.655 2.41847 -3.31569 0
M  V30 10043 H 952.186 3.42449 -1.9363 0
M  V30 10044 H 954.201 4.66353 -1.69498 0
M  V30 10045 N 953.375 1.23811 0.975125 0
M  V30 10046 C 954.338 1.02505 2.05001 0
M  V30 10047 C 955.338 -0.0150084 1.60793 0
M  V30 10048 O 956.528 0.225246 1.72738 0
M  V30 10049 C 953.66 0.552087 3.364 0
M  V30 10050 H 954.853 1.979 2.25335 0
M  V30 10051 H 952.406 1.05929 1.1493 0
M  V30 10052 H 953.141 -0.405394 3.21756 0
M  V30 10053 H 952.926 1.30267 3.69828 0
M  V30 10054 H 954.416 0.423828 4.15444 0
M  V30 10055 N 954.853 -1.17469 1.05066 0
M  V30 10056 C 956.269 -1.39699 0.771769 0
M  V30 10057 C 956.469 -1.91253 -0.634382 0
M  V30 10058 O 955.525 -2.10334 -1.39699 0
M  V30 10059 C 956.838 -2.38886 1.82631 0
M  V30 10060 C 958.386 -2.52595 1.84838 0
M  V30 10061 C 958.861 -3.55054 2.89311 0
M  V30 10062 N 960.352 -3.6257 2.88266 0
M  V30 10063 C 961.087 -4.41603 3.65752 0
M  V30 10064 N 960.583 -5.24162 4.53019 0
M  V30 10065 N 962.376 -4.36464 3.54197 0
M  V30 10066 H 954.527 -0.823355 1.95792 0
M  V30 10067 H 956.79 -0.42432 0.847736 0
M  V30 10068 H 956.496 -2.08075 2.83545 0
M  V30 10069 H 956.37 -3.38371 1.66687 0
M  V30 10070 H 958.757 -2.82717 0.845888 0
M  V30 10071 H 958.838 -1.53188 2.04859 0
M  V30 10072 H 958.482 -3.2567 3.89745 0
M  V30 10073 H 958.412 -4.54162 2.66542 0
M  V30 10074 H 960.903 -3.03625 2.24989 0
M  V30 10075 H 961.216 -5.81646 5.0883 0
M  V30 10076 H 959.561 -5.23547 4.57081 0
M  V30 10077 H 962.752 -3.7102 2.85416 0
M  V30 10078 H 962.925 -4.97814 4.14832 0
M  V30 10079 N 956.331 -0.831506 -1.3388 0
M  V30 10080 C 957.742 -0.481375 -1.80388 0
M  V30 10081 C 958.093 0.998993 -1.68863 0
M  V30 10082 O 957.218 1.77795 -1.2336 0
M  V30 10083 C 957.813 -0.86699 -3.27519 0
M  V30 10084 C 956.372 -0.569105 -3.72073 0
M  V30 10085 C 955.519 -1.07929 -2.55434 0
M  V30 10086 H 958.47 -1.02089 -1.21505 0
M  V30 10087 H 958.491 -0.174128 -3.80101 0
M  V30 10088 H 958.003 -1.94447 -3.35875 0
M  V30 10089 H 956.104 0.498607 -3.69249 0
M  V30 10090 H 956.217 -1.11918 -4.65845 0
M  V30 10091 H 954.581 -0.500465 -2.49735 0
M  V30 10092 H 955.364 -2.16339 -2.66556 0
M  V30 10093 N 957.809 1.4625 -0.587256 0
M  V30 10094 C 959.086 1.95599 -0.00750181 0
M  V30 10095 C 959.466 1.52989 1.45457 0
M  V30 10096 O 958.814 0.782731 2.14676 0
M  V30 10097 C 959.024 3.48513 -0.184309 0
M  V30 10098 C 960.372 4.24565 -0.0544972 0
M  V30 10099 O 961.396 3.5602 -0.113378 0
M  V30 10100 O 960.255 5.46445 0.0774075 0
M  V30 10101 H 957.349 0.825649 0.0472495 0
M  V30 10102 H 959.895 1.56512 -0.655893 0
M  V30 10103 H 958.667 3.72428 -1.20053 0
M  V30 10104 H 958.29 3.9444 0.500301 0
M  V30 10105 N 959.287 0.325282 1.54207 0
M  V30 10106 C 960.698 -0.162426 1.85992 0
M  V30 10107 C 961.049 -1.51482 1.2469 0
M  V30 10108 O 960.174 -2.092 0.553578 0
M  V30 10109 C 960.769 -0.3015 3.37456 0
M  V30 10110 C 959.328 -0.73343 3.69185 0
M  V30 10111 C 958.475 0.143831 2.76927 0
M  V30 10112 H 961.426 0.545508 1.4903 0
M  V30 10113 H 961.447 -1.13212 3.63268 0
M  V30 10114 H 960.959 0.682942 3.82044 0
M  V30 10115 H 959.06 -1.72755 3.30131 0
M  V30 10116 H 959.173 -0.535987 4.76092 0
M  V30 10117 H 957.537 -0.380892 2.51836 0
M  V30 10118 H 958.32 1.12507 3.24341 0
M  V30 10119 N 960.765 -1.57509 0.0534917 0
M  V30 10120 C 962.012 -1.92782 -0.619772 0
M  V30 10121 C 962.34 -0.932046 -1.70714 0
M  V30 10122 O 961.595 0.0552891 -1.95622 0
M  V30 10123 C 961.894 -3.34734 -1.25251 0
M  V30 10124 C 961.56 -4.49946 -0.293113 0
M  V30 10125 C 960.222 -4.81191 -0.0291223 0
M  V30 10126 C 962.574 -5.19925 0.364271 0
M  V30 10127 C 959.902 -5.79761 0.899649 0
M  V30 10128 C 962.254 -6.19489 1.28125 0
M  V30 10129 C 960.918 -6.49161 1.55389 0
M  V30 10130 H 960.188 -0.705441 -0.226791 0
M  V30 10131 H 962.835 -1.91121 0.120466 0
M  V30 10132 H 961.14 -3.32774 -2.06807 0
M  V30 10133 H 962.837 -3.59308 -1.78042 0
M  V30 10134 H 959.427 -4.25566 -0.509053 0
M  V30 10135 H 963.611 -4.95997 0.173411 0
M  V30 10136 H 958.867 -6.01085 1.11833 0
M  V30 10137 H 963.041 -6.72824 1.79669 0
M  V30 10138 H 960.668 -7.25354 2.2752 0
M  V30 10139 N 962.243 0.219913 -1.56058 0
M  V30 10140 C 963.175 1.29604 -1.89038 0
M  V30 10141 C 964.188 1.42964 -0.778791 0
M  V30 10142 O 965.377 1.43832 -1.0571 0
M  V30 10143 C 962.477 2.67145 -2.08534 0
M  V30 10144 C 961.65 2.75712 -3.39561 0
M  V30 10145 C 960.709 3.94279 -3.48469 0
M  V30 10146 O 959.735 3.8254 -4.21487 0
M  V30 10147 N 960.937 5.08655 -2.79732 0
M  V30 10148 H 963.702 1.01638 -2.81939 0
M  V30 10149 H 961.263 0.409945 -1.56624 0
M  V30 10150 H 963.255 3.44847 -2.11808 0
M  V30 10151 H 961.825 2.87704 -1.2225 0
M  V30 10152 H 961.045 1.84475 -3.48371 0
M  V30 10153 H 962.333 2.78407 -4.25872 0
M  V30 10154 H 961.731 5.21088 -2.2019 0
M  V30 10155 H 960.288 5.84394 -2.88665 0
M  V30 10156 N 963.721 1.49897 0.486681 0
M  V30 10157 C 964.653 1.63755 1.60365 0
M  V30 10158 C 965.666 0.519614 1.54285 0
M  V30 10159 O 966.855 0.792219 1.59957 0
M  V30 10160 C 963.955 1.59153 2.99205 0
M  V30 10161 C 963.128 2.8672 3.30319 0
M  V30 10162 C 962.187 2.74974 4.48638 0
M  V30 10163 O 961.213 3.48922 4.49714 0
M  V30 10164 N 962.415 1.87479 5.49392 0
M  V30 10165 H 965.18 2.60094 1.48899 0
M  V30 10166 H 962.741 1.47166 0.674825 0
M  V30 10167 H 964.733 1.4893 3.76301 0
M  V30 10168 H 963.303 0.706133 3.0452 0
M  V30 10169 H 962.523 3.11188 2.41983 0
M  V30 10170 H 963.811 3.71262 3.47911 0
M  V30 10171 H 963.209 1.26684 5.51333 0
M  V30 10172 H 961.766 1.83169 6.25534 0
M  V30 10173 N 965.199 -0.738761 1.39212 0
M  V30 10174 C 966.162 -1.83441 1.37412 0
M  V30 10175 C 967.162 -1.58484 0.271908 0
M  V30 10176 O 968.352 -1.65954 0.529609 0
M  V30 10177 C 965.484 -3.21167 1.143 0
M  V30 10178 H 966.677 -1.86441 2.34904 0
M  V30 10179 H 964.23 -0.942023 1.24722 0
M  V30 10180 H 964.965 -3.23829 0.174756 0
M  V30 10181 H 964.75 -3.40678 1.94116 0
M  V30 10182 H 966.24 -4.01231 1.15773 0
M  V30 10183 N 966.677 -1.24326 -0.968545 0
M  V30 10184 C 967.607 -1.05951 -2.08079 0
M  V30 10185 C 968.588 0.0272666 -1.70078 0
M  V30 10186 O 969.773 -0.139644 -1.93697 0
M  V30 10187 C 966.903 -0.662623 -3.4092 0
M  V30 10188 C 965.857 -1.69807 -3.92873 0
M  V30 10189 C 965.183 -1.15628 -5.22048 0
M  V30 10190 C 966.483 -3.09383 -4.20808 0
M  V30 10191 H 968.177 -1.98984 -2.23709 0
M  V30 10192 H 965.723 -0.958112 -1.075 0
M  V30 10193 H 967.676 -0.521071 -4.18166 0
M  V30 10194 H 966.4 0.303399 -3.25188 0
M  V30 10195 H 965.059 -1.82783 -3.17783 0
M  V30 10196 H 964.707 -0.180888 -5.02675 0
M  V30 10197 H 964.407 -1.84822 -5.57776 0
M  V30 10198 H 965.931 -1.02683 -6.01904 0
M  V30 10199 H 967.345 -2.99642 -4.88761 0
M  V30 10200 H 965.742 -3.75923 -4.67763 0
M  V30 10201 H 966.812 -3.57486 -3.27616 0
M  V30 10202 N 968.156 1.1691 -1.05688 0
M  V30 10203 C 969.405 1.86629 -0.765022 0
M  V30 10204 C 969.718 1.82223 0.710918 0
M  V30 10205 O 970.924 2.47462 1.11691 0
M  V30 10206 C 969.38 3.34886 -1.3183 0
M  V30 10207 C 968.988 3.47781 -2.82404 0
M  V30 10208 C 970.732 4.099 -1.10372 0
M  V30 10209 C 968.639 4.9009 -3.31008 0
M  V30 10210 H 967.569 0.699082 -0.282491 0
M  V30 10211 H 970.22 1.31989 -1.27481 0
M  V30 10212 H 968.602 3.89094 -0.736312 0
M  V30 10213 H 969.776 3.03765 -3.46502 0
M  V30 10214 H 968.091 2.86193 -3.02461 0
M  V30 10215 H 970.688 5.14894 -1.4418 0
M  V30 10216 H 971.031 4.16279 -0.0417372 0
M  V30 10217 H 971.564 3.61913 -1.65117 0
M  V30 10218 H 968.303 4.88887 -4.36657 0
M  V30 10219 H 967.823 5.34756 -2.71655 0
M  V30 10220 H 969.502 5.58881 -3.25977 0
M  V30 10221 N 969.634 0.838594 1.33437 0
M  V30 10222 C 970.88 0.434813 1.98084 0
M  V30 10223 C 971.213 -1.00331 1.66275 0
M  V30 10224 O 970.488 -1.70139 0.942501 0
M  V30 10225 C 970.771 0.655602 3.54082 0
M  V30 10226 C 970.624 2.14097 3.95578 0
M  V30 10227 C 971.943 0.101576 4.39983 0
M  V30 10228 H 969.062 0.159456 0.719544 0
M  V30 10229 H 971.704 1.05406 1.58081 0
M  V30 10230 H 969.854 0.128501 3.88287 0
M  V30 10231 H 971.526 2.73292 3.71631 0
M  V30 10232 H 969.769 2.62558 3.4532 0
M  V30 10233 H 970.44 2.24621 5.04231 0
M  V30 10234 H 972.916 0.552122 4.12421 0
M  V30 10235 H 971.792 0.28575 5.48156 0
M  V30 10236 H 972.053 -0.994616 4.30767 0
M  V30 10237 N 971.112 -1.45937 0.595003 0
M  V30 10238 C 972.352 -2.0421 0.0881479 0
M  V30 10239 C 972.716 -1.45498 -1.25277 0
M  V30 10240 O 973.917 -1.95047 -1.8496 0
M  V30 10241 C 972.188 -3.57382 0.0362346 0
M  V30 10242 S 973.747 -4.36869 -0.41126 0
M  V30 10243 H 970.565 -0.709672 0.0434424 0
M  V30 10244 H 973.167 -1.78815 0.790273 0
M  V30 10245 H 971.871 -3.97628 1.0159 0
M  V30 10246 H 971.402 -3.87332 -0.688278 0
M  V30 10247 H 973.417 -4.67486 -1.66347 0
M  V30 10248 N 972.59 -0.333456 -1.54032 0
M  V30 10249 C 974.001 0.15256 -1.86076 0
M  V30 10250 C 974.352 1.50819 -1.25492 0
M  V30 10251 O 973.477 2.08903 -0.564665 0
M  V30 10252 C 974.072 0.283599 -3.37611 0
M  V30 10253 C 972.631 0.713841 -3.69569 0
M  V30 10254 C 971.778 -0.158515 -2.76847 0
M  V30 10255 H 974.729 -0.553404 -1.48738 0
M  V30 10256 H 974.75 1.11284 -3.63863 0
M  V30 10257 H 974.262 -0.703193 -3.81676 0
M  V30 10258 H 972.363 1.71002 -3.31042 0
M  V30 10259 H 972.476 0.510731 -4.7637 0
M  V30 10260 H 970.84 0.367531 -2.52034 0
M  V30 10261 H 971.623 -1.14226 -3.2374 0
M  V30 10262 N 974.068 1.57479 -0.061844 0
M  V30 10263 C 975.479 1.80627 0.472295 0
M  V30 10264 C 975.83 0.97496 1.70261 0
M  V30 10265 O 974.955 0.1946 2.15523 0
M  V30 10266 C 975.55 3.27608 0.863616 0
M  V30 10267 C 974.109 3.51638 1.34267 0
M  V30 10268 C 973.256 2.75412 0.323009 0
M  V30 10269 H 976.207 1.56072 -0.287634 0
M  V30 10270 H 976.228 3.39113 1.72577 0
M  V30 10271 H 975.74 3.88087 -0.0320226 0
M  V30 10272 H 973.841 2.96452 2.25714 0
M  V30 10273 H 973.954 4.60342 1.32747 0
M  V30 10274 H 972.318 2.4187 0.798175 0
M  V30 10275 H 973.101 3.38623 -0.564729 0
M  V30 10276 N 975.546 -0.211634 1.56173 0
M  V30 10277 C 976.794 -0.932704 1.7929 0
M  V30 10278 C 977.115 -1.84472 0.632076 0
M  V30 10279 O 976.385 -1.92739 -0.350519 0
M  V30 10280 H 974.965 -0.347393 0.661307 0
M  V30 10281 H 977.627 -0.22111 1.93642 0
M  V30 10282 H 976.723 -1.53365 2.71819 0
M  V30 10283 N 977.024 -1.50153 -0.478725 0
M  V30 10284 C 978.271 -1.6076 -1.23136 0
M  V30 10285 C 978.599 -0.30442 -1.92103 0
M  V30 10286 O 977.854 0.709213 -1.82397 0
M  V30 10287 C 978.153 -2.73208 -2.30417 0
M  V30 10288 C 977.819 -4.13953 -1.78755 0
M  V30 10289 C 976.481 -4.52251 -1.64386 0
M  V30 10290 C 978.833 -5.01949 -1.40344 0
M  V30 10291 C 976.161 -5.76292 -1.10018 0
M  V30 10292 C 978.513 -6.2653 -0.874206 0
M  V30 10293 C 977.177 -6.63637 -0.717085 0
M  V30 10294 H 976.447 -0.588264 -0.450585 0
M  V30 10295 H 979.094 -1.84061 -0.528551 0
M  V30 10296 H 977.399 -2.43965 -3.06575 0
M  V30 10297 H 979.096 -2.7862 -2.88395 0
M  V30 10298 H 975.686 -3.83736 -1.90904 0
M  V30 10299 H 979.87 -4.73 -1.50283 0
M  V30 10300 H 975.126 -6.03723 -0.965838 0
M  V30 10301 H 979.3 -6.94081 -0.567883 0
M  V30 10302 H 976.927 -7.59633 -0.293639 0
M  V30 10303 N 978.502 0.731368 -1.39602 0
M  V30 10304 C 979.434 1.85575 -1.34516 0
M  V30 10305 C 980.447 1.60818 -0.253287 0
M  V30 10306 O 981.636 1.70984 -0.512505 0
M  V30 10307 C 978.736 3.21673 -1.06676 0
M  V30 10308 C 977.909 3.73757 -2.27211 0
M  V30 10309 C 976.968 4.88426 -1.95773 0
M  V30 10310 O 975.994 5.01898 -2.68491 0
M  V30 10311 N 977.196 5.73065 -0.926083 0
M  V30 10312 H 979.961 1.90442 -2.31413 0
M  V30 10313 H 977.522 0.912258 -1.33752 0
M  V30 10314 H 979.514 3.95959 -0.836577 0
M  V30 10315 H 978.084 3.12052 -0.185003 0
M  V30 10316 H 977.304 2.90781 -2.66158 0
M  V30 10317 H 978.592 4.05289 -3.07601 0
M  V30 10318 H 977.99 5.64774 -0.323497 0
M  V30 10319 H 976.547 6.47403 -0.755795 0
M  V30 10320 N 979.98 1.24838 0.961938 0
M  V30 10321 C 981.228 1.08936 1.70227 0
M  V30 10322 C 981.549 -0.371582 1.91427 0
M  V30 10323 O 980.819 -1.26461 1.49614 0
M  V30 10324 H 979.399 0.400128 0.630799 0
M  V30 10325 H 982.061 1.56848 1.15692 0
M  V30 10326 H 981.157 1.59195 2.68446 0
M  V30 10327 N 981.458 -1.16348 1.06306 0
M  V30 10328 C 982.388 -2.2291 0.695234 0
M  V30 10329 C 983.369 -1.67208 -0.312343 0
M  V30 10330 O 984.554 -1.93293 -0.187442 0
M  V30 10331 C 981.684 -3.47205 0.0810149 0
M  V30 10332 C 980.638 -4.15801 1.01458 0
M  V30 10333 C 979.964 -5.3405 0.263656 0
M  V30 10334 C 981.264 -4.66766 2.34365 0
M  V30 10335 H 982.958 -2.53934 1.58613 0
M  V30 10336 H 980.504 -1.22056 0.76409 0
M  V30 10337 H 982.457 -4.2098 -0.18818 0
M  V30 10338 H 981.181 -3.15482 -0.844897 0
M  V30 10339 H 979.84 -3.43954 1.26852 0
M  V30 10340 H 979.488 -4.9858 -0.665378 0
M  V30 10341 H 979.188 -5.80885 0.88582 0
M  V30 10342 H 980.712 -6.106 0.00200994 0
M  V30 10343 H 982.126 -5.3212 2.13356 0
M  V30 10344 H 980.523 -5.24223 2.9208 0
M  V30 10345 H 981.593 -3.82969 2.97426 0
M  V30 10346 N 982.937 -0.845659 -1.3299 0
M  V30 10347 C 983.869 -0.241097 -2.27928 0
M  V30 10348 C 984.882 0.582048 -1.5204 0
M  V30 10349 O 986.071 0.408008 -1.73774 0
M  V30 10350 C 983.171 0.678652 -3.32035 0
M  V30 10351 C 982.344 -0.106652 -4.3727 0
M  V30 10352 C 981.403 0.737478 -5.21006 0
M  V30 10353 O 980.429 0.174231 -5.68933 0
M  V30 10354 N 981.631 2.05372 -5.42957 0
M  V30 10355 H 984.396 -1.05685 -2.80448 0
M  V30 10356 H 981.957 -0.704771 -1.45755 0
M  V30 10357 H 983.949 1.24849 -3.84961 0
M  V30 10358 H 982.519 1.3951 -2.79742 0
M  V30 10359 H 981.739 -0.857897 -3.84752 0
M  V30 10360 H 983.027 -0.646386 -5.04677 0
M  V30 10361 H 982.425 2.53478 -5.05733 0
M  V30 10362 H 980.982 2.5719 -5.98913 0
M  V30 10363 N 984.415 1.45619 -0.602734 0
M  V30 10364 C 985.378 2.28941 0.108962 0
M  V30 10365 C 986.378 1.39501 0.799762 0
M  V30 10366 O 987.568 1.61673 0.648663 0
M  V30 10367 C 984.7 3.204 1.16432 0
M  V30 10368 H 985.893 2.93346 -0.623534 0
M  V30 10369 H 983.446 1.52061 -0.361565 0
M  V30 10370 H 984.181 2.60785 1.92774 0
M  V30 10371 H 983.966 3.86277 0.673248 0
M  V30 10372 H 985.456 3.83063 1.6629 0
M  V30 10373 N 985.893 0.34162 1.53853 0
M  V30 10374 C 987.118 -0.259608 2.05769 0
M  V30 10375 C 987.543 -1.43588 1.21507 0
M  V30 10376 O 986.901 -1.79856 0.228364 0
M  V30 10377 C 986.949 -0.654455 3.54611 0
M  V30 10378 O 986.053 -1.75472 3.73207 0
M  V30 10379 H 985.394 -0.0434621 0.662576 0
M  V30 10380 H 987.924 0.495274 1.98515 0
M  V30 10381 H 987.934 -0.932142 3.97209 0
M  V30 10382 H 986.609 0.205779 4.15391 0
M  V30 10383 H 985.186 -1.47444 3.42512 0
M  V30 10384 N 987.371 -1.57444 0.0701946 0
M  V30 10385 C 988.782 -1.80875 -0.462709 0
M  V30 10386 C 989.133 -0.983975 -1.69742 0
M  V30 10387 O 988.258 -0.206027 -2.15417 0
M  V30 10388 C 988.853 -3.28062 -0.84623 0
M  V30 10389 C 987.412 -3.52345 -1.32401 0
M  V30 10390 C 986.559 -2.7558 -0.308399 0
M  V30 10391 H 989.51 -1.55917 0.295907 0
M  V30 10392 H 989.531 -3.40023 -1.70776 0
M  V30 10393 H 989.043 -3.88064 0.0526033 0
M  V30 10394 H 987.144 -2.97645 -2.24139 0
M  V30 10395 H 987.257 -4.6104 -1.30304 0
M  V30 10396 H 985.621 -2.4229 -0.785337 0
M  V30 10397 H 986.404 -3.38319 0.582679 0
M  V30 10398 N 988.849 0.203349 -1.56283 0
M  V30 10399 C 990.074 0.945548 -1.84592 0
M  V30 10400 C 990.499 1.7641 -0.652772 0
M  V30 10401 O 989.857 1.76867 0.398468 0
M  V30 10402 C 989.905 1.82416 -3.11057 0
M  V30 10403 O 989.009 2.92191 -2.9103 0
M  V30 10404 H 988.35 0.266739 -0.608068 0
M  V30 10405 H 990.88 0.211158 -2.03507 0
M  V30 10406 H 990.89 2.23044 -3.41636 0
M  V30 10407 H 989.565 1.22267 -3.97522 0
M  V30 10408 H 988.142 2.55378 -2.71728 0
M  V30 10409 N 990.327 1.50405 0.470755 0
M  V30 10410 C 991.274 1.69293 1.56871 0
M  V30 10411 C 992.244 0.534248 1.57274 0
M  V30 10412 O 993.429 0.764855 1.74799 0
M  V30 10413 C 990.569 1.79338 2.94842 0
M  V30 10414 C 989.682 3.06709 3.04226 0
M  V30 10415 C 988.817 3.07548 4.33114 0
M  V30 10416 C 987.856 4.29372 4.36241 0
M  V30 10417 N 986.993 4.27949 5.56601 0
M  V30 10418 H 991.833 2.63029 1.40071 0
M  V30 10419 H 989.37 1.30386 0.681016 0
M  V30 10420 H 991.328 1.83143 3.74853 0
M  V30 10421 H 989.958 0.890411 3.10277 0
M  V30 10422 H 989.01 3.12374 2.17086 0
M  V30 10423 H 990.322 3.96684 3.02396 0
M  V30 10424 H 989.476 3.10084 5.21472 0
M  V30 10425 H 988.215 2.15404 4.37553 0
M  V30 10426 H 987.22 4.27048 3.4628 0
M  V30 10427 H 988.445 5.22743 4.33493 0
M  V30 10428 H 986.391 3.38658 5.61824 0
M  V30 10429 H 986.308 5.11692 5.56513 0
M  V30 10430 H 987.576 4.34631 6.47083 0
M  V30 10431 N 991.805 -0.723954 1.39988 0
M  V30 10432 C 992.755 -1.82943 1.36073 0
M  V30 10433 C 993.739 -1.59105 0.239682 0
M  V30 10434 O 994.931 -1.7042 0.478116 0
M  V30 10435 C 992.06 -3.20988 1.21745 0
M  V30 10436 C 991.146 -3.50618 2.38596 0
M  V30 10437 N 991.537 -3.51115 3.64077 0
M  V30 10438 C 989.835 -3.81035 2.31794 0
M  V30 10439 C 990.536 -3.78852 4.41413 0
M  V30 10440 N 989.512 -3.97182 3.71143 0
M  V30 10441 H 993.314 -1.81649 2.31043 0
M  V30 10442 H 990.828 -0.922703 1.33641 0
M  V30 10443 H 992.825 -4.00139 1.17022 0
M  V30 10444 H 991.485 -3.23513 0.277344 0
M  V30 10445 H 992.496 -3.32163 3.97351 0
M  V30 10446 H 989.173 -3.911 1.46105 0
M  V30 10447 H 990.563 -3.85612 5.5023 0
M  V30 10448 N 993.283 -1.25346 -0.955304 0
M  V30 10449 C 994.246 -1.05754 -2.03344 0
M  V30 10450 C 995.246 -0.0105743 -1.60797 0
M  V30 10451 O 996.436 -0.252699 -1.72357 0
M  V30 10452 C 993.568 -0.605536 -3.35479 0
M  V30 10453 H 994.761 -2.01459 -2.22158 0
M  V30 10454 H 992.314 -1.07744 -1.1323 0
M  V30 10455 H 993.049 0.354154 -3.2236 0
M  V30 10456 H 992.834 -1.36134 -3.67709 0
M  V30 10457 H 994.324 -0.489867 -4.14717 0
M  V30 10458 N 994.761 1.15782 -1.06922 0
M  V30 10459 C 996.009 1.86097 -0.788192 0
M  V30 10460 C 996.33 1.82475 0.687606 0
M  V30 10461 O 995.6 1.26266 1.49778 0
M  V30 10462 H 994.18 0.689008 -0.288577 0
M  V30 10463 H 996.842 1.40377 -1.35205 0
M  V30 10464 H 995.938 2.91358 -1.1188 0
M  V30 10465 N 996.239 0.8527 1.3254 0
M  V30 10466 C 997.469 0.468363 2.01221 0
M  V30 10467 C 997.877 -0.938966 1.64256 0
M  V30 10468 O 997.22 -1.62387 0.858837 0
M  V30 10469 C 997.282 0.525457 3.55639 0
M  V30 10470 C 996.946 1.89133 4.16026 0
M  V30 10471 C 997.943 2.85652 4.34395 0
M  V30 10472 C 995.628 2.18795 4.52144 0
M  V30 10473 C 997.622 4.09985 4.88048 0
M  V30 10474 C 995.309 3.43381 5.05502 0
M  V30 10475 C 996.307 4.38792 5.23403 0
M  V30 10476 O 995.995 5.61173 5.75622 0
M  V30 10477 H 995.727 0.182712 0.65084 0
M  V30 10478 H 998.281 1.15076 1.70138 0
M  V30 10479 H 996.511 -0.213779 3.86109 0
M  V30 10480 H 998.2 0.156999 4.05596 0
M  V30 10481 H 998.966 2.6404 4.06827 0
M  V30 10482 H 994.845 1.45317 4.37498 0
M  V30 10483 H 998.389 4.84465 5.01936 0
M  V30 10484 H 994.286 3.64844 5.32503 0
M  V30 10485 H 995.054 5.63104 5.94017 0
M  V30 10486 N 997.718 -1.45297 0.610449 0
M  V30 10487 C 998.943 -2.07101 0.111414 0
M  V30 10488 C 999.368 -1.45161 -1.19625 0
M  V30 10489 O 998.726 -0.545368 -1.72903 0
M  V30 10490 C 998.774 -3.60598 -0.0117372 0
M  V30 10491 O 997.878 -3.98512 -1.06122 0
M  V30 10492 H 997.219 -0.659709 0.075364 0
M  V30 10493 H 999.749 -1.86504 0.841269 0
M  V30 10494 H 999.759 -4.07464 -0.209028 0
M  V30 10495 H 998.434 -4.05067 0.943076 0
M  V30 10496 H 997.011 -3.63312 -0.840158 0
M  V30 10497 N 999.196 -0.349774 -1.5367 0
M  V30 10498 C 1000.44 0.245189 -2.01312 0
M  V30 10499 C 1000.77 1.49702 -1.23705 0
M  V30 10500 O 1000.05 1.91742 -0.326371 0
M  V30 10501 C 1000.33 0.553071 -3.55827 0
M  V30 10502 C 1000.19 -0.71129 -4.4414 0
M  V30 10503 C 1001.5 1.36015 -4.18555 0
M  V30 10504 H 998.624 0.0876415 -0.73177 0
M  V30 10505 H 1001.27 -0.471543 -1.84056 0
M  V30 10506 H 999.416 1.16367 -3.70663 0
M  V30 10507 H 1001.09 -1.34913 -4.41131 0
M  V30 10508 H 999.331 -1.33491 -4.1275 0
M  V30 10509 H 1000 -0.45104 -5.50154 0
M  V30 10510 H 1002.48 0.843778 -4.07455 0
M  V30 10511 H 1001.35 1.54432 -5.26728 0
M  V30 10512 H 1001.61 2.36408 -3.73582 0
M  V30 10513 N 1000.67 1.57404 -0.0785433 0
M  V30 10514 C 1002.09 1.57158 0.2781 0
M  V30 10515 C 1002.29 1.08847 1.69572 0
M  V30 10516 O 1001.35 0.757407 2.40873 0
M  V30 10517 C 1002.66 3.00589 0.0816067 0
M  V30 10518 C 1004.21 3.12637 0.150627 0
M  V30 10519 C 1004.68 4.57997 -0.0176685 0
M  V30 10520 N 1006.17 4.63185 0.0377145 0
M  V30 10521 C 1006.91 5.7336 -0.0679907 0
M  V30 10522 N 1006.4 6.92426 -0.227598 0
M  V30 10523 N 1008.2 5.62099 -0.0104424 0
M  V30 10524 H 1000.35 1.87121 -1.00496 0
M  V30 10525 H 1002.61 0.862937 -0.392484 0
M  V30 10526 H 1002.32 3.40072 -0.896869 0
M  V30 10527 H 1002.19 3.67931 0.831046 0
M  V30 10528 H 1004.58 2.73037 1.11959 0
M  V30 10529 H 1004.66 2.4792 -0.630028 0
M  V30 10530 H 1004.3 4.98288 -0.983431 0
M  V30 10531 H 1004.23 5.20754 0.782475 0
M  V30 10532 H 1006.72 3.77564 0.159208 0
M  V30 10533 H 1007.04 7.72217 -0.300217 0
M  V30 10534 H 1005.38 6.94502 -0.263049 0
M  V30 10535 H 1008.57 4.67964 0.112999 0
M  V30 10536 H 1008.75 6.47928 -0.0962747 0
M  V30 10537 N 1002.15 -0.195058 1.56388 0
M  V30 10538 C 1003.08 -1.26978 1.8961 0
M  V30 10539 C 1004.06 -1.43946 0.756199 0
M  V30 10540 O 1005.25 -1.59335 1.0072 0
M  V30 10541 C 1002.37 -2.63638 2.12632 0
M  V30 10542 C 1001.42 -2.6354 3.35334 0
M  V30 10543 S 1002.25 -2.1497 4.90457 0
M  V30 10544 C 1003.41 -3.53454 5.16547 0
M  V30 10545 H 1003.64 -0.986091 2.8047 0
M  V30 10546 H 1001.17 -0.398552 1.49167 0
M  V30 10547 H 1003.13 -3.42304 2.26579 0
M  V30 10548 H 1001.79 -2.89218 1.22522 0
M  V30 10549 H 1000.99 -3.64027 3.48569 0
M  V30 10550 H 1000.59 -1.92956 3.20381 0
M  V30 10551 H 1002.88 -4.49318 5.0707 0
M  V30 10552 H 1003.82 -3.45113 6.18306 0
M  V30 10553 H 1004.23 -3.48368 4.44185 0
M  V30 10554 N 1003.63 -1.50653 -0.462772 0
M  V30 10555 C 1004.54 -1.72923 -1.58539 0
M  V30 10556 C 1005.56 -0.612577 -1.6286 0
M  V30 10557 O 1006.73 -0.891885 -1.80575 0
M  V30 10558 C 1003.8 -1.82623 -2.94703 0
M  V30 10559 C 1002.86 -3.06392 -3.00704 0
M  V30 10560 C 1002.09 -3.15618 -4.30373 0
M  V30 10561 O 1002.31 -2.31423 -5.21344 0
M  V30 10562 O 1001.25 -4.0841 -4.42136 0
M  V30 10563 H 1005.07 -2.68103 -1.42669 0
M  V30 10564 H 1002.66 -1.34848 -0.643144 0
M  V30 10565 H 1004.54 -1.91134 -3.7556 0
M  V30 10566 H 1003.22 -0.906275 -3.10754 0
M  V30 10567 H 1002.12 -3.03375 -2.18894 0
M  V30 10568 H 1003.46 -3.97992 -2.89591 0
M  V30 10569 N 1005.11 0.71652 -1.4037 0
M  V30 10570 C 1006.06 1.85194 -1.40734 0
M  V30 10571 C 1007.05 1.66934 -0.287969 0
M  V30 10572 O 1008.26 1.74051 -0.458957 0
M  V30 10573 H 1004.63 0.609922 -0.439885 0
M  V30 10574 H 1006.6 1.82003 -2.36468 0
M  V30 10575 C 1005.35 3.23048 -1.28589 0
M  V30 10576 H 1004.67 3.37704 -2.13999 0
M  V30 10577 H 1006.11 4.02633 -1.32902 0
M  V30 10578 C 1004.57 3.369 0.00396512 0
M  V30 10579 O 1005.1 3.89881 0.967243 0
M  V30 10580 N 1003.31 2.90508 0.0731565 0
M  V30 10581 H 1002.86 2.4758 -0.711454 0
M  V30 10582 H 1002.81 3.00155 0.935652 0
M  V30 10583 N 1006.59 1.25851 0.948643 0
M  V30 10584 C 1007.55 1.0683 2.0278 0
M  V30 10585 C 1008.55 0.0191016 1.60789 0
M  V30 10586 O 1009.74 0.261836 1.72221 0
M  V30 10587 C 1006.87 0.623318 3.35153 0
M  V30 10588 H 1008.06 2.02635 2.21086 0
M  V30 10589 H 1005.62 1.08343 1.12657 0
M  V30 10590 H 1006.35 -0.337053 3.22544 0
M  V30 10591 H 1006.14 1.38082 3.66982 0
M  V30 10592 H 1007.63 0.511854 4.14451 0
M  V30 10593 N 1008.06 -1.15214 1.07534 0
M  V30 10594 C 1009.31 -1.86319 0.800814 0
M  V30 10595 C 1009.64 -1.82221 -0.671494 0
M  V30 10596 O 1008.92 -1.24664 -1.49295 0
M  V30 10597 C 1009.2 -3.35347 1.31203 0
M  V30 10598 C 1009.05 -3.48067 2.84902 0
M  V30 10599 C 1010.37 -4.3016 0.930064 0
M  V30 10600 H 1007.49 -0.676523 0.292379 0
M  V30 10601 H 1010.13 -1.35349 1.33344 0
M  V30 10602 H 1008.28 -3.78886 0.858949 0
M  V30 10603 H 1009.96 -3.13379 3.38514 0
M  V30 10604 H 1008.2 -2.89566 3.23008 0
M  V30 10605 H 1008.87 -4.52782 3.15741 0
M  V30 10606 H 1011.35 -3.94591 1.3205 0
M  V30 10607 H 1010.22 -5.32914 1.31507 0
M  V30 10608 H 1010.48 -4.41796 -0.163824 0
M  V30 10609 N 1009.54 -0.859717 -1.32086 0
M  V30 10610 C 1010.95 -0.519529 -1.79326 0
M  V30 10611 C 1011.3 0.96295 -1.70944 0
M  V30 10612 O 1010.43 1.75139 -1.27104 0
M  V30 10613 C 1011.02 -0.936267 -3.25606 0
M  V30 10614 C 1009.58 -0.647899 -3.70782 0
M  V30 10615 C 1008.73 -1.13323 -2.53087 0
M  V30 10616 H 1011.68 -1.04643 -1.19312 0
M  V30 10617 H 1011.7 -0.254714 -3.79646 0
M  V30 10618 H 1011.21 -2.01527 -3.31675 0
M  V30 10619 H 1009.32 0.420172 -3.70223 0
M  V30 10620 H 1009.43 -1.21774 -4.63366 0
M  V30 10621 H 1007.79 -0.553325 -2.48617 0
M  V30 10622 H 1008.58 -2.21945 -2.61907 0
M  V30 10623 N 1011.02 1.44971 -0.618145 0
M  V30 10624 C 1012.27 2.01372 -0.115004 0
M  V30 10625 C 1012.58 1.49104 1.26599 0
M  V30 10626 O 1013.79 1.97549 1.86244 0
M  V30 10627 C 1012.24 3.59567 -0.154883 0
M  V30 10628 C 1011.85 4.20832 -1.53639 0
M  V30 10629 C 1013.6 4.23491 0.292468 0
M  V30 10630 C 1011.5 5.7121 -1.53208 0
M  V30 10631 H 1010.43 0.752979 -0.0392267 0
M  V30 10632 H 1013.08 1.66329 -0.775032 0
M  V30 10633 H 1011.47 3.91847 0.572001 0
M  V30 10634 H 1012.64 4.00109 -2.28582 0
M  V30 10635 H 1010.96 3.69143 -1.92672 0
M  V30 10636 H 1013.55 5.33771 0.315032 0
M  V30 10637 H 1013.9 3.9491 1.31725 0
M  V30 10638 H 1014.43 3.95967 -0.381493 0
M  V30 10639 H 1011.17 6.04506 -2.53481 0
M  V30 10640 H 1010.69 5.94094 -0.825387 0
M  V30 10641 H 1012.37 6.34606 -1.26032 0
M  V30 10642 N 1012.5 0.357919 1.53482 0
M  V30 10643 C 1013.74 -0.23451 2.0144 0
M  V30 10644 C 1014.08 -1.49044 1.24497 0
M  V30 10645 O 1013.35 -1.91566 0.336535 0
M  V30 10646 C 1013.64 -0.534193 3.56116 0
M  V30 10647 C 1013.49 0.734834 4.43757 0
M  V30 10648 C 1014.81 -1.33793 4.1927 0
M  V30 10649 H 1011.93 -0.0837595 0.732225 0
M  V30 10650 H 1014.57 0.481297 1.83803 0
M  V30 10651 H 1012.72 -1.144 3.71275 0
M  V30 10652 H 1014.39 1.37251 4.40409 0
M  V30 10653 H 1012.63 1.35678 4.12036 0
M  V30 10654 H 1013.3 0.48021 5.49907 0
M  V30 10655 H 1015.78 -0.822158 4.07897 0
M  V30 10656 H 1014.66 -1.51636 5.27539 0
M  V30 10657 H 1014.92 -2.34423 3.74831 0
M  V30 10658 N 1013.98 -1.5736 0.0868897 0
M  V30 10659 C 1015.2 -1.98388 -0.587349 0
M  V30 10660 C 1015.62 -0.965757 -1.6223 0
M  V30 10661 O 1014.98 0.0456981 -1.82443 0
M  V30 10662 C 1015.03 -3.39479 -1.24242 0
M  V30 10663 O 1014.75 -4.37393 -0.248878 0
M  V30 10664 C 1016.25 -3.95465 -2.00305 0
M  V30 10665 H 1013.47 -0.652111 -0.15809 0
M  V30 10666 H 1016.01 -2.03843 0.163754 0
M  V30 10667 H 1014.17 -3.35063 -1.94451 0
M  V30 10668 H 1014.58 -5.19525 -0.720678 0
M  V30 10669 H 1016.06 -4.96363 -2.41511 0
M  V30 10670 H 1016.53 -3.32832 -2.86565 0
M  V30 10671 H 1017.14 -4.03328 -1.34931 0
M  V30 10672 N 1015.45 0.186762 -1.56489 0
M  V30 10673 C 1016.39 1.25565 -1.91745 0
M  V30 10674 C 1017.4 1.4128 -0.80894 0
M  V30 10675 O 1018.59 1.41558 -1.08737 0
M  V30 10676 C 1015.69 2.62662 -2.14154 0
M  V30 10677 C 1014.86 2.68448 -3.45333 0
M  V30 10678 C 1013.92 3.86798 -3.56754 0
M  V30 10679 O 1012.95 3.73514 -4.29507 0
M  V30 10680 N 1014.15 5.02607 -2.90459 0
M  V30 10681 H 1016.91 0.956351 -2.84032 0
M  V30 10682 H 1014.47 0.376631 -1.57458 0
M  V30 10683 H 1016.47 3.40277 -2.19075 0
M  V30 10684 H 1015.04 2.85046 -1.28326 0
M  V30 10685 H 1014.26 1.77044 -3.52206 0
M  V30 10686 H 1015.54 2.69311 -4.31682 0
M  V30 10687 H 1014.94 5.163 -2.31194 0
M  V30 10688 H 1013.5 5.78139 -3.00996 0
M  V30 10689 N 1016.93 1.50896 0.454776 0
M  V30 10690 C 1017.9 1.70377 1.53312 0
M  V30 10691 C 1018.9 0.57408 1.50203 0
M  V30 10692 O 1020.09 0.841374 1.52534 0
M  V30 10693 C 1017.22 1.74411 2.92905 0
M  V30 10694 H 1018.41 2.66599 1.37349 0
M  V30 10695 H 1015.96 1.40622 0.68228 0
M  V30 10696 H 1016.7 0.799408 3.14293 0
M  V30 10697 H 1016.48 2.56496 2.96568 0
M  V30 10698 H 1017.97 1.91382 3.71164 0
M  V30 10699 N 1018.41 -0.709066 1.40748 0
M  V30 10700 C 1019.82 -1.28847 1.35112 0
M  V30 10701 C 1020.17 -1.9618 0.0277149 0
M  V30 10702 O 1019.3 -1.97955 -0.874233 0
M  V30 10703 C 1019.89 -2.34306 2.44716 0
M  V30 10704 C 1018.45 -2.87856 2.4252 0
M  V30 10705 C 1017.6 -1.61723 2.25257 0
M  V30 10706 H 1020.55 -0.504742 1.50459 0
M  V30 10707 H 1020.57 -3.15297 2.12998 0
M  V30 10708 H 1020.08 -1.85271 3.41022 0
M  V30 10709 H 1018.18 -3.41103 1.49931 0
M  V30 10710 H 1018.3 -3.39205 3.38344 0
M  V30 10711 H 1016.66 -1.87032 1.7289 0
M  V30 10712 H 1017.44 -1.14703 3.23571 0
M  V30 10713 N 1019.89 -1.26353 -0.941956 0
M  V30 10714 C 1021.14 -1.1163 -1.68473 0
M  V30 10715 C 1021.46 0.34108 -1.91994 0
M  V30 10716 O 1020.73 1.24065 -1.51607 0
M  V30 10717 H 1019.31 -0.410113 -0.624353 0
M  V30 10718 H 1021.97 -1.58669 -1.13182 0
M  V30 10719 H 1021.07 -1.63445 -2.6588 0
M  V30 10720 N 1021.37 1.14642 -1.08144 0
M  V30 10721 C 1022.33 2.17834 -0.712799 0
M  V30 10722 C 1023.33 1.58828 0.251041 0
M  V30 10723 O 1024.52 1.74173 0.0309381 0
M  V30 10724 C 1021.65 3.4086 -0.0519477 0
M  V30 10725 H 1022.85 2.51961 -1.62653 0
M  V30 10726 H 1020.4 1.29243 -0.878971 0
M  V30 10727 H 1021.13 3.12311 0.873636 0
M  V30 10728 H 1020.92 3.84952 -0.745286 0
M  V30 10729 H 1022.41 4.17163 0.191031 0
M  V30 10730 N 1022.85 0.866709 1.31628 0
M  V30 10731 C 1023.78 0.277328 2.27516 0
M  V30 10732 C 1024.79 -0.557786 1.52946 0
M  V30 10733 O 1025.98 -0.38031 1.74402 0
M  V30 10734 C 1023.08 -0.625742 3.33073 0
M  V30 10735 C 1022.25 0.176204 4.37045 0
M  V30 10736 C 1021.31 -0.654497 5.22114 0
M  V30 10737 O 1020.34 -0.0836961 5.69138 0
M  V30 10738 N 1021.54 -1.96708 5.46156 0
M  V30 10739 H 1024.3 1.10133 2.78731 0
M  V30 10740 H 1021.87 0.72787 1.44616 0
M  V30 10741 H 1023.86 -1.18709 3.86898 0
M  V30 10742 H 1022.43 -1.35042 2.81926 0
M  V30 10743 H 1021.65 0.918999 3.83338 0
M  V30 10744 H 1022.94 0.726594 5.03585 0
M  V30 10745 H 1022.33 -2.454 5.09701 0
M  V30 10746 H 1020.89 -2.47629 6.02929 0
M  V30 10747 N 1024.32 -1.44642 0.625825 0
M  V30 10748 C 1025.73 -1.85502 0.211175 0
M  V30 10749 C 1026.09 -1.52356 -1.2362 0
M  V30 10750 O 1025.21 -0.959051 -1.93988 0
M  V30 10751 C 1025.81 -3.36702 0.37648 0
M  V30 10752 C 1024.36 -3.76396 0.0163795 0
M  V30 10753 C 1023.51 -2.68517 0.692368 0
M  V30 10754 H 1026.46 -1.35183 0.831333 0
M  V30 10755 H 1026.48 -3.78536 -0.386106 0
M  V30 10756 H 1026 -3.60795 1.42999 0
M  V30 10757 H 1024.1 -3.57919 -1.0356 0
M  V30 10758 H 1024.21 -4.77231 0.422742 0
M  V30 10759 H 1022.57 -2.54377 0.128191 0
M  V30 10760 H 1023.36 -2.95444 1.74837 0
M  V30 10761 N 1025.8 -0.366053 -1.5329 0
M  V30 10762 C 1026.73 0.47211 -2.28677 0
M  V30 10763 C 1027.71 1.08353 -1.31125 0
M  V30 10764 O 1028.9 1.10069 -1.59995 0
M  V30 10765 C 1026.03 1.61174 -3.07637 0
M  V30 10766 C 1024.98 1.12755 -4.12881 0
M  V30 10767 C 1024.31 2.35745 -4.79925 0
M  V30 10768 C 1025.61 0.211954 -5.2187 0
M  V30 10769 H 1027.3 -0.156838 -2.98989 0
M  V30 10770 H 1024.85 -0.0768709 -1.43795 0
M  V30 10771 H 1026.8 2.20473 -3.59123 0
M  V30 10772 H 1025.52 2.26793 -2.35016 0
M  V30 10773 H 1024.18 0.557234 -3.6234 0
M  V30 10774 H 1023.83 2.99821 -4.03877 0
M  V30 10775 H 1023.53 2.04019 -5.51044 0
M  V30 10776 H 1025.06 2.95729 -5.34207 0
M  V30 10777 H 1026.47 0.71244 -5.68856 0
M  V30 10778 H 1024.87 -0.0144501 -6.00098 0
M  V30 10779 H 1025.94 -0.745753 -4.79131 0
M  V30 10780 N 1027.28 1.57312 -0.0952337 0
M  V30 10781 C 1028.21 2.11059 0.893678 0
M  V30 10782 C 1029.22 1.04787 1.24594 0
M  V30 10783 O 1030.41 1.32233 1.19903 0
M  V30 10784 C 1027.51 2.57552 2.20272 0
M  V30 10785 C 1026.69 3.87661 2.02578 0
M  V30 10786 C 1025.75 4.2 3.16996 0
M  V30 10787 O 1024.77 4.89219 2.90953 0
M  V30 10788 N 1025.97 3.75414 4.42769 0
M  V30 10789 H 1028.74 2.96532 0.434632 0
M  V30 10790 H 1026.3 1.6165 0.0898661 0
M  V30 10791 H 1028.29 2.76232 2.95766 0
M  V30 10792 H 1026.86 1.7709 2.576 0
M  V30 10793 H 1026.08 3.78128 1.11413 0
M  V30 10794 H 1027.37 4.7278 1.88032 0
M  V30 10795 H 1026.77 3.1954 4.66809 0
M  V30 10796 H 1025.32 3.99249 5.15212 0
M  V30 10797 N 1028.76 -0.17846 1.56586 0
M  V30 10798 C 1030.01 -0.894502 1.8078 0
M  V30 10799 C 1030.32 -1.8372 0.67129 0
M  V30 10800 O 1031.53 -2.59509 0.797971 0
M  V30 10801 C 1029.98 -1.64109 3.20306 0
M  V30 10802 C 1029.59 -0.742387 4.41806 0
M  V30 10803 C 1031.33 -2.34578 3.53798 0
M  V30 10804 C 1029.24 -1.4888 5.72354 0
M  V30 10805 H 1028.17 -0.33776 0.674117 0
M  V30 10806 H 1030.82 -0.14752 1.82906 0
M  V30 10807 H 1029.2 -2.43257 3.12477 0
M  V30 10808 H 1030.38 0.011615 4.60799 0
M  V30 10809 H 1028.69 -0.147705 4.16138 0
M  V30 10810 H 1031.29 -2.91004 4.48577 0
M  V30 10811 H 1031.63 -3.09572 2.78336 0
M  V30 10812 H 1032.17 -1.62381 3.63149 0
M  V30 10813 H 1028.9 -0.781325 6.50827 0
M  V30 10814 H 1028.42 -2.21631 5.57351 0
M  V30 10815 H 1030.1 -2.03819 6.14058 0
M  V30 10816 N 1030.24 -1.51135 -0.446768 0
M  V30 10817 C 1031.17 -1.67949 -1.55967 0
M  V30 10818 C 1032.18 -0.560337 -1.52853 0
M  V30 10819 O 1033.37 -0.83435 -1.578 0
M  V30 10820 C 1030.47 -1.6703 -2.9488 0
M  V30 10821 C 1029.64 -2.95377 -3.22601 0
M  V30 10822 C 1028.7 -2.86772 -4.4119 0
M  V30 10823 O 1027.73 -3.60722 -4.40304 0
M  V30 10824 N 1028.93 -2.01979 -5.44228 0
M  V30 10825 H 1031.69 -2.63951 -1.41951 0
M  V30 10826 H 1029.26 -1.48903 -0.635569 0
M  V30 10827 H 1031.25 -1.58854 -3.7222 0
M  V30 10828 H 1029.82 -0.786623 -3.02541 0
M  V30 10829 H 1029.04 -3.17494 -2.33647 0
M  V30 10830 H 1030.33 -3.80356 -3.37945 0
M  V30 10831 H 1029.72 -1.41257 -5.4778 0
M  V30 10832 H 1028.28 -1.99689 -6.20457 0
M  V30 10833 N 1031.71 0.701592 -1.41122 0
M  V30 10834 C 1033.12 1.28129 -1.35793 0
M  V30 10835 C 1033.48 1.96163 -0.0381185 0
M  V30 10836 O 1032.6 1.98416 0.863723 0
M  V30 10837 C 1033.2 2.33005 -2.45955 0
M  V30 10838 C 1031.75 2.86566 -2.44043 0
M  V30 10839 C 1030.9 1.60526 -2.26112 0
M  V30 10840 H 1033.85 0.496756 -1.50725 0
M  V30 10841 H 1033.87 3.14163 -2.14667 0
M  V30 10842 H 1033.39 1.8346 -3.42 0
M  V30 10843 H 1031.49 3.40304 -1.51737 0
M  V30 10844 H 1031.6 3.37406 -3.40138 0
M  V30 10845 H 1029.96 1.86113 -1.7388 0
M  V30 10846 H 1030.75 1.12985 -3.24175 0
M  V30 10847 N 1033.19 1.2685 0.935242 0
M  V30 10848 C 1034.44 1.12522 1.67878 0
M  V30 10849 C 1034.76 -0.330894 1.92172 0
M  V30 10850 O 1034.03 -1.23259 1.52263 0
M  V30 10851 H 1032.61 0.413418 0.622169 0
M  V30 10852 H 1035.27 1.59267 1.12339 0
M  V30 10853 H 1034.37 1.64853 2.65009 0
M  V30 10854 N 1034.67 -1.14067 1.0875 0
M  V30 10855 C 1035.6 -2.21385 0.74236 0
M  V30 10856 C 1036.58 -1.67833 -0.276805 0
M  V30 10857 O 1037.77 -1.93647 -0.1464 0
M  V30 10858 C 1034.9 -3.46956 0.154644 0
M  V30 10859 C 1033.85 -4.13555 1.10255 0
M  V30 10860 C 1033.18 -5.3337 0.376877 0
M  V30 10861 C 1034.48 -4.6169 2.44213 0
M  V30 10862 H 1036.17 -2.50512 1.63964 0
M  V30 10863 H 1033.72 -1.20408 0.789807 0
M  V30 10864 H 1035.67 -4.21284 -0.0988419 0
M  V30 10865 H 1034.39 -3.17203 -0.777789 0
M  V30 10866 H 1033.05 -3.41186 1.34119 0
M  V30 10867 H 1032.7 -4.99879 -0.559472 0
M  V30 10868 H 1032.4 -5.78875 1.00884 0
M  V30 10869 H 1033.92 -6.10458 0.131527 0
M  V30 10870 H 1035.34 -5.27475 2.24595 0
M  V30 10871 H 1033.74 -5.17909 3.03134 0
M  V30 10872 H 1034.81 -3.76574 3.05483 0
M  V30 10873 N 1036.15 -0.873678 -1.31166 0
M  V30 10874 C 1037.08 -0.348011 -2.30892 0
M  V30 10875 C 1038.06 0.563092 -1.60509 0
M  V30 10876 O 1039.24 0.479332 -1.88192 0
M  V30 10877 C 1036.37 0.448158 -3.44396 0
M  V30 10878 C 1035.33 -0.370179 -4.26396 0
M  V30 10879 C 1034.65 0.551903 -5.31844 0
M  V30 10880 C 1035.95 -1.60624 -4.96988 0
M  V30 10881 H 1037.65 -1.18134 -2.75109 0
M  V30 10882 H 1035.19 -0.569502 -1.3226 0
M  V30 10883 H 1037.15 0.826458 -4.13216 0
M  V30 10884 H 1035.87 1.31503 -2.98956 0
M  V30 10885 H 1034.53 -0.730472 -3.59249 0
M  V30 10886 H 1034.18 1.41616 -4.82653 0
M  V30 10887 H 1033.88 0.00823478 -5.87599 0
M  V30 10888 H 1035.4 0.926965 -6.03523 0
M  V30 10889 H 1036.82 -1.29917 -5.58386 0
M  V30 10890 H 1035.21 -2.08926 -5.62557 0
M  V30 10891 H 1036.28 -2.357 -4.23761 0
M  V30 10892 N 1037.63 1.44308 -0.633487 0
M  V30 10893 C 1038.59 2.2912 0.060376 0
M  V30 10894 C 1039.59 1.41166 0.769992 0
M  V30 10895 O 1040.78 1.63012 0.614224 0
M  V30 10896 C 1037.91 3.22798 1.0961 0
M  V30 10897 H 1039.1 2.91958 -0.685617 0
M  V30 10898 H 1036.66 1.51259 -0.393738 0
M  V30 10899 H 1037.39 2.64815 1.87199 0
M  V30 10900 H 1037.18 3.87618 0.591161 0
M  V30 10901 H 1038.67 3.86504 1.58127 0
M  V30 10902 N 1039.1 0.374177 1.53094 0
M  V30 10903 C 1040.04 -0.503065 2.23611 0
M  V30 10904 C 1041.05 -1.03915 1.25321 0
M  V30 10905 O 1042.24 -0.944064 1.51492 0
M  V30 10906 C 1039.34 -1.70825 2.92698 0
M  V30 10907 C 1038.51 -1.30217 4.17567 0
M  V30 10908 C 1037.57 -2.37036 4.69788 0
M  V30 10909 O 1036.6 -1.99069 5.33254 0
M  V30 10910 N 1037.8 -3.68743 4.4834 0
M  V30 10911 H 1040.56 0.101013 2.9953 0
M  V30 10912 H 1038.12 0.199778 1.60663 0
M  V30 10913 H 1040.12 -2.41779 3.24538 0
M  V30 10914 H 1038.69 -2.219 2.2018 0
M  V30 10915 H 1037.91 -0.422121 3.91933 0
M  V30 10916 H 1039.19 -1.00728 4.9873 0
M  V30 10917 H 1038.59 -4.0236 3.97647 0
M  V30 10918 H 1037.15 -4.35776 4.84709 0
M  V30 10919 N 1040.58 -1.57259 0.103575 0
M  V30 10920 C 1041.51 -2.1153 -0.882472 0
M  V30 10921 C 1042.53 -1.05446 -1.24036 0
M  V30 10922 O 1043.72 -1.32867 -1.192 0
M  V30 10923 C 1040.82 -2.58717 -2.18903 0
M  V30 10924 C 1039.99 -3.8873 -2.00519 0
M  V30 10925 C 1039.05 -4.21675 -3.14764 0
M  V30 10926 O 1038.07 -4.90755 -2.88355 0
M  V30 10927 N 1039.28 -3.77757 -4.40772 0
M  V30 10928 H 1042.04 -2.96758 -0.418901 0
M  V30 10929 H 1039.6 -1.61696 -0.0812921 0
M  V30 10930 H 1041.59 -2.77797 -2.94297 0
M  V30 10931 H 1040.16 -1.78454 -2.56657 0
M  V30 10932 H 1039.38 -3.78714 -1.09406 0
M  V30 10933 H 1040.67 -4.73771 -1.85522 0
M  V30 10934 H 1040.07 -3.22011 -4.65108 0
M  V30 10935 H 1038.63 -4.01975 -5.13088 0
M  V30 10936 N 1042.06 0.170153 -1.56679 0
M  V30 10937 C 1043.02 1.19443 -1.95617 0
M  V30 10938 C 1044.02 1.37118 -0.83996 0
M  V30 10939 O 1045.21 1.34504 -1.10699 0
M  V30 10940 C 1042.35 2.55926 -2.25199 0
M  V30 10941 H 1043.54 0.86095 -2.87276 0
M  V30 10942 H 1041.09 0.412646 -1.50755 0
M  V30 10943 H 1041.83 2.94286 -1.36257 0
M  V30 10944 H 1041.61 2.44464 -3.06562 0
M  V30 10945 H 1043.1 3.29742 -2.56242 0
M  V30 10946 N 1043.54 1.5137 0.438746 0
M  V30 10947 C 1044.78 1.65173 1.18698 0
M  V30 10948 C 1045.14 0.362753 1.88949 0
M  V30 10949 O 1044.43 -0.641351 1.80547 0
M  V30 10950 C 1044.63 2.79221 2.23093 0
M  V30 10951 C 1044.46 4.19085 1.63088 0
M  V30 10952 C 1043.23 4.85042 1.41642 0
M  V30 10953 C 1045.42 5.02225 1.10789 0
M  V30 10954 N 1043.41 6.09024 0.772198 0
M  V30 10955 C 1044.78 6.17197 0.588854 0
M  V30 10956 C 1046.83 4.87764 0.999516 0
M  V30 10957 C 1045.53 7.19295 -0.0279103 0
M  V30 10958 C 1047.56 5.90068 0.396648 0
M  V30 10959 C 1046.92 7.04311 -0.111855 0
M  V30 10960 H 1043.02 0.658316 0.422071 0
M  V30 10961 H 1045.61 1.88593 0.483808 0
M  V30 10962 H 1043.78 2.57468 2.908 0
M  V30 10963 H 1045.51 2.82213 2.90066 0
M  V30 10964 H 1042.26 4.42886 1.67776 0
M  V30 10965 H 1042.69 6.75383 0.467568 0
M  V30 10966 H 1047.33 3.99695 1.37853 0
M  V30 10967 H 1045.05 8.07013 -0.419056 0
M  V30 10968 H 1048.63 5.80948 0.314715 0
M  V30 10969 H 1047.51 7.82118 -0.571021 0
M  V30 10970 N 1045.02 -0.694098 1.41492 0
M  V30 10971 C 1046.43 -1.27407 1.36471 0
M  V30 10972 C 1046.78 -1.9614 0.0485209 0
M  V30 10973 O 1045.9 -1.98871 -0.853188 0
M  V30 10974 C 1046.5 -2.31698 2.47188 0
M  V30 10975 C 1045.06 -2.85268 2.45559 0
M  V30 10976 C 1044.2 -1.59325 2.2696 0
M  V30 10977 H 1047.16 -0.488756 1.50986 0
M  V30 10978 H 1047.18 -3.1302 2.1633 0
M  V30 10979 H 1046.69 -1.81644 3.42968 0
M  V30 10980 H 1044.79 -3.39494 1.5354 0
M  V30 10981 H 1044.9 -3.35598 3.41922 0
M  V30 10982 H 1043.27 -1.85188 1.74864 0
M  V30 10983 H 1044.05 -1.11265 3.24769 0
M  V30 10984 N 1046.49 -1.27344 -0.928501 0
M  V30 10985 C 1047.72 -1.16557 -1.7155 0
M  V30 10986 C 1048.14 0.274044 -1.86093 0
M  V30 10987 O 1047.5 1.19847 -1.36038 0
M  V30 10988 C 1047.55 -1.85332 -3.09329 0
M  V30 10989 O 1046.65 -1.15074 -3.9602 0
M  V30 10990 H 1046 -0.405423 -0.525859 0
M  V30 10991 H 1048.53 -1.68399 -1.16202 0
M  V30 10992 H 1048.54 -1.92659 -3.59648 0
M  V30 10993 H 1047.21 -2.90056 -2.98061 0
M  V30 10994 H 1045.79 -1.1581 -3.54461 0
M  V30 10995 N 1047.97 1.13488 -1.09353 0
M  V30 10996 C 1049.22 1.84383 -0.827488 0
M  V30 10997 C 1049.54 1.83892 0.648745 0
M  V30 10998 O 1048.81 1.29415 1.47066 0
M  V30 10999 H 1047.39 0.682732 -0.303127 0
M  V30 11000 H 1050.05 1.37477 -1.38152 0
M  V30 11001 H 1049.15 2.88919 -1.18035 0
M  V30 11002 N 1049.45 0.880621 1.30701 0
M  V30 11003 C 1050.68 0.511682 2.00473 0
M  V30 11004 C 1051.09 -0.898684 1.6604 0
M  V30 11005 O 1050.45 -1.59035 0.895218 0
M  V30 11006 C 1050.5 0.671723 3.55204 0
M  V30 11007 O 1050.22 2.02656 3.8841 0
M  V30 11008 C 1051.72 0.3052 4.42248 0
M  V30 11009 H 1048.94 0.198231 0.64105 0
M  V30 11010 H 1051.49 1.18472 1.66687 0
M  V30 11011 H 1049.64 0.0461066 3.87373 0
M  V30 11012 H 1050.06 2.04202 4.83117 0
M  V30 11013 H 1051.53 0.468095 5.50012 0
M  V30 11014 H 1052.01 -0.756456 4.32637 0
M  V30 11015 H 1052.61 0.906959 4.15517 0
M  V30 11016 N 1050.93 -1.4397 0.641131 0
M  V30 11017 C 1051.86 -2.28997 -0.0963315 0
M  V30 11018 C 1052.87 -1.4184 -0.799071 0
M  V30 11019 O 1054.06 -1.65896 -0.658846 0
M  V30 11020 C 1051.16 -3.18465 -1.15903 0
M  V30 11021 C 1050.34 -4.34093 -0.536828 0
M  V30 11022 C 1049.4 -5.04522 -1.4948 0
M  V30 11023 O 1048.42 -5.60202 -1.00807 0
M  V30 11024 N 1049.62 -5.06899 -2.82901 0
M  V30 11025 H 1052.39 -2.9293 0.633422 0
M  V30 11026 H 1049.95 -1.54527 0.48302 0
M  V30 11027 H 1051.94 -3.62445 -1.80044 0
M  V30 11028 H 1050.51 -2.56214 -1.79089 0
M  V30 11029 H 1049.73 -3.9318 0.283414 0
M  V30 11030 H 1051.02 -5.08698 -0.101966 0
M  V30 11031 H 1050.42 -4.63012 -3.25017 0
M  V30 11032 H 1048.97 -5.54637 -3.42376 0
M  V30 11033 N 1052.41 -0.382291 -1.52893 0
M  V30 11034 C 1053.34 0.491199 -2.23875 0
M  V30 11035 C 1054.35 1.03249 -1.25871 0
M  V30 11036 O 1055.54 0.936016 -1.5199 0
M  V30 11037 C 1052.64 1.6927 -2.936 0
M  V30 11038 C 1051.81 1.28 -4.18252 0
M  V30 11039 C 1050.87 2.34541 -4.71038 0
M  V30 11040 O 1049.9 1.96239 -5.34302 0
M  V30 11041 N 1051.1 3.6636 -4.50289 0
M  V30 11042 H 1053.87 -0.116897 -2.99472 0
M  V30 11043 H 1051.43 -0.208296 -1.60554 0
M  V30 11044 H 1053.42 2.40054 -3.25816 0
M  V30 11045 H 1051.99 2.20729 -2.21354 0
M  V30 11046 H 1051.21 0.40133 -3.92152 0
M  V30 11047 H 1052.5 0.98082 -4.99257 0
M  V30 11048 H 1051.9 4.00245 -3.99775 0
M  V30 11049 H 1050.45 4.332 -4.87013 0
M  V30 11050 N 1053.89 1.57202 -0.111913 0
M  V30 11051 C 1055.13 1.94125 0.547573 0
M  V30 11052 C 1055.45 0.997026 1.68282 0
M  V30 11053 O 1056.65 1.26063 2.40459 0
M  V30 11054 C 1055.11 3.44982 1.02545 0
M  V30 11055 C 1054.72 4.47927 -0.0809529 0
M  V30 11056 C 1056.46 3.90837 1.65671 0
M  V30 11057 C 1054.37 5.89955 0.413224 0
M  V30 11058 H 1053.3 0.724651 0.208321 0
M  V30 11059 H 1055.95 1.82507 -0.190625 0
M  V30 11060 H 1054.33 3.5181 1.81785 0
M  V30 11061 H 1055.51 4.52761 -0.857003 0
M  V30 11062 H 1053.82 4.11782 -0.618434 0
M  V30 11063 H 1056.42 4.9436 2.03746 0
M  V30 11064 H 1056.76 3.30417 2.53239 0
M  V30 11065 H 1057.29 3.8678 0.929844 0
M  V30 11066 H 1054.03 6.54113 -0.426238 0
M  V30 11067 H 1053.55 5.88557 1.15591 0
M  V30 11068 H 1055.23 6.41032 0.876756 0
M  V30 11069 N 1055.36 -0.161842 1.56767 0
M  V30 11070 C 1056.29 -1.20226 2.0017 0
M  V30 11071 C 1057.27 -1.4564 0.878807 0
M  V30 11072 O 1058.46 -1.56813 1.14557 0
M  V30 11073 C 1055.59 -2.53897 2.36968 0
M  V30 11074 C 1054.54 -2.43033 3.52305 0
M  V30 11075 C 1053.87 -3.81281 3.74872 0
M  V30 11076 C 1055.17 -1.927 4.85453 0
M  V30 11077 H 1056.86 -0.84142 2.87333 0
M  V30 11078 H 1054.41 -0.403309 1.38237 0
M  V30 11079 H 1056.36 -3.26893 2.6593 0
M  V30 11080 H 1055.09 -2.91787 1.46724 0
M  V30 11081 H 1053.75 -1.7249 3.23485 0
M  V30 11082 H 1053.39 -4.1658 2.81904 0
M  V30 11083 H 1053.09 -3.74877 4.52483 0
M  V30 11084 H 1054.62 -4.55848 4.06245 0
M  V30 11085 H 1056.03 -2.55477 5.13229 0
M  V30 11086 H 1054.43 -1.97222 5.66766 0
M  V30 11087 H 1055.5 -0.881816 4.76814 0
M  V30 11088 N 1056.84 -1.516 -0.430713 0
M  V30 11089 C 1057.77 -1.76342 -1.53054 0
M  V30 11090 C 1058.75 -0.61349 -1.58652 0
M  V30 11091 O 1059.94 -0.856888 -1.74273 0
M  V30 11092 C 1057.07 -1.8945 -2.91077 0
M  V30 11093 C 1056.02 -3.04928 -3.00339 0
M  V30 11094 C 1055.35 -3.03228 -4.40405 0
M  V30 11095 C 1056.65 -4.44777 -2.73808 0
M  V30 11096 H 1058.34 -2.68435 -1.326 0
M  V30 11097 H 1055.89 -1.29171 -0.636466 0
M  V30 11098 H 1057.84 -2.05343 -3.67984 0
M  V30 11099 H 1056.56 -0.940114 -3.12777 0
M  V30 11100 H 1055.22 -2.88751 -2.25872 0
M  V30 11101 H 1054.87 -2.05553 -4.59083 0
M  V30 11102 H 1054.57 -3.80776 -4.47531 0
M  V30 11103 H 1056.1 -3.21222 -5.19277 0
M  V30 11104 H 1057.51 -4.6127 -3.40445 0
M  V30 11105 H 1055.91 -5.2408 -2.92335 0
M  V30 11106 H 1056.98 -4.54358 -1.69372 0
M  V30 11107 N 1058.32 0.686584 -1.41858 0
M  V30 11108 C 1059.73 1.26682 -1.37145 0
M  V30 11109 C 1060.08 1.96112 -0.058922 0
M  V30 11110 O 1059.21 1.99321 0.842629 0
M  V30 11111 C 1059.8 2.30383 -2.48413 0
M  V30 11112 C 1058.36 2.83961 -2.47069 0
M  V30 11113 C 1057.51 1.58119 -2.27802 0
M  V30 11114 H 1060.46 0.480742 -1.51243 0
M  V30 11115 H 1060.48 3.11868 -2.17987 0
M  V30 11116 H 1059.99 1.79822 -3.43927 0
M  V30 11117 H 1058.09 3.38675 -1.55338 0
M  V30 11118 H 1058.21 3.3378 -3.43697 0
M  V30 11119 H 1056.57 1.84258 -1.75844 0
M  V30 11120 H 1057.35 1.09541 -3.25355 0
M  V30 11121 N 1059.8 1.27835 0.921735 0
M  V30 11122 C 1061.21 1.13151 1.48505 0
M  V30 11123 C 1061.56 -0.281373 1.94172 0
M  V30 11124 O 1060.68 -1.17487 1.8173 0
M  V30 11125 C 1061.28 2.04792 2.69899 0
M  V30 11126 C 1059.84 1.94196 3.22436 0
M  V30 11127 C 1058.99 1.96999 1.95158 0
M  V30 11128 H 1061.94 1.40641 0.735241 0
M  V30 11129 H 1061.96 1.60724 3.44889 0
M  V30 11130 H 1061.47 3.07615 2.36631 0
M  V30 11131 H 1059.57 0.943805 3.60448 0
M  V30 11132 H 1059.68 2.80744 3.88226 0
M  V30 11133 H 1058.05 1.41301 2.11911 0
M  V30 11134 H 1058.83 3.01487 1.64196 0
M  V30 11135 N 1061.28 -1.12907 1.09954 0
M  V30 11136 C 1062.24 -2.16673 0.747364 0
M  V30 11137 C 1063.24 -1.59208 -0.225741 0
M  V30 11138 O 1064.43 -1.742 -0.00322482 0
M  V30 11139 C 1061.56 -3.40735 0.106169 0
M  V30 11140 H 1062.75 -2.49341 1.6664 0
M  V30 11141 H 1060.31 -1.27828 0.899421 0
M  V30 11142 H 1061.04 -3.13661 -0.82384 0
M  V30 11143 H 1060.83 -3.83717 0.806434 0
M  V30 11144 H 1062.32 -4.17414 -0.12464 0
M  V30 11145 N 1062.75 -0.88754 -1.30232 0
M  V30 11146 C 1064 -0.517406 -1.96709 0
M  V30 11147 C 1064.35 0.923757 -1.68774 0
M  V30 11148 O 1063.65 1.64435 -0.983443 0
M  V30 11149 C 1063.84 -0.731765 -3.49828 0
M  V30 11150 C 1063.67 -2.19221 -3.92648 0
M  V30 11151 C 1062.44 -2.83729 -4.18122 0
M  V30 11152 C 1064.64 -3.16627 -4.0528 0
M  V30 11153 N 1062.62 -4.20343 -4.4742 0
M  V30 11154 C 1063.99 -4.38322 -4.38491 0
M  V30 11155 C 1066.05 -3.12381 -3.87715 0
M  V30 11156 C 1064.75 -5.56315 -4.55967 0
M  V30 11157 C 1066.78 -4.29648 -4.06394 0
M  V30 11158 C 1066.14 -5.5011 -4.39953 0
M  V30 11159 H 1062.24 -0.238709 -0.744676 0
M  V30 11160 H 1064.82 -1.14581 -1.57414 0
M  V30 11161 H 1062.99 -0.132827 -3.88173 0
M  V30 11162 H 1064.72 -0.328276 -4.03366 0
M  V30 11163 H 1061.48 -2.34584 -4.11421 0
M  V30 11164 H 1061.9 -4.90905 -4.66199 0
M  V30 11165 H 1066.54 -2.20345 -3.60843 0
M  V30 11166 H 1064.26 -6.48853 -4.8168 0
M  V30 11167 H 1067.85 -4.27835 -3.94269 0
M  V30 11168 H 1066.73 -6.39339 -4.54109 0
M  V30 11169 N 1064.23 1.43628 -0.648757 0
M  V30 11170 C 1065.16 2.29045 0.0841858 0
M  V30 11171 C 1066.18 1.42262 0.791537 0
M  V30 11172 O 1067.37 1.66243 0.650039 0
M  V30 11173 C 1064.47 3.19075 1.14212 0
M  V30 11174 C 1063.64 4.34372 0.513799 0
M  V30 11175 C 1062.7 5.05307 1.46803 0
M  V30 11176 O 1061.72 5.60729 0.978346 0
M  V30 11177 N 1062.93 5.08393 2.80209 0
M  V30 11178 H 1065.69 2.9259 -0.648948 0
M  V30 11179 H 1063.25 1.54268 -0.491209 0
M  V30 11180 H 1065.24 3.63395 1.78119 0
M  V30 11181 H 1063.81 2.57161 1.77728 0
M  V30 11182 H 1063.03 3.93024 -0.304262 0
M  V30 11183 H 1064.32 5.08745 0.0749871 0
M  V30 11184 H 1063.72 4.64729 3.22557 0
M  V30 11185 H 1062.28 5.56445 3.3943 0
M  V30 11186 N 1065.71 0.390394 1.52688 0
M  V30 11187 C 1066.64 -0.479319 2.24132 0
M  V30 11188 C 1067.66 -1.0258 1.26416 0
M  V30 11189 O 1068.84 -0.927943 1.52484 0
M  V30 11190 C 1065.94 -1.67711 2.94493 0
M  V30 11191 C 1065.12 -1.2578 4.18925 0
M  V30 11192 C 1064.18 -2.3204 4.72275 0
M  V30 11193 O 1063.2 -1.93402 5.35336 0
M  V30 11194 N 1064.4 -3.63967 4.52226 0
M  V30 11195 H 1067.17 0.132777 2.99406 0
M  V30 11196 H 1064.73 0.216807 1.60442 0
M  V30 11197 H 1066.72 -2.38323 3.27084 0
M  V30 11198 H 1065.29 -2.19552 2.22521 0
M  V30 11199 H 1064.51 -0.380528 3.92359 0
M  V30 11200 H 1065.8 -0.954329 4.9977 0
M  V30 11201 H 1065.2 -3.98119 4.01892 0
M  V30 11202 H 1063.76 -4.30611 4.89303 0
M  V30 11203 N 1067.19 -1.57141 0.120249 0
M  V30 11204 C 1068.12 -2.18398 -0.826112 0
M  V30 11205 C 1069.1 -1.12439 -1.27638 0
M  V30 11206 O 1070.28 -1.40679 -1.33877 0
M  V30 11207 C 1067.41 -2.78438 -2.0758 0
M  V30 11208 C 1066.37 -3.89991 -1.76327 0
M  V30 11209 C 1065.69 -4.36844 -3.08336 0
M  V30 11210 C 1066.99 -5.12031 -1.03062 0
M  V30 11211 H 1068.69 -2.97731 -0.315656 0
M  V30 11212 H 1066.23 -1.43213 -0.150387 0
M  V30 11213 H 1068.19 -3.19951 -2.74243 0
M  V30 11214 H 1066.91 -1.96396 -2.60953 0
M  V30 11215 H 1065.57 -3.49055 -1.12053 0
M  V30 11216 H 1065.22 -3.51659 -3.59646 0
M  V30 11217 H 1064.92 -5.1207 -2.88199 0
M  V30 11218 H 1066.44 -4.81009 -3.76116 0
M  V30 11219 H 1067.86 -5.50555 -1.59881 0
M  V30 11220 H 1066.25 -5.92848 -0.930146 0
M  V30 11221 H 1067.32 -4.84897 -0.017582 0
M  V30 11222 N 1068.67 0.153526 -1.5685 0
M  V30 11223 C 1069.89 0.882335 -1.87143 0
M  V30 11224 C 1070.31 1.75034 -0.707702 0
M  V30 11225 O 1069.67 1.79624 0.32273 0
M  V30 11226 C 1069.72 1.74444 -3.16625 0
M  V30 11227 O 1069.44 0.911419 -4.28515 0
M  V30 11228 C 1070.94 2.58139 -3.60388 0
M  V30 11229 H 1068.16 0.25546 -0.620469 0
M  V30 11230 H 1070.7 0.148275 -2.03962 0
M  V30 11231 H 1068.86 2.43163 -3.0158 0
M  V30 11232 H 1069.27 1.50268 -5.02513 0
M  V30 11233 H 1070.75 3.14215 -4.53842 0
M  V30 11234 H 1071.22 3.33865 -2.85361 0
M  V30 11235 H 1071.83 1.94721 -3.78105 0
M  V30 11236 N 1070.14 1.51827 0.422667 0
M  V30 11237 C 1071.39 1.64893 1.16853 0
M  V30 11238 C 1071.71 0.37456 1.91369 0
M  V30 11239 O 1070.98 -0.610128 1.86157 0
M  V30 11240 H 1069.56 0.607744 0.434345 0
M  V30 11241 H 1072.23 1.88816 0.483159 0
M  V30 11242 H 1071.32 2.48361 1.89006 0
M  V30 11243 N 1071.62 -0.679052 1.4222 0
M  V30 11244 C 1072.87 -1.44125 1.42674 0
M  V30 11245 C 1073.2 -1.94156 0.041438 0
M  V30 11246 O 1072.48 -1.70628 -0.93361 0
M  V30 11247 C 1072.76 -2.64133 2.44756 0
M  V30 11248 C 1072.61 -2.19761 3.9246 0
M  V30 11249 C 1073.93 -3.66347 2.43881 0
M  V30 11250 H 1071.05 -0.522729 0.519541 0
M  V30 11251 H 1073.69 -0.772067 1.73606 0
M  V30 11252 H 1071.84 -3.21225 2.1851 0
M  V30 11253 H 1073.51 -1.67869 4.29671 0
M  V30 11254 H 1071.76 -1.51377 4.06531 0
M  V30 11255 H 1072.43 -3.05944 4.59459 0
M  V30 11256 H 1074.9 -3.18963 2.67211 0
M  V30 11257 H 1073.78 -4.47902 3.17293 0
M  V30 11258 H 1074.04 -4.17183 1.46325 0
M  V30 11259 N 1073.1 -1.28322 -0.914942 0
M  V30 11260 C 1074.06 -1.12169 -1.99877 0
M  V30 11261 C 1075.06 -0.0617252 -1.60681 0
M  V30 11262 O 1076.25 -0.307405 -1.71466 0
M  V30 11263 C 1073.39 -0.711959 -3.33383 0
M  V30 11264 H 1074.58 -2.08425 -2.15636 0
M  V30 11265 H 1072.13 -1.11291 -1.09745 0
M  V30 11266 H 1072.87 0.251418 -3.23324 0
M  V30 11267 H 1072.65 -1.47764 -3.63192 0
M  V30 11268 H 1074.14 -0.621558 -4.12948 0
M  V30 11269 N 1074.58 1.12322 -1.10551 0
M  V30 11270 C 1075.81 1.87679 -0.87087 0
M  V30 11271 C 1076.22 1.79711 0.578733 0
M  V30 11272 O 1075.58 1.17185 1.39907 0
M  V30 11273 C 1075.63 3.36846 -1.31213 0
M  V30 11274 O 1075.35 3.44626 -2.70489 0
M  V30 11275 C 1076.85 4.29138 -1.11156 0
M  V30 11276 H 1074.07 0.593788 -0.3125 0
M  V30 11277 H 1076.62 1.42116 -1.47048 0
M  V30 11278 H 1074.77 3.79948 -0.756169 0
M  V30 11279 H 1075.18 4.37441 -2.89389 0
M  V30 11280 H 1076.66 5.32082 -1.46944 0
M  V30 11281 H 1077.14 4.39171 -0.0502963 0
M  V30 11282 H 1077.74 3.91818 -1.65405 0
M  V30 11283 N 1076.06 0.894434 1.2976 0
M  V30 11284 C 1077.01 0.339611 2.25457 0
M  V30 11285 C 1077.99 -0.537326 1.51663 0
M  V30 11286 O 1079.18 -0.380204 1.72868 0
M  V30 11287 C 1076.31 -0.436494 3.40514 0
M  V30 11288 C 1075.4 0.455065 4.21651 0
M  V30 11289 N 1075.79 1.55988 4.81146 0
M  V30 11290 C 1074.09 0.251893 4.45288 0
M  V30 11291 C 1074.79 2.1117 5.42017 0
M  V30 11292 N 1073.76 1.40541 5.25118 0
M  V30 11293 H 1077.57 1.18365 2.69011 0
M  V30 11294 H 1075.08 0.744895 1.44309 0
M  V30 11295 H 1077.08 -0.850678 4.08129 0
M  V30 11296 H 1075.74 -1.27786 2.98498 0
M  V30 11297 H 1076.75 1.94266 4.80084 0
M  V30 11298 H 1073.42 -0.551536 4.13841 0
M  V30 11299 H 1074.81 3.04 5.99194 0
M  V30 11300 N 1077.53 -1.43282 0.656365 0
M  V30 11301 C 1078.76 -2.06125 0.178879 0
M  V30 11302 C 1079.18 -1.49216 -1.15672 0
M  V30 11303 O 1078.53 -0.624693 -1.71475 0
M  V30 11304 C 1078.59 -3.614 0.0851785 0
M  V30 11305 O 1078.31 -4.16194 1.36798 0
M  V30 11306 C 1079.81 -4.41325 -0.41801 0
M  V30 11307 H 1077.03 -0.664753 0.0913504 0
M  V30 11308 H 1079.57 -1.83733 0.897901 0
M  V30 11309 H 1077.73 -3.82966 -0.584421 0
M  V30 11310 H 1078.14 -5.09892 1.22924 0
M  V30 11311 H 1079.61 -5.50303 -0.432519 0
M  V30 11312 H 1080.09 -4.14577 -1.44991 0
M  V30 11313 H 1080.7 -4.24735 0.219208 0
M  V30 11314 N 1079.01 -0.398486 -1.52479 0
M  V30 11315 C 1080.24 0.183059 -2.06591 0
M  V30 11316 C 1080.66 1.3898 -1.26753 0
M  V30 11317 O 1080.02 1.78885 -0.294959 0
M  V30 11318 C 1080.07 0.522392 -3.56796 0
M  V30 11319 O 1079.17 1.61499 -3.79462 0
M  V30 11320 H 1078.51 0.0188411 -0.663733 0
M  V30 11321 H 1081.04 -0.56861 -1.9654 0
M  V30 11322 H 1081.05 0.784078 -4.00395 0
M  V30 11323 H 1079.73 -0.359807 -4.14341 0
M  V30 11324 H 1078.31 1.3463 -3.47749 0
M  V30 11325 N 1080.49 1.57075 -0.12858 0
M  V30 11326 C 1081.74 1.9581 0.527868 0
M  V30 11327 C 1082.07 1.01253 1.65715 0
M  V30 11328 O 1081.35 0.0514853 1.94432 0
M  V30 11329 C 1081.63 3.44406 1.05151 0
M  V30 11330 C 1081.48 4.49737 -0.0750113 0
M  V30 11331 C 1082.8 3.95069 1.9393 0
M  V30 11332 H 1079.92 0.711978 0.19041 0
M  V30 11333 H 1082.56 1.88879 -0.206081 0
M  V30 11334 H 1080.71 3.50443 1.67697 0
M  V30 11335 H 1082.38 4.55793 -0.710685 0
M  V30 11336 H 1080.63 4.27497 -0.736809 0
M  V30 11337 H 1081.3 5.50996 0.332779 0
M  V30 11338 H 1083.77 3.91395 1.41241 0
M  V30 11339 H 1082.65 4.99542 2.27484 0
M  V30 11340 H 1082.91 3.36329 2.86941 0
M  V30 11341 N 1081.97 -0.145205 1.5693 0
M  V30 11342 C 1082.9 -1.20438 1.95006 0
M  V30 11343 C 1083.91 -1.39085 0.846114 0
M  V30 11344 O 1085.1 -1.38625 1.12452 0
M  V30 11345 C 1082.2 -2.56892 2.21043 0
M  V30 11346 C 1081.38 -2.59197 3.52329 0
M  V30 11347 C 1080.44 -3.77204 3.66884 0
M  V30 11348 O 1079.46 -3.61995 4.39259 0
M  V30 11349 N 1080.66 -4.9473 3.03682 0
M  V30 11350 H 1083.43 -0.880709 2.86467 0
M  V30 11351 H 1080.99 -0.334751 1.58401 0
M  V30 11352 H 1082.98 -3.34349 2.2802 0
M  V30 11353 H 1081.55 -2.81544 1.35838 0
M  V30 11354 H 1080.77 -1.67644 3.56776 0
M  V30 11355 H 1082.06 -2.57771 4.3867 0
M  V30 11356 H 1081.46 -5.09989 2.44801 0
M  V30 11357 H 1080.01 -5.69956 3.16218 0
M  V30 11358 N 1083.45 -1.52049 -0.414609 0
M  V30 11359 C 1084.4 -1.7138 -1.50376 0
M  V30 11360 C 1085.38 -0.567692 -1.50553 0
M  V30 11361 O 1086.57 -0.824541 -1.56622 0
M  V30 11362 C 1083.7 -1.86291 -2.88358 0
M  V30 11363 C 1082.79 -3.06757 -2.9285 0
M  V30 11364 N 1083.18 -4.29557 -2.67048 0
M  V30 11365 C 1081.48 -3.06478 -3.24018 0
M  V30 11366 C 1082.18 -5.10988 -2.77968 0
M  V30 11367 N 1081.15 -4.46117 -3.10613 0
M  V30 11368 H 1084.96 -2.63972 -1.29213 0
M  V30 11369 H 1082.47 -1.50006 -0.622244 0
M  V30 11370 H 1084.47 -1.98256 -3.66743 0
M  V30 11371 H 1083.13 -0.948959 -3.10524 0
M  V30 11372 H 1084.14 -4.58122 -2.41546 0
M  V30 11373 H 1080.82 -2.24799 -3.51812 0
M  V30 11374 H 1082.21 -6.18806 -2.6178 0
M  V30 11375 N 1084.93 0.6715 -1.42579 0
M  V30 11376 C 1085.89 1.76676 -1.46008 0
M  V30 11377 C 1086.89 1.57007 -0.347213 0
M  V30 11378 O 1088.08 1.63238 -0.608185 0
M  V30 11379 C 1085.21 3.15348 -1.29494 0
M  V30 11380 H 1086.4 1.75021 -2.43531 0
M  V30 11381 H 1083.96 0.881444 -1.29075 0
M  V30 11382 H 1084.69 3.22626 -0.32906 0
M  V30 11383 H 1084.48 3.31028 -2.10149 0
M  V30 11384 H 1085.97 3.95251 -1.34784 0
M  V30 11385 N 1086.4 1.28806 0.908124 0
M  V30 11386 C 1087.63 1.19153 1.69146 0
M  V30 11387 C 1088.05 -0.249056 1.8715 0
M  V30 11388 O 1087.4 -1.16772 1.40251 0
M  V30 11389 C 1087.45 1.89167 3.08055 0
M  V30 11390 O 1087.18 3.27599 2.90879 0
M  V30 11391 C 1088.68 1.85886 4.02444 0
M  V30 11392 H 1085.9 0.413359 0.528559 0
M  V30 11393 H 1088.44 1.7003 1.13622 0
M  V30 11394 H 1086.6 1.42146 3.60379 0
M  V30 11395 H 1087.01 3.62743 3.78837 0
M  V30 11396 H 1088.48 2.39454 4.97359 0
M  V30 11397 H 1088.96 0.832483 4.31238 0
M  V30 11398 H 1089.57 2.32612 3.5605 0
M  V30 11399 N 1087.88 -1.11734 1.11145 0
M  V30 11400 C 1089.13 -1.83677 0.859684 0
M  V30 11401 C 1089.46 -1.84265 -0.613182 0
M  V30 11402 O 1088.74 -1.29351 -1.45254 0
M  V30 11403 C 1089.02 -3.31003 1.41805 0
M  V30 11404 C 1088.87 -3.38827 2.95831 0
M  V30 11405 C 1090.19 -4.26984 1.06645 0
M  V30 11406 H 1087.31 -0.666879 0.313754 0
M  V30 11407 H 1089.95 -1.31038 1.37583 0
M  V30 11408 H 1088.1 -3.75961 0.979054 0
M  V30 11409 H 1089.77 -3.02451 3.48312 0
M  V30 11410 H 1088.02 -2.79143 3.32056 0
M  V30 11411 H 1088.69 -4.42508 3.29986 0
M  V30 11412 H 1091.16 -3.9019 1.44537 0
M  V30 11413 H 1090.04 -5.2846 1.48394 0
M  V30 11414 H 1090.3 -4.42094 -0.0231866 0
M  V30 11415 N 1089.36 -0.901303 -1.29284 0
M  V30 11416 C 1090.61 -0.52401 -1.94774 0
M  V30 11417 C 1090.92 0.934645 -1.71825 0
M  V30 11418 O 1092.13 1.41953 -2.31434 0
M  V30 11419 C 1090.58 -0.886262 -3.48817 0
M  V30 11420 C 1090.19 -2.3638 -3.80564 0
M  V30 11421 C 1091.94 -0.578955 -4.20533 0
M  V30 11422 C 1089.84 -2.66682 -5.27858 0
M  V30 11423 H 1088.77 -0.192244 -0.72908 0
M  V30 11424 H 1091.42 -1.09852 -1.46986 0
M  V30 11425 H 1089.81 -0.240666 -3.95268 0
M  V30 11426 H 1090.98 -3.05508 -3.44966 0
M  V30 11427 H 1089.29 -2.64029 -3.2199 0
M  V30 11428 H 1091.89 -0.782185 -5.28948 0
M  V30 11429 H 1092.23 0.482605 -4.13493 0
M  V30 11430 H 1092.77 -1.18246 -3.79819 0
M  V30 11431 H 1089.51 -3.71643 -5.39965 0
M  V30 11432 H 1089.03 -2.02179 -5.64698 0
M  V30 11433 H 1090.71 -2.53033 -5.95469 0
M  V30 11434 N 1090.84 1.42931 -0.663954 0
M  V30 11435 C 1092.25 1.84877 -0.260283 0
M  V30 11436 C 1092.6 1.5558 1.19538 0
M  V30 11437 O 1091.72 1.01015 1.91377 0
M  V30 11438 C 1092.32 3.35585 -0.465618 0
M  V30 11439 C 1090.88 3.76221 -0.116169 0
M  V30 11440 C 1090.03 2.66587 -0.763317 0
M  V30 11441 H 1092.98 1.32932 -0.866882 0
M  V30 11442 H 1093 3.79427 0.285608 0
M  V30 11443 H 1092.51 3.56877 -1.52515 0
M  V30 11444 H 1090.61 3.60539 0.940342 0
M  V30 11445 H 1090.72 4.75943 -0.549123 0
M  V30 11446 H 1089.09 2.53948 -0.19559 0
M  V30 11447 H 1089.87 2.90704 -1.82609 0
M  V30 11448 N 1092.32 0.406567 1.52266 0
M  V30 11449 C 1093.23 -0.4271 2.30679 0
M  V30 11450 C 1094.24 -1.0559 1.383 0
M  V30 11451 O 1095.42 -1.05797 1.71374 0
M  V30 11452 C 1092.48 -1.53008 3.1111 0
M  V30 11453 C 1091.54 -0.924604 4.19225 0
M  V30 11454 C 1090.78 -1.97502 4.95811 0
M  V30 11455 O 1091 -3.19277 4.72671 0
M  V30 11456 O 1089.93 -1.58268 5.80719 0
M  V30 11457 H 1093.76 0.212187 3.02958 0
M  V30 11458 H 1091.34 0.169835 1.48432 0
M  V30 11459 H 1093.23 -2.17046 3.61205 0
M  V30 11460 H 1091.9 -2.15401 2.41628 0
M  V30 11461 H 1090.81 -0.247009 3.73284 0
M  V30 11462 H 1092.14 -0.34463 4.90992 0
M  V30 11463 N 1093.79 -1.57004 0.136909 0
M  V30 11464 C 1095.02 -2.00156 -0.523936 0
M  V30 11465 C 1095.44 -1.01688 -1.59075 0
M  V30 11466 O 1094.79 -0.0123678 -1.82496 0
M  V30 11467 C 1094.85 -3.4326 -1.13379 0
M  V30 11468 O 1094.57 -4.37963 -0.109598 0
M  V30 11469 C 1096.07 -4.01637 -1.87623 0
M  V30 11470 H 1093.29 -0.65681 -0.137263 0
M  V30 11471 H 1095.83 -2.03219 0.228522 0
M  V30 11472 H 1093.99 -3.4108 -1.83693 0
M  V30 11473 H 1094.4 -5.21555 -0.55503 0
M  V30 11474 H 1095.87 -5.03795 -2.25597 0
M  V30 11475 H 1096.35 -3.41781 -2.75831 0
M  V30 11476 H 1096.96 -4.07417 -1.22031 0
M  V30 11477 N 1095.27 0.136881 -1.57004 0
M  V30 11478 C 1096.21 1.19853 -1.94192 0
M  V30 11479 C 1097.18 1.4104 -0.809103 0
M  V30 11480 O 1098.37 1.55487 -1.06565 0
M  V30 11481 C 1095.49 2.55565 -2.22271 0
M  V30 11482 C 1094.54 2.50913 -3.44884 0
M  V30 11483 S 1095.37 1.96619 -4.98098 0
M  V30 11484 C 1096.53 3.34039 -5.2931 0
M  V30 11485 H 1096.76 0.881316 -2.83937 0
M  V30 11486 H 1094.3 0.342915 -1.50544 0
M  V30 11487 H 1096.25 3.33659 -2.39127 0
M  V30 11488 H 1094.91 2.84472 -1.33172 0
M  V30 11489 H 1094.11 3.50839 -3.6184 0
M  V30 11490 H 1093.71 1.80932 -3.27322 0
M  V30 11491 H 1096 4.30189 -5.23397 0
M  V30 11492 H 1096.94 3.21927 -6.30689 0
M  V30 11493 H 1097.35 3.31642 -4.56808 0
M  V30 11494 N 1096.75 1.52266 0.40654 0
M  V30 11495 C 1097.71 1.75168 1.47814 0
M  V30 11496 C 1098.71 0.621575 1.48301 0
M  V30 11497 O 1099.9 0.889476 1.4978 0
M  V30 11498 C 1097.04 1.83642 2.87208 0
M  V30 11499 H 1098.23 2.70834 1.28798 0
M  V30 11500 H 1095.78 1.42722 0.637196 0
M  V30 11501 H 1096.52 0.898994 3.1159 0
M  V30 11502 H 1096.3 2.65801 2.88257 0
M  V30 11503 H 1097.79 2.03093 3.64888 0
M  V30 11504 N 1098.23 -0.663929 1.42933 0
M  V30 11505 C 1099.48 -1.42111 1.43697 0
M  V30 11506 C 1099.8 -1.94913 0.0583858 0
M  V30 11507 O 1099.07 -1.73757 -0.904719 0
M  V30 11508 H 1097.65 -0.527391 0.529026 0
M  V30 11509 H 1100.31 -0.783766 1.78446 0
M  V30 11510 H 1099.41 -2.26877 2.1432 0
M  V30 11511 N 1099.71 -1.29285 -0.901281 0
M  V30 11512 C 1100.93 -1.20048 -1.68511 0
M  V30 11513 C 1101.35 0.239128 -1.8728 0
M  V30 11514 O 1100.71 1.16027 -1.40869 0
M  V30 11515 C 1100.76 -1.90798 -3.07048 0
M  V30 11516 O 1100.48 -3.29137 -2.89138 0
M  V30 11517 C 1101.98 -1.88017 -4.01453 0
M  V30 11518 H 1099.2 -0.416157 -0.52636 0
M  V30 11519 H 1101.74 -1.7063 -1.12719 0
M  V30 11520 H 1099.9 -1.44055 -3.5962 0
M  V30 11521 H 1100.31 -3.64747 -3.76908 0
M  V30 11522 H 1101.79 -2.42088 -4.96082 0
M  V30 11523 H 1102.26 -0.855341 -4.30791 0
M  V30 11524 H 1102.87 -2.34497 -3.54812 0
M  V30 11525 N 1101.18 1.11143 -1.11736 0
M  V30 11526 C 1102.12 2.1705 -0.736325 0
M  V30 11527 C 1103.13 1.61116 0.233528 0
M  V30 11528 O 1104.32 1.78493 0.0159602 0
M  V30 11529 C 1101.42 3.38832 -0.067974 0
M  V30 11530 C 1100.59 4.24226 -1.06543 0
M  V30 11531 C 1099.65 5.24472 -0.426063 0
M  V30 11532 O 1098.68 5.58843 -1.0809 0
M  V30 11533 N 1099.88 5.74825 0.809711 0
M  V30 11534 H 1102.64 2.50349 -1.64758 0
M  V30 11535 H 1100.2 1.26693 -1.00799 0
M  V30 11536 H 1102.2 4.02991 0.371563 0
M  V30 11537 H 1100.77 3.0357 0.745917 0
M  V30 11538 H 1099.99 3.56475 -1.68283 0
M  V30 11539 H 1101.27 4.78117 -1.74016 0
M  V30 11540 H 1100.67 5.49088 1.36084 0
M  V30 11541 H 1099.23 6.40804 1.19218 0
M  V30 11542 N 1102.66 0.908147 1.28804 0
M  V30 11543 C 1103.59 0.34957 2.26519 0
M  V30 11544 C 1104.61 -0.508845 1.54643 0
M  V30 11545 O 1105.8 -0.324633 1.75523 0
M  V30 11546 C 1102.9 -0.519461 3.34895 0
M  V30 11547 C 1102.07 0.315157 4.36263 0
M  V30 11548 C 1101.13 -0.488059 5.23932 0
M  V30 11549 O 1100.15 0.0974133 5.69117 0
M  V30 11550 N 1101.36 -1.79233 5.52137 0
M  V30 11551 H 1104.12 1.18945 2.75086 0
M  V30 11552 H 1101.68 0.77351 1.42227 0
M  V30 11553 H 1103.67 -1.0634 3.90479 0
M  V30 11554 H 1102.24 -1.26004 2.8608 0
M  V30 11555 H 1101.46 1.04049 3.8022 0
M  V30 11556 H 1102.75 0.886438 5.01019 0
M  V30 11557 H 1102.15 -2.2906 5.1725 0
M  V30 11558 H 1100.71 -2.28322 6.10502 0
M  V30 11559 N 1104.14 -1.42577 0.671525 0
M  V30 11560 C 1105.07 -2.33499 0.00506984 0
M  V30 11561 C 1106.05 -1.50497 -0.792763 0
M  V30 11562 O 1107.24 -1.79109 -0.750574 0
M  V30 11563 C 1104.37 -3.34077 -0.949194 0
M  V30 11564 C 1103.32 -4.27208 -0.260187 0
M  V30 11565 C 1102.65 -5.17968 -1.32716 0
M  V30 11566 C 1103.95 -5.15192 0.858772 0
M  V30 11567 H 1105.64 -2.89477 0.764407 0
M  V30 11568 H 1103.19 -1.39191 0.369043 0
M  V30 11569 H 1105.14 -3.96594 -1.42448 0
M  V30 11570 H 1103.86 -2.76396 -1.73991 0
M  V30 11571 H 1102.52 -3.66082 0.194834 0
M  V30 11572 H 1102.17 -4.56615 -2.10979 0
M  V30 11573 H 1101.87 -5.81104 -0.871293 0
M  V30 11574 H 1103.39 -5.83359 -1.80345 0
M  V30 11575 H 1104.81 -5.71412 0.464844 0
M  V30 11576 H 1103.21 -5.87144 1.24023 0
M  V30 11577 H 1104.28 -4.53787 1.70895 0
M  V30 11578 N 1105.62 -0.414636 -1.52048 0
M  V30 11579 C 1106.58 0.396285 -2.25748 0
M  V30 11580 C 1107.58 0.969003 -1.28324 0
M  V30 11581 O 1108.77 0.847016 -1.52221 0
M  V30 11582 C 1105.9 1.55838 -3.03195 0
M  V30 11583 H 1107.1 -0.249311 -2.98862 0
M  V30 11584 H 1104.65 -0.167276 -1.55402 0
M  V30 11585 H 1105.38 2.24068 -2.34444 0
M  V30 11586 H 1105.17 1.15414 -3.74729 0
M  V30 11587 H 1106.66 2.13187 -3.59084 0
M  V30 11588 N 1107.1 1.56929 -0.145233 0
M  V30 11589 C 1108.37 1.8767 0.551288 0
M  V30 11590 C 1108.75 1.05089 1.83083 0
M  V30 11591 O 1108.1 0.137201 2.28088 0
M  V30 11592 C 1108.31 3.39268 0.818445 0
M  V30 11593 C 1109.66 4.08447 1.16 0
M  V30 11594 O 1110.68 3.44436 0.907857 0
M  V30 11595 O 1109.54 5.21488 1.63441 0
M  V30 11596 H 1106.64 0.777788 0.281024 0
M  V30 11597 H 1109.18 1.68724 -0.181712 0
M  V30 11598 H 1107.95 3.91203 -0.0871897 0
M  V30 11599 H 1107.58 3.63735 1.60569 0
M  V30 11600 N 1108.58 -0.128553 1.57075 0
M  V30 11601 C 1109.82 -0.834322 1.85501 0
M  V30 11602 C 1110.18 -1.77943 0.731725 0
M  V30 11603 O 1109.47 -1.89702 -0.269003 0
M  V30 11604 C 1109.66 -1.63027 3.18052 0
M  V30 11605 C 1109.49 -0.763737 4.43167 0
M  V30 11606 C 1108.26 -0.42224 5.03533 0
M  V30 11607 C 1110.46 -0.0856773 5.14229 0
M  V30 11608 N 1108.44 0.455954 6.12204 0
M  V30 11609 C 1109.81 0.651902 6.16563 0
M  V30 11610 C 1111.87 -0.00826404 4.97899 0
M  V30 11611 C 1110.57 1.45961 7.04335 0
M  V30 11612 C 1112.6 0.786239 5.8615 0
M  V30 11613 C 1111.96 1.51204 6.8798 0
M  V30 11614 H 1108.06 -0.282535 0.729176 0
M  V30 11615 H 1110.64 -0.0985924 1.9445 0
M  V30 11616 H 1108.81 -2.3371 3.10216 0
M  V30 11617 H 1110.55 -2.28063 3.34319 0
M  V30 11618 H 1107.3 -0.76229 4.67425 0
M  V30 11619 H 1107.72 0.886619 6.71169 0
M  V30 11620 H 1112.37 -0.555051 4.19141 0
M  V30 11621 H 1110.08 2.01759 7.82508 0
M  V30 11622 H 1113.67 0.848372 5.75581 0
M  V30 11623 H 1112.55 2.11694 7.55086 0
M  V30 11624 N 1110.05 -1.5248 -0.398459 0
M  V30 11625 C 1111.47 -1.4152 -0.737854 0
M  V30 11626 C 1111.67 -0.528122 -1.94456 0
M  V30 11627 O 1110.73 0.00203799 -2.525 0
M  V30 11628 C 1112.04 -2.8422 -0.9818 0
M  V30 11629 C 1113.59 -2.93635 -1.08386 0
M  V30 11630 C 1114.06 -4.37327 -1.3605 0
M  V30 11631 N 1115.55 -4.40609 -1.42892 0
M  V30 11632 C 1116.29 -5.48863 -1.65944 0
M  V30 11633 N 1115.78 -6.67217 -1.86529 0
M  V30 11634 N 1117.58 -5.36393 -1.68046 0
M  V30 11635 H 1109.73 -2.08681 0.395705 0
M  V30 11636 H 1111.99 -0.941023 0.114801 0
M  V30 11637 H 1111.7 -3.51302 -0.167358 0
M  V30 11638 H 1111.57 -3.25907 -1.89907 0
M  V30 11639 H 1113.96 -2.26728 -1.88888 0
M  V30 11640 H 1114.04 -2.5539 -0.144714 0
M  V30 11641 H 1113.68 -5.04797 -0.56061 0
M  V30 11642 H 1113.61 -4.73116 -2.31233 0
M  V30 11643 H 1116.1 -3.55298 -1.2873 0
M  V30 11644 H 1116.42 -7.45498 -2.03599 0
M  V30 11645 H 1114.76 -6.70263 -1.83773 0
M  V30 11646 H 1117.95 -4.42903 -1.51509 0
M  V30 11647 H 1118.13 -6.2083 -1.85672 0
M  V30 11648 N 1111.53 0.65634 -1.43283 0
M  V30 11649 C 1112.48 1.79058 -1.48462 0
M  V30 11650 C 1113.47 1.65563 -0.358512 0
M  V30 11651 O 1114.68 1.71947 -0.532365 0
M  V30 11652 H 1111.05 0.590716 -0.465358 0
M  V30 11653 H 1113.03 1.7181 -2.43975 0
M  V30 11654 C 1111.77 3.17304 -1.42175 0
M  V30 11655 H 1111.1 3.28324 -2.2813 0
M  V30 11656 H 1112.54 3.96633 -1.4986 0
M  V30 11657 C 1111 3.36613 -0.138929 0
M  V30 11658 O 1111.53 3.93633 0.80101 0
M  V30 11659 N 1109.73 2.90557 -0.0501237 0
M  V30 11660 H 1109.28 2.4434 -0.815821 0
M  V30 11661 H 1109.24 3.03853 0.807504 0
M  V30 11662 N 1113.01 1.29761 0.894412 0
M  V30 11663 C 1114.24 1.2094 1.67872 0
M  V30 11664 C 1114.65 -0.229192 1.87404 0
M  V30 11665 O 1114.01 -1.15278 1.41482 0
M  V30 11666 C 1114.06 1.92424 3.06032 0
M  V30 11667 O 1113.78 3.30665 2.87388 0
M  V30 11668 C 1115.28 1.90144 4.0045 0
M  V30 11669 H 1112.5 0.418942 0.524145 0
M  V30 11670 H 1115.05 1.71226 1.11813 0
M  V30 11671 H 1113.2 1.4596 3.58851 0
M  V30 11672 H 1113.62 3.66741 3.74969 0
M  V30 11673 H 1115.09 2.44716 4.94791 0
M  V30 11674 H 1115.57 0.878175 4.30331 0
M  V30 11675 H 1116.17 2.36375 3.53563 0
M  V30 11676 N 1114.49 -1.10549 1.12324 0
M  V30 11677 C 1115.44 -2.14997 0.758979 0
M  V30 11678 C 1116.42 -1.59078 -0.241461 0
M  V30 11679 O 1117.61 -1.76937 -0.0471439 0
M  V30 11680 C 1114.74 -3.42633 0.21395 0
M  V30 11681 C 1113.83 -4.05487 1.24261 0
M  V30 11682 N 1114.22 -4.43064 2.43984 0
M  V30 11683 C 1112.52 -4.32534 1.08769 0
M  V30 11684 C 1113.22 -4.92427 3.09662 0
M  V30 11685 N 1112.19 -4.89161 2.37114 0
M  V30 11686 H 1116 -2.4184 1.67005 0
M  V30 11687 H 1113.51 -1.27659 1.00384 0
M  V30 11688 H 1115.51 -4.16849 -0.0651928 0
M  V30 11689 H 1114.17 -3.17249 -0.691591 0
M  V30 11690 H 1115.18 -4.34797 2.81375 0
M  V30 11691 H 1111.86 -4.16813 0.239354 0
M  V30 11692 H 1113.25 -5.31059 4.11614 0
M  V30 11693 N 1115.97 -0.914965 -1.28321 0
M  V30 11694 C 1116.93 -0.409024 -2.25521 0
M  V30 11695 C 1117.93 0.465327 -1.5392 0
M  V30 11696 O 1119.12 0.26821 -1.72123 0
M  V30 11697 C 1116.25 0.413452 -3.38383 0
M  V30 11698 H 1117.44 -1.26767 -2.71791 0
M  V30 11699 H 1115 -0.694477 -1.40024 0
M  V30 11700 H 1115.73 1.29145 -2.97476 0
M  V30 11701 H 1115.52 -0.213268 -3.9152 0
M  V30 11702 H 1117.01 0.758232 -4.10659 0
M  V30 11703 N 1117.44 1.42219 -0.679077 0
M  V30 11704 C 1118.39 2.27992 0.0194379 0
M  V30 11705 C 1119.38 1.41317 0.769313 0
M  V30 11706 O 1120.57 1.64731 0.647521 0
M  V30 11707 C 1117.7 3.29401 0.966945 0
M  V30 11708 C 1116.78 4.23559 0.214187 0
M  V30 11709 N 1117.18 4.99699 -0.783226 0
M  V30 11710 C 1115.47 4.43703 0.452026 0
M  V30 11711 C 1116.17 5.68496 -1.23237 0
M  V30 11712 N 1115.15 5.40692 -0.561484 0
M  V30 11713 H 1118.95 2.84287 -0.745542 0
M  V30 11714 H 1116.47 1.54234 -0.508504 0
M  V30 11715 H 1118.46 3.89655 1.48238 0
M  V30 11716 H 1117.12 2.74667 1.7317 0
M  V30 11717 H 1118.13 5.04675 -1.16291 0
M  V30 11718 H 1114.81 4.00004 1.19595 0
M  V30 11719 H 1116.2 6.3957 -2.05912 0
M  V30 11720 N 1118.92 0.422693 1.51826 0
M  V30 11721 C 1120.17 -0.148348 2.01555 0
M  V30 11722 C 1120.49 -1.44483 1.30956 0
M  V30 11723 O 1119.76 -1.90904 0.439599 0
M  V30 11724 H 1118.34 -0.0578116 0.74476 0
M  V30 11725 H 1121 0.562046 1.8662 0
M  V30 11726 H 1120.1 -0.334766 3.10299 0
M  V30 11727 N 1120.4 -1.5685 0.153553 0
M  V30 11728 C 1121.62 -2.01135 -0.505904 0
M  V30 11729 C 1122.05 -1.03301 -1.57196 0
M  V30 11730 O 1121.41 -0.00976022 -1.81297 0
M  V30 11731 C 1121.46 -3.44129 -1.0774 0
M  V30 11732 O 1120.56 -3.49318 -2.19205 0
M  V30 11733 H 1119.9 -0.652496 -0.123062 0
M  V30 11734 H 1122.43 -2.03039 0.252216 0
M  V30 11735 H 1122.44 -3.83066 -1.40444 0
M  V30 11736 H 1121.12 -4.1484 -0.296754 0
M  V30 11737 H 1119.69 -3.22227 -1.8768 0
M  V30 11738 N 1121.88 0.120221 -1.57141 0
M  V30 11739 C 1122.83 1.15332 -1.96679 0
M  V30 11740 C 1123.81 1.37134 -0.841607 0
M  V30 11741 O 1125 1.38247 -1.10529 0
M  V30 11742 C 1122.13 2.48021 -2.37361 0
M  V30 11743 C 1121.22 2.29699 -3.5651 0
M  V30 11744 N 1121.61 1.81186 -4.72234 0
M  V30 11745 C 1119.91 2.60359 -3.62118 0
M  V30 11746 C 1120.61 1.76542 -5.54263 0
M  V30 11747 N 1119.58 2.20843 -4.96719 0
M  V30 11748 H 1123.39 0.770763 -2.83613 0
M  V30 11749 H 1120.9 0.327979 -1.59054 0
M  V30 11750 H 1122.9 3.22739 -2.63903 0
M  V30 11751 H 1121.56 2.87036 -1.51791 0
M  V30 11752 H 1122.57 1.50751 -4.95474 0
M  V30 11753 H 1119.25 3.03067 -2.87152 0
M  V30 11754 H 1120.64 1.40298 -6.57089 0
M  V30 11755 N 1123.36 1.52689 0.390367 0
M  V30 11756 C 1124.59 1.71292 1.1551 0
M  V30 11757 C 1124.99 0.430405 1.84239 0
M  V30 11758 O 1124.34 -0.604823 1.73458 0
M  V30 11759 C 1124.4 2.80597 2.24735 0
M  V30 11760 C 1124.06 4.21757 1.75984 0
M  V30 11761 C 1125.06 5.04961 1.23733 0
M  V30 11762 C 1122.75 4.68071 1.82248 0
M  V30 11763 C 1124.74 6.32561 0.783926 0
M  V30 11764 C 1122.43 5.95656 1.36519 0
M  V30 11765 C 1123.42 6.7773 0.846786 0
M  V30 11766 O 1123.11 8.02923 0.396164 0
M  V30 11767 H 1122.84 0.576906 0.352356 0
M  V30 11768 H 1125.4 2.00117 0.462865 0
M  V30 11769 H 1123.63 2.4719 2.97378 0
M  V30 11770 H 1125.32 2.87616 2.86412 0
M  V30 11771 H 1126.08 4.70363 1.18251 0
M  V30 11772 H 1121.96 4.04278 2.21541 0
M  V30 11773 H 1125.51 6.96572 0.378612 0
M  V30 11774 H 1121.4 6.29758 1.41686 0
M  V30 11775 H 1122.17 8.16861 0.517766 0
M  V30 11776 N 1124.83 -0.648732 1.43629 0
M  V30 11777 C 1125.78 -1.78269 1.49409 0
M  V30 11778 C 1126.78 -1.6537 0.367288 0
M  V30 11779 O 1127.98 -1.71663 0.541476 0
M  V30 11780 H 1124.36 -0.58824 0.468484 0
M  V30 11781 H 1126.33 -1.70514 2.44883 0
M  V30 11782 C 1125.08 -3.16545 1.43856 0
M  V30 11783 H 1124.4 -3.2711 2.29868 0
M  V30 11784 H 1125.84 -3.95833 1.51961 0
M  V30 11785 C 1124.3 -3.36535 0.156779 0
M  V30 11786 O 1124.83 -3.94052 -0.780124 0
M  V30 11787 N 1123.04 -2.90526 0.0655319 0
M  V30 11788 H 1122.58 -2.43904 0.828768 0
M  V30 11789 H 1122.54 -3.04277 -0.791379 0
M  V30 11790 N 1126.31 -1.30234 -0.887518 0
M  V30 11791 C 1127.72 -1.17048 -1.45453 0
M  V30 11792 C 1128.07 0.229793 -1.9485 0
M  V30 11793 O 1127.2 1.12628 -1.84781 0
M  V30 11794 C 1127.79 -2.11876 -2.64375 0
M  V30 11795 C 1126.35 -2.02676 -3.17174 0
M  V30 11796 C 1125.5 -2.02104 -1.89866 0
M  V30 11797 H 1128.45 -1.42541 -0.697694 0
M  V30 11798 H 1128.47 -1.69811 -3.40506 0
M  V30 11799 H 1127.98 -3.13781 -2.28392 0
M  V30 11800 H 1126.09 -1.03904 -3.57819 0
M  V30 11801 H 1126.2 -2.90939 -3.80646 0
M  V30 11802 H 1124.56 -1.4687 -2.0809 0
M  V30 11803 H 1125.35 -3.05735 -1.56145 0
M  V30 11804 N 1127.79 1.09952 -1.12909 0
M  V30 11805 C 1129.04 1.81386 -0.882163 0
M  V30 11806 C 1129.35 1.86376 0.593592 0
M  V30 11807 O 1130.56 2.54064 0.957275 0
M  V30 11808 C 1129.01 3.25824 -1.52861 0
M  V30 11809 C 1128.62 3.29117 -3.0395 0
M  V30 11810 C 1130.37 4.02051 -1.36216 0
M  V30 11811 C 1128.27 4.68047 -3.61505 0
M  V30 11812 H 1127.2 0.679701 -0.326378 0
M  V30 11813 H 1129.85 1.23614 -1.35616 0
M  V30 11814 H 1128.24 3.83624 -0.982271 0
M  V30 11815 H 1129.41 2.81114 -3.65119 0
M  V30 11816 H 1127.73 2.66379 -3.20049 0
M  V30 11817 H 1130.32 5.04683 -1.76633 0
M  V30 11818 H 1130.67 4.15171 -0.306391 0
M  V30 11819 H 1131.2 3.5068 -1.87799 0
M  V30 11820 H 1127.94 4.60128 -4.66865 0
M  V30 11821 H 1127.46 5.16397 -3.05114 0
M  V30 11822 H 1129.14 5.37018 -3.6086 0
M  V30 11823 N 1129.27 0.921757 1.27833 0
M  V30 11824 C 1130.2 0.360683 2.25332 0
M  V30 11825 C 1131.18 -0.53961 1.53385 0
M  V30 11826 O 1132.36 -0.48146 1.82248 0
M  V30 11827 C 1129.49 -0.483626 3.35229 0
M  V30 11828 C 1128.54 0.352405 4.25042 0
M  V30 11829 S 1129.37 1.76421 5.05605 0
M  V30 11830 C 1130.53 0.92742 6.18991 0
M  V30 11831 H 1130.76 1.18703 2.72574 0
M  V30 11832 H 1128.29 0.72354 1.36397 0
M  V30 11833 H 1130.25 -0.964914 3.98998 0
M  V30 11834 H 1128.91 -1.28444 2.86637 0
M  V30 11835 H 1128.1 -0.293558 5.03144 0
M  V30 11836 H 1127.71 0.767643 3.66037 0
M  V30 11837 H 1130 0.160698 6.77309 0
M  V30 11838 H 1130.94 1.68126 6.87851 0
M  V30 11839 H 1131.35 0.472056 5.62523 0
M  V30 11840 N 1130.75 -1.41857 0.686609 0
M  V30 11841 C 1131.68 -2.29188 -0.0234289 0
M  V30 11842 C 1132.69 -1.44311 -0.753541 0
M  V30 11843 O 1133.88 -1.67908 -0.605734 0
M  V30 11844 C 1130.98 -3.21991 -1.05713 0
M  V30 11845 C 1130.15 -4.35581 -0.398453 0
M  V30 11846 C 1129.21 -5.09022 -1.33354 0
M  V30 11847 O 1128.24 -5.63126 -0.829334 0
M  V30 11848 N 1129.44 -5.15643 -2.66632 0
M  V30 11849 H 1132.21 -2.90766 0.726295 0
M  V30 11850 H 1129.77 -1.52912 0.531937 0
M  V30 11851 H 1131.76 -3.6799 -1.68421 0
M  V30 11852 H 1130.33 -2.61782 -1.70847 0
M  V30 11853 H 1129.55 -3.92079 0.408358 0
M  V30 11854 H 1130.84 -5.08765 0.0599239 0
M  V30 11855 H 1130.23 -4.73118 -3.10122 0
M  V30 11856 H 1128.79 -5.65248 -3.24558 0
M  V30 11857 N 1132.22 -0.430739 -1.51599 0
M  V30 11858 C 1133.16 0.419726 -2.25324 0
M  V30 11859 C 1134.17 0.991925 -1.29092 0
M  V30 11860 O 1135.36 0.887188 -1.54891 0
M  V30 11861 C 1132.46 1.59844 -2.98836 0
M  V30 11862 C 1131.63 1.14629 -4.22112 0
M  V30 11863 C 1130.69 2.19437 -4.78261 0
M  V30 11864 O 1129.72 1.79141 -5.40275 0
M  V30 11865 N 1130.92 3.51849 -4.61717 0
M  V30 11866 H 1133.68 -0.212112 -2.98948 0
M  V30 11867 H 1131.24 -0.259269 -1.59811 0
M  V30 11868 H 1133.24 2.29567 -3.33288 0
M  V30 11869 H 1131.81 2.13575 -2.28264 0
M  V30 11870 H 1131.03 0.276367 -3.9323 0
M  V30 11871 H 1132.31 0.821488 -5.02124 0
M  V30 11872 H 1131.71 3.87324 -4.12306 0
M  V30 11873 H 1130.27 4.17486 -5.00548 0
M  V30 11874 N 1133.7 1.56767 -0.161869 0
M  V30 11875 C 1135.11 1.83265 0.356466 0
M  V30 11876 C 1135.46 1.08127 1.63716 0
M  V30 11877 O 1134.59 0.33127 2.13849 0
M  V30 11878 C 1135.18 3.32437 0.653521 0
M  V30 11879 C 1133.74 3.59465 1.11633 0
M  V30 11880 C 1132.89 2.76909 0.147204 0
M  V30 11881 H 1135.84 1.53926 -0.386308 0
M  V30 11882 H 1135.86 3.49401 1.50662 0
M  V30 11883 H 1135.37 3.87098 -0.278766 0
M  V30 11884 H 1133.48 3.10206 2.06404 0
M  V30 11885 H 1133.59 4.67853 1.03202 0
M  V30 11886 H 1131.95 2.46457 0.642739 0
M  V30 11887 H 1132.74 3.34346 -0.778938 0
M  V30 11888 N 1135.18 -0.111886 1.57202 0
M  V30 11889 C 1136.14 -1.12101 1.99915 0
M  V30 11890 C 1137.14 -1.33906 0.890272 0
M  V30 11891 O 1138.33 -1.30303 1.15615 0
M  V30 11892 C 1135.47 -2.47392 2.34543 0
M  V30 11893 H 1136.66 -0.753736 2.90274 0
M  V30 11894 H 1134.21 -0.35641 1.52182 0
M  V30 11895 H 1134.95 -2.89026 1.47086 0
M  V30 11896 H 1134.73 -2.32917 3.15423 0
M  V30 11897 H 1136.22 -3.20004 2.68304 0
M  V30 11898 N 1136.66 -1.52894 -0.382264 0
M  V30 11899 C 1137.59 -1.81122 -1.47367 0
M  V30 11900 C 1138.57 -0.663653 -1.56619 0
M  V30 11901 O 1139.75 -0.911898 -1.71459 0
M  V30 11902 C 1136.88 -1.98615 -2.84902 0
M  V30 11903 C 1135.84 -3.14328 -2.90485 0
M  V30 11904 C 1135.16 -3.17086 -4.30535 0
M  V30 11905 C 1136.46 -4.53263 -2.59519 0
M  V30 11906 H 1138.16 -2.72518 -1.23993 0
M  V30 11907 H 1135.7 -1.3113 -0.595049 0
M  V30 11908 H 1137.66 -2.16946 -3.61265 0
M  V30 11909 H 1136.38 -1.03915 -3.09628 0
M  V30 11910 H 1135.04 -2.95791 -2.16572 0
M  V30 11911 H 1134.69 -2.20055 -4.52311 0
M  V30 11912 H 1134.39 -3.94821 -4.3519 0
M  V30 11913 H 1135.91 -3.3758 -5.08795 0
M  V30 11914 H 1137.33 -4.71867 -3.25598 0
M  V30 11915 H 1135.72 -5.33115 -2.75514 0
M  V30 11916 H 1136.79 -4.59516 -1.54831 0
M  V30 11917 N 1138.14 0.641106 -1.43971 0
M  V30 11918 C 1139.07 1.76489 -1.52885 0
M  V30 11919 C 1140.05 1.65742 -0.38258 0
M  V30 11920 O 1141.23 1.84653 -0.601397 0
M  V30 11921 C 1138.36 3.14977 -1.4631 0
M  V30 11922 C 1137.32 3.40502 -2.59311 0
M  V30 11923 C 1136.64 4.78916 -2.37789 0
M  V30 11924 C 1137.94 3.34048 -4.01509 0
M  V30 11925 H 1139.64 1.69286 -2.46946 0
M  V30 11926 H 1137.18 0.813015 -1.18853 0
M  V30 11927 H 1139.14 3.9336 -1.51149 0
M  V30 11928 H 1137.86 3.2294 -0.487599 0
M  V30 11929 H 1136.52 2.64495 -2.53846 0
M  V30 11930 H 1136.17 4.8357 -1.38454 0
M  V30 11931 H 1135.87 4.96954 -3.13545 0
M  V30 11932 H 1137.39 5.59541 -2.4443 0
M  V30 11933 H 1138.81 4.0235 -4.08396 0
M  V30 11934 H 1137.2 3.63622 -4.77388 0
M  V30 11935 H 1138.27 2.32022 -4.25786 0
M  V30 11936 N 1139.62 1.30703 0.880598 0
M  V30 11937 C 1140.84 1.22714 1.6658 0
M  V30 11938 C 1141.26 -0.209303 1.87636 0
M  V30 11939 O 1140.62 -1.13771 1.42697 0
M  V30 11940 C 1140.67 1.95659 3.03974 0
M  V30 11941 O 1140.39 3.33695 2.83865 0
M  V30 11942 C 1141.89 1.9438 3.98411 0
M  V30 11943 H 1139.11 0.424478 0.519673 0
M  V30 11944 H 1141.65 1.72402 1.0999 0
M  V30 11945 H 1139.81 1.49758 3.57283 0
M  V30 11946 H 1140.22 3.70697 3.71058 0
M  V30 11947 H 1141.7 2.4995 4.92168 0
M  V30 11948 H 1142.17 0.923767 4.29375 0
M  V30 11949 H 1142.78 2.40112 3.51036 0
M  V30 11950 N 1141.09 -1.09351 1.1349 0
M  V30 11951 C 1142.34 -1.81185 0.89535 0
M  V30 11952 C 1142.66 -1.86173 -0.580048 0
M  V30 11953 O 1141.93 -1.34784 -1.42162 0
M  V30 11954 H 1140.51 -0.671011 0.328257 0
M  V30 11955 H 1143.17 -1.32255 1.43159 0
M  V30 11956 H 1142.27 -2.84339 1.28676 0
M  V30 11957 N 1142.57 -0.928524 -1.27343 0
M  V30 11958 C 1143.52 -0.399267 -2.24477 0
M  V30 11959 C 1144.51 0.496927 -1.53034 0
M  V30 11960 O 1145.7 0.334237 -1.73816 0
M  V30 11961 C 1142.83 0.346059 -3.41551 0
M  V30 11962 C 1141.91 -0.566699 -4.20297 0
M  V30 11963 N 1142.3 -1.6869 -4.76841 0
M  V30 11964 C 1140.6 -0.369865 -4.44464 0
M  V30 11965 C 1141.3 -2.25466 -5.36228 0
M  V30 11966 N 1140.28 -1.54414 -5.21207 0
M  V30 11967 H 1144.08 -1.25456 -2.65778 0
M  V30 11968 H 1141.59 -0.782894 -1.42283 0
M  V30 11969 H 1143.59 0.742171 -4.10241 0
M  V30 11970 H 1142.25 1.19827 -3.01781 0
M  V30 11971 H 1143.26 -2.06926 -4.74765 0
M  V30 11972 H 1139.94 0.441619 -4.15158 0
M  V30 11973 H 1141.33 -3.19779 -5.90924 0
M  V30 11974 N 1144.05 1.41491 -0.694123 0
M  V30 11975 C 1145.3 2.0155 -0.224809 0
M  V30 11976 C 1145.63 1.54844 1.17205 0
M  V30 11977 O 1144.9 0.75899 1.7908 0
M  V30 11978 C 1145.19 3.59003 -0.280884 0
M  V30 11979 C 1145.04 4.15839 -1.71458 0
M  V30 11980 C 1146.36 4.38624 0.360122 0
M  V30 11981 H 1143.48 0.732293 -0.0831632 0
M  V30 11982 H 1146.12 1.68258 -0.882569 0
M  V30 11983 H 1144.27 3.87496 0.279164 0
M  V30 11984 H 1145.94 3.98227 -2.32837 0
M  V30 11985 H 1144.18 3.70936 -2.2492 0
M  V30 11986 H 1144.86 5.24997 -1.70536 0
M  V30 11987 H 1147.33 4.15936 -0.11683 0
M  V30 11988 H 1146.21 5.48132 0.290337 0
M  V30 11989 H 1146.47 4.1797 1.44062 0
M  V30 11990 N 1145.53 0.438773 1.51369 0
M  V30 11991 C 1146.76 -0.125847 2.06517 0
M  V30 11992 C 1147.17 -1.36336 1.30606 0
M  V30 11993 O 1146.53 -1.78792 0.36603 0
M  V30 11994 C 1146.58 -0.446619 3.5873 0
M  V30 11995 O 1146.3 0.741781 4.31775 0
M  V30 11996 C 1147.8 -1.06175 4.30397 0
M  V30 11997 H 1145.02 -0.00728868 0.67096 0
M  V30 11998 H 1147.56 0.618267 1.9493 0
M  V30 11999 H 1145.72 -1.14064 3.70227 0
M  V30 12000 H 1146.13 0.466907 5.22418 0
M  V30 12001 H 1147.61 -1.23619 5.3798 0
M  V30 12002 H 1148.08 -2.04317 3.88782 0
M  V30 12003 H 1148.69 -0.40708 4.23347 0
M  V30 12004 N 1147.01 -1.56678 0.170181 0
M  V30 12005 C 1147.94 -2.20916 -0.756213 0
M  V30 12006 C 1148.92 -1.16442 -1.23997 0
M  V30 12007 O 1150.1 -1.44867 -1.29333 0
M  V30 12008 C 1147.23 -2.84901 -1.98617 0
M  V30 12009 C 1146.19 -3.95403 -1.63831 0
M  V30 12010 C 1145.51 -4.46432 -2.94282 0
M  V30 12011 C 1146.81 -5.15051 -0.867195 0
M  V30 12012 H 1148.51 -2.98585 -0.220776 0
M  V30 12013 H 1146.05 -1.43619 -0.104748 0
M  V30 12014 H 1148 -3.28514 -2.63926 0
M  V30 12015 H 1146.73 -2.04598 -2.54572 0
M  V30 12016 H 1145.39 -3.52444 -1.00891 0
M  V30 12017 H 1145.04 -3.62923 -3.48276 0
M  V30 12018 H 1144.74 -5.20979 -2.71762 0
M  V30 12019 H 1146.26 -4.92731 -3.60622 0
M  V30 12020 H 1147.67 -5.55363 -1.42285 0
M  V30 12021 H 1146.07 -5.95507 -0.741065 0
M  V30 12022 H 1147.14 -4.84707 0.136693 0
M  V30 12023 N 1148.48 0.103547 -1.57259 0
M  V30 12024 C 1149.89 0.659006 -1.74683 0
M  V30 12025 C 1150.25 1.79542 -0.791142 0
M  V30 12026 O 1149.37 2.16376 0.0323585 0
M  V30 12027 C 1149.97 1.20222 -3.16752 0
M  V30 12028 C 1148.52 1.70382 -3.35629 0
M  V30 12029 C 1147.67 0.609886 -2.7051 0
M  V30 12030 H 1150.62 -0.122474 -1.58227 0
M  V30 12031 H 1150.64 2.07169 -3.19157 0
M  V30 12032 H 1150.16 0.374901 -3.86285 0
M  V30 12033 H 1148.26 2.55542 -2.71162 0
M  V30 12034 H 1148.37 1.80263 -4.43894 0
M  V30 12035 H 1146.73 1.04728 -2.32173 0
M  V30 12036 H 1147.52 -0.206713 -3.42677 0
M  V30 12037 N 1149.96 1.53094 0.37415 0
M  V30 12038 C 1150.92 1.78264 1.44065 0
M  V30 12039 C 1151.92 0.652892 1.46949 0
M  V30 12040 O 1153.11 0.921046 1.47859 0
M  V30 12041 C 1150.25 1.89693 2.83248 0
M  V30 12042 H 1151.44 2.73505 1.23025 0
M  V30 12043 H 1148.99 1.44041 0.60678 0
M  V30 12044 H 1149.73 0.964884 3.09613 0
M  V30 12045 H 1149.51 2.71855 2.82554 0
M  V30 12046 H 1151 2.10787 3.60498 0
M  V30 12047 N 1151.44 -0.633461 1.44309 0
M  V30 12048 C 1152.4 -1.72743 1.50641 0
M  V30 12049 C 1153.4 -1.56031 0.388718 0
M  V30 12050 O 1154.59 -1.61568 0.651251 0
M  V30 12051 C 1151.72 -3.11804 1.37809 0
M  V30 12052 H 1152.92 -1.68503 2.48086 0
M  V30 12053 H 1150.47 -0.846912 1.31366 0
M  V30 12054 H 1151.21 -3.2164 0.414483 0
M  V30 12055 H 1150.99 -3.2534 2.18852 0
M  V30 12056 H 1152.48 -3.91538 1.45216 0
M  V30 12057 N 1152.92 -1.31168 -0.873655 0
M  V30 12058 C 1153.85 -1.14325 -1.98651 0
M  V30 12059 C 1154.86 -0.0833421 -1.62587 0
M  V30 12060 O 1156.05 -0.330477 -1.75414 0
M  V30 12061 C 1153.15 -0.723747 -3.31082 0
M  V30 12062 C 1152.33 -1.86787 -3.95512 0
M  V30 12063 C 1151.38 -1.43503 -5.06254 0
M  V30 12064 O 1150.41 -2.14409 -5.27273 0
M  V30 12065 N 1151.61 -0.320362 -5.79615 0
M  V30 12066 H 1154.38 -2.10179 -2.13647 0
M  V30 12067 H 1151.94 -1.23454 -1.04742 0
M  V30 12068 H 1153.93 -0.416971 -4.02546 0
M  V30 12069 H 1152.5 0.143073 -3.12272 0
M  V30 12070 H 1151.72 -2.34216 -3.17075 0
M  V30 12071 H 1153.01 -2.6343 -4.35296 0
M  V30 12072 H 1152.41 0.270215 -5.65054 0
M  V30 12073 H 1150.96 -0.0731 -6.51759 0
M  V30 12074 N 1154.4 1.08748 -1.14068 0
M  V30 12075 C 1155.81 1.62551 -0.918379 0
M  V30 12076 C 1156.16 1.8852 0.543583 0
M  V30 12077 O 1155.28 1.64007 1.41176 0
M  V30 12078 C 1155.88 2.95309 -1.66066 0
M  V30 12079 C 1154.44 3.4591 -1.48403 0
M  V30 12080 C 1153.58 2.20204 -1.6854 0
M  V30 12081 H 1156.54 0.920196 -1.29298 0
M  V30 12082 H 1156.56 3.63587 -1.12181 0
M  V30 12083 H 1156.07 2.76377 -2.72465 0
M  V30 12084 H 1154.17 3.69953 -0.443353 0
M  V30 12085 H 1154.28 4.2289 -2.25169 0
M  V30 12086 H 1152.65 2.29203 -1.11077 0
M  V30 12087 H 1153.43 2.03783 -2.76274 0
M  V30 12088 N 1155.87 0.935264 1.26849 0
M  V30 12089 C 1156.8 0.457776 2.28969 0
M  V30 12090 C 1157.79 -0.48587 1.63013 0
M  V30 12091 O 1158.97 -0.388998 1.90264 0
M  V30 12092 C 1156.1 -0.283332 3.46142 0
M  V30 12093 C 1155.05 0.573196 4.24144 0
M  V30 12094 C 1154.38 -0.297525 5.33872 0
M  V30 12095 C 1155.68 1.84153 4.88759 0
M  V30 12096 H 1157.37 1.31125 2.69159 0
M  V30 12097 H 1154.92 0.631956 1.29392 0
M  V30 12098 H 1156.87 -0.628366 4.16689 0
M  V30 12099 H 1155.6 -1.1709 3.04889 0
M  V30 12100 H 1154.26 0.901043 3.55354 0
M  V30 12101 H 1153.9 -1.18427 4.8886 0
M  V30 12102 H 1153.6 0.272126 5.8697 0
M  V30 12103 H 1155.13 -0.637961 6.07258 0
M  V30 12104 H 1156.54 1.5641 5.51551 0
M  V30 12105 H 1154.94 2.35528 5.51948 0
M  V30 12106 H 1156.01 2.5565 4.12033 0
M  V30 12107 N 1157.35 -1.41121 0.701616 0
M  V30 12108 C 1158.3 -2.32582 0.0288052 0
M  V30 12109 C 1159.29 -1.5129 -0.762074 0
M  V30 12110 O 1160.5 -1.67185 -0.667014 0
M  V30 12111 H 1156.88 -0.75194 -0.00948675 0
M  V30 12112 H 1158.85 -2.86994 0.817141 0
M  V30 12113 C 1157.6 -3.36137 -0.889217 0
M  V30 12114 H 1156.92 -3.98746 -0.290062 0
M  V30 12115 H 1158.36 -4.0266 -1.32819 0
M  V30 12116 C 1156.82 -2.70504 -2.00821 0
M  V30 12117 O 1157.35 -2.55753 -3.09763 0
M  V30 12118 N 1155.55 -2.29105 -1.78772 0
M  V30 12119 H 1155.1 -2.41303 -0.901708 0
M  V30 12120 H 1155.06 -1.85527 -2.53825 0
M  V30 12121 N 1158.83 -0.446794 -1.51134 0
M  V30 12122 C 1160.08 0.116666 -2.02464 0
M  V30 12123 C 1160.41 1.41532 -1.32975 0
M  V30 12124 O 1159.68 1.89278 -0.447651 0
M  V30 12125 C 1159.97 0.325659 -3.58624 0
M  V30 12126 C 1159.82 -0.992307 -4.38718 0
M  V30 12127 C 1161.14 1.09121 -4.26357 0
M  V30 12128 H 1158.26 0.0409262 -0.735863 0
M  V30 12129 H 1160.9 -0.587641 -1.80684 0
M  V30 12130 H 1159.05 0.925585 -3.77313 0
M  V30 12131 H 1160.72 -1.62694 -4.31658 0
M  V30 12132 H 1158.97 -1.5947 -4.03425 0
M  V30 12133 H 1159.64 -0.800005 -5.46172 0
M  V30 12134 H 1162.11 0.582944 -4.11996 0
M  V30 12135 H 1160.99 1.20621 -5.35483 0
M  V30 12136 H 1161.25 2.12171 -3.87861 0
M  V30 12137 N 1160.31 1.56586 -0.178487 0
M  V30 12138 C 1161.56 1.96709 0.4637 0
M  V30 12139 C 1161.88 1.06586 1.63292 0
M  V30 12140 O 1161.15 0.133683 1.95443 0
M  V30 12141 H 1159.73 0.726381 0.174299 0
M  V30 12142 H 1162.39 1.9314 -0.261345 0
M  V30 12143 H 1161.49 3.01164 0.818934 0
M  V30 12144 N 1161.79 -0.095206 1.57312 0
M  V30 12145 C 1163.03 -0.799903 1.86358 0
M  V30 12146 C 1163.37 -1.78386 0.767593 0
M  V30 12147 O 1162.64 -1.93201 -0.224439 0
M  V30 12148 C 1162.92 -1.52875 3.26039 0
M  V30 12149 C 1162.78 -0.562781 4.46265 0
M  V30 12150 C 1164.1 -2.47935 3.63616 0
M  V30 12151 H 1161.21 -0.289339 0.677829 0
M  V30 12152 H 1163.86 -0.0635369 1.89894 0
M  V30 12153 H 1162.01 -2.15645 3.23156 0
M  V30 12154 H 1163.68 0.0579068 4.61264 0
M  V30 12155 H 1161.92 0.123847 4.33623 0
M  V30 12156 H 1162.59 -1.10989 5.40727 0
M  V30 12157 H 1165.07 -1.95257 3.67442 0
M  V30 12158 H 1163.94 -2.95948 4.62283 0
M  V30 12159 H 1164.21 -3.31687 2.92294 0
M  V30 12160 N 1163.26 -1.53291 -0.366026 0
M  V30 12161 C 1164.23 -1.79025 -1.43117 0
M  V30 12162 C 1165.23 -0.660676 -1.46601 0
M  V30 12163 O 1166.42 -0.928875 -1.47369 0
M  V30 12164 C 1163.55 -1.91192 -2.82238 0
M  V30 12165 H 1164.74 -2.74154 -1.21572 0
M  V30 12166 H 1162.3 -1.44361 -0.599132 0
M  V30 12167 H 1163.03 -0.98129 -3.09097 0
M  V30 12168 H 1162.82 -2.7335 -2.81109 0
M  V30 12169 H 1164.31 -2.12696 -3.59375 0
M  V30 12170 N 1164.74 0.6258 -1.44643 0
M  V30 12171 C 1165.69 1.73135 -1.48352 0
M  V30 12172 C 1166.68 1.57076 -0.348716 0
M  V30 12173 O 1167.87 1.66722 -0.594379 0
M  V30 12174 C 1165 3.11838 -1.43568 0
M  V30 12175 C 1164.08 3.33348 -2.62183 0
M  V30 12176 N 1164.47 3.252 -3.87399 0
M  V30 12177 C 1162.77 3.64162 -2.57492 0
M  V30 12178 C 1163.47 3.47544 -4.66463 0
M  V30 12179 N 1162.45 3.70672 -3.97622 0
M  V30 12180 H 1166.25 1.65301 -2.43008 0
M  V30 12181 H 1163.77 0.828449 -1.3968 0
M  V30 12182 H 1165.76 3.91127 -1.44309 0
M  V30 12183 H 1164.42 3.20834 -0.499547 0
M  V30 12184 H 1165.43 3.04001 -4.19289 0
M  V30 12185 H 1162.11 3.80107 -1.727 0
M  V30 12186 H 1163.5 3.46792 -5.75487 0
M  V30 12187 N 1166.22 1.31629 0.866686 0
M  V30 12188 C 1167.47 1.21683 1.62238 0
M  V30 12189 C 1167.8 -0.223767 1.92907 0
M  V30 12190 O 1167.07 -1.15761 1.563 0
M  V30 12191 C 1167.36 2.06443 2.95048 0
M  V30 12192 C 1167.21 3.58818 2.71237 0
M  V30 12193 C 1168.53 1.91634 3.96187 0
M  V30 12194 H 1165.65 0.443389 0.588707 0
M  V30 12195 H 1168.29 1.61453 1.00164 0
M  V30 12196 H 1166.44 1.72654 3.48027 0
M  V30 12197 H 1168.11 4.0276 2.24905 0
M  V30 12198 H 1166.36 3.82085 2.05411 0
M  V30 12199 H 1167.03 4.13436 3.65752 0
M  V30 12200 H 1169.5 2.21209 3.52428 0
M  V30 12201 H 1168.38 2.53236 4.86993 0
M  V30 12202 H 1168.64 0.880564 4.33242 0
M  V30 12203 N 1167.7 -1.08142 1.14644 0
M  V30 12204 C 1168.63 -2.14476 0.779437 0
M  V30 12205 C 1169.61 -1.60812 -0.240454 0
M  V30 12206 O 1170.79 -1.88059 -0.128881 0
M  V30 12207 C 1167.92 -3.38333 0.157692 0
M  V30 12208 C 1166.97 -4.10754 1.14819 0
M  V30 12209 S 1167.8 -4.63227 2.68666 0
M  V30 12210 C 1168.96 -5.90367 2.07888 0
M  V30 12211 H 1169.19 -2.45276 1.68009 0
M  V30 12212 H 1166.72 -1.20292 0.967942 0
M  V30 12213 H 1168.68 -4.10038 -0.194607 0
M  V30 12214 H 1167.34 -3.05726 -0.720435 0
M  V30 12215 H 1166.53 -4.99644 0.661226 0
M  V30 12216 H 1166.14 -3.44974 1.44462 0
M  V30 12217 H 1168.43 -6.62107 1.43599 0
M  V30 12218 H 1169.37 -6.43764 2.94913 0
M  V30 12219 H 1169.78 -5.43507 1.52514 0
M  V30 12220 N 1169.18 -0.941978 -1.26351 0
M  V30 12221 C 1170.59 -0.644413 -1.46012 0
M  V30 12222 C 1170.79 0.802031 -1.84851 0
M  V30 12223 O 1169.85 1.57859 -1.9707 0
M  V30 12224 C 1171.16 -1.60652 -2.54188 0
M  V30 12225 C 1172.71 -1.6163 -2.68038 0
M  V30 12226 C 1173.19 -2.56573 -3.79387 0
M  V30 12227 N 1174.68 -2.54863 -3.8678 0
M  V30 12228 C 1175.41 -3.2501 -4.72394 0
M  V30 12229 N 1174.91 -4.04586 -5.6239 0
M  V30 12230 N 1176.7 -3.13958 -4.66247 0
M  V30 12231 H 1168.85 -1.8769 -0.994293 0
M  V30 12232 H 1171.11 -0.806621 -0.498063 0
M  V30 12233 H 1170.82 -2.63907 -2.32478 0
M  V30 12234 H 1170.69 -1.3592 -3.5186 0
M  V30 12235 H 1173.08 -0.59099 -2.89122 0
M  V30 12236 H 1173.16 -1.90417 -1.70807 0
M  V30 12237 H 1172.81 -3.59223 -3.59056 0
M  V30 12238 H 1172.74 -2.25077 -4.76076 0
M  V30 12239 H 1175.23 -1.97082 -3.22439 0
M  V30 12240 H 1175.54 -4.55061 -6.24612 0
M  V30 12241 H 1173.89 -4.08687 -5.62139 0
M  V30 12242 H 1177.08 -2.51273 -3.94943 0
M  V30 12243 H 1177.25 -3.68894 -5.32749 0
M  V30 12244 N 1170.66 1.40747 -0.709091 0
M  V30 12245 C 1171.59 2.29196 -0.0130359 0
M  V30 12246 C 1172.6 1.45491 0.730487 0
M  V30 12247 O 1173.79 1.6885 0.578944 0
M  V30 12248 C 1170.89 3.23632 1.00577 0
M  V30 12249 C 1170.06 4.3616 0.329105 0
M  V30 12250 C 1169.12 5.11079 1.25239 0
M  V30 12251 O 1168.15 5.64374 0.739641 0
M  V30 12252 N 1169.35 5.1982 2.58394 0
M  V30 12253 H 1172.11 2.89574 -0.772462 0
M  V30 12254 H 1169.68 1.52046 -0.556197 0
M  V30 12255 H 1171.67 3.70622 1.62546 0
M  V30 12256 H 1170.24 2.64467 1.66661 0
M  V30 12257 H 1169.46 3.9138 -0.470683 0
M  V30 12258 H 1170.75 5.08605 -0.140856 0
M  V30 12259 H 1170.14 4.77992 3.02556 0
M  V30 12260 H 1168.7 5.7034 3.15524 0
M  V30 12261 N 1172.13 0.454803 1.50895 0
M  V30 12262 C 1173.07 -0.383826 2.25963 0
M  V30 12263 C 1174.08 -0.971263 1.30653 0
M  V30 12264 O 1175.27 -0.862434 1.56283 0
M  V30 12265 C 1172.37 -1.55069 3.01342 0
M  V30 12266 C 1171.54 -1.07899 4.23883 0
M  V30 12267 C 1170.6 -2.118 4.81692 0
M  V30 12268 O 1169.63 -1.70523 5.43057 0
M  V30 12269 N 1170.83 -3.44459 4.67256 0
M  V30 12270 H 1173.59 0.259646 2.98573 0
M  V30 12271 H 1171.15 0.284661 1.59378 0
M  V30 12272 H 1173.15 -2.24236 3.36898 0
M  V30 12273 H 1171.72 -2.09917 2.31633 0
M  V30 12274 H 1170.94 -0.213773 3.9362 0
M  V30 12275 H 1172.22 -0.741501 5.03368 0
M  V30 12276 H 1171.62 -3.80716 4.18416 0
M  V30 12277 H 1170.18 -4.0947 5.07127 0
M  V30 12278 N 1173.61 -1.56489 0.186789 0
M  V30 12279 C 1175.02 -1.83809 -0.327265 0
M  V30 12280 C 1175.37 -1.10718 -1.61976 0
M  V30 12281 O 1174.5 -0.36525 -2.13295 0
M  V30 12282 C 1175.09 -3.33435 -0.600551 0
M  V30 12283 C 1173.65 -3.61195 -1.059 0
M  V30 12284 C 1172.8 -2.77108 -0.103131 0
M  V30 12285 H 1175.75 -1.53292 0.410747 0
M  V30 12286 H 1175.77 -3.51754 -1.45084 0
M  V30 12287 H 1175.28 -3.86605 0.340315 0
M  V30 12288 H 1173.38 -3.13451 -2.01443 0
M  V30 12289 H 1173.5 -4.69435 -0.957458 0
M  V30 12290 H 1171.86 -2.47448 -0.603449 0
M  V30 12291 H 1172.64 -3.33065 0.832031 0
M  V30 12292 N 1175.09 0.086862 -1.5736 0
M  V30 12293 C 1176.32 0.802167 -1.90717 0
M  V30 12294 C 1176.73 1.71875 -0.781304 0
M  V30 12295 O 1176.09 1.80831 0.246255 0
M  V30 12296 C 1176.14 1.60858 -3.23739 0
M  V30 12297 O 1175.86 0.728851 -4.31995 0
M  V30 12298 C 1177.36 2.42621 -3.71012 0
M  V30 12299 H 1174.58 0.228914 -0.630745 0
M  V30 12300 H 1177.13 0.061634 -2.04407 0
M  V30 12301 H 1175.28 2.30153 -3.11622 0
M  V30 12302 H 1175.7 1.2882 -5.08435 0
M  V30 12303 H 1177.17 2.94683 -4.66761 0
M  V30 12304 H 1177.65 3.21462 -2.99264 0
M  V30 12305 H 1178.25 1.78509 -3.86024 0
M  V30 12306 N 1176.57 1.53483 0.357892 0
M  V30 12307 C 1177.79 1.74264 1.12458 0
M  V30 12308 C 1178.22 0.473944 1.82031 0
M  V30 12309 O 1177.58 -0.57253 1.72023 0
M  V30 12310 C 1177.62 2.91356 2.12471 0
M  V30 12311 O 1176.73 2.60502 3.19707 0
M  V30 12312 H 1176.07 0.578499 0.325937 0
M  V30 12313 H 1178.6 2.00395 0.412666 0
M  V30 12314 H 1178.61 3.1774 2.5594 0
M  V30 12315 H 1177.28 3.83378 1.61226 0
M  V30 12316 H 1175.86 2.44961 2.81156 0
M  V30 12317 N 1178.05 -0.61812 1.44973 0
M  V30 12318 C 1179.27 -1.40429 1.51945 0
M  V30 12319 C 1179.69 -1.88215 0.148556 0
M  V30 12320 O 1179.05 -1.61603 -0.847978 0
M  V30 12321 C 1179.1 -2.61588 2.49507 0
M  V30 12322 O 1178.82 -2.15791 3.81269 0
M  V30 12323 C 1180.32 -3.5457 2.66074 0
M  V30 12324 H 1177.54 -0.43023 0.514921 0
M  V30 12325 H 1180.08 -0.754791 1.90061 0
M  V30 12326 H 1178.24 -3.22602 2.14492 0
M  V30 12327 H 1178.65 -2.94434 4.34061 0
M  V30 12328 H 1180.13 -4.36155 3.38338 0
M  V30 12329 H 1180.6 -4.04227 1.71746 0
M  V30 12330 H 1181.21 -2.99416 3.02043 0
M  V30 12331 N 1179.52 -1.32087 -0.859693 0
M  V30 12332 C 1180.75 -1.25348 -1.64607 0
M  V30 12333 C 1181.17 0.179425 -1.87945 0
M  V30 12334 O 1180.52 1.11487 -1.44489 0
M  V30 12335 C 1180.57 -2.0047 -3.00822 0
M  V30 12336 O 1180.3 -3.38169 -2.7852 0
M  V30 12337 C 1181.8 -2.00694 -3.95268 0
M  V30 12338 H 1179.02 -0.432692 -0.512854 0
M  V30 12339 H 1181.56 -1.7413 -1.07234 0
M  V30 12340 H 1179.72 -1.55423 -3.54855 0
M  V30 12341 H 1180.13 -3.76553 -3.65113 0
M  V30 12342 H 1181.6 -2.57748 -4.88129 0
M  V30 12343 H 1182.08 -0.99196 -4.27851 0
M  V30 12344 H 1182.69 -2.45666 -3.47172 0
M  V30 12345 N 1181 1.07532 -1.15215 0
M  V30 12346 C 1182.23 1.84356 -0.950139 0
M  V30 12347 C 1182.65 1.81429 0.496502 0
M  V30 12348 O 1182.01 1.20589 1.35381 0
M  V30 12349 C 1182.06 3.29425 -1.46669 0
M  V30 12350 O 1181.16 4.07008 -0.664674 0
M  V30 12351 H 1180.5 0.570921 -0.339036 0
M  V30 12352 H 1183.03 1.35665 -1.53154 0
M  V30 12353 H 1183.04 3.8026 -1.47873 0
M  V30 12354 H 1181.72 3.3087 -2.51988 0
M  V30 12355 H 1180.29 3.65841 -0.72211 0
M  V30 12356 N 1182.48 0.948665 1.2585 0
M  V30 12357 C 1183.71 0.616741 1.98018 0
M  V30 12358 C 1184.13 -0.803005 1.70098 0
M  V30 12359 O 1183.49 -1.54208 0.953392 0
M  V30 12360 C 1183.54 0.874429 3.49837 0
M  V30 12361 O 1182.64 -0.0497568 4.1237 0
M  V30 12362 H 1181.98 0.235112 0.620982 0
M  V30 12363 H 1184.51 1.27364 1.60124 0
M  V30 12364 H 1184.52 0.798309 4.00114 0
M  V30 12365 H 1183.2 1.90922 3.69488 0
M  V30 12366 H 1181.77 0.0780591 3.72818 0
M  V30 12367 N 1183.96 -1.40369 0.716545 0
M  V30 12368 C 1185.37 -1.54757 0.390202 0
M  V30 12369 C 1185.57 -1.68767 -1.10091 0
M  V30 12370 O 1184.63 -1.67779 -1.88697 0
M  V30 12371 C 1185.94 -2.77546 1.15709 0
M  V30 12372 C 1187.49 -2.91364 1.14349 0
M  V30 12373 C 1187.97 -4.17068 1.89256 0
M  V30 12374 N 1189.46 -4.2407 1.8633 0
M  V30 12375 C 1190.19 -5.20243 2.41112 0
M  V30 12376 N 1189.69 -6.22318 3.04454 0
M  V30 12377 N 1191.48 -5.12328 2.31249 0
M  V30 12378 H 1183.63 -1.29521 1.68339 0
M  V30 12379 H 1185.9 -0.626382 0.711582 0
M  V30 12380 H 1185.6 -2.73474 2.21144 0
M  V30 12381 H 1185.48 -3.69682 0.749347 0
M  V30 12382 H 1187.86 -2.94939 0.0973383 0
M  V30 12383 H 1187.94 -2.00344 1.59047 0
M  V30 12384 H 1187.59 -4.14255 2.93863 0
M  V30 12385 H 1187.52 -5.07099 1.41978 0
M  V30 12386 H 1190.01 -3.50944 1.40168 0
M  V30 12387 H 1190.32 -6.92129 3.43769 0
M  V30 12388 H 1188.67 -6.22759 3.08538 0
M  V30 12389 H 1191.86 -4.31514 1.8142 0
M  V30 12390 H 1192.03 -5.87107 2.74243 0
M  V30 12391 N 1185.44 -0.462799 -1.50652 0
M  V30 12392 C 1186.38 0.335664 -2.28346 0
M  V30 12393 C 1187.35 0.994541 -1.33034 0
M  V30 12394 O 1188.54 1.00857 -1.61964 0
M  V30 12395 C 1185.68 1.41648 -3.1469 0
M  V30 12396 C 1184.79 0.773207 -4.25024 0
M  V30 12397 C 1183.93 1.83121 -4.98638 0
M  V30 12398 C 1182.97 1.16774 -6.00858 0
M  V30 12399 N 1182.1 2.16823 -6.67782 0
M  V30 12400 H 1186.94 -0.333202 -2.96131 0
M  V30 12401 H 1184.48 -0.176166 -1.46041 0
M  V30 12402 H 1186.44 2.05468 -3.63096 0
M  V30 12403 H 1185.07 2.05462 -2.48968 0
M  V30 12404 H 1184.12 0.0226444 -3.80393 0
M  V30 12405 H 1185.43 0.249061 -4.98178 0
M  V30 12406 H 1184.59 2.54543 -5.5072 0
M  V30 12407 H 1183.32 2.38915 -4.25172 0
M  V30 12408 H 1182.33 0.439112 -5.48044 0
M  V30 12409 H 1183.55 0.616809 -6.76293 0
M  V30 12410 H 1181.5 2.71649 -5.97112 0
M  V30 12411 H 1181.42 1.69371 -7.36783 0
M  V30 12412 H 1182.69 2.8765 -7.24484 0
M  V30 12413 N 1186.91 1.56388 -0.195085 0
M  V30 12414 C 1188.14 2.02406 0.452399 0
M  V30 12415 C 1188.56 1.07432 1.54402 0
M  V30 12416 O 1187.92 0.0578246 1.81208 0
M  V30 12417 C 1187.97 3.46864 0.985778 0
M  V30 12418 O 1187.07 3.55007 2.09867 0
M  V30 12419 H 1186.42 0.65553 0.105719 0
M  V30 12420 H 1188.95 2.02299 -0.30596 0
M  V30 12421 H 1188.96 3.86655 1.30238 0
M  V30 12422 H 1187.63 4.15481 0.186662 0
M  V30 12423 H 1186.21 3.2709 1.79071 0
M  V30 12424 N 1188.39 -0.0785156 1.57404 0
M  V30 12425 C 1189.34 -1.09402 2.03224 0
M  V30 12426 C 1190.31 -1.38849 0.911596 0
M  V30 12427 O 1191.49 -1.50031 1.17878 0
M  V30 12428 C 1188.63 -2.40444 2.47549 0
M  V30 12429 C 1187.75 -2.17585 3.73203 0
M  V30 12430 C 1186.88 -3.42143 4.06339 0
M  V30 12431 C 1185.92 -3.14619 5.25054 0
M  V30 12432 N 1185.06 -4.31489 5.5386 0
M  V30 12433 H 1189.9 -0.696307 2.89751 0
M  V30 12434 H 1187.44 -0.332261 1.43298 0
M  V30 12435 H 1189.39 -3.16944 2.71298 0
M  V30 12436 H 1188.02 -2.78031 1.64009 0
M  V30 12437 H 1187.08 -1.3181 3.56834 0
M  V30 12438 H 1188.39 -1.93249 4.59844 0
M  V30 12439 H 1187.54 -4.27042 4.30953 0
M  V30 12440 H 1186.28 -3.69549 3.18253 0
M  V30 12441 H 1185.29 -2.28116 5.00243 0
M  V30 12442 H 1186.51 -2.88543 6.14752 0
M  V30 12443 H 1184.46 -4.58939 4.68734 0
M  V30 12444 H 1184.37 -4.10403 6.34906 0
M  V30 12445 H 1185.64 -5.17404 5.83021 0
M  V30 12446 N 1189.87 -1.5367 -0.349747 0
M  V30 12447 C 1190.8 -1.77528 -1.4497 0
M  V30 12448 C 1191.82 -0.656412 -1.4898 0
M  V30 12449 O 1193 -0.933016 -1.52174 0
M  V30 12450 C 1190.1 -1.85445 -2.8366 0
M  V30 12451 C 1189.28 -3.15295 -3.03163 0
M  V30 12452 C 1188.34 -3.1425 -4.22059 0
M  V30 12453 O 1187.36 -3.87994 -4.16472 0
M  V30 12454 N 1188.56 -2.36181 -5.30282 0
M  V30 12455 H 1191.33 -2.72444 -1.24877 0
M  V30 12456 H 1188.89 -1.52644 -0.539586 0
M  V30 12457 H 1190.88 -1.82204 -3.61364 0
M  V30 12458 H 1189.45 -0.977436 -2.96926 0
M  V30 12459 H 1188.67 -3.31711 -2.12983 0
M  V30 12460 H 1189.96 -4.01078 -3.13072 0
M  V30 12461 H 1189.36 -1.75808 -5.37688 0
M  V30 12462 H 1187.92 -2.38744 -6.06502 0
M  V30 12463 N 1191.35 0.610423 -1.45298 0
M  V30 12464 C 1192.3 1.71552 -1.5018 0
M  V30 12465 C 1193.28 1.56697 -0.365357 0
M  V30 12466 O 1194.47 1.66082 -0.612029 0
M  V30 12467 C 1191.6 3.10298 -1.46867 0
M  V30 12468 C 1190.69 3.30549 -2.65703 0
M  V30 12469 N 1191.08 3.21073 -3.90827 0
M  V30 12470 C 1189.38 3.6141 -2.6134 0
M  V30 12471 C 1190.08 3.42577 -4.70123 0
M  V30 12472 N 1189.06 3.66434 -4.01531 0
M  V30 12473 H 1192.86 1.62714 -2.44747 0
M  V30 12474 H 1190.37 0.813587 -1.40551 0
M  V30 12475 H 1192.37 3.89575 -1.48449 0
M  V30 12476 H 1191.03 3.20286 -0.533548 0
M  V30 12477 H 1192.04 2.99537 -4.2249 0
M  V30 12478 H 1188.72 3.78253 -1.76722 0
M  V30 12479 H 1190.11 3.40669 -5.79132 0
M  V30 12480 N 1192.83 1.32541 0.852676 0
M  V30 12481 C 1193.76 1.17471 1.96807 0
M  V30 12482 C 1194.77 0.109198 1.62433 0
M  V30 12483 O 1195.96 0.358342 1.74866 0
M  V30 12484 C 1193.06 0.776328 3.29888 0
M  V30 12485 C 1192.23 1.93055 3.9249 0
M  V30 12486 C 1191.29 1.51539 5.03907 0
M  V30 12487 O 1190.32 2.22771 5.23796 0
M  V30 12488 N 1191.52 0.412533 5.79032 0
M  V30 12489 H 1194.29 2.13551 2.10276 0
M  V30 12490 H 1191.85 1.25104 1.02764 0
M  V30 12491 H 1193.84 0.48096 4.01832 0
M  V30 12492 H 1192.41 -0.0933749 3.12461 0
M  V30 12493 H 1191.63 2.39231 3.13309 0
M  V30 12494 H 1192.92 2.70321 4.3105 0
M  V30 12495 H 1192.31 -0.180286 5.65413 0
M  V30 12496 H 1190.87 0.17678 6.5156 0
M  V30 12497 N 1194.3 -1.0692 1.15784 0
M  V30 12498 C 1195.53 -1.83849 0.959903 0
M  V30 12499 C 1195.95 -1.8169 -0.486873 0
M  V30 12500 O 1195.31 -1.21305 -1.34739 0
M  V30 12501 C 1195.36 -3.28642 1.48414 0
M  V30 12502 O 1194.46 -4.0665 0.686249 0
M  V30 12503 H 1193.81 -0.569115 0.342059 0
M  V30 12504 H 1196.34 -1.34851 1.53871 0
M  V30 12505 H 1196.35 -3.7947 1.49888 0
M  V30 12506 H 1195.02 -3.29529 2.53739 0
M  V30 12507 H 1193.6 -3.65453 0.741501 0
M  V30 12508 N 1195.78 -0.955326 -1.25345 0
M  V30 12509 C 1197.01 -0.627233 -1.97688 0
M  V30 12510 C 1197.43 0.793973 -1.70522 0
M  V30 12511 O 1196.79 1.537 -0.961556 0
M  V30 12512 C 1196.84 -0.892969 -3.49369 0
M  V30 12513 O 1195.94 0.0278871 -4.12391 0
M  V30 12514 H 1195.28 -0.238402 -0.619726 0
M  V30 12515 H 1197.81 -1.28211 -1.59446 0
M  V30 12516 H 1197.82 -0.819517 -3.99685 0
M  V30 12517 H 1196.5 -1.92879 -3.6847 0
M  V30 12518 H 1195.08 -0.0978295 -3.72772 0
M  V30 12519 N 1197.26 1.39987 -0.723979 0
M  V30 12520 C 1198.51 2.01028 -0.267511 0
M  V30 12521 C 1198.84 1.57295 1.13894 0
M  V30 12522 O 1198.12 0.796805 1.7743 0
M  V30 12523 C 1198.4 3.58326 -0.356971 0
M  V30 12524 C 1198.25 4.12109 -1.8024 0
M  V30 12525 C 1199.57 4.39289 0.267003 0
M  V30 12526 H 1196.69 0.730364 -0.0986775 0
M  V30 12527 H 1199.33 1.66348 -0.91806 0
M  V30 12528 H 1197.48 3.88001 0.196908 0
M  V30 12529 H 1199.15 3.93199 -2.41231 0
M  V30 12530 H 1197.4 3.66082 -2.32737 0
M  V30 12531 H 1198.07 5.21261 -1.81634 0
M  V30 12532 H 1200.54 4.15595 -0.20503 0
M  V30 12533 H 1199.42 5.48624 0.174004 0
M  V30 12534 H 1199.68 4.20931 1.35164 0
M  V30 12535 N 1198.74 0.470782 1.50404 0
M  V30 12536 C 1200.16 0.124919 1.5911 0
M  V30 12537 C 1200.36 -1.36855 1.47895 0
M  V30 12538 O 1199.41 -2.1418 1.33728 0
M  V30 12539 C 1200.72 0.674839 2.9303 0
M  V30 12540 C 1202.27 0.638239 3.06424 0
M  V30 12541 C 1202.75 1.1657 4.42917 0
M  V30 12542 N 1204.24 1.1251 4.49328 0
M  V30 12543 C 1204.97 1.50373 5.53331 0
M  V30 12544 N 1204.47 1.95684 6.6459 0
M  V30 12545 N 1206.26 1.41978 5.43874 0
M  V30 12546 H 1198.41 1.44212 1.55938 0
M  V30 12547 H 1200.68 0.596354 0.73693 0
M  V30 12548 H 1200.38 1.72106 3.06712 0
M  V30 12549 H 1200.26 0.118234 3.77015 0
M  V30 12550 H 1202.64 -0.399075 2.92389 0
M  V30 12551 H 1202.72 1.23164 2.24197 0
M  V30 12552 H 1202.37 2.20164 4.57701 0
M  V30 12553 H 1202.3 0.548513 5.23736 0
M  V30 12554 H 1204.79 0.79276 3.69491 0
M  V30 12555 H 1205.1 2.22724 7.40009 0
M  V30 12556 H 1203.45 1.99636 6.65711 0
M  V30 12557 H 1206.64 1.0642 4.55842 0
M  V30 12558 H 1206.81 1.71812 6.24808 0
M  V30 12559 N 1200.22 -1.56282 0.203376 0
M  V30 12560 C 1201.17 -2.20822 -0.730784 0
M  V30 12561 C 1202.16 -1.18193 -1.21354 0
M  V30 12562 O 1203.37 -1.36318 -1.17547 0
M  V30 12563 H 1199.74 -0.707792 -0.254036 0
M  V30 12564 H 1201.71 -2.97955 -0.162825 0
M  V30 12565 C 1200.46 -2.88803 -1.93618 0
M  V30 12566 H 1199.78 -3.67521 -1.57379 0
M  V30 12567 H 1201.22 -3.37387 -2.56799 0
M  V30 12568 C 1199.68 -1.90285 -2.78017 0
M  V30 12569 O 1200.21 -1.40833 -3.76203 0
M  V30 12570 N 1198.42 -1.58332 -2.43679 0
M  V30 12571 H 1197.97 -1.9874 -1.63891 0
M  V30 12572 H 1197.92 -0.926722 -3.00432 0
M  V30 12573 N 1201.7 0.070167 -1.57444 0
M  V30 12574 C 1202.94 0.770153 -1.87607 0
M  V30 12575 C 1203.27 1.77143 -0.795875 0
M  V30 12576 O 1202.55 1.93533 0.193674 0
M  V30 12577 C 1202.83 1.47668 -3.2843 0
M  V30 12578 C 1202.69 0.491712 -4.47104 0
M  V30 12579 C 1204 2.42118 -3.67514 0
M  V30 12580 H 1201.12 0.278519 -0.682346 0
M  V30 12581 H 1203.77 0.0333184 -1.89971 0
M  V30 12582 H 1201.92 2.10476 -3.26546 0
M  V30 12583 H 1203.59 -0.131283 -4.61113 0
M  V30 12584 H 1201.83 -0.192817 -4.33371 0
M  V30 12585 H 1202.5 1.02372 -5.42424 0
M  V30 12586 H 1204.98 1.89387 -3.70502 0
M  V30 12587 H 1203.85 2.88556 -4.66933 0
M  V30 12588 H 1204.11 3.26995 -2.97534 0
M  V30 12589 N 1203.17 1.53854 0.341593 0
M  V30 12590 C 1204.4 1.75447 1.10604 0
M  V30 12591 C 1204.82 0.493225 1.81518 0
M  V30 12592 O 1204.18 -0.554253 1.7262 0
M  V30 12593 C 1204.23 2.93593 2.09369 0
M  V30 12594 O 1203.33 2.63878 3.16926 0
M  V30 12595 H 1202.67 0.581923 0.319783 0
M  V30 12596 H 1205.2 2.00822 0.391388 0
M  V30 12597 H 1205.21 3.20437 2.52556 0
M  V30 12598 H 1203.89 3.85067 1.57151 0
M  V30 12599 H 1202.47 2.47929 2.78542 0
M  V30 12600 N 1204.65 -0.602709 1.4562 0
M  V30 12601 C 1205.88 -1.3881 1.53426 0
M  V30 12602 C 1206.29 -1.88046 0.16851 0
M  V30 12603 O 1205.65 -1.62493 -0.830791 0
M  V30 12604 C 1205.7 -2.58927 2.52268 0
M  V30 12605 O 1205.42 -2.11735 3.83536 0
M  V30 12606 C 1206.92 -3.51728 2.69819 0
M  V30 12607 H 1204.14 -0.424744 0.519455 0
M  V30 12608 H 1206.69 -0.73459 1.90851 0
M  V30 12609 H 1204.84 -3.20309 2.17902 0
M  V30 12610 H 1205.26 -2.89814 4.37159 0
M  V30 12611 H 1206.73 -4.32542 3.42945 0
M  V30 12612 H 1207.21 -4.02383 1.76024 0
M  V30 12613 H 1207.81 -2.96196 3.05202 0
M  V30 12614 N 1206.13 -1.32992 -0.845635 0
M  V30 12615 C 1207.37 -1.2539 -1.61421 0
M  V30 12616 C 1207.73 0.179395 -1.9116 0
M  V30 12617 O 1208.93 0.379275 -2.66111 0
M  V30 12618 C 1207.21 -2.09817 -2.8933 0
M  V30 12619 S 1208.76 -2.19335 -3.80049 0
M  V30 12620 H 1205.58 -0.446202 -0.553556 0
M  V30 12621 H 1208.18 -1.67946 -1.00072 0
M  V30 12622 H 1206.89 -3.12999 -2.65443 0
M  V30 12623 H 1206.42 -1.68073 -3.5569 0
M  V30 12624 H 1208.43 -1.34946 -4.77498 0
M  V30 12625 N 1207.61 1.06304 -1.1635 0
M  V30 12626 C 1208.52 2.17296 -0.884289 0
M  V30 12627 C 1209.53 1.73408 0.143414 0
M  V30 12628 O 1210.71 2.01373 -0.0331987 0
M  V30 12629 C 1207.77 3.44509 -0.389163 0
M  V30 12630 C 1206.84 4.02906 -1.48208 0
M  V30 12631 C 1206.07 5.24047 -1.01048 0
M  V30 12632 O 1206.29 5.70229 0.139821 0
M  V30 12633 O 1205.23 5.74394 -1.79876 0
M  V30 12634 H 1209.05 2.4369 -1.81243 0
M  V30 12635 H 1206.64 1.15841 -0.943459 0
M  V30 12636 H 1208.52 4.21229 -0.120018 0
M  V30 12637 H 1207.19 3.19642 0.510968 0
M  V30 12638 H 1206.1 3.27677 -1.80496 0
M  V30 12639 H 1207.43 4.32068 -2.35751 0
M  V30 12640 N 1209.09 0.96196 1.24836 0
M  V30 12641 C 1210.33 0.621634 1.93038 0
M  V30 12642 C 1210.66 -0.840257 1.75081 0
M  V30 12643 O 1209.94 -1.60381 1.10038 0
M  V30 12644 C 1210.22 0.990107 3.46221 0
M  V30 12645 C 1210.08 2.50827 3.73371 0
M  V30 12646 C 1211.39 0.520478 4.37011 0
M  V30 12647 H 1208.51 0.227312 0.701069 0
M  V30 12648 H 1211.16 1.19993 1.47315 0
M  V30 12649 H 1209.31 0.498008 3.85295 0
M  V30 12650 H 1210.98 3.07469 3.4389 0
M  V30 12651 H 1209.22 2.94277 3.18722 0
M  V30 12652 H 1209.89 2.71659 4.80526 0
M  V30 12653 H 1212.37 0.942703 4.05281 0
M  V30 12654 H 1211.24 0.806918 5.42937 0
M  V30 12655 H 1211.5 -0.579507 4.38285 0
M  V30 12656 N 1210.56 -1.39601 0.731392 0
M  V30 12657 C 1211.79 -2.05411 0.286532 0
M  V30 12658 C 1212.21 -1.54777 -1.06892 0
M  V30 12659 O 1211.57 -0.689942 -1.67659 0
M  V30 12660 C 1211.62 -3.594 0.293914 0
M  V30 12661 O 1210.72 -4.06072 -0.719657 0
M  V30 12662 H 1210.06 -0.650949 0.131004 0
M  V30 12663 H 1212.59 -1.78703 0.996305 0
M  V30 12664 H 1212.6 -4.0777 0.137052 0
M  V30 12665 H 1211.28 -3.95617 1.28298 0
M  V30 12666 H 1209.86 -3.69125 -0.529226 0
M  V30 12667 N 1212.04 -0.478751 -1.50152 0
M  V30 12668 C 1213.27 0.0732929 -2.0727 0
M  V30 12669 C 1213.69 1.32066 -1.33941 0
M  V30 12670 O 1213.05 1.7707 -0.389367 0
M  V30 12671 C 1213.1 0.332528 -3.59064 0
M  V30 12672 O 1212.2 1.41158 -3.8749 0
M  V30 12673 H 1211.54 -0.0163684 -0.663798 0
M  V30 12674 H 1214.07 -0.671993 -1.9325 0
M  V30 12675 H 1214.08 0.570735 -4.03988 0
M  V30 12676 H 1212.76 -0.578934 -4.11851 0
M  V30 12677 H 1211.34 1.16008 -3.54396 0
M  V30 12678 N 1213.52 1.56172 -0.211661 0
M  V30 12679 C 1214.75 2.02874 0.430905 0
M  V30 12680 C 1215.17 1.09064 1.53254 0
M  V30 12681 O 1214.53 0.0770408 1.81136 0
M  V30 12682 C 1214.58 3.4789 0.948933 0
M  V30 12683 O 1213.68 3.57213 2.0609 0
M  V30 12684 H 1213.02 0.656614 0.0987607 0
M  V30 12685 H 1215.55 2.01964 -0.327399 0
M  V30 12686 H 1215.56 3.88015 1.2613 0
M  V30 12687 H 1214.24 4.15656 0.142584 0
M  V30 12688 H 1212.81 3.28971 1.75592 0
M  V30 12689 N 1215 -0.0618163 1.57479 0
M  V30 12690 C 1215.93 -1.09931 2.01116 0
M  V30 12691 C 1216.94 -1.34405 0.91865 0
M  V30 12692 O 1218.13 -1.32469 1.19642 0
M  V30 12693 C 1215.23 -2.44814 2.34349 0
M  V30 12694 C 1214.41 -2.40157 3.65573 0
M  V30 12695 C 1213.46 -3.57226 3.86363 0
M  V30 12696 O 1212.49 -3.38202 4.5783 0
M  V30 12697 N 1213.69 -4.77937 3.2948 0
M  V30 12698 H 1216.46 -0.727621 2.90733 0
M  V30 12699 H 1214.02 -0.250315 1.59953 0
M  V30 12700 H 1216.01 -3.21792 2.45422 0
M  V30 12701 H 1214.58 -2.73947 1.50571 0
M  V30 12702 H 1213.8 -1.48496 3.65161 0
M  V30 12703 H 1215.09 -2.34156 4.51717 0
M  V30 12704 H 1214.49 -4.96296 2.7149 0
M  V30 12705 H 1213.04 -5.52392 3.45986 0
M  V30 12706 N 1216.48 -1.54033 -0.333429 0
M  V30 12707 C 1217.44 -1.82021 -1.39288 0
M  V30 12708 C 1218.44 -0.691623 -1.45166 0
M  V30 12709 O 1219.63 -0.959925 -1.45365 0
M  V30 12710 C 1216.76 -1.97136 -2.78119 0
M  V30 12711 H 1217.95 -2.76671 -1.1573 0
M  V30 12712 H 1215.51 -1.45599 -0.568376 0
M  V30 12713 H 1216.24 -1.04663 -3.06946 0
M  V30 12714 H 1216.03 -2.79251 -2.75247 0
M  V30 12715 H 1217.52 -2.20271 -3.54782 0
M  V30 12716 N 1217.95 0.594978 -1.45938 0
M  V30 12717 C 1219.2 1.34976 -1.49881 0
M  V30 12718 C 1219.52 1.95025 -0.14983 0
M  V30 12719 O 1220.72 2.71417 -0.0669868 0
M  V30 12720 C 1219.18 2.44563 -2.6404 0
M  V30 12721 C 1218.79 1.9087 -4.05306 0
M  V30 12722 C 1220.53 3.21461 -2.77242 0
M  V30 12723 C 1218.44 2.98013 -5.10825 0
M  V30 12724 H 1217.37 0.507366 -0.55776 0
M  V30 12725 H 1220.02 0.636316 -1.72114 0
M  V30 12726 H 1218.4 3.1865 -2.35114 0
M  V30 12727 H 1219.57 1.23408 -4.43968 0
M  V30 12728 H 1217.89 1.26678 -3.96663 0
M  V30 12729 H 1220.49 4.01399 -3.53246 0
M  V30 12730 H 1220.83 3.73271 -1.84321 0
M  V30 12731 H 1221.36 2.54477 -3.05756 0
M  V30 12732 H 1218.1 2.51104 -6.05497 0
M  V30 12733 H 1217.62 3.64003 -4.7672 0
M  V30 12734 H 1219.3 3.62178 -5.36131 0
M  V30 12735 N 1219.43 1.33438 0.838571 0
M  V30 12736 C 1220.66 1.28097 1.63113 0
M  V30 12737 C 1221.08 -0.145197 1.87539 0
M  V30 12738 O 1220.44 -1.10191 1.43971 0
M  V30 12739 C 1220.49 2.06201 2.95827 0
M  V30 12740 O 1219.59 1.42082 3.87152 0
M  V30 12741 H 1218.93 0.440685 0.496681 0
M  V30 12742 H 1221.46 1.76004 1.04325 0
M  V30 12743 H 1221.47 2.16977 3.45521 0
M  V30 12744 H 1220.15 3.099 2.77371 0
M  V30 12745 H 1218.73 1.39953 3.45641 0
M  V30 12746 N 1220.91 -1.05686 1.16912 0
M  V30 12747 C 1222.14 -1.82821 0.979348 0
M  V30 12748 C 1222.56 -1.82196 -0.467575 0
M  V30 12749 O 1221.92 -1.22727 -1.33445 0
M  V30 12750 C 1221.97 -3.2705 1.51891 0
M  V30 12751 O 1221.07 -4.05899 0.729341 0
M  V30 12752 H 1220.41 -0.565455 0.348076 0
M  V30 12753 H 1222.94 -1.33211 1.55293 0
M  V30 12754 H 1222.95 -3.77859 1.53904 0
M  V30 12755 H 1221.63 -3.26819 2.5722 0
M  V30 12756 H 1220.2 -3.64646 0.780221 0
M  V30 12757 N 1222.39 -0.968567 -1.24324 0
M  V30 12758 C 1223.8 -0.66964 -1.74278 0
M  V30 12759 C 1224.15 0.81461 -1.7849 0
M  V30 12760 O 1223.28 1.63736 -1.4149 0
M  V30 12761 C 1223.87 -1.20885 -3.165 0
M  V30 12762 C 1222.43 -0.959808 -3.63957 0
M  V30 12763 C 1221.58 -1.34365 -2.42573 0
M  V30 12764 H 1224.53 -1.14379 -1.10015 0
M  V30 12765 H 1224.55 -0.57555 -3.76122 0
M  V30 12766 H 1224.06 -2.28912 -3.13402 0
M  V30 12767 H 1222.16 0.104894 -3.72452 0
M  V30 12768 H 1222.27 -1.60606 -4.51378 0
M  V30 12769 H 1220.64 -0.762039 -2.43033 0
M  V30 12770 H 1221.42 -2.43343 -2.42155 0
M  V30 12771 N 1223.87 1.39211 -0.738786 0
M  V30 12772 C 1224.8 2.29117 -0.0616489 0
M  V30 12773 C 1225.81 1.47008 0.699462 0
M  V30 12774 O 1227 1.70041 0.542998 0
M  V30 12775 C 1224.1 3.25692 0.936893 0
M  V30 12776 C 1223.27 4.3676 0.236515 0
M  V30 12777 C 1222.33 5.1362 1.1437 0
M  V30 12778 O 1221.36 5.65816 0.619762 0
M  V30 12779 N 1222.56 5.25184 2.4731 0
M  V30 12780 H 1225.33 2.8787 -0.833711 0
M  V30 12781 H 1222.89 1.50832 -0.588323 0
M  V30 12782 H 1224.88 3.73987 1.54648 0
M  V30 12783 H 1223.45 2.67943 1.61014 0
M  V30 12784 H 1222.67 3.90293 -0.553594 0
M  V30 12785 H 1223.96 5.08192 -0.248707 0
M  V30 12786 H 1223.35 4.84302 2.92349 0
M  V30 12787 H 1221.91 5.76905 3.03355 0
M  V30 12788 N 1225.34 0.486708 1.49896 0
M  V30 12789 C 1226.76 0.141788 1.58969 0
M  V30 12790 C 1226.96 -1.35279 1.49338 0
M  V30 12791 O 1226.02 -2.1275 1.35992 0
M  V30 12792 C 1227.33 0.70588 2.92297 0
M  V30 12793 C 1228.88 0.670704 3.0573 0
M  V30 12794 C 1229.35 1.21261 4.41656 0
M  V30 12795 N 1230.84 1.17269 4.4811 0
M  V30 12796 C 1231.58 1.56233 5.51705 0
M  V30 12797 N 1231.07 2.02721 6.62477 0
M  V30 12798 N 1232.87 1.47738 5.42337 0
M  V30 12799 H 1225.02 1.45858 1.544 0
M  V30 12800 H 1227.28 0.604137 0.730563 0
M  V30 12801 H 1226.99 1.7535 3.04869 0
M  V30 12802 H 1226.86 0.158215 3.76868 0
M  V30 12803 H 1229.25 -0.368041 2.92796 0
M  V30 12804 H 1229.33 1.25535 2.22878 0
M  V30 12805 H 1228.97 2.25006 4.5534 0
M  V30 12806 H 1228.9 0.604031 5.23124 0
M  V30 12807 H 1231.39 0.831905 3.6863 0
M  V30 12808 H 1231.71 2.3056 7.37606 0
M  V30 12809 H 1230.05 2.06686 6.63556 0
M  V30 12810 H 1233.24 1.11249 4.54688 0
M  V30 12811 H 1233.42 1.78429 6.2295 0
M  V30 12812 N 1226.82 -1.56058 0.219941 0
M  V30 12813 C 1228.05 -2.031 -0.42014 0
M  V30 12814 C 1228.47 -1.09875 -1.52673 0
M  V30 12815 O 1227.83 -0.0866458 -1.81093 0
M  V30 12816 C 1227.88 -3.48389 -0.93047 0
M  V30 12817 O 1226.98 -3.583 -2.04192 0
M  V30 12818 H 1226.32 -0.657129 -0.0952772 0
M  V30 12819 H 1228.85 -2.01787 0.338105 0
M  V30 12820 H 1228.86 -3.88678 -1.2407 0
M  V30 12821 H 1227.54 -4.15725 -0.120539 0
M  V30 12822 H 1226.12 -3.29898 -1.73845 0
M  V30 12823 N 1228.3 0.053464 -1.57509 0
M  V30 12824 C 1229.25 1.06155 -2.04939 0
M  V30 12825 C 1230.22 1.37382 -0.93357 0
M  V30 12826 O 1231.4 1.48137 -1.2025 0
M  V30 12827 C 1228.54 2.36476 -2.51343 0
M  V30 12828 C 1227.66 2.1162 -3.76618 0
M  V30 12829 C 1226.79 3.35636 -4.11731 0
M  V30 12830 C 1225.83 3.06226 -5.29993 0
M  V30 12831 N 1224.97 4.22623 -5.60655 0
M  V30 12832 H 1229.81 0.650122 -2.90822 0
M  V30 12833 H 1227.34 0.309421 -1.43809 0
M  V30 12834 H 1229.3 3.12588 -2.76306 0
M  V30 12835 H 1227.93 2.75386 -1.68411 0
M  V30 12836 H 1226.98 1.26116 -3.58886 0
M  V30 12837 H 1228.3 1.85909 -4.6286 0
M  V30 12838 H 1227.45 4.20132 -4.37692 0
M  V30 12839 H 1226.19 3.64439 -3.24092 0
M  V30 12840 H 1225.19 2.20128 -5.03809 0
M  V30 12841 H 1226.42 2.78726 -6.19265 0
M  V30 12842 H 1224.37 4.51424 -4.75976 0
M  V30 12843 H 1224.28 4.0025 -6.41355 0
M  V30 12844 H 1225.55 5.08063 -5.91178 0
M  V30 12845 N 1229.78 1.54207 0.325255 0
M  V30 12846 C 1231.2 1.44879 0.669492 0
M  V30 12847 C 1231.4 0.620298 1.91715 0
M  V30 12848 O 1230.45 0.118435 2.52222 0
M  V30 12849 C 1231.76 2.88581 0.845077 0
M  V30 12850 C 1233.31 2.98472 0.942527 0
M  V30 12851 C 1233.79 4.4332 1.15029 0
M  V30 12852 N 1235.28 4.46925 1.21707 0
M  V30 12853 C 1236.01 5.56155 1.39568 0
M  V30 12854 N 1235.51 6.75357 1.54483 0
M  V30 12855 N 1237.3 5.43799 1.42263 0
M  V30 12856 H 1229.45 2.06556 -0.494819 0
M  V30 12857 H 1231.72 0.934474 -0.159568 0
M  V30 12858 H 1231.42 3.517 -0.000442996 0
M  V30 12859 H 1231.3 3.34596 1.74141 0
M  V30 12860 H 1233.68 2.35481 1.77855 0
M  V30 12861 H 1233.76 2.5579 0.0226995 0
M  V30 12862 H 1233.41 5.06896 0.319127 0
M  V30 12863 H 1233.34 4.8361 2.08397 0
M  V30 12864 H 1235.83 3.61036 1.11632 0
M  V30 12865 H 1236.14 7.54363 1.67799 0
M  V30 12866 H 1234.49 6.78268 1.51584 0
M  V30 12867 H 1237.68 4.49627 1.30205 0
M  V30 12868 H 1237.85 6.28982 1.5584 0
M  V30 12869 N 1231.26 -0.58723 1.46251 0
M  V30 12870 C 1232.5 -1.3476 1.51551 0
M  V30 12871 C 1232.84 -1.93499 0.16483 0
M  V30 12872 O 1232.11 -1.7622 -0.823207 0
M  V30 12873 C 1232.39 -2.48033 2.61059 0
M  V30 12874 C 1232.25 -1.94358 4.05642 0
M  V30 12875 C 1233.57 -3.50096 2.66685 0
M  V30 12876 H 1230.69 -0.48863 0.551733 0
M  V30 12877 H 1233.33 -0.660097 1.78165 0
M  V30 12878 H 1231.48 -3.06679 2.38496 0
M  V30 12879 H 1233.15 -1.40204 4.39478 0
M  V30 12880 H 1231.39 -1.25217 4.15335 0
M  V30 12881 H 1232.06 -2.76105 4.77986 0
M  V30 12882 H 1234.54 -3.01324 2.86955 0
M  V30 12883 H 1233.42 -4.26817 3.45135 0
M  V30 12884 H 1233.68 -4.07032 1.7256 0
M  V30 12885 N 1232.74 -1.33881 -0.831482 0
M  V30 12886 C 1233.68 -1.24748 -1.94182 0
M  V30 12887 C 1234.65 -0.124516 -1.65633 0
M  V30 12888 O 1235.84 -0.304045 -1.88362 0
M  V30 12889 C 1232.98 -1.00016 -3.30289 0
M  V30 12890 C 1232.09 -2.21007 -3.71187 0
M  V30 12891 C 1231.23 -1.89629 -4.962 0
M  V30 12892 C 1230.26 -3.06811 -5.29654 0
M  V30 12893 N 1229.4 -2.75372 -6.45844 0
M  V30 12894 H 1234.24 -2.19709 -2.01325 0
M  V30 12895 H 1231.78 -1.09245 -0.985081 0
M  V30 12896 H 1233.74 -0.837167 -4.08714 0
M  V30 12897 H 1232.37 -0.0872582 -3.22682 0
M  V30 12898 H 1231.42 -2.48256 -2.88224 0
M  V30 12899 H 1232.73 -3.08587 -3.91887 0
M  V30 12900 H 1231.88 -1.70016 -5.82391 0
M  V30 12901 H 1230.62 -0.992964 -4.77485 0
M  V30 12902 H 1229.63 -3.27029 -4.41964 0
M  V30 12903 H 1230.85 -3.97909 -5.50314 0
M  V30 12904 H 1228.8 -1.87607 -6.28601 0
M  V30 12905 H 1228.72 -3.56483 -6.66675 0
M  V30 12906 H 1229.98 -2.59244 -7.35128 0
M  V30 12907 N 1234.21 1.05064 -1.1747 0
M  V30 12908 C 1235.12 2.16346 -0.907286 0
M  V30 12909 C 1236.14 1.7355 0.125013 0
M  V30 12910 O 1237.32 2.01326 -0.0545551 0
M  V30 12911 C 1234.38 3.44077 -0.425681 0
M  V30 12912 C 1233.44 4.01311 -1.52473 0
M  V30 12913 C 1232.67 5.22946 -1.06601 0
M  V30 12914 O 1232.9 5.70345 0.0793329 0
M  V30 12915 O 1231.83 5.72454 -1.85958 0
M  V30 12916 H 1235.66 2.41754 -1.83817 0
M  V30 12917 H 1233.24 1.14834 -0.955693 0
M  V30 12918 H 1235.12 4.21078 -0.164689 0
M  V30 12919 H 1233.8 3.20166 0.477037 0
M  V30 12920 H 1232.71 3.25744 -1.83961 0
M  V30 12921 H 1234.04 4.29543 -2.4032 0
M  V30 12922 N 1235.69 0.975146 1.23809 0
M  V30 12923 C 1236.64 0.503396 2.27087 0
M  V30 12924 C 1237.63 -0.43689 1.63669 0
M  V30 12925 O 1238.84 -0.31136 1.77287 0
M  V30 12926 H 1235.21 0.144346 0.738017 0
M  V30 12927 H 1237.19 1.38627 2.64244 0
M  V30 12928 C 1235.93 -0.183682 3.47214 0
M  V30 12929 H 1235.26 0.530753 3.96261 0
M  V30 12930 H 1236.7 -0.477479 4.21303 0
M  V30 12931 C 1235.16 -1.41317 3.05829 0
M  V30 12932 O 1235.69 -2.50975 3.13647 0
M  V30 12933 N 1233.89 -1.28191 2.60798 0
M  V30 12934 H 1233.44 -0.38967 2.54636 0
M  V30 12935 H 1233.4 -2.10565 2.33473 0
M  V30 12936 N 1237.17 -1.38817 0.746158 0
M  V30 12937 C 1238.4 -2.0457 0.309605 0
M  V30 12938 C 1238.81 -1.5627 -1.05948 0
M  V30 12939 O 1238.17 -0.73248 -1.67156 0
M  V30 12940 C 1238.22 -3.60126 0.314843 0
M  V30 12941 O 1237.94 -4.06652 1.6299 0
M  V30 12942 C 1239.44 -4.4309 -0.136497 0
M  V30 12943 H 1236.66 -0.657597 0.133441 0
M  V30 12944 H 1239.21 -1.77651 1.01293 0
M  V30 12945 H 1237.36 -3.85908 -0.339685 0
M  V30 12946 H 1237.78 -5.01042 1.55103 0
M  V30 12947 H 1239.25 -5.5194 -0.0816714 0
M  V30 12948 H 1239.73 -4.22959 -1.18332 0
M  V30 12949 H 1240.33 -4.22481 0.488879 0
M  V30 12950 N 1238.65 -0.49465 -1.49636 0
M  V30 12951 C 1240.06 -0.0452894 -1.86645 0
M  V30 12952 C 1240.41 1.36686 -1.40753 0
M  V30 12953 O 1239.53 2.01751 -0.78265 0
M  V30 12954 C 1240.13 -0.0754115 -3.38716 0
M  V30 12955 C 1238.69 0.318579 -3.75049 0
M  V30 12956 C 1237.84 -0.450712 -2.73613 0
M  V30 12957 H 1240.79 -0.707758 -1.42044 0
M  V30 12958 H 1240.81 0.721372 -3.73599 0
M  V30 12959 H 1240.32 -1.10331 -3.72087 0
M  V30 12960 H 1238.42 1.34995 -3.47285 0
M  V30 12961 H 1238.53 0.00354416 -4.791 0
M  V30 12962 H 1236.9 0.0986455 -2.54509 0
M  V30 12963 H 1237.68 -1.47857 -3.09828 0
M  V30 12964 N 1240.13 1.55939 -0.228214 0
M  V30 12965 C 1241.54 1.84612 0.278417 0
M  V30 12966 C 1241.89 1.14973 1.58983 0
M  V30 12967 O 1241.01 0.421673 2.12252 0
M  V30 12968 C 1241.61 3.3491 0.511935 0
M  V30 12969 C 1240.17 3.63876 0.962861 0
M  V30 12970 C 1239.31 2.77284 0.0296246 0
M  V30 12971 H 1242.26 1.52149 -0.451245 0
M  V30 12972 H 1242.29 3.55477 1.35707 0
M  V30 12973 H 1241.8 3.85567 -0.442697 0
M  V30 12974 H 1239.9 3.18682 1.93062 0
M  V30 12975 H 1240.01 4.71809 0.832659 0
M  V30 12976 H 1238.38 2.48961 0.53763 0
M  V30 12977 H 1239.16 3.30742 -0.920044 0
M  V30 12978 N 1241.6 -0.0451101 1.57535 0
M  V30 12979 C 1243.02 -0.400463 1.54494 0
M  V30 12980 C 1243.22 -1.77584 0.952166 0
M  V30 12981 O 1242.28 -2.46069 0.566221 0
M  V30 12982 C 1243.59 -0.31703 2.99024 0
M  V30 12983 C 1245.14 -0.395284 3.10494 0
M  V30 12984 C 1245.61 -0.341475 4.56725 0
M  V30 12985 N 1247.1 -0.400755 4.61463 0
M  V30 12986 C 1247.84 -0.381757 5.72128 0
M  V30 12987 N 1247.33 -0.315995 6.92079 0
M  V30 12988 N 1249.13 -0.4303 5.60451 0
M  V30 12989 H 1241.28 0.855156 1.94424 0
M  V30 12990 H 1243.54 0.323618 0.891053 0
M  V30 12991 H 1243.25 0.627477 3.46057 0
M  V30 12992 H 1243.12 -1.11696 3.60283 0
M  V30 12993 H 1245.51 -1.33022 2.63418 0
M  V30 12994 H 1245.59 0.433709 2.52096 0
M  V30 12995 H 1245.23 0.589725 5.04465 0
M  V30 12996 H 1245.16 -1.18836 5.13016 0
M  V30 12997 H 1247.65 -0.454745 3.75154 0
M  V30 12998 H 1247.97 -0.306158 7.72193 0
M  V30 12999 H 1246.31 -0.282281 6.94427 0
M  V30 13000 H 1249.5 -0.479555 4.65637 0
M  V30 13001 H 1249.68 -0.412025 6.46689 0
M  V30 13002 N 1243.08 -1.54377 -0.317073 0
M  V30 13003 C 1244.32 -1.74621 -1.06239 0
M  V30 13004 C 1244.69 -0.512542 -1.85032 0
M  V30 13005 O 1245.89 -0.592438 -2.6219 0
M  V30 13006 C 1244.16 -2.99036 -1.95735 0
M  V30 13007 S 1245.72 -3.40212 -2.77131 0
M  V30 13008 H 1242.54 -0.613969 -0.358557 0
M  V30 13009 H 1245.14 -1.92562 -0.33763 0
M  V30 13010 H 1243.84 -3.86965 -1.36697 0
M  V30 13011 H 1243.37 -2.83636 -2.72606 0
M  V30 13012 H 1245.39 -2.9602 -3.98229 0
M  V30 13013 N 1244.56 0.579466 -1.4656 0
M  V30 13014 C 1245.52 1.67033 -1.56948 0
M  V30 13015 C 1246.52 1.54481 -0.446361 0
M  V30 13016 O 1247.71 1.5904 -0.710767 0
M  V30 13017 C 1244.85 3.06474 -1.49286 0
M  V30 13018 H 1246.04 1.59179 -2.54169 0
M  V30 13019 H 1243.59 0.797573 -1.34419 0
M  V30 13020 H 1244.33 3.1988 -0.533572 0
M  V30 13021 H 1244.11 3.16993 -2.30776 0
M  V30 13022 H 1245.6 3.85879 -1.59648 0
M  V30 13023 N 1246.04 1.3432 0.824371 0
M  V30 13024 C 1246.97 1.2012 1.94027 0
M  V30 13025 C 1247.95 0.0931808 1.62333 0
M  V30 13026 O 1249.13 0.258069 1.86725 0
M  V30 13027 C 1246.26 0.845628 3.27974 0
M  V30 13028 C 1245.31 1.9632 3.7863 0
M  V30 13029 S 1246.14 3.57642 3.98563 0
M  V30 13030 C 1247.3 3.24124 5.35439 0
M  V30 13031 H 1247.53 2.14579 2.05775 0
M  V30 13032 H 1245.06 1.1933 0.979783 0
M  V30 13033 H 1247.02 0.647266 4.05365 0
M  V30 13034 H 1245.68 -0.0805948 3.13997 0
M  V30 13035 H 1244.87 1.66812 4.75594 0
M  V30 13036 H 1244.48 2.11897 3.08181 0
M  V30 13037 H 1246.77 2.75848 6.188 0
M  V30 13038 H 1247.71 4.20222 5.69929 0
M  V30 13039 H 1248.12 2.60343 5.00881 0
M  V30 13040 N 1247.52 -1.0444 1.18026 0
M  V30 13041 C 1248.76 -1.77838 0.974756 0
M  V30 13042 C 1249.1 -1.87792 -0.494755 0
M  V30 13043 O 1248.37 -1.38327 -1.36733 0
M  V30 13044 C 1248.65 -3.21315 1.62569 0
M  V30 13045 C 1248.51 -3.19327 3.16781 0
M  V30 13046 C 1249.83 -4.19337 1.33583 0
M  V30 13047 H 1246.94 -0.645575 0.35553 0
M  V30 13048 H 1249.59 -1.22023 1.45638 0
M  V30 13049 H 1247.74 -3.68974 1.21617 0
M  V30 13050 H 1249.41 -2.79687 3.66842 0
M  V30 13051 H 1247.65 -2.57461 3.49137 0
M  V30 13052 H 1248.32 -4.20626 3.5746 0
M  V30 13053 H 1250.8 -3.80208 1.69059 0
M  V30 13054 H 1249.67 -5.17953 1.81702 0
M  V30 13055 H 1249.94 -4.41346 0.258016 0
M  V30 13056 N 1248.99 -0.981699 -1.2329 0
M  V30 13057 C 1249.94 -0.494116 -2.22581 0
M  V30 13058 C 1250.93 0.431573 -1.55004 0
M  V30 13059 O 1252.12 0.260215 -1.75077 0
M  V30 13060 C 1249.25 0.200884 -3.42712 0
M  V30 13061 C 1248.34 -0.744451 -4.17515 0
M  V30 13062 N 1248.73 -1.88762 -4.69257 0
M  V30 13063 C 1247.02 -0.558044 -4.42495 0
M  V30 13064 C 1247.73 -2.48006 -5.26182 0
M  V30 13065 N 1246.7 -1.76382 -5.14189 0
M  V30 13066 H 1250.5 -1.36616 -2.60218 0
M  V30 13067 H 1248.02 -0.842537 -1.38835 0
M  V30 13068 H 1250.01 0.567506 -4.13019 0
M  V30 13069 H 1248.67 1.0692 -3.06591 0
M  V30 13070 H 1249.69 -2.26877 -4.65561 0
M  V30 13071 H 1246.36 0.265139 -4.16657 0
M  V30 13072 H 1247.75 -3.44555 -5.76829 0
M  V30 13073 N 1250.47 1.3842 -0.753509 0
M  V30 13074 C 1251.7 2.04929 -0.319174 0
M  V30 13075 C 1252.12 1.56457 1.04416 0
M  V30 13076 O 1251.48 0.716527 1.6654 0
M  V30 13077 C 1251.53 3.58887 -0.351054 0
M  V30 13078 O 1250.63 4.07166 0.654963 0
M  V30 13079 H 1249.97 0.648782 -0.141343 0
M  V30 13080 H 1252.5 1.77096 -1.02461 0
M  V30 13081 H 1252.51 4.075 -0.201907 0
M  V30 13082 H 1251.19 3.93525 -1.34576 0
M  V30 13083 H 1249.77 3.69921 0.470435 0
M  V30 13084 N 1251.95 0.502579 1.49372 0
M  V30 13085 C 1253.18 -0.0403087 2.07361 0
M  V30 13086 C 1253.6 -1.29918 1.36026 0
M  V30 13087 O 1252.96 -1.76428 0.417488 0
M  V30 13088 C 1253.01 -0.275362 3.59547 0
M  V30 13089 O 1252.11 -1.34975 3.89686 0
M  V30 13090 H 1251.45 0.0269268 0.663454 0
M  V30 13091 H 1253.98 0.702652 1.92156 0
M  V30 13092 H 1253.99 -0.506392 4.04845 0
M  V30 13093 H 1252.67 0.644382 4.10878 0
M  V30 13094 H 1251.24 -1.10355 3.56197 0
M  V30 13095 N 1253.43 -1.55816 0.23648 0
M  V30 13096 C 1254.84 -1.84757 -0.268622 0
M  V30 13097 C 1255.19 -1.15815 -1.58371 0
M  V30 13098 O 1254.32 -0.432923 -2.12025 0
M  V30 13099 C 1254.91 -3.35177 -0.494167 0
M  V30 13100 C 1253.47 -3.64382 -0.943551 0
M  V30 13101 C 1252.62 -2.77296 -0.0149191 0
M  V30 13102 H 1255.57 -1.51908 0.459308 0
M  V30 13103 H 1255.59 -3.56192 -1.3382 0
M  V30 13104 H 1255.1 -3.85327 0.463138 0
M  V30 13105 H 1253.2 -3.19701 -1.91369 0
M  V30 13106 H 1253.31 -4.72244 -0.807626 0
M  V30 13107 H 1251.68 -2.49243 -0.524419 0
M  V30 13108 H 1252.46 -3.30249 0.937571 0
M  V30 13109 N 1254.91 0.036755 -1.57557 0
M  V30 13110 C 1255.87 1.02435 -2.05036 0
M  V30 13111 C 1256.87 1.29506 -0.953146 0
M  V30 13112 O 1258.06 1.24638 -1.217 0
M  V30 13113 C 1255.19 2.3592 -2.46079 0
M  V30 13114 H 1256.38 0.614384 -2.93539 0
M  V30 13115 H 1253.94 0.283396 -1.53709 0
M  V30 13116 H 1254.67 2.8168 -1.60708 0
M  V30 13117 H 1254.46 2.17603 -3.26177 0
M  V30 13118 H 1255.95 3.06839 -2.83266 0
M  V30 13119 N 1256.39 1.54543 0.308881 0
M  V30 13120 C 1257.63 1.75182 1.05312 0
M  V30 13121 C 1257.99 0.522347 1.84758 0
M  V30 13122 O 1259.19 0.606334 2.61872 0
M  V30 13123 C 1257.46 3.0007 1.94147 0
M  V30 13124 S 1259.02 3.41676 2.75323 0
M  V30 13125 H 1255.84 0.615862 0.355296 0
M  V30 13126 H 1258.44 1.92739 0.327413 0
M  V30 13127 H 1257.14 3.87685 1.34643 0
M  V30 13128 H 1256.68 2.85078 2.71098 0
M  V30 13129 H 1258.69 2.98128 3.96654 0
M  V30 13130 N 1257.86 -0.571685 1.46866 0
M  V30 13131 C 1259.09 -1.36008 1.56578 0
M  V30 13132 C 1259.51 -1.86909 0.211326 0
M  V30 13133 O 1258.87 -1.62179 -0.810421 0
M  V30 13134 C 1258.92 -2.51598 2.58323 0
M  V30 13135 O 1258.02 -3.53383 2.1259 0
M  V30 13136 H 1257.36 -0.404593 0.526498 0
M  V30 13137 H 1259.89 -0.692357 1.92529 0
M  V30 13138 H 1259.9 -2.98366 2.78283 0
M  V30 13139 H 1258.58 -2.13904 3.56676 0
M  V30 13140 H 1257.16 -3.13019 2.02666 0
M  V30 13141 N 1259.34 -1.34755 -0.817236 0
M  V30 13142 C 1260.57 -1.30522 -1.60536 0
M  V30 13143 C 1260.98 0.119541 -1.88421 0
M  V30 13144 O 1260.34 1.06833 -1.47962 0
M  V30 13145 C 1260.39 -2.09939 -2.94292 0
M  V30 13146 O 1260.11 -3.46858 -2.67621 0
M  V30 13147 C 1261.61 -2.13168 -3.88683 0
M  V30 13148 H 1258.83 -0.448789 -0.498828 0
M  V30 13149 H 1261.38 -1.77453 -1.01639 0
M  V30 13150 H 1259.53 -1.66634 -3.49731 0
M  V30 13151 H 1259.95 -3.87979 -3.52949 0
M  V30 13152 H 1261.42 -2.73147 -4.79682 0
M  V30 13153 H 1261.9 -1.12758 -4.24479 0
M  V30 13154 H 1262.5 -2.56587 -3.39181 0
M  V30 13155 N 1260.82 1.03812 -1.18578 0
M  V30 13156 C 1262.04 1.8124 -1.00831 0
M  V30 13157 C 1262.47 1.82917 0.43853 0
M  V30 13158 O 1261.83 1.24835 1.31476 0
M  V30 13159 C 1261.88 3.24592 -1.57075 0
M  V30 13160 O 1260.98 4.04688 -0.793824 0
M  V30 13161 H 1260.32 0.559846 -0.357028 0
M  V30 13162 H 1262.85 1.30724 -1.57393 0
M  V30 13163 H 1262.86 3.75363 -1.59896 0
M  V30 13164 H 1261.54 3.22686 -2.62387 0
M  V30 13165 H 1260.11 3.63359 -0.838134 0
M  V30 13166 N 1262.3 0.988223 1.22768 0
M  V30 13167 C 1263.54 0.662441 1.91676 0
M  V30 13168 C 1263.88 -0.802931 1.76824 0
M  V30 13169 O 1263.15 -1.58011 1.13415 0
M  V30 13170 C 1263.43 1.06332 3.44043 0
M  V30 13171 C 1263.29 2.5869 3.67967 0
M  V30 13172 C 1264.61 0.613058 4.35809 0
M  V30 13173 H 1261.73 0.242132 0.69609 0
M  V30 13174 H 1264.37 1.23091 1.44736 0
M  V30 13175 H 1262.52 0.579623 3.84152 0
M  V30 13176 H 1264.19 3.14694 3.37291 0
M  V30 13177 H 1262.43 3.00971 3.12408 0
M  V30 13178 H 1263.1 2.8179 4.74656 0
M  V30 13179 H 1265.58 1.02846 4.0319 0
M  V30 13180 H 1264.46 0.921901 5.41103 0
M  V30 13181 H 1264.72 -0.48641 4.39416 0
M  V30 13182 N 1263.78 -1.38018 0.760839 0
M  V30 13183 C 1265 -2.04231 0.331285 0
M  V30 13184 C 1265.42 -1.57385 -1.04285 0
M  V30 13185 O 1264.78 -0.750168 -1.66369 0
M  V30 13186 C 1264.83 -3.59772 0.353021 0
M  V30 13187 O 1264.55 -4.049 1.67294 0
M  V30 13188 C 1266.05 -4.4321 -0.0894942 0
M  V30 13189 H 1263.27 -0.656145 0.140408 0
M  V30 13190 H 1265.81 -1.76567 1.03172 0
M  V30 13191 H 1263.97 -3.86246 -0.298735 0
M  V30 13192 H 1264.38 -4.99369 1.60408 0
M  V30 13193 H 1265.86 -5.51995 -0.0231262 0
M  V30 13194 H 1266.33 -4.2419 -1.13839 0
M  V30 13195 H 1266.94 -4.21939 0.533661 0
M  V30 13196 N 1265.25 -0.510493 -1.49103 0
M  V30 13197 C 1266.49 0.0288873 -2.0438 0
M  V30 13198 C 1266.86 1.334 -1.38088 0
M  V30 13199 O 1268.06 1.95821 -1.8414 0
M  V30 13200 C 1266.33 0.168392 -3.57003 0
M  V30 13201 S 1267.89 0.660651 -4.33798 0
M  V30 13202 H 1264.71 -0.00274928 -0.710995 0
M  V30 13203 H 1267.31 -0.686622 -1.83046 0
M  V30 13204 H 1266.01 -0.786627 -4.02791 0
M  V30 13205 H 1265.54 0.908861 -3.82757 0
M  V30 13206 H 1267.56 1.92833 -4.57198 0
M  V30 13207 N 1266.73 1.55688 -0.24474 0
M  V30 13208 C 1267.98 1.98498 0.379852 0
M  V30 13209 C 1268.3 1.13416 1.58625 0
M  V30 13210 O 1267.57 0.216456 1.947 0
M  V30 13211 H 1266.15 0.73312 0.143334 0
M  V30 13212 H 1268.81 1.91858 -0.343027 0
M  V30 13213 H 1267.91 3.04367 0.690463 0
M  V30 13214 N 1268.21 -0.0283989 1.57574 0
M  V30 13215 C 1269.46 -0.714661 1.90432 0
M  V30 13216 C 1269.81 -1.72929 0.843409 0
M  V30 13217 O 1269.1 -1.91029 -0.147815 0
M  V30 13218 C 1269.3 -1.4247 3.27776 0
M  V30 13219 C 1269.13 -0.480353 4.47127 0
M  V30 13220 C 1267.9 -0.101157 5.05199 0
M  V30 13221 C 1270.09 0.241526 5.13733 0
M  V30 13222 N 1268.08 0.844371 6.08065 0
M  V30 13223 C 1269.45 1.04269 6.11169 0
M  V30 13224 C 1271.5 0.308398 4.96944 0
M  V30 13225 C 1270.21 1.90459 6.93627 0
M  V30 13226 C 1272.23 1.15742 5.79964 0
M  V30 13227 C 1271.59 1.94651 6.76971 0
M  V30 13228 H 1267.69 -0.23559 0.745668 0
M  V30 13229 H 1270.28 0.0252703 1.94684 0
M  V30 13230 H 1268.45 -2.13509 3.24451 0
M  V30 13231 H 1270.18 -2.0634 3.48146 0
M  V30 13232 H 1266.93 -0.463482 4.71327 0
M  V30 13233 H 1267.36 1.31166 6.64172 0
M  V30 13234 H 1272 -0.287369 4.21822 0
M  V30 13235 H 1269.72 2.51115 7.68093 0
M  V30 13236 H 1273.3 1.2127 5.69021 0
M  V30 13237 H 1272.18 2.59286 7.40095 0
M  V30 13238 N 1269.69 -1.54705 -0.300681 0
M  V30 13239 C 1270.94 -1.73658 -1.0338 0
M  V30 13240 C 1271.26 -0.525447 -1.87787 0
M  V30 13241 O 1270.53 0.460269 -1.90416 0
M  V30 13242 H 1269.11 -0.640338 -0.384677 0
M  V30 13243 H 1271.77 -1.92059 -0.331588 0
M  V30 13244 H 1270.86 -2.62595 -1.68672 0
M  V30 13245 N 1271.17 0.563888 -1.47167 0
M  V30 13246 C 1272.44 1.32454 -1.43928 0
M  V30 13247 C 1272.82 2.10683 -0.13267 0
M  V30 13248 O 1272.17 2.1063 0.885845 0
M  V30 13249 C 1272.38 2.2347 -2.68071 0
M  V30 13250 C 1273.73 2.84702 -3.15008 0
M  V30 13251 O 1274.75 2.33775 -2.68752 0
M  V30 13252 O 1273.61 3.77251 -3.95404 0
M  V30 13253 H 1270.71 0.596074 -0.573258 0
M  V30 13254 H 1273.25 0.583345 -1.59359 0
M  V30 13255 H 1272.02 1.6522 -3.54708 0
M  V30 13256 H 1271.65 3.04897 -2.55193 0
M  V30 13257 N 1272.64 1.35187 0.810078 0
M  V30 13258 C 1273.89 1.28454 1.56931 0
M  V30 13259 C 1274.22 -0.141747 1.93682 0
M  V30 13260 O 1273.5 -1.09028 1.61069 0
M  V30 13261 C 1273.78 2.18771 2.86027 0
M  V30 13262 C 1273.63 3.69999 2.55774 0
M  V30 13263 C 1274.95 2.08265 3.87703 0
M  V30 13264 H 1272.07 0.467959 0.569371 0
M  V30 13265 H 1274.71 1.65556 0.932262 0
M  V30 13266 H 1272.86 1.8726 3.40391 0
M  V30 13267 H 1274.54 4.11936 2.07621 0
M  V30 13268 H 1272.78 3.90453 1.89021 0
M  V30 13269 H 1273.45 4.28577 3.47888 0
M  V30 13270 H 1275.93 2.35958 3.42729 0
M  V30 13271 H 1274.8 2.73663 4.75815 0
M  V30 13272 H 1275.06 1.06352 4.29117 0
M  V30 13273 N 1274.12 -1.03182 1.19127 0
M  V30 13274 C 1275.09 -2.09559 0.928307 0
M  V30 13275 C 1276.09 -1.60548 -0.0899992 0
M  V30 13276 O 1277.28 -1.736 0.144422 0
M  V30 13277 C 1274.41 -3.38609 0.394561 0
M  V30 13278 H 1275.6 -2.34321 1.87173 0
M  V30 13279 H 1273.15 -1.19746 1.00452 0
M  V30 13280 H 1273.89 -3.19515 -0.555046 0
M  V30 13281 H 1273.67 -3.75502 1.12873 0
M  V30 13282 H 1275.16 -4.16969 0.229569 0
M  V30 13283 N 1275.6 -0.99472 -1.22242 0
M  V30 13284 C 1276.83 -0.689809 -1.95592 0
M  V30 13285 C 1277.25 0.739321 -1.72961 0
M  V30 13286 O 1276.61 1.50563 -1.00997 0
M  V30 13287 C 1276.66 -1.00367 -3.46351 0
M  V30 13288 O 1275.76 -0.103326 -4.12271 0
M  V30 13289 H 1275.1 -0.257997 -0.611828 0
M  V30 13290 H 1277.63 -1.33219 -1.55286 0
M  V30 13291 H 1277.64 -0.946259 -3.96875 0
M  V30 13292 H 1276.32 -2.04504 -3.62148 0
M  V30 13293 H 1274.89 -0.216374 -3.72272 0
M  V30 13294 N 1277.08 1.37613 -0.768148 0
M  V30 13295 C 1278.3 2.04579 -0.340892 0
M  V30 13296 C 1278.73 1.57556 1.02751 0
M  V30 13297 O 1278.09 0.734151 1.65771 0
M  V30 13298 C 1278.13 3.58495 -0.389099 0
M  V30 13299 O 1277.24 4.07838 0.611741 0
M  V30 13300 H 1276.58 0.647246 -0.148216 0
M  V30 13301 H 1279.11 1.75999 -1.04333 0
M  V30 13302 H 1279.12 4.07263 -0.245116 0
M  V30 13303 H 1277.79 3.92076 -1.38742 0
M  V30 13304 H 1276.37 3.70399 0.431173 0
M  V30 13305 N 1278.56 0.518393 1.4883 0
M  V30 13306 C 1279.78 -0.0162 2.06894 0
M  V30 13307 C 1280.2 -1.29222 1.37649 0
M  V30 13308 O 1279.56 -1.766 0.460288 0
M  V30 13309 C 1279.61 -0.255836 3.60594 0
M  V30 13310 O 1279.33 0.969612 4.27235 0
M  V30 13311 C 1280.83 -0.832117 4.3542 0
M  V30 13312 H 1278.05 0.0282877 0.670403 0
M  V30 13313 H 1280.59 0.720726 1.91379 0
M  V30 13314 H 1278.75 -0.942782 3.75753 0
M  V30 13315 H 1279.16 0.743172 5.19208 0
M  V30 13316 H 1280.64 -0.949279 5.43776 0
M  V30 13317 H 1281.11 -1.83421 3.99066 0
M  V30 13318 H 1281.72 -0.1821 4.2491 0
M  V30 13319 N 1280.03 -1.55556 0.252993 0
M  V30 13320 C 1281.26 -2.03491 -0.374022 0
M  V30 13321 C 1281.68 -1.13208 -1.51094 0
M  V30 13322 O 1281.03 -0.147705 -1.81901 0
M  V30 13323 C 1281.09 -3.50724 -0.876047 0
M  V30 13324 O 1280.81 -4.37569 0.215574 0
M  V30 13325 C 1282.31 -4.14448 -1.57313 0
M  V30 13326 H 1279.53 -0.665183 -0.0881644 0
M  V30 13327 H 1282.07 -2.00964 0.378636 0
M  V30 13328 H 1280.23 -3.53766 -1.57886 0
M  V30 13329 H 1280.64 -5.24235 -0.166625 0
M  V30 13330 H 1282.11 -5.19142 -1.87606 0
M  V30 13331 H 1282.59 -3.61299 -2.49719 0
M  V30 13332 H 1283.2 -4.15346 -0.914735 0
M  V30 13333 N 1281.51 0.0200419 -1.57587 0
M  V30 13334 C 1282.93 0.375834 -1.55112 0
M  V30 13335 C 1283.13 1.76047 -0.980297 0
M  V30 13336 O 1282.18 2.45138 -0.605297 0
M  V30 13337 C 1283.5 0.269418 -2.99491 0
M  V30 13338 C 1285.05 0.345838 -3.11084 0
M  V30 13339 C 1285.52 0.268771 -4.57211 0
M  V30 13340 N 1287.01 0.32729 -4.62042 0
M  V30 13341 C 1287.75 0.290688 -5.72663 0
M  V30 13342 N 1287.24 0.205851 -6.92494 0
M  V30 13343 N 1289.04 0.341082 -5.61064 0
M  V30 13344 H 1281.19 -0.885979 -1.93039 0
M  V30 13345 H 1283.45 -0.337753 -0.885792 0
M  V30 13346 H 1283.16 -0.682452 -3.45015 0
M  V30 13347 H 1283.03 1.0595 -3.62014 0
M  V30 13348 H 1285.42 1.28814 -2.65501 0
M  V30 13349 H 1285.5 -0.47376 -2.51375 0
M  V30 13350 H 1285.14 -0.669906 -5.03463 0
M  V30 13351 H 1285.07 1.10659 -5.14842 0
M  V30 13352 H 1287.56 0.395004 -3.7583 0
M  V30 13353 H 1287.88 0.18327 -7.72583 0
M  V30 13354 H 1286.22 0.171768 -6.94788 0
M  V30 13355 H 1289.41 0.405415 -4.66341 0
M  V30 13356 H 1289.58 0.309091 -6.47262 0
M  V30 13357 N 1282.99 1.54862 0.292472 0
M  V30 13358 C 1283.9 1.89472 1.38339 0
M  V30 13359 C 1284.92 0.789783 1.55043 0
M  V30 13360 O 1286.09 1.08705 1.69544 0
M  V30 13361 C 1283.16 2.14244 2.72581 0
M  V30 13362 C 1282.22 3.37913 2.64789 0
M  V30 13363 C 1281.45 3.61494 3.92629 0
M  V30 13364 O 1281.67 2.87931 4.92394 0
M  V30 13365 O 1280.61 4.55019 3.94007 0
M  V30 13366 H 1284.43 2.82298 1.11989 0
M  V30 13367 H 1282.02 1.41161 0.489291 0
M  V30 13368 H 1283.9 2.31689 3.51991 0
M  V30 13369 H 1282.58 1.24603 2.98757 0
M  V30 13370 H 1281.48 3.25823 1.83821 0
M  V30 13371 H 1282.82 4.27711 2.43565 0
M  V30 13372 N 1284.47 -0.556076 1.47464 0
M  V30 13373 C 1285.88 -0.882115 1.33007 0
M  V30 13374 C 1286.08 -1.9892 0.321407 0
M  V30 13375 O 1285.14 -2.51088 -0.266668 0
M  V30 13376 C 1286.45 -1.27428 2.72365 0
M  V30 13377 C 1288 -1.38564 2.80658 0
M  V30 13378 C 1288.48 -1.81136 4.20659 0
M  V30 13379 N 1289.97 -1.88284 4.23206 0
M  V30 13380 C 1290.7 -2.22555 5.28447 0
M  V30 13381 N 1290.2 -2.55432 6.43993 0
M  V30 13382 N 1291.99 -2.23339 5.15826 0
M  V30 13383 H 1284.14 0.17481 2.11679 0
M  V30 13384 H 1286.41 0.0155421 0.947873 0
M  V30 13385 H 1286.11 -0.53463 3.47613 0
M  V30 13386 H 1285.99 -2.23019 3.04208 0
M  V30 13387 H 1288.37 -2.1161 2.05682 0
M  V30 13388 H 1288.45 -0.411588 2.52467 0
M  V30 13389 H 1288.1 -1.08659 4.96141 0
M  V30 13390 H 1288.03 -2.79546 4.46275 0
M  V30 13391 H 1290.52 -1.65259 3.3985 0
M  V30 13392 H 1290.83 -2.80612 7.20053 0
M  V30 13393 H 1289.18 -2.5301 6.47311 0
M  V30 13394 H 1292.37 -1.97094 4.24584 0
M  V30 13395 H 1292.54 -2.49717 5.97951 0
M  V30 13396 N 1285.95 -1.35615 -0.802897 0
M  V30 13397 C 1286.88 -1.24695 -1.92312 0
M  V30 13398 C 1287.89 -0.169409 -1.61916 0
M  V30 13399 O 1289.08 -0.422995 -1.73416 0
M  V30 13400 C 1286.18 -0.898229 -3.2678 0
M  V30 13401 C 1285.35 -2.07489 -3.85054 0
M  V30 13402 C 1284.41 -1.70137 -4.97936 0
M  V30 13403 O 1283.44 -2.42057 -5.15167 0
M  V30 13404 N 1284.64 -0.627153 -5.77102 0
M  V30 13405 H 1287.41 -2.21208 -2.02205 0
M  V30 13406 H 1284.97 -1.28832 -0.980503 0
M  V30 13407 H 1286.96 -0.629766 -3.9977 0
M  V30 13408 H 1285.53 -0.0226571 -3.12592 0
M  V30 13409 H 1284.75 -2.50694 -3.04214 0
M  V30 13410 H 1286.04 -2.86133 -4.2072 0
M  V30 13411 H 1285.44 -0.0296879 -5.65692 0
M  V30 13412 H 1283.99 -0.41848 -6.50455 0
M  V30 13413 N 1287.43 1.02549 -1.19673 0
M  V30 13414 C 1288.84 1.28271 -0.94967 0
M  V30 13415 C 1289.04 1.97961 0.37599 0
M  V30 13416 O 1288.1 2.26955 1.10668 0
M  V30 13417 C 1289.41 2.12647 -2.12607 0
M  V30 13418 C 1290.96 2.25943 -2.16607 0
M  V30 13419 C 1291.43 3.13693 -3.33708 0
M  V30 13420 N 1292.92 3.21281 -3.33665 0
M  V30 13421 C 1293.66 3.89377 -4.20919 0
M  V30 13422 N 1293.16 4.59675 -5.18334 0
M  V30 13423 N 1294.95 3.85811 -4.08786 0
M  V30 13424 H 1287.1 0.557304 -2.04958 0
M  V30 13425 H 1289.36 0.308531 -0.896389 0
M  V30 13426 H 1289.07 1.68766 -3.08563 0
M  V30 13427 H 1288.94 3.13367 -2.09955 0
M  V30 13428 H 1291.33 2.69053 -1.2122 0
M  V30 13429 H 1291.41 1.24762 -2.23311 0
M  V30 13430 H 1291.05 2.7129 -4.29376 0
M  V30 13431 H 1290.98 4.14941 -3.2424 0
M  V30 13432 H 1293.48 2.71218 -2.63152 0
M  V30 13433 H 1293.79 5.09277 -5.81254 0
M  V30 13434 H 1292.13 4.58529 -5.22279 0
M  V30 13435 H 1295.32 3.30033 -3.31957 0
M  V30 13436 H 1295.5 4.38607 -4.76999 0
M  V30 13437 N 1288.9 1.00119 1.21713 0
M  V30 13438 C 1289.84 0.516633 2.23301 0
M  V30 13439 C 1290.85 -0.392732 1.57992 0
M  V30 13440 O 1292.04 -0.19354 1.77448 0
M  V30 13441 C 1289.14 -0.269612 3.37826 0
M  V30 13442 C 1288.31 0.637898 4.32723 0
M  V30 13443 C 1287.37 -0.0980745 5.26109 0
M  V30 13444 O 1286.4 0.519302 5.66826 0
M  V30 13445 N 1287.6 -1.37783 5.63911 0
M  V30 13446 H 1290.36 1.39022 2.65505 0
M  V30 13447 H 1287.92 0.87688 1.36097 0
M  V30 13448 H 1289.92 -0.770826 3.97291 0
M  V30 13449 H 1288.49 -1.04436 2.94638 0
M  V30 13450 H 1287.71 1.31966 3.71455 0
M  V30 13451 H 1288.99 1.25564 4.93063 0
M  V30 13452 H 1288.39 -1.90061 5.32817 0
M  V30 13453 H 1286.95 -1.82407 6.25756 0
M  V30 13454 N 1290.38 -1.37203 0.775435 0
M  V30 13455 C 1291.61 -2.03868 0.352927 0
M  V30 13456 C 1292.02 -1.58482 -1.0261 0
M  V30 13457 O 1291.38 -0.767772 -1.65564 0
M  V30 13458 C 1291.43 -3.59378 0.39116 0
M  V30 13459 O 1291.15 -4.03103 1.71579 0
M  V30 13460 C 1292.65 -4.4328 -0.0424808 0
M  V30 13461 H 1289.87 -0.654619 0.14736 0
M  V30 13462 H 1292.42 -1.75463 1.05039 0
M  V30 13463 H 1290.57 -3.86542 -0.257752 0
M  V30 13464 H 1290.99 -4.9764 1.65695 0
M  V30 13465 H 1292.46 -5.51989 0.0354215 0
M  V30 13466 H 1292.94 -4.25374 -1.09333 0
M  V30 13467 H 1293.54 -4.21349 0.578384 0
M  V30 13468 N 1291.86 -0.526279 -1.48553 0
M  V30 13469 C 1293.11 0.0111473 -2.01697 0
M  V30 13470 C 1293.42 1.35675 -1.40895 0
M  V30 13471 O 1294.63 1.98233 -1.85515 0
M  V30 13472 C 1293.08 0.0702721 -3.59831 0
M  V30 13473 C 1292.69 -1.27022 -4.29616 0
M  V30 13474 C 1294.44 0.556722 -4.20834 0
M  V30 13475 C 1292.34 -1.17188 -5.79673 0
M  V30 13476 H 1291.27 0.00793697 -0.753958 0
M  V30 13477 H 1293.92 -0.669503 -1.70851 0
M  V30 13478 H 1292.31 0.81592 -3.87503 0
M  V30 13479 H 1293.48 -2.03114 -4.1362 0
M  V30 13480 H 1291.79 -1.69211 -3.80469 0
M  V30 13481 H 1294.39 0.648205 -5.30756 0
M  V30 13482 H 1294.73 1.56163 -3.859 0
M  V30 13483 H 1295.27 -0.133132 -3.97577 0
M  V30 13484 H 1292.01 -2.15182 -6.19174 0
M  V30 13485 H 1291.53 -0.452259 -5.98093 0
M  V30 13486 H 1293.21 -0.861011 -6.41245 0
M  V30 13487 N 1293.34 1.5542 -0.261239 0
M  V30 13488 C 1294.58 1.99579 0.36002 0
M  V30 13489 C 1294.92 1.14933 1.56538 0
M  V30 13490 O 1294.19 0.216082 1.93296 0
M  V30 13491 C 1294.47 3.52078 0.755842 0
M  V30 13492 C 1294.33 4.47484 -0.455896 0
M  V30 13493 C 1295.65 4.10083 1.5975 0
M  V30 13494 H 1292.77 0.725554 0.129385 0
M  V30 13495 H 1295.41 1.86453 -0.365415 0
M  V30 13496 H 1293.56 3.63394 1.37393 0
M  V30 13497 H 1295.23 4.4813 -1.09441 0
M  V30 13498 H 1293.47 4.19714 -1.09646 0
M  V30 13499 H 1294.14 5.51834 -0.13539 0
M  V30 13500 H 1296.62 4.01957 1.07562 0
M  V30 13501 H 1295.5 5.17024 1.84329 0
M  V30 13502 H 1295.76 3.59438 2.57404 0
M  V30 13503 N 1294.82 -0.0116844 1.57596 0
M  V30 13504 C 1296.06 -0.698089 1.89234 0
M  V30 13505 C 1296.38 -1.75581 0.862016 0
M  V30 13506 O 1297.58 -2.49602 1.06822 0
M  V30 13507 C 1296.04 -1.29277 3.3588 0
M  V30 13508 C 1295.65 -0.27049 4.47183 0
M  V30 13509 C 1297.39 -1.95805 3.76644 0
M  V30 13510 C 1295.3 -0.874502 5.84899 0
M  V30 13511 H 1294.23 -0.264495 0.706087 0
M  V30 13512 H 1296.88 0.0469451 1.8344 0
M  V30 13513 H 1295.26 -2.08809 3.36474 0
M  V30 13514 H 1296.44 0.499381 4.58086 0
M  V30 13515 H 1294.75 0.293676 4.15363 0
M  V30 13516 H 1297.35 -2.41879 4.76863 0
M  V30 13517 H 1297.69 -2.78366 3.09545 0
M  V30 13518 H 1298.22 -1.23023 3.78299 0
M  V30 13519 H 1294.96 -0.0879263 6.55441 0
M  V30 13520 H 1294.48 -1.61381 5.77682 0
M  V30 13521 H 1296.16 -1.37665 6.32185 0
M  V30 13522 N 1296.29 -1.55015 -0.284256 0
M  V30 13523 C 1297.7 -1.65915 -0.856104 0
M  V30 13524 C 1298.06 -0.578758 -1.8747 0
M  V30 13525 O 1297.18 0.281733 -2.14558 0
M  V30 13526 C 1297.78 -3.0077 -1.55957 0
M  V30 13527 C 1296.33 -3.13735 -2.0796 0
M  V30 13528 C 1295.48 -2.61669 -0.917849 0
M  V30 13529 H 1298.43 -1.58583 -0.0608587 0
M  V30 13530 H 1298.45 -2.9313 -2.42601 0
M  V30 13531 H 1297.97 -3.79382 -0.81798 0
M  V30 13532 H 1296.07 -2.39875 -2.85115 0
M  V30 13533 H 1296.18 -4.20138 -2.30263 0
M  V30 13534 H 1294.54 -2.18542 -1.3081 0
M  V30 13535 H 1295.33 -3.42774 -0.189946 0
M  V30 13536 N 1297.77 0.548248 -1.47757 0
M  V30 13537 C 1299.05 1.3092 -1.45325 0
M  V30 13538 C 1299.43 2.1053 -0.155008 0
M  V30 13539 O 1298.78 2.11558 0.863455 0
M  V30 13540 C 1298.99 2.20614 -2.70426 0
M  V30 13541 C 1300.33 2.81345 -3.18009 0
M  V30 13542 O 1301.36 2.30911 -2.71216 0
M  V30 13543 O 1300.22 3.73036 -3.99383 0
M  V30 13544 H 1297.31 0.58996 -0.579548 0
M  V30 13545 H 1299.86 0.56641 -1.59968 0
M  V30 13546 H 1298.63 1.61449 -3.56441 0
M  V30 13547 H 1298.25 3.02173 -2.58413 0
M  V30 13548 N 1299.25 1.36039 0.795694 0
M  V30 13549 C 1300.48 1.33059 1.58439 0
M  V30 13550 C 1300.89 -0.0895496 1.88588 0
M  V30 13551 O 1300.25 -1.04466 1.49643 0
M  V30 13552 C 1300.3 2.14594 2.90915 0
M  V30 13553 O 1300.02 3.51072 2.62069 0
M  V30 13554 C 1301.52 2.19324 3.85242 0
M  V30 13555 H 1298.74 0.456668 0.491625 0
M  V30 13556 H 1301.29 1.79048 0.988035 0
M  V30 13557 H 1299.44 1.72177 3.47036 0
M  V30 13558 H 1299.86 3.93545 3.46732 0
M  V30 13559 H 1301.33 2.80744 4.75276 0
M  V30 13560 H 1301.81 1.19496 4.22631 0
M  V30 13561 H 1302.41 2.6195 3.35056 0
M  V30 13562 N 1300.73 -1.01913 1.20215 0
M  V30 13563 C 1302.14 -1.5692 1.01159 0
M  V30 13564 C 1302.49 -1.91368 -0.432746 0
M  V30 13565 O 1301.62 -1.71959 -1.31374 0
M  V30 13566 C 1302.21 -2.85125 1.83001 0
M  V30 13567 C 1300.77 -3.36669 1.68318 0
M  V30 13568 C 1299.92 -2.10003 1.81091 0
M  V30 13569 H 1302.87 -0.843246 1.34443 0
M  V30 13570 H 1302.89 -3.56428 1.33188 0
M  V30 13571 H 1302.4 -2.60021 2.88116 0
M  V30 13572 H 1300.5 -3.66739 0.658292 0
M  V30 13573 H 1300.61 -4.09042 2.49442 0
M  V30 13574 H 1298.98 -2.22337 1.24252 0
M  V30 13575 H 1299.76 -1.87329 2.87685 0
M  V30 13576 N 1302.21 -1.00763 -1.2118 0
M  V30 13577 C 1303.43 -0.710515 -1.9485 0
M  V30 13578 C 1303.86 0.720934 -1.73736 0
M  V30 13579 O 1303.21 1.49484 -1.02588 0
M  V30 13580 C 1303.26 -1.04035 -3.45267 0
M  V30 13581 O 1302.37 -0.147047 -4.12138 0
M  V30 13582 H 1301.71 -0.264472 -0.609057 0
M  V30 13583 H 1304.24 -1.34858 -1.53865 0
M  V30 13584 H 1304.25 -0.9883 -3.95849 0
M  V30 13585 H 1302.92 -2.08334 -3.59958 0
M  V30 13586 H 1301.5 -0.255847 -3.72021 0
M  V30 13587 N 1303.68 1.3679 -0.7827 0
M  V30 13588 C 1305.1 1.82006 -0.41603 0
M  V30 13589 C 1305.45 1.65151 1.05922 0
M  V30 13590 O 1304.57 1.1687 1.82127 0
M  V30 13591 C 1305.17 3.30432 -0.748353 0
M  V30 13592 C 1303.73 3.73883 -0.4346 0
M  V30 13593 C 1302.87 2.59159 -0.986505 0
M  V30 13594 H 1305.82 1.25107 -0.976423 0
M  V30 13595 H 1305.84 3.80482 -0.036985 0
M  V30 13596 H 1305.36 3.42667 -1.82212 0
M  V30 13597 H 1303.46 3.67211 0.631401 0
M  V30 13598 H 1303.57 4.69577 -0.950511 0
M  V30 13599 H 1301.93 2.51377 -0.410108 0
M  V30 13600 H 1302.72 2.74182 -2.06589 0
M  V30 13601 N 1305.16 0.53415 1.48272 0
M  V30 13602 C 1306.39 0.00574475 2.06899 0
M  V30 13603 C 1306.81 -1.27754 1.39012 0
M  V30 13604 O 1306.16 -1.76102 0.478993 0
M  V30 13605 C 1306.21 -0.217576 3.60845 0
M  V30 13606 O 1305.93 1.01487 4.26183 0
M  V30 13607 C 1307.44 -0.785888 4.36278 0
M  V30 13608 H 1304.66 0.0353967 0.670066 0
M  V30 13609 H 1307.2 0.740984 1.90603 0
M  V30 13610 H 1305.35 -0.902875 3.76732 0
M  V30 13611 H 1305.77 0.7982 5.18391 0
M  V30 13612 H 1307.24 -0.891551 5.44753 0
M  V30 13613 H 1307.72 -1.79178 4.00989 0
M  V30 13614 H 1308.33 -0.137022 4.25079 0
M  V30 13615 N 1306.64 -1.55279 0.269478 0
M  V30 13616 C 1307.89 -1.99767 -0.34943 0
M  V30 13617 C 1308.22 -1.15762 -1.55926 0
M  V30 13618 O 1307.49 -0.22633 -1.93179 0
M  V30 13619 C 1307.78 -3.52474 -0.73716 0
M  V30 13620 C 1307.63 -4.47236 0.479621 0
M  V30 13621 C 1308.95 -4.10924 -1.57573 0
M  V30 13622 H 1306.07 -0.72623 -0.125535 0
M  V30 13623 H 1308.71 -1.86257 0.375298 0
M  V30 13624 H 1306.86 -3.64118 -1.35464 0
M  V30 13625 H 1308.53 -4.47543 1.11816 0
M  V30 13626 H 1306.78 -4.19127 1.11871 0
M  V30 13627 H 1307.45 -5.51754 0.164653 0
M  V30 13628 H 1309.92 -4.02522 -1.05429 0
M  V30 13629 H 1308.8 -5.17995 -1.81584 0
M  V30 13630 H 1309.06 -3.60798 -2.55495 0
M  V30 13631 N 1308.12 0.00332656 -1.576 0
M  V30 13632 C 1309.34 0.703587 -1.95101 0
M  V30 13633 C 1309.77 1.66697 -0.871418 0
M  V30 13634 O 1309.13 1.80494 0.170739 0
M  V30 13635 C 1309.17 1.41457 -3.31696 0
M  V30 13636 O 1308.28 2.52885 -3.25765 0
M  V30 13637 H 1307.62 0.187396 -0.637008 0
M  V30 13638 H 1310.15 -0.0488727 -2.04542 0
M  V30 13639 H 1310.16 1.77874 -3.67185 0
M  V30 13640 H 1308.83 0.708182 -4.09826 0
M  V30 13641 H 1307.41 2.18821 -3.01947 0
M  V30 13642 N 1309.6 1.55164 0.276031 0
M  V30 13643 C 1310.84 1.75887 1.00953 0
M  V30 13644 C 1311.18 0.5567 1.8605 0
M  V30 13645 O 1310.45 -0.445799 1.89322 0
M  V30 13646 C 1310.73 3.06228 1.89463 0
M  V30 13647 C 1310.59 4.36795 1.07379 0
M  V30 13648 C 1311.91 3.32589 2.88223 0
M  V30 13649 H 1309.02 0.639929 0.365596 0
M  V30 13650 H 1311.67 1.87893 0.282156 0
M  V30 13651 H 1309.82 2.96124 2.51481 0
M  V30 13652 H 1311.49 4.58853 0.474549 0
M  V30 13653 H 1309.73 4.32157 0.377165 0
M  V30 13654 H 1310.4 5.24315 1.72621 0
M  V30 13655 H 1312.88 3.42467 2.36338 0
M  V30 13656 H 1311.75 4.2506 3.47297 0
M  V30 13657 H 1312.02 2.52083 3.6319 0
M  V30 13658 N 1311.07 -0.540404 1.48045 0
M  V30 13659 C 1312.32 -1.2932 1.54787 0
M  V30 13660 C 1312.64 -1.94335 0.222109 0
M  V30 13661 O 1313.84 -2.70982 0.167675 0
M  V30 13662 C 1312.3 -2.34594 2.72935 0
M  V30 13663 C 1311.91 -1.75696 4.1211 0
M  V30 13664 C 1313.65 -3.10949 2.88982 0
M  V30 13665 C 1311.56 -2.78849 5.21534 0
M  V30 13666 H 1310.49 -0.486315 0.576206 0
M  V30 13667 H 1313.14 -0.571998 1.74357 0
M  V30 13668 H 1311.52 -3.09704 2.46778 0
M  V30 13669 H 1312.69 -1.06845 4.48242 0
M  V30 13670 H 1311.01 -1.11869 4.01091 0
M  V30 13671 H 1313.61 -3.88012 3.679 0
M  V30 13672 H 1313.95 -3.66173 1.98048 0
M  V30 13673 H 1314.48 -2.42953 3.1499 0
M  V30 13674 H 1311.22 -2.28459 6.144 0
M  V30 13675 H 1310.74 -3.46059 4.89901 0
M  V30 13676 H 1312.42 -3.4203 5.49203 0
M  V30 13677 N 1312.55 -1.36459 -0.788468 0
M  V30 13678 C 1313.78 -1.33898 -1.57731 0
M  V30 13679 C 1314.2 0.0795471 -1.88632 0
M  V30 13680 O 1313.55 1.03671 -1.50195 0
M  V30 13681 C 1313.6 -2.16134 -2.89773 0
M  V30 13682 O 1313.32 -3.52457 -2.60203 0
M  V30 13683 C 1314.83 -2.21364 -3.84074 0
M  V30 13684 H 1312.05 -0.459269 -0.489197 0
M  V30 13685 H 1314.59 -1.79569 -0.978526 0
M  V30 13686 H 1312.74 -1.74015 -3.46118 0
M  V30 13687 H 1313.16 -3.95378 -3.4464 0
M  V30 13688 H 1314.63 -2.83261 -4.7378 0
M  V30 13689 H 1315.11 -1.21736 -4.21992 0
M  V30 13690 H 1315.72 -2.63723 -3.33662 0
M  V30 13691 N 1314.03 1.01274 -1.20754 0
M  V30 13692 C 1315.28 1.74342 -1.01428 0
M  V30 13693 C 1315.59 1.90265 0.453708 0
M  V30 13694 O 1316.8 2.60465 0.76618 0
M  V30 13695 C 1315.25 3.13588 -1.76609 0
M  V30 13696 C 1314.86 3.05664 -3.27526 0
M  V30 13697 C 1316.61 3.9084 -1.65664 0
M  V30 13698 C 1314.51 4.39942 -3.95228 0
M  V30 13699 H 1313.44 0.653619 -0.375897 0
M  V30 13700 H 1316.09 1.13214 -1.44412 0
M  V30 13701 H 1314.48 3.75281 -1.26413 0
M  V30 13702 H 1315.65 2.53256 -3.84965 0
M  V30 13703 H 1313.97 2.41904 -3.38927 0
M  V30 13704 H 1316.56 4.9019 -2.13583 0
M  V30 13705 H 1316.91 4.11754 -0.61351 0
M  V30 13706 H 1317.44 3.35783 -2.13294 0
M  V30 13707 H 1314.18 4.24229 -4.9971 0
M  V30 13708 H 1313.7 4.92342 -3.42578 0
M  V30 13709 H 1315.38 5.08771 -3.99701 0
M  V30 13710 N 1315.51 1.01404 1.20644 0
M  V30 13711 C 1316.73 0.720839 1.9447 0
M  V30 13712 C 1317.16 -0.711711 1.74116 0
M  V30 13713 O 1316.52 -1.48938 1.03379 0
M  V30 13714 C 1316.57 1.05864 3.4471 0
M  V30 13715 O 1315.67 0.168901 4.12054 0
M  V30 13716 H 1315.01 0.267698 0.607646 0
M  V30 13717 H 1317.54 1.35672 1.53147 0
M  V30 13718 H 1317.55 1.00928 3.9532 0
M  V30 13719 H 1316.23 2.1024 3.58848 0
M  V30 13720 H 1314.8 0.275572 3.7188 0
M  V30 13721 N 1316.99 -1.36373 0.789944 0
M  V30 13722 C 1318.21 -2.04011 0.373396 0
M  V30 13723 C 1318.64 -1.59171 -1.00231 0
M  V30 13724 O 1318 -0.760431 -1.64582 0
M  V30 13725 C 1318.04 -3.5783 0.446083 0
M  V30 13726 O 1317.15 -4.08759 -0.54678 0
M  V30 13727 H 1316.49 -0.644807 0.158495 0
M  V30 13728 H 1319.02 -1.74317 1.0712 0
M  V30 13729 H 1319.03 -4.06822 0.309877 0
M  V30 13730 H 1317.7 -3.89819 1.44962 0
M  V30 13731 H 1316.28 -3.71038 -0.372192 0
M  V30 13732 N 1318.47 -0.542005 -1.47987 0
M  V30 13733 C 1319.74 0.0526494 -1.95529 0
M  V30 13734 C 1320.12 1.50092 -1.48444 0
M  V30 13735 O 1319.47 2.16981 -0.716347 0
M  V30 13736 C 1319.68 -0.0770524 -3.48915 0
M  V30 13737 C 1321.03 0.0760849 -4.24532 0
M  V30 13738 O 1322.05 -0.00384644 -3.562 0
M  V30 13739 O 1320.91 0.245406 -5.45949 0
M  V30 13740 H 1318.01 0.0726163 -0.823806 0
M  V30 13741 H 1320.55 -0.607454 -1.58455 0
M  V30 13742 H 1319.32 -1.08544 -3.75944 0
M  V30 13743 H 1318.95 0.621357 -3.92715 0
M  V30 13744 N 1319.94 1.55134 -0.277709 0
M  V30 13745 C 1321.17 2.04061 0.341601 0
M  V30 13746 C 1321.59 1.15597 1.49274 0
M  V30 13747 O 1320.94 0.176625 1.81643 0
M  V30 13748 C 1320.99 3.52074 0.820139 0
M  V30 13749 O 1320.72 4.37171 -0.28516 0
M  V30 13750 C 1322.22 4.16899 1.507 0
M  V30 13751 H 1319.44 0.666501 0.0775708 0
M  V30 13752 H 1321.98 2.00336 -0.410559 0
M  V30 13753 H 1320.14 3.56233 1.52238 0
M  V30 13754 H 1320.55 5.24434 0.0832022 0
M  V30 13755 H 1322.02 5.22061 1.79323 0
M  V30 13756 H 1322.5 3.65227 2.43939 0
M  V30 13757 H 1323.11 4.16749 0.848541 0
M  V30 13758 N 1321.42 0.00503138 1.57599 0
M  V30 13759 C 1322.7 -0.716079 1.82021 0
M  V30 13760 C 1323.08 -1.91707 0.883829 0
M  V30 13761 O 1322.43 -2.28404 -0.0662812 0
M  V30 13762 C 1322.64 -1.11706 3.3064 0
M  V30 13763 C 1323.98 -1.51881 3.96506 0
M  V30 13764 O 1325.01 -1.21071 3.34993 0
M  V30 13765 O 1323.87 -2.09191 5.04877 0
M  V30 13766 H 1320.96 -0.349112 0.7497 0
M  V30 13767 H 1323.51 0.030871 1.69672 0
M  V30 13768 H 1322.28 -0.261223 3.90427 0
M  V30 13769 H 1321.9 -1.92295 3.48006 0
M  V30 13770 N 1322.9 -1.55308 -0.267798 0
M  V30 13771 C 1323.81 -1.91649 -1.35307 0
M  V30 13772 C 1324.83 -0.814349 -1.53767 0
M  V30 13773 O 1326 -1.11388 -1.67793 0
M  V30 13774 C 1323.07 -2.18553 -2.69138 0
M  V30 13775 C 1322.13 -3.42083 -2.5938 0
M  V30 13776 C 1321.36 -3.67695 -3.86828 0
M  V30 13777 O 1321.58 -2.95728 -4.87751 0
M  V30 13778 O 1320.52 -4.61229 -3.86718 0
M  V30 13779 H 1324.34 -2.84044 -1.07483 0
M  V30 13780 H 1321.93 -1.41921 -0.466772 0
M  V30 13781 H 1323.81 -2.3726 -3.48261 0
M  V30 13782 H 1322.49 -1.2934 -2.96737 0
M  V30 13783 H 1321.39 -3.28706 -1.78614 0
M  V30 13784 H 1322.73 -4.31532 -2.36729 0
M  V30 13785 N 1324.38 0.532545 -1.4833 0
M  V30 13786 C 1325.29 1.66433 -1.65339 0
M  V30 13787 C 1326.3 1.65541 -0.535939 0
M  V30 13788 O 1327.48 1.84539 -0.806679 0
M  V30 13789 C 1324.54 3.02901 -1.68676 0
M  V30 13790 C 1323.61 3.14669 -2.92031 0
M  V30 13791 C 1322.84 4.44627 -2.95199 0
M  V30 13792 O 1323.06 5.31572 -2.06851 0
M  V30 13793 O 1322 4.60707 -3.87341 0
M  V30 13794 H 1325.82 1.5502 -2.61156 0
M  V30 13795 H 1323.41 0.705348 -1.31701 0
M  V30 13796 H 1325.29 3.84068 -1.73407 0
M  V30 13797 H 1323.96 3.14644 -0.760327 0
M  V30 13798 H 1322.87 2.32807 -2.92834 0
M  V30 13799 H 1324.2 3.07841 -3.8405 0
M  V30 13800 N 1325.86 1.36875 0.78122 0
M  V30 13801 C 1326.77 1.3404 1.92537 0
M  V30 13802 C 1327.78 0.241354 1.72318 0
M  V30 13803 O 1328.96 0.475128 1.95715 0
M  V30 13804 C 1326.02 1.13708 3.27523 0
M  V30 13805 C 1325.08 2.33165 3.60462 0
M  V30 13806 C 1324.32 2.13793 4.89007 0
M  V30 13807 O 1324.54 1.11732 5.5935 0
M  V30 13808 O 1323.47 3.01762 5.20791 0
M  V30 13809 H 1327.3 2.30386 1.97879 0
M  V30 13810 H 1324.88 1.17506 0.922637 0
M  V30 13811 H 1326.77 1.0432 4.08283 0
M  V30 13812 H 1325.44 0.204306 3.23055 0
M  V30 13813 H 1324.35 2.48123 2.79974 0
M  V30 13814 H 1325.68 3.24977 3.69663 0
M  V30 13815 N 1327.33 -1.00632 1.21289 0
M  V30 13816 C 1328.24 -2.12829 0.986957 0
M  V30 13817 C 1329.26 -1.73895 -0.0605152 0
M  V30 13818 O 1330.44 -2.00985 0.129238 0
M  V30 13819 C 1327.5 -3.4226 0.553089 0
M  V30 13820 C 1326.56 -3.95376 1.67262 0
M  V30 13821 C 1325.79 -5.18629 1.25936 0
M  V30 13822 O 1326.02 -5.70246 0.132402 0
M  V30 13823 O 1324.95 -5.65157 2.07077 0
M  V30 13824 H 1328.78 -2.34765 1.92663 0
M  V30 13825 H 1326.36 -1.11208 0.997654 0
M  V30 13826 H 1328.24 -4.20177 0.320856 0
M  V30 13827 H 1326.92 -3.21716 -0.357881 0
M  V30 13828 H 1325.83 -3.18692 1.95924 0
M  V30 13829 H 1327.16 -4.20328 2.56097 0
M  V30 13830 N 1328.81 -1.02043 -1.20104 0
M  V30 13831 C 1329.74 -0.552093 -2.22451 0
M  V30 13832 C 1330.76 0.367547 -1.58597 0
M  V30 13833 O 1331.95 0.165285 -1.77733 0
M  V30 13834 C 1329.05 0.215833 -3.38212 0
M  V30 13835 C 1328.22 -0.70666 -4.31654 0
M  V30 13836 C 1327.28 0.0143628 -5.26198 0
M  V30 13837 O 1326.3 -0.609413 -5.65928 0
M  V30 13838 N 1327.51 1.28794 -5.66032 0
M  V30 13839 H 1330.27 -1.43229 -2.6326 0
M  V30 13840 H 1327.83 -0.89842 -1.34685 0
M  V30 13841 H 1329.82 0.707523 -3.98467 0
M  V30 13842 H 1328.39 0.997358 -2.96263 0
M  V30 13843 H 1327.61 -1.37859 -3.69308 0
M  V30 13844 H 1328.9 -1.33392 -4.91003 0
M  V30 13845 H 1328.3 1.8156 -5.35773 0
M  V30 13846 H 1326.86 1.72429 -6.28579 0
M  V30 13847 N 1330.29 1.35952 -0.797165 0
M  V30 13848 C 1331.24 2.29941 -0.198995 0
M  V30 13849 C 1332.21 1.52355 0.661592 0
M  V30 13850 O 1333.39 1.80832 0.60865 0
M  V30 13851 C 1330.53 3.38846 0.654033 0
M  V30 13852 C 1329.65 4.31409 -0.225949 0
M  V30 13853 C 1328.78 5.27401 0.634188 0
M  V30 13854 C 1327.82 6.11602 -0.246773 0
M  V30 13855 N 1326.96 6.9976 0.57279 0
M  V30 13856 H 1331.8 2.80508 -1.00594 0
M  V30 13857 H 1329.33 1.38064 -0.507617 0
M  V30 13858 H 1331.29 4.00643 1.16367 0
M  V30 13859 H 1329.92 2.89578 1.42633 0
M  V30 13860 H 1328.97 3.70699 -0.853616 0
M  V30 13861 H 1330.29 4.90532 -0.904416 0
M  V30 13862 H 1329.44 5.94525 1.20933 0
M  V30 13863 H 1328.18 4.68751 1.34625 0
M  V30 13864 H 1327.18 5.43434 -0.834258 0
M  V30 13865 H 1328.41 6.72329 -0.956559 0
M  V30 13866 H 1326.35 6.43609 1.26901 0
M  V30 13867 H 1326.27 7.55985 -0.0478303 0
M  V30 13868 H 1327.54 7.71244 1.13151 0
M  V30 13869 N 1331.77 0.549846 1.47697 0
M  V30 13870 C 1332.72 -0.222213 2.26915 0
M  V30 13871 C 1333.7 -0.891996 1.33911 0
M  V30 13872 O 1334.89 -0.791519 1.58316 0
M  V30 13873 C 1332.02 -1.25619 3.19491 0
M  V30 13874 C 1331.11 -0.590193 4.19973 0
M  V30 13875 N 1331.5 0.335519 5.04686 0
M  V30 13876 C 1329.8 -0.845012 4.37922 0
M  V30 13877 C 1330.5 0.721672 5.77206 0
M  V30 13878 N 1329.48 0.078184 5.43544 0
M  V30 13879 H 1333.28 0.489645 2.89792 0
M  V30 13880 H 1330.79 0.36926 1.58146 0
M  V30 13881 H 1332.79 -1.82319 3.74921 0
M  V30 13882 H 1331.45 -1.96922 2.5817 0
M  V30 13883 H 1332.46 0.709271 5.1302 0
M  V30 13884 H 1329.14 -1.54711 3.87777 0
M  V30 13885 H 1330.53 1.48191 6.55354 0
M  V30 13886 N 1333.25 -1.54984 0.285932 0
M  V30 13887 C 1334.21 -2.2164 -0.583824 0
M  V30 13888 C 1335.21 -1.19764 -1.073 0
M  V30 13889 O 1336.4 -1.44598 -0.971439 0
M  V30 13890 C 1333.53 -2.8909 -1.80665 0
M  V30 13891 H 1334.72 -2.999 -0.00168109 0
M  V30 13892 H 1332.28 -1.56257 0.0366325 0
M  V30 13893 H 1333.01 -2.14869 -2.42903 0
M  V30 13894 H 1332.8 -3.63756 -1.4637 0
M  V30 13895 H 1334.29 -3.39982 -2.42491 0
M  V30 13896 N 1334.72 -0.0133892 -1.57594 0
M  V30 13897 C 1336.14 0.527615 -1.7909 0
M  V30 13898 C 1336.49 1.73179 -0.922142 0
M  V30 13899 O 1335.61 2.1602 -0.128233 0
M  V30 13900 C 1336.21 0.963949 -3.24798 0
M  V30 13901 C 1334.77 1.45017 -3.47343 0
M  V30 13902 C 1333.91 0.407548 -2.74289 0
M  V30 13903 H 1336.86 -0.239505 -1.56882 0
M  V30 13904 H 1336.88 1.82924 -3.33645 0
M  V30 13905 H 1336.4 0.0873315 -3.88002 0
M  V30 13906 H 1334.5 2.34724 -2.89371 0
M  V30 13907 H 1334.61 1.4684 -4.56043 0
M  V30 13908 H 1332.97 0.872174 -2.39301 0
M  V30 13909 H 1333.76 -0.460333 -3.402 0
M  V30 13910 N 1336.2 1.55448 0.259558 0
M  V30 13911 C 1337.43 1.80727 1.00723 0
M  V30 13912 C 1337.85 0.587354 1.79431 0
M  V30 13913 O 1337.2 -0.443819 1.77021 0
M  V30 13914 C 1337.25 3.04064 1.95517 0
M  V30 13915 O 1336.97 4.21346 1.19996 0
M  V30 13916 C 1338.48 3.42049 2.81988 0
M  V30 13917 H 1335.7 0.601713 0.296956 0
M  V30 13918 H 1338.24 2.02486 0.286273 0
M  V30 13919 H 1336.39 2.84392 2.63058 0
M  V30 13920 H 1336.81 4.91164 1.84006 0
M  V30 13921 H 1338.28 4.31485 3.44274 0
M  V30 13922 H 1338.76 2.62059 3.52451 0
M  V30 13923 H 1339.37 3.64027 2.19918 0
M  V30 13924 N 1337.68 -0.524672 1.4861 0
M  V30 13925 C 1338.91 -1.30958 1.60825 0
M  V30 13926 C 1339.33 -1.86142 0.270682 0
M  V30 13927 O 1338.69 -1.64675 -0.758415 0
M  V30 13928 C 1338.74 -2.43252 2.66197 0
M  V30 13929 O 1337.84 -3.4644 2.23725 0
M  V30 13930 H 1337.18 -0.387638 0.539104 0
M  V30 13931 H 1339.71 -0.630755 1.94635 0
M  V30 13932 H 1339.72 -2.89362 2.87635 0
M  V30 13933 H 1338.4 -2.02449 3.63301 0
M  V30 13934 H 1336.97 -3.06413 2.12522 0
M  V30 13935 N 1339.16 -1.37287 -0.77395 0
M  V30 13936 C 1340.39 -1.35563 -1.56302 0
M  V30 13937 C 1340.8 0.0595356 -1.88706 0
M  V30 13938 O 1340.16 1.02072 -1.51286 0
M  V30 13939 C 1340.21 -2.19195 -2.87464 0
M  V30 13940 O 1339.93 -3.55197 -2.5645 0
M  V30 13941 C 1341.43 -2.25425 -3.81704 0
M  V30 13942 H 1338.65 -0.464431 -0.484298 0
M  V30 13943 H 1341.2 -1.80597 -0.959425 0
M  V30 13944 H 1339.35 -1.77676 -3.44253 0
M  V30 13945 H 1339.76 -3.99011 -3.40427 0
M  V30 13946 H 1341.24 -2.8827 -4.70749 0
M  V30 13947 H 1341.72 -1.26205 -4.20677 0
M  V30 13948 H 1342.32 -2.67247 -3.30846 0
M  V30 13949 N 1340.64 0.999871 -1.21821 0
M  V30 13950 C 1341.88 1.74098 -1.04009 0
M  V30 13951 C 1342.22 1.89499 0.424716 0
M  V30 13952 O 1341.49 1.43306 1.31505 0
M  V30 13953 C 1341.77 3.1506 -1.74382 0
M  V30 13954 C 1341.63 3.0735 -3.28414 0
M  V30 13955 C 1342.95 4.1409 -1.49055 0
M  V30 13956 H 1340.06 0.631935 -0.379245 0
M  V30 13957 H 1342.71 1.16534 -1.50066 0
M  V30 13958 H 1340.86 3.64206 -1.35227 0
M  V30 13959 H 1342.53 2.65879 -3.76969 0
M  V30 13960 H 1340.77 2.44325 -3.58452 0
M  V30 13961 H 1341.44 4.07069 -3.72825 0
M  V30 13962 H 1343.92 3.73672 -1.83054 0
M  V30 13963 H 1342.79 5.10853 -2.008 0
M  V30 13964 H 1343.06 4.40085 -0.421641 0
M  V30 13965 N 1342.11 1.02678 1.19562 0
M  V30 13966 C 1343.34 0.741424 1.93695 0
M  V30 13967 C 1343.76 -0.693203 1.74861 0
M  V30 13968 O 1343.12 -1.47833 1.04953 0
M  V30 13969 C 1343.17 1.09514 3.43568 0
M  V30 13970 O 1342.27 0.212596 4.11852 0
M  V30 13971 H 1341.62 0.274128 0.604773 0
M  V30 13972 H 1344.15 1.37289 1.517 0
M  V30 13973 H 1344.16 1.05115 3.94227 0
M  V30 13974 H 1342.83 2.14034 3.56598 0
M  V30 13975 H 1341.41 0.315 3.71567 0
M  V30 13976 N 1343.59 -1.35528 0.804364 0
M  V30 13977 C 1344.54 -2.29832 0.211186 0
M  V30 13978 C 1345.51 -1.52704 -0.653503 0
M  V30 13979 O 1346.69 -1.81152 -0.599052 0
M  V30 13980 C 1343.83 -3.39188 -0.636054 0
M  V30 13981 C 1342.95 -4.31283 0.248824 0
M  V30 13982 C 1342.08 -5.2773 -0.60621 0
M  V30 13983 C 1341.12 -6.11463 0.279205 0
M  V30 13984 N 1340.26 -7.00054 -0.535672 0
M  V30 13985 H 1345.1 -2.79971 1.0208 0
M  V30 13986 H 1342.64 -1.37793 0.514931 0
M  V30 13987 H 1344.59 -4.01254 -1.14241 0
M  V30 13988 H 1343.22 -2.90331 -1.41095 0
M  V30 13989 H 1342.28 -3.70241 0.873263 0
M  V30 13990 H 1343.59 -4.90046 0.930417 0
M  V30 13991 H 1342.74 -5.95158 -1.17778 0
M  V30 13992 H 1341.48 -4.69458 -1.32138 0
M  V30 13993 H 1340.49 -5.42984 0.863066 0
M  V30 13994 H 1341.71 -6.71813 0.9922 0
M  V30 13995 H 1339.66 -6.44273 -1.23486 0
M  V30 13996 H 1339.57 -7.55949 0.0879213 0
M  V30 13997 H 1340.84 -7.71833 -1.09059 0
M  V30 13998 N 1345.07 -0.557671 -1.47404 0
M  V30 13999 C 1346 0.227253 -2.28071 0
M  V30 14000 C 1347.02 0.878951 -1.37034 0
M  V30 14001 O 1348.21 0.752725 -1.61853 0
M  V30 14002 C 1345.31 1.33942 -3.11308 0
M  V30 14003 C 1344.48 0.784425 -4.30309 0
M  V30 14004 C 1343.54 1.78114 -4.95138 0
M  V30 14005 O 1342.56 1.32708 -5.53514 0
M  V30 14006 N 1343.77 3.11453 -4.89875 0
M  V30 14007 H 1346.53 -0.464709 -2.96075 0
M  V30 14008 H 1344.09 -0.393777 -1.57038 0
M  V30 14009 H 1346.08 2.00495 -3.51545 0
M  V30 14010 H 1344.65 1.93461 -2.45543 0
M  V30 14011 H 1343.87 -0.0578917 -3.94157 0
M  V30 14012 H 1345.16 0.39298 -5.0728 0
M  V30 14013 H 1344.56 3.50987 -4.43649 0
M  V30 14014 H 1343.12 3.73563 -5.34129 0
M  V30 14015 N 1346.55 1.54831 -0.294147 0
M  V30 14016 C 1347.97 1.59489 0.0594489 0
M  V30 14017 C 1348.17 1.31121 1.53002 0
M  V30 14018 O 1347.22 1.08129 2.28176 0
M  V30 14019 C 1348.53 2.98858 -0.332323 0
M  V30 14020 C 1350.08 3.1174 -0.280518 0
M  V30 14021 C 1350.56 4.53407 -0.64701 0
M  V30 14022 N 1352.05 4.59307 -0.599284 0
M  V30 14023 C 1352.78 5.66983 -0.85542 0
M  V30 14024 N 1352.28 6.82726 -1.17717 0
M  V30 14025 N 1354.07 5.56621 -0.78294 0
M  V30 14026 H 1346.22 1.71532 -1.25262 0
M  V30 14027 H 1348.49 0.800801 -0.507368 0
M  V30 14028 H 1348.19 3.24517 -1.35578 0
M  V30 14029 H 1348.07 3.75862 0.317443 0
M  V30 14030 H 1350.45 2.85834 0.733683 0
M  V30 14031 H 1350.53 2.36907 -0.96481 0
M  V30 14032 H 1350.18 4.80042 -1.65899 0
M  V30 14033 H 1350.11 5.26567 0.0592796 0
M  V30 14034 H 1352.6 3.76169 -0.361259 0
M  V30 14035 H 1352.91 7.60761 -1.35877 0
M  V30 14036 H 1351.26 6.84295 -1.21513 0
M  V30 14037 H 1354.45 4.65075 -0.531282 0
M  V30 14038 H 1354.62 6.40456 -0.985929 0
M  V30 14039 N 1348.03 0.0217466 1.57585 0
M  V30 14040 C 1348.97 -0.962559 2.0977 0
M  V30 14041 C 1349.94 -1.32771 0.998053 0
M  V30 14042 O 1351.13 -1.42231 1.27181 0
M  V30 14043 C 1348.27 -2.24214 2.62339 0
M  V30 14044 C 1347.38 -1.9341 3.86286 0
M  V30 14045 C 1346.52 -3.15609 4.27275 0
M  V30 14046 C 1345.56 -2.8059 5.43999 0
M  V30 14047 N 1344.69 -3.95392 5.8018 0
M  V30 14048 H 1349.53 -0.510626 2.93593 0
M  V30 14049 H 1347.07 -0.240456 1.45121 0
M  V30 14050 H 1349.03 -2.99049 2.90905 0
M  V30 14051 H 1347.66 -2.67037 1.81358 0
M  V30 14052 H 1346.71 -1.08849 3.64494 0
M  V30 14053 H 1348.02 -1.63614 4.71203 0
M  V30 14054 H 1347.18 -3.9877 4.57239 0
M  V30 14055 H 1345.92 -3.48561 3.41111 0
M  V30 14056 H 1344.92 -1.9584 5.13738 0
M  V30 14057 H 1346.15 -2.48863 6.31858 0
M  V30 14058 H 1344.09 -4.282 4.96971 0
M  V30 14059 H 1344.01 -3.69195 6.59721 0
M  V30 14060 H 1345.28 -4.79279 6.14746 0
M  V30 14061 N 1349.51 -1.55583 -0.251311 0
M  V30 14062 C 1350.45 -1.90764 -1.33086 0
M  V30 14063 C 1351.45 -0.786236 -1.50049 0
M  V30 14064 O 1352.65 -0.97081 -1.51576 0
M  V30 14065 H 1349.03 -0.605795 -0.445551 0
M  V30 14066 H 1351 -2.80903 -1.00678 0
M  V30 14067 C 1349.75 -2.21499 -2.68018 0
M  V30 14068 H 1349.07 -3.07287 -2.55763 0
M  V30 14069 H 1350.51 -2.50021 -3.42441 0
M  V30 14070 C 1348.97 -1.02983 -3.20774 0
M  V30 14071 O 1349.5 -0.275557 -4.00754 0
M  V30 14072 N 1347.71 -0.821649 -2.78742 0
M  V30 14073 H 1347.25 -1.43672 -2.13813 0
M  V30 14074 H 1347.21 -0.0303445 -3.14385 0
M  V30 14075 N 1350.98 0.516783 -1.48886 0
M  V30 14076 C 1352.23 1.27375 -1.57808 0
M  V30 14077 C 1352.56 1.92492 -0.256963 0
M  V30 14078 O 1351.84 1.79947 0.738193 0
M  V30 14079 C 1352.12 2.35295 -2.72595 0
M  V30 14080 C 1351.97 1.74783 -4.14453 0
M  V30 14081 C 1353.29 3.36973 -2.83085 0
M  V30 14082 H 1350.41 0.46175 -0.574418 0
M  V30 14083 H 1353.05 0.57434 -1.81111 0
M  V30 14084 H 1351.2 2.94951 -2.52857 0
M  V30 14085 H 1352.88 1.19076 -4.45666 0
M  V30 14086 H 1351.12 1.05258 -4.20836 0
M  V30 14087 H 1351.79 2.52985 -4.90615 0
M  V30 14088 H 1354.27 2.87289 -3.01005 0
M  V30 14089 H 1353.14 4.09864 -3.65106 0
M  V30 14090 H 1353.4 3.98336 -1.91784 0
M  V30 14091 N 1352.46 1.37696 0.766659 0
M  V30 14092 C 1353.71 1.32507 1.52069 0
M  V30 14093 C 1354.02 -0.0864967 1.95409 0
M  V30 14094 O 1355.23 -0.260877 2.70244 0
M  V30 14095 C 1353.69 2.32614 2.74625 0
M  V30 14096 C 1353.29 3.79325 2.38363 0
M  V30 14097 C 1355.04 2.36445 3.52554 0
M  V30 14098 C 1352.94 4.7115 3.57451 0
M  V30 14099 H 1351.87 0.492491 0.570937 0
M  V30 14100 H 1354.53 1.63183 0.839268 0
M  V30 14101 H 1352.91 1.94963 3.44682 0
M  V30 14102 H 1354.08 4.25841 1.76056 0
M  V30 14103 H 1352.4 3.78488 1.73597 0
M  V30 14104 H 1354.99 3.02252 4.41076 0
M  V30 14105 H 1355.34 1.37953 3.92778 0
M  V30 14106 H 1355.87 2.72829 2.89498 0
M  V30 14107 H 1352.61 5.70789 3.22304 0
M  V30 14108 H 1352.13 4.29335 4.18846 0
M  V30 14109 H 1353.81 4.88532 4.242 0
M  V30 14110 N 1353.94 -0.993397 1.22349 0
M  V30 14111 C 1355.16 -1.77373 1.07488 0
M  V30 14112 C 1355.59 -1.84418 -0.37034 0
M  V30 14113 O 1354.95 -1.29629 -1.26752 0
M  V30 14114 C 1355 -3.18538 1.69014 0
M  V30 14115 O 1354.1 -4.01463 0.943474 0
M  V30 14116 H 1353.44 -0.546209 0.37756 0
M  V30 14117 H 1355.97 -1.24792 1.62136 0
M  V30 14118 H 1355.98 -3.6917 1.73717 0
M  V30 14119 H 1354.66 -3.12725 2.74182 0
M  V30 14120 H 1353.23 -3.59998 0.972415 0
M  V30 14121 N 1355.42 -1.03311 -1.19015 0
M  V30 14122 C 1356.66 -0.740813 -1.90503 0
M  V30 14123 C 1357.02 0.717732 -1.7808 0
M  V30 14124 O 1358.22 1.12329 -2.44204 0
M  V30 14125 C 1356.49 -1.18473 -3.37193 0
M  V30 14126 S 1358.05 -1.01692 -4.26854 0
M  V30 14127 H 1354.87 -0.269575 -0.657913 0
M  V30 14128 H 1357.47 -1.32382 -1.43858 0
M  V30 14129 H 1356.18 -2.2418 -3.43761 0
M  V30 14130 H 1355.71 -0.59519 -3.88872 0
M  V30 14131 H 1357.72 0.070076 -4.96151 0
M  V30 14132 N 1356.9 1.35099 -0.81154 0
M  V30 14133 C 1358.14 1.9892 -0.394815 0
M  V30 14134 C 1358.47 1.6422 1.0366 0
M  V30 14135 O 1357.75 0.908031 1.72003 0
M  V30 14136 C 1358.03 3.55331 -0.58413 0
M  V30 14137 C 1357.89 3.99812 -2.06084 0
M  V30 14138 C 1359.2 4.40098 -0.0129096 0
M  V30 14139 H 1356.32 0.72261 -0.144926 0
M  V30 14140 H 1358.97 1.60173 -1.02199 0
M  V30 14141 H 1357.12 3.88468 -0.0502446 0
M  V30 14142 H 1358.79 3.77061 -2.65749 0
M  V30 14143 H 1357.03 3.50539 -2.55548 0
M  V30 14144 H 1357.7 5.08655 -2.14416 0
M  V30 14145 H 1360.18 4.13449 -0.468917 0
M  V30 14146 H 1359.05 5.4862 -0.175252 0
M  V30 14147 H 1359.31 4.28675 1.0812 0
M  V30 14148 N 1358.37 0.56548 1.47106 0
M  V30 14149 C 1359.6 0.0496298 2.0684 0
M  V30 14150 C 1360.02 -1.24777 1.4169 0
M  V30 14151 O 1359.37 -1.75046 0.516239 0
M  V30 14152 C 1359.42 -0.140987 3.61225 0
M  V30 14153 O 1359.15 1.10504 4.23934 0
M  V30 14154 C 1360.65 -0.693171 4.37847 0
M  V30 14155 H 1357.87 0.0496018 0.669164 0
M  V30 14156 H 1360.41 0.781247 1.88989 0
M  V30 14157 H 1358.57 -0.822762 3.78562 0
M  V30 14158 H 1358.98 0.907978 5.16581 0
M  V30 14159 H 1360.45 -0.7758 5.46521 0
M  V30 14160 H 1360.93 -1.70632 4.04699 0
M  V30 14161 H 1361.54 -0.046826 4.25274 0
M  V30 14162 N 1359.85 -1.54672 0.302354 0
M  V30 14163 C 1361.1 -2.00463 -0.306978 0
M  V30 14164 C 1361.43 -1.19043 -1.53435 0
M  V30 14165 O 1360.71 -0.267255 -1.92655 0
M  V30 14166 C 1360.99 -3.53958 -0.662229 0
M  V30 14167 C 1360.84 -4.46118 0.574378 0
M  V30 14168 C 1362.16 -4.14174 -1.48821 0
M  V30 14169 H 1359.28 -0.728729 -0.110102 0
M  V30 14170 H 1361.92 -1.85419 0.414722 0
M  V30 14171 H 1360.07 -3.66909 -1.2771 0
M  V30 14172 H 1361.74 -4.45071 1.21284 0
M  V30 14173 H 1359.99 -4.1666 1.20736 0
M  V30 14174 H 1360.66 -5.51281 0.281651 0
M  V30 14175 H 1363.13 -4.04668 -0.968674 0
M  V30 14176 H 1362.01 -5.2173 -1.70556 0
M  V30 14177 H 1362.27 -3.66136 -2.47784 0
M  V30 14178 N 1361.33 -0.0301034 -1.57571 0
M  V30 14179 C 1362.28 0.960604 -2.06776 0
M  V30 14180 C 1363.26 1.28488 -0.968483 0
M  V30 14181 O 1364.46 1.27083 -1.23203 0
M  V30 14182 C 1361.59 2.24268 -2.59921 0
M  V30 14183 C 1360.67 1.94673 -3.7678 0
M  V30 14184 N 1361.06 1.3535 -4.87354 0
M  V30 14185 C 1359.36 2.24658 -3.85285 0
M  V30 14186 C 1360.06 1.22909 -5.68567 0
M  V30 14187 N 1359.04 1.72493 -5.15507 0
M  V30 14188 H 1362.84 0.496931 -2.89668 0
M  V30 14189 H 1360.35 0.174886 -1.61456 0
M  V30 14190 H 1362.35 2.96116 -2.93463 0
M  V30 14191 H 1361.01 2.71261 -1.78459 0
M  V30 14192 H 1362.02 1.02839 -5.07587 0
M  V30 14193 H 1358.7 2.74318 -3.14731 0
M  V30 14194 H 1360.09 0.7703 -6.6747 0
M  V30 14195 N 1362.81 1.55714 0.243056 0
M  V30 14196 C 1364.09 1.68483 0.993614 0
M  V30 14197 C 1364.47 0.571112 2.03228 0
M  V30 14198 O 1363.81 -0.42491 2.24515 0
M  V30 14199 C 1364.02 3.0894 1.62349 0
M  V30 14200 C 1365.37 3.67663 2.12389 0
M  V30 14201 O 1366.4 3.11764 1.72283 0
M  V30 14202 O 1365.25 4.65664 2.8604 0
M  V30 14203 H 1362.35 0.685415 0.462747 0
M  V30 14204 H 1364.89 1.68043 0.236538 0
M  V30 14205 H 1363.67 3.81451 0.87241 0
M  V30 14206 H 1363.29 3.13407 2.44667 0
M  V30 14207 N 1364.29 -0.50888 1.49158 0
M  V30 14208 C 1365.51 -1.29245 1.62205 0
M  V30 14209 C 1365.94 -1.85845 0.29041 0
M  V30 14210 O 1365.29 -1.6547 -0.740906 0
M  V30 14211 C 1365.34 -2.40415 2.68762 0
M  V30 14212 O 1364.45 -3.44048 2.27387 0
M  V30 14213 H 1363.79 -0.381898 0.543185 0
M  V30 14214 H 1366.32 -0.610076 1.95293 0
M  V30 14215 H 1366.33 -2.86295 2.90688 0
M  V30 14216 H 1365 -1.98584 3.65427 0
M  V30 14217 H 1363.58 -3.04141 2.1576 0
M  V30 14218 N 1365.76 -1.381 -0.759346 0
M  V30 14219 C 1367.18 -1.30379 -1.33635 0
M  V30 14220 C 1367.53 0.0430279 -1.96153 0
M  V30 14221 O 1366.65 0.945029 -1.94675 0
M  V30 14222 C 1367.25 -2.3611 -2.42976 0
M  V30 14223 C 1365.81 -2.31985 -2.96412 0
M  V30 14224 C 1364.95 -2.19281 -1.69739 0
M  V30 14225 H 1367.9 -1.48542 -0.558656 0
M  V30 14226 H 1367.92 -2.01493 -3.22771 0
M  V30 14227 H 1367.44 -3.34122 -1.97445 0
M  V30 14228 H 1365.54 -1.37536 -3.46287 0
M  V30 14229 H 1365.65 -3.25895 -3.51183 0
M  V30 14230 H 1364.01 -1.66035 -1.93144 0
M  V30 14231 H 1364.8 -3.19225 -1.26293 0
M  V30 14232 N 1367.24 0.986894 -1.22875 0
M  V30 14233 C 1368.47 1.7601 -1.08185 0
M  V30 14234 C 1368.88 1.85545 0.370088 0
M  V30 14235 O 1368.22 1.32915 1.26804 0
M  V30 14236 C 1368.29 3.20661 -1.62532 0
M  V30 14237 C 1367.95 3.34655 -3.11216 0
M  V30 14238 C 1368.95 3.21493 -4.08581 0
M  V30 14239 C 1366.63 3.59512 -3.50794 0
M  V30 14240 C 1368.63 3.32983 -5.43508 0
M  V30 14241 C 1366.31 3.70642 -4.85868 0
M  V30 14242 C 1367.31 3.57387 -5.82034 0
M  V30 14243 O 1367 3.68135 -7.14655 0
M  V30 14244 H 1366.73 0.559402 -0.379533 0
M  V30 14245 H 1369.28 1.24905 -1.63058 0
M  V30 14246 H 1367.51 3.72985 -1.02073 0
M  V30 14247 H 1369.2 3.7972 -1.43415 0
M  V30 14248 H 1369.97 3.02193 -3.79347 0
M  V30 14249 H 1365.85 3.68904 -2.76461 0
M  V30 14250 H 1369.39 3.22553 -6.18551 0
M  V30 14251 H 1365.29 3.89451 -5.1478 0
M  V30 14252 H 1366.06 3.84971 -7.22316 0
M  V30 14253 N 1368.72 1.0394 1.18466 0
M  V30 14254 C 1369.95 0.761926 1.92897 0
M  V30 14255 C 1370.37 -0.674618 1.75586 0
M  V30 14256 O 1369.73 -1.46711 1.06515 0
M  V30 14257 C 1369.78 1.13152 3.42387 0
M  V30 14258 O 1368.88 0.256266 4.11603 0
M  V30 14259 H 1368.22 0.280527 0.601831 0
M  V30 14260 H 1370.75 1.3889 1.50235 0
M  V30 14261 H 1370.76 1.0929 3.9309 0
M  V30 14262 H 1369.44 2.17804 3.54308 0
M  V30 14263 H 1368.01 0.354392 3.71212 0
M  V30 14264 N 1370.2 -1.34667 0.818693 0
M  V30 14265 C 1371.48 -1.92838 0.327521 0
M  V30 14266 C 1371.86 -1.74732 -1.18457 0
M  V30 14267 O 1371.2 -1.12352 -1.98971 0
M  V30 14268 C 1371.41 -3.40797 0.752207 0
M  V30 14269 C 1372.76 -4.17948 0.748613 0
M  V30 14270 O 1373.79 -3.49364 0.694517 0
M  V30 14271 O 1372.64 -5.40344 0.817958 0
M  V30 14272 H 1369.74 -0.822249 0.0885148 0
M  V30 14273 H 1372.28 -1.43668 0.9032 0
M  V30 14274 H 1371.06 -3.47759 1.79387 0
M  V30 14275 H 1370.68 -3.97309 0.151992 0
M  V30 14276 N 1371.68 -0.573274 -1.46804 0
M  V30 14277 C 1372.9 -0.0586717 -2.07317 0
M  V30 14278 C 1373.33 1.2328 -1.42069 0
M  V30 14279 O 1372.68 1.74235 -0.501188 0
M  V30 14280 C 1372.73 0.103503 -3.60451 0
M  V30 14281 O 1371.84 1.16229 -3.95682 0
M  V30 14282 H 1371.18 -0.0585504 -0.661414 0
M  V30 14283 H 1373.71 -0.793532 -1.88585 0
M  V30 14284 H 1373.72 0.312658 -4.068 0
M  V30 14285 H 1372.39 -0.839684 -4.07335 0
M  V30 14286 H 1370.97 0.932347 -3.61056 0
M  V30 14287 N 1373.15 1.5451 -0.310553 0
M  V30 14288 C 1374.38 2.05204 0.301013 0
M  V30 14289 C 1374.8 1.1859 1.46007 0
M  V30 14290 O 1374.16 0.192081 1.8028 0
M  V30 14291 C 1374.21 3.53221 0.725767 0
M  V30 14292 O 1373.31 3.69596 1.82955 0
M  V30 14293 H 1372.66 0.661566 0.0568026 0
M  V30 14294 H 1375.19 1.99473 -0.455178 0
M  V30 14295 H 1375.2 3.9525 1.01198 0
M  V30 14296 H 1373.87 4.15721 -0.122046 0
M  V30 14297 H 1372.45 3.39472 1.54315 0
M  V30 14298 N 1374.63 0.0384594 1.57553 0
M  V30 14299 C 1375.86 -0.651613 1.96898 0
M  V30 14300 C 1376.28 -1.64328 0.915308 0
M  V30 14301 O 1375.64 -1.80883 -0.122824 0
M  V30 14302 C 1375.69 -1.32613 3.3533 0
M  V30 14303 O 1374.79 -2.44159 3.32355 0
M  V30 14304 H 1374.13 -0.170441 0.641752 0
M  V30 14305 H 1376.66 0.103086 2.0434 0
M  V30 14306 H 1376.67 -1.68076 3.71772 0
M  V30 14307 H 1375.35 -0.599275 4.1156 0
M  V30 14308 H 1373.93 -2.10738 3.07642 0
M  V30 14309 N 1376.11 -1.55841 -0.234795 0
M  V30 14310 C 1377.06 -1.92165 -1.31055 0
M  V30 14311 C 1378.05 -0.802106 -1.49207 0
M  V30 14312 O 1379.26 -0.986832 -1.50538 0
M  V30 14313 H 1375.63 -0.610487 -0.439101 0
M  V30 14314 H 1377.61 -2.81955 -0.976926 0
M  V30 14315 C 1376.35 -2.24329 -2.65654 0
M  V30 14316 H 1375.68 -3.09982 -2.5249 0
M  V30 14317 H 1377.12 -2.53639 -3.3977 0
M  V30 14318 C 1375.58 -1.0638 -3.19664 0
M  V30 14319 O 1376.11 -0.318047 -4.00439 0
M  V30 14320 N 1374.31 -0.851167 -2.77855 0
M  V30 14321 H 1373.86 -1.45932 -2.12277 0
M  V30 14322 H 1373.82 -0.0636875 -3.14335 0
M  V30 14323 N 1377.59 0.500963 -1.49426 0
M  V30 14324 C 1378.82 1.27911 -1.62624 0
M  V30 14325 C 1379.23 1.86439 -0.297651 0
M  V30 14326 O 1378.59 1.67831 0.716879 0
M  V30 14327 C 1378.64 2.40934 -2.69505 0
M  V30 14328 O 1378.36 1.84811 -3.97211 0
M  V30 14329 C 1379.86 3.32305 -2.93408 0
M  V30 14330 H 1377.08 0.387951 -0.547481 0
M  V30 14331 H 1379.63 0.601372 -1.95458 0
M  V30 14332 H 1377.78 3.04537 -2.39449 0
M  V30 14333 H 1378.2 2.59011 -4.56085 0
M  V30 14334 H 1379.67 4.0789 -3.71927 0
M  V30 14335 H 1380.15 3.89301 -2.03325 0
M  V30 14336 H 1380.75 2.74467 -3.24881 0
M  V30 14337 N 1379.07 1.38501 0.752011 0
M  V30 14338 C 1380.29 1.38212 1.54636 0
M  V30 14339 C 1380.72 -0.0256356 1.88083 0
M  V30 14340 O 1380.08 -1.00812 1.50687 0
M  V30 14341 C 1380.12 2.24597 2.82114 0
M  V30 14342 O 1379.23 1.66415 3.77332 0
M  V30 14343 H 1378.57 0.47138 0.46765 0
M  V30 14344 H 1381.1 1.82283 0.929205 0
M  V30 14345 H 1381.11 2.38511 3.31023 0
M  V30 14346 H 1379.78 3.26913 2.57101 0
M  V30 14347 H 1378.36 1.61651 3.36041 0
M  V30 14348 N 1380.55 -0.980364 1.23396 0
M  V30 14349 C 1381.96 -1.53622 1.061 0
M  V30 14350 C 1382.31 -1.92648 -0.371645 0
M  V30 14351 O 1381.43 -1.76051 -1.25837 0
M  V30 14352 C 1382.03 -2.79159 1.91979 0
M  V30 14353 C 1380.59 -3.31144 1.78943 0
M  V30 14354 C 1379.73 -2.04135 1.87681 0
M  V30 14355 H 1382.68 -0.800047 1.37058 0
M  V30 14356 H 1382.71 -3.52011 1.4446 0
M  V30 14357 H 1382.22 -2.50723 2.96242 0
M  V30 14358 H 1380.32 -3.64459 0.774634 0
M  V30 14359 H 1380.43 -4.009 2.62329 0
M  V30 14360 H 1378.8 -2.18271 1.31262 0
M  V30 14361 H 1379.58 -1.78081 2.93499 0
M  V30 14362 N 1382.02 -1.04567 -1.17913 0
M  V30 14363 C 1383.25 -0.771084 -1.91671 0
M  V30 14364 C 1383.66 0.676261 -1.76701 0
M  V30 14365 O 1383 1.47314 -1.09746 0
M  V30 14366 C 1383.07 -1.06406 -3.43392 0
M  V30 14367 C 1382.73 -2.50632 -3.82142 0
M  V30 14368 C 1383.73 -3.48825 -3.85509 0
M  V30 14369 C 1381.41 -2.85476 -4.1329 0
M  V30 14370 C 1383.41 -4.79909 -4.19483 0
M  V30 14371 C 1381.09 -4.16766 -4.46934 0
M  V30 14372 C 1382.09 -5.13793 -4.50007 0
M  V30 14373 O 1381.78 -6.42728 -4.82862 0
M  V30 14374 H 1381.51 -0.280258 -0.615168 0
M  V30 14375 H 1384.07 -1.39781 -1.50501 0
M  V30 14376 H 1382.3 -0.380221 -3.84826 0
M  V30 14377 H 1383.98 -0.776475 -3.98404 0
M  V30 14378 H 1384.75 -3.23245 -3.61577 0
M  V30 14379 H 1380.63 -2.10621 -4.10073 0
M  V30 14380 H 1384.17 -5.55638 -4.21796 0
M  V30 14381 H 1380.07 -4.42111 -4.70328 0
M  V30 14382 H 1380.84 -6.47454 -5.00744 0
M  V30 14383 N 1383.5 1.34231 -0.825823 0
M  V30 14384 C 1384.73 2.02949 -0.427354 0
M  V30 14385 C 1385.15 1.61772 0.959755 0
M  V30 14386 O 1384.51 0.803799 1.62508 0
M  V30 14387 C 1384.56 3.56522 -0.540799 0
M  V30 14388 O 1383.66 4.10065 0.438213 0
M  V30 14389 H 1383 0.640378 -0.175535 0
M  V30 14390 H 1385.53 1.71416 -1.11704 0
M  V30 14391 H 1385.54 4.05857 -0.41763 0
M  V30 14392 H 1384.22 3.85839 -1.55246 0
M  V30 14393 H 1382.79 3.71894 0.273687 0
M  V30 14394 N 1384.98 0.581051 1.46498 0
M  V30 14395 C 1386.23 0.0660934 2.02692 0
M  V30 14396 C 1386.56 -1.28985 1.45178 0
M  V30 14397 O 1385.83 -1.84479 0.616247 0
M  V30 14398 C 1386.12 -0.00145411 3.601 0
M  V30 14399 C 1385.97 1.38327 4.28002 0
M  V30 14400 C 1387.29 -0.702914 4.3445 0
M  V30 14401 H 1384.41 0.0254923 0.736559 0
M  V30 14402 H 1387.05 0.74793 1.7466 0
M  V30 14403 H 1385.2 -0.582118 3.84114 0
M  V30 14404 H 1386.87 2.00897 4.15257 0
M  V30 14405 H 1385.11 1.95144 3.87429 0
M  V30 14406 H 1385.79 1.28849 5.36751 0
M  V30 14407 H 1388.26 -0.209641 4.15572 0
M  V30 14408 H 1387.14 -0.719202 5.44168 0
M  V30 14409 H 1387.4 -1.76389 4.05388 0
M  V30 14410 N 1386.46 -1.54343 0.318742 0
M  V30 14411 C 1387.39 -2.21652 -0.583351 0
M  V30 14412 C 1388.4 -1.21494 -1.08366 0
M  V30 14413 O 1389.59 -1.4799 -0.998064 0
M  V30 14414 C 1386.69 -2.86349 -1.81266 0
M  V30 14415 C 1385.86 -4.12601 -1.45186 0
M  V30 14416 C 1384.92 -4.60937 -2.53818 0
M  V30 14417 O 1383.95 -5.25731 -2.18164 0
M  V30 14418 N 1385.15 -4.34755 -3.84667 0
M  V30 14419 H 1387.92 -2.99699 -0.00703539 0
M  V30 14420 H 1385.48 -1.61278 0.141728 0
M  V30 14421 H 1387.47 -3.15611 -2.53321 0
M  V30 14422 H 1386.04 -2.12037 -2.29693 0
M  V30 14423 H 1385.26 -3.90157 -0.563143 0
M  V30 14424 H 1386.55 -4.94774 -1.18642 0
M  V30 14425 H 1385.95 -3.82883 -4.16434 0
M  V30 14426 H 1384.5 -4.68683 -4.52967 0
M  V30 14427 N 1387.94 -0.0468143 -1.5753 0
M  V30 14428 C 1388.87 0.958157 -2.08211 0
M  V30 14429 C 1389.88 1.27757 -1.00906 0
M  V30 14430 O 1391.07 1.23913 -1.28483 0
M  V30 14431 C 1388.17 2.28088 -2.50657 0
M  V30 14432 C 1387.34 2.14403 -3.81248 0
M  V30 14433 C 1386.4 3.29761 -4.10054 0
M  V30 14434 O 1385.43 3.05859 -4.8004 0
M  V30 14435 N 1386.63 4.54104 -3.61621 0
M  V30 14436 H 1389.39 0.525612 -2.95055 0
M  V30 14437 H 1386.96 0.139532 -1.61298 0
M  V30 14438 H 1388.95 3.04121 -2.67007 0
M  V30 14439 H 1387.52 2.62924 -1.69085 0
M  V30 14440 H 1386.74 1.22988 -3.74523 0
M  V30 14441 H 1388.03 2.02482 -4.66775 0
M  V30 14442 H 1387.42 4.76414 -3.05034 0
M  V30 14443 H 1385.98 5.27246 -3.83217 0
M  V30 14444 N 1389.41 1.55964 0.226527 0
M  V30 14445 C 1390.83 1.48844 0.575999 0
M  V30 14446 C 1391.03 0.740966 1.87382 0
M  V30 14447 O 1390.09 0.278599 2.50958 0
M  V30 14448 C 1391.4 2.93371 0.65984 0
M  V30 14449 C 1392.95 3.03862 0.750802 0
M  V30 14450 C 1393.42 4.49738 0.86603 0
M  V30 14451 N 1394.91 4.5376 0.930379 0
M  V30 14452 C 1395.65 5.63905 1.03916 0
M  V30 14453 N 1395.14 6.83814 1.1122 0
M  V30 14454 N 1396.94 5.51746 1.07391 0
M  V30 14455 H 1389.09 2.02991 -0.625179 0
M  V30 14456 H 1391.35 0.922435 -0.218674 0
M  V30 14457 H 1391.06 3.50985 -0.22411 0
M  V30 14458 H 1390.93 3.44994 1.52509 0
M  V30 14459 H 1393.32 2.46316 1.6252 0
M  V30 14460 H 1393.4 2.55416 -0.140019 0
M  V30 14461 H 1393.04 5.079 -0.00388632 0
M  V30 14462 H 1392.97 4.95884 1.77219 0
M  V30 14463 H 1395.46 3.67404 0.884451 0
M  V30 14464 H 1395.78 7.63507 1.19484 0
M  V30 14465 H 1394.12 6.86535 1.08142 0
M  V30 14466 H 1397.31 4.56997 1.01347 0
M  V30 14467 H 1397.49 6.37619 1.15523 0
M  V30 14468 N 1390.89 -0.493031 1.4969 0
M  V30 14469 C 1391.86 -1.57598 1.6642 0
M  V30 14470 C 1392.86 -1.51615 0.535668 0
M  V30 14471 O 1394.05 -1.54626 0.802283 0
M  V30 14472 C 1391.18 -2.97249 1.66901 0
M  V30 14473 H 1392.37 -1.4409 2.63017 0
M  V30 14474 H 1389.92 -0.717846 1.3884 0
M  V30 14475 H 1390.66 -3.16225 0.719164 0
M  V30 14476 H 1390.44 -3.02999 2.48865 0
M  V30 14477 H 1391.93 -3.75914 1.81874 0
M  V30 14478 N 1392.37 -1.38898 -0.744656 0
M  V30 14479 C 1393.62 -1.35327 -1.50104 0
M  V30 14480 C 1393.94 0.0532788 -1.94927 0
M  V30 14481 O 1393.21 1.0027 -1.68294 0
M  V30 14482 H 1391.79 -0.49797 -0.556808 0
M  V30 14483 H 1394.45 -1.73667 -0.884625 0
M  V30 14484 H 1393.55 -2.00983 -2.38773 0
M  V30 14485 N 1393.85 0.973806 -1.23914 0
M  V30 14486 C 1394.8 2.05229 -0.993221 0
M  V30 14487 C 1395.78 1.60776 0.0631684 0
M  V30 14488 O 1396.97 1.76365 -0.149794 0
M  V30 14489 C 1394.1 3.38132 -0.593421 0
M  V30 14490 C 1393.19 3.89165 -1.68556 0
M  V30 14491 N 1393.58 4.13203 -2.91714 0
M  V30 14492 C 1391.88 4.17765 -1.56167 0
M  V30 14493 C 1392.58 4.54961 -3.62471 0
M  V30 14494 N 1391.56 4.59778 -2.90009 0
M  V30 14495 H 1395.36 2.21781 -1.92848 0
M  V30 14496 H 1392.87 1.15711 -1.1395 0
M  V30 14497 H 1394.87 4.14991 -0.398491 0
M  V30 14498 H 1393.53 3.2297 0.33472 0
M  V30 14499 H 1394.54 4.00832 -3.27954 0
M  V30 14500 H 1391.22 4.11571 -0.701112 0
M  V30 14501 H 1392.61 4.82022 -4.68085 0
M  V30 14502 N 1395.33 1.05191 1.17357 0
M  V30 14503 C 1396.27 0.646796 2.23426 0
M  V30 14504 C 1397.27 -0.331918 1.66116 0
M  V30 14505 O 1398.47 -0.197982 1.78908 0
M  V30 14506 H 1394.85 0.190988 0.727343 0
M  V30 14507 H 1396.82 1.55152 2.54893 0
M  V30 14508 C 1395.57 0.037505 3.4768 0
M  V30 14509 H 1394.89 0.781686 3.92084 0
M  V30 14510 H 1396.33 -0.20858 4.23487 0
M  V30 14511 C 1394.79 -1.21581 3.14197 0
M  V30 14512 O 1395.32 -2.3052 3.28973 0
M  V30 14513 N 1393.53 -1.11346 2.68422 0
M  V30 14514 H 1393.07 -0.226943 2.56598 0
M  V30 14515 H 1393.03 -1.95291 2.46392 0
M  V30 14516 N 1396.8 -1.33791 0.83293 0
M  V30 14517 C 1397.75 -2.31249 0.250357 0
M  V30 14518 C 1398.75 -1.57865 -0.614403 0
M  V30 14519 O 1399.95 -1.72782 -0.504627 0
M  V30 14520 H 1396.33 -0.749421 0.0622268 0
M  V30 14521 H 1398.3 -2.77899 1.08697 0
M  V30 14522 C 1397.05 -3.43082 -0.564783 0
M  V30 14523 H 1396.37 -3.99696 0.0913189 0
M  V30 14524 H 1397.81 -4.13486 -0.938351 0
M  V30 14525 C 1396.27 -2.88414 -1.74124 0
M  V30 14526 O 1396.8 -2.84113 -2.83976 0
M  V30 14527 N 1395.01 -2.45101 -1.56121 0
M  V30 14528 H 1394.55 -2.48799 -0.667607 0
M  V30 14529 H 1394.51 -2.08875 -2.34986 0
M  V30 14530 N 1398.28 -0.588812 -1.46187 0
M  V30 14531 C 1399.25 0.130803 -2.28826 0
M  V30 14532 C 1400.25 0.813037 -1.38731 0
M  V30 14533 O 1401.44 0.664061 -1.61046 0
M  V30 14534 C 1398.57 1.19484 -3.19275 0
M  V30 14535 H 1399.76 -0.595514 -2.93928 0
M  V30 14536 H 1397.31 -0.347038 -1.52399 0
M  V30 14537 H 1398.05 1.95254 -2.58933 0
M  V30 14538 H 1397.83 0.710077 -3.85617 0
M  V30 14539 H 1399.32 1.69938 -3.81459 0
M  V30 14540 N 1399.76 1.54172 -0.326923 0
M  V30 14541 C 1400.71 2.25931 0.552996 0
M  V30 14542 C 1401.7 1.27463 1.11578 0
M  V30 14543 O 1402.91 1.45228 1.06343 0
M  V30 14544 H 1399.28 0.725741 0.196988 0
M  V30 14545 H 1401.25 2.98307 -0.0744603 0
M  V30 14546 C 1400 3.03276 1.70056 0
M  V30 14547 H 1399.33 3.78865 1.27676 0
M  V30 14548 H 1400.77 3.56727 2.29177 0
M  V30 14549 C 1399.23 2.11775 2.62017 0
M  V30 14550 O 1399.76 1.70282 3.63822 0
M  V30 14551 N 1397.96 1.77195 2.30327 0
M  V30 14552 H 1397.51 2.11135 1.4758 0
M  V30 14553 H 1397.47 1.16253 2.92117 0
M  V30 14554 N 1401.24 0.0551678 1.57503 0
M  V30 14555 C 1402.2 -0.903065 2.10659 0
M  V30 14556 C 1403.2 -1.23728 1.02703 0
M  V30 14557 O 1404.39 -1.17331 1.2876 0
M  V30 14558 C 1401.52 -2.21171 2.59415 0
M  V30 14559 H 1402.72 -0.442197 2.96622 0
M  V30 14560 H 1400.27 -0.193297 1.551 0
M  V30 14561 H 1401 -2.71831 1.76858 0
M  V30 14562 H 1400.79 -1.98216 3.38309 0
M  V30 14563 H 1402.28 -2.89802 3.00674 0
M  V30 14564 N 1402.72 -1.56081 -0.218252 0
M  V30 14565 C 1403.96 -1.79247 -0.942157 0
M  V30 14566 C 1404.29 -0.624492 -1.84202 0
M  V30 14567 O 1403.55 0.390973 -1.91755 0
M  V30 14568 C 1403.85 -3.08199 -1.80965 0
M  V30 14569 C 1403.51 -4.38197 -1.06274 0
M  V30 14570 C 1402.17 -4.73517 -0.856432 0
M  V30 14571 C 1404.53 -5.18441 -0.535532 0
M  V30 14572 C 1401.85 -5.86595 -0.111065 0
M  V30 14573 C 1404.21 -6.32295 0.196507 0
M  V30 14574 C 1402.87 -6.66215 0.414041 0
M  V30 14575 H 1402.14 -0.655913 -0.34476 0
M  V30 14576 H 1404.79 -1.90344 -0.210095 0
M  V30 14577 H 1403.09 -2.92238 -2.60967 0
M  V30 14578 H 1404.79 -3.23325 -2.37196 0
M  V30 14579 H 1401.38 -4.10466 -1.23352 0
M  V30 14580 H 1405.56 -4.91586 -0.682386 0
M  V30 14581 H 1400.82 -6.11363 0.0676711 0
M  V30 14582 H 1404.99 -6.93701 0.612516 0
M  V30 14583 H 1402.62 -7.5368 0.993532 0
M  V30 14584 N 1404.2 0.485086 -1.49949 0
M  V30 14585 C 1405.47 1.24639 -1.50747 0
M  V30 14586 C 1405.85 2.09683 -0.244162 0
M  V30 14587 O 1405.2 2.1503 0.772949 0
M  V30 14588 C 1405.41 2.08946 -2.7954 0
M  V30 14589 C 1406.76 2.67604 -3.29656 0
M  V30 14590 O 1407.78 2.192 -2.80766 0
M  V30 14591 O 1406.64 3.55761 -4.14845 0
M  V30 14592 H 1403.74 0.564849 -0.604049 0
M  V30 14593 H 1406.28 0.498052 -1.62227 0
M  V30 14594 H 1405.05 1.46185 -3.62968 0
M  V30 14595 H 1404.68 2.90941 -2.70997 0
M  V30 14596 N 1405.67 1.39291 0.737279 0
M  V30 14597 C 1406.9 1.39659 1.52653 0
M  V30 14598 C 1407.32 -0.00948259 1.88798 0
M  V30 14599 O 1406.67 -0.980249 1.53939 0
M  V30 14600 C 1406.72 2.2674 2.81552 0
M  V30 14601 O 1406.45 3.61871 2.46943 0
M  V30 14602 C 1407.95 2.35466 3.75594 0
M  V30 14603 H 1405.17 0.477108 0.471814 0
M  V30 14604 H 1407.71 1.83077 0.911205 0
M  V30 14605 H 1405.87 1.86741 3.39421 0
M  V30 14606 H 1406.28 4.07897 3.29728 0
M  V30 14607 H 1407.75 3.00649 4.62941 0
M  V30 14608 H 1408.23 1.37314 4.17183 0
M  V30 14609 H 1408.84 2.75925 3.23644 0
M  V30 14610 N 1407.15 -0.967221 1.24429 0
M  V30 14611 C 1408.1 -2.06187 1.03709 0
M  V30 14612 C 1409.07 -1.66025 -0.0497665 0
M  V30 14613 O 1410.25 -1.90511 0.104951 0
M  V30 14614 C 1407.39 -3.38952 0.648477 0
M  V30 14615 C 1406.51 -3.92306 1.80886 0
M  V30 14616 C 1405.64 -5.13342 1.36579 0
M  V30 14617 C 1404.68 -5.58893 2.49609 0
M  V30 14618 N 1403.82 -6.71148 2.06165 0
M  V30 14619 H 1408.66 -2.23244 1.97399 0
M  V30 14620 H 1406.19 -1.09415 0.983192 0
M  V30 14621 H 1408.15 -4.15237 0.40419 0
M  V30 14622 H 1406.78 -3.21819 -0.25142 0
M  V30 14623 H 1405.83 -3.12656 2.1668 0
M  V30 14624 H 1407.15 -4.22071 2.65815 0
M  V30 14625 H 1406.3 -5.97003 1.0804 0
M  V30 14626 H 1405.04 -4.85262 0.487051 0
M  V30 14627 H 1404.04 -4.73805 2.78906 0
M  V30 14628 H 1405.27 -5.88987 3.3804 0
M  V30 14629 H 1403.22 -6.44802 1.20691 0
M  V30 14630 H 1403.13 -7.00366 2.84647 0
M  V30 14631 H 1404.4 -7.5825 1.80769 0
M  V30 14632 N 1408.63 -1.05812 -1.16797 0
M  V30 14633 C 1409.88 -0.770398 -1.8684 0
M  V30 14634 C 1410.2 0.704986 -1.8181 0
M  V30 14635 O 1409.47 1.50977 -1.24832 0
M  V30 14636 H 1408.05 -0.281989 -0.691731 0
M  V30 14637 H 1410.71 -1.33859 -1.41661 0
M  V30 14638 H 1409.81 -1.09094 -2.92412 0
M  V30 14639 N 1410.11 1.33347 -0.840014 0
M  V30 14640 C 1411.33 2.02485 -0.448856 0
M  V30 14641 C 1411.76 1.62781 0.942543 0
M  V30 14642 O 1411.12 0.82099 1.61646 0
M  V30 14643 C 1411.16 3.55928 -0.578582 0
M  V30 14644 O 1410.27 4.10507 0.394695 0
M  V30 14645 H 1409.61 0.63848 -0.182317 0
M  V30 14646 H 1412.14 1.70221 -1.13516 0
M  V30 14647 H 1412.15 4.05391 -0.460653 0
M  V30 14648 H 1410.82 3.8417 -1.5933 0
M  V30 14649 H 1409.4 3.72164 0.234227 0
M  V30 14650 N 1411.59 0.596556 1.45873 0
M  V30 14651 C 1412.52 -0.116229 2.33211 0
M  V30 14652 C 1413.5 -0.869868 1.46176 0
M  V30 14653 O 1414.68 -0.842599 1.74968 0
M  V30 14654 C 1411.81 -1.12145 3.28696 0
M  V30 14655 C 1410.77 -0.481749 4.2528 0
M  V30 14656 C 1410.09 -1.59443 5.10374 0
M  V30 14657 C 1411.39 0.589996 5.18957 0
M  V30 14658 H 1413.09 0.613005 2.93057 0
M  V30 14659 H 1410.63 0.296242 1.4092 0
M  V30 14660 H 1412.58 -1.62857 3.88659 0
M  V30 14661 H 1411.31 -1.88114 2.66985 0
M  V30 14662 H 1409.97 0.0044092 3.666 0
M  V30 14663 H 1409.62 -2.34413 4.45039 0
M  V30 14664 H 1409.32 -1.17197 5.75794 0
M  V30 14665 H 1410.84 -2.10404 5.73204 0
M  V30 14666 H 1412.25 0.167395 5.73056 0
M  V30 14667 H 1410.65 0.933565 5.92794 0
M  V30 14668 H 1411.72 1.47093 4.62052 0
M  V30 14669 N 1413.06 -1.53996 0.335095 0
M  V30 14670 C 1413.97 -2.28436 -0.534244 0
M  V30 14671 C 1414.99 -1.33224 -1.11926 0
M  V30 14672 O 1416.17 -1.66252 -1.13676 0
M  V30 14673 C 1413.23 -3.03634 -1.67354 0
M  V30 14674 C 1412.29 -4.14455 -1.11916 0
M  V30 14675 C 1411.52 -4.86058 -2.20416 0
M  V30 14676 O 1411.75 -4.57263 -3.40979 0
M  V30 14677 O 1410.68 -5.72704 -1.85185 0
M  V30 14678 H 1414.51 -3.03618 0.0706314 0
M  V30 14679 H 1412.09 -1.49062 0.100409 0
M  V30 14680 H 1413.97 -3.50687 -2.33659 0
M  V30 14681 H 1412.65 -2.31317 -2.26438 0
M  V30 14682 H 1411.56 -3.71725 -0.420871 0
M  V30 14683 H 1412.89 -4.8885 -0.573295 0
M  V30 14684 N 1414.54 -0.0635198 -1.57472 0
M  V30 14685 C 1415.49 0.924358 -2.13444 0
M  V30 14686 C 1416.48 1.31389 -1.06927 0
M  V30 14687 O 1417.69 1.2921 -1.25319 0
M  V30 14688 H 1414.06 0.316003 -0.682383 0
M  V30 14689 H 1416.04 0.427281 -2.95325 0
M  V30 14690 C 1414.78 2.18546 -2.70431 0
M  V30 14691 H 1414.11 1.89455 -3.52061 0
M  V30 14692 H 1415.55 2.85799 -3.13201 0
M  V30 14693 C 1414.01 2.93845 -1.64794 0
M  V30 14694 O 1414.54 3.87242 -1.06802 0
M  V30 14695 N 1412.74 2.568 -1.36023 0
M  V30 14696 H 1412.29 1.80924 -1.83369 0
M  V30 14697 H 1412.25 3.07486 -0.655741 0
M  V30 14698 N 1416.02 1.56195 0.209972 0
M  V30 14699 C 1416.97 1.89755 1.26401 0
M  V30 14700 C 1417.95 0.761731 1.41727 0
M  V30 14701 O 1419.15 1.02435 1.44347 0
M  V30 14702 C 1416.27 2.22775 2.61201 0
M  V30 14703 C 1415.36 3.42777 2.49729 0
M  V30 14704 N 1415.75 4.61089 2.0792 0
M  V30 14705 C 1414.05 3.46621 2.8066 0
M  V30 14706 C 1414.75 5.43249 2.07979 0
M  V30 14707 N 1413.73 4.83263 2.48913 0
M  V30 14708 H 1417.53 2.78736 0.93184 0
M  V30 14709 H 1415.04 1.56915 0.418485 0
M  V30 14710 H 1417.04 2.44997 3.37316 0
M  V30 14711 H 1415.7 1.35112 2.95254 0
M  V30 14712 H 1416.71 4.86033 1.78865 0
M  V30 14713 H 1413.39 2.69334 3.19007 0
M  V30 14714 H 1414.78 6.47981 1.77681 0
M  V30 14715 N 1417.5 -0.477127 1.50204 0
M  V30 14716 C 1418.74 -1.23956 1.62525 0
M  V30 14717 C 1419.1 -1.89385 0.315789 0
M  V30 14718 O 1420.3 -2.66955 0.314378 0
M  V30 14719 C 1418.57 -2.25999 2.76874 0
M  V30 14720 S 1420.13 -3.11262 3.09292 0
M  V30 14721 H 1416.95 -0.420931 0.573008 0
M  V30 14722 H 1419.55 -0.537592 1.87963 0
M  V30 14723 H 1418.26 -1.76501 3.70507 0
M  V30 14724 H 1417.79 -3.00832 2.53503 0
M  V30 14725 H 1419.8 -4.27061 2.52652 0
M  V30 14726 N 1418.98 -1.3968 -0.729882 0
M  V30 14727 C 1420.2 -1.40467 -1.5191 0
M  V30 14728 C 1420.62 -0.000529943 -1.888 0
M  V30 14729 O 1419.98 0.972072 -1.54457 0
M  V30 14730 C 1420.03 -2.2823 -2.80345 0
M  V30 14731 O 1419.75 -3.63176 -2.4502 0
M  V30 14732 C 1421.25 -2.37455 -3.74339 0
M  V30 14733 H 1418.47 -0.479604 -0.469277 0
M  V30 14734 H 1421.01 -1.83558 -0.901484 0
M  V30 14735 H 1419.17 -1.88538 -3.38426 0
M  V30 14736 H 1419.58 -4.0964 -3.2756 0
M  V30 14737 H 1421.06 -3.031 -4.6134 0
M  V30 14738 H 1421.53 -1.39525 -4.16449 0
M  V30 14739 H 1422.14 -2.77638 -3.22176 0
M  V30 14740 N 1420.45 0.960609 -1.2494 0
M  V30 14741 C 1421.7 1.70111 -1.09117 0
M  V30 14742 C 1422.02 1.91466 0.369544 0
M  V30 14743 O 1421.29 1.49749 1.26302 0
M  V30 14744 H 1419.87 0.630372 -0.400799 0
M  V30 14745 H 1422.54 1.15525 -1.56971 0
M  V30 14746 H 1421.63 2.68277 -1.5948 0
M  V30 14747 N 1421.93 1.0643 1.16234 0
M  V30 14748 C 1422.88 0.670457 2.22728 0
M  V30 14749 C 1423.87 -0.31428 1.66459 0
M  V30 14750 O 1425.08 -0.178996 1.79108 0
M  V30 14751 H 1421.46 0.198692 0.725276 0
M  V30 14752 H 1423.43 1.57846 2.53233 0
M  V30 14753 C 1422.18 0.074379 3.4762 0
M  V30 14754 H 1421.5 0.823227 3.91233 0
M  V30 14755 H 1422.94 -0.163652 4.23684 0
M  V30 14756 C 1421.4 -1.18242 3.15469 0
M  V30 14757 O 1421.93 -2.27018 3.314 0
M  V30 14758 N 1420.13 -1.08493 2.69588 0
M  V30 14759 H 1419.68 -0.199714 2.56825 0
M  V30 14760 H 1419.64 -1.92666 2.48449 0
M  V30 14761 N 1423.41 -1.329 0.847073 0
M  V30 14762 C 1424.82 -1.79813 0.502394 0
M  V30 14763 C 1425.17 -1.70017 -0.979218 0
M  V30 14764 O 1424.3 -1.25427 -1.76344 0
M  V30 14765 C 1424.89 -3.26485 0.905154 0
M  V30 14766 C 1423.45 -3.71383 0.612489 0
M  V30 14767 C 1422.6 -2.54157 1.10903 0
M  V30 14768 H 1425.55 -1.20306 1.035 0
M  V30 14769 H 1425.57 -3.79872 0.218476 0
M  V30 14770 H 1425.08 -3.33583 1.98353 0
M  V30 14771 H 1423.18 -3.69806 -0.45548 0
M  V30 14772 H 1423.3 -4.64507 1.17347 0
M  V30 14773 H 1421.66 -2.49134 0.529576 0
M  V30 14774 H 1422.44 -2.64013 2.19435 0
M  V30 14775 N 1424.89 -0.604284 -1.45555 0
M  V30 14776 C 1426.3 -0.267665 -1.57339 0
M  V30 14777 C 1426.5 1.22984 -1.59616 0
M  V30 14778 O 1425.56 2.0127 -1.52468 0
M  V30 14779 C 1426.87 -0.935923 -2.85764 0
M  V30 14780 C 1428.42 -0.911531 -2.99433 0
M  V30 14781 C 1428.9 -1.55974 -4.30623 0
M  V30 14782 N 1430.39 -1.52507 -4.37374 0
M  V30 14783 C 1431.12 -1.9958 -5.37546 0
M  V30 14784 N 1430.62 -2.54724 -6.44273 0
M  V30 14785 N 1432.41 -1.90368 -5.28882 0
M  V30 14786 H 1424.56 -1.57666 -1.42321 0
M  V30 14787 H 1426.83 -0.66028 -0.680245 0
M  V30 14788 H 1426.53 -1.99022 -2.89971 0
M  V30 14789 H 1426.41 -0.457194 -3.74419 0
M  V30 14790 H 1428.79 0.134206 -2.94795 0
M  V30 14791 H 1428.87 -1.42849 -2.12197 0
M  V30 14792 H 1428.52 -2.60479 -4.3602 0
M  V30 14793 H 1428.45 -1.01782 -5.1667 0
M  V30 14794 H 1430.94 -1.12221 -3.60853 0
M  V30 14795 H 1431.25 -2.88445 -7.16951 0
M  V30 14796 H 1429.6 -2.58761 -6.45033 0
M  V30 14797 H 1432.79 -1.47029 -4.4441 0
M  V30 14798 H 1432.96 -2.27367 -6.06802 0
M  V30 14799 N 1426.37 1.53816 -0.343257 0
M  V30 14800 C 1427.59 2.05326 0.254744 0
M  V30 14801 C 1428.01 1.21824 1.44237 0
M  V30 14802 O 1427.37 0.253507 1.80731 0
M  V30 14803 C 1427.42 3.55235 0.670075 0
M  V30 14804 O 1427.14 4.35568 -0.470322 0
M  V30 14805 C 1428.64 4.22915 1.32882 0
M  V30 14806 H 1425.86 0.669191 0.0492324 0
M  V30 14807 H 1428.4 1.98415 -0.495159 0
M  V30 14808 H 1426.56 3.6237 1.36992 0
M  V30 14809 H 1426.97 5.24315 -0.139303 0
M  V30 14810 H 1428.45 5.29197 1.57019 0
M  V30 14811 H 1428.92 3.75244 2.28229 0
M  V30 14812 H 1429.53 4.19973 0.67102 0
M  V30 14813 N 1427.84 0.0718701 1.57436 0
M  V30 14814 C 1429.09 -0.596799 1.92669 0
M  V30 14815 C 1429.41 -1.70765 0.953876 0
M  V30 14816 O 1430.61 -2.43589 1.19903 0
M  V30 14817 C 1429.07 -1.11291 3.42261 0
M  V30 14818 C 1428.68 -0.0330681 4.47988 0
M  V30 14819 C 1430.42 -1.75564 3.86494 0
M  V30 14820 C 1428.33 -0.56323 5.88712 0
M  V30 14821 H 1427.26 -0.226695 0.719114 0
M  V30 14822 H 1429.91 0.144117 1.82933 0
M  V30 14823 H 1428.29 -1.9068 3.4707 0
M  V30 14824 H 1429.46 0.741501 4.54795 0
M  V30 14825 H 1427.78 0.513438 4.13222 0
M  V30 14826 H 1430.38 -2.16261 4.89014 0
M  V30 14827 H 1430.72 -2.61566 3.23865 0
M  V30 14828 H 1431.25 -1.02798 3.84288 0
M  V30 14829 H 1427.99 0.259632 6.54986 0
M  V30 14830 H 1427.51 -1.30532 5.85424 0
M  V30 14831 H 1429.19 -1.03961 6.38593 0
M  V30 14832 N 1429.32 -1.56304 -0.201686 0
M  V30 14833 C 1430.57 -1.79433 -0.921241 0
M  V30 14834 C 1430.88 -0.643943 -1.84696 0
M  V30 14835 O 1432.09 -0.759359 -2.60665 0
M  V30 14836 C 1430.55 -3.17835 -1.68846 0
M  V30 14837 C 1430.15 -4.40655 -0.807892 0
M  V30 14838 C 1431.9 -3.50277 -2.39805 0
M  V30 14839 C 1429.81 -5.7008 -1.5736 0
M  V30 14840 H 1428.74 -0.669029 -0.34773 0
M  V30 14841 H 1431.39 -1.82667 -0.174657 0
M  V30 14842 H 1429.77 -3.08832 -2.47869 0
M  V30 14843 H 1430.94 -4.60765 -0.0567923 0
M  V30 14844 H 1429.26 -4.15873 -0.209465 0
M  V30 14845 H 1431.85 -4.44207 -2.97631 0
M  V30 14846 H 1432.2 -2.7371 -3.1367 0
M  V30 14847 H 1432.73 -3.60698 -1.67754 0
M  V30 14848 H 1429.47 -6.49595 -0.877855 0
M  V30 14849 H 1428.99 -5.53999 -2.2988 0
M  V30 14850 H 1430.67 -6.10964 -2.12912 0
M  V30 14851 N 1430.8 0.469154 -1.50455 0
M  V30 14852 C 1432.05 1.2229 -1.6178 0
M  V30 14853 C 1432.38 1.91577 -0.318073 0
M  V30 14854 O 1431.65 1.82205 0.68057 0
M  V30 14855 C 1431.94 2.26504 -2.79943 0
M  V30 14856 C 1431.79 1.61509 -4.19804 0
M  V30 14857 C 1433.11 3.27796 -2.93662 0
M  V30 14858 H 1430.23 0.443241 -0.588817 0
M  V30 14859 H 1432.87 0.516431 -1.82847 0
M  V30 14860 H 1431.02 2.86757 -2.62112 0
M  V30 14861 H 1432.69 1.04838 -4.49229 0
M  V30 14862 H 1430.94 0.918162 -4.23972 0
M  V30 14863 H 1431.61 2.37248 -4.98415 0
M  V30 14864 H 1434.08 2.77568 -3.09992 0
M  V30 14865 H 1432.96 3.98041 -3.77961 0
M  V30 14866 H 1433.22 3.92033 -2.04359 0
M  V30 14867 N 1432.28 1.40065 0.722464 0
M  V30 14868 C 1433.69 1.33876 1.30131 0
M  V30 14869 C 1434.04 0.00899369 1.96198 0
M  V30 14870 O 1433.17 -0.893082 1.97112 0
M  V30 14871 C 1433.76 2.42469 2.36631 0
M  V30 14872 C 1432.32 2.39762 2.90157 0
M  V30 14873 C 1431.47 2.23704 1.63865 0
M  V30 14874 H 1434.42 1.49971 0.519077 0
M  V30 14875 H 1434.44 2.0998 3.17315 0
M  V30 14876 H 1433.95 3.39239 1.88517 0
M  V30 14877 H 1432.05 1.46669 3.42519 0
M  V30 14878 H 1432.16 3.35092 3.42419 0
M  V30 14879 H 1430.53 1.71098 1.88674 0
M  V30 14880 H 1431.31 3.22462 1.17785 0
M  V30 14881 N 1433.76 -0.95397 1.25448 0
M  V30 14882 C 1435.17 -1.51337 1.09335 0
M  V30 14883 C 1435.52 -1.93393 -0.330698 0
M  V30 14884 O 1434.64 -1.78681 -1.22074 0
M  V30 14885 C 1435.24 -2.75024 1.97857 0
M  V30 14886 C 1433.8 -3.27274 1.85927 0
M  V30 14887 C 1432.95 -2.00108 1.91969 0
M  V30 14888 H 1435.9 -0.770795 1.38724 0
M  V30 14889 H 1435.92 -3.48867 1.51894 0
M  V30 14890 H 1435.43 -2.44383 3.01494 0
M  V30 14891 H 1433.53 -3.62734 0.851767 0
M  V30 14892 H 1433.64 -3.95245 2.70773 0
M  V30 14893 H 1432.01 -2.15438 1.35862 0
M  V30 14894 H 1432.79 -1.71816 2.97211 0
M  V30 14895 N 1435.24 -1.07045 -1.15668 0
M  V30 14896 C 1436.17 -0.709413 -2.22463 0
M  V30 14897 C 1437.15 0.30169 -1.67403 0
M  V30 14898 O 1438.33 0.175131 -1.93409 0
M  V30 14899 C 1435.46 -0.103121 -3.47147 0
M  V30 14900 C 1434.42 -1.04103 -4.15146 0
M  V30 14901 C 1433.74 -0.297656 -5.33871 0
M  V30 14902 C 1435.04 -2.37332 -4.65264 0
M  V30 14903 H 1436.74 -1.60227 -2.52918 0
M  V30 14904 H 1434.28 -0.771846 -1.21567 0
M  V30 14905 H 1436.23 0.161371 -4.21091 0
M  V30 14906 H 1434.96 0.824792 -3.16014 0
M  V30 14907 H 1433.62 -1.2904 -3.43139 0
M  V30 14908 H 1433.27 0.633618 -4.98993 0
M  V30 14909 H 1432.97 -0.922789 -5.80309 0
M  V30 14910 H 1434.49 -0.0408892 -6.10586 0
M  V30 14911 H 1435.9 -2.1674 -5.30751 0
M  V30 14912 H 1434.3 -2.95412 -5.22352 0
M  V30 14913 H 1435.37 -2.99859 -3.81068 0
M  V30 14914 N 1436.71 1.32449 -0.85411 0
M  V30 14915 C 1437.66 2.2889 -0.296341 0
M  V30 14916 C 1438.63 1.55024 0.596378 0
M  V30 14917 O 1439.82 1.8325 0.531406 0
M  V30 14918 C 1436.96 3.41315 0.509729 0
M  V30 14919 C 1436.07 4.30062 -0.40872 0
M  V30 14920 C 1435.2 5.29616 0.409928 0
M  V30 14921 C 1434.24 6.10005 -0.505953 0
M  V30 14922 N 1433.38 7.01559 0.275483 0
M  V30 14923 H 1438.22 2.75989 -1.12401 0
M  V30 14924 H 1435.76 1.35787 -0.565717 0
M  V30 14925 H 1437.71 4.05218 0.992697 0
M  V30 14926 H 1436.34 2.95367 1.30223 0
M  V30 14927 H 1435.4 3.66745 -1.01007 0
M  V30 14928 H 1436.71 4.86255 -1.11165 0
M  V30 14929 H 1435.86 5.99119 0.956083 0
M  V30 14930 H 1434.6 4.74039 1.14623 0
M  V30 14931 H 1433.61 5.39406 -1.064 0
M  V30 14932 H 1434.83 6.67667 -1.24086 0
M  V30 14933 H 1432.78 6.48412 0.994887 0
M  V30 14934 H 1432.69 7.55102 -0.368426 0
M  V30 14935 H 1433.96 7.75349 0.803382 0
M  V30 14936 N 1438.19 0.611994 1.45232 0
M  V30 14937 C 1439.42 0.115409 2.06578 0
M  V30 14938 C 1439.83 -1.20206 1.45588 0
M  V30 14939 O 1439.19 -1.73315 0.571668 0
M  V30 14940 C 1439.24 -0.0259943 3.61491 0
M  V30 14941 O 1438.96 1.23936 4.20204 0
M  V30 14942 C 1440.46 -0.553522 4.39831 0
M  V30 14943 H 1437.68 0.0708656 0.667247 0
M  V30 14944 H 1440.23 0.840977 1.86408 0
M  V30 14945 H 1438.38 -0.701909 3.80988 0
M  V30 14946 H 1438.8 1.07187 5.13431 0
M  V30 14947 H 1440.27 -0.601536 5.48713 0
M  V30 14948 H 1440.75 -1.57671 4.09923 0
M  V30 14949 H 1441.35 0.0884954 4.25208 0
M  V30 14950 N 1439.67 -1.53632 0.351409 0
M  V30 14951 C 1440.6 -2.2284 -0.536204 0
M  V30 14952 C 1441.61 -1.23765 -1.05764 0
M  V30 14953 O 1442.8 -1.50073 -0.966449 0
M  V30 14954 C 1439.9 -2.9013 -1.75151 0
M  V30 14955 C 1439.08 -4.15588 -1.36401 0
M  V30 14956 C 1438.14 -4.66217 -2.43984 0
M  V30 14957 O 1437.16 -5.3024 -2.06964 0
M  V30 14958 N 1438.36 -4.42817 -3.75358 0
M  V30 14959 H 1441.13 -2.99647 0.0565368 0
M  V30 14960 H 1438.69 -1.60942 0.175905 0
M  V30 14961 H 1440.68 -3.20913 -2.4657 0
M  V30 14962 H 1439.25 -2.16862 -2.25144 0
M  V30 14963 H 1438.47 -3.91264 -0.480258 0
M  V30 14964 H 1439.76 -4.97179 -1.08121 0
M  V30 14965 H 1439.16 -3.9163 -4.08218 0
M  V30 14966 H 1437.71 -4.78186 -4.42924 0
M  V30 14967 N 1441.15 -0.0802183 -1.57396 0
M  V30 14968 C 1442.11 0.869437 -2.12069 0
M  V30 14969 C 1443.11 1.22079 -1.04658 0
M  V30 14970 O 1444.3 1.15267 -1.3061 0
M  V30 14971 C 1441.43 2.17016 -2.62901 0
M  V30 14972 H 1442.63 0.394952 -2.97288 0
M  V30 14973 H 1440.18 0.168597 -1.55388 0
M  V30 14974 H 1440.91 2.68983 -1.8116 0
M  V30 14975 H 1440.7 1.92808 -3.4142 0
M  V30 14976 H 1442.19 2.84982 -3.05246 0
M  V30 14977 N 1442.63 1.56409 0.193394 0
M  V30 14978 C 1443.85 1.8519 0.933775 0
M  V30 14979 C 1444.28 0.663991 1.75991 0
M  V30 14980 O 1443.63 -0.387198 1.77117 0
M  V30 14981 C 1443.68 3.12212 1.80432 0
M  V30 14982 O 1442.79 2.92884 2.90332 0
M  V30 14983 H 1442.13 0.609754 0.262862 0
M  V30 14984 H 1444.66 2.03638 0.198195 0
M  V30 14985 H 1444.67 3.4305 2.20864 0
M  V30 14986 H 1443.34 3.98292 1.19733 0
M  V30 14987 H 1441.92 2.73349 2.53643 0
M  V30 14988 N 1444.1 -0.461169 1.50702 0
M  V30 14989 C 1445.01 -1.58355 1.73092 0
M  V30 14990 C 1446.03 -1.62795 0.61431 0
M  V30 14991 O 1447.21 -1.8048 0.893806 0
M  V30 14992 C 1444.27 -2.94509 1.82936 0
M  V30 14993 C 1443.33 -3.00378 3.06711 0
M  V30 14994 C 1442.56 -4.30037 3.16076 0
M  V30 14995 O 1442.79 -5.21097 2.31978 0
M  V30 14996 O 1441.72 -4.41702 4.08881 0
M  V30 14997 H 1445.55 -1.42384 2.68255 0
M  V30 14998 H 1443.13 -0.641709 1.34916 0
M  V30 14999 H 1445.01 -3.75357 1.91534 0
M  V30 15000 H 1443.69 -3.10658 0.909581 0
M  V30 15001 H 1442.6 -2.18571 3.03608 0
M  V30 15002 H 1443.93 -2.89167 3.983 0
M  V30 15003 N 1445.58 -1.40446 -0.715026 0
M  V30 15004 C 1446.83 -1.3896 -1.47709 0
M  V30 15005 C 1447.16 0.00798698 -1.94198 0
M  V30 15006 O 1446.44 0.976732 -1.68197 0
M  V30 15007 C 1446.72 -2.37955 -2.70277 0
M  V30 15008 C 1446.57 -3.8674 -2.29678 0
M  V30 15009 C 1447.89 -2.34478 -3.72435 0
M  V30 15010 H 1445.01 -0.50607 -0.535782 0
M  V30 15011 H 1447.65 -1.71585 -0.815999 0
M  V30 15012 H 1445.8 -2.10264 -3.26682 0
M  V30 15013 H 1447.47 -4.2526 -1.7875 0
M  V30 15014 H 1445.72 -4.02547 -1.61674 0
M  V30 15015 H 1446.39 -4.51524 -3.17538 0
M  V30 15016 H 1448.86 -2.59007 -3.2566 0
M  V30 15017 H 1447.74 -3.05791 -4.55832 0
M  V30 15018 H 1448 -1.35661 -4.20771 0
M  V30 15019 N 1447.06 0.947303 -1.25952 0
M  V30 15020 C 1447.99 2.0625 -1.09467 0
M  V30 15021 C 1448.97 1.701 -0.00160498 0
M  V30 15022 O 1450.16 1.93432 -0.172501 0
M  V30 15023 C 1447.29 3.39746 -0.720392 0
M  V30 15024 C 1446.24 3.89935 -1.76451 0
M  V30 15025 C 1445.57 5.2001 -1.24472 0
M  V30 15026 C 1446.87 4.15496 -3.16481 0
M  V30 15027 H 1448.56 2.203 -2.02752 0
M  V30 15028 H 1446.11 1.05858 -0.97622 0
M  V30 15029 H 1448.06 4.17221 -0.591972 0
M  V30 15030 H 1446.78 3.25656 0.248161 0
M  V30 15031 H 1445.44 3.14635 -1.8815 0
M  V30 15032 H 1445.09 5.02295 -0.266182 0
M  V30 15033 H 1444.79 5.54559 -1.94263 0
M  V30 15034 H 1446.31 6.00075 -1.12884 0
M  V30 15035 H 1447.73 4.83605 -3.07894 0
M  V30 15036 H 1446.12 4.61315 -3.83808 0
M  V30 15037 H 1447.19 3.21501 -3.62995 0
M  V30 15038 N 1448.54 1.07657 1.15099 0
M  V30 15039 C 1449.78 0.802796 1.86234 0
M  V30 15040 C 1450.12 -0.669555 1.82293 0
M  V30 15041 O 1449.39 -1.49162 1.24823 0
M  V30 15042 C 1449.68 1.3156 3.35208 0
M  V30 15043 C 1449.53 2.85272 3.47764 0
M  V30 15044 C 1450.85 0.934641 4.30061 0
M  V30 15045 H 1447.97 0.293099 0.676212 0
M  V30 15046 H 1450.61 1.33488 1.35207 0
M  V30 15047 H 1448.76 0.86298 3.78794 0
M  V30 15048 H 1450.43 3.38847 3.13018 0
M  V30 15049 H 1448.67 3.23316 2.89222 0
M  V30 15050 H 1449.34 3.16223 4.52446 0
M  V30 15051 H 1451.82 1.3247 3.9445 0
M  V30 15052 H 1450.7 1.32074 5.32774 0
M  V30 15053 H 1450.96 -0.159122 4.41814 0
M  V30 15054 N 1450.02 -1.31994 0.861122 0
M  V30 15055 C 1450.93 -2.32495 0.313555 0
M  V30 15056 C 1451.94 -1.64331 -0.571966 0
M  V30 15057 O 1453.12 -1.9582 -0.470794 0
M  V30 15058 C 1450.18 -3.43311 -0.483603 0
M  V30 15059 C 1449.24 -4.27153 0.428825 0
M  V30 15060 C 1448.48 -5.32676 -0.330383 0
M  V30 15061 O 1448.7 -5.48665 -1.55957 0
M  V30 15062 O 1447.63 -6.01116 0.307174 0
M  V30 15063 H 1451.46 -2.81234 1.14636 0
M  V30 15064 H 1449.05 -1.35734 0.624239 0
M  V30 15065 H 1450.93 -4.10877 -0.935831 0
M  V30 15066 H 1449.6 -2.9675 -1.2931 0
M  V30 15067 H 1448.51 -3.62372 0.929366 0
M  V30 15068 H 1449.84 -4.77255 1.20368 0
M  V30 15069 N 1451.49 -0.619688 -1.44906 0
M  V30 15070 C 1452.73 -0.122796 -2.04031 0
M  V30 15071 C 1453.1 1.2279 -1.47603 0
M  V30 15072 O 1454.3 1.81623 -1.98158 0
M  V30 15073 C 1452.57 -0.0968883 -3.57269 0
M  V30 15074 S 1454.13 0.33705 -4.37504 0
M  V30 15075 H 1450.95 -0.0554816 -0.708832 0
M  V30 15076 H 1453.55 -0.82051 -1.77448 0
M  V30 15077 H 1452.25 -1.08324 -3.95846 0
M  V30 15078 H 1451.78 0.622437 -3.88445 0
M  V30 15079 H 1453.8 1.58388 -4.70242 0
M  V30 15080 N 1452.97 1.53444 -0.359552 0
M  V30 15081 C 1454.25 1.93467 0.288106 0
M  V30 15082 C 1454.63 1.29256 1.66901 0
M  V30 15083 O 1453.98 0.449402 2.24037 0
M  V30 15084 C 1454.19 3.47297 0.344359 0
M  V30 15085 C 1455.54 4.20515 0.587585 0
M  V30 15086 O 1456.56 3.53646 0.425818 0
M  V30 15087 O 1455.42 5.39003 0.902119 0
M  V30 15088 H 1452.51 0.809033 0.171451 0
M  V30 15089 H 1455.06 1.64625 -0.411896 0
M  V30 15090 H 1453.83 3.86292 -0.624064 0
M  V30 15091 H 1453.45 3.82353 1.0905 0
M  V30 15092 N 1454.45 0.0885642 1.57351 0
M  V30 15093 C 1455.68 -0.588641 1.98871 0
M  V30 15094 C 1456.1 -1.61333 0.967125 0
M  V30 15095 O 1455.46 -1.81183 -0.0652149 0
M  V30 15096 C 1455.51 -1.21877 3.39379 0
M  V30 15097 O 1454.61 -2.33462 3.39955 0
M  V30 15098 H 1453.95 -0.149938 0.64685 0
M  V30 15099 H 1456.48 0.168043 2.03909 0
M  V30 15100 H 1456.49 -1.56163 3.76931 0
M  V30 15101 H 1455.17 -0.468037 4.13258 0
M  V30 15102 H 1453.74 -2.00844 3.14191 0
M  V30 15103 N 1455.93 -1.56509 -0.185096 0
M  V30 15104 C 1456.86 -1.98363 -1.23184 0
M  V30 15105 C 1457.84 -0.85709 -1.46929 0
M  V30 15106 O 1459.02 -1.12216 -1.58497 0
M  V30 15107 C 1456.15 -2.33172 -2.57387 0
M  V30 15108 C 1455.11 -3.48658 -2.48236 0
M  V30 15109 C 1454.43 -3.69171 -3.86804 0
M  V30 15110 C 1455.73 -4.82538 -1.99885 0
M  V30 15111 H 1457.43 -2.86053 -0.883982 0
M  V30 15112 H 1454.97 -1.37623 -0.423786 0
M  V30 15113 H 1456.93 -2.61048 -3.30805 0
M  V30 15114 H 1455.65 -1.42377 -2.93933 0
M  V30 15115 H 1454.31 -3.20889 -1.77273 0
M  V30 15116 H 1453.96 -2.75689 -4.20719 0
M  V30 15117 H 1453.66 -4.46868 -3.81553 0
M  V30 15118 H 1455.18 -3.99433 -4.61829 0
M  V30 15119 H 1456.6 -5.0938 -2.63068 0
M  V30 15120 H 1454.99 -5.63775 -2.05614 0
M  V30 15121 H 1456.06 -4.75453 -0.952503 0
M  V30 15122 N 1457.41 0.45317 -1.50944 0
M  V30 15123 C 1458.65 1.20568 -1.63068 0
M  V30 15124 C 1458.99 1.91229 -0.338375 0
M  V30 15125 O 1458.26 1.82916 0.661207 0
M  V30 15126 C 1458.54 2.23522 -2.8233 0
M  V30 15127 C 1458.4 1.57047 -4.21493 0
M  V30 15128 C 1459.72 3.24663 -2.97123 0
M  V30 15129 H 1456.83 0.436971 -0.593486 0
M  V30 15130 H 1459.48 0.497008 -1.83384 0
M  V30 15131 H 1457.63 2.83961 -2.65139 0
M  V30 15132 H 1459.3 1.00067 -4.50316 0
M  V30 15133 H 1457.54 0.873143 -4.24922 0
M  V30 15134 H 1458.21 2.31949 -5.00903 0
M  V30 15135 H 1460.69 2.74264 -3.12919 0
M  V30 15136 H 1459.56 3.9401 -3.82161 0
M  V30 15137 H 1459.83 3.89843 -2.08506 0
M  V30 15138 N 1458.88 1.40823 0.707568 0
M  V30 15139 C 1460.3 1.35249 1.28704 0
M  V30 15140 C 1460.65 0.0298026 1.96177 0
M  V30 15141 O 1459.77 -0.872126 1.98048 0
M  V30 15142 C 1460.37 2.44965 2.34046 0
M  V30 15143 C 1458.93 2.42826 2.87598 0
M  V30 15144 C 1458.07 2.25429 1.61483 0
M  V30 15145 H 1461.02 1.50513 0.503141 0
M  V30 15146 H 1461.04 2.13334 3.1507 0
M  V30 15147 H 1460.56 3.41219 1.84908 0
M  V30 15148 H 1458.66 1.50294 3.40944 0
M  V30 15149 H 1458.77 3.38704 3.38845 0
M  V30 15150 H 1457.13 1.73089 1.86848 0
M  V30 15151 H 1457.92 3.23693 1.14359 0
M  V30 15152 N 1460.36 -0.94061 1.26453 0
M  V30 15153 C 1461.61 -1.68937 1.12197 0
M  V30 15154 C 1461.94 -1.91309 -0.33382 0
M  V30 15155 O 1461.22 -1.49417 -1.24518 0
M  V30 15156 C 1461.5 -3.06381 1.89215 0
M  V30 15157 C 1461.35 -2.91331 3.42704 0
M  V30 15158 C 1462.67 -4.06507 1.68642 0
M  V30 15159 H 1459.79 -0.613121 0.408964 0
M  V30 15160 H 1462.43 -1.09242 1.55455 0
M  V30 15161 H 1460.58 -3.57339 1.5245 0
M  V30 15162 H 1462.25 -2.47591 3.89226 0
M  V30 15163 H 1460.5 -2.26945 3.697 0
M  V30 15164 H 1461.17 -3.88818 3.91822 0
M  V30 15165 H 1463.64 -3.64512 2.00674 0
M  V30 15166 H 1462.52 -5.0069 2.24945 0
M  V30 15167 H 1462.78 -4.37572 0.631131 0
M  V30 15168 N 1461.84 -1.08266 -1.14527 0
M  V30 15169 C 1462.79 -0.705807 -2.21633 0
M  V30 15170 C 1463.78 0.287758 -1.66938 0
M  V30 15171 O 1464.99 0.150479 -1.7937 0
M  V30 15172 H 1461.36 -0.210206 -0.722023 0
M  V30 15173 H 1463.33 -1.61855 -2.5069 0
M  V30 15174 C 1462.08 -0.129673 -3.47458 0
M  V30 15175 H 1461.41 -0.885365 -3.89873 0
M  V30 15176 H 1462.85 0.0962264 -4.23891 0
M  V30 15177 C 1461.31 1.13208 -3.1731 0
M  V30 15178 O 1461.84 2.21717 -3.34969 0
M  V30 15179 N 1460.04 1.0419 -2.7128 0
M  V30 15180 H 1459.59 0.15883 -2.5711 0
M  V30 15181 H 1459.55 1.88689 -2.51483 0
M  V30 15182 N 1463.32 1.31536 -0.86811 0
M  V30 15183 C 1464.55 2.00952 -0.492529 0
M  V30 15184 C 1464.96 1.65174 0.914487 0
M  V30 15185 O 1464.32 0.880002 1.59882 0
M  V30 15186 C 1464.37 3.55829 -0.637798 0
M  V30 15187 O 1464.09 3.90326 -1.9894 0
M  V30 15188 C 1465.59 4.42519 -0.262986 0
M  V30 15189 H 1462.81 0.642913 -0.192105 0
M  V30 15190 H 1465.36 1.6781 -1.16876 0
M  V30 15191 H 1463.51 3.87399 -0.0091406 0
M  V30 15192 H 1463.93 4.85043 -1.99583 0
M  V30 15193 H 1465.4 5.50433 -0.415591 0
M  V30 15194 H 1465.88 4.31895 0.797705 0
M  V30 15195 H 1466.48 4.16363 -0.867268 0
M  V30 15196 N 1464.8 0.627364 1.44575 0
M  V30 15197 C 1466.02 0.135576 2.06956 0
M  V30 15198 C 1466.45 -1.17922 1.46547 0
M  V30 15199 O 1465.81 -1.72255 0.565509 0
M  V30 15200 C 1465.85 0.030347 3.60587 0
M  V30 15201 O 1464.96 -1.01464 3.99724 0
M  V30 15202 H 1464.3 0.083058 0.658785 0
M  V30 15203 H 1466.83 0.862977 1.8551 0
M  V30 15204 H 1466.84 -0.161461 4.0768 0
M  V30 15205 H 1465.51 0.990285 4.03938 0
M  V30 15206 H 1464.09 -0.797701 3.64268 0
M  V30 15207 N 1466.28 -1.53251 0.367684 0
M  V30 15208 C 1467.23 -2.22578 -0.494287 0
M  V30 15209 C 1468.21 -1.22175 -1.047 0
M  V30 15210 O 1469.4 -1.47613 -0.976696 0
M  V30 15211 C 1466.53 -3.02007 -1.63238 0
M  V30 15212 C 1465.62 -4.09788 -1.09244 0
M  V30 15213 N 1466.01 -5.05048 -0.275665 0
M  V30 15214 C 1464.31 -4.24532 -1.36705 0
M  V30 15215 C 1465.01 -5.81696 0.0201973 0
M  V30 15216 N 1463.98 -5.40518 -0.577991 0
M  V30 15217 H 1467.78 -2.93583 0.136532 0
M  V30 15218 H 1465.3 -1.61446 0.175813 0
M  V30 15219 H 1467.3 -3.50193 -2.26209 0
M  V30 15220 H 1465.96 -2.32533 -2.26624 0
M  V30 15221 H 1466.97 -5.1783 0.0853053 0
M  V30 15222 H 1463.64 -3.66285 -2.00354 0
M  V30 15223 H 1465.03 -6.68444 0.680622 0
M  V30 15224 N 1467.75 -0.0969077 -1.57302 0
M  V30 15225 C 1468.7 0.872039 -2.10664 0
M  V30 15226 C 1469.69 1.24265 -1.02211 0
M  V30 15227 O 1470.88 1.21743 -1.28482 0
M  V30 15228 C 1468.01 2.13042 -2.69199 0
M  V30 15229 C 1467.09 1.78517 -3.84698 0
M  V30 15230 N 1467.49 1.14558 -4.92656 0
M  V30 15231 C 1465.78 2.08115 -3.94467 0
M  V30 15232 C 1466.48 0.986837 -5.73268 0
M  V30 15233 N 1465.46 1.50473 -5.22359 0
M  V30 15234 H 1469.26 0.373625 -2.91515 0
M  V30 15235 H 1466.78 0.10625 -1.62052 0
M  V30 15236 H 1468.77 2.83403 -3.05759 0
M  V30 15237 H 1467.43 2.63448 -1.89803 0
M  V30 15238 H 1468.44 0.812179 -5.11492 0
M  V30 15239 H 1465.12 2.60722 -3.26083 0
M  V30 15240 H 1466.51 0.48651 -6.70136 0
M  V30 15241 N 1469.23 1.56605 0.176793 0
M  V30 15242 C 1470.46 1.8617 0.91408 0
M  V30 15243 C 1470.88 0.68262 1.75277 0
M  V30 15244 O 1470.24 -0.368391 1.77518 0
M  V30 15245 C 1470.29 3.14109 1.7711 0
M  V30 15246 O 1469.39 2.95947 2.87209 0
M  V30 15247 H 1468.73 0.612507 0.25638 0
M  V30 15248 H 1471.26 2.03837 0.176586 0
M  V30 15249 H 1471.27 3.45373 2.17213 0
M  V30 15250 H 1469.95 3.9954 1.15502 0
M  V30 15251 H 1468.52 2.76024 2.50729 0
M  V30 15252 N 1470.71 -0.445159 1.51182 0
M  V30 15253 C 1471.93 -1.22249 1.67541 0
M  V30 15254 C 1472.36 -1.84446 0.368972 0
M  V30 15255 O 1471.72 -1.68463 -0.670058 0
M  V30 15256 C 1471.77 -2.288 2.78717 0
M  V30 15257 O 1470.87 -3.34094 2.41775 0
M  V30 15258 H 1470.21 -0.358516 0.558894 0
M  V30 15259 H 1472.74 -0.526696 1.97704 0
M  V30 15260 H 1472.75 -2.73708 3.02569 0
M  V30 15261 H 1471.43 -1.82906 3.73521 0
M  V30 15262 H 1470 -2.94717 2.28466 0
M  V30 15263 N 1472.19 -1.41197 -0.700089 0
M  V30 15264 C 1473.41 -1.43856 -1.494 0
M  V30 15265 C 1473.84 -0.0441877 -1.88048 0
M  V30 15266 O 1473.2 0.951503 -1.54325 0
M  V30 15267 C 1473.24 -2.34913 -2.73584 0
M  V30 15268 O 1472.35 -1.80305 -3.70896 0
M  V30 15269 H 1471.69 -0.488412 -0.449833 0
M  V30 15270 H 1474.22 -1.85606 -0.860911 0
M  V30 15271 H 1474.23 -2.50633 -3.21943 0
M  V30 15272 H 1472.9 -3.36229 -2.44791 0
M  V30 15273 H 1471.48 -1.74012 -3.29809 0
M  V30 15274 N 1473.67 0.933891 -1.2695 0
M  V30 15275 C 1474.9 1.71263 -1.15553 0
M  V30 15276 C 1475.3 1.86948 0.291059 0
M  V30 15277 O 1474.65 1.38173 1.21053 0
M  V30 15278 C 1474.71 3.13479 -1.75986 0
M  V30 15279 C 1474.37 3.21154 -3.2513 0
M  V30 15280 C 1475.37 3.03874 -4.21849 0
M  V30 15281 C 1473.05 3.44311 -3.65726 0
M  V30 15282 C 1475.05 3.09631 -5.57142 0
M  V30 15283 C 1472.74 3.49702 -5.01151 0
M  V30 15284 C 1473.73 3.32379 -5.96668 0
M  V30 15285 O 1473.42 3.37493 -7.29626 0
M  V30 15286 H 1473.15 0.542801 -0.402918 0
M  V30 15287 H 1475.71 1.17877 -1.68209 0
M  V30 15288 H 1473.94 3.6832 -1.178 0
M  V30 15289 H 1475.63 3.73295 -1.59391 0
M  V30 15290 H 1476.39 2.85832 -3.91823 0
M  V30 15291 H 1472.27 3.56847 -2.91859 0
M  V30 15292 H 1475.82 2.96028 -6.31675 0
M  V30 15293 H 1471.71 3.67267 -5.30835 0
M  V30 15294 H 1472.48 3.53988 -7.37994 0
M  V30 15295 N 1475.14 1.08871 1.13951 0
M  V30 15296 C 1476.09 0.722966 2.19184 0
M  V30 15297 C 1477.06 -0.293108 1.63493 0
M  V30 15298 O 1478.25 -0.176036 1.89986 0
M  V30 15299 C 1475.39 0.143542 3.44801 0
M  V30 15300 C 1474.5 1.21297 4.14622 0
M  V30 15301 C 1473.63 0.596902 5.27836 0
M  V30 15302 C 1472.67 1.64803 5.89497 0
M  V30 15303 N 1471.81 1.05341 6.94152 0
M  V30 15304 H 1476.65 1.62464 2.49819 0
M  V30 15305 H 1474.19 0.811803 1.22671 0
M  V30 15306 H 1476.14 -0.210153 4.1667 0
M  V30 15307 H 1474.77 -0.721426 3.14635 0
M  V30 15308 H 1473.83 1.68403 3.41093 0
M  V30 15309 H 1475.14 2.00931 4.56539 0
M  V30 15310 H 1474.29 0.191724 6.06397 0
M  V30 15311 H 1473.03 -0.231052 4.87152 0
M  V30 15312 H 1472.04 2.06282 5.09635 0
M  V30 15313 H 1473.26 2.47855 6.32254 0
M  V30 15314 H 1471.21 0.24664 6.55536 0
M  V30 15315 H 1471.12 1.7868 7.34581 0
M  V30 15316 H 1472.39 0.674253 7.76578 0
M  V30 15317 N 1476.62 -1.31073 0.875073 0
M  V30 15318 C 1477.85 -2.01223 0.502383 0
M  V30 15319 C 1478.27 -1.65223 -0.899053 0
M  V30 15320 O 1477.63 -0.863559 -1.59412 0
M  V30 15321 C 1477.68 -3.54269 0.672747 0
M  V30 15322 O 1476.78 -4.11409 -0.285718 0
M  V30 15323 H 1476.12 -0.633422 0.199181 0
M  V30 15324 H 1478.65 -1.67152 1.17989 0
M  V30 15325 H 1478.66 -4.04027 0.567973 0
M  V30 15326 H 1477.34 -3.79811 1.69459 0
M  V30 15327 H 1475.91 -3.72654 -0.135472 0
M  V30 15328 N 1478.1 -0.635022 -1.4424 0
M  V30 15329 C 1479.05 0.0675707 -2.30701 0
M  V30 15330 C 1480.02 0.832919 -1.43707 0
M  V30 15331 O 1481.2 0.813177 -1.72604 0
M  V30 15332 C 1478.34 1.04053 -3.2904 0
M  V30 15333 C 1477.46 0.273191 -4.31135 0
M  V30 15334 C 1476.59 1.23831 -5.16565 0
M  V30 15335 C 1475.63 0.460359 -6.10366 0
M  V30 15336 N 1474.77 1.37614 -6.88481 0
M  V30 15337 H 1479.61 -0.675656 -2.90239 0
M  V30 15338 H 1477.14 -0.344971 -1.42998 0
M  V30 15339 H 1479.1 1.61805 -3.84545 0
M  V30 15340 H 1477.73 1.75084 -2.71193 0
M  V30 15341 H 1476.78 -0.420315 -3.78071 0
M  V30 15342 H 1478.1 -0.332548 -4.9769 0
M  V30 15343 H 1477.25 1.88704 -5.76607 0
M  V30 15344 H 1475.99 1.87797 -4.50093 0
M  V30 15345 H 1474.99 -0.201836 -5.49429 0
M  V30 15346 H 1476.22 -0.174639 -6.78875 0
M  V30 15347 H 1474.16 2.00294 -6.24675 0
M  V30 15348 H 1474.08 0.82452 -7.5149 0
M  V30 15349 H 1475.35 2.01359 -7.53044 0
M  V30 15350 N 1479.58 1.53054 -0.375806 0
M  V30 15351 C 1480.8 2.06296 0.213708 0
M  V30 15352 C 1481.23 1.24675 1.40846 0
M  V30 15353 O 1480.59 0.268371 1.79303 0
M  V30 15354 C 1480.63 3.55981 0.575301 0
M  V30 15355 O 1479.74 3.77023 1.67115 0
M  V30 15356 H 1479.08 0.66338 0.0286922 0
M  V30 15357 H 1481.61 1.97362 -0.539371 0
M  V30 15358 H 1481.62 3.99187 0.843431 0
M  V30 15359 H 1480.29 4.14829 -0.298258 0
M  V30 15360 H 1478.87 3.45712 1.39778 0
M  V30 15361 N 1481.06 0.105248 1.57248 0
M  V30 15362 C 1482.28 -0.567515 1.99484 0
M  V30 15363 C 1482.71 -1.60298 0.984182 0
M  V30 15364 O 1482.06 -1.81242 -0.0459944 0
M  V30 15365 C 1482.11 -1.18271 3.40653 0
M  V30 15366 O 1481.22 -2.29843 3.42412 0
M  V30 15367 H 1480.56 -0.143069 0.648404 0
M  V30 15368 H 1483.09 0.189661 2.03719 0
M  V30 15369 H 1483.1 -1.52157 3.78566 0
M  V30 15370 H 1481.77 -0.424179 4.13731 0
M  V30 15371 H 1480.35 -1.975 3.16304 0
M  V30 15372 N 1482.53 -1.56697 -0.168486 0
M  V30 15373 C 1483.76 -1.86652 -0.904195 0
M  V30 15374 C 1484.18 -0.691906 -1.74912 0
M  V30 15375 O 1483.54 0.358971 -1.77711 0
M  V30 15376 C 1483.59 -3.15043 -1.75442 0
M  V30 15377 O 1482.69 -2.97466 -2.85636 0
M  V30 15378 H 1482.04 -0.613859 -0.253128 0
M  V30 15379 H 1484.57 -2.03927 -0.165773 0
M  V30 15380 H 1484.58 -3.4652 -2.15378 0
M  V30 15381 H 1483.25 -4.00147 -1.13381 0
M  V30 15382 H 1481.83 -2.7735 -2.49262 0
M  V30 15383 N 1484.01 0.437135 -1.51416 0
M  V30 15384 C 1484.96 1.55124 -1.73319 0
M  V30 15385 C 1485.95 1.58437 -0.599511 0
M  V30 15386 O 1487.16 1.62179 -0.780896 0
M  V30 15387 H 1483.54 0.515368 -0.547632 0
M  V30 15388 H 1485.51 1.33824 -2.66709 0
M  V30 15389 C 1484.26 2.92778 -1.87554 0
M  V30 15390 H 1483.58 2.9096 -2.74194 0
M  V30 15391 H 1485.02 3.70097 -2.06891 0
M  V30 15392 C 1483.48 3.30854 -0.635408 0
M  V30 15393 O 1484.01 4.01152 0.20983 0
M  V30 15394 N 1482.21 2.86618 -0.47944 0
M  V30 15395 H 1481.76 2.29582 -1.16834 0
M  V30 15396 H 1481.72 3.12456 0.349078 0
M  V30 15397 N 1485.49 1.41566 0.692592 0
M  V30 15398 C 1486.74 1.41292 1.4548 0
M  V30 15399 C 1487.07 0.0229093 1.94186 0
M  V30 15400 O 1486.34 -0.949849 1.6973 0
M  V30 15401 C 1486.63 2.42225 2.66457 0
M  V30 15402 C 1486.48 3.90345 2.23496 0
M  V30 15403 C 1487.8 2.40374 3.68658 0
M  V30 15404 H 1484.92 0.51453 0.527663 0
M  V30 15405 H 1487.56 1.72862 0.788598 0
M  V30 15406 H 1485.71 2.15435 3.23296 0
M  V30 15407 H 1487.38 4.2805 1.71962 0
M  V30 15408 H 1485.63 4.05068 1.55249 0
M  V30 15409 H 1486.3 4.56518 3.10314 0
M  V30 15410 H 1488.77 2.64156 3.21498 0
M  V30 15411 H 1487.65 3.13004 4.5091 0
M  V30 15412 H 1487.91 1.42338 4.1856 0
M  V30 15413 N 1486.97 -0.927146 1.27443 0
M  V30 15414 C 1488.2 -1.70896 1.16629 0
M  V30 15415 C 1488.61 -1.8676 -0.276811 0
M  V30 15416 O 1487.97 -1.38503 -1.18842 0
M  V30 15417 C 1488.02 -3.1083 1.84573 0
M  V30 15418 O 1487.74 -2.9571 3.23244 0
M  V30 15419 C 1489.24 -4.05159 1.79891 0
M  V30 15420 H 1486.46 -0.534638 0.405467 0
M  V30 15421 H 1489.01 -1.16134 1.68325 0
M  V30 15422 H 1487.16 -3.6245 1.3678 0
M  V30 15423 H 1487.57 -3.84181 3.57079 0
M  V30 15424 H 1489.05 -5.00859 2.32044 0
M  V30 15425 H 1489.53 -4.32426 0.768373 0
M  V30 15426 H 1490.13 -3.59464 2.273 0
M  V30 15427 N 1488.45 -1.09474 -1.13372 0
M  V30 15428 C 1489.67 -0.853093 -1.89043 0
M  V30 15429 C 1490.1 0.590075 -1.78605 0
M  V30 15430 O 1489.45 1.41462 -1.13394 0
M  V30 15431 C 1489.5 -1.29359 -3.36599 0
M  V30 15432 O 1488.61 -0.452355 -4.09912 0
M  V30 15433 H 1487.95 -0.308922 -0.587761 0
M  V30 15434 H 1490.48 -1.459 -1.43437 0
M  V30 15435 H 1490.49 -1.27921 -3.87428 0
M  V30 15436 H 1489.16 -2.3446 -3.43513 0
M  V30 15437 H 1487.74 -0.531098 -3.69099 0
M  V30 15438 N 1489.92 1.30607 -0.882012 0
M  V30 15439 C 1491.15 2.00418 -0.513815 0
M  V30 15440 C 1491.57 1.66135 0.896916 0
M  V30 15441 O 1490.92 0.89691 1.5894 0
M  V30 15442 C 1490.98 3.55133 -0.675503 0
M  V30 15443 O 1490.7 3.88194 -2.03069 0
M  V30 15444 C 1492.2 4.42215 -0.309906 0
M  V30 15445 H 1489.42 0.640839 -0.198913 0
M  V30 15446 H 1491.96 1.66561 -1.1865 0
M  V30 15447 H 1490.12 3.87367 -0.0502289 0
M  V30 15448 H 1490.53 4.82899 -2.04717 0
M  V30 15449 H 1492 5.49962 -0.473948 0
M  V30 15450 H 1492.48 4.32717 0.751852 0
M  V30 15451 H 1493.09 4.1542 -0.91138 0
M  V30 15452 N 1491.4 0.642663 1.43901 0
M  V30 15453 C 1492.63 0.157518 2.06801 0
M  V30 15454 C 1493.05 -1.16361 1.47789 0
M  V30 15455 O 1492.41 -1.71645 0.583747 0
M  V30 15456 C 1492.46 0.0685904 3.60535 0
M  V30 15457 O 1491.56 -0.972183 4.00777 0
M  V30 15458 H 1490.9 0.0900406 0.657867 0
M  V30 15459 H 1493.43 0.882604 1.84584 0
M  V30 15460 H 1493.44 -0.118212 4.07829 0
M  V30 15461 H 1492.12 1.03307 4.02865 0
M  V30 15462 H 1490.7 -0.75902 3.65094 0
M  V30 15463 N 1492.88 -1.52852 0.383918 0
M  V30 15464 C 1494.13 -2.01112 -0.199594 0
M  V30 15465 C 1494.45 -1.27237 -1.47769 0
M  V30 15466 O 1493.72 -0.390873 -1.91961 0
M  V30 15467 H 1492.3 -0.743047 -0.0767466 0
M  V30 15468 H 1494.96 -1.8799 0.51437 0
M  V30 15469 H 1494.06 -3.09347 -0.413627 0
M  V30 15470 N 1494.36 -0.113586 -1.5719 0
M  V30 15471 C 1495.31 0.849646 -2.11577 0
M  V30 15472 C 1496.29 1.23174 -1.03523 0
M  V30 15473 O 1497.49 1.20373 -1.29766 0
M  V30 15474 C 1494.61 2.10175 -2.71443 0
M  V30 15475 C 1493.7 1.74427 -3.8657 0
M  V30 15476 N 1494.09 1.09326 -4.93843 0
M  V30 15477 C 1492.39 2.03919 -3.96652 0
M  V30 15478 C 1493.09 0.925979 -5.74283 0
M  V30 15479 N 1492.07 1.44924 -5.23925 0
M  V30 15480 H 1495.87 0.342685 -2.91895 0
M  V30 15481 H 1493.38 0.0890561 -1.62156 0
M  V30 15482 H 1495.38 2.80144 -3.08747 0
M  V30 15483 H 1494.04 2.6142 -1.92587 0
M  V30 15484 H 1495.05 0.757883 -5.12325 0
M  V30 15485 H 1491.73 2.57249 -3.2883 0
M  V30 15486 H 1493.12 0.415406 -6.70615 0
M  V30 15487 N 1495.84 1.56784 0.160173 0
M  V30 15488 C 1497.06 1.87129 0.894283 0
M  V30 15489 C 1497.49 0.701172 1.74543 0
M  V30 15490 O 1496.85 -0.349542 1.77899 0
M  V30 15491 C 1496.89 3.15969 1.73769 0
M  V30 15492 O 1496 2.98977 2.84054 0
M  V30 15493 H 1495.34 0.615192 0.249869 0
M  V30 15494 H 1497.87 2.04012 0.154956 0
M  V30 15495 H 1497.88 3.47657 2.13538 0
M  V30 15496 H 1496.55 4.00742 1.11258 0
M  V30 15497 H 1495.13 2.78668 2.47788 0
M  V30 15498 N 1497.32 -0.429099 1.51646 0
M  V30 15499 C 1498.54 -1.20465 1.68828 0
M  V30 15500 C 1498.97 -1.84044 0.388514 0
M  V30 15501 O 1498.32 -1.69165 -0.652152 0
M  V30 15502 C 1498.37 -2.25831 2.81128 0
M  V30 15503 O 1497.48 -3.31511 2.45305 0
M  V30 15504 H 1496.82 -0.352568 0.562665 0
M  V30 15505 H 1499.35 -0.505698 1.98252 0
M  V30 15506 H 1499.36 -2.70484 3.05455 0
M  V30 15507 H 1498.03 -1.78934 3.7544 0
M  V30 15508 H 1496.61 -2.92277 2.31579 0
M  V30 15509 N 1498.79 -1.41931 -0.685074 0
M  V30 15510 C 1500.04 -1.41571 -1.44229 0
M  V30 15511 C 1500.36 -0.0294445 -1.94978 0
M  V30 15512 O 1499.63 0.930414 -1.72395 0
M  V30 15513 H 1498.21 -0.521138 -0.535186 0
M  V30 15514 H 1500.87 -1.77263 -0.81017 0
M  V30 15515 H 1499.97 -2.10929 -2.30034 0
M  V30 15516 N 1500.27 0.920374 -1.27933 0
M  V30 15517 C 1501.5 1.70804 -1.17647 0
M  V30 15518 C 1501.92 1.86264 0.262189 0
M  V30 15519 O 1501.28 1.36798 1.18979 0
M  V30 15520 C 1501.33 3.08142 -1.87298 0
M  V30 15521 O 1500.43 3.95279 -1.17593 0
M  V30 15522 H 1499.77 0.523267 -0.408763 0
M  V30 15523 H 1502.3 1.15127 -1.69136 0
M  V30 15524 H 1502.31 3.58414 -1.94945 0
M  V30 15525 H 1500.99 2.96208 -2.91948 0
M  V30 15526 H 1499.56 3.53716 -1.18065 0
M  V30 15527 N 1501.75 1.10074 1.1279 0
M  V30 15528 C 1502.97 0.863106 1.88587 0
M  V30 15529 C 1503.4 -0.580595 1.78915 0
M  V30 15530 O 1502.76 -1.40859 1.14142 0
M  V30 15531 C 1502.81 1.31142 3.35908 0
M  V30 15532 O 1501.91 0.474088 4.09666 0
M  V30 15533 H 1501.25 0.312034 0.586115 0
M  V30 15534 H 1503.78 1.46659 1.42662 0
M  V30 15535 H 1503.79 1.29974 3.86744 0
M  V30 15536 H 1502.47 2.36279 3.42265 0
M  V30 15537 H 1501.04 0.550665 3.68812 0
M  V30 15538 N 1503.23 -1.30138 0.888926 0
M  V30 15539 C 1504.45 -2.00679 0.523697 0
M  V30 15540 C 1504.88 -1.66167 -0.881479 0
M  V30 15541 O 1504.24 -0.880418 -1.58488 0
M  V30 15542 C 1504.28 -3.53535 0.710284 0
M  V30 15543 O 1503.39 -4.11689 -0.242066 0
M  V30 15544 H 1502.73 -0.631273 0.205888 0
M  V30 15545 H 1505.26 -1.65891 1.19756 0
M  V30 15546 H 1505.27 -4.03402 0.610794 0
M  V30 15547 H 1503.94 -3.77992 1.73478 0
M  V30 15548 H 1502.52 -3.72777 -0.0959393 0
M  V30 15549 N 1504.71 -0.650285 -1.43559 0
M  V30 15550 C 1505.95 -0.162164 -2.01448 0
M  V30 15551 C 1506.27 1.22717 -1.51544 0
M  V30 15552 O 1505.54 1.81917 -0.726855 0
M  V30 15553 H 1504.12 -0.0569599 -0.744825 0
M  V30 15554 H 1506.79 -0.841294 -1.75807 0
M  V30 15555 H 1505.88 -0.144531 -3.11765 0
M  V30 15556 N 1506.18 1.52647 -0.392018 0
M  V30 15557 C 1507.15 2.25135 0.429754 0
M  V30 15558 C 1508.15 1.26871 0.987946 0
M  V30 15559 O 1509.34 1.50947 0.86952 0
M  V30 15560 C 1506.47 3.00849 1.60321 0
M  V30 15561 H 1507.66 2.99199 -0.204918 0
M  V30 15562 H 1505.21 1.55634 -0.144188 0
M  V30 15563 H 1505.95 2.31092 2.27524 0
M  V30 15564 H 1505.73 3.72975 1.20964 0
M  V30 15565 H 1507.22 3.55879 2.18494 0
M  V30 15566 N 1507.66 0.121921 1.57128 0
M  V30 15567 C 1508.91 -0.535201 1.9447 0
M  V30 15568 C 1509.22 -1.67644 1.00772 0
M  V30 15569 O 1510.43 -2.39651 1.27592 0
M  V30 15570 C 1508.89 -1.00346 3.45628 0
M  V30 15571 C 1508.49 0.109473 4.47866 0
M  V30 15572 C 1510.24 -1.63179 3.91884 0
M  V30 15573 C 1508.15 -0.375651 5.90206 0
M  V30 15574 H 1507.08 -0.203702 0.725962 0
M  V30 15575 H 1509.73 0.202243 1.82382 0
M  V30 15576 H 1508.11 -1.79541 3.5296 0
M  V30 15577 H 1509.28 0.885815 4.52206 0
M  V30 15578 H 1507.6 0.644642 4.1138 0
M  V30 15579 H 1510.19 -2.00594 4.95647 0
M  V30 15580 H 1510.54 -2.5113 3.32023 0
M  V30 15581 H 1511.07 -0.905197 3.87364 0
M  V30 15582 H 1507.81 0.46788 6.53828 0
M  V30 15583 H 1507.33 -1.11841 5.89281 0
M  V30 15584 H 1509.01 -0.835921 6.41577 0
M  V30 15585 N 1509.14 -1.56867 -0.151857 0
M  V30 15586 C 1510.37 -1.87237 -0.880343 0
M  V30 15587 C 1510.78 -0.709565 -1.74959 0
M  V30 15588 O 1510.14 0.320818 -1.79658 0
M  V30 15589 C 1510.19 -3.16811 -1.74107 0
M  V30 15590 O 1509.91 -4.28611 -0.906858 0
M  V30 15591 C 1511.41 -3.60662 -2.57755 0
M  V30 15592 H 1508.63 -0.62074 -0.254799 0
M  V30 15593 H 1511.18 -2.03977 -0.146104 0
M  V30 15594 H 1509.33 -3.01838 -2.42842 0
M  V30 15595 H 1509.75 -5.02673 -1.49733 0
M  V30 15596 H 1511.22 -4.54176 -3.13732 0
M  V30 15597 H 1511.7 -2.85716 -3.33561 0
M  V30 15598 H 1512.3 -3.78312 -1.94319 0
M  V30 15599 N 1510.62 0.421051 -1.51871 0
M  V30 15600 C 1511.85 1.18938 -1.6893 0
M  V30 15601 C 1512.26 1.85069 -0.393198 0
M  V30 15602 O 1511.6 1.72204 0.639648 0
M  V30 15603 C 1511.66 2.30343 -2.76012 0
M  V30 15604 C 1511.33 1.84446 -4.18125 0
M  V30 15605 C 1512.32 1.33882 -5.02366 0
M  V30 15606 C 1510.01 1.91642 -4.64305 0
M  V30 15607 C 1512 0.911212 -6.30853 0
M  V30 15608 C 1509.69 1.48492 -5.92784 0
M  V30 15609 C 1510.69 0.98316 -6.75887 0
M  V30 15610 O 1510.37 0.557853 -8.01962 0
M  V30 15611 H 1510.11 0.363908 -0.56969 0
M  V30 15612 H 1512.66 0.503089 -1.99144 0
M  V30 15613 H 1510.89 3.02298 -2.41148 0
M  V30 15614 H 1512.58 2.92148 -2.81787 0
M  V30 15615 H 1513.35 1.27704 -4.67885 0
M  V30 15616 H 1509.22 2.29641 -3.99732 0
M  V30 15617 H 1512.77 0.518877 -6.95668 0
M  V30 15618 H 1508.67 1.54345 -6.26776 0
M  V30 15619 H 1509.43 0.682238 -8.15652 0
M  V30 15620 N 1512.1 1.42293 0.677538 0
M  V30 15621 C 1513.51 1.25158 0.990334 0
M  V30 15622 C 1513.71 0.153803 2.00912 0
M  V30 15623 O 1512.77 -0.475868 2.47975 0
M  V30 15624 C 1514.08 2.60745 1.49775 0
M  V30 15625 C 1515.63 2.68077 1.61566 0
M  V30 15626 C 1516.1 4.04024 2.15705 0
M  V30 15627 N 1517.6 4.05964 2.23042 0
M  V30 15628 C 1518.33 5.07968 2.66 0
M  V30 15629 N 1517.83 6.20356 3.08432 0
M  V30 15630 N 1519.62 4.95325 2.65725 0
M  V30 15631 H 1511.77 2.124 0.00295822 0
M  V30 15632 H 1514.03 0.945848 0.06384 0
M  V30 15633 H 1513.74 3.41919 0.823672 0
M  V30 15634 H 1513.61 2.84476 2.47695 0
M  V30 15635 H 1516 1.87251 2.28082 0
M  V30 15636 H 1516.08 2.48137 0.621434 0
M  V30 15637 H 1515.73 4.85306 1.498 0
M  V30 15638 H 1515.66 4.21314 3.15914 0
M  V30 15639 H 1518.15 3.24827 1.93122 0
M  V30 15640 H 1518.46 6.94043 3.39889 0
M  V30 15641 H 1516.8 6.23865 3.06296 0
M  V30 15642 H 1520 4.06599 2.31936 0
M  V30 15643 H 1520.17 5.74954 2.98884 0
M  V30 15644 N 1513.57 -0.913576 1.28419 0
M  V30 15645 C 1514.51 -2.02073 1.08163 0
M  V30 15646 C 1515.52 -1.62766 0.0333064 0
M  V30 15647 O 1516.71 -1.76347 0.27638 0
M  V30 15648 C 1513.81 -3.33151 0.621596 0
M  V30 15649 C 1512.98 -4.01068 1.74536 0
M  V30 15650 C 1512.04 -5.10428 1.27868 0
M  V30 15651 O 1511.07 -5.33617 1.98094 0
M  V30 15652 N 1512.27 -5.80326 0.141976 0
M  V30 15653 H 1515.03 -2.20009 2.0351 0
M  V30 15654 H 1512.59 -1.08488 1.20174 0
M  V30 15655 H 1514.59 -4.03638 0.292989 0
M  V30 15656 H 1513.16 -3.11685 -0.239031 0
M  V30 15657 H 1512.38 -3.24127 2.24355 0
M  V30 15658 H 1513.66 -4.4319 2.49919 0
M  V30 15659 H 1513.06 -5.63956 -0.443845 0
M  V30 15660 H 1511.62 -6.51676 -0.127354 0
M  V30 15661 N 1515.05 -1.1067 -1.12204 0
M  V30 15662 C 1515.98 -0.715581 -2.17743 0
M  V30 15663 C 1517 0.248892 -1.60886 0
M  V30 15664 O 1518.19 0.0329917 -1.7847 0
M  V30 15665 C 1515.29 -0.0356388 -3.38881 0
M  V30 15666 C 1514.46 -1.0249 -4.25223 0
M  V30 15667 C 1513.52 -0.375998 -5.24855 0
M  V30 15668 O 1512.54 -1.02753 -5.59849 0
M  V30 15669 N 1513.75 0.864525 -5.74026 0
M  V30 15670 H 1516.51 -1.62362 -2.5191 0
M  V30 15671 H 1514.07 -0.995851 -1.2765 0
M  V30 15672 H 1516.06 0.41 -4.02618 0
M  V30 15673 H 1514.63 0.77485 -3.02845 0
M  V30 15674 H 1513.85 -1.64874 -3.58065 0
M  V30 15675 H 1515.14 -1.69446 -4.79756 0
M  V30 15676 H 1514.54 1.41317 -5.47764 0
M  V30 15677 H 1513.1 1.25327 -6.39638 0
M  V30 15678 N 1516.53 1.29665 -0.895815 0
M  V30 15679 C 1517.95 1.4824 -0.591355 0
M  V30 15680 C 1518.15 1.81839 0.86815 0
M  V30 15681 O 1517.2 1.91251 1.64861 0
M  V30 15682 C 1518.52 2.59814 -1.51384 0
M  V30 15683 C 1520.06 2.73691 -1.51862 0
M  V30 15684 C 1520.54 3.8839 -2.42729 0
M  V30 15685 N 1522.03 3.95717 -2.40754 0
M  V30 15686 C 1522.76 4.83804 -3.07769 0
M  V30 15687 N 1522.26 5.7661 -3.84048 0
M  V30 15688 N 1524.05 4.77263 -2.96946 0
M  V30 15689 H 1516.2 1.06131 -1.83984 0
M  V30 15690 H 1518.47 0.526819 -0.788141 0
M  V30 15691 H 1518.17 2.4184 -2.55355 0
M  V30 15692 H 1518.05 3.56532 -1.23147 0
M  V30 15693 H 1520.43 2.91064 -0.486375 0
M  V30 15694 H 1520.52 1.77561 -1.84135 0
M  V30 15695 H 1520.16 3.71773 -3.46045 0
M  V30 15696 H 1520.09 4.8388 -2.07767 0
M  V30 15697 H 1522.58 3.29334 -1.8533 0
M  V30 15698 H 1522.89 6.40611 -4.32247 0
M  V30 15699 H 1521.24 5.76507 -3.88155 0
M  V30 15700 H 1524.43 4.03744 -2.36871 0
M  V30 15701 H 1524.6 5.45701 -3.49448 0
M  V30 15702 N 1518.01 0.657889 1.43212 0
M  V30 15703 C 1519.42 0.252443 1.84985 0
M  V30 15704 C 1519.77 -1.20196 1.55072 0
M  V30 15705 O 1518.9 -1.91803 1.00202 0
M  V30 15706 C 1519.49 0.451388 3.3578 0
M  V30 15707 C 1518.05 0.100219 3.76267 0
M  V30 15708 C 1517.2 0.752009 2.66908 0
M  V30 15709 H 1520.15 0.861239 1.33298 0
M  V30 15710 H 1520.17 -0.30169 3.79302 0
M  V30 15711 H 1519.68 1.51001 3.5752 0
M  V30 15712 H 1517.78 -0.955618 3.60137 0
M  V30 15713 H 1517.89 0.528942 4.76171 0
M  V30 15714 H 1516.26 0.184823 2.54029 0
M  V30 15715 H 1517.04 1.81375 2.91476 0
M  V30 15716 N 1519.49 -1.52437 0.400108 0
M  V30 15717 C 1520.73 -2.01312 -0.178252 0
M  V30 15718 C 1521.06 -1.28797 -1.46411 0
M  V30 15719 O 1520.33 -0.411211 -1.91536 0
M  V30 15720 H 1518.91 -0.743819 -0.0688613 0
M  V30 15721 H 1521.57 -1.87434 0.53428 0
M  V30 15722 H 1520.66 -3.09768 -0.380793 0
M  V30 15723 N 1520.96 -0.130252 -1.57061 0
M  V30 15724 C 1522.38 0.393318 -1.8251 0
M  V30 15725 C 1522.73 1.65862 -1.04806 0
M  V30 15726 O 1521.85 2.14473 -0.288118 0
M  V30 15727 C 1522.45 0.720366 -3.31053 0
M  V30 15728 C 1521.01 1.18852 -3.57143 0
M  V30 15729 C 1520.15 0.202964 -2.76556 0
M  V30 15730 H 1523.1 -0.355217 -1.54674 0
M  V30 15731 H 1523.12 1.57671 -3.46295 0
M  V30 15732 H 1522.64 -0.200719 -3.87581 0
M  V30 15733 H 1520.74 2.12612 -3.05985 0
M  V30 15734 H 1520.85 1.12607 -4.65678 0
M  V30 15735 H 1519.21 0.692264 -2.45112 0
M  V30 15736 H 1520 -0.711417 -3.35848 0
M  V30 15737 N 1522.44 1.56945 0.143535 0
M  V30 15738 C 1523.39 1.94945 1.18239 0
M  V30 15739 C 1524.38 0.821157 1.38368 0
M  V30 15740 O 1525.57 1.08465 1.39873 0
M  V30 15741 C 1522.7 2.33653 2.51518 0
M  V30 15742 C 1521.78 3.53061 2.34966 0
M  V30 15743 N 1522.18 4.69493 1.88176 0
M  V30 15744 C 1520.47 3.58213 2.65706 0
M  V30 15745 C 1521.17 5.51581 1.84751 0
M  V30 15746 N 1520.15 4.93386 2.28192 0
M  V30 15747 H 1523.95 2.82438 0.81278 0
M  V30 15748 H 1521.47 1.58549 0.351555 0
M  V30 15749 H 1523.46 2.59083 3.26621 0
M  V30 15750 H 1522.12 1.47513 2.89257 0
M  V30 15751 H 1523.13 4.93182 1.5809 0
M  V30 15752 H 1519.81 2.82622 3.07297 0
M  V30 15753 H 1521.2 6.54934 1.50038 0
M  V30 15754 N 1523.92 -0.412991 1.52093 0
M  V30 15755 C 1525.17 -1.1603 1.65962 0
M  V30 15756 C 1525.5 -1.90598 0.387652 0
M  V30 15757 O 1524.75 -1.85308 -0.629243 0
M  V30 15758 C 1525.05 -2.18321 2.82968 0
M  V30 15759 C 1524.72 -1.60589 4.21334 0
M  V30 15760 C 1523.38 -1.44568 4.5897 0
M  V30 15761 C 1525.73 -1.18388 5.07576 0
M  V30 15762 C 1523.06 -0.848584 5.80531 0
M  V30 15763 C 1525.41 -0.600985 6.29739 0
M  V30 15764 C 1524.07 -0.42788 6.66127 0
M  V30 15765 H 1523.34 -0.424583 0.607297 0
M  V30 15766 H 1525.99 -0.448028 1.86185 0
M  V30 15767 H 1524.3 -2.95678 2.57063 0
M  V30 15768 H 1525.99 -2.76009 2.90895 0
M  V30 15769 H 1522.58 -1.7404 3.91673 0
M  V30 15770 H 1526.77 -1.29576 4.79086 0
M  V30 15771 H 1522.02 -0.702447 6.07351 0
M  V30 15772 H 1526.2 -0.265583 6.95893 0
M  V30 15773 H 1523.82 0.0369013 7.60191 0
M  V30 15774 N 1525.4 -1.4265 -0.669982 0
M  V30 15775 C 1526.33 -1.42457 -1.79551 0
M  V30 15776 C 1527.34 -0.322966 -1.59564 0
M  V30 15777 O 1528.53 -0.586359 -1.68594 0
M  V30 15778 C 1525.63 -1.20561 -3.16731 0
M  V30 15779 C 1524.81 -2.43246 -3.63525 0
M  V30 15780 C 1523.87 -2.16823 -4.79452 0
M  V30 15781 O 1522.89 -2.90058 -4.8975 0
M  V30 15782 N 1524.09 -1.17436 -5.68497 0
M  V30 15783 H 1526.86 -2.39474 -1.80201 0
M  V30 15784 H 1524.42 -1.37591 -0.853244 0
M  V30 15785 H 1526.41 -1.00794 -3.91947 0
M  V30 15786 H 1524.98 -0.320497 -3.10953 0
M  V30 15787 H 1524.2 -2.78549 -2.78934 0
M  V30 15788 H 1525.49 -3.24931 -3.91532 0
M  V30 15789 H 1524.89 -0.568736 -5.62834 0
M  V30 15790 H 1523.44 -1.03655 -6.43505 0
M  V30 15791 N 1526.88 0.906753 -1.28902 0
M  V30 15792 C 1527.81 2.01497 -1.09233 0
M  V30 15793 C 1528.82 1.62746 -0.0419378 0
M  V30 15794 O 1530.01 1.76198 -0.285728 0
M  V30 15795 C 1527.11 3.32816 -0.639255 0
M  V30 15796 C 1526.28 4.00137 -1.76661 0
M  V30 15797 C 1525.34 5.09742 -1.30573 0
M  V30 15798 O 1524.37 5.32559 -2.00921 0
M  V30 15799 N 1525.57 5.80243 -0.17275 0
M  V30 15800 H 1528.34 2.18927 -2.04673 0
M  V30 15801 H 1525.9 1.0785 -1.20748 0
M  V30 15802 H 1527.89 4.03477 -0.31439 0
M  V30 15803 H 1526.46 3.11807 0.222498 0
M  V30 15804 H 1525.68 3.22933 -2.26071 0
M  V30 15805 H 1526.97 4.41859 -2.52266 0
M  V30 15806 H 1526.37 5.64184 0.413931 0
M  V30 15807 H 1524.92 6.51734 0.0927926 0
M  V30 15808 N 1528.36 1.11264 1.11616 0
M  V30 15809 C 1529.29 0.727118 2.17361 0
M  V30 15810 C 1530.3 -0.240356 1.61016 0
M  V30 15811 O 1531.49 -0.0235265 1.78484 0
M  V30 15812 C 1528.59 0.05361 3.38858 0
M  V30 15813 C 1527.76 1.04744 4.24673 0
M  V30 15814 C 1526.82 0.403827 5.24648 0
M  V30 15815 O 1525.85 1.0572 5.59296 0
M  V30 15816 N 1527.05 -0.834071 5.74477 0
M  V30 15817 H 1529.81 1.63696 2.51045 0
M  V30 15818 H 1527.38 1.00261 1.2712 0
M  V30 15819 H 1529.37 -0.388643 4.0283 0
M  V30 15820 H 1527.94 -0.758778 3.03251 0
M  V30 15821 H 1527.16 1.6677 3.57185 0
M  V30 15822 H 1528.45 1.71988 4.7885 0
M  V30 15823 H 1527.84 -1.3841 5.48506 0
M  V30 15824 H 1526.4 -1.21933 6.40293 0
M  V30 15825 N 1529.83 -1.29188 0.902679 0
M  V30 15826 C 1530.77 -2.26665 0.339964 0
M  V30 15827 C 1531.78 -1.54426 -0.515396 0
M  V30 15828 O 1532.97 -1.75384 -0.332071 0
M  V30 15829 C 1530.07 -3.34672 -0.533653 0
M  V30 15830 C 1529.24 -4.36393 0.296661 0
M  V30 15831 C 1528.3 -5.2372 -0.510264 0
M  V30 15832 O 1527.33 -5.69153 0.0732871 0
M  V30 15833 N 1528.53 -5.51373 -1.81572 0
M  V30 15834 H 1531.29 -2.75588 1.17778 0
M  V30 15835 H 1528.85 -1.42553 0.767474 0
M  V30 15836 H 1530.85 -3.90025 -1.07995 0
M  V30 15837 H 1529.42 -2.85543 -1.27216 0
M  V30 15838 H 1528.64 -3.80658 1.02436 0
M  V30 15839 H 1529.92 -5.0139 0.865191 0
M  V30 15840 H 1529.32 -5.16275 -2.31251 0
M  V30 15841 H 1527.88 -6.09528 -2.30908 0
M  V30 15842 N 1531.31 -0.665475 -1.42861 0
M  V30 15843 C 1532.72 -0.26225 -1.84849 0
M  V30 15844 C 1533.07 1.19372 -1.55707 0
M  V30 15845 O 1532.2 1.91269 -1.01218 0
M  V30 15846 C 1532.79 -0.469189 -3.35535 0
M  V30 15847 C 1531.35 -0.120172 -3.76208 0
M  V30 15848 C 1530.5 -0.766153 -2.66506 0
M  V30 15849 H 1533.45 -0.868296 -1.32839 0
M  V30 15850 H 1533.47 0.281571 -3.79457 0
M  V30 15851 H 1532.98 -1.52894 -3.56714 0
M  V30 15852 H 1531.08 0.936505 -3.60639 0
M  V30 15853 H 1531.2 -0.554188 -4.75884 0
M  V30 15854 H 1529.56 -0.198292 -2.53927 0
M  V30 15855 H 1530.34 -1.82918 -2.9051 0
M  V30 15856 N 1532.79 1.52222 -0.408187 0
M  V30 15857 C 1533.72 2.29892 0.408868 0
M  V30 15858 C 1534.7 1.34063 1.04695 0
M  V30 15859 O 1535.89 1.6297 1.05615 0
M  V30 15860 C 1533.02 3.11964 1.52629 0
M  V30 15861 C 1531.97 4.15833 1.01326 0
M  V30 15862 C 1531.3 4.86244 2.2242 0
M  V30 15863 C 1532.6 5.22256 0.0679573 0
M  V30 15864 H 1534.29 2.98443 -0.23923 0
M  V30 15865 H 1531.84 1.43528 -0.116496 0
M  V30 15866 H 1533.79 3.65067 2.10486 0
M  V30 15867 H 1532.51 2.41181 2.20225 0
M  V30 15868 H 1531.17 3.63739 0.4571 0
M  V30 15869 H 1530.82 4.11991 2.88569 0
M  V30 15870 H 1530.52 5.56461 1.88746 0
M  V30 15871 H 1532.04 5.42159 2.80885 0
M  V30 15872 H 1533.46 5.70604 0.555295 0
M  V30 15873 H 1531.85 5.9983 -0.179934 0
M  V30 15874 H 1532.92 4.76892 -0.877599 0
M  V30 15875 N 1534.27 0.138579 1.5699 0
M  V30 15876 C 1535.22 -0.821469 2.17611 0
M  V30 15877 C 1536.21 -1.26137 1.13074 0
M  V30 15878 O 1537.42 -1.23084 1.31341 0
M  V30 15879 H 1533.79 -0.283086 0.696682 0
M  V30 15880 H 1535.76 -0.285891 2.97027 0
M  V30 15881 C 1534.51 -2.05395 2.8055 0
M  V30 15882 H 1533.83 -1.72442 3.60699 0
M  V30 15883 H 1535.27 -2.70531 3.2648 0
M  V30 15884 C 1533.73 -2.85647 1.78626 0
M  V30 15885 O 1534.26 -3.81705 1.25156 0
M  V30 15886 N 1532.47 -2.50018 1.4812 0
M  V30 15887 H 1532.02 -1.71969 1.91793 0
M  V30 15888 H 1531.97 -3.04007 0.8017 0
M  V30 15889 N 1535.75 -1.57019 -0.13521 0
M  V30 15890 C 1536.68 -2.02182 -1.16811 0
M  V30 15891 C 1537.66 -0.9034 -1.44127 0
M  V30 15892 O 1538.84 -1.17202 -1.54846 0
M  V30 15893 C 1535.97 -2.41243 -2.49838 0
M  V30 15894 C 1534.93 -3.56379 -2.37018 0
M  V30 15895 C 1534.25 -3.8129 -3.74863 0
M  V30 15896 C 1535.55 -4.88653 -1.84432 0
M  V30 15897 H 1537.25 -2.8872 -0.792529 0
M  V30 15898 H 1534.79 -1.38901 -0.379788 0
M  V30 15899 H 1536.74 -2.7144 -3.22332 0
M  V30 15900 H 1535.47 -1.51656 -2.89254 0
M  V30 15901 H 1534.13 -3.26366 -1.66975 0
M  V30 15902 H 1533.78 -2.88934 -4.11735 0
M  V30 15903 H 1533.48 -4.58781 -3.67143 0
M  V30 15904 H 1535 -4.13924 -4.48887 0
M  V30 15905 H 1536.41 -5.17492 -2.46729 0
M  V30 15906 H 1534.81 -5.70032 -1.87574 0
M  V30 15907 H 1535.88 -4.78242 -0.800759 0
M  V30 15908 N 1537.22 0.404919 -1.52309 0
M  V30 15909 C 1538.45 1.17764 -1.70723 0
M  V30 15910 C 1538.87 1.83403 -0.417744 0
M  V30 15911 O 1538.23 1.70181 0.625157 0
M  V30 15912 C 1538.28 2.2133 -2.84685 0
M  V30 15913 O 1537.38 3.27566 -2.50548 0
M  V30 15914 H 1536.73 0.343572 -0.568203 0
M  V30 15915 H 1539.26 0.474093 -1.99031 0
M  V30 15916 H 1539.27 2.6559 -3.09719 0
M  V30 15917 H 1537.94 1.72939 -3.78239 0
M  V30 15918 H 1536.52 2.88556 -2.36199 0
M  V30 15919 N 1538.7 1.43003 0.662408 0
M  V30 15920 C 1539.63 1.43407 1.78793 0
M  V30 15921 C 1540.65 0.331423 1.59391 0
M  V30 15922 O 1541.84 0.595291 1.68281 0
M  V30 15923 C 1538.94 1.22239 3.16087 0
M  V30 15924 C 1538.11 2.4517 3.6223 0
M  V30 15925 C 1537.17 2.19362 4.78296 0
M  V30 15926 O 1536.19 2.92651 4.88205 0
M  V30 15927 N 1537.4 1.20449 5.67866 0
M  V30 15928 H 1540.16 2.40426 1.78928 0
M  V30 15929 H 1537.72 1.38042 0.845936 0
M  V30 15930 H 1539.71 1.02871 3.91407 0
M  V30 15931 H 1538.28 0.336983 3.10778 0
M  V30 15932 H 1537.5 2.80024 2.77453 0
M  V30 15933 H 1538.79 3.27003 3.89803 0
M  V30 15934 H 1538.19 0.598577 5.62524 0
M  V30 15935 H 1536.75 1.07066 6.42946 0
M  V30 15936 N 1540.18 -0.899904 1.29381 0
M  V30 15937 C 1541.14 -1.98554 1.14494 0
M  V30 15938 C 1542.14 -1.60599 0.0804732 0
M  V30 15939 O 1543.33 -1.71096 0.327395 0
M  V30 15940 C 1540.47 -3.32529 0.750818 0
M  V30 15941 H 1541.66 -2.13189 2.10928 0
M  V30 15942 H 1539.21 -1.08438 1.12565 0
M  V30 15943 H 1539.95 -3.23595 -0.213668 0
M  V30 15944 H 1539.73 -3.61443 1.51992 0
M  V30 15945 H 1541.22 -4.12195 0.669709 0
M  V30 15946 N 1541.66 -1.11854 -1.11024 0
M  V30 15947 C 1542.59 -0.738635 -2.16972 0
M  V30 15948 C 1543.6 0.231814 -1.61141 0
M  V30 15949 O 1544.79 0.0140607 -1.78494 0
M  V30 15950 C 1541.89 -0.0715797 -3.38824 0
M  V30 15951 C 1541.07 -1.06995 -4.24112 0
M  V30 15952 C 1540.12 -0.431644 -5.24427 0
M  V30 15953 O 1539.15 -1.08685 -5.58727 0
M  V30 15954 N 1540.35 0.803593 -5.74911 0
M  V30 15955 H 1543.12 -1.65025 -2.50174 0
M  V30 15956 H 1540.68 -1.00933 -1.26586 0
M  V30 15957 H 1542.67 0.367274 -4.0303 0
M  V30 15958 H 1541.24 0.742686 -3.03649 0
M  V30 15959 H 1540.46 -1.68662 -3.56296 0
M  V30 15960 H 1541.75 -1.74525 -4.77931 0
M  V30 15961 H 1541.15 1.355 -5.49232 0
M  V30 15962 H 1539.7 1.18536 -6.40931 0
M  V30 15963 N 1543.14 1.28707 -0.909517 0
M  V30 15964 C 1544.07 2.26481 -0.35198 0
M  V30 15965 C 1545.08 1.54698 0.507199 0
M  V30 15966 O 1546.27 1.75558 0.322765 0
M  V30 15967 C 1543.37 3.3495 0.515897 0
M  V30 15968 C 1542.54 4.36229 -0.3198 0
M  V30 15969 C 1541.6 5.23983 0.482483 0
M  V30 15970 O 1540.63 5.69106 -0.10347 0
M  V30 15971 N 1541.83 5.52328 1.78645 0
M  V30 15972 H 1544.6 2.74959 -1.19238 0
M  V30 15973 H 1542.16 1.42144 -0.775023 0
M  V30 15974 H 1544.15 3.90592 1.05925 0
M  V30 15975 H 1542.72 2.86214 1.257 0
M  V30 15976 H 1541.94 3.80109 -1.04454 0
M  V30 15977 H 1543.23 5.00924 -0.891769 0
M  V30 15978 H 1542.62 5.17494 2.28509 0
M  V30 15979 H 1541.18 6.10744 2.27672 0
M  V30 15980 N 1544.61 0.673042 1.42506 0
M  V30 15981 C 1545.56 -0.0291025 2.27981 0
M  V30 15982 C 1546.55 -0.775296 1.40989 0
M  V30 15983 O 1547.74 -0.654498 1.64455 0
M  V30 15984 C 1544.87 -0.9809 3.28988 0
M  V30 15985 C 1543.96 -0.232141 4.23464 0
M  V30 15986 N 1544.35 0.762036 5.00027 0
M  V30 15987 C 1542.64 -0.470831 4.43508 0
M  V30 15988 C 1543.35 1.20826 5.69013 0
M  V30 15989 N 1542.32 0.538559 5.40926 0
M  V30 15990 H 1546.12 0.733484 2.846 0
M  V30 15991 H 1543.64 0.501961 1.54448 0
M  V30 15992 H 1545.63 -1.49888 3.89023 0
M  V30 15993 H 1544.29 -1.74333 2.73931 0
M  V30 15994 H 1545.31 1.14151 5.05163 0
M  V30 15995 H 1541.98 -1.2129 3.99493 0
M  V30 15996 H 1543.37 2.03199 6.40437 0
M  V30 15997 N 1546.09 -1.52004 0.416254 0
M  V30 15998 C 1547.34 -2.01076 -0.158591 0
M  V30 15999 C 1547.65 -1.30598 -1.45614 0
M  V30 16000 O 1548.86 -1.70525 -2.11267 0
M  V30 16001 C 1547.32 -3.58354 -0.333179 0
M  V30 16002 C 1546.92 -4.37753 0.952696 0
M  V30 16003 C 1548.67 -4.15637 -0.86293 0
M  V30 16004 C 1546.58 -5.8669 0.744905 0
M  V30 16005 H 1545.51 -0.75136 -0.0630423 0
M  V30 16006 H 1548.16 -1.75288 0.542791 0
M  V30 16007 H 1546.54 -3.805 -1.09706 0
M  V30 16008 H 1547.71 -4.27364 1.72328 0
M  V30 16009 H 1546.03 -3.91823 1.40939 0
M  V30 16010 H 1548.62 -5.24596 -1.03454 0
M  V30 16011 H 1548.97 -3.73449 -1.8396 0
M  V30 16012 H 1549.5 -3.97486 -0.157918 0
M  V30 16013 H 1546.24 -6.3325 1.69334 0
M  V30 16014 H 1545.76 -5.99798 0.0137458 0
M  V30 16015 H 1547.44 -6.45824 0.389851 0
M  V30 16016 N 1547.57 -0.146903 -1.56914 0
M  V30 16017 C 1548.8 0.511181 -2.00486 0
M  V30 16018 C 1549.21 1.58425 -1.02699 0
M  V30 16019 O 1548.57 1.82484 -0.0239878 0
M  V30 16020 C 1548.62 1.11191 -3.43975 0
M  V30 16021 O 1548.34 0.0817094 -4.38024 0
M  V30 16022 C 1549.84 1.85061 -4.02824 0
M  V30 16023 H 1547.06 0.133078 -0.657671 0
M  V30 16024 H 1549.61 -0.241457 -2.0307 0
M  V30 16025 H 1547.76 1.81517 -3.42243 0
M  V30 16026 H 1548.18 0.52181 -5.21898 0
M  V30 16027 H 1549.65 2.22385 -5.05222 0
M  V30 16028 H 1550.13 2.73649 -3.4353 0
M  V30 16029 H 1550.73 1.19434 -4.08186 0
M  V30 16030 N 1549.05 1.57088 0.126881 0
M  V30 16031 C 1550.28 1.88614 0.850444 0
M  V30 16032 C 1550.69 0.737309 1.73808 0
M  V30 16033 O 1550.05 -0.292196 1.80146 0
M  V30 16034 C 1550.1 3.19541 1.69044 0
M  V30 16035 O 1549.82 4.3 0.838555 0
M  V30 16036 C 1551.32 3.64717 2.51985 0
M  V30 16037 H 1548.54 0.624715 0.244892 0
M  V30 16038 H 1551.09 2.04184 0.113634 0
M  V30 16039 H 1549.24 3.05664 2.38009 0
M  V30 16040 H 1549.65 5.04992 1.41717 0
M  V30 16041 H 1551.13 4.5911 3.06467 0
M  V30 16042 H 1551.61 2.90986 3.28974 0
M  V30 16043 H 1552.21 3.81356 1.88276 0
M  V30 16044 N 1550.53 -0.396836 1.52522 0
M  V30 16045 C 1551.8 -1.15638 1.57757 0
M  V30 16046 C 1552.18 -2.07903 0.365998 0
M  V30 16047 O 1551.53 -2.1917 -0.646266 0
M  V30 16048 C 1551.74 -1.92292 2.91247 0
M  V30 16049 C 1553.09 -2.47929 3.44697 0
M  V30 16050 O 1554.11 -2.02458 2.93069 0
M  V30 16051 O 1552.97 -3.30969 4.34881 0
M  V30 16052 H 1550.07 -0.52867 0.635953 0
M  V30 16053 H 1552.61 -0.402622 1.64855 0
M  V30 16054 H 1551.38 -1.24775 3.70873 0
M  V30 16055 H 1551.01 -2.74646 2.87498 0
M  V30 16056 N 1552.01 -1.43353 -0.654814 0
M  V30 16057 C 1553.42 -1.26718 -0.970297 0
M  V30 16058 C 1553.62 -0.185747 -2.00642 0
M  V30 16059 O 1552.68 0.436357 -2.48701 0
M  V30 16060 C 1553.99 -2.63095 -1.45608 0
M  V30 16061 C 1555.54 -2.70613 -1.57281 0
M  V30 16062 C 1556.01 -4.07404 -2.0925 0
M  V30 16063 N 1557.5 -4.09461 -2.16555 0
M  V30 16064 C 1558.24 -5.12135 -2.57885 0
M  V30 16065 N 1557.74 -6.25185 -2.98523 0
M  V30 16066 N 1559.53 -4.9949 -2.57811 0
M  V30 16067 H 1551.68 -2.12378 0.0308331 0
M  V30 16068 H 1553.94 -0.946744 -0.0487843 0
M  V30 16069 H 1553.65 -3.43186 -0.769171 0
M  V30 16070 H 1553.52 -2.88381 -2.43138 0
M  V30 16071 H 1555.91 -1.90855 -2.25074 0
M  V30 16072 H 1555.99 -2.49094 -0.581879 0
M  V30 16073 H 1555.63 -4.87628 -1.4206 0
M  V30 16074 H 1555.56 -4.26287 -3.09172 0
M  V30 16075 H 1558.06 -3.27858 -1.87929 0
M  V30 16076 H 1558.37 -6.99362 -3.28804 0
M  V30 16077 H 1556.71 -6.28659 -2.96332 0
M  V30 16078 H 1559.9 -4.10238 -2.25438 0
M  V30 16079 H 1560.08 -5.79637 -2.89699 0
M  V30 16080 N 1553.48 0.89303 -1.29857 0
M  V30 16081 C 1554.71 1.67744 -1.21119 0
M  V30 16082 C 1555.13 1.87428 0.227198 0
M  V30 16083 O 1554.48 1.41605 1.15128 0
M  V30 16084 C 1554.53 3.05827 -1.92749 0
M  V30 16085 O 1554.26 2.87036 -3.30971 0
M  V30 16086 C 1555.76 4.00248 -1.9057 0
M  V30 16087 H 1552.98 0.523699 -0.4195 0
M  V30 16088 H 1555.52 1.1163 -1.71344 0
M  V30 16089 H 1553.68 3.58696 -1.46342 0
M  V30 16090 H 1554.09 3.74578 -3.6714 0
M  V30 16091 H 1555.56 4.9453 -2.45242 0
M  V30 16092 H 1556.04 4.30237 -0.882753 0
M  V30 16093 H 1556.65 3.53312 -2.36751 0
M  V30 16094 N 1554.96 1.12442 1.10429 0
M  V30 16095 C 1556.21 0.878021 1.82031 0
M  V30 16096 C 1556.53 -0.597787 1.85611 0
M  V30 16097 O 1555.8 -1.43442 1.33422 0
M  V30 16098 H 1554.38 0.321839 0.674113 0
M  V30 16099 H 1557.04 1.41891 1.33615 0
M  V30 16100 H 1556.14 1.25957 2.85554 0
M  V30 16101 N 1556.44 -1.28223 0.91633 0
M  V30 16102 C 1557.66 -1.99523 0.566147 0
M  V30 16103 C 1558.09 -1.68 -0.846034 0
M  V30 16104 O 1557.45 -0.913838 -1.56584 0
M  V30 16105 C 1557.5 -3.51949 0.785114 0
M  V30 16106 O 1556.6 -4.1211 -0.154686 0
M  V30 16107 H 1555.94 -0.626764 0.219232 0
M  V30 16108 H 1558.47 -1.63313 1.23247 0
M  V30 16109 H 1558.48 -4.02016 0.696224 0
M  V30 16110 H 1557.16 -3.74227 1.81457 0
M  V30 16111 H 1555.73 -3.72896 -0.0168463 0
M  V30 16112 N 1557.92 -0.68059 -1.42147 0
M  V30 16113 C 1558.87 0.0170117 -2.27994 0
M  V30 16114 C 1559.85 0.767809 -1.41398 0
M  V30 16115 O 1561.04 0.645767 -1.64799 0
M  V30 16116 C 1558.17 0.963439 -3.29504 0
M  V30 16117 C 1557.26 0.20968 -4.23581 0
M  V30 16118 N 1557.65 -0.788543 -4.99615 0
M  V30 16119 C 1555.95 0.447304 -4.43751 0
M  V30 16120 C 1556.65 -1.23842 -5.68364 0
M  V30 16121 N 1555.62 -0.567238 -5.40632 0
M  V30 16122 H 1559.43 -0.748567 -2.84207 0
M  V30 16123 H 1556.94 -0.510145 -1.54179 0
M  V30 16124 H 1558.94 1.47823 -3.89813 0
M  V30 16125 H 1557.6 1.72878 -2.74851 0
M  V30 16126 H 1558.61 -1.16828 -5.04551 0
M  V30 16127 H 1555.29 1.1917 -4.00131 0
M  V30 16128 H 1556.68 -2.06593 -6.39351 0
M  V30 16129 N 1559.4 1.51781 -0.424309 0
M  V30 16130 C 1560.81 1.59419 -0.0759329 0
M  V30 16131 C 1561.01 1.43616 1.41339 0
M  V30 16132 O 1560.07 1.27078 2.18191 0
M  V30 16133 C 1561.38 2.94966 -0.584411 0
M  V30 16134 C 1562.93 3.08241 -0.54371 0
M  V30 16135 C 1563.4 4.46292 -1.02895 0
M  V30 16136 N 1564.89 4.52575 -0.986392 0
M  V30 16137 C 1565.63 5.57694 -1.33286 0
M  V30 16138 N 1565.13 6.70293 -1.75154 0
M  V30 16139 N 1566.92 5.47983 -1.25186 0
M  V30 16140 H 1559.07 1.60299 -1.39349 0
M  V30 16141 H 1561.33 0.75492 -0.573411 0
M  V30 16142 H 1561.04 3.11859 -1.62593 0
M  V30 16143 H 1560.91 3.772 -0.00224435 0
M  V30 16144 H 1563.3 2.91024 0.488798 0
M  V30 16145 H 1563.38 2.27878 -1.16212 0
M  V30 16146 H 1563.02 4.64255 -2.05986 0
M  V30 16147 H 1562.95 5.25175 -0.387202 0
M  V30 16148 H 1565.45 3.71754 -0.678765 0
M  V30 16149 H 1565.76 7.46508 -1.99863 0
M  V30 16150 H 1564.1 6.71535 -1.79071 0
M  V30 16151 H 1567.29 4.58899 -0.923525 0
M  V30 16152 H 1567.47 6.29796 -1.52517 0
M  V30 16153 N 1560.87 0.155222 1.56834 0
M  V30 16154 C 1562.29 -0.201116 1.58328 0
M  V30 16155 C 1562.49 -1.64061 1.16988 0
M  V30 16156 O 1561.55 -2.36892 0.873989 0
M  V30 16157 C 1562.86 0.0651005 3.0063 0
M  V30 16158 C 1564.41 0.00203866 3.13 0
M  V30 16159 C 1564.88 0.241032 4.57365 0
M  V30 16160 N 1566.37 0.188245 4.62817 0
M  V30 16161 C 1567.11 0.347562 5.72346 0
M  V30 16162 N 1566.6 0.565052 6.90492 0
M  V30 16163 N 1568.4 0.284589 5.61379 0
M  V30 16164 H 1560.55 1.09503 1.81997 0
M  V30 16165 H 1562.81 0.434106 0.842767 0
M  V30 16166 H 1562.52 1.06167 3.35293 0
M  V30 16167 H 1562.39 -0.650601 3.71547 0
M  V30 16168 H 1564.78 -0.98509 2.78173 0
M  V30 16169 H 1564.86 0.750199 2.44552 0
M  V30 16170 H 1564.5 1.2253 4.92898 0
M  V30 16171 H 1564.43 -0.52755 5.23951 0
M  V30 16172 H 1566.92 0.0251352 3.77892 0
M  V30 16173 H 1567.24 0.676502 7.69833 0
M  V30 16174 H 1565.58 0.601473 6.92392 0
M  V30 16175 H 1568.77 0.115381 4.67958 0
M  V30 16176 H 1568.95 0.412182 6.46688 0
M  V30 16177 N 1562.35 -1.57153 -0.118549 0
M  V30 16178 C 1563.28 -1.97022 -1.1711 0
M  V30 16179 C 1564.3 -0.869599 -1.37629 0
M  V30 16180 O 1565.49 -1.14788 -1.36696 0
M  V30 16181 C 1562.59 -2.25371 -2.53103 0
M  V30 16182 C 1561.76 -3.56677 -2.5318 0
M  V30 16183 C 1560.82 -3.73233 -3.70922 0
M  V30 16184 O 1559.84 -4.4534 -3.54487 0
M  V30 16185 N 1561.05 -3.12036 -4.89504 0
M  V30 16186 H 1563.81 -2.87921 -0.831959 0
M  V30 16187 H 1561.37 -1.58947 -0.307817 0
M  V30 16188 H 1563.36 -2.33662 -3.3043 0
M  V30 16189 H 1561.93 -1.40597 -2.79197 0
M  V30 16190 H 1561.15 -3.5957 -1.61564 0
M  V30 16191 H 1562.44 -4.42982 -2.50288 0
M  V30 16192 H 1561.84 -2.53422 -5.05761 0
M  V30 16193 H 1560.4 -3.25846 -5.64506 0
M  V30 16194 N 1563.83 0.388742 -1.5273 0
M  V30 16195 C 1564.76 1.49441 -1.73781 0
M  V30 16196 C 1565.77 1.50602 -0.618285 0
M  V30 16197 O 1566.96 1.545 -0.893986 0
M  V30 16198 C 1564.06 2.88288 -1.78166 0
M  V30 16199 C 1563.24 3.11089 -3.07478 0
M  V30 16200 C 1562.3 4.2992 -3.03407 0
M  V30 16201 O 1561.32 4.26212 -3.77269 0
M  V30 16202 N 1562.52 5.36121 -2.2261 0
M  V30 16203 H 1565.29 1.3177 -2.69178 0
M  V30 16204 H 1562.85 0.578258 -1.51221 0
M  V30 16205 H 1564.84 3.65884 -1.72949 0
M  V30 16206 H 1563.41 2.99317 -0.901553 0
M  V30 16207 H 1562.63 2.21356 -3.26183 0
M  V30 16208 H 1563.92 3.23177 -3.92981 0
M  V30 16209 H 1563.32 5.41988 -1.62067 0
M  V30 16210 H 1561.87 6.12381 -2.23232 0
M  V30 16211 N 1565.31 1.43698 0.647203 0
M  V30 16212 C 1566.27 1.48986 1.74172 0
M  V30 16213 C 1567.27 0.373812 1.56395 0
M  V30 16214 O 1568.46 0.635804 1.62183 0
M  V30 16215 C 1565.59 1.34827 3.13104 0
M  V30 16216 H 1566.79 2.46467 1.70863 0
M  V30 16217 H 1564.34 1.30552 0.859409 0
M  V30 16218 H 1565.07 0.383772 3.22021 0
M  V30 16219 H 1564.86 2.15738 3.27414 0
M  V30 16220 H 1566.35 1.41473 3.92906 0
M  V30 16221 N 1566.79 -0.886131 1.30328 0
M  V30 16222 C 1568.02 -1.66857 1.2183 0
M  V30 16223 C 1568.42 -1.87899 -0.221474 0
M  V30 16224 O 1567.77 -1.42571 -1.15841 0
M  V30 16225 C 1567.83 -3.06732 1.87499 0
M  V30 16226 C 1567.49 -3.08865 3.36825 0
M  V30 16227 C 1568.49 -2.88008 4.32836 0
M  V30 16228 C 1566.18 -3.305 3.78253 0
M  V30 16229 C 1568.17 -2.8874 5.6825 0
M  V30 16230 C 1565.86 -3.30861 5.13784 0
M  V30 16231 C 1566.85 -3.10005 6.08593 0
M  V30 16232 O 1566.54 -3.10181 7.41649 0
M  V30 16233 H 1566.27 -0.527473 0.422786 0
M  V30 16234 H 1568.83 -1.11553 1.72468 0
M  V30 16235 H 1567.06 -3.63695 1.31389 0
M  V30 16236 H 1568.75 -3.67122 1.73136 0
M  V30 16237 H 1569.51 -2.71093 4.02161 0
M  V30 16238 H 1565.39 -3.45769 3.04902 0
M  V30 16239 H 1568.94 -2.7238 6.42227 0
M  V30 16240 H 1564.83 -3.47312 5.441 0
M  V30 16241 H 1565.6 -3.26354 7.50623 0
M  V30 16242 N 1568.26 -1.13026 -1.09832 0
M  V30 16243 C 1569.51 -0.884093 -1.81292 0
M  V30 16244 C 1569.83 0.591608 -1.86439 0
M  V30 16245 O 1571.03 0.954571 -2.54166 0
M  V30 16246 C 1569.49 -1.53207 -3.25662 0
M  V30 16247 C 1569.1 -3.043 -3.28794 0
M  V30 16248 C 1570.84 -1.36644 -4.01906 0
M  V30 16249 C 1568.75 -3.62003 -4.67662 0
M  V30 16250 H 1567.68 -0.327101 -0.679353 0
M  V30 16251 H 1570.33 -1.35748 -1.2347 0
M  V30 16252 H 1568.71 -0.986353 -3.83519 0
M  V30 16253 H 1569.88 -3.65418 -2.80725 0
M  V30 16254 H 1568.2 -3.20332 -2.66038 0
M  V30 16255 H 1570.8 -1.7717 -5.04495 0
M  V30 16256 H 1571.14 -0.310809 -4.15138 0
M  V30 16257 H 1571.67 -1.88172 -3.5048 0
M  V30 16258 H 1568.41 -4.67354 -4.59631 0
M  V30 16259 H 1567.93 -3.05663 -5.16072 0
M  V30 16260 H 1569.61 -3.61432 -5.36634 0
M  V30 16261 N 1569.74 1.27735 -0.923117 0
M  V30 16262 C 1570.97 1.98682 -0.577317 0
M  V30 16263 C 1571.39 1.68904 0.843608 0
M  V30 16264 O 1570.74 0.947021 1.56006 0
M  V30 16265 C 1570.79 3.52804 -0.788144 0
M  V30 16266 O 1570.51 3.81537 -2.15316 0
M  V30 16267 C 1572.02 4.41006 -0.450437 0
M  V30 16268 H 1569.24 0.634186 -0.2192 0
M  V30 16269 H 1571.78 1.62702 -1.23888 0
M  V30 16270 H 1569.93 3.87012 -0.173441 0
M  V30 16271 H 1570.35 4.76142 -2.19976 0
M  V30 16272 H 1571.82 5.48175 -0.648674 0
M  V30 16273 H 1572.3 4.3489 0.613806 0
M  V30 16274 H 1572.91 4.1231 -1.04308 0
M  V30 16275 N 1571.22 0.688118 1.41784 0
M  V30 16276 C 1572.63 0.291625 1.84408 0
M  V30 16277 C 1572.98 -1.1688 1.57587 0
M  V30 16278 O 1572.11 -1.89634 1.04248 0
M  V30 16279 C 1572.7 0.522511 3.34747 0
M  V30 16280 C 1571.26 0.180008 3.75969 0
M  V30 16281 C 1570.41 0.808455 2.65253 0
M  V30 16282 H 1573.36 0.88932 1.31441 0
M  V30 16283 H 1573.38 -0.221167 3.79857 0
M  V30 16284 H 1572.89 1.5855 3.54236 0
M  V30 16285 H 1570.99 -0.879012 3.62083 0
M  V30 16286 H 1571.11 0.629826 4.74942 0
M  V30 16287 H 1569.47 0.238665 2.53579 0
M  V30 16288 H 1570.25 1.87516 2.87563 0
M  V30 16289 N 1572.7 -1.51554 0.432352 0
M  V30 16290 C 1573.93 -2.06462 -0.1346 0
M  V30 16291 C 1574.34 -1.30027 -1.36889 0
M  V30 16292 O 1573.7 -0.358447 -1.78945 0
M  V30 16293 C 1573.75 -3.58538 -0.461822 0
M  V30 16294 O 1573.47 -4.32085 0.723471 0
M  V30 16295 C 1574.97 -4.29943 -1.07999 0
M  V30 16296 H 1572.19 -0.670923 -0.0101329 0
M  V30 16297 H 1574.74 -1.9519 0.609999 0
M  V30 16298 H 1572.89 -3.6974 -1.15632 0
M  V30 16299 H 1573.3 -5.22611 0.444757 0
M  V30 16300 H 1574.78 -5.37451 -1.25898 0
M  V30 16301 H 1575.26 -3.87912 -2.05963 0
M  V30 16302 H 1575.86 -4.23171 -0.425022 0
M  V30 16303 N 1574.18 -0.163538 -1.56749 0
M  V30 16304 C 1575.11 0.808257 -2.13407 0
M  V30 16305 C 1576.09 1.23124 -1.06204 0
M  V30 16306 O 1577.27 1.3244 -1.34134 0
M  V30 16307 C 1574.4 2.08743 -2.66728 0
M  V30 16308 C 1573.44 1.80909 -3.86231 0
M  V30 16309 S 1574.28 0.985273 -5.26358 0
M  V30 16310 C 1575.43 2.27528 -5.8308 0
M  V30 16311 H 1575.67 0.326505 -2.95502 0
M  V30 16312 H 1573.2 0.0510128 -1.54316 0
M  V30 16313 H 1575.16 2.8222 -2.98097 0
M  V30 16314 H 1573.82 2.54032 -1.84733 0
M  V30 16315 H 1573.01 2.75802 -4.21841 0
M  V30 16316 H 1572.61 1.15532 -3.55708 0
M  V30 16317 H 1574.91 3.23053 -5.95519 0
M  V30 16318 H 1575.85 1.96399 -6.80318 0
M  V30 16319 H 1576.26 2.38933 -5.1144 0
M  V30 16320 N 1575.65 1.57214 0.110213 0
M  V30 16321 C 1576.62 2.00034 1.11888 0
M  V30 16322 C 1577.62 0.891697 1.33811 0
M  V30 16323 O 1578.81 1.15754 1.3018 0
M  V30 16324 C 1575.94 2.34806 2.47142 0
M  V30 16325 H 1577.13 2.90354 0.750647 0
M  V30 16326 H 1574.69 1.5222 0.35479 0
M  V30 16327 H 1575.42 1.47393 2.8887 0
M  V30 16328 H 1575.21 3.15671 2.32581 0
M  V30 16329 H 1576.7 2.68644 3.19719 0
M  V30 16330 N 1577.13 -0.380637 1.52934 0
M  V30 16331 C 1578.06 -1.48518 1.74571 0
M  V30 16332 C 1579.08 -1.50272 0.626263 0
M  V30 16333 O 1580.27 -1.54023 0.902167 0
M  V30 16334 C 1577.37 -2.87339 1.79693 0
M  V30 16335 C 1576.54 -3.09454 3.09123 0
M  V30 16336 C 1575.6 -4.28305 3.05682 0
M  V30 16337 O 1574.62 -4.24205 3.79524 0
M  V30 16338 N 1575.83 -5.34932 2.2545 0
M  V30 16339 H 1578.59 -1.30341 2.69873 0
M  V30 16340 H 1576.15 -0.57023 1.51526 0
M  V30 16341 H 1578.14 -3.64961 1.74887 0
M  V30 16342 H 1576.71 -2.98835 0.917414 0
M  V30 16343 H 1575.93 -2.19623 3.27352 0
M  V30 16344 H 1577.22 -3.21089 3.94689 0
M  V30 16345 H 1576.62 -5.41121 1.64939 0
M  V30 16346 H 1575.18 -6.11189 2.26476 0
M  V30 16347 N 1578.61 -1.44039 -0.639573 0
M  V30 16348 C 1579.57 -1.49907 -1.7338 0
M  V30 16349 C 1580.57 -0.382101 -1.56194 0
M  V30 16350 O 1581.76 -0.644396 -1.61843 0
M  V30 16351 C 1578.9 -1.36486 -3.12385 0
M  V30 16352 H 1580.09 -2.4737 -1.69553 0
M  V30 16353 H 1577.64 -1.31006 -0.852474 0
M  V30 16354 H 1578.38 -0.400845 -3.21813 0
M  V30 16355 H 1578.16 -2.17471 -3.26265 0
M  V30 16356 H 1579.65 -1.43555 -3.9215 0
M  V30 16357 N 1580.09 0.879207 -1.30796 0
M  V30 16358 C 1581.5 1.44705 -1.17972 0
M  V30 16359 C 1581.85 1.94992 0.217381 0
M  V30 16360 O 1580.98 1.85494 1.11449 0
M  V30 16361 C 1581.57 2.6302 -2.13555 0
M  V30 16362 C 1580.13 3.15877 -2.04692 0
M  V30 16363 C 1579.28 1.88576 -2.03309 0
M  V30 16364 H 1582.23 0.688604 -1.42982 0
M  V30 16365 H 1582.25 3.39418 -1.71976 0
M  V30 16366 H 1581.76 2.2639 -3.15229 0
M  V30 16367 H 1579.86 3.57151 -1.0618 0
M  V30 16368 H 1579.97 3.78786 -2.93357 0
M  V30 16369 H 1578.34 2.0715 -1.48192 0
M  V30 16370 H 1579.12 1.54195 -3.06723 0
M  V30 16371 N 1581.57 1.13606 1.09231 0
M  V30 16372 C 1582.8 0.920958 1.84938 0
M  V30 16373 C 1583.21 -0.533706 1.81516 0
M  V30 16374 O 1582.55 -1.38127 1.21105 0
M  V30 16375 C 1582.61 1.33357 3.33851 0
M  V30 16376 C 1582.27 2.80206 3.61017 0
M  V30 16377 C 1583.27 3.78356 3.56571 0
M  V30 16378 C 1580.96 3.17415 3.89298 0
M  V30 16379 C 1582.95 5.11726 3.8002 0
M  V30 16380 C 1580.64 4.50963 4.12402 0
M  V30 16381 C 1581.64 5.47928 4.07755 0
M  V30 16382 O 1581.32 6.79066 4.3026 0
M  V30 16383 H 1581.06 0.328256 0.590952 0
M  V30 16384 H 1583.61 1.51298 1.38917 0
M  V30 16385 H 1581.84 0.684821 3.80588 0
M  V30 16386 H 1583.53 1.09061 3.90974 0
M  V30 16387 H 1584.29 3.50956 3.34746 0
M  V30 16388 H 1580.17 2.42542 3.92039 0
M  V30 16389 H 1583.72 5.87399 3.76309 0
M  V30 16390 H 1579.61 4.78088 4.33708 0
M  V30 16391 H 1580.38 6.85199 4.47711 0
M  V30 16392 N 1583.05 -1.27244 0.929878 0
M  V30 16393 C 1584.27 -1.98912 0.587277 0
M  V30 16394 C 1584.7 -1.68888 -0.828168 0
M  V30 16395 O 1584.05 -0.930394 -1.55606 0
M  V30 16396 C 1584.1 -3.51097 0.822399 0
M  V30 16397 O 1583.21 -4.12251 -0.110968 0
M  V30 16398 H 1582.55 -0.624404 0.225867 0
M  V30 16399 H 1585.08 -1.61997 1.24973 0
M  V30 16400 H 1585.09 -4.01255 0.738824 0
M  V30 16401 H 1583.76 -3.72282 1.85416 0
M  V30 16402 H 1582.34 -3.72893 0.0227053 0
M  V30 16403 N 1584.52 -0.695628 -1.41417 0
M  V30 16404 C 1585.77 -0.226618 -2.01228 0
M  V30 16405 C 1586.1 1.17376 -1.5509 0
M  V30 16406 O 1585.35 1.80635 -0.752964 0
M  V30 16407 C 1585.65 -0.232664 -3.56642 0
M  V30 16408 C 1585.32 -1.58057 -4.2229 0
M  V30 16409 C 1583.98 -1.94959 -4.39937 0
M  V30 16410 C 1586.33 -2.46735 -4.59098 0
M  V30 16411 C 1583.66 -3.20123 -4.91669 0
M  V30 16412 C 1586.01 -3.71232 -5.1222 0
M  V30 16413 C 1584.68 -4.08277 -5.28078 0
M  V30 16414 H 1583.95 -0.0829255 -0.736345 0
M  V30 16415 H 1586.59 -0.894729 -1.69313 0
M  V30 16416 H 1584.9 0.518995 -3.88347 0
M  V30 16417 H 1586.6 0.147754 -4.00728 0
M  V30 16418 H 1583.19 -1.28356 -4.08929 0
M  V30 16419 H 1587.37 -2.19506 -4.45119 0
M  V30 16420 H 1582.63 -3.48819 -5.02131 0
M  V30 16421 H 1586.8 -4.40132 -5.39682 0
M  V30 16422 H 1584.43 -5.05335 -5.67927 0
M  V30 16423 N 1586 1.51322 -0.440383 0
M  V30 16424 C 1587.41 1.86687 0.0220272 0
M  V30 16425 C 1587.76 1.35734 1.41671 0
M  V30 16426 O 1586.89 0.709408 2.04442 0
M  V30 16427 C 1587.48 3.38768 0.0467477 0
M  V30 16428 C 1586.04 3.73657 0.45358 0
M  V30 16429 C 1585.19 2.7506 -0.351779 0
M  V30 16430 H 1588.14 1.44503 -0.65609 0
M  V30 16431 H 1588.16 3.70756 0.855589 0
M  V30 16432 H 1587.67 3.75823 -0.968451 0
M  V30 16433 H 1585.77 3.42193 1.47427 0
M  V30 16434 H 1585.89 4.78776 0.176262 0
M  V30 16435 H 1584.25 2.53988 0.190334 0
M  V30 16436 H 1585.03 3.14957 -1.36591 0
M  V30 16437 N 1587.48 0.171848 1.5666 0
M  V30 16438 C 1588.43 -0.770535 2.14585 0
M  V30 16439 C 1589.41 -1.19247 1.08023 0
M  V30 16440 O 1590.61 -1.15474 1.34144 0
M  V30 16441 C 1587.73 -1.99956 2.79057 0
M  V30 16442 C 1586.82 -1.59959 3.92777 0
M  V30 16443 N 1587.21 -0.909224 4.97561 0
M  V30 16444 C 1585.51 -1.89057 4.03947 0
M  V30 16445 C 1586.21 -0.7122 5.77324 0
M  V30 16446 N 1585.19 -1.25379 5.28943 0
M  V30 16447 H 1588.99 -0.234114 2.92966 0
M  V30 16448 H 1586.5 -0.0288117 1.62374 0
M  V30 16449 H 1588.5 -2.68492 3.18932 0
M  V30 16450 H 1587.16 -2.54092 2.02157 0
M  V30 16451 H 1588.17 -0.567214 5.14785 0
M  V30 16452 H 1584.85 -2.44868 3.38151 0
M  V30 16453 H 1586.24 -0.166225 6.71694 0
M  V30 16454 N 1588.96 -1.5727 -0.101874 0
M  V30 16455 C 1589.91 -2.0258 -1.14297 0
M  V30 16456 C 1590.9 -0.925674 -1.41872 0
M  V30 16457 O 1592.11 -1.11086 -1.41633 0
M  V30 16458 H 1588.48 -0.645504 -0.385782 0
M  V30 16459 H 1590.45 -2.8922 -0.734453 0
M  V30 16460 C 1589.2 -2.46036 -2.45686 0
M  V30 16461 H 1588.52 -3.30266 -2.2531 0
M  V30 16462 H 1589.96 -2.81522 -3.17051 0
M  V30 16463 C 1588.42 -1.33089 -3.09498 0
M  V30 16464 O 1588.95 -0.656277 -3.96303 0
M  V30 16465 N 1587.16 -1.08359 -2.69642 0
M  V30 16466 H 1586.71 -1.63397 -1.99146 0
M  V30 16467 H 1586.66 -0.329859 -3.12665 0
M  V30 16468 N 1590.44 0.372521 -1.53134 0
M  V30 16469 C 1591.66 1.14116 -1.73183 0
M  V30 16470 C 1592.09 1.82475 -0.456553 0
M  V30 16471 O 1591.44 1.71468 0.588919 0
M  V30 16472 C 1591.49 2.15241 -2.89316 0
M  V30 16473 O 1590.6 3.22178 -2.57439 0
M  V30 16474 H 1589.94 0.331442 -0.575362 0
M  V30 16475 H 1592.47 0.431769 -1.99992 0
M  V30 16476 H 1592.48 2.58961 -3.15283 0
M  V30 16477 H 1591.15 1.64877 -3.81822 0
M  V30 16478 H 1589.73 2.83481 -2.42267 0
M  V30 16479 N 1591.91 1.44376 0.631925 0
M  V30 16480 C 1593.32 1.41881 1.21353 0
M  V30 16481 C 1593.68 0.13375 1.95744 0
M  V30 16482 O 1592.8 -0.765919 2.02392 0
M  V30 16483 C 1593.4 2.57027 2.20732 0
M  V30 16484 C 1591.95 2.5773 2.74322 0
M  V30 16485 C 1591.1 2.33672 1.49307 0
M  V30 16486 H 1594.05 1.52968 0.42265 0
M  V30 16487 H 1594.07 2.29735 3.03319 0
M  V30 16488 H 1593.59 3.50541 1.66561 0
M  V30 16489 H 1591.69 1.68155 3.32498 0
M  V30 16490 H 1591.8 3.5619 3.20415 0
M  V30 16491 H 1590.16 1.8275 1.7741 0
M  V30 16492 H 1590.95 3.293 0.970395 0
M  V30 16493 N 1593.39 -0.872258 1.31261 0
M  V30 16494 C 1594.62 -1.6632 1.23905 0
M  V30 16495 C 1595.04 -1.87109 -0.192878 0
M  V30 16496 O 1594.4 -1.4112 -1.1382 0
M  V30 16497 C 1594.45 -3.00979 1.98606 0
M  V30 16498 O 1593.55 -3.90642 1.32183 0
M  V30 16499 H 1592.89 -0.507736 0.427902 0
M  V30 16500 H 1595.42 -1.0877 1.73292 0
M  V30 16501 H 1595.43 -3.50931 2.08113 0
M  V30 16502 H 1594.11 -2.85168 3.02741 0
M  V30 16503 H 1592.68 -3.4909 1.31112 0
M  V30 16504 N 1594.87 -1.14184 -1.08627 0
M  V30 16505 C 1595.82 -0.795361 -2.13677 0
M  V30 16506 C 1596.8 0.214426 -1.59465 0
M  V30 16507 O 1598 0.0171053 -1.76992 0
M  V30 16508 C 1595.12 -0.272074 -3.4222 0
M  V30 16509 C 1594.21 -1.31125 -4.0332 0
M  V30 16510 N 1594.6 -2.51469 -4.38859 0
M  V30 16511 C 1592.9 -1.16095 -4.30625 0
M  V30 16512 C 1593.6 -3.17975 -4.871 0
M  V30 16513 N 1592.58 -2.45382 -4.85066 0
M  V30 16514 H 1596.38 -1.71086 -2.38971 0
M  V30 16515 H 1593.89 -1.02537 -1.25936 0
M  V30 16516 H 1595.89 -0.00556906 -4.169 0
M  V30 16517 H 1594.55 0.637644 -3.18377 0
M  V30 16518 H 1595.56 -2.88714 -4.29959 0
M  V30 16519 H 1592.24 -0.310066 -4.16347 0
M  V30 16520 H 1593.63 -4.20569 -5.23996 0
M  V30 16521 N 1596.35 1.26749 -0.936613 0
M  V30 16522 C 1597.6 1.9358 -0.580605 0
M  V30 16523 C 1597.92 1.7389 0.882446 0
M  V30 16524 O 1597.19 1.09185 1.62652 0
M  V30 16525 H 1595.77 0.716363 -0.211739 0
M  V30 16526 H 1598.43 1.54281 -1.19095 0
M  V30 16527 H 1597.53 3.01819 -0.79448 0
M  V30 16528 N 1597.83 0.703118 1.41046 0
M  V30 16529 C 1599.05 0.246552 2.05426 0
M  V30 16530 C 1599.47 -1.10704 1.52938 0
M  V30 16531 O 1598.83 -1.69329 0.680733 0
M  V30 16532 C 1598.88 0.203953 3.60924 0
M  V30 16533 O 1598.6 1.50408 4.11472 0
M  V30 16534 C 1600.1 -0.272686 4.42461 0
M  V30 16535 H 1597.32 0.113157 0.66139 0
M  V30 16536 H 1599.86 0.957823 1.80682 0
M  V30 16537 H 1598.02 -0.458194 3.84681 0
M  V30 16538 H 1598.43 1.39622 5.05575 0
M  V30 16539 H 1599.91 -0.251357 5.51427 0
M  V30 16540 H 1600.38 -1.31282 4.1912 0
M  V30 16541 H 1600.99 0.358733 4.23784 0
M  V30 16542 N 1599.3 -1.51086 0.448402 0
M  V30 16543 C 1600.55 -2.02476 -0.114511 0
M  V30 16544 C 1600.88 -1.33126 -1.4139 0
M  V30 16545 O 1600.16 -0.449665 -1.89231 0
M  V30 16546 C 1600.44 -3.58659 -0.321842 0
M  V30 16547 C 1600.29 -4.38612 0.996975 0
M  V30 16548 C 1601.61 -4.26473 -1.08667 0
M  V30 16549 H 1598.73 -0.735906 -0.0401431 0
M  V30 16550 H 1601.37 -1.80622 0.589563 0
M  V30 16551 H 1599.52 -3.77411 -0.92157 0
M  V30 16552 H 1601.2 -4.31484 1.63154 0
M  V30 16553 H 1599.44 -4.03255 1.599 0
M  V30 16554 H 1600.11 -5.46087 0.805817 0
M  V30 16555 H 1602.59 -4.12058 -0.578559 0
M  V30 16556 H 1601.46 -5.35611 -1.20051 0
M  V30 16557 H 1601.72 -3.88086 -2.11758 0
M  V30 16558 N 1600.78 -0.180154 -1.56567 0
M  V30 16559 C 1601.73 0.759144 -2.14991 0
M  V30 16560 C 1602.72 1.18672 -1.08654 0
M  V30 16561 O 1603.91 1.14761 -1.34755 0
M  V30 16562 C 1601.04 1.98473 -2.80113 0
M  V30 16563 C 1600.12 1.57874 -3.9362 0
M  V30 16564 N 1600.51 0.882825 -4.98036 0
M  V30 16565 C 1598.81 1.86913 -4.04944 0
M  V30 16566 C 1599.51 0.681573 -5.77693 0
M  V30 16567 N 1598.49 1.22573 -5.29601 0
M  V30 16568 H 1602.29 0.218574 -2.93086 0
M  V30 16569 H 1599.81 0.0202002 -1.62387 0
M  V30 16570 H 1601.8 2.66797 -3.20351 0
M  V30 16571 H 1600.46 2.53017 -2.03501 0
M  V30 16572 H 1601.47 0.539906 -5.15078 0
M  V30 16573 H 1598.15 2.43071 -3.39445 0
M  V30 16574 H 1599.54 0.130602 -6.71773 0
M  V30 16575 N 1602.26 1.57322 0.0935319 0
M  V30 16576 C 1603.67 1.75099 0.64787 0
M  V30 16577 C 1604.02 0.802558 1.79035 0
M  V30 16578 O 1603.15 -0.0185803 2.16392 0
M  V30 16579 C 1603.74 3.17512 1.18203 0
M  V30 16580 C 1602.3 3.36707 1.68242 0
M  V30 16581 C 1601.45 2.70893 0.592649 0
M  V30 16582 H 1604.4 1.58146 -0.132546 0
M  V30 16583 H 1604.42 3.2047 2.05132 0
M  V30 16584 H 1603.93 3.86516 0.350297 0
M  V30 16585 H 1602.03 2.72784 2.5381 0
M  V30 16586 H 1602.15 4.45033 1.77433 0
M  V30 16587 H 1600.51 2.32835 1.03248 0
M  V30 16588 H 1601.29 3.42539 -0.228529 0
M  V30 16589 N 1603.74 -0.364395 1.53329 0
M  V30 16590 C 1604.69 -1.4466 1.76232 0
M  V30 16591 C 1605.67 -1.48605 0.616884 0
M  V30 16592 O 1606.86 -1.53826 0.875589 0
M  V30 16593 C 1603.99 -2.82078 1.95671 0
M  V30 16594 C 1603.08 -2.82606 3.16219 0
M  V30 16595 N 1603.47 -2.52781 4.38105 0
M  V30 16596 C 1601.77 -3.13766 3.16965 0
M  V30 16597 C 1602.47 -2.61017 5.19851 0
M  V30 16598 N 1601.45 -2.95777 4.56088 0
M  V30 16599 H 1605.25 -1.20465 2.68077 0
M  V30 16600 H 1602.76 -0.572589 1.51971 0
M  V30 16601 H 1604.76 -3.60026 2.10206 0
M  V30 16602 H 1603.42 -3.07236 1.05054 0
M  V30 16603 H 1604.43 -2.26353 4.65816 0
M  V30 16604 H 1601.11 -3.44231 2.36245 0
M  V30 16605 H 1602.5 -2.41294 6.27078 0
M  V30 16606 N 1605.22 -1.44709 -0.62426 0
M  V30 16607 C 1606.15 -1.54934 -1.74693 0
M  V30 16608 C 1607.13 -0.401897 -1.65284 0
M  V30 16609 O 1608.31 -0.622906 -1.83939 0
M  V30 16610 C 1605.44 -1.49976 -3.13248 0
M  V30 16611 C 1604.4 -2.63267 -3.37453 0
M  V30 16612 C 1603.72 -2.43362 -4.76108 0
M  V30 16613 C 1605.02 -4.0538 -3.2934 0
M  V30 16614 H 1606.72 -2.48905 -1.66393 0
M  V30 16615 H 1604.26 -1.19794 -0.799088 0
M  V30 16616 H 1606.22 -1.55729 -3.91569 0
M  V30 16617 H 1604.94 -0.525254 -3.22349 0
M  V30 16618 H 1603.6 -2.56915 -2.61515 0
M  V30 16619 H 1603.25 -1.44088 -4.81921 0
M  V30 16620 H 1602.95 -3.19324 -4.93261 0
M  V30 16621 H 1604.47 -2.50943 -5.56651 0
M  V30 16622 H 1605.88 -4.13064 -3.97556 0
M  V30 16623 H 1604.28 -4.81599 -3.58025 0
M  V30 16624 H 1605.35 -4.28465 -2.27038 0
M  V30 16625 N 1606.69 0.865285 -1.31722 0
M  V30 16626 C 1607.66 1.95449 -1.19718 0
M  V30 16627 C 1608.66 1.60329 -0.123025 0
M  V30 16628 O 1609.85 1.70168 -0.372643 0
M  V30 16629 C 1606.98 3.30421 -0.838718 0
M  V30 16630 H 1608.17 2.07522 -2.16506 0
M  V30 16631 H 1605.73 1.05416 -1.154 0
M  V30 16632 H 1606.46 3.24048 0.127797 0
M  V30 16633 H 1606.25 3.57286 -1.61522 0
M  V30 16634 H 1607.74 4.10274 -0.77876 0
M  V30 16635 N 1608.17 1.14759 1.0802 0
M  V30 16636 C 1609.14 0.840859 2.13219 0
M  V30 16637 C 1610.14 -0.156309 1.60038 0
M  V30 16638 O 1611.33 0.0725143 1.74049 0
M  V30 16639 C 1608.46 0.254208 3.39951 0
M  V30 16640 H 1609.65 1.77323 2.4186 0
M  V30 16641 H 1607.2 0.954146 1.23797 0
M  V30 16642 H 1607.94 -0.686692 3.16946 0
M  V30 16643 H 1607.72 0.972499 3.79848 0
M  V30 16644 H 1609.21 0.0569551 4.17561 0
M  V30 16645 N 1609.65 -1.26251 0.943322 0
M  V30 16646 C 1610.61 -2.24554 0.459158 0
M  V30 16647 C 1611.61 -1.54918 -0.430926 0
M  V30 16648 O 1612.8 -1.72678 -0.229803 0
M  V30 16649 C 1609.94 -3.39221 -0.337973 0
M  V30 16650 H 1611.13 -2.689 1.32789 0
M  V30 16651 H 1608.68 -1.38442 0.725495 0
M  V30 16652 H 1609.42 -3.00279 -1.22486 0
M  V30 16653 H 1609.2 -3.90947 0.300428 0
M  V30 16654 H 1610.69 -4.12246 -0.666568 0
M  V30 16655 N 1611.13 -0.710588 -1.40671 0
M  V30 16656 C 1612.09 -0.0635988 -2.29112 0
M  V30 16657 C 1613.09 0.692537 -1.45123 0
M  V30 16658 O 1614.28 0.525184 -1.66095 0
M  V30 16659 C 1611.41 0.919955 -3.28252 0
M  V30 16660 H 1612.61 -0.842477 -2.87823 0
M  V30 16661 H 1610.16 -0.474948 -1.48909 0
M  V30 16662 H 1610.9 1.72607 -2.7455 0
M  V30 16663 H 1610.68 0.38071 -3.90247 0
M  V30 16664 H 1612.17 1.36997 -3.94489 0
M  V30 16665 N 1612.61 1.50847 -0.456408 0
M  V30 16666 C 1613.57 2.26755 0.33388 0
M  V30 16667 C 1614.57 1.30947 0.933247 0
M  V30 16668 O 1615.76 1.54499 0.804716 0
M  V30 16669 C 1612.89 3.07378 1.47417 0
M  V30 16670 H 1614.09 2.98061 -0.331634 0
M  V30 16671 H 1611.64 1.54882 -0.210067 0
M  V30 16672 H 1612.37 2.40534 2.17518 0
M  V30 16673 H 1612.16 3.7777 1.05036 0
M  V30 16674 H 1613.65 3.64826 2.03204 0
M  V30 16675 N 1614.09 0.188454 1.56469 0
M  V30 16676 C 1615.05 -0.721282 2.17555 0
M  V30 16677 C 1616.05 -1.14579 1.1282 0
M  V30 16678 O 1617.24 -1.05996 1.38241 0
M  V30 16679 C 1614.37 -1.9839 2.77226 0
M  V30 16680 H 1615.56 -0.189218 2.99302 0
M  V30 16681 H 1613.12 -0.0611533 1.5618 0
M  V30 16682 H 1613.85 -2.55864 1.99259 0
M  V30 16683 H 1613.64 -1.68831 3.53891 0
M  V30 16684 H 1615.13 -2.63277 3.24153 0
M  V30 16685 N 1615.56 -1.5737 -0.0851874 0
M  V30 16686 C 1616.53 -2.01789 -1.08692 0
M  V30 16687 C 1617.53 -0.912872 -1.32376 0
M  V30 16688 O 1618.72 -1.1781 -1.28322 0
M  V30 16689 C 1615.85 -2.38708 -2.43375 0
M  V30 16690 H 1617.04 -2.91511 -0.704359 0
M  V30 16691 H 1614.59 -1.52765 -0.330528 0
M  V30 16692 H 1615.33 -1.5197 -2.86488 0
M  V30 16693 H 1615.11 -3.19331 -2.2753 0
M  V30 16694 H 1616.6 -2.73697 -3.15404 0
M  V30 16695 N 1617.04 0.356258 -1.53521 0
M  V30 16696 C 1617.99 1.43723 -1.76996 0
M  V30 16697 C 1618.98 1.48275 -0.624756 0
M  V30 16698 O 1620.17 1.53359 -0.883734 0
M  V30 16699 C 1617.3 2.81036 -1.97164 0
M  V30 16700 C 1616.38 2.80925 -3.17713 0
M  V30 16701 N 1616.77 2.50454 -4.39439 0
M  V30 16702 C 1615.07 3.12081 -3.18625 0
M  V30 16703 C 1615.77 2.58257 -5.21228 0
M  V30 16704 N 1614.75 2.93354 -4.57651 0
M  V30 16705 H 1618.55 1.19041 -2.68712 0
M  V30 16706 H 1616.06 0.564522 -1.52272 0
M  V30 16707 H 1618.06 3.58906 -2.12113 0
M  V30 16708 H 1616.72 3.06674 -1.06682 0
M  V30 16709 H 1617.73 2.23879 -4.6701 0
M  V30 16710 H 1614.41 3.42973 -2.38067 0
M  V30 16711 H 1615.8 2.37965 -6.28349 0
M  V30 16712 N 1618.52 1.45038 0.616577 0
M  V30 16713 C 1619.45 1.55858 1.73869 0
M  V30 16714 C 1620.43 0.410657 1.65069 0
M  V30 16715 O 1621.62 0.632652 1.83606 0
M  V30 16716 C 1618.75 1.51635 3.12448 0
M  V30 16717 C 1617.7 2.65053 3.36052 0
M  V30 16718 C 1617.03 2.45883 4.74811 0
M  V30 16719 C 1618.33 4.07121 3.27185 0
M  V30 16720 H 1620.02 2.49784 1.6507 0
M  V30 16721 H 1617.57 1.20216 0.792724 0
M  V30 16722 H 1619.52 1.57803 3.90738 0
M  V30 16723 H 1618.24 0.542342 3.22066 0
M  V30 16724 H 1616.9 2.58299 2.60149 0
M  V30 16725 H 1616.55 1.46641 4.8115 0
M  V30 16726 H 1616.25 3.21935 4.9156 0
M  V30 16727 H 1617.77 2.53892 5.55312 0
M  V30 16728 H 1619.19 4.15167 3.9536 0
M  V30 16729 H 1617.58 4.83491 3.55466 0
M  V30 16730 H 1618.65 4.29663 2.24762 0
M  V30 16731 N 1620 -0.858287 1.32179 0
M  V30 16732 C 1621.41 -1.4281 1.20259 0
M  V30 16733 C 1621.76 -1.95313 -0.186332 0
M  V30 16734 O 1620.88 -1.87244 -1.08484 0
M  V30 16735 C 1621.48 -2.59589 2.17713 0
M  V30 16736 C 1620.04 -3.1258 2.09691 0
M  V30 16737 C 1619.19 -1.85317 2.06283 0
M  V30 16738 H 1622.14 -0.665769 1.4406 0
M  V30 16739 H 1622.16 -3.36639 1.77354 0
M  V30 16740 H 1621.67 -2.21346 3.18791 0
M  V30 16741 H 1619.77 -3.55416 1.11849 0
M  V30 16742 H 1619.88 -3.74071 2.99346 0
M  V30 16743 H 1618.25 -2.04766 1.51469 0
M  V30 16744 H 1619.03 -1.49296 3.09137 0
M  V30 16745 N 1621.48 -1.1533 -1.07409 0
M  V30 16746 C 1622.7 -0.951643 -1.83715 0
M  V30 16747 C 1623.12 0.500054 -1.82057 0
M  V30 16748 O 1622.48 1.3468 -1.23157 0
M  V30 16749 C 1622.53 -1.45734 -3.30823 0
M  V30 16750 O 1622.25 -2.85217 -3.3254 0
M  V30 16751 C 1623.75 -1.29709 -4.23899 0
M  V30 16752 H 1620.97 -0.338021 -0.57964 0
M  V30 16753 H 1623.51 -1.53088 -1.35589 0
M  V30 16754 H 1621.67 -0.920643 -3.76302 0
M  V30 16755 H 1622.08 -3.08134 -4.24445 0
M  V30 16756 H 1623.56 -1.69938 -5.2519 0
M  V30 16757 H 1624.03 -0.241185 -4.38537 0
M  V30 16758 H 1624.64 -1.82283 -3.84256 0
M  V30 16759 N 1622.95 1.25748 -0.950004 0
M  V30 16760 C 1623.89 2.25247 -0.423855 0
M  V30 16761 C 1624.9 1.56233 0.457726 0
M  V30 16762 O 1626.09 1.76496 0.266749 0
M  V30 16763 C 1623.19 3.36422 0.409074 0
M  V30 16764 C 1622.36 4.34991 -0.458421 0
M  V30 16765 C 1621.42 5.25253 0.315537 0
M  V30 16766 O 1620.45 5.68489 -0.284474 0
M  V30 16767 N 1621.65 5.57732 1.60983 0
M  V30 16768 H 1624.41 2.71026 -1.27925 0
M  V30 16769 H 1621.97 1.39607 -0.819853 0
M  V30 16770 H 1623.97 3.93764 0.934447 0
M  V30 16771 H 1622.54 2.90068 1.1653 0
M  V30 16772 H 1621.76 3.76594 -1.16494 0
M  V30 16773 H 1623.04 4.97833 -1.05068 0
M  V30 16774 H 1622.44 5.24502 2.1193 0
M  V30 16775 H 1621 6.17678 2.08126 0
M  V30 16776 N 1624.43 0.718038 1.40292 0
M  V30 16777 C 1625.84 0.330675 1.83748 0
M  V30 16778 C 1626.19 -1.13511 1.6003 0
M  V30 16779 O 1625.32 -1.87381 1.08247 0
M  V30 16780 C 1625.91 0.593398 3.33563 0
M  V30 16781 C 1624.47 0.259717 3.75503 0
M  V30 16782 C 1623.62 0.864537 2.63479 0
M  V30 16783 H 1626.57 0.917 1.29525 0
M  V30 16784 H 1626.59 -0.140544 3.8024 0
M  V30 16785 H 1626.1 1.66028 3.50794 0
M  V30 16786 H 1624.2 -0.802011 3.63866 0
M  V30 16787 H 1624.32 0.730427 4.73499 0
M  V30 16788 H 1622.68 0.292399 2.53016 0
M  V30 16789 H 1623.46 1.93574 2.83521 0
M  V30 16790 N 1625.91 -1.50602 0.464402 0
M  V30 16791 C 1626.86 -2.25271 -0.351736 0
M  V30 16792 C 1627.84 -1.28586 -0.967185 0
M  V30 16793 O 1629.04 -1.53526 -0.880843 0
M  V30 16794 C 1626.17 -3.11777 -1.43701 0
M  V30 16795 C 1625.25 -4.15906 -0.82962 0
M  V30 16796 N 1625.64 -5.05779 0.0460845 0
M  V30 16797 C 1623.94 -4.32367 -1.0943 0
M  V30 16798 C 1624.64 -5.80391 0.390094 0
M  V30 16799 N 1623.62 -5.431 -0.233071 0
M  V30 16800 H 1627.42 -2.9212 0.322964 0
M  V30 16801 H 1624.93 -1.60001 0.278131 0
M  V30 16802 H 1626.93 -3.6387 -2.03481 0
M  V30 16803 H 1625.59 -2.46475 -2.11377 0
M  V30 16804 H 1626.6 -5.16239 0.414453 0
M  V30 16805 H 1623.28 -3.78285 -1.76654 0
M  V30 16806 H 1624.67 -6.62762 1.10435 0
M  V30 16807 N 1627.39 -0.19675 -1.56367 0
M  V30 16808 C 1628.32 0.718607 -2.22167 0
M  V30 16809 C 1629.3 1.22002 -1.1853 0
M  V30 16810 O 1630.48 1.26856 -1.47042 0
M  V30 16811 C 1627.61 1.93753 -2.88231 0
M  V30 16812 C 1626.57 1.57096 -3.98127 0
M  V30 16813 C 1625.89 2.86663 -4.51363 0
M  V30 16814 C 1627.19 0.779649 -5.16448 0
M  V30 16815 H 1628.89 0.170064 -2.98917 0
M  V30 16816 H 1626.43 0.0803568 -1.43776 0
M  V30 16817 H 1628.39 2.58312 -3.32946 0
M  V30 16818 H 1627.11 2.51063 -2.0889 0
M  V30 16819 H 1625.77 0.948947 -3.54105 0
M  V30 16820 H 1625.42 3.42066 -3.68782 0
M  V30 16821 H 1625.12 2.6288 -5.25517 0
M  V30 16822 H 1626.64 3.52207 -4.98781 0
M  V30 16823 H 1628.06 1.32838 -5.57698 0
M  V30 16824 H 1626.45 0.639882 -5.96679 0
M  V30 16825 H 1627.52 -0.218944 -4.84405 0
M  V30 16826 N 1628.87 1.57413 0.0768405 0
M  V30 16827 C 1630.1 1.90946 0.788862 0
M  V30 16828 C 1630.5 0.790474 1.71896 0
M  V30 16829 O 1629.85 -0.245385 1.82054 0
M  V30 16830 C 1629.91 3.19902 1.64022 0
M  V30 16831 C 1629.57 4.48447 0.880025 0
M  V30 16832 C 1630.57 5.19509 0.201546 0
M  V30 16833 C 1628.26 4.95078 0.848694 0
M  V30 16834 C 1630.25 6.35451 -0.498091 0
M  V30 16835 C 1627.94 6.10927 0.145281 0
M  V30 16836 C 1628.93 6.80964 -0.526916 0
M  V30 16837 O 1628.62 7.94604 -1.21901 0
M  V30 16838 H 1628.35 0.63576 0.22975 0
M  V30 16839 H 1630.91 2.05332 0.052938 0
M  V30 16840 H 1629.14 3.01712 2.41882 0
M  V30 16841 H 1630.83 3.39125 2.23046 0
M  V30 16842 H 1631.59 4.84514 0.217091 0
M  V30 16843 H 1627.47 4.40441 1.36136 0
M  V30 16844 H 1631.02 6.90053 -1.02333 0
M  V30 16845 H 1626.91 6.45374 0.127646 0
M  V30 16846 H 1627.68 8.10693 -1.12776 0
M  V30 16847 N 1630.34 -0.348112 1.53707 0
M  V30 16848 C 1631.57 -1.10903 1.74666 0
M  V30 16849 C 1631.99 -1.82499 0.483683 0
M  V30 16850 O 1631.34 -1.74191 -0.544419 0
M  V30 16851 C 1631.4 -2.12602 2.92374 0
M  V30 16852 O 1631.12 -1.43918 4.13787 0
M  V30 16853 C 1632.62 -3.01105 3.25347 0
M  V30 16854 H 1629.84 -0.330911 0.583728 0
M  V30 16855 H 1632.38 -0.401707 2.00516 0
M  V30 16856 H 1630.54 -2.78906 2.68869 0
M  V30 16857 H 1630.95 -2.11818 4.79826 0
M  V30 16858 H 1632.42 -3.68408 4.11071 0
M  V30 16859 H 1632.9 -3.66874 2.41455 0
M  V30 16860 H 1633.51 -2.40395 3.50842 0
M  V30 16861 N 1631.82 -1.45363 -0.608876 0
M  V30 16862 C 1633.05 -1.52614 -1.39257 0
M  V30 16863 C 1633.46 -0.157106 -1.88547 0
M  V30 16864 O 1632.8 0.851329 -1.62782 0
M  V30 16865 C 1632.87 -2.44821 -2.63255 0
M  V30 16866 C 1632.53 -3.91582 -2.35612 0
M  V30 16867 C 1633.53 -4.81517 -1.96054 0
M  V30 16868 C 1631.21 -4.36488 -2.48564 0
M  V30 16869 C 1633.21 -6.14365 -1.69808 0
M  V30 16870 C 1630.89 -5.69377 -2.21931 0
M  V30 16871 C 1631.89 -6.58135 -1.82614 0
M  V30 16872 O 1631.58 -7.88561 -1.56292 0
M  V30 16873 H 1631.31 -0.51935 -0.432726 0
M  V30 16874 H 1633.86 -1.91227 -0.749768 0
M  V30 16875 H 1632.09 -2.01177 -3.30249 0
M  V30 16876 H 1633.78 -2.4277 -3.25296 0
M  V30 16877 H 1634.55 -4.48088 -1.85585 0
M  V30 16878 H 1630.43 -3.67646 -2.78133 0
M  V30 16879 H 1633.97 -6.83602 -1.39045 0
M  V30 16880 H 1629.87 -6.02361 -2.32016 0
M  V30 16881 H 1630.64 -8.00576 -1.70355 0
M  V30 16882 N 1633.3 0.851265 -1.32632 0
M  V30 16883 C 1634.53 1.63805 -1.26394 0
M  V30 16884 C 1634.94 1.88056 0.167454 0
M  V30 16885 O 1634.3 1.45196 1.10564 0
M  V30 16886 C 1634.35 2.9954 -2.02381 0
M  V30 16887 O 1634.07 2.76361 -3.39935 0
M  V30 16888 C 1635.57 3.93982 -2.03207 0
M  V30 16889 H 1632.79 0.510088 -0.435948 0
M  V30 16890 H 1635.34 1.06123 -1.74809 0
M  V30 16891 H 1633.49 3.53859 -1.5768 0
M  V30 16892 H 1633.91 3.62708 -3.78871 0
M  V30 16893 H 1635.38 4.86478 -2.60851 0
M  V30 16894 H 1635.86 4.27211 -1.01918 0
M  V30 16895 H 1636.46 3.45601 -2.47871 0
M  V30 16896 N 1634.78 1.15898 1.06796 0
M  V30 16897 C 1635.74 0.863427 2.12315 0
M  V30 16898 C 1636.74 -0.139326 1.60195 0
M  V30 16899 O 1637.93 0.0909705 1.73962 0
M  V30 16900 C 1635.06 0.290251 3.39662 0
M  V30 16901 H 1636.26 1.79879 2.39966 0
M  V30 16902 H 1633.81 0.967223 1.22778 0
M  V30 16903 H 1634.54 -0.653037 3.17657 0
M  V30 16904 H 1634.33 1.01273 3.78796 0
M  V30 16905 H 1635.82 0.10124 4.17477 0
M  V30 16906 N 1636.26 -1.25243 0.956659 0
M  V30 16907 C 1637.67 -1.74909 0.652979 0
M  V30 16908 C 1638.02 -1.77704 -0.831605 0
M  V30 16909 O 1637.14 -1.39921 -1.65079 0
M  V30 16910 C 1637.74 -3.17639 1.1786 0
M  V30 16911 C 1636.3 -3.64856 0.925034 0
M  V30 16912 C 1635.44 -2.43844 1.32044 0
M  V30 16913 H 1638.4 -1.11101 1.13324 0
M  V30 16914 H 1638.42 -3.76654 0.539633 0
M  V30 16915 H 1637.93 -3.15572 2.25911 0
M  V30 16916 H 1636.03 -3.72335 -0.14043 0
M  V30 16917 H 1636.14 -4.5289 1.56292 0
M  V30 16918 H 1634.51 -2.43749 0.738813 0
M  V30 16919 H 1635.29 -2.44466 2.41021 0
M  V30 16920 N 1637.73 -0.725468 -1.3991 0
M  V30 16921 C 1638.7 -0.0878956 -2.29031 0
M  V30 16922 C 1639.7 0.677105 -1.45849 0
M  V30 16923 O 1640.89 0.507538 -1.66642 0
M  V30 16924 C 1638.02 0.885087 -3.2921 0
M  V30 16925 H 1639.21 -0.872957 -2.86914 0
M  V30 16926 H 1636.77 -0.490715 -1.48397 0
M  V30 16927 H 1637.5 1.69685 -2.76365 0
M  V30 16928 H 1637.29 0.339297 -3.90629 0
M  V30 16929 H 1638.78 1.32806 -3.9592 0
M  V30 16930 N 1639.21 1.50354 -0.472382 0
M  V30 16931 C 1640.18 2.27096 0.30981 0
M  V30 16932 C 1641.18 1.3193 0.919306 0
M  V30 16933 O 1642.37 1.55344 0.788284 0
M  V30 16934 C 1639.5 3.08924 1.44149 0
M  V30 16935 H 1640.69 2.97692 -0.363228 0
M  V30 16936 H 1638.24 1.5465 -0.226483 0
M  V30 16937 H 1638.98 2.42828 2.14954 0
M  V30 16938 H 1638.76 3.78862 1.01023 0
M  V30 16939 H 1640.25 3.66961 1.99323 0
M  V30 16940 N 1640.69 0.205039 1.56261 0
M  V30 16941 C 1641.62 -0.706815 2.22545 0
M  V30 16942 C 1642.6 -1.21372 1.19176 0
M  V30 16943 O 1643.79 -1.26074 1.47712 0
M  V30 16944 C 1640.92 -1.92221 2.89255 0
M  V30 16945 C 1639.87 -1.54982 3.98954 0
M  V30 16946 C 1639.2 -2.84265 4.52877 0
M  V30 16947 C 1640.5 -0.75225 5.16854 0
M  V30 16948 H 1642.19 -0.15421 2.99003 0
M  V30 16949 H 1639.74 -0.0727309 1.43816 0
M  V30 16950 H 1641.69 -2.56542 3.34311 0
M  V30 16951 H 1640.41 -2.49952 2.10218 0
M  V30 16952 H 1639.07 -0.930155 3.54604 0
M  V30 16953 H 1638.72 -3.40105 3.70591 0
M  V30 16954 H 1638.42 -2.60089 5.26904 0
M  V30 16955 H 1639.95 -3.49557 5.00642 0
M  V30 16956 H 1641.36 -1.29878 5.58395 0
M  V30 16957 H 1639.76 -0.60823 5.9701 0
M  V30 16958 H 1640.83 0.24463 4.84283 0
M  V30 16959 N 1642.17 -1.57451 -0.0684915 0
M  V30 16960 C 1643.42 -1.87041 -0.765505 0
M  V30 16961 C 1643.74 -0.797489 -1.77947 0
M  V30 16962 O 1643.01 0.17349 -1.9513 0
M  V30 16963 H 1641.59 -0.690203 -0.285708 0
M  V30 16964 H 1644.25 -1.94851 -0.0437957 0
M  V30 16965 H 1643.35 -2.8466 -1.27966 0
M  V30 16966 N 1643.65 0.339955 -1.5389 0
M  V30 16967 C 1644.87 1.10417 -1.75564 0
M  V30 16968 C 1645.3 1.81466 -0.495156 0
M  V30 16969 O 1644.66 1.72679 0.552415 0
M  V30 16970 C 1644.7 2.09056 -2.93816 0
M  V30 16971 O 1643.81 3.16645 -2.64215 0
M  V30 16972 H 1643.15 0.319164 -0.582263 0
M  V30 16973 H 1645.68 0.389251 -2.00863 0
M  V30 16974 H 1645.69 2.52215 -3.20705 0
M  V30 16975 H 1644.36 1.56741 -3.85234 0
M  V30 16976 H 1642.94 2.78278 -2.48225 0
M  V30 16977 N 1645.13 1.45684 0.601159 0
M  V30 16978 C 1646.35 1.53574 1.38646 0
M  V30 16979 C 1646.77 0.170511 1.88028 0
M  V30 16980 O 1646.13 -0.829061 1.62582 0
M  V30 16981 C 1646.18 2.52543 2.58658 0
M  V30 16982 O 1645.9 3.83761 2.11327 0
M  V30 16983 C 1647.4 2.70194 3.5144 0
M  V30 16984 H 1644.62 0.519907 0.424191 0
M  V30 16985 H 1647.16 1.90929 0.732559 0
M  V30 16986 H 1645.32 2.18242 3.20077 0
M  V30 16987 H 1645.73 4.37467 2.89349 0
M  V30 16988 H 1647.21 3.43405 4.32177 0
M  V30 16989 H 1647.68 1.76452 4.02196 0
M  V30 16990 H 1648.29 3.05517 2.95871 0
M  V30 16991 N 1646.6 -0.84422 1.33082 0
M  V30 16992 C 1647.85 -1.59596 1.2399 0
M  V30 16993 C 1648.17 -1.94016 -0.19566 0
M  V30 16994 O 1647.44 -1.60512 -1.12306 0
M  V30 16995 H 1646.02 -0.591727 0.455926 0
M  V30 16996 H 1648.68 -1.00924 1.66735 0
M  V30 16997 H 1647.78 -2.52829 1.82986 0
M  V30 16998 N 1648.08 -1.16463 -1.0618 0
M  V30 16999 C 1649.31 -0.971075 -1.82696 0
M  V30 17000 C 1649.72 0.480716 -1.82578 0
M  V30 17001 O 1649.08 1.33366 -1.24579 0
M  V30 17002 C 1649.13 -1.49235 -3.29259 0
M  V30 17003 O 1648.85 -2.88728 -3.29496 0
M  V30 17004 C 1650.35 -1.34197 -4.225 0
M  V30 17005 H 1647.57 -0.34415 -0.576023 0
M  V30 17006 H 1650.12 -1.54517 -1.33958 0
M  V30 17007 H 1648.27 -0.960503 -3.75304 0
M  V30 17008 H 1648.69 -3.12618 -4.21153 0
M  V30 17009 H 1650.16 -1.75499 -5.23358 0
M  V30 17010 H 1650.64 -0.287685 -4.38257 0
M  V30 17011 H 1651.24 -1.86349 -3.82301 0
M  V30 17012 N 1649.56 1.24734 -0.963288 0
M  V30 17013 C 1650.81 1.92971 -0.623688 0
M  V30 17014 C 1651.14 1.7517 0.838393 0
M  V30 17015 O 1650.41 1.10208 1.60264 0
M  V30 17016 C 1650.7 3.46115 -0.99379 0
M  V30 17017 C 1650.55 3.73104 -2.51224 0
M  V30 17018 C 1651.87 4.36956 -0.525128 0
M  V30 17019 H 1648.99 0.700827 -0.228058 0
M  V30 17020 H 1651.63 1.47187 -1.2015 0
M  V30 17021 H 1649.78 3.85242 -0.502108 0
M  V30 17022 H 1651.45 3.43563 -3.07835 0
M  V30 17023 H 1649.69 3.18409 -2.94616 0
M  V30 17024 H 1650.37 4.80237 -2.7217 0
M  V30 17025 H 1652.84 4.0518 -0.947015 0
M  V30 17026 H 1651.72 5.4285 -0.812695 0
M  V30 17027 H 1651.98 4.38347 0.574843 0
M  V30 17028 N 1651.04 0.732878 1.39523 0
M  V30 17029 C 1652 0.10004 2.28982 0
M  V30 17030 C 1653 -0.669361 1.46206 0
M  V30 17031 O 1654.19 -0.498694 1.66909 0
M  V30 17032 C 1651.32 -0.867616 3.29674 0
M  V30 17033 H 1652.52 0.88816 2.86447 0
M  V30 17034 H 1650.07 0.498578 1.48135 0
M  V30 17035 H 1650.8 -1.68217 2.77261 0
M  V30 17036 H 1650.59 -0.318577 3.90804 0
M  V30 17037 H 1652.08 -1.30704 3.96618 0
M  V30 17038 N 1652.52 -1.50101 0.480349 0
M  V30 17039 C 1653.47 -2.25631 -0.327823 0
M  V30 17040 C 1654.45 -1.29605 -0.953492 0
M  V30 17041 O 1655.64 -1.54451 -0.86451 0
M  V30 17042 C 1652.77 -3.13284 -1.40386 0
M  V30 17043 C 1651.86 -4.16763 -0.785461 0
M  V30 17044 N 1652.25 -5.05702 0.0997266 0
M  V30 17045 C 1650.55 -4.33503 -1.04838 0
M  V30 17046 C 1651.25 -5.79944 0.45163 0
M  V30 17047 N 1650.22 -5.43317 -0.175455 0
M  V30 17048 H 1654.02 -2.91761 0.353929 0
M  V30 17049 H 1651.54 -1.59697 0.295085 0
M  V30 17050 H 1653.54 -3.66008 -1.9961 0
M  V30 17051 H 1652.2 -2.48703 -2.08751 0
M  V30 17052 H 1653.21 -5.1577 0.469184 0
M  V30 17053 H 1649.88 -3.80138 -1.72631 0
M  V30 17054 H 1651.27 -6.61554 1.17458 0
M  V30 17055 N 1653.99 -0.213323 -1.5615 0
M  V30 17056 C 1654.92 0.695003 -2.22917 0
M  V30 17057 C 1655.9 1.20738 -1.19818 0
M  V30 17058 O 1657.09 1.25289 -1.48379 0
M  V30 17059 C 1654.22 1.90685 -2.9027 0
M  V30 17060 C 1653.17 1.52865 -3.9977 0
M  V30 17061 C 1652.5 2.81859 -4.54378 0
M  V30 17062 C 1653.8 0.724829 -5.17246 0
M  V30 17063 H 1655.49 0.138351 -2.9908 0
M  V30 17064 H 1653.04 0.0651029 -1.43853 0
M  V30 17065 H 1654.99 2.54766 -3.35667 0
M  V30 17066 H 1653.72 2.48833 -2.11541 0
M  V30 17067 H 1652.38 0.911336 -3.55092 0
M  V30 17068 H 1652.02 3.38135 -3.72389 0
M  V30 17069 H 1651.72 2.57291 -5.28275 0
M  V30 17070 H 1653.25 3.46897 -5.02489 0
M  V30 17071 H 1654.66 1.26915 -5.59076 0
M  V30 17072 H 1653.06 0.57656 -5.97324 0
M  V30 17073 H 1654.13 -0.270309 -4.84146 0
M  V30 17074 N 1655.47 1.57485 0.0601405 0
M  V30 17075 C 1656.72 1.88094 0.758192 0
M  V30 17076 C 1657.05 0.807138 1.76632 0
M  V30 17077 O 1656.33 -0.181347 1.93653 0
M  V30 17078 C 1656.61 3.29363 1.45574 0
M  V30 17079 C 1656.46 4.47408 0.463233 0
M  V30 17080 C 1657.78 3.69048 2.39773 0
M  V30 17081 H 1654.9 0.684106 0.274169 0
M  V30 17082 H 1657.54 1.89988 0.0212215 0
M  V30 17083 H 1655.69 3.27879 2.08393 0
M  V30 17084 H 1657.36 4.6102 -0.160641 0
M  V30 17085 H 1655.61 4.3324 -0.220408 0
M  V30 17086 H 1656.28 5.43065 0.989164 0
M  V30 17087 H 1658.75 3.71701 1.87024 0
M  V30 17088 H 1657.63 4.68761 2.85577 0
M  V30 17089 H 1657.89 2.9961 3.25094 0
M  V30 17090 N 1656.95 -0.331789 1.54068 0
M  V30 17091 C 1657.91 -1.39094 1.82169 0
M  V30 17092 C 1658.91 -1.45092 0.693168 0
M  V30 17093 O 1660.1 -1.45263 0.961471 0
M  V30 17094 C 1657.24 -2.77909 1.97432 0
M  V30 17095 H 1658.43 -1.15435 2.76794 0
M  V30 17096 H 1655.98 -0.566827 1.4566 0
M  V30 17097 H 1656.72 -3.06835 1.0499 0
M  V30 17098 H 1656.5 -2.7495 2.79544 0
M  V30 17099 H 1657.99 -3.54548 2.20649 0
M  V30 17100 N 1658.43 -1.46001 -0.593424 0
M  V30 17101 C 1659.65 -1.54541 -1.38318 0
M  V30 17102 C 1660.08 -0.183555 -1.87202 0
M  V30 17103 O 1659.44 0.834407 -1.60958 0
M  V30 17104 C 1659.48 -2.54559 -2.55405 0
M  V30 17105 O 1658.59 -2.07321 -3.56499 0
M  V30 17106 H 1657.93 -0.520434 -0.412364 0
M  V30 17107 H 1660.46 -1.9148 -0.720862 0
M  V30 17108 H 1660.47 -2.73823 -3.02465 0
M  V30 17109 H 1659.14 -3.53461 -2.19176 0
M  V30 17110 H 1657.72 -1.97997 -3.15993 0
M  V30 17111 N 1659.91 0.83715 -1.33527 0
M  V30 17112 C 1660.84 1.95423 -1.1976 0
M  V30 17113 C 1661.85 1.62295 -0.128147 0
M  V30 17114 O 1663.04 1.74436 -0.378725 0
M  V30 17115 C 1660.14 3.2896 -0.814775 0
M  V30 17116 C 1659.31 3.9021 -1.97623 0
M  V30 17117 C 1658.37 5.02104 -1.5741 0
M  V30 17118 O 1657.4 5.2116 -2.28868 0
M  V30 17119 N 1658.6 5.78511 -0.480081 0
M  V30 17120 H 1661.37 2.0777 -2.15991 0
M  V30 17121 H 1658.93 1.01297 -1.26295 0
M  V30 17122 H 1660.92 4.01243 -0.527823 0
M  V30 17123 H 1659.49 3.12548 0.0569031 0
M  V30 17124 H 1658.71 3.10495 -2.42871 0
M  V30 17125 H 1660 4.27865 -2.75334 0
M  V30 17126 H 1659.39 5.65585 0.114287 0
M  V30 17127 H 1657.95 6.5131 -0.252808 0
M  V30 17128 N 1661.38 1.17024 1.05561 0
M  V30 17129 C 1662.63 0.954436 1.78143 0
M  V30 17130 C 1662.95 -0.518525 1.8798 0
M  V30 17131 O 1662.22 -1.37654 1.39385 0
M  V30 17132 H 1660.8 0.350141 0.659856 0
M  V30 17133 H 1663.47 1.4743 1.27477 0
M  V30 17134 H 1662.56 1.37955 2.79955 0
M  V30 17135 N 1662.86 -1.24221 0.969889 0
M  V30 17136 C 1664.09 -1.96943 0.650262 0
M  V30 17137 C 1664.51 -1.71437 -0.774018 0
M  V30 17138 O 1663.87 -0.979428 -1.52568 0
M  V30 17139 C 1663.92 -3.48303 0.933682 0
M  V30 17140 O 1663.02 -4.12395 0.0202425 0
M  V30 17141 H 1662.36 -0.616902 0.245618 0
M  V30 17142 H 1664.89 -1.57939 1.30063 0
M  V30 17143 H 1664.9 -3.98701 0.866106 0
M  V30 17144 H 1663.58 -3.66194 1.97166 0
M  V30 17145 H 1662.16 -3.72632 0.141327 0
M  V30 17146 N 1664.34 -0.740267 -1.39132 0
M  V30 17147 C 1665.3 -0.112183 -2.28925 0
M  V30 17148 C 1666.3 0.661598 -1.46559 0
M  V30 17149 O 1667.49 0.489835 -1.67171 0
M  V30 17150 C 1664.63 0.850121 -3.3013 0
M  V30 17151 H 1665.82 -0.903339 -2.85972 0
M  V30 17152 H 1663.37 -0.506427 -1.47868 0
M  V30 17153 H 1664.11 1.66744 -2.78149 0
M  V30 17154 H 1663.89 0.297847 -3.90967 0
M  V30 17155 H 1665.38 1.28599 -3.97306 0
M  V30 17156 N 1665.82 1.49844 -0.488302 0
M  V30 17157 C 1667.23 1.58954 -0.14348 0
M  V30 17158 C 1667.43 1.49482 1.3512 0
M  V30 17159 O 1666.49 1.36218 2.12605 0
M  V30 17160 C 1667.8 2.92222 -0.708991 0
M  V30 17161 C 1669.35 3.05658 -0.673957 0
M  V30 17162 C 1669.83 4.41526 -1.21731 0
M  V30 17163 N 1671.32 4.47985 -1.17746 0
M  V30 17164 C 1672.05 5.51539 -1.5682 0
M  V30 17165 N 1671.55 6.62261 -2.03426 0
M  V30 17166 N 1673.34 5.4218 -1.48315 0
M  V30 17167 H 1665.49 1.54244 -1.46022 0
M  V30 17168 H 1667.76 0.72992 -0.604914 0
M  V30 17169 H 1667.46 3.04683 -1.75674 0
M  V30 17170 H 1667.34 3.76851 -0.162226 0
M  V30 17171 H 1669.72 2.92835 0.364925 0
M  V30 17172 H 1669.8 2.22744 -1.25772 0
M  V30 17173 H 1669.45 4.551 -2.25491 0
M  V30 17174 H 1669.38 5.2306 -0.609598 0
M  V30 17175 H 1671.87 3.68541 -0.835828 0
M  V30 17176 H 1672.18 7.3736 -2.31345 0
M  V30 17177 H 1670.53 6.63335 -2.07392 0
M  V30 17178 H 1673.72 4.54569 -1.11733 0
M  V30 17179 H 1673.89 6.2276 -1.79092 0
M  V30 17180 N 1667.3 0.221601 1.56034 0
M  V30 17181 C 1668.25 -0.701876 2.16928 0
M  V30 17182 C 1669.23 -1.1575 1.11762 0
M  V30 17183 O 1670.42 -1.11148 1.3775 0
M  V30 17184 C 1667.55 -1.90977 2.85277 0
M  V30 17185 C 1666.64 -1.47382 3.97667 0
M  V30 17186 N 1667.03 -0.750469 5.00202 0
M  V30 17187 C 1665.33 -1.7611 4.09757 0
M  V30 17188 C 1666.03 -0.528168 5.79297 0
M  V30 17189 N 1665 -1.08488 5.32664 0
M  V30 17190 H 1668.81 -0.14079 2.93563 0
M  V30 17191 H 1666.32 0.0228611 1.62384 0
M  V30 17192 H 1668.32 -2.5821 3.27312 0
M  V30 17193 H 1666.98 -2.47532 2.10138 0
M  V30 17194 H 1667.99 -0.403152 5.16328 0
M  V30 17195 H 1664.66 -2.33986 3.4577 0
M  V30 17196 H 1666.05 0.0475532 6.71883 0
M  V30 17197 N 1668.77 -1.57515 -0.0517878 0
M  V30 17198 C 1670 -1.92456 -0.759485 0
M  V30 17199 C 1670.42 -0.819396 -1.70092 0
M  V30 17200 O 1669.77 0.205913 -1.81335 0
M  V30 17201 C 1669.83 -3.27242 -1.53606 0
M  V30 17202 O 1669.55 -4.33511 -0.632441 0
M  V30 17203 C 1671.05 -3.76324 -2.34297 0
M  V30 17204 H 1668.27 -0.635688 -0.214807 0
M  V30 17205 H 1670.81 -2.04494 -0.0160862 0
M  V30 17206 H 1668.97 -3.16671 -2.23155 0
M  V30 17207 H 1669.38 -5.11178 -1.17462 0
M  V30 17208 H 1670.85 -4.73209 -2.84213 0
M  V30 17209 H 1671.33 -3.06351 -3.14716 0
M  V30 17210 H 1671.94 -3.89904 -1.69866 0
M  V30 17211 N 1670.25 0.323614 -1.54242 0
M  V30 17212 C 1671.5 1.06314 -1.727 0
M  V30 17213 C 1671.83 1.87674 -0.499225 0
M  V30 17214 O 1671.11 1.87862 0.503805 0
M  V30 17215 C 1671.39 1.9879 -3.00258 0
M  V30 17216 C 1671.24 1.2076 -4.33286 0
M  V30 17217 C 1672.56 2.98314 -3.23569 0
M  V30 17218 H 1669.68 0.385101 -0.628384 0
M  V30 17219 H 1672.32 0.339801 -1.86937 0
M  V30 17220 H 1670.47 2.60468 -2.88251 0
M  V30 17221 H 1672.15 0.615425 -4.57176 0
M  V30 17222 H 1670.39 0.509878 -4.30793 0
M  V30 17223 H 1671.06 1.88662 -5.18759 0
M  V30 17224 H 1673.54 2.46757 -3.35037 0
M  V30 17225 H 1672.41 3.60204 -4.14179 0
M  V30 17226 H 1672.67 3.7077 -2.40795 0
M  V30 17227 N 1671.73 1.46313 0.585673 0
M  V30 17228 C 1672.66 1.52683 1.7094 0
M  V30 17229 C 1673.68 0.415447 1.5741 0
M  V30 17230 O 1674.87 0.683657 1.64889 0
M  V30 17231 C 1671.97 1.38822 3.09163 0
M  V30 17232 C 1671.14 2.64027 3.48724 0
M  V30 17233 C 1670.2 2.44407 4.65995 0
M  V30 17234 O 1669.22 3.18118 4.72006 0
M  V30 17235 N 1670.43 1.50381 5.60683 0
M  V30 17236 H 1673.19 2.49573 1.65932 0
M  V30 17237 H 1670.75 1.42332 0.771573 0
M  V30 17238 H 1672.74 1.23474 3.85404 0
M  V30 17239 H 1671.31 0.501247 3.08555 0
M  V30 17240 H 1670.53 2.94338 2.62219 0
M  V30 17241 H 1671.82 3.47206 3.71921 0
M  V30 17242 H 1671.22 0.895917 5.5856 0
M  V30 17243 H 1669.78 1.40997 6.36367 0
M  V30 17244 N 1673.21 -0.830057 1.33969 0
M  V30 17245 C 1674.16 -1.9292 1.21516 0
M  V30 17246 C 1675.14 -1.60482 0.115907 0
M  V30 17247 O 1676.34 -1.73608 0.344875 0
M  V30 17248 C 1673.46 -3.29442 0.96554 0
M  V30 17249 C 1672.55 -3.68021 2.10763 0
M  V30 17250 N 1672.94 -3.78222 3.3583 0
M  V30 17251 C 1671.24 -3.97821 2.01629 0
M  V30 17252 C 1671.94 -4.11858 4.10789 0
M  V30 17253 N 1670.92 -4.24698 3.39312 0
M  V30 17254 H 1674.72 -1.98974 2.16302 0
M  V30 17255 H 1672.23 -1.0233 1.26104 0
M  V30 17256 H 1674.23 -4.07991 0.857238 0
M  V30 17257 H 1672.89 -3.24689 0.0262975 0
M  V30 17258 H 1673.9 -3.61901 3.7047 0
M  V30 17259 H 1670.58 -4.01229 1.15418 0
M  V30 17260 H 1671.97 -4.27014 5.18757 0
M  V30 17261 N 1674.69 -1.17582 -1.04939 0
M  V30 17262 C 1675.92 -0.990398 -1.81656 0
M  V30 17263 C 1676.33 0.461324 -1.83077 0
M  V30 17264 O 1675.69 1.32037 -1.25986 0
M  V30 17265 C 1675.74 -1.52719 -3.27657 0
M  V30 17266 O 1675.46 -2.92206 -3.26415 0
M  V30 17267 C 1676.96 -1.38671 -4.21053 0
M  V30 17268 H 1674.18 -0.35024 -0.57234 0
M  V30 17269 H 1676.72 -1.5593 -1.32311 0
M  V30 17270 H 1674.88 -1.00026 -3.74264 0
M  V30 17271 H 1675.29 -3.17068 -4.17814 0
M  V30 17272 H 1676.77 -1.8104 -5.21468 0
M  V30 17273 H 1677.24 -0.334151 -4.37927 0
M  V30 17274 H 1677.85 -1.90393 -3.80303 0
M  V30 17275 N 1676.17 1.23705 -0.976463 0
M  V30 17276 C 1677.13 2.23257 -0.518533 0
M  V30 17277 C 1678.13 1.56006 0.3897 0
M  V30 17278 O 1679.32 1.73226 0.18394 0
M  V30 17279 C 1676.45 3.39997 0.247916 0
M  V30 17280 H 1677.64 2.65284 -1.39872 0
M  V30 17281 H 1675.2 1.3647 -0.761946 0
M  V30 17282 H 1675.93 3.03421 1.14482 0
M  V30 17283 H 1675.72 3.90013 -0.403975 0
M  V30 17284 H 1677.21 4.13868 0.557034 0
M  V30 17285 N 1677.64 0.747635 1.38738 0
M  V30 17286 C 1678.87 0.311329 2.04241 0
M  V30 17287 C 1679.28 -1.06319 1.56502 0
M  V30 17288 O 1678.62 -1.68544 0.730669 0
M  V30 17289 C 1678.69 0.24882 3.58638 0
M  V30 17290 C 1678.35 1.5639 4.29408 0
M  V30 17291 C 1679.35 2.51198 4.55187 0
M  V30 17292 C 1677.03 1.83169 4.67712 0
M  V30 17293 C 1679.03 3.71009 5.18296 0
M  V30 17294 C 1676.71 3.03255 5.30546 0
M  V30 17295 C 1677.71 3.96996 5.55773 0
M  V30 17296 O 1677.4 5.14971 6.173 0
M  V30 17297 H 1677.13 0.131827 0.663022 0
M  V30 17298 H 1679.69 1.01572 1.78528 0
M  V30 17299 H 1677.92 -0.511769 3.83299 0
M  V30 17300 H 1679.6 -0.157174 4.05596 0
M  V30 17301 H 1680.37 2.31784 4.2603 0
M  V30 17302 H 1676.25 1.11044 4.47426 0
M  V30 17303 H 1679.79 4.44193 5.37902 0
M  V30 17304 H 1675.69 3.22565 5.59126 0
M  V30 17305 H 1676.46 5.15474 6.3579 0
M  V30 17306 N 1679.12 -1.49583 0.496242 0
M  V30 17307 C 1680.53 -1.8664 0.0472756 0
M  V30 17308 C 1680.88 -1.40898 -1.36536 0
M  V30 17309 O 1680.01 -0.784796 -2.01668 0
M  V30 17310 C 1680.6 -3.38708 0.079016 0
M  V30 17311 C 1679.16 -3.75083 -0.314587 0
M  V30 17312 C 1678.31 -2.73565 0.453624 0
M  V30 17313 H 1681.26 -1.41969 0.709269 0
M  V30 17314 H 1681.28 -3.73676 -0.717396 0
M  V30 17315 H 1680.79 -3.71969 1.10727 0
M  V30 17316 H 1678.89 -3.47429 -1.34625 0
M  V30 17317 H 1679.01 -4.791 0.00155427 0
M  V30 17318 H 1677.37 -2.54519 -0.095937 0
M  V30 17319 H 1678.15 -3.0967 1.48186 0
M  V30 17320 N 1680.6 -0.229873 -1.55915 0
M  V30 17321 C 1681.56 0.663347 -2.19391 0
M  V30 17322 C 1682.56 1.11548 -1.15818 0
M  V30 17323 O 1683.75 1.02294 -1.41002 0
M  V30 17324 C 1680.88 1.9097 -2.82389 0
M  V30 17325 H 1682.08 0.109797 -2.99699 0
M  V30 17326 H 1679.63 0.0197234 -1.56288 0
M  V30 17327 H 1680.37 2.50491 -2.05973 0
M  V30 17328 H 1680.15 1.59388 -3.58243 0
M  V30 17329 H 1681.64 2.5459 -3.31019 0
M  V30 17330 N 1682.08 1.5754 0.0434337 0
M  V30 17331 C 1683.3 1.93247 0.753012 0
M  V30 17332 C 1683.73 0.828712 1.68861 0
M  V30 17333 O 1683.09 -0.216618 1.80001 0
M  V30 17334 C 1683.13 3.27989 1.49852 0
M  V30 17335 O 1682.24 3.19223 2.61094 0
M  V30 17336 H 1681.58 0.632032 0.203547 0
M  V30 17337 H 1684.11 2.046 0.00319776 0
M  V30 17338 H 1684.12 3.62539 1.87161 0
M  V30 17339 H 1682.79 4.07891 0.812251 0
M  V30 17340 H 1681.37 2.9628 2.26434 0
M  V30 17341 N 1683.56 -0.31543 1.54411 0
M  V30 17342 C 1684.8 -1.04997 1.72217 0
M  V30 17343 C 1685.12 -1.8891 0.507176 0
M  V30 17344 O 1686.32 -2.65519 0.566738 0
M  V30 17345 C 1684.78 -1.91633 3.04639 0
M  V30 17346 C 1684.39 -1.12792 4.33569 0
M  V30 17347 C 1686.13 -2.64774 3.31806 0
M  V30 17348 C 1684.04 -1.98621 5.57049 0
M  V30 17349 H 1682.97 -0.395716 0.641814 0
M  V30 17350 H 1685.62 -0.307748 1.80901 0
M  V30 17351 H 1684 -2.69786 2.89882 0
M  V30 17352 H 1685.18 -0.393534 4.59116 0
M  V30 17353 H 1683.49 -0.512975 4.13228 0
M  V30 17354 H 1686.09 -3.29313 4.21257 0
M  V30 17355 H 1686.43 -3.32843 2.50043 0
M  V30 17356 H 1686.96 -1.93678 3.47467 0
M  V30 17357 H 1683.7 -1.35047 6.41438 0
M  V30 17358 H 1683.22 -2.69771 5.35708 0
M  V30 17359 H 1684.9 -2.57014 5.93762 0
M  V30 17360 N 1685.03 -1.46622 -0.577906 0
M  V30 17361 C 1686.28 -1.52406 -1.33792 0
M  V30 17362 C 1686.61 -0.177147 -1.9339 0
M  V30 17363 O 1685.89 0.81197 -1.76741 0
M  V30 17364 C 1686.17 -2.62633 -2.46366 0
M  V30 17365 C 1686.02 -4.06871 -1.91771 0
M  V30 17366 C 1687.34 -2.68909 -3.4839 0
M  V30 17367 H 1684.46 -0.554833 -0.485107 0
M  V30 17368 H 1687.1 -1.78582 -0.648739 0
M  V30 17369 H 1685.25 -2.40444 -3.05154 0
M  V30 17370 H 1686.93 -4.40361 -1.37403 0
M  V30 17371 H 1685.17 -4.16124 -1.2257 0
M  V30 17372 H 1685.84 -4.79734 -2.73056 0
M  V30 17373 H 1688.32 -2.88868 -2.9949 0
M  V30 17374 H 1687.19 -3.47846 -4.24611 0
M  V30 17375 H 1687.45 -1.75148 -4.05925 0
M  V30 17376 N 1686.51 0.822941 -1.34408 0
M  V30 17377 C 1687.46 1.92272 -1.22537 0
M  V30 17378 C 1688.45 1.60418 -0.124416 0
M  V30 17379 O 1689.64 1.73422 -0.354077 0
M  V30 17380 C 1686.77 3.28926 -0.982998 0
M  V30 17381 C 1685.85 3.66898 -2.12712 0
M  V30 17382 N 1686.24 3.76436 -3.37831 0
M  V30 17383 C 1684.54 3.96746 -2.03736 0
M  V30 17384 C 1685.24 4.09674 -4.12968 0
M  V30 17385 N 1684.22 4.22893 -3.41559 0
M  V30 17386 H 1688.02 1.97824 -2.17354 0
M  V30 17387 H 1685.54 1.0166 -1.26645 0
M  V30 17388 H 1687.53 4.07531 -0.878862 0
M  V30 17389 H 1686.19 3.24671 -0.0435162 0
M  V30 17390 H 1687.2 3.59931 -3.72384 0
M  V30 17391 H 1683.88 4.00611 -1.17544 0
M  V30 17392 H 1685.27 4.24257 -5.21014 0
M  V30 17393 N 1687.99 1.18137 1.04314 0
M  V30 17394 C 1688.92 0.863879 2.12296 0
M  V30 17395 C 1689.94 -0.137469 1.62219 0
M  V30 17396 O 1691.12 0.0900306 1.78273 0
M  V30 17397 C 1688.22 0.269002 3.37831 0
M  V30 17398 C 1687.4 1.3154 4.17152 0
M  V30 17399 C 1686.46 0.736666 5.21018 0
M  V30 17400 O 1685.48 1.41075 5.5144 0
M  V30 17401 N 1686.68 -0.467037 5.78618 0
M  V30 17402 H 1689.45 1.7933 2.40127 0
M  V30 17403 H 1687.01 1.08142 1.20486 0
M  V30 17404 H 1689 -0.131671 4.04486 0
M  V30 17405 H 1687.57 -0.564386 3.07463 0
M  V30 17406 H 1686.79 1.89148 3.45856 0
M  V30 17407 H 1688.08 2.02093 4.66943 0
M  V30 17408 H 1687.48 -1.03247 5.56198 0
M  V30 17409 H 1686.04 -0.809663 6.46752 0
M  V30 17410 N 1689.47 -1.23186 0.98301 0
M  V30 17411 C 1690.71 -1.91955 0.65431 0
M  V30 17412 C 1691.05 -1.76482 -0.810419 0
M  V30 17413 O 1690.32 -1.12744 -1.5849 0
M  V30 17414 C 1690.61 -3.4449 1.04873 0
M  V30 17415 C 1690.46 -3.6906 2.57128 0
M  V30 17416 C 1691.78 -4.36065 0.594578 0
M  V30 17417 H 1688.9 -0.69711 0.239179 0
M  V30 17418 H 1691.54 -1.45257 1.22476 0
M  V30 17419 H 1689.69 -3.84394 0.563333 0
M  V30 17420 H 1691.36 -3.38622 3.13262 0
M  V30 17421 H 1689.6 -3.13681 2.99644 0
M  V30 17422 H 1690.27 -4.75846 2.79776 0
M  V30 17423 H 1692.75 -4.03622 1.01136 0
M  V30 17424 H 1691.63 -5.41489 0.898955 0
M  V30 17425 H 1691.89 -4.39206 -0.505033 0
M  V30 17426 N 1690.95 -0.754982 -1.38339 0
M  V30 17427 C 1692.36 -0.379276 -1.82807 0
M  V30 17428 C 1692.71 1.09228 -1.62984 0
M  V30 17429 O 1691.83 1.84445 -1.13177 0
M  V30 17430 C 1692.43 -0.681628 -3.31872 0
M  V30 17431 C 1690.99 -0.359183 -3.74682 0
M  V30 17432 C 1690.13 -0.93409 -2.61094 0
M  V30 17433 H 1693.09 -0.951019 -1.27048 0
M  V30 17434 H 1693.11 0.0396803 -3.80479 0
M  V30 17435 H 1692.62 -1.75271 -3.46268 0
M  V30 17436 H 1690.72 0.705257 -3.65865 0
M  V30 17437 H 1690.83 -0.85571 -4.71396 0
M  V30 17438 H 1689.2 -0.359379 -2.52152 0
M  V30 17439 H 1689.98 -2.01023 -2.78289 0
M  V30 17440 N 1692.42 1.49318 -0.504168 0
M  V30 17441 C 1693.67 2.02762 0.0392846 0
M  V30 17442 C 1694 1.38282 1.36352 0
M  V30 17443 O 1693.28 0.519587 1.87431 0
M  V30 17444 C 1693.56 3.59606 0.188507 0
M  V30 17445 C 1693.41 4.3461 -1.15908 0
M  V30 17446 C 1694.73 4.30213 0.927641 0
M  V30 17447 H 1691.85 0.736889 0.0128028 0
M  V30 17448 H 1694.49 1.78309 -0.656193 0
M  V30 17449 H 1692.64 3.80572 0.780861 0
M  V30 17450 H 1694.32 4.25132 -1.79055 0
M  V30 17451 H 1692.56 3.97043 -1.74756 0
M  V30 17452 H 1693.23 5.4272 -1.00794 0
M  V30 17453 H 1695.71 4.13922 0.425228 0
M  V30 17454 H 1694.58 5.39697 1.0009 0
M  V30 17455 H 1694.84 3.95678 1.97209 0
M  V30 17456 N 1693.9 0.238138 1.5579 0
M  V30 17457 C 1695.13 -0.396409 2.03576 0
M  V30 17458 C 1695.55 -1.5138 1.11649 0
M  V30 17459 O 1694.91 -1.80979 0.107774 0
M  V30 17460 C 1694.96 -0.889749 3.49451 0
M  V30 17461 O 1694.06 -1.99997 3.60659 0
M  V30 17462 H 1693.4 -0.0876017 0.658196 0
M  V30 17463 H 1695.93 0.361632 2.01379 0
M  V30 17464 H 1695.94 -1.19526 3.901 0
M  V30 17465 H 1694.62 -0.0720136 4.15838 0
M  V30 17466 H 1693.2 -1.69983 3.31904 0
M  V30 17467 N 1695.38 -1.57561 -0.0350783 0
M  V30 17468 C 1696.31 -2.01535 -1.07046 0
M  V30 17469 C 1697.29 -0.898604 -1.35513 0
M  V30 17470 O 1698.48 -1.16395 -1.48271 0
M  V30 17471 C 1695.6 -2.3833 -2.40659 0
M  V30 17472 C 1694.65 -3.60386 -2.28088 0
M  V30 17473 S 1695.48 -5.09768 -1.64001 0
M  V30 17474 C 1696.64 -5.498 -2.99116 0
M  V30 17475 H 1696.87 -2.89041 -0.695884 0
M  V30 17476 H 1694.4 -1.52446 -0.244859 0
M  V30 17477 H 1696.36 -2.602 -3.175 0
M  V30 17478 H 1695.02 -1.51286 -2.75266 0
M  V30 17479 H 1694.22 -3.83767 -3.26709 0
M  V30 17480 H 1693.82 -3.38336 -1.59389 0
M  V30 17481 H 1696.11 -5.50117 -3.95447 0
M  V30 17482 H 1697.05 -6.50184 -2.80475 0
M  V30 17483 H 1697.46 -4.77296 -3.01412 0
M  V30 17484 N 1696.86 0.307236 -1.54576 0
M  V30 17485 C 1698.11 1.04115 -1.73218 0
M  V30 17486 C 1698.43 1.88008 -0.517482 0
M  V30 17487 O 1697.7 1.90219 0.468336 0
M  V30 17488 H 1696.28 0.387388 -0.638701 0
M  V30 17489 H 1698.94 0.339727 -1.91916 0
M  V30 17490 H 1698.04 1.69784 -2.61877 0
M  V30 17491 N 1698.34 1.46926 0.570122 0
M  V30 17492 C 1699.75 1.469 1.15227 0
M  V30 17493 C 1700.1 0.216651 1.95 0
M  V30 17494 O 1699.22 -0.679388 2.05459 0
M  V30 17495 C 1699.82 2.66158 2.09632 0
M  V30 17496 C 1698.38 2.69133 2.63144 0
M  V30 17497 C 1697.52 2.39795 1.39262 0
M  V30 17498 H 1700.48 1.54623 0.35739 0
M  V30 17499 H 1700.5 2.42393 2.93302 0
M  V30 17500 H 1700.01 3.5729 1.51543 0
M  V30 17501 H 1698.11 1.82106 3.25066 0
M  V30 17502 H 1698.22 3.69459 3.05019 0
M  V30 17503 H 1696.59 1.9011 1.695 0
M  V30 17504 H 1697.37 3.33119 0.829855 0
M  V30 17505 N 1699.82 -0.815801 1.34842 0
M  V30 17506 C 1701.23 -1.10999 1.1468 0
M  V30 17507 C 1701.43 -2.01445 -0.0469339 0
M  V30 17508 O 1700.49 -2.42007 -0.720322 0
M  V30 17509 C 1701.8 -1.74984 2.44543 0
M  V30 17510 C 1703.35 -1.87447 2.50665 0
M  V30 17511 C 1703.82 -2.54848 3.80548 0
M  V30 17512 N 1705.31 -2.62341 3.81748 0
M  V30 17513 C 1706.05 -3.15239 4.7897 0
M  V30 17514 N 1705.55 -3.68646 5.86577 0
M  V30 17515 N 1707.34 -3.13706 4.66417 0
M  V30 17516 H 1699.49 -0.214351 2.11316 0
M  V30 17517 H 1701.75 -0.157666 0.934797 0
M  V30 17518 H 1701.46 -1.1599 3.32023 0
M  V30 17519 H 1701.33 -2.7478 2.5841 0
M  V30 17520 H 1703.72 -2.45587 1.63619 0
M  V30 17521 H 1703.8 -0.865325 2.40719 0
M  V30 17522 H 1703.44 -1.9736 4.67987 0
M  V30 17523 H 1703.37 -3.5628 3.87778 0
M  V30 17524 H 1705.87 -2.24493 3.03992 0
M  V30 17525 H 1706.18 -4.07281 6.56766 0
M  V30 17526 H 1704.52 -3.6687 5.90281 0
M  V30 17527 H 1707.71 -2.71255 3.81495 0
M  V30 17528 H 1707.89 -3.54626 5.4235 0
M  V30 17529 N 1701.29 -1.18689 -1.03686 0
M  V30 17530 C 1702.54 -0.98606 -1.77214 0
M  V30 17531 C 1702.87 0.482788 -1.88103 0
M  V30 17532 O 1702.15 1.3585 -1.39194 0
M  V30 17533 C 1702.43 -1.64611 -3.20274 0
M  V30 17534 C 1702.28 -3.18808 -3.17304 0
M  V30 17535 C 1703.6 -1.36251 -4.18478 0
M  V30 17536 H 1700.72 -0.359634 -0.643298 0
M  V30 17537 H 1703.36 -1.46412 -1.21094 0
M  V30 17538 H 1701.51 -1.23964 -3.68192 0
M  V30 17539 H 1703.19 -3.68615 -2.77346 0
M  V30 17540 H 1701.43 -3.50769 -2.55232 0
M  V30 17541 H 1702.1 -3.60131 -4.18341 0
M  V30 17542 H 1704.58 -1.71476 -3.79124 0
M  V30 17543 H 1703.45 -1.84997 -5.16786 0
M  V30 17544 H 1703.71 -0.286113 -4.41173 0
M  V30 17545 N 1702.77 1.22662 -0.989529 0
M  V30 17546 C 1703.7 2.26762 -0.556891 0
M  V30 17547 C 1704.68 1.64971 0.414538 0
M  V30 17548 O 1705.87 1.91775 0.305909 0
M  V30 17549 C 1703 3.47047 0.132573 0
M  V30 17550 C 1701.95 4.21251 -0.757058 0
M  V30 17551 C 1701.28 5.3466 0.065134 0
M  V30 17552 C 1702.58 4.8029 -2.05229 0
M  V30 17553 H 1704.27 2.63204 -1.42703 0
M  V30 17554 H 1701.82 1.26522 -0.687614 0
M  V30 17555 H 1703.77 4.19027 0.446609 0
M  V30 17556 H 1702.49 3.09692 1.03723 0
M  V30 17557 H 1701.15 3.51101 -1.05469 0
M  V30 17558 H 1700.8 4.93547 0.970607 0
M  V30 17559 H 1700.5 5.85231 -0.527063 0
M  V30 17560 H 1702.03 6.09458 0.373342 0
M  V30 17561 H 1703.44 5.44229 -1.80242 0
M  V30 17562 H 1701.84 5.41186 -2.59302 0
M  V30 17563 H 1702.91 4.00529 -2.73322 0
M  V30 17564 N 1704.25 0.762308 1.37937 0
M  V30 17565 C 1705.66 0.388966 1.82603 0
M  V30 17566 C 1706.01 -1.08362 1.63561 0
M  V30 17567 O 1705.14 -1.83842 1.14154 0
M  V30 17568 C 1705.73 0.699218 3.31506 0
M  V30 17569 C 1704.29 0.379048 3.74487 0
M  V30 17570 C 1703.44 0.947924 2.60595 0
M  V30 17571 H 1706.39 0.957743 1.26542 0
M  V30 17572 H 1706.41 -0.019502 3.80495 0
M  V30 17573 H 1705.92 1.77105 3.45334 0
M  V30 17574 H 1704.02 -0.685844 3.66233 0
M  V30 17575 H 1704.14 0.880697 4.70936 0
M  V30 17576 H 1702.5 0.372746 2.51958 0
M  V30 17577 H 1703.28 2.02496 2.77219 0
M  V30 17578 N 1705.73 -1.49049 0.51208 0
M  V30 17579 C 1706.95 -2.07382 -0.0271044 0
M  V30 17580 C 1707.38 -1.3685 -1.29049 0
M  V30 17581 O 1706.74 -0.428713 -1.76158 0
M  V30 17582 C 1706.78 -3.59715 -0.252462 0
M  V30 17583 O 1705.89 -3.90538 -1.32491 0
M  V30 17584 H 1705.23 -0.663269 0.0311507 0
M  V30 17585 H 1707.76 -1.91705 0.714873 0
M  V30 17586 H 1707.77 -4.05159 -0.480603 0
M  V30 17587 H 1706.44 -4.10459 0.670531 0
M  V30 17588 H 1705.02 -3.56892 -1.08085 0
M  V30 17589 N 1707.21 -0.246397 -1.55662 0
M  V30 17590 C 1708.62 0.256853 -1.84925 0
M  V30 17591 C 1708.97 1.5763 -1.16821 0
M  V30 17592 O 1708.09 2.11745 -0.446415 0
M  V30 17593 C 1708.69 0.472815 -3.35485 0
M  V30 17594 C 1707.25 0.92033 -3.64975 0
M  V30 17595 C 1706.39 -0.00273772 -2.773 0
M  V30 17596 H 1709.34 -0.468971 -1.51612 0
M  V30 17597 H 1709.37 1.31549 -3.57037 0
M  V30 17598 H 1708.88 -0.487664 -3.85024 0
M  V30 17599 H 1706.98 1.89329 -3.20913 0
M  V30 17600 H 1707.09 0.77754 -4.72748 0
M  V30 17601 H 1705.46 0.508539 -2.49572 0
M  V30 17602 H 1706.24 -0.958581 -3.29645 0
M  V30 17603 N 1708.68 1.57577 0.026722 0
M  V30 17604 C 1709.91 1.9364 0.728771 0
M  V30 17605 C 1710.33 0.846352 1.68767 0
M  V30 17606 O 1709.68 -0.177038 1.81639 0
M  V30 17607 C 1709.73 3.29644 1.48381 0
M  V30 17608 O 1709.46 4.34462 0.563393 0
M  V30 17609 C 1710.96 3.80004 2.2828 0
M  V30 17610 H 1708.18 0.639025 0.204666 0
M  V30 17611 H 1710.72 2.04493 -0.016449 0
M  V30 17612 H 1708.88 3.20181 2.18089 0
M  V30 17613 H 1709.29 5.12982 1.09315 0
M  V30 17614 H 1710.76 4.77671 2.76649 0
M  V30 17615 H 1711.24 3.11319 3.09802 0
M  V30 17616 H 1711.85 3.92558 1.63642 0
M  V30 17617 N 1710.16 -0.299034 1.54737 0
M  V30 17618 C 1711.41 -1.03164 1.7332 0
M  V30 17619 C 1711.72 -1.88362 0.527184 0
M  V30 17620 O 1712.93 -2.64903 0.594868 0
M  V30 17621 C 1711.39 -1.88391 3.06654 0
M  V30 17622 C 1710.99 -1.08187 4.34741 0
M  V30 17623 C 1712.74 -2.6124 3.34595 0
M  V30 17624 C 1710.64 -1.92702 5.59124 0
M  V30 17625 H 1709.57 -0.388887 0.645975 0
M  V30 17626 H 1712.23 -0.288544 1.81217 0
M  V30 17627 H 1710.61 -2.66696 2.92727 0
M  V30 17628 H 1711.78 -0.344817 4.59508 0
M  V30 17629 H 1710.1 -0.469118 4.13749 0
M  V30 17630 H 1712.69 -3.24826 4.24726 0
M  V30 17631 H 1713.04 -3.30172 2.53559 0
M  V30 17632 H 1713.57 -1.89982 3.49502 0
M  V30 17633 H 1710.31 -1.28236 6.42834 0
M  V30 17634 H 1709.83 -2.64074 5.38539 0
M  V30 17635 H 1711.51 -2.50702 5.96454 0
M  V30 17636 N 1711.64 -1.47227 -0.562322 0
M  V30 17637 C 1712.59 -1.55739 -1.66521 0
M  V30 17638 C 1713.57 -0.416678 -1.55411 0
M  V30 17639 O 1714.77 -0.666302 -1.6398 0
M  V30 17640 C 1711.89 -1.5699 -3.05302 0
M  V30 17641 C 1710.98 -2.76427 -3.21634 0
M  V30 17642 N 1711.37 -4.01172 -3.0805 0
M  V30 17643 C 1709.67 -2.73081 -3.52623 0
M  V30 17644 C 1710.37 -4.81132 -3.26936 0
M  V30 17645 N 1709.35 -4.13362 -3.53034 0
M  V30 17646 H 1713.15 -2.49965 -1.5458 0
M  V30 17647 H 1710.66 -1.4315 -0.766937 0
M  V30 17648 H 1712.66 -1.61178 -3.84483 0
M  V30 17649 H 1711.32 -0.638563 -3.18359 0
M  V30 17650 H 1712.33 -4.3211 -2.85485 0
M  V30 17651 H 1709.01 -1.89062 -3.72239 0
M  V30 17652 H 1710.4 -5.9002 -3.21444 0
M  V30 17653 N 1713.12 0.808639 -1.35273 0
M  V30 17654 C 1714.53 1.38248 -1.25477 0
M  V30 17655 C 1714.88 1.9587 0.113715 0
M  V30 17656 O 1714 1.91141 1.0146 0
M  V30 17657 C 1714.6 2.5133 -2.27197 0
M  V30 17658 C 1713.16 3.04582 -2.21148 0
M  V30 17659 C 1712.31 1.77534 -2.13019 0
M  V30 17660 H 1715.26 0.611844 -1.46431 0
M  V30 17661 H 1715.28 3.29825 -1.89726 0
M  V30 17662 H 1714.79 2.09362 -3.26786 0
M  V30 17663 H 1712.89 3.5102 -1.24963 0
M  V30 17664 H 1713 3.62703 -3.13023 0
M  V30 17665 H 1711.37 1.99004 -1.58964 0
M  V30 17666 H 1712.15 1.3772 -3.14465 0
M  V30 17667 N 1714.6 1.19237 1.03055 0
M  V30 17668 C 1715.82 1.01983 1.80594 0
M  V30 17669 C 1716.25 -0.426875 1.83192 0
M  V30 17670 O 1715.6 -1.30678 1.2567 0
M  V30 17671 C 1715.65 1.59139 3.23585 0
M  V30 17672 O 1714.76 0.819576 4.04174 0
M  V30 17673 H 1714.1 0.360585 0.557561 0
M  V30 17674 H 1716.63 1.58222 1.29719 0
M  V30 17675 H 1716.64 1.62283 3.74337 0
M  V30 17676 H 1715.31 2.64436 3.21009 0
M  V30 17677 H 1713.89 0.861253 3.62818 0
M  V30 17678 N 1716.07 -1.22136 0.99602 0
M  V30 17679 C 1717.01 -2.23518 0.507162 0
M  V30 17680 C 1718.02 -1.57824 -0.399426 0
M  V30 17681 O 1719.21 -1.77364 -0.20106 0
M  V30 17682 C 1716.31 -3.37709 -0.283931 0
M  V30 17683 C 1715.48 -4.3299 0.619549 0
M  V30 17684 C 1714.54 -5.26062 -0.120376 0
M  V30 17685 O 1713.57 -5.67041 0.495269 0
M  V30 17686 N 1714.77 -5.63322 -1.40172 0
M  V30 17687 H 1717.53 -2.66092 1.37896 0
M  V30 17688 H 1715.09 -1.36468 0.871102 0
M  V30 17689 H 1717.09 -3.96961 -0.787661 0
M  V30 17690 H 1715.66 -2.94193 -1.05685 0
M  V30 17691 H 1714.88 -3.72011 1.3039 0
M  V30 17692 H 1716.16 -4.93591 1.23473 0
M  V30 17693 H 1715.56 -5.32006 -1.92318 0
M  V30 17694 H 1714.12 -6.24977 -1.85058 0
M  V30 17695 N 1717.55 -0.769612 -1.37531 0
M  V30 17696 C 1718.78 -0.343783 -2.0372 0
M  V30 17697 C 1719.19 1.03816 -1.58173 0
M  V30 17698 O 1718.53 1.6736 -0.75739 0
M  V30 17699 C 1718.6 -0.305844 -3.58197 0
M  V30 17700 C 1718.26 -1.63202 -4.26866 0
M  V30 17701 C 1719.26 -2.58408 -4.51133 0
M  V30 17702 C 1716.94 -1.90587 -4.64739 0
M  V30 17703 C 1718.94 -3.79208 -5.12328 0
M  V30 17704 C 1716.62 -3.11657 -5.25655 0
M  V30 17705 C 1717.62 -4.05788 -5.49386 0
M  V30 17706 O 1717.31 -5.24727 -6.09029 0
M  V30 17707 H 1717.04 -0.142358 -0.66084 0
M  V30 17708 H 1719.59 -1.04399 -1.7689 0
M  V30 17709 H 1717.82 0.450724 -3.84064 0
M  V30 17710 H 1719.51 0.0926269 -4.05794 0
M  V30 17711 H 1720.28 -2.38532 -4.22288 0
M  V30 17712 H 1716.16 -1.18148 -4.45603 0
M  V30 17713 H 1719.7 -4.52694 -5.30767 0
M  V30 17714 H 1715.6 -3.3142 -5.53924 0
M  V30 17715 H 1716.37 -5.25523 -6.27509 0
M  V30 17716 N 1719.03 1.48775 -0.519977 0
M  V30 17717 C 1720.44 1.86541 -0.0769625 0
M  V30 17718 C 1720.79 1.43053 1.34277 0
M  V30 17719 O 1719.92 0.816781 2.00394 0
M  V30 17720 C 1720.51 3.38539 -0.132891 0
M  V30 17721 C 1719.07 3.75536 0.254875 0
M  V30 17722 C 1718.22 2.72808 -0.497088 0
M  V30 17723 H 1721.17 1.40822 -0.731765 0
M  V30 17724 H 1721.19 3.7477 0.657856 0
M  V30 17725 H 1720.7 3.70161 -1.1663 0
M  V30 17726 H 1718.8 3.49527 1.29081 0
M  V30 17727 H 1718.92 4.79037 -0.0777747 0
M  V30 17728 H 1717.28 2.5464 0.0554331 0
M  V30 17729 H 1718.06 3.07274 -1.53094 0
M  V30 17730 N 1720.51 0.254649 1.55529 0
M  V30 17731 C 1721.47 -0.62836 2.20418 0
M  V30 17732 C 1722.47 -1.09691 1.17578 0
M  V30 17733 O 1723.66 -1.00037 1.42612 0
M  V30 17734 C 1720.79 -1.86453 2.85391 0
M  V30 17735 H 1721.99 -0.0621032 2.99836 0
M  V30 17736 H 1719.54 0.00514311 1.56299 0
M  V30 17737 H 1720.27 -2.47182 2.09932 0
M  V30 17738 H 1720.06 -1.53669 3.60733 0
M  V30 17739 H 1721.55 -2.49291 3.35028 0
M  V30 17740 N 1721.99 -1.57589 -0.0183649 0
M  V30 17741 C 1722.92 -2.04071 -1.04343 0
M  V30 17742 C 1723.93 -0.955366 -1.3182 0
M  V30 17743 O 1725.12 -1.23249 -1.29119 0
M  V30 17744 C 1722.22 -2.41011 -2.38258 0
M  V30 17745 C 1721.39 -3.72057 -2.29984 0
M  V30 17746 C 1720.45 -3.96067 -3.46435 0
M  V30 17747 O 1719.48 -4.66982 -3.25447 0
M  V30 17748 N 1720.68 -3.42535 -4.68669 0
M  V30 17749 H 1723.45 -2.92629 -0.647168 0
M  V30 17750 H 1721.01 -1.60583 -0.20611 0
M  V30 17751 H 1723 -2.54203 -3.14902 0
M  V30 17752 H 1721.57 -1.58068 -2.69691 0
M  V30 17753 H 1720.79 -3.69117 -1.38369 0
M  V30 17754 H 1722.08 -4.58003 -2.2161 0
M  V30 17755 H 1721.47 -2.85073 -4.8862 0
M  V30 17756 H 1720.03 -3.61087 -5.42641 0
M  V30 17757 N 1723.46 0.290824 -1.54893 0
M  V30 17758 C 1724.71 1.02475 -1.74657 0
M  V30 17759 C 1725.04 1.86915 -0.537885 0
M  V30 17760 O 1724.29 1.89722 0.479998 0
M  V30 17761 C 1724.59 1.95145 -2.99422 0
M  V30 17762 C 1724.26 1.26599 -4.32763 0
M  V30 17763 C 1722.92 1.07639 -4.69007 0
M  V30 17764 C 1725.27 0.776794 -5.15379 0
M  V30 17765 C 1722.6 0.38458 -5.85438 0
M  V30 17766 C 1724.95 0.0986614 -6.32523 0
M  V30 17767 C 1723.62 -0.102812 -6.67421 0
M  V30 17768 H 1722.89 0.374982 -0.639116 0
M  V30 17769 H 1725.53 0.298659 -1.89157 0
M  V30 17770 H 1723.84 2.74316 -2.79746 0
M  V30 17771 H 1725.54 2.5202 -3.11908 0
M  V30 17772 H 1722.13 1.42365 -4.04265 0
M  V30 17773 H 1726.31 0.91096 -4.87868 0
M  V30 17774 H 1721.57 0.217593 -6.11013 0
M  V30 17775 H 1725.74 -0.28825 -6.95803 0
M  V30 17776 H 1723.37 -0.640872 -7.57494 0
M  V30 17777 N 1724.94 1.47523 0.554506 0
M  V30 17778 C 1725.91 1.59761 1.64345 0
M  V30 17779 C 1726.91 0.472516 1.53701 0
M  V30 17780 O 1728.1 0.737659 1.57811 0
M  V30 17781 C 1725.23 1.54467 3.03896 0
M  V30 17782 H 1726.42 2.56834 1.54842 0
M  V30 17783 H 1723.97 1.35753 0.774643 0
M  V30 17784 H 1724.71 0.587789 3.18929 0
M  V30 17785 H 1724.49 2.36123 3.13031 0
M  V30 17786 H 1725.98 1.66174 3.83113 0
M  V30 17787 N 1726.42 -0.801453 1.357 0
M  V30 17788 C 1727.37 -1.90299 1.2558 0
M  V30 17789 C 1728.35 -1.602 0.149922 0
M  V30 17790 O 1729.55 -1.72837 0.381622 0
M  V30 17791 C 1726.68 -3.2732 1.0352 0
M  V30 17792 C 1725.76 -3.63468 2.18522 0
M  V30 17793 N 1726.15 -3.71014 3.43777 0
M  V30 17794 C 1724.45 -3.93455 2.10022 0
M  V30 17795 C 1725.15 -4.03052 4.19433 0
M  V30 17796 N 1724.13 -4.17405 3.48244 0
M  V30 17797 H 1727.93 -1.94341 2.20474 0
M  V30 17798 H 1725.44 -0.996323 1.28247 0
M  V30 17799 H 1727.44 -4.06081 0.943586 0
M  V30 17800 H 1726.1 -3.24561 0.095163 0
M  V30 17801 H 1727.11 -3.53961 3.78064 0
M  V30 17802 H 1723.79 -3.98691 1.23903 0
M  V30 17803 H 1725.18 -4.15914 5.27698 0
M  V30 17804 N 1727.9 -1.19782 -1.02421 0
M  V30 17805 C 1728.83 -0.897544 -2.10895 0
M  V30 17806 C 1729.84 0.111644 -1.62417 0
M  V30 17807 O 1731.03 -0.118381 -1.78107 0
M  V30 17808 C 1728.13 -0.322714 -3.3736 0
M  V30 17809 C 1727.31 -1.38159 -4.15007 0
M  V30 17810 C 1726.36 -0.819462 -5.1978 0
M  V30 17811 O 1725.39 -1.4983 -5.49126 0
M  V30 17812 N 1726.59 0.374925 -5.79288 0
M  V30 17813 H 1729.36 -1.83127 -2.37243 0
M  V30 17814 H 1726.92 -1.10045 -1.1875 0
M  V30 17815 H 1728.91 0.0673046 -4.04644 0
M  V30 17816 H 1727.48 0.5154 -3.08322 0
M  V30 17817 H 1726.7 -1.94627 -3.42803 0
M  V30 17818 H 1727.99 -2.09496 -4.63669 0
M  V30 17819 H 1727.39 0.943856 -5.5777 0
M  V30 17820 H 1725.94 0.706668 -6.47958 0
M  V30 17821 N 1729.38 1.21606 -1.00248 0
M  V30 17822 C 1730.61 1.94609 -0.702502 0
M  V30 17823 C 1731.02 1.73928 0.734483 0
M  V30 17824 O 1730.38 1.04432 1.49667 0
M  V30 17825 C 1730.43 3.47077 -1.01092 0
M  V30 17826 O 1730.15 3.67071 -2.39145 0
M  V30 17827 C 1731.65 4.37248 -0.729988 0
M  V30 17828 H 1728.87 0.618962 -0.259088 0
M  V30 17829 H 1731.41 1.54494 -1.33985 0
M  V30 17830 H 1729.57 3.85125 -0.419215 0
M  V30 17831 H 1729.98 4.61188 -2.49811 0
M  V30 17832 H 1731.46 5.4294 -0.99598 0
M  V30 17833 H 1731.93 4.37913 0.33599 0
M  V30 17834 H 1732.54 4.04842 -1.30318 0
M  V30 17835 N 1730.86 0.776895 1.37121 0
M  V30 17836 C 1732.09 0.354582 2.03534 0
M  V30 17837 C 1732.49 -1.02976 1.58722 0
M  V30 17838 O 1731.84 -1.66956 0.766255 0
M  V30 17839 C 1731.9 0.324836 3.58029 0
M  V30 17840 C 1731.56 1.65463 4.25994 0
M  V30 17841 C 1732.56 2.60797 4.49756 0
M  V30 17842 C 1730.24 1.93049 4.63721 0
M  V30 17843 C 1732.24 3.8192 5.1031 0
M  V30 17844 C 1729.93 3.14441 5.23995 0
M  V30 17845 C 1730.92 4.08695 5.47227 0
M  V30 17846 O 1730.61 5.27949 6.06238 0
M  V30 17847 H 1730.34 0.145861 0.660076 0
M  V30 17848 H 1732.9 1.05336 1.76334 0
M  V30 17849 H 1731.13 -0.43035 3.84298 0
M  V30 17850 H 1732.82 -0.0711053 4.05838 0
M  V30 17851 H 1733.58 2.40768 4.21017 0
M  V30 17852 H 1729.46 1.20509 4.4497 0
M  V30 17853 H 1733.01 4.55502 5.28359 0
M  V30 17854 H 1728.9 3.34352 5.52158 0
M  V30 17855 H 1729.67 5.28844 6.24713 0
M  V30 17856 N 1732.33 -1.48497 0.527859 0
M  V30 17857 C 1733.58 -2.01698 -0.00900086 0
M  V30 17858 C 1733.9 -1.4104 -1.35525 0
M  V30 17859 O 1735.1 -1.85726 -1.98035 0
M  V30 17860 C 1733.56 -3.59839 -0.0664428 0
M  V30 17861 C 1733.17 -4.2948 1.27479 0
M  V30 17862 C 1734.91 -4.20893 -0.552244 0
M  V30 17863 C 1732.82 -5.79548 1.17805 0
M  V30 17864 H 1731.75 -0.753966 -0.00713463 0
M  V30 17865 H 1734.4 -1.70779 0.67132 0
M  V30 17866 H 1732.78 -3.8759 -0.811795 0
M  V30 17867 H 1733.95 -4.13403 2.03554 0
M  V30 17868 H 1732.27 -3.80289 1.69616 0
M  V30 17869 H 1734.87 -5.30825 -0.642556 0
M  V30 17870 H 1735.21 -3.86066 -1.55752 0
M  V30 17871 H 1735.74 -3.97563 0.137363 0
M  V30 17872 H 1732.48 -6.18945 2.15841 0
M  V30 17873 H 1732 -5.98044 0.458624 0
M  V30 17874 H 1733.68 -6.41153 0.867834 0
M  V30 17875 N 1733.81 -0.262893 -1.55392 0
M  V30 17876 C 1735.04 0.363972 -2.04181 0
M  V30 17877 C 1735.46 1.49585 -1.14044 0
M  V30 17878 O 1734.82 1.80785 -0.136553 0
M  V30 17879 C 1734.87 0.834041 -3.50822 0
M  V30 17880 O 1733.97 1.94234 -3.63795 0
M  V30 17881 H 1733.31 0.0771193 -0.659506 0
M  V30 17882 H 1735.84 -0.393623 -2.00778 0
M  V30 17883 H 1735.85 1.13304 -3.91952 0
M  V30 17884 H 1734.53 0.00584833 -4.159 0
M  V30 17885 H 1733.1 1.64681 -3.34566 0
M  V30 17886 N 1735.29 1.57597 0.0100073 0
M  V30 17887 C 1736.25 2.06745 0.989401 0
M  V30 17888 C 1737.25 0.97499 1.27869 0
M  V30 17889 O 1738.44 1.23798 1.22555 0
M  V30 17890 C 1735.57 2.50048 2.31709 0
M  V30 17891 H 1736.77 2.9454 0.564473 0
M  V30 17892 H 1734.32 1.54168 0.257266 0
M  V30 17893 H 1735.06 1.65466 2.78911 0
M  V30 17894 H 1734.84 3.29823 2.12035 0
M  V30 17895 H 1736.33 2.88433 3.01987 0
M  V30 17896 N 1736.77 -0.282606 1.55045 0
M  V30 17897 C 1737.99 -1.03825 1.79542 0
M  V30 17898 C 1738.42 -1.79503 0.562165 0
M  V30 17899 O 1737.78 -1.7461 -0.487946 0
M  V30 17900 C 1737.82 -1.98007 3.01373 0
M  V30 17901 O 1736.93 -3.06621 2.75785 0
M  V30 17902 H 1736.27 -0.297333 0.593708 0
M  V30 17903 H 1738.8 -0.314434 2.02169 0
M  V30 17904 H 1738.81 -2.40138 3.29845 0
M  V30 17905 H 1737.48 -1.42335 3.90786 0
M  V30 17906 H 1736.06 -2.68874 2.58382 0
M  V30 17907 N 1738.25 -1.47815 -0.546675 0
M  V30 17908 C 1739.66 -1.48715 -1.12875 0
M  V30 17909 C 1740.01 -0.247647 -1.94631 0
M  V30 17910 O 1739.13 0.646615 -2.06514 0
M  V30 17911 C 1739.73 -2.69459 -2.05371 0
M  V30 17912 C 1738.29 -2.73285 -2.58829 0
M  V30 17913 C 1737.43 -2.4198 -1.35429 0
M  V30 17914 H 1740.38 -1.55172 -0.332746 0
M  V30 17915 H 1740.41 -2.47028 -2.89408 0
M  V30 17916 H 1739.92 -3.59656 -1.4584 0
M  V30 17917 H 1738.02 -1.87254 -3.22128 0
M  V30 17918 H 1738.13 -3.74265 -2.99103 0
M  V30 17919 H 1736.5 -1.92783 -1.66454 0
M  V30 17920 H 1737.28 -3.34397 -0.776753 0
M  V30 17921 N 1739.72 0.794246 -1.36123 0
M  V30 17922 C 1740.69 1.88828 -1.2991 0
M  V30 17923 C 1741.69 1.59451 -0.207839 0
M  V30 17924 O 1742.88 1.67953 -0.462321 0
M  V30 17925 C 1740.01 3.25511 -1.01269 0
M  V30 17926 H 1741.2 1.95753 -2.27202 0
M  V30 17927 H 1738.75 0.991505 -1.20826 0
M  V30 17928 H 1739.49 3.2427 -0.0441535 0
M  V30 17929 H 1739.27 3.48221 -1.80234 0
M  V30 17930 H 1740.76 4.0557 -0.995142 0
M  V30 17931 N 1741.2 1.20323 1.01785 0
M  V30 17932 C 1742.43 1.03893 1.79502 0
M  V30 17933 C 1742.85 -0.407421 1.83635 0
M  V30 17934 O 1742.21 -1.29338 1.27049 0
M  V30 17935 C 1742.26 1.62562 3.21879 0
M  V30 17936 O 1741.36 0.862398 4.03282 0
M  V30 17937 H 1740.7 0.366479 0.553705 0
M  V30 17938 H 1743.23 1.59589 1.28034 0
M  V30 17939 H 1743.24 1.66244 3.72595 0
M  V30 17940 H 1741.92 2.67826 3.18186 0
M  V30 17941 H 1740.49 0.899687 3.61884 0
M  V30 17942 N 1742.68 -1.21073 1.00892 0
M  V30 17943 C 1743.91 -1.94233 0.712813 0
M  V30 17944 C 1744.32 -1.74315 -0.725249 0
M  V30 17945 O 1743.68 -1.05224 -1.49111 0
M  V30 17946 C 1743.73 -3.46536 1.02931 0
M  V30 17947 O 1743.45 -3.65798 2.41088 0
M  V30 17948 C 1744.95 -4.36855 0.753166 0
M  V30 17949 H 1742.17 -0.617579 0.262367 0
M  V30 17950 H 1744.72 -1.53781 1.34802 0
M  V30 17951 H 1742.87 -3.84897 0.439634 0
M  V30 17952 H 1743.29 -4.59857 2.52254 0
M  V30 17953 H 1744.76 -5.42405 1.02476 0
M  V30 17954 H 1745.24 -4.38085 -0.312761 0
M  V30 17955 H 1745.84 -4.04145 1.32464 0
M  V30 17956 N 1744.16 -0.784156 -1.36707 0
M  V30 17957 C 1745.4 -0.354658 -1.99675 0
M  V30 17958 C 1745.74 1.06948 -1.62098 0
M  V30 17959 O 1745.01 1.73798 -0.873192 0
M  V30 17960 C 1745.3 -0.512421 -3.56435 0
M  V30 17961 C 1745.15 -1.97987 -4.03883 0
M  V30 17962 C 1746.47 0.075762 -4.40035 0
M  V30 17963 H 1743.59 -0.130338 -0.725383 0
M  V30 17964 H 1746.23 -0.989515 -1.62199 0
M  V30 17965 H 1744.38 0.0280323 -3.8849 0
M  V30 17966 H 1746.05 -2.58098 -3.82339 0
M  V30 17967 H 1744.29 -2.48433 -3.55617 0
M  V30 17968 H 1744.96 -2.04125 -5.12871 0
M  V30 17969 H 1747.44 -0.385522 -4.1431 0
M  V30 17970 H 1746.32 -0.0646832 -5.48862 0
M  V30 17971 H 1746.58 1.16735 -4.2641 0
M  V30 17972 N 1745.64 1.48215 -0.535727 0
M  V30 17973 C 1746.87 2.06598 -0.00793498 0
M  V30 17974 C 1747.27 1.39186 1.28155 0
M  V30 17975 O 1746.62 0.475163 1.77448 0
M  V30 17976 C 1746.68 3.58402 0.280696 0
M  V30 17977 C 1746.34 4.47723 -0.916162 0
M  V30 17978 C 1747.34 4.87149 -1.81609 0
M  V30 17979 C 1745.03 4.89545 -1.12478 0
M  V30 17980 C 1747.02 5.67173 -2.9085 0
M  V30 17981 C 1744.71 5.69337 -2.22032 0
M  V30 17982 C 1745.7 6.0806 -3.1105 0
M  V30 17983 O 1745.39 6.8625 -4.18707 0
M  V30 17984 H 1745.12 0.675194 -0.0330032 0
M  V30 17985 H 1747.68 1.91512 -0.742453 0
M  V30 17986 H 1745.91 3.71623 1.06926 0
M  V30 17987 H 1747.6 3.98887 0.751264 0
M  V30 17988 H 1748.36 4.55456 -1.66688 0
M  V30 17989 H 1744.24 4.58884 -0.44115 0
M  V30 17990 H 1747.79 5.97316 -3.6036 0
M  V30 17991 H 1743.68 6.00444 -2.36934 0
M  V30 17992 H 1744.45 7.04613 -4.16488 0
M  V30 17993 N 1747.11 0.27113 1.5525 0
M  V30 17994 C 1748.34 -0.350248 2.03914 0
M  V30 17995 C 1748.76 -1.49763 1.14963 0
M  V30 17996 O 1748.11 -1.81717 0.168923 0
M  V30 17997 C 1748.17 -0.835056 3.51723 0
M  V30 17998 O 1747.89 0.266625 4.37288 0
M  V30 17999 C 1749.39 -1.52466 4.16256 0
M  V30 18000 H 1746.61 -0.0803955 0.666166 0
M  V30 18001 H 1749.15 0.402063 2.00509 0
M  V30 18002 H 1747.31 -1.53747 3.55585 0
M  V30 18003 H 1747.72 -0.105433 5.24394 0
M  V30 18004 H 1749.19 -1.81534 5.21296 0
M  V30 18005 H 1749.67 -2.45485 3.64189 0
M  V30 18006 H 1750.28 -0.8662 4.16386 0
M  V30 18007 N 1748.59 -1.576 -0.00164943 0
M  V30 18008 C 1749.84 -1.9012 -0.685486 0
M  V30 18009 C 1750.16 -0.872245 -1.74404 0
M  V30 18010 O 1749.43 0.090572 -1.95691 0
M  V30 18011 H 1748.01 -0.701699 -0.256177 0
M  V30 18012 H 1750.67 -1.94861 0.0388866 0
M  V30 18013 H 1749.77 -2.89831 -1.15778 0
M  V30 18014 N 1750.07 0.274379 -1.55193 0
M  V30 18015 C 1751.3 1.02295 -1.79497 0
M  V30 18016 C 1751.71 1.80479 -0.567805 0
M  V30 18017 O 1751.05 1.77517 0.472601 0
M  V30 18018 C 1751.11 2.02986 -2.9671 0
M  V30 18019 C 1750.78 1.43753 -4.33802 0
M  V30 18020 C 1751.77 0.853898 -5.1284 0
M  V30 18021 C 1749.46 1.46514 -4.80457 0
M  V30 18022 C 1751.45 0.305773 -6.36666 0
M  V30 18023 C 1749.14 0.913158 -6.04239 0
M  V30 18024 C 1750.14 0.33447 -6.82181 0
M  V30 18025 O 1749.83 -0.209069 -8.03628 0
M  V30 18026 H 1749.56 0.307952 -0.601782 0
M  V30 18027 H 1752.11 0.310987 -2.03032 0
M  V30 18028 H 1750.34 2.77937 -2.68864 0
M  V30 18029 H 1752.03 2.6396 -3.0835 0
M  V30 18030 H 1752.8 0.825268 -4.77927 0
M  V30 18031 H 1748.68 1.90496 -4.198 0
M  V30 18032 H 1752.22 -0.146553 -6.97446 0
M  V30 18033 H 1748.12 0.939023 -6.38633 0
M  V30 18034 H 1748.89 -0.0982973 -8.18441 0
M  V30 18035 N 1751.55 1.48103 0.538828 0
M  V30 18036 C 1752.96 1.49312 1.12085 0
M  V30 18037 C 1753.31 0.257965 1.94497 0
M  V30 18038 O 1752.44 -0.635654 2.06854 0
M  V30 18039 C 1753.03 2.70545 2.03939 0
M  V30 18040 C 1751.59 2.74654 2.57376 0
M  V30 18041 C 1750.74 2.42695 1.34144 0
M  V30 18042 H 1753.69 1.55347 0.324512 0
M  V30 18043 H 1753.71 2.4856 2.88094 0
M  V30 18044 H 1753.22 3.60424 1.4393 0
M  V30 18045 H 1751.32 1.8896 3.21131 0
M  V30 18046 H 1751.43 3.75846 2.97114 0
M  V30 18047 H 1749.8 1.93663 1.65429 0
M  V30 18048 H 1750.58 3.34804 0.759009 0
M  V30 18049 N 1753.03 -0.787016 1.36542 0
M  V30 18050 C 1753.96 -1.91399 1.33749 0
M  V30 18051 C 1754.94 -1.68817 0.208559 0
M  V30 18052 O 1756.12 -1.89896 0.406574 0
M  V30 18053 C 1753.25 -3.28457 1.12842 0
M  V30 18054 C 1752.21 -3.65568 2.22585 0
M  V30 18055 C 1751.53 -5.01002 1.86818 0
M  V30 18056 C 1752.83 -3.73902 3.64684 0
M  V30 18057 H 1754.53 -1.93993 2.2805 0
M  V30 18058 H 1752.07 -0.931937 1.09777 0
M  V30 18059 H 1754.03 -4.06919 1.09522 0
M  V30 18060 H 1752.75 -3.26256 0.149918 0
M  V30 18061 H 1751.41 -2.89405 2.25035 0
M  V30 18062 H 1751.06 -4.95325 0.875361 0
M  V30 18063 H 1750.76 -5.26802 2.60294 0
M  V30 18064 H 1752.28 -5.81881 1.85058 0
M  V30 18065 H 1753.69 -4.4255 3.64448 0
M  V30 18066 H 1752.09 -4.11188 4.37086 0
M  V30 18067 H 1753.16 -2.74946 3.99416 0
M  V30 18068 N 1754.5 -1.20861 -1.01145 0
M  V30 18069 C 1755.73 -1.04843 -1.78949 0
M  V30 18070 C 1756.15 0.397676 -1.83848 0
M  V30 18071 O 1755.51 1.28663 -1.27733 0
M  V30 18072 C 1755.56 -1.64267 -3.21012 0
M  V30 18073 O 1754.66 -0.883773 -4.02819 0
M  V30 18074 H 1754.01 -0.36941 -0.551754 0
M  V30 18075 H 1756.54 -1.60266 -1.27185 0
M  V30 18076 H 1756.55 -1.68218 -3.71708 0
M  V30 18077 H 1755.22 -2.69509 -3.16761 0
M  V30 18078 H 1753.8 -0.918866 -3.61402 0
M  V30 18079 N 1755.98 1.20536 -1.01532 0
M  V30 18080 C 1757.39 1.71594 -0.735687 0
M  V30 18081 C 1757.74 1.81469 0.745873 0
M  V30 18082 O 1756.87 1.47638 1.58215 0
M  V30 18083 C 1757.46 3.11654 -1.3288 0
M  V30 18084 C 1756.02 3.60027 -1.09806 0
M  V30 18085 C 1755.17 2.37266 -1.43528 0
M  V30 18086 H 1758.12 1.05568 -1.18495 0
M  V30 18087 H 1758.14 3.7365 -0.718725 0
M  V30 18088 H 1757.65 3.04434 -2.4071 0
M  V30 18089 H 1755.76 3.72581 -0.0373763 0
M  V30 18090 H 1755.87 4.44918 -1.77722 0
M  V30 18091 H 1754.23 2.39947 -0.854268 0
M  V30 18092 H 1755.02 2.32688 -2.5241 0
M  V30 18093 N 1757.46 0.791395 1.36289 0
M  V30 18094 C 1758.42 0.197069 2.28351 0
M  V30 18095 C 1759.42 -0.606748 1.48913 0
M  V30 18096 O 1760.61 -0.427453 1.68874 0
M  V30 18097 C 1757.75 -0.727009 3.33058 0
M  V30 18098 H 1758.94 1.00885 2.82422 0
M  V30 18099 H 1756.49 0.560959 1.45887 0
M  V30 18100 H 1757.23 -1.56306 2.84146 0
M  V30 18101 H 1757.01 -0.152537 3.91803 0
M  V30 18102 H 1758.5 -1.13765 4.01805 0
M  V30 18103 N 1758.94 -1.47929 0.54358 0
M  V30 18104 C 1759.89 -2.29827 -0.211706 0
M  V30 18105 C 1760.86 -1.38217 -0.921154 0
M  V30 18106 O 1762.04 -1.67181 -0.919522 0
M  V30 18107 C 1759.18 -3.21889 -1.24425 0
M  V30 18108 C 1758.29 -4.28583 -0.542264 0
M  V30 18109 C 1757.43 -5.0781 -1.55892 0
M  V30 18110 C 1756.47 -6.06293 -0.841146 0
M  V30 18111 N 1755.61 -6.78528 -1.80399 0
M  V30 18112 H 1760.45 -2.93896 0.492835 0
M  V30 18113 H 1757.98 -1.44875 0.254873 0
M  V30 18114 H 1759.94 -3.73674 -1.85535 0
M  V30 18115 H 1758.57 -2.59713 -1.917 0
M  V30 18116 H 1757.62 -3.79959 0.183069 0
M  V30 18117 H 1758.93 -4.98796 0.0206703 0
M  V30 18118 H 1758.09 -5.63678 -2.24393 0
M  V30 18119 H 1756.83 -4.37468 -2.15576 0
M  V30 18120 H 1755.83 -5.49616 -0.14214 0
M  V30 18121 H 1757.06 -6.78639 -0.250232 0
M  V30 18122 H 1755 -6.10927 -2.38965 0
M  V30 18123 H 1754.92 -7.44863 -1.29285 0
M  V30 18124 H 1756.19 -7.38978 -2.48056 0
M  V30 18125 N 1760.42 -0.27936 -1.55104 0
M  V30 18126 C 1761.66 0.336703 -1.99985 0
M  V30 18127 C 1762 1.55186 -1.16752 0
M  V30 18128 O 1761.27 1.93031 -0.238626 0
M  V30 18129 C 1761.55 0.714701 -3.52936 0
M  V30 18130 C 1761.41 -0.508088 -4.46921 0
M  V30 18131 C 1762.73 1.54953 -4.11919 0
M  V30 18132 H 1759.85 0.120908 -0.727015 0
M  V30 18133 H 1762.49 -0.38715 -1.86014 0
M  V30 18134 H 1760.64 1.33143 -3.64973 0
M  V30 18135 H 1762.31 -1.14664 -4.46822 0
M  V30 18136 H 1760.55 -1.14537 -4.18406 0
M  V30 18137 H 1761.22 -0.199782 -5.51638 0
M  V30 18138 H 1763.7 1.02864 -4.03185 0
M  V30 18139 H 1762.58 1.78282 -5.1914 0
M  V30 18140 H 1762.84 2.53192 -3.62417 0
M  V30 18141 N 1761.9 1.57599 -0.0067085 0
M  V30 18142 C 1762.84 2.09973 1.00071 0
M  V30 18143 C 1763.84 1.02121 1.35158 0
M  V30 18144 O 1765.04 1.20579 1.33644 0
M  V30 18145 H 1761.42 0.670547 0.340398 0
M  V30 18146 H 1763.39 2.93593 0.533471 0
M  V30 18147 C 1762.14 2.62376 2.28153 0
M  V30 18148 H 1761.46 3.45002 2.02024 0
M  V30 18149 H 1762.9 3.02694 2.96905 0
M  V30 18150 C 1761.36 1.54093 2.99595 0
M  V30 18151 O 1761.89 0.927722 3.9084 0
M  V30 18152 N 1760.1 1.26676 2.61537 0
M  V30 18153 H 1759.64 1.76728 1.87417 0
M  V30 18154 H 1759.6 0.544464 3.0965 0
M  V30 18155 N 1763.37 -0.266145 1.55336 0
M  V30 18156 C 1764.31 -1.35159 1.85107 0
M  V30 18157 C 1765.32 -1.45213 0.736006 0
M  V30 18158 O 1766.51 -1.46907 1.01393 0
M  V30 18159 C 1763.61 -2.73218 2.00512 0
M  V30 18160 C 1762.78 -2.85671 3.31226 0
M  V30 18161 C 1761.84 -4.0445 3.36611 0
M  V30 18162 O 1760.87 -3.94884 4.09945 0
M  V30 18163 N 1762.07 -5.16735 2.64508 0
M  V30 18164 H 1764.83 -1.09963 2.78798 0
M  V30 18165 H 1762.39 -0.456261 1.55338 0
M  V30 18166 H 1764.39 -3.50983 2.01477 0
M  V30 18167 H 1762.96 -2.91206 1.13655 0
M  V30 18168 H 1762.18 -1.94736 3.42741 0
M  V30 18169 H 1763.46 -2.90927 4.17419 0
M  V30 18170 H 1762.86 -5.27395 2.04624 0
M  V30 18171 H 1761.42 -5.92706 2.71189 0
M  V30 18172 N 1764.85 -1.48386 -0.530967 0
M  V30 18173 C 1766.08 -1.59782 -1.30971 0
M  V30 18174 C 1766.49 -0.25683 -1.87449 0
M  V30 18175 O 1765.83 0.763845 -1.67066 0
M  V30 18176 C 1765.89 -2.58431 -2.49907 0
M  V30 18177 C 1765.56 -4.0352 -2.14524 0
M  V30 18178 C 1766.56 -4.91233 -1.70255 0
M  V30 18179 C 1764.24 -4.4905 -2.25077 0
M  V30 18180 C 1766.23 -6.22502 -1.37003 0
M  V30 18181 C 1763.92 -5.8034 -1.91437 0
M  V30 18182 C 1764.92 -6.66889 -1.47471 0
M  V30 18183 O 1764.61 -7.95737 -1.14272 0
M  V30 18184 H 1764.34 -0.541558 -0.404588 0
M  V30 18185 H 1766.89 -1.94932 -0.647349 0
M  V30 18186 H 1765.12 -2.184 -3.19121 0
M  V30 18187 H 1766.81 -2.59672 -3.1197 0
M  V30 18188 H 1767.58 -4.57296 -1.61572 0
M  V30 18189 H 1763.46 -3.81872 -2.58254 0
M  V30 18190 H 1767 -6.90012 -1.02613 0
M  V30 18191 H 1762.9 -6.13813 -1.9976 0
M  V30 18192 H 1763.67 -8.0848 -1.27679 0
M  V30 18193 N 1766.33 0.779763 -1.36958 0
M  V30 18194 C 1767.74 1.35555 -1.28381 0
M  V30 18195 C 1768.09 1.96067 0.0721422 0
M  V30 18196 O 1767.22 1.9325 0.973824 0
M  V30 18197 C 1767.81 2.46454 -2.32477 0
M  V30 18198 C 1766.37 2.99823 -2.27559 0
M  V30 18199 C 1765.52 1.72975 -2.16737 0
M  V30 18200 H 1768.47 0.580646 -1.47696 0
M  V30 18201 H 1768.49 3.25726 -1.96679 0
M  V30 18202 H 1768 2.02383 -3.31154 0
M  V30 18203 H 1766.1 3.4829 -1.3238 0
M  V30 18204 H 1766.22 3.55982 -3.20646 0
M  V30 18205 H 1764.58 1.95587 -1.6315 0
M  V30 18206 H 1765.36 1.31018 -3.17315 0
M  V30 18207 N 1767.81 1.21396 1.00503 0
M  V30 18208 C 1769.04 1.0556 1.77597 0
M  V30 18209 C 1769.45 -0.397591 1.84975 0
M  V30 18210 O 1768.79 -1.28764 1.31018 0
M  V30 18211 C 1768.85 1.57754 3.23039 0
M  V30 18212 C 1768.51 3.06214 3.39238 0
M  V30 18213 C 1769.51 4.03763 3.27523 0
M  V30 18214 C 1767.2 3.45418 3.6468 0
M  V30 18215 C 1769.19 5.38505 3.41015 0
M  V30 18216 C 1766.88 4.80312 3.77814 0
M  V30 18217 C 1767.88 5.76665 3.65988 0
M  V30 18218 O 1767.56 7.09111 3.78704 0
M  V30 18219 H 1767.3 0.371187 0.564975 0
M  V30 18220 H 1769.85 1.61186 1.27312 0
M  V30 18221 H 1768.08 0.965245 3.74459 0
M  V30 18222 H 1769.77 1.37762 3.81807 0
M  V30 18223 H 1770.53 3.74819 3.07791 0
M  V30 18224 H 1766.41 2.70954 3.72968 0
M  V30 18225 H 1769.96 6.13694 3.317 0
M  V30 18226 H 1765.85 5.08942 3.9705 0
M  V30 18227 H 1766.62 7.16521 3.95651 0
M  V30 18228 N 1769.29 -1.19996 1.0217 0
M  V30 18229 C 1770.53 -1.88818 0.709281 0
M  V30 18230 C 1770.85 -1.80032 -0.764702 0
M  V30 18231 O 1772.05 -2.44037 -1.18988 0
M  V30 18232 C 1770.51 -3.38652 1.2183 0
M  V30 18233 C 1770.12 -3.56012 2.71955 0
M  V30 18234 C 1771.86 -4.12996 0.981542 0
M  V30 18235 C 1769.77 -4.997 3.16313 0
M  V30 18236 H 1768.7 -0.70716 0.261613 0
M  V30 18237 H 1771.35 -1.35715 1.23506 0
M  V30 18238 H 1769.73 -3.91109 0.620478 0
M  V30 18239 H 1770.91 -3.13918 3.37331 0
M  V30 18240 H 1769.22 -2.95046 2.93831 0
M  V30 18241 H 1771.82 -5.18948 1.28831 0
M  V30 18242 H 1772.16 -4.1622 -0.0818616 0
M  V30 18243 H 1772.69 -3.66656 1.543 0
M  V30 18244 H 1769.43 -5.01635 4.21951 0
M  V30 18245 H 1768.95 -5.42585 2.5566 0
M  V30 18246 H 1770.63 -5.68312 3.09242 0
M  V30 18247 O 1770.8 -0.934597 -1.3171 0
M  V30 18248 H 1771.49 -0.559698 -1.85438 0
M  V30 END ATOM
M  V30 BEGIN BOND
M  V30 END BOND
M  V30 END CTAB
M  END
$$$$
