drugbank_target|Q9H2X9 Solute carrier family 12 member 5 (DB00761; DB00887)
 OpenBabel12092119233D

  0  0  0     0  0            999 V3000
M  V30 BEGIN CTAB
M  V30 COUNTS 17718 17917 0 0 0
M  V30 BEGIN ATOM
M  V30 1 H -0.908 1.98254 -0.117106 0
M  V30 2 N 0 1.576 0 0
M  V30 3 C 0.933 2.03868 1.02534 0
M  V30 4 C 1.911 0.928543 1.3348 0
M  V30 5 O 3.095 1.19667 1.45644 0
M  V30 6 C 0.222 2.43627 2.35294 0
M  V30 7 C -0.732 3.65373 2.2001 0
M  V30 8 S 0.101 5.13292 1.52614 0
M  V30 9 C 1.257 5.56322 2.86805 0
M  V30 10 H 1.49 2.90518 0.631377 0
M  V30 11 H -0.977 1.52953 0.210867 0
M  V30 12 H 0.981 2.67203 3.11629 0
M  V30 13 H -0.358 1.57376 2.7183 0
M  V30 14 H -1.165 3.90944 3.18086 0
M  V30 15 H -1.563 3.418 1.51819 0
M  V30 16 H 0.729 5.58782 3.83104 0
M  V30 17 H 1.672 6.56266 2.65933 0
M  V30 18 H 2.08 4.83886 2.90714 0
M  V30 19 N 1.4781 -0.272755 1.55222 0
M  V30 20 C 2.7031 -1.02683 1.80197 0
M  V30 21 C 3.1281 -1.79142 0.573551 0
M  V30 22 O 2.4861 -1.74917 -0.476849 0
M  V30 23 C 2.5341 -1.9609 3.02624 0
M  V30 24 O 1.6381 -3.04863 2.77727 0
M  V30 25 H 0.9791 -0.293557 0.595584 0
M  V30 26 H 3.5091 -0.30159 2.02365 0
M  V30 27 H 3.5191 -2.38039 3.31363 0
M  V30 28 H 2.1941 -1.39851 3.91682 0
M  V30 29 H 0.7711 -2.67228 2.60084 0
M  V30 30 N 2.9562 -1.48159 -0.537278 0
M  V30 31 C 4.3722 -1.34118 -0.865129 0
M  V30 32 C 4.5722 -0.346678 -1.98495 0
M  V30 33 O 3.6282 0.234715 -2.51407 0
M  V30 34 C 4.9412 -2.73963 -1.23954 0
M  V30 35 C 6.4892 -2.82397 -1.34984 0
M  V30 36 C 6.9642 -4.22928 -1.75772 0
M  V30 37 N 8.4552 -4.25566 -1.82887 0
M  V30 38 C 9.1902 -5.31235 -2.15817 0
M  V30 39 N 8.6862 -6.47189 -2.47222 0
M  V30 40 N 10.4792 -5.18624 -2.16761 0
M  V30 41 H 2.6302 -2.1144 0.201715 0
M  V30 42 H 4.8932 -0.947598 0.0275949 0
M  V30 43 H 4.5992 -3.48264 -0.490381 0
M  V30 44 H 4.4732 -3.0702 -2.19132 0
M  V30 45 H 6.8602 -2.08356 -2.08978 0
M  V30 46 H 6.9412 -2.5297 -0.379448 0
M  V30 47 H 6.5852 -4.97482 -1.02341 0
M  V30 48 H 6.5152 -4.49794 -2.73848 0
M  V30 49 H 9.0062 -3.41924 -1.60924 0
M  V30 50 H 9.3192 -7.23564 -2.71433 0
M  V30 51 H 7.6642 -6.50476 -2.44757 0
M  V30 52 H 10.8552 -4.27056 -1.91679 0
M  V30 53 H 11.0282 -6.01078 -2.42093 0
M  V30 54 N 4.4343 0.785586 -1.36625 0
M  V30 55 C 5.8503 1.08419 -1.17122 0
M  V30 56 C 6.0503 2.015 0.00208491 0
M  V30 57 O 5.1063 2.43551 0.666278 0
M  V30 58 C 6.4193 1.69498 -2.48377 0
M  V30 59 C 7.9673 1.81821 -2.54775 0
M  V30 60 C 8.4423 2.46315 -3.86126 0
M  V30 61 N 9.9333 2.53779 -3.87492 0
M  V30 62 C 10.6683 3.045 -4.85868 0
M  V30 63 N 10.1643 3.55499 -5.94637 0
M  V30 64 N 11.9573 3.03247 -4.73284 0
M  V30 65 H 4.1083 0.167264 -2.1174 0
M  V30 66 H 6.3713 0.13682 -0.938075 0
M  V30 67 H 6.0773 1.08571 -3.34522 0
M  V30 68 H 5.9513 2.6896 -2.64462 0
M  V30 69 H 8.3383 2.41884 -1.69045 0
M  V30 70 H 8.4193 0.811532 -2.42586 0
M  V30 71 H 8.0633 1.86895 -4.72263 0
M  V30 72 H 7.9933 3.47561 -3.95612 0
M  V30 73 H 10.4843 2.17672 -3.08913 0
M  V30 74 H 10.7973 3.92562 -6.65669 0
M  V30 75 H 9.1423 3.5364 -5.98301 0
M  V30 76 H 12.3333 2.62696 -3.87438 0
M  V30 77 H 12.5063 3.42467 -5.50109 0
M  V30 78 N 5.9124 1.20967 1.01018 0
M  V30 79 C 7.1594 1.02374 1.74716 0
M  V30 80 C 7.4874 -0.443375 1.89379 0
M  V30 81 O 6.7424 -1.34535 1.42123 0
M  V30 82 C 7.0414 1.65997 3.16512 0
M  V30 83 C 6.7074 3.15831 3.2181 0
M  V30 84 C 5.3694 3.56719 3.22963 0
M  V30 85 C 7.7214 4.11816 3.19464 0
M  V30 86 C 5.0494 4.92107 3.19449 0
M  V30 87 C 7.4014 5.47158 3.17491 0
M  V30 88 C 6.0654 5.87451 3.16951 0
M  V30 89 H 5.3354 0.374614 0.639332 0
M  V30 90 H 7.9824 1.50485 1.18434 0
M  V30 91 H 6.2874 1.10166 3.75993 0
M  V30 92 H 7.9844 1.49119 3.72242 0
M  V30 93 H 4.5744 2.83263 3.21652 0
M  V30 94 H 8.7584 3.81257 3.17737 0
M  V30 95 H 4.0144 5.22579 3.17366 0
M  V30 96 H 8.1884 6.21274 3.14629 0
M  V30 97 H 5.8154 6.92329 3.13983 0
M  V30 98 N 7.3905 -1.2043 1.01659 0
M  V30 99 C 8.6185 -1.93777 0.725132 0
M  V30 100 C 9.0335 -1.74772 -0.714166 0
M  V30 101 O 8.3905 -1.06169 -1.4844 0
M  V30 102 C 8.4415 -3.45876 1.05129 0
M  V30 103 O 8.1625 -3.6426 2.43406 0
M  V30 104 C 9.6635 -4.36368 0.780891 0
M  V30 105 H 6.8835 -0.615901 0.266284 0
M  V30 106 H 9.4275 -1.52922 1.35776 0
M  V30 107 H 7.5825 -3.8461 0.464065 0
M  V30 108 H 7.9965 -4.58246 2.55169 0
M  V30 109 H 9.4705 -5.41743 1.05918 0
M  V30 110 H 9.9475 -4.38275 -0.284937 0
M  V30 111 H 10.5535 -4.03296 1.35027 0
M  V30 112 N 8.8686 -0.792821 -1.36206 0
M  V30 113 C 10.1146 -0.36733 -1.99446 0
M  V30 114 C 10.4476 1.05917 -1.62774 0
M  V30 115 O 9.7226 1.7324 -0.88421 0
M  V30 116 C 10.0056 -0.535044 -3.56103 0
M  V30 117 C 9.8586 -2.00548 -4.02617 0
M  V30 118 C 11.1776 0.0478191 -4.40074 0
M  V30 119 H 8.2966 -0.134941 -0.724541 0
M  V30 120 H 10.9386 -0.999794 -1.61568 0
M  V30 121 H 9.0886 0.00336329 -3.885 0
M  V30 122 H 10.7606 -2.60521 -3.80692 0
M  V30 123 H 9.0036 -2.50686 -3.54032 0
M  V30 124 H 9.6746 -2.07377 -5.11565 0
M  V30 125 H 12.1506 -0.411822 -4.14057 0
M  V30 126 H 11.0266 -0.0995336 -5.4881 0
M  V30 127 H 11.2876 1.14025 -4.27142 0
M  V30 128 N 10.3467 1.47872 -0.545128 0
M  V30 129 C 11.5747 2.06889 -0.021084 0
M  V30 130 C 11.9897 1.39955 1.2672 0
M  V30 131 O 11.3467 0.492036 1.75742 0
M  V30 132 C 11.3977 3.60996 0.190817 0
M  V30 133 O 11.1187 4.25419 -1.04644 0
M  V30 134 C 12.6197 4.36849 0.753521 0
M  V30 135 H 9.8397 0.669785 -0.0403635 0
M  V30 136 H 12.3837 1.90049 -0.755095 0
M  V30 137 H 10.5387 3.77391 0.87492 0
M  V30 138 H 10.9527 5.17785 -0.836611 0
M  V30 139 H 12.4267 5.45399 0.851139 0
M  V30 140 H 12.9037 4.02306 1.762 0
M  V30 141 H 13.5097 4.25169 0.105503 0
M  V30 142 N 11.8248 0.280983 1.55075 0
M  V30 143 C 13.0498 -0.340154 2.04592 0
M  V30 144 C 13.4748 -1.48246 1.15779 0
M  V30 145 O 12.8328 -1.80614 0.15761 0
M  V30 146 C 12.8808 -0.793104 3.5177 0
M  V30 147 O 11.9848 -1.89981 3.66034 0
M  V30 148 H 11.3258 -0.0694289 0.66036 0
M  V30 149 H 13.8558 0.416993 2.00306 0
M  V30 150 H 13.8658 -1.08729 3.93245 0
M  V30 151 H 12.5408 0.0426163 4.15878 0
M  V30 152 H 11.1178 -1.60771 3.36463 0
M  V30 153 N 13.3029 -1.57598 0.00835791 0
M  V30 154 C 14.2329 -2.1198 -0.979113 0
M  V30 155 C 15.2139 -1.03091 -1.35301 0
M  V30 156 O 16.3989 -1.30818 -1.43528 0
M  V30 157 C 13.5289 -2.62995 -2.26828 0
M  V30 158 C 12.4829 -3.76485 -2.03576 0
M  V30 159 C 11.8089 -4.13846 -3.38579 0
M  V30 160 C 13.1089 -5.0342 -1.39161 0
M  V30 161 H 14.8029 -2.94738 -0.526281 0
M  V30 162 H 12.3489 -1.41783 -0.251704 0
M  V30 163 H 14.3019 -2.99669 -2.96271 0
M  V30 164 H 13.0259 -1.7737 -2.7424 0
M  V30 165 H 11.6849 -3.40217 -1.36557 0
M  V30 166 H 11.3329 -3.25232 -3.83709 0
M  V30 167 H 11.0329 -4.90312 -3.23834 0
M  V30 168 H 12.5569 -4.53086 -4.09323 0
M  V30 169 H 13.9709 -5.37812 -1.98573 0
M  V30 170 H 12.3679 -5.84746 -1.34878 0
M  V30 171 H 13.4379 -4.83548 -0.361868 0
M  V30 172 N 14.781 0.264519 -1.55364 0
M  V30 173 C 16.192 0.834936 -1.6699 0
M  V30 174 C 16.543 1.86718 -0.602552 0
M  V30 175 O 15.668 2.14899 0.254425 0
M  V30 176 C 16.263 1.5212 -3.02729 0
M  V30 177 C 14.822 2.03954 -3.16354 0
M  V30 178 C 13.969 0.884498 -2.62815 0
M  V30 179 H 16.92 0.0406869 -1.58648 0
M  V30 180 H 16.941 2.38853 -2.96191 0
M  V30 181 H 16.453 0.769668 -3.80392 0
M  V30 182 H 14.554 2.82041 -2.43482 0
M  V30 183 H 14.667 2.24902 -4.23032 0
M  V30 184 H 13.031 1.2802 -2.20188 0
M  V30 185 H 13.814 0.14634 -3.42988 0
M  V30 186 N 16.2591 1.48442 0.529413 0
M  V30 187 C 17.6701 1.5002 1.11134 0
M  V30 188 C 18.0211 0.27031 1.94329 0
M  V30 189 O 17.1461 -0.622507 2.07253 0
M  V30 190 C 17.7411 2.71834 2.02217 0
M  V30 191 C 16.3001 2.76283 2.55627 0
M  V30 192 C 15.4471 2.43542 1.326 0
M  V30 193 H 18.3981 1.5555 0.314641 0
M  V30 194 H 18.4191 2.50384 2.8651 0
M  V30 195 H 17.9311 3.61331 1.41639 0
M  V30 196 H 16.0321 1.90995 3.19924 0
M  V30 197 H 16.1451 3.77725 2.94721 0
M  V30 198 H 14.5091 1.94709 1.64196 0
M  V30 199 H 15.2921 3.3528 0.737734 0
M  V30 200 N 17.7372 -0.778329 1.37039 0
M  V30 201 C 18.7002 -1.87301 1.32102 0
M  V30 202 C 19.7002 -1.59198 0.226405 0
M  V30 203 O 20.8902 -1.67403 0.481861 0
M  V30 204 C 18.0222 -3.24309 1.05055 0
M  V30 205 H 19.2152 -1.93093 2.29467 0
M  V30 206 H 16.7682 -0.977358 1.21973 0
M  V30 207 H 17.5032 -3.24196 0.0819373 0
M  V30 208 H 17.2882 -3.46098 1.84279 0
M  V30 209 H 18.7782 -4.04382 1.04234 0
M  V30 210 N 19.2153 -1.21501 -1.00376 0
M  V30 211 C 20.4633 -1.03095 -1.73827 0
M  V30 212 C 20.7843 0.436341 -1.90055 0
M  V30 213 O 20.0543 1.31466 -1.45236 0
M  V30 214 H 18.6343 -0.378487 -0.644016 0
M  V30 215 H 21.2963 -1.52831 -1.20949 0
M  V30 216 H 20.3923 -1.49991 -2.73695 0
M  V30 217 N 20.6934 1.19889 -1.02296 0
M  V30 218 C 22.1044 1.71124 -0.746568 0
M  V30 219 C 22.4554 1.81939 0.734335 0
M  V30 220 O 21.5804 1.48639 1.57275 0
M  V30 221 C 22.1754 3.10804 -1.34857 0
M  V30 222 C 20.7344 3.59323 -1.1209 0
M  V30 223 C 19.8814 2.3635 -1.45031 0
M  V30 224 H 22.8324 1.04813 -1.19163 0
M  V30 225 H 22.8534 3.73186 -0.742437 0
M  V30 226 H 22.3654 3.029 -2.42638 0
M  V30 227 H 20.4664 3.7255 -0.0610337 0
M  V30 228 H 20.5794 4.4378 -1.80544 0
M  V30 229 H 18.9434 2.39399 -0.869487 0
M  V30 230 H 19.7264 2.31081 -2.53883 0
M  V30 231 N 22.1715 0.800033 1.35784 0
M  V30 232 C 23.1345 0.211565 2.28221 0
M  V30 233 C 24.1345 -0.59728 1.49296 0
M  V30 234 O 25.3245 -0.416721 1.69142 0
M  V30 235 C 22.4565 -0.705846 3.33513 0
M  V30 236 H 23.6495 1.02677 2.81776 0
M  V30 237 H 21.2025 0.570211 1.45528 0
M  V30 238 H 21.9375 -1.54498 2.85133 0
M  V30 239 H 21.7225 -0.127655 3.91892 0
M  V30 240 H 23.2125 -1.11211 4.02519 0
M  V30 241 N 23.6496 -1.47581 0.552962 0
M  V30 242 C 25.0656 -1.5818 0.212424 0
M  V30 243 C 25.2656 -1.55213 -1.28496 0
M  V30 244 O 24.3216 -1.45329 -2.06484 0
M  V30 245 C 25.6346 -2.88865 0.835318 0
M  V30 246 C 27.1826 -3.0244 0.806156 0
M  V30 247 C 27.6576 -4.35819 1.40804 0
M  V30 248 N 29.1486 -4.42444 1.37103 0
M  V30 249 C 29.8836 -5.44202 1.80641 0
M  V30 250 N 29.3796 -6.52795 2.32015 0
M  V30 251 N 31.1726 -5.35222 1.71738 0
M  V30 252 H 23.3236 -1.47753 1.52587 0
M  V30 253 H 25.5866 -0.702941 0.636064 0
M  V30 254 H 25.2926 -2.9676 1.88749 0
M  V30 255 H 25.1666 -3.7579 0.325848 0
M  V30 256 H 27.5536 -2.94144 -0.237317 0
M  V30 257 H 27.6346 -2.17068 1.35334 0
M  V30 258 H 27.2786 -4.44871 2.45056 0
M  V30 259 H 27.2086 -5.19916 0.836338 0
M  V30 260 H 29.6996 -3.6456 0.995202 0
M  V30 261 H 30.0126 -7.26609 2.63171 0
M  V30 262 H 28.3576 -6.53696 2.36023 0
M  V30 263 H 31.5486 -4.49284 1.31382 0
M  V30 264 H 31.7216 -6.14389 2.05987 0
M  V30 265 N 25.1277 -0.289203 -1.54924 0
M  V30 266 C 26.3527 0.329299 -2.04769 0
M  V30 267 C 26.7777 1.4763 -1.16564 0
M  V30 268 O 26.1357 1.80527 -0.167186 0
M  V30 269 C 26.1837 0.774438 -3.52186 0
M  V30 270 O 25.2877 1.88038 -3.67036 0
M  V30 271 H 24.6287 0.0659259 -0.660719 0
M  V30 272 H 27.1587 -0.42761 -2.00082 0
M  V30 273 H 27.1687 1.06642 -3.93816 0
M  V30 274 H 25.8437 -0.0646707 -4.1585 0
M  V30 275 H 24.4207 1.58985 -3.3731 0
M  V30 276 N 26.6058 1.57591 -0.0167156 0
M  V30 277 C 28.0168 1.79201 0.523834 0
M  V30 278 C 28.3678 0.925796 1.72984 0
M  V30 279 O 27.4928 0.132792 2.15992 0
M  V30 280 C 28.0878 3.25 0.957091 0
M  V30 281 C 26.6468 3.47648 1.44283 0
M  V30 282 C 25.7938 2.74374 0.401757 0
M  V30 283 H 28.7448 1.56831 -0.242816 0
M  V30 284 H 28.7658 3.34031 1.82219 0
M  V30 285 H 28.2778 3.88019 0.0791415 0
M  V30 286 H 26.3788 2.89866 2.34113 0
M  V30 287 H 26.4918 4.56352 1.45877 0
M  V30 288 H 24.8558 2.39485 0.867121 0
M  V30 289 H 25.6388 3.40102 -0.467513 0
M  V30 290 N 28.0839 -0.256276 1.55502 0
M  V30 291 C 29.3609 -1.00789 1.67633 0
M  V30 292 C 29.7409 -2.03706 0.553826 0
M  V30 293 O 29.0889 -2.24145 -0.443969 0
M  V30 294 C 29.2989 -1.64968 3.07549 0
M  V30 295 C 30.6469 -2.15505 3.65845 0
M  V30 296 O 31.6709 -1.74925 3.1029 0
M  V30 297 O 30.5299 -2.89986 4.63217 0
M  V30 298 H 27.6239 -0.468553 0.681459 0
M  V30 299 H 30.1699 -0.250806 1.67836 0
M  V30 300 H 28.9419 -0.904785 3.80696 0
M  V30 301 H 28.5649 -2.47321 3.11317 0
M  V30 302 N 29.562 -1.4872 -0.521534 0
M  V30 303 C 30.973 -1.50607 -1.10337 0
M  V30 304 C 31.324 -0.280612 -1.94183 0
M  V30 305 O 30.449 0.611507 -2.0758 0
M  V30 306 C 31.044 -2.72903 -2.00772 0
M  V30 307 C 29.603 -2.77634 -2.54158 0
M  V30 308 C 28.75 -2.44241 -1.31307 0
M  V30 309 H 31.701 -1.55714 -0.306388 0
M  V30 310 H 31.722 -2.519 -2.85178 0
M  V30 311 H 31.234 -3.62077 -1.39721 0
M  V30 312 H 29.335 -1.92689 -3.18907 0
M  V30 313 H 29.448 -3.79283 -2.92714 0
M  V30 314 H 27.812 -1.95577 -1.63161 0
M  V30 315 H 28.595 -3.35666 -0.719943 0
M  V30 316 N 31.0401 0.771051 -1.3745 0
M  V30 317 C 31.9501 1.91538 -1.35464 0
M  V30 318 C 32.9661 1.72134 -0.254123 0
M  V30 319 O 34.1421 1.95358 -0.489626 0
M  V30 320 C 31.2071 3.26671 -1.16134 0
M  V30 321 C 30.2681 3.58723 -2.35831 0
M  V30 322 C 29.5011 4.87409 -2.17413 0
M  V30 323 O 29.7241 5.58506 -1.15876 0
M  V30 324 O 28.6581 5.18539 -3.05615 0
M  V30 325 H 32.4841 1.96165 -2.31847 0
M  V30 326 H 30.0691 0.9139 -1.18187 0
M  V30 327 H 31.9511 4.07499 -1.07345 0
M  V30 328 H 30.6261 3.22894 -0.228251 0
M  V30 329 H 29.5331 2.78127 -2.50192 0
M  V30 330 H 30.8661 3.67243 -3.27709 0
M  V30 331 N 32.5182 1.22032 0.997298 0
M  V30 332 C 33.7432 1.06921 1.77715 0
M  V30 333 C 34.1682 -0.376226 1.84299 0
M  V30 334 O 33.5262 -1.27165 1.29223 0
M  V30 335 C 33.5742 1.67996 3.19076 0
M  V30 336 O 32.6782 0.930653 4.01762 0
M  V30 337 H 32.0192 0.375814 0.547412 0
M  V30 338 H 34.5492 1.61737 1.25309 0
M  V30 339 H 34.5592 1.72538 3.69723 0
M  V30 340 H 33.2342 2.73182 3.13599 0
M  V30 341 H 31.8112 0.960917 3.60307 0
M  V30 342 N 33.9963 -1.19345 1.0293 0
M  V30 343 C 35.4123 -1.41069 0.746446 0
M  V30 344 C 35.6123 -1.90078 -0.668776 0
M  V30 345 O 34.6683 -2.0778 -1.4347 0
M  V30 346 C 35.9813 -2.42141 1.78292 0
M  V30 347 C 37.5293 -2.55887 1.80252 0
M  V30 348 C 38.0043 -3.60214 2.8286 0
M  V30 349 N 39.4953 -3.67711 2.81679 0
M  V30 350 C 40.2303 -4.48128 3.57727 0
M  V30 351 N 39.7263 -5.32248 4.43491 0
M  V30 352 N 41.5193 -4.42782 3.46267 0
M  V30 353 H 33.6703 -0.858536 1.94275 0
M  V30 354 H 35.9333 -0.439541 0.839945 0
M  V30 355 H 35.6393 -2.13155 2.79746 0
M  V30 356 H 35.5133 -3.41323 1.60557 0
M  V30 357 H 37.9003 -2.84196 0.794757 0
M  V30 358 H 37.9813 -1.56858 2.02062 0
M  V30 359 H 37.6253 -3.32647 3.83807 0
M  V30 360 H 37.5553 -4.58895 2.58307 0
M  V30 361 H 40.0463 -3.07634 2.19476 0
M  V30 362 H 40.3593 -5.90729 4.98256 0
M  V30 363 H 38.7043 -5.31707 4.47564 0
M  V30 364 H 41.8953 -3.76107 2.78677 0
M  V30 365 H 42.0683 -5.05215 4.05785 0
M  V30 366 N 35.4744 -0.807222 -1.35358 0
M  V30 367 C 36.8904 -0.491038 -1.51858 0
M  V30 368 C 37.0904 0.987648 -1.75635 0
M  V30 369 O 36.1464 1.77265 -1.79815 0
M  V30 370 C 37.4594 -1.33695 -2.69344 0
M  V30 371 C 39.0074 -1.33246 -2.83222 0
M  V30 372 C 39.4824 -2.1625 -4.03733 0
M  V30 373 N 40.9734 -2.1379 -4.10911 0
M  V30 374 C 41.7084 -2.74772 -5.03277 0
M  V30 375 N 41.2044 -3.44684 -6.0097 0
M  V30 376 N 42.9974 -2.6441 -4.96028 0
M  V30 377 H 35.1484 -1.76485 -1.18181 0
M  V30 378 H 37.4114 -0.751199 -0.578276 0
M  V30 379 H 37.1174 -2.38634 -2.58354 0
M  V30 380 H 36.9914 -0.990618 -3.6396 0
M  V30 381 H 39.3784 -0.290911 -2.93663 0
M  V30 382 H 39.4594 -1.71866 -1.89461 0
M  V30 383 H 39.1034 -3.20445 -3.94052 0
M  V30 384 H 39.0334 -1.74989 -4.96675 0
M  V30 385 H 41.5244 -1.62923 -3.40976 0
M  V30 386 H 41.8374 -3.88501 -6.68047 0
M  V30 387 H 40.1824 -3.48788 -6.01142 0
M  V30 388 H 43.3734 -2.0938 -4.18662 0
M  V30 389 H 43.5464 -3.12225 -5.6782 0
M  V30 390 N 36.9525 1.47285 -0.560781 0
M  V30 391 C 37.9025 2.27073 0.205384 0
M  V30 392 C 38.8865 1.34569 0.882044 0
M  V30 393 O 40.0785 1.58899 0.77976 0
M  V30 394 C 37.2075 3.20414 1.23247 0
M  V30 395 C 36.2935 4.20399 0.559041 0
M  V30 396 N 36.6845 5.04423 -0.372927 0
M  V30 397 C 34.9825 4.38536 0.812522 0
M  V30 398 C 35.6835 5.76655 -0.764446 0
M  V30 399 N 34.6595 5.43471 -0.11848 0
M  V30 400 H 38.4615 2.89422 -0.511117 0
M  V30 401 H 35.9755 1.57868 -0.380975 0
M  V30 402 H 37.9725 3.76262 1.79534 0
M  V30 403 H 36.6325 2.59623 1.95002 0
M  V30 404 H 37.6435 5.1248 -0.747287 0
M  V30 405 H 34.3205 3.88913 1.51832 0
M  V30 406 H 35.7105 6.54238 -1.53045 0
M  V30 407 N 38.4306 0.297415 1.54768 0
M  V30 408 C 39.6556 -0.318435 2.04941 0
M  V30 409 C 40.0806 -1.4701 1.17345 0
M  V30 410 O 39.4386 -1.80436 0.176758 0
M  V30 411 C 39.4866 -0.755749 3.52592 0
M  V30 412 O 38.5906 -1.86088 3.68028 0
M  V30 413 H 37.9316 -0.062421 0.661059 0
M  V30 414 H 40.4616 0.438215 1.99852 0
M  V30 415 H 40.4716 -1.04552 3.94376 0
M  V30 416 H 39.1466 0.0867233 4.1581 0
M  V30 417 H 37.7236 -1.57193 3.38149 0
M  V30 418 N 39.9087 -1.5758 0.0250728 0
M  V30 419 C 41.1547 -1.91917 -0.655413 0
M  V30 420 C 41.4877 -0.901433 -1.72011 0
M  V30 421 O 40.7627 0.0764069 -1.9435 0
M  V30 422 C 41.0457 -3.36751 -1.27558 0
M  V30 423 C 40.8987 -4.49258 -0.220719 0
M  V30 424 C 42.2177 -3.81469 -2.19475 0
M  V30 425 H 39.3367 -0.697925 -0.23679 0
M  V30 426 H 41.9787 -1.89825 0.0815036 0
M  V30 427 H 40.1287 -3.38664 -1.90365 0
M  V30 428 H 41.8007 -4.59478 0.409601 0
M  V30 429 H 40.0437 -4.31415 0.454264 0
M  V30 430 H 40.7147 -5.47618 -0.694175 0
M  V30 431 H 43.1907 -3.81266 -1.66659 0
M  V30 432 H 42.0667 -4.83512 -2.59822 0
M  V30 433 H 42.3277 -3.16744 -3.08424 0
M  V30 434 N 41.3868 0.248026 -1.55636 0
M  V30 435 C 42.3498 1.29044 -1.89421 0
M  V30 436 C 43.3498 1.41134 -0.770581 0
M  V30 437 O 44.5398 1.39854 -1.03858 0
M  V30 438 C 41.6718 2.66831 -2.12165 0
M  V30 439 H 42.8648 1.00305 -2.82629 0
M  V30 440 H 40.4178 0.487265 -1.48511 0
M  V30 441 H 41.1528 3.00711 -1.21422 0
M  V30 442 H 40.9378 2.59438 -2.93997 0
M  V30 443 H 42.4278 3.42103 -2.3949 0
M  V30 444 N 42.8649 1.48995 0.513639 0
M  V30 445 C 44.1419 1.48338 1.27495 0
M  V30 446 C 44.5219 0.204065 2.10111 0
M  V30 447 O 43.8699 -0.813881 2.13514 0
M  V30 448 C 44.0799 2.75498 2.14247 0
M  V30 449 C 45.4279 3.24484 2.73852 0
M  V30 450 O 46.4519 2.76528 2.24523 0
M  V30 451 O 45.3109 4.07974 3.6362 0
M  V30 452 H 42.4049 0.593149 0.576284 0
M  V30 453 H 44.9509 1.61246 0.528948 0
M  V30 454 H 43.7229 3.60109 1.53092 0
M  V30 455 H 43.3459 2.6539 2.96064 0
M  V30 456 N 44.343 -0.763751 1.37857 0
M  V30 457 C 45.754 -1.3405 1.29952 0
M  V30 458 C 46.105 -1.96138 -0.0492898 0
M  V30 459 O 45.23 -1.94372 -0.951239 0
M  V30 460 C 45.825 -2.43729 2.35333 0
M  V30 461 C 44.384 -2.97151 2.31037 0
M  V30 462 C 43.531 -1.70438 2.18738 0
M  V30 463 H 46.482 -0.563396 1.48363 0
M  V30 464 H 46.503 -3.23412 2.00462 0
M  V30 465 H 46.015 -1.9851 3.33489 0
M  V30 466 H 44.116 -3.46724 1.3643 0
M  V30 467 H 44.229 -3.52221 3.24772 0
M  V30 468 H 42.593 -1.93673 1.65418 0
M  V30 469 H 43.376 -1.27312 3.18821 0
M  V30 470 N 45.8211 -1.22559 -0.990812 0
M  V30 471 C 47.2371 -0.985996 -1.255 0
M  V30 472 C 47.4371 0.319173 -1.98956 0
M  V30 473 O 46.4931 1.04127 -2.3003 0
M  V30 474 C 47.8061 -2.18607 -2.06474 0
M  V30 475 C 49.3541 -2.22985 -2.19651 0
M  V30 476 C 49.8291 -3.4255 -3.04012 0
M  V30 477 N 51.3201 -3.42725 -3.11599 0
M  V30 478 C 52.0551 -4.31892 -3.7717 0
M  V30 479 N 51.5511 -5.31279 -4.44651 0
M  V30 480 N 53.3441 -4.19662 -3.73952 0
M  V30 481 H 45.4951 -2.06469 -0.49841 0
M  V30 482 H 47.7581 -0.904853 -0.282747 0
M  V30 483 H 47.4641 -3.13267 -1.59865 0
M  V30 484 H 47.3381 -2.18838 -3.07229 0
M  V30 485 H 49.7251 -1.28871 -2.65474 0
M  V30 486 H 49.8061 -2.26791 -1.18319 0
M  V30 487 H 49.4501 -4.36965 -2.58889 0
M  V30 488 H 49.3801 -3.35984 -4.0549 0
M  V30 489 H 51.8711 -2.70807 -2.63575 0
M  V30 490 H 52.1841 -5.95593 -4.92431 0
M  V30 491 H 50.5291 -5.3519 -4.43392 0
M  V30 492 H 53.7201 -3.41268 -3.20396 0
M  V30 493 H 53.8931 -4.89358 -4.24774 0
M  V30 494 N 47.2992 1.18797 -1.03562 0
M  V30 495 C 48.2492 2.20161 -0.592724 0
M  V30 496 C 49.2332 1.56772 0.362133 0
M  V30 497 O 50.4252 1.76062 0.182009 0
M  V30 498 C 47.5542 3.43266 0.0481024 0
M  V30 499 C 46.6402 4.13786 -0.9296 0
M  V30 500 N 47.0312 4.60388 -2.09467 0
M  V30 501 C 45.3292 4.39572 -0.754499 0
M  V30 502 C 46.0302 5.14619 -2.71187 0
M  V30 503 N 45.0062 5.05826 -1.991 0
M  V30 504 H 48.8082 2.53877 -1.48066 0
M  V30 505 H 46.3222 1.34946 -0.903514 0
M  V30 506 H 48.3192 4.15136 0.383058 0
M  V30 507 H 46.9792 3.11048 0.931636 0
M  V30 508 H 47.9902 4.54999 -2.47379 0
M  V30 509 H 44.6672 4.17425 0.0793713 0
M  V30 510 H 46.0572 5.60917 -3.69895 0
M  V30 511 N 48.7773 0.814389 1.34928 0
M  V30 512 C 49.7073 0.244827 2.32213 0
M  V30 513 C 50.6883 -0.634024 1.57842 0
M  V30 514 O 51.8733 -0.562676 1.8587 0
M  V30 515 C 49.0033 -0.601106 3.42058 0
M  V30 516 C 47.9573 0.179896 4.27622 0
M  V30 517 C 47.2833 -0.788237 5.28858 0
M  V30 518 C 48.5833 1.38329 5.03649 0
M  V30 519 H 50.2773 1.05763 2.80097 0
M  V30 520 H 47.8233 0.510029 1.34665 0
M  V30 521 H 49.7763 -1.00968 4.09125 0
M  V30 522 H 48.5003 -1.44688 2.92802 0
M  V30 523 H 47.1593 0.569739 3.62146 0
M  V30 524 H 46.8073 -1.62973 4.75866 0
M  V30 525 H 46.5073 -0.269942 5.8698 0
M  V30 526 H 48.0313 -1.19485 5.98795 0
M  V30 527 H 49.4453 1.04918 5.63618 0
M  V30 528 H 47.8423 1.83662 5.71304 0
M  V30 529 H 48.9123 2.16592 4.33839 0
M  V30 530 N 50.2554 -1.46986 0.568584 0
M  V30 531 C 51.6664 -1.86188 0.138219 0
M  V30 532 C 52.0174 -1.47388 -1.29504 0
M  V30 533 O 51.1424 -0.88219 -1.97602 0
M  V30 534 C 51.7374 -3.3792 0.244065 0
M  V30 535 C 50.2964 -3.76171 -0.131335 0
M  V30 536 C 49.4434 -2.71027 0.586465 0
M  V30 537 H 52.3944 -1.38342 0.777645 0
M  V30 538 H 52.4154 -3.76729 -0.534351 0
M  V30 539 H 51.9274 -3.66128 1.28731 0
M  V30 540 H 50.0284 -3.5358 -1.17526 0
M  V30 541 H 50.1414 -4.78523 0.235146 0
M  V30 542 H 48.5054 -2.54684 0.0282722 0
M  V30 543 H 49.2884 -3.02077 1.63109 0
M  V30 544 N 51.7335 -0.305618 -1.54608 0
M  V30 545 C 52.9815 0.301701 -1.99835 0
M  V30 546 C 53.3025 1.54054 -1.19551 0
M  V30 547 O 52.5725 1.93702 -0.292658 0
M  V30 548 H 51.1525 0.114468 -0.738178 0
M  V30 549 H 53.8145 -0.418016 -1.90364 0
M  V30 550 H 52.9105 0.570548 -3.06841 0
M  V30 551 N 53.2116 1.57565 -0.0334293 0
M  V30 552 C 54.1216 2.13943 0.962572 0
M  V30 553 C 55.1376 1.09276 1.35406 0
M  V30 554 O 56.3136 1.41355 1.4346 0
M  V30 555 C 53.3786 2.65887 2.22497 0
M  V30 556 C 52.4396 3.85286 1.8935 0
M  V30 557 C 51.6726 4.34743 3.09571 0
M  V30 558 O 51.8956 3.83352 4.22371 0
M  V30 559 O 50.8296 5.26538 2.91618 0
M  V30 560 H 54.6556 2.99333 0.513169 0
M  V30 561 H 52.2406 1.4822 0.18743 0
M  V30 562 H 54.1226 2.99346 2.96598 0
M  V30 563 H 52.7976 1.83578 2.6661 0
M  V30 564 H 51.7046 3.56746 1.1262 0
M  V30 565 H 53.0376 4.68771 1.5005 0
M  V30 566 N 54.6897 -0.239769 1.55765 0
M  V30 567 C 55.9667 -0.990056 1.68693 0
M  V30 568 C 56.3467 -2.03107 0.5754 0
M  V30 569 O 55.6947 -2.24604 -0.42017 0
M  V30 570 C 55.9047 -1.61696 3.09282 0
M  V30 571 C 57.2527 -2.11613 3.6811 0
M  V30 572 O 58.2767 -1.71624 3.12127 0
M  V30 573 O 57.1357 -2.85057 4.66267 0
M  V30 574 H 54.2297 -0.461299 0.686391 0
M  V30 575 H 56.7757 -0.232991 1.68093 0
M  V30 576 H 55.5477 -0.864357 3.81634 0
M  V30 577 H 55.1707 -2.44005 3.13923 0
M  V30 578 N 56.1678 -1.49265 -0.50573 0
M  V30 579 C 57.4138 -1.58748 -1.26202 0
M  V30 580 C 57.7468 -0.271227 -1.92297 0
M  V30 581 O 57.0218 0.724831 -1.80489 0
M  V30 582 C 57.3048 -2.74332 -2.33268 0
M  V30 583 C 57.1578 -4.15737 -1.71705 0
M  V30 584 C 58.4768 -2.85576 -3.34865 0
M  V30 585 H 55.5958 -0.577826 -0.457478 0
M  V30 586 H 58.2378 -1.81532 -0.560897 0
M  V30 587 H 56.3878 -2.55036 -2.93068 0
M  V30 588 H 58.0598 -4.46537 -1.15769 0
M  V30 589 H 56.3028 -4.21605 -1.02135 0
M  V30 590 H 56.9738 -4.92477 -2.49341 0
M  V30 591 H 59.4498 -3.03127 -2.8505 0
M  V30 592 H 58.3258 -3.68135 -4.07146 0
M  V30 593 H 58.5868 -1.94732 -3.96903 0
M  V30 594 N 57.6459 0.756429 -1.3826 0
M  V30 595 C 58.5929 1.87011 -1.35261 0
M  V30 596 C 59.5629 1.64695 -0.215616 0
M  V30 597 O 60.7479 1.864 -0.407399 0
M  V30 598 C 57.8879 3.24275 -1.18068 0
M  V30 599 C 57.0009 3.58442 -2.41129 0
M  V30 600 C 56.1359 4.84994 -2.16689 0
M  V30 601 C 55.1749 5.11939 -3.35537 0
M  V30 602 N 54.3119 6.29685 -3.10549 0
M  V30 603 H 59.1519 1.8891 -2.30472 0
M  V30 604 H 56.6889 0.923373 -1.14509 0
M  V30 605 H 58.6469 4.03479 -1.06116 0
M  V30 606 H 57.2769 3.21711 -0.264973 0
M  V30 607 H 56.3289 2.74103 -2.63764 0
M  V30 608 H 57.6409 3.74283 -3.29717 0
M  V30 609 H 56.7949 5.72135 -2.01857 0
M  V30 610 H 55.5339 4.71286 -1.25462 0
M  V30 611 H 54.5389 4.23268 -3.50891 0
M  V30 612 H 55.7639 5.27546 -4.27635 0
M  V30 613 H 53.7099 6.17306 -2.21967 0
M  V30 614 H 53.6269 6.46014 -3.92686 0
M  V30 615 H 54.8949 7.19722 -2.99367 0
M  V30 616 N 59.124 1.23083 0.984299 0
M  V30 617 C 60.372 1.05848 1.72165 0
M  V30 618 C 60.693 -0.406049 1.90726 0
M  V30 619 O 59.963 -1.29139 1.47309 0
M  V30 620 H 58.543 0.388685 0.637913 0
M  V30 621 H 61.205 1.54736 1.18503 0
M  V30 622 H 60.301 1.54327 2.71274 0
M  V30 623 N 60.6021 -1.18246 1.0419 0
M  V30 624 C 61.8791 -1.84121 0.660208 0
M  V30 625 C 62.2591 -1.92778 -0.860221 0
M  V30 626 O 61.6071 -1.45464 -1.76217 0
M  V30 627 C 61.8171 -3.22355 1.33747 0
M  V30 628 C 63.1651 -3.98376 1.46906 0
M  V30 629 O 64.1891 -3.31799 1.29568 0
M  V30 630 O 63.0481 -5.17665 1.75171 0
M  V30 631 H 60.1421 -0.794036 0.231161 0
M  V30 632 H 62.6881 -1.25628 1.14087 0
M  V30 633 H 61.4601 -3.10964 2.37522 0
M  V30 634 H 61.0831 -3.88506 0.845515 0
M  V30 635 N 62.0802 -0.821533 -1.34494 0
M  V30 636 C 63.3282 -0.408139 -1.97936 0
M  V30 637 C 63.6492 1.03193 -1.65457 0
M  V30 638 O 62.9192 1.71622 -0.944595 0
M  V30 639 H 61.4992 -0.147928 -0.732206 0
M  V30 640 H 64.1612 -1.05067 -1.64155 0
M  V30 641 H 63.2572 -0.52601 -3.07635 0
M  V30 642 N 63.5583 1.46682 -0.576371 0
M  V30 643 C 64.5063 2.31953 0.17335 0
M  V30 644 C 65.5003 1.44098 0.89062 0
M  V30 645 O 66.7063 1.60759 0.809728 0
M  V30 646 H 63.0813 0.748273 0.0747727 0
M  V30 647 H 65.0523 2.93007 -0.564738 0
M  V30 648 C 63.8013 3.27142 1.17786 0
M  V30 649 H 63.1243 3.94719 0.635361 0
M  V30 650 H 64.5643 3.896 1.67296 0
M  V30 651 C 63.0233 2.52036 2.23561 0
M  V30 652 O 63.5533 2.27877 3.3081 0
M  V30 653 N 61.7593 2.12709 1.97998 0
M  V30 654 H 61.3063 2.32557 1.10792 0
M  V30 655 H 61.2643 1.62776 2.68982 0
M  V30 656 N 65.0364 0.313813 1.54444 0
M  V30 657 C 66.4474 -0.176243 1.85866 0
M  V30 658 C 66.7984 -1.52405 1.23561 0
M  V30 659 O 65.9234 -2.09605 0.538016 0
M  V30 660 C 66.5184 -0.32657 3.37222 0
M  V30 661 C 65.0774 -0.760846 3.6863 0
M  V30 662 C 64.2244 0.123247 2.77026 0
M  V30 663 H 67.1754 0.534418 1.49431 0
M  V30 664 H 67.1964 -1.15908 3.62416 0
M  V30 665 H 66.7084 0.654531 3.82541 0
M  V30 666 H 64.8094 -1.75204 3.28838 0
M  V30 667 H 64.9224 -0.571353 4.75681 0
M  V30 668 H 63.2864 -0.399597 2.51546 0
M  V30 669 H 64.0694 1.10094 3.25168 0
M  V30 670 N 66.5145 -1.57545 0.0417849 0
M  V30 671 C 67.4615 -2.10977 -0.935805 0
M  V30 672 C 68.4315 -1.01486 -1.31491 0
M  V30 673 O 69.6165 -1.2898 -1.40602 0
M  V30 674 C 66.7565 -2.65169 -2.2086 0
M  V30 675 C 65.8695 -3.88714 -1.88482 0
M  V30 676 C 65.0045 -4.31254 -3.1015 0
M  V30 677 C 64.0435 -5.47524 -2.7365 0
M  V30 678 N 63.1805 -5.85162 -3.87982 0
M  V30 679 H 68.0205 -2.94218 -0.473249 0
M  V30 680 H 65.5575 -1.45415 -0.221981 0
M  V30 681 H 67.5155 -2.94685 -2.95325 0
M  V30 682 H 66.1455 -1.8474 -2.64709 0
M  V30 683 H 65.1975 -3.65849 -1.04205 0
M  V30 684 H 66.5095 -4.73245 -1.57608 0
M  V30 685 H 65.6635 -4.62273 -3.92923 0
M  V30 686 H 64.4025 -3.45516 -3.44195 0
M  V30 687 H 63.4075 -5.16187 -1.89291 0
M  V30 688 H 64.6325 -6.34971 -2.40807 0
M  V30 689 H 62.5785 -5.02377 -4.21846 0
M  V30 690 H 62.4955 -6.64362 -3.60775 0
M  V30 691 H 63.7635 -6.20791 -4.71422 0
M  V30 692 N 67.9926 0.231505 -1.5589 0
M  V30 693 C 68.9026 1.308 -1.94752 0
M  V30 694 C 69.9186 1.51826 -0.849989 0
M  V30 695 O 71.0946 1.6515 -1.15271 0
M  V30 696 C 68.1596 2.63968 -2.24771 0
M  V30 697 C 67.2206 2.51331 -3.48039 0
M  V30 698 C 66.4536 3.78148 -3.76616 0
M  V30 699 O 66.6766 4.80722 -3.07022 0
M  V30 700 O 65.6106 3.75857 -4.70123 0
M  V30 701 H 69.4366 1.0083 -2.86474 0
M  V30 702 H 67.0216 0.433547 -1.42971 0
M  V30 703 H 68.9036 3.42633 -2.45318 0
M  V30 704 H 67.5786 2.9364 -1.36225 0
M  V30 705 H 66.4856 1.709 -3.32782 0
M  V30 706 H 67.8186 2.26601 -4.36936 0
M  V30 707 N 69.4707 1.49531 0.497807 0
M  V30 708 C 70.6957 1.63159 1.28039 0
M  V30 709 C 71.1207 0.30418 1.85624 0
M  V30 710 O 70.4787 -0.728618 1.66015 0
M  V30 711 C 70.5267 2.70537 2.38416 0
M  V30 712 O 69.6307 2.29931 3.42353 0
M  V30 713 H 68.9717 0.546001 0.377861 0
M  V30 714 H 71.5017 1.9574 0.59558 0
M  V30 715 H 71.5117 2.92802 2.84132 0
M  V30 716 H 70.1867 3.6689 1.95869 0
M  V30 717 H 68.7637 2.18009 3.02533 0
M  V30 718 N 70.9488 -0.749086 1.3866 0
M  V30 719 C 72.1738 -1.54344 1.38538 0
M  V30 720 C 72.5988 -1.88088 -0.0216655 0
M  V30 721 O 71.9568 -1.50899 -1.00494 0
M  V30 722 C 72.0048 -2.8164 2.25192 0
M  V30 723 O 71.1088 -3.7698 1.67212 0
M  V30 724 H 70.4498 -0.466654 0.472367 0
M  V30 725 H 72.9798 -0.925355 1.82478 0
M  V30 726 H 72.9898 -3.30519 2.3921 0
M  V30 727 H 71.6648 -2.56411 3.27454 0
M  V30 728 H 70.2418 -3.35699 1.6236 0
M  V30 729 N 72.4269 -1.23603 -0.977757 0
M  V30 730 C 73.8379 -1.06424 -1.53398 0
M  V30 731 C 74.1889 0.367578 -1.92726 0
M  V30 732 O 73.3139 1.25465 -1.76316 0
M  V30 733 C 73.9089 -1.92568 -2.78753 0
M  V30 734 C 72.4679 -1.79642 -3.30765 0
M  V30 735 C 71.6149 -1.88111 -2.03739 0
M  V30 736 H 74.5659 -1.37227 -0.797152 0
M  V30 737 H 74.5869 -1.45203 -3.51705 0
M  V30 738 H 74.0989 -2.96771 -2.50098 0
M  V30 739 H 72.1999 -0.782325 -3.64294 0
M  V30 740 H 72.3129 -2.63174 -4.00345 0
M  V30 741 H 70.6769 -1.31723 -2.17994 0
M  V30 742 H 71.4599 -2.93875 -1.77461 0
M  V30 743 N 73.905 1.17692 -1.04816 0
M  V30 744 C 75.152 1.87859 -0.75599 0
M  V30 745 C 75.48 1.80812 0.716752 0
M  V30 746 O 74.735 1.20819 1.53952 0
M  V30 747 C 75.034 3.37462 -1.17703 0
M  V30 748 C 74.7 3.64713 -2.65133 0
M  V30 749 C 73.362 3.71859 -3.05408 0
M  V30 750 C 75.714 3.76492 -3.60421 0
M  V30 751 C 73.042 3.88271 -4.39843 0
M  V30 752 C 75.394 3.94421 -4.94585 0
M  V30 753 C 74.058 3.99806 -5.3452 0
M  V30 754 H 73.328 0.687425 -0.276636 0
M  V30 755 H 75.975 1.39255 -1.31455 0
M  V30 756 H 74.28 3.88097 -0.537395 0
M  V30 757 H 75.977 3.90109 -0.928218 0
M  V30 758 H 72.567 3.59772 -2.32942 0
M  V30 759 H 76.751 3.70295 -3.30447 0
M  V30 760 H 72.007 3.90687 -4.70291 0
M  V30 761 H 76.181 4.02477 -5.68318 0
M  V30 762 H 73.808 4.12276 -6.38696 0
M  V30 763 N 75.3831 0.828654 1.34056 0
M  V30 764 C 76.6321 0.415828 1.97367 0
M  V30 765 C 76.9451 -1.02796 1.6641 0
M  V30 766 O 78.1511 -1.54497 2.23255 0
M  V30 767 C 76.6071 0.692601 3.53173 0
M  V30 768 C 76.2151 2.15038 3.93017 0
M  V30 769 C 77.9591 0.346222 4.23086 0
M  V30 770 C 75.8661 2.37174 5.41758 0
M  V30 771 H 74.7961 0.151755 0.738571 0
M  V30 772 H 77.4471 1.01581 1.52819 0
M  V30 773 H 75.8291 0.0223764 3.95994 0
M  V30 774 H 77.0031 2.86024 3.61285 0
M  V30 775 H 75.3181 2.45875 3.36057 0
M  V30 776 H 77.9151 0.48937 5.32456 0
M  V30 777 H 78.2581 -0.709842 4.10204 0
M  V30 778 H 78.7911 0.971258 3.85761 0
M  V30 779 H 75.5301 3.41308 5.59633 0
M  V30 780 H 75.0501 1.70738 5.74986 0
M  V30 781 H 76.7291 2.19818 6.08514 0
M  V30 782 N 76.8612 -1.46375 0.584142 0
M  V30 783 C 77.8092 -2.32042 -0.161047 0
M  V30 784 C 78.8032 -1.44569 -0.882966 0
M  V30 785 O 80.0092 -1.61186 -0.801191 0
M  V30 786 H 76.3842 -0.748659 -0.0708033 0
M  V30 787 H 78.3552 -2.92704 0.580269 0
M  V30 788 C 77.1042 -3.27762 -1.1605 0
M  V30 789 H 76.4272 -3.95051 -0.614419 0
M  V30 790 H 77.8672 -3.90481 -1.65228 0
M  V30 791 C 76.3262 -2.53218 -2.22221 0
M  V30 792 O 76.8562 -2.29628 -3.29597 0
M  V30 793 N 75.0622 -2.13756 -1.96868 0
M  V30 794 H 74.6092 -2.33142 -1.09557 0
M  V30 795 H 74.5672 -1.642 -2.68115 0
M  V30 796 N 78.3393 -0.321999 -1.54275 0
M  V30 797 C 79.5643 0.285791 -2.05422 0
M  V30 798 C 79.9893 1.45124 -1.19669 0
M  V30 799 O 79.3473 1.80132 -0.205441 0
M  V30 800 C 79.3953 0.69956 -3.53749 0
M  V30 801 O 78.4993 1.8021 -3.70942 0
M  V30 802 H 77.8403 0.0518962 -0.661969 0
M  V30 803 H 80.3703 -0.469954 -1.9913 0
M  V30 804 H 80.3803 0.982649 -3.9599 0
M  V30 805 H 79.0553 -0.152864 -4.15619 0
M  V30 806 H 77.6323 1.51794 -3.40607 0
M  V30 807 N 79.8174 1.5752 -0.0501392 0
M  V30 808 C 81.0454 1.96963 0.633492 0
M  V30 809 C 81.4604 0.927631 1.6444 0
M  V30 810 O 80.8174 -0.0882665 1.82286 0
M  V30 811 C 80.8684 3.36487 1.32132 0
M  V30 812 O 80.5894 4.36693 0.350894 0
M  V30 813 C 82.0904 3.90682 2.09481 0
M  V30 814 H 79.3104 0.648244 0.173266 0
M  V30 815 H 81.8544 2.0417 -0.116134 0
M  V30 816 H 80.0094 3.30434 2.02218 0
M  V30 817 H 80.4234 5.17702 0.841735 0
M  V30 818 H 81.8974 4.90591 2.5303 0
M  V30 819 H 82.3744 3.26053 2.94255 0
M  V30 820 H 82.9804 4.00069 1.44307 0
M  V30 821 N 81.2955 -0.223234 1.56011 0
M  V30 822 C 82.5725 -0.972108 1.69733 0
M  V30 823 C 82.9525 -2.02485 0.59691 0
M  V30 824 O 82.3005 -2.25037 -0.396324 0
M  V30 825 C 82.5105 -1.58407 3.10979 0
M  V30 826 C 83.8585 -2.07696 3.70334 0
M  V30 827 O 84.8825 -1.68304 3.1393 0
M  V30 828 O 83.7415 -2.80096 4.69264 0
M  V30 829 H 80.8355 -0.453993 0.691245 0
M  V30 830 H 83.3815 -0.215149 1.68331 0
M  V30 831 H 82.1535 -0.823831 3.82529 0
M  V30 832 H 81.7765 -2.40661 3.16493 0
M  V30 833 N 82.7736 -1.49793 -0.48987 0
M  V30 834 C 84.0016 -1.63568 -1.26701 0
M  V30 835 C 84.4166 -0.311465 -1.86213 0
M  V30 836 O 83.7736 0.704416 -1.68357 0
M  V30 837 C 83.8246 -2.71284 -2.38929 0
M  V30 838 O 83.5456 -3.9857 -1.81861 0
M  V30 839 C 85.0466 -2.95864 -3.3012 0
M  V30 840 H 82.2666 -0.550342 -0.383881 0
M  V30 841 H 84.8106 -1.95898 -0.586864 0
M  V30 842 H 82.9656 -2.417 -3.02753 0
M  V30 843 H 83.3796 -4.57993 -2.55622 0
M  V30 844 H 84.8536 -3.74941 -4.05121 0
M  V30 845 H 85.3306 -2.06206 -3.87783 0
M  V30 846 H 85.9366 -3.26907 -2.72051 0
M  V30 847 N 84.2517 0.741722 -1.39055 0
M  V30 848 C 85.1617 1.88621 -1.39496 0
M  V30 849 C 86.1777 1.71557 -0.290578 0
M  V30 850 O 87.3537 1.94275 -0.530954 0
M  V30 851 C 84.4187 3.24134 -1.23037 0
M  V30 852 C 83.4797 3.5364 -2.43387 0
M  V30 853 C 82.7127 4.82687 -2.27703 0
M  V30 854 O 82.9357 5.55922 -1.27696 0
M  V30 855 O 81.8697 5.1194 -3.16545 0
M  V30 856 H 85.6957 1.91203 -2.35956 0
M  V30 857 H 83.2807 0.888625 -1.20099 0
M  V30 858 H 85.1627 4.0513 -1.15964 0
M  V30 859 H 83.8377 3.22337 -0.296691 0
M  V30 860 H 82.7447 2.72758 -2.56035 0
M  V30 861 H 84.0777 3.60209 -3.35425 0
M  V30 862 N 85.7298 1.2412 0.971189 0
M  V30 863 C 86.6768 1.0305 2.06517 0
M  V30 864 C 87.6468 -0.0550666 1.66009 0
M  V30 865 O 88.8318 0.0988688 1.90544 0
M  V30 866 C 85.9718 0.637653 3.39158 0
M  V30 867 C 85.0848 1.79633 3.92882 0
M  V30 868 C 84.2198 1.34939 5.13775 0
M  V30 869 C 83.2588 2.47823 5.59687 0
M  V30 870 N 82.3958 2.04022 6.71803 0
M  V30 871 H 87.2358 1.96685 2.23873 0
M  V30 872 H 84.7728 0.979694 1.09729 0
M  V30 873 H 86.7308 0.390931 4.15364 0
M  V30 874 H 85.3608 -0.261693 3.21737 0
M  V30 875 H 84.4128 2.15681 3.13346 0
M  V30 876 H 85.7248 2.64466 4.22918 0
M  V30 877 H 84.8788 1.06134 5.97345 0
M  V30 878 H 83.6178 0.471557 4.85415 0
M  V30 879 H 82.6228 2.77392 4.74693 0
M  V30 880 H 83.8478 3.36158 5.90063 0
M  V30 881 H 81.7938 1.18632 6.45184 0
M  V30 882 H 81.7108 2.82409 7.01271 0
M  V30 883 H 82.9788 1.78347 7.58823 0
M  V30 884 N 87.2079 -1.17134 1.05439 0
M  V30 885 C 88.4559 -1.87085 0.764429 0
M  V30 886 C 88.7769 -1.81584 -0.710787 0
M  V30 887 O 88.0469 -1.24349 -1.51374 0
M  V30 888 H 86.6269 -0.692627 0.279779 0
M  V30 889 H 89.2889 -1.42087 1.33406 0
M  V30 890 H 88.3849 -2.92759 1.0816 0
M  V30 891 N 88.686 -0.835752 -1.33615 0
M  V30 892 C 89.633 -0.26473 -2.29277 0
M  V30 893 C 90.603 0.617712 -1.54187 0
M  V30 894 O 91.788 0.556641 -1.825 0
M  V30 895 C 88.928 0.556777 -3.40579 0
M  V30 896 C 88.041 -0.349339 -4.30585 0
M  V30 897 C 87.176 0.482969 -5.29 0
M  V30 898 C 86.215 -0.421732 -6.10645 0
M  V30 899 N 85.352 0.372262 -7.01112 0
M  V30 900 H 90.192 -1.08582 -2.77514 0
M  V30 901 H 87.729 -0.546927 -1.36554 0
M  V30 902 H 89.687 1.04852 -4.03809 0
M  V30 903 H 88.317 1.34286 -2.93542 0
M  V30 904 H 87.369 -0.959372 -3.68104 0
M  V30 905 H 88.681 -1.04445 -4.87742 0
M  V30 906 H 87.835 1.03866 -5.97743 0
M  V30 907 H 86.574 1.21153 -4.72412 0
M  V30 908 H 85.579 -0.989464 -5.40823 0
M  V30 909 H 86.804 -1.14861 -6.69316 0
M  V30 910 H 84.75 1.08426 -6.46977 0
M  V30 911 H 84.667 -0.264198 -7.55538 0
M  V30 912 H 85.935 0.910293 -7.74167 0
M  V30 913 N 90.1641 1.46063 -0.591896 0
M  V30 914 C 91.0741 2.34192 0.13831 0
M  V30 915 C 92.0901 1.50305 0.876608 0
M  V30 916 O 93.2661 1.8315 0.837728 0
M  V30 917 C 90.3311 3.27656 1.13326 0
M  V30 918 C 89.3921 4.27445 0.39863 0
M  V30 919 C 88.6251 5.16443 1.34618 0
M  V30 920 O 88.8481 5.08553 2.58321 0
M  V30 921 O 87.7821 5.95843 0.851768 0
M  V30 922 H 91.6081 2.98002 -0.58552 0
M  V30 923 H 89.1931 1.45188 -0.352239 0
M  V30 924 H 91.0751 3.85291 1.70671 0
M  V30 925 H 89.7501 2.6643 1.83839 0
M  V30 926 H 88.6571 3.73471 -0.216895 0
M  V30 927 H 89.9901 4.91482 -0.265709 0
M  V30 928 N 91.6422 0.330177 1.54103 0
M  V30 929 C 92.8722 -0.271784 2.04805 0
M  V30 930 C 93.2802 -1.45816 1.20559 0
M  V30 931 O 92.6232 -1.82247 0.2306 0
M  V30 932 C 92.6852 -0.763238 3.51305 0
M  V30 933 C 92.3492 0.301705 4.56003 0
M  V30 934 C 93.3462 1.13999 5.07248 0
M  V30 935 C 91.0312 0.451793 5.00264 0
M  V30 936 C 93.0252 2.11402 6.01322 0
M  V30 937 C 90.7122 1.42924 5.94151 0
M  V30 938 C 91.7102 2.25882 6.44567 0
M  V30 939 O 91.3982 3.21965 7.3661 0
M  V30 940 H 91.1302 -0.058693 0.673447 0
M  V30 941 H 93.6842 0.476395 1.99799 0
M  V30 942 H 91.9142 -1.56244 3.5373 0
M  V30 943 H 93.6032 -1.28427 3.85047 0
M  V30 944 H 94.3692 1.03505 4.73827 0
M  V30 945 H 90.2482 -0.184044 4.60632 0
M  V30 946 H 93.7922 2.76192 6.40596 0
M  V30 947 H 89.6892 1.53479 6.26988 0
M  V30 948 H 90.4572 3.17281 7.54503 0
M  V30 949 N 93.1203 -1.57491 0.0584922 0
M  V30 950 C 94.3973 -1.84346 -0.653918 0
M  V30 951 C 94.7773 -0.948355 -1.88599 0
M  V30 952 O 94.1253 -0.0112403 -2.28497 0
M  V30 953 C 94.3353 -3.34239 -1.00425 0
M  V30 954 C 95.6833 -4.01431 -1.38342 0
M  V30 955 O 96.7073 -3.38907 -1.09637 0
M  V30 956 O 95.5663 -5.11683 -1.91943 0
M  V30 957 H 92.6603 -0.761112 -0.323478 0
M  V30 958 H 95.2063 -1.6947 0.0884125 0
M  V30 959 H 93.9783 -3.91089 -0.128625 0
M  V30 960 H 93.6013 -3.54329 -1.80378 0
M  V30 961 N 94.5984 0.214957 -1.56127 0
M  V30 962 C 95.8464 0.936518 -1.79091 0
M  V30 963 C 96.1674 1.84606 -0.628148 0
M  V30 964 O 95.4374 1.92664 0.35462 0
M  V30 965 H 94.0174 0.3488 -0.660566 0
M  V30 966 H 96.6794 0.22523 -1.93594 0
M  V30 967 H 95.7754 1.53943 -2.71492 0
M  V30 968 N 96.0765 1.50051 0.48192 0
M  V30 969 C 97.0235 1.68122 1.58125 0
M  V30 970 C 97.9935 0.522545 1.57666 0
M  V30 971 O 99.1785 0.751844 1.75362 0
M  V30 972 C 96.3185 1.77142 2.96167 0
M  V30 973 C 95.4315 3.0444 3.06497 0
M  V30 974 C 94.5665 3.04321 4.35387 0
M  V30 975 C 93.6055 4.26118 4.3942 0
M  V30 976 N 92.7425 4.238 5.59766 0
M  V30 977 H 97.5825 2.6198 1.42022 0
M  V30 978 H 95.1195 1.29877 0.690687 0
M  V30 979 H 97.0775 1.80352 3.76203 0
M  V30 980 H 95.7075 0.867329 3.1093 0
M  V30 981 H 94.7595 3.10752 2.19402 0
M  V30 982 H 96.0715 3.94426 3.05336 0
M  V30 983 H 95.2255 3.062 5.23762 0
M  V30 984 H 93.9645 2.12147 4.39141 0
M  V30 985 H 92.9695 4.24463 3.49444 0
M  V30 986 H 94.1945 5.19507 4.37366 0
M  V30 987 H 92.1405 3.34474 5.64326 0
M  V30 988 H 92.0575 5.07542 5.60301 0
M  V30 989 H 93.3255 4.2981 6.50295 0
M  V30 990 N 97.5546 -0.734337 1.39446 0
M  V30 991 C 98.5026 -1.86971 1.38364 0
M  V30 992 C 99.4966 -1.67288 0.266687 0
M  V30 993 O 100.703 -1.74621 0.436755 0
M  V30 994 H 97.0776 -0.615474 0.432082 0
M  V30 995 H 99.0486 -1.85 2.34132 0
M  V30 996 C 97.7976 -3.2466 1.24465 0
M  V30 997 H 97.1206 -3.40402 2.09682 0
M  V30 998 H 98.5606 -4.04292 1.27764 0
M  V30 999 C 97.0196 -3.36867 -0.0468674 0
M  V30 1000 O 97.5496 -3.88618 -1.01681 0
M  V30 1001 N 95.7556 -2.90391 -0.110145 0
M  V30 1002 H 95.3026 -2.48466 0.679868 0
M  V30 1003 H 95.2606 -2.98939 -0.973799 0
M  V30 1004 N 99.0327 -1.24633 -0.964593 0
M  V30 1005 C 99.9657 -0.984662 -2.05863 0
M  V30 1006 C 100.944 0.0826554 -1.6239 0
M  V30 1007 O 102.128 -0.0549296 -1.8842 0
M  V30 1008 C 99.2547 -0.486529 -3.35187 0
M  V30 1009 C 98.3007 -1.54286 -3.97615 0
M  V30 1010 S 99.1337 -3.12513 -4.34851 0
M  V30 1011 C 100.29 -2.6441 -5.67308 0
M  V30 1012 H 100.523 -1.91104 -2.27743 0
M  V30 1013 H 98.0557 -1.08052 -1.10291 0
M  V30 1014 H 100.014 -0.205757 -4.09984 0
M  V30 1015 H 98.6747 0.419186 -3.1129 0
M  V30 1016 H 97.8677 -1.14481 -4.90826 0
M  V30 1017 H 97.4697 -1.7738 -3.2926 0
M  V30 1018 H 99.7617 -2.07416 -6.44969 0
M  V30 1019 H 100.705 -3.56222 -6.11973 0
M  V30 1020 H 101.113 -2.04734 -5.26065 0
M  V30 1021 N 100.511 1.16574 -1.06058 0
M  V30 1022 C 101.474 2.19085 -0.673392 0
M  V30 1023 C 102.474 1.5835 0.279648 0
M  V30 1024 O 103.664 1.74088 0.0623488 0
M  V30 1025 C 100.796 3.40899 0.00954234 0
M  V30 1026 H 101.989 2.54853 -1.58081 0
M  V30 1027 H 99.5418 1.30808 -0.855516 0
M  V30 1028 H 100.277 3.10684 0.929826 0
M  V30 1029 H 100.062 3.86233 -0.67573 0
M  V30 1030 H 101.552 4.1675 0.266245 0
M  V30 1031 N 101.989 0.842826 1.3317 0
M  V30 1032 C 102.919 0.294028 2.31641 0
M  V30 1033 C 103.9 -0.600401 1.59151 0
M  V30 1034 O 105.085 -0.523124 1.87022 0
M  V30 1035 C 102.215 -0.528416 3.43257 0
M  V30 1036 C 101.169 0.27056 4.27144 0
M  V30 1037 C 100.495 -0.675881 5.30411 0
M  V30 1038 C 101.795 1.48981 5.00602 0
M  V30 1039 H 103.489 1.11681 2.77791 0
M  V30 1040 H 101.035 0.538478 1.33553 0
M  V30 1041 H 102.988 -0.922674 4.11175 0
M  V30 1042 H 101.712 -1.38445 2.95805 0
M  V30 1043 H 100.371 0.646427 3.60856 0
M  V30 1044 H 100.019 -1.52842 4.79216 0
M  V30 1045 H 99.7189 -0.145374 5.8742 0
M  V30 1046 H 101.243 -1.06757 6.01195 0
M  V30 1047 H 102.657 1.16849 5.61266 0
M  V30 1048 H 101.054 1.95739 5.6728 0
M  V30 1049 H 102.124 2.25746 4.29147 0
M  V30 1050 N 103.467 -1.45747 0.599634 0
M  V30 1051 C 104.714 -2.02292 0.0917284 0
M  V30 1052 C 105.042 -1.46906 -1.27472 0
M  V30 1053 O 104.297 -0.630652 -1.8526 0
M  V30 1054 C 104.596 -3.57399 -0.00602758 0
M  V30 1055 C 104.262 -4.31902 1.29503 0
M  V30 1056 C 102.924 -4.51974 1.65144 0
M  V30 1057 C 105.276 -4.74551 2.15525 0
M  V30 1058 C 102.604 -5.11949 2.86574 0
M  V30 1059 C 104.956 -5.35868 3.36196 0
M  V30 1060 C 103.62 -5.54165 3.72099 0
M  V30 1061 H 102.89 -0.740239 0.0335658 0
M  V30 1062 H 105.537 -1.7491 0.779661 0
M  V30 1063 H 103.842 -3.84014 -0.777183 0
M  V30 1064 H 105.539 -3.98846 -0.415038 0
M  V30 1065 H 102.129 -4.16588 1.00761 0
M  V30 1066 H 106.313 -4.58784 1.8929 0
M  V30 1067 H 101.569 -5.24305 3.14507 0
M  V30 1068 H 105.743 -5.6787 4.03109 0
M  V30 1069 H 103.37 -6.00406 4.6628 0
M  V30 1070 N 104.945 -0.338344 -1.53925 0
M  V30 1071 C 105.855 0.529421 -2.28548 0
M  V30 1072 C 106.871 1.11645 -1.3346 0
M  V30 1073 O 108.047 1.13325 -1.66492 0
M  V30 1074 C 105.112 1.66713 -3.03987 0
M  V30 1075 C 104.173 1.11041 -4.14691 0
M  V30 1076 C 103.406 2.19389 -4.86522 0
M  V30 1077 O 103.629 3.40013 -4.57982 0
M  V30 1078 O 102.563 1.83976 -5.73094 0
M  V30 1079 H 106.389 -0.0770399 -3.03602 0
M  V30 1080 H 103.974 -0.103555 -1.49041 0
M  V30 1081 H 105.856 2.32918 -3.5118 0
M  V30 1082 H 104.531 2.25949 -2.31794 0
M  V30 1083 H 103.438 0.413024 -3.71813 0
M  V30 1084 H 104.771 0.562975 -4.8897 0
M  V30 1085 N 106.423 1.57458 -0.0668435 0
M  V30 1086 C 107.333 2.15937 0.916975 0
M  V30 1087 C 108.349 1.12123 1.33058 0
M  V30 1088 O 109.525 1.44366 1.40429 0
M  V30 1089 C 106.59 2.70547 2.16807 0
M  V30 1090 C 105.651 3.89215 1.81135 0
M  V30 1091 C 104.884 4.41211 3.0028 0
M  V30 1092 O 105.107 3.92225 4.14144 0
M  V30 1093 O 104.041 5.32605 2.80384 0
M  V30 1094 H 107.867 3.00354 0.449561 0
M  V30 1095 H 105.452 1.48584 0.155949 0
M  V30 1096 H 107.334 3.0557 2.90181 0
M  V30 1097 H 106.009 1.89192 2.62656 0
M  V30 1098 H 104.916 3.59054 1.05028 0
M  V30 1099 H 106.249 4.71848 1.40073 0
M  V30 1100 N 107.901 -0.206675 1.56239 0
M  V30 1101 C 108.811 -1.27686 1.96808 0
M  V30 1102 C 109.827 -1.50455 0.874035 0
M  V30 1103 O 111.003 -1.63295 1.17884 0
M  V30 1104 C 108.068 -2.60358 2.28942 0
M  V30 1105 C 107.129 -2.45762 3.51994 0
M  V30 1106 C 106.362 -3.72108 3.82585 0
M  V30 1107 O 106.585 -4.75776 3.14631 0
M  V30 1108 O 105.519 -3.6833 4.76043 0
M  V30 1109 H 109.345 -0.962593 2.88041 0
M  V30 1110 H 106.93 -0.410746 1.43643 0
M  V30 1111 H 108.812 -3.38687 2.50737 0
M  V30 1112 H 107.487 -2.91435 1.4088 0
M  V30 1113 H 106.394 -1.65584 3.35459 0
M  V30 1114 H 107.727 -2.19621 4.40486 0
M  V30 1115 N 109.379 -1.50304 -0.473955 0
M  V30 1116 C 110.312 -1.63595 -1.59097 0
M  V30 1117 C 111.29 -0.484142 -1.55225 0
M  V30 1118 O 112.474 -0.703271 -1.7489 0
M  V30 1119 C 109.601 -1.61589 -2.97669 0
M  V30 1120 C 108.647 -2.82295 -3.19705 0
M  V30 1121 S 109.48 -4.43635 -2.99913 0
M  V30 1122 C 110.636 -4.44317 -4.40832 0
M  V30 1123 H 110.869 -2.58082 -1.47583 0
M  V30 1124 H 108.402 -1.39531 -0.661087 0
M  V30 1125 H 110.36 -1.61116 -3.7756 0
M  V30 1126 H 109.021 -0.683421 -3.06575 0
M  V30 1127 H 108.214 -2.77188 -4.20931 0
M  V30 1128 H 107.816 -2.8032 -2.47582 0
M  V30 1129 H 110.108 -4.17703 -5.33414 0
M  V30 1130 H 111.051 -5.45911 -4.50984 0
M  V30 1131 H 111.459 -3.74059 -4.22777 0
M  V30 1132 N 110.857 0.726932 -1.39834 0
M  V30 1133 C 112.134 1.47902 -1.28001 0
M  V30 1134 C 112.514 2.1083 0.106789 0
M  V30 1135 O 111.862 1.99242 1.11869 0
M  V30 1136 C 112.072 2.52392 -2.41038 0
M  V30 1137 C 113.42 3.18546 -2.80737 0
M  V30 1138 O 114.444 2.62708 -2.40547 0
M  V30 1139 O 113.303 4.19604 -3.50135 0
M  V30 1140 H 110.397 0.657163 -0.502062 0
M  V30 1141 H 112.943 0.760071 -1.51727 0
M  V30 1142 H 111.715 2.04329 -3.33715 0
M  V30 1143 H 111.338 3.31837 -2.19021 0
M  V30 1144 N 112.336 1.25143 0.95797 0
M  V30 1145 C 113.564 1.12424 1.73691 0
M  V30 1146 C 113.979 -0.322304 1.86029 0
M  V30 1147 O 113.336 -1.22186 1.35561 0
M  V30 1148 C 113.387 1.76933 3.15241 0
M  V30 1149 O 113.108 3.15932 3.03511 0
M  V30 1150 C 114.609 1.6995 4.09429 0
M  V30 1151 H 111.829 0.3923 0.544373 0
M  V30 1152 H 114.373 1.6544 1.20207 0
M  V30 1153 H 112.528 1.27895 3.6568 0
M  V30 1154 H 112.942 3.47598 3.9278 0
M  V30 1155 H 114.416 2.19753 5.06372 0
M  V30 1156 H 114.893 0.662619 4.34173 0
M  V30 1157 H 115.499 2.18461 3.64904 0
M  V30 1158 N 113.814 -1.1601 1.06675 0
M  V30 1159 C 115.039 -1.91068 0.806706 0
M  V30 1160 C 115.464 -1.77112 -0.633485 0
M  V30 1161 O 114.822 -1.09908 -1.44187 0
M  V30 1162 C 114.87 -3.39655 1.21106 0
M  V30 1163 O 113.974 -4.10893 0.352189 0
M  V30 1164 H 113.315 -0.595125 0.294486 0
M  V30 1165 H 115.845 -1.46955 1.42356 0
M  V30 1166 H 115.855 -3.90434 1.18428 0
M  V30 1167 H 114.53 -3.49132 2.26008 0
M  V30 1168 H 113.107 -3.70285 0.440868 0
M  V30 1169 N 115.292 -0.849877 -1.32721 0
M  V30 1170 C 116.703 -0.506188 -1.79707 0
M  V30 1171 C 117.054 0.975627 -1.70223 0
M  V30 1172 O 116.179 1.76078 -1.25799 0
M  V30 1173 C 116.774 -0.912044 -3.26293 0
M  V30 1174 C 115.333 -0.620326 -3.71253 0
M  V30 1175 C 114.48 -1.11439 -2.53922 0
M  V30 1176 H 117.431 -1.03754 -1.20087 0
M  V30 1177 H 117.452 -0.226493 -3.79825 0
M  V30 1178 H 116.964 -1.99057 -3.33164 0
M  V30 1179 H 115.065 0.447674 -3.69901 0
M  V30 1180 H 115.178 -1.18327 -4.64258 0
M  V30 1181 H 113.542 -0.534834 -2.49021 0
M  V30 1182 H 114.325 -2.19992 -2.6355 0
M  V30 1183 N 116.77 1.45427 -0.607355 0
M  V30 1184 C 117.703 2.27635 0.160482 0
M  V30 1185 C 118.681 1.37122 0.873857 0
M  V30 1186 O 119.865 1.66551 0.882775 0
M  V30 1187 C 116.992 3.15486 1.23231 0
M  V30 1188 C 116.038 4.21939 0.622097 0
M  V30 1189 S 116.871 5.32459 -0.569852 0
M  V30 1190 C 118.027 6.23879 0.502577 0
M  V30 1191 H 118.26 2.9241 -0.536983 0
M  V30 1192 H 115.793 1.49265 -0.394868 0
M  V30 1193 H 117.751 3.66659 1.84585 0
M  V30 1194 H 116.412 2.49977 1.90185 0
M  V30 1195 H 115.605 4.8333 1.42856 0
M  V30 1196 H 115.207 3.73906 0.0837063 0
M  V30 1197 H 117.499 6.63261 1.38171 0
M  V30 1198 H 118.442 7.0806 -0.0751759 0
M  V30 1199 H 118.85 5.58545 0.8178 0
M  V30 1200 N 118.248 0.346503 1.53744 0
M  V30 1201 C 119.494 -0.249473 2.0126 0
M  V30 1202 C 119.827 -1.49965 1.23386 0
M  V30 1203 O 119.102 -1.91811 0.32229 0
M  V30 1204 C 119.385 -0.560643 3.55709 0
M  V30 1205 C 119.238 0.701836 4.44291 0
M  V30 1206 C 120.557 -1.36905 4.18264 0
M  V30 1207 H 117.676 -0.0891987 0.731582 0
M  V30 1208 H 120.318 0.467624 1.84156 0
M  V30 1209 H 118.468 -1.17156 3.70414 0
M  V30 1210 H 120.14 1.33974 4.41417 0
M  V30 1211 H 118.383 1.32612 4.13033 0
M  V30 1212 H 119.054 0.43933 5.50249 0
M  V30 1213 H 121.53 -0.852448 4.07275 0
M  V30 1214 H 120.406 -1.55553 5.26398 0
M  V30 1215 H 120.667 -2.37203 3.73078 0
M  V30 1216 N 119.726 -1.57421 0.075193 0
M  V30 1217 C 120.951 -1.98364 -0.605515 0
M  V30 1218 C 121.376 -0.953383 -1.62149 0
M  V30 1219 O 120.734 0.0806053 -1.81121 0
M  V30 1220 C 120.782 -3.38332 -1.24756 0
M  V30 1221 O 119.886 -3.37959 -2.36342 0
M  V30 1222 H 119.227 -0.645553 -0.155428 0
M  V30 1223 H 121.757 -2.04044 0.150714 0
M  V30 1224 H 121.767 -3.75591 -1.5936 0
M  V30 1225 H 120.442 -4.12846 -0.503129 0
M  V30 1226 H 119.019 -3.12474 -2.03506 0
M  V30 1227 N 121.204 0.198386 -1.56346 0
M  V30 1228 C 122.429 0.939682 -1.84891 0
M  V30 1229 C 122.854 1.76202 -0.658369 0
M  V30 1230 O 122.212 1.76993 0.392851 0
M  V30 1231 C 122.26 1.81428 -3.11635 0
M  V30 1232 O 121.364 2.91265 -2.91956 0
M  V30 1233 H 120.705 0.264807 -0.608912 0
M  V30 1234 H 123.235 0.204695 -2.03573 0
M  V30 1235 H 123.245 2.21958 -3.42343 0
M  V30 1236 H 121.92 1.21004 -3.97908 0
M  V30 1237 H 120.497 2.54514 -2.72538 0
M  V30 1238 N 122.682 1.50554 0.465978 0
M  V30 1239 C 123.612 1.72722 1.57128 0
M  V30 1240 C 124.593 0.576294 1.6004 0
M  V30 1241 O 125.778 0.81598 1.76225 0
M  V30 1242 C 122.908 1.82605 2.95419 0
M  V30 1243 C 121.862 2.97835 3.07373 0
M  V30 1244 C 121.188 2.92867 4.47363 0
M  V30 1245 C 122.488 4.38265 2.84114 0
M  V30 1246 H 124.182 2.65267 1.38829 0
M  V30 1247 H 121.728 1.2765 0.666441 0
M  V30 1248 H 123.681 1.96698 3.72677 0
M  V30 1249 H 122.405 0.866858 3.14886 0
M  V30 1250 H 121.064 2.83401 2.3255 0
M  V30 1251 H 120.712 1.94783 4.63755 0
M  V30 1252 H 120.412 3.70227 4.56296 0
M  V30 1253 H 121.936 3.09015 5.26633 0
M  V30 1254 H 123.35 4.53198 3.51118 0
M  V30 1255 H 121.747 5.17115 3.04487 0
M  V30 1256 H 122.817 4.50281 1.7993 0
M  V30 1257 N 124.16 -0.719506 1.40217 0
M  V30 1258 C 125.09 -1.8465 1.42922 0
M  V30 1259 C 126.071 -1.67599 0.29062 0
M  V30 1260 O 127.256 -1.87688 0.498677 0
M  V30 1261 C 124.386 -3.22565 1.28722 0
M  V30 1262 C 123.34 -3.54281 2.40144 0
M  V30 1263 C 122.666 -4.91298 2.11023 0
M  V30 1264 C 123.966 -3.55676 3.82481 0
M  V30 1265 H 125.66 -1.82644 2.37237 0
M  V30 1266 H 123.206 -0.877305 1.1419 0
M  V30 1267 H 125.159 -4.01095 1.29232 0
M  V30 1268 H 123.883 -3.25137 0.308811 0
M  V30 1269 H 122.542 -2.78088 2.38877 0
M  V30 1270 H 122.19 -4.90468 1.11582 0
M  V30 1271 H 121.89 -5.13485 2.8567 0
M  V30 1272 H 123.414 -5.72166 2.13209 0
M  V30 1273 H 124.828 -4.24254 3.85592 0
M  V30 1274 H 123.225 -3.89388 4.56614 0
M  V30 1275 H 124.295 -2.55144 4.12346 0
M  V30 1276 N 125.638 -1.25649 -0.95132 0
M  V30 1277 C 126.863 -1.13443 -1.73624 0
M  V30 1278 C 127.288 0.307565 -1.85568 0
M  V30 1279 O 126.646 1.22282 -1.33854 0
M  V30 1280 C 126.694 -1.79723 -3.12621 0
M  V30 1281 O 125.798 -1.07912 -3.98031 0
M  V30 1282 H 125.139 -0.395872 -0.533086 0
M  V30 1283 H 127.669 -1.66276 -1.1922 0
M  V30 1284 H 127.679 -1.86141 -3.63064 0
M  V30 1285 H 126.354 -2.84633 -3.03244 0
M  V30 1286 H 124.931 -1.09398 -3.56492 0
M  V30 1287 N 127.117 1.15442 -1.07289 0
M  V30 1288 C 128.365 1.85845 -0.794096 0
M  V30 1289 C 128.686 1.82692 0.681809 0
M  V30 1290 O 127.956 1.26741 1.49377 0
M  V30 1291 H 126.536 0.688089 -0.290763 0
M  V30 1292 H 129.198 1.39947 -1.3565 0
M  V30 1293 H 128.294 2.91001 -1.12804 0
M  V30 1294 N 128.595 0.856903 1.32268 0
M  V30 1295 C 129.525 0.31858 2.31316 0
M  V30 1296 C 130.506 -0.583487 1.59779 0
M  V30 1297 O 131.691 -0.503259 1.87566 0
M  V30 1298 C 128.821 -0.491979 3.43798 0
M  V30 1299 C 127.775 0.315849 4.26833 0
M  V30 1300 C 127.101 -0.619586 5.31098 0
M  V30 1301 C 128.401 1.54282 4.98993 0
M  V30 1302 H 130.095 1.14621 2.76591 0
M  V30 1303 H 127.641 0.552613 1.32974 0
M  V30 1304 H 129.594 -0.879012 4.1213 0
M  V30 1305 H 128.318 -1.35299 2.97257 0
M  V30 1306 H 126.977 0.684664 3.6015 0
M  V30 1307 H 126.625 -1.47751 4.8081 0
M  V30 1308 H 126.325 -0.0830621 5.87541 0
M  V30 1309 H 127.849 -1.00375 6.02293 0
M  V30 1310 H 129.263 1.22796 5.59995 0
M  V30 1311 H 127.66 2.01745 5.65172 0
M  V30 1312 H 128.73 2.30285 4.26728 0
M  V30 1313 N 130.073 -1.45103 0.615059 0
M  V30 1314 C 131.036 -2.29025 -0.0895485 0
M  V30 1315 C 132.036 -1.40174 -0.787906 0
M  V30 1316 O 133.226 -1.62217 -0.634933 0
M  V30 1317 C 130.358 -3.21376 -1.13711 0
M  V30 1318 H 131.551 -2.92807 0.648382 0
M  V30 1319 H 129.104 -1.51749 0.374444 0
M  V30 1320 H 129.839 -2.6241 -1.90556 0
M  V30 1321 H 129.624 -3.86834 -0.640475 0
M  V30 1322 H 131.114 -3.84459 -1.63036 0
M  V30 1323 N 131.551 -0.354651 -1.53558 0
M  V30 1324 C 132.499 0.512195 -2.26891 0
M  V30 1325 C 133.493 1.09263 -1.29452 0
M  V30 1326 O 134.699 1.03709 -1.47121 0
M  V30 1327 H 131.074 0.183878 -0.729173 0
M  V30 1328 H 133.045 -0.128202 -2.98124 0
M  V30 1329 C 131.794 1.64563 -3.06291 0
M  V30 1330 H 131.117 1.20829 -3.81104 0
M  V30 1331 H 132.557 2.22711 -3.60799 0
M  V30 1332 C 131.016 2.58158 -2.16462 0
M  V30 1333 O 131.546 3.60695 -1.76811 0
M  V30 1334 N 129.752 2.27096 -1.81317 0
M  V30 1335 H 129.299 1.43751 -2.1376 0
M  V30 1336 H 129.257 2.89975 -1.21498 0
M  V30 1337 N 133.029 1.57378 -0.0835403 0
M  V30 1338 C 134.259 1.97975 0.590713 0
M  V30 1339 C 134.667 0.961083 1.62972 0
M  V30 1340 O 134.01 -0.0590879 1.83605 0
M  V30 1341 C 134.072 3.34915 1.3066 0
M  V30 1342 C 133.736 4.55069 0.419698 0
M  V30 1343 C 134.733 5.18868 -0.32749 0
M  V30 1344 C 132.418 5.0114 0.341137 0
M  V30 1345 C 134.412 6.27098 -1.14134 0
M  V30 1346 C 132.099 6.0924 -0.476374 0
M  V30 1347 C 133.097 6.72083 -1.21627 0
M  V30 1348 O 132.785 7.781 -2.02028 0
M  V30 1349 H 132.517 0.655818 0.163947 0
M  V30 1350 H 135.071 2.04807 -0.156021 0
M  V30 1351 H 133.301 3.24733 2.09966 0
M  V30 1352 H 134.99 3.60037 1.87424 0
M  V30 1353 H 135.756 4.84211 -0.276459 0
M  V30 1354 H 131.635 4.51996 0.90668 0
M  V30 1355 H 135.179 6.7608 -1.71935 0
M  V30 1356 H 131.076 6.43329 -0.528927 0
M  V30 1357 H 131.844 7.95034 -1.94586 0
M  V30 1358 N 134.507 -0.190092 1.56449 0
M  V30 1359 C 135.735 -0.925772 1.85033 0
M  V30 1360 C 136.15 -1.76638 0.666658 0
M  V30 1361 O 135.507 -1.78822 -0.364565 0
M  V30 1362 C 135.558 -1.81786 3.12468 0
M  V30 1363 O 135.279 -1.01118 4.26271 0
M  V30 1364 C 136.78 -2.6648 3.54265 0
M  V30 1365 H 134 -0.269872 0.614337 0
M  V30 1366 H 136.544 -0.195837 2.0356 0
M  V30 1367 H 134.699 -2.50136 2.95822 0
M  V30 1368 H 135.113 -1.61956 4.98869 0
M  V30 1369 H 136.587 -3.24722 4.46385 0
M  V30 1370 H 137.064 -3.40434 2.77491 0
M  V30 1371 H 137.67 -2.03493 3.73458 0
M  V30 1372 N 135.985 -1.50799 -0.457987 0
M  V30 1373 C 136.933 -1.71162 -1.575 0
M  V30 1374 C 137.927 -0.577592 -1.59249 0
M  V30 1375 O 139.133 -0.758443 -1.63241 0
M  V30 1376 H 135.508 -0.540468 -0.522875 0
M  V30 1377 H 137.479 -2.64837 -1.37492 0
M  V30 1378 C 136.228 -1.83496 -2.95338 0
M  V30 1379 H 135.551 -2.70153 -2.94716 0
M  V30 1380 H 136.991 -2.01765 -3.72917 0
M  V30 1381 C 135.45 -0.589694 -3.31699 0
M  V30 1382 O 135.98 0.265163 -4.00824 0
M  V30 1383 N 134.186 -0.439845 -2.87252 0
M  V30 1384 H 133.733 -1.13655 -2.31172 0
M  V30 1385 H 133.691 0.392159 -3.11945 0
M  V30 1386 N 137.463 0.71206 -1.40597 0
M  V30 1387 C 138.393 1.83889 -1.43899 0
M  V30 1388 C 139.374 1.67442 -0.299504 0
M  V30 1389 O 140.559 1.87421 -0.508624 0
M  V30 1390 C 137.689 3.21877 -1.30431 0
M  V30 1391 C 136.643 3.53002 -2.42019 0
M  V30 1392 C 135.969 4.90172 -2.13626 0
M  V30 1393 C 137.269 3.53643 -3.84362 0
M  V30 1394 H 138.963 1.81383 -2.38203 0
M  V30 1395 H 136.509 0.871237 -1.14654 0
M  V30 1396 H 138.462 4.00404 -1.31357 0
M  V30 1397 H 137.186 3.24968 -0.326049 0
M  V30 1398 H 135.845 2.76818 -2.40349 0
M  V30 1399 H 135.493 4.89869 -1.14182 0
M  V30 1400 H 135.193 5.11962 -2.88389 0
M  V30 1401 H 136.717 5.71028 -2.1624 0
M  V30 1402 H 138.131 4.22203 -3.87837 0
M  V30 1403 H 136.528 3.86961 -4.58673 0
M  V30 1404 H 137.598 2.52954 -4.13693 0
M  V30 1405 N 138.941 1.26152 0.944643 0
M  V30 1406 C 140.352 1.10454 1.50522 0
M  V30 1407 C 140.703 -0.31635 1.93633 0
M  V30 1408 O 139.828 -1.20746 1.79581 0
M  V30 1409 C 140.423 1.99891 2.73549 0
M  V30 1410 C 138.982 1.88348 3.25886 0
M  V30 1411 C 138.129 1.93447 1.9868 0
M  V30 1412 H 141.08 1.39292 0.760489 0
M  V30 1413 H 141.101 1.54477 3.47732 0
M  V30 1414 H 140.613 3.03297 2.42141 0
M  V30 1415 H 138.714 0.878636 3.62092 0
M  V30 1416 H 138.827 2.73696 3.93227 0
M  V30 1417 H 137.191 1.37456 2.14425 0
M  V30 1418 H 137.974 2.98476 1.69607 0
M  V30 1419 N 140.419 -1.14872 1.07899 0
M  V30 1420 C 141.351 -2.19425 0.662231 0
M  V30 1421 C 142.364 -1.60231 -0.288079 0
M  V30 1422 O 143.553 -1.78336 -0.076534 0
M  V30 1423 C 140.653 -3.38867 -0.0470695 0
M  V30 1424 C 139.826 -4.27597 0.920831 0
M  V30 1425 C 138.885 -5.25616 0.247805 0
M  V30 1426 O 137.911 -5.62189 0.890599 0
M  V30 1427 N 139.113 -5.71746 -1.00435 0
M  V30 1428 H 141.878 -2.55797 1.56166 0
M  V30 1429 H 139.439 -1.30042 0.964404 0
M  V30 1430 H 141.431 -4.01497 -0.50813 0
M  V30 1431 H 140.001 -3.00864 -0.848523 0
M  V30 1432 H 139.221 -3.61982 1.56087 0
M  V30 1433 H 140.509 -4.83748 1.57688 0
M  V30 1434 H 139.907 -5.44153 -1.54642 0
M  V30 1435 H 138.464 -6.36389 -1.40899 0
M  V30 1436 N 141.898 -0.863906 -1.31812 0
M  V30 1437 C 143.146 -0.470904 -1.96537 0
M  V30 1438 C 143.467 0.978771 -1.68657 0
M  V30 1439 O 142.737 1.6853 -0.998717 0
M  V30 1440 H 141.317 -0.171148 -0.72713 0
M  V30 1441 H 143.979 -1.10236 -1.60729 0
M  V30 1442 H 143.075 -0.623616 -3.05806 0
M  V30 1443 N 143.376 1.44774 -0.622745 0
M  V30 1444 C 144.601 2.06999 -0.128968 0
M  V30 1445 C 145.026 1.4617 1.1839 0
M  V30 1446 O 144.384 0.560007 1.72434 0
M  V30 1447 C 144.432 3.60595 -0.0188351 0
M  V30 1448 O 143.536 3.99398 1.02739 0
M  V30 1449 H 142.877 0.659047 -0.0809544 0
M  V30 1450 H 145.407 1.85784 -0.85705 0
M  V30 1451 H 145.417 4.07627 0.174476 0
M  V30 1452 H 144.092 4.04252 -0.977384 0
M  V30 1453 H 142.669 3.64011 0.809326 0
M  V30 1454 N 144.854 0.36279 1.53368 0
M  V30 1455 C 146.27 0.0116182 1.59596 0
M  V30 1456 C 146.47 -1.47012 1.37803 0
M  V30 1457 O 145.526 -2.23136 1.18181 0
M  V30 1458 C 146.839 0.465052 2.97082 0
M  V30 1459 C 148.387 0.419033 3.10182 0
M  V30 1460 C 148.862 0.848235 4.50077 0
M  V30 1461 N 150.353 0.803183 4.56183 0
M  V30 1462 C 151.088 1.107 5.62613 0
M  V30 1463 N 150.584 1.47996 6.76808 0
M  V30 1464 N 152.377 1.02998 5.52583 0
M  V30 1465 H 144.528 1.32775 1.65785 0
M  V30 1466 H 146.791 0.542518 0.777417 0
M  V30 1467 H 146.497 1.49892 3.18159 0
M  V30 1468 H 146.371 -0.149786 3.76902 0
M  V30 1469 H 148.758 -0.605696 2.88817 0
M  V30 1470 H 148.839 1.06933 2.32377 0
M  V30 1471 H 148.483 1.87107 4.7218 0
M  V30 1472 H 148.413 0.175218 5.26308 0
M  V30 1473 H 150.904 0.52838 3.74188 0
M  V30 1474 H 151.217 1.69613 7.53957 0
M  V30 1475 H 149.562 1.51859 6.78206 0
M  V30 1476 H 152.753 0.737817 4.62249 0
M  V30 1477 H 152.926 1.2701 6.35431 0
M  V30 1478 N 146.332 -1.57332 0.0918853 0
M  V30 1479 C 147.242 -2.17368 -0.882505 0
M  V30 1480 C 148.258 -1.14226 -1.31257 0
M  V30 1481 O 149.434 -1.46582 -1.38115 0
M  V30 1482 C 146.499 -2.73962 -2.12476 0
M  V30 1483 C 145.56 -3.92048 -1.7492 0
M  V30 1484 C 144.793 -4.45933 -2.93223 0
M  V30 1485 O 145.016 -3.98764 -4.07852 0
M  V30 1486 O 143.95 -5.36999 -2.71875 0
M  V30 1487 H 147.776 -3.01031 -0.40172 0
M  V30 1488 H 145.361 -1.48813 -0.132291 0
M  V30 1489 H 147.243 -3.10147 -2.85283 0
M  V30 1490 H 145.918 -1.93347 -2.59613 0
M  V30 1491 H 144.825 -3.6068 -0.993025 0
M  V30 1492 H 146.158 -4.74017 -1.32548 0
M  V30 1493 N 147.81 0.181792 -1.56548 0
M  V30 1494 C 148.76 1.22961 -1.92002 0
M  V30 1495 C 149.744 1.40331 -0.787146 0
M  V30 1496 O 150.936 1.42478 -1.05019 0
M  V30 1497 C 148.065 2.57144 -2.27446 0
M  V30 1498 C 147.151 2.43512 -3.47222 0
M  V30 1499 N 147.542 1.99577 -4.64761 0
M  V30 1500 C 145.84 2.74368 -3.51622 0
M  V30 1501 C 146.541 1.98156 -5.46909 0
M  V30 1502 N 145.517 2.40164 -4.8767 0
M  V30 1503 H 149.319 0.881462 -2.8037 0
M  V30 1504 H 146.833 0.390141 -1.57644 0
M  V30 1505 H 148.83 3.32847 -2.51035 0
M  V30 1506 H 147.49 2.92771 -1.40411 0
M  V30 1507 H 148.501 1.70078 -4.89177 0
M  V30 1508 H 145.178 3.14102 -2.75038 0
M  V30 1509 H 146.568 1.65975 -6.51077 0
M  V30 1510 N 149.288 1.51039 0.449983 0
M  V30 1511 C 150.198 1.74261 1.57067 0
M  V30 1512 C 151.214 0.626363 1.62335 0
M  V30 1513 O 152.39 0.907162 1.79812 0
M  V30 1514 C 149.455 1.85114 2.93144 0
M  V30 1515 C 148.516 3.0893 2.98095 0
M  V30 1516 C 147.749 3.19256 4.27681 0
M  V30 1517 O 147.972 2.35835 5.19363 0
M  V30 1518 O 146.906 4.12144 4.38658 0
M  V30 1519 H 150.732 2.69303 1.40391 0
M  V30 1520 H 148.317 1.35389 0.631688 0
M  V30 1521 H 150.199 1.94311 3.73926 0
M  V30 1522 H 148.874 0.932588 3.09975 0
M  V30 1523 H 147.781 3.0522 2.16314 0
M  V30 1524 H 149.114 4.00433 2.86206 0
M  V30 1525 N 150.766 -0.704594 1.40972 0
M  V30 1526 C 151.676 -1.84856 1.44448 0
M  V30 1527 C 152.692 -1.70726 0.335961 0
M  V30 1528 O 153.868 -1.92799 0.582276 0
M  V30 1529 C 150.933 -3.20758 1.31587 0
M  V30 1530 C 149.994 -3.47063 2.52677 0
M  V30 1531 C 149.227 -4.76481 2.4042 0
M  V30 1532 O 149.45 -5.52341 1.42391 0
M  V30 1533 O 148.384 -5.03367 3.30007 0
M  V30 1534 H 152.21 -1.8488 2.40942 0
M  V30 1535 H 149.795 -0.85647 1.22413 0
M  V30 1536 H 151.677 -4.01913 1.26665 0
M  V30 1537 H 150.352 -3.21438 0.382049 0
M  V30 1538 H 149.259 -2.65873 2.63177 0
M  V30 1539 H 150.592 -3.5119 3.44858 0
M  V30 1540 N 152.244 -1.26651 -0.937939 0
M  V30 1541 C 153.207 -1.08546 -2.01867 0
M  V30 1542 C 154.207 -0.0327327 -1.60767 0
M  V30 1543 O 155.397 -0.276427 -1.71993 0
M  V30 1544 C 152.529 -0.651711 -3.34613 0
M  V30 1545 H 153.722 -2.04502 -2.1936 0
M  V30 1546 H 151.275 -1.09294 -1.11734 0
M  V30 1547 H 152.01 0.309696 -3.22818 0
M  V30 1548 H 151.795 -1.41189 -3.65798 0
M  V30 1549 H 153.285 -0.546973 -4.14002 0
M  V30 1550 N 153.722 1.14298 -1.08507 0
M  V30 1551 C 154.632 2.23027 -0.727753 0
M  V30 1552 C 155.648 1.71952 0.26619 0
M  V30 1553 O 156.824 2.011 0.109882 0
M  V30 1554 C 153.889 3.46403 -0.143541 0
M  V30 1555 C 152.95 4.12413 -1.19223 0
M  V30 1556 C 152.183 5.29899 -0.635798 0
M  V30 1557 O 152.406 5.67796 0.544393 0
M  V30 1558 O 151.34 5.85717 -1.38634 0
M  V30 1559 H 155.166 2.55945 -1.63481 0
M  V30 1560 H 152.751 1.22248 -0.858817 0
M  V30 1561 H 154.633 4.21018 0.179404 0
M  V30 1562 H 153.308 3.15206 0.736659 0
M  V30 1563 H 152.215 3.39667 -1.56772 0
M  V30 1564 H 153.548 4.47718 -2.04474 0
M  V30 1565 N 155.201 0.870884 1.31352 0
M  V30 1566 C 156.149 0.316445 2.30437 0
M  V30 1567 C 157.143 -0.568965 1.59559 0
M  V30 1568 O 158.349 -0.454964 1.74155 0
M  V30 1569 H 154.724 0.0836521 0.747333 0
M  V30 1570 H 156.695 1.16606 2.74673 0
M  V30 1571 C 155.444 -0.46635 3.44558 0
M  V30 1572 H 154.767 0.205687 3.99271 0
M  V30 1573 H 156.207 -0.819614 4.16003 0
M  V30 1574 C 154.666 -1.65797 2.9328 0
M  V30 1575 O 155.196 -2.75728 2.92125 0
M  V30 1576 N 153.402 -1.49041 2.4947 0
M  V30 1577 H 152.949 -0.59612 2.50608 0
M  V30 1578 H 152.907 -2.28911 2.15516 0
M  V30 1579 N 156.679 -1.44442 0.630414 0
M  V30 1580 C 157.627 -2.32437 -0.0871428 0
M  V30 1581 C 158.621 -1.47304 -0.836525 0
M  V30 1582 O 159.827 -1.63653 -0.749506 0
M  V30 1583 H 156.202 -0.750533 -0.0469495 0
M  V30 1584 H 158.173 -2.90709 0.673096 0
M  V30 1585 C 156.922 -3.31288 -1.05563 0
M  V30 1586 H 156.245 -3.96805 -0.488426 0
M  V30 1587 H 157.685 -3.9554 -1.52721 0
M  V30 1588 C 156.144 -2.6016 -2.14052 0
M  V30 1589 O 156.674 -2.39997 -3.22124 0
M  V30 1590 N 154.88 -2.19911 -1.89967 0
M  V30 1591 H 154.427 -2.36509 -1.02085 0
M  V30 1592 H 154.385 -1.72646 -2.62756 0
M  V30 1593 N 158.157 -0.370918 -1.53173 0
M  V30 1594 C 159.067 0.480823 -2.2962 0
M  V30 1595 C 160.083 1.08789 -1.35798 0
M  V30 1596 O 161.259 1.09768 -1.68858 0
M  V30 1597 C 158.324 1.60227 -3.07454 0
M  V30 1598 C 157.385 1.0222 -4.16953 0
M  V30 1599 C 156.618 2.0902 -4.91066 0
M  V30 1600 O 156.841 3.30222 -4.65091 0
M  V30 1601 O 155.775 1.71778 -5.76867 0
M  V30 1602 H 159.601 -0.141421 -3.03371 0
M  V30 1603 H 157.186 -0.135146 -1.48787 0
M  V30 1604 H 159.068 2.25417 -3.56041 0
M  V30 1605 H 157.743 2.20982 -2.36535 0
M  V30 1606 H 156.65 0.334064 -3.72605 0
M  V30 1607 H 157.983 0.459131 -4.90054 0
M  V30 1608 N 159.635 1.57281 -0.100228 0
M  V30 1609 C 160.883 1.94153 0.561157 0
M  V30 1610 C 161.204 0.983157 1.68401 0
M  V30 1611 O 160.474 0.0361132 1.95867 0
M  V30 1612 H 159.054 0.716791 0.210283 0
M  V30 1613 H 161.716 1.94202 -0.164765 0
M  V30 1614 H 160.812 2.96709 0.968008 0
M  V30 1615 N 161.113 -0.173488 1.56642 0
M  V30 1616 C 162.361 -0.888706 1.81512 0
M  V30 1617 C 162.682 -1.82875 0.676872 0
M  V30 1618 O 161.952 -1.93536 -0.303414 0
M  V30 1619 H 160.532 -0.331164 0.669582 0
M  V30 1620 H 163.194 -0.173823 1.94123 0
M  V30 1621 H 162.29 -1.46691 2.75478 0
M  V30 1622 N 162.591 -1.51276 -0.441967 0
M  V30 1623 C 163.538 -1.72256 -1.53612 0
M  V30 1624 C 164.508 -0.564164 -1.56225 0
M  V30 1625 O 165.693 -0.798074 -1.73307 0
M  V30 1626 C 162.833 -1.84932 -2.91366 0
M  V30 1627 C 161.946 -3.12459 -2.98317 0
M  V30 1628 C 161.081 -3.15758 -4.27166 0
M  V30 1629 C 160.12 -4.37619 -4.27967 0
M  V30 1630 N 159.257 -4.38493 -5.48333 0
M  V30 1631 H 164.097 -2.65654 -1.35026 0
M  V30 1632 H 161.634 -1.31662 -0.656009 0
M  V30 1633 H 163.592 -1.90263 -3.7129 0
M  V30 1634 H 162.222 -0.949461 -3.08521 0
M  V30 1635 H 161.274 -3.1646 -2.11086 0
M  V30 1636 H 162.586 -4.02382 -2.94771 0
M  V30 1637 H 161.74 -3.19979 -5.15459 0
M  V30 1638 H 160.479 -2.23715 -4.33362 0
M  V30 1639 H 159.484 -4.33579 -3.38067 0
M  V30 1640 H 160.709 -5.30921 -4.23438 0
M  V30 1641 H 158.655 -3.49318 -5.55259 0
M  V30 1642 H 158.572 -5.22219 -5.46647 0
M  V30 1643 H 159.84 -4.469 -6.38671 0
M  V30 1644 N 164.069 0.697108 -1.41344 0
M  V30 1645 C 165.016 1.81106 -1.43071 0
M  V30 1646 C 165.986 1.63632 -0.285275 0
M  V30 1647 O 167.171 1.84504 -0.486091 0
M  V30 1648 C 164.311 3.18975 -1.31715 0
M  V30 1649 C 163.424 3.47892 -2.56115 0
M  V30 1650 C 162.559 4.75367 -2.37064 0
M  V30 1651 C 161.598 4.97247 -3.56948 0
M  V30 1652 N 160.735 6.15947 -3.36977 0
M  V30 1653 H 165.575 1.78965 -2.38276 0
M  V30 1654 H 163.112 0.873975 -1.18322 0
M  V30 1655 H 165.07 3.98615 -1.23133 0
M  V30 1656 H 163.7 3.20297 -0.401183 0
M  V30 1657 H 162.752 2.62669 -2.75153 0
M  V30 1658 H 164.064 3.59962 -3.45295 0
M  V30 1659 H 163.218 5.63059 -2.25941 0
M  V30 1660 H 161.957 4.65541 -1.45338 0
M  V30 1661 H 160.962 4.08004 -3.68527 0
M  V30 1662 H 162.187 5.08934 -4.49626 0
M  V30 1663 H 160.133 6.07336 -2.47949 0
M  V30 1664 H 160.05 6.28777 -4.19732 0
M  V30 1665 H 161.318 7.06377 -3.29623 0
M  V30 1666 N 165.547 1.27147 0.931209 0
M  V30 1667 C 166.494 1.09568 2.03134 0
M  V30 1668 C 167.464 -0.00222433 1.661 0
M  V30 1669 O 168.649 0.159439 1.90133 0
M  V30 1670 C 165.789 0.745231 3.36957 0
M  V30 1671 C 164.902 1.92041 3.86968 0
M  V30 1672 C 164.037 1.51216 5.09222 0
M  V30 1673 C 163.076 2.65504 5.5152 0
M  V30 1674 N 162.213 2.25291 6.64972 0
M  V30 1675 H 167.053 2.03708 2.17502 0
M  V30 1676 H 164.59 1.01411 1.06556 0
M  V30 1677 H 166.548 0.522878 4.1391 0
M  V30 1678 H 165.178 -0.159202 3.22407 0
M  V30 1679 H 164.23 2.25541 3.06326 0
M  V30 1680 H 165.542 2.77787 4.1429 0
M  V30 1681 H 164.696 1.25084 5.93666 0
M  V30 1682 H 163.435 0.625749 4.83669 0
M  V30 1683 H 162.44 2.92354 4.65628 0
M  V30 1684 H 163.665 3.54761 5.7907 0
M  V30 1685 H 161.611 1.39098 6.41083 0
M  V30 1686 H 161.528 3.04577 6.91931 0
M  V30 1687 H 162.796 2.02398 7.52765 0
M  V30 1688 N 167.025 -1.13721 1.09112 0
M  V30 1689 C 168.436 -1.6648 0.845068 0
M  V30 1690 C 168.787 -1.85911 -0.62701 0
M  V30 1691 O 167.912 -1.57556 -1.48341 0
M  V30 1692 C 168.507 -3.02413 1.52748 0
M  V30 1693 C 167.066 -3.52176 1.32849 0
M  V30 1694 C 166.213 -2.27492 1.58564 0
M  V30 1695 H 169.164 -0.976872 1.25072 0
M  V30 1696 H 169.185 -3.68223 0.958752 0
M  V30 1697 H 168.697 -2.88238 2.59885 0
M  V30 1698 H 166.798 -3.7156 0.278137 0
M  V30 1699 H 166.911 -4.32499 2.0611 0
M  V30 1700 H 165.275 -2.33923 1.00758 0
M  V30 1701 H 166.058 -2.15886 2.66924 0
M  V30 1702 N 168.503 -0.877838 -1.30888 0
M  V30 1703 C 169.749 -0.493426 -1.96706 0
M  V30 1704 C 170.082 0.953504 -1.6918 0
M  V30 1705 O 169.357 1.67266 -0.992594 0
M  V30 1706 C 169.64 -0.760429 -3.51979 0
M  V30 1707 C 169.493 -2.25747 -3.89048 0
M  V30 1708 C 170.812 -0.232148 -4.39487 0
M  V30 1709 H 167.931 -0.180746 -0.714493 0
M  V30 1710 H 170.573 -1.10052 -1.54882 0
M  V30 1711 H 168.723 -0.243715 -3.87735 0
M  V30 1712 H 170.395 -2.84204 -3.63354 0
M  V30 1713 H 168.638 -2.72694 -3.37373 0
M  V30 1714 H 169.309 -2.39491 -4.97341 0
M  V30 1715 H 171.785 -0.674314 -4.106 0
M  V30 1716 H 170.661 -0.448355 -5.47066 0
M  V30 1717 H 170.922 0.866297 -4.33529 0
M  V30 1718 N 169.982 1.44106 -0.638065 0
M  V30 1719 C 170.914 2.28976 0.101205 0
M  V30 1720 C 171.927 1.4167 0.802088 0
M  V30 1721 O 173.116 1.65755 0.662375 0
M  V30 1722 C 170.216 3.18217 1.16581 0
M  V30 1723 C 169.389 4.33978 0.546066 0
M  V30 1724 C 168.448 5.04202 1.50554 0
M  V30 1725 O 167.474 5.59986 1.01999 0
M  V30 1726 N 168.676 5.06296 2.8398 0
M  V30 1727 H 171.441 2.93064 -0.627186 0
M  V30 1728 H 169.002 1.54629 -0.479731 0
M  V30 1729 H 170.994 3.62061 1.80815 0
M  V30 1730 H 169.564 2.55833 1.79634 0
M  V30 1731 H 168.784 3.93239 -0.275046 0
M  V30 1732 H 170.072 5.08675 0.112793 0
M  V30 1733 H 169.47 4.62319 3.26002 0
M  V30 1734 H 168.027 5.53907 3.43556 0
M  V30 1735 N 171.46 0.379036 1.52974 0
M  V30 1736 C 172.423 -0.448865 2.24762 0
M  V30 1737 C 173.423 -0.998689 1.26027 0
M  V30 1738 O 174.613 -0.882313 1.50203 0
M  V30 1739 C 171.745 -1.62872 2.99476 0
M  V30 1740 H 172.938 0.179491 2.99362 0
M  V30 1741 H 170.491 0.13096 1.5575 0
M  V30 1742 H 171.226 -2.29479 2.29151 0
M  V30 1743 H 171.011 -1.24128 3.71934 0
M  V30 1744 H 172.501 -2.2151 3.5401 0
M  V30 1745 N 172.938 -1.57226 0.108567 0
M  V30 1746 C 174.349 -1.8195 -0.418464 0
M  V30 1747 C 174.7 -1.02508 -1.67292 0
M  V30 1748 O 173.825 -0.258496 -2.14851 0
M  V30 1749 C 174.42 -3.30028 -0.765979 0
M  V30 1750 C 172.979 -3.55469 -1.23769 0
M  V30 1751 C 172.126 -2.7625 -0.241106 0
M  V30 1752 H 175.077 -1.55149 0.33384 0
M  V30 1753 H 175.098 -3.44086 -1.62434 0
M  V30 1754 H 174.61 -3.87821 0.147219 0
M  V30 1755 H 172.711 -3.03022 -2.16814 0
M  V30 1756 H 172.824 -4.6408 -1.19022 0
M  V30 1757 H 171.188 -2.44133 -0.72602 0
M  V30 1758 H 171.971 -3.36797 0.665007 0
M  V30 1759 N 174.416 0.165178 -1.56732 0
M  V30 1760 C 175.832 0.517174 -1.50988 0
M  V30 1761 C 176.032 1.84331 -0.813894 0
M  V30 1762 O 175.088 2.49672 -0.37682 0
M  V30 1763 C 176.401 0.544261 -2.95733 0
M  V30 1764 C 177.949 0.631039 -3.06573 0
M  V30 1765 C 178.424 0.68896 -4.52788 0
M  V30 1766 N 179.915 0.751683 -4.5706 0
M  V30 1767 C 180.65 0.817177 -5.67547 0
M  V30 1768 N 180.146 0.843129 -6.8765 0
M  V30 1769 N 181.939 0.856668 -5.55534 0
M  V30 1770 H 174.09 -0.704318 -2.00382 0
M  V30 1771 H 176.353 -0.254687 -0.913148 0
M  V30 1772 H 176.059 -0.361607 -3.49836 0
M  V30 1773 H 175.933 1.3886 -3.5071 0
M  V30 1774 H 178.32 1.52733 -2.52501 0
M  V30 1775 H 178.401 -0.240095 -2.54671 0
M  V30 1776 H 178.045 -0.2031 -5.07494 0
M  V30 1777 H 177.975 1.57633 -5.02454 0
M  V30 1778 H 180.466 0.739661 -3.70591 0
M  V30 1779 H 180.779 0.894448 -7.67606 0
M  V30 1780 H 179.124 0.811304 -6.90248 0
M  V30 1781 H 182.315 0.833437 -4.60621 0
M  V30 1782 H 182.488 0.904247 -6.4166 0
M  V30 1783 N 175.894 1.51508 0.433938 0
M  V30 1784 C 176.827 1.67756 1.54704 0
M  V30 1785 C 177.805 0.525127 1.53887 0
M  V30 1786 O 178.989 0.749393 1.72963 0
M  V30 1787 C 176.116 1.69424 2.9328 0
M  V30 1788 C 175.162 2.90673 3.12108 0
M  V30 1789 S 175.995 4.51431 2.88046 0
M  V30 1790 C 177.151 4.55849 4.28897 0
M  V30 1791 H 177.384 2.61904 1.40689 0
M  V30 1792 H 174.917 1.41235 0.62386 0
M  V30 1793 H 176.875 1.7107 3.73156 0
M  V30 1794 H 175.536 0.764464 3.04655 0
M  V30 1795 H 174.729 2.88251 4.13434 0
M  V30 1796 H 174.331 2.86786 2.40062 0
M  V30 1797 H 176.623 4.31699 5.22152 0
M  V30 1798 H 177.566 5.57676 4.36351 0
M  V30 1799 H 177.974 3.85137 4.12711 0
M  V30 1800 N 177.372 -0.689602 1.41712 0
M  V30 1801 C 178.62 -1.4468 1.4111 0
M  V30 1802 C 178.941 -1.94986 0.0232196 0
M  V30 1803 O 178.211 -1.72097 -0.935913 0
M  V30 1804 H 176.791 -0.536847 0.519427 0
M  V30 1805 H 179.453 -0.815825 1.77004 0
M  V30 1806 H 178.549 -2.30706 2.10193 0
M  V30 1807 N 178.85 -1.27639 -0.924453 0
M  V30 1808 C 180.078 -1.16989 -1.70649 0
M  V30 1809 C 180.493 0.272869 -1.86818 0
M  V30 1810 O 179.85 1.18549 -1.38753 0
M  V30 1811 C 179.901 -1.85229 -3.10439 0
M  V30 1812 O 179.622 -3.23868 -2.95028 0
M  V30 1813 C 181.123 -1.80746 -4.04779 0
M  V30 1814 H 178.343 -0.406595 -0.53378 0
M  V30 1815 H 180.887 -1.68569 -1.15778 0
M  V30 1816 H 179.042 -1.37545 -3.6216 0
M  V30 1817 H 179.456 -3.57889 -3.83426 0
M  V30 1818 H 180.93 -2.33101 -5.00368 0
M  V30 1819 H 181.407 -0.777499 -4.32263 0
M  V30 1820 H 182.013 -2.28059 -3.58984 0
M  V30 1821 N 180.328 1.1314 -1.09713 0
M  V30 1822 C 181.575 1.84484 -0.834987 0
M  V30 1823 C 181.903 1.83689 0.639418 0
M  V30 1824 O 181.158 1.2724 1.4869 0
M  V30 1825 C 181.457 3.32167 -1.3191 0
M  V30 1826 C 181.123 3.53139 -2.80363 0
M  V30 1827 C 179.785 3.58571 -3.20905 0
M  V30 1828 C 182.137 3.60866 -3.76065 0
M  V30 1829 C 179.465 3.69267 -4.55916 0
M  V30 1830 C 181.817 3.73089 -5.10869 0
M  V30 1831 C 180.481 3.76775 -5.50996 0
M  V30 1832 H 179.751 0.675073 -0.305544 0
M  V30 1833 H 182.398 1.33554 -1.37243 0
M  V30 1834 H 180.703 3.85469 -0.701517 0
M  V30 1835 H 182.4 3.85821 -1.09284 0
M  V30 1836 H 178.99 3.49569 -2.47991 0
M  V30 1837 H 183.174 3.55946 -3.45855 0
M  V30 1838 H 178.43 3.70388 -4.86438 0
M  V30 1839 H 182.604 3.78011 -5.84877 0
M  V30 1840 H 180.231 3.84815 -6.55608 0
M  V30 1841 N 181.806 0.884767 1.30421 0
M  V30 1842 C 182.739 0.295999 2.26272 0
M  V30 1843 C 183.717 -0.58332 1.51777 0
M  V30 1844 O 184.901 -0.53346 1.80794 0
M  V30 1845 C 182.028 -0.57944 3.33707 0
M  V30 1846 C 181.074 0.230525 4.25877 0
M  V30 1847 S 181.907 1.61867 5.1045 0
M  V30 1848 C 183.063 0.749756 6.21393 0
M  V30 1849 H 183.296 1.10848 2.75862 0
M  V30 1850 H 180.829 0.684178 1.38414 0
M  V30 1851 H 182.787 -1.07879 3.96071 0
M  V30 1852 H 181.448 -1.36601 2.82841 0
M  V30 1853 H 180.641 -0.437542 5.02097 0
M  V30 1854 H 180.243 0.662493 3.68086 0
M  V30 1855 H 182.535 -0.0333547 6.77492 0
M  V30 1856 H 183.478 1.48356 6.92384 0
M  V30 1857 H 183.886 0.310751 5.63644 0
M  V30 1858 N 183.284 -1.43765 0.645699 0
M  V30 1859 C 184.532 -2.01499 0.155731 0
M  V30 1860 C 184.853 -1.51151 -1.232 0
M  V30 1861 O 184.123 -0.721044 -1.82148 0
M  V30 1862 H 182.703 -0.745003 0.0545817 0
M  V30 1863 H 185.365 -1.76075 0.835677 0
M  V30 1864 H 184.461 -3.1181 0.134577 0
M  V30 1865 N 184.763 -0.387143 -1.52771 0
M  V30 1866 C 186.009 0.196025 -2.0185 0
M  V30 1867 C 186.342 1.46641 -1.27319 0
M  V30 1868 O 185.617 1.90889 -0.373032 0
M  V30 1869 C 185.9 0.466136 -3.5707 0
M  V30 1870 C 185.753 -0.819385 -4.42274 0
M  V30 1871 C 187.072 1.25768 -4.21747 0
M  V30 1872 H 184.191 0.0697708 -0.73369 0
M  V30 1873 H 186.833 -0.516286 -1.82851 0
M  V30 1874 H 184.983 1.07293 -3.7339 0
M  V30 1875 H 186.655 -1.4563 -4.37709 0
M  V30 1876 H 184.898 -1.43517 -4.09372 0
M  V30 1877 H 185.569 -0.585065 -5.48891 0
M  V30 1878 H 188.045 0.744167 -4.09391 0
M  V30 1879 H 186.921 1.41541 -5.30337 0
M  V30 1880 H 187.182 2.27228 -3.79236 0
M  V30 1881 N 186.241 1.57166 -0.116904 0
M  V30 1882 C 187.471 1.99184 0.548586 0
M  V30 1883 C 187.879 0.995436 1.60897 0
M  V30 1884 O 187.222 -0.0201293 1.83689 0
M  V30 1885 C 187.284 3.37611 1.23526 0
M  V30 1886 C 186.948 4.55857 0.323077 0
M  V30 1887 C 187.945 5.18056 -0.437476 0
M  V30 1888 C 185.63 5.01751 0.234761 0
M  V30 1889 C 187.624 6.24536 -1.2741 0
M  V30 1890 C 185.311 6.08093 -0.605496 0
M  V30 1891 C 186.309 6.69352 -1.35856 0
M  V30 1892 O 185.997 7.7364 -2.18487 0
M  V30 1893 H 185.729 0.659148 0.149999 0
M  V30 1894 H 188.283 2.0443 -0.199428 0
M  V30 1895 H 186.513 3.29113 2.0303 0
M  V30 1896 H 188.202 3.63932 1.79745 0
M  V30 1897 H 188.968 4.83516 -0.379105 0
M  V30 1898 H 184.847 4.53817 0.810601 0
M  V30 1899 H 188.391 6.72281 -1.86237 0
M  V30 1900 H 184.288 6.42063 -0.665268 0
M  V30 1901 H 185.056 7.90727 -2.11406 0
M  V30 1902 N 187.719 -0.156864 1.56817 0
M  V30 1903 C 188.649 -1.19589 2.00551 0
M  V30 1904 C 189.63 -1.4536 0.883426 0
M  V30 1905 O 190.815 -1.56449 1.15054 0
M  V30 1906 C 187.945 -2.53143 2.37773 0
M  V30 1907 C 186.899 -2.41913 3.53075 0
M  V30 1908 C 186.225 -3.80088 3.76081 0
M  V30 1909 C 187.525 -1.91157 4.86062 0
M  V30 1910 H 189.219 -0.832293 2.87599 0
M  V30 1911 H 186.765 -0.398918 1.38364 0
M  V30 1912 H 188.718 -3.26047 2.66967 0
M  V30 1913 H 187.442 -2.91319 1.4765 0
M  V30 1914 H 186.101 -1.71462 3.24031 0
M  V30 1915 H 185.749 -4.15683 2.83225 0
M  V30 1916 H 185.449 -3.73439 4.53671 0
M  V30 1917 H 186.973 -4.54556 4.0769 0
M  V30 1918 H 188.387 -2.53846 5.14038 0
M  V30 1919 H 186.784 -1.95422 5.67389 0
M  V30 1920 H 187.854 -0.866673 4.77092 0
M  V30 1921 N 189.197 -1.51736 -0.425897 0
M  V30 1922 C 190.608 -1.5732 -1.00536 0
M  V30 1923 C 190.959 -0.403537 -1.92005 0
M  V30 1924 O 190.084 0.478256 -2.11049 0
M  V30 1925 C 190.679 -2.85119 -1.8301 0
M  V30 1926 C 189.238 -2.93236 -2.35987 0
M  V30 1927 C 188.385 -2.52098 -1.15508 0
M  V30 1928 H 191.336 -1.57348 -0.206739 0
M  V30 1929 H 191.357 -2.69526 -2.68581 0
M  V30 1930 H 190.869 -3.7023 -1.16411 0
M  V30 1931 H 188.97 -2.12581 -3.06007 0
M  V30 1932 H 189.083 -3.9713 -2.68001 0
M  V30 1933 H 187.447 -2.05558 -1.50393 0
M  V30 1934 H 188.23 -3.39565 -0.505014 0
M  V30 1935 N 190.675 0.682077 -1.42076 0
M  V30 1936 C 191.915 1.45424 -1.43636 0
M  V30 1937 C 192.279 1.91939 -0.0484001 0
M  V30 1938 O 193.48 2.6873 0.0612514 0
M  V30 1939 C 191.751 2.62427 -2.42625 0
M  V30 1940 S 193.31 3.51379 -2.62827 0
M  V30 1941 H 190.128 0.496779 -0.508657 0
M  V30 1942 H 192.73 0.794645 -1.78621 0
M  V30 1943 H 191.434 2.26481 -3.42249 0
M  V30 1944 H 190.965 3.33266 -2.09039 0
M  V30 1945 H 192.98 4.58141 -1.9058 0
M  V30 1946 N 192.153 1.28127 0.917671 0
M  V30 1947 C 193.083 1.14248 2.03641 0
M  V30 1948 C 194.064 0.0412748 1.7005 0
M  V30 1949 O 195.249 0.217566 1.92977 0
M  V30 1950 C 192.379 0.799431 3.37974 0
M  V30 1951 C 191.333 1.85497 3.85713 0
M  V30 1952 C 190.659 1.36565 5.16966 0
M  V30 1953 C 191.959 3.26085 4.08002 0
M  V30 1954 H 193.653 2.07835 2.15511 0
M  V30 1955 H 191.199 1.00064 1.03553 0
M  V30 1956 H 193.152 0.689114 4.15727 0
M  V30 1957 H 191.876 -0.172145 3.26146 0
M  V30 1958 H 190.535 1.95437 3.10161 0
M  V30 1959 H 190.183 0.383253 5.01538 0
M  V30 1960 H 189.883 2.07143 5.49878 0
M  V30 1961 H 191.407 1.26848 5.97279 0
M  V30 1962 H 192.821 3.19089 4.76293 0
M  V30 1963 H 191.218 3.94462 4.52238 0
M  V30 1964 H 192.288 3.70394 3.12948 0
M  V30 1965 N 193.631 -1.12557 1.10312 0
M  V30 1966 C 194.563 -2.17971 0.708625 0
M  V30 1967 C 195.576 -1.60806 -0.254027 0
M  V30 1968 O 196.765 -1.78458 -0.0386891 0
M  V30 1969 C 193.865 -3.38891 0.0248198 0
M  V30 1970 C 193.038 -4.25548 1.01132 0
M  V30 1971 C 192.097 -5.24972 0.35924 0
M  V30 1972 O 191.123 -5.60174 1.00965 0
M  V30 1973 N 192.325 -5.73747 -0.882847 0
M  V30 1974 H 195.09 -2.52427 1.61557 0
M  V30 1975 H 192.651 -1.27967 0.991771 0
M  V30 1976 H 194.643 -4.02485 -0.422852 0
M  V30 1977 H 193.213 -3.02596 -0.784514 0
M  V30 1978 H 192.433 -3.58589 1.6373 0
M  V30 1979 H 193.721 -4.80294 1.67914 0
M  V30 1980 H 193.119 -5.4731 -1.43065 0
M  V30 1981 H 191.676 -6.39234 -1.27369 0
M  V30 1982 N 195.109 -0.891671 -1.2995 0
M  V30 1983 C 196.057 -0.353066 -2.29905 0
M  V30 1984 C 197.051 0.543509 -1.60444 0
M  V30 1985 O 198.257 0.4272 -1.74857 0
M  V30 1986 H 194.632 -0.095531 -0.745907 0
M  V30 1987 H 196.603 -1.20961 -2.72784 0
M  V30 1988 C 195.352 0.411475 -3.45257 0
M  V30 1989 H 194.675 -0.269182 -3.98893 0
M  V30 1990 H 196.115 0.753328 -4.17254 0
M  V30 1991 C 194.574 1.6111 -2.9588 0
M  V30 1992 O 195.104 2.71045 -2.96475 0
M  V30 1993 N 193.31 1.45054 -2.51809 0
M  V30 1994 H 192.857 0.556175 -2.51524 0
M  V30 1995 H 192.815 2.25453 -2.1913 0
M  V30 1996 N 196.587 1.43421 -0.653314 0
M  V30 1997 C 197.836 2.01032 -0.164076 0
M  V30 1998 C 198.149 1.52147 1.22926 0
M  V30 1999 O 199.355 2.02031 1.81371 0
M  V30 2000 C 197.811 3.59082 -0.24252 0
M  V30 2001 C 197.419 4.1696 -1.63855 0
M  V30 2002 C 199.163 4.24079 0.18911 0
M  V30 2003 C 197.07 5.67304 -1.67092 0
M  V30 2004 H 196 0.751798 -0.0575769 0
M  V30 2005 H 198.651 1.6439 -0.815362 0
M  V30 2006 H 197.033 3.93125 0.476276 0
M  V30 2007 H 198.207 3.94416 -2.38271 0
M  V30 2008 H 196.522 3.64335 -2.01616 0
M  V30 2009 H 199.119 5.34381 0.184775 0
M  V30 2010 H 199.462 3.98005 1.22056 0
M  V30 2011 H 199.995 3.94918 -0.477938 0
M  V30 2012 H 196.734 5.98145 -2.68146 0
M  V30 2013 H 196.254 5.91904 -0.970014 0
M  V30 2014 H 197.933 6.31344 -1.4147 0
M  V30 2015 N 198.065 0.39524 1.52563 0
M  V30 2016 C 199.312 -0.185044 2.01653 0
M  V30 2017 C 199.64 -1.46317 1.28146 0
M  V30 2018 O 198.895 -1.9213 0.372074 0
M  V30 2019 C 199.194 -0.493444 3.53977 0
M  V30 2020 C 198.86 0.69384 4.4553 0
M  V30 2021 C 197.522 1.01954 4.70275 0
M  V30 2022 C 199.874 1.48785 4.99512 0
M  V30 2023 C 197.202 2.14069 5.46252 0
M  V30 2024 C 199.554 2.59965 5.76716 0
M  V30 2025 C 198.218 2.93037 5.99738 0
M  V30 2026 H 197.488 -0.0677123 0.7379 0
M  V30 2027 H 200.135 0.533807 1.8391 0
M  V30 2028 H 198.44 -1.29369 3.69825 0
M  V30 2029 H 200.137 -0.955163 3.89458 0
M  V30 2030 H 196.727 0.429987 4.26438 0
M  V30 2031 H 200.911 1.24946 4.80315 0
M  V30 2032 H 196.167 2.40056 5.62302 0
M  V30 2033 H 200.341 3.21887 6.17545 0
M  V30 2034 H 197.968 3.8003 6.58393 0
M  V30 2035 N 199.544 -1.57102 0.125237 0
M  V30 2036 C 200.792 -1.95021 -0.530198 0
M  V30 2037 C 201.113 -1.00982 -1.66816 0
M  V30 2038 O 200.383 -0.0672693 -1.95784 0
M  V30 2039 H 198.963 -0.720046 -0.198853 0
M  V30 2040 H 201.625 -1.93916 0.19564 0
M  V30 2041 H 200.721 -2.98211 -0.920681 0
M  V30 2042 N 201.022 0.148545 -1.56898 0
M  V30 2043 C 202.268 0.862694 -1.83536 0
M  V30 2044 C 202.601 1.80889 -0.706604 0
M  V30 2045 O 201.876 1.92328 0.289885 0
M  V30 2046 C 202.159 1.63853 -3.20662 0
M  V30 2047 C 202.012 0.713925 -4.44098 0
M  V30 2048 C 203.331 2.60133 -3.54991 0
M  V30 2049 H 200.45 0.312179 -0.667618 0
M  V30 2050 H 203.092 0.127953 -1.89569 0
M  V30 2051 H 201.242 2.26489 -3.1565 0
M  V30 2052 H 202.914 0.098686 -4.61194 0
M  V30 2053 H 201.157 0.0234019 -4.33794 0
M  V30 2054 H 201.828 1.29278 -5.36648 0
M  V30 2055 H 204.304 2.07616 -3.60603 0
M  V30 2056 H 203.18 3.11468 -4.51972 0
M  V30 2057 H 203.441 3.41417 -2.80868 0
M  V30 2058 N 202.5 1.5196 0.417844 0
M  V30 2059 C 203.749 1.6482 1.16264 0
M  V30 2060 C 204.062 0.379886 1.91876 0
M  V30 2061 O 205.268 0.388154 2.68711 0
M  V30 2062 C 203.724 2.91161 2.1155 0
M  V30 2063 C 203.332 4.25068 1.41495 0
M  V30 2064 C 205.076 3.13383 2.86341 0
M  V30 2065 C 202.983 5.42541 2.35379 0
M  V30 2066 H 201.913 0.613954 0.437694 0
M  V30 2067 H 204.564 1.78442 0.427871 0
M  V30 2068 H 202.946 2.71218 2.88543 0
M  V30 2069 H 204.12 4.55463 0.699263 0
M  V30 2070 H 202.435 4.0888 0.787792 0
M  V30 2071 H 205.032 3.98324 3.5671 0
M  V30 2072 H 205.375 2.27256 3.48798 0
M  V30 2073 H 205.908 3.33757 2.1645 0
M  V30 2074 H 202.647 6.30987 1.77582 0
M  V30 2075 H 202.167 5.16497 3.04945 0
M  V30 2076 H 203.846 5.75272 2.96093 0
M  V30 2077 N 203.978 -0.674533 1.42435 0
M  V30 2078 C 204.908 -1.80009 1.48724 0
M  V30 2079 C 205.889 -1.6659 0.343793 0
M  V30 2080 O 207.074 -1.86007 0.558137 0
M  V30 2081 C 204.204 -3.18306 1.38919 0
M  V30 2082 C 203.158 -3.46461 2.51294 0
M  V30 2083 C 202.484 -4.84335 2.26547 0
M  V30 2084 C 203.784 -3.43328 3.93603 0
M  V30 2085 H 205.478 -1.75004 2.42928 0
M  V30 2086 H 203.024 -0.840533 1.16923 0
M  V30 2087 H 204.977 -3.9678 1.41927 0
M  V30 2088 H 203.701 -3.2399 0.412094 0
M  V30 2089 H 202.36 -2.70348 2.47604 0
M  V30 2090 H 202.008 -4.86669 1.2713 0
M  V30 2091 H 201.708 -5.04136 3.01861 0
M  V30 2092 H 203.232 -5.65094 2.31304 0
M  V30 2093 H 204.646 -4.11772 3.98894 0
M  V30 2094 H 203.043 -3.74664 4.68771 0
M  V30 2095 H 204.113 -2.41897 4.20255 0
M  V30 2096 N 205.456 -1.28612 -0.910864 0
M  V30 2097 C 206.703 -1.15934 -1.66029 0
M  V30 2098 C 207.031 0.291483 -1.92303 0
M  V30 2099 O 206.286 1.22816 -1.52364 0
M  V30 2100 C 206.585 -1.90624 -3.0232 0
M  V30 2101 C 206.251 -3.40405 -2.95695 0
M  V30 2102 C 204.913 -3.81255 -2.93595 0
M  V30 2103 C 207.265 -4.359 -2.85728 0
M  V30 2104 C 204.593 -5.15936 -2.79334 0
M  V30 2105 C 206.945 -5.70657 -2.73007 0
M  V30 2106 C 205.609 -6.10779 -2.69267 0
M  V30 2107 H 204.879 -0.424234 -0.607541 0
M  V30 2108 H 207.526 -1.5942 -1.06101 0
M  V30 2109 H 205.831 -1.39696 -3.6605 0
M  V30 2110 H 207.528 -1.78228 -3.59215 0
M  V30 2111 H 204.118 -3.07927 -2.98125 0
M  V30 2112 H 208.302 -4.053 -2.86436 0
M  V30 2113 H 203.558 -5.46146 -2.74835 0
M  V30 2114 H 207.732 -6.44311 -2.64264 0
M  V30 2115 H 205.359 -7.1509 -2.57974 0
M  V30 2116 N 206.934 1.1197 -1.10907 0
M  V30 2117 C 207.864 2.19928 -0.784473 0
M  V30 2118 C 208.845 1.6833 0.244726 0
M  V30 2119 O 210.03 1.93892 0.109418 0
M  V30 2120 C 207.16 3.46597 -0.220827 0
M  V30 2121 C 206.114 4.11376 -1.18127 0
M  V30 2122 C 205.44 5.32554 -0.478594 0
M  V30 2123 C 206.74 4.56945 -2.52979 0
M  V30 2124 H 208.434 2.47337 -1.68715 0
M  V30 2125 H 205.98 1.18879 -0.812642 0
M  V30 2126 H 207.933 4.21396 0.0184278 0
M  V30 2127 H 206.657 3.1863 0.717113 0
M  V30 2128 H 205.316 3.38564 -1.40606 0
M  V30 2129 H 204.964 5.00856 0.463976 0
M  V30 2130 H 204.664 5.76844 -1.11912 0
M  V30 2131 H 206.188 6.10096 -0.248 0
M  V30 2132 H 207.602 5.23093 -2.3462 0
M  V30 2133 H 205.999 5.1203 -3.12962 0
M  V30 2134 H 207.069 3.70676 -3.12614 0
M  V30 2135 N 208.412 0.89855 1.29475 0
M  V30 2136 C 209.828 0.594483 1.48115 0
M  V30 2137 C 210.028 -0.86431 1.82022 0
M  V30 2138 O 209.084 -1.64457 1.91599 0
M  V30 2139 C 210.397 1.51932 2.59494 0
M  V30 2140 C 211.945 1.5244 2.7337 0
M  V30 2141 C 212.42 2.43548 3.87877 0
M  V30 2142 N 213.911 2.41589 3.95208 0
M  V30 2143 C 214.646 3.08789 4.83153 0
M  V30 2144 N 214.142 3.85265 5.75798 0
M  V30 2145 N 215.935 2.97952 4.76635 0
M  V30 2146 H 208.086 1.84207 1.05742 0
M  V30 2147 H 210.349 0.789251 0.525154 0
M  V30 2148 H 210.055 2.55865 2.41301 0
M  V30 2149 H 209.929 1.23899 3.56271 0
M  V30 2150 H 212.316 0.492518 2.90961 0
M  V30 2151 H 212.397 1.8451 1.77172 0
M  V30 2152 H 212.041 3.46829 3.71041 0
M  V30 2153 H 211.971 2.08788 4.83441 0
M  V30 2154 H 214.462 1.86025 3.28943 0
M  V30 2155 H 214.775 4.33598 6.39697 0
M  V30 2156 H 213.12 3.89371 5.75687 0
M  V30 2157 H 216.311 2.37723 4.03244 0
M  V30 2158 H 216.484 3.50599 5.44962 0
M  V30 2159 N 209.89 -1.43072 0.660911 0
M  V30 2160 C 210.82 -2.33497 -0.0122829 0
M  V30 2161 C 211.801 -1.49903 -0.803925 0
M  V30 2162 O 212.986 -1.78546 -0.763864 0
M  V30 2163 C 210.116 -3.33363 -0.973994 0
M  V30 2164 C 209.07 -4.27003 -0.291928 0
M  V30 2165 C 208.396 -5.16967 -1.36562 0
M  V30 2166 C 209.696 -5.15816 0.820462 0
M  V30 2167 H 211.39 -2.90038 0.742873 0
M  V30 2168 H 208.936 -1.39461 0.358688 0
M  V30 2169 H 210.889 -3.95524 -1.45392 0
M  V30 2170 H 209.613 -2.75095 -1.7604 0
M  V30 2171 H 208.272 -3.66217 0.167623 0
M  V30 2172 H 207.92 -4.55034 -2.14366 0
M  V30 2173 H 207.62 -5.80441 -0.914454 0
M  V30 2174 H 209.144 -5.82003 -1.84675 0
M  V30 2175 H 210.558 -5.71742 0.422366 0
M  V30 2176 H 208.955 -5.8805 1.19656 0
M  V30 2177 H 210.025 -4.55045 1.67518 0
M  V30 2178 N 211.368 -0.403325 -1.52352 0
M  V30 2179 C 212.596 0.174012 -2.06167 0
M  V30 2180 C 213.011 1.39347 -1.27388 0
M  V30 2181 O 212.368 1.79597 -0.324201 0
M  V30 2182 C 212.419 0.530223 -3.5759 0
M  V30 2183 O 212.14 -0.640806 -4.33388 0
M  V30 2184 C 213.641 1.16192 -4.27802 0
M  V30 2185 H 210.861 0.0229464 -0.670608 0
M  V30 2186 H 213.405 -0.572604 -1.9632 0
M  V30 2187 H 211.56 1.22673 -3.67464 0
M  V30 2188 H 211.974 -0.344851 -5.23365 0
M  V30 2189 H 213.448 1.36141 -5.34948 0
M  V30 2190 H 213.925 2.13335 -3.83907 0
M  V30 2191 H 214.531 0.505775 -4.22282 0
M  V30 2192 N 212.846 1.57033 -0.133567 0
M  V30 2193 C 214.092 1.96764 0.515326 0
M  V30 2194 C 214.447 1.01653 1.63353 0
M  V30 2195 O 213.74 0.0491374 1.91537 0
M  V30 2196 C 213.934 3.40674 1.08057 0
M  V30 2197 C 213.763 4.49696 0.0186522 0
M  V30 2198 C 212.533 5.03567 -0.418174 0
M  V30 2199 C 214.731 5.08536 -0.767809 0
M  V30 2200 N 212.713 5.9618 -1.46434 0
M  V30 2201 C 214.084 5.97231 -1.6648 0
M  V30 2202 C 216.139 4.9115 -0.817087 0
M  V30 2203 C 214.842 6.70401 -2.60681 0
M  V30 2204 C 216.868 5.65012 -1.74687 0
M  V30 2205 C 216.23 6.53403 -2.63141 0
M  V30 2206 H 212.329 0.765919 0.157771 0
M  V30 2207 H 214.913 1.93395 -0.22506 0
M  V30 2208 H 213.084 3.44662 1.79061 0
M  V30 2209 H 214.816 3.67495 1.69497 0
M  V30 2210 H 211.571 4.73594 -0.0229803 0
M  V30 2211 H 211.995 6.47191 -1.98678 0
M  V30 2212 H 216.637 4.22543 -0.147326 0
M  V30 2213 H 214.355 7.38245 -3.28664 0
M  V30 2214 H 217.941 5.53559 -1.79063 0
M  V30 2215 H 216.821 7.09556 -3.33917 0
M  V30 2216 N 214.325 -0.140222 1.56975 0
M  V30 2217 C 215.571 -0.852949 1.83991 0
M  V30 2218 C 215.904 -1.80512 0.716187 0
M  V30 2219 O 215.179 -1.92479 -0.279681 0
M  V30 2220 C 215.462 -1.6215 3.21527 0
M  V30 2221 C 215.315 -0.690363 4.4447 0
M  V30 2222 C 216.634 -2.58247 3.56366 0
M  V30 2223 H 213.753 -0.308634 0.669264 0
M  V30 2224 H 216.395 -0.117898 1.89634 0
M  V30 2225 H 214.545 -2.24812 3.16847 0
M  V30 2226 H 216.217 -0.0742264 4.6124 0
M  V30 2227 H 214.46 -0.000396433 4.338 0
M  V30 2228 H 215.131 -1.2643 5.37326 0
M  V30 2229 H 217.607 -2.05701 3.61699 0
M  V30 2230 H 216.483 -3.09067 4.53617 0
M  V30 2231 H 216.744 -3.39923 2.82674 0
M  V30 2232 N 215.803 -1.52179 -0.40978 0
M  V30 2233 C 217.049 -1.66453 -1.15851 0
M  V30 2234 C 217.382 -0.392972 -1.90182 0
M  V30 2235 O 216.657 0.608579 -1.84734 0
M  V30 2236 C 216.94 -2.88612 -2.15349 0
M  V30 2237 C 216.793 -4.25815 -1.44918 0
M  V30 2238 C 218.112 -3.06294 -3.16026 0
M  V30 2239 H 215.231 -0.60575 -0.419805 0
M  V30 2240 H 217.873 -1.84732 -0.444314 0
M  V30 2241 H 216.023 -2.73158 -2.76255 0
M  V30 2242 H 217.695 -4.52995 -0.871365 0
M  V30 2243 H 215.938 -4.27247 -0.751159 0
M  V30 2244 H 216.609 -5.07337 -2.17516 0
M  V30 2245 H 219.085 -3.20641 -2.65195 0
M  V30 2246 H 217.961 -3.93283 -3.8291 0
M  V30 2247 H 218.222 -2.19579 -3.83715 0
M  V30 2248 N 217.281 0.66697 -1.42791 0
M  V30 2249 C 218.529 1.42417 -1.43394 0
M  V30 2250 C 218.85 1.94925 -0.0542373 0
M  V30 2251 O 218.12 1.73564 0.908415 0
M  V30 2252 H 216.7 0.528515 -0.527902 0
M  V30 2253 H 219.362 0.787562 -1.78279 0
M  V30 2254 H 218.458 2.27333 -2.13837 0
M  V30 2255 N 218.759 1.29093 0.90403 0
M  V30 2256 C 220.008 1.16187 1.64874 0
M  V30 2257 C 220.321 -0.286742 1.93487 0
M  V30 2258 O 221.527 -0.537062 2.66135 0
M  V30 2259 C 219.983 2.03177 2.97064 0
M  V30 2260 C 219.591 3.52836 2.76062 0
M  V30 2261 C 221.335 1.98984 3.74974 0
M  V30 2262 C 219.242 4.31945 4.03952 0
M  V30 2263 H 218.172 0.431246 0.618501 0
M  V30 2264 H 220.823 1.53699 1.00243 0
M  V30 2265 H 219.205 1.5853 3.62883 0
M  V30 2266 H 220.379 4.05507 2.18863 0
M  V30 2267 H 218.694 3.58656 2.11553 0
M  V30 2268 H 221.291 2.55351 4.69787 0
M  V30 2269 H 221.634 0.968815 4.0487 0
M  V30 2270 H 222.167 2.41652 3.15989 0
M  V30 2271 H 218.906 5.34667 3.79225 0
M  V30 2272 H 218.426 3.84045 4.60727 0
M  V30 2273 H 220.105 4.42379 4.72133 0
M  V30 2274 N 220.237 -1.11381 1.11499 0
M  V30 2275 C 221.2 -2.15622 0.777153 0
M  V30 2276 C 222.2 -1.59504 -0.203779 0
M  V30 2277 O 223.39 -1.74188 0.020782 0
M  V30 2278 C 220.522 -3.40556 0.153116 0
M  V30 2279 H 221.715 -2.47021 1.70061 0
M  V30 2280 H 219.268 -1.26577 0.916952 0
M  V30 2281 H 220.003 -3.14767 -0.780536 0
M  V30 2282 H 219.788 -3.8257 0.859238 0
M  V30 2283 H 221.278 -4.17546 -0.0671044 0
M  V30 2284 N 221.715 -0.905404 -1.28997 0
M  V30 2285 C 222.963 -0.533192 -1.9494 0
M  V30 2286 C 223.284 0.924618 -1.71685 0
M  V30 2287 O 222.554 1.65268 -1.05183 0
M  V30 2288 H 221.134 -0.194194 -0.721317 0
M  V30 2289 H 223.796 -1.15294 -1.57141 0
M  V30 2290 H 222.892 -0.72059 -3.03667 0
M  V30 2291 N 223.193 1.4272 -0.668489 0
M  V30 2292 C 224.442 2.00846 -0.185389 0
M  V30 2293 C 224.755 1.53442 1.21305 0
M  V30 2294 O 225.961 2.03944 1.79218 0
M  V30 2295 C 224.417 3.58805 -0.280591 0
M  V30 2296 C 224.025 4.15198 -1.68268 0
M  V30 2297 C 225.769 4.24255 0.14412 0
M  V30 2298 C 223.676 5.655 -1.73099 0
M  V30 2299 H 222.606 0.751145 -0.0655475 0
M  V30 2300 H 225.257 1.63516 -0.832752 0
M  V30 2301 H 223.639 3.93608 0.434553 0
M  V30 2302 H 224.813 3.91866 -2.42441 0
M  V30 2303 H 223.128 3.62176 -2.05469 0
M  V30 2304 H 225.725 5.34547 0.128086 0
M  V30 2305 H 226.068 3.99277 1.17827 0
M  V30 2306 H 226.601 3.94389 -0.519798 0
M  V30 2307 H 223.34 5.95268 -2.74475 0
M  V30 2308 H 222.86 5.90842 -1.03274 0
M  V30 2309 H 224.539 6.29808 -1.48158 0
M  V30 2310 N 224.671 0.411399 1.52136 0
M  V30 2311 C 225.604 -0.457614 2.23565 0
M  V30 2312 C 226.582 -1.04613 1.24478 0
M  V30 2313 O 227.766 -1.09356 1.53536 0
M  V30 2314 C 224.893 -1.6354 2.96602 0
M  V30 2315 C 223.939 -1.17005 4.10137 0
M  V30 2316 S 224.772 -0.13333 5.35334 0
M  V30 2317 C 225.928 -1.31638 6.119 0
M  V30 2318 H 226.161 0.148883 2.96927 0
M  V30 2319 H 223.694 0.195713 1.53155 0
M  V30 2320 H 225.652 -2.31074 3.39286 0
M  V30 2321 H 224.313 -2.21324 2.22878 0
M  V30 2322 H 223.506 -2.05005 4.60422 0
M  V30 2323 H 223.108 -0.573319 3.6958 0
M  V30 2324 H 225.4 -2.23957 6.39413 0
M  V30 2325 H 226.343 -0.854014 7.02931 0
M  V30 2326 H 226.751 -1.54321 5.42997 0
M  V30 2327 N 226.149 -1.5696 0.141893 0
M  V30 2328 C 227.059 -2.20066 -0.812905 0
M  V30 2329 C 228.075 -1.18344 -1.27557 0
M  V30 2330 O 229.251 -1.50902 -1.33381 0
M  V30 2331 C 226.316 -2.80583 -2.03652 0
M  V30 2332 C 225.377 -3.97414 -1.62359 0
M  V30 2333 C 224.61 -4.55036 -2.78887 0
M  V30 2334 O 224.833 -4.11538 -3.94959 0
M  V30 2335 O 223.767 -5.45376 -2.54653 0
M  V30 2336 H 227.593 -3.02157 -0.305746 0
M  V30 2337 H 225.178 -1.49159 -0.0848799 0
M  V30 2338 H 227.06 -3.19067 -2.75272 0
M  V30 2339 H 225.735 -2.01508 -2.5333 0
M  V30 2340 H 224.642 -3.63656 -0.877775 0
M  V30 2341 H 225.975 -4.77994 -1.17401 0
M  V30 2342 N 227.627 0.131896 -1.57047 0
M  V30 2343 C 228.852 0.860418 -1.8871 0
M  V30 2344 C 229.277 1.73251 -0.73251 0
M  V30 2345 O 228.635 1.785 0.317429 0
M  V30 2346 C 228.683 1.68047 -3.19049 0
M  V30 2347 O 227.787 2.7862 -3.04047 0
M  V30 2348 H 227.128 0.238743 -0.619595 0
M  V30 2349 H 229.658 0.118169 -2.04258 0
M  V30 2350 H 229.668 2.07238 -3.51449 0
M  V30 2351 H 228.343 1.04018 -4.02682 0
M  V30 2352 H 226.92 2.42726 -2.83088 0
M  V30 2353 N 229.106 1.52395 0.401703 0
M  V30 2354 C 230.353 1.66817 1.14796 0
M  V30 2355 C 230.681 0.401772 1.90305 0
M  V30 2356 O 229.936 -0.615487 1.85769 0
M  V30 2357 C 230.235 2.84578 2.16217 0
M  V30 2358 C 229.901 4.22513 1.5746 0
M  V30 2359 C 228.563 4.60029 1.41161 0
M  V30 2360 C 230.915 5.0844 1.14622 0
M  V30 2361 C 228.243 5.81144 0.80552 0
M  V30 2362 C 230.595 6.30167 0.55428 0
M  V30 2363 C 229.259 6.66426 0.378482 0
M  V30 2364 H 228.529 0.610428 0.420069 0
M  V30 2365 H 231.176 1.86512 0.434212 0
M  V30 2366 H 229.481 2.59248 2.93764 0
M  V30 2367 H 231.178 2.92933 2.73845 0
M  V30 2368 H 227.768 3.92953 1.71132 0
M  V30 2369 H 231.952 4.80034 1.26021 0
M  V30 2370 H 227.208 6.07855 0.657399 0
M  V30 2371 H 231.382 6.96071 0.213983 0
M  V30 2372 H 229.009 7.60143 -0.0932606 0
M  V30 2373 N 230.584 -0.659388 1.43143 0
M  V30 2374 C 231.824 -1.43121 1.45931 0
M  V30 2375 C 232.188 -1.91838 0.0789298 0
M  V30 2376 O 233.389 -2.68794 -0.018491 0
M  V30 2377 C 231.66 -2.58534 2.46769 0
M  V30 2378 S 233.219 -3.47154 2.68384 0
M  V30 2379 H 230.037 -0.488624 0.516496 0
M  V30 2380 H 232.639 -0.766128 1.79863 0
M  V30 2381 H 231.343 -2.21007 3.45809 0
M  V30 2382 H 230.874 -3.29898 2.14315 0
M  V30 2383 H 232.889 -4.55051 1.97845 0
M  V30 2384 N 232.062 -1.29571 -0.897171 0
M  V30 2385 C 232.995 -1.0924 -2.00354 0
M  V30 2386 C 233.973 -0.00354011 -1.626 0
M  V30 2387 O 235.157 -0.15473 -1.87864 0
M  V30 2388 C 232.284 -0.66352 -3.32137 0
M  V30 2389 C 231.33 -1.75146 -3.88878 0
M  V30 2390 S 232.163 -3.35124 -4.17674 0
M  V30 2391 C 233.319 -2.9411 -5.52494 0
M  V30 2392 H 233.552 -2.02907 -2.17292 0
M  V30 2393 H 231.085 -1.13746 -1.04408 0
M  V30 2394 H 233.043 -0.422791 -4.08317 0
M  V30 2395 H 231.704 0.253588 -3.13075 0
M  V30 2396 H 230.897 -1.40337 -4.84068 0
M  V30 2397 H 230.499 -1.94584 -3.19395 0
M  V30 2398 H 232.791 -2.41312 -6.33068 0
M  V30 2399 H 233.734 -3.88161 -5.9223 0
M  V30 2400 H 234.142 -2.32332 -5.14473 0
M  V30 2401 N 233.54 1.10788 -1.12088 0
M  V30 2402 C 234.786 1.82942 -0.875226 0
M  V30 2403 C 235.119 1.84779 0.597538 0
M  V30 2404 O 234.394 1.30578 1.44152 0
M  V30 2405 C 234.677 3.29789 -1.44606 0
M  V30 2406 C 234.53 3.36307 -2.98693 0
M  V30 2407 C 235.849 4.26064 -1.10261 0
M  V30 2408 H 232.968 0.664195 -0.319397 0
M  V30 2409 H 235.61 1.29867 -1.38689 0
M  V30 2410 H 233.76 3.75118 -1.01089 0
M  V30 2411 H 235.432 2.99487 -3.50864 0
M  V30 2412 H 233.675 2.76318 -3.34411 0
M  V30 2413 H 234.346 4.39694 -3.33726 0
M  V30 2414 H 236.822 3.88951 -1.4784 0
M  V30 2415 H 235.698 5.27183 -1.52869 0
M  V30 2416 H 235.959 4.42098 -0.0142953 0
M  V30 2417 N 235.018 0.912232 1.28515 0
M  V30 2418 C 236.265 0.544599 1.95039 0
M  V30 2419 C 236.593 -0.911435 1.71823 0
M  V30 2420 O 235.848 -1.66317 1.03137 0
M  V30 2421 C 236.147 0.798392 3.48368 0
M  V30 2422 C 235.813 2.23374 3.91682 0
M  V30 2423 C 234.475 2.62617 4.03219 0
M  V30 2424 C 236.827 3.16786 4.13879 0
M  V30 2425 C 234.155 3.94429 4.3433 0
M  V30 2426 C 236.507 4.48161 4.46469 0
M  V30 2427 C 235.171 4.8726 4.56217 0
M  V30 2428 H 234.441 0.199283 0.7137 0
M  V30 2429 H 237.088 1.15327 1.52879 0
M  V30 2430 H 235.393 0.106908 3.91654 0
M  V30 2431 H 237.09 0.493141 3.97956 0
M  V30 2432 H 233.68 1.91922 3.83228 0
M  V30 2433 H 237.864 2.87677 4.0442 0
M  V30 2434 H 233.12 4.24426 4.40082 0
M  V30 2435 H 237.294 5.20559 4.62592 0
M  V30 2436 H 234.921 5.89431 4.80078 0
M  V30 2437 N 236.496 -1.42363 0.676048 0
M  V30 2438 C 237.745 -2.00745 0.196037 0
M  V30 2439 C 238.058 -1.54083 -1.20489 0
M  V30 2440 O 239.264 -2.04891 -1.78134 0
M  V30 2441 C 237.72 -3.58651 0.299616 0
M  V30 2442 C 237.328 -4.143 1.70468 0
M  V30 2443 C 239.072 -4.24326 -0.121619 0
M  V30 2444 C 236.979 -5.64574 1.76096 0
M  V30 2445 H 235.909 -0.750787 0.0695301 0
M  V30 2446 H 238.56 -1.63072 0.841412 0
M  V30 2447 H 236.942 -3.93833 -0.413673 0
M  V30 2448 H 238.116 -3.90575 2.44515 0
M  V30 2449 H 236.431 -3.61081 2.07387 0
M  V30 2450 H 239.028 -5.34607 -0.0997362 0
M  V30 2451 H 239.371 -3.99897 -1.15708 0
M  V30 2452 H 239.904 -3.94108 0.540706 0
M  V30 2453 H 236.643 -5.93804 2.77628 0
M  V30 2454 H 236.163 -5.90286 1.06406 0
M  V30 2455 H 237.842 -6.29013 1.51496 0
M  V30 2456 N 237.974 -0.419461 -1.51915 0
M  V30 2457 C 239.214 0.152336 -2.03832 0
M  V30 2458 C 239.578 1.41501 -1.29775 0
M  V30 2459 O 240.779 2.06591 -1.7197 0
M  V30 2460 C 239.05 0.383812 -3.55333 0
M  V30 2461 S 240.609 0.921577 -4.29013 0
M  V30 2462 H 237.427 0.0402193 -0.709862 0
M  V30 2463 H 240.029 -0.574758 -1.8686 0
M  V30 2464 H 238.733 -0.541794 -4.06808 0
M  V30 2465 H 238.264 1.13849 -3.76566 0
M  V30 2466 H 240.279 2.20108 -4.4471 0
M  V30 2467 N 239.452 1.56882 -0.150215 0
M  V30 2468 C 240.692 1.98119 0.502804 0
M  V30 2469 C 241.056 1.03327 1.61826 0
M  V30 2470 O 242.257 1.33621 2.33236 0
M  V30 2471 C 240.528 3.43329 0.992988 0
M  V30 2472 S 242.087 4.0659 1.65015 0
M  V30 2473 H 238.905 0.692189 0.162467 0
M  V30 2474 H 241.507 1.93988 -0.242689 0
M  V30 2475 H 240.211 4.10046 0.170436 0
M  V30 2476 H 239.742 3.5118 1.77303 0
M  V30 2477 H 241.757 3.99906 2.93752 0
M  V30 2478 N 240.93 -0.123565 1.57115 0
M  V30 2479 C 242.155 -0.850398 1.89164 0
M  V30 2480 C 242.58 -1.7286 0.741688 0
M  V30 2481 O 241.938 -1.78665 -0.307958 0
M  V30 2482 C 241.986 -1.66353 3.19936 0
M  V30 2483 O 241.09 -2.77004 3.0552 0
M  V30 2484 H 240.431 -0.235454 0.620852 0
M  V30 2485 H 242.961 -0.107335 2.04318 0
M  V30 2486 H 242.971 -2.05372 3.52543 0
M  V30 2487 H 241.646 -1.01881 4.03228 0
M  V30 2488 H 240.223 -2.41221 2.84371 0
M  V30 2489 N 242.408 -1.52605 -0.393616 0
M  V30 2490 C 243.648 -1.6911 -1.1481 0
M  V30 2491 C 244.012 -0.41969 -1.87357 0
M  V30 2492 O 245.213 -0.461034 -2.64817 0
M  V30 2493 C 243.484 -2.88909 -2.10395 0
M  V30 2494 S 245.043 -3.25977 -2.93742 0
M  V30 2495 H 241.861 -0.595337 -0.38871 0
M  V30 2496 H 244.463 -1.90641 -0.433178 0
M  V30 2497 H 243.167 -3.79672 -1.55812 0
M  V30 2498 H 242.698 -2.69698 -2.86403 0
M  V30 2499 H 244.713 -2.75806 -4.12487 0
M  V30 2500 N 243.887 0.651787 -1.4349 0
M  V30 2501 C 245.115 1.43937 -1.48626 0
M  V30 2502 C 245.53 1.8851 -0.104587 0
M  V30 2503 O 244.887 1.5958 0.885464 0
M  V30 2504 C 244.938 2.6734 -2.43334 0
M  V30 2505 O 244.659 2.24631 -3.76128 0
M  V30 2506 C 246.16 3.60683 -2.57726 0
M  V30 2507 H 243.38 0.44213 -0.504739 0
M  V30 2508 H 245.924 0.798944 -1.88248 0
M  V30 2509 H 244.079 3.2752 -2.06904 0
M  V30 2510 H 244.493 3.04485 -4.2707 0
M  V30 2511 H 245.967 4.43933 -3.28067 0
M  V30 2512 H 246.444 4.08126 -1.62265 0
M  V30 2513 H 247.05 3.06384 -2.94973 0
M  V30 2514 N 245.365 1.30045 0.890287 0
M  V30 2515 C 246.298 1.10301 1.99772 0
M  V30 2516 C 247.276 0.0121631 1.62595 0
M  V30 2517 O 248.46 0.16469 1.87779 0
M  V30 2518 C 245.587 0.681125 3.31781 0
M  V30 2519 C 244.633 1.77206 3.87944 0
M  V30 2520 S 245.466 3.37335 4.15891 0
M  V30 2521 C 246.622 2.97036 5.50927 0
M  V30 2522 H 246.855 2.04057 2.16213 0
M  V30 2523 H 244.388 1.14299 1.03804 0
M  V30 2524 H 246.346 0.444439 4.08087 0
M  V30 2525 H 245.007 -0.236981 3.13205 0
M  V30 2526 H 244.2 1.42903 4.83316 0
M  V30 2527 H 243.802 1.96275 3.18358 0
M  V30 2528 H 246.094 2.44666 6.31779 0
M  V30 2529 H 247.037 3.91296 5.90164 0
M  V30 2530 H 247.445 2.35057 5.13233 0
M  V30 2531 N 246.843 -1.10192 1.12674 0
M  V30 2532 C 247.773 -2.18652 0.819362 0
M  V30 2533 C 248.754 -1.68698 -0.217915 0
M  V30 2534 O 249.939 -1.94041 -0.0785581 0
M  V30 2535 C 247.069 -3.46202 0.27594 0
M  V30 2536 C 246.023 -4.09444 1.24656 0
M  V30 2537 C 245.349 -5.31725 0.563258 0
M  V30 2538 C 246.649 -4.52863 2.60217 0
M  V30 2539 H 248.343 -2.44622 1.72628 0
M  V30 2540 H 245.889 -1.17571 0.831451 0
M  V30 2541 H 247.842 -4.21372 0.0486149 0
M  V30 2542 H 246.566 -3.1973 -0.666331 0
M  V30 2543 H 245.225 -3.36284 1.45974 0
M  V30 2544 H 244.873 -5.0153 -0.384235 0
M  V30 2545 H 244.573 -5.74991 1.21075 0
M  V30 2546 H 246.097 -6.09624 0.34503 0
M  V30 2547 H 247.511 -5.19294 2.42913 0
M  V30 2548 H 245.908 -5.06986 3.21068 0
M  V30 2549 H 246.978 -3.65656 3.18471 0
M  V30 2550 N 248.321 -0.919034 -1.28029 0
M  V30 2551 C 249.549 -0.570971 -1.98866 0
M  V30 2552 C 249.964 0.848996 -1.68634 0
M  V30 2553 O 249.321 1.56307 -0.942036 0
M  V30 2554 C 249.372 -0.776876 -3.53054 0
M  V30 2555 O 249.093 -2.14097 -3.82222 0
M  V30 2556 C 250.594 -0.436356 -4.41147 0
M  V30 2557 H 247.814 -0.217175 -0.634883 0
M  V30 2558 H 250.358 -1.23368 -1.63097 0
M  V30 2559 H 248.513 -0.161085 -3.87065 0
M  V30 2560 H 248.927 -2.18455 -4.76841 0
M  V30 2561 H 250.401 -0.63117 -5.4838 0
M  V30 2562 H 250.878 0.627686 -4.34692 0
M  V30 2563 H 251.484 -1.02991 -4.12641 0
M  V30 2564 N 249.799 1.42003 -0.683588 0
M  V30 2565 C 250.762 2.29191 -0.0198243 0
M  V30 2566 C 251.762 1.43773 0.72013 0
M  V30 2567 O 252.952 1.65061 0.556815 0
M  V30 2568 C 250.084 3.26435 0.982487 0
M  V30 2569 H 251.277 2.8938 -0.787345 0
M  V30 2570 H 248.83 1.49789 -0.446418 0
M  V30 2571 H 249.565 2.71203 1.77819 0
M  V30 2572 H 249.35 3.89449 0.455182 0
M  V30 2573 H 250.84 3.918 1.44508 0
M  V30 2574 N 251.277 0.427512 1.51691 0
M  V30 2575 C 252.526 -0.143679 2.01188 0
M  V30 2576 C 252.839 -1.44642 1.31674 0
M  V30 2577 O 254.045 -2.09997 1.72086 0
M  V30 2578 C 252.501 -0.306602 3.58592 0
M  V30 2579 C 252.109 0.985125 4.37035 0
M  V30 2580 C 253.853 -0.832091 4.16265 0
M  V30 2581 C 251.76 0.788382 5.86122 0
M  V30 2582 H 250.69 -0.0574701 0.751807 0
M  V30 2583 H 253.341 0.555772 1.74881 0
M  V30 2584 H 251.723 -1.06882 3.81303 0
M  V30 2585 H 252.897 1.75492 4.26074 0
M  V30 2586 H 251.212 1.4384 3.90767 0
M  V30 2587 H 253.809 -0.995617 5.25349 0
M  V30 2588 H 254.152 -1.81186 3.74803 0
M  V30 2589 H 254.685 -0.128444 3.97593 0
M  V30 2590 H 251.424 1.74025 6.31978 0
M  V30 2591 H 250.944 0.0582143 5.99772 0
M  V30 2592 H 252.623 0.437722 6.45518 0
M  V30 2593 N 252.755 -1.56801 0.158532 0
M  V30 2594 C 253.98 -2.01295 -0.499516 0
M  V30 2595 C 254.405 -1.03799 -1.56867 0
M  V30 2596 O 253.763 -0.0155162 -1.81293 0
M  V30 2597 C 253.811 -3.44469 -1.06647 0
M  V30 2598 O 252.915 -3.50012 -2.18095 0
M  V30 2599 H 252.256 -0.652884 -0.12099 0
M  V30 2600 H 254.786 -2.02958 0.258661 0
M  V30 2601 H 254.796 -3.8351 -1.39227 0
M  V30 2602 H 253.471 -4.14932 -0.283581 0
M  V30 2603 H 252.048 -3.22822 -1.86656 0
M  V30 2604 N 254.233 0.115231 -1.57178 0
M  V30 2605 C 255.166 1.17166 -1.95825 0
M  V30 2606 C 256.144 1.39912 -0.828463 0
M  V30 2607 O 257.328 1.54004 -1.08697 0
M  V30 2608 C 254.455 2.52478 -2.25771 0
M  V30 2609 C 253.501 2.46136 -3.48309 0
M  V30 2610 S 254.334 1.89736 -5.0076 0
M  V30 2611 C 255.49 3.26713 -5.33863 0
M  V30 2612 H 255.723 0.842103 -2.85124 0
M  V30 2613 H 253.256 0.322136 -1.51002 0
M  V30 2614 H 255.214 3.30332 -2.43702 0
M  V30 2615 H 253.875 2.82609 -1.37079 0
M  V30 2616 H 253.068 3.45819 -3.66641 0
M  V30 2617 H 252.67 1.76404 -3.29784 0
M  V30 2618 H 254.962 4.22935 -5.29275 0
M  V30 2619 H 255.905 3.13205 -6.35065 0
M  V30 2620 H 256.313 3.25316 -4.61335 0
M  V30 2621 N 255.711 1.52812 0.385517 0
M  V30 2622 C 256.936 1.72207 1.15583 0
M  V30 2623 C 257.361 0.441034 1.82857 0
M  V30 2624 O 256.719 -0.603465 1.70962 0
M  V30 2625 C 256.767 2.87476 2.17692 0
M  V30 2626 O 255.871 2.54693 3.24354 0
M  V30 2627 H 255.212 0.572526 0.336319 0
M  V30 2628 H 257.742 1.99618 0.448744 0
M  V30 2629 H 257.752 3.13072 2.6163 0
M  V30 2630 H 256.427 3.80408 1.68115 0
M  V30 2631 H 255.004 2.3985 2.85529 0
M  V30 2632 N 257.189 -0.644168 1.43834 0
M  V30 2633 C 258.152 -1.73857 1.49353 0
M  V30 2634 C 259.152 -1.56315 0.377112 0
M  V30 2635 O 260.342 -1.62048 0.639226 0
M  V30 2636 C 257.474 -3.12819 1.35488 0
M  V30 2637 H 258.667 -1.70342 2.46827 0
M  V30 2638 H 256.22 -0.856652 1.30733 0
M  V30 2639 H 256.955 -3.2194 0.390569 0
M  V30 2640 H 256.74 -3.26958 2.16428 0
M  V30 2641 H 258.23 -3.92606 1.42302 0
M  V30 2642 N 258.668 -1.30515 -0.883378 0
M  V30 2643 C 259.917 -1.18795 -1.63005 0
M  V30 2644 C 260.23 0.255923 -1.93919 0
M  V30 2645 O 261.436 0.494654 -2.66956 0
M  V30 2646 C 259.892 -2.07878 -2.93794 0
M  V30 2647 C 259.5 -3.57184 -2.70414 0
M  V30 2648 C 261.244 -2.04924 -3.71761 0
M  V30 2649 C 259.151 -4.38317 -3.97029 0
M  V30 2650 H 258.081 -0.441031 -0.611562 0
M  V30 2651 H 260.732 -1.55275 -0.977854 0
M  V30 2652 H 259.114 -1.64283 -3.60315 0
M  V30 2653 H 260.288 -4.08937 -2.12384 0
M  V30 2654 H 258.603 -3.61976 -2.0582 0
M  V30 2655 H 261.2 -2.62792 -4.65665 0
M  V30 2656 H 261.543 -1.0331 -4.03277 0
M  V30 2657 H 262.076 -2.46649 -3.12104 0
M  V30 2658 H 258.815 -5.40632 -3.70671 0
M  V30 2659 H 258.335 -3.91326 -4.54559 0
M  V30 2660 H 260.014 -4.49834 -4.65036 0
M  V30 2661 N 260.146 1.09593 -1.13257 0
M  V30 2662 C 261.109 2.14359 -0.811358 0
M  V30 2663 C 262.109 1.59808 0.178377 0
M  V30 2664 O 263.299 1.74132 -0.0484911 0
M  V30 2665 C 260.431 3.40269 -0.207276 0
M  V30 2666 H 261.624 2.44284 -1.73969 0
M  V30 2667 H 259.177 1.25102 -0.936973 0
M  V30 2668 H 259.912 3.15969 0.73036 0
M  V30 2669 H 259.697 3.81154 -0.919992 0
M  V30 2670 H 261.187 4.176 0.000667944 0
M  V30 2671 N 261.624 0.925811 1.2754 0
M  V30 2672 C 262.852 0.581509 1.9856 0
M  V30 2673 C 263.267 -0.840041 1.69082 0
M  V30 2674 O 262.624 -1.55805 0.950312 0
M  V30 2675 C 262.675 0.795589 3.52637 0
M  V30 2676 O 262.396 2.16121 3.81082 0
M  V30 2677 C 263.897 0.459744 4.4091 0
M  V30 2678 H 261.117 0.220538 0.633722 0
M  V30 2679 H 263.661 1.24232 1.6244 0
M  V30 2680 H 261.816 0.18161 3.86974 0
M  V30 2681 H 262.23 2.2098 4.75676 0
M  V30 2682 H 263.704 0.660244 5.48037 0
M  V30 2683 H 264.181 -0.604625 4.35018 0
M  V30 2684 H 264.787 1.05178 4.12089 0
M  V30 2685 N 263.102 -1.41638 0.69111 0
M  V30 2686 C 264.05 -2.32597 0.0115199 0
M  V30 2687 C 265.044 -1.5072 -0.773296 0
M  V30 2688 O 266.25 -1.66685 -0.67942 0
M  V30 2689 H 262.625 -0.751849 -0.0150746 0
M  V30 2690 H 264.596 -2.87593 0.795791 0
M  V30 2691 C 263.345 -3.35467 -0.914172 0
M  V30 2692 H 262.668 -3.9852 -0.319687 0
M  V30 2693 H 264.108 -4.01662 -1.35808 0
M  V30 2694 C 262.567 -2.69004 -2.02826 0
M  V30 2695 O 263.097 -2.53444 -3.11655 0
M  V30 2696 N 261.303 -2.2777 -1.80469 0
M  V30 2697 H 260.85 -2.40626 -0.919615 0
M  V30 2698 H 260.808 -1.83635 -2.55197 0
M  V30 2699 N 264.58 -0.43555 -1.51462 0
M  V30 2700 C 265.828 0.131254 -2.01673 0
M  V30 2701 C 266.149 1.43368 -1.32177 0
M  V30 2702 O 265.419 1.90524 -0.455769 0
M  V30 2703 H 263.999 0.0514954 -0.745223 0
M  V30 2704 H 266.661 -0.577847 -1.86137 0
M  V30 2705 H 265.757 0.308446 -3.10572 0
M  V30 2706 N 266.058 1.56714 -0.166846 0
M  V30 2707 C 267.304 1.97039 0.479962 0
M  V30 2708 C 267.637 1.05264 1.63197 0
M  V30 2709 O 266.912 0.0988833 1.94248 0
M  V30 2710 C 267.195 3.46867 0.967212 0
M  V30 2711 C 267.048 4.49421 -0.18466 0
M  V30 2712 C 268.367 3.9968 1.84238 0
M  V30 2713 H 265.486 0.71641 0.172992 0
M  V30 2714 H 268.128 1.8832 -0.252079 0
M  V30 2715 H 266.278 3.54428 1.59101 0
M  V30 2716 H 267.95 4.53924 -0.821621 0
M  V30 2717 H 266.193 4.25573 -0.840837 0
M  V30 2718 H 266.864 5.51644 0.198317 0
M  V30 2719 H 269.34 3.94723 1.31655 0
M  V30 2720 H 268.216 5.04941 2.15234 0
M  V30 2721 H 268.477 3.43226 2.78654 0
M  V30 2722 N 267.536 -0.106894 1.57237 0
M  V30 2723 C 268.782 -0.81373 1.85759 0
M  V30 2724 C 269.115 -1.78952 0.754315 0
M  V30 2725 O 268.39 -1.93029 -0.23879 0
M  V30 2726 C 268.673 -1.55293 3.24894 0
M  V30 2727 C 268.526 -0.595929 4.45835 0
M  V30 2728 C 269.845 -2.5063 3.61763 0
M  V30 2729 H 266.964 -0.294369 0.67566 0
M  V30 2730 H 269.606 -0.0776472 1.89841 0
M  V30 2731 H 267.756 -2.1804 3.21544 0
M  V30 2732 H 269.428 0.0236262 4.61294 0
M  V30 2733 H 267.671 0.0916191 4.33703 0
M  V30 2734 H 268.342 -1.15004 5.39887 0
M  V30 2735 H 270.818 -1.97982 3.65981 0
M  V30 2736 H 269.694 -2.99376 4.60071 0
M  V30 2737 H 269.955 -3.3385 2.89821 0
M  V30 2738 N 269.014 -1.53014 -0.377408 0
M  V30 2739 C 270.425 -1.60438 -0.954798 0
M  V30 2740 C 270.776 -0.464418 -1.90624 0
M  V30 2741 O 269.901 0.41087 -2.12464 0
M  V30 2742 C 270.496 -2.90797 -1.73847 0
M  V30 2743 C 269.055 -3.00595 -2.26538 0
M  V30 2744 C 268.202 -2.55645 -1.07429 0
M  V30 2745 H 271.153 -1.57926 -0.156575 0
M  V30 2746 H 271.174 -2.77935 -2.5987 0
M  V30 2747 H 270.686 -3.73746 -1.04574 0
M  V30 2748 H 268.787 -2.22208 -2.99089 0
M  V30 2749 H 268.9 -4.05456 -2.5523 0
M  V30 2750 H 267.264 -2.10239 -1.43777 0
M  V30 2751 H 268.047 -3.41 -0.396728 0
M  V30 2752 N 270.492 0.636531 -1.44174 0
M  V30 2753 C 271.455 1.73063 -1.50273 0
M  V30 2754 C 272.455 1.56113 -0.385397 0
M  V30 2755 O 273.645 1.61707 -0.64781 0
M  V30 2756 C 270.777 3.12096 -1.37145 0
M  V30 2757 H 271.97 1.69031 -2.47727 0
M  V30 2758 H 269.523 0.849706 -1.31186 0
M  V30 2759 H 270.258 3.21728 -0.407636 0
M  V30 2760 H 270.043 3.25805 -2.18159 0
M  V30 2761 H 271.533 3.91846 -1.44382 0
M  V30 2762 N 271.97 1.30982 0.876444 0
M  V30 2763 C 273.218 1.20058 1.62575 0
M  V30 2764 C 273.539 -0.242947 1.93481 0
M  V30 2765 O 272.809 -1.1619 1.57724 0
M  V30 2766 H 271.389 0.44135 0.602677 0
M  V30 2767 H 274.051 1.64222 1.04962 0
M  V30 2768 H 273.147 1.76762 2.57219 0
M  V30 2769 N 273.449 -1.08991 1.13837 0
M  V30 2770 C 274.697 -1.80899 0.901098 0
M  V30 2771 C 275.018 -1.86356 -0.574134 0
M  V30 2772 O 274.288 -1.35235 -1.41733 0
M  V30 2773 H 272.868 -0.669966 0.330386 0
M  V30 2774 H 275.53 -1.318 1.43578 0
M  V30 2775 H 274.626 -2.83929 1.29578 0
M  V30 2776 N 274.927 -0.932562 -1.27047 0
M  V30 2777 C 276.152 -0.591474 -1.98787 0
M  V30 2778 C 276.577 0.824601 -1.69062 0
M  V30 2779 O 275.935 1.5541 -0.933677 0
M  V30 2780 C 275.983 -0.829808 -3.50922 0
M  V30 2781 O 275.087 0.102266 -4.12273 0
M  V30 2782 H 274.428 -0.227185 -0.623926 0
M  V30 2783 H 276.958 -1.25314 -1.61733 0
M  V30 2784 H 276.968 -0.747292 -4.01098 0
M  V30 2785 H 275.643 -1.86201 -3.7189 0
M  V30 2786 H 274.22 -0.0305761 -3.72887 0
M  V30 2787 N 276.405 1.4127 -0.698611 0
M  V30 2788 C 277.635 2.05205 -0.239644 0
M  V30 2789 C 278.043 1.52684 1.11733 0
M  V30 2790 O 277.386 0.671222 1.70998 0
M  V30 2791 C 277.448 3.59289 -0.123126 0
M  V30 2792 C 277.112 4.34619 -1.41263 0
M  V30 2793 C 278.109 4.63701 -2.35111 0
M  V30 2794 C 275.794 4.73837 -1.66684 0
M  V30 2795 C 277.788 5.30966 -3.52639 0
M  V30 2796 C 275.475 5.40837 -2.84498 0
M  V30 2797 C 276.473 5.69329 -3.77298 0
M  V30 2798 O 276.161 6.34949 -4.93047 0
M  V30 2799 H 275.893 0.66723 -0.108537 0
M  V30 2800 H 278.447 1.81974 -0.952602 0
M  V30 2801 H 276.677 3.81272 0.645628 0
M  V30 2802 H 278.366 4.04797 0.299056 0
M  V30 2803 H 279.132 4.33882 -2.16729 0
M  V30 2804 H 275.011 4.51039 -0.953135 0
M  V30 2805 H 278.555 5.53121 -4.25091 0
M  V30 2806 H 274.452 5.70075 -3.02795 0
M  V30 2807 H 275.22 6.53445 -4.92902 0
M  V30 2808 N 277.883 0.443576 1.51229 0
M  V30 2809 C 279.113 -0.119117 2.06256 0
M  V30 2810 C 279.521 -1.36471 1.31043 0
M  V30 2811 O 278.864 -1.80034 0.365151 0
M  V30 2812 C 278.926 -0.500546 3.55998 0
M  V30 2813 C 278.59 0.639125 4.52509 0
M  V30 2814 C 279.587 1.51311 4.97394 0
M  V30 2815 C 277.272 0.821632 4.95535 0
M  V30 2816 C 279.266 2.55425 5.83984 0
M  V30 2817 C 276.953 1.86603 5.81913 0
M  V30 2818 C 277.951 2.73072 6.26036 0
M  V30 2819 O 277.639 3.75718 7.10698 0
M  V30 2820 H 277.371 -0.00857665 0.675946 0
M  V30 2821 H 279.925 0.623288 1.95715 0
M  V30 2822 H 278.155 -1.29575 3.64345 0
M  V30 2823 H 279.844 -0.995116 3.93513 0
M  V30 2824 H 280.61 1.38367 4.64844 0
M  V30 2825 H 276.489 0.158149 4.60729 0
M  V30 2826 H 280.033 3.22949 6.18344 0
M  V30 2827 H 275.93 1.99564 6.13876 0
M  V30 2828 H 276.698 3.72374 7.2889 0
M  V30 2829 N 279.361 -1.56624 0.175154 0
M  V30 2830 C 280.294 -2.14 -0.792412 0
M  V30 2831 C 281.272 -1.07114 -1.22333 0
M  V30 2832 O 282.456 -1.35112 -1.31442 0
M  V30 2833 C 279.583 -2.68268 -2.0676 0
M  V30 2834 C 278.629 -3.87562 -1.7804 0
M  V30 2835 S 279.462 -5.27074 -0.946222 0
M  V30 2836 C 280.618 -5.8475 -2.23199 0
M  V30 2837 H 280.851 -2.95736 -0.304588 0
M  V30 2838 H 278.384 -1.54349 -0.0395705 0
M  V30 2839 H 280.342 -3.00182 -2.80002 0
M  V30 2840 H 279.003 -1.86612 -2.52656 0
M  V30 2841 H 278.196 -4.23874 -2.72666 0
M  V30 2842 H 277.798 -3.56555 -1.12891 0
M  V30 2843 H 280.09 -5.97898 -3.18629 0
M  V30 2844 H 281.033 -6.81756 -1.91349 0
M  V30 2845 H 281.441 -5.13198 -2.35134 0
M  V30 2846 N 280.839 0.0985539 -1.57292 0
M  V30 2847 C 282.088 0.801358 -1.85098 0
M  V30 2848 C 282.401 1.80066 -0.763902 0
M  V30 2849 O 283.607 2.55112 -0.928981 0
M  V30 2850 C 282.063 1.47599 -3.28242 0
M  V30 2851 C 281.671 0.516624 -4.45011 0
M  V30 2852 C 283.415 2.16272 -3.65276 0
M  V30 2853 C 281.322 1.19564 -5.79188 0
M  V30 2854 H 280.252 0.303022 -0.69043 0
M  V30 2855 H 282.903 0.0542623 -1.8342 0
M  V30 2856 H 281.285 2.27042 -3.2445 0
M  V30 2857 H 282.459 -0.246065 -4.60143 0
M  V30 2858 H 280.774 -0.064227 -4.1635 0
M  V30 2859 H 283.371 2.67802 -4.62803 0
M  V30 2860 H 283.714 2.95009 -2.93727 0
M  V30 2861 H 284.247 1.43693 -3.70941 0
M  V30 2862 H 280.986 0.449157 -6.53959 0
M  V30 2863 H 280.506 1.92984 -5.67906 0
M  V30 2864 H 282.185 1.7231 -6.23633 0
M  V30 2865 N 282.317 1.53212 0.369288 0
M  V30 2866 C 283.542 1.73423 1.1375 0
M  V30 2867 C 283.967 0.460404 1.82378 0
M  V30 2868 O 283.325 -0.585298 1.71592 0
M  V30 2869 C 283.373 2.89769 2.1463 0
M  V30 2870 O 282.477 2.58119 3.21634 0
M  V30 2871 H 281.818 0.576061 0.330227 0
M  V30 2872 H 284.348 2.00083 0.427547 0
M  V30 2873 H 284.358 3.15829 2.58294 0
M  V30 2874 H 283.033 3.8217 1.64071 0
M  V30 2875 H 281.61 2.42864 2.82969 0
M  V30 2876 N 283.795 -0.628877 1.44509 0
M  V30 2877 C 285.211 -0.947305 1.28446 0
M  V30 2878 C 285.411 -2.00275 0.221872 0
M  V30 2879 O 284.467 -2.49447 -0.391471 0
M  V30 2880 C 285.78 -1.40843 2.65676 0
M  V30 2881 C 287.328 -1.52379 2.73404 0
M  V30 2882 C 287.803 -2.01875 4.11109 0
M  V30 2883 N 289.294 -2.09142 4.13296 0
M  V30 2884 C 290.029 -2.48615 5.16699 0
M  V30 2885 N 289.525 -2.87209 6.30462 0
M  V30 2886 N 291.318 -2.48768 5.04054 0
M  V30 2887 H 283.469 0.0690977 2.12288 0
M  V30 2888 H 285.732 -0.0317164 0.947469 0
M  V30 2889 H 285.438 -0.707206 3.44516 0
M  V30 2890 H 285.312 -2.37902 2.92716 0
M  V30 2891 H 287.699 -2.21598 1.9488 0
M  V30 2892 H 287.78 -0.536898 2.50102 0
M  V30 2893 H 287.424 -1.3325 4.90109 0
M  V30 2894 H 287.354 -3.0144 4.31789 0
M  V30 2895 H 289.845 -1.81991 3.31191 0
M  V30 2896 H 290.158 -3.16149 7.05174 0
M  V30 2897 H 288.503 -2.84955 6.33897 0
M  V30 2898 H 291.694 -2.18009 4.14234 0
M  V30 2899 H 291.867 -2.79207 5.84763 0
M  V30 2900 N 285.273 -1.31445 -0.869486 0
M  V30 2901 C 286.498 -1.24256 -1.66058 0
M  V30 2902 C 286.923 0.188928 -1.87149 0
M  V30 2903 O 286.281 1.13522 -1.4136 0
M  V30 2904 C 286.329 -1.9924 -3.00559 0
M  V30 2905 O 285.433 -1.33007 -3.90362 0
M  V30 2906 H 284.774 -0.428973 -0.506831 0
M  V30 2907 H 287.304 -1.73521 -1.08404 0
M  V30 2908 H 287.314 -2.08854 -3.50491 0
M  V30 2909 H 285.989 -3.03342 -2.84528 0
M  V30 2910 H 284.566 -1.31848 -3.48813 0
M  V30 2911 N 286.751 1.08385 -1.14413 0
M  V30 2912 C 287.681 2.17321 -0.854044 0
M  V30 2913 C 288.662 1.69024 0.191049 0
M  V30 2914 O 289.847 1.94141 0.0476779 0
M  V30 2915 C 286.977 3.45719 -0.330983 0
M  V30 2916 C 285.931 4.07409 -1.31155 0
M  V30 2917 C 285.257 5.30762 -0.64778 0
M  V30 2918 C 286.557 4.48665 -2.67388 0
M  V30 2919 H 288.251 2.41845 -1.76498 0
M  V30 2920 H 285.797 1.16233 -0.850051 0
M  V30 2921 H 287.75 4.21241 -0.115645 0
M  V30 2922 H 286.474 3.2075 0.615381 0
M  V30 2923 H 285.133 3.33919 -1.51306 0
M  V30 2924 H 284.781 5.02078 0.304398 0
M  V30 2925 H 284.481 5.72992 -1.30207 0
M  V30 2926 H 286.005 6.08998 -0.441972 0
M  V30 2927 H 287.419 5.15364 -2.51143 0
M  V30 2928 H 285.816 5.01814 -3.29093 0
M  V30 2929 H 286.886 3.60543 -3.24248 0
M  V30 2930 N 288.23 0.939286 1.26551 0
M  V30 2931 C 289.478 0.58469 1.93457 0
M  V30 2932 C 289.799 -0.878774 1.74076 0
M  V30 2933 O 289.069 -1.62421 1.09528 0
M  V30 2934 H 287.649 0.21325 0.715914 0
M  V30 2935 H 290.311 1.1942 1.54029 0
M  V30 2936 H 289.407 0.800849 3.0165 0
M  V30 2937 N 289.708 -1.40897 0.706093 0
M  V30 2938 C 291.119 -1.84023 0.315052 0
M  V30 2939 C 291.47 -1.5906 -1.14866 0
M  V30 2940 O 290.595 -1.06651 -1.88293 0
M  V30 2941 C 291.19 -3.34055 0.565038 0
M  V30 2942 C 289.749 -3.7571 0.227806 0
M  V30 2943 C 288.896 -2.64204 0.842122 0
M  V30 2944 H 291.847 -1.303 0.905963 0
M  V30 2945 H 291.868 -3.80107 -0.172843 0
M  V30 2946 H 291.38 -3.52192 1.63042 0
M  V30 2947 H 289.481 -3.63172 -0.832895 0
M  V30 2948 H 289.594 -4.74103 0.690174 0
M  V30 2949 H 287.958 -2.53255 0.270893 0
M  V30 2950 H 288.741 -2.85155 1.91158 0
M  V30 2951 N 291.186 -0.45159 -1.50991 0
M  V30 2952 C 292.096 0.358431 -2.31846 0
M  V30 2953 C 293.112 1.01438 -1.41373 0
M  V30 2954 O 294.288 1.00663 -1.74439 0
M  V30 2955 C 291.353 1.43704 -3.15515 0
M  V30 2956 C 290.414 0.799742 -4.21785 0
M  V30 2957 C 289.647 1.82696 -5.01456 0
M  V30 2958 O 289.87 3.05105 -4.81941 0
M  V30 2959 O 288.804 1.40958 -5.85162 0
M  V30 2960 H 292.63 -0.302032 -3.02194 0
M  V30 2961 H 290.215 -0.213825 -1.47862 0
M  V30 2962 H 292.097 2.06227 -3.67489 0
M  V30 2963 H 290.772 2.08133 -2.47916 0
M  V30 2964 H 289.679 0.136084 -3.73852 0
M  V30 2965 H 291.012 0.198718 -4.91799 0
M  V30 2966 N 292.664 1.56529 -0.183458 0
M  V30 2967 C 293.911 1.97244 0.458357 0
M  V30 2968 C 294.239 1.06992 1.62428 0
M  V30 2969 O 293.494 0.106542 1.9541 0
M  V30 2970 C 293.793 3.43939 0.971637 0
M  V30 2971 C 293.459 4.5083 -0.0796784 0
M  V30 2972 C 292.121 4.79786 -0.368584 0
M  V30 2973 C 294.473 5.15138 -0.792638 0
M  V30 2974 C 291.801 5.70345 -1.37563 0
M  V30 2975 C 294.153 6.06784 -1.78875 0
M  V30 2976 C 292.817 6.34102 -2.08497 0
M  V30 2977 H 292.087 0.721768 0.167725 0
M  V30 2978 H 294.734 1.89472 -0.277976 0
M  V30 2979 H 293.039 3.48724 1.78602 0
M  V30 2980 H 294.736 3.72791 1.47744 0
M  V30 2981 H 291.326 4.28317 0.155668 0
M  V30 2982 H 295.51 4.92868 -0.582659 0
M  V30 2983 H 290.766 5.89789 -1.61118 0
M  V30 2984 H 294.94 6.55677 -2.3465 0
M  V30 2985 H 292.567 7.04074 -2.86678 0
M  V30 2986 N 294.142 -0.090211 1.57342 0
M  V30 2987 C 295.39 -0.791241 1.85967 0
M  V30 2988 C 295.711 -1.7903 0.772859 0
M  V30 2989 O 294.981 -1.94872 -0.200398 0
M  V30 2990 H 293.561 -0.295205 0.686195 0
M  V30 2991 H 296.223 -0.0706782 1.94772 0
M  V30 2992 H 295.319 -1.31882 2.82867 0
M  V30 2993 N 295.62 -1.53406 -0.361157 0
M  V30 2994 C 296.868 -1.69467 -1.10115 0
M  V30 2995 C 297.189 -0.451352 -1.89705 0
M  V30 2996 O 296.459 0.534636 -1.88463 0
M  V30 2997 H 295.039 -0.624749 -0.409508 0
M  V30 2998 H 297.701 -1.90609 -0.406699 0
M  V30 2999 H 296.797 -2.55774 -1.78847 0
M  V30 3000 N 297.098 0.621204 -1.44841 0
M  V30 3001 C 298.061 1.71459 -1.521 0
M  V30 3002 C 299.061 1.55696 -0.401933 0
M  V30 3003 O 300.251 1.61011 -0.664925 0
M  V30 3004 C 297.383 3.10624 -1.40447 0
M  V30 3005 H 298.576 1.66394 -2.49506 0
M  V30 3006 H 296.129 0.835745 -1.3208 0
M  V30 3007 H 296.864 3.21277 -0.441737 0
M  V30 3008 H 296.649 3.23473 -2.21602 0
M  V30 3009 H 298.139 3.90293 -1.4853 0
M  V30 3010 N 298.576 1.31904 0.862503 0
M  V30 3011 C 299.822 1.22197 1.61851 0
M  V30 3012 C 300.155 -0.217641 1.92977 0
M  V30 3013 O 299.43 -1.15264 1.56666 0
M  V30 3014 C 299.713 2.07378 2.94391 0
M  V30 3015 C 299.566 3.59678 2.70096 0
M  V30 3016 C 300.885 1.92891 3.95577 0
M  V30 3017 H 298.004 0.445255 0.587296 0
M  V30 3018 H 300.646 1.6177 0.99651 0
M  V30 3019 H 298.796 1.73758 3.47477 0
M  V30 3020 H 300.468 4.03472 2.23625 0
M  V30 3021 H 298.711 3.82735 2.04197 0
M  V30 3022 H 299.382 4.14595 3.64438 0
M  V30 3023 H 301.858 2.22327 3.51724 0
M  V30 3024 H 300.734 2.54781 4.86187 0
M  V30 3025 H 300.995 0.894315 4.3296 0
M  V30 3026 N 300.054 -1.07777 1.14986 0
M  V30 3027 C 301.302 -1.79934 0.920235 0
M  V30 3028 C 301.623 -1.86955 -0.554336 0
M  V30 3029 O 300.893 -1.36731 -1.40291 0
M  V30 3030 H 299.473 -0.666424 0.337473 0
M  V30 3031 H 302.135 -1.3027 1.44968 0
M  V30 3032 H 301.231 -2.82539 1.32583 0
M  V30 3033 N 301.532 -0.945985 -1.26051 0
M  V30 3034 C 302.462 -0.477172 -2.28572 0
M  V30 3035 C 303.443 0.472032 -1.63419 0
M  V30 3036 O 304.628 0.372853 -1.90587 0
M  V30 3037 C 301.758 0.253975 -3.4637 0
M  V30 3038 C 300.712 -0.609135 -4.23643 0
M  V30 3039 C 300.038 0.252252 -5.34105 0
M  V30 3040 C 301.338 -1.8829 -4.8718 0
M  V30 3041 H 303.032 -1.33402 -2.68038 0
M  V30 3042 H 300.578 -0.642904 -1.28852 0
M  V30 3043 H 302.531 0.593016 -4.17207 0
M  V30 3044 H 301.255 1.145 -3.05871 0
M  V30 3045 H 299.914 -0.931138 -3.54578 0
M  V30 3046 H 299.562 1.14278 -4.89846 0
M  V30 3047 H 299.262 -0.32188 -5.86718 0
M  V30 3048 H 300.786 0.586454 -6.07777 0
M  V30 3049 H 302.2 -1.61081 -5.50205 0
M  V30 3050 H 300.597 -2.40199 -5.49931 0
M  V30 3051 H 301.667 -2.59134 -4.09851 0
M  V30 3052 N 303.011 1.40521 -0.713556 0
M  V30 3053 C 304.251 2.02783 -0.256584 0
M  V30 3054 C 304.615 1.55352 1.12827 0
M  V30 3055 O 305.816 2.09663 1.68211 0
M  V30 3056 C 304.087 3.5586 -0.331414 0
M  V30 3057 S 305.646 4.38773 0.0488703 0
M  V30 3058 H 302.464 0.703655 -0.101934 0
M  V30 3059 H 305.066 1.71674 -0.935325 0
M  V30 3060 H 303.77 3.87874 -1.34098 0
M  V30 3061 H 303.301 3.91695 0.365873 0
M  V30 3062 H 305.316 4.79633 1.2715 0
M  V30 3063 N 304.489 0.459591 1.5075 0
M  V30 3064 C 305.736 -0.0993495 2.02256 0
M  V30 3065 C 306.064 -1.40751 1.34237 0
M  V30 3066 O 305.319 -1.90379 0.453228 0
M  V30 3067 C 305.618 -0.342866 3.55752 0
M  V30 3068 C 305.284 0.88218 4.42186 0
M  V30 3069 C 303.946 1.21808 4.65528 0
M  V30 3070 C 306.298 1.69837 4.92752 0
M  V30 3071 C 303.626 2.37045 5.36681 0
M  V30 3072 C 305.978 2.84192 5.65171 0
M  V30 3073 C 304.642 3.1821 5.8677 0
M  V30 3074 H 303.912 -0.0363545 0.740108 0
M  V30 3075 H 306.559 0.611329 1.8148 0
M  V30 3076 H 304.864 -1.13567 3.7498 0
M  V30 3077 H 306.561 -0.789121 3.93159 0
M  V30 3078 H 303.151 0.610467 4.2423 0
M  V30 3079 H 307.335 1.45205 4.74583 0
M  V30 3080 H 302.591 2.63689 5.51614 0
M  V30 3081 H 306.765 3.4779 6.03337 0
M  V30 3082 H 304.392 4.07613 6.41682 0
M  V30 3083 N 305.967 -1.56429 0.191757 0
M  V30 3084 C 307.197 -2.01574 -0.452928 0
M  V30 3085 C 307.605 -1.07107 -1.55964 0
M  V30 3086 O 306.948 -0.067534 -1.83576 0
M  V30 3087 C 307.01 -3.43121 -1.07278 0
M  V30 3088 C 306.674 -4.56879 -0.105214 0
M  V30 3089 C 307.671 -5.15379 0.684149 0
M  V30 3090 C 305.356 -5.023 0.00489824 0
M  V30 3091 C 307.35 -6.17746 1.57062 0
M  V30 3092 C 305.037 -6.04511 0.894935 0
M  V30 3093 C 306.035 -6.62108 1.67637 0
M  V30 3094 O 305.723 -7.62335 2.55149 0
M  V30 3095 H 305.455 -0.665554 -0.118379 0
M  V30 3096 H 308.009 -2.03245 0.296737 0
M  V30 3097 H 306.239 -3.38425 -1.87097 0
M  V30 3098 H 307.928 -3.72093 -1.62177 0
M  V30 3099 H 308.694 -4.81157 0.609365 0
M  V30 3100 H 304.573 -4.57168 -0.593156 0
M  V30 3101 H 308.117 -6.6263 2.181 0
M  V30 3102 H 304.014 -6.38157 0.970847 0
M  V30 3103 H 304.782 -7.79741 2.48892 0
M  V30 3104 N 307.445 0.0818655 -1.57387 0
M  V30 3105 C 308.375 1.09885 -2.06028 0
M  V30 3106 C 309.356 1.4098 -0.951774 0
M  V30 3107 O 310.541 1.50781 -1.22387 0
M  V30 3108 C 307.671 2.4151 -2.4958 0
M  V30 3109 C 306.625 2.24792 -3.64215 0
M  V30 3110 C 305.951 3.61712 -3.93787 0
M  V30 3111 C 307.251 1.67749 -4.94629 0
M  V30 3112 H 308.945 0.694128 -2.91243 0
M  V30 3113 H 306.491 0.332448 -1.4011 0
M  V30 3114 H 308.444 3.12939 -2.82219 0
M  V30 3115 H 307.168 2.83943 -1.61381 0
M  V30 3116 H 305.827 1.55807 -3.31843 0
M  V30 3117 H 305.475 4.01697 -3.02735 0
M  V30 3118 H 305.175 3.51368 -4.70971 0
M  V30 3119 H 306.699 4.34587 -4.28913 0
M  V30 3120 H 308.113 2.29032 -5.25564 0
M  V30 3121 H 306.51 1.68128 -5.76067 0
M  V30 3122 H 307.58 0.638059 -4.80684 0
M  V30 3123 N 308.923 1.53595 0.353017 0
M  V30 3124 C 310.171 1.70049 1.09215 0
M  V30 3125 C 310.492 0.461406 1.89463 0
M  V30 3126 O 309.762 -0.524633 1.88744 0
M  V30 3127 H 308.342 0.626912 0.40619 0
M  V30 3128 H 311.004 1.90822 0.396585 0
M  V30 3129 H 310.1 2.56718 1.77488 0
M  V30 3130 N 310.401 -0.613514 1.45168 0
M  V30 3131 C 311.629 -1.39946 1.5239 0
M  V30 3132 C 312.044 -1.88167 0.154531 0
M  V30 3133 O 311.401 -1.61872 -0.842843 0
M  V30 3134 C 311.452 -2.60795 2.50337 0
M  V30 3135 O 311.173 -2.1458 3.81952 0
M  V30 3136 C 312.674 -3.53723 2.67198 0
M  V30 3137 H 309.894 -0.428593 0.516284 0
M  V30 3138 H 312.438 -0.748753 1.903 0
M  V30 3139 H 310.593 -3.21919 2.15515 0
M  V30 3140 H 311.007 -2.93055 4.34993 0
M  V30 3141 H 312.481 -4.35079 3.39721 0
M  V30 3142 H 312.958 -4.0368 1.73029 0
M  V30 3143 H 313.564 -2.98456 3.02992 0
M  V30 3144 N 311.879 -1.3236 -0.855495 0
M  V30 3145 C 313.107 -1.2587 -1.64208 0
M  V30 3146 C 313.522 0.173457 -1.88002 0
M  V30 3147 O 312.879 1.11027 -1.44842 0
M  V30 3148 C 312.93 -2.01424 -3.00184 0
M  V30 3149 O 312.651 -3.39051 -2.77445 0
M  V30 3150 C 314.152 -2.01948 -3.94629 0
M  V30 3151 H 311.372 -0.434318 -0.511477 0
M  V30 3152 H 313.916 -1.74469 -1.0668 0
M  V30 3153 H 312.071 -1.56549 -3.5436 0
M  V30 3154 H 312.485 -3.77711 -3.63916 0
M  V30 3155 H 313.959 -2.59297 -4.87308 0
M  V30 3156 H 314.436 -1.00554 -4.27534 0
M  V30 3157 H 315.042 -2.46767 -3.4639 0
M  V30 3158 N 313.357 1.07166 -1.15556 0
M  V30 3159 C 314.604 1.79798 -0.931604 0
M  V30 3160 C 314.932 1.8682 0.54115 0
M  V30 3161 O 314.187 1.34942 1.41736 0
M  V30 3162 C 314.486 3.24707 -1.49332 0
M  V30 3163 C 314.152 3.37781 -2.98688 0
M  V30 3164 C 312.814 3.41057 -3.39461 0
M  V30 3165 C 315.166 3.40424 -3.94665 0
M  V30 3166 C 312.494 3.4458 -4.74849 0
M  V30 3167 C 314.846 3.45485 -5.29927 0
M  V30 3168 C 313.51 3.47039 -5.70193 0
M  V30 3169 H 312.78 0.657928 -0.340898 0
M  V30 3170 H 315.427 1.26091 -1.44129 0
M  V30 3171 H 313.732 3.81208 -0.904859 0
M  V30 3172 H 315.429 3.79486 -1.29582 0
M  V30 3173 H 312.019 3.35932 -2.66172 0
M  V30 3174 H 316.203 3.37113 -3.64237 0
M  V30 3175 H 311.459 3.44083 -5.05388 0
M  V30 3176 H 315.633 3.46476 -6.04092 0
M  V30 3177 H 313.26 3.49522 -6.75084 0
M  V30 3178 N 314.835 0.952656 1.25548 0
M  V30 3179 C 315.798 0.475794 2.24207 0
M  V30 3180 C 316.798 -0.419428 1.55234 0
M  V30 3181 O 317.988 -0.216994 1.72843 0
M  V30 3182 C 315.12 -0.312814 3.39462 0
M  V30 3183 H 316.313 1.34779 2.67908 0
M  V30 3184 H 313.866 0.735739 1.37901 0
M  V30 3185 H 314.601 -1.20257 3.01179 0
M  V30 3186 H 314.386 0.329404 3.90714 0
M  V30 3187 H 315.876 -0.635986 4.12729 0
M  V30 3188 N 316.313 -1.40141 0.720998 0
M  V30 3189 C 317.561 -2.0039 0.262323 0
M  V30 3190 C 317.882 -1.57469 -1.15015 0
M  V30 3191 O 317.152 -0.816582 -1.78069 0
M  V30 3192 H 315.732 -0.741063 0.093996 0
M  V30 3193 H 318.394 -1.71398 0.927835 0
M  V30 3194 H 317.49 -3.10658 0.299671 0
M  V30 3195 N 317.792 -0.46758 -1.50504 0
M  V30 3196 C 318.755 0.317059 -2.26996 0
M  V30 3197 C 319.755 0.923513 -1.31635 0
M  V30 3198 O 320.945 0.793239 -1.55091 0
M  V30 3199 C 318.077 1.45134 -3.08462 0
M  V30 3200 H 319.27 -0.353723 -2.97807 0
M  V30 3201 H 316.823 -0.221545 -1.54722 0
M  V30 3202 H 317.558 2.15728 -2.4214 0
M  V30 3203 H 317.343 1.02232 -3.78538 0
M  V30 3204 H 318.833 2.00493 -3.66323 0
M  V30 3205 N 319.27 1.56325 -0.20005 0
M  V30 3206 C 320.203 2.15234 0.758267 0
M  V30 3207 C 321.181 1.09046 1.20614 0
M  V30 3208 O 322.365 1.37186 1.29276 0
M  V30 3209 C 319.492 2.71524 2.02466 0
M  V30 3210 C 318.538 3.90345 1.71852 0
M  V30 3211 S 319.371 5.28513 0.862249 0
M  V30 3212 C 320.527 5.88227 2.13868 0
M  V30 3213 H 320.76 2.96183 0.2575 0
M  V30 3214 H 318.293 1.54393 0.0150099 0
M  V30 3215 H 320.251 3.04598 2.75191 0
M  V30 3216 H 318.912 1.90607 2.49655 0
M  V30 3217 H 318.105 4.28158 2.65888 0
M  V30 3218 H 317.707 3.58306 1.07205 0
M  V30 3219 H 319.999 6.02891 3.09076 0
M  V30 3220 H 320.942 6.84714 1.80479 0
M  V30 3221 H 321.35 5.16874 2.2694 0
M  V30 3222 N 320.748 -0.0735177 1.57428 0
M  V30 3223 C 321.978 -0.78483 1.91112 0
M  V30 3224 C 322.386 -1.71729 0.7941 0
M  V30 3225 O 321.729 -1.82105 -0.241542 0
M  V30 3226 C 321.791 -1.63346 3.20247 0
M  V30 3227 C 321.455 -0.870557 4.48632 0
M  V30 3228 C 322.452 -0.19058 5.19551 0
M  V30 3229 C 320.137 -0.838242 4.95256 0
M  V30 3230 C 322.131 0.511503 6.35344 0
M  V30 3231 C 319.818 -0.132386 6.10957 0
M  V30 3232 C 320.816 0.541288 6.80852 0
M  V30 3233 O 320.504 1.23578 7.94345 0
M  V30 3234 H 320.236 -0.228408 0.636244 0
M  V30 3235 H 322.79 -0.0486039 2.05342 0
M  V30 3236 H 321.02 -2.41245 3.02222 0
M  V30 3237 H 322.709 -2.22329 3.39595 0
M  V30 3238 H 323.475 -0.206864 4.84559 0
M  V30 3239 H 319.354 -1.35206 4.40727 0
M  V30 3240 H 322.898 1.03789 6.89836 0
M  V30 3241 H 318.795 -0.114023 6.45399 0
M  V30 3242 H 319.563 1.14487 8.10454 0
M  V30 3243 N 322.226 -1.5378 -0.344866 0
M  V30 3244 C 323.475 -1.7018 -1.08267 0
M  V30 3245 C 323.788 -0.471 -1.89845 0
M  V30 3246 O 324.994 -0.515917 -2.66553 0
M  V30 3247 C 323.45 -3.00923 -1.97417 0
M  V30 3248 C 323.058 -4.31335 -1.21053 0
M  V30 3249 C 324.802 -3.26688 -2.71063 0
M  V30 3250 C 322.709 -5.53153 -2.09225 0
M  V30 3251 H 321.639 -0.634138 -0.407903 0
M  V30 3252 H 324.29 -1.8028 -0.342246 0
M  V30 3253 H 322.672 -2.84676 -2.75274 0
M  V30 3254 H 323.846 -4.58281 -0.481159 0
M  V30 3255 H 322.161 -4.12173 -0.591813 0
M  V30 3256 H 324.758 -4.1489 -3.37299 0
M  V30 3257 H 325.101 -2.43639 -3.37558 0
M  V30 3258 H 325.634 -3.43705 -2.0028 0
M  V30 3259 H 322.373 -6.38741 -1.47274 0
M  V30 3260 H 321.893 -5.30458 -2.79955 0
M  V30 3261 H 323.572 -5.88744 -2.68308 0
M  V30 3262 N 323.704 0.605807 -1.45491 0
M  V30 3263 C 324.634 1.72709 -1.57143 0
M  V30 3264 C 325.615 1.6476 -0.422884 0
M  V30 3265 O 326.8 1.83132 -0.646247 0
M  V30 3266 C 323.93 3.11316 -1.53948 0
M  V30 3267 C 322.884 3.34077 -2.67537 0
M  V30 3268 C 322.21 4.72975 -2.49397 0
M  V30 3269 C 323.51 3.24158 -4.09535 0
M  V30 3270 H 325.204 1.63214 -2.51001 0
M  V30 3271 H 322.75 0.78379 -1.208 0
M  V30 3272 H 324.703 3.89557 -1.60696 0
M  V30 3273 H 323.427 3.21655 -0.566205 0
M  V30 3274 H 322.086 2.58227 -2.6022 0
M  V30 3275 H 321.734 4.8005 -1.50205 0
M  V30 3276 H 321.434 4.8916 -3.25571 0
M  V30 3277 H 322.958 5.53414 -2.58002 0
M  V30 3278 H 324.372 3.92271 -4.18086 0
M  V30 3279 H 322.769 3.51872 -4.86113 0
M  V30 3280 H 323.839 2.2157 -4.31317 0
M  V30 3281 N 325.182 1.32811 0.848464 0
M  V30 3282 C 326.43 1.23479 1.59991 0
M  V30 3283 C 326.751 -0.201853 1.93952 0
M  V30 3284 O 326.021 -1.12818 1.60153 0
M  V30 3285 H 324.601 0.454034 0.593179 0
M  V30 3286 H 327.263 1.66412 1.01455 0
M  V30 3287 H 326.359 1.82178 2.53412 0
M  V30 3288 N 326.66 -1.06551 1.16123 0
M  V30 3289 C 327.888 -1.83005 0.965237 0
M  V30 3290 C 328.303 -1.82423 -0.486542 0
M  V30 3291 O 327.66 -1.24152 -1.33763 0
M  V30 3292 C 327.711 -3.29733 1.48183 0
M  V30 3293 O 327.432 -3.30416 2.87674 0
M  V30 3294 C 328.933 -4.22926 1.32848 0
M  V30 3295 H 326.153 -0.577118 0.342309 0
M  V30 3296 H 328.697 -1.3445 1.54089 0
M  V30 3297 H 326.852 -3.75609 0.948517 0
M  V30 3298 H 327.266 -4.22149 3.11272 0
M  V30 3299 H 328.74 -5.23916 1.73827 0
M  V30 3300 H 329.217 -4.38346 0.273692 0
M  V30 3301 H 329.823 -3.82894 1.85127 0
M  V30 3302 N 328.138 -0.959301 -1.25041 0
M  V30 3303 C 329.387 -0.612254 -1.92183 0
M  V30 3304 C 329.7 0.855347 -1.75907 0
M  V30 3305 O 330.906 1.31256 -2.37664 0
M  V30 3306 C 329.362 -1.04435 -3.44414 0
M  V30 3307 C 328.97 -2.53482 -3.69393 0
M  V30 3308 C 330.714 -0.770055 -4.17457 0
M  V30 3309 C 328.621 -2.90468 -5.15153 0
M  V30 3310 H 327.551 -0.225279 -0.719559 0
M  V30 3311 H 330.202 -1.16438 -1.41825 0
M  V30 3312 H 328.584 -0.4206 -3.9376 0
M  V30 3313 H 329.758 -3.20916 -3.30681 0
M  V30 3314 H 328.073 -2.78432 -3.0962 0
M  V30 3315 H 330.67 -1.02249 -5.24832 0
M  V30 3316 H 331.013 0.293611 -4.15263 0
M  V30 3317 H 331.546 -1.35437 -3.74034 0
M  V30 3318 H 328.285 -3.95871 -5.22462 0
M  V30 3319 H 327.805 -2.27711 -5.54894 0
M  V30 3320 H 329.484 -2.79914 -5.83315 0
M  V30 3321 N 329.616 1.39756 -0.72842 0
M  V30 3322 C 330.526 2.34444 -0.0855374 0
M  V30 3323 C 331.542 1.57976 0.729356 0
M  V30 3324 O 332.718 1.90301 0.659346 0
M  V30 3325 C 329.783 3.36965 0.815798 0
M  V30 3326 C 328.844 4.29299 -0.0105996 0
M  V30 3327 C 328.077 5.26923 0.84781 0
M  V30 3328 O 328.3 5.30859 2.08673 0
M  V30 3329 O 327.234 6.01249 0.279969 0
M  V30 3330 H 331.06 2.91065 -0.866892 0
M  V30 3331 H 328.645 1.4117 -0.48902 0
M  V30 3332 H 330.527 3.99804 1.33171 0
M  V30 3333 H 329.202 2.82739 1.57608 0
M  V30 3334 H 328.109 3.69703 -0.571877 0
M  V30 3335 H 329.442 4.86712 -0.73295 0
M  V30 3336 N 331.094 0.475555 1.50254 0
M  V30 3337 C 332.343 -0.0795996 2.01543 0
M  V30 3338 C 332.656 -1.4038 1.36209 0
M  V30 3339 O 333.862 -2.04415 1.7868 0
M  V30 3340 C 332.318 -0.192363 3.59386 0
M  V30 3341 C 331.926 1.12367 4.33679 0
M  V30 3342 C 333.67 -0.699238 4.18701 0
M  V30 3343 C 331.577 0.974453 5.83317 0
M  V30 3344 H 330.507 -0.0335228 0.753254 0
M  V30 3345 H 333.158 0.611128 1.73025 0
M  V30 3346 H 331.54 -0.946974 3.84511 0
M  V30 3347 H 332.714 1.88958 4.20276 0
M  V30 3348 H 331.029 1.562 3.85993 0
M  V30 3349 H 333.626 -0.827978 5.28251 0
M  V30 3350 H 333.969 -1.69171 3.80377 0
M  V30 3351 H 334.502 -0.00188807 3.978 0
M  V30 3352 H 331.241 1.94042 6.26121 0
M  V30 3353 H 330.761 0.248998 5.99283 0
M  V30 3354 H 332.44 0.642867 6.43798 0
M  V30 3355 N 332.573 -1.56217 0.208337 0
M  V30 3356 C 333.503 -2.22694 -0.702116 0
M  V30 3357 C 334.484 -1.19432 -1.2112 0
M  V30 3358 O 335.669 -1.47978 -1.25762 0
M  V30 3359 C 332.799 -2.8966 -1.9161 0
M  V30 3360 C 331.753 -3.9928 -1.5414 0
M  V30 3361 C 331.079 -4.53476 -2.83308 0
M  V30 3362 C 332.379 -5.17012 -0.741339 0
M  V30 3363 H 334.073 -2.99034 -0.147898 0
M  V30 3364 H 331.619 -1.43831 -0.0696951 0
M  V30 3365 H 333.572 -3.34852 -2.55836 0
M  V30 3366 H 332.296 -2.10746 -2.49507 0
M  V30 3367 H 330.955 -3.54799 -0.922668 0
M  V30 3368 H 330.603 -3.71308 -3.39322 0
M  V30 3369 H 330.303 -5.27451 -2.58976 0
M  V30 3370 H 331.827 -5.01378 -3.485 0
M  V30 3371 H 333.241 -5.58667 -1.28699 0
M  V30 3372 H 331.638 -5.97137 -0.595627 0
M  V30 3373 H 332.708 -4.8423 0.254851 0
M  V30 3374 N 334.051 0.0651679 -1.57465 0
M  V30 3375 C 334.981 1.07693 -2.07182 0
M  V30 3376 C 335.962 1.39962 -0.966673 0
M  V30 3377 O 337.147 1.49475 -1.2398 0
M  V30 3378 C 334.277 2.3885 -2.52127 0
M  V30 3379 C 333.231 2.20917 -3.66579 0
M  V30 3380 C 332.557 3.57515 -3.97601 0
M  V30 3381 C 333.857 1.62493 -4.9638 0
M  V30 3382 H 335.551 0.663199 -2.91962 0
M  V30 3383 H 333.097 0.317569 -1.40455 0
M  V30 3384 H 335.05 3.09928 -2.85522 0
M  V30 3385 H 333.774 2.82215 -1.64384 0
M  V30 3386 H 332.433 1.52279 -3.33477 0
M  V30 3387 H 332.081 3.98463 -3.06979 0
M  V30 3388 H 331.781 3.46353 -4.74672 0
M  V30 3389 H 333.305 4.30013 -4.33499 0
M  V30 3390 H 334.719 2.23445 -5.27963 0
M  V30 3391 H 333.116 1.62009 -5.77818 0
M  V30 3392 H 334.186 0.587041 -4.81333 0
M  V30 3393 N 335.529 1.53961 0.336706 0
M  V30 3394 C 336.492 1.81724 1.39675 0
M  V30 3395 C 337.492 0.688532 1.45313 0
M  V30 3396 O 338.682 0.956829 1.45569 0
M  V30 3397 C 335.814 1.96543 2.78538 0
M  V30 3398 H 337.007 2.76424 1.16318 0
M  V30 3399 H 334.56 1.45478 0.571474 0
M  V30 3400 H 335.295 1.0401 3.07168 0
M  V30 3401 H 335.08 2.78665 2.75841 0
M  V30 3402 H 336.57 2.19516 3.5525 0
M  V30 3403 N 337.007 -0.598083 1.45811 0
M  V30 3404 C 338.237 -1.38121 1.53643 0
M  V30 3405 C 338.645 -1.88425 0.171081 0
M  V30 3406 O 337.988 -1.63409 -0.839237 0
M  V30 3407 C 338.05 -2.61432 2.46766 0
M  V30 3408 C 337.714 -2.32702 3.93318 0
M  V30 3409 C 338.711 -1.92479 4.82957 0
M  V30 3410 C 336.396 -2.45321 4.38318 0
M  V30 3411 C 338.39 -1.65248 6.15607 0
M  V30 3412 C 336.077 -2.17703 5.71007 0
M  V30 3413 C 337.075 -1.7773 6.5947 0
M  V30 3414 O 336.763 -1.50441 7.89698 0
M  V30 3415 H 336.495 -0.428863 0.522544 0
M  V30 3416 H 339.049 -0.73557 1.91777 0
M  V30 3417 H 337.279 -3.28749 2.0362 0
M  V30 3418 H 338.968 -3.23487 2.45175 0
M  V30 3419 H 339.734 -1.82258 4.49452 0
M  V30 3420 H 335.613 -2.75399 3.69697 0
M  V30 3421 H 339.157 -1.33973 6.84614 0
M  V30 3422 H 335.054 -2.27544 6.04065 0
M  V30 3423 H 335.822 -1.64415 8.01817 0
M  V30 3424 N 338.485 -1.33259 -0.841409 0
M  V30 3425 C 339.415 -1.25926 -1.96634 0
M  V30 3426 C 340.396 -0.140349 -1.6952 0
M  V30 3427 O 341.581 -0.329707 -1.91381 0
M  V30 3428 C 338.711 -0.99512 -3.32738 0
M  V30 3429 C 337.665 -2.0767 -3.74242 0
M  V30 3430 C 336.991 -1.66474 -5.08125 0
M  V30 3431 C 338.291 -3.49318 -3.88297 0
M  V30 3432 H 339.985 -2.20046 -2.03027 0
M  V30 3433 H 337.531 -1.05931 -0.975425 0
M  V30 3434 H 339.484 -0.930323 -4.11002 0
M  V30 3435 H 338.208 -0.0183004 -3.26595 0
M  V30 3436 H 336.867 -2.13187 -2.98239 0
M  V30 3437 H 336.515 -0.675012 -4.9845 0
M  V30 3438 H 336.215 -2.3885 -5.36865 0
M  V30 3439 H 337.739 -1.61455 -5.88867 0
M  V30 3440 H 339.153 -3.46316 -4.56879 0
M  V30 3441 H 337.55 -4.20158 -4.28471 0
M  V30 3442 H 338.62 -3.8801 -2.9082 0
M  V30 3443 N 339.963 1.05934 -1.16686 0
M  V30 3444 C 341.21 1.788 -0.950622 0
M  V30 3445 C 341.538 1.87384 0.521305 0
M  V30 3446 O 340.793 1.36438 1.40297 0
M  V30 3447 C 341.092 3.23105 -1.52767 0
M  V30 3448 C 340.758 3.34594 -3.02254 0
M  V30 3449 C 339.42 3.37437 -3.43059 0
M  V30 3450 C 341.772 3.36219 -3.98254 0
M  V30 3451 C 339.1 3.39525 -4.78477 0
M  V30 3452 C 341.452 3.39845 -5.33562 0
M  V30 3453 C 340.116 3.40971 -5.73842 0
M  V30 3454 H 339.386 0.654275 -0.347857 0
M  V30 3455 H 342.033 1.24555 -1.45459 0
M  V30 3456 H 340.338 3.80227 -0.94524 0
M  V30 3457 H 342.035 3.7809 -1.336 0
M  V30 3458 H 338.625 3.3309 -2.6972 0
M  V30 3459 H 342.809 3.33231 -3.67792 0
M  V30 3460 H 338.065 3.38703 -5.09009 0
M  V30 3461 H 342.239 3.4005 -6.07733 0
M  V30 3462 H 339.866 3.42342 -6.78753 0
M  V30 3463 N 341.441 0.965919 1.2453 0
M  V30 3464 C 342.852 0.665929 1.7442 0
M  V30 3465 C 343.203 -0.818407 1.78316 0
M  V30 3466 O 342.328 -1.64037 1.41141 0
M  V30 3467 C 342.923 1.20211 3.16757 0
M  V30 3468 C 341.482 0.952059 3.6416 0
M  V30 3469 C 340.629 1.33848 2.42858 0
M  V30 3470 H 343.58 1.14144 1.10258 0
M  V30 3471 H 343.601 0.567544 3.76244 0
M  V30 3472 H 343.113 2.28244 3.13889 0
M  V30 3473 H 341.214 -0.112821 3.72429 0
M  V30 3474 H 341.327 1.59645 4.51719 0
M  V30 3475 H 339.691 0.756864 2.43195 0
M  V30 3476 H 340.474 2.42827 2.42673 0
M  V30 3477 N 342.919 -1.39368 0.735821 0
M  V30 3478 C 343.882 -2.2896 0.104874 0
M  V30 3479 C 344.882 -1.46347 -0.666274 0
M  V30 3480 O 346.072 -1.67014 -0.49517 0
M  V30 3481 C 343.204 -3.29857 -0.860656 0
M  V30 3482 H 344.397 -2.86259 0.894205 0
M  V30 3483 H 341.95 -1.48029 0.501704 0
M  V30 3484 H 342.685 -2.77615 -1.67631 0
M  V30 3485 H 342.47 -3.9087 -0.310327 0
M  V30 3486 H 343.96 -3.96893 -1.29867 0
M  V30 3487 N 344.397 -0.483516 -1.5 0
M  V30 3488 C 345.33 0.350427 -2.25493 0
M  V30 3489 C 346.308 0.985549 -1.29328 0
M  V30 3490 O 347.492 1.01906 -1.58579 0
M  V30 3491 C 344.619 1.49202 -3.04066 0
M  V30 3492 C 343.665 0.973036 -4.15252 0
M  V30 3493 S 344.498 -0.122237 -5.3536 0
M  V30 3494 C 345.654 1.02294 -6.17484 0
M  V30 3495 H 345.887 -0.290381 -2.95878 0
M  V30 3496 H 343.42 -0.268562 -1.52046 0
M  V30 3497 H 345.378 2.14623 -3.49925 0
M  V30 3498 H 344.039 2.10438 -2.33183 0
M  V30 3499 H 343.232 1.82804 -4.69679 0
M  V30 3500 H 342.834 0.396335 -3.71894 0
M  V30 3501 H 345.126 1.93195 -6.49371 0
M  V30 3502 H 346.069 0.517664 -7.06205 0
M  V30 3503 H 346.477 1.28238 -5.49741 0
M  V30 3504 N 345.875 1.56104 -0.216619 0
M  V30 3505 C 346.838 2.18819 0.681962 0
M  V30 3506 C 347.838 1.14866 1.12528 0
M  V30 3507 O 349.028 1.40128 1.03488 0
M  V30 3508 C 346.16 2.80756 1.93362 0
M  V30 3509 H 347.353 2.99595 0.135254 0
M  V30 3510 H 344.906 1.56265 0.0330003 0
M  V30 3511 H 345.641 2.03837 2.52232 0
M  V30 3512 H 345.426 3.56876 1.62426 0
M  V30 3513 H 346.916 3.28844 2.57393 0
M  V30 3514 N 347.353 -0.0568162 1.57498 0
M  V30 3515 C 348.602 -0.752001 1.87157 0
M  V30 3516 C 348.915 -1.77978 0.811375 0
M  V30 3517 O 350.121 -2.52559 0.996293 0
M  V30 3518 C 348.577 -1.38844 3.3204 0
M  V30 3519 C 348.185 -0.398456 4.46225 0
M  V30 3520 C 349.929 -2.06512 3.70882 0
M  V30 3521 C 347.836 -1.04166 5.82154 0
M  V30 3522 H 346.766 -0.28461 0.698222 0
M  V30 3523 H 349.417 -0.00561272 1.83499 0
M  V30 3524 H 347.799 -2.1836 3.30356 0
M  V30 3525 H 348.973 0.367977 4.59328 0
M  V30 3526 H 347.288 0.174592 4.16034 0
M  V30 3527 H 349.885 -2.55437 4.6974 0
M  V30 3528 H 350.228 -2.87117 3.01445 0
M  V30 3529 H 350.761 -1.33808 3.7462 0
M  V30 3530 H 347.5 -0.275614 6.5492 0
M  V30 3531 H 347.02 -1.7786 5.72823 0
M  V30 3532 H 348.699 -1.55715 6.27982 0
M  V30 3533 N 348.832 -1.54138 -0.328536 0
M  V30 3534 C 350.079 -1.72105 -1.06706 0
M  V30 3535 C 350.407 -0.492111 -1.88171 0
M  V30 3536 O 349.662 0.526153 -1.88494 0
M  V30 3537 C 349.961 -2.9457 -2.02393 0
M  V30 3538 C 349.627 -4.29544 -1.37122 0
M  V30 3539 C 348.289 -4.6624 -1.19052 0
M  V30 3540 C 350.641 -5.1333 -0.902331 0
M  V30 3541 C 347.969 -5.84325 -0.527331 0
M  V30 3542 C 350.321 -6.32094 -0.252988 0
M  V30 3543 C 348.985 -6.67473 -0.0600901 0
M  V30 3544 H 348.255 -0.629775 -0.390466 0
M  V30 3545 H 350.902 -1.88372 -0.34473 0
M  V30 3546 H 349.207 -2.72969 -2.81061 0
M  V30 3547 H 350.904 -3.05665 -2.59557 0
M  V30 3548 H 347.494 -4.0067 -1.52188 0
M  V30 3549 H 351.678 -4.855 -1.02974 0
M  V30 3550 H 346.934 -6.103 -0.366634 0
M  V30 3551 H 351.108 -6.96299 0.118366 0
M  V30 3552 H 348.735 -7.58832 0.455828 0
M  V30 3553 N 350.31 0.590341 -1.46126 0
M  V30 3554 C 351.257 1.69994 -1.56111 0
M  V30 3555 C 352.227 1.61065 -0.405867 0
M  V30 3556 O 353.412 1.8039 -0.621613 0
M  V30 3557 C 350.552 3.08326 -1.55013 0
M  V30 3558 C 349.665 3.27936 -2.81215 0
M  V30 3559 C 348.8 4.56473 -2.71673 0
M  V30 3560 C 347.839 4.694 -3.92849 0
M  V30 3561 N 346.976 5.89254 -3.81738 0
M  V30 3562 H 351.816 1.60797 -2.50895 0
M  V30 3563 H 349.353 0.783799 -1.24479 0
M  V30 3564 H 351.311 3.88383 -1.52362 0
M  V30 3565 H 349.941 3.16439 -0.637667 0
M  V30 3566 H 348.993 2.41536 -2.93879 0
M  V30 3567 H 350.305 3.33357 -3.71045 0
M  V30 3568 H 349.459 5.44748 -2.67085 0
M  V30 3569 H 348.198 4.53477 -1.7947 0
M  V30 3570 H 347.203 3.79544 -3.97777 0
M  V30 3571 H 348.428 4.7418 -4.86138 0
M  V30 3572 H 346.374 5.87271 -2.92317 0
M  V30 3573 H 346.291 5.95911 -4.65217 0
M  V30 3574 H 347.559 6.79981 -3.81112 0
M  V30 3575 N 351.788 1.33704 0.83433 0
M  V30 3576 C 352.751 1.24244 1.92603 0
M  V30 3577 C 353.751 0.160383 1.59998 0
M  V30 3578 O 354.941 0.412228 1.69252 0
M  V30 3579 C 352.073 0.91555 3.28376 0
M  V30 3580 H 353.266 2.21287 2.02416 0
M  V30 3581 H 350.819 1.17827 1.02696 0
M  V30 3582 H 351.554 -0.0521886 3.24258 0
M  V30 3583 H 351.339 1.69811 3.53422 0
M  V30 3584 H 352.829 0.874231 4.08347 0
M  V30 3585 N 353.266 -1.05314 1.17247 0
M  V30 3586 C 354.176 -2.16538 0.90268 0
M  V30 3587 C 355.192 -1.73523 -0.128707 0
M  V30 3588 O 356.368 -2.01337 0.0502701 0
M  V30 3589 C 353.433 -3.44167 0.418356 0
M  V30 3590 C 352.494 -4.01635 1.51618 0
M  V30 3591 C 351.727 -5.23171 1.05487 0
M  V30 3592 O 351.95 -5.70327 -0.0914715 0
M  V30 3593 O 350.884 -5.72848 1.8474 0
M  V30 3594 H 354.71 -2.42145 1.83302 0
M  V30 3595 H 352.295 -1.15037 0.953246 0
M  V30 3596 H 354.177 -4.21112 0.155726 0
M  V30 3597 H 352.852 -3.20063 -0.48385 0
M  V30 3598 H 351.759 -3.26135 1.83268 0
M  V30 3599 H 353.092 -4.30053 2.39405 0
M  V30 3600 N 354.744 -0.972509 -1.24016 0
M  V30 3601 C 356.021 -0.553733 -1.87598 0
M  V30 3602 C 356.401 0.969158 -1.87538 0
M  V30 3603 O 355.749 1.84255 -1.35139 0
M  V30 3604 C 355.959 -1.15076 -3.29482 0
M  V30 3605 C 357.307 -1.23862 -4.06132 0
M  V30 3606 O 358.331 -1.10363 -3.38672 0
M  V30 3607 O 357.19 -1.45252 -5.26844 0
M  V30 3608 H 354.284 -0.185331 -0.805966 0
M  V30 3609 H 356.83 -1.06709 -1.31952 0
M  V30 3610 H 355.602 -2.19333 -3.2405 0
M  V30 3611 H 355.225 -0.621746 -3.92709 0
M  V30 3612 N 356.222 1.38976 -0.743202 0
M  V30 3613 C 357.185 2.28901 -0.117014 0
M  V30 3614 C 358.185 1.46698 0.658503 0
M  V30 3615 O 359.375 1.67274 0.486305 0
M  V30 3616 C 356.507 3.30309 0.84315 0
M  V30 3617 H 357.7 2.8578 -0.909373 0
M  V30 3618 H 355.253 1.47761 -0.509547 0
M  V30 3619 H 355.988 2.785 1.66157 0
M  V30 3620 H 355.773 3.91029 0.289594 0
M  V30 3621 H 357.263 3.97577 1.2776 0
M  V30 3622 N 357.7 0.491464 1.49741 0
M  V30 3623 C 358.925 -0.0557177 2.07325 0
M  V30 3624 C 359.35 -1.30925 1.35056 0
M  V30 3625 O 358.708 -1.76733 0.404365 0
M  V30 3626 C 358.756 -0.302074 3.59333 0
M  V30 3627 O 357.86 -1.37868 3.88672 0
M  V30 3628 H 357.201 0.0219956 0.663636 0
M  V30 3629 H 359.731 0.688352 1.92673 0
M  V30 3630 H 359.741 -0.536464 4.04458 0
M  V30 3631 H 358.416 0.61383 4.11345 0
M  V30 3632 H 356.993 -1.12999 3.55367 0
M  V30 3633 N 359.178 -1.55987 0.224894 0
M  V30 3634 C 360.426 -1.97998 -0.405099 0
M  V30 3635 C 360.747 -1.11387 -1.60056 0
M  V30 3636 O 360.017 -0.191645 -1.9496 0
M  V30 3637 H 358.597 -0.731235 -0.152658 0
M  V30 3638 H 361.259 -1.92279 0.318567 0
M  V30 3639 H 360.355 -3.03463 -0.729167 0
M  V30 3640 N 360.656 0.0484629 -1.57525 0
M  V30 3641 C 361.566 1.07241 -2.08654 0
M  V30 3642 C 362.582 1.409 -1.02095 0
M  V30 3643 O 363.758 1.50609 -1.33712 0
M  V30 3644 C 360.823 2.36008 -2.5397 0
M  V30 3645 C 359.884 2.09108 -3.7493 0
M  V30 3646 C 359.117 3.31736 -4.18075 0
M  V30 3647 O 359.34 4.41714 -3.60895 0
M  V30 3648 O 358.274 3.18576 -5.10679 0
M  V30 3649 H 362.1 0.667965 -2.96263 0
M  V30 3650 H 359.685 0.26417 -1.47046 0
M  V30 3651 H 361.567 3.11747 -2.83535 0
M  V30 3652 H 360.242 2.75786 -1.69481 0
M  V30 3653 H 359.149 1.31 -3.50414 0
M  V30 3654 H 360.482 1.74198 -4.60343 0
M  V30 3655 N 362.134 1.5431 0.320358 0
M  V30 3656 C 363.097 1.83195 1.3774 0
M  V30 3657 C 364.097 0.703906 1.44575 0
M  V30 3658 O 365.287 0.972214 1.44546 0
M  V30 3659 C 362.419 1.99487 2.76438 0
M  V30 3660 H 363.612 2.77642 1.1338 0
M  V30 3661 H 361.165 1.46076 0.556012 0
M  V30 3662 H 361.9 1.07262 3.06048 0
M  V30 3663 H 361.685 2.81575 2.7287 0
M  V30 3664 H 363.175 2.23271 3.52902 0
M  V30 3665 N 363.613 -0.582584 1.46437 0
M  V30 3666 C 364.576 -1.67366 1.56592 0
M  V30 3667 C 365.576 -1.54575 0.443072 0
M  V30 3668 O 366.766 -1.59191 0.707381 0
M  V30 3669 C 363.898 -3.06791 1.48634 0
M  V30 3670 H 365.091 -1.5972 2.5383 0
M  V30 3671 H 362.644 -0.800432 1.34249 0
M  V30 3672 H 363.379 -3.19993 0.526763 0
M  V30 3673 H 363.164 -3.17484 2.30101 0
M  V30 3674 H 364.654 -3.86218 1.58826 0
M  V30 3675 N 365.091 -1.34144 -0.827227 0
M  V30 3676 C 366.054 -1.25264 -1.91942 0
M  V30 3677 C 367.054 -0.168866 -1.59911 0
M  V30 3678 O 368.244 -0.421198 -1.69031 0
M  V30 3679 C 365.376 -0.932952 -3.27885 0
M  V30 3680 H 366.569 -2.22357 -2.0124 0
M  V30 3681 H 364.122 -1.1837 -1.0207 0
M  V30 3682 H 364.857 0.0349917 -3.24281 0
M  V30 3683 H 364.642 -1.71682 -3.52516 0
M  V30 3684 H 366.132 -0.895874 -4.07877 0
M  V30 3685 N 366.569 1.04691 -1.17803 0
M  V30 3686 C 367.502 2.12068 -0.842765 0
M  V30 3687 C 368.48 1.61455 0.192608 0
M  V30 3688 O 369.664 1.88359 0.072995 0
M  V30 3689 C 366.791 3.37715 -0.258063 0
M  V30 3690 C 365.837 4.07164 -1.26962 0
M  V30 3691 S 366.67 4.55047 -2.82299 0
M  V30 3692 C 367.826 5.83935 -2.25323 0
M  V30 3693 H 368.059 2.4018 -1.75217 0
M  V30 3694 H 365.592 1.17366 -1.00323 0
M  V30 3695 H 367.55 4.10435 0.0727935 0
M  V30 3696 H 366.211 3.0773 0.629357 0
M  V30 3697 H 365.404 4.9746 -0.809263 0
M  V30 3698 H 365.006 3.40533 -1.54639 0
M  V30 3699 H 367.298 6.57552 -1.63192 0
M  V30 3700 H 368.241 6.34725 -3.13894 0
M  V30 3701 H 368.649 5.3874 -1.68582 0
M  V30 3702 N 368.047 0.979072 1.23499 0
M  V30 3703 C 368.977 0.537606 2.27227 0
M  V30 3704 C 369.958 -0.428539 1.64613 0
M  V30 3705 O 371.143 -0.322191 1.91509 0
M  V30 3706 C 368.273 -0.162052 3.46922 0
M  V30 3707 C 367.227 0.721242 4.21879 0
M  V30 3708 C 366.553 -0.110555 5.34586 0
M  V30 3709 C 367.853 2.01141 4.82016 0
M  V30 3710 H 369.547 1.40462 2.64406 0
M  V30 3711 H 367.093 0.67684 1.27102 0
M  V30 3712 H 369.046 -0.482192 4.18632 0
M  V30 3713 H 367.77 -1.06351 3.08799 0
M  V30 3714 H 366.429 1.02482 3.51984 0
M  V30 3715 H 366.077 -1.0125 4.92704 0
M  V30 3716 H 365.777 0.477325 5.85658 0
M  V30 3717 H 367.301 -0.425107 6.09118 0
M  V30 3718 H 368.715 1.75612 5.45741 0
M  V30 3719 H 367.112 2.54695 5.43369 0
M  V30 3720 H 368.182 2.69909 4.02836 0
M  V30 3721 N 369.525 -1.3858 0.750561 0
M  V30 3722 C 370.473 -2.32339 0.110162 0
M  V30 3723 C 371.467 -1.53864 -0.708674 0
M  V30 3724 O 372.673 -1.69417 -0.608112 0
M  V30 3725 H 369.048 -0.751812 0.0168275 0
M  V30 3726 H 371.019 -2.83959 0.917053 0
M  V30 3727 C 369.768 -3.39043 -0.771067 0
M  V30 3728 H 369.091 -3.99517 -0.150374 0
M  V30 3729 H 370.531 -4.07061 -1.1865 0
M  V30 3730 C 368.99 -2.77365 -1.91234 0
M  V30 3731 O 369.52 -2.66434 -3.00626 0
M  V30 3732 N 367.726 -2.35219 -1.70646 0
M  V30 3733 H 367.273 -2.4431 -0.81673 0
M  V30 3734 H 367.231 -1.94294 -2.47178 0
M  V30 3735 N 371.003 -0.499398 -1.49478 0
M  V30 3736 C 371.951 0.293604 -2.3074 0
M  V30 3737 C 372.945 0.96427 -1.39277 0
M  V30 3738 O 374.151 0.892141 -1.56336 0
M  V30 3739 H 370.526 0.113541 -0.743379 0
M  V30 3740 H 372.497 -0.411772 -2.95545 0
M  V30 3741 C 371.246 1.3462 -3.20582 0
M  V30 3742 H 370.569 0.83954 -3.90886 0
M  V30 3743 H 372.009 1.87308 -3.80384 0
M  V30 3744 C 370.468 2.36351 -2.40083 0
M  V30 3745 O 370.998 3.422 -2.10385 0
M  V30 3746 N 369.204 2.0878 -2.02137 0
M  V30 3747 H 368.751 1.22723 -2.26488 0
M  V30 3748 H 368.709 2.77075 -1.48583 0
M  V30 3749 N 372.481 1.55866 -0.233164 0
M  V30 3750 C 373.414 2.16794 0.712442 0
M  V30 3751 C 374.392 1.1158 1.18273 0
M  V30 3752 O 375.576 1.39897 1.26337 0
M  V30 3753 C 372.703 2.75757 1.96661 0
M  V30 3754 C 371.749 3.93902 1.63533 0
M  V30 3755 S 372.582 5.30223 0.74995 0
M  V30 3756 C 373.738 5.92631 2.01343 0
M  V30 3757 H 373.971 2.96662 0.194617 0
M  V30 3758 H 371.504 1.5439 -0.0177425 0
M  V30 3759 H 373.462 3.10367 2.68668 0
M  V30 3760 H 372.123 1.9586 2.45556 0
M  V30 3761 H 371.316 4.33702 2.56747 0
M  V30 3762 H 370.918 3.60499 0.995804 0
M  V30 3763 H 373.21 6.09312 2.96219 0
M  V30 3764 H 374.153 6.88388 1.65915 0
M  V30 3765 H 374.561 5.21571 2.15925 0
M  V30 3766 N 373.959 -0.0401083 1.57549 0
M  V30 3767 C 375.375 -0.395556 1.54621 0
M  V30 3768 C 375.575 -1.77281 0.957799 0
M  V30 3769 O 374.631 -2.45888 0.574031 0
M  V30 3770 C 375.944 -0.307535 2.99123 0
M  V30 3771 C 377.492 -0.385425 3.10618 0
M  V30 3772 C 377.967 -0.326973 4.56831 0
M  V30 3773 N 379.458 -0.386102 4.61588 0
M  V30 3774 C 380.193 -0.363591 5.72246 0
M  V30 3775 N 379.689 -0.29402 6.92176 0
M  V30 3776 N 381.482 -0.412503 5.60584 0
M  V30 3777 H 373.633 0.861325 1.94152 0
M  V30 3778 H 375.896 0.326445 0.890021 0
M  V30 3779 H 375.602 0.638461 3.45856 0
M  V30 3780 H 375.476 -1.10552 3.60636 0
M  V30 3781 H 377.863 -1.32185 2.63839 0
M  V30 3782 H 377.944 0.44171 2.51957 0
M  V30 3783 H 377.588 0.605738 5.04275 0
M  V30 3784 H 377.518 -1.17207 5.13391 0
M  V30 3785 H 380.009 -0.442832 3.75296 0
M  V30 3786 H 380.322 -0.28164 7.72287 0
M  V30 3787 H 378.667 -0.260232 6.94513 0
M  V30 3788 H 381.858 -0.464769 4.65787 0
M  V30 3789 H 382.031 -0.391492 6.46816 0
M  V30 3790 N 375.437 -1.54477 -0.31217 0
M  V30 3791 C 376.683 -1.73483 -1.0503 0
M  V30 3792 C 377.016 -0.513125 -1.87298 0
M  V30 3793 O 376.291 0.489864 -1.8823 0
M  V30 3794 C 376.574 -3.01723 -1.96558 0
M  V30 3795 C 376.427 -4.3417 -1.17545 0
M  V30 3796 C 377.746 -3.25772 -2.95907 0
M  V30 3797 H 374.865 -0.631222 -0.380432 0
M  V30 3798 H 377.507 -1.87184 -0.325932 0
M  V30 3799 H 375.657 -2.90174 -2.58324 0
M  V30 3800 H 377.329 -4.5762 -0.581513 0
M  V30 3801 H 375.572 -4.31159 -0.477925 0
M  V30 3802 H 376.243 -5.20143 -1.84811 0
M  V30 3803 H 378.719 -3.36857 -2.44267 0
M  V30 3804 H 377.595 -4.16838 -3.57123 0
M  V30 3805 H 377.856 -2.43537 -3.68974 0
M  V30 3806 N 376.915 0.57481 -1.46744 0
M  V30 3807 C 378.145 1.35659 -1.55821 0
M  V30 3808 C 378.553 1.88129 -0.201036 0
M  V30 3809 O 377.896 1.64723 0.813134 0
M  V30 3810 C 377.958 2.57473 -2.50894 0
M  V30 3811 C 377.622 2.26415 -3.9697 0
M  V30 3812 C 378.619 1.84771 -4.85958 0
M  V30 3813 C 376.304 2.38316 -4.42166 0
M  V30 3814 C 378.298 1.55434 -6.18158 0
M  V30 3815 C 375.985 2.08591 -5.74398 0
M  V30 3816 C 376.983 1.67216 -6.62214 0
M  V30 3817 O 376.671 1.37859 -7.91991 0
M  V30 3818 H 376.403 0.420496 -0.529301 0
M  V30 3819 H 378.957 0.704967 -1.92923 0
M  V30 3820 H 377.187 3.25468 -2.08824 0
M  V30 3821 H 378.876 3.19546 -2.50291 0
M  V30 3822 H 379.642 1.75085 -4.52295 0
M  V30 3823 H 375.521 2.69483 -3.74032 0
M  V30 3824 H 379.065 1.23065 -6.86659 0
M  V30 3825 H 374.962 2.17905 -6.07608 0
M  V30 3826 H 375.73 1.51638 -8.04331 0
M  V30 3827 N 378.394 1.34581 0.820102 0
M  V30 3828 C 379.642 1.26845 1.57336 0
M  V30 3829 C 379.963 -0.160667 1.94337 0
M  V30 3830 O 379.233 -1.09396 1.6251 0
M  V30 3831 H 377.813 0.466514 0.583415 0
M  V30 3832 H 380.475 1.68526 0.979027 0
M  V30 3833 H 379.571 1.87513 2.4949 0
M  V30 3834 N 379.872 -1.04064 1.18357 0
M  V30 3835 C 381.1 -1.80916 1.00384 0
M  V30 3836 C 381.515 -1.83414 -0.447738 0
M  V30 3837 O 380.872 -1.26962 -1.31099 0
M  V30 3838 C 380.923 -3.26516 1.55144 0
M  V30 3839 O 380.644 -3.2424 2.94618 0
M  V30 3840 C 382.145 -4.20013 1.41789 0
M  V30 3841 H 379.365 -0.569728 0.354474 0
M  V30 3842 H 381.909 -1.31151 1.56906 0
M  V30 3843 H 380.064 -3.73512 1.02798 0
M  V30 3844 H 380.478 -4.15452 3.20156 0
M  V30 3845 H 381.952 -5.20111 1.84901 0
M  V30 3846 H 382.429 -4.37667 0.36661 0
M  V30 3847 H 383.035 -3.78881 1.93207 0
M  V30 3848 N 381.35 -0.985608 -1.22978 0
M  V30 3849 C 382.59 -0.665487 -1.93263 0
M  V30 3850 C 382.954 0.78706 -1.75127 0
M  V30 3851 O 384.155 1.21826 -2.39608 0
M  V30 3852 C 382.426 -1.0515 -3.41582 0
M  V30 3853 S 383.985 -0.848637 -4.30516 0
M  V30 3854 H 380.803 -0.24355 -0.667985 0
M  V30 3855 H 383.405 -1.26635 -1.48942 0
M  V30 3856 H 382.109 -2.10517 -3.52293 0
M  V30 3857 H 381.64 -0.442134 -3.90908 0
M  V30 3858 H 383.655 0.264717 -4.95493 0
M  V30 3859 N 382.828 1.3818 -0.7579 0
M  V30 3860 C 384.074 2.00316 -0.316453 0
M  V30 3861 C 384.407 1.60026 1.10025 0
M  V30 3862 O 383.682 0.839835 1.75434 0
M  V30 3863 C 383.965 3.57349 -0.444245 0
M  V30 3864 C 383.818 4.07591 -1.90236 0
M  V30 3865 C 385.137 4.3981 0.1598 0
M  V30 3866 H 382.256 0.727741 -0.116459 0
M  V30 3867 H 384.898 1.6406 -0.958352 0
M  V30 3868 H 383.048 3.88365 0.102233 0
M  V30 3869 H 384.72 3.87199 -2.50748 0
M  V30 3870 H 382.963 3.60297 -2.41595 0
M  V30 3871 H 383.634 5.16677 -1.94291 0
M  V30 3872 H 386.11 4.14971 -0.306314 0
M  V30 3873 H 384.986 5.48885 0.0401675 0
M  V30 3874 H 385.247 4.24102 1.24859 0
M  V30 3875 N 384.306 0.507319 1.49211 0
M  V30 3876 C 385.236 -0.256939 2.32082 0
M  V30 3877 C 386.217 -0.956609 1.40652 0
M  V30 3878 O 387.402 -0.946788 1.69557 0
M  V30 3879 C 384.532 -1.31802 3.21318 0
M  V30 3880 C 383.486 -0.737855 4.21592 0
M  V30 3881 C 382.812 -1.89992 4.99807 0
M  V30 3882 C 384.112 0.275325 5.21574 0
M  V30 3883 H 385.806 0.434798 2.96226 0
M  V30 3884 H 383.352 0.210546 1.42452 0
M  V30 3885 H 385.305 -1.86045 3.78107 0
M  V30 3886 H 384.029 -2.03903 2.5513 0
M  V30 3887 H 382.688 -0.217126 3.65956 0
M  V30 3888 H 382.336 -2.60877 4.30061 0
M  V30 3889 H 382.036 -1.51777 5.6766 0
M  V30 3890 H 383.56 -2.44657 5.59442 0
M  V30 3891 H 384.974 -0.179193 5.7302 0
M  V30 3892 H 383.371 0.573649 5.97352 0
M  V30 3893 H 384.441 1.18903 4.70096 0
M  V30 3894 N 385.784 -1.5574 0.241426 0
M  V30 3895 C 387.012 -2.03208 -0.389134 0
M  V30 3896 C 387.427 -1.12082 -1.51931 0
M  V30 3897 O 386.784 -0.134183 -1.82006 0
M  V30 3898 C 386.835 -3.50064 -0.902087 0
M  V30 3899 O 386.556 -4.37717 0.18305 0
M  V30 3900 C 388.057 -4.13268 -1.60389 0
M  V30 3901 H 385.277 -0.664509 -0.0931053 0
M  V30 3902 H 387.821 -2.0124 0.36369 0
M  V30 3903 H 385.976 -3.52583 -1.60511 0
M  V30 3904 H 386.39 -5.24097 -0.205579 0
M  V30 3905 H 387.864 -5.17733 -1.91458 0
M  V30 3906 H 388.341 -3.59434 -2.52397 0
M  V30 3907 H 388.947 -4.14655 -0.945576 0
M  V30 3908 N 387.262 0.0317525 -1.57568 0
M  V30 3909 C 388.502 0.727979 -1.90997 0
M  V30 3910 C 388.866 1.72664 -0.839708 0
M  V30 3911 O 390.067 2.47092 -1.05825 0
M  V30 3912 C 388.338 1.38239 -3.29583 0
M  V30 3913 S 389.897 2.10814 -3.84841 0
M  V30 3914 H 386.715 0.241226 -0.668828 0
M  V30 3915 H 389.317 -0.0173037 -1.95492 0
M  V30 3916 H 388.021 0.642288 -4.05343 0
M  V30 3917 H 387.552 2.16628 -3.28384 0
M  V30 3918 H 389.567 3.3792 -3.63352 0
M  V30 3919 N 388.74 1.54641 0.303973 0
M  V30 3920 C 389.673 1.80263 1.3993 0
M  V30 3921 C 390.651 0.653657 1.48883 0
M  V30 3922 O 391.835 0.893284 1.6599 0
M  V30 3923 C 388.962 1.9367 2.77866 0
M  V30 3924 C 388.008 3.16078 2.86351 0
M  V30 3925 S 388.841 4.74219 2.4875 0
M  V30 3926 C 389.997 4.90558 3.88721 0
M  V30 3927 H 390.23 2.72886 1.17986 0
M  V30 3928 H 387.763 1.46014 0.501918 0
M  V30 3929 H 389.721 2.0208 3.57315 0
M  V30 3930 H 388.382 1.01991 2.9708 0
M  V30 3931 H 387.575 3.22252 3.87517 0
M  V30 3932 H 387.177 3.06099 2.14893 0
M  V30 3933 H 389.469 4.74398 4.83687 0
M  V30 3934 H 390.412 5.92651 3.87518 0
M  V30 3935 H 390.82 4.18728 3.78585 0
M  V30 3936 N 390.218 -0.567019 1.47046 0
M  V30 3937 C 391.181 -1.65696 1.58359 0
M  V30 3938 C 392.181 -1.54097 0.459441 0
M  V30 3939 O 393.371 -1.58432 0.724225 0
M  V30 3940 C 390.503 -3.05197 1.51879 0
M  V30 3941 H 391.696 -1.57019 2.5551 0
M  V30 3942 H 389.249 -0.786148 1.3509 0
M  V30 3943 H 389.984 -3.19417 0.560673 0
M  V30 3944 H 389.769 -3.15025 2.33455 0
M  V30 3945 H 391.259 -3.84511 1.62913 0
M  V30 3946 N 391.696 -1.35014 -0.812953 0
M  V30 3947 C 392.924 -1.31031 -1.6012 0
M  V30 3948 C 393.339 0.113558 -1.88458 0
M  V30 3949 O 392.696 1.06363 -1.48301 0
M  V30 3950 C 392.747 -2.10872 -2.93624 0
M  V30 3951 O 392.468 -3.47706 -2.66518 0
M  V30 3952 C 393.969 -2.14401 -3.88004 0
M  V30 3953 H 391.189 -0.45037 -0.497401 0
M  V30 3954 H 393.733 -1.77775 -1.01076 0
M  V30 3955 H 391.888 -1.67744 -3.492 0
M  V30 3956 H 392.302 -3.89097 -3.51715 0
M  V30 3957 H 393.776 -2.74669 -4.78812 0
M  V30 3958 H 394.253 -1.14105 -4.24119 0
M  V30 3959 H 394.859 -2.57662 -3.38364 0
M  V30 3960 N 393.175 1.03435 -1.18907 0
M  V30 3961 C 394.421 1.77005 -0.989798 0
M  V30 3962 C 394.754 1.88205 0.478816 0
M  V30 3963 O 394.029 1.39481 1.35556 0
M  V30 3964 C 394.312 3.19925 -1.65287 0
M  V30 3965 C 394.165 3.1663 -3.19477 0
M  V30 3966 C 395.484 4.18189 -1.37134 0
M  V30 3967 H 392.603 0.642538 -0.360991 0
M  V30 3968 H 395.245 1.20784 -1.46667 0
M  V30 3969 H 393.395 3.67929 -1.24741 0
M  V30 3970 H 395.067 2.76567 -3.692 0
M  V30 3971 H 393.31 2.54491 -3.51307 0
M  V30 3972 H 393.981 4.1758 -3.61013 0
M  V30 3973 H 396.457 3.78761 -1.72276 0
M  V30 3974 H 395.333 5.16394 -1.86087 0
M  V30 3975 H 395.594 4.41112 -0.295424 0
M  V30 3976 N 394.653 0.992116 1.22453 0
M  V30 3977 C 395.899 0.668523 1.91464 0
M  V30 3978 C 396.232 -0.797313 1.77078 0
M  V30 3979 O 395.507 -1.5765 1.13916 0
M  V30 3980 C 395.79 1.07424 3.43703 0
M  V30 3981 C 395.643 2.59857 3.67143 0
M  V30 3982 C 396.962 0.626891 4.35612 0
M  V30 3983 H 394.081 0.244341 0.695318 0
M  V30 3984 H 396.723 1.2355 1.44345 0
M  V30 3985 H 394.873 0.591816 3.83966 0
M  V30 3986 H 396.545 3.15764 3.3629 0
M  V30 3987 H 394.788 3.01961 3.11451 0
M  V30 3988 H 395.459 2.83296 4.73759 0
M  V30 3989 H 397.935 1.04125 4.02861 0
M  V30 3990 H 396.811 0.939076 5.40807 0
M  V30 3991 H 397.072 -0.472457 4.39568 0
M  V30 3992 N 396.131 -1.37776 0.765217 0
M  V30 3993 C 397.378 -1.99849 0.326588 0
M  V30 3994 C 397.706 -1.60746 -1.09504 0
M  V30 3995 O 396.961 -0.84202 -1.76659 0
M  V30 3996 C 397.26 -3.5504 0.410053 0
M  V30 3997 C 396.926 -4.13891 1.78899 0
M  V30 3998 C 395.588 -4.29678 2.16635 0
M  V30 3999 C 397.94 -4.46236 2.69301 0
M  V30 4000 C 395.268 -4.7511 3.44221 0
M  V30 4001 C 397.62 -4.93089 3.9629 0
M  V30 4002 C 396.284 -5.07082 4.34078 0
M  V30 4003 H 395.554 -0.7313 0.119507 0
M  V30 4004 H 398.201 -1.64645 0.977968 0
M  V30 4005 H 396.506 -3.90451 -0.324878 0
M  V30 4006 H 398.203 -4.00966 0.0520699 0
M  V30 4007 H 394.793 -4.02026 1.48569 0
M  V30 4008 H 398.977 -4.3363 2.41409 0
M  V30 4009 H 394.233 -4.84129 3.73402 0
M  V30 4010 H 398.407 -5.17084 4.66472 0
M  V30 4011 H 396.034 -5.42046 5.33001 0
M  V30 4012 N 397.609 -0.515225 -1.4894 0
M  V30 4013 C 398.855 0.0242508 -2.02785 0
M  V30 4014 C 399.188 1.35323 -1.39289 0
M  V30 4015 O 398.463 1.87041 -0.533469 0
M  V30 4016 C 398.746 0.16184 -3.59736 0
M  V30 4017 C 398.599 -1.19127 -4.33738 0
M  V30 4018 C 399.918 0.895719 -4.30888 0
M  V30 4019 H 397.037 0.00733914 -0.736963 0
M  V30 4020 H 399.679 -0.669395 -1.77818 0
M  V30 4021 H 397.829 0.752624 -3.8114 0
M  V30 4022 H 399.501 -1.82202 -4.23792 0
M  V30 4023 H 397.744 -1.77695 -3.95736 0
M  V30 4024 H 398.415 -1.04815 -5.41957 0
M  V30 4025 H 400.891 0.394528 -4.14225 0
M  V30 4026 H 399.767 0.960859 -5.40425 0
M  V30 4027 H 400.028 1.9427 -3.97129 0
M  V30 4028 N 399.087 1.5561 -0.249682 0
M  V30 4029 C 400.335 1.98618 0.373548 0
M  V30 4030 C 400.656 1.13919 1.58264 0
M  V30 4031 O 399.926 0.222637 1.94631 0
M  V30 4032 H 398.506 0.733571 0.141006 0
M  V30 4033 H 401.168 1.91748 -0.349117 0
M  V30 4034 H 400.264 3.04584 0.680796 0
M  V30 4035 N 400.565 -0.0233959 1.57583 0
M  V30 4036 C 401.811 -0.714119 1.89811 0
M  V30 4037 C 402.144 -1.74702 0.848113 0
M  V30 4038 O 401.419 -1.94023 -0.136135 0
M  V30 4039 C 401.702 -1.37853 3.32669 0
M  V30 4040 C 401.555 -0.358764 4.48367 0
M  V30 4041 C 402.874 -2.31101 3.7454 0
M  V30 4042 H 399.993 -0.25814 0.690314 0
M  V30 4043 H 402.635 0.0230927 1.89986 0
M  V30 4044 H 400.785 -2.00689 3.3265 0
M  V30 4045 H 402.457 0.268115 4.6052 0
M  V30 4046 H 400.7 0.321387 4.32608 0
M  V30 4047 H 401.371 -0.862242 5.45224 0
M  V30 4048 H 403.847 -1.78304 3.75961 0
M  V30 4049 H 402.723 -2.74567 4.75294 0
M  V30 4050 H 402.984 -3.18018 3.0711 0
M  V30 4051 N 402.043 -1.548 -0.295768 0
M  V30 4052 C 402.99 -1.86113 -1.36494 0
M  V30 4053 C 403.96 -0.7105 -1.50137 0
M  V30 4054 O 405.145 -0.959626 -1.64912 0
M  V30 4055 C 402.285 -2.11861 -2.72413 0
M  V30 4056 C 401.398 -3.39471 -2.67177 0
M  V30 4057 C 400.533 -3.55035 -3.95125 0
M  V30 4058 C 399.572 -4.76418 -3.84308 0
M  V30 4059 N 398.709 -4.8876 -5.04042 0
M  V30 4060 H 403.549 -2.77314 -1.09091 0
M  V30 4061 H 401.086 -1.37315 -0.52753 0
M  V30 4062 H 403.044 -2.24786 -3.51464 0
M  V30 4063 H 401.674 -1.2392 -2.98066 0
M  V30 4064 H 400.726 -3.35139 -1.79962 0
M  V30 4065 H 402.038 -4.28646 -2.55076 0
M  V30 4066 H 401.192 -3.67653 -4.82614 0
M  V30 4067 H 399.931 -2.64002 -4.10066 0
M  V30 4068 H 398.936 -4.63827 -2.95202 0
M  V30 4069 H 400.161 -5.68863 -3.70906 0
M  V30 4070 H 398.107 -4.00652 -5.19436 0
M  V30 4071 H 398.024 -5.71945 -4.94384 0
M  V30 4072 H 399.292 -5.0574 -5.93167 0
M  V30 4073 N 403.521 0.559213 -1.47345 0
M  V30 4074 C 404.751 1.33999 -1.57251 0
M  V30 4075 C 405.159 1.87905 -0.220978 0
M  V30 4076 O 404.502 1.65577 0.795617 0
M  V30 4077 C 404.564 2.54798 -2.53611 0
M  V30 4078 C 404.228 2.22192 -3.99349 0
M  V30 4079 C 405.225 1.79607 -4.87891 0
M  V30 4080 C 402.91 2.33613 -4.44669 0
M  V30 4081 C 404.904 1.48868 -6.19772 0
M  V30 4082 C 402.591 2.02487 -5.76578 0
M  V30 4083 C 403.589 1.60183 -6.63951 0
M  V30 4084 O 403.277 1.29451 -7.93409 0
M  V30 4085 H 403.009 0.414858 -0.533731 0
M  V30 4086 H 405.563 0.684465 -1.9366 0
M  V30 4087 H 403.793 3.23235 -2.12265 0
M  V30 4088 H 405.482 3.16873 -2.53666 0
M  V30 4089 H 406.248 1.70278 -4.54126 0
M  V30 4090 H 402.127 2.65501 -3.76869 0
M  V30 4091 H 405.671 1.15775 -6.87926 0
M  V30 4092 H 401.568 2.11448 -6.09885 0
M  V30 4093 H 402.336 1.43098 -8.05894 0
M  V30 4094 N 404.999 1.35443 0.805782 0
M  V30 4095 C 406.245 1.28952 1.56522 0
M  V30 4096 C 406.578 -0.135597 1.93726 0
M  V30 4097 O 405.853 -1.08516 1.61414 0
M  V30 4098 C 406.136 2.19678 2.85331 0
M  V30 4099 C 405.989 3.7081 2.54598 0
M  V30 4100 C 407.308 2.09495 3.8704 0
M  V30 4101 H 404.427 0.469764 0.567883 0
M  V30 4102 H 407.069 1.65851 0.927001 0
M  V30 4103 H 405.219 1.8834 3.39795 0
M  V30 4104 H 406.891 4.12593 2.06312 0
M  V30 4105 H 405.134 3.91051 1.8778 0
M  V30 4106 H 405.805 4.29679 3.46525 0
M  V30 4107 H 408.281 2.37045 3.41978 0
M  V30 4108 H 407.157 2.75173 4.74943 0
M  V30 4109 H 407.418 1.07714 4.28777 0
M  V30 4110 N 406.477 -1.02803 1.19454 0
M  V30 4111 C 407.425 -2.13213 0.929673 0
M  V30 4112 C 408.419 -1.69011 -0.114806 0
M  V30 4113 O 409.625 -1.79967 0.0345147 0
M  V30 4114 H 406 -0.69662 0.28324 0
M  V30 4115 H 407.971 -2.32744 1.86743 0
M  V30 4116 C 406.72 -3.4429 0.485797 0
M  V30 4117 H 406.043 -3.7872 1.28105 0
M  V30 4118 H 407.483 -4.22638 0.339582 0
M  V30 4119 C 405.942 -3.27258 -0.800244 0
M  V30 4120 O 406.472 -3.55967 -1.86146 0
M  V30 4121 N 404.678 -2.80545 -0.75781 0
M  V30 4122 H 404.225 -2.57382 0.106039 0
M  V30 4123 H 404.183 -2.6953 -1.61867 0
M  V30 4124 N 407.956 -0.998596 -1.21925 0
M  V30 4125 C 408.903 -0.553621 -2.24062 0
M  V30 4126 C 409.873 0.416999 -1.6078 0
M  V30 4127 O 411.058 0.320482 -1.88089 0
M  V30 4128 C 408.198 0.119959 -3.44891 0
M  V30 4129 C 407.311 -0.893077 -4.22668 0
M  V30 4130 C 406.446 -0.192424 -5.30851 0
M  V30 4131 C 405.485 -1.19344 -6.00353 0
M  V30 4132 N 404.622 -0.520707 -7.00166 0
M  V30 4133 H 409.462 -1.4293 -2.61486 0
M  V30 4134 H 406.999 -0.715838 -1.28507 0
M  V30 4135 H 408.957 0.527459 -4.13852 0
M  V30 4136 H 407.587 0.959389 -3.08214 0
M  V30 4137 H 406.639 -1.41886 -3.52948 0
M  V30 4138 H 407.951 -1.65512 -4.70539 0
M  V30 4139 H 407.105 0.271515 -6.06092 0
M  V30 4140 H 405.844 0.602075 -4.83969 0
M  V30 4141 H 404.849 -1.66795 -5.23889 0
M  V30 4142 H 406.074 -1.98891 -6.49322 0
M  V30 4143 H 404.02 0.254252 -6.55507 0
M  V30 4144 H 403.937 -1.2211 -7.46073 0
M  V30 4145 H 405.205 -0.0797596 -7.79459 0
M  V30 4146 N 409.434 1.37368 -0.772513 0
M  V30 4147 C 410.681 1.99673 -0.337182 0
M  V30 4148 C 411.009 1.61324 1.0865 0
M  V30 4149 O 410.264 0.851377 1.7621 0
M  V30 4150 C 410.563 3.54817 -0.428876 0
M  V30 4151 C 410.229 4.12936 -1.81092 0
M  V30 4152 C 408.891 4.28523 -2.1891 0
M  V30 4153 C 411.243 4.44801 -2.71664 0
M  V30 4154 C 408.571 4.73277 -3.46735 0
M  V30 4155 C 410.923 4.90981 -3.98899 0
M  V30 4156 C 409.587 5.04773 -4.36761 0
M  V30 4157 H 408.857 0.730656 -0.123384 0
M  V30 4158 H 411.504 1.64124 -0.986686 0
M  V30 4159 H 409.809 3.90618 0.304167 0
M  V30 4160 H 411.506 4.00933 -0.0733334 0
M  V30 4161 H 408.096 4.01233 -1.50699 0
M  V30 4162 H 412.28 4.32344 -2.43706 0
M  V30 4163 H 407.536 4.82142 -3.75964 0
M  V30 4164 H 411.71 5.14603 -4.69208 0
M  V30 4165 H 409.337 5.39211 -5.35868 0
M  V30 4166 N 410.912 0.523116 1.48665 0
M  V30 4167 C 411.875 -0.232592 2.28017 0
M  V30 4168 C 412.875 -0.874021 1.34972 0
M  V30 4169 O 414.065 -0.735132 1.57929 0
M  V30 4170 C 411.197 -1.33586 3.13636 0
M  V30 4171 H 412.39 0.464008 2.96289 0
M  V30 4172 H 409.943 0.278816 1.53793 0
M  V30 4173 H 410.678 -2.06593 2.4998 0
M  V30 4174 H 410.463 -0.881125 3.82071 0
M  V30 4175 H 411.953 -1.86759 3.73511 0
M  V30 4176 N 412.39 -1.55475 0.257931 0
M  V30 4177 C 413.32 -2.24815 -0.630912 0
M  V30 4178 C 414.301 -1.23224 -1.17259 0
M  V30 4179 O 415.486 -1.51904 -1.20991 0
M  V30 4180 C 412.616 -2.95609 -1.82298 0
M  V30 4181 C 411.57 -4.03982 -1.41359 0
M  V30 4182 C 410.896 -4.6226 -2.68738 0
M  V30 4183 C 412.196 -5.19109 -0.57648 0
M  V30 4184 H 413.89 -2.99354 -0.0526878 0
M  V30 4185 H 411.436 -1.4398 -0.023901 0
M  V30 4186 H 413.389 -3.42822 -2.45054 0
M  V30 4187 H 412.113 -2.18577 -2.42676 0
M  V30 4188 H 410.772 -3.57555 -0.809324 0
M  V30 4189 H 410.42 -3.81915 -3.27338 0
M  V30 4190 H 410.12 -5.35424 -2.42065 0
M  V30 4191 H 411.644 -5.12212 -3.32372 0
M  V30 4192 H 413.058 -5.62479 -1.10861 0
M  V30 4193 H 411.455 -5.98729 -0.405351 0
M  V30 4194 H 412.525 -4.83174 0.408776 0
M  V30 4195 N 413.868 0.0150385 -1.57593 0
M  V30 4196 C 415.114 0.704043 -1.90187 0
M  V30 4197 C 415.447 1.74249 -0.857366 0
M  V30 4198 O 414.722 1.94092 0.125843 0
M  V30 4199 C 415.005 1.36087 -3.33395 0
M  V30 4200 C 414.858 0.334981 -4.48551 0
M  V30 4201 C 416.177 2.29112 -3.7576 0
M  V30 4202 H 413.296 0.254475 -0.691673 0
M  V30 4203 H 415.938 -0.0331678 -1.89971 0
M  V30 4204 H 414.088 1.98922 -3.3371 0
M  V30 4205 H 415.76 -0.292534 -4.60372 0
M  V30 4206 H 414.003 -0.344325 -4.32431 0
M  V30 4207 H 414.674 0.833316 -5.45674 0
M  V30 4208 H 417.15 1.76308 -3.76902 0
M  V30 4209 H 416.026 2.72043 -4.76743 0
M  V30 4210 H 416.287 3.16385 -3.08793 0
M  V30 4211 N 415.346 1.54954 0.287554 0
M  V30 4212 C 416.593 1.74873 1.02106 0
M  V30 4213 C 416.921 0.541829 1.86801 0
M  V30 4214 O 416.176 -0.475992 1.89823 0
M  V30 4215 C 416.475 2.99833 1.94512 0
M  V30 4216 C 416.141 4.33029 1.25686 0
M  V30 4217 C 414.803 4.69233 1.06649 0
M  V30 4218 C 417.155 5.15542 0.765913 0
M  V30 4219 C 414.483 5.85518 0.372222 0
M  V30 4220 C 416.835 6.32542 0.0853101 0
M  V30 4221 C 415.499 6.67398 -0.1169 0
M  V30 4222 H 414.769 0.639906 0.373632 0
M  V30 4223 H 417.416 1.89219 0.294665 0
M  V30 4224 H 415.721 2.80325 2.73725 0
M  V30 4225 H 417.418 3.1244 2.51361 0
M  V30 4226 H 414.008 4.04564 1.41512 0
M  V30 4227 H 418.192 4.88059 0.90066 0
M  V30 4228 H 413.448 6.11057 0.204695 0
M  V30 4229 H 417.622 6.95741 -0.302936 0
M  V30 4230 H 415.249 7.57357 -0.656859 0
M  V30 4231 N 416.824 -0.551391 1.4764 0
M  V30 4232 C 417.754 -1.66757 1.63445 0
M  V30 4233 C 418.735 -1.63077 0.483742 0
M  V30 4234 O 419.92 -1.80607 0.71377 0
M  V30 4235 C 417.05 -3.05387 1.65396 0
M  V30 4236 C 416.004 -3.23918 2.79752 0
M  V30 4237 C 415.33 -4.63393 2.66779 0
M  V30 4238 C 416.63 -3.08735 4.21284 0
M  V30 4239 H 418.324 -1.53786 2.56886 0
M  V30 4240 H 415.87 -0.738415 1.23626 0
M  V30 4241 H 417.823 -3.83325 1.75043 0
M  V30 4242 H 416.547 -3.19332 0.685195 0
M  V30 4243 H 415.206 -2.48391 2.69625 0
M  V30 4244 H 414.854 -4.74144 1.67918 0
M  V30 4245 H 414.554 -4.7674 3.43501 0
M  V30 4246 H 416.078 -5.43458 2.78364 0
M  V30 4247 H 417.492 -3.76484 4.32357 0
M  V30 4248 H 415.889 -3.33588 4.98838 0
M  V30 4249 H 416.959 -2.0541 4.39243 0
M  V30 4250 N 418.302 -1.35869 -0.798587 0
M  V30 4251 C 419.55 -1.29332 -1.55298 0
M  V30 4252 C 419.871 0.129729 -1.94568 0
M  V30 4253 O 419.141 1.06796 -1.6423 0
M  V30 4254 H 417.721 -0.475737 -0.57592 0
M  V30 4255 H 420.383 -1.70062 -0.952093 0
M  V30 4256 H 419.479 -1.91458 -2.46476 0
M  V30 4257 N 419.78 1.02168 -1.19998 0
M  V30 4258 C 421.02 1.77232 -1.01825 0
M  V30 4259 C 421.384 1.86833 0.442428 0
M  V30 4260 O 422.585 2.58293 0.744189 0
M  V30 4261 C 420.856 3.15601 -1.67722 0
M  V30 4262 S 422.415 4.06765 -1.64584 0
M  V30 4263 H 419.233 0.610021 -0.365233 0
M  V30 4264 H 421.835 1.22368 -1.52467 0
M  V30 4265 H 420.539 3.06235 -2.73218 0
M  V30 4266 H 420.07 3.7554 -1.17189 0
M  V30 4267 H 422.085 4.91586 -0.67511 0
M  V30 4268 N 421.258 1.00505 1.21394 0
M  V30 4269 C 422.504 0.688793 1.90745 0
M  V30 4270 C 422.837 -0.778486 1.77914 0
M  V30 4271 O 422.112 -1.56433 1.15581 0
M  V30 4272 C 422.395 1.11063 3.42545 0
M  V30 4273 C 422.248 2.63737 3.64367 0
M  V30 4274 C 423.567 0.673059 4.34923 0
M  V30 4275 H 420.686 0.251702 0.692687 0
M  V30 4276 H 423.328 1.25074 1.43026 0
M  V30 4277 H 421.478 0.632508 3.83317 0
M  V30 4278 H 423.15 3.19313 3.32922 0
M  V30 4279 H 421.393 3.05248 3.08231 0
M  V30 4280 H 422.064 2.88305 4.70727 0
M  V30 4281 H 424.54 1.08392 4.01734 0
M  V30 4282 H 423.416 0.996383 5.39781 0
M  V30 4283 H 423.677 -0.425808 4.40045 0
M  V30 4284 N 422.737 -1.36956 0.779787 0
M  V30 4285 C 423.986 -1.98738 0.344405 0
M  V30 4286 C 424.299 -1.62596 -1.08728 0
M  V30 4287 O 425.505 -2.1754 -1.62445 0
M  V30 4288 C 423.961 -3.5544 0.564829 0
M  V30 4289 C 423.569 -4.00514 2.0073 0
M  V30 4290 C 425.313 -4.24059 0.193471 0
M  V30 4291 C 423.22 -5.49957 2.17489 0
M  V30 4292 H 422.15 -0.743561 0.12503 0
M  V30 4293 H 424.801 -1.56381 0.960057 0
M  V30 4294 H 423.183 -3.95817 -0.120397 0
M  V30 4295 H 424.357 -3.71362 2.72814 0
M  V30 4296 H 422.672 -3.44703 2.336 0
M  V30 4297 H 425.269 -5.33874 0.297097 0
M  V30 4298 H 425.612 -4.07378 -0.857263 0
M  V30 4299 H 426.145 -3.89012 0.831556 0
M  V30 4300 H 422.884 -5.71574 3.2091 0
M  V30 4301 H 422.404 -5.80767 1.49899 0
M  V30 4302 H 424.083 -6.16043 1.97738 0
M  V30 4303 N 424.215 -0.530993 -1.48385 0
M  V30 4304 C 425.145 0.219985 -2.32461 0
M  V30 4305 C 426.126 0.934111 -1.42156 0
M  V30 4306 O 427.311 0.919694 -1.71042 0
M  V30 4307 C 424.441 1.26674 -3.23375 0
M  V30 4308 C 423.395 0.67069 -4.22712 0
M  V30 4309 C 422.721 1.82017 -5.02766 0
M  V30 4310 C 424.021 -0.358268 -5.2107 0
M  V30 4311 H 425.715 -0.48187 -2.95497 0
M  V30 4312 H 423.261 -0.233182 -1.42099 0
M  V30 4313 H 425.214 1.80006 -3.81019 0
M  V30 4314 H 423.938 1.99818 -2.58341 0
M  V30 4315 H 422.597 0.158878 -3.66256 0
M  V30 4316 H 422.245 2.54002 -4.34157 0
M  V30 4317 H 421.945 1.42727 -5.70003 0
M  V30 4318 H 423.469 2.35725 -5.63264 0
M  V30 4319 H 424.883 0.0880081 -5.73232 0
M  V30 4320 H 423.28 -0.66861 -5.96364 0
M  V30 4321 H 424.35 -1.26367 -4.68145 0
M  V30 4322 N 425.693 1.55336 -0.266172 0
M  V30 4323 C 426.918 2.04258 0.359661 0
M  V30 4324 C 427.343 1.14359 1.49344 0
M  V30 4325 O 426.701 0.140369 1.80756 0
M  V30 4326 C 426.749 3.50997 0.826635 0
M  V30 4327 O 425.853 3.64204 1.93466 0
M  V30 4328 H 425.194 0.659668 0.075727 0
M  V30 4329 H 427.724 2.00694 -0.39786 0
M  V30 4330 H 427.734 3.9219 1.12477 0
M  V30 4331 H 426.409 4.159 -0.00293032 0
M  V30 4332 H 424.986 3.34913 1.63974 0
M  V30 4333 N 427.171 -0.0066808 1.57599 0
M  V30 4334 C 428.42 -0.692078 1.89455 0
M  V30 4335 C 428.733 -1.75306 0.867586 0
M  V30 4336 O 429.939 -2.49262 1.07614 0
M  V30 4337 C 428.395 -1.2821 3.36289 0
M  V30 4338 C 428.003 -0.256291 4.47266 0
M  V30 4339 C 429.747 -1.94608 3.77264 0
M  V30 4340 C 427.654 -0.855927 5.85173 0
M  V30 4341 H 426.584 -0.262252 0.706923 0
M  V30 4342 H 429.235 0.052769 1.83424 0
M  V30 4343 H 427.617 -2.0774 3.37135 0
M  V30 4344 H 428.791 0.513923 4.57925 0
M  V30 4345 H 427.106 0.306862 4.15268 0
M  V30 4346 H 429.703 -2.40364 4.77629 0
M  V30 4347 H 430.046 -2.77382 3.10427 0
M  V30 4348 H 430.579 -1.21822 3.78688 0
M  V30 4349 H 427.318 -0.0671161 6.55466 0
M  V30 4350 H 426.838 -1.59546 5.78191 0
M  V30 4351 H 428.517 -1.35658 6.32618 0
M  V30 4352 N 428.649 -1.55105 -0.279332 0
M  V30 4353 C 429.579 -1.90557 -1.34945 0
M  V30 4354 C 430.56 -0.766738 -1.51839 0
M  V30 4355 O 431.745 -1.02434 -1.64988 0
M  V30 4356 C 428.875 -2.17193 -2.71006 0
M  V30 4357 C 427.829 -3.33021 -2.68851 0
M  V30 4358 C 427.155 -3.45123 -4.08405 0
M  V30 4359 C 428.455 -4.69578 -2.28678 0
M  V30 4360 H 430.149 -2.80188 -1.05522 0
M  V30 4361 H 427.695 -1.34811 -0.506173 0
M  V30 4362 H 429.648 -2.40581 -3.45975 0
M  V30 4363 H 428.372 -1.24355 -3.01999 0
M  V30 4364 H 427.031 -3.0959 -1.9634 0
M  V30 4365 H 426.679 -2.49762 -4.3661 0
M  V30 4366 H 426.379 -4.22995 -4.07859 0
M  V30 4367 H 427.903 -3.70796 -4.85121 0
M  V30 4368 H 429.317 -4.92553 -2.93368 0
M  V30 4369 H 427.714 -5.5032 -2.39306 0
M  V30 4370 H 428.784 -4.68828 -1.23807 0
M  V30 4371 N 430.127 0.543554 -1.4793 0
M  V30 4372 C 431.09 1.63156 -1.60975 0
M  V30 4373 C 432.09 1.53346 -0.483899 0
M  V30 4374 O 433.28 1.5726 -0.749339 0
M  V30 4375 C 430.412 3.02743 -1.56716 0
M  V30 4376 H 431.605 1.52934 -2.57975 0
M  V30 4377 H 429.158 0.764557 -1.36324 0
M  V30 4378 H 429.893 3.18484 -0.611418 0
M  V30 4379 H 429.678 3.11272 -2.38438 0
M  V30 4380 H 431.168 3.81871 -1.6901 0
M  V30 4381 N 431.605 1.3629 0.791371 0
M  V30 4382 C 432.854 1.29742 1.54434 0
M  V30 4383 C 433.167 -0.121729 1.95221 0
M  V30 4384 O 434.373 -0.309579 2.69729 0
M  V30 4385 C 432.829 2.27623 2.78776 0
M  V30 4386 C 432.437 3.74963 2.45166 0
M  V30 4387 C 434.181 2.30047 3.56761 0
M  V30 4388 C 432.088 4.64626 3.65891 0
M  V30 4389 H 431.018 0.482113 0.579727 0
M  V30 4390 H 433.669 1.61642 0.868565 0
M  V30 4391 H 432.051 1.88714 3.48142 0
M  V30 4392 H 433.225 4.22596 1.83709 0
M  V30 4393 H 431.54 3.75295 1.80396 0
M  V30 4394 H 434.137 2.94247 4.46456 0
M  V30 4395 H 434.48 1.30846 3.95203 0
M  V30 4396 H 435.013 2.67563 2.94372 0
M  V30 4397 H 431.752 5.64883 3.32547 0
M  V30 4398 H 431.272 4.2171 4.26521 0
M  V30 4399 H 432.951 4.80801 4.32943 0
M  V30 4400 N 433.083 -1.0153 1.20538 0
M  V30 4401 C 434.313 -1.78487 1.04048 0
M  V30 4402 C 434.721 -1.84631 -0.413292 0
M  V30 4403 O 434.064 -1.29919 -1.29872 0
M  V30 4404 C 434.126 -3.24367 1.55003 0
M  V30 4405 C 433.79 -3.41827 3.0332 0
M  V30 4406 C 434.787 -3.30941 4.00966 0
M  V30 4407 C 432.472 -3.67602 3.42307 0
M  V30 4408 C 434.466 -3.45577 5.35589 0
M  V30 4409 C 432.153 -3.81881 4.77085 0
M  V30 4410 C 433.151 -3.70874 5.73534 0
M  V30 4411 O 432.839 -3.84714 7.05868 0
M  V30 4412 H 432.571 -0.568108 0.366373 0
M  V30 4413 H 435.125 -1.28677 1.60098 0
M  V30 4414 H 433.355 -3.75266 0.933397 0
M  V30 4415 H 435.044 -3.82963 1.34514 0
M  V30 4416 H 435.81 -3.10964 3.72191 0
M  V30 4417 H 431.689 -3.75256 2.67776 0
M  V30 4418 H 435.233 -3.36902 6.10854 0
M  V30 4419 H 431.13 -4.01359 5.0555 0
M  V30 4420 H 431.898 -4.01724 7.13134 0
M  V30 4421 N 434.561 -1.01147 -1.20859 0
M  V30 4422 C 435.524 -0.582224 -2.21682 0
M  V30 4423 C 436.524 0.344887 -1.57058 0
M  V30 4424 O 437.714 0.134281 -1.73682 0
M  V30 4425 C 434.846 0.150496 -3.40568 0
M  V30 4426 H 436.039 -1.47408 -2.61172 0
M  V30 4427 H 433.592 -0.800695 -1.34233 0
M  V30 4428 H 434.327 1.0575 -3.06574 0
M  V30 4429 H 434.112 -0.515444 -3.88697 0
M  V30 4430 H 435.602 0.438344 -4.15293 0
M  V30 4431 N 436.039 1.36541 -0.78704 0
M  V30 4432 C 437.287 1.98911 -0.357633 0
M  V30 4433 C 437.608 1.62778 1.07371 0
M  V30 4434 O 436.878 0.900612 1.73971 0
M  V30 4435 H 435.458 0.735734 -0.129246 0
M  V30 4436 H 438.12 1.66776 -1.00855 0
M  V30 4437 H 437.216 3.08874 -0.447549 0
M  V30 4438 N 437.518 0.538854 1.48102 0
M  V30 4439 C 438.764 0.00801365 2.02798 0
M  V30 4440 C 439.097 -1.3309 1.41424 0
M  V30 4441 O 438.372 -1.86169 0.563158 0
M  V30 4442 C 438.655 -0.104589 3.59948 0
M  V30 4443 C 438.508 1.26012 4.31788 0
M  V30 4444 C 439.827 -0.827055 4.32259 0
M  V30 4445 H 436.946 0.00438624 0.736987 0
M  V30 4446 H 439.588 0.6976 1.7673 0
M  V30 4447 H 437.738 -0.691893 3.82289 0
M  V30 4448 H 439.41 1.88922 4.2084 0
M  V30 4449 H 437.653 1.83968 3.92859 0
M  V30 4450 H 438.324 1.13424 5.40221 0
M  V30 4451 H 440.8 -0.328578 4.14801 0
M  V30 4452 H 439.676 -0.87476 5.41885 0
M  V30 4453 H 439.937 -1.87927 4.0017 0
M  V30 4454 N 438.996 -1.55193 0.274407 0
M  V30 4455 C 440.245 -1.98758 -0.343213 0
M  V30 4456 C 440.558 -1.16624 -1.5703 0
M  V30 4457 O 441.764 -1.5033 -2.26082 0
M  V30 4458 C 440.22 -3.53759 -0.661996 0
M  V30 4459 C 439.828 -4.4467 0.54524 0
M  V30 4460 C 441.572 -4.05916 -1.24228 0
M  V30 4461 C 439.479 -5.91058 0.201084 0
M  V30 4462 H 438.409 -0.742353 -0.132014 0
M  V30 4463 H 441.06 -1.79545 0.378948 0
M  V30 4464 H 439.442 -3.68772 -1.44304 0
M  V30 4465 H 440.616 -4.41426 1.32212 0
M  V30 4466 H 438.931 -4.03143 1.04232 0
M  V30 4467 H 441.528 -5.12831 -1.51357 0
M  V30 4468 H 441.871 -3.54908 -2.17592 0
M  V30 4469 H 442.404 -3.9434 -0.523542 0
M  V30 4470 H 439.143 -6.46161 1.10258 0
M  V30 4471 H 438.663 -5.97373 -0.539045 0
M  V30 4472 H 440.342 -6.46669 -0.206954 0
M  V30 4473 N 440.474 -0.00167713 -1.576 0
M  V30 4474 C 441.421 0.989195 -2.08527 0
M  V30 4475 C 442.391 1.34031 -0.981065 0
M  V30 4476 O 443.576 1.43839 -1.2536 0
M  V30 4477 C 440.716 2.27537 -2.59463 0
M  V30 4478 C 439.829 1.98314 -3.83791 0
M  V30 4479 C 438.964 3.21025 -4.23222 0
M  V30 4480 C 438.003 2.87495 -5.40382 0
M  V30 4481 N 437.14 4.02749 -5.75098 0
M  V30 4482 H 441.98 0.547973 -2.92919 0
M  V30 4483 H 439.517 0.258917 -1.44803 0
M  V30 4484 H 441.475 3.02729 -2.87073 0
M  V30 4485 H 440.105 2.69325 -1.77943 0
M  V30 4486 H 439.157 1.13482 -3.63078 0
M  V30 4487 H 440.469 1.69601 -4.69081 0
M  V30 4488 H 439.623 4.04561 -4.52123 0
M  V30 4489 H 438.362 3.52877 -3.36644 0
M  V30 4490 H 437.367 2.02367 -5.11202 0
M  V30 4491 H 438.592 2.56889 -6.28637 0
M  V30 4492 H 436.538 4.34494 -4.91478 0
M  V30 4493 H 436.455 3.77566 -6.54966 0
M  V30 4494 H 437.723 4.87068 -6.08592 0
M  V30 4495 N 441.952 1.55251 0.271103 0
M  V30 4496 C 443.177 1.80306 1.02491 0
M  V30 4497 C 443.602 0.575457 1.79081 0
M  V30 4498 O 442.96 -0.474987 1.74967 0
M  V30 4499 C 443.008 3.02832 1.95768 0
M  V30 4500 O 442.112 2.78051 3.04568 0
M  V30 4501 H 441.453 0.595896 0.292923 0
M  V30 4502 H 443.983 2.02397 0.299436 0
M  V30 4503 H 443.993 3.31616 2.37686 0
M  V30 4504 H 442.668 3.9183 1.39434 0
M  V30 4505 H 441.245 2.60369 2.66951 0
M  V30 4506 N 443.43 -0.535701 1.48216 0
M  V30 4507 C 444.393 -1.623 1.61838 0
M  V30 4508 C 445.393 -1.53087 0.492024 0
M  V30 4509 O 446.583 -1.5686 0.757668 0
M  V30 4510 C 443.715 -3.01907 1.58319 0
M  V30 4511 H 444.908 -1.51564 2.58783 0
M  V30 4512 H 442.461 -0.757317 1.36727 0
M  V30 4513 H 443.196 -3.18155 0.628299 0
M  V30 4514 H 442.981 -3.10003 2.40085 0
M  V30 4515 H 444.471 -3.80969 1.71033 0
M  V30 4516 N 444.908 -1.36708 -0.784132 0
M  V30 4517 C 446.155 -1.31231 -1.54222 0
M  V30 4518 C 446.483 0.106864 -1.94206 0
M  V30 4519 O 445.738 1.07734 -1.63376 0
M  V30 4520 C 446.037 -2.18571 -2.82774 0
M  V30 4521 C 445.703 -3.67039 -2.61903 0
M  V30 4522 C 444.365 -4.07503 -2.55919 0
M  V30 4523 C 446.717 -4.61149 -2.4288 0
M  V30 4524 C 444.045 -5.40211 -2.28886 0
M  V30 4525 C 446.397 -5.94081 -2.17373 0
M  V30 4526 C 445.061 -6.33664 -2.09825 0
M  V30 4527 H 444.331 -0.48021 -0.56434 0
M  V30 4528 H 446.978 -1.68807 -0.904233 0
M  V30 4529 H 445.283 -1.73949 -3.51068 0
M  V30 4530 H 446.98 -2.11655 -3.40592 0
M  V30 4531 H 443.57 -3.34941 -2.67418 0
M  V30 4532 H 447.754 -4.30756 -2.46501 0
M  V30 4533 H 443.01 -5.69855 -2.21529 0
M  V30 4534 H 447.184 -6.66566 -2.01649 0
M  V30 4535 H 444.811 -7.36423 -1.88641 0
M  V30 4536 N 446.386 1.0089 -1.21074 0
M  V30 4537 C 447.663 1.71834 -0.934469 0
M  V30 4538 C 448.043 2.0368 0.554753 0
M  V30 4539 O 447.391 1.70742 1.51854 0
M  V30 4540 C 447.601 2.98061 -1.8155 0
M  V30 4541 C 448.949 3.7117 -2.06199 0
M  V30 4542 O 449.973 3.08034 -1.78867 0
M  V30 4543 O 448.832 4.84721 -2.52404 0
M  V30 4544 H 445.926 0.749253 -0.35007 0
M  V30 4545 H 448.472 1.06668 -1.31985 0
M  V30 4546 H 447.244 2.70908 -2.82355 0
M  V30 4547 H 446.867 3.70968 -1.43068 0
M  V30 4548 N 447.864 1.01787 1.20321 0
M  V30 4549 C 449.275 0.739307 1.71438 0
M  V30 4550 C 449.626 -0.742041 1.81627 0
M  V30 4551 O 448.751 -1.57903 1.47971 0
M  V30 4552 C 449.346 1.33538 3.11373 0
M  V30 4553 C 447.905 1.10566 3.59795 0
M  V30 4554 C 447.052 1.44028 2.36962 0
M  V30 4555 H 450.003 1.18718 1.05317 0
M  V30 4556 H 450.024 0.726611 3.73498 0
M  V30 4557 H 449.536 2.41352 3.03926 0
M  V30 4558 H 447.637 0.0452405 3.72573 0
M  V30 4559 H 447.75 1.78661 4.44542 0
M  V30 4560 H 446.114 0.85933 2.39766 0
M  V30 4561 H 446.897 2.52901 2.32155 0
M  V30 4562 N 449.342 -1.36122 0.79427 0
M  V30 4563 C 450.753 -1.81646 0.431446 0
M  V30 4564 C 451.104 -1.66043 -1.04518 0
M  V30 4565 O 450.229 -1.1841 -1.8113 0
M  V30 4566 C 450.824 -3.29785 0.776341 0
M  V30 4567 C 449.383 -3.73501 0.466282 0
M  V30 4568 C 448.53 -2.58313 1.00844 0
M  V30 4569 H 451.481 -1.24274 0.986995 0
M  V30 4570 H 451.502 -3.80437 0.0692413 0
M  V30 4571 H 451.014 -3.4111 1.8511 0
M  V30 4572 H 449.115 -3.67733 -0.600245 0
M  V30 4573 H 449.228 -4.68754 0.990288 0
M  V30 4574 H 447.592 -2.5102 0.431406 0
M  V30 4575 H 448.375 -2.72421 2.08906 0
M  V30 4576 N 450.82 -0.546701 -1.47814 0
M  V30 4577 C 451.768 0.220048 -2.31557 0
M  V30 4578 C 452.762 0.919472 -1.42275 0
M  V30 4579 O 453.968 0.841953 -1.59095 0
M  V30 4580 H 450.343 0.0898334 -0.746615 0
M  V30 4581 H 452.314 -0.505589 -2.94086 0
M  V30 4582 C 451.063 1.24353 -3.24702 0
M  V30 4583 H 450.386 0.714758 -3.93359 0
M  V30 4584 H 451.826 1.75112 -3.8615 0
M  V30 4585 C 450.285 2.28593 -2.47481 0
M  V30 4586 O 450.815 3.35334 -2.21165 0
M  V30 4587 N 449.021 2.02244 -2.08676 0
M  V30 4588 H 448.568 1.15455 -2.30278 0
M  V30 4589 H 448.526 2.72207 -1.57323 0
M  V30 4590 N 452.299 1.55045 -0.282633 0
M  V30 4591 C 453.546 1.9976 0.33199 0
M  V30 4592 C 453.874 1.17105 1.55295 0
M  V30 4593 O 453.129 0.230599 1.94337 0
M  V30 4594 C 453.428 3.49422 0.750938 0
M  V30 4595 C 453.094 4.4941 -0.366228 0
M  V30 4596 C 451.756 4.76471 -0.672964 0
M  V30 4597 C 454.108 5.09054 -1.11864 0
M  V30 4598 C 451.436 5.60442 -1.73556 0
M  V30 4599 C 453.788 5.9418 -2.17102 0
M  V30 4600 C 452.452 6.19558 -2.48402 0
M  V30 4601 H 451.722 0.730974 0.121484 0
M  V30 4602 H 454.369 1.8732 -0.39791 0
M  V30 4603 H 452.674 3.59377 1.56063 0
M  V30 4604 H 454.371 3.81432 1.23736 0
M  V30 4605 H 450.961 4.2844 -0.117041 0
M  V30 4606 H 455.145 4.88165 -0.894925 0
M  V30 4607 H 450.401 5.78349 -1.983 0
M  V30 4608 H 454.575 6.39427 -2.75873 0
M  V30 4609 H 452.202 6.84417 -3.30874 0
M  V30 4610 N 453.777 0.010035 1.57597 0
M  V30 4611 C 455.188 -0.531426 1.78977 0
M  V30 4612 C 455.539 -1.73375 0.918454 0
M  V30 4613 O 454.664 -2.16047 0.123635 0
M  V30 4614 C 455.259 -0.97086 3.24592 0
M  V30 4615 C 453.818 -1.45756 3.47033 0
M  V30 4616 C 452.965 -0.413384 2.74201 0
M  V30 4617 H 455.916 0.236166 1.56933 0
M  V30 4618 H 455.937 -1.83633 3.33255 0
M  V30 4619 H 455.449 -0.0955893 3.87982 0
M  V30 4620 H 453.55 -2.35339 2.88871 0
M  V30 4621 H 453.663 -1.4781 4.55729 0
M  V30 4622 H 452.027 -0.877266 2.39115 0
M  V30 4623 H 452.81 0.453092 3.40297 0
M  V30 4624 N 455.255 -1.55392 -0.262866 0
M  V30 4625 C 456.504 -1.75679 -0.990943 0
M  V30 4626 C 456.817 -0.57097 -1.87081 0
M  V30 4627 O 458.023 -0.656486 -2.63444 0
M  V30 4628 C 456.479 -3.10964 -1.81188 0
M  V30 4629 C 456.087 -4.37146 -0.980188 0
M  V30 4630 C 457.831 -3.40597 -2.53365 0
M  V30 4631 C 455.738 -5.63466 -1.7961 0
M  V30 4632 H 454.668 -0.654868 -0.373716 0
M  V30 4633 H 457.319 -1.81841 -0.246203 0
M  V30 4634 H 455.701 -2.98867 -2.59797 0
M  V30 4635 H 456.875 -4.60187 -0.237558 0
M  V30 4636 H 455.19 -4.14731 -0.372497 0
M  V30 4637 H 457.787 -4.32186 -3.14833 0
M  V30 4638 H 458.13 -2.6119 -3.24169 0
M  V30 4639 H 458.663 -3.53838 -1.81779 0
M  V30 4640 H 455.402 -6.4565 -1.13209 0
M  V30 4641 H 454.922 -5.44552 -2.51443 0
M  V30 4642 H 456.601 -6.02139 -2.36723 0
M  V30 4643 N 456.733 0.527833 -1.48498 0
M  V30 4644 C 457.973 1.29401 -1.58224 0
M  V30 4645 C 458.337 1.90348 -0.251327 0
M  V30 4646 O 459.538 2.67868 -0.223588 0
M  V30 4647 C 457.809 2.35266 -2.69044 0
M  V30 4648 S 459.368 3.2158 -2.98549 0
M  V30 4649 H 456.186 0.440138 -0.558391 0
M  V30 4650 H 458.788 0.601079 -1.8603 0
M  V30 4651 H 457.492 1.88975 -3.64303 0
M  V30 4652 H 457.023 3.09263 -2.43146 0
M  V30 4653 H 459.038 4.35391 -2.38011 0
M  V30 4654 N 458.211 1.37122 0.776871 0
M  V30 4655 C 459.141 1.35164 1.90402 0
M  V30 4656 C 460.122 0.221069 1.68657 0
M  V30 4657 O 461.307 0.420642 1.8959 0
M  V30 4658 C 458.437 1.15274 3.27611 0
M  V30 4659 C 457.391 2.25289 3.63908 0
M  V30 4660 C 456.717 1.90527 4.99603 0
M  V30 4661 C 458.017 3.67446 3.71188 0
M  V30 4662 H 459.711 2.29482 1.92297 0
M  V30 4663 H 457.257 1.10465 0.923773 0
M  V30 4664 H 459.21 1.12536 4.06096 0
M  V30 4665 H 457.934 0.174102 3.26136 0
M  V30 4666 H 456.593 2.27174 2.87728 0
M  V30 4667 H 456.241 0.91206 4.94662 0
M  V30 4668 H 455.941 2.64193 5.24858 0
M  V30 4669 H 457.465 1.89367 5.80493 0
M  V30 4670 H 458.879 3.67719 4.39836 0
M  V30 4671 H 457.276 4.40123 4.07936 0
M  V30 4672 H 458.346 4.01443 2.71977 0
M  V30 4673 N 459.689 -1.00246 1.21608 0
M  V30 4674 C 460.619 -2.10921 1.00172 0
M  V30 4675 C 461.6 -1.69938 -0.0741587 0
M  V30 4676 O 462.785 -1.94009 0.0861753 0
M  V30 4677 C 459.915 -3.42618 0.568355 0
M  V30 4678 C 458.869 -3.97407 1.58909 0
M  V30 4679 C 458.195 -5.25038 1.01187 0
M  V30 4680 C 459.495 -4.2918 2.97661 0
M  V30 4681 H 461.189 -2.29112 1.92739 0
M  V30 4682 H 458.735 -1.10101 0.928102 0
M  V30 4683 H 460.688 -4.19444 0.405555 0
M  V30 4684 H 459.412 -3.24227 -0.392961 0
M  V30 4685 H 458.071 -3.22703 1.73949 0
M  V30 4686 H 457.719 -5.02982 0.0421965 0
M  V30 4687 H 457.419 -5.62661 1.6937 0
M  V30 4688 H 458.943 -6.04507 0.860448 0
M  V30 4689 H 460.357 -4.96839 2.86049 0
M  V30 4690 H 458.754 -4.77952 3.6288 0
M  V30 4691 H 459.824 -3.3735 3.48315 0
M  V30 4692 N 461.167 -1.02423 -1.1978 0
M  V30 4693 C 462.415 -0.716569 -1.8897 0
M  V30 4694 C 462.736 0.756769 -1.79716 0
M  V30 4695 O 462.006 1.5449 -1.20456 0
M  V30 4696 H 460.586 -0.262062 -0.699523 0
M  V30 4697 H 463.248 -1.29747 -1.45436 0
M  V30 4698 H 462.344 -1.00675 -2.95417 0
M  V30 4699 N 462.645 1.35699 -0.801477 0
M  V30 4700 C 463.593 2.3177 -0.196317 0
M  V30 4701 C 464.587 1.56388 0.651081 0
M  V30 4702 O 465.793 1.71557 0.544815 0
M  V30 4703 H 462.168 0.750669 -0.0447189 0
M  V30 4704 H 464.139 2.8036 -1.02181 0
M  V30 4705 C 462.888 3.41671 0.644702 0
M  V30 4706 H 462.211 3.998 0.0019921 0
M  V30 4707 H 463.651 4.11184 1.0346 0
M  V30 4708 C 462.11 2.84271 1.80808 0
M  V30 4709 O 462.64 2.77408 2.9053 0
M  V30 4710 N 460.846 2.41391 1.61799 0
M  V30 4711 H 460.393 2.47173 0.725493 0
M  V30 4712 H 460.351 2.03334 2.39797 0
M  V30 4713 N 464.123 0.554532 1.47522 0
M  V30 4714 C 465.539 0.214107 1.58157 0
M  V30 4715 C 465.739 -1.28331 1.55349 0
M  V30 4716 O 464.795 -2.06329 1.45549 0
M  V30 4717 C 466.108 0.838391 2.88776 0
M  V30 4718 C 467.656 0.809374 3.02354 0
M  V30 4719 C 468.131 1.41268 4.35669 0
M  V30 4720 N 469.622 1.37574 4.42298 0
M  V30 4721 C 470.357 1.8122 5.4401 0
M  V30 4722 N 469.853 2.3271 6.52547 0
M  V30 4723 N 471.646 1.72307 5.35039 0
M  V30 4724 H 463.797 1.52744 1.4759 0
M  V30 4725 H 466.06 0.636812 0.702264 0
M  V30 4726 H 465.766 1.89065 2.96559 0
M  V30 4727 H 465.64 0.329847 3.75755 0
M  V30 4728 H 468.027 -0.234187 2.94169 0
M  V30 4729 H 468.108 1.35565 2.16924 0
M  V30 4730 H 467.752 2.45529 4.4461 0
M  V30 4731 H 467.682 0.841871 5.19827 0
M  V30 4732 H 470.173 0.999081 3.64454 0
M  V30 4733 H 470.486 2.63944 7.26329 0
M  V30 4734 H 468.831 2.36719 6.53444 0
M  V30 4735 H 472.022 1.3186 4.49144 0
M  V30 4736 H 472.195 2.06641 6.14169 0
M  V30 4737 N 465.601 -1.54893 0.290851 0
M  V30 4738 C 466.829 -2.04343 -0.324288 0
M  V30 4739 C 467.244 -1.16859 -1.48289 0
M  V30 4740 O 466.601 -0.192018 -1.81487 0
M  V30 4741 C 466.652 -3.52756 -0.79026 0
M  V30 4742 O 466.373 -4.36913 0.322213 0
M  V30 4743 C 467.874 -4.18161 -1.4716 0
M  V30 4744 H 465.094 -0.667135 -0.0719173 0
M  V30 4745 H 467.638 -1.99981 0.427529 0
M  V30 4746 H 465.793 -3.57511 -1.49213 0
M  V30 4747 H 466.207 -5.24486 -0.0387372 0
M  V30 4748 H 467.681 -5.23562 -1.7489 0
M  V30 4749 H 468.158 -3.67282 -2.40834 0
M  V30 4750 H 468.764 -4.17454 -0.813178 0
M  V30 4751 N 467.08 -0.0183926 -1.57589 0
M  V30 4752 C 468.01 0.965596 -2.12599 0
M  V30 4753 C 468.991 1.34641 -1.0395 0
M  V30 4754 O 470.176 1.42693 -1.31729 0
M  V30 4755 C 467.306 2.25149 -2.64434 0
M  V30 4756 C 466.26 2.01175 -3.77773 0
M  V30 4757 C 465.586 3.35937 -4.15994 0
M  V30 4758 C 466.886 1.35953 -5.04296 0
M  V30 4759 H 468.58 0.507504 -2.95067 0
M  V30 4760 H 466.126 0.242671 -1.41941 0
M  V30 4761 H 468.079 2.94357 -3.01549 0
M  V30 4762 H 466.803 2.73105 -1.79112 0
M  V30 4763 H 465.462 1.34388 -3.4108 0
M  V30 4764 H 465.11 3.81631 -3.27669 0
M  V30 4765 H 464.81 3.20705 -4.92364 0
M  V30 4766 H 466.334 4.0643 -4.55683 0
M  V30 4767 H 467.748 1.95144 -5.39065 0
M  V30 4768 H 466.145 1.31152 -5.85593 0
M  V30 4769 H 467.215 0.331071 -4.83768 0
M  V30 4770 N 468.558 1.5553 0.254621 0
M  V30 4771 C 469.783 1.81383 1.00573 0
M  V30 4772 C 470.208 0.594419 1.78461 0
M  V30 4773 O 469.566 -0.456403 1.75461 0
M  V30 4774 C 469.614 3.04892 1.92545 0
M  V30 4775 O 468.718 2.81266 3.01601 0
M  V30 4776 H 468.059 0.598969 0.286587 0
M  V30 4777 H 470.589 2.02703 0.277952 0
M  V30 4778 H 470.599 3.34119 2.34155 0
M  V30 4779 H 469.274 3.93287 1.3527 0
M  V30 4780 H 467.851 2.63185 2.64174 0
M  V30 4781 N 470.036 -0.519951 1.48776 0
M  V30 4782 C 471.452 -0.849418 1.35119 0
M  V30 4783 C 471.652 -1.98077 0.36982 0
M  V30 4784 O 470.708 -2.51664 -0.205359 0
M  V30 4785 C 472.021 -1.20748 2.75391 0
M  V30 4786 C 473.569 -1.31679 2.83954 0
M  V30 4787 C 474.044 -1.70824 4.24951 0
M  V30 4788 N 475.535 -1.77908 4.27672 0
M  V30 4789 C 476.27 -2.09603 5.33717 0
M  V30 4790 N 475.766 -2.39652 6.5003 0
M  V30 4791 N 477.559 -2.10694 5.21119 0
M  V30 4792 H 469.71 0.226377 2.1119 0
M  V30 4793 H 471.973 0.0386519 0.947212 0
M  V30 4794 H 471.679 -0.449703 3.48813 0
M  V30 4795 H 471.553 -2.15534 3.09556 0
M  V30 4796 H 473.94 -2.06532 2.10781 0
M  V30 4797 H 474.021 -0.3499 2.53396 0
M  V30 4798 H 473.665 -0.965282 4.98643 0
M  V30 4799 H 473.595 -2.6858 4.52959 0
M  V30 4800 H 476.086 -1.56923 3.43779 0
M  V30 4801 H 476.399 -2.6297 7.26682 0
M  V30 4802 H 474.744 -2.37149 6.53288 0
M  V30 4803 H 477.935 -1.86682 4.29264 0
M  V30 4804 H 478.108 -2.35062 6.03863 0
M  V30 4805 N 471.514 -1.37532 -0.769588 0
M  V30 4806 C 472.464 -1.29984 -1.87318 0
M  V30 4807 C 473.448 -0.187242 -1.59807 0
M  V30 4808 O 474.64 -0.421827 -1.719 0
M  V30 4809 C 471.769 -1.11126 -3.24817 0
M  V30 4810 C 470.855 -2.26939 -3.58273 0
M  V30 4811 N 471.246 -3.52336 -3.62895 0
M  V30 4812 C 469.544 -2.19141 -3.8845 0
M  V30 4813 C 470.245 -4.28719 -3.9316 0
M  V30 4814 N 469.221 -3.57884 -4.0917 0
M  V30 4815 H 473.023 -2.24946 -1.89147 0
M  V30 4816 H 470.537 -1.30535 -0.966143 0
M  V30 4817 H 472.534 -1.03803 -4.0377 0
M  V30 4818 H 471.194 -0.17083 -3.2425 0
M  V30 4819 H 472.205 -3.86216 -3.45048 0
M  V30 4820 H 468.882 -1.33167 -3.95693 0
M  V30 4821 H 470.272 -5.37254 -4.03494 0
M  V30 4822 N 472.992 0.995999 -1.22138 0
M  V30 4823 C 474.24 1.73167 -1.042 0
M  V30 4824 C 474.561 1.90329 0.42423 0
M  V30 4825 O 473.831 1.4607 1.30539 0
M  V30 4826 H 472.411 0.641593 -0.38258 0
M  V30 4827 H 475.073 1.19974 -1.53598 0
M  V30 4828 H 474.169 2.72734 -1.51731 0
M  V30 4829 N 474.47 1.03057 1.19235 0
M  V30 4830 C 475.717 0.728019 1.88961 0
M  V30 4831 C 476.045 -0.743515 1.79728 0
M  V30 4832 O 475.3 -1.55729 1.1852 0
M  V30 4833 C 475.599 1.1268 3.39172 0
M  V30 4834 C 475.265 2.5969 3.68608 0
M  V30 4835 C 473.927 2.99854 3.76352 0
M  V30 4836 C 476.279 3.54793 3.81801 0
M  V30 4837 C 473.607 4.34031 3.94758 0
M  V30 4838 C 475.959 4.88675 4.0172 0
M  V30 4839 C 474.623 5.28526 4.07697 0
M  V30 4840 H 473.893 0.266401 0.691456 0
M  V30 4841 H 476.54 1.29373 1.41191 0
M  V30 4842 H 474.845 0.479722 3.88852 0
M  V30 4843 H 476.542 0.870203 3.91444 0
M  V30 4844 H 473.132 2.27575 3.63191 0
M  V30 4845 H 477.316 3.24914 3.7516 0
M  V30 4846 H 472.572 4.6444 3.97625 0
M  V30 4847 H 476.746 5.6228 4.1087 0
M  V30 4848 H 474.373 6.32506 4.21712 0
M  V30 4849 N 475.948 -1.35272 0.808662 0
M  V30 4850 C 477.225 -1.93077 0.313181 0
M  V30 4851 C 477.605 -1.73847 -1.19752 0
M  V30 4852 O 476.953 -1.1087 -1.998 0
M  V30 4853 C 477.163 -3.41347 0.726859 0
M  V30 4854 C 478.511 -4.18493 0.717532 0
M  V30 4855 O 479.535 -3.4987 0.668535 0
M  V30 4856 O 478.394 -5.40937 0.777779 0
M  V30 4857 H 475.488 -0.822885 0.0824018 0
M  V30 4858 H 478.034 -1.44335 0.892499 0
M  V30 4859 H 476.806 -3.49082 1.76797 0
M  V30 4860 H 476.429 -3.97411 0.122461 0
M  V30 4861 N 477.426 -0.562348 -1.47226 0
M  V30 4862 C 478.672 -0.0402761 -2.0276 0
M  V30 4863 C 479.005 1.30823 -1.43523 0
M  V30 4864 O 478.28 1.85249 -0.592705 0
M  V30 4865 C 478.563 0.047311 -3.60069 0
M  V30 4866 C 478.416 -1.32865 -4.29729 0
M  V30 4867 C 479.735 0.758182 -4.3352 0
M  V30 4868 H 476.854 -0.0161105 -0.736824 0
M  V30 4869 H 479.496 -0.725628 -1.75598 0
M  V30 4870 H 477.646 0.630986 -3.83342 0
M  V30 4871 H 479.318 -1.95593 -4.17781 0
M  V30 4872 H 477.561 -1.90195 -3.89882 0
M  V30 4873 H 478.232 -1.22004 -5.38349 0
M  V30 4874 H 480.708 0.262546 -4.15271 0
M  V30 4875 H 479.584 0.78844 -5.43208 0
M  V30 4876 H 479.845 1.81537 -4.03109 0
M  V30 4877 N 478.904 1.54736 -0.299062 0
M  V30 4878 C 480.144 2.0201 0.31168 0
M  V30 4879 C 480.508 1.18281 1.5124 0
M  V30 4880 O 481.709 1.55243 2.19438 0
M  V30 4881 C 479.98 3.5123 0.661227 0
M  V30 4882 S 481.539 4.20467 1.2551 0
M  V30 4883 H 478.357 0.704523 0.0957517 0
M  V30 4884 H 480.959 1.90791 -0.426482 0
M  V30 4885 H 479.663 4.09804 -0.221171 0
M  V30 4886 H 479.194 3.66481 1.43023 0
M  V30 4887 H 481.209 4.26083 2.54298 0
M  V30 4888 N 480.382 0.0267497 1.57577 0
M  V30 4889 C 481.345 -0.940916 2.08996 0
M  V30 4890 C 482.345 -1.25561 1.00455 0
M  V30 4891 O 483.535 -1.19634 1.26623 0
M  V30 4892 C 480.667 -2.25814 2.55384 0
M  V30 4893 H 481.86 -0.495628 2.95776 0
M  V30 4894 H 479.413 -0.221241 1.54726 0
M  V30 4895 H 480.148 -2.74976 1.71926 0
M  V30 4896 H 479.933 -2.04285 3.34679 0
M  V30 4897 H 481.423 -2.95178 2.95398 0
M  V30 4898 N 481.861 -1.55662 -0.24637 0
M  V30 4899 C 482.808 -1.90361 -1.30504 0
M  V30 4900 C 483.778 -0.757905 -1.47801 0
M  V30 4901 O 484.963 -1.01161 -1.61775 0
M  V30 4902 C 482.103 -2.2042 -2.65535 0
M  V30 4903 C 481.216 -3.47799 -2.56242 0
M  V30 4904 C 480.351 -3.67426 -3.8363 0
M  V30 4905 C 479.39 -4.88403 -3.68956 0
M  V30 4906 N 478.527 -5.04548 -4.88237 0
M  V30 4907 H 483.367 -2.80645 -1.00213 0
M  V30 4908 H 480.904 -1.38924 -0.483577 0
M  V30 4909 H 482.862 -2.35853 -3.44135 0
M  V30 4910 H 481.492 -1.3334 -2.93973 0
M  V30 4911 H 480.544 -3.40694 -1.69208 0
M  V30 4912 H 481.856 -4.36544 -2.4131 0
M  V30 4913 H 481.01 -3.82821 -4.70673 0
M  V30 4914 H 479.749 -2.76914 -4.01459 0
M  V30 4915 H 478.754 -4.72984 -2.80296 0
M  V30 4916 H 479.979 -5.80375 -3.52621 0
M  V30 4917 H 477.925 -4.16974 -5.06427 0
M  V30 4918 H 477.842 -5.87384 -4.75937 0
M  V30 4919 H 479.11 -5.24355 -5.76777 0
M  V30 4920 N 483.339 0.512053 -1.4905 0
M  V30 4921 C 484.269 1.62365 -1.67809 0
M  V30 4922 C 485.25 1.61737 -0.526809 0
M  V30 4923 O 486.435 1.78651 -0.761404 0
M  V30 4924 C 483.565 3.00895 -1.73435 0
M  V30 4925 C 482.519 3.16387 -2.88242 0
M  V30 4926 C 481.845 4.56157 -2.78971 0
M  V30 4927 C 483.145 2.97457 -4.29321 0
M  V30 4928 H 484.839 1.46921 -2.60873 0
M  V30 4929 H 482.385 0.705379 -1.2554 0
M  V30 4930 H 484.338 3.78549 -1.85145 0
M  V30 4931 H 483.062 3.17403 -0.769619 0
M  V30 4932 H 481.721 2.41155 -2.76116 0
M  V30 4933 H 481.369 4.69525 -1.8043 0
M  V30 4934 H 481.069 4.67465 -3.5602 0
M  V30 4935 H 482.593 5.35886 -2.92675 0
M  V30 4936 H 484.007 3.64888 -4.42187 0
M  V30 4937 H 482.404 3.20245 -5.07507 0
M  V30 4938 H 483.474 1.93692 -4.44535 0
M  V30 4939 N 484.817 1.37938 0.762283 0
M  V30 4940 C 485.78 1.34279 1.85747 0
M  V30 4941 C 486.78 0.244969 1.58923 0
M  V30 4942 O 487.97 0.501365 1.66829 0
M  V30 4943 C 485.102 1.08833 3.23061 0
M  V30 4944 H 486.295 2.31705 1.90401 0
M  V30 4945 H 483.848 1.23105 0.963057 0
M  V30 4946 H 484.583 0.119767 3.24079 0
M  V30 4947 H 484.368 1.88306 3.43923 0
M  V30 4948 H 485.858 1.08946 4.03138 0
M  V30 4949 N 486.295 -0.989507 1.22664 0
M  V30 4950 C 487.541 -1.73298 1.06487 0
M  V30 4951 C 487.896 -1.88292 -0.395438 0
M  V30 4952 O 487.189 -1.41748 -1.28911 0
M  V30 4953 C 487.383 -3.13649 1.71345 0
M  V30 4954 C 487.212 -3.12341 3.23532 0
M  V30 4955 C 485.982 -3.18044 3.92653 0
M  V30 4956 C 488.18 -2.96226 4.20422 0
M  V30 4957 N 486.162 -3.06526 5.31898 0
M  V30 4958 C 487.533 -2.92773 5.4652 0
M  V30 4959 C 489.588 -2.80642 4.11271 0
M  V30 4960 C 488.291 -2.75332 6.64519 0
M  V30 4961 C 490.317 -2.64563 5.28924 0
M  V30 4962 C 489.679 -2.618 6.53942 0
M  V30 4963 H 485.778 -0.643643 0.444126 0
M  V30 4964 H 488.362 -1.17489 1.55256 0
M  V30 4965 H 486.533 -3.67694 1.25122 0
M  V30 4966 H 488.265 -3.76577 1.48229 0
M  V30 4967 H 485.02 -3.25861 3.43673 0
M  V30 4968 H 485.444 -3.04067 6.04874 0
M  V30 4969 H 490.086 -2.81574 3.15398 0
M  V30 4970 H 487.804 -2.73145 7.60538 0
M  V30 4971 H 491.39 -2.53482 5.23677 0
M  V30 4972 H 490.27 -2.49511 7.43447 0
M  V30 4973 N 487.773 -1.03688 -1.18687 0
M  V30 4974 C 488.683 -0.634908 -2.25845 0
M  V30 4975 C 489.699 0.337065 -1.70704 0
M  V30 4976 O 490.875 0.192943 -2.00474 0
M  V30 4977 C 487.94 -0.000180054 -3.467 0
M  V30 4978 C 487.001 -1.02067 -4.1699 0
M  V30 4979 C 486.234 -0.41614 -5.32075 0
M  V30 4980 O 486.457 0.778712 -5.65059 0
M  V30 4981 O 485.391 -1.14296 -5.90948 0
M  V30 4982 H 489.217 -1.52757 -2.62486 0
M  V30 4983 H 486.802 -0.807533 -1.25695 0
M  V30 4984 H 488.684 0.353342 -4.19916 0
M  V30 4985 H 487.359 0.866367 -3.11891 0
M  V30 4986 H 486.266 -1.42592 -3.45859 0
M  V30 4987 H 487.599 -1.85786 -4.5579 0
M  V30 4988 N 489.251 1.34841 -0.815825 0
M  V30 4989 C 490.499 1.98107 -0.399744 0
M  V30 4990 C 490.82 1.65019 1.03894 0
M  V30 4991 O 490.09 0.937311 1.72021 0
M  V30 4992 H 488.67 0.732827 -0.144823 0
M  V30 4993 H 491.332 1.64599 -1.0437 0
M  V30 4994 H 490.428 3.07856 -0.512965 0
M  V30 4995 N 490.729 0.570148 1.46925 0
M  V30 4996 C 491.677 -0.183181 2.31878 0
M  V30 4997 C 492.671 -0.896721 1.43719 0
M  V30 4998 O 493.877 -0.816536 1.60414 0
M  V30 4999 H 490.252 -0.077944 0.74795 0
M  V30 5000 H 492.223 0.552312 2.93244 0
M  V30 5001 C 490.972 -1.19172 3.2664 0
M  V30 5002 H 490.295 -0.652088 3.94446 0
M  V30 5003 H 491.735 -1.68946 3.88887 0
M  V30 5004 C 490.194 -2.24627 2.51086 0
M  V30 5005 O 490.724 -3.31773 2.26472 0
M  V30 5006 N 488.93 -1.98898 2.11867 0
M  V30 5007 H 488.477 -1.11777 2.32086 0
M  V30 5008 H 488.435 -2.6967 1.61634 0
M  V30 5009 N 492.207 -1.54576 0.307264 0
M  V30 5010 C 493.117 -2.27435 -0.57536 0
M  V30 5011 C 494.133 -1.31183 -1.14311 0
M  V30 5012 O 495.309 -1.64175 -1.16656 0
M  V30 5013 C 492.374 -3.00566 -1.72803 0
M  V30 5014 C 491.435 -4.12369 -1.19373 0
M  V30 5015 C 490.668 -4.82003 -2.29147 0
M  V30 5016 O 490.891 -4.51038 -3.49171 0
M  V30 5017 O 489.825 -5.69271 -1.95485 0
M  V30 5018 H 493.651 -3.03696 0.0158558 0
M  V30 5019 H 491.236 -1.49219 0.0735064 0
M  V30 5020 H 493.118 -3.46416 -2.39946 0
M  V30 5021 H 491.793 -2.27195 -2.30574 0
M  V30 5022 H 490.7 -3.70905 -0.487851 0
M  V30 5023 H 492.033 -4.87736 -0.661376 0
M  V30 5024 N 493.685 -0.035106 -1.57561 0
M  V30 5025 C 494.913 0.652258 -1.9635 0
M  V30 5026 C 495.328 1.65317 -0.911897 0
M  V30 5027 O 494.685 1.82194 0.105657 0
M  V30 5028 C 494.736 1.35337 -3.35211 0
M  V30 5029 O 494.457 0.392548 -4.36338 0
M  V30 5030 C 495.958 2.13199 -3.88666 0
M  V30 5031 H 493.178 0.179444 -0.646561 0
M  V30 5032 H 495.722 -0.0966459 -2.04271 0
M  V30 5033 H 493.877 2.05362 -3.28489 0
M  V30 5034 H 494.291 0.891097 -5.16875 0
M  V30 5035 H 495.765 2.577 -4.88154 0
M  V30 5036 H 496.242 2.97353 -3.23231 0
M  V30 5037 H 496.848 1.48118 -3.98674 0
M  V30 5038 N 495.163 1.55791 0.238111 0
M  V30 5039 C 496.409 1.78297 0.966337 0
M  V30 5040 C 496.742 0.601903 1.84637 0
M  V30 5041 O 496.017 -0.399499 1.90353 0
M  V30 5042 C 496.3 3.10758 1.81939 0
M  V30 5043 C 496.153 4.39283 0.966958 0
M  V30 5044 C 497.472 3.39519 2.80027 0
M  V30 5045 H 494.591 0.648654 0.349882 0
M  V30 5046 H 497.233 1.88525 0.236253 0
M  V30 5047 H 495.383 3.02168 2.44185 0
M  V30 5048 H 497.055 4.59873 0.362514 0
M  V30 5049 H 495.298 4.32948 0.271669 0
M  V30 5050 H 495.969 5.28368 1.59784 0
M  V30 5051 H 498.445 3.48128 2.27917 0
M  V30 5052 H 497.321 4.33402 3.36829 0
M  V30 5053 H 497.582 2.60864 3.56934 0
M  V30 5054 N 496.642 -0.504142 1.49319 0
M  V30 5055 C 497.87 -1.28256 1.62351 0
M  V30 5056 C 498.285 -1.86502 0.293682 0
M  V30 5057 O 497.642 -1.67678 -0.720449 0
M  V30 5058 C 497.693 -2.41507 2.68992 0
M  V30 5059 O 497.414 -1.85656 3.96817 0
M  V30 5060 C 498.915 -3.32929 2.927 0
M  V30 5061 H 496.135 -0.389115 0.546654 0
M  V30 5062 H 498.679 -0.605531 1.95329 0
M  V30 5063 H 496.834 -3.05046 2.38801 0
M  V30 5064 H 497.248 -2.59981 4.55533 0
M  V30 5065 H 498.722 -4.0868 3.71058 0
M  V30 5066 H 499.199 -3.89733 2.02496 0
M  V30 5067 H 499.805 -2.75158 3.24296 0
M  V30 5068 N 498.12 -1.38341 -0.754957 0
M  V30 5069 C 499.348 -1.37704 -1.54419 0
M  V30 5070 C 499.763 0.0335243 -1.8877 0
M  V30 5071 O 499.12 0.999773 -1.52679 0
M  V30 5072 C 499.171 -2.23136 -2.84416 0
M  V30 5073 O 498.892 -3.58697 -2.51531 0
M  V30 5074 C 500.393 -2.30664 -3.78562 0
M  V30 5075 H 497.613 -0.471061 -0.477852 0
M  V30 5076 H 500.157 -1.81902 -0.934446 0
M  V30 5077 H 498.312 -1.82403 -3.41772 0
M  V30 5078 H 498.726 -4.03665 -3.34896 0
M  V30 5079 H 500.2 -2.9473 -4.66732 0
M  V30 5080 H 500.677 -1.3199 -4.18898 0
M  V30 5081 H 501.283 -2.71781 -3.27131 0
M  V30 5082 N 499.598 0.982988 -1.23187 0
M  V30 5083 C 501.014 1.2487 -0.993967 0
M  V30 5084 C 501.214 1.99155 0.306498 0
M  V30 5085 O 500.27 2.30688 1.0266 0
M  V30 5086 C 501.583 2.05078 -2.19917 0
M  V30 5087 C 503.131 2.18227 -2.2438 0
M  V30 5088 C 503.606 3.01825 -3.44479 0
M  V30 5089 N 505.097 3.09411 -3.44702 0
M  V30 5090 C 505.832 3.74412 -4.34285 0
M  V30 5091 N 505.328 4.41259 -5.341 0
M  V30 5092 N 507.121 3.71273 -4.22035 0
M  V30 5093 H 499.272 0.485253 -2.06783 0
M  V30 5094 H 501.535 0.276979 -0.906635 0
M  V30 5095 H 501.241 1.57867 -3.14279 0
M  V30 5096 H 501.115 3.05829 -2.2079 0
M  V30 5097 H 503.502 2.64648 -1.30559 0
M  V30 5098 H 503.583 1.16873 -2.2754 0
M  V30 5099 H 503.227 2.56102 -4.38605 0
M  V30 5100 H 503.157 4.03342 -3.38559 0
M  V30 5101 H 505.648 2.61845 -2.7248 0
M  V30 5102 H 505.961 4.88629 -5.98717 0
M  V30 5103 H 504.306 4.39975 -5.38002 0
M  V30 5104 H 507.497 3.18217 -3.43301 0
M  V30 5105 H 507.67 4.21649 -4.92053 0
M  V30 5106 N 501.076 1.04316 1.18135 0
M  V30 5107 C 502.006 0.657299 2.24058 0
M  V30 5108 C 502.987 -0.340678 1.66654 0
M  V30 5109 O 504.172 -0.220223 1.92947 0
M  V30 5110 C 501.302 0.0220715 3.47293 0
M  V30 5111 C 500.256 0.943857 4.17463 0
M  V30 5112 C 499.582 0.172973 5.3442 0
M  V30 5113 C 500.882 2.26409 4.70677 0
M  V30 5114 H 502.576 1.5428 2.56589 0
M  V30 5115 H 500.122 0.743263 1.23335 0
M  V30 5116 H 502.075 -0.259607 4.206 0
M  V30 5117 H 500.799 -0.898323 3.14003 0
M  V30 5118 H 499.458 1.20996 3.46057 0
M  V30 5119 H 499.106 -0.749907 4.97379 0
M  V30 5120 H 498.806 0.787098 5.82304 0
M  V30 5121 H 500.33 -0.101628 6.10515 0
M  V30 5122 H 501.744 2.04294 5.35665 0
M  V30 5123 H 500.141 2.8314 5.29105 0
M  V30 5124 H 501.211 2.90883 3.87962 0
M  V30 5125 N 502.554 -1.34406 0.822964 0
M  V30 5126 C 503.8 -1.98999 0.420847 0
M  V30 5127 C 504.155 -1.64067 -1.00498 0
M  V30 5128 O 503.448 -0.902071 -1.69036 0
M  V30 5129 C 503.642 -3.52981 0.560268 0
M  V30 5130 C 503.471 -4.02873 1.99809 0
M  V30 5131 C 502.241 -4.31463 2.62998 0
M  V30 5132 C 504.439 -4.20241 2.96483 0
M  V30 5133 N 502.421 -4.6739 3.9802 0
M  V30 5134 C 503.792 -4.59348 4.16413 0
M  V30 5135 C 505.847 -4.02489 2.93098 0
M  V30 5136 C 504.55 -4.82559 5.33413 0
M  V30 5137 C 506.576 -4.26866 4.09315 0
M  V30 5138 C 505.938 -4.6626 5.27997 0
M  V30 5139 H 502.037 -0.755432 0.202104 0
M  V30 5140 H 504.621 -1.62815 1.06767 0
M  V30 5141 H 502.792 -3.88359 -0.0566596 0
M  V30 5142 H 504.524 -4.04487 0.131146 0
M  V30 5143 H 501.279 -4.22373 2.14238 0
M  V30 5144 H 501.703 -4.89588 4.67582 0
M  V30 5145 H 506.345 -3.71161 2.02483 0
M  V30 5146 H 504.063 -5.12754 6.24587 0
M  V30 5147 H 507.649 -4.14667 4.08096 0
M  V30 5148 H 506.529 -4.84752 6.16429 0
M  V30 5149 N 504.032 -0.577932 -1.46621 0
M  V30 5150 C 505.28 -0.061566 -2.02006 0
M  V30 5151 C 505.601 1.30117 -1.4524 0
M  V30 5152 O 504.871 1.85313 -0.63529 0
M  V30 5153 H 503.451 -0.0197692 -0.746738 0
M  V30 5154 H 506.113 -0.752631 -1.79782 0
M  V30 5155 H 505.209 0.0110238 -3.12098 0
M  V30 5156 N 505.51 1.54411 -0.315457 0
M  V30 5157 C 506.44 2.27002 0.547039 0
M  V30 5158 C 507.421 1.27492 1.12605 0
M  V30 5159 O 508.606 1.5629 1.15269 0
M  V30 5160 C 505.736 3.02171 1.71201 0
M  V30 5161 C 504.69 4.0895 1.26268 0
M  V30 5162 C 504.016 4.71915 2.51396 0
M  V30 5163 C 505.316 5.20891 0.383419 0
M  V30 5164 H 507.01 2.99343 -0.0584517 0
M  V30 5165 H 504.556 1.4397 -0.0295527 0
M  V30 5166 H 506.509 3.51681 2.32161 0
M  V30 5167 H 505.233 2.27433 2.34397 0
M  V30 5168 H 503.892 3.60312 0.676062 0
M  V30 5169 H 503.54 3.93801 3.12937 0
M  V30 5170 H 503.24 5.44039 2.22026 0
M  V30 5171 H 504.764 5.24195 3.13133 0
M  V30 5172 H 506.178 5.66206 0.899082 0
M  V30 5173 H 504.575 5.99821 0.182857 0
M  V30 5174 H 505.645 4.81324 -0.587821 0
M  V30 5175 N 506.988 0.0434614 1.5754 0
M  V30 5176 C 508.235 -0.632035 1.92384 0
M  V30 5177 C 508.563 -1.71304 0.921157 0
M  V30 5178 O 507.818 -1.95583 -0.067744 0
M  V30 5179 C 508.117 -1.2738 3.3393 0
M  V30 5180 C 507.783 -0.321757 4.49751 0
M  V30 5181 C 506.445 -0.0597611 4.81163 0
M  V30 5182 C 508.797 0.331158 5.20147 0
M  V30 5183 C 506.125 0.862715 5.80322 0
M  V30 5184 C 508.477 1.24178 6.20292 0
M  V30 5185 C 507.141 1.51252 6.50138 0
M  V30 5186 H 506.411 -0.231278 0.703983 0
M  V30 5187 H 509.058 0.108294 1.91194 0
M  V30 5188 H 507.363 -2.08921 3.3145 0
M  V30 5189 H 509.06 -1.80326 3.58167 0
M  V30 5190 H 505.65 -0.53614 4.25233 0
M  V30 5191 H 509.834 0.141826 4.96097 0
M  V30 5192 H 505.09 1.08003 6.01785 0
M  V30 5193 H 509.264 1.75381 6.73954 0
M  V30 5194 H 506.891 2.22897 7.26788 0
M  V30 5195 N 508.466 -1.55915 -0.229846 0
M  V30 5196 C 509.706 -1.80314 -0.962614 0
M  V30 5197 C 510.07 -0.61568 -1.81861 0
M  V30 5198 O 511.271 -0.738795 -2.58448 0
M  V30 5199 C 509.542 -3.0956 -1.78627 0
M  V30 5200 S 511.101 -3.55243 -2.57581 0
M  V30 5201 H 507.919 -0.633142 -0.323499 0
M  V30 5202 H 510.521 -1.94155 -0.228919 0
M  V30 5203 H 509.225 -3.94033 -1.14742 0
M  V30 5204 H 508.756 -2.98503 -2.56241 0
M  V30 5205 H 510.771 -3.17924 -3.80971 0
M  V30 5206 N 509.944 0.496216 -1.49584 0
M  V30 5207 C 511.169 1.27865 -1.63295 0
M  V30 5208 C 511.594 1.85592 -0.306156 0
M  V30 5209 O 510.952 1.66092 0.726851 0
M  V30 5210 C 511 2.38128 -2.7079 0
M  V30 5211 O 510.104 3.42108 -2.30296 0
M  V30 5212 H 509.445 0.377279 -0.546403 0
M  V30 5213 H 511.975 0.593497 -1.95803 0
M  V30 5214 H 511.985 2.8382 -2.93104 0
M  V30 5215 H 510.66 1.95479 -3.67098 0
M  V30 5216 H 509.237 3.02301 -2.18331 0
M  V30 5217 N 511.423 1.38739 0.74761 0
M  V30 5218 C 512.648 1.38702 1.54197 0
M  V30 5219 C 513.073 -0.019664 1.8809 0
M  V30 5220 O 512.431 -1.00333 1.51006 0
M  V30 5221 C 512.479 2.25492 2.814 0
M  V30 5222 O 511.583 1.67613 3.76802 0
M  V30 5223 H 510.924 0.472863 0.466151 0
M  V30 5224 H 513.454 1.82577 0.923413 0
M  V30 5225 H 513.464 2.39561 3.30264 0
M  V30 5226 H 512.139 3.27727 2.56062 0
M  V30 5227 H 510.716 1.62718 3.35526 0
M  V30 5228 N 512.901 -0.976442 1.23707 0
M  V30 5229 C 514.317 -1.24341 1.00058 0
M  V30 5230 C 514.517 -1.99315 -0.295932 0
M  V30 5231 O 513.573 -2.3123 -1.01435 0
M  V30 5232 C 514.886 -2.03909 2.21001 0
M  V30 5233 C 516.434 -2.17034 2.25534 0
M  V30 5234 C 516.909 -2.99994 3.46075 0
M  V30 5235 N 518.4 -3.07578 3.46338 0
M  V30 5236 C 519.135 -3.72104 4.36264 0
M  V30 5237 N 518.631 -4.3842 5.36432 0
M  V30 5238 N 520.424 -3.69029 4.23998 0
M  V30 5239 H 512.575 -0.47428 2.07037 0
M  V30 5240 H 514.838 -0.272167 0.908091 0
M  V30 5241 H 514.544 -1.56198 3.15111 0
M  V30 5242 H 514.418 -3.04654 2.22409 0
M  V30 5243 H 516.805 -2.63951 1.31961 0
M  V30 5244 H 516.886 -1.15664 2.28156 0
M  V30 5245 H 516.53 -2.53772 4.39957 0
M  V30 5246 H 516.46 -4.01541 3.40694 0
M  V30 5247 H 518.951 -2.60397 2.73865 0
M  V30 5248 H 519.264 -4.85447 6.013 0
M  V30 5249 H 517.609 -4.37116 5.40328 0
M  V30 5250 H 520.8 -3.16392 3.44984 0
M  V30 5251 H 520.973 -4.19034 4.94282 0
M  V30 5252 N 514.379 -1.04941 -1.1758 0
M  V30 5253 C 515.626 -0.757989 -1.87779 0
M  V30 5254 C 515.954 0.714827 -1.80888 0
M  V30 5255 O 515.209 1.53824 -1.20982 0
M  V30 5256 C 515.508 -1.18062 -3.37337 0
M  V30 5257 C 515.174 -2.65521 -3.6443 0
M  V30 5258 C 513.836 -3.05804 -3.71534 0
M  V30 5259 C 516.188 -3.60822 -3.76108 0
M  V30 5260 C 513.516 -4.40256 -3.87803 0
M  V30 5261 C 515.868 -4.95005 -3.93895 0
M  V30 5262 C 514.532 -5.34945 -3.99237 0
M  V30 5263 H 513.802 -0.277368 -0.68713 0
M  V30 5264 H 516.449 -1.31603 -1.39115 0
M  V30 5265 H 514.754 -0.541525 -3.8804 0
M  V30 5266 H 516.451 -0.932368 -3.9001 0
M  V30 5267 H 513.041 -2.33324 -3.59524 0
M  V30 5268 H 517.225 -3.30841 -3.69943 0
M  V30 5269 H 512.481 -4.70707 -3.90186 0
M  V30 5270 H 516.655 -5.68746 -4.01872 0
M  V30 5271 H 514.282 -6.39135 -4.11596 0
M  V30 5272 N 515.857 1.33968 -0.830081 0
M  V30 5273 C 516.787 2.31911 -0.271911 0
M  V30 5274 C 517.768 1.58571 0.61556 0
M  V30 5275 O 518.953 1.86514 0.540946 0
M  V30 5276 C 516.083 3.42737 0.561146 0
M  V30 5277 C 515.037 4.27383 -0.229789 0
M  V30 5278 C 514.363 5.29742 0.726463 0
M  V30 5279 C 515.663 5.02 -1.44197 0
M  V30 5280 H 517.357 2.78844 -1.09025 0
M  V30 5281 H 514.903 1.34061 -0.52571 0
M  V30 5282 H 516.856 4.10276 0.961867 0
M  V30 5283 H 515.58 2.94471 1.41261 0
M  V30 5284 H 514.239 3.61456 -0.611964 0
M  V30 5285 H 513.887 4.77736 1.57408 0
M  V30 5286 H 513.587 5.87255 0.20142 0
M  V30 5287 H 515.111 6.00149 1.12489 0
M  V30 5288 H 516.525 5.62355 -1.11488 0
M  V30 5289 H 514.922 5.69122 -1.90317 0
M  V30 5290 H 515.992 4.31281 -2.2164 0
M  V30 5291 N 517.335 0.585699 1.46312 0
M  V30 5292 C 518.283 -0.158577 2.32059 0
M  V30 5293 C 519.277 -0.881427 1.44662 0
M  V30 5294 O 520.483 -0.799476 1.61271 0
M  V30 5295 H 516.858 -0.0700066 0.748734 0
M  V30 5296 H 518.829 0.583383 2.92642 0
M  V30 5297 C 517.578 -1.15701 3.27885 0
M  V30 5298 H 516.901 -0.610215 3.95116 0
M  V30 5299 H 518.341 -1.64812 3.90657 0
M  V30 5300 C 516.8 -2.21951 2.53455 0
M  V30 5301 O 517.33 -3.29352 2.29978 0
M  V30 5302 N 515.536 -1.9664 2.13965 0
M  V30 5303 H 515.083 -1.09309 2.33258 0
M  V30 5304 H 515.041 -2.6794 1.64485 0
M  V30 5305 N 518.813 -1.54241 0.323641 0
M  V30 5306 C 519.776 -2.22997 -0.529602 0
M  V30 5307 C 520.776 -1.22345 -1.04347 0
M  V30 5308 O 521.966 -1.46924 -0.935889 0
M  V30 5309 C 519.098 -2.93409 -1.73562 0
M  V30 5310 H 520.291 -2.99815 0.0714518 0
M  V30 5311 H 517.844 -1.56121 0.0747258 0
M  V30 5312 H 518.579 -2.20729 -2.37591 0
M  V30 5313 H 518.364 -3.67217 -1.37456 0
M  V30 5314 H 519.854 -3.45794 -2.34128 0
M  V30 5315 N 520.291 -0.0518155 -1.57515 0
M  V30 5316 C 521.519 0.631395 -1.9703 0
M  V30 5317 C 521.934 1.64341 -0.92938 0
M  V30 5318 O 521.291 1.82296 0.0863266 0
M  V30 5319 C 521.342 1.31774 -3.36627 0
M  V30 5320 O 521.063 0.346247 -4.3673 0
M  V30 5321 C 522.564 2.09065 -3.90905 0
M  V30 5322 H 519.784 0.172576 -0.648428 0
M  V30 5323 H 522.328 -0.118306 -2.04158 0
M  V30 5324 H 520.483 2.01867 -3.30649 0
M  V30 5325 H 520.897 0.836226 -5.17791 0
M  V30 5326 H 522.371 2.52508 -4.9086 0
M  V30 5327 H 522.848 2.93908 -3.26366 0
M  V30 5328 H 523.454 1.43882 -4.00223 0
M  V30 5329 N 521.769 1.56035 0.221574 0
M  V30 5330 C 523.009 1.80822 0.953038 0
M  V30 5331 C 523.373 0.625316 1.81532 0
M  V30 5332 O 524.574 0.752491 2.58052 0
M  V30 5333 C 522.845 3.10503 1.76983 0
M  V30 5334 S 524.404 3.56604 2.55693 0
M  V30 5335 H 521.222 0.634849 0.320137 0
M  V30 5336 H 523.824 1.94274 0.218619 0
M  V30 5337 H 522.528 3.94636 1.12651 0
M  V30 5338 H 522.059 2.99858 2.54655 0
M  V30 5339 H 524.074 3.1994 3.79279 0
M  V30 5340 N 523.247 -0.488276 1.49845 0
M  V30 5341 C 524.524 -1.24959 1.50481 0
M  V30 5342 C 524.904 -2.09735 0.239698 0
M  V30 5343 O 524.252 -2.14865 -0.777524 0
M  V30 5344 C 524.462 -2.0954 2.79095 0
M  V30 5345 C 525.81 -2.68305 3.29086 0
M  V30 5346 O 526.834 -2.19797 2.80299 0
M  V30 5347 O 525.693 -3.56643 4.14087 0
M  V30 5348 H 522.787 -0.566133 0.602845 0
M  V30 5349 H 525.333 -0.501504 1.6212 0
M  V30 5350 H 524.105 -1.46958 3.62656 0
M  V30 5351 H 523.728 -2.91517 2.70377 0
M  V30 5352 N 524.725 -1.39134 -0.740242 0
M  V30 5353 C 525.635 -1.39697 -1.88473 0
M  V30 5354 C 526.651 -0.292403 -1.71526 0
M  V30 5355 O 527.827 -0.533021 -1.94219 0
M  V30 5356 C 524.892 -1.23382 -3.24003 0
M  V30 5357 C 523.953 -2.43763 -3.53381 0
M  V30 5358 C 523.186 -2.28216 -4.82445 0
M  V30 5359 O 523.409 -1.28288 -5.55786 0
M  V30 5360 O 522.343 -3.1709 -5.11603 0
M  V30 5361 H 526.169 -2.36159 -1.90952 0
M  V30 5362 H 523.754 -1.20194 -0.887346 0
M  V30 5363 H 525.636 -1.16395 -4.05006 0
M  V30 5364 H 524.311 -0.300121 -3.22306 0
M  V30 5365 H 523.218 -2.56325 -2.72485 0
M  V30 5366 H 524.551 -3.35808 -3.59852 0
M  V30 5367 N 526.204 0.969867 -1.24223 0
M  V30 5368 C 527.434 1.74502 -1.106 0
M  V30 5369 C 527.842 1.86038 0.344483 0
M  V30 5370 O 527.185 1.3465 1.24961 0
M  V30 5371 C 527.247 3.18391 -1.66935 0
M  V30 5372 C 526.911 3.30334 -3.15798 0
M  V30 5373 C 527.908 3.15832 -4.12973 0
M  V30 5374 C 525.593 3.54644 -3.55715 0
M  V30 5375 C 527.587 3.25461 -5.48045 0
M  V30 5376 C 525.274 3.63912 -4.90929 0
M  V30 5377 C 526.272 3.49332 -5.86904 0
M  V30 5378 O 525.96 3.58251 -7.1966 0
M  V30 5379 H 525.692 0.554119 -0.387206 0
M  V30 5380 H 528.246 1.22646 -1.64764 0
M  V30 5381 H 526.476 3.71543 -1.07203 0
M  V30 5382 H 528.165 3.77707 -1.48634 0
M  V30 5383 H 528.931 2.96937 -3.83476 0
M  V30 5384 H 524.81 3.65059 -2.81519 0
M  V30 5385 H 528.354 3.13998 -6.22937 0
M  V30 5386 H 524.251 3.82319 -5.20098 0
M  V30 5387 H 525.019 3.7498 -7.27552 0
M  V30 5388 N 527.682 1.05563 1.17022 0
M  V30 5389 C 528.929 0.767937 1.87374 0
M  V30 5390 C 529.257 -0.705224 1.81265 0
M  V30 5391 O 528.512 -1.5318 1.21796 0
M  V30 5392 C 528.811 1.19849 3.36706 0
M  V30 5393 C 528.477 2.6745 3.63017 0
M  V30 5394 C 527.139 3.0777 3.69907 0
M  V30 5395 C 529.491 3.62811 3.74189 0
M  V30 5396 C 526.819 4.42307 3.85463 0
M  V30 5397 C 529.171 4.97087 3.91264 0
M  V30 5398 C 527.835 5.37055 3.96394 0
M  V30 5399 H 527.105 0.281008 0.68565 0
M  V30 5400 H 529.752 1.32339 1.38415 0
M  V30 5401 H 528.057 0.562096 3.87747 0
M  V30 5402 H 529.754 0.953038 3.8951 0
M  V30 5403 H 526.344 2.35228 3.58282 0
M  V30 5404 H 530.528 3.32798 3.68183 0
M  V30 5405 H 525.784 4.72769 3.87684 0
M  V30 5406 H 529.958 5.70869 3.9885 0
M  V30 5407 H 527.585 6.41308 4.082 0
M  V30 5408 N 529.16 -1.33526 0.837174 0
M  V30 5409 C 530.388 -2.02047 0.445494 0
M  V30 5410 C 530.803 -1.62995 -0.952788 0
M  V30 5411 O 530.16 -0.842447 -1.61892 0
M  V30 5412 C 530.211 -3.57221 0.554577 0
M  V30 5413 O 529.932 -3.94863 1.89776 0
M  V30 5414 C 531.433 -4.43012 0.159634 0
M  V30 5415 H 528.653 -0.647221 0.177048 0
M  V30 5416 H 531.197 -1.70492 1.12928 0
M  V30 5417 H 529.352 -3.87315 -0.0812781 0
M  V30 5418 H 529.766 -4.89569 1.88208 0
M  V30 5419 H 531.24 -5.51253 0.28701 0
M  V30 5420 H 531.717 -4.29916 -0.898289 0
M  V30 5421 H 532.323 -4.18274 0.769855 0
M  V30 5422 N 530.638 -0.59345 -1.46 0
M  V30 5423 C 532.054 -0.255965 -1.57534 0
M  V30 5424 C 532.254 1.24167 -1.58697 0
M  V30 5425 O 531.31 2.02398 -1.50968 0
M  V30 5426 C 532.623 -0.91466 -2.86451 0
M  V30 5427 C 534.171 -0.889253 -3.00102 0
M  V30 5428 C 534.646 -1.52769 -4.3177 0
M  V30 5429 N 536.137 -1.49253 -4.38495 0
M  V30 5430 C 536.872 -1.9558 -5.39014 0
M  V30 5431 N 536.368 -2.49929 -6.46148 0
M  V30 5432 N 538.161 -1.86432 -5.30282 0
M  V30 5433 H 530.312 -1.56604 -1.43489 0
M  V30 5434 H 532.575 -0.655207 -0.685133 0
M  V30 5435 H 532.281 -1.96861 -2.91442 0
M  V30 5436 H 532.155 -0.429356 -3.74748 0
M  V30 5437 H 534.542 0.156111 -2.94687 0
M  V30 5438 H 534.623 -1.41268 -2.13253 0
M  V30 5439 H 534.267 -2.57231 -4.37944 0
M  V30 5440 H 534.197 -0.979398 -5.17412 0
M  V30 5441 H 536.688 -1.09536 -3.61677 0
M  V30 5442 H 537.001 -2.83109 -7.19075 0
M  V30 5443 H 535.346 -2.53961 -6.46938 0
M  V30 5444 H 538.537 -1.43722 -4.4549 0
M  V30 5445 H 538.71 -2.22852 -6.08474 0
M  V30 5446 N 532.116 1.54067 -0.331816 0
M  V30 5447 C 533.064 2.26105 0.54582 0
M  V30 5448 C 534.058 1.27816 1.11173 0
M  V30 5449 O 535.264 1.45565 1.05882 0
M  V30 5450 H 531.639 0.726363 0.194683 0
M  V30 5451 H 533.61 2.98282 -0.083931 0
M  V30 5452 C 532.359 3.03814 1.69092 0
M  V30 5453 H 531.682 3.79269 1.26473 0
M  V30 5454 H 533.122 3.57453 2.28043 0
M  V30 5455 C 531.581 2.12606 2.61343 0
M  V30 5456 O 532.111 1.71437 3.6328 0
M  V30 5457 N 530.317 1.77925 2.29763 0
M  V30 5458 H 529.864 2.11602 1.46909 0
M  V30 5459 H 529.822 1.1718 2.91747 0
M  V30 5460 N 533.594 0.0601682 1.57485 0
M  V30 5461 C 534.542 -0.928899 2.13247 0
M  V30 5462 C 535.536 -1.31616 1.06647 0
M  V30 5463 O 536.742 -1.29476 1.25043 0
M  V30 5464 H 533.117 -0.317455 0.681708 0
M  V30 5465 H 535.088 -0.433566 2.95233 0
M  V30 5466 C 533.837 -2.19121 2.69965 0
M  V30 5467 H 533.16 -1.90204 3.51657 0
M  V30 5468 H 534.6 -2.86465 3.12592 0
M  V30 5469 C 533.059 -2.94195 1.64168 0
M  V30 5470 O 533.589 -3.87468 1.05978 0
M  V30 5471 N 531.795 -2.57089 1.35476 0
M  V30 5472 H 531.342 -1.81314 1.82984 0
M  V30 5473 H 531.3 -3.07624 0.649196 0
M  V30 5474 N 535.072 -1.5615 -0.213296 0
M  V30 5475 C 536.318 -1.79812 -0.937849 0
M  V30 5476 C 536.651 -0.631201 -1.83656 0
M  V30 5477 O 535.926 0.369165 -1.90964 0
M  V30 5478 C 536.209 -3.13613 -1.76972 0
M  V30 5479 C 536.062 -4.40766 -0.89695 0
M  V30 5480 C 537.381 -3.43931 -2.7459 0
M  V30 5481 H 534.5 -0.654138 -0.339518 0
M  V30 5482 H 537.142 -1.88877 -0.20623 0
M  V30 5483 H 535.292 -3.06015 -2.39347 0
M  V30 5484 H 536.964 -4.60392 -0.289306 0
M  V30 5485 H 535.207 -4.33326 -0.202756 0
M  V30 5486 H 535.878 -5.30843 -1.51358 0
M  V30 5487 H 538.354 -3.5171 -2.22349 0
M  V30 5488 H 537.23 -4.38706 -3.29891 0
M  V30 5489 H 537.491 -2.6651 -3.52739 0
M  V30 5490 N 536.55 0.480323 -1.50102 0
M  V30 5491 C 537.778 1.25657 -1.64371 0
M  V30 5492 C 538.193 1.86011 -0.323316 0
M  V30 5493 O 537.55 1.68803 0.693682 0
M  V30 5494 C 537.601 2.37197 -2.728 0
M  V30 5495 O 537.322 1.7932 -3.9972 0
M  V30 5496 C 538.823 3.2823 -2.9796 0
M  V30 5497 H 536.043 0.380369 -0.552775 0
M  V30 5498 H 538.587 0.574379 -1.96268 0
M  V30 5499 H 536.742 3.01208 -2.43623 0
M  V30 5500 H 537.156 2.52701 -4.59611 0
M  V30 5501 H 538.63 4.02725 -3.77513 0
M  V30 5502 H 539.107 3.86462 -2.08671 0
M  V30 5503 H 539.713 2.69964 -3.28633 0
M  V30 5504 N 538.028 1.39524 0.732853 0
M  V30 5505 C 538.938 1.40695 1.87729 0
M  V30 5506 C 539.954 0.301496 1.71368 0
M  V30 5507 O 541.13 0.543313 1.93933 0
M  V30 5508 C 538.195 1.25098 3.23344 0
M  V30 5509 C 537.256 2.45634 3.52083 0
M  V30 5510 C 536.489 2.30772 4.81228 0
M  V30 5511 O 536.712 1.31233 5.55098 0
M  V30 5512 O 535.646 3.19799 5.09914 0
M  V30 5513 H 539.472 2.37168 1.89697 0
M  V30 5514 H 537.057 1.20663 0.880959 0
M  V30 5515 H 538.939 1.18541 4.04383 0
M  V30 5516 H 537.614 0.317209 3.22142 0
M  V30 5517 H 536.521 2.57767 2.71122 0
M  V30 5518 H 537.854 3.37712 3.58066 0
M  V30 5519 N 539.506 -0.963266 1.24736 0
M  V30 5520 C 540.755 -1.70115 1.08369 0
M  V30 5521 C 541.068 -1.91939 -0.376688 0
M  V30 5522 O 542.274 -2.6334 -0.660624 0
M  V30 5523 C 540.73 -3.06218 1.89099 0
M  V30 5524 C 540.338 -2.92221 3.39574 0
M  V30 5525 C 542.082 -3.83848 1.81275 0
M  V30 5526 C 539.989 -4.23662 4.12631 0
M  V30 5527 H 538.919 -0.637944 0.401924 0
M  V30 5528 H 541.57 -1.07304 1.48856 0
M  V30 5529 H 539.952 -3.69884 1.41429 0
M  V30 5530 H 541.126 -2.37541 3.94856 0
M  V30 5531 H 539.441 -2.28054 3.48397 0
M  V30 5532 H 542.038 -4.81188 2.33158 0
M  V30 5533 H 542.381 -4.08949 0.778895 0
M  V30 5534 H 542.914 -3.26918 2.26649 0
M  V30 5535 H 539.653 -4.03753 5.16395 0
M  V30 5536 H 539.173 -4.78141 3.62135 0
M  V30 5537 H 540.852 -4.92256 4.19873 0
M  V30 5538 N 540.985 -1.06182 -1.16461 0
M  V30 5539 C 541.917 -0.629584 -2.20383 0
M  V30 5540 C 542.93 0.311834 -1.59786 0
M  V30 5541 O 544.119 0.103 -1.78203 0
M  V30 5542 C 541.219 0.0973695 -3.3876 0
M  V30 5543 C 540.392 -0.857252 -4.28917 0
M  V30 5544 C 539.451 -0.169749 -5.25926 0
M  V30 5545 O 538.477 -0.807044 -5.6345 0
M  V30 5546 N 539.679 1.08911 -5.70192 0
M  V30 5547 H 542.444 -1.52352 -2.58087 0
M  V30 5548 H 540.005 -0.944993 -1.31459 0
M  V30 5549 H 541.997 0.567676 -4.00699 0
M  V30 5550 H 540.567 0.893093 -2.99571 0
M  V30 5551 H 539.787 -1.50696 -3.64259 0
M  V30 5552 H 541.075 -1.50489 -4.86035 0
M  V30 5553 H 540.473 1.62703 -5.41797 0
M  V30 5554 H 539.03 1.50331 -6.34227 0
M  V30 5555 N 542.463 1.3308 -0.844243 0
M  V30 5556 C 543.711 1.97215 -0.441676 0
M  V30 5557 C 544.032 1.67185 1.0037 0
M  V30 5558 O 543.302 0.973588 1.69994 0
M  V30 5559 H 541.882 0.72959 -0.160335 0
M  V30 5560 H 544.544 1.62348 -1.07838 0
M  V30 5561 H 543.64 3.06698 -0.57815 0
M  V30 5562 N 543.941 0.601185 1.45683 0
M  V30 5563 C 545.19 0.0914953 2.01492 0
M  V30 5564 C 545.503 -1.28331 1.47616 0
M  V30 5565 O 546.709 -1.88537 1.95362 0
M  V30 5566 C 545.165 0.11291 3.59723 0
M  V30 5567 C 544.773 1.48717 4.22596 0
M  V30 5568 C 546.517 -0.341871 4.23121 0
M  V30 5569 C 544.424 1.46531 5.7296 0
M  V30 5570 H 543.354 0.0304365 0.753385 0
M  V30 5571 H 546.005 0.755568 1.67223 0
M  V30 5572 H 544.387 -0.617692 3.91153 0
M  V30 5573 H 545.561 2.23897 4.02749 0
M  V30 5574 H 543.876 1.88351 3.71366 0
M  V30 5575 H 546.473 -0.377304 5.33367 0
M  V30 5576 H 546.816 -1.36325 3.93346 0
M  V30 5577 H 547.349 0.335256 3.96385 0
M  V30 5578 H 544.088 2.46408 6.07423 0
M  V30 5579 H 543.608 0.755997 5.95017 0
M  V30 5580 H 545.287 1.18618 6.36034 0
M  V30 5581 N 545.419 -1.53889 0.339982 0
M  V30 5582 C 546.83 -1.86139 -0.144671 0
M  V30 5583 C 547.181 -1.2613 -1.50285 0
M  V30 5584 O 546.306 -0.573515 -2.08662 0
M  V30 5585 C 546.901 -3.37728 -0.269285 0
M  V30 5586 C 545.46 -3.69868 -0.698168 0
M  V30 5587 C 544.607 -2.76777 0.170249 0
M  V30 5588 H 547.558 -1.48503 0.559704 0
M  V30 5589 H 547.579 -3.64331 -1.0974 0
M  V30 5590 H 547.091 -3.81375 0.719366 0
M  V30 5591 H 545.192 -3.31764 -1.69597 0
M  V30 5592 H 545.305 -4.76582 -0.490533 0
M  V30 5593 H 543.669 -2.52188 -0.356844 0
M  V30 5594 H 544.452 -3.23253 1.15597 0
M  V30 5595 N 546.897 -0.0685191 -1.57451 0
M  V30 5596 C 548.145 0.60016 -1.92983 0
M  V30 5597 C 548.466 1.70348 -0.949028 0
M  V30 5598 O 547.736 1.959 0.00335647 0
M  V30 5599 H 546.316 0.224682 -0.712409 0
M  V30 5600 H 548.978 -0.125605 -1.94495 0
M  V30 5601 H 548.074 1.02759 -2.94698 0
M  V30 5602 N 548.375 1.56261 0.205012 0
M  V30 5603 C 549.338 1.92908 1.23771 0
M  V30 5604 C 550.338 0.809208 1.38955 0
M  V30 5605 O 551.528 1.07676 1.36936 0
M  V30 5606 C 548.66 2.19442 2.60879 0
M  V30 5607 H 549.853 2.85287 0.924728 0
M  V30 5608 H 547.406 1.49798 0.446125 0
M  V30 5609 H 548.141 1.29668 2.97248 0
M  V30 5610 H 547.926 3.0104 2.51232 0
M  V30 5611 H 549.416 2.48833 3.35368 0
M  V30 5612 N 549.853 -0.472356 1.50355 0
M  V30 5613 C 550.816 -1.5529 1.68576 0
M  V30 5614 C 551.816 -1.50863 0.556511 0
M  V30 5615 O 553.006 -1.53505 0.823516 0
M  V30 5616 C 550.138 -2.94921 1.70981 0
M  V30 5617 H 551.331 -1.40451 2.64978 0
M  V30 5618 H 548.884 -0.698645 1.39816 0
M  V30 5619 H 549.619 -3.15204 0.762675 0
M  V30 5620 H 549.404 -2.99541 2.53017 0
M  V30 5621 H 550.894 -3.73372 1.87037 0
M  V30 5622 N 551.331 -1.39911 -0.725443 0
M  V30 5623 C 552.556 -1.41137 -1.5197 0
M  V30 5624 C 552.981 -0.010262 -1.88097 0
M  V30 5625 O 552.339 0.979184 -1.52583 0
M  V30 5626 C 552.387 -2.2994 -2.77777 0
M  V30 5627 O 551.491 -1.73586 -3.74088 0
M  V30 5628 H 550.832 -0.480219 -0.458569 0
M  V30 5629 H 553.362 -1.84023 -0.894249 0
M  V30 5630 H 553.372 -2.44785 -3.26411 0
M  V30 5631 H 552.047 -3.31759 -2.50816 0
M  V30 5632 H 550.624 -1.68035 -3.32894 0
M  V30 5633 N 552.809 0.956637 -1.25245 0
M  V30 5634 C 554.057 1.69764 -1.09657 0
M  V30 5635 C 554.378 1.91583 0.363464 0
M  V30 5636 O 553.648 1.50149 1.25825 0
M  V30 5637 H 552.228 0.629097 -0.402798 0
M  V30 5638 H 554.89 1.15026 -1.57337 0
M  V30 5639 H 553.986 2.67769 -1.60331 0
M  V30 5640 N 554.287 1.06798 1.15896 0
M  V30 5641 C 555.217 0.704677 2.22613 0
M  V30 5642 C 556.198 -0.305252 1.67339 0
M  V30 5643 O 557.383 -0.179247 1.93371 0
M  V30 5644 C 554.513 0.0957325 3.47168 0
M  V30 5645 C 553.467 1.0322 4.15367 0
M  V30 5646 C 552.793 0.286293 5.33933 0
M  V30 5647 C 554.093 2.36341 4.65768 0
M  V30 5648 H 555.787 1.59688 2.53259 0
M  V30 5649 H 553.333 0.769257 1.21731 0
M  V30 5650 H 555.286 -0.170333 4.21056 0
M  V30 5651 H 554.01 -0.831516 3.15838 0
M  V30 5652 H 552.669 1.28309 3.43413 0
M  V30 5653 H 552.317 -0.644237 4.98857 0
M  V30 5654 H 552.017 0.910436 5.80504 0
M  V30 5655 H 553.541 0.0278938 6.10594 0
M  V30 5656 H 554.955 2.1561 5.31211 0
M  V30 5657 H 553.352 2.94299 5.2298 0
M  V30 5658 H 554.422 2.99047 3.81705 0
M  V30 5659 N 555.766 -1.3263 0.851289 0
M  V30 5660 C 557.015 -1.96633 0.449267 0
M  V30 5661 C 557.328 -1.68131 -0.999562 0
M  V30 5662 O 558.534 -2.25845 -1.50685 0
M  V30 5663 C 556.99 -3.51946 0.752446 0
M  V30 5664 C 556.598 -3.89311 2.21678 0
M  V30 5665 C 558.342 -4.22437 0.417983 0
M  V30 5666 C 556.249 -5.37655 2.46336 0
M  V30 5667 H 555.179 -0.735888 0.164269 0
M  V30 5668 H 557.83 -1.51073 1.0416 0
M  V30 5669 H 556.212 -3.95899 0.0895858 0
M  V30 5670 H 557.386 -3.56378 2.92115 0
M  V30 5671 H 555.701 -3.31836 2.51543 0
M  V30 5672 H 558.298 -5.31549 0.579674 0
M  V30 5673 H 558.641 -4.11349 -0.640115 0
M  V30 5674 H 559.174 -3.84057 1.03659 0
M  V30 5675 H 555.913 -5.5376 3.50757 0
M  V30 5676 H 555.433 -5.72005 1.80473 0
M  V30 5677 H 557.112 -6.04695 2.30115 0
M  V30 5678 N 557.244 -0.608902 -1.45362 0
M  V30 5679 C 558.191 0.109172 -2.30542 0
M  V30 5680 C 559.161 0.858704 -1.42181 0
M  V30 5681 O 560.346 0.844178 -1.71109 0
M  V30 5682 C 557.486 1.09971 -3.27109 0
M  V30 5683 C 556.599 0.350911 -4.30572 0
M  V30 5684 C 555.734 1.33129 -5.14247 0
M  V30 5685 C 554.773 0.570377 -6.09437 0
M  V30 5686 N 553.91 1.5001 -6.85887 0
M  V30 5687 H 558.75 -0.623195 -2.91411 0
M  V30 5688 H 556.287 -0.319122 -1.43597 0
M  V30 5689 H 558.245 1.68714 -3.81564 0
M  V30 5690 H 556.875 1.79947 -2.67991 0
M  V30 5691 H 555.927 -0.352054 -3.78767 0
M  V30 5692 H 557.239 -0.242725 -4.98209 0
M  V30 5693 H 556.393 1.99074 -5.73109 0
M  V30 5694 H 555.132 1.95885 -4.46632 0
M  V30 5695 H 554.137 -0.102702 -5.49704 0
M  V30 5696 H 555.362 -0.0521607 -6.7908 0
M  V30 5697 H 553.308 2.11529 -6.2096 0
M  V30 5698 H 553.225 0.959934 -7.49881 0
M  V30 5699 H 554.493 2.14909 -7.49289 0
M  V30 5700 N 558.722 1.53707 -0.348139 0
M  V30 5701 C 559.632 2.28881 0.514857 0
M  V30 5702 C 560.648 1.34168 1.10793 0
M  V30 5703 O 561.824 1.6721 1.12262 0
M  V30 5704 C 558.889 3.05042 1.64774 0
M  V30 5705 C 557.95 4.15389 1.08398 0
M  V30 5706 C 557.183 4.87909 2.16287 0
M  V30 5707 O 557.406 4.60137 3.3709 0
M  V30 5708 O 556.34 5.74254 1.80323 0
M  V30 5709 H 560.166 3.03547 -0.0963699 0
M  V30 5710 H 557.751 1.48972 -0.113043 0
M  V30 5711 H 559.633 3.52656 2.30677 0
M  V30 5712 H 558.308 2.33228 2.24469 0
M  V30 5713 H 557.215 3.72068 0.389341 0
M  V30 5714 H 558.548 4.89318 0.531829 0
M  V30 5715 N 560.2 0.0768682 1.57412 0
M  V30 5716 C 561.148 -0.906229 2.1422 0
M  V30 5717 C 562.142 -1.30477 1.08037 0
M  V30 5718 O 563.348 -1.28143 1.2641 0
M  V30 5719 H 559.723 -0.310207 0.685037 0
M  V30 5720 H 561.694 -0.402228 2.95677 0
M  V30 5721 C 560.443 -2.16245 2.72274 0
M  V30 5722 H 559.766 -1.86463 3.53655 0
M  V30 5723 H 561.206 -2.83134 3.15613 0
M  V30 5724 C 559.665 -2.92437 1.67279 0
M  V30 5725 O 560.195 -3.86322 1.10081 0
M  V30 5726 N 558.401 -2.55637 1.38195 0
M  V30 5727 H 557.948 -1.79363 1.84897 0
M  V30 5728 H 557.906 -3.06919 0.681787 0
M  V30 5729 N 561.678 -1.56367 -0.196722 0
M  V30 5730 C 562.608 -1.97442 -1.24655 0
M  V30 5731 C 563.589 -0.846147 -1.47561 0
M  V30 5732 O 564.774 -1.11035 -1.59326 0
M  V30 5733 C 561.904 -2.31253 -2.59112 0
M  V30 5734 C 560.858 -3.46804 -2.50821 0
M  V30 5735 C 560.184 -3.66286 -3.89536 0
M  V30 5736 C 561.484 -4.8104 -2.03465 0
M  V30 5737 H 563.178 -2.85388 -0.905216 0
M  V30 5738 H 560.724 -1.37304 -0.434002 0
M  V30 5739 H 562.677 -2.58583 -3.32736 0
M  V30 5740 H 561.401 -1.40188 -2.94983 0
M  V30 5741 H 560.06 -3.19563 -1.79653 0
M  V30 5742 H 559.708 -2.72555 -4.22756 0
M  V30 5743 H 559.408 -4.4402 -3.84864 0
M  V30 5744 H 560.932 -3.9599 -4.64784 0
M  V30 5745 H 562.346 -5.07411 -2.66846 0
M  V30 5746 H 560.743 -5.62232 -2.09798 0
M  V30 5747 H 561.813 -4.74732 -0.98781 0
M  V30 5748 N 563.156 0.464375 -1.50603 0
M  V30 5749 C 564.402 1.21485 -1.63135 0
M  V30 5750 C 564.757 1.89538 -0.33063 0
M  V30 5751 O 564.05 1.79432 0.671903 0
M  V30 5752 C 564.244 2.278 -2.75394 0
M  V30 5753 C 564.073 1.70178 -4.16257 0
M  V30 5754 C 562.843 1.49854 -4.82568 0
M  V30 5755 C 565.041 1.19298 -5.00272 0
M  V30 5756 N 563.023 0.875458 -6.07626 0
M  V30 5757 C 564.394 0.693527 -6.16109 0
M  V30 5758 C 566.449 1.08216 -4.85998 0
M  V30 5759 C 565.152 0.0941808 -7.19238 0
M  V30 5760 C 567.178 0.496745 -5.8931 0
M  V30 5761 C 566.54 0.00770448 -7.044 0
M  V30 5762 H 562.639 0.433184 -0.651057 0
M  V30 5763 H 565.223 0.515748 -1.87745 0
M  V30 5764 H 563.394 2.95129 -2.52495 0
M  V30 5765 H 565.126 2.94814 -2.77249 0
M  V30 5766 H 561.881 1.75269 -4.39975 0
M  V30 5767 H 562.305 0.582135 -6.74493 0
M  V30 5768 H 566.947 1.44617 -3.97298 0
M  V30 5769 H 564.665 -0.28202 -8.07608 0
M  V30 5770 H 568.251 0.413275 -5.8033 0
M  V30 5771 H 567.131 -0.438188 -7.82975 0
M  V30 5772 N 564.634 1.40294 0.718013 0
M  V30 5773 C 565.859 1.41941 1.5122 0
M  V30 5774 C 566.284 0.0202371 1.88089 0
M  V30 5775 O 565.642 -0.971078 1.53101 0
M  V30 5776 C 565.69 2.3141 2.76554 0
M  V30 5777 O 564.794 1.75567 3.73162 0
M  V30 5778 H 564.135 0.482644 0.456016 0
M  V30 5779 H 566.665 1.84494 0.884478 0
M  V30 5780 H 566.675 2.46513 3.25108 0
M  V30 5781 H 565.35 3.33085 2.49053 0
M  V30 5782 H 563.927 1.69798 3.31999 0
M  V30 5783 N 566.112 -0.949982 1.2575 0
M  V30 5784 C 567.337 -1.73503 1.13628 0
M  V30 5785 C 567.762 -1.85601 -0.30559 0
M  V30 5786 O 567.12 -1.33984 -1.22139 0
M  V30 5787 C 567.168 -3.1243 1.80055 0
M  V30 5788 O 566.272 -3.97916 1.08336 0
M  V30 5789 H 565.613 -0.532665 0.396439 0
M  V30 5790 H 568.143 -1.19043 1.66403 0
M  V30 5791 H 568.153 -3.62866 1.86527 0
M  V30 5792 H 566.828 -3.02941 2.84956 0
M  V30 5793 H 565.405 -3.56375 1.09777 0
M  V30 5794 N 567.59 -1.07411 -1.15328 0
M  V30 5795 C 568.82 -0.817595 -1.89734 0
M  V30 5796 C 569.228 0.63297 -1.78298 0
M  V30 5797 O 568.571 1.44594 -1.13306 0
M  V30 5798 C 568.633 -1.14748 -3.40695 0
M  V30 5799 C 568.297 -2.59876 -3.75917 0
M  V30 5800 C 569.294 -3.58122 -3.76888 0
M  V30 5801 C 566.979 -2.95469 -4.06206 0
M  V30 5802 C 568.973 -4.89996 -4.07655 0
M  V30 5803 C 566.66 -4.2754 -4.36638 0
M  V30 5804 C 567.658 -5.24614 -4.37344 0
M  V30 5805 O 567.346 -6.54312 -4.67045 0
M  V30 5806 H 567.078 -0.295175 -0.608151 0
M  V30 5807 H 569.632 -1.43409 -1.47048 0
M  V30 5808 H 567.862 -0.47395 -3.83785 0
M  V30 5809 H 569.551 -0.873397 -3.96392 0
M  V30 5810 H 570.317 -3.31966 -3.53587 0
M  V30 5811 H 566.196 -2.20558 -4.04815 0
M  V30 5812 H 569.74 -5.65759 -4.08121 0
M  V30 5813 H 565.637 -4.53449 -4.59407 0
M  V30 5814 H 566.405 -6.59473 -4.84807 0
M  V30 5815 N 569.068 1.32177 -0.85831 0
M  V30 5816 C 569.998 2.31282 -0.321041 0
M  V30 5817 C 570.979 1.59841 0.581786 0
M  V30 5818 O 572.164 1.87619 0.501262 0
M  V30 5819 C 569.294 3.4385 0.48832 0
M  V30 5820 C 568.248 4.26799 -0.320391 0
M  V30 5821 C 567.574 5.31164 0.613934 0
M  V30 5822 C 568.874 4.98829 -1.54813 0
M  V30 5823 H 570.568 2.76469 -1.14915 0
M  V30 5824 H 568.114 1.32916 -0.554028 0
M  V30 5825 H 570.067 4.12224 0.874626 0
M  V30 5826 H 568.791 2.97401 1.34983 0
M  V30 5827 H 567.45 3.60077 -0.688497 0
M  V30 5828 H 567.098 4.80967 1.47239 0
M  V30 5829 H 566.798 5.8755 0.0768097 0
M  V30 5830 H 568.322 6.024 0.997336 0
M  V30 5831 H 569.736 5.59864 -1.23392 0
M  V30 5832 H 568.133 5.64957 -2.02346 0
M  V30 5833 H 569.203 4.26483 -2.30739 0
M  V30 5834 N 570.547 0.616602 1.45037 0
M  V30 5835 C 571.775 0.121968 2.0654 0
M  V30 5836 C 572.19 -1.19743 1.45969 0
M  V30 5837 O 571.547 -1.73133 0.577168 0
M  V30 5838 C 571.598 -0.0145171 3.61497 0
M  V30 5839 O 571.319 1.25269 4.19809 0
M  V30 5840 C 572.82 -0.539555 4.40004 0
M  V30 5841 H 570.04 0.0729837 0.667019 0
M  V30 5842 H 572.584 0.846891 1.8614 0
M  V30 5843 H 570.739 -0.689809 3.81209 0
M  V30 5844 H 571.153 1.08816 5.13088 0
M  V30 5845 H 572.627 -0.584112 5.48901 0
M  V30 5846 H 573.104 -1.56368 4.10421 0
M  V30 5847 H 573.71 0.101995 4.25178 0
M  V30 5848 N 572.025 -1.5352 0.356285 0
M  V30 5849 C 572.972 -2.25439 -0.494569 0
M  V30 5850 C 573.942 -1.25752 -1.08516 0
M  V30 5851 O 575.127 -1.54513 -1.1194 0
M  V30 5852 C 572.267 -3.04011 -1.63313 0
M  V30 5853 C 571.38 -4.18574 -1.06862 0
M  V30 5854 C 570.515 -4.84607 -2.17552 0
M  V30 5855 C 569.554 -5.91218 -1.58518 0
M  V30 5856 N 568.691 -6.50979 -2.63003 0
M  V30 5857 H 573.531 -2.97737 0.125244 0
M  V30 5858 H 571.068 -1.46916 0.0735789 0
M  V30 5859 H 573.026 -3.47834 -2.30363 0
M  V30 5860 H 571.656 -2.33986 -2.22374 0
M  V30 5861 H 570.708 -3.79303 -0.288672 0
M  V30 5862 H 572.02 -4.95215 -0.596924 0
M  V30 5863 H 571.174 -5.31566 -2.92442 0
M  V30 5864 H 569.913 -4.07418 -2.6807 0
M  V30 5865 H 568.918 -5.4363 -0.821391 0
M  V30 5866 H 570.143 -6.70322 -1.08836 0
M  V30 5867 H 568.089 -5.76648 -3.12751 0
M  V30 5868 H 568.006 -7.23131 -2.20493 0
M  V30 5869 H 569.274 -7.02589 -3.37623 0
M  V30 5870 N 573.503 -0.0852151 -1.57369 0
M  V30 5871 C 574.751 0.579658 -1.93609 0
M  V30 5872 C 575.072 1.69332 -0.967043 0
M  V30 5873 O 574.342 1.95892 -0.0174215 0
M  V30 5874 H 572.922 0.217113 -0.714752 0
M  V30 5875 H 575.584 -0.146226 -1.94351 0
M  V30 5876 H 574.68 0.996276 -2.95771 0
M  V30 5877 N 574.981 1.5647 0.188427 0
M  V30 5878 C 576.227 1.81281 0.909124 0
M  V30 5879 C 576.56 0.66034 1.82628 0
M  V30 5880 O 575.835 -0.338737 1.91528 0
M  V30 5881 C 576.118 3.16388 1.7196 0
M  V30 5882 C 575.971 4.42137 0.826714 0
M  V30 5883 C 577.29 3.48256 2.69083 0
M  V30 5884 H 574.409 0.659457 0.329068 0
M  V30 5885 H 577.051 1.89182 0.176156 0
M  V30 5886 H 575.201 3.09784 2.34448 0
M  V30 5887 H 576.873 4.60794 0.216025 0
M  V30 5888 H 575.116 4.33594 0.133792 0
M  V30 5889 H 575.787 5.33184 1.42893 0
M  V30 5890 H 578.263 3.55203 2.16726 0
M  V30 5891 H 577.139 4.43899 3.2287 0
M  V30 5892 H 577.4 2.72088 3.48455 0
M  V30 5893 N 576.459 -0.456382 1.50847 0
M  V30 5894 C 577.708 -1.2042 1.61808 0
M  V30 5895 C 578.021 -1.9278 0.330932 0
M  V30 5896 O 579.227 -2.69612 0.319643 0
M  V30 5897 C 577.683 -2.18891 2.85683 0
M  V30 5898 C 577.291 -1.52267 4.2133 0
M  V30 5899 C 579.035 -2.94224 3.05994 0
M  V30 5900 C 576.942 -2.4911 5.36375 0
M  V30 5901 H 575.872 -0.453177 0.602616 0
M  V30 5902 H 578.523 -0.473144 1.77295 0
M  V30 5903 H 576.905 -2.95351 2.63787 0
M  V30 5904 H 578.079 -0.814949 4.53536 0
M  V30 5905 H 576.394 -0.891594 4.06743 0
M  V30 5906 H 578.991 -3.66732 3.89117 0
M  V30 5907 H 579.334 -3.54469 2.18306 0
M  V30 5908 H 579.867 -2.24874 3.28141 0
M  V30 5909 H 576.606 -1.93582 6.26264 0
M  V30 5910 H 576.126 -3.17991 5.08569 0
M  V30 5911 H 577.805 -3.10637 5.67551 0
M  V30 5912 N 577.937 -1.40673 -0.710563 0
M  V30 5913 C 579.183 -1.39428 -1.47267 0
M  V30 5914 C 579.516 0.00182129 -1.942 0
M  V30 5915 O 578.791 0.971387 -1.68506 0
M  V30 5916 C 579.074 -2.38812 -2.6952 0
M  V30 5917 C 578.927 -3.87467 -2.28449 0
M  V30 5918 C 580.246 -2.3566 -3.71689 0
M  V30 5919 H 577.365 -0.507768 -0.534173 0
M  V30 5920 H 580.007 -1.71843 -0.810547 0
M  V30 5921 H 578.157 -2.113 -3.26013 0
M  V30 5922 H 579.829 -4.25825 -1.77399 0
M  V30 5923 H 578.072 -4.03058 -1.60395 0
M  V30 5924 H 578.743 -4.5253 -3.16103 0
M  V30 5925 H 581.219 -2.6004 -3.24836 0
M  V30 5926 H 580.095 -3.07237 -4.54859 0
M  V30 5927 H 580.356 -1.36996 -4.20339 0
M  V30 5928 N 579.415 0.9433 -1.26252 0
M  V30 5929 C 580.325 2.07532 -1.09397 0
M  V30 5930 C 581.341 1.73977 -0.0280449 0
M  V30 5931 O 582.517 2.00067 -0.231337 0
M  V30 5932 C 579.582 3.39002 -0.726523 0
M  V30 5933 C 578.643 3.86353 -1.87163 0
M  V30 5934 C 577.876 5.11549 -1.52162 0
M  V30 5935 O 578.099 5.68834 -0.422385 0
M  V30 5936 O 577.033 5.53889 -2.35565 0
M  V30 5937 H 580.859 2.24658 -2.04359 0
M  V30 5938 H 578.444 1.05988 -1.05295 0
M  V30 5939 H 580.326 4.18 -0.534236 0
M  V30 5940 H 579.001 3.2312 0.193721 0
M  V30 5941 H 577.908 3.0831 -2.11886 0
M  V30 5942 H 579.241 4.06752 -2.77152 0
M  V30 5943 N 580.893 1.08022 1.14757 0
M  V30 5944 C 582.309 0.807072 1.3769 0
M  V30 5945 C 582.509 -0.585504 1.92806 0
M  V30 5946 O 581.565 -1.34301 2.13821 0
M  V30 5947 C 582.878 1.88651 2.34161 0
M  V30 5948 C 584.426 1.91206 2.47809 0
M  V30 5949 C 584.901 2.98253 3.47576 0
M  V30 5950 N 586.392 2.974 3.55117 0
M  V30 5951 C 587.127 3.76872 4.32152 0
M  V30 5952 N 586.623 4.66212 5.12463 0
M  V30 5953 N 588.416 3.6519 4.27309 0
M  V30 5954 H 580.567 1.97824 0.77326 0
M  V30 5955 H 582.83 0.85826 0.402608 0
M  V30 5956 H 582.536 2.88749 2.00791 0
M  V30 5957 H 582.41 1.75244 3.3402 0
M  V30 5958 H 584.797 0.917564 2.80472 0
M  V30 5959 H 584.878 2.08691 1.47925 0
M  V30 5960 H 584.522 3.97907 3.15646 0
M  V30 5961 H 584.452 2.78014 4.47231 0
M  V30 5962 H 586.943 2.32643 2.97801 0
M  V30 5963 H 587.256 5.23468 5.68508 0
M  V30 5964 H 585.601 4.70257 5.11745 0
M  V30 5965 H 588.792 2.94765 3.63636 0
M  V30 5966 H 588.965 4.27366 4.87095 0
M  V30 5967 N 582.371 -1.3172 0.865308 0
M  V30 5968 C 583.596 -2.01591 0.487415 0
M  V30 5969 C 584.021 -1.6455 -0.911307 0
M  V30 5970 O 583.379 -0.851689 -1.6005 0
M  V30 5971 C 583.427 -3.54759 0.646401 0
M  V30 5972 O 582.531 -4.11185 -0.316284 0
M  V30 5973 H 581.872 -0.634884 0.194468 0
M  V30 5974 H 584.402 -1.68024 1.16744 0
M  V30 5975 H 584.412 -4.04438 0.537932 0
M  V30 5976 H 583.087 -3.8106 1.66632 0
M  V30 5977 H 581.664 -3.72543 -0.163162 0
M  V30 5978 N 583.85 -0.624285 -1.44708 0
M  V30 5979 C 585.098 -0.125802 -2.01708 0
M  V30 5980 C 585.418 1.2543 -1.49306 0
M  V30 5981 O 584.689 1.83198 -0.693924 0
M  V30 5982 H 583.269 -0.0435161 -0.745731 0
M  V30 5983 H 585.931 -0.809446 -1.77296 0
M  V30 5984 H 585.027 -0.0882734 -3.11975 0
M  V30 5985 N 585.328 1.53329 -0.364422 0
M  V30 5986 C 586.261 2.22052 0.526145 0
M  V30 5987 C 587.239 1.21203 1.08391 0
M  V30 5988 O 588.423 1.50101 1.14026 0
M  V30 5989 C 585.55 2.91432 1.72583 0
M  V30 5990 C 584.596 4.06345 1.29562 0
M  V30 5991 S 585.429 5.34671 0.297885 0
M  V30 5992 C 586.585 6.07563 1.50392 0
M  V30 5993 H 586.818 2.97244 -0.0575055 0
M  V30 5994 H 584.351 1.53684 -0.148525 0
M  V30 5995 H 586.309 3.3202 2.41398 0
M  V30 5996 H 584.97 2.15966 2.28073 0
M  V30 5997 H 584.163 4.53901 2.19067 0
M  V30 5998 H 583.765 3.67642 0.686696 0
M  V30 5999 H 586.057 6.32224 2.43513 0
M  V30 6000 H 587 6.99973 1.06977 0
M  V30 6001 H 587.408 5.37994 1.70945 0
M  V30 6002 N 586.806 0.0935595 1.57322 0
M  V30 6003 C 588.034 -0.578934 1.98635 0
M  V30 6004 C 588.449 -1.61819 0.972626 0
M  V30 6005 O 587.806 -1.82461 -0.0379638 0
M  V30 6006 C 587.857 -1.22802 3.40003 0
M  V30 6007 O 587.578 -0.230334 4.37494 0
M  V30 6008 C 589.079 -1.98627 3.96311 0
M  V30 6009 H 586.299 -0.155324 0.652775 0
M  V30 6010 H 588.843 0.172393 2.03772 0
M  V30 6011 H 586.998 -1.93029 3.35885 0
M  V30 6012 H 587.412 -0.698649 5.19826 0
M  V30 6013 H 588.886 -2.39405 4.97382 0
M  V30 6014 H 589.363 -2.85151 3.34044 0
M  V30 6015 H 589.969 -1.3322 4.03897 0
M  V30 6016 N 588.284 -1.56567 -0.180126 0
M  V30 6017 C 589.509 -1.85975 -0.918041 0
M  V30 6018 C 589.934 -0.678888 -1.75422 0
M  V30 6019 O 589.292 0.372168 -1.77439 0
M  V30 6020 C 589.34 -3.13731 -1.77779 0
M  V30 6021 O 588.444 -2.95335 -2.87838 0
M  V30 6022 H 587.785 -0.61196 -0.257683 0
M  V30 6023 H 590.315 -2.03798 -0.180923 0
M  V30 6024 H 590.325 -3.4491 -2.17948 0
M  V30 6025 H 589 -3.99293 -1.16352 0
M  V30 6026 H 587.577 -2.7549 -2.51316 0
M  V30 6027 N 589.762 0.448376 -1.51087 0
M  V30 6028 C 591.008 1.20049 -1.6345 0
M  V30 6029 C 591.341 1.91121 -0.344444 0
M  V30 6030 O 590.616 1.83125 0.655396 0
M  V30 6031 C 590.899 2.22624 -2.83038 0
M  V30 6032 C 590.752 1.55708 -4.21989 0
M  V30 6033 C 592.071 3.23718 -2.98152 0
M  V30 6034 H 589.19 0.435085 -0.59487 0
M  V30 6035 H 591.832 0.491183 -1.83541 0
M  V30 6036 H 589.982 2.83117 -2.66039 0
M  V30 6037 H 591.654 0.986367 -4.50631 0
M  V30 6038 H 589.897 0.859647 -4.25197 0
M  V30 6039 H 590.568 2.30357 -5.01637 0
M  V30 6040 H 593.044 2.73269 -3.13788 0
M  V30 6041 H 591.92 3.92795 -3.83411 0
M  V30 6042 H 592.181 3.89179 -2.09743 0
M  V30 6043 N 591.24 1.41047 0.703093 0
M  V30 6044 C 592.488 1.39723 1.4602 0
M  V30 6045 C 592.809 0.00461257 1.94999 0
M  V30 6046 O 592.079 -0.952292 1.71196 0
M  V30 6047 H 590.659 0.514281 0.541779 0
M  V30 6048 H 593.321 1.76217 0.832678 0
M  V30 6049 H 592.417 2.07982 2.32701 0
M  V30 6050 N 592.718 -0.936591 1.26751 0
M  V30 6051 C 593.648 -2.05315 1.11212 0
M  V30 6052 C 594.629 -1.70092 0.0160262 0
M  V30 6053 O 595.814 -1.93279 0.188894 0
M  V30 6054 C 592.944 -3.39123 0.749171 0
M  V30 6055 C 591.898 -3.88425 1.79751 0
M  V30 6056 C 591.224 -5.18936 1.28876 0
M  V30 6057 C 592.524 -4.12798 3.19992 0
M  V30 6058 H 594.218 -2.18573 2.04613 0
M  V30 6059 H 591.764 -1.05027 0.985159 0
M  V30 6060 H 593.717 -4.16704 0.627323 0
M  V30 6061 H 592.441 -3.25855 -0.220543 0
M  V30 6062 H 591.1 -3.13028 1.90811 0
M  V30 6063 H 590.748 -5.02051 0.308757 0
M  V30 6064 H 590.448 -5.52892 1.98958 0
M  V30 6065 H 591.972 -5.99096 1.17967 0
M  V30 6066 H 593.386 -4.80977 3.11983 0
M  V30 6067 H 591.783 -4.58044 3.87705 0
M  V30 6068 H 592.853 -3.18412 3.65707 0
M  V30 6069 N 594.196 -1.08629 -1.14182 0
M  V30 6070 C 595.159 -0.722027 -2.1753 0
M  V30 6071 C 596.159 0.244305 -1.58933 0
M  V30 6072 O 597.349 0.0235545 -1.74184 0
M  V30 6073 C 594.481 -0.0663966 -3.40835 0
M  V30 6074 H 595.674 -1.63719 -2.51269 0
M  V30 6075 H 593.227 -0.884442 -1.28869 0
M  V30 6076 H 593.962 0.860389 -3.12678 0
M  V30 6077 H 593.747 -0.761598 -3.84632 0
M  V30 6078 H 595.237 0.173346 -4.1724 0
M  V30 6079 N 595.674 1.31259 -0.872281 0
M  V30 6080 C 596.951 1.91362 -0.404943 0
M  V30 6081 C 597.331 1.79362 1.11321 0
M  V30 6082 O 596.679 1.20277 1.94283 0
M  V30 6083 C 596.889 3.3749 -0.888893 0
M  V30 6084 C 598.237 4.14593 -0.916384 0
M  V30 6085 O 599.261 3.46282 -0.834701 0
M  V30 6086 O 598.12 5.3661 -1.03498 0
M  V30 6087 H 595.214 0.818016 -0.121569 0
M  V30 6088 H 597.76 1.39912 -0.960346 0
M  V30 6089 H 596.532 3.40249 -1.93251 0
M  V30 6090 H 596.155 3.96375 -0.311932 0
M  V30 6091 N 597.152 0.631951 1.44375 0
M  V30 6092 C 598.4 0.136497 2.01639 0
M  V30 6093 C 598.721 -1.24637 1.49969 0
M  V30 6094 O 597.991 -1.82827 0.70363 0
M  V30 6095 H 596.571 0.0474703 0.74549 0
M  V30 6096 H 599.233 0.818837 1.76865 0
M  V30 6097 H 598.329 0.104817 3.11924 0
M  V30 6098 N 598.631 -1.53133 0.372548 0
M  V30 6099 C 599.859 -2.05774 -0.215515 0
M  V30 6100 C 600.274 -1.24555 -1.41886 0
M  V30 6101 O 599.631 -0.287951 -1.80214 0
M  V30 6102 C 599.682 -3.5645 -0.602161 0
M  V30 6103 O 599.403 -4.34591 0.553359 0
M  V30 6104 C 600.904 -4.25374 -1.24787 0
M  V30 6105 H 598.124 -0.670009 -0.0364529 0
M  V30 6106 H 600.668 -1.97434 0.532934 0
M  V30 6107 H 598.823 -3.64918 -1.30052 0
M  V30 6108 H 599.237 -5.23954 0.239336 0
M  V30 6109 H 600.711 -5.32097 -1.46891 0
M  V30 6110 H 601.188 -3.79531 -2.21026 0
M  V30 6111 H 601.794 -4.21177 -0.590752 0
M  V30 6112 N 600.109 -0.101901 -1.5727 0
M  V30 6113 C 601.52 0.426173 -1.81771 0
M  V30 6114 C 601.871 1.67725 -1.01797 0
M  V30 6115 O 600.996 2.14958 -0.249386 0
M  V30 6116 C 601.591 0.779962 -3.297 0
M  V30 6117 C 600.15 1.25275 -3.54941 0
M  V30 6118 C 599.297 0.252814 -2.76145 0
M  V30 6119 H 602.248 -0.32726 -1.55289 0
M  V30 6120 H 602.269 1.63891 -3.43395 0
M  V30 6121 H 601.781 -0.130778 -3.8788 0
M  V30 6122 H 599.882 2.18097 -3.021 0
M  V30 6123 H 599.995 1.20988 -4.63572 0
M  V30 6124 H 598.359 0.736362 -2.43823 0
M  V30 6125 H 599.142 -0.650724 -3.37076 0
M  V30 6126 N 601.587 1.56661 0.17182 0
M  V30 6127 C 602.836 1.81158 0.886831 0
M  V30 6128 C 603.149 0.679072 1.83434 0
M  V30 6129 O 604.355 0.808964 2.59168 0
M  V30 6130 C 602.811 3.20999 1.6275 0
M  V30 6131 C 602.419 4.42117 0.723652 0
M  V30 6132 C 604.163 3.5479 2.33076 0
M  V30 6133 C 602.07 5.7298 1.46452 0
M  V30 6134 H 601 0.675543 0.334899 0
M  V30 6135 H 603.651 1.82967 0.139765 0
M  V30 6136 H 602.033 3.13506 2.4193 0
M  V30 6137 H 603.207 4.60789 -0.0311485 0
M  V30 6138 H 601.522 4.16197 0.130063 0
M  V30 6139 H 604.119 4.49806 2.89099 0
M  V30 6140 H 604.462 2.79646 3.08389 0
M  V30 6141 H 604.995 3.63834 1.6084 0
M  V30 6142 H 601.734 6.51152 0.753729 0
M  V30 6143 H 601.254 5.58285 2.19266 0
M  V30 6144 H 602.933 6.14916 2.01214 0
M  V30 6145 N 603.065 -0.440357 1.51323 0
M  V30 6146 C 604.342 -1.20109 1.5438 0
M  V30 6147 C 604.722 -2.08866 0.306303 0
M  V30 6148 O 604.07 -2.1723 -0.708773 0
M  V30 6149 C 604.28 -2.00555 2.8562 0
M  V30 6150 C 605.628 -2.577 3.37455 0
M  V30 6151 O 606.652 -2.10769 2.8715 0
M  V30 6152 O 605.511 -3.43289 4.25224 0
M  V30 6153 H 602.605 -0.546668 0.620551 0
M  V30 6154 H 605.151 -0.449672 1.63634 0
M  V30 6155 H 603.923 -1.35346 3.67147 0
M  V30 6156 H 603.546 -2.82768 2.79514 0
M  V30 6157 N 604.543 -1.41418 -0.695603 0
M  V30 6158 C 605.476 -1.3768 -1.81988 0
M  V30 6159 C 606.454 -0.244061 -1.60758 0
M  V30 6160 O 607.638 -0.430965 -1.83507 0
M  V30 6161 C 604.765 -1.1476 -3.18666 0
M  V30 6162 C 603.811 -2.30752 -3.58686 0
M  V30 6163 S 604.644 -3.9323 -3.63498 0
M  V30 6164 C 605.8 -3.72613 -5.02902 0
M  V30 6165 H 606.033 -2.32822 -1.84882 0
M  V30 6166 H 603.566 -1.27942 -0.86431 0
M  V30 6167 H 605.524 -1.02223 -3.97569 0
M  V30 6168 H 604.185 -0.212385 -3.13381 0
M  V30 6169 H 603.378 -2.10409 -4.57978 0
M  V30 6170 H 602.98 -2.39696 -2.87092 0
M  V30 6171 H 605.272 -3.32317 -5.904 0
M  V30 6172 H 606.215 -4.71507 -5.28286 0
M  V30 6173 H 606.623 -3.0589 -4.74438 0
M  V30 6174 N 606.021 0.929856 -1.27246 0
M  V30 6175 C 607.298 1.65544 -1.04186 0
M  V30 6176 C 607.678 2.06796 0.424097 0
M  V30 6177 O 607.026 1.80053 1.40688 0
M  V30 6178 C 607.236 2.85912 -2.00138 0
M  V30 6179 C 608.584 3.57305 -2.29387 0
M  V30 6180 O 609.608 2.96036 -1.98094 0
M  V30 6181 O 608.467 4.67688 -2.82719 0
M  V30 6182 H 605.561 0.725473 -0.397011 0
M  V30 6183 H 608.107 0.980583 -1.38501 0
M  V30 6184 H 606.879 2.52403 -2.99013 0
M  V30 6185 H 606.502 3.61118 -1.66371 0
M  V30 6186 N 607.499 1.09233 1.13605 0
M  V30 6187 C 608.449 0.6994 2.17008 0
M  V30 6188 C 609.433 -0.285238 1.58352 0
M  V30 6189 O 610.625 -0.09592 1.7674 0
M  V30 6190 C 607.754 0.11938 3.43092 0
M  V30 6191 C 606.84 1.13031 4.0876 0
M  V30 6192 N 607.231 2.31673 4.49623 0
M  V30 6193 C 605.529 0.967999 4.35369 0
M  V30 6194 C 606.23 2.95964 5.00779 0
M  V30 6195 N 605.206 2.23534 4.95513 0
M  V30 6196 H 609.008 1.60272 2.46354 0
M  V30 6197 H 606.522 0.968257 1.30378 0
M  V30 6198 H 608.519 -0.180122 4.16511 0
M  V30 6199 H 607.179 -0.778816 3.15221 0
M  V30 6200 H 608.19 2.69277 4.42391 0
M  V30 6201 H 604.867 0.124319 4.17315 0
M  V30 6202 H 606.257 3.96813 5.42208 0
M  V30 6203 N 608.977 -1.30795 0.87923 0
M  V30 6204 C 610.388 -1.78535 0.546093 0
M  V30 6205 C 610.739 -1.72354 -0.937467 0
M  V30 6206 O 609.864 -1.2969 -1.73233 0
M  V30 6207 C 610.459 -3.24181 0.9845 0
M  V30 6208 C 609.018 -3.69779 0.702871 0
M  V30 6209 C 608.165 -2.51377 1.17068 0
M  V30 6210 H 611.116 -1.17746 1.06403 0
M  V30 6211 H 611.137 -3.79227 0.311045 0
M  V30 6212 H 610.649 -3.28647 2.06429 0
M  V30 6213 H 608.75 -3.70806 -0.365166 0
M  V30 6214 H 608.863 -4.61507 1.28639 0
M  V30 6215 H 607.227 -2.47768 0.590172 0
M  V30 6216 H 608.01 -2.58584 2.25808 0
M  V30 6217 N 610.455 -0.639598 -1.44038 0
M  V30 6218 C 611.685 -0.154586 -2.06021 0
M  V30 6219 C 612.093 1.17951 -1.47933 0
M  V30 6220 O 611.436 1.73627 -0.59994 0
M  V30 6221 C 611.498 0.0255459 -3.59491 0
M  V30 6222 C 611.162 -1.2317 -4.40089 0
M  V30 6223 C 612.159 -2.15735 -4.73027 0
M  V30 6224 C 609.844 -1.46949 -4.80324 0
M  V30 6225 C 611.838 -3.30382 -5.45093 0
M  V30 6226 C 609.525 -2.61891 -5.52138 0
M  V30 6227 C 610.523 -3.53433 -5.84443 0
M  V30 6228 O 610.211 -4.6637 -6.54793 0
M  V30 6229 H 609.943 -0.0808543 -0.671147 0
M  V30 6230 H 612.497 -0.876541 -1.85758 0
M  V30 6231 H 610.727 0.802733 -3.78276 0
M  V30 6232 H 612.416 0.466184 -4.03214 0
M  V30 6233 H 613.182 -1.98602 -4.42473 0
M  V30 6234 H 609.061 -0.765815 -4.54595 0
M  V30 6235 H 612.605 -4.01856 -5.70226 0
M  V30 6236 H 608.502 -2.78964 -5.82108 0
M  V30 6237 H 609.27 -4.6546 -6.73267 0
M  V30 6238 N 611.933 1.52934 -0.380664 0
M  V30 6239 C 613.179 2.01765 0.20458 0
M  V30 6240 C 613.512 1.26696 1.47179 0
M  V30 6241 O 612.787 0.364936 1.91046 0
M  V30 6242 C 613.07 3.56869 0.481269 0
M  V30 6243 C 612.923 4.42617 -0.800629 0
M  V30 6244 C 614.242 4.2121 1.27554 0
M  V30 6245 H 611.361 0.733388 0.0728803 0
M  V30 6246 H 614.003 1.83068 -0.50853 0
M  V30 6247 H 612.153 3.72932 1.08875 0
M  V30 6248 H 613.825 4.38323 -1.43773 0
M  V30 6249 H 612.068 4.09977 -1.4178 0
M  V30 6250 H 612.739 5.49134 -0.561791 0
M  V30 6251 H 615.215 4.09072 0.761514 0
M  V30 6252 H 614.091 5.29732 1.43788 0
M  V30 6253 H 614.352 3.78269 2.28833 0
M  V30 6254 N 613.412 0.11024 1.57214 0
M  V30 6255 C 614.659 -0.54987 1.94891 0
M  V30 6256 C 614.987 -1.67243 0.992984 0
M  V30 6257 O 614.242 -1.95694 0.0152703 0
M  V30 6258 C 614.541 -1.13102 3.39032 0
M  V30 6259 C 614.207 -0.130713 4.5071 0
M  V30 6260 C 612.869 0.14437 4.80983 0
M  V30 6261 C 615.221 0.551472 5.18274 0
M  V30 6262 C 612.549 1.10807 5.76141 0
M  V30 6263 C 614.901 1.50375 6.14467 0
M  V30 6264 C 613.565 1.78691 6.43138 0
M  V30 6265 H 612.835 -0.201212 0.713158 0
M  V30 6266 H 615.482 0.189288 1.90562 0
M  V30 6267 H 613.787 -1.94675 3.40013 0
M  V30 6268 H 615.484 -1.64973 3.65493 0
M  V30 6269 H 612.074 -0.355301 4.27125 0
M  V30 6270 H 616.258 0.35211 4.95049 0
M  V30 6271 H 611.514 1.3343 5.96663 0
M  V30 6272 H 615.688 2.03808 6.65909 0
M  V30 6273 H 613.315 2.53522 7.1668 0
M  V30 6274 N 614.89 -1.56749 -0.16351 0
M  V30 6275 C 616.115 -1.86938 -0.898264 0
M  V30 6276 C 616.54 -0.697456 -1.74692 0
M  V30 6277 O 615.898 0.353327 -1.77824 0
M  V30 6278 C 615.946 -3.15599 -1.74441 0
M  V30 6279 O 615.05 -2.98371 -2.8469 0
M  V30 6280 H 614.391 -0.614659 -0.251178 0
M  V30 6281 H 616.921 -2.03979 -0.159298 0
M  V30 6282 H 616.931 -3.47202 -2.14277 0
M  V30 6283 H 615.606 -4.00505 -1.1211 0
M  V30 6284 H 614.183 -2.7814 -2.4838 0
M  V30 6285 N 616.368 0.432326 -1.51554 0
M  V30 6286 C 617.645 1.19288 -1.55015 0
M  V30 6287 C 618.025 2.08701 -0.317375 0
M  V30 6288 O 617.373 2.17602 0.697243 0
M  V30 6289 C 617.583 1.99037 -2.86679 0
M  V30 6290 C 618.931 2.55907 -3.38817 0
M  V30 6291 O 619.955 2.09243 -2.88263 0
M  V30 6292 O 618.814 3.41029 -4.27038 0
M  V30 6293 H 615.908 0.543369 -0.623441 0
M  V30 6294 H 618.454 0.440988 -1.6387 0
M  V30 6295 H 617.226 1.33397 -3.6786 0
M  V30 6296 H 616.849 2.81281 -2.8101 0
M  V30 6297 N 617.846 1.41785 0.688094 0
M  V30 6298 C 618.779 1.38643 1.81255 0
M  V30 6299 C 619.757 0.252583 1.60626 0
M  V30 6300 O 620.941 0.440691 1.83276 0
M  V30 6301 C 618.068 1.16449 3.18053 0
M  V30 6302 C 617.114 2.32651 3.57457 0
M  V30 6303 S 617.947 3.95152 3.61407 0
M  V30 6304 C 619.103 3.75275 5.00919 0
M  V30 6305 H 619.336 2.33799 1.83644 0
M  V30 6306 H 616.869 1.28398 0.857513 0
M  V30 6307 H 618.827 1.0433 3.97021 0
M  V30 6308 H 617.488 0.229002 3.13264 0
M  V30 6309 H 616.681 2.12835 4.56856 0
M  V30 6310 H 616.283 2.41215 2.85817 0
M  V30 6311 H 618.575 3.35443 5.88629 0
M  V30 6312 H 619.518 4.74302 5.25778 0
M  V30 6313 H 619.926 3.08401 4.7281 0
M  V30 6314 N 619.324 -0.923095 1.27737 0
M  V30 6315 C 620.552 -1.70525 1.17171 0
M  V30 6316 C 620.967 -1.86847 -0.270881 0
M  V30 6317 O 620.324 -1.38879 -1.18401 0
M  V30 6318 C 620.375 -3.10242 1.85559 0
M  V30 6319 O 620.096 -2.94683 3.24182 0
M  V30 6320 C 621.597 -4.04586 1.81176 0
M  V30 6321 H 618.817 -0.533347 0.407163 0
M  V30 6322 H 621.361 -1.15599 1.68692 0
M  V30 6323 H 619.516 -3.62014 1.3793 0
M  V30 6324 H 619.93 -3.83045 3.58297 0
M  V30 6325 H 621.404 -5.00119 2.33633 0
M  V30 6326 H 621.881 -4.3218 0.782099 0
M  V30 6327 H 622.487 -3.58741 2.2844 0
M  V30 6328 N 620.802 -1.09834 -1.13024 0
M  V30 6329 C 622.027 -0.85909 -1.88771 0
M  V30 6330 C 622.452 0.584402 -1.78791 0
M  V30 6331 O 621.81 1.41101 -1.13842 0
M  V30 6332 C 621.858 -1.30427 -3.36186 0
M  V30 6333 O 620.962 -0.465368 -4.09766 0
M  V30 6334 H 620.303 -0.310786 -0.586778 0
M  V30 6335 H 622.833 -1.46355 -1.42973 0
M  V30 6336 H 622.843 -1.2915 -3.8702 0
M  V30 6337 H 621.518 -2.3555 -3.42767 0
M  V30 6338 H 620.095 -0.542814 -3.68928 0
M  V30 6339 N 622.28 1.30327 -0.886154 0
M  V30 6340 C 623.51 1.99964 -0.519421 0
M  V30 6341 C 623.918 1.66593 0.89686 0
M  V30 6342 O 623.261 0.899886 1.60149 0
M  V30 6343 C 623.323 3.54187 -0.615795 0
M  V30 6344 C 622.987 4.11078 -1.9966 0
M  V30 6345 C 623.984 4.26985 -2.96614 0
M  V30 6346 C 621.669 4.46429 -2.30231 0
M  V30 6347 C 623.663 4.77456 -4.22273 0
M  V30 6348 C 621.35 4.966 -3.56135 0
M  V30 6349 C 622.348 5.12066 -4.5197 0
M  V30 6350 O 622.036 5.61154 -5.7564 0
M  V30 6351 H 621.768 0.645979 -0.199217 0
M  V30 6352 H 624.322 1.67154 -1.19368 0
M  V30 6353 H 622.552 3.86528 0.115448 0
M  V30 6354 H 624.241 4.05065 -0.26017 0
M  V30 6355 H 625.007 3.99975 -2.74308 0
M  V30 6356 H 620.886 4.33658 -1.56404 0
M  V30 6357 H 624.43 4.89444 -4.97082 0
M  V30 6358 H 620.327 5.23045 -3.78277 0
M  V30 6359 H 621.095 5.79494 -5.78039 0
M  V30 6360 N 623.758 0.647228 1.43697 0
M  V30 6361 C 625.005 0.158188 2.01881 0
M  V30 6362 C 625.333 -1.22573 1.51017 0
M  V30 6363 O 624.588 -1.83086 0.69122 0
M  V30 6364 C 624.887 0.111481 3.57226 0
M  V30 6365 C 624.553 1.43633 4.27411 0
M  V30 6366 C 623.215 1.79915 4.463 0
M  V30 6367 C 625.567 2.31011 4.67208 0
M  V30 6368 C 622.895 3.03251 5.02251 0
M  V30 6369 C 625.247 3.53633 5.24525 0
M  V30 6370 C 623.911 3.90118 5.41631 0
M  V30 6371 H 623.181 0.0578851 0.738736 0
M  V30 6372 H 625.828 0.836746 1.72252 0
M  V30 6373 H 624.133 -0.650507 3.86362 0
M  V30 6374 H 625.83 -0.283682 3.99995 0
M  V30 6375 H 622.42 1.14403 4.1305 0
M  V30 6376 H 626.604 2.04272 4.52313 0
M  V30 6377 H 621.86 3.31575 5.13681 0
M  V30 6378 H 626.034 4.21561 5.5431 0
M  V30 6379 H 623.661 4.85768 5.84751 0
M  V30 6380 N 625.236 -1.5273 0.388769 0
M  V30 6381 C 626.464 -2.05992 -0.193677 0
M  V30 6382 C 626.879 -1.26053 -1.40557 0
M  V30 6383 O 626.236 -0.307049 -1.79898 0
M  V30 6384 C 626.287 -3.57068 -0.564321 0
M  V30 6385 O 626.008 -4.3398 0.599422 0
M  V30 6386 C 627.509 -4.26674 -1.20269 0
M  V30 6387 H 624.729 -0.670358 -0.0293445 0
M  V30 6388 H 627.273 -1.96857 0.553844 0
M  V30 6389 H 625.428 -3.66277 -1.26174 0
M  V30 6390 H 625.842 -5.2367 0.294895 0
M  V30 6391 H 627.316 -5.33625 -1.4124 0
M  V30 6392 H 627.793 -3.81854 -2.16989 0
M  V30 6393 H 628.399 -4.2178 -0.546047 0
M  V30 6394 N 626.714 -0.118576 -1.57153 0
M  V30 6395 C 627.644 0.828436 -2.1831 0
M  V30 6396 C 628.625 1.27758 -1.12303 0
M  V30 6397 O 629.81 1.34026 -1.40537 0
M  V30 6398 C 626.94 2.07876 -2.78217 0
M  V30 6399 C 625.894 1.76742 -3.89803 0
M  V30 6400 C 625.22 3.08801 -4.36516 0
M  V30 6401 C 626.52 1.03606 -5.11921 0
M  V30 6402 H 628.214 0.318824 -2.97698 0
M  V30 6403 H 625.76 0.151911 -1.43196 0
M  V30 6404 H 627.713 2.74584 -3.19659 0
M  V30 6405 H 626.437 2.61161 -1.96118 0
M  V30 6406 H 625.096 1.12424 -3.48936 0
M  V30 6407 H 624.744 3.6002 -3.51276 0
M  V30 6408 H 624.444 2.88743 -5.11763 0
M  V30 6409 H 625.968 3.76627 -4.80608 0
M  V30 6410 H 627.382 1.60467 -5.50385 0
M  V30 6411 H 625.779 0.936454 -5.92748 0
M  V30 6412 H 626.849 0.0227421 -4.84895 0
M  V30 6413 N 628.193 1.56834 0.155195 0
M  V30 6414 C 629.123 2.00678 1.19376 0
M  V30 6415 C 630.104 0.884973 1.45266 0
M  V30 6416 O 631.289 1.1522 1.56326 0
M  V30 6417 C 628.419 2.38042 2.5289 0
M  V30 6418 C 627.373 3.53332 2.41538 0
M  V30 6419 C 626.699 3.76485 3.79688 0
M  V30 6420 C 627.999 4.86265 1.9064 0
M  V30 6421 H 629.693 2.87688 0.829232 0
M  V30 6422 H 627.239 1.38407 0.397445 0
M  V30 6423 H 629.192 2.67314 3.25763 0
M  V30 6424 H 627.916 1.4796 2.91162 0
M  V30 6425 H 626.575 3.24213 1.71117 0
M  V30 6426 H 626.223 2.83667 4.15382 0
M  V30 6427 H 625.923 4.54068 3.72956 0
M  V30 6428 H 627.447 4.08174 4.54122 0
M  V30 6429 H 628.861 5.14308 2.53299 0
M  V30 6430 H 627.258 5.67597 1.94818 0
M  V30 6431 H 628.328 4.77184 0.861596 0
M  V30 6432 N 629.671 -0.424282 1.51781 0
M  V30 6433 C 630.917 -1.17434 1.6534 0
M  V30 6434 C 631.25 -1.90549 0.374806 0
M  V30 6435 O 630.525 -1.84145 -0.626179 0
M  V30 6436 C 630.808 -2.18093 2.86544 0
M  V30 6437 C 630.661 -1.48975 4.24413 0
M  V30 6438 C 631.98 -3.18934 3.03264 0
M  V30 6439 H 629.099 -0.425566 0.601716 0
M  V30 6440 H 631.741 -0.461921 1.84299 0
M  V30 6441 H 629.891 -2.78849 2.7051 0
M  V30 6442 H 631.563 -0.914551 4.52143 0
M  V30 6443 H 629.806 -0.791893 4.26511 0
M  V30 6444 H 630.477 -2.22347 5.05238 0
M  V30 6445 H 632.953 -2.68243 3.18096 0
M  V30 6446 H 631.829 -3.86645 3.89611 0
M  V30 6447 H 632.09 -3.85793 2.15908 0
M  V30 6448 N 631.149 -1.42148 -0.680565 0
M  V30 6449 C 632.397 -1.42029 -1.43779 0
M  V30 6450 C 632.718 -0.0356347 -1.94967 0
M  V30 6451 O 631.988 0.924936 -1.7269 0
M  V30 6452 H 630.568 -0.522835 -0.533529 0
M  V30 6453 H 633.23 -1.7752 -0.804538 0
M  V30 6454 H 632.326 -2.11658 -2.29363 0
M  V30 6455 N 632.627 0.916307 -1.28225 0
M  V30 6456 C 633.876 1.65975 -1.14608 0
M  V30 6457 C 634.189 1.93204 0.305191 0
M  V30 6458 O 635.395 2.65611 0.562432 0
M  V30 6459 C 633.851 2.98989 -2.00333 0
M  V30 6460 C 633.459 2.79417 -3.50186 0
M  V30 6461 C 635.203 3.76856 -1.95397 0
M  V30 6462 C 633.11 4.08056 -4.28071 0
M  V30 6463 H 632.04 0.622587 -0.425324 0
M  V30 6464 H 634.691 1.01705 -1.52736 0
M  V30 6465 H 633.073 3.6438 -1.5506 0
M  V30 6466 H 634.247 2.22723 -4.034 0
M  V30 6467 H 632.562 2.14966 -3.56621 0
M  V30 6468 H 635.159 4.72203 -2.50856 0
M  V30 6469 H 635.502 4.05776 -0.930137 0
M  V30 6470 H 636.035 3.1828 -2.38626 0
M  V30 6471 H 632.774 3.8431 -5.31024 0
M  V30 6472 H 632.294 4.64371 -3.79631 0
M  V30 6473 H 633.973 4.76333 -4.37854 0
M  V30 6474 N 634.105 1.10431 1.1244 0
M  V30 6475 C 635.335 0.867612 1.87499 0
M  V30 6476 C 635.743 -0.585475 1.79913 0
M  V30 6477 O 635.086 -1.41539 1.171 0
M  V30 6478 C 635.148 1.2374 3.37533 0
M  V30 6479 C 634.812 2.69751 3.68895 0
M  V30 6480 C 635.809 3.67988 3.67261 0
M  V30 6481 C 633.494 3.06135 3.98229 0
M  V30 6482 C 635.488 5.00632 3.9452 0
M  V30 6483 C 633.175 4.38967 4.25149 0
M  V30 6484 C 634.173 5.36025 4.23281 0
M  V30 6485 O 633.861 6.66465 4.49533 0
M  V30 6486 H 633.593 0.311196 0.600111 0
M  V30 6487 H 636.147 1.47257 1.43194 0
M  V30 6488 H 634.377 0.575537 3.82393 0
M  V30 6489 H 636.066 0.978187 3.93937 0
M  V30 6490 H 636.832 3.41224 3.44661 0
M  V30 6491 H 632.711 2.31214 3.98825 0
M  V30 6492 H 636.255 5.7638 3.92978 0
M  V30 6493 H 632.152 4.6547 4.47223 0
M  V30 6494 H 632.92 6.72095 4.67152 0
M  V30 6495 N 635.583 -1.29855 0.893053 0
M  V30 6496 C 636.83 -1.95826 0.515585 0
M  V30 6497 C 637.158 -1.70451 -0.936842 0
M  V30 6498 O 636.413 -1.00657 -1.67829 0
M  V30 6499 C 636.712 -3.49515 0.746588 0
M  V30 6500 C 636.378 -3.94955 2.17535 0
M  V30 6501 C 635.04 -4.07073 2.56603 0
M  V30 6502 C 637.392 -4.18536 3.10607 0
M  V30 6503 C 634.72 -4.40138 3.87938 0
M  V30 6504 C 637.072 -4.53073 4.41484 0
M  V30 6505 C 635.736 -4.634 4.80434 0
M  V30 6506 H 635.006 -0.71658 0.188666 0
M  V30 6507 H 637.653 -1.54574 1.13045 0
M  V30 6508 H 635.958 -3.9177 0.0487551 0
M  V30 6509 H 637.655 -3.98644 0.434009 0
M  V30 6510 H 634.245 -3.86035 1.86212 0
M  V30 6511 H 638.429 -4.08646 2.81641 0
M  V30 6512 H 633.685 -4.46335 4.17846 0
M  V30 6513 H 637.859 -4.70269 5.13634 0
M  V30 6514 H 635.486 -4.88775 5.82239 0
M  V30 6515 N 637.061 -0.65484 -1.43351 0
M  V30 6516 C 638.472 -0.248506 -1.85039 0
M  V30 6517 C 638.823 1.20526 -1.54816 0
M  V30 6518 O 637.948 1.92016 -0.99794 0
M  V30 6519 C 638.543 -0.444241 -3.35875 0
M  V30 6520 C 637.102 -0.0922108 -3.76287 0
M  V30 6521 C 636.249 -0.746327 -2.67068 0
M  V30 6522 H 639.2 -0.8584 -1.33481 0
M  V30 6523 H 639.221 0.309762 -3.79237 0
M  V30 6524 H 638.733 -1.50239 -3.5784 0
M  V30 6525 H 636.834 0.96328 -3.59933 0
M  V30 6526 H 636.947 -0.518807 -4.76283 0
M  V30 6527 H 635.311 -0.179416 -2.54067 0
M  V30 6528 H 636.094 -1.80754 -2.91861 0
M  V30 6529 N 638.539 1.52521 -0.396863 0
M  V30 6530 C 639.764 2.06571 0.185258 0
M  V30 6531 C 640.189 1.26605 1.39115 0
M  V30 6532 O 639.547 0.293055 1.78916 0
M  V30 6533 C 639.595 3.5674 0.526189 0
M  V30 6534 O 638.699 3.7929 1.61903 0
M  V30 6535 H 638.04 0.663712 0.0195474 0
M  V30 6536 H 640.57 1.966 -0.566519 0
M  V30 6537 H 640.58 4.00311 0.788338 0
M  V30 6538 H 639.255 4.14379 -0.355397 0
M  V30 6539 H 637.832 3.47605 1.35 0
M  V30 6540 N 640.017 0.126909 1.57088 0
M  V30 6541 C 641.263 -0.529952 1.95753 0
M  V30 6542 C 641.596 -1.65823 1.01077 0
M  V30 6543 O 640.871 -1.94437 0.0494162 0
M  V30 6544 C 641.154 -1.05517 3.44294 0
M  V30 6545 C 641.007 0.0702253 4.49745 0
M  V30 6546 C 642.326 -1.9435 3.94862 0
M  V30 6547 H 639.445 -0.191168 0.711775 0
M  V30 6548 H 642.087 0.204071 1.88901 0
M  V30 6549 H 640.237 -1.68069 3.50264 0
M  V30 6550 H 641.909 0.705834 4.55868 0
M  V30 6551 H 640.152 0.732259 4.27575 0
M  V30 6552 H 640.823 -0.338642 5.5096 0
M  V30 6553 H 643.299 -1.41658 3.91244 0
M  V30 6554 H 642.175 -2.28015 4.993 0
M  V30 6555 H 642.436 -2.87299 3.36024 0
M  V30 6556 N 641.495 -1.56914 -0.146875 0
M  V30 6557 C 642.723 -1.87515 -0.874394 0
M  V30 6558 C 643.138 -0.715116 -1.74733 0
M  V30 6559 O 642.495 0.315113 -1.79759 0
M  V30 6560 C 642.546 -3.17362 -1.731 0
M  V30 6561 O 642.267 -4.28897 -0.893245 0
M  V30 6562 C 643.768 -3.61479 -2.56609 0
M  V30 6563 H 640.988 -0.621546 -0.252827 0
M  V30 6564 H 643.532 -2.04023 -0.139627 0
M  V30 6565 H 641.687 -3.02608 -2.41883 0
M  V30 6566 H 642.101 -5.03146 -1.48137 0
M  V30 6567 H 643.575 -4.5517 -3.12289 0
M  V30 6568 H 644.052 -2.86773 -3.32653 0
M  V30 6569 H 644.658 -3.78927 -1.93117 0
M  V30 6570 N 642.974 0.416227 -1.52004 0
M  V30 6571 C 644.222 1.16153 -1.65387 0
M  V30 6572 C 644.543 1.91208 -0.382669 0
M  V30 6573 O 643.813 1.86413 0.602231 0
M  V30 6574 H 642.393 0.431765 -0.60958 0
M  V30 6575 H 645.055 0.475151 -1.89019 0
M  V30 6576 H 644.151 1.87952 -2.4916 0
M  V30 6577 N 644.452 1.42507 0.673017 0
M  V30 6578 C 645.701 1.42364 1.42883 0
M  V30 6579 C 646.014 0.0441598 1.9555 0
M  V30 6580 O 647.22 -0.0798679 2.71382 0
M  V30 6581 C 645.676 2.5043 2.58482 0
M  V30 6582 C 645.284 3.94392 2.12506 0
M  V30 6583 C 647.028 2.59455 3.35981 0
M  V30 6584 C 644.935 4.93964 3.25198 0
M  V30 6585 H 643.865 0.52951 0.536782 0
M  V30 6586 H 646.516 1.68422 0.728448 0
M  V30 6587 H 644.898 2.1754 3.30896 0
M  V30 6588 H 646.072 4.36645 1.47233 0
M  V30 6589 H 644.387 3.89233 1.4794 0
M  V30 6590 H 646.984 3.31025 4.19912 0
M  V30 6591 H 647.327 1.63869 3.82691 0
M  V30 6592 H 647.86 2.91549 2.70637 0
M  V30 6593 H 644.599 5.91034 2.83477 0
M  V30 6594 H 644.119 4.56341 3.89247 0
M  V30 6595 H 645.798 5.15763 3.90637 0
M  V30 6596 N 645.93 -0.909495 1.28709 0
M  V30 6597 C 646.863 -2.01388 1.07323 0
M  V30 6598 C 647.841 -1.62596 -0.0119757 0
M  V30 6599 O 649.025 -1.88003 0.136796 0
M  V30 6600 C 646.152 -3.32755 0.631797 0
M  V30 6601 C 645.198 -3.90532 1.71428 0
M  V30 6602 S 646.031 -4.20853 3.31124 0
M  V30 6603 C 647.187 -5.55276 2.88825 0
M  V30 6604 H 647.42 -2.19219 2.00824 0
M  V30 6605 H 644.953 -1.05489 1.12745 0
M  V30 6606 H 646.911 -4.08702 0.38381 0
M  V30 6607 H 645.572 -3.12818 -0.283451 0
M  V30 6608 H 644.765 -4.85385 1.35712 0
M  V30 6609 H 644.367 -3.21237 1.91528 0
M  V30 6610 H 646.659 -6.35341 2.3526 0
M  V30 6611 H 647.602 -5.95907 3.82492 0
M  V30 6612 H 648.01 -5.16666 2.27412 0
M  V30 6613 N 647.408 -1.11026 -1.11852 0
M  V30 6614 C 648.371 -0.768006 -2.1595 0
M  V30 6615 C 649.371 0.210538 -1.59416 0
M  V30 6616 O 650.561 -0.0133978 -1.74195 0
M  V30 6617 C 647.693 -0.138678 -3.40618 0
M  V30 6618 H 648.886 -1.69012 -2.4774 0
M  V30 6619 H 646.439 -0.911578 -1.26964 0
M  V30 6620 H 647.174 0.793872 -3.14433 0
M  V30 6621 H 646.959 -0.843012 -3.8293 0
M  V30 6622 H 648.449 0.0848039 -4.17514 0
M  V30 6623 N 648.886 1.2938 -0.899927 0
M  V30 6624 C 650.134 1.95164 -0.524924 0
M  V30 6625 C 650.455 1.71292 0.931888 0
M  V30 6626 O 649.725 1.04481 1.65712 0
M  V30 6627 H 648.305 0.722133 -0.191135 0
M  V30 6628 H 650.967 1.57628 -1.14627 0
M  V30 6629 H 650.063 3.0397 -0.707711 0
M  V30 6630 N 650.364 0.662433 1.43002 0
M  V30 6631 C 651.589 0.186003 2.06564 0
M  V30 6632 C 652.014 -1.14314 1.49379 0
M  V30 6633 O 651.372 -1.70824 0.607346 0
M  V30 6634 C 651.42 0.118269 3.60406 0
M  V30 6635 O 650.524 -0.916859 4.02079 0
M  V30 6636 H 649.865 0.0990981 0.656563 0
M  V30 6637 H 652.395 0.907958 1.8335 0
M  V30 6638 H 652.405 -0.0619981 4.07953 0
M  V30 6639 H 651.08 1.08849 4.01403 0
M  V30 6640 H 649.657 -0.708635 3.66105 0
M  V30 6641 N 651.842 -1.52309 0.404946 0
M  V30 6642 C 652.79 -2.28452 -0.437321 0
M  V30 6643 C 653.784 -1.32975 -1.04948 0
M  V30 6644 O 654.99 -1.50451 -0.988159 0
M  V30 6645 H 651.365 -0.734824 -0.159805 0
M  V30 6646 H 653.336 -2.97542 0.22615 0
M  V30 6647 C 652.085 -3.11536 -1.54404 0
M  V30 6648 H 651.408 -3.84871 -1.08233 0
M  V30 6649 H 652.848 -3.67926 -2.10729 0
M  V30 6650 C 651.307 -2.24833 -2.50902 0
M  V30 6651 O 651.837 -1.88574 -3.54687 0
M  V30 6652 N 650.043 -1.88685 -2.21012 0
M  V30 6653 H 649.59 -2.18371 -1.36646 0
M  V30 6654 H 649.548 -1.30966 -2.85824 0
M  V30 6655 N 653.32 -0.135238 -1.57019 0
M  V30 6656 C 654.736 0.221262 -1.58059 0
M  V30 6657 C 654.936 1.65538 -1.14889 0
M  V30 6658 O 653.992 2.37985 -0.843751 0
M  V30 6659 C 655.305 -0.0268114 -3.00688 0
M  V30 6660 C 656.853 0.0378206 -3.12977 0
M  V30 6661 C 657.328 -0.182769 -4.57635 0
M  V30 6662 N 658.819 -0.129292 -4.6302 0
M  V30 6663 C 659.554 -0.274648 -5.72742 0
M  V30 6664 N 659.05 -0.477075 -6.91155 0
M  V30 6665 N 660.843 -0.213077 -5.61696 0
M  V30 6666 H 652.994 -1.07177 -1.83376 0
M  V30 6667 H 655.257 -0.423338 -0.848227 0
M  V30 6668 H 654.963 -1.01889 -3.36618 0
M  V30 6669 H 654.837 0.697863 -3.70688 0
M  V30 6670 H 657.224 1.02043 -2.76896 0
M  V30 6671 H 657.305 -0.718996 -2.45487 0
M  V30 6672 H 656.949 -1.16243 -4.94419 0
M  V30 6673 H 656.879 0.59423 -5.23237 0
M  V30 6674 H 659.37 0.0229896 -3.77893 0
M  V30 6675 H 659.683 -0.578413 -7.70632 0
M  V30 6676 H 658.028 -0.513252 -6.93102 0
M  V30 6677 H 661.219 -0.0557796 -4.68067 0
M  V30 6678 H 661.392 -0.329796 -6.4716 0
M  V30 6679 N 654.798 1.5699 0.138552 0
M  V30 6680 C 656.023 1.88344 0.86841 0
M  V30 6681 C 656.448 0.725159 1.7356 0
M  V30 6682 O 655.806 -0.324992 1.78363 0
M  V30 6683 C 655.854 3.18334 1.69398 0
M  V30 6684 O 654.958 3.02863 2.79907 0
M  V30 6685 H 654.299 0.618577 0.241367 0
M  V30 6686 H 656.829 2.04207 0.126826 0
M  V30 6687 H 656.839 3.50567 2.08726 0
M  V30 6688 H 655.514 4.02238 1.05725 0
M  V30 6689 H 654.091 2.82056 2.43924 0
M  V30 6690 N 656.276 -0.40816 1.52223 0
M  V30 6691 C 657.524 -1.15274 1.66001 0
M  V30 6692 C 657.845 -1.91003 0.392803 0
M  V30 6693 O 657.115 -1.8673 -0.592336 0
M  V30 6694 H 655.695 -0.428526 0.611861 0
M  V30 6695 H 658.357 -0.46512 1.89269 0
M  V30 6696 H 657.453 -1.86628 2.50153 0
M  V30 6697 N 657.755 -1.42862 -0.66545 0
M  V30 6698 C 659.032 -1.3431 -1.42197 0
M  V30 6699 C 659.412 0.0150265 -2.11095 0
M  V30 6700 O 658.76 1.03101 -2.03918 0
M  V30 6701 C 658.97 -2.51783 -2.41674 0
M  V30 6702 C 660.318 -2.94321 -3.0604 0
M  V30 6703 O 661.342 -2.51741 -2.52001 0
M  V30 6704 O 660.201 -3.68047 -4.03985 0
M  V30 6705 H 657.295 -0.530159 -0.634713 0
M  V30 6706 H 659.841 -1.54888 -0.693386 0
M  V30 6707 H 658.613 -3.42282 -1.89627 0
M  V30 6708 H 658.236 -2.33241 -3.22001 0
M  V30 6709 N 659.233 0.902656 -1.29189 0
M  V30 6710 C 660.163 2.02294 -1.16616 0
M  V30 6711 C 661.144 1.6999 -0.0611175 0
M  V30 6712 O 662.329 1.9271 -0.240072 0
M  V30 6713 C 659.459 3.37018 -0.83882 0
M  V30 6714 C 658.413 3.83522 -1.89986 0
M  V30 6715 C 657.739 5.15337 -1.42589 0
M  V30 6716 C 659.039 4.04169 -3.30824 0
M  V30 6717 H 660.733 2.13071 -2.10336 0
M  V30 6718 H 658.279 1.02378 -1.01266 0
M  V30 6719 H 660.232 4.14895 -0.737584 0
M  V30 6720 H 658.956 3.26325 0.134071 0
M  V30 6721 H 657.615 3.07859 -1.99043 0
M  V30 6722 H 657.263 5.01056 -0.441759 0
M  V30 6723 H 656.963 5.47423 -2.13547 0
M  V30 6724 H 658.487 5.95758 -1.3381 0
M  V30 6725 H 659.901 4.72537 -3.24626 0
M  V30 6726 H 658.298 4.47604 -3.99713 0
M  V30 6727 H 659.368 3.08604 -3.74021 0
M  V30 6728 N 660.711 1.11618 1.11262 0
M  V30 6729 C 662.127 0.850468 1.35053 0
M  V30 6730 C 662.327 -0.523868 1.94571 0
M  V30 6731 O 661.383 -1.2743 2.17986 0
M  V30 6732 C 662.696 1.96005 2.28041 0
M  V30 6733 C 664.244 1.98993 2.416 0
M  V30 6734 C 664.719 3.0916 3.37911 0
M  V30 6735 N 666.21 3.08547 3.45475 0
M  V30 6736 C 666.945 3.9043 4.19943 0
M  V30 6737 N 666.441 4.8228 4.97371 0
M  V30 6738 N 668.234 3.786 4.15474 0
M  V30 6739 H 660.385 2.00184 0.709932 0
M  V30 6740 H 662.648 0.870635 0.375099 0
M  V30 6741 H 662.354 2.9499 1.91503 0
M  V30 6742 H 662.228 1.85782 3.28275 0
M  V30 6743 H 664.615 1.00633 2.77411 0
M  V30 6744 H 664.696 2.13292 1.4121 0
M  V30 6745 H 664.34 4.07748 3.02827 0
M  V30 6746 H 664.27 2.92102 4.3816 0
M  V30 6747 H 666.761 2.42 2.90249 0
M  V30 6748 H 667.074 5.41289 5.51567 0
M  V30 6749 H 665.419 4.863 4.96525 0
M  V30 6750 H 668.61 3.06185 3.54074 0
M  V30 6751 H 668.783 4.42647 4.73253 0
M  V30 6752 N 662.189 -1.289 0.906776 0
M  V30 6753 C 663.466 -1.90221 0.455537 0
M  V30 6754 C 663.846 -1.82251 -1.06527 0
M  V30 6755 O 663.194 -1.25385 -1.91026 0
M  V30 6756 C 663.404 -3.35015 0.97806 0
M  V30 6757 C 664.752 -4.12018 1.02598 0
M  V30 6758 O 665.776 -3.43947 0.926218 0
M  V30 6759 O 664.635 -5.33677 1.17689 0
M  V30 6760 H 661.729 -0.814505 0.143214 0
M  V30 6761 H 664.275 -1.37317 0.997104 0
M  V30 6762 H 663.047 -3.35006 2.02204 0
M  V30 6763 H 662.67 -3.95408 0.416914 0
M  V30 6764 N 663.667 -0.670007 -1.42649 0
M  V30 6765 C 664.63 0.00204659 -2.292 0
M  V30 6766 C 665.63 0.733817 -1.4308 0
M  V30 6767 O 666.82 0.57254 -1.64522 0
M  V30 6768 C 663.952 1.01359 -3.25483 0
M  V30 6769 H 665.145 -0.759696 -2.90118 0
M  V30 6770 H 662.698 -0.432105 -1.50208 0
M  V30 6771 H 663.433 1.80399 -2.69493 0
M  V30 6772 H 663.218 0.492323 -3.88997 0
M  V30 6773 H 664.708 1.4824 -3.90403 0
M  V30 6774 N 665.145 1.52092 -0.413018 0
M  V30 6775 C 666.077 2.24819 0.445994 0
M  V30 6776 C 667.09 1.27925 1.00692 0
M  V30 6777 O 668.279 1.53845 0.905204 0
M  V30 6778 C 665.379 2.96951 1.6332 0
M  V30 6779 C 664.552 4.20746 1.19548 0
M  V30 6780 C 663.611 4.75668 2.25003 0
M  V30 6781 O 662.637 5.38148 1.85434 0
M  V30 6782 N 663.839 4.57579 3.57214 0
M  V30 6783 H 666.604 2.99176 -0.177209 0
M  V30 6784 H 664.165 1.60102 -0.240601 0
M  V30 6785 H 666.157 3.30586 2.33441 0
M  V30 6786 H 664.727 2.25756 2.16225 0
M  V30 6787 H 663.947 3.92881 0.32224 0
M  V30 6788 H 665.235 5.01132 0.880033 0
M  V30 6789 H 664.633 4.07758 3.92109 0
M  V30 6790 H 663.19 4.95642 4.23299 0
M  V30 6791 N 666.623 0.143563 1.56945 0
M  V30 6792 C 667.57 -0.797433 2.16586 0
M  V30 6793 C 668.54 -1.24654 1.09775 0
M  V30 6794 O 669.725 -1.31968 1.37801 0
M  V30 6795 C 666.865 -2.03253 2.78895 0
M  V30 6796 C 665.978 -1.62954 4.00087 0
M  V30 6797 C 665.113 -2.81617 4.50406 0
M  V30 6798 C 664.152 -2.37675 5.64072 0
M  V30 6799 N 663.289 -3.49335 6.09023 0
M  V30 6800 H 668.129 -0.282023 2.96662 0
M  V30 6801 H 665.666 -0.127494 1.46546 0
M  V30 6802 H 667.624 -2.75653 3.13163 0
M  V30 6803 H 666.254 -2.52211 2.01469 0
M  V30 6804 H 665.306 -0.803322 3.71821 0
M  V30 6805 H 666.618 -1.26679 4.82446 0
M  V30 6806 H 665.772 -3.62212 4.86711 0
M  V30 6807 H 664.511 -3.21134 3.67048 0
M  V30 6808 H 663.516 -1.55519 5.27346 0
M  V30 6809 H 664.741 -1.99247 6.49213 0
M  V30 6810 H 662.687 -3.8848 5.28601 0
M  V30 6811 H 662.604 -3.17064 6.86299 0
M  V30 6812 H 663.872 -4.30297 6.49973 0
M  V30 6813 N 668.101 -1.57061 -0.130224 0
M  V30 6814 C 669.326 -1.88802 -0.858409 0
M  V30 6815 C 669.751 -0.734353 -1.73173 0
M  V30 6816 O 669.109 0.315529 -1.78533 0
M  V30 6817 C 669.157 -3.19228 -1.67708 0
M  V30 6818 O 668.261 -3.04343 -2.78297 0
M  V30 6819 H 667.602 -0.619849 -0.238083 0
M  V30 6820 H 670.132 -2.04271 -0.115995 0
M  V30 6821 H 670.142 -3.51669 -2.06864 0
M  V30 6822 H 668.817 -4.02793 -1.0359 0
M  V30 6823 H 667.394 -2.83346 -2.42425 0
M  V30 6824 N 669.579 0.400081 -1.52437 0
M  V30 6825 C 670.828 1.14332 -1.66166 0
M  V30 6826 C 671.141 1.91419 -0.402253 0
M  V30 6827 O 672.347 2.6824 -0.419487 0
M  V30 6828 C 670.803 2.08137 -2.9361 0
M  V30 6829 C 670.411 1.36524 -4.26691 0
M  V30 6830 C 672.155 2.82664 -3.16703 0
M  V30 6831 C 670.062 2.29031 -5.45251 0
M  V30 6832 H 668.992 0.430499 -0.61902 0
M  V30 6833 H 671.643 0.407017 -1.78929 0
M  V30 6834 H 670.025 2.85358 -2.74567 0
M  V30 6835 H 671.199 0.646061 -4.56249 0
M  V30 6836 H 669.514 0.74002 -4.09771 0
M  V30 6837 H 672.111 3.52037 -4.0246 0
M  V30 6838 H 672.454 3.46122 -2.31312 0
M  V30 6839 H 672.987 2.12541 -3.36261 0
M  V30 6840 H 669.726 1.70206 -6.33017 0
M  V30 6841 H 669.246 2.98896 -5.2002 0
M  V30 6842 H 670.925 2.89359 -5.78689 0
M  V30 6843 N 671.057 1.43213 0.657864 0
M  V30 6844 C 672.468 1.39669 1.23893 0
M  V30 6845 C 672.819 0.0984217 1.95953 0
M  V30 6846 O 671.944 -0.8023 2.00978 0
M  V30 6847 C 672.539 2.53004 2.25332 0
M  V30 6848 C 671.098 2.5274 2.78926 0
M  V30 6849 C 670.245 2.30941 1.53497 0
M  V30 6850 H 673.196 1.52181 0.450172 0
M  V30 6851 H 673.217 2.24226 3.07413 0
M  V30 6852 H 672.729 3.4748 1.72856 0
M  V30 6853 H 670.83 1.6213 3.35477 0
M  V30 6854 H 670.943 3.50352 3.26787 0
M  V30 6855 H 669.307 1.7952 1.80678 0
M  V30 6856 H 670.09 3.27496 1.02963 0
M  V30 6857 N 672.536 -0.895792 1.29666 0
M  V30 6858 C 673.764 -1.68001 1.20761 0
M  V30 6859 C 674.179 -1.87379 -0.231187 0
M  V30 6860 O 673.536 -1.41359 -1.15429 0
M  V30 6861 C 673.587 -3.06236 1.92098 0
M  V30 6862 O 673.308 -2.8774 3.30359 0
M  V30 6863 C 674.809 -4.00652 1.89717 0
M  V30 6864 H 672.029 -0.524591 0.418384 0
M  V30 6865 H 674.573 -1.11995 1.71106 0
M  V30 6866 H 672.728 -3.59007 1.45578 0
M  V30 6867 H 673.142 -3.75359 3.66342 0
M  V30 6868 H 674.616 -4.95051 2.44189 0
M  V30 6869 H 675.093 -4.30424 0.873595 0
M  V30 6870 H 675.699 -3.53815 2.35998 0
M  V30 6871 N 674.014 -1.12206 -1.10668 0
M  V30 6872 C 675.262 -0.874144 -1.82217 0
M  V30 6873 C 675.583 0.601736 -1.85484 0
M  V30 6874 O 674.853 1.43725 -1.33116 0
M  V30 6875 H 673.433 -0.320404 -0.674797 0
M  V30 6876 H 676.095 -1.41606 -1.33917 0
M  V30 6877 H 675.191 -1.25349 -2.85822 0
M  V30 6878 N 675.492 1.28418 -0.913599 0
M  V30 6879 C 676.72 1.99106 -0.562536 0
M  V30 6880 C 677.135 1.68273 0.856137 0
M  V30 6881 O 676.492 0.935401 1.56705 0
M  V30 6882 C 676.543 3.5338 -0.761903 0
M  V30 6883 O 676.264 3.83127 -2.12475 0
M  V30 6884 C 677.765 4.41328 -0.417651 0
M  V30 6885 H 674.985 0.635798 -0.214481 0
M  V30 6886 H 677.529 1.63618 -1.22676 0
M  V30 6887 H 675.684 3.8713 -0.144676 0
M  V30 6888 H 676.098 4.77763 -2.16431 0
M  V30 6889 H 677.572 5.48642 -0.607919 0
M  V30 6890 H 678.049 4.34422 0.646108 0
M  V30 6891 H 678.655 4.13074 -1.01241 0
M  V30 6892 N 676.97 0.677563 1.42291 0
M  V30 6893 C 678.219 0.198173 2.00724 0
M  V30 6894 C 678.532 -1.20325 1.54211 0
M  V30 6895 O 679.738 -1.77916 2.05081 0
M  V30 6896 C 678.194 0.303432 3.58619 0
M  V30 6897 C 677.802 1.70909 4.14119 0
M  V30 6898 C 679.546 -0.117103 4.24338 0
M  V30 6899 C 677.453 1.76696 5.64387 0
M  V30 6900 H 676.383 0.070329 0.750713 0
M  V30 6901 H 679.034 0.843147 1.62982 0
M  V30 6902 H 677.416 -0.409482 3.93877 0
M  V30 6903 H 678.59 2.44931 3.90315 0
M  V30 6904 H 676.905 2.07771 3.6086 0
M  V30 6905 H 679.502 -0.0940471 5.34617 0
M  V30 6906 H 679.845 -1.15283 4.00019 0
M  V30 6907 H 680.378 0.5449 3.9405 0
M  V30 6908 H 677.117 2.7826 5.93508 0
M  V30 6909 H 676.637 1.07034 5.90173 0
M  V30 6910 H 678.316 1.52166 6.28852 0
M  V30 6911 N 678.448 -1.51871 0.421078 0
M  V30 6912 C 679.378 -2.30231 -0.389363 0
M  V30 6913 C 680.359 -1.34946 -1.03555 0
M  V30 6914 O 681.544 -1.63859 -1.04229 0
M  V30 6915 C 678.674 -3.13247 -1.49979 0
M  V30 6916 C 677.628 -4.16677 -0.977966 0
M  V30 6917 C 676.954 -4.88112 -2.1829 0
M  V30 6918 C 678.254 -5.22295 -0.0236775 0
M  V30 6919 H 679.948 -2.98229 0.264524 0
M  V30 6920 H 677.494 -1.43424 0.12866 0
M  V30 6921 H 679.447 -3.66838 -2.07383 0
M  V30 6922 H 678.171 -2.4304 -2.18173 0
M  V30 6923 H 676.83 -3.64114 -0.426245 0
M  V30 6924 H 676.478 -4.14423 -2.85066 0
M  V30 6925 H 676.178 -5.58041 -1.84021 0
M  V30 6926 H 677.702 -5.44521 -2.76278 0
M  V30 6927 H 679.116 -5.71055 -0.506899 0
M  V30 6928 H 677.513 -5.99656 0.230782 0
M  V30 6929 H 678.583 -4.76131 0.917999 0
M  V30 6930 N 679.926 -0.151884 -1.56866 0
M  V30 6931 C 680.889 0.771861 -2.15812 0
M  V30 6932 C 681.889 1.17181 -1.10115 0
M  V30 6933 O 683.079 1.09194 -1.35729 0
M  V30 6934 C 680.211 2.04806 -2.7252 0
M  V30 6935 H 681.404 0.259021 -2.98779 0
M  V30 6936 H 678.957 0.097588 -1.55995 0
M  V30 6937 H 679.692 2.60445 -1.93233 0
M  V30 6938 H 679.477 1.77044 -3.49854 0
M  V30 6939 H 680.967 2.70771 -3.1792 0
M  V30 6940 N 681.404 1.57128 0.121893 0
M  V30 6941 C 682.653 1.83888 0.828748 0
M  V30 6942 C 682.966 0.737087 1.81181 0
M  V30 6943 O 684.172 0.891007 2.56463 0
M  V30 6944 C 682.628 3.26014 1.52455 0
M  V30 6945 C 682.236 4.44195 0.58263 0
M  V30 6946 C 683.98 3.62025 2.21671 0
M  V30 6947 C 681.887 5.77349 1.28149 0
M  V30 6948 H 680.817 0.685856 0.313238 0
M  V30 6949 H 683.468 1.83319 0.0814851 0
M  V30 6950 H 681.85 3.21044 2.31834 0
M  V30 6951 H 683.024 4.60457 -0.177729 0
M  V30 6952 H 681.339 4.164 -0.00241228 0
M  V30 6953 H 683.936 4.58776 2.74643 0
M  V30 6954 H 684.279 2.89315 2.99337 0
M  V30 6955 H 684.812 3.68767 1.49184 0
M  V30 6956 H 681.551 6.53221 0.546189 0
M  V30 6957 H 681.071 5.64978 2.01394 0
M  V30 6958 H 682.75 6.21006 1.81549 0
M  V30 6959 N 682.882 -0.391992 1.52647 0
M  V30 6960 C 683.845 -1.46135 1.7657 0
M  V30 6961 C 684.845 -1.47701 0.635698 0
M  V30 6962 O 686.035 -1.48924 0.903728 0
M  V30 6963 C 683.167 -2.85443 1.86374 0
M  V30 6964 H 684.36 -1.26208 2.72051 0
M  V30 6965 H 681.913 -0.623549 1.43323 0
M  V30 6966 H 682.648 -3.10718 0.928685 0
M  V30 6967 H 682.433 -2.85708 2.68539 0
M  V30 6968 H 683.923 -3.62933 2.06566 0
M  V30 6969 N 684.36 -1.4356 -0.65026 0
M  V30 6970 C 685.588 -1.48779 -1.43779 0
M  V30 6971 C 686.003 -0.106593 -1.88499 0
M  V30 6972 O 685.36 0.883766 -1.59674 0
M  V30 6973 C 685.411 -2.43618 -2.67081 0
M  V30 6974 O 685.132 -3.76367 -2.24231 0
M  V30 6975 C 686.633 -2.5811 -3.60409 0
M  V30 6976 H 683.853 -0.50521 -0.441593 0
M  V30 6977 H 686.397 -1.88332 -0.796941 0
M  V30 6978 H 684.552 -2.07253 -3.273 0
M  V30 6979 H 684.966 -4.27394 -3.0403 0
M  V30 6980 H 686.44 -3.28539 -4.43583 0
M  V30 6981 H 686.917 -1.627 -4.07953 0
M  V30 6982 H 687.523 -2.95298 -3.0607 0
M  V30 6983 N 685.838 0.888903 -1.30139 0
M  V30 6984 C 687.066 1.67358 -1.21651 0
M  V30 6985 C 687.481 1.87499 0.221246 0
M  V30 6986 O 686.838 1.41969 1.14677 0
M  V30 6987 C 686.889 3.05213 -1.93719 0
M  V30 6988 O 686.61 2.85984 -3.31881 0
M  V30 6989 C 688.111 3.9964 -1.9184 0
M  V30 6990 H 685.331 0.522365 -0.42116 0
M  V30 6991 H 687.875 1.11086 -1.71698 0
M  V30 6992 H 686.03 3.5823 -1.4748 0
M  V30 6993 H 686.444 3.73411 -3.68327 0
M  V30 6994 H 687.918 4.93749 -2.46811 0
M  V30 6995 H 688.395 4.29955 -0.896409 0
M  V30 6996 H 689.001 3.52558 -2.37872 0
M  V30 6997 N 687.317 1.12792 1.10072 0
M  V30 6998 C 688.542 0.908838 1.86427 0
M  V30 6999 C 688.967 -0.536793 1.80278 0
M  V30 7000 O 688.325 -1.38033 1.17543 0
M  V30 7001 C 688.373 1.39295 3.3261 0
M  V30 7002 O 687.477 0.573846 4.08388 0
M  V30 7003 H 686.818 0.326234 0.578331 0
M  V30 7004 H 689.348 1.50094 1.39043 0
M  V30 7005 H 689.358 1.39366 3.83459 0
M  V30 7006 H 688.033 2.44555 3.36401 0
M  V30 7007 H 686.61 0.640438 3.67359 0
M  V30 7008 N 688.795 -1.27931 0.920396 0
M  V30 7009 C 689.758 -2.25345 0.41858 0
M  V30 7010 C 690.758 -1.54116 -0.458798 0
M  V30 7011 O 691.948 -1.72235 -0.260912 0
M  V30 7012 C 689.08 -3.38556 -0.399104 0
M  V30 7013 H 690.273 -2.71251 1.27918 0
M  V30 7014 H 687.826 -1.39728 0.700406 0
M  V30 7015 H 688.561 -2.98021 -1.27882 0
M  V30 7016 H 688.346 -3.91426 0.229863 0
M  V30 7017 H 689.836 -4.10976 -0.740817 0
M  V30 7018 N 690.273 -0.685099 -1.4193 0
M  V30 7019 C 691.519 -0.211971 -2.01689 0
M  V30 7020 C 691.852 1.18189 -1.54094 0
M  V30 7021 O 691.127 1.79559 -0.747572 0
M  V30 7022 C 691.41 -0.258019 -3.59174 0
M  V30 7023 C 691.263 -1.68807 -4.16922 0
M  V30 7024 C 692.582 0.388044 -4.38386 0
M  V30 7025 H 689.701 -0.0784987 -0.732808 0
M  V30 7026 H 692.343 -0.871837 -1.68816 0
M  V30 7027 H 690.493 0.303832 -3.8731 0
M  V30 7028 H 692.165 -2.30296 -3.99702 0
M  V30 7029 H 690.408 -2.22553 -3.72361 0
M  V30 7030 H 691.079 -1.6719 -5.26072 0
M  V30 7031 H 693.555 -0.0903432 -4.16002 0
M  V30 7032 H 692.431 0.325232 -5.47936 0
M  V30 7033 H 692.692 1.4672 -4.17044 0
M  V30 7034 N 691.751 1.51645 -0.429126 0
M  V30 7035 C 692.981 2.06133 0.138793 0
M  V30 7036 C 693.389 1.29735 1.37716 0
M  V30 7037 O 692.732 0.347955 1.80375 0
M  V30 7038 C 692.794 3.55504 0.534493 0
M  V30 7039 C 692.458 4.53098 -0.595917 0
M  V30 7040 C 693.455 4.98815 -1.46558 0
M  V30 7041 C 691.14 4.96296 -0.774309 0
M  V30 7042 C 693.134 5.86394 -2.4984 0
M  V30 7043 C 690.821 5.83667 -1.81042 0
M  V30 7044 C 691.819 6.28613 -2.67086 0
M  V30 7045 O 691.507 7.14251 -3.68919 0
M  V30 7046 H 691.239 0.675833 0.0150263 0
M  V30 7047 H 693.793 1.96301 -0.604584 0
M  V30 7048 H 692.023 3.63092 1.33045 0
M  V30 7049 H 693.712 3.92545 1.03262 0
M  V30 7050 H 694.478 4.66143 -1.33925 0
M  V30 7051 H 690.357 4.60859 -0.114178 0
M  V30 7052 H 693.901 6.21398 -3.17034 0
M  V30 7053 H 689.798 6.15753 -1.93698 0
M  V30 7054 H 690.566 7.3241 -3.65402 0
M  V30 7055 N 693.229 0.160201 1.56784 0
M  V30 7056 C 694.478 -0.487619 1.95717 0
M  V30 7057 C 694.791 -1.65136 1.0483 0
M  V30 7058 O 695.997 -2.36468 1.33398 0
M  V30 7059 C 694.453 -0.91888 3.47972 0
M  V30 7060 C 694.061 0.218655 4.47466 0
M  V30 7061 C 695.805 -1.53575 3.95746 0
M  V30 7062 C 693.712 -0.231614 5.90946 0
M  V30 7063 H 692.642 -0.185939 0.730714 0
M  V30 7064 H 695.293 0.246657 1.81835 0
M  V30 7065 H 693.675 -1.70881 3.57234 0
M  V30 7066 H 694.849 0.995825 4.49911 0
M  V30 7067 H 693.164 0.744767 4.09685 0
M  V30 7068 H 695.761 -1.88448 5.00391 0
M  V30 7069 H 696.104 -2.42959 3.38048 0
M  V30 7070 H 696.637 -0.810467 3.89456 0
M  V30 7071 H 693.376 0.62718 6.52493 0
M  V30 7072 H 692.896 -0.974379 5.91833 0
M  V30 7073 H 694.575 -0.67922 6.43425 0
M  V30 7074 N 694.707 -1.5719 -0.113559 0
M  V30 7075 C 695.932 -1.89702 -0.838336 0
M  V30 7076 C 696.357 -0.752679 -1.72384 0
M  V30 7077 O 695.715 0.296575 -1.78858 0
M  V30 7078 C 695.763 -3.20989 -1.64312 0
M  V30 7079 O 694.867 -3.07278 -2.75053 0
M  V30 7080 H 694.208 -0.622339 -0.231496 0
M  V30 7081 H 696.738 -2.04382 -0.0943228 0
M  V30 7082 H 696.748 -3.53843 -2.03123 0
M  V30 7083 H 695.423 -4.03869 -0.993119 0
M  V30 7084 H 694 -2.85901 -2.39406 0
M  V30 7085 N 696.185 0.383891 -1.52853 0
M  V30 7086 C 697.41 1.154 -1.7233 0
M  V30 7087 C 697.835 1.82809 -0.44298 0
M  V30 7088 O 697.193 1.71026 0.601645 0
M  V30 7089 C 697.241 2.17386 -2.87708 0
M  V30 7090 O 696.345 3.24082 -2.55038 0
M  V30 7091 H 695.686 0.335709 -0.572883 0
M  V30 7092 H 698.216 0.44662 -1.99666 0
M  V30 7093 H 698.226 2.61296 -3.1335 0
M  V30 7094 H 696.901 1.6771 -3.80587 0
M  V30 7095 H 695.478 2.85273 -2.40153 0
M  V30 7096 N 697.663 1.43903 0.642637 0
M  V30 7097 C 698.909 1.46296 1.40447 0
M  V30 7098 C 699.242 0.0908361 1.93987 0
M  V30 7099 O 698.517 -0.889884 1.72949 0
M  V30 7100 C 698.8 2.51399 2.57819 0
M  V30 7101 C 698.653 3.97926 2.09702 0
M  V30 7102 C 699.972 2.53125 3.60022 0
M  V30 7103 H 697.091 0.532676 0.509338 0
M  V30 7104 H 699.733 1.75515 0.727635 0
M  V30 7105 H 697.883 2.26614 3.1556 0
M  V30 7106 H 699.555 4.33804 1.5688 0
M  V30 7107 H 697.798 4.10252 1.40982 0
M  V30 7108 H 698.469 4.67096 2.94152 0
M  V30 7109 H 700.945 2.75242 3.12059 0
M  V30 7110 H 699.821 3.28589 4.39682 0
M  V30 7111 H 700.082 1.56895 4.13324 0
M  V30 7112 N 699.141 -0.881989 1.30609 0
M  V30 7113 C 700.387 -1.63647 1.19781 0
M  V30 7114 C 700.72 -1.92632 -0.246265 0
M  V30 7115 O 699.995 -1.54938 -1.17577 0
M  V30 7116 C 700.278 -2.97437 2.02985 0
M  V30 7117 C 700.131 -2.75406 3.55628 0
M  V30 7118 C 701.45 -3.98397 1.86997 0
M  V30 7119 H 698.569 -0.593841 0.436488 0
M  V30 7120 H 701.211 -1.02041 1.60273 0
M  V30 7121 H 699.361 -3.50018 1.68581 0
M  V30 7122 H 701.033 -2.2959 4.00107 0
M  V30 7123 H 699.276 -2.09856 3.79662 0
M  V30 7124 H 699.947 -3.70552 4.09139 0
M  V30 7125 H 702.423 -3.54986 2.17081 0
M  V30 7126 H 701.299 -4.89916 2.47536 0
M  V30 7127 H 701.56 -4.3424 0.829943 0
M  V30 7128 N 700.619 -1.13374 -1.09472 0
M  V30 7129 C 701.549 -0.833268 -2.18126 0
M  V30 7130 C 702.53 0.207169 -1.68834 0
M  V30 7131 O 703.715 0.0662012 -1.94087 0
M  V30 7132 C 700.845 -0.297979 -3.46019 0
M  V30 7133 C 699.799 -1.27261 -4.08642 0
M  V30 7134 C 699.125 -0.597104 -5.31356 0
M  V30 7135 C 700.425 -2.63095 -4.51197 0
M  V30 7136 H 702.119 -1.74182 -2.43518 0
M  V30 7137 H 699.665 -0.838921 -1.17039 0
M  V30 7138 H 701.618 -0.0754444 -4.21332 0
M  V30 7139 H 700.342 0.645959 -3.20148 0
M  V30 7140 H 699.001 -1.48113 -3.35348 0
M  V30 7141 H 698.649 0.352293 -5.01765 0
M  V30 7142 H 698.349 -1.24734 -5.74208 0
M  V30 7143 H 699.873 -0.38384 -6.09392 0
M  V30 7144 H 701.287 -2.46214 -5.17737 0
M  V30 7145 H 699.684 -3.2429 -5.04932 0
M  V30 7146 H 700.754 -3.20793 -3.6362 0
M  V30 7147 N 702.098 1.27442 -0.927168 0
M  V30 7148 C 703.345 1.94391 -0.567324 0
M  V30 7149 C 703.673 1.72875 0.891321 0
M  V30 7150 O 702.928 1.05071 1.65102 0
M  V30 7151 C 703.227 3.47413 -0.838994 0
M  V30 7152 C 702.893 3.89049 -2.2793 0
M  V30 7153 C 701.555 4.00127 -2.67305 0
M  V30 7154 C 703.907 4.10154 -3.21595 0
M  V30 7155 C 701.235 4.29697 -3.99471 0
M  V30 7156 C 703.587 4.41208 -4.53341 0
M  V30 7157 C 702.251 4.50499 -4.92551 0
M  V30 7158 H 701.521 0.711325 -0.207598 0
M  V30 7159 H 704.168 1.51523 -1.17103 0
M  V30 7160 H 702.473 3.91503 -0.152609 0
M  V30 7161 H 704.17 3.97354 -0.53955 0
M  V30 7162 H 700.76 3.80962 -1.96381 0
M  V30 7163 H 704.944 4.01036 -2.92377 0
M  V30 7164 H 700.2 4.35099 -4.29533 0
M  V30 7165 H 704.374 4.56486 -5.25922 0
M  V30 7166 H 702.001 4.73167 -5.94994 0
M  V30 7167 N 703.576 0.692616 1.41565 0
M  V30 7168 C 704.824 0.221896 2.00878 0
M  V30 7169 C 705.145 -1.18164 1.5512 0
M  V30 7170 O 704.415 -1.79679 0.78054 0
M  V30 7171 H 702.995 0.0790463 0.742806 0
M  V30 7172 H 705.657 0.893115 1.73232 0
M  V30 7173 H 704.753 0.23702 3.11199 0
M  V30 7174 N 705.054 -1.51416 0.437162 0
M  V30 7175 C 706.017 -2.26312 -0.362729 0
M  V30 7176 C 707.017 -1.29748 -0.949847 0
M  V30 7177 O 708.207 -1.53462 -0.824325 0
M  V30 7178 C 705.339 -3.05475 -1.5132 0
M  V30 7179 H 706.532 -2.98459 0.29365 0
M  V30 7180 H 704.085 -1.55137 0.190327 0
M  V30 7181 H 704.82 -2.37744 -2.20563 0
M  V30 7182 H 704.605 -3.76401 -1.09838 0
M  V30 7183 H 706.095 -3.62209 -2.07833 0
M  V30 7184 N 706.532 -0.168513 -1.56696 0
M  V30 7185 C 707.772 0.479648 -1.98693 0
M  V30 7186 C 708.136 1.60609 -1.05209 0
M  V30 7187 O 709.337 2.3166 -1.36334 0
M  V30 7188 C 707.608 0.952852 -3.44464 0
M  V30 7189 S 709.167 1.60259 -4.08488 0
M  V30 7190 H 705.985 0.154377 -0.694038 0
M  V30 7191 H 708.587 -0.265312 -1.93691 0
M  V30 7192 H 707.291 0.12257 -4.10217 0
M  V30 7193 H 706.822 1.73192 -3.53225 0
M  V30 7194 H 708.837 2.89065 -4.03307 0
M  V30 7195 N 708.01 1.57248 0.105221 0
M  V30 7196 C 709.259 1.84756 0.809198 0
M  V30 7197 C 709.572 0.756262 1.80389 0
M  V30 7198 O 710.778 0.918158 2.55504 0
M  V30 7199 C 709.234 3.27613 1.48989 0
M  V30 7200 C 708.842 4.44788 0.535484 0
M  V30 7201 C 710.586 3.64356 2.17819 0
M  V30 7202 C 708.493 5.78676 1.22019 0
M  V30 7203 H 707.423 0.689139 0.305946 0
M  V30 7204 H 710.074 1.83395 0.0620371 0
M  V30 7205 H 708.456 3.23485 2.28415 0
M  V30 7206 H 709.63 4.60243 -0.226557 0
M  V30 7207 H 707.945 4.16374 -0.0465769 0
M  V30 7208 H 710.542 4.61663 2.69761 0
M  V30 7209 H 710.885 2.92474 2.96251 0
M  V30 7210 H 711.418 3.70328 1.45264 0
M  V30 7211 H 708.157 6.53763 0.476875 0
M  V30 7212 H 707.677 5.67083 1.9539 0
M  V30 7213 H 709.356 6.22897 1.74952 0
M  V30 7214 N 709.488 -0.375779 1.53054 0
M  V30 7215 C 710.398 -1.48381 1.81715 0
M  V30 7216 C 711.414 -1.59087 0.704795 0
M  V30 7217 O 712.59 -1.75174 0.993785 0
M  V30 7218 C 709.655 -2.83767 1.99192 0
M  V30 7219 C 708.716 -2.82673 3.23102 0
M  V30 7220 C 707.949 -4.11601 3.39736 0
M  V30 7221 O 708.172 -5.07243 2.60885 0
M  V30 7222 O 707.106 -4.18034 4.33049 0
M  V30 7223 H 710.932 -1.27089 2.7583 0
M  V30 7224 H 708.517 -0.564902 1.38308 0
M  V30 7225 H 710.399 -3.64004 2.12318 0
M  V30 7226 H 709.074 -3.05057 1.08267 0
M  V30 7227 H 707.981 -2.0117 3.15407 0
M  V30 7228 H 709.314 -2.66335 4.13916 0
M  V30 7229 N 710.966 -1.44241 -0.634997 0
M  V30 7230 C 712.214 -1.46531 -1.39187 0
M  V30 7231 C 712.535 -0.0976441 -1.94755 0
M  V30 7232 O 711.805 0.869528 -1.75545 0
M  V30 7233 H 710.385 -0.539544 -0.516625 0
M  V30 7234 H 713.047 -1.79989 -0.747655 0
M  V30 7235 H 712.143 -2.18848 -2.22513 0
M  V30 7236 N 712.444 0.87505 -1.31075 0
M  V30 7237 C 713.69 1.63009 -1.20647 0
M  V30 7238 C 714.023 1.9276 0.236045 0
M  V30 7239 O 713.298 1.55559 1.16754 0
M  V30 7240 C 713.581 2.96357 -2.0456 0
M  V30 7241 C 713.434 2.73516 -3.57084 0
M  V30 7242 C 714.753 3.974 -1.89107 0
M  V30 7243 H 711.872 0.591518 -0.439631 0
M  V30 7244 H 714.514 1.0119 -1.60812 0
M  V30 7245 H 712.664 3.49119 -1.70435 0
M  V30 7246 H 714.336 2.27465 -4.01319 0
M  V30 7247 H 712.579 2.0784 -3.80769 0
M  V30 7248 H 713.25 3.68377 -4.11099 0
M  V30 7249 H 715.726 3.5383 -2.18961 0
M  V30 7250 H 714.602 4.88596 -2.5013 0
M  V30 7251 H 714.863 4.33794 -0.85296 0
M  V30 7252 N 713.922 1.13953 1.08869 0
M  V30 7253 C 715.168 0.906151 1.8143 0
M  V30 7254 C 715.501 -0.566089 1.85766 0
M  V30 7255 O 714.776 -1.41915 1.33006 0
M  V30 7256 C 715.059 1.50183 3.27287 0
M  V30 7257 C 714.912 3.04359 3.31189 0
M  V30 7258 C 716.231 1.17477 4.24131 0
M  V30 7259 H 713.35 0.330624 0.658678 0
M  V30 7260 H 715.992 1.40873 1.27495 0
M  V30 7261 H 714.142 1.07442 3.73348 0
M  V30 7262 H 715.814 3.55896 2.93488 0
M  V30 7263 H 714.057 3.39053 2.70602 0
M  V30 7264 H 714.728 3.41141 4.33966 0
M  V30 7265 H 717.204 1.5442 3.86385 0
M  V30 7266 H 716.08 1.61795 5.24513 0
M  V30 7267 H 716.341 0.0893312 4.4201 0
M  V30 7268 N 715.4 -1.26948 0.933913 0
M  V30 7269 C 716.33 -2.29017 0.45534 0
M  V30 7270 C 717.311 -1.62961 -0.487605 0
M  V30 7271 O 718.496 -1.90223 -0.391022 0
M  V30 7272 C 715.626 -3.46112 -0.287015 0
M  V30 7273 C 714.58 -4.24205 0.568682 0
M  V30 7274 C 713.906 -5.3384 -0.303206 0
M  V30 7275 C 715.206 -4.88954 1.83633 0
M  V30 7276 H 716.9 -2.69298 1.30839 0
M  V30 7277 H 714.446 -1.29459 0.630579 0
M  V30 7278 H 716.399 -4.16622 -0.6328 0
M  V30 7279 H 715.123 -3.04765 -1.17414 0
M  V30 7280 H 713.782 -3.5545 0.897261 0
M  V30 7281 H 713.43 -4.88734 -1.18947 0
M  V30 7282 H 713.13 -5.86998 0.265879 0
M  V30 7283 H 714.654 -6.0719 -0.644423 0
M  V30 7284 H 716.068 -5.51717 1.55823 0
M  V30 7285 H 714.465 -5.52198 2.34941 0
M  V30 7286 H 715.535 -4.12305 2.55211 0
M  V30 7287 N 716.879 -0.700114 -1.41195 0
M  V30 7288 C 718.295 -0.372114 -1.55201 0
M  V30 7289 C 718.495 1.12053 -1.6747 0
M  V30 7290 O 717.551 1.90642 -1.65566 0
M  V30 7291 C 718.864 -1.12462 -2.78878 0
M  V30 7292 C 720.412 -1.10941 -2.92679 0
M  V30 7293 C 720.887 -1.84376 -4.19249 0
M  V30 7294 N 722.378 -1.81368 -4.26216 0
M  V30 7295 C 723.113 -2.35024 -5.23021 0
M  V30 7296 N 722.609 -2.9717 -6.25829 0
M  V30 7297 N 724.402 -2.25254 -5.14992 0
M  V30 7298 H 716.553 -1.66816 -1.31477 0
M  V30 7299 H 718.816 -0.704223 -0.634644 0
M  V30 7300 H 718.522 -2.17937 -2.76037 0
M  V30 7301 H 718.396 -0.706152 -3.70531 0
M  V30 7302 H 720.783 -0.062911 -2.95033 0
M  V30 7303 H 720.864 -1.56698 -2.02187 0
M  V30 7304 H 720.508 -2.89008 -4.17656 0
M  V30 7305 H 720.438 -1.3605 -5.08722 0
M  V30 7306 H 722.929 -1.36062 -3.52556 0
M  V30 7307 H 723.242 -3.35668 -6.96094 0
M  V30 7308 H 721.587 -3.01249 -6.26318 0
M  V30 7309 H 724.778 -1.76372 -4.33602 0
M  V30 7310 H 724.951 -2.67373 -5.90268 0
M  V30 7311 N 718.357 1.51182 -0.445186 0
M  V30 7312 C 719.634 1.9478 0.178965 0
M  V30 7313 C 720.014 1.38428 1.59376 0
M  V30 7314 O 719.362 0.574552 2.21159 0
M  V30 7315 C 719.572 3.48683 0.148711 0
M  V30 7316 C 720.92 4.23152 0.35042 0
M  V30 7317 O 721.944 3.55479 0.226474 0
M  V30 7318 O 720.803 5.4322 0.597893 0
M  V30 7319 H 717.897 0.817387 0.12573 0
M  V30 7320 H 720.443 1.62051 -0.503729 0
M  V30 7321 H 719.215 3.82176 -0.84009 0
M  V30 7322 H 718.838 3.87875 0.873979 0
M  V30 7323 N 719.835 0.176821 1.56605 0
M  V30 7324 C 720.782 -0.751312 2.18229 0
M  V30 7325 C 721.752 -1.22297 1.12395 0
M  V30 7326 O 722.937 -1.29015 1.40569 0
M  V30 7327 C 720.077 -1.97291 2.83143 0
M  V30 7328 C 719.19 -1.54431 4.03454 0
M  V30 7329 C 718.325 -2.72 4.56278 0
M  V30 7330 C 717.364 -2.25657 5.68986 0
M  V30 7331 N 716.501 -3.36338 6.16296 0
M  V30 7332 H 721.341 -0.219033 2.97194 0
M  V30 7333 H 718.878 -0.0963803 1.46784 0
M  V30 7334 H 720.836 -2.68949 3.1894 0
M  V30 7335 H 719.466 -2.4788 2.06773 0
M  V30 7336 H 718.518 -0.724273 3.73441 0
M  V30 7337 H 719.83 -1.16417 4.85024 0
M  V30 7338 H 718.984 -3.51806 4.94285 0
M  V30 7339 H 717.723 -3.13277 3.73777 0
M  V30 7340 H 716.728 -1.44299 5.30526 0
M  V30 7341 H 717.953 -1.85432 6.53293 0
M  V30 7342 H 715.899 -3.7718 5.36723 0
M  V30 7343 H 715.816 -3.02435 6.9287 0
M  V30 7344 H 717.084 -4.16413 6.58954 0
M  V30 7345 N 721.313 -1.57302 -0.09688 0
M  V30 7346 C 722.56 -1.85997 -0.800699 0
M  V30 7347 C 722.888 -0.765089 -1.7882 0
M  V30 7348 O 722.143 0.241492 -1.94204 0
M  V30 7349 C 722.442 -3.21272 -1.56586 0
M  V30 7350 C 722.108 -4.45104 -0.72064 0
M  V30 7351 C 720.77 -4.78723 -0.487632 0
M  V30 7352 C 723.122 -5.2103 -0.132948 0
M  V30 7353 C 720.45 -5.85697 0.34296 0
M  V30 7354 C 722.802 -6.28881 0.684957 0
M  V30 7355 C 721.466 -6.61017 0.928073 0
M  V30 7356 H 720.736 -0.680613 -0.292997 0
M  V30 7357 H 723.383 -1.91399 -0.0622474 0
M  V30 7358 H 721.688 -3.11547 -2.37583 0
M  V30 7359 H 723.385 -3.40702 -2.11478 0
M  V30 7360 H 719.975 -4.18777 -0.912359 0
M  V30 7361 H 724.159 -4.95392 -0.300132 0
M  V30 7362 H 719.415 -6.09008 0.540317 0
M  V30 7363 H 723.589 -6.86886 1.14721 0
M  V30 7364 H 721.216 -7.43738 1.57348 0
M  V30 7365 N 722.791 0.367657 -1.53252 0
M  V30 7366 C 724.039 1.10832 -1.68999 0
M  V30 7367 C 724.36 1.89894 -0.443306 0
M  V30 7368 O 723.63 1.88235 0.54262 0
M  V30 7369 H 722.21 0.412153 -0.623008 0
M  V30 7370 H 724.872 0.414775 -1.90435 0
M  V30 7371 H 723.968 1.7993 -2.55013 0
M  V30 7372 N 724.269 1.44576 0.627338 0
M  V30 7373 C 725.179 1.54232 1.76776 0
M  V30 7374 C 726.195 0.427782 1.6866 0
M  V30 7375 O 727.371 0.685671 1.89369 0
M  V30 7376 C 724.436 1.48738 3.13174 0
M  V30 7377 C 723.497 2.71074 3.32893 0
M  V30 7378 C 722.73 2.65832 4.62784 0
M  V30 7379 O 722.953 1.72048 5.43834 0
M  V30 7380 O 721.887 3.56742 4.84787 0
M  V30 7381 H 725.713 2.50586 1.71582 0
M  V30 7382 H 723.298 1.26865 0.789028 0
M  V30 7383 H 725.18 1.48211 3.94476 0
M  V30 7384 H 723.855 0.555292 3.18902 0
M  V30 7385 H 722.762 2.77168 2.51254 0
M  V30 7386 H 724.095 3.63342 3.32029 0
M  V30 7387 N 725.747 -0.868086 1.31537 0
M  V30 7388 C 726.71 -1.95703 1.19302 0
M  V30 7389 C 727.71 -1.60355 0.119612 0
M  V30 7390 O 728.9 -1.70247 0.36902 0
M  V30 7391 C 726.032 -3.30599 0.831684 0
M  V30 7392 H 727.225 -2.07982 2.16064 0
M  V30 7393 H 724.778 -1.05661 1.15176 0
M  V30 7394 H 725.513 -3.2402 -0.134694 0
M  V30 7395 H 725.298 -3.57629 1.60761 0
M  V30 7396 H 726.788 -4.10439 0.770026 0
M  V30 7397 N 727.225 -1.14528 -1.08264 0
M  V30 7398 C 728.471 -0.91576 -1.80947 0
M  V30 7399 C 728.804 0.55623 -1.86064 0
M  V30 7400 O 728.079 1.41207 -1.33756 0
M  V30 7401 C 728.362 -1.51917 -3.26486 0
M  V30 7402 C 728.215 -3.06111 -3.2957 0
M  V30 7403 C 729.534 -1.19724 -4.23502 0
M  V30 7404 H 726.653 -0.334113 -0.656915 0
M  V30 7405 H 729.295 -1.41547 -1.26746 0
M  V30 7406 H 727.445 -1.0942 -3.72773 0
M  V30 7407 H 729.117 -3.57448 -2.91597 0
M  V30 7408 H 727.36 -3.40483 -2.688 0
M  V30 7409 H 728.031 -3.43438 -4.32151 0
M  V30 7410 H 730.507 -1.56467 -3.85561 0
M  V30 7411 H 729.383 -1.64575 -5.23647 0
M  V30 7412 H 729.644 -0.112771 -4.41956 0
M  V30 7413 N 728.703 1.26451 -0.940633 0
M  V30 7414 C 729.651 2.28389 -0.440581 0
M  V30 7415 C 730.645 1.62402 0.481859 0
M  V30 7416 O 731.851 1.76361 0.360132 0
M  V30 7417 H 728.226 0.741716 -0.123938 0
M  V30 7418 H 730.197 2.67967 -1.31288 0
M  V30 7419 C 728.946 3.46576 0.279364 0
M  V30 7420 H 728.269 3.97574 -0.421274 0
M  V30 7421 H 729.709 4.19826 0.59348 0
M  V30 7422 C 728.168 3.01815 1.49697 0
M  V30 7423 O 728.698 3.06607 2.59529 0
M  V30 7424 N 726.904 2.57163 1.35334 0
M  V30 7425 H 726.451 2.53464 0.459743 0
M  V30 7426 H 726.409 2.27578 2.16923 0
M  V30 7427 N 730.181 0.707592 1.40822 0
M  V30 7428 C 731.429 0.243189 2.00632 0
M  V30 7429 C 731.75 -1.16512 1.56365 0
M  V30 7430 O 731.02 -1.78841 0.799553 0
M  V30 7431 H 729.6 0.0869203 0.741926 0
M  V30 7432 H 732.262 0.911438 1.72275 0
M  V30 7433 H 731.358 0.270014 3.1093 0
M  V30 7434 N 731.66 -1.50943 0.453197 0
M  V30 7435 C 732.608 -2.29728 -0.364419 0
M  V30 7436 C 733.602 -1.36246 -1.00664 0
M  V30 7437 O 734.808 -1.53518 -0.939794 0
M  V30 7438 H 731.183 -0.739536 -0.136347 0
M  V30 7439 H 733.154 -2.96672 0.320696 0
M  V30 7440 C 731.903 -3.1629 -1.44415 0
M  V30 7441 H 731.226 -3.88119 -0.959343 0
M  V30 7442 H 732.666 -3.74444 -1.98917 0
M  V30 7443 C 731.125 -2.32702 -2.43622 0
M  V30 7444 O 731.655 -1.99763 -3.48508 0
M  V30 7445 N 729.861 -1.95621 -2.14897 0
M  V30 7446 H 729.408 -2.22607 -1.29629 0
M  V30 7447 H 729.366 -1.39993 -2.81513 0
M  V30 7448 N 733.138 -0.185124 -1.56509 0
M  V30 7449 C 734.068 0.735098 -2.21627 0
M  V30 7450 C 735.049 1.2288 -1.1762 0
M  V30 7451 O 736.234 1.27945 -1.46095 0
M  V30 7452 C 733.364 1.95889 -2.86783 0
M  V30 7453 C 732.318 1.6005 -3.96948 0
M  V30 7454 C 731.644 2.90009 -4.4922 0
M  V30 7455 C 732.944 0.818008 -5.15855 0
M  V30 7456 H 734.638 0.192274 -2.98782 0
M  V30 7457 H 732.184 0.0910393 -1.43712 0
M  V30 7458 H 734.137 2.60779 -3.31017 0
M  V30 7459 H 732.861 2.52608 -2.07018 0
M  V30 7460 H 731.52 0.975237 -3.5339 0
M  V30 7461 H 731.168 3.44797 -3.6623 0
M  V30 7462 H 730.868 2.66778 -5.23549 0
M  V30 7463 H 732.392 3.55904 -4.9615 0
M  V30 7464 H 733.806 1.36979 -5.56695 0
M  V30 7465 H 732.203 0.684207 -5.96187 0
M  V30 7466 H 733.273 -0.182939 -4.84555 0
M  V30 7467 N 734.616 1.57351 0.0885366 0
M  V30 7468 C 735.862 1.86696 0.791996 0
M  V30 7469 C 736.195 0.775148 1.78059 0
M  V30 7470 O 735.47 -0.216247 1.93294 0
M  V30 7471 C 735.753 3.26684 1.51491 0
M  V30 7472 C 735.606 4.465 0.543858 0
M  V30 7473 C 736.925 3.64664 2.46391 0
M  V30 7474 H 734.044 0.679049 0.286463 0
M  V30 7475 H 736.686 1.89919 0.0554866 0
M  V30 7476 H 734.836 3.24067 2.14273 0
M  V30 7477 H 736.508 4.61235 -0.0774597 0
M  V30 7478 H 734.751 4.33567 -0.142228 0
M  V30 7479 H 735.422 5.41192 1.08696 0
M  V30 7480 H 737.898 3.68267 1.93698 0
M  V30 7481 H 736.774 4.63534 2.93986 0
M  V30 7482 H 737.035 2.93698 3.30445 0
M  V30 7483 N 736.094 -0.359525 1.53444 0
M  V30 7484 C 737.34 -1.10315 1.70172 0
M  V30 7485 C 737.673 -1.88788 0.455287 0
M  V30 7486 O 736.948 -1.86635 -0.547514 0
M  V30 7487 C 737.231 -2.05744 2.95536 0
M  V30 7488 C 737.084 -1.3084 4.3035 0
M  V30 7489 C 738.403 -3.05784 3.16518 0
M  V30 7490 H 735.522 -0.399662 0.619225 0
M  V30 7491 H 738.164 -0.383338 1.86093 0
M  V30 7492 H 736.314 -2.67125 2.82093 0
M  V30 7493 H 737.986 -0.721959 4.55615 0
M  V30 7494 H 736.229 -0.610283 4.29486 0
M  V30 7495 H 736.9 -2.00718 5.14214 0
M  V30 7496 H 739.376 -2.5451 3.29187 0
M  V30 7497 H 738.252 -3.69772 4.05659 0
M  V30 7498 H 738.513 -3.76289 2.32076 0
M  V30 7499 N 737.572 -1.44907 -0.619662 0
M  V30 7500 C 738.82 -1.47999 -1.37625 0
M  V30 7501 C 739.141 -0.118295 -1.94641 0
M  V30 7502 O 738.411 0.85086 -1.76457 0
M  V30 7503 H 736.991 -0.544993 -0.510873 0
M  V30 7504 H 739.653 -1.80772 -0.728522 0
M  V30 7505 H 738.749 -2.21196 -2.20179 0
M  V30 7506 N 739.05 0.861098 -1.31996 0
M  V30 7507 C 740.278 1.6474 -1.25173 0
M  V30 7508 C 740.693 1.87926 0.181425 0
M  V30 7509 O 740.05 1.4437 1.1164 0
M  V30 7510 C 740.101 3.01036 -2.0015 0
M  V30 7511 O 739.822 2.7888 -3.37872 0
M  V30 7512 C 741.323 3.95481 -2.00273 0
M  V30 7513 H 738.543 0.513314 -0.432146 0
M  V30 7514 H 741.087 1.07419 -1.74016 0
M  V30 7515 H 739.242 3.55021 -1.55046 0
M  V30 7516 H 739.656 3.65514 -3.76165 0
M  V30 7517 H 741.13 4.88403 -2.57229 0
M  V30 7518 H 741.607 4.27957 -0.987407 0
M  V30 7519 H 742.213 3.47433 -2.45296 0
M  V30 7520 N 740.528 1.15101 1.07655 0
M  V30 7521 C 741.458 0.867864 2.16773 0
M  V30 7522 C 742.439 -0.180283 1.69142 0
M  V30 7523 O 743.624 -0.0353152 1.94168 0
M  V30 7524 C 740.754 0.35299 3.45501 0
M  V30 7525 C 739.708 1.33746 4.06566 0
M  V30 7526 C 739.034 0.681562 5.30338 0
M  V30 7527 C 740.334 2.7024 4.46954 0
M  V30 7528 H 742.028 1.78034 2.40716 0
M  V30 7529 H 739.574 0.857435 1.15689 0
M  V30 7530 H 741.527 0.142465 4.21159 0
M  V30 7531 H 740.251 -0.594945 3.21135 0
M  V30 7532 H 738.91 1.53429 3.32949 0
M  V30 7533 H 738.558 -0.272422 5.02262 0
M  V30 7534 H 738.258 1.33853 5.72151 0
M  V30 7535 H 739.782 0.48074 6.08705 0
M  V30 7536 H 741.196 2.5442 5.13754 0
M  V30 7537 H 739.593 3.32282 4.99709 0
M  V30 7538 H 740.663 3.26537 3.58471 0
M  V30 7539 N 742.006 -1.2595 0.947325 0
M  V30 7540 C 742.969 -2.24407 0.466285 0
M  V30 7541 C 743.969 -1.55054 -0.426005 0
M  V30 7542 O 745.159 -1.7275 -0.224319 0
M  V30 7543 C 742.291 -3.39326 -0.327201 0
M  V30 7544 H 743.484 -2.68477 1.33642 0
M  V30 7545 H 741.037 -1.38211 0.729887 0
M  V30 7546 H 741.772 -3.00667 -1.21532 0
M  V30 7547 H 741.557 -3.9085 0.312839 0
M  V30 7548 H 743.047 -4.12455 -0.653477 0
M  V30 7549 N 743.484 -0.715051 -1.40445 0
M  V30 7550 C 744.73 -0.263528 -2.01686 0
M  V30 7551 C 745.085 1.13052 -1.55683 0
M  V30 7552 O 744.378 1.75588 -0.766762 0
M  V30 7553 C 744.572 -0.281791 -3.56287 0
M  V30 7554 C 744.401 -1.67607 -4.17298 0
M  V30 7555 C 743.171 -2.2836 -4.50755 0
M  V30 7556 C 745.369 -2.62621 -4.42193 0
M  V30 7557 N 743.351 -3.6015 -4.97157 0
M  V30 7558 C 744.722 -3.79116 -4.90582 0
M  V30 7559 C 746.777 -2.60639 -4.24231 0
M  V30 7560 C 745.48 -4.93937 -5.22895 0
M  V30 7561 C 747.506 -3.74587 -4.57644 0
M  V30 7562 C 746.868 -4.89815 -5.06222 0
M  V30 7563 H 742.967 -0.142252 -0.768953 0
M  V30 7564 H 745.551 -0.936732 -1.70685 0
M  V30 7565 H 743.722 0.360975 -3.86719 0
M  V30 7566 H 745.454 0.186393 -4.04271 0
M  V30 7567 H 742.209 -1.80463 -4.3787 0
M  V30 7568 H 742.633 -4.27757 -5.24741 0
M  V30 7569 H 747.275 -1.72759 -3.85894 0
M  V30 7570 H 744.993 -5.82462 -5.60146 0
M  V30 7571 H 748.579 -3.74328 -4.45387 0
M  V30 7572 H 747.459 -5.76525 -5.3159 0
M  V30 7573 N 744.962 1.50701 -0.461195 0
M  V30 7574 C 746.373 1.867 -0.00370227 0
M  V30 7575 C 746.724 1.37673 1.39787 0
M  V30 7576 O 745.849 0.737515 2.03445 0
M  V30 7577 C 746.444 3.388 5.75786e-05 0
M  V30 7578 C 745.003 3.74247 0.402044 0
M  V30 7579 C 744.15 2.74549 -0.389652 0
M  V30 7580 H 747.101 1.43585 -0.675942 0
M  V30 7581 H 747.122 3.719 0.804414 0
M  V30 7582 H 746.634 3.74452 -1.02015 0
M  V30 7583 H 744.735 3.44192 1.42697 0
M  V30 7584 H 744.848 4.78973 0.110265 0
M  V30 7585 H 743.212 2.54226 0.155314 0
M  V30 7586 H 743.995 3.13044 -1.40919 0
M  V30 7587 N 746.441 0.193421 1.56409 0
M  V30 7588 C 747.666 -0.454552 2.02358 0
M  V30 7589 C 748.091 -1.54516 1.07268 0
M  V30 7590 O 747.449 -1.81214 0.0558962 0
M  V30 7591 C 747.497 -0.989469 3.46759 0
M  V30 7592 O 746.601 -2.10244 3.54783 0
M  V30 7593 H 745.942 -0.106417 0.655417 0
M  V30 7594 H 748.472 0.303807 2.02332 0
M  V30 7595 H 748.482 -1.30649 3.86516 0
M  V30 7596 H 747.157 -0.191083 4.15461 0
M  V30 7597 H 745.734 -1.79419 3.26899 0
M  V30 7598 N 747.919 -1.57396 -0.0801906 0
M  V30 7599 C 749.33 -1.75642 -0.633002 0
M  V30 7600 C 749.681 -0.817708 -1.78348 0
M  V30 7601 O 748.806 0.000233743 -2.164 0
M  V30 7602 C 749.401 -3.18502 -1.15507 0
M  V30 7603 C 747.96 -3.38121 -1.65381 0
M  V30 7604 C 747.107 -2.71386 -0.569661 0
M  V30 7605 H 750.058 -1.58027 0.145949 0
M  V30 7606 H 750.079 -3.22198 -2.02408 0
M  V30 7607 H 749.591 -3.86799 -0.317515 0
M  V30 7608 H 747.692 -2.74926 -2.51488 0
M  V30 7609 H 747.805 -4.46521 -1.73654 0
M  V30 7610 H 746.169 -2.33702 -1.0127 0
M  V30 7611 H 746.952 -3.42332 0.257561 0
M  V30 7612 N 749.397 0.351382 -1.53633 0
M  V30 7613 C 750.643 1.09049 -1.71697 0
M  V30 7614 C 750.998 1.86563 -0.470314 0
M  V30 7615 O 750.291 1.83922 0.536954 0
M  V30 7616 C 750.485 2.06744 -2.91533 0
M  V30 7617 C 750.314 1.38832 -4.27733 0
M  V30 7618 C 749.084 1.13646 -4.92354 0
M  V30 7619 C 751.282 0.818602 -5.07743 0
M  V30 7620 N 749.264 0.422324 -6.12446 0
M  V30 7621 C 750.635 0.234602 -6.19556 0
M  V30 7622 C 752.69 0.718679 -4.92686 0
M  V30 7623 C 751.393 -0.439592 -7.17955 0
M  V30 7624 C 753.419 0.0582402 -5.91371 0
M  V30 7625 C 752.781 -0.514823 -7.02516 0
M  V30 7626 H 748.88 0.383697 -0.681396 0
M  V30 7627 H 751.464 0.375063 -1.91053 0
M  V30 7628 H 749.635 2.75586 -2.73691 0
M  V30 7629 H 751.367 2.73436 -2.98353 0
M  V30 7630 H 748.122 1.4215 -4.51764 0
M  V30 7631 H 748.546 0.0802092 -6.76952 0
M  V30 7632 H 753.188 1.14748 -4.06931 0
M  V30 7633 H 750.906 -0.880307 -8.03291 0
M  V30 7634 H 754.492 -0.0183382 -5.81797 0
M  V30 7635 H 753.372 -1.01777 -7.77567 0
M  V30 7636 N 750.875 1.45233 0.611969 0
M  V30 7637 C 752.121 1.49242 1.37312 0
M  V30 7638 C 752.454 0.131963 1.93751 0
M  V30 7639 O 751.729 -0.852999 1.74798 0
M  V30 7640 C 752.012 2.56811 2.52428 0
M  V30 7641 C 751.865 4.02284 2.01215 0
M  V30 7642 C 753.184 2.60705 3.54572 0
M  V30 7643 H 750.303 0.54336 0.497925 0
M  V30 7644 H 752.945 1.77019 0.690242 0
M  V30 7645 H 751.095 2.33256 3.10683 0
M  V30 7646 H 752.767 4.37035 1.47643 0
M  V30 7647 H 751.01 4.1315 1.32248 0
M  V30 7648 H 751.681 4.7323 2.84178 0
M  V30 7649 H 754.157 2.81799 3.06151 0
M  V30 7650 H 753.033 3.37841 4.32614 0
M  V30 7651 H 753.294 1.65627 4.09903 0
M  V30 7652 N 752.353 -0.854086 1.3245 0
M  V30 7653 C 753.602 -1.60318 1.22397 0
M  V30 7654 C 753.915 -1.9444 -0.212664 0
M  V30 7655 O 755.121 -2.67991 -0.435066 0
M  V30 7656 C 753.577 -2.8909 2.1437 0
M  V30 7657 C 753.185 -2.62391 3.63119 0
M  V30 7658 C 754.929 -3.67104 2.13155 0
M  V30 7659 C 752.836 -3.87167 4.47052 0
M  V30 7660 H 751.766 -0.601586 0.454544 0
M  V30 7661 H 754.417 -0.943023 1.57415 0
M  V30 7662 H 752.799 -3.56567 1.72268 0
M  V30 7663 H 753.973 -2.03222 4.13567 0
M  V30 7664 H 752.288 -1.97706 3.66471 0
M  V30 7665 H 754.885 -4.59696 2.731 0
M  V30 7666 H 755.228 -4.00876 1.12268 0
M  V30 7667 H 755.761 -3.06533 2.5354 0
M  V30 7668 H 752.5 -3.58536 5.48755 0
M  V30 7669 H 752.02 -4.45729 4.01355 0
M  V30 7670 H 753.699 -4.549 4.60081 0
M  V30 7671 N 753.831 -1.1567 -1.07043 0
M  V30 7672 C 755.077 -0.9349 -1.79965 0
M  V30 7673 C 755.41 0.536464 -1.86643 0
M  V30 7674 O 754.685 1.39781 -1.35247 0
M  V30 7675 C 754.968 -1.55371 -3.24857 0
M  V30 7676 C 754.821 -3.09589 -3.26305 0
M  V30 7677 C 756.14 -1.24209 -4.22209 0
M  V30 7678 H 753.259 -0.341061 -0.653335 0
M  V30 7679 H 755.901 -1.42883 -1.25237 0
M  V30 7680 H 754.051 -1.13368 -3.71591 0
M  V30 7681 H 755.723 -3.60521 -2.87789 0
M  V30 7682 H 753.966 -3.43315 -2.65174 0
M  V30 7683 H 754.637 -3.48002 -4.28484 0
M  V30 7684 H 757.113 -1.60548 -3.8388 0
M  V30 7685 H 755.989 -1.70119 -5.21872 0
M  V30 7686 H 756.25 -0.15964 -4.41812 0
M  V30 7687 N 755.309 1.25446 -0.953992 0
M  V30 7688 C 756.558 1.92441 -0.604101 0
M  V30 7689 C 756.871 1.75543 0.862796 0
M  V30 7690 O 758.077 2.37106 1.32262 0
M  V30 7691 C 756.533 3.44854 -1.02974 0
M  V30 7692 C 756.141 3.70464 -2.51914 0
M  V30 7693 C 757.885 4.1778 -0.752352 0
M  V30 7694 C 755.792 5.1638 -2.88281 0
M  V30 7695 H 754.722 0.720508 -0.222227 0
M  V30 7696 H 757.373 1.42318 -1.15836 0
M  V30 7697 H 755.755 3.93935 -0.403904 0
M  V30 7698 H 756.929 3.32038 -3.19511 0
M  V30 7699 H 755.244 3.10797 -2.77117 0
M  V30 7700 H 757.841 5.25261 -1.00024 0
M  V30 7701 H 758.184 4.15135 0.311212 0
M  V30 7702 H 758.717 3.74605 -1.33851 0
M  V30 7703 H 755.456 5.24135 -3.93653 0
M  V30 7704 H 754.976 5.55855 -2.25357 0
M  V30 7705 H 756.655 5.84497 -2.77439 0
M  V30 7706 N 756.787 0.722489 1.40064 0
M  V30 7707 C 758.035 0.264455 2.00362 0
M  V30 7708 C 758.356 -1.14847 1.57592 0
M  V30 7709 O 757.626 -1.77982 0.818477 0
M  V30 7710 H 756.206 0.0947846 0.740962 0
M  V30 7711 H 758.868 0.929659 1.71299 0
M  V30 7712 H 757.964 0.302977 3.10626 0
M  V30 7713 N 758.265 -1.50454 0.469181 0
M  V30 7714 C 759.49 -2.0722 -0.0864892 0
M  V30 7715 C 759.915 -1.33098 -1.32916 0
M  V30 7716 O 759.273 -0.378084 -1.77314 0
M  V30 7717 C 759.321 -3.58845 -0.355384 0
M  V30 7718 O 758.425 -3.86583 -1.43622 0
M  V30 7719 H 757.766 -0.663889 0.0121414 0
M  V30 7720 H 760.296 -1.93674 0.659674 0
M  V30 7721 H 760.306 -4.03617 -0.596447 0
M  V30 7722 H 758.981 -4.12211 0.552698 0
M  V30 7723 H 757.558 -3.5365 -1.18262 0
M  V30 7724 N 759.743 -0.201713 -1.56304 0
M  V30 7725 C 760.99 0.435307 -1.97766 0
M  V30 7726 C 761.318 1.61169 -1.0888 0
M  V30 7727 O 760.573 1.95272 -0.12934 0
M  V30 7728 C 760.872 0.931432 -3.45049 0
M  V30 7729 C 760.538 -0.132287 -4.50706 0
M  V30 7730 C 759.2 -0.424552 -4.79323 0
M  V30 7731 C 761.552 -0.852703 -5.14177 0
M  V30 7732 C 758.88 -1.4421 -5.68701 0
M  V30 7733 C 761.232 -1.85944 -6.04655 0
M  V30 7734 C 759.896 -2.15884 -6.31625 0
M  V30 7735 H 759.166 0.15929 -0.723676 0
M  V30 7736 H 761.813 -0.300069 -1.89134 0
M  V30 7737 H 760.118 1.7452 -3.50785 0
M  V30 7738 H 761.815 1.43383 -3.74489 0
M  V30 7739 H 758.405 0.105671 -4.2847 0
M  V30 7740 H 762.589 -0.640139 -4.92154 0
M  V30 7741 H 757.845 -1.6799 -5.87869 0
M  V30 7742 H 762.019 -2.42286 -6.52894 0
M  V30 7743 H 759.646 -2.94875 -7.0068 0
M  V30 7744 N 761.222 1.57436 0.0718424 0
M  V30 7745 C 762.469 1.87248 0.771007 0
M  V30 7746 C 762.797 0.793441 1.7758 0
M  V30 7747 O 762.052 -0.210565 1.94564 0
M  V30 7748 C 762.351 3.23723 1.51455 0
M  V30 7749 C 762.017 4.46194 0.649736 0
M  V30 7750 C 760.679 4.79438 0.411409 0
M  V30 7751 C 763.031 5.21176 0.05004 0
M  V30 7752 C 760.359 5.85077 -0.436096 0
M  V30 7753 C 762.711 6.27712 -0.784919 0
M  V30 7754 C 761.375 6.59457 -1.03312 0
M  V30 7755 H 760.645 0.685188 0.282132 0
M  V30 7756 H 763.292 1.91474 0.0317896 0
M  V30 7757 H 761.597 3.15287 2.32597 0
M  V30 7758 H 763.294 3.44023 2.06031 0
M  V30 7759 H 759.884 4.20175 0.84562 0
M  V30 7760 H 764.068 4.95806 0.221282 0
M  V30 7761 H 759.324 6.08071 -0.637136 0
M  V30 7762 H 763.498 6.84974 -1.25635 0
M  V30 7763 H 761.125 7.4114 -1.6916 0
M  V30 7764 N 762.7 -0.34323 1.53817 0
M  V30 7765 C 763.925 -1.1079 1.75329 0
M  V30 7766 C 764.35 -1.81571 0.491293 0
M  V30 7767 O 763.708 -1.72561 -0.556089 0
M  V30 7768 C 763.756 -2.09681 2.9337 0
M  V30 7769 O 762.86 -3.17207 2.63541 0
M  V30 7770 H 762.201 -0.320402 0.581583 0
M  V30 7771 H 764.731 -0.393525 2.0078 0
M  V30 7772 H 764.741 -2.52897 3.20168 0
M  V30 7773 H 763.416 -1.5756 3.84899 0
M  V30 7774 H 761.993 -2.78806 2.47632 0
M  V30 7775 N 764.178 -1.45556 -0.604258 0
M  V30 7776 C 765.406 -1.53278 -1.38973 0
M  V30 7777 C 765.821 -0.166509 -1.88064 0
M  V30 7778 O 765.178 0.832519 -1.62405 0
M  V30 7779 C 765.229 -2.51992 -2.59195 0
M  V30 7780 O 764.95 -3.8331 -2.12143 0
M  V30 7781 C 766.451 -2.69445 -3.52015 0
M  V30 7782 H 763.671 -0.519003 -0.425297 0
M  V30 7783 H 766.215 -1.90773 -0.736621 0
M  V30 7784 H 764.37 -2.17561 -3.2054 0
M  V30 7785 H 764.784 -4.3685 -2.90279 0
M  V30 7786 H 766.258 -3.42485 -4.32907 0
M  V30 7787 H 766.735 -1.75596 -4.0257 0
M  V30 7788 H 767.341 -3.04886 -2.9652 0
M  V30 7789 N 765.656 0.84705 -1.32902 0
M  V30 7790 C 766.896 1.61554 -1.25218 0
M  V30 7791 C 767.26 1.91141 0.18143 0
M  V30 7792 O 768.461 2.6607 0.382106 0
M  V30 7793 C 766.732 2.89553 -2.09509 0
M  V30 7794 S 768.291 3.80283 -2.18931 0
M  V30 7795 H 765.109 0.554031 -0.445613 0
M  V30 7796 H 767.711 1.00251 -1.67839 0
M  V30 7797 H 766.415 2.65776 -3.12716 0
M  V30 7798 H 765.946 3.55868 -1.67694 0
M  V30 7799 H 767.961 4.77641 -1.34438 0
M  V30 7800 N 767.134 1.16236 1.06428 0
M  V30 7801 C 768.382 0.941171 1.78847 0
M  V30 7802 C 768.703 -0.53248 1.87589 0
M  V30 7803 O 767.973 -1.38686 1.38358 0
M  V30 7804 H 766.553 0.345228 0.66244 0
M  V30 7805 H 769.215 1.46479 1.28569 0
M  V30 7806 H 768.311 1.35871 2.80972 0
M  V30 7807 N 768.612 -1.24939 0.960631 0
M  V30 7808 C 769.575 -2.239 0.49006 0
M  V30 7809 C 770.575 -1.55497 -0.409535 0
M  V30 7810 O 771.765 -1.72978 -0.205984 0
M  V30 7811 C 768.897 -3.39654 -0.291193 0
M  V30 7812 H 770.09 -2.67044 1.36482 0
M  V30 7813 H 767.643 -1.37429 0.744505 0
M  V30 7814 H 768.378 -3.01939 -1.18336 0
M  V30 7815 H 768.163 -3.90496 0.354276 0
M  V30 7816 H 769.653 -4.13125 -0.609693 0
M  V30 7817 N 770.09 -0.729906 -1.39679 0
M  V30 7818 C 771.338 -0.275077 -2.00219 0
M  V30 7819 C 771.659 1.1401 -1.58199 0
M  V30 7820 O 770.929 1.77546 -0.827904 0
M  V30 7821 H 769.509 -0.0987127 -0.740449 0
M  V30 7822 H 772.171 -0.93873 -1.70804 0
M  V30 7823 H 771.267 -0.319446 -3.10461 0
M  V30 7824 N 771.568 1.50203 -0.477153 0
M  V30 7825 C 772.498 2.31517 0.303646 0
M  V30 7826 C 773.479 1.38696 0.984753 0
M  V30 7827 O 774.664 1.67615 0.980758 0
M  V30 7828 C 771.794 3.18598 1.38249 0
M  V30 7829 C 770.748 4.2002 0.822645 0
M  V30 7830 C 770.074 4.95878 2.00024 0
M  V30 7831 C 771.374 5.22023 -0.170185 0
M  V30 7832 H 773.068 2.97042 -0.375027 0
M  V30 7833 H 770.614 1.42848 -0.181802 0
M  V30 7834 H 772.567 3.74282 1.93625 0
M  V30 7835 H 771.291 2.5097 2.09002 0
M  V30 7836 H 769.95 3.65445 0.290813 0
M  V30 7837 H 769.598 4.24717 2.69489 0
M  V30 7838 H 769.298 5.64487 1.63183 0
M  V30 7839 H 770.822 5.54399 2.55878 0
M  V30 7840 H 772.236 5.72543 0.294606 0
M  V30 7841 H 770.633 5.98386 -0.453181 0
M  V30 7842 H 771.703 4.72396 -1.09408 0
M  V30 7843 N 773.046 0.209999 1.56195 0
M  V30 7844 C 773.978 -0.736967 2.17029 0
M  V30 7845 C 774.991 -1.16599 1.13616 0
M  V30 7846 O 776.18 -1.09914 1.40646 0
M  V30 7847 C 773.28 -2.00852 2.72969 0
M  V30 7848 C 772.453 -1.73691 4.01435 0
M  V30 7849 C 771.512 -2.85439 4.42053 0
M  V30 7850 O 770.538 -2.54405 5.09183 0
M  V30 7851 N 771.74 -4.14135 4.06783 0
M  V30 7852 H 774.505 -0.216656 2.98916 0
M  V30 7853 H 772.066 0.0285672 1.61875 0
M  V30 7854 H 774.058 -2.74778 2.97118 0
M  V30 7855 H 772.628 -2.43963 1.95451 0
M  V30 7856 H 771.848 -0.834676 3.85262 0
M  V30 7857 H 773.136 -1.52961 4.85263 0
M  V30 7858 H 772.534 -4.42196 3.52816 0
M  V30 7859 H 771.091 -4.84642 4.35851 0
M  V30 7860 N 774.524 -1.57472 -0.0634922 0
M  V30 7861 C 775.749 -1.92273 -0.77756 0
M  V30 7862 C 776.174 -0.807141 -1.69902 0
M  V30 7863 O 775.532 0.239523 -1.79711 0
M  V30 7864 C 775.58 -3.26054 -1.54017 0
M  V30 7865 O 774.684 -3.15873 -2.65138 0
M  V30 7866 H 774.025 -0.629389 -0.211579 0
M  V30 7867 H 776.555 -2.04579 -0.0292523 0
M  V30 7868 H 776.565 -3.60127 -1.91763 0
M  V30 7869 H 775.24 -4.06824 -0.864128 0
M  V30 7870 H 773.817 -2.93373 -2.30189 0
M  V30 7871 N 776.003 0.335068 -1.53997 0
M  V30 7872 C 776.933 1.41727 -1.85568 0
M  V30 7873 C 777.914 1.54505 -0.7115 0
M  V30 7874 O 779.099 1.68573 -0.964191 0
M  V30 7875 C 776.229 2.7866 -2.07282 0
M  V30 7876 C 775.183 2.80682 -3.23112 0
M  V30 7877 C 774.509 4.20581 -3.30175 0
M  V30 7878 C 775.809 2.45458 -4.61029 0
M  V30 7879 H 777.503 1.15555 -2.76202 0
M  V30 7880 H 775.049 0.554445 -1.32898 0
M  V30 7881 H 777.002 3.54423 -2.27952 0
M  V30 7882 H 775.726 3.06286 -1.13387 0
M  V30 7883 H 774.385 2.07373 -3.02311 0
M  V30 7884 H 774.033 4.4533 -2.33859 0
M  V30 7885 H 773.733 4.22843 -4.08016 0
M  V30 7886 H 775.257 4.98174 -3.53066 0
M  V30 7887 H 776.671 3.10934 -4.81656 0
M  V30 7888 H 775.068 2.5899 -5.41336 0
M  V30 7889 H 776.138 1.40628 -4.6406 0
M  V30 7890 N 777.481 1.45874 0.596531 0
M  V30 7891 C 778.709 1.54013 1.38158 0
M  V30 7892 C 779.124 0.17648 1.87973 0
M  V30 7893 O 778.481 -0.823895 1.62844 0
M  V30 7894 C 778.532 2.53363 2.57855 0
M  V30 7895 O 778.253 3.8443 2.10108 0
M  V30 7896 C 779.754 2.71308 3.50581 0
M  V30 7897 H 776.974 0.521251 0.422538 0
M  V30 7898 H 779.518 1.9116 0.726493 0
M  V30 7899 H 777.673 2.19257 3.19382 0
M  V30 7900 H 778.087 4.38384 2.87958 0
M  V30 7901 H 779.561 3.44776 4.31084 0
M  V30 7902 H 780.038 1.77728 4.01633 0
M  V30 7903 H 780.644 3.06455 2.94899 0
M  V30 7904 N 778.959 -0.83999 1.33349 0
M  V30 7905 C 780.207 -1.59202 1.24496 0
M  V30 7906 C 780.528 -1.94077 -0.189499 0
M  V30 7907 O 779.798 -1.60868 -1.11796 0
M  V30 7908 H 778.378 -0.590276 0.457802 0
M  V30 7909 H 781.04 -1.00394 1.67054 0
M  V30 7910 H 780.136 -2.52247 1.83788 0
M  V30 7911 N 780.437 -1.16799 -1.0581 0
M  V30 7912 C 781.4 -0.881396 -2.11575 0
M  V30 7913 C 782.4 0.12574 -1.60308 0
M  V30 7914 O 783.59 -0.105716 -1.73879 0
M  V30 7915 C 780.722 -0.319037 -3.39404 0
M  V30 7916 H 781.915 -1.81907 -2.38432 0
M  V30 7917 H 779.468 -0.977597 -1.21954 0
M  V30 7918 H 780.203 0.626082 -3.18199 0
M  V30 7919 H 779.988 -1.04481 -3.77923 0
M  V30 7920 H 781.478 -0.13663 -4.17376 0
M  V30 7921 N 781.915 1.24427 -0.967243 0
M  V30 7922 C 783.326 1.74349 -0.667785 0
M  V30 7923 C 783.677 1.78403 0.816509 0
M  V30 7924 O 782.802 1.41315 1.63887 0
M  V30 7925 C 783.397 3.16628 -1.20548 0
M  V30 7926 C 781.956 3.64059 -0.955934 0
M  V30 7927 C 781.103 2.42715 -1.34106 0
M  V30 7928 H 784.054 1.10136 -1.14262 0
M  V30 7929 H 784.075 3.76183 -0.571547 0
M  V30 7930 H 783.587 3.13646 -2.28578 0
M  V30 7931 H 781.688 3.72441 0.108858 0
M  V30 7932 H 781.801 4.51549 -1.60126 0
M  V30 7933 H 780.165 2.43114 -0.759452 0
M  V30 7934 H 780.948 2.42414 -2.43085 0
M  V30 7935 N 783.393 0.737304 1.3929 0
M  V30 7936 C 784.809 0.413132 1.5416 0
M  V30 7937 C 785.009 -1.07574 1.70382 0
M  V30 7938 O 784.065 -1.86185 1.70562 0
M  V30 7939 C 785.378 1.19817 2.75798 0
M  V30 7940 C 786.926 1.18662 2.89635 0
M  V30 7941 C 787.401 1.95427 4.14213 0
M  V30 7942 N 788.892 1.92605 4.21257 0
M  V30 7943 C 789.627 2.48808 5.16606 0
M  V30 7944 N 789.123 3.13659 6.1773 0
M  V30 7945 N 790.916 2.38829 5.08839 0
M  V30 7946 H 783.067 1.70243 1.27008 0
M  V30 7947 H 785.33 0.720802 0.61575 0
M  V30 7948 H 785.036 2.25179 2.70161 0
M  V30 7949 H 784.91 0.804144 3.68529 0
M  V30 7950 H 787.297 0.141112 2.94762 0
M  V30 7951 H 787.378 1.62003 1.97961 0
M  V30 7952 H 787.022 2.9998 4.09847 0
M  V30 7953 H 786.952 1.4949 5.04936 0
M  V30 7954 H 789.443 1.45362 3.48824 0
M  V30 7955 H 789.756 3.54006 6.8695 0
M  V30 7956 H 788.101 3.17749 6.1811 0
M  V30 7957 H 791.292 1.87806 4.28773 0
M  V30 7958 H 791.465 2.82929 5.82971 0
M  V30 7959 N 784.871 -1.49948 0.485112 0
M  V30 7960 C 785.801 -2.31675 -0.291364 0
M  V30 7961 C 786.782 -1.39216 -0.977383 0
M  V30 7962 O 787.967 -1.68133 -0.971855 0
M  V30 7963 C 785.097 -3.19326 -1.36558 0
M  V30 7964 C 784.051 -4.2045 -0.800359 0
M  V30 7965 C 783.377 -4.96931 -1.97391 0
M  V30 7966 C 784.677 -5.21925 0.197867 0
M  V30 7967 H 786.371 -2.96839 0.390775 0
M  V30 7968 H 783.917 -1.42749 0.189375 0
M  V30 7969 H 785.87 -3.75304 -1.91638 0
M  V30 7970 H 784.594 -2.52074 -2.07668 0
M  V30 7971 H 783.253 -3.65594 -0.271428 0
M  V30 7972 H 782.901 -4.26141 -2.67232 0
M  V30 7973 H 782.601 -5.65344 -1.60187 0
M  V30 7974 H 784.125 -5.55749 -2.52935 0
M  V30 7975 H 785.539 -5.72691 -0.264239 0
M  V30 7976 H 783.936 -5.98138 0.484908 0
M  V30 7977 H 785.006 -4.71809 1.11912 0
M  V30 7978 N 786.349 -0.21828 -1.56081 0
M  V30 7979 C 787.279 0.687922 -2.23136 0
M  V30 7980 C 788.26 1.20357 -1.202 0
M  V30 7981 O 789.445 1.24817 -1.48776 0
M  V30 7982 C 786.575 1.89762 -2.90874 0
M  V30 7983 C 785.529 1.51595 -4.00254 0
M  V30 7984 C 784.855 2.80415 -4.55271 0
M  V30 7985 C 786.155 0.708404 -5.17474 0
M  V30 7986 H 787.849 0.128854 -2.99123 0
M  V30 7987 H 785.395 0.0605354 -1.43873 0
M  V30 7988 H 787.348 2.53699 -3.36474 0
M  V30 7989 H 786.072 2.4816 -2.1233 0
M  V30 7990 H 784.731 0.900058 -3.55379 0
M  V30 7991 H 784.379 3.36951 -3.73461 0
M  V30 7992 H 784.079 2.55613 -5.2909 0
M  V30 7993 H 785.603 3.453 -5.03587 0
M  V30 7994 H 787.017 1.2514 -5.59476 0
M  V30 7995 H 785.414 0.557593 -5.97504 0
M  V30 7996 H 786.484 -0.285679 -4.84058 0
M  V30 7997 N 787.827 1.57504 0.0551401 0
M  V30 7998 C 788.759 2.0158 1.09078 0
M  V30 7999 C 789.772 0.92434 1.34014 0
M  V30 8000 O 790.961 1.20202 1.31961 0
M  V30 8001 C 788.061 2.35385 2.43818 0
M  V30 8002 C 787.234 3.66588 2.38605 0
M  V30 8003 C 786.293 3.87874 3.55585 0
M  V30 8004 O 785.319 4.59259 3.36258 0
M  V30 8005 N 786.521 3.31503 4.76536 0
M  V30 8006 H 789.286 2.91039 0.71529 0
M  V30 8007 H 786.847 1.60058 0.243532 0
M  V30 8008 H 788.839 2.46784 3.20749 0
M  V30 8009 H 787.409 1.51731 2.73307 0
M  V30 8010 H 786.629 3.65787 1.46947 0
M  V30 8011 H 787.917 4.52706 2.32239 0
M  V30 8012 H 787.315 2.73592 4.9514 0
M  V30 8013 H 785.872 3.48324 5.50921 0
M  V30 8014 N 789.305 -0.326896 1.54172 0
M  V30 8015 C 790.268 -1.38515 1.8261 0
M  V30 8016 C 791.268 -1.44872 0.697771 0
M  V30 8017 O 792.458 -1.44957 0.966078 0
M  V30 8018 C 789.59 -2.77281 1.98313 0
M  V30 8019 H 790.783 -1.14556 2.77159 0
M  V30 8020 H 788.336 -0.562199 1.45839 0
M  V30 8021 H 789.071 -3.065 1.05964 0
M  V30 8022 H 788.856 -2.74061 2.80416 0
M  V30 8023 H 790.346 -3.53845 2.21773 0
M  V30 8024 N 790.784 -1.46188 -0.588786 0
M  V30 8025 C 792.033 -1.50452 -1.34339 0
M  V30 8026 C 792.346 -0.158096 -1.9496 0
M  V30 8027 O 793.552 -0.0784918 -2.71387 0
M  V30 8028 C 792.008 -2.65074 -2.43441 0
M  V30 8029 C 791.616 -4.06111 -1.8915 0
M  V30 8030 C 793.36 -2.78603 -3.20282 0
M  V30 8031 C 791.267 -5.12084 -2.95845 0
M  V30 8032 H 790.197 -0.559905 -0.504997 0
M  V30 8033 H 792.848 -1.72382 -0.629014 0
M  V30 8034 H 791.23 -2.36462 -3.1765 0
M  V30 8035 H 792.404 -4.44487 -1.21524 0
M  V30 8036 H 790.719 -3.97197 -1.24995 0
M  V30 8037 H 793.316 -3.54944 -3.99898 0
M  V30 8038 H 793.659 -1.85902 -3.72486 0
M  V30 8039 H 794.192 -3.06832 -2.53178 0
M  V30 8040 H 790.931 -6.06556 -2.48535 0
M  V30 8041 H 790.451 -4.78259 -3.61979 0
M  V30 8042 H 792.13 -5.37661 -3.59902 0
M  V30 8043 N 792.262 0.832906 -1.33792 0
M  V30 8044 C 793.487 1.62568 -1.28788 0
M  V30 8045 C 793.912 1.87599 0.137246 0
M  V30 8046 O 793.27 1.44436 1.0958 0
M  V30 8047 C 793.318 2.9495 -2.07453 0
M  V30 8048 O 792.422 3.86546 -1.43722 0
M  V30 8049 H 791.763 0.494809 -0.442787 0
M  V30 8050 H 794.293 1.03578 -1.76445 0
M  V30 8051 H 794.303 3.44599 -2.1844 0
M  V30 8052 H 792.978 2.76055 -3.11073 0
M  V30 8053 H 791.555 3.45044 -1.41417 0
M  V30 8054 N 793.74 1.17359 1.05189 0
M  V30 8055 C 795.156 0.920861 1.30355 0
M  V30 8056 C 795.356 -0.419993 1.97074 0
M  V30 8057 O 794.412 -1.15696 2.24434 0
M  V30 8058 C 795.725 2.07818 2.1733 0
M  V30 8059 C 797.273 2.1152 2.30712 0
M  V30 8060 C 797.748 3.26637 3.21048 0
M  V30 8061 N 799.239 3.26426 3.28634 0
M  V30 8062 C 799.974 4.12141 3.98657 0
M  V30 8063 N 799.47 5.07966 4.71107 0
M  V30 8064 N 801.263 4.00091 3.94821 0
M  V30 8065 H 793.414 2.03666 0.602821 0
M  V30 8066 H 795.677 0.889294 0.328421 0
M  V30 8067 H 795.383 3.04727 1.75597 0
M  V30 8068 H 795.257 2.02922 3.17966 0
M  V30 8069 H 797.644 1.15196 2.71687 0
M  V30 8070 H 797.725 2.20477 1.29706 0
M  V30 8071 H 797.369 4.23227 2.80788 0
M  V30 8072 H 797.299 3.14917 4.2206 0
M  V30 8073 H 799.79 2.57045 2.77013 0
M  V30 8074 H 800.103 5.69766 5.22099 0
M  V30 8075 H 798.448 5.11936 4.7005 0
M  V30 8076 H 801.639 3.24523 3.37346 0
M  V30 8077 H 801.812 4.6711 4.49123 0
M  V30 8078 N 795.218 -1.23913 0.973828 0
M  V30 8079 C 796.495 -1.87539 0.555729 0
M  V30 8080 C 796.875 -1.87641 -0.967162 0
M  V30 8081 O 796.223 -1.35335 -1.84111 0
M  V30 8082 C 796.433 -3.29359 1.15427 0
M  V30 8083 C 797.781 -4.06 1.24294 0
M  V30 8084 O 798.805 -3.38554 1.10723 0
M  V30 8085 O 797.664 -5.26689 1.45813 0
M  V30 8086 H 794.758 -0.805769 0.186188 0
M  V30 8087 H 797.304 -1.31838 1.06849 0
M  V30 8088 H 796.076 -3.23817 2.19678 0
M  V30 8089 H 795.699 -3.92642 0.625925 0
M  V30 8090 N 796.696 -0.74468 -1.38897 0
M  V30 8091 C 797.944 -0.296298 -1.99916 0
M  V30 8092 C 798.265 1.12325 -1.59399 0
M  V30 8093 O 797.535 1.76658 -0.846689 0
M  V30 8094 H 796.115 -0.106561 -0.73936 0
M  V30 8095 H 798.777 -0.956793 -1.69798 0
M  V30 8096 H 797.873 -0.352356 -3.10105 0
M  V30 8097 N 798.174 1.49689 -0.493057 0
M  V30 8098 C 799.423 2.01622 0.0560733 0
M  V30 8099 C 799.736 1.37838 1.3878 0
M  V30 8100 O 800.942 1.81054 2.02316 0
M  V30 8101 C 799.398 3.59586 0.150409 0
M  V30 8102 C 799.006 4.32338 -1.1742 0
M  V30 8103 C 800.75 4.19489 0.650327 0
M  V30 8104 C 798.657 5.8214 -1.04246 0
M  V30 8105 H 797.587 0.753594 0.0247297 0
M  V30 8106 H 800.238 1.723 -0.631279 0
M  V30 8107 H 798.62 3.8559 0.902035 0
M  V30 8108 H 799.794 4.18042 -1.9385 0
M  V30 8109 H 798.109 3.84144 -1.60694 0
M  V30 8110 H 800.706 5.29181 0.766272 0
M  V30 8111 H 801.049 3.82326 1.6472 0
M  V30 8112 H 801.582 3.97775 -0.0445371 0
M  V30 8113 H 798.321 6.23814 -2.01336 0
M  V30 8114 H 797.841 5.98952 -0.31892 0
M  V30 8115 H 799.52 6.43004 -0.717957 0
M  V30 8116 N 799.652 0.226554 1.55963 0
M  V30 8117 C 800.898 -0.404387 1.98727 0
M  V30 8118 C 801.231 -1.59059 1.11418 0
M  V30 8119 O 800.506 -1.93729 0.172971 0
M  V30 8120 C 800.789 -0.834081 3.50307 0
M  V30 8121 C 800.642 0.356104 4.48388 0
M  V30 8122 C 801.961 -1.68845 4.06423 0
M  V30 8123 H 799.08 -0.145515 0.722492 0
M  V30 8124 H 801.722 0.323791 1.87221 0
M  V30 8125 H 799.872 -1.45454 3.60244 0
M  V30 8126 H 801.544 0.99432 4.50456 0
M  V30 8127 H 799.787 1.0027 4.22053 0
M  V30 8128 H 800.458 0.0124333 5.51999 0
M  V30 8129 H 802.934 -1.16489 3.99461 0
M  V30 8130 H 801.81 -1.958 5.1279 0
M  V30 8131 H 802.071 -2.65347 3.53615 0
M  V30 8132 N 801.13 -1.57531 -0.0467866 0
M  V30 8133 C 802.541 -1.76945 -0.595603 0
M  V30 8134 C 802.892 -0.855354 -1.76573 0
M  V30 8135 O 802.017 -0.045668 -2.16352 0
M  V30 8136 C 802.612 -3.20881 -1.08725 0
M  V30 8137 C 801.171 -3.41553 -1.58172 0
M  V30 8138 C 800.318 -2.72533 -0.511968 0
M  V30 8139 H 803.269 -1.57682 0.179436 0
M  V30 8140 H 803.29 -3.26419 -1.95528 0
M  V30 8141 H 802.802 -3.87385 -0.235398 0
M  V30 8142 H 800.903 -2.80199 -2.456 0
M  V30 8143 H 801.016 -4.50104 -1.64143 0
M  V30 8144 H 799.38 -2.35797 -0.962899 0
M  V30 8145 H 800.163 -3.41709 0.330117 0
M  V30 8146 N 802.608 0.318715 -1.54344 0
M  V30 8147 C 803.855 1.05608 -1.72781 0
M  V30 8148 C 804.183 1.87854 -0.504083 0
M  V30 8149 O 803.438 1.88826 0.51414 0
M  V30 8150 C 803.737 2.00514 -2.95853 0
M  V30 8151 C 803.403 1.34385 -4.30409 0
M  V30 8152 C 802.065 1.16081 -4.66989 0
M  V30 8153 C 804.417 0.869627 -5.13894 0
M  V30 8154 C 801.745 0.490114 -5.84649 0
M  V30 8155 C 804.097 0.212735 -6.32242 0
M  V30 8156 C 802.761 0.0175882 -6.67498 0
M  V30 8157 H 802.031 0.386449 -0.632249 0
M  V30 8158 H 804.678 0.332729 -1.88587 0
M  V30 8159 H 802.983 2.79317 -2.74753 0
M  V30 8160 H 804.68 2.57605 -3.07312 0
M  V30 8161 H 801.27 1.49634 -4.01631 0
M  V30 8162 H 805.454 0.998809 -4.86146 0
M  V30 8163 H 800.71 0.327767 -6.10521 0
M  V30 8164 H 804.884 -0.162699 -6.9621 0
M  V30 8165 H 802.511 -0.504137 -7.58527 0
M  V30 8166 N 804.086 1.46499 0.581025 0
M  V30 8167 C 805.016 1.60052 1.70017 0
M  V30 8168 C 805.997 0.450788 1.64018 0
M  V30 8169 O 807.182 0.677237 1.82009 0
M  V30 8170 C 804.312 1.5921 3.08658 0
M  V30 8171 C 803.266 2.73169 3.29488 0
M  V30 8172 C 802.592 2.57389 4.68674 0
M  V30 8173 C 803.892 4.14978 3.1716 0
M  V30 8174 H 805.586 2.53735 1.5893 0
M  V30 8175 H 803.132 1.22113 0.763173 0
M  V30 8176 H 805.085 1.67285 3.86773 0
M  V30 8177 H 803.809 0.620718 3.20647 0
M  V30 8178 H 802.468 2.64566 2.53773 0
M  V30 8179 H 802.116 1.58331 4.77431 0
M  V30 8180 H 801.816 3.33826 4.83564 0
M  V30 8181 H 803.34 2.67358 5.48956 0
M  V30 8182 H 804.754 4.24684 3.85119 0
M  V30 8183 H 803.151 4.92016 3.4357 0
M  V30 8184 H 804.221 4.35016 2.14218 0
M  V30 8185 N 805.565 -0.825799 1.34232 0
M  V30 8186 C 806.497 -1.94401 1.21413 0
M  V30 8187 C 807.51 -1.6218 0.141902 0
M  V30 8188 O 808.699 -1.74109 0.3935 0
M  V30 8189 C 805.799 -3.28257 0.842635 0
M  V30 8190 C 804.972 -3.88521 2.00924 0
M  V30 8191 C 804.031 -5.00752 1.61661 0
M  V30 8192 O 803.057 -5.19201 2.33279 0
M  V30 8193 N 804.259 -5.78084 0.52911 0
M  V30 8194 H 807.024 -2.05931 2.17744 0
M  V30 8195 H 804.585 -1.00223 1.27149 0
M  V30 8196 H 806.577 -4.00781 0.561822 0
M  V30 8197 H 805.147 -3.12585 -0.0304029 0
M  V30 8198 H 804.367 -3.08425 2.45495 0
M  V30 8199 H 805.655 -4.25516 2.78951 0
M  V30 8200 H 805.053 -5.65661 -0.0663322 0
M  V30 8201 H 803.61 -6.51072 0.308017 0
M  V30 8202 N 807.043 -1.17915 -1.04565 0
M  V30 8203 C 808.289 -0.972863 -1.77942 0
M  V30 8204 C 808.622 0.496753 -1.87739 0
M  V30 8205 O 807.897 1.3688 -1.38181 0
M  V30 8206 C 808.18 -1.62227 -3.21488 0
M  V30 8207 C 808.033 -3.16441 -3.19664 0
M  V30 8208 C 809.352 -1.33137 -4.19479 0
M  V30 8209 H 806.471 -0.354843 -0.645953 0
M  V30 8210 H 809.113 -1.45508 -1.22178 0
M  V30 8211 H 807.263 -1.21224 -3.69103 0
M  V30 8212 H 808.935 -3.66544 -2.80077 0
M  V30 8213 H 807.178 -3.48863 -2.57832 0
M  V30 8214 H 807.849 -3.57012 -4.21006 0
M  V30 8215 H 810.325 -1.68654 -3.80388 0
M  V30 8216 H 809.201 -1.81151 -5.18146 0
M  V30 8217 H 809.462 -0.253319 -4.41374 0
M  V30 8218 N 808.521 1.23394 -0.980386 0
M  V30 8219 C 809.768 1.91809 -0.649261 0
M  V30 8220 C 810.096 1.765 0.817197 0
M  V30 8221 O 809.351 1.11979 1.60497 0
M  V30 8222 C 809.65 3.43542 -0.985588 0
M  V30 8223 C 809.316 3.79031 -2.44225 0
M  V30 8224 C 807.978 3.88429 -2.84035 0
M  V30 8225 C 810.33 3.96145 -3.38702 0
M  V30 8226 C 807.658 4.12368 -4.17336 0
M  V30 8227 C 810.01 4.21583 -4.71646 0
M  V30 8228 C 808.674 4.29203 -5.11215 0
M  V30 8229 H 807.944 0.70188 -0.237581 0
M  V30 8230 H 810.591 1.4642 -1.23424 0
M  V30 8231 H 808.896 3.90503 -0.318521 0
M  V30 8232 H 810.593 3.94708 -0.707596 0
M  V30 8233 H 807.183 3.7229 -2.12362 0
M  V30 8234 H 811.367 3.88274 -3.09123 0
M  V30 8235 H 806.623 4.1649 -4.47601 0
M  V30 8236 H 810.797 4.33769 -5.4481 0
M  V30 8237 H 808.424 4.47505 -6.14527 0
M  V30 8238 N 809.999 0.752036 1.385 0
M  V30 8239 C 811.247 0.306895 1.99756 0
M  V30 8240 C 811.568 -1.11478 1.59992 0
M  V30 8241 O 810.838 -1.76206 0.856045 0
M  V30 8242 H 809.418 0.11048 0.738785 0
M  V30 8243 H 812.08 0.965785 1.69289 0
M  V30 8244 H 811.176 0.368797 3.09913 0
M  V30 8245 N 811.477 -1.49425 0.500989 0
M  V30 8246 C 812.427 -2.26061 -0.296698 0
M  V30 8247 C 813.411 -1.30906 -0.935541 0
M  V30 8248 O 814.603 -1.55628 -0.843142 0
M  V30 8249 C 811.732 -3.15189 -1.36055 0
M  V30 8250 C 810.818 -4.17806 -0.727952 0
M  V30 8251 N 811.209 -5.05516 0.169408 0
M  V30 8252 C 809.507 -4.34907 -0.988535 0
M  V30 8253 C 810.208 -5.79267 0.531509 0
M  V30 8254 N 809.184 -5.43507 -0.100564 0
M  V30 8255 H 812.986 -2.91246 0.394103 0
M  V30 8256 H 810.5 -1.59275 0.317065 0
M  V30 8257 H 812.497 -3.68724 -1.94547 0
M  V30 8258 H 811.157 -2.51556 -2.05303 0
M  V30 8259 H 812.168 -5.15075 0.540218 0
M  V30 8260 H 808.845 -3.82481 -1.67376 0
M  V30 8261 H 810.235 -6.59872 1.26564 0
M  V30 8262 N 812.955 -0.234822 -1.55841 0
M  V30 8263 C 814.203 0.392483 -1.98252 0
M  V30 8264 C 814.524 1.59344 -1.12404 0
M  V30 8265 O 813.794 1.94834 -0.204055 0
M  V30 8266 H 812.374 0.147999 -0.732192 0
M  V30 8267 H 815.036 -0.330804 -1.92072 0
M  V30 8268 H 814.132 0.709829 -3.03921 0
M  V30 8269 N 814.433 1.57553 0.0384317 0
M  V30 8270 C 815.38 2.05942 1.04194 0
M  V30 8271 C 816.35 0.946637 1.36484 0
M  V30 8272 O 817.535 1.21658 1.46983 0
M  V30 8273 C 814.675 2.53588 2.34066 0
M  V30 8274 C 813.788 3.7862 2.08017 0
M  V30 8275 C 812.923 4.14915 3.31692 0
M  V30 8276 C 811.962 5.32891 3.01155 0
M  V30 8277 N 811.099 5.64662 4.17254 0
M  V30 8278 H 815.939 2.91429 0.622341 0
M  V30 8279 H 813.476 1.44098 0.295684 0
M  V30 8280 H 815.434 2.79276 3.09937 0
M  V30 8281 H 814.064 1.71031 2.73767 0
M  V30 8282 H 813.116 3.60073 1.22686 0
M  V30 8283 H 814.428 4.64613 1.81484 0
M  V30 8284 H 813.582 4.41681 4.15936 0
M  V30 8285 H 812.321 3.27555 3.6133 0
M  V30 8286 H 811.326 5.05887 2.15311 0
M  V30 8287 H 812.551 6.21896 2.72804 0
M  V30 8288 H 810.497 4.80261 4.46861 0
M  V30 8289 H 810.414 6.45145 3.94112 0
M  V30 8290 H 811.682 5.96 5.02399 0
M  V30 8291 N 815.911 -0.310526 1.54511 0
M  V30 8292 C 816.874 -1.3657 1.84068 0
M  V30 8293 C 817.874 -1.44123 0.713097 0
M  V30 8294 O 819.064 -1.43924 0.981399 0
M  V30 8295 C 816.196 -2.75162 2.01243 0
M  V30 8296 H 817.389 -1.1161 2.78358 0
M  V30 8297 H 814.942 -0.546699 1.46427 0
M  V30 8298 H 815.677 -3.05359 1.09208 0
M  V30 8299 H 815.462 -2.71071 2.83307 0
M  V30 8300 H 816.952 -3.51473 2.25514 0
M  V30 8301 N 817.389 -1.46805 -0.573248 0
M  V30 8302 C 818.337 -1.58468 -1.70267 0
M  V30 8303 C 819.331 -0.452694 -1.63239 0
M  V30 8304 O 820.537 -0.629915 -1.68618 0
M  V30 8305 H 816.912 -0.498408 -0.56311 0
M  V30 8306 H 818.883 -2.5341 -1.57563 0
M  V30 8307 C 817.632 -1.60104 -3.08645 0
M  V30 8308 H 816.955 -2.4655 -3.14727 0
M  V30 8309 H 818.395 -1.72318 -3.87405 0
M  V30 8310 C 816.854 -0.33138 -3.35266 0
M  V30 8311 O 817.384 0.57438 -3.97572 0
M  V30 8312 N 815.59 -0.216358 -2.89793 0
M  V30 8313 H 815.137 -0.954345 -2.3927 0
M  V30 8314 H 815.095 0.632253 -3.07977 0
M  V30 8315 N 818.867 0.818669 -1.34668 0
M  V30 8316 C 820.115 1.57201 -1.27013 0
M  V30 8317 C 820.436 1.94354 0.158599 0
M  V30 8318 O 819.706 1.62626 1.09223 0
M  V30 8319 H 818.286 0.582919 -0.467135 0
M  V30 8320 H 820.948 0.977234 -1.6863 0
M  V30 8321 H 820.044 2.49291 -1.87778 0
M  V30 8322 N 820.346 1.18468 1.03938 0
M  V30 8323 C 821.256 0.927889 2.1547 0
M  V30 8324 C 822.272 -0.108447 1.73662 0
M  V30 8325 O 823.448 0.0737636 2.01265 0
M  V30 8326 C 820.513 0.458494 3.43655 0
M  V30 8327 C 819.574 1.56295 3.99838 0
M  V30 8328 C 818.807 1.11586 5.21904 0
M  V30 8329 O 819.03 -0.0249057 5.70395 0
M  V30 8330 O 817.964 1.91412 5.70653 0
M  V30 8331 H 821.79 1.86116 2.39989 0
M  V30 8332 H 819.375 0.966607 1.13917 0
M  V30 8333 H 821.257 0.204861 4.20902 0
M  V30 8334 H 819.932 -0.446464 3.20606 0
M  V30 8335 H 818.839 1.87061 3.23974 0
M  V30 8336 H 820.172 2.44408 4.2723 0
M  V30 8337 N 821.824 -1.22873 0.986916 0
M  V30 8338 C 823.235 -1.73264 0.695438 0
M  V30 8339 C 823.586 -1.79679 -0.788023 0
M  V30 8340 O 822.711 -1.43905 -1.61618 0
M  V30 8341 C 823.306 -3.14671 1.2557 0
M  V30 8342 C 821.865 -3.62492 1.01373 0
M  V30 8343 C 821.012 -2.40551 1.37951 0
M  V30 8344 H 823.963 -1.08304 1.15999 0
M  V30 8345 H 823.984 -3.75226 0.631322 0
M  V30 8346 H 823.496 -3.0997 2.33539 0
M  V30 8347 H 821.597 -3.72567 -0.0495917 0
M  V30 8348 H 821.71 -4.48944 1.67289 0
M  V30 8349 H 820.074 -2.41875 0.798033 0
M  V30 8350 H 820.857 -2.38516 2.46911 0
M  V30 8351 N 823.302 -0.75937 -1.38099 0
M  V30 8352 C 824.53 -0.329111 -2.04266 0
M  V30 8353 C 824.945 1.04453 -1.57274 0
M  V30 8354 O 824.302 1.66449 -0.748397 0
M  V30 8355 C 824.353 -0.349192 -3.5981 0
M  V30 8356 O 824.074 -1.66863 -4.05078 0
M  V30 8357 C 825.575 0.0942106 -4.432 0
M  V30 8358 H 822.795 -0.13971 -0.656294 0
M  V30 8359 H 825.339 -1.02984 -1.76677 0
M  V30 8360 H 823.494 0.302846 -3.86214 0
M  V30 8361 H 823.908 -1.59877 -4.9954 0
M  V30 8362 H 825.382 0.0290004 -5.51992 0
M  V30 8363 H 825.859 1.1429 -4.24069 0
M  V30 8364 H 826.465 -0.529171 -4.21995 0
M  V30 8365 N 824.78 1.49157 -0.508906 0
M  V30 8366 C 826.026 2.03385 0.0248089 0
M  V30 8367 C 826.381 1.381 1.33964 0
M  V30 8368 O 825.674 0.510317 1.84679 0
M  V30 8369 C 825.868 3.56687 0.225717 0
M  V30 8370 C 825.697 4.36832 -1.06809 0
M  V30 8371 C 824.467 4.78556 -1.6221 0
M  V30 8372 C 826.665 4.74934 -1.97338 0
M  V30 8373 N 824.647 5.43158 -2.86098 0
M  V30 8374 C 826.018 5.39336 -3.05805 0
M  V30 8375 C 828.073 4.56872 -1.97921 0
M  V30 8376 C 826.776 5.87587 -4.1489 0
M  V30 8377 C 828.802 5.06089 -3.05987 0
M  V30 8378 C 828.164 5.70499 -4.13172 0
M  V30 8379 H 824.263 0.781349 -0.0318988 0
M  V30 8380 H 826.847 1.82233 -0.685518 0
M  V30 8381 H 825.018 3.77707 0.905108 0
M  V30 8382 H 826.75 3.97554 0.757147 0
M  V30 8383 H 823.505 4.59017 -1.16621 0
M  V30 8384 H 823.929 5.8004 -3.49116 0
M  V30 8385 H 828.571 4.06474 -1.16357 0
M  V30 8386 H 826.289 6.37002 -4.97247 0
M  V30 8387 H 829.875 4.93919 -3.07466 0
M  V30 8388 H 828.755 6.07893 -4.95415 0
M  V30 8389 N 826.258 0.243083 1.55714 0
M  V30 8390 C 827.221 -0.644723 2.19945 0
M  V30 8391 C 828.221 -1.10562 1.16759 0
M  V30 8392 O 829.411 -1.01095 1.41865 0
M  V30 8393 C 826.543 -1.88569 2.83997 0
M  V30 8394 H 827.736 -0.0843839 2.99781 0
M  V30 8395 H 825.289 -0.00647246 1.56299 0
M  V30 8396 H 826.024 -2.48736 2.08089 0
M  V30 8397 H 825.809 -1.56345 3.59581 0
M  V30 8398 H 827.299 -2.51774 3.33166 0
M  V30 8399 N 827.736 -1.57571 -0.0300757 0
M  V30 8400 C 828.666 -2.0953 -1.03051 0
M  V30 8401 C 829.647 -0.99761 -1.37774 0
M  V30 8402 O 830.832 -1.27279 -1.46676 0
M  V30 8403 C 827.962 -2.57385 -2.33174 0
M  V30 8404 C 826.916 -3.71409 -2.12696 0
M  V30 8405 C 826.242 -4.05467 -3.4857 0
M  V30 8406 C 827.542 -4.99877 -1.51396 0
M  V30 8407 H 829.236 -2.93367 -0.597999 0
M  V30 8408 H 826.782 -1.41127 -0.286203 0
M  V30 8409 H 828.735 -2.92355 -3.03491 0
M  V30 8410 H 827.459 -1.70629 -2.78484 0
M  V30 8411 H 826.118 -3.36786 -1.44813 0
M  V30 8412 H 825.766 -3.15779 -3.91526 0
M  V30 8413 H 825.466 -4.82269 -3.35694 0
M  V30 8414 H 826.99 -4.4297 -4.2025 0
M  V30 8415 H 828.404 -5.3281 -2.11629 0
M  V30 8416 H 826.801 -5.81283 -1.49098 0
M  V30 8417 H 827.871 -4.82522 -0.479676 0
M  V30 8418 N 829.214 0.302327 -1.54673 0
M  V30 8419 C 830.144 1.37759 -1.88533 0
M  V30 8420 C 831.125 1.52961 -0.744113 0
M  V30 8421 O 832.31 1.6649 -0.999731 0
M  V30 8422 C 829.44 2.74201 -2.13146 0
M  V30 8423 C 828.394 2.73765 -3.28993 0
M  V30 8424 C 827.72 4.13483 -3.39022 0
M  V30 8425 C 829.02 2.35624 -4.66132 0
M  V30 8426 H 830.714 1.0967 -2.78591 0
M  V30 8427 H 828.26 0.52613 -1.34044 0
M  V30 8428 H 830.213 3.49508 -2.35419 0
M  V30 8429 H 828.937 3.03812 -1.19858 0
M  V30 8430 H 827.596 2.00914 -3.06642 0
M  V30 8431 H 827.244 4.40269 -2.43253 0
M  V30 8432 H 826.944 4.14093 -4.16894 0
M  V30 8433 H 828.468 4.90572 -3.63553 0
M  V30 8434 H 829.882 3.00647 -4.88143 0
M  V30 8435 H 828.279 2.47449 -5.46707 0
M  V30 8436 H 829.349 1.30753 -4.66939 0
M  V30 8437 N 830.692 1.47107 0.565454 0
M  V30 8438 C 831.622 1.61846 1.68309 0
M  V30 8439 C 832.603 0.468159 1.63531 0
M  V30 8440 O 833.788 0.696504 1.8128 0
M  V30 8441 C 830.918 1.62474 3.06952 0
M  V30 8442 C 829.872 2.76649 3.26572 0
M  V30 8443 C 829.198 2.62345 4.65917 0
M  V30 8444 C 830.498 4.18319 3.12741 0
M  V30 8445 H 832.192 2.55407 1.5623 0
M  V30 8446 H 829.738 1.22916 0.750179 0
M  V30 8447 H 831.691 1.71378 3.84977 0
M  V30 8448 H 830.415 0.654692 3.19971 0
M  V30 8449 H 829.074 2.67242 2.50952 0
M  V30 8450 H 828.722 1.63386 4.75725 0
M  V30 8451 H 828.422 3.38936 4.79996 0
M  V30 8452 H 829.946 2.73165 5.46089 0
M  V30 8453 H 831.36 4.28745 3.80593 0
M  V30 8454 H 829.757 4.95632 3.38333 0
M  V30 8455 H 830.827 4.37263 2.09592 0
M  V30 8456 N 832.17 -0.811516 1.35101 0
M  V30 8457 C 833.398 -1.59981 1.31201 0
M  V30 8458 C 833.813 -1.8847 -0.111552 0
M  V30 8459 O 833.17 -1.48414 -1.06205 0
M  V30 8460 C 833.221 -2.934 2.11184 0
M  V30 8461 O 832.942 -2.66148 3.4799 0
M  V30 8462 C 834.443 -3.87776 2.14813 0
M  V30 8463 H 831.663 -0.496921 0.450899 0
M  V30 8464 H 834.207 -1.00886 1.77883 0
M  V30 8465 H 832.362 -3.49022 1.68115 0
M  V30 8466 H 832.776 -3.51301 3.89471 0
M  V30 8467 H 834.25 -4.7852 2.75178 0
M  V30 8468 H 834.727 -4.23997 1.14556 0
M  V30 8469 H 835.333 -3.3809 2.58022 0
M  V30 8470 N 833.648 -1.19017 -1.03309 0
M  V30 8471 C 834.611 -0.926076 -2.09658 0
M  V30 8472 C 835.611 0.0917077 -1.60538 0
M  V30 8473 O 836.801 -0.142574 -1.73616 0
M  V30 8474 C 833.933 -0.390958 -3.38651 0
M  V30 8475 H 835.126 -1.86923 -2.3452 0
M  V30 8476 H 832.679 -1.00325 -1.19853 0
M  V30 8477 H 833.414 0.558446 -3.19456 0
M  V30 8478 H 833.199 -1.12474 -3.75622 0
M  V30 8479 H 834.689 -0.225131 -4.16993 0
M  V30 8480 N 835.127 1.22348 -0.993418 0
M  V30 8481 C 836.367 1.92835 -0.677779 0
M  V30 8482 C 836.731 1.75624 0.775893 0
M  V30 8483 O 837.932 2.40379 1.20297 0
M  V30 8484 C 836.203 3.40906 -1.07322 0
M  V30 8485 S 837.762 4.29966 -0.876032 0
M  V30 8486 H 834.58 0.666421 -0.247799 0
M  V30 8487 H 837.182 1.48133 -1.27581 0
M  V30 8488 H 835.886 3.50946 -2.12756 0
M  V30 8489 H 835.417 3.90618 -0.467015 0
M  V30 8490 H 837.432 4.95652 0.233162 0
M  V30 8491 N 836.605 0.766683 1.37694 0
M  V30 8492 C 837.854 0.325425 1.99057 0
M  V30 8493 C 838.167 -1.10275 1.61551 0
M  V30 8494 O 839.373 -1.64513 2.1598 0
M  V30 8495 C 837.829 0.530886 3.55963 0
M  V30 8496 C 837.437 1.96899 4.02411 0
M  V30 8497 C 839.181 0.152997 4.24224 0
M  V30 8498 C 837.088 2.12232 5.52007 0
M  V30 8499 H 836.018 0.117929 0.744721 0
M  V30 8500 H 838.669 0.945091 1.5729 0
M  V30 8501 H 837.051 -0.158162 3.95684 0
M  V30 8502 H 838.225 2.69258 3.73948 0
M  V30 8503 H 836.54 2.303 3.46916 0
M  V30 8504 H 839.137 0.24614 5.34133 0
M  V30 8505 H 839.48 -0.896096 4.06541 0
M  V30 8506 H 840.013 0.794398 3.89787 0
M  V30 8507 H 836.752 3.15442 5.7461 0
M  V30 8508 H 836.272 1.4435 5.82171 0
M  V30 8509 H 837.951 1.9185 6.17902 0
M  V30 8510 N 838.083 -1.48885 0.516809 0
M  V30 8511 C 839.323 -2.0439 -0.0202232 0
M  V30 8512 C 839.687 -1.38652 -1.32814 0
M  V30 8513 O 840.888 -1.84968 -1.95039 0
M  V30 8514 C 839.159 -3.57071 -0.153257 0
M  V30 8515 S 840.718 -4.34074 -0.642256 0
M  V30 8516 H 837.536 -0.710977 0.00576322 0
M  V30 8517 H 840.138 -1.82753 0.694376 0
M  V30 8518 H 838.842 -4.02454 0.803695 0
M  V30 8519 H 838.373 -3.83139 -0.892627 0
M  V30 8520 H 840.388 -4.58011 -1.90893 0
M  V30 8521 N 839.561 -0.251338 -1.55583 0
M  V30 8522 C 840.471 0.656978 -2.25213 0
M  V30 8523 C 841.487 1.18966 -1.26977 0
M  V30 8524 O 842.663 1.22499 -1.59862 0
M  V30 8525 C 839.728 1.83527 -2.94141 0
M  V30 8526 C 838.789 1.34162 -4.07798 0
M  V30 8527 C 838.022 2.46375 -4.73429 0
M  V30 8528 O 838.245 3.65205 -4.38157 0
M  V30 8529 O 837.179 2.15881 -5.61853 0
M  V30 8530 H 841.005 0.0936395 -3.03556 0
M  V30 8531 H 838.59 -0.0196638 -1.49387 0
M  V30 8532 H 840.472 2.52279 -3.3754 0
M  V30 8533 H 839.147 2.38614 -2.18735 0
M  V30 8534 H 838.054 0.621249 -3.68906 0
M  V30 8535 H 839.387 0.836779 -4.85035 0
M  V30 8536 N 841.039 1.57585 0.0217189 0
M  V30 8537 C 842.288 1.88786 0.710125 0
M  V30 8538 C 842.601 0.850819 1.76126 0
M  V30 8539 O 843.807 1.0523 2.50277 0
M  V30 8540 C 842.263 3.3505 1.31413 0
M  V30 8541 C 841.871 4.47001 0.298959 0
M  V30 8542 C 843.615 3.7539 1.98199 0
M  V30 8543 C 841.522 5.8433 0.911727 0
M  V30 8544 H 840.452 0.704388 0.268986 0
M  V30 8545 H 843.103 1.83466 -0.0352638 0
M  V30 8546 H 841.485 3.35138 2.10947 0
M  V30 8547 H 842.659 4.58395 -0.470203 0
M  V30 8548 H 840.974 4.15542 -0.267222 0
M  V30 8549 H 843.571 4.75314 2.4491 0
M  V30 8550 H 843.914 3.07766 2.80331 0
M  V30 8551 H 844.447 3.77508 1.2543 0
M  V30 8552 H 841.186 6.55372 0.129659 0
M  V30 8553 H 840.706 5.76643 1.65056 0
M  V30 8554 H 842.385 6.31295 1.41688 0
M  V30 8555 N 842.517 -0.29412 1.54831 0
M  V30 8556 C 843.765 -1.02643 1.74094 0
M  V30 8557 C 844.086 -1.87563 0.533402 0
M  V30 8558 O 843.356 -1.9061 -0.452192 0
M  V30 8559 H 841.936 -0.381959 0.641963 0
M  V30 8560 H 844.598 -0.323444 1.92197 0
M  V30 8561 H 843.694 -1.67558 2.63307 0
M  V30 8562 N 843.995 -1.47404 -0.557645 0
M  V30 8563 C 845.244 -1.53268 -1.31118 0
M  V30 8564 C 845.557 -0.199414 -1.94581 0
M  V30 8565 O 846.763 -0.136039 -2.71159 0
M  V30 8566 C 845.219 -2.70178 -2.37764 0
M  V30 8567 C 844.827 -4.10032 -1.80493 0
M  V30 8568 C 846.571 -2.85334 -3.14301 0
M  V30 8569 C 844.478 -5.18244 -2.84916 0
M  V30 8570 H 843.408 -0.570491 -0.493007 0
M  V30 8571 H 846.059 -1.73678 -0.592308 0
M  V30 8572 H 844.441 -2.43147 -3.12563 0
M  V30 8573 H 845.615 -4.46964 -1.12069 0
M  V30 8574 H 843.93 -3.99759 -1.16542 0
M  V30 8575 H 846.527 -3.63347 -3.92279 0
M  V30 8576 H 846.87 -1.93761 -3.68459 0
M  V30 8577 H 847.403 -3.12133 -2.46613 0
M  V30 8578 H 844.142 -6.11691 -2.35614 0
M  V30 8579 H 843.662 -4.85829 -3.51753 0
M  V30 8580 H 845.341 -5.45174 -3.48417 0
M  V30 8581 N 845.473 0.80434 -1.35529 0
M  V30 8582 C 846.403 1.93086 -1.31301 0
M  V30 8583 C 847.384 1.69068 -0.187044 0
M  V30 8584 O 848.569 1.90399 -0.382359 0
M  V30 8585 C 845.699 3.29867 -1.0865 0
M  V30 8586 C 844.653 3.68373 -2.17911 0
M  V30 8587 C 843.979 5.0334 -1.80423 0
M  V30 8588 C 845.279 3.78516 -3.59893 0
M  V30 8589 H 846.973 1.96882 -2.25561 0
M  V30 8590 H 844.519 0.945841 -1.08581 0
M  V30 8591 H 846.472 4.08281 -1.04331 0
M  V30 8592 H 845.196 3.2642 -0.108359 0
M  V30 8593 H 843.855 2.92247 -2.21331 0
M  V30 8594 H 843.503 4.96399 -0.812213 0
M  V30 8595 H 843.203 5.30074 -2.53565 0
M  V30 8596 H 844.727 5.84191 -1.77633 0
M  V30 8597 H 846.141 4.47155 -3.58783 0
M  V30 8598 H 844.538 4.16721 -4.31814 0
M  V30 8599 H 845.608 2.8001 -3.95882 0
M  V30 8600 N 846.951 1.19563 1.02676 0
M  V30 8601 C 848.2 0.993864 1.75514 0
M  V30 8602 C 848.513 -0.475882 1.89723 0
M  V30 8603 O 849.719 -0.796525 2.59553 0
M  V30 8604 C 848.175 1.72937 3.15628 0
M  V30 8605 C 847.783 3.23937 3.09466 0
M  V30 8606 C 849.527 1.61092 3.92746 0
M  V30 8607 C 847.434 3.90067 4.44524 0
M  V30 8608 H 846.364 0.368244 0.657961 0
M  V30 8609 H 849.015 1.43081 1.14891 0
M  V30 8610 H 847.397 1.22025 3.76731 0
M  V30 8611 H 848.571 3.81983 2.57731 0
M  V30 8612 H 846.886 3.3608 2.45843 0
M  V30 8613 H 849.483 2.07848 4.92649 0
M  V30 8614 H 849.826 0.565415 4.12442 0
M  V30 8615 H 850.359 2.09361 3.3825 0
M  V30 8616 H 847.098 4.94725 4.30032 0
M  V30 8617 H 846.618 3.36809 4.96306 0
M  V30 8618 H 848.297 3.93736 5.13401 0
M  V30 8619 N 848.429 -1.21819 0.999893 0
M  V30 8620 C 849.392 -2.22227 0.561044 0
M  V30 8621 C 850.392 -1.56722 -0.359858 0
M  V30 8622 O 851.582 -1.73546 -0.150848 0
M  V30 8623 C 848.714 -3.40409 -0.182987 0
M  V30 8624 H 849.907 -2.62567 1.44909 0
M  V30 8625 H 847.46 -1.34991 0.78785 0
M  V30 8626 H 848.195 -3.05551 -1.08671 0
M  V30 8627 H 847.98 -3.89171 0.47833 0
M  V30 8628 H 849.47 -4.14856 -0.477952 0
M  V30 8629 N 849.908 -0.773975 -1.37286 0
M  V30 8630 C 851.133 -0.349561 -2.04433 0
M  V30 8631 C 851.558 1.02082 -1.5799 0
M  V30 8632 O 850.916 1.65458 -0.741172 0
M  V30 8633 C 850.964 -0.404292 -3.58326 0
M  V30 8634 O 850.068 0.594447 -4.08093 0
M  V30 8635 H 849.409 -0.150959 -0.646612 0
M  V30 8636 H 851.939 -1.05079 -1.75555 0
M  V30 8637 H 851.949 -0.262378 -4.07155 0
M  V30 8638 H 850.624 -1.40403 -3.91484 0
M  V30 8639 H 849.201 0.415468 -3.70578 0
M  V30 8640 N 851.386 1.48609 -0.524698 0
M  V30 8641 C 852.316 2.32366 0.229837 0
M  V30 8642 C 853.297 1.41759 0.940129 0
M  V30 8643 O 854.482 1.7065 0.926936 0
M  V30 8644 C 851.612 3.22835 1.28043 0
M  V30 8645 C 850.566 4.22424 0.688603 0
M  V30 8646 C 849.892 5.0199 1.84146 0
M  V30 8647 C 851.192 5.21217 -0.336176 0
M  V30 8648 H 852.886 2.95698 -0.469339 0
M  V30 8649 H 850.432 1.42197 -0.227156 0
M  V30 8650 H 852.385 3.80253 1.8162 0
M  V30 8651 H 851.109 2.57492 2.00912 0
M  V30 8652 H 849.768 3.66185 0.174402 0
M  V30 8653 H 849.416 4.33076 2.5584 0
M  V30 8654 H 849.116 5.69392 1.45142 0
M  V30 8655 H 850.64 5.62259 2.38111 0
M  V30 8656 H 852.054 5.7319 0.112307 0
M  V30 8657 H 850.451 5.96642 -0.643324 0
M  V30 8658 H 851.521 4.68676 -1.24381 0
M  V30 8659 N 852.864 0.259585 1.55447 0
M  V30 8660 C 854.141 -0.412595 1.91199 0
M  V30 8661 C 854.521 -1.74909 1.18194 0
M  V30 8662 O 853.869 -2.26474 0.303603 0
M  V30 8663 C 854.079 -0.568195 3.44344 0
M  V30 8664 C 855.427 -0.858253 4.15836 0
M  V30 8665 O 856.451 -0.653588 3.50152 0
M  V30 8666 O 855.31 -1.24874 5.32042 0
M  V30 8667 H 852.404 -0.223403 0.796254 0
M  V30 8668 H 854.95 0.30459 1.66944 0
M  V30 8669 H 853.722 0.372989 3.89518 0
M  V30 8670 H 853.345 -1.33544 3.74502 0
M  V30 8671 N 854.342 -1.57594 -0.0133615 0
M  V30 8672 C 855.252 -2.10991 -1.02566 0
M  V30 8673 C 856.268 -1.05208 -1.3859 0
M  V30 8674 O 857.444 -1.37034 -1.47593 0
M  V30 8675 C 854.509 -2.59165 -2.30292 0
M  V30 8676 C 853.57 -3.79495 -2.00704 0
M  V30 8677 C 852.803 -4.25361 -3.22341 0
M  V30 8678 O 853.026 -3.70645 -4.33565 0
M  V30 8679 O 851.96 -5.17649 -3.07121 0
M  V30 8680 H 855.786 -2.97678 -0.601806 0
M  V30 8681 H 853.371 -1.47598 -0.23135 0
M  V30 8682 H 855.253 -2.90409 -3.05354 0
M  V30 8683 H 853.928 -1.75582 -2.71942 0
M  V30 8684 H 852.835 -3.53245 -1.23161 0
M  V30 8685 H 854.168 -4.64109 -1.639 0
M  V30 8686 N 855.82 0.285905 -1.54985 0
M  V30 8687 C 857.066 1.02071 -1.75241 0
M  V30 8688 C 857.399 1.864 -0.544842 0
M  V30 8689 O 856.674 1.89034 0.457844 0
M  V30 8690 C 856.957 1.91409 -3.05016 0
M  V30 8691 C 856.81 1.10158 -4.36102 0
M  V30 8692 C 858.129 2.90335 -3.30747 0
M  V30 8693 H 855.248 0.369663 -0.637588 0
M  V30 8694 H 857.89 0.294114 -1.8771 0
M  V30 8695 H 856.04 2.53362 -2.94517 0
M  V30 8696 H 857.712 0.503756 -4.58541 0
M  V30 8697 H 855.955 0.404675 -4.31908 0
M  V30 8698 H 856.626 1.75956 -5.23205 0
M  V30 8699 H 859.102 2.38514 -3.40955 0
M  V30 8700 H 857.978 3.49997 -4.2284 0
M  V30 8701 H 858.239 3.64787 -2.49765 0
M  V30 8702 N 857.298 1.47698 0.54982 0
M  V30 8703 C 858.261 1.60282 1.63837 0
M  V30 8704 C 859.261 0.477394 1.5355 0
M  V30 8705 O 860.451 0.742665 1.57576 0
M  V30 8706 C 857.583 1.55431 3.03404 0
M  V30 8707 H 858.776 2.57325 1.54026 0
M  V30 8708 H 856.329 1.35999 0.770329 0
M  V30 8709 H 857.064 0.597912 3.1874 0
M  V30 8710 H 856.849 2.37116 3.12279 0
M  V30 8711 H 858.339 1.6739 3.82584 0
M  V30 8712 N 858.776 -0.797141 1.35954 0
M  V30 8713 C 860.187 -1.37179 1.26644 0
M  V30 8714 C 860.538 -1.9596 -0.0971046 0
M  V30 8715 O 859.663 -1.91994 -0.998355 0
M  V30 8716 C 860.258 -2.49395 2.2932 0
M  V30 8717 C 858.817 -3.02697 2.23722 0
M  V30 8718 C 857.964 -1.75721 2.14517 0
M  V30 8719 H 860.915 -0.599407 1.46945 0
M  V30 8720 H 860.936 -3.28204 1.92515 0
M  V30 8721 H 860.448 -2.06584 3.2855 0
M  V30 8722 H 858.549 -3.49948 1.27934 0
M  V30 8723 H 858.662 -3.60036 3.16087 0
M  V30 8724 H 857.026 -1.97649 1.60646 0
M  V30 8725 H 857.809 -1.35049 3.15621 0
M  V30 8726 N 860.254 -1.20106 -1.0204 0
M  V30 8727 C 861.503 -1.00316 -1.74985 0
M  V30 8728 C 861.816 0.465814 -1.89972 0
M  V30 8729 O 863.022 0.782749 -2.59972 0
M  V30 8730 C 861.478 -1.74608 -3.14706 0
M  V30 8731 C 861.086 -3.25573 -3.07744 0
M  V30 8732 C 862.83 -1.63172 -3.91887 0
M  V30 8733 C 860.737 -3.92419 -4.42449 0
M  V30 8734 H 859.667 -0.371728 -0.655999 0
M  V30 8735 H 862.318 -1.43688 -1.14131 0
M  V30 8736 H 860.7 -1.24021 -3.76078 0
M  V30 8737 H 861.874 -3.83345 -2.55702 0
M  V30 8738 H 860.189 -3.3738 -2.44057 0
M  V30 8739 H 862.786 -2.10457 -4.9154 0
M  V30 8740 H 863.129 -0.58728 -4.12137 0
M  V30 8741 H 863.662 -2.11152 -3.37135 0
M  V30 8742 H 860.401 -4.96998 -4.27403 0
M  V30 8743 H 859.921 -3.39436 -4.94513 0
M  V30 8744 H 861.6 -3.96453 -5.11306 0
M  V30 8745 N 861.732 1.21287 -1.00634 0
M  V30 8746 C 862.662 2.25973 -0.588089 0
M  V30 8747 C 863.643 1.65527 0.391764 0
M  V30 8748 O 864.828 1.92179 0.279452 0
M  V30 8749 C 861.958 3.47197 0.0847336 0
M  V30 8750 C 860.912 4.20168 -0.815039 0
M  V30 8751 C 860.238 5.34699 -0.00855393 0
M  V30 8752 C 861.538 4.77416 -2.11828 0
M  V30 8753 H 863.232 2.61212 -1.46317 0
M  V30 8754 H 860.778 1.25563 -0.704985 0
M  V30 8755 H 862.731 4.19602 0.388821 0
M  V30 8756 H 861.455 3.11092 0.994456 0
M  V30 8757 H 860.114 3.49614 -1.10297 0
M  V30 8758 H 859.762 4.94837 0.902499 0
M  V30 8759 H 859.462 5.84449 -0.607664 0
M  V30 8760 H 860.986 6.09914 0.289317 0
M  V30 8761 H 862.4 5.41694 -1.87725 0
M  V30 8762 H 860.797 5.37561 -2.66736 0
M  V30 8763 H 861.867 3.96724 -2.78816 0
M  V30 8764 N 863.21 0.781244 1.36873 0
M  V30 8765 C 864.435 0.360398 2.04245 0
M  V30 8766 C 864.86 -1.01242 1.58529 0
M  V30 8767 O 864.218 -1.65063 0.749936 0
M  V30 8768 C 864.266 0.42329 3.58107 0
M  V30 8769 O 863.37 -0.572796 4.08403 0
M  V30 8770 H 862.711 0.154386 0.645803 0
M  V30 8771 H 865.241 1.06008 1.74996 0
M  V30 8772 H 865.251 0.283967 4.07011 0
M  V30 8773 H 863.926 1.42477 3.90734 0
M  V30 8774 H 862.503 -0.395809 3.70793 0
M  V30 8775 N 864.689 -1.48329 0.532571 0
M  V30 8776 C 865.622 -2.26524 -0.2761 0
M  V30 8777 C 866.6 -1.32498 -0.942496 0
M  V30 8778 O 867.784 -1.61844 -0.966376 0
M  V30 8779 C 864.911 -3.08808 -1.39124 0
M  V30 8780 C 863.957 -4.18227 -0.835984 0
M  V30 8781 S 864.79 -5.34669 0.298186 0
M  V30 8782 C 865.946 -6.20514 -0.81937 0
M  V30 8783 H 866.179 -2.94764 0.387502 0
M  V30 8784 H 863.712 -1.51081 0.318407 0
M  V30 8785 H 865.67 -3.56792 -2.03002 0
M  V30 8786 H 864.331 -2.39976 -2.02658 0
M  V30 8787 H 863.524 -4.75435 -1.67264 0
M  V30 8788 H 863.126 -3.72996 -0.27385 0
M  V30 8789 H 865.418 -6.55371 -1.7174 0
M  V30 8790 H 866.361 -7.07525 -0.285199 0
M  V30 8791 H 866.769 -5.5366 -1.10094 0
M  V30 8792 N 866.167 -0.267825 -1.55308 0
M  V30 8793 C 867.414 0.351036 -1.99434 0
M  V30 8794 C 867.742 1.56406 -1.15618 0
M  V30 8795 O 866.997 1.94548 -0.212045 0
M  V30 8796 C 867.296 0.784247 -3.48689 0
M  V30 8797 C 866.962 -0.323328 -4.49739 0
M  V30 8798 C 865.624 -0.627467 -4.77091 0
M  V30 8799 C 867.976 -1.07002 -5.10098 0
M  V30 8800 C 865.304 -1.682 -5.62073 0
M  V30 8801 C 867.656 -2.11422 -5.96224 0
M  V30 8802 C 866.32 -2.42479 -6.21901 0
M  V30 8803 H 865.59 0.128453 -0.729781 0
M  V30 8804 H 868.237 -0.380018 -1.87692 0
M  V30 8805 H 866.542 1.59485 -3.57871 0
M  V30 8806 H 868.239 1.2737 -3.80234 0
M  V30 8807 H 864.829 -0.0761528 -4.28532 0
M  V30 8808 H 869.013 -0.848302 -4.88996 0
M  V30 8809 H 864.269 -1.92772 -5.80215 0
M  V30 8810 H 868.443 -2.69759 -6.4203 0
M  V30 8811 H 866.07 -3.24328 -6.87543 0
M  V30 8812 N 867.645 1.57599 0.00500368 0
M  V30 8813 C 868.892 1.90349 0.690895 0
M  V30 8814 C 869.22 0.868045 1.74055 0
M  V30 8815 O 868.475 -0.127855 1.95282 0
M  V30 8816 C 868.774 3.29855 1.37588 0
M  V30 8817 C 868.44 4.48548 0.459906 0
M  V30 8818 C 867.102 4.80752 0.207693 0
M  V30 8819 C 869.454 5.20919 -0.171054 0
M  V30 8820 C 866.782 5.82701 -0.683855 0
M  V30 8821 C 869.134 6.23818 -1.05045 0
M  V30 8822 C 867.798 6.54481 -1.31189 0
M  V30 8823 H 867.068 0.696538 0.252816 0
M  V30 8824 H 869.715 1.91436 -0.0494495 0
M  V30 8825 H 868.02 3.24869 2.19015 0
M  V30 8826 H 869.717 3.52452 1.91255 0
M  V30 8827 H 866.307 4.23384 0.666648 0
M  V30 8828 H 870.491 4.96299 0.0107942 0
M  V30 8829 H 865.747 6.04822 -0.894467 0
M  V30 8830 H 869.921 6.79029 -1.54574 0
M  V30 8831 H 867.548 7.33299 -2.00442 0
M  V30 8832 N 869.123 -0.277682 1.55134 0
M  V30 8833 C 870.053 -1.34742 1.90701 0
M  V30 8834 C 871.034 -1.51757 0.768354 0
M  V30 8835 O 872.219 -1.64879 1.02609 0
M  V30 8836 C 869.349 -2.70775 2.17481 0
M  V30 8837 C 868.303 -2.68497 3.33307 0
M  V30 8838 C 867.629 -4.08037 3.45557 0
M  V30 8839 C 868.929 -2.28178 4.69821 0
M  V30 8840 H 870.623 -1.05224 2.803 0
M  V30 8841 H 868.169 -0.504738 1.34864 0
M  V30 8842 H 870.122 -3.45719 2.40949 0
M  V30 8843 H 868.846 -3.01867 1.24676 0
M  V30 8844 H 867.505 -1.9601 3.09799 0
M  V30 8845 H 867.153 -4.36344 2.50226 0
M  V30 8846 H 866.853 -4.07409 4.23429 0
M  V30 8847 H 868.377 -4.84726 3.71312 0
M  V30 8848 H 869.791 -2.92843 4.92865 0
M  V30 8849 H 868.188 -2.3872 5.50575 0
M  V30 8850 H 869.258 -1.23308 4.6896 0
M  V30 8851 N 870.601 -1.47988 -0.541979 0
M  V30 8852 C 871.534 -1.56172 -1.66389 0
M  V30 8853 C 872.512 -0.412879 -1.57271 0
M  V30 8854 O 873.696 -0.622816 -1.77914 0
M  V30 8855 C 870.823 -1.47851 -3.04726 0
M  V30 8856 C 869.869 -2.67428 -3.32242 0
M  V30 8857 S 870.702 -4.29502 -3.19825 0
M  V30 8858 C 871.858 -4.2376 -4.60628 0
M  V30 8859 H 872.091 -2.51086 -1.59195 0
M  V30 8860 H 869.624 -1.36373 -0.724005 0
M  V30 8861 H 871.582 -1.43738 -3.84512 0
M  V30 8862 H 870.243 -0.542958 -3.09372 0
M  V30 8863 H 869.436 -2.57711 -4.33129 0
M  V30 8864 H 869.038 -2.68743 -2.60103 0
M  V30 8865 H 871.33 -3.92953 -5.51901 0
M  V30 8866 H 872.273 -5.24786 -4.75401 0
M  V30 8867 H 872.681 -3.54398 -4.39389 0
M  V30 8868 N 872.079 0.78992 -1.36375 0
M  V30 8869 C 873.319 1.56098 -1.31958 0
M  V30 8870 C 873.683 1.91738 0.100197 0
M  V30 8871 O 874.884 2.67451 0.268913 0
M  V30 8872 C 873.155 2.80406 -2.21601 0
M  V30 8873 S 874.714 3.70655 -2.34863 0
M  V30 8874 H 871.532 0.534632 -0.46871 0
M  V30 8875 H 874.134 0.930417 -1.7194 0
M  V30 8876 H 872.838 2.52273 -3.23707 0
M  V30 8877 H 872.369 3.48436 -1.82637 0
M  V30 8878 H 874.384 4.71509 -1.54575 0
M  V30 8879 N 873.557 1.20646 1.01402 0
M  V30 8880 C 874.787 1.04238 1.78376 0
M  V30 8881 C 875.195 -0.411327 1.84675 0
M  V30 8882 O 874.538 -1.29734 1.30057 0
M  V30 8883 C 874.6 1.55349 3.24202 0
M  V30 8884 C 874.264 3.03684 3.41504 0
M  V30 8885 C 875.261 4.01318 3.30514 0
M  V30 8886 C 872.946 3.42698 3.67237 0
M  V30 8887 C 874.94 5.35956 3.45007 0
M  V30 8888 C 872.627 4.77491 3.81373 0
M  V30 8889 C 873.625 5.73929 3.70263 0
M  V30 8890 O 873.313 7.06277 3.83963 0
M  V30 8891 H 873.045 0.366978 0.567718 0
M  V30 8892 H 875.599 1.60235 1.28506 0
M  V30 8893 H 873.829 0.93739 3.75166 0
M  V30 8894 H 875.518 1.34921 3.8282 0
M  V30 8895 H 876.284 3.72522 3.10568 0
M  V30 8896 H 872.163 2.68175 3.74971 0
M  V30 8897 H 875.707 6.11212 3.36252 0
M  V30 8898 H 871.604 5.05977 4.00821 0
M  V30 8899 H 872.372 7.13561 4.00965 0
M  V30 8900 N 875.035 -1.20752 1.01276 0
M  V30 8901 C 875.968 -2.22091 0.524472 0
M  V30 8902 C 876.946 -1.5692 -0.426017 0
M  V30 8903 O 878.13 -1.8528 -0.346919 0
M  V30 8904 C 875.257 -3.37868 -0.237224 0
M  V30 8905 C 874.303 -4.21327 0.662236 0
M  V30 8906 S 875.136 -4.91352 2.12916 0
M  V30 8907 C 876.292 -6.10553 1.37752 0
M  V30 8908 H 876.525 -2.63166 1.38315 0
M  V30 8909 H 874.058 -1.30742 0.821332 0
M  V30 8910 H 876.016 -4.04985 -0.670599 0
M  V30 8911 H 874.677 -2.95261 -1.07143 0
M  V30 8912 H 873.87 -5.03944 0.0751085 0
M  V30 8913 H 873.472 -3.59445 1.03322 0
M  V30 8914 H 875.764 -6.74322 0.655491 0
M  V30 8915 H 876.707 -6.73717 2.17969 0
M  V30 8916 H 877.115 -5.57566 0.882088 0
M  V30 8917 N 876.513 -0.788492 -1.36457 0
M  V30 8918 C 877.76 -0.360461 -1.99266 0
M  V30 8919 C 878.088 1.0676 -1.62581 0
M  V30 8920 O 877.343 1.75205 -0.871884 0
M  V30 8921 C 877.642 -0.470255 -3.54293 0
M  V30 8922 C 877.308 -1.85899 -4.10795 0
M  V30 8923 C 875.97 -2.23896 -4.25939 0
M  V30 8924 C 878.322 -2.76836 -4.41601 0
M  V30 8925 C 875.65 -3.52235 -4.69199 0
M  V30 8926 C 878.002 -4.04602 -4.86292 0
M  V30 8927 C 876.666 -4.42623 -4.99641 0
M  V30 8928 H 875.936 -0.131902 -0.729166 0
M  V30 8929 H 878.583 -1.00577 -1.62962 0
M  V30 8930 H 876.888 0.258559 -3.90946 0
M  V30 8931 H 878.585 -0.120119 -4.0082 0
M  V30 8932 H 875.175 -1.55372 -3.99447 0
M  V30 8933 H 879.359 -2.48735 -4.2947 0
M  V30 8934 H 874.615 -3.81565 -4.77722 0
M  V30 8935 H 878.789 -4.75182 -5.09092 0
M  V30 8936 H 876.416 -5.42125 -5.32921 0
M  V30 8937 N 877.991 1.48044 -0.54043 0
M  V30 8938 C 879.237 2.02797 -0.0101718 0
M  V30 8939 C 879.57 1.41565 1.32939 0
M  V30 8940 O 878.845 0.565139 1.86109 0
M  V30 8941 C 879.128 3.59959 0.100758 0
M  V30 8942 C 878.981 4.31654 -1.26471 0
M  V30 8943 C 880.3 4.32347 0.822455 0
M  V30 8944 H 877.419 0.736982 -0.00517052 0
M  V30 8945 H 880.061 1.76656 -0.69948 0
M  V30 8946 H 878.211 3.82363 0.687824 0
M  V30 8947 H 879.883 4.20639 -1.89369 0
M  V30 8948 H 878.126 3.92663 -1.84386 0
M  V30 8949 H 878.797 5.401 -1.13998 0
M  V30 8950 H 881.273 4.14835 0.324164 0
M  V30 8951 H 880.149 5.41978 0.868993 0
M  V30 8952 H 880.41 4.00369 1.87501 0
M  V30 8953 N 879.47 0.276058 1.55163 0
M  V30 8954 C 880.418 -0.626978 2.2399 0
M  V30 8955 C 881.412 -1.15708 1.23725 0
M  V30 8956 O 882.618 -1.1106 1.41653 0
M  V30 8957 H 878.993 -0.220742 0.718872 0
M  V30 8958 H 880.964 -0.0236569 2.98391 0
M  V30 8959 C 879.713 -1.79935 2.97521 0
M  V30 8960 H 879.036 -1.40064 3.74463 0
M  V30 8961 H 880.476 -2.40781 3.48999 0
M  V30 8962 C 878.935 -2.68838 2.03046 0
M  V30 8963 O 879.465 -3.69224 1.58229 0
M  V30 8964 N 877.671 -2.36028 1.69527 0
M  V30 8965 H 877.218 -1.54442 2.06169 0
M  V30 8966 H 877.176 -2.95782 1.06586 0
M  V30 8967 N 880.948 -1.576 0.00335426 0
M  V30 8968 C 881.878 -2.11668 -0.985839 0
M  V30 8969 C 882.859 -1.02661 -1.35627 0
M  V30 8970 O 884.044 -1.30361 -1.43943 0
M  V30 8971 C 881.174 -2.62273 -2.27662 0
M  V30 8972 C 880.128 -3.75837 -2.0477 0
M  V30 8973 C 879.454 -4.12769 -3.39891 0
M  V30 8974 C 880.754 -5.02975 -1.40759 0
M  V30 8975 H 882.448 -2.9457 -0.535637 0
M  V30 8976 H 879.994 -1.41702 -0.256204 0
M  V30 8977 H 881.947 -2.98727 -2.97221 0
M  V30 8978 H 880.671 -1.76498 -2.74802 0
M  V30 8979 H 879.33 -3.39782 -1.37636 0
M  V30 8980 H 878.978 -3.24013 -3.8474 0
M  V30 8981 H 878.678 -4.89281 -3.25389 0
M  V30 8982 H 880.202 -4.51784 -4.1076 0
M  V30 8983 H 881.616 -5.37179 -2.00279 0
M  V30 8984 H 880.013 -5.84315 -1.36734 0
M  V30 8985 H 881.083 -4.83431 -0.377218 0
M  V30 8986 N 882.426 0.269451 -1.5528 0
M  V30 8987 C 883.389 1.31642 -1.87625 0
M  V30 8988 C 884.389 1.42182 -0.751058 0
M  V30 8989 O 885.579 1.41272 -1.01921 0
M  V30 8990 C 882.711 2.6973 -2.08467 0
M  V30 8991 H 883.904 1.0419 -2.81219 0
M  V30 8992 H 881.457 0.507685 -1.47825 0
M  V30 8993 H 882.192 3.02356 -1.17266 0
M  V30 8994 H 881.977 2.63465 -2.90394 0
M  V30 8995 H 883.467 3.4537 -2.34753 0
M  V30 8996 N 883.904 1.48273 0.534124 0
M  V30 8997 C 885.144 1.57674 1.3007 0
M  V30 8998 C 885.508 0.243256 1.90453 0
M  V30 8999 O 886.709 0.212231 2.67961 0
M  V30 9000 C 884.98 2.68044 2.36405 0
M  V30 9001 S 886.539 2.97183 3.22843 0
M  V30 9002 H 883.357 0.55652 0.442501 0
M  V30 9003 H 885.959 1.85774 0.60896 0
M  V30 9004 H 884.663 3.63498 1.90518 0
M  V30 9005 H 884.194 2.41833 3.10291 0
M  V30 9006 H 886.209 2.36164 4.36396 0
M  V30 9007 N 885.382 -0.782676 1.36792 0
M  V30 9008 C 886.345 -1.8772 1.31507 0
M  V30 9009 C 887.345 -1.59269 0.221349 0
M  V30 9010 O 888.535 -1.67555 0.476544 0
M  V30 9011 C 885.667 -3.24641 1.04025 0
M  V30 9012 H 886.86 -1.9382 2.28853 0
M  V30 9013 H 884.413 -0.981226 1.21662 0
M  V30 9014 H 885.148 -3.24221 0.0716439 0
M  V30 9015 H 884.933 -3.46681 1.8318 0
M  V30 9016 H 886.423 -4.04711 1.02949 0
M  V30 9017 N 886.86 -1.21182 -1.00761 0
M  V30 9018 C 888.106 -1.02898 -1.74756 0
M  V30 9019 C 888.439 0.436774 -1.89225 0
M  V30 9020 O 887.714 1.32415 -1.42466 0
M  V30 9021 C 887.997 -1.72372 -3.16164 0
M  V30 9022 C 887.85 -3.2645 -3.09435 0
M  V30 9023 C 889.169 -1.46415 -4.15031 0
M  V30 9024 H 886.288 -0.375214 -0.634337 0
M  V30 9025 H 888.93 -1.49321 -1.17487 0
M  V30 9026 H 887.08 -1.32906 -3.65059 0
M  V30 9027 H 888.752 -3.75269 -2.68274 0
M  V30 9028 H 886.995 -3.56889 -2.46603 0
M  V30 9029 H 887.666 -3.70226 -4.09435 0
M  V30 9030 H 890.142 -1.80671 -3.7483 0
M  V30 9031 H 889.018 -1.97544 -5.12121 0
M  V30 9032 H 889.279 -0.39361 -4.40344 0
M  V30 9033 N 888.338 1.20213 -1.01915 0
M  V30 9034 C 889.27 2.2251 -0.549725 0
M  V30 9035 C 890.283 1.58558 0.369235 0
M  V30 9036 O 891.472 1.77715 0.167176 0
M  V30 9037 C 888.572 3.38189 0.219432 0
M  V30 9038 C 887.745 4.31729 -0.702066 0
M  V30 9039 C 886.804 5.26196 0.0199624 0
M  V30 9040 O 885.83 5.65993 -0.60339 0
M  V30 9041 N 887.032 5.65895 1.29397 0
M  V30 9042 H 889.797 2.63412 -1.42948 0
M  V30 9043 H 887.358 1.3478 -0.896987 0
M  V30 9044 H 889.35 3.98392 0.711763 0
M  V30 9045 H 887.92 2.96156 1.00051 0
M  V30 9046 H 887.14 3.69455 -1.37466 0
M  V30 9047 H 888.428 4.91145 -1.3287 0
M  V30 9048 H 887.826 5.35579 1.8213 0
M  V30 9049 H 886.383 6.28395 1.73098 0
M  V30 9050 N 889.816 0.795718 1.36037 0
M  V30 9051 C 891.044 0.383153 2.03321 0
M  V30 9052 C 891.459 -1.00246 1.59988 0
M  V30 9053 O 890.816 -1.64406 0.792265 0
M  V30 9054 C 890.867 0.444467 3.58757 0
M  V30 9055 O 890.588 1.77544 4.00512 0
M  V30 9056 C 892.089 0.0233291 4.43294 0
M  V30 9057 H 889.309 0.157061 0.652359 0
M  V30 9058 H 891.853 1.07632 1.73884 0
M  V30 9059 H 890.008 -0.200341 3.86882 0
M  V30 9060 H 890.422 1.73065 4.95125 0
M  V30 9061 H 891.896 0.117361 5.51875 0
M  V30 9062 H 892.373 -1.03007 4.2695 0
M  V30 9063 H 892.979 0.64087 4.20444 0
M  V30 9064 N 891.294 -1.47756 0.548274 0
M  V30 9065 C 892.224 -2.32702 -0.19284 0
M  V30 9066 C 893.205 -1.43237 -0.917457 0
M  V30 9067 O 894.39 -1.72103 -0.89967 0
M  V30 9068 C 891.52 -3.24831 -1.22891 0
M  V30 9069 C 890.474 -4.23466 -0.621312 0
M  V30 9070 C 889.8 -5.04856 -1.76137 0
M  V30 9071 C 891.1 -5.20616 0.419055 0
M  V30 9072 H 892.794 -2.94914 0.516323 0
M  V30 9073 H 890.34 -1.41818 0.24975 0
M  V30 9074 H 892.293 -3.83094 -1.75547 0
M  V30 9075 H 891.017 -2.60656 -1.9679 0
M  V30 9076 H 889.676 -3.66416 -0.116123 0
M  V30 9077 H 889.324 -4.37091 -2.48918 0
M  V30 9078 H 889.024 -5.71629 -1.36065 0
M  V30 9079 H 890.548 -5.65976 -2.29136 0
M  V30 9080 H 891.962 -5.73296 -0.0211034 0
M  V30 9081 H 890.359 -5.95543 0.738163 0
M  V30 9082 H 891.429 -4.66638 1.31822 0
M  V30 9083 N 892.772 -0.284283 -1.55015 0
M  V30 9084 C 893.702 0.592663 -2.25853 0
M  V30 9085 C 894.683 1.15151 -1.25197 0
M  V30 9086 O 895.868 1.18395 -1.53936 0
M  V30 9087 C 892.998 1.77254 -2.98661 0
M  V30 9088 C 891.952 1.34482 -4.06323 0
M  V30 9089 C 891.278 2.60853 -4.66754 0
M  V30 9090 C 892.578 0.488288 -5.20013 0
M  V30 9091 H 894.272 0.00187041 -2.994 0
M  V30 9092 H 891.818 -0.000540402 -1.44 0
M  V30 9093 H 893.771 2.39199 -3.46932 0
M  V30 9094 H 892.495 2.38931 -2.22664 0
M  V30 9095 H 891.154 0.748519 -3.58877 0
M  V30 9096 H 890.802 3.20808 -3.87416 0
M  V30 9097 H 890.502 2.32942 -5.39455 0
M  V30 9098 H 892.026 3.23631 -5.1778 0
M  V30 9099 H 893.44 1.01298 -5.6428 0
M  V30 9100 H 891.837 0.303669 -5.99331 0
M  V30 9101 H 892.907 -0.490727 -4.8241 0
M  V30 9102 N 894.251 1.57596 -0.0117121 0
M  V30 9103 C 895.667 1.55837 0.344506 0
M  V30 9104 C 895.867 1.01557 1.74036 0
M  V30 9105 O 894.923 0.654563 2.43868 0
M  V30 9106 C 896.236 2.99973 0.209023 0
M  V30 9107 C 897.784 3.11717 0.283092 0
M  V30 9108 C 898.259 4.57659 0.176599 0
M  V30 9109 N 899.75 4.62608 0.234133 0
M  V30 9110 C 900.485 5.73132 0.175252 0
M  V30 9111 N 899.981 6.92768 0.0662888 0
M  V30 9112 N 901.774 5.61638 0.227972 0
M  V30 9113 H 893.925 1.91215 -0.924692 0
M  V30 9114 H 896.188 0.878807 -0.355531 0
M  V30 9115 H 895.894 3.4357 -0.751826 0
M  V30 9116 H 895.768 3.64075 0.98635 0
M  V30 9117 H 898.155 2.68043 1.23439 0
M  V30 9118 H 898.236 2.50369 -0.52431 0
M  V30 9119 H 897.88 5.02011 -0.771205 0
M  V30 9120 H 897.81 5.16967 1.00264 0
M  V30 9121 H 900.301 3.76549 0.319203 0
M  V30 9122 H 900.614 7.72795 0.0275765 0
M  V30 9123 H 898.959 6.94993 0.0317502 0
M  V30 9124 H 902.15 4.67063 0.311377 0
M  V30 9125 H 902.323 6.47754 0.178621 0
M  V30 9126 N 895.729 -0.261212 1.5542 0
M  V30 9127 C 896.957 -1.00916 1.8062 0
M  V30 9128 C 897.372 -1.79494 0.585444 0
M  V30 9129 O 896.729 -1.76974 -0.445702 0
M  V30 9130 C 896.78 -1.95841 3.03856 0
M  V30 9131 O 896.501 -1.20445 4.21218 0
M  V30 9132 C 898.002 -2.82352 3.41749 0
M  V30 9133 H 895.222 -0.297596 0.601397 0
M  V30 9134 H 897.766 -0.288427 2.02456 0
M  V30 9135 H 895.921 -2.63361 2.84112 0
M  V30 9136 H 896.335 -1.84528 4.90968 0
M  V30 9137 H 897.809 -3.44733 4.31118 0
M  V30 9138 H 898.286 -3.5273 2.61683 0
M  V30 9139 H 898.892 -2.20306 3.63793 0
M  V30 9140 N 897.207 -1.48554 -0.526253 0
M  V30 9141 C 898.618 -1.50256 -1.10815 0
M  V30 9142 C 898.969 -0.274445 -1.94271 0
M  V30 9143 O 898.094 0.618094 -2.07385 0
M  V30 9144 C 898.689 -2.72264 -2.01638 0
M  V30 9145 C 897.248 -2.76826 -2.55038 0
M  V30 9146 C 896.395 -2.43823 -1.32081 0
M  V30 9147 H 899.346 -1.55616 -0.31133 0
M  V30 9148 H 899.367 -2.50993 -2.85977 0
M  V30 9149 H 898.879 -3.61632 -1.4087 0
M  V30 9150 H 896.98 -1.91676 -3.19517 0
M  V30 9151 H 897.093 -3.78351 -2.93917 0
M  V30 9152 H 895.457 -1.95058 -1.63781 0
M  V30 9153 H 896.24 -3.35436 -0.730596 0
M  V30 9154 N 898.685 0.775411 -1.37205 0
M  V30 9155 C 899.633 1.90996 -1.32752 0
M  V30 9156 C 900.627 1.68006 -0.216907 0
M  V30 9157 O 901.833 1.7584 -0.384723 0
M  V30 9158 H 898.208 0.62803 -0.413621 0
M  V30 9159 H 900.179 1.91869 -2.28536 0
M  V30 9160 C 898.928 3.28211 -1.14772 0
M  V30 9161 H 898.251 3.46477 -1.99484 0
M  V30 9162 H 899.691 4.07907 -1.15706 0
M  V30 9163 C 898.15 3.3658 0.146852 0
M  V30 9164 O 898.68 3.85428 1.13173 0
M  V30 9165 N 896.886 2.89936 0.196305 0
M  V30 9166 H 896.433 2.50375 -0.605807 0
M  V30 9167 H 896.391 2.95916 1.06212 0
M  V30 9168 N 900.163 1.21714 1.00117 0
M  V30 9169 C 901.409 1.04829 1.74306 0
M  V30 9170 C 901.764 -0.413387 1.87907 0
M  V30 9171 O 901.057 -1.30258 1.40512 0
M  V30 9172 C 901.251 1.68345 3.15269 0
M  V30 9173 C 901.08 3.20537 3.15414 0
M  V30 9174 C 899.85 3.896 3.21776 0
M  V30 9175 C 902.048 4.17576 3.00224 0
M  V30 9176 N 900.03 5.28949 3.11587 0
M  V30 9177 C 901.401 5.43701 2.97974 0
M  V30 9178 C 903.456 4.08575 2.84554 0
M  V30 9179 C 902.159 6.61861 2.8166 0
M  V30 9180 C 904.185 5.26375 2.69598 0
M  V30 9181 C 903.547 6.51414 2.68028 0
M  V30 9182 H 899.646 0.437964 0.647852 0
M  V30 9183 H 902.23 1.54128 1.18965 0
M  V30 9184 H 900.401 1.21607 3.68872 0
M  V30 9185 H 902.133 1.44629 3.77974 0
M  V30 9186 H 898.888 3.40548 3.29126 0
M  V30 9187 H 899.312 6.01945 3.09825 0
M  V30 9188 H 903.954 3.12696 2.84571 0
M  V30 9189 H 901.672 7.57896 2.8039 0
M  V30 9190 H 905.258 5.21235 2.58468 0
M  V30 9191 H 904.138 7.41033 2.56593 0
M  V30 9192 N 901.641 -1.19671 1.02551 0
M  V30 9193 C 903.057 -1.41305 0.741963 0
M  V30 9194 C 903.257 -1.89865 -0.674807 0
M  V30 9195 O 902.313 -2.07323 -1.44129 0
M  V30 9196 C 903.626 -2.42706 1.77522 0
M  V30 9197 C 905.174 -2.56458 1.79438 0
M  V30 9198 C 905.649 -3.61111 2.81715 0
M  V30 9199 N 907.14 -3.68603 2.8051 0
M  V30 9200 C 907.875 -4.49262 3.56302 0
M  V30 9201 N 907.371 -5.33653 4.41799 0
M  V30 9202 N 909.164 -4.43879 3.44859 0
M  V30 9203 H 901.315 -0.8647 1.94002 0
M  V30 9204 H 903.578 -0.442206 0.838545 0
M  V30 9205 H 903.284 -2.14042 2.79068 0
M  V30 9206 H 903.158 -3.41831 1.59472 0
M  V30 9207 H 905.545 -2.84447 0.78573 0
M  V30 9208 H 905.626 -1.57499 2.01563 0
M  V30 9209 H 905.27 -3.33864 3.82749 0
M  V30 9210 H 905.2 -4.59713 2.56849 0
M  V30 9211 H 907.691 -3.08329 2.18498 0
M  V30 9212 H 908.004 -5.92308 4.96378 0
M  V30 9213 H 906.349 -5.33125 4.45873 0
M  V30 9214 H 909.54 -3.7699 2.77482 0
M  V30 9215 H 909.713 -5.06501 4.04179 0
M  V30 9216 N 903.119 -0.802921 -1.35613 0
M  V30 9217 C 904.53 -0.443004 -1.81368 0
M  V30 9218 C 904.881 1.03459 -1.66706 0
M  V30 9219 O 904.006 1.80372 -1.19561 0
M  V30 9220 C 904.601 -0.797324 -3.29284 0
M  V30 9221 C 903.16 -0.490055 -3.73196 0
M  V30 9222 C 902.307 -1.02487 -2.57666 0
M  V30 9223 H 905.258 -0.994888 -1.23643 0
M  V30 9224 H 905.279 -0.0934638 -3.80385 0
M  V30 9225 H 904.791 -1.87278 -3.39924 0
M  V30 9226 H 902.892 0.576818 -3.68108 0
M  V30 9227 H 903.005 -1.02012 -4.68114 0
M  V30 9228 H 901.369 -0.44738 -2.5074 0
M  V30 9229 H 902.152 -2.10636 -2.71085 0
M  V30 9230 N 904.597 1.47463 -0.556102 0
M  V30 9231 C 906.013 1.58134 -0.21579 0
M  V30 9232 C 906.213 1.55486 1.28166 0
M  V30 9233 O 905.269 1.45768 2.06174 0
M  V30 9234 C 906.582 2.88686 -0.841464 0
M  V30 9235 C 908.13 3.02268 -0.812591 0
M  V30 9236 C 908.605 4.35518 -1.41731 0
M  V30 9237 N 910.096 4.42151 -1.38045 0
M  V30 9238 C 910.831 5.43817 -1.81799 0
M  V30 9239 N 910.327 6.52299 -2.33404 0
M  V30 9240 N 912.12 5.34855 -1.72877 0
M  V30 9241 H 904.271 1.47428 -1.52901 0
M  V30 9242 H 906.534 0.701586 -0.637559 0
M  V30 9243 H 906.24 2.96358 -1.8938 0
M  V30 9244 H 906.114 3.7572 -0.333846 0
M  V30 9245 H 908.501 2.94194 0.231056 0
M  V30 9246 H 908.582 2.16779 -1.35796 0
M  V30 9247 H 908.226 4.44348 -2.46002 0
M  V30 9248 H 908.156 5.19737 -0.847402 0
M  V30 9249 H 910.647 3.64348 -1.00296 0
M  V30 9250 H 910.96 7.26047 -2.64717 0
M  V30 9251 H 909.305 6.53192 -2.37414 0
M  V30 9252 H 912.496 4.49004 -1.32338 0
M  V30 9253 H 912.669 6.13949 -2.07294 0
M  V30 9254 N 906.075 0.2925 1.54862 0
M  V30 9255 C 907.322 -0.319263 1.99967 0
M  V30 9256 C 907.65 -1.54547 1.18092 0
M  V30 9257 O 906.905 -1.94186 0.242969 0
M  V30 9258 C 907.204 -0.728674 3.49893 0
M  V30 9259 C 906.87 0.394836 4.49168 0
M  V30 9260 C 905.532 0.703289 4.76033 0
M  V30 9261 C 907.884 1.15103 5.08331 0
M  V30 9262 C 905.212 1.77121 5.59325 0
M  V30 9263 C 907.564 2.20881 5.92785 0
M  V30 9264 C 906.228 2.52342 6.17964 0
M  V30 9265 H 905.498 -0.116827 0.731733 0
M  V30 9266 H 908.145 0.40983 1.87063 0
M  V30 9267 H 906.45 -1.53772 3.60363 0
M  V30 9268 H 908.147 -1.21305 3.82212 0
M  V30 9269 H 904.737 0.144319 4.28357 0
M  V30 9270 H 908.921 0.92599 4.87585 0
M  V30 9271 H 904.177 2.01978 5.77074 0
M  V30 9272 H 908.351 2.79939 6.37657 0
M  V30 9273 H 905.978 3.35225 6.82296 0
M  V30 9274 N 907.553 -1.57587 0.0200696 0
M  V30 9275 C 908.969 -1.56018 -0.336237 0
M  V30 9276 C 909.169 -1.02478 -1.73495 0
M  V30 9277 O 908.225 -0.667487 -2.43518 0
M  V30 9278 C 909.538 -3.00079 -0.193112 0
M  V30 9279 C 911.086 -3.11863 -0.266557 0
M  V30 9280 C 911.561 -4.57747 -0.152326 0
M  V30 9281 N 913.052 -4.62726 -0.209596 0
M  V30 9282 C 913.787 -5.73217 -0.144855 0
M  V30 9283 N 913.283 -6.92794 -0.0295487 0
M  V30 9284 N 915.076 -5.61751 -0.198184 0
M  V30 9285 H 907.227 -1.90722 0.93482 0
M  V30 9286 H 909.49 -0.876909 0.360186 0
M  V30 9287 H 909.196 -3.43167 0.770036 0
M  V30 9288 H 909.07 -3.64593 -0.967029 0
M  V30 9289 H 911.457 -2.68693 -1.22016 0
M  V30 9290 H 911.538 -2.50087 0.53758 0
M  V30 9291 H 911.182 -5.01595 0.797817 0
M  V30 9292 H 911.112 -5.17491 -0.97521 0
M  V30 9293 H 913.603 -3.76713 -0.299229 0
M  V30 9294 H 913.916 -7.72799 0.0134071 0
M  V30 9295 H 912.261 -6.95 0.00510737 0
M  V30 9296 H 915.452 -4.67222 -0.286603 0
M  V30 9297 H 915.625 -6.47839 -0.144266 0
M  V30 9298 N 909.032 0.252966 -1.55557 0
M  V30 9299 C 910.262 0.998115 -1.8089 0
M  V30 9300 C 910.67 1.79679 -0.592623 0
M  V30 9301 O 910.013 1.78151 0.448093 0
M  V30 9302 C 910.075 1.98878 -2.99479 0
M  V30 9303 C 909.739 1.37761 -4.35742 0
M  V30 9304 C 910.736 0.783142 -5.13968 0
M  V30 9305 C 908.421 1.39879 -4.8243 0
M  V30 9306 C 910.415 0.218004 -6.37027 0
M  V30 9307 C 908.102 0.829801 -6.0544 0
M  V30 9308 C 909.1 0.240426 -6.82577 0
M  V30 9309 O 908.788 -0.319797 -8.03264 0
M  V30 9310 H 908.52 0.29963 -0.605969 0
M  V30 9311 H 911.074 0.282978 -2.03441 0
M  V30 9312 H 909.304 2.74206 -2.72669 0
M  V30 9313 H 910.993 2.59686 -3.11959 0
M  V30 9314 H 911.759 0.759326 -4.79019 0
M  V30 9315 H 907.638 1.84692 -4.22386 0
M  V30 9316 H 911.182 -0.242654 -6.97178 0
M  V30 9317 H 907.079 0.850924 -6.39867 0
M  V30 9318 H 907.847 -0.211078 -8.18228 0
M  V30 9319 N 910.51 1.48831 0.518367 0
M  V30 9320 C 911.74 1.60886 1.29612 0
M  V30 9321 C 912.148 0.272713 1.87224 0
M  V30 9322 O 911.491 -0.749653 1.67708 0
M  V30 9323 C 911.553 2.60541 2.47707 0
M  V30 9324 C 911.217 4.05324 2.11095 0
M  V30 9325 C 912.214 4.92658 1.66084 0
M  V30 9326 C 909.899 4.50942 2.21262 0
M  V30 9327 C 911.893 6.23641 1.3172 0
M  V30 9328 C 909.58 5.81943 1.8651 0
M  V30 9329 C 910.578 6.68116 1.41812 0
M  V30 9330 O 910.266 7.96677 1.07522 0
M  V30 9331 H 909.998 0.544968 0.399982 0
M  V30 9332 H 912.552 1.95474 0.630799 0
M  V30 9333 H 910.782 2.21098 3.17258 0
M  V30 9334 H 912.471 2.62308 3.09757 0
M  V30 9335 H 913.237 4.58649 1.5769 0
M  V30 9336 H 909.116 3.84048 2.55007 0
M  V30 9337 H 912.66 6.90857 0.967598 0
M  V30 9338 H 908.557 6.15484 1.94549 0
M  V30 9339 H 909.325 8.09534 1.2082 0
M  V30 9340 N 911.988 -0.768124 1.37614 0
M  V30 9341 C 912.938 -1.8718 1.30184 0
M  V30 9342 C 913.922 -1.59787 0.188943 0
M  V30 9343 O 915.114 -1.71855 0.423656 0
M  V30 9344 C 912.243 -3.24698 1.11471 0
M  V30 9345 C 911.329 -3.58031 2.27321 0
M  V30 9346 N 911.72 -3.6252 3.52722 0
M  V30 9347 C 910.018 -3.88216 2.19554 0
M  V30 9348 C 910.719 -3.92704 4.29137 0
M  V30 9349 N 909.695 -4.08789 3.58319 0
M  V30 9350 H 913.497 -1.88907 2.25147 0
M  V30 9351 H 911.011 -0.964753 1.30638 0
M  V30 9352 H 913.008 -4.0366 1.04233 0
M  V30 9353 H 911.668 -3.24232 0.174281 0
M  V30 9354 H 912.679 -3.44636 3.86583 0
M  V30 9355 H 909.356 -3.95551 1.33588 0
M  V30 9356 H 910.746 -4.02922 5.37683 0
M  V30 9357 N 913.466 -1.22244 -0.994698 0
M  V30 9358 C 914.712 -1.05752 -1.73747 0
M  V30 9359 C 915.067 0.403416 -1.88123 0
M  V30 9360 O 914.36 1.29511 -1.412 0
M  V30 9361 C 914.554 -1.70014 -3.14372 0
M  V30 9362 C 914.383 -3.22205 -3.1371 0
M  V30 9363 C 913.153 -3.91301 -3.19705 0
M  V30 9364 C 915.351 -4.19163 -2.98005 0
M  V30 9365 N 913.333 -5.30594 -3.08778 0
M  V30 9366 C 914.704 -5.45274 -2.95087 0
M  V30 9367 C 916.759 -4.10078 -2.82383 0
M  V30 9368 C 915.462 -6.63345 -2.78146 0
M  V30 9369 C 917.488 -5.27797 -2.66803 0
M  V30 9370 C 916.85 -6.52826 -2.6457 0
M  V30 9371 H 912.949 -0.441393 -0.64552 0
M  V30 9372 H 915.533 -1.54757 -1.18146 0
M  V30 9373 H 913.704 -1.23562 -3.68221 0
M  V30 9374 H 915.436 -1.46631 -3.77202 0
M  V30 9375 H 912.191 -3.42289 -3.27315 0
M  V30 9376 H 912.615 -6.0358 -3.06628 0
M  V30 9377 H 917.257 -3.14201 -2.82909 0
M  V30 9378 H 914.975 -7.59373 -2.76367 0
M  V30 9379 H 918.561 -5.22598 -2.557 0
M  V30 9380 H 917.441 -7.42383 -2.5266 0
M  V30 9381 N 914.944 1.19125 -1.03184 0
M  V30 9382 C 916.172 1.92838 -0.74975 0
M  V30 9383 C 916.587 1.75667 0.691851 0
M  V30 9384 O 915.944 1.0805 1.47076 0
M  V30 9385 C 915.995 3.44509 -1.09525 0
M  V30 9386 O 915.716 3.6113 -2.48025 0
M  V30 9387 C 917.217 4.35338 -0.836397 0
M  V30 9388 H 914.437 0.61246 -0.274105 0
M  V30 9389 H 916.981 1.5118 -1.37712 0
M  V30 9390 H 915.136 3.83988 -0.513006 0
M  V30 9391 H 915.55 4.54959 -2.60984 0
M  V30 9392 H 917.024 5.4035 -1.12808 0
M  V30 9393 H 917.501 4.38602 0.229102 0
M  V30 9394 H 918.107 4.01544 -1.40152 0
M  V30 9395 N 916.422 0.810101 1.35185 0
M  V30 9396 C 917.352 0.237453 2.32289 0
M  V30 9397 C 918.333 -0.639032 1.5764 0
M  V30 9398 O 919.518 -0.568575 1.8569 0
M  V30 9399 C 916.648 -0.611964 3.41866 0
M  V30 9400 C 915.602 0.166318 4.27677 0
M  V30 9401 C 914.928 -0.805024 5.28605 0
M  V30 9402 C 916.228 1.36729 5.04086 0
M  V30 9403 H 917.922 1.04874 2.80432 0
M  V30 9404 H 915.468 0.505751 1.34826 0
M  V30 9405 H 917.421 -1.02267 4.08802 0
M  V30 9406 H 916.145 -1.45617 2.92341 0
M  V30 9407 H 914.804 0.558238 3.62325 0
M  V30 9408 H 914.452 -1.64483 4.75347 0
M  V30 9409 H 914.152 -0.288577 5.86891 0
M  V30 9410 H 915.676 -1.21386 5.98413 0
M  V30 9411 H 917.09 1.03128 5.63948 0
M  V30 9412 H 915.487 1.81848 5.71884 0
M  V30 9413 H 916.557 2.15214 4.34524 0
M  V30 9414 N 917.9 -1.47166 0.563914 0
M  V30 9415 C 919.125 -2.0735 0.0454698 0
M  V30 9416 C 919.55 -1.41281 -1.24182 0
M  V30 9417 O 918.908 -0.490084 -1.7455 0
M  V30 9418 C 918.956 -3.60378 -0.126453 0
M  V30 9419 O 918.06 -3.94934 -1.18746 0
M  V30 9420 H 917.401 -0.661773 0.0543377 0
M  V30 9421 H 919.931 -1.89086 0.781508 0
M  V30 9422 H 919.941 -4.06593 -0.338554 0
M  V30 9423 H 918.616 -4.07862 0.81373 0
M  V30 9424 H 917.193 -3.60455 -0.955318 0
M  V30 9425 N 919.378 -0.300708 -1.54705 0
M  V30 9426 C 920.625 0.308654 -2.00134 0
M  V30 9427 C 920.953 1.53918 -1.1891 0
M  V30 9428 O 920.208 1.94054 -0.253263 0
M  V30 9429 C 920.507 0.710108 -3.50275 0
M  V30 9430 C 920.173 -0.418651 -4.48952 0
M  V30 9431 C 918.835 -0.728524 -4.75653 0
M  V30 9432 C 921.187 -1.17797 -5.07714 0
M  V30 9433 C 918.515 -1.80085 -5.58378 0
M  V30 9434 C 920.867 -2.24022 -5.91606 0
M  V30 9435 C 919.531 -2.55616 -6.16617 0
M  V30 9436 H 918.801 0.112945 -0.732342 0
M  V30 9437 H 921.448 -0.419744 -1.86843 0
M  V30 9438 H 919.753 1.51859 -3.61173 0
M  V30 9439 H 921.45 1.19277 -3.8285 0
M  V30 9440 H 918.04 -0.167034 -4.28274 0
M  V30 9441 H 922.224 -0.951835 -4.87087 0
M  V30 9442 H 917.48 -2.05036 -5.75995 0
M  V30 9443 H 921.654 -2.83317 -6.36164 0
M  V30 9444 H 919.281 -3.38839 -6.80509 0
M  V30 9445 N 920.856 1.57574 -0.0284266 0
M  V30 9446 C 921.786 2.1321 0.952039 0
M  V30 9447 C 922.767 1.04806 1.33977 0
M  V30 9448 O 923.952 1.32635 1.41851 0
M  V30 9449 C 921.082 2.65862 2.23461 0
M  V30 9450 C 920.036 3.79047 1.98765 0
M  V30 9451 C 919.362 4.18124 3.33281 0
M  V30 9452 C 920.662 5.05151 1.32739 0
M  V30 9453 H 922.356 2.95385 0.488705 0
M  V30 9454 H 919.902 1.42092 0.233628 0
M  V30 9455 H 921.855 3.03417 2.92431 0
M  V30 9456 H 920.579 1.80848 2.71959 0
M  V30 9457 H 919.238 3.41929 1.32213 0
M  V30 9458 H 918.886 3.30092 3.79537 0
M  V30 9459 H 918.586 4.94396 3.17563 0
M  V30 9460 H 920.11 4.58262 4.0352 0
M  V30 9461 H 921.524 5.40297 1.91708 0
M  V30 9462 H 919.921 5.86416 1.27421 0
M  V30 9463 H 920.991 4.83969 0.300261 0
M  V30 9464 N 922.334 -0.244713 1.55689 0
M  V30 9465 C 923.582 -0.970525 1.77272 0
M  V30 9466 C 923.903 -1.85771 0.592804 0
M  V30 9467 O 923.173 -1.91952 -0.391323 0
M  V30 9468 H 921.753 -0.361342 0.653789 0
M  V30 9469 H 924.415 -0.262134 1.93129 0
M  V30 9470 H 923.511 -1.59096 2.68505 0
M  V30 9471 N 923.813 -1.49104 -0.510467 0
M  V30 9472 C 924.746 -1.59667 -1.63039 0
M  V30 9473 C 925.724 -0.446145 -1.5636 0
M  V30 9474 O 926.908 -0.660414 -1.76552 0
M  V30 9475 C 924.035 -1.54282 -3.01521 0
M  V30 9476 C 923.081 -2.74415 -3.26494 0
M  V30 9477 S 923.914 -4.3619 -3.10643 0
M  V30 9478 C 925.07 -4.33435 -4.51536 0
M  V30 9479 H 925.303 -2.54407 -1.53833 0
M  V30 9480 H 922.836 -1.37878 -0.694916 0
M  V30 9481 H 924.794 -1.51861 -3.81377 0
M  V30 9482 H 923.455 -0.608458 -3.0815 0
M  V30 9483 H 922.648 -2.66841 -4.27565 0
M  V30 9484 H 922.25 -2.74199 -2.54344 0
M  V30 9485 H 924.542 -4.04571 -5.43441 0
M  V30 9486 H 925.485 -5.34752 -4.64162 0
M  V30 9487 H 925.893 -3.63638 -4.31773 0
M  V30 9488 N 925.291 0.760815 -1.38019 0
M  V30 9489 C 926.516 1.55513 -1.37224 0
M  V30 9490 C 926.941 1.88062 0.037611 0
M  V30 9491 O 926.299 1.50042 1.0177 0
M  V30 9492 C 926.347 2.83539 -2.22796 0
M  V30 9493 O 925.451 3.78384 -1.64009 0
M  V30 9494 H 924.792 0.470642 -0.468393 0
M  V30 9495 H 927.322 0.940792 -1.81687 0
M  V30 9496 H 927.332 3.32535 -2.36399 0
M  V30 9497 H 926.007 2.59178 -3.25269 0
M  V30 9498 H 924.584 3.37063 -1.59508 0
M  V30 9499 N 926.769 1.22769 0.988202 0
M  V30 9500 C 927.699 1.02627 2.09738 0
M  V30 9501 C 928.68 -0.0543211 1.70013 0
M  V30 9502 O 929.865 0.108811 1.93895 0
M  V30 9503 C 926.995 0.608302 3.41931 0
M  V30 9504 C 925.949 1.63536 3.95525 0
M  V30 9505 C 925.275 1.07308 5.23822 0
M  V30 9506 C 926.575 3.02649 4.25677 0
M  V30 9507 H 928.269 1.954 2.26847 0
M  V30 9508 H 925.815 0.940888 1.09011 0
M  V30 9509 H 927.768 0.454478 4.18942 0
M  V30 9510 H 926.492 -0.355095 3.24664 0
M  V30 9511 H 925.151 1.77704 3.20651 0
M  V30 9512 H 924.799 0.100894 5.02899 0
M  V30 9513 H 924.499 1.75925 5.60646 0
M  V30 9514 H 926.023 0.930938 6.03462 0
M  V30 9515 H 927.437 2.91828 4.93467 0
M  V30 9516 H 925.834 3.68434 4.73684 0
M  V30 9517 H 926.904 3.52228 3.33262 0
M  V30 9518 N 928.247 -1.18576 1.03814 0
M  V30 9519 C 929.487 -1.90187 0.748882 0
M  V30 9520 C 929.851 -1.78383 -0.710177 0
M  V30 9521 O 931.052 -2.44678 -1.11293 0
M  V30 9522 C 929.323 -3.36688 1.19901 0
M  V30 9523 S 930.882 -4.26419 1.03501 0
M  V30 9524 H 927.7 -0.656765 0.272362 0
M  V30 9525 H 930.302 -1.43296 1.32991 0
M  V30 9526 H 929.006 -3.42808 2.25635 0
M  V30 9527 H 928.537 -3.88616 0.611669 0
M  V30 9528 H 930.552 -4.96176 -0.0490431 0
M  V30 9529 N 929.725 -0.817259 -1.34754 0
M  V30 9530 C 930.655 -0.249769 -2.3216 0
M  V30 9531 C 931.636 0.630663 -1.57977 0
M  V30 9532 O 932.821 0.558719 -1.85989 0
M  V30 9533 C 929.951 0.593825 -3.42186 0
M  V30 9534 C 928.905 -0.188997 -4.27583 0
M  V30 9535 C 928.231 0.776979 -5.29025 0
M  V30 9536 C 929.531 -1.39401 -5.03354 0
M  V30 9537 H 931.225 -1.06359 -2.79872 0
M  V30 9538 H 928.771 -0.512894 -1.34556 0
M  V30 9539 H 930.724 1.00097 -4.09339 0
M  V30 9540 H 929.448 1.44064 -2.93109 0
M  V30 9541 H 928.107 -0.577445 -3.62024 0
M  V30 9542 H 927.755 1.61959 -4.76212 0
M  V30 9543 H 927.455 0.257448 -5.87036 0
M  V30 9544 H 928.979 1.18211 -5.99048 0
M  V30 9545 H 930.393 -1.06117 -5.63393 0
M  V30 9546 H 928.79 -1.84878 -5.70912 0
M  V30 9547 H 929.86 -2.17515 -4.33377 0
M  V30 9548 N 931.203 1.46865 -0.571711 0
M  V30 9549 C 932.166 2.28658 0.157499 0
M  V30 9550 C 933.166 1.37773 0.829172 0
M  V30 9551 O 934.356 1.6026 0.682811 0
M  V30 9552 C 931.488 3.17859 1.23202 0
M  V30 9553 H 932.681 2.94603 -0.561171 0
M  V30 9554 H 930.234 1.52793 -0.329229 0
M  V30 9555 H 930.969 2.56637 1.98262 0
M  V30 9556 H 930.754 3.84762 0.755031 0
M  V30 9557 H 932.244 3.7945 1.74378 0
M  V30 9558 N 932.681 0.308908 1.54543 0
M  V30 9559 C 933.611 -0.556657 2.26768 0
M  V30 9560 C 934.592 -1.13145 1.27013 0
M  V30 9561 O 935.777 -1.15931 1.558 0
M  V30 9562 C 932.907 -1.72481 3.01443 0
M  V30 9563 C 931.861 -1.28001 4.08411 0
M  V30 9564 C 931.187 -2.53395 4.70845 0
M  V30 9565 C 932.487 -0.405497 5.20724 0
M  V30 9566 H 934.181 0.0457618 2.99365 0
M  V30 9567 H 931.727 0.0234495 1.43981 0
M  V30 9568 H 933.68 -2.3365 3.50693 0
M  V30 9569 H 932.404 -2.35359 2.26437 0
M  V30 9570 H 931.063 -0.69133 3.60022 0
M  V30 9571 H 930.711 -3.14604 3.92471 0
M  V30 9572 H 930.411 -2.2433 5.43093 0
M  V30 9573 H 931.935 -3.15352 5.22863 0
M  V30 9574 H 933.349 -0.923076 5.6582 0
M  V30 9575 H 931.746 -0.208282 5.99738 0
M  V30 9576 H 932.816 0.567412 4.81569 0
M  V30 9577 N 934.159 -1.57557 0.0367827 0
M  V30 9578 C 935.092 -2.06205 -0.977479 0
M  V30 9579 C 936.07 -0.959444 -1.31276 0
M  V30 9580 O 937.254 -1.23033 -1.42811 0
M  V30 9581 C 934.381 -2.49053 -2.29544 0
M  V30 9582 C 933.427 -3.70409 -2.11423 0
M  V30 9583 S 934.26 -5.16715 -1.40593 0
M  V30 9584 C 935.416 -5.62864 -2.73742 0
M  V30 9585 H 935.649 -2.91913 -0.5634 0
M  V30 9586 H 933.182 -1.53404 -0.175111 0
M  V30 9587 H 935.14 -2.74403 -3.05308 0
M  V30 9588 H 933.801 -1.63677 -2.68083 0
M  V30 9589 H 932.994 -3.98262 -3.08875 0
M  V30 9590 H 932.596 -3.4525 -1.438 0
M  V30 9591 H 934.888 -5.67571 -3.69958 0
M  V30 9592 H 935.831 -6.62294 -2.50544 0
M  V30 9593 H 936.239 -4.90539 -2.79341 0
M  V30 9594 N 935.637 0.236453 -1.55816 0
M  V30 9595 C 936.884 0.963012 -1.78136 0
M  V30 9596 C 937.212 1.84918 -0.602952 0
M  V30 9597 O 936.467 1.91285 0.413325 0
M  V30 9598 C 936.766 1.84549 -3.06066 0
M  V30 9599 C 936.432 1.11381 -4.36927 0
M  V30 9600 C 935.094 0.911635 -4.72486 0
M  V30 9601 C 937.446 0.596 -5.17781 0
M  V30 9602 C 934.774 0.179515 -5.86425 0
M  V30 9603 C 937.126 -0.122702 -6.32481 0
M  V30 9604 C 935.79 -0.336263 -6.66652 0
M  V30 9605 H 935.06 0.352391 -0.651845 0
M  V30 9606 H 937.707 0.232295 -1.90086 0
M  V30 9607 H 936.012 2.6436 -2.89173 0
M  V30 9608 H 937.709 2.40953 -3.20535 0
M  V30 9609 H 934.299 1.28134 -4.08998 0
M  V30 9610 H 938.483 0.73971 -4.90757 0
M  V30 9611 H 933.739 0.00368224 -6.114 0
M  V30 9612 H 937.913 -0.531516 -6.94369 0
M  V30 9613 H 935.54 -0.905507 -7.54788 0
M  V30 9614 N 937.115 1.49373 0.502552 0
M  V30 9615 C 938.364 1.58028 1.25339 0
M  V30 9616 C 938.677 0.271494 1.93707 0
M  V30 9617 O 939.883 0.236584 2.70467 0
M  V30 9618 C 938.339 2.78817 2.27572 0
M  V30 9619 C 937.947 4.16448 1.65151 0
M  V30 9620 C 939.691 2.96802 3.03494 0
M  V30 9621 C 937.598 5.28461 2.65486 0
M  V30 9622 H 936.528 0.588396 0.471494 0
M  V30 9623 H 939.179 1.75756 0.52744 0
M  V30 9624 H 937.561 2.5458 3.03323 0
M  V30 9625 H 938.735 4.50816 0.954029 0
M  V30 9626 H 937.05 4.03809 1.01625 0
M  V30 9627 H 939.647 3.77656 3.78524 0
M  V30 9628 H 939.99 2.07303 3.61014 0
M  V30 9629 H 940.523 3.21071 2.34858 0
M  V30 9630 H 937.262 6.20015 2.12749 0
M  V30 9631 H 936.782 4.9855 3.33479 0
M  V30 9632 H 938.461 5.5773 3.27943 0
M  V30 9633 N 938.594 -0.753485 1.38421 0
M  V30 9634 C 939.834 -1.52544 1.3605 0
M  V30 9635 C 940.198 -1.91937 -0.0493257 0
M  V30 9636 O 941.399 -2.6807 -0.197908 0
M  V30 9637 C 939.67 -2.74432 2.28958 0
M  V30 9638 S 941.229 -3.64297 2.44607 0
M  V30 9639 H 938.047 -0.522017 0.48272 0
M  V30 9640 H 940.649 -0.884503 1.74347 0
M  V30 9641 H 939.353 -2.43602 3.30282 0
M  V30 9642 H 938.884 -3.43471 1.91811 0
M  V30 9643 H 940.899 -4.67245 1.67022 0
M  V30 9644 N 940.072 -1.23292 -0.981677 0
M  V30 9645 C 941.297 -1.09176 -1.76339 0
M  V30 9646 C 941.722 0.352726 -1.84763 0
M  V30 9647 O 941.08 1.25509 -1.30832 0
M  V30 9648 C 941.128 -1.72046 -3.16911 0
M  V30 9649 O 940.232 -0.98174 -4.00544 0
M  V30 9650 H 939.573 -0.382755 -0.542581 0
M  V30 9651 H 942.103 -1.63319 -1.23239 0
M  V30 9652 H 942.113 -1.77232 -3.67495 0
M  V30 9653 H 940.788 -2.77154 -3.10095 0
M  V30 9654 H 939.365 -1.00672 -3.59054 0
M  V30 9655 N 941.55 1.18024 -1.04442 0
M  V30 9656 C 942.796 1.88631 -0.760907 0
M  V30 9657 C 943.151 1.79059 0.703957 0
M  V30 9658 O 942.444 1.18261 1.50748 0
M  V30 9659 C 942.638 3.37834 -1.16631 0
M  V30 9660 C 942.467 3.61929 -2.66904 0
M  V30 9661 C 941.237 3.7908 -3.34105 0
M  V30 9662 C 943.435 3.622 -3.65124 0
M  V30 9663 N 941.417 3.90949 -4.73321 0
M  V30 9664 C 942.788 3.79827 -4.90032 0
M  V30 9665 C 944.843 3.45308 -3.58701 0
M  V30 9666 C 943.546 3.82312 -6.09287 0
M  V30 9667 C 945.572 3.49078 -4.77387 0
M  V30 9668 C 944.934 3.67206 -6.01115 0
M  V30 9669 H 941.033 0.708704 -0.330549 0
M  V30 9670 H 943.617 1.41739 -1.33485 0
M  V30 9671 H 941.788 3.83413 -0.6204 0
M  V30 9672 H 943.52 3.96026 -0.83342 0
M  V30 9673 H 940.275 3.78619 -2.84508 0
M  V30 9674 H 940.699 4.00696 -5.45685 0
M  V30 9675 H 945.341 3.30236 -2.64015 0
M  V30 9676 H 943.059 3.96171 -7.04325 0
M  V30 9677 H 946.645 3.37277 -4.74063 0
M  V30 9678 H 945.525 3.70017 -6.91417 0
M  V30 9679 N 943.028 0.824394 1.34319 0
M  V30 9680 C 944.258 0.425576 2.02169 0
M  V30 9681 C 944.666 -0.973596 1.62227 0
M  V30 9682 O 944.009 -1.64173 0.824199 0
M  V30 9683 C 944.071 0.449902 3.56674 0
M  V30 9684 C 943.735 1.80266 4.19944 0
M  V30 9685 C 944.732 2.76373 4.40357 0
M  V30 9686 C 942.417 2.09155 4.56683 0
M  V30 9687 C 944.411 3.9954 4.96635 0
M  V30 9688 C 942.098 3.32581 5.12672 0
M  V30 9689 C 943.096 4.27591 5.32592 0
M  V30 9690 O 942.784 5.48837 5.87395 0
M  V30 9691 H 942.516 0.168866 0.654569 0
M  V30 9692 H 945.07 1.11441 1.7254 0
M  V30 9693 H 943.3 -0.295631 3.85568 0
M  V30 9694 H 944.989 0.0709302 4.05838 0
M  V30 9695 H 945.755 2.55351 4.12336 0
M  V30 9696 H 941.634 1.36004 4.40481 0
M  V30 9697 H 945.178 4.73709 5.12099 0
M  V30 9698 H 941.075 3.53466 5.40122 0
M  V30 9699 H 941.843 5.50377 6.05828 0
M  V30 9700 N 944.506 -1.46559 0.579492 0
M  V30 9701 C 945.736 -2.06484 0.0692642 0
M  V30 9702 C 946.144 -1.4293 -1.23967 0
M  V30 9703 O 945.487 -0.527632 -1.75959 0
M  V30 9704 C 945.549 -3.59078 -0.174174 0
M  V30 9705 C 945.213 -4.44805 1.04867 0
M  V30 9706 C 946.21 -4.81543 1.95991 0
M  V30 9707 C 943.895 -4.8599 1.26961 0
M  V30 9708 C 945.889 -5.58288 3.0756 0
M  V30 9709 C 943.576 -5.62495 2.38836 0
M  V30 9710 C 944.574 -5.98558 3.28964 0
M  V30 9711 O 944.262 -6.73518 4.38896 0
M  V30 9712 H 943.994 -0.673917 0.0530331 0
M  V30 9713 H 946.548 -1.89223 0.79898 0
M  V30 9714 H 944.778 -3.74634 -0.958464 0
M  V30 9715 H 946.467 -4.00941 -0.632515 0
M  V30 9716 H 947.233 -4.50307 1.80136 0
M  V30 9717 H 943.112 -4.57372 0.577184 0
M  V30 9718 H 946.656 -5.86355 3.77933 0
M  V30 9719 H 942.553 -5.93145 2.54655 0
M  V30 9720 H 943.321 -6.91938 4.37223 0
M  V30 9721 N 945.984 -0.3171 -1.54377 0
M  V30 9722 C 946.947 0.53905 -2.22771 0
M  V30 9723 C 947.947 1.04865 -1.21901 0
M  V30 9724 O 949.137 0.942108 -1.46526 0
M  V30 9725 C 946.269 1.74804 -2.92671 0
M  V30 9726 H 947.462 -0.0587417 -2.99842 0
M  V30 9727 H 945.015 -0.068107 -1.56152 0
M  V30 9728 H 945.75 2.38524 -2.1972 0
M  V30 9729 H 945.535 1.39011 -3.66631 0
M  V30 9730 H 947.025 2.35592 -3.44799 0
M  V30 9731 N 947.462 1.57535 -0.0451378 0
M  V30 9732 C 948.392 2.14208 0.929372 0
M  V30 9733 C 949.373 1.06221 1.32858 0
M  V30 9734 O 950.558 1.34132 1.40436 0
M  V30 9735 C 947.688 2.68217 2.20629 0
M  V30 9736 C 946.642 3.81134 1.94734 0
M  V30 9737 C 945.968 4.21636 3.28828 0
M  V30 9738 C 947.268 5.06531 1.27374 0
M  V30 9739 H 948.962 2.95886 0.457348 0
M  V30 9740 H 946.508 1.42332 0.218544 0
M  V30 9741 H 948.461 3.06502 2.89196 0
M  V30 9742 H 947.185 1.83722 2.70026 0
M  V30 9743 H 945.844 3.43312 1.28579 0
M  V30 9744 H 945.492 3.34099 3.76014 0
M  V30 9745 H 945.192 4.97736 3.12302 0
M  V30 9746 H 946.716 4.62516 3.98637 0
M  V30 9747 H 948.13 5.423 1.85967 0
M  V30 9748 H 946.527 5.87735 1.21194 0
M  V30 9749 H 947.597 4.84261 0.248913 0
M  V30 9750 N 948.94 -0.228186 1.55939 0
M  V30 9751 C 950.186 -0.954964 1.78909 0
M  V30 9752 C 950.519 -1.8425 0.613648 0
M  V30 9753 O 949.794 -1.90604 -0.38737 0
M  V30 9754 C 950.077 -1.79957 3.1191 0
M  V30 9755 C 949.93 -0.938968 4.3989 0
M  V30 9756 C 951.249 -2.77859 3.41295 0
M  V30 9757 H 948.368 -0.345745 0.650868 0
M  V30 9758 H 951.01 -0.224244 1.88672 0
M  V30 9759 H 949.16 -2.42256 3.03717 0
M  V30 9760 H 950.832 -0.333225 4.60095 0
M  V30 9761 H 949.075 -0.244096 4.33113 0
M  V30 9762 H 949.746 -1.56416 5.29375 0
M  V30 9763 H 952.222 -2.25695 3.49572 0
M  V30 9764 H 951.098 -3.34062 4.35538 0
M  V30 9765 H 951.359 -3.55266 2.63132 0
M  V30 9766 N 950.418 -1.49637 -0.494624 0
M  V30 9767 C 951.381 -1.66252 -1.57775 0
M  V30 9768 C 952.381 -0.534054 -1.51672 0
M  V30 9769 O 953.571 -0.800637 -1.54711 0
M  V30 9770 C 950.703 -1.66584 -2.97426 0
M  V30 9771 H 951.896 -2.62864 -1.4437 0
M  V30 9772 H 949.449 -1.38764 -0.719323 0
M  V30 9773 H 950.184 -0.715798 -3.16302 0
M  V30 9774 H 949.969 -2.48543 -3.03264 0
M  V30 9775 H 951.459 -1.81474 -3.76108 0
M  V30 9776 N 951.896 0.746133 -1.38819 0
M  V30 9777 C 952.829 1.86833 -1.31029 0
M  V30 9778 C 953.807 1.61533 -0.185948 0
M  V30 9779 O 954.991 1.84942 -0.364529 0
M  V30 9780 C 952.118 3.22596 -1.03198 0
M  V30 9781 C 951.164 3.66772 -2.17671 0
M  V30 9782 S 951.997 3.77438 -3.7987 0
M  V30 9783 C 953.153 5.16008 -3.54241 0
M  V30 9784 H 953.386 1.93155 -2.26005 0
M  V30 9785 H 950.919 0.909872 -1.24742 0
M  V30 9786 H 952.877 4.00995 -0.878237 0
M  V30 9787 H 951.538 3.13943 -0.0992704 0
M  V30 9788 H 950.731 4.65266 -1.93762 0
M  V30 9789 H 950.333 2.95547 -2.2919 0
M  V30 9790 H 952.625 6.01996 -3.10816 0
M  V30 9791 H 953.568 5.44941 -4.52156 0
M  V30 9792 H 953.976 4.85158 -2.88587 0
M  V30 9793 N 953.375 1.23811 0.975125 0
M  V30 9794 C 954.305 1.04846 2.08638 0
M  V30 9795 C 955.286 -0.0362859 1.70061 0
M  V30 9796 O 956.471 0.12937 1.93769 0
M  V30 9797 C 953.601 0.644534 3.41267 0
M  V30 9798 C 952.555 1.67722 3.93768 0
M  V30 9799 C 951.881 1.12857 5.22654 0
M  V30 9800 C 953.181 3.07147 4.22443 0
M  V30 9801 H 954.875 1.97795 2.24761 0
M  V30 9802 H 952.421 0.952397 1.08006 0
M  V30 9803 H 954.374 0.498887 4.18436 0
M  V30 9804 H 953.098 -0.320641 3.25022 0
M  V30 9805 H 951.757 1.81095 3.18748 0
M  V30 9806 H 951.405 0.154227 5.02764 0
M  V30 9807 H 951.105 1.81862 5.58749 0
M  V30 9808 H 952.629 0.994891 6.0244 0
M  V30 9809 H 954.043 2.97045 4.90344 0
M  V30 9810 H 952.44 3.73437 4.6975 0
M  V30 9811 H 953.51 3.55743 3.29507 0
M  V30 9812 N 954.853 -1.17469 1.05066 0
M  V30 9813 C 956.102 -1.87032 0.755114 0
M  V30 9814 C 956.415 -1.81844 -0.720572 0
M  V30 9815 O 957.621 -2.46866 -1.13002 0
M  V30 9816 C 956.077 -3.35581 1.30052 0
M  V30 9817 C 955.685 -3.49274 2.80556 0
M  V30 9818 C 957.429 -4.1048 1.08196 0
M  V30 9819 C 955.336 -4.91838 3.28404 0
M  V30 9820 H 954.266 -0.70057 0.278779 0
M  V30 9821 H 956.917 -1.32663 1.26779 0
M  V30 9822 H 955.299 -3.89479 0.715667 0
M  V30 9823 H 956.473 -3.05598 3.44886 0
M  V30 9824 H 954.788 -2.87793 3.00939 0
M  V30 9825 H 957.385 -5.15652 1.41447 0
M  V30 9826 H 957.728 -4.16295 0.0196603 0
M  V30 9827 H 958.261 -3.62784 1.63195 0
M  V30 9828 H 955 -4.91196 4.34058 0
M  V30 9829 H 954.52 -5.36189 2.68815 0
M  V30 9830 H 956.199 -5.60602 3.23009 0
M  V30 9831 N 956.331 -0.831506 -1.3388 0
M  V30 9832 C 957.294 -0.264773 -2.27666 0
M  V30 9833 C 958.294 0.562273 -1.50649 0
M  V30 9834 O 959.484 0.377131 -1.70069 0
M  V30 9835 C 956.616 0.627814 -3.35069 0
M  V30 9836 H 957.809 -1.09225 -2.79303 0
M  V30 9837 H 955.362 -0.604021 -1.44157 0
M  V30 9838 H 956.097 1.47802 -2.88661 0
M  V30 9839 H 955.882 0.0361552 -3.92083 0
M  V30 9840 H 957.372 1.01786 -4.05005 0
M  V30 9841 N 957.809 1.4625 -0.587256 0
M  V30 9842 C 959.057 2.01963 -0.0744273 0
M  V30 9843 C 959.378 1.46065 1.29189 0
M  V30 9844 O 958.648 0.647077 1.84905 0
M  V30 9845 H 957.228 0.746597 -0.0245236 0
M  V30 9846 H 959.89 1.79299 -0.764063 0
M  V30 9847 H 958.986 3.12099 -0.00884894 0
M  V30 9848 N 959.287 0.325282 1.54207 0
M  V30 9849 C 960.217 -0.532574 2.27345 0
M  V30 9850 C 961.198 -1.11791 1.28206 0
M  V30 9851 O 962.383 -1.14272 1.57021 0
M  V30 9852 C 959.513 -1.69274 3.03255 0
M  V30 9853 C 958.467 -1.23662 4.09746 0
M  V30 9854 C 957.793 -2.48386 4.73506 0
M  V30 9855 C 959.093 -0.350244 5.21124 0
M  V30 9856 H 960.787 0.0775108 2.993 0
M  V30 9857 H 958.333 0.0387193 1.43948 0
M  V30 9858 H 960.286 -2.29917 3.53152 0
M  V30 9859 H 959.01 -2.32944 2.28921 0
M  V30 9860 H 957.669 -0.653106 3.60735 0
M  V30 9861 H 957.317 -3.10424 3.95786 0
M  V30 9862 H 957.017 -2.18558 5.45441 0
M  V30 9863 H 958.541 -3.09789 5.26178 0
M  V30 9864 H 959.955 -0.863011 5.66767 0
M  V30 9865 H 958.352 -0.14466 5.99926 0
M  V30 9866 H 959.422 0.618457 4.8094 0
M  V30 9867 N 960.765 -1.57509 0.0534917 0
M  V30 9868 C 962.014 -1.91959 -0.619244 0
M  V30 9869 C 962.327 -0.933882 -1.71866 0
M  V30 9870 O 963.533 -1.17052 -2.44972 0
M  V30 9871 C 961.989 -3.40938 -1.15278 0
M  V30 9872 C 961.597 -4.47919 -0.085348 0
M  V30 9873 C 963.341 -3.84419 -1.80063 0
M  V30 9874 C 961.248 -5.88014 -0.631897 0
M  V30 9875 H 960.178 -0.71642 -0.235072 0
M  V30 9876 H 962.829 -1.83089 0.122758 0
M  V30 9877 H 961.211 -3.44821 -1.94717 0
M  V30 9878 H 962.385 -4.55629 0.688374 0
M  V30 9879 H 960.7 -4.13793 0.465178 0
M  V30 9880 H 963.297 -4.86457 -2.21954 0
M  V30 9881 H 963.64 -3.20791 -2.65328 0
M  V30 9882 H 964.173 -3.83062 -1.07275 0
M  V30 9883 H 960.912 -6.55244 0.183175 0
M  V30 9884 H 960.432 -5.83861 -1.37355 0
M  V30 9885 H 962.111 -6.37336 -1.11407 0
M  V30 9886 N 962.243 0.219913 -1.56058 0
M  V30 9887 C 963.473 0.959521 -1.82967 0
M  V30 9888 C 963.881 1.78382 -0.630602 0
M  V30 9889 O 963.224 1.79062 0.410203 0
M  V30 9890 C 963.286 1.92481 -3.0363 0
M  V30 9891 C 962.95 1.28487 -4.38566 0
M  V30 9892 C 963.947 0.673946 -5.15513 0
M  V30 9893 C 961.632 1.29615 -4.85289 0
M  V30 9894 C 963.626 0.0828324 -6.37346 0
M  V30 9895 C 961.313 0.701191 -6.07064 0
M  V30 9896 C 962.311 0.0955877 -6.82933 0
M  V30 9897 O 961.999 -0.490109 -8.02405 0
M  V30 9898 H 961.731 0.286709 -0.612188 0
M  V30 9899 H 964.285 0.239761 -2.03996 0
M  V30 9900 H 962.515 2.6836 -2.78424 0
M  V30 9901 H 964.204 2.5301 -3.17397 0
M  V30 9902 H 964.97 0.657548 -4.80522 0
M  V30 9903 H 960.849 1.75691 -4.26208 0
M  V30 9904 H 964.393 -0.390482 -6.96506 0
M  V30 9905 H 960.29 0.715007 -6.41528 0
M  V30 9906 H 961.058 -0.384588 -8.17596 0
M  V30 9907 N 963.721 1.49897 0.486681 0
M  V30 9908 C 964.668 1.67619 1.58658 0
M  V30 9909 C 965.638 0.517537 1.57831 0
M  V30 9910 O 966.823 0.746272 1.756 0
M  V30 9911 C 963.963 1.762 2.96728 0
M  V30 9912 C 963.076 3.03465 3.07462 0
M  V30 9913 C 962.211 3.02937 4.36351 0
M  V30 9914 C 961.25 4.24721 4.4077 0
M  V30 9915 N 960.387 4.22021 5.61108 0
M  V30 9916 H 965.227 2.61528 1.42853 0
M  V30 9917 H 962.764 1.29657 0.694807 0
M  V30 9918 H 964.722 1.79156 3.76774 0
M  V30 9919 H 963.352 0.857452 3.11203 0
M  V30 9920 H 962.404 3.10054 2.20387 0
M  V30 9921 H 963.716 3.93454 3.06586 0
M  V30 9922 H 962.87 3.04536 5.24731 0
M  V30 9923 H 961.609 2.10751 4.39813 0
M  V30 9924 H 960.614 4.23352 3.5079 0
M  V30 9925 H 961.839 5.18116 4.39013 0
M  V30 9926 H 959.785 3.3268 5.65385 0
M  V30 9927 H 959.702 5.05761 5.61909 0
M  V30 9928 H 960.97 4.27743 6.51656 0
M  V30 9929 N 965.199 -0.738761 1.39212 0
M  V30 9930 C 966.429 -1.5258 1.39295 0
M  V30 9931 C 966.837 -1.89194 -0.0153 0
M  V30 9932 O 966.18 -1.5435 -0.996073 0
M  V30 9933 C 966.242 -2.84462 2.19822 0
M  V30 9934 C 965.906 -2.70303 3.68491 0
M  V30 9935 C 966.903 -2.39102 4.61656 0
M  V30 9936 C 964.588 -2.87291 4.1203 0
M  V30 9937 C 966.582 -2.25066 5.96342 0
M  V30 9938 C 964.269 -2.72874 5.46793 0
M  V30 9939 C 965.267 -2.41807 6.38763 0
M  V30 9940 O 964.955 -2.27475 7.71045 0
M  V30 9941 H 964.687 -0.478236 0.477772 0
M  V30 9942 H 967.241 -0.920846 1.83602 0
M  V30 9943 H 965.471 -3.47202 1.70257 0
M  V30 9944 H 967.16 -3.46058 2.12129 0
M  V30 9945 H 967.926 -2.25632 4.2932 0
M  V30 9946 H 963.805 -3.10466 3.40781 0
M  V30 9947 H 967.349 -2.00739 6.68094 0
M  V30 9948 H 963.246 -2.85922 5.78722 0
M  V30 9949 H 964.014 -2.42574 7.81729 0
M  V30 9950 N 966.677 -1.24326 -0.968545 0
M  V30 9951 C 967.926 -1.07647 -1.70572 0
M  V30 9952 C 968.239 0.384821 -1.91777 0
M  V30 9953 O 969.445 0.671782 -2.63058 0
M  V30 9954 C 967.901 -1.87799 -3.07017 0
M  V30 9955 C 967.509 -3.38333 -2.93658 0
M  V30 9956 C 969.253 -1.79647 -3.84613 0
M  V30 9957 C 967.16 -4.10831 -4.25407 0
M  V30 9958 H 966.09 -0.399216 -0.639642 0
M  V30 9959 H 968.741 -1.484 -1.07934 0
M  V30 9960 H 967.123 -1.3986 -3.7048 0
M  V30 9961 H 968.297 -3.93845 -2.39213 0
M  V30 9962 H 966.612 -3.47427 -2.29528 0
M  V30 9963 H 969.209 -2.31116 -4.82172 0
M  V30 9964 H 969.552 -0.761553 -4.09275 0
M  V30 9965 H 970.085 -2.25261 -3.27875 0
M  V30 9966 H 966.824 -5.14679 -4.05939 0
M  V30 9967 H 966.344 -3.60105 -4.79671 0
M  V30 9968 H 968.023 -4.17783 -4.94031 0
M  V30 9969 N 968.156 1.1691 -1.05688 0
M  V30 9970 C 969.066 2.24735 -0.67315 0
M  V30 9971 C 970.082 1.71252 0.308043 0
M  V30 9972 O 971.258 2.00772 0.158889 0
M  V30 9973 C 968.323 3.4665 -0.059026 0
M  V30 9974 C 967.384 4.15198 -1.0913 0
M  V30 9975 C 966.617 5.31292 -0.50639 0
M  V30 9976 O 966.84 5.663 0.682692 0
M  V30 9977 O 965.774 5.88923 -1.2431 0
M  V30 9978 H 969.6 2.59855 -1.57191 0
M  V30 9979 H 967.185 1.24306 -0.828751 0
M  V30 9980 H 969.067 4.20455 0.282018 0
M  V30 9981 H 967.742 3.13316 0.813304 0
M  V30 9982 H 966.649 3.43389 -1.48442 0
M  V30 9983 H 967.982 4.52571 -1.93495 0
M  V30 9984 N 969.634 0.838594 1.33437 0
M  V30 9985 C 970.864 0.446995 2.01707 0
M  V30 9986 C 971.272 -0.956335 1.63251 0
M  V30 9987 O 970.615 -1.63289 0.841566 0
M  V30 9988 C 970.677 0.487707 3.56176 0
M  V30 9989 C 970.341 1.8471 4.18009 0
M  V30 9990 C 971.338 2.81028 4.374 0
M  V30 9991 C 969.023 2.13987 4.54439 0
M  V30 9992 C 971.017 4.04785 4.92369 0
M  V30 9993 C 968.704 3.38 5.09116 0
M  V30 9994 C 969.702 4.33216 5.28027 0
M  V30 9995 O 969.39 5.55036 5.81541 0
M  V30 9996 H 969.122 0.175799 0.652741 0
M  V30 9997 H 971.676 1.13265 1.71348 0
M  V30 9998 H 969.906 -0.254719 3.8586 0
M  V30 9999 H 971.595 0.113971 4.0574 0
M  V30 10000 H 972.361 2.5971 4.09604 0
M  V30 10001 H 968.24 1.40668 4.39014 0
M  V30 10002 H 971.784 4.79114 5.07046 0
M  V30 10003 H 967.681 3.59175 5.36343 0
M  V30 10004 H 968.449 5.56772 5.99956 0
M  V30 10005 N 971.112 -1.45937 0.595003 0
M  V30 10006 C 972.528 -1.57507 0.257641 0
M  V30 10007 C 972.728 -1.58829 -1.23998 0
M  V30 10008 O 971.784 -1.51183 -2.02237 0
M  V30 10009 C 973.097 -2.86354 0.917708 0
M  V30 10010 C 974.645 -3.00007 0.892446 0
M  V30 10011 C 975.12 -4.31607 1.53229 0
M  V30 10012 N 976.611 -4.38336 1.49719 0
M  V30 10013 C 977.346 -5.38805 1.96154 0
M  V30 10014 N 976.842 -6.45882 2.50617 0
M  V30 10015 N 978.635 -5.30084 1.86997 0
M  V30 10016 H 970.786 -1.43322 1.56756 0
M  V30 10017 H 973.049 -0.684436 0.655936 0
M  V30 10018 H 972.755 -2.91233 1.97171 0
M  V30 10019 H 972.629 -3.74703 0.433344 0
M  V30 10020 H 975.016 -2.94703 -0.152975 0
M  V30 10021 H 975.097 -2.13103 1.41495 0
M  V30 10022 H 974.741 -4.3767 2.57697 0
M  V30 10023 H 974.671 -5.17308 0.984903 0
M  V30 10024 H 977.162 -3.6156 1.09921 0
M  V30 10025 H 977.475 -7.18774 2.83874 0
M  V30 10026 H 975.82 -6.46668 2.54649 0
M  V30 10027 H 979.011 -4.45337 1.44196 0
M  V30 10028 H 979.184 -6.08237 2.23499 0
M  V30 10029 N 972.59 -0.333456 -1.54032 0
M  V30 10030 C 973.838 0.265608 -2.00347 0
M  V30 10031 C 974.159 1.51873 -1.2231 0
M  V30 10032 O 973.429 1.93142 -0.327549 0
M  V30 10033 H 972.009 0.101135 -0.740122 0
M  V30 10034 H 974.671 -0.452285 -1.8958 0
M  V30 10035 H 973.767 0.51511 -3.0782 0
M  V30 10036 N 974.068 1.57479 -0.061844 0
M  V30 10037 C 975.031 2.1104 0.894127 0
M  V30 10038 C 976.031 1.03227 1.23292 0
M  V30 10039 O 977.221 1.29256 1.16784 0
M  V30 10040 C 974.353 2.6035 2.20069 0
M  V30 10041 H 975.546 2.96807 0.429619 0
M  V30 10042 H 973.099 1.55181 0.18672 0
M  V30 10043 H 973.834 1.78008 2.71079 0
M  V30 10044 H 973.619 3.39146 1.9678 0
M  V30 10045 H 975.109 3.019 2.88525 0
M  V30 10046 N 975.546 -0.211634 1.56173 0
M  V30 10047 C 976.456 -1.2831 1.96402 0
M  V30 10048 C 977.472 -1.50731 0.869254 0
M  V30 10049 O 978.648 -1.63669 1.17365 0
M  V30 10050 C 975.713 -2.61084 2.28114 0
M  V30 10051 C 974.774 -2.46879 3.51211 0
M  V30 10052 C 974.007 -3.73321 3.81401 0
M  V30 10053 O 974.23 -4.76773 3.13119 0
M  V30 10054 O 973.164 -3.69839 4.74871 0
M  V30 10055 H 976.99 -0.971733 2.87734 0
M  V30 10056 H 974.575 -0.415305 1.43512 0
M  V30 10057 H 976.457 -3.39481 2.49661 0
M  V30 10058 H 975.132 -2.91881 1.39954 0
M  V30 10059 H 974.039 -1.66648 3.34932 0
M  V30 10060 H 975.372 -2.21018 4.39786 0
M  V30 10061 N 977.024 -1.50153 -0.478725 0
M  V30 10062 C 977.971 -1.68458 -1.57767 0
M  V30 10063 C 978.941 -0.5259 -1.57555 0
M  V30 10064 O 980.126 -0.755574 -1.75202 0
M  V30 10065 C 977.266 -1.77772 -2.95789 0
M  V30 10066 C 976.379 -3.05092 -3.05848 0
M  V30 10067 C 975.514 -3.05247 -4.34739 0
M  V30 10068 C 974.553 -4.27053 -4.38512 0
M  V30 10069 N 973.69 -4.24991 -5.58862 0
M  V30 10070 H 978.53 -2.62282 -1.41464 0
M  V30 10071 H 976.067 -1.30023 -0.687921 0
M  V30 10072 H 978.025 -1.81152 -3.75819 0
M  V30 10073 H 976.655 -0.873944 -3.10744 0
M  V30 10074 H 975.707 -3.11219 -2.1874 0
M  V30 10075 H 977.019 -3.95075 -3.04495 0
M  V30 10076 H 976.173 -3.07314 -5.23109 0
M  V30 10077 H 974.912 -2.13081 -4.38689 0
M  V30 10078 H 973.917 -4.25206 -3.4854 0
M  V30 10079 H 975.142 -5.20437 -4.36259 0
M  V30 10080 H 973.088 -3.35674 -5.63612 0
M  V30 10081 H 973.005 -5.08734 -5.59219 0
M  V30 10082 H 974.273 -4.31193 -6.49379 0
M  V30 10083 N 978.502 0.731368 -1.39602 0
M  V30 10084 C 979.412 1.87579 -1.40894 0
M  V30 10085 C 980.428 1.71336 -0.303319 0
M  V30 10086 O 981.604 1.93875 -0.545377 0
M  V30 10087 C 978.669 3.23211 -1.25442 0
M  V30 10088 C 977.73 3.51822 -2.46008 0
M  V30 10089 C 976.963 4.80982 -2.31284 0
M  V30 10090 O 977.186 5.54958 -1.31824 0
M  V30 10091 O 976.12 5.09574 -3.20341 0
M  V30 10092 H 979.946 1.89444 -2.3737 0
M  V30 10093 H 977.531 0.879675 -1.20756 0
M  V30 10094 H 979.413 4.04257 -1.18972 0
M  V30 10095 H 978.088 3.22108 -0.320637 0
M  V30 10096 H 976.995 2.70847 -2.58055 0
M  V30 10097 H 978.328 3.57707 -3.38093 0
M  V30 10098 N 979.98 1.24838 0.961938 0
M  V30 10099 C 981.226 1.10321 1.70883 0
M  V30 10100 C 981.581 -0.353397 1.89127 0
M  V30 10101 O 980.874 -1.25721 1.44584 0
M  V30 10102 C 981.068 1.78289 3.09754 0
M  V30 10103 C 980.897 3.30409 3.05057 0
M  V30 10104 C 979.667 3.9964 3.09218 0
M  V30 10105 C 981.865 4.26916 2.86787 0
M  V30 10106 N 979.847 5.38594 2.94601 0
M  V30 10107 C 981.218 5.52906 2.80526 0
M  V30 10108 C 983.273 4.17421 2.71412 0
M  V30 10109 C 981.976 6.70487 2.60461 0
M  V30 10110 C 984.002 5.34686 2.52715 0
M  V30 10111 C 983.364 6.59611 2.47168 0
M  V30 10112 H 979.463 0.458353 0.63359 0
M  V30 10113 H 982.047 1.57835 1.14001 0
M  V30 10114 H 980.218 1.33281 3.64816 0
M  V30 10115 H 981.95 1.5658 3.73182 0
M  V30 10116 H 978.705 3.50847 3.18125 0
M  V30 10117 H 979.129 6.11497 2.90517 0
M  V30 10118 H 983.771 3.21592 2.74479 0
M  V30 10119 H 981.489 7.66433 2.56136 0
M  V30 10120 H 985.075 5.29194 2.41754 0
M  V30 10121 H 983.955 7.48821 2.32888 0
M  V30 10122 N 981.458 -1.16348 1.06306 0
M  V30 10123 C 982.706 -1.86512 0.778311 0
M  V30 10124 C 983.027 -1.82107 -0.697273 0
M  V30 10125 O 982.297 -1.2547 -1.50446 0
M  V30 10126 H 980.877 -0.690529 0.284919 0
M  V30 10127 H 983.539 -1.41092 1.34458 0
M  V30 10128 H 982.635 -2.91947 1.10333 0
M  V30 10129 N 982.937 -0.845659 -1.3299 0
M  V30 10130 C 984.214 -0.366306 -1.92139 0
M  V30 10131 C 984.594 1.14912 -1.77083 0
M  V30 10132 O 983.942 1.96667 -1.16338 0
M  V30 10133 C 984.152 -0.820716 -3.39213 0
M  V30 10134 C 985.5 -0.832667 -4.16355 0
M  V30 10135 O 986.524 -0.764764 -3.47893 0
M  V30 10136 O 985.383 -0.926658 -5.38586 0
M  V30 10137 H 982.477 -0.105063 -0.820299 0
M  V30 10138 H 985.023 -0.931962 -1.41819 0
M  V30 10139 H 983.795 -1.86357 -3.44074 0
M  V30 10140 H 983.418 -0.232009 -3.96923 0
M  V30 10141 N 984.415 1.45619 -0.602734 0
M  V30 10142 C 985.663 2.01873 -0.095844 0
M  V30 10143 C 985.984 1.47427 1.27633 0
M  V30 10144 O 985.254 0.666652 1.84208 0
M  V30 10145 H 983.834 0.746295 -0.0324408 0
M  V30 10146 H 986.496 1.78478 -0.783037 0
M  V30 10147 H 985.592 3.12072 -0.0419507 0
M  V30 10148 N 985.893 0.34162 1.53853 0
M  V30 10149 C 987.142 -0.256475 2.00063 0
M  V30 10150 C 987.455 -1.51811 1.23341 0
M  V30 10151 O 988.661 -2.19332 1.60017 0
M  V30 10152 C 987.117 -0.507567 3.56303 0
M  V30 10153 C 986.725 0.738052 4.41879 0
M  V30 10154 C 988.469 -1.06463 4.10933 0
M  V30 10155 C 986.376 0.457865 5.89625 0
M  V30 10156 H 985.306 -0.0996143 0.747391 0
M  V30 10157 H 987.957 0.456649 1.77727 0
M  V30 10158 H 986.339 -1.28134 3.74697 0
M  V30 10159 H 987.513 1.51278 4.3526 0
M  V30 10160 H 985.828 1.21661 3.98231 0
M  V30 10161 H 988.425 -1.28918 5.18926 0
M  V30 10162 H 988.768 -2.01956 3.64032 0
M  V30 10163 H 989.301 -0.351601 3.96243 0
M  V30 10164 H 986.04 1.38247 6.40756 0
M  V30 10165 H 985.56 -0.278818 5.99152 0
M  V30 10166 H 987.239 0.0743914 6.46957 0
M  V30 10167 N 987.371 -1.57444 0.0701946 0
M  V30 10168 C 988.787 -1.57009 -0.286431 0
M  V30 10169 C 988.987 -1.07946 -1.70147 0
M  V30 10170 O 988.043 -0.744622 -2.41271 0
M  V30 10171 C 989.356 -3.00542 -0.0975466 0
M  V30 10172 C 990.904 -3.12553 -0.167205 0
M  V30 10173 C 991.379 -4.58 -0.00662047 0
M  V30 10174 N 992.87 -4.63158 -0.0622778 0
M  V30 10175 C 993.605 -5.73388 0.0375831 0
M  V30 10176 N 993.101 -6.92537 0.190873 0
M  V30 10177 N 994.894 -5.62097 -0.0193672 0
M  V30 10178 H 987.045 -1.87651 0.995023 0
M  V30 10179 H 989.308 -0.865006 0.387902 0
M  V30 10180 H 989.014 -3.40543 0.878822 0
M  V30 10181 H 988.888 -3.67485 -0.850547 0
M  V30 10182 H 991.275 -2.72439 -1.13406 0
M  V30 10183 H 991.356 -2.48251 0.616871 0
M  V30 10184 H 991 -4.98803 0.956992 0
M  V30 10185 H 990.93 -5.20332 -0.810081 0
M  V30 10186 H 993.421 -3.77475 -0.179229 0
M  V30 10187 H 993.734 -7.72365 0.25926 0
M  V30 10188 H 992.079 -6.94632 0.226214 0
M  V30 10189 H 995.27 -4.67897 -0.137815 0
M  V30 10190 H 995.443 -6.4797 0.0619121 0
M  V30 10191 N 988.849 0.203349 -1.56283 0
M  V30 10192 C 990.097 0.923183 -1.79782 0
M  V30 10193 C 990.418 1.84134 -0.64185 0
M  V30 10194 O 989.688 1.92922 0.340292 0
M  V30 10195 H 988.268 0.343881 -0.66314 0
M  V30 10196 H 990.93 0.210837 -1.93756 0
M  V30 10197 H 990.026 1.51921 -2.72629 0
M  V30 10198 N 990.327 1.50405 0.470755 0
M  V30 10199 C 991.257 1.72222 1.57676 0
M  V30 10200 C 992.238 0.57121 1.60222 0
M  V30 10201 O 993.423 0.810381 1.76484 0
M  V30 10202 C 990.553 1.81666 2.95998 0
M  V30 10203 C 989.507 2.96857 3.08318 0
M  V30 10204 C 988.833 2.91445 4.4829 0
M  V30 10205 C 990.133 4.37361 2.85504 0
M  V30 10206 H 991.827 2.64825 1.39671 0
M  V30 10207 H 989.373 1.27438 0.67049 0
M  V30 10208 H 991.326 1.95514 3.73299 0
M  V30 10209 H 990.05 0.856856 3.1516 0
M  V30 10210 H 988.709 2.82661 2.33449 0
M  V30 10211 H 988.357 1.93309 4.64371 0
M  V30 10212 H 988.057 3.68776 4.57469 0
M  V30 10213 H 989.581 3.07341 5.27611 0
M  V30 10214 H 990.995 4.52081 3.52555 0
M  V30 10215 H 989.392 5.16145 3.06127 0
M  V30 10216 H 990.462 4.49708 1.81359 0
M  V30 10217 N 991.805 -0.723954 1.39988 0
M  V30 10218 C 993.03 -1.5182 1.41299 0
M  V30 10219 C 993.455 -1.88096 0.0122636 0
M  V30 10220 O 992.813 -1.52687 -0.977559 0
M  V30 10221 C 992.861 -2.77532 2.30235 0
M  V30 10222 O 991.965 -3.73903 1.73984 0
M  V30 10223 H 991.306 -0.458058 0.480707 0
M  V30 10224 H 993.836 -0.892291 1.84118 0
M  V30 10225 H 993.846 -3.2615 2.45132 0
M  V30 10226 H 992.521 -2.50462 3.32026 0
M  V30 10227 H 991.098 -3.32715 1.68389 0
M  V30 10228 N 993.283 -1.25346 -0.955304 0
M  V30 10229 C 994.213 -1.08152 -2.06943 0
M  V30 10230 C 995.194 0.00922598 -1.70097 0
M  V30 10231 O 996.379 -0.160181 -1.93538 0
M  V30 10232 C 993.509 -0.698745 -3.40198 0
M  V30 10233 C 992.463 -1.73965 -3.9105 0
M  V30 10234 C 991.789 -1.21158 -5.20792 0
M  V30 10235 C 993.089 -3.13829 -4.17503 0
M  V30 10236 H 994.783 -2.01345 -2.21586 0
M  V30 10237 H 992.329 -0.969459 -1.06478 0
M  V30 10238 H 994.282 -0.565394 -4.1759 0
M  V30 10239 H 993.006 0.268892 -3.25491 0
M  V30 10240 H 991.665 -1.86143 -3.15827 0
M  V30 10241 H 991.313 -0.234193 -5.02455 0
M  V30 10242 H 991.013 -1.90728 -5.55785 0
M  V30 10243 H 992.537 -1.09061 -6.00781 0
M  V30 10244 H 993.951 -3.04809 -4.85556 0
M  V30 10245 H 992.348 -3.80863 -4.63749 0
M  V30 10246 H 993.418 -3.6094 -3.23806 0
M  V30 10247 N 994.761 1.15782 -1.06922 0
M  V30 10248 C 995.986 1.90896 -0.810771 0
M  V30 10249 C 996.411 1.77246 0.629714 0
M  V30 10250 O 995.769 1.10215 1.43953 0
M  V30 10251 C 995.817 3.39397 -1.21829 0
M  V30 10252 O 994.921 4.10818 -0.360934 0
M  V30 10253 H 994.262 0.594497 -0.295752 0
M  V30 10254 H 996.792 1.46652 -1.42669 0
M  V30 10255 H 996.802 3.90181 -1.19259 0
M  V30 10256 H 995.477 3.4865 -2.2675 0
M  V30 10257 H 994.054 3.7019 -0.448748 0
M  V30 10258 N 996.239 0.8527 1.3254 0
M  V30 10259 C 997.202 0.300959 2.27215 0
M  V30 10260 C 998.202 -0.538235 1.51525 0
M  V30 10261 O 999.392 -0.350027 1.70647 0
M  V30 10262 C 996.524 -0.574428 3.36025 0
M  V30 10263 H 997.717 1.13655 2.77529 0
M  V30 10264 H 995.27 0.626878 1.43178 0
M  V30 10265 H 996.005 -1.43191 2.90976 0
M  V30 10266 H 995.79 0.0262265 3.92091 0
M  V30 10267 H 997.28 -0.9533 4.06573 0
M  V30 10268 N 997.718 -1.45297 0.610449 0
M  V30 10269 C 998.681 -2.28995 -0.0968194 0
M  V30 10270 C 999.681 -1.39923 -0.792353 0
M  V30 10271 O 1000.87 -1.62014 -0.64008 0
M  V30 10272 C 998.003 -3.21013 -1.14731 0
M  V30 10273 H 999.196 -2.93012 0.639082 0
M  V30 10274 H 996.749 -1.51867 0.369624 0
M  V30 10275 H 997.484 -2.61803 -1.91388 0
M  V30 10276 H 997.269 -3.86628 -0.652753 0
M  V30 10277 H 998.759 -3.8394 -1.64256 0
M  V30 10278 N 999.196 -0.349774 -1.5367 0
M  V30 10279 C 1000.61 0.00191293 -1.596 0
M  V30 10280 C 1000.81 1.48175 -1.36552 0
M  V30 10281 O 999.868 2.24129 -1.16285 0
M  V30 10282 C 1001.18 -0.439848 -2.97466 0
M  V30 10283 C 1002.73 -0.392721 -3.10526 0
M  V30 10284 C 1003.2 -0.810047 -4.5078 0
M  V30 10285 N 1004.69 -0.764478 -4.56848 0
M  V30 10286 C 1005.43 -1.05927 -5.63531 0
M  V30 10287 N 1004.93 -1.42253 -6.78038 0
M  V30 10288 N 1006.72 -0.983098 -5.53436 0
M  V30 10289 H 998.87 -1.31364 -1.66905 0
M  V30 10290 H 1001.13 -0.535908 -0.781989 0
M  V30 10291 H 1000.84 -1.47189 -3.19419 0
M  V30 10292 H 1000.71 0.181735 -3.76762 0
M  V30 10293 H 1003.1 0.630161 -2.88293 0
M  V30 10294 H 1003.18 -1.04959 -2.33275 0
M  V30 10295 H 1002.82 -1.83097 -4.73749 0
M  V30 10296 H 1002.75 -0.130591 -5.26438 0
M  V30 10297 H 1005.25 -0.496637 -3.74622 0
M  V30 10298 H 1005.56 -1.63215 -7.55368 0
M  V30 10299 H 1003.9 -1.46104 -6.79469 0
M  V30 10300 H 1007.09 -0.698601 -4.62858 0
M  V30 10301 H 1007.27 -1.21618 -6.36485 0
M  V30 10302 N 1000.67 1.57404 -0.0785433 0
M  V30 10303 C 1001.9 1.97787 0.596995 0
M  V30 10304 C 1002.31 0.955904 1.63276 0
M  V30 10305 O 1001.65 -0.0649169 1.83585 0
M  V30 10306 C 1001.72 3.34499 1.31723 0
M  V30 10307 C 1001.38 4.54933 0.434144 0
M  V30 10308 C 1002.38 5.18969 -0.311015 0
M  V30 10309 C 1000.06 5.01029 0.357046 0
M  V30 10310 C 1002.06 6.27457 -1.12142 0
M  V30 10311 C 999.744 6.09389 -0.457029 0
M  V30 10312 C 1000.74 6.72466 -1.19493 0
M  V30 10313 O 1000.43 7.78738 -1.99556 0
M  V30 10314 H 1000.16 0.655294 0.166028 0
M  V30 10315 H 1002.72 2.04855 -0.149517 0
M  V30 10316 H 1000.95 3.24064 2.10996 0
M  V30 10317 H 1002.63 3.5944 1.88567 0
M  V30 10318 H 1003.4 4.84297 -0.261084 0
M  V30 10319 H 999.28 4.51706 0.921026 0
M  V30 10320 H 1002.82 6.76622 -1.69788 0
M  V30 10321 H 998.721 6.43494 -0.508499 0
M  V30 10322 H 999.489 7.95648 -1.9206 0
M  V30 10323 N 1002.15 -0.195058 1.56388 0
M  V30 10324 C 1003.11 -1.2254 1.93692 0
M  V30 10325 C 1004.11 -1.38437 0.81804 0
M  V30 10326 O 1005.3 -1.36248 1.08545 0
M  V30 10327 C 1002.44 -2.59476 2.21099 0
M  V30 10328 H 1003.63 -0.906544 2.8587 0
M  V30 10329 H 1001.18 -0.436577 1.50079 0
M  V30 10330 H 1001.92 -2.96417 1.31558 0
M  V30 10331 H 1001.7 -2.4931 3.02634 0
M  V30 10332 H 1003.19 -3.33777 2.50964 0
M  V30 10333 N 1003.63 -1.50653 -0.462772 0
M  V30 10334 C 1004.56 -1.73056 -1.5676 0
M  V30 10335 C 1005.54 -0.579699 -1.59917 0
M  V30 10336 O 1006.73 -0.819729 -1.76051 0
M  V30 10337 C 1003.86 -1.83234 -2.9503 0
M  V30 10338 C 1002.81 -2.98488 -3.06739 0
M  V30 10339 C 1002.14 -2.93818 -4.46738 0
M  V30 10340 C 1003.44 -4.38869 -2.83181 0
M  V30 10341 H 1005.13 -2.65562 -1.38265 0
M  V30 10342 H 1002.68 -1.27792 -0.663722 0
M  V30 10343 H 1004.63 -1.97491 -3.72257 0
M  V30 10344 H 1003.35 -0.873558 -3.14701 0
M  V30 10345 H 1002.01 -2.83895 -2.31946 0
M  V30 10346 H 1001.66 -1.95769 -4.63339 0
M  V30 10347 H 1001.36 -3.71197 -4.55507 0
M  V30 10348 H 1002.88 -3.10135 -5.25974 0
M  V30 10349 H 1004.3 -4.53945 -3.50153 0
M  V30 10350 H 1002.69 -5.17762 -3.03386 0
M  V30 10351 H 1003.76 -4.50663 -1.78972 0
M  V30 10352 N 1005.11 0.71652 -1.4037 0
M  V30 10353 C 1006.04 1.84345 -1.43315 0
M  V30 10354 C 1007.02 1.67537 -0.294186 0
M  V30 10355 O 1008.2 1.87582 -0.502671 0
M  V30 10356 C 1005.33 3.2229 -1.29408 0
M  V30 10357 C 1004.29 3.53769 -2.40897 0
M  V30 10358 C 1003.61 4.90847 -2.12068 0
M  V30 10359 C 1004.91 3.54862 -3.83237 0
M  V30 10360 H 1006.61 1.82138 -2.37626 0
M  V30 10361 H 1004.15 0.874873 -1.14376 0
M  V30 10362 H 1006.11 4.00819 -1.30085 0
M  V30 10363 H 1004.83 3.2507 -0.31573 0
M  V30 10364 H 1003.49 2.77579 -2.39469 0
M  V30 10365 H 1003.14 4.90229 -1.12626 0
M  V30 10366 H 1002.84 5.12875 -2.86762 0
M  V30 10367 H 1004.36 5.71711 -2.14426 0
M  V30 10368 H 1005.78 4.23432 -3.86494 0
M  V30 10369 H 1004.17 3.88416 -4.57442 0
M  V30 10370 H 1005.24 2.54266 -4.12888 0
M  V30 10371 N 1006.59 1.25851 0.948643 0
M  V30 10372 C 1008 1.02802 1.22081 0
M  V30 10373 C 1008.2 -0.251461 1.99925 0
M  V30 10374 O 1007.26 -0.962592 2.33432 0
M  V30 10375 C 1008.57 2.25489 1.98936 0
M  V30 10376 C 1010.12 2.30312 2.11956 0
M  V30 10377 C 1010.59 3.52671 2.92211 0
M  V30 10378 N 1012.09 3.53103 2.99787 0
M  V30 10379 C 1012.82 4.44445 3.62294 0
M  V30 10380 N 1012.32 5.46065 4.26362 0
M  V30 10381 N 1014.11 4.32113 3.59493 0
M  V30 10382 H 1006.26 2.08042 0.428044 0
M  V30 10383 H 1008.52 0.913928 0.251872 0
M  V30 10384 H 1008.23 3.18513 1.4914 0
M  V30 10385 H 1008.1 2.2914 2.99624 0
M  V30 10386 H 1010.49 1.37808 2.60946 0
M  V30 10387 H 1010.57 2.30676 1.10554 0
M  V30 10388 H 1010.22 4.45501 2.43909 0
M  V30 10389 H 1010.15 3.49554 3.93853 0
M  V30 10390 H 1012.64 2.79597 2.54232 0
M  V30 10391 H 1012.95 6.11964 4.71932 0
M  V30 10392 H 1011.29 5.49931 4.24972 0
M  V30 10393 H 1014.49 3.51946 3.08629 0
M  V30 10394 H 1014.66 5.03493 4.0792 0
M  V30 10395 N 1008.06 -1.15214 1.07534 0
M  V30 10396 C 1008.99 -2.2216 0.718837 0
M  V30 10397 C 1009.98 -1.6753 -0.29459 0
M  V30 10398 O 1011.16 -1.93481 -0.166931 0
M  V30 10399 C 1008.29 -3.471 0.117836 0
M  V30 10400 C 1007.24 -4.14701 1.05862 0
M  V30 10401 C 1006.57 -5.3374 0.320284 0
M  V30 10402 C 1007.87 -4.64254 2.39302 0
M  V30 10403 H 1009.56 -2.52237 1.61297 0
M  V30 10404 H 1007.11 -1.21239 0.776992 0
M  V30 10405 H 1009.06 -4.21156 -0.143519 0
M  V30 10406 H 1007.79 -3.16361 -0.811389 0
M  V30 10407 H 1006.45 -3.42589 1.30493 0
M  V30 10408 H 1006.09 -4.99257 -0.61246 0
M  V30 10409 H 1005.79 -5.79912 0.947381 0
M  V30 10410 H 1007.32 -6.10563 0.0667721 0
M  V30 10411 H 1008.73 -5.29827 2.18988 0
M  V30 10412 H 1007.13 -5.21095 2.97623 0
M  V30 10413 H 1008.2 -3.79793 3.01472 0
M  V30 10414 N 1009.54 -0.859717 -1.32086 0
M  V30 10415 C 1010.45 -0.31108 -2.32528 0
M  V30 10416 C 1011.47 0.573714 -1.6427 0
M  V30 10417 O 1012.64 0.472878 -1.9577 0
M  V30 10418 C 1009.71 0.487256 -3.43259 0
M  V30 10419 C 1008.77 -0.424279 -4.27198 0
M  V30 10420 C 1008 0.336051 -5.32641 0
M  V30 10421 O 1008.23 1.56541 -5.48499 0
M  V30 10422 O 1007.16 -0.300777 -6.01148 0
M  V30 10423 H 1010.99 -1.14336 -2.81355 0
M  V30 10424 H 1008.57 -0.622794 -1.358 0
M  V30 10425 H 1010.45 0.940203 -4.10777 0
M  V30 10426 H 1009.13 1.29626 -2.96612 0
M  V30 10427 H 1008.04 -0.925509 -3.62471 0
M  V30 10428 H 1009.37 -1.1986 -4.77383 0
M  V30 10429 N 1011.02 1.44971 -0.618145 0
M  V30 10430 C 1011.93 2.34403 0.0960457 0
M  V30 10431 C 1012.95 1.51862 0.849355 0
M  V30 10432 O 1014.12 1.84632 0.804557 0
M  V30 10433 C 1011.19 3.29646 1.07397 0
M  V30 10434 C 1010.25 4.28095 0.321466 0
M  V30 10435 C 1009.48 5.18787 1.25281 0
M  V30 10436 O 1009.7 5.1313 2.49106 0
M  V30 10437 O 1008.64 5.97282 0.744156 0
M  V30 10438 H 1012.46 2.96898 -0.639176 0
M  V30 10439 H 1010.05 1.44529 -0.37837 0
M  V30 10440 H 1011.93 3.88307 1.63694 0
M  V30 10441 H 1010.61 2.69702 1.79004 0
M  V30 10442 H 1009.51 3.73019 -0.284223 0
M  V30 10443 H 1010.85 4.90923 -0.354315 0
M  V30 10444 N 1012.5 0.357919 1.53482 0
M  V30 10445 C 1013.75 -0.2337 2.00744 0
M  V30 10446 C 1014.07 -1.49908 1.2471 0
M  V30 10447 O 1013.34 -1.92597 0.358235 0
M  V30 10448 H 1011.92 -0.0893474 0.741637 0
M  V30 10449 H 1014.58 0.482388 1.88836 0
M  V30 10450 H 1013.68 -0.466073 3.086 0
M  V30 10451 N 1013.98 -1.5736 0.0868897 0
M  V30 10452 C 1015.39 -1.81356 -0.443499 0
M  V30 10453 C 1015.74 -1.00192 -1.68689 0
M  V30 10454 O 1014.86 -0.228863 -2.15186 0
M  V30 10455 C 1015.46 -3.28941 -0.811387 0
M  V30 10456 C 1014.02 -3.53729 -1.28656 0
M  V30 10457 C 1013.16 -2.75891 -0.279153 0
M  V30 10458 H 1016.12 -1.55594 0.312427 0
M  V30 10459 H 1016.14 -3.41815 -1.6716 0
M  V30 10460 H 1015.65 -3.87987 0.0937598 0
M  V30 10461 H 1013.75 -3.00005 -2.2097 0
M  V30 10462 H 1013.86 -4.62396 -1.25406 0
M  V30 10463 H 1012.23 -2.4311 -0.759595 0
M  V30 10464 H 1013.01 -3.37682 0.618529 0
M  V30 10465 N 1015.45 0.186762 -1.56489 0
M  V30 10466 C 1016.87 0.750675 -1.70944 0
M  V30 10467 C 1017.22 1.83483 -0.694858 0
M  V30 10468 O 1016.34 2.159 0.147009 0
M  V30 10469 C 1016.94 1.36843 -3.09934 0
M  V30 10470 C 1015.5 1.87934 -3.26125 0
M  V30 10471 C 1014.64 0.75242 -2.66897 0
M  V30 10472 H 1017.59 -0.0384292 -1.58653 0
M  V30 10473 H 1017.61 2.23795 -3.07727 0
M  V30 10474 H 1017.13 0.579135 -3.83755 0
M  V30 10475 H 1015.23 2.69556 -2.57235 0
M  V30 10476 H 1015.34 2.0354 -4.33715 0
M  V30 10477 H 1013.7 1.16888 -2.26295 0
M  V30 10478 H 1014.49 -0.0247769 -3.43291 0
M  V30 10479 N 1016.93 1.50896 0.454776 0
M  V30 10480 C 1017.88 1.67333 1.54867 0
M  V30 10481 C 1018.87 0.527576 1.52005 0
M  V30 10482 O 1020.06 0.782726 1.58753 0
M  V30 10483 C 1017.19 1.7858 2.93196 0
M  V30 10484 C 1016.27 2.98884 3.0088 0
M  V30 10485 N 1016.66 4.22326 2.78343 0
M  V30 10486 C 1014.96 2.97779 3.32029 0
M  V30 10487 C 1015.66 5.03439 2.91418 0
M  V30 10488 N 1014.64 4.37725 3.22332 0
M  V30 10489 H 1018.44 2.60453 1.36167 0
M  V30 10490 H 1015.96 1.48304 0.661797 0
M  V30 10491 H 1017.95 1.88463 3.7187 0
M  V30 10492 H 1016.61 0.866296 3.1293 0
M  V30 10493 H 1017.62 4.51557 2.53607 0
M  V30 10494 H 1014.3 2.15393 3.57648 0
M  V30 10495 H 1015.69 6.11648 2.78095 0
M  V30 10496 N 1018.41 -0.709066 1.40748 0
M  V30 10497 C 1019.64 -1.49808 1.42707 0
M  V30 10498 C 1020.05 -1.88778 0.0285574 0
M  V30 10499 O 1019.41 -1.55883 -0.949035 0
M  V30 10500 C 1019.46 -2.76926 2.32366 0
M  V30 10501 O 1019.18 -2.39602 3.66773 0
M  V30 10502 C 1020.68 -3.70773 2.42986 0
M  V30 10503 H 1017.9 -0.462106 0.486517 0
M  V30 10504 H 1020.45 -0.874135 1.84876 0
M  V30 10505 H 1018.6 -3.3559 1.93541 0
M  V30 10506 H 1019.02 -3.21443 4.14457 0
M  V30 10507 H 1020.49 -4.56789 3.09916 0
M  V30 10508 H 1020.97 -4.14332 1.45691 0
M  V30 10509 H 1021.57 -3.18019 2.8239 0
M  V30 10510 N 1019.89 -1.26353 -0.941956 0
M  V30 10511 C 1020.84 -1.07842 -2.04056 0
M  V30 10512 C 1021.81 0.0163064 -1.66092 0
M  V30 10513 O 1022.99 -0.143313 -1.90261 0
M  V30 10514 C 1020.13 -0.716636 -3.37577 0
M  V30 10515 C 1019.24 -1.88754 -3.88582 0
M  V30 10516 C 1018.38 -1.46893 -5.10486 0
M  V30 10517 C 1017.42 -2.60819 -5.53751 0
M  V30 10518 N 1016.56 -2.19646 -6.66858 0
M  V30 10519 H 1021.4 -2.01856 -2.19221 0
M  V30 10520 H 1018.93 -1.00504 -1.07412 0
M  V30 10521 H 1020.89 -0.487768 -4.14339 0
M  V30 10522 H 1019.52 0.18653 -3.22261 0
M  V30 10523 H 1018.57 -2.22936 -3.08227 0
M  V30 10524 H 1019.88 -2.74264 -4.1663 0
M  V30 10525 H 1019.04 -1.20047 -5.94705 0
M  V30 10526 H 1017.78 -0.584721 -4.84182 0
M  V30 10527 H 1016.78 -2.88396 -4.6809 0
M  V30 10528 H 1018.01 -3.49838 -5.82057 0
M  V30 10529 H 1015.95 -1.33657 -6.4224 0
M  V30 10530 H 1015.87 -2.987 -6.94489 0
M  V30 10531 H 1017.14 -1.96009 -7.54454 0
M  V30 10532 N 1021.37 1.14642 -1.08144 0
M  V30 10533 C 1022.32 2.21708 -0.703448 0
M  V30 10534 C 1023.31 1.66907 0.289535 0
M  V30 10535 O 1024.52 1.79354 0.152387 0
M  V30 10536 H 1020.89 0.722247 -0.209437 0
M  V30 10537 H 1022.86 2.50862 -1.61588 0
M  V30 10538 C 1021.61 3.47472 -0.125975 0
M  V30 10539 H 1020.93 3.89967 -0.881216 0
M  V30 10540 H 1022.37 4.2388 0.100737 0
M  V30 10541 C 1020.83 3.17189 1.13546 0
M  V30 10542 O 1021.36 3.34733 2.22073 0
M  V30 10543 N 1019.57 2.71169 1.04479 0
M  V30 10544 H 1019.12 2.57093 0.161566 0
M  V30 10545 H 1019.07 2.51282 1.88957 0
M  V30 10546 N 1022.85 0.866709 1.31628 0
M  V30 10547 C 1024.09 0.486046 1.97507 0
M  V30 10548 C 1024.45 -0.95049 1.67283 0
M  V30 10549 O 1023.74 -1.65979 0.957158 0
M  V30 10550 C 1023.93 0.676018 3.50948 0
M  V30 10551 C 1023.76 2.12947 3.96086 0
M  V30 10552 C 1022.53 2.77041 4.22583 0
M  V30 10553 C 1024.73 3.10139 4.10266 0
M  V30 10554 N 1022.71 4.13172 4.54051 0
M  V30 10555 C 1024.08 4.3129 4.45409 0
M  V30 10556 C 1026.14 3.06173 3.92635 0
M  V30 10557 C 1024.84 5.4899 4.6476 0
M  V30 10558 C 1026.87 4.23128 4.13178 0
M  V30 10559 C 1026.23 5.43041 4.48649 0
M  V30 10560 H 1022.33 0.226831 0.748379 0
M  V30 10561 H 1024.91 1.12063 1.59217 0
M  V30 10562 H 1023.08 0.071055 3.88335 0
M  V30 10563 H 1024.82 0.264062 4.03838 0
M  V30 10564 H 1021.57 2.28009 4.15101 0
M  V30 10565 H 1021.99 4.83426 4.7395 0
M  V30 10566 H 1026.64 2.14576 3.64303 0
M  V30 10567 H 1024.35 6.41108 4.91942 0
M  V30 10568 H 1027.94 4.21509 4.01026 0
M  V30 10569 H 1026.82 6.32034 4.64223 0
M  V30 10570 N 1024.32 -1.44642 0.625825 0
M  V30 10571 C 1025.74 -1.56925 0.290992 0
M  V30 10572 C 1025.94 -1.61424 -1.20601 0
M  V30 10573 O 1025 -1.55439 -1.98985 0
M  V30 10574 C 1026.31 -2.84343 0.978242 0
M  V30 10575 C 1027.86 -2.98047 0.955882 0
M  V30 10576 C 1028.33 -4.2826 1.62349 0
M  V30 10577 N 1029.82 -4.35062 1.58983 0
M  V30 10578 C 1030.56 -5.34524 2.07538 0
M  V30 10579 N 1030.05 -6.4042 2.6426 0
M  V30 10580 N 1031.85 -5.25998 1.98198 0
M  V30 10581 H 1024 -1.39965 1.59761 0
M  V30 10582 H 1026.26 -0.670368 0.670306 0
M  V30 10583 H 1025.97 -2.86985 2.03304 0
M  V30 10584 H 1025.84 -3.73699 0.512726 0
M  V30 10585 H 1028.23 -2.94961 -0.0904292 0
M  V30 10586 H 1028.31 -2.10053 1.45984 0
M  V30 10587 H 1027.95 -4.32105 2.66923 0
M  V30 10588 H 1027.88 -5.15102 1.09441 0
M  V30 10589 H 1030.37 -3.59147 1.17565 0
M  V30 10590 H 1030.69 -7.1259 2.99056 0
M  V30 10591 H 1029.03 -6.41121 2.68308 0
M  V30 10592 H 1032.22 -4.42178 1.5361 0
M  V30 10593 H 1032.4 -6.03359 2.3635 0
M  V30 10594 N 1025.8 -0.366053 -1.5329 0
M  V30 10595 C 1027.21 0.113056 -1.86357 0
M  V30 10596 C 1027.56 1.48123 -1.28662 0
M  V30 10597 O 1026.69 2.07658 -0.608849 0
M  V30 10598 C 1027.28 0.211923 -3.38137 0
M  V30 10599 C 1025.84 0.635289 -3.71 0
M  V30 10600 C 1024.99 -0.217203 -2.76448 0
M  V30 10601 H 1027.94 -0.584829 -1.47531 0
M  V30 10602 H 1027.96 1.0354 -3.66142 0
M  V30 10603 H 1027.47 -0.783994 -3.80099 0
M  V30 10604 H 1025.57 1.63942 -3.34595 0
M  V30 10605 H 1025.69 0.409571 -4.77346 0
M  V30 10606 H 1024.05 0.313988 -2.52757 0
M  V30 10607 H 1024.83 -1.21067 -3.21244 0
M  V30 10608 N 1027.28 1.57312 -0.0952337 0
M  V30 10609 C 1028.21 2.11059 0.893678 0
M  V30 10610 C 1029.22 1.04787 1.24594 0
M  V30 10611 O 1030.41 1.32233 1.19903 0
M  V30 10612 C 1027.51 2.57552 2.20272 0
M  V30 10613 C 1026.69 3.87661 2.02578 0
M  V30 10614 C 1025.75 4.2 3.16996 0
M  V30 10615 O 1024.77 4.89219 2.90953 0
M  V30 10616 N 1025.97 3.75414 4.42769 0
M  V30 10617 H 1028.74 2.96532 0.434632 0
M  V30 10618 H 1026.3 1.6165 0.0898661 0
M  V30 10619 H 1028.29 2.76232 2.95766 0
M  V30 10620 H 1026.86 1.7709 2.576 0
M  V30 10621 H 1026.08 3.78128 1.11413 0
M  V30 10622 H 1027.37 4.7278 1.88032 0
M  V30 10623 H 1026.77 3.1954 4.66809 0
M  V30 10624 H 1025.32 3.99249 5.15212 0
M  V30 10625 N 1028.76 -0.17846 1.56586 0
M  V30 10626 C 1029.69 -1.22342 1.98884 0
M  V30 10627 C 1030.67 -1.46564 0.86331 0
M  V30 10628 O 1031.85 -1.58019 1.12887 0
M  V30 10629 C 1028.98 -2.56396 2.34261 0
M  V30 10630 C 1027.94 -2.46756 3.49708 0
M  V30 10631 C 1027.26 -3.85235 3.70807 0
M  V30 10632 C 1028.56 -1.97838 4.83381 0
M  V30 10633 H 1030.26 -0.871848 2.86425 0
M  V30 10634 H 1027.8 -0.417948 1.37801 0
M  V30 10635 H 1029.76 -3.29695 2.62448 0
M  V30 10636 H 1028.48 -2.93327 1.43621 0
M  V30 10637 H 1027.14 -1.75912 3.21637 0
M  V30 10638 H 1026.79 -4.19547 2.7747 0
M  V30 10639 H 1026.49 -3.79655 4.48481 0
M  V30 10640 H 1028.01 -4.60131 4.01387 0
M  V30 10641 H 1029.43 -2.60906 5.10491 0
M  V30 10642 H 1027.82 -2.03223 5.64642 0
M  V30 10643 H 1028.89 -0.932339 4.75852 0
M  V30 10644 N 1030.24 -1.51135 -0.446768 0
M  V30 10645 C 1031.17 -1.74709 -1.54916 0
M  V30 10646 C 1032.15 -0.596628 -1.59293 0
M  V30 10647 O 1033.33 -0.838356 -1.75172 0
M  V30 10648 C 1030.46 -1.86353 -2.9307 0
M  V30 10649 C 1029.42 -3.01725 -3.03556 0
M  V30 10650 C 1028.74 -2.9854 -4.43597 0
M  V30 10651 C 1030.04 -4.41848 -2.7851 0
M  V30 10652 H 1031.74 -2.67014 -1.3544 0
M  V30 10653 H 1029.28 -1.28489 -0.650131 0
M  V30 10654 H 1031.23 -2.01428 -3.70141 0
M  V30 10655 H 1029.96 -0.906887 -3.13756 0
M  V30 10656 H 1028.62 -2.86339 -2.28922 0
M  V30 10657 H 1028.27 -2.00673 -4.61237 0
M  V30 10658 H 1027.97 -3.76008 -4.51544 0
M  V30 10659 H 1029.49 -3.15696 -5.22655 0
M  V30 10660 H 1030.9 -4.57633 -3.45319 0
M  V30 10661 H 1029.3 -5.2095 -2.97877 0
M  V30 10662 H 1030.37 -4.52536 -1.74182 0
M  V30 10663 N 1031.71 0.701592 -1.41122 0
M  V30 10664 C 1032.96 1.46376 -1.40363 0
M  V30 10665 C 1033.29 1.94197 -0.0105442 0
M  V30 10666 O 1032.57 1.69121 0.960637 0
M  V30 10667 C 1032.85 2.67994 -2.40523 0
M  V30 10668 C 1032.7 2.25977 -3.88914 0
M  V30 10669 C 1034.02 3.70181 -2.38022 0
M  V30 10670 H 1031.14 0.530929 -0.511159 0
M  V30 10671 H 1033.78 0.799588 -1.72356 0
M  V30 10672 H 1031.93 3.24661 -2.13372 0
M  V30 10673 H 1033.61 1.74684 -4.26946 0
M  V30 10674 H 1031.85 1.57826 -4.04071 0
M  V30 10675 H 1032.52 3.13215 -4.54533 0
M  V30 10676 H 1035 3.23174 -2.62103 0
M  V30 10677 H 1033.87 4.52894 -3.10127 0
M  V30 10678 H 1034.13 4.19458 -1.3967 0
M  V30 10679 N 1033.19 1.2685 0.935242 0
M  V30 10680 C 1034.12 1.1143 2.05196 0
M  V30 10681 C 1035.1 0.0178362 1.70091 0
M  V30 10682 O 1036.29 0.190951 1.93259 0
M  V30 10683 C 1033.42 0.752779 3.39044 0
M  V30 10684 C 1032.37 1.80164 3.88233 0
M  V30 10685 C 1031.7 1.29428 5.18799 0
M  V30 10686 C 1033 3.20431 4.12457 0
M  V30 10687 H 1034.69 2.04845 2.18355 0
M  V30 10688 H 1032.24 0.986276 1.04922 0
M  V30 10689 H 1034.19 0.631757 4.16637 0
M  V30 10690 H 1032.91 -0.217075 3.25878 0
M  V30 10691 H 1031.57 1.91144 3.12825 0
M  V30 10692 H 1031.22 0.3141 5.02018 0
M  V30 10693 H 1030.92 1.99546 5.5268 0
M  V30 10694 H 1032.45 1.18605 5.9897 0
M  V30 10695 H 1033.86 3.12495 4.80645 0
M  V30 10696 H 1032.26 3.88193 4.57631 0
M  V30 10697 H 1033.33 3.66046 3.18023 0
M  V30 10698 N 1034.67 -1.14067 1.0875 0
M  V30 10699 C 1035.92 -1.85459 0.82053 0
M  V30 10700 C 1036.25 -1.82923 -0.65213 0
M  V30 10701 O 1035.52 -1.26241 -1.47965 0
M  V30 10702 C 1035.81 -3.33937 1.34752 0
M  V30 10703 C 1035.66 -3.45026 2.88578 0
M  V30 10704 C 1036.98 -4.2915 0.975636 0
M  V30 10705 H 1034.1 -0.673384 0.299538 0
M  V30 10706 H 1036.74 -1.33927 1.34772 0
M  V30 10707 H 1034.89 -3.77953 0.899086 0
M  V30 10708 H 1036.56 -3.09771 3.41818 0
M  V30 10709 H 1034.81 -2.86124 3.26061 0
M  V30 10710 H 1035.48 -4.49408 3.20526 0
M  V30 10711 H 1037.95 -3.93168 1.36228 0
M  V30 10712 H 1036.83 -5.31489 1.37152 0
M  V30 10713 H 1037.09 -4.41945 -0.116956 0
M  V30 10714 N 1036.15 -0.873678 -1.31166 0
M  V30 10715 C 1037.56 -0.566109 -1.49223 0
M  V30 10716 C 1037.76 0.898889 -1.80339 0
M  V30 10717 O 1036.82 1.68084 -1.88425 0
M  V30 10718 C 1038.13 -1.46952 -2.62346 0
M  V30 10719 C 1039.68 -1.47195 -2.76229 0
M  V30 10720 C 1040.16 -2.36102 -3.92454 0
M  V30 10721 N 1041.65 -2.34003 -3.99746 0
M  V30 10722 C 1042.38 -2.99513 -4.88958 0
M  V30 10723 N 1041.88 -3.74206 -5.83045 0
M  V30 10724 N 1043.67 -2.88802 -4.82234 0
M  V30 10725 H 1035.82 -1.82156 -1.09239 0
M  V30 10726 H 1038.09 -0.779086 -0.54012 0
M  V30 10727 H 1037.79 -2.51213 -2.4614 0
M  V30 10728 H 1037.67 -1.17077 -3.5857 0
M  V30 10729 H 1040.05 -0.436902 -2.91848 0
M  V30 10730 H 1040.13 -1.81095 -1.80661 0
M  V30 10731 H 1039.78 -3.39685 -3.77593 0
M  V30 10732 H 1039.71 -1.99524 -4.87337 0
M  V30 10733 H 1042.2 -1.79713 -3.32433 0
M  V30 10734 H 1042.51 -4.21312 -6.47855 0
M  V30 10735 H 1040.86 -3.78314 -5.83012 0
M  V30 10736 H 1044.05 -2.29984 -4.07707 0
M  V30 10737 H 1044.22 -3.40136 -5.51554 0
M  V30 10738 N 1037.63 1.44308 -0.633487 0
M  V30 10739 C 1038.87 2.02322 -0.139123 0
M  V30 10740 C 1039.21 1.49733 1.23667 0
M  V30 10741 O 1038.48 0.682353 1.82138 0
M  V30 10742 C 1038.76 3.59871 -0.128366 0
M  V30 10743 C 1038.62 4.22737 -1.53667 0
M  V30 10744 C 1039.94 4.36702 0.545834 0
M  V30 10745 H 1037.05 0.735161 -0.0520293 0
M  V30 10746 H 1039.7 1.7185 -0.810411 0
M  V30 10747 H 1037.85 3.85963 0.443263 0
M  V30 10748 H 1039.52 4.07744 -2.15737 0
M  V30 10749 H 1037.76 3.80142 -2.08985 0
M  V30 10750 H 1038.43 5.31757 -1.48116 0
M  V30 10751 H 1040.91 4.16057 0.0596879 0
M  V30 10752 H 1039.78 5.46407 0.522557 0
M  V30 10753 H 1040.05 4.11483 1.6166 0
M  V30 10754 N 1039.1 0.374177 1.53094 0
M  V30 10755 C 1040.38 -0.269632 1.93733 0
M  V30 10756 C 1040.76 -1.6566 1.30843 0
M  V30 10757 O 1040.11 -2.23598 0.470759 0
M  V30 10758 C 1040.32 -0.311204 3.4761 0
M  V30 10759 C 1041.67 -0.547432 4.21056 0
M  V30 10760 O 1042.69 -0.392053 3.54036 0
M  V30 10761 O 1041.55 -0.850645 5.39839 0
M  V30 10762 H 1038.64 -0.163723 0.810632 0
M  V30 10763 H 1041.19 0.427586 1.64225 0
M  V30 10764 H 1039.96 0.660897 3.85678 0
M  V30 10765 H 1039.59 -1.05397 3.83376 0
M  V30 10766 N 1040.58 -1.57259 0.103575 0
M  V30 10767 C 1041.51 -2.1153 -0.882472 0
M  V30 10768 C 1042.53 -1.05446 -1.24036 0
M  V30 10769 O 1043.72 -1.32867 -1.192 0
M  V30 10770 C 1040.82 -2.58717 -2.18903 0
M  V30 10771 C 1039.99 -3.8873 -2.00519 0
M  V30 10772 C 1039.05 -4.21675 -3.14764 0
M  V30 10773 O 1038.07 -4.90755 -2.88355 0
M  V30 10774 N 1039.28 -3.77757 -4.40772 0
M  V30 10775 H 1042.04 -2.96758 -0.418901 0
M  V30 10776 H 1039.6 -1.61696 -0.0812921 0
M  V30 10777 H 1041.59 -2.77797 -2.94297 0
M  V30 10778 H 1040.16 -1.78454 -2.56657 0
M  V30 10779 H 1039.38 -3.78714 -1.09406 0
M  V30 10780 H 1040.67 -4.73771 -1.85522 0
M  V30 10781 H 1040.07 -3.22011 -4.65108 0
M  V30 10782 H 1038.63 -4.01975 -5.13088 0
M  V30 10783 N 1042.06 0.170153 -1.56679 0
M  V30 10784 C 1043.34 0.913938 -1.72935 0
M  V30 10785 C 1043.72 2.00342 -0.665293 0
M  V30 10786 O 1043.07 2.26252 0.319715 0
M  V30 10787 C 1043.28 1.47761 -3.16177 0
M  V30 10788 C 1044.62 1.95007 -3.7717 0
M  V30 10789 O 1045.65 1.57552 -3.19462 0
M  V30 10790 O 1044.51 2.64007 -4.78501 0
M  V30 10791 H 1041.6 0.43027 -0.706256 0
M  V30 10792 H 1044.15 0.157891 -1.68964 0
M  V30 10793 H 1042.92 0.69352 -3.85105 0
M  V30 10794 H 1042.54 2.2978 -3.24479 0
M  V30 10795 N 1043.54 1.5137 0.438746 0
M  V30 10796 C 1044.47 1.68774 1.55074 0
M  V30 10797 C 1045.48 0.568436 1.52554 0
M  V30 10798 O 1046.67 0.842707 1.57355 0
M  V30 10799 C 1043.77 1.68592 2.9399 0
M  V30 10800 C 1042.95 2.97084 3.2103 0
M  V30 10801 C 1042 2.89108 4.39663 0
M  V30 10802 O 1041.03 3.63052 4.38385 0
M  V30 10803 N 1042.23 2.04863 5.4315 0
M  V30 10804 H 1045 2.647 1.40549 0
M  V30 10805 H 1042.56 1.49238 0.627663 0
M  V30 10806 H 1044.55 1.60826 3.71372 0
M  V30 10807 H 1043.12 0.802657 3.02119 0
M  V30 10808 H 1042.34 3.18729 2.3196 0
M  V30 10809 H 1043.63 3.82143 3.35923 0
M  V30 10810 H 1043.03 1.4416 5.47023 0
M  V30 10811 H 1041.58 2.02977 6.1939 0
M  V30 10812 N 1045.02 -0.694098 1.41492 0
M  V30 10813 C 1045.96 -1.82932 1.43662 0
M  V30 10814 C 1046.96 -1.66455 0.31449 0
M  V30 10815 O 1048.16 -1.73298 0.486589 0
M  V30 10816 H 1044.54 -0.602847 0.449533 0
M  V30 10817 H 1046.51 -1.78218 2.39334 0
M  V30 10818 C 1045.26 -3.20962 1.33712 0
M  V30 10819 H 1044.58 -3.34257 2.19345 0
M  V30 10820 H 1046.02 -4.00467 1.39291 0
M  V30 10821 C 1044.48 -3.36863 0.0496332 0
M  V30 10822 O 1045.01 -3.91371 -0.905093 0
M  V30 10823 N 1043.22 -2.90588 -0.0269299 0
M  V30 10824 H 1042.76 -2.46417 0.750752 0
M  V30 10825 H 1042.72 -3.01605 -0.887781 0
M  V30 10826 N 1046.49 -1.27344 -0.928501 0
M  V30 10827 C 1047.74 -1.13804 -1.67859 0
M  V30 10828 C 1048.07 0.31555 -1.91619 0
M  V30 10829 O 1047.35 1.23087 -1.50599 0
M  V30 10830 C 1047.63 -1.9213 -3.04562 0
M  V30 10831 C 1047.48 -3.45468 -2.88048 0
M  V30 10832 C 1048.8 -1.72513 -4.04879 0
M  V30 10833 H 1045.92 -0.414796 -0.609191 0
M  V30 10834 H 1048.56 -1.5649 -1.07753 0
M  V30 10835 H 1046.71 -1.55853 -3.55868 0
M  V30 10836 H 1048.39 -3.9157 -2.43865 0
M  V30 10837 H 1046.63 -3.71849 -2.23407 0
M  V30 10838 H 1047.3 -3.95515 -3.85061 0
M  V30 10839 H 1049.78 -2.04143 -3.62581 0
M  V30 10840 H 1048.65 -2.29713 -4.98521 0
M  V30 10841 H 1048.91 -0.672856 -4.3695 0
M  V30 10842 N 1047.97 1.13488 -1.09353 0
M  V30 10843 C 1049.22 1.85022 -0.830354 0
M  V30 10844 C 1049.55 1.83266 0.64242 0
M  V30 10845 O 1048.83 1.27024 1.47293 0
M  V30 10846 C 1049.11 3.33218 -1.36521 0
M  V30 10847 C 1048.96 3.43491 -2.90404 0
M  V30 10848 C 1050.28 4.28626 -0.998381 0
M  V30 10849 H 1047.4 0.671786 -0.303105 0
M  V30 10850 H 1050.04 1.33211 -1.3548 0
M  V30 10851 H 1048.19 3.77471 -0.919117 0
M  V30 10852 H 1049.86 3.07954 -3.43456 0
M  V30 10853 H 1048.11 2.84391 -3.27573 0
M  V30 10854 H 1048.78 4.47702 -3.22905 0
M  V30 10855 H 1051.25 3.9244 -1.38311 0
M  V30 10856 H 1050.13 5.30754 -1.39968 0
M  V30 10857 H 1050.39 4.42001 0.093517 0
M  V30 10858 N 1049.45 0.880621 1.30701 0
M  V30 10859 C 1050.4 0.315679 2.25804 0
M  V30 10860 C 1051.39 -0.553382 1.51084 0
M  V30 10861 O 1052.58 -0.398518 1.72455 0
M  V30 10862 C 1049.71 -0.472586 3.40032 0
M  V30 10863 C 1048.79 0.410318 4.2211 0
M  V30 10864 N 1049.18 1.50876 4.82773 0
M  V30 10865 C 1047.48 0.20465 4.4553 0
M  V30 10866 C 1048.18 2.05409 5.44226 0
M  V30 10867 N 1047.16 1.34964 5.26579 0
M  V30 10868 H 1050.96 1.15505 2.70251 0
M  V30 10869 H 1048.47 0.729547 1.45091 0
M  V30 10870 H 1050.47 -0.893918 4.07204 0
M  V30 10871 H 1049.13 -1.30945 2.97125 0
M  V30 10872 H 1050.14 1.89163 4.82118 0
M  V30 10873 H 1046.82 -0.595398 4.13233 0
M  V30 10874 H 1048.21 2.97627 6.02385 0
M  V30 10875 N 1050.93 -1.4397 0.641131 0
M  V30 10876 C 1052.34 -1.85267 0.230838 0
M  V30 10877 C 1052.69 -1.53659 -1.21998 0
M  V30 10878 O 1051.82 -0.979572 -1.92959 0
M  V30 10879 C 1052.41 -3.36284 0.412171 0
M  V30 10880 C 1050.97 -3.76358 0.0563004 0
M  V30 10881 C 1050.12 -2.67768 0.720809 0
M  V30 10882 H 1053.07 -1.34294 0.845624 0
M  V30 10883 H 1053.09 -3.78924 -0.345936 0
M  V30 10884 H 1052.6 -3.59258 1.46818 0
M  V30 10885 H 1050.7 -3.58997 -0.997582 0
M  V30 10886 H 1050.82 -4.76756 0.473335 0
M  V30 10887 H 1049.18 -2.54227 0.155164 0
M  V30 10888 H 1049.96 -2.93573 1.77961 0
M  V30 10889 N 1052.41 -0.382291 -1.52893 0
M  V30 10890 C 1053.34 0.491199 -2.23875 0
M  V30 10891 C 1054.35 1.03249 -1.25871 0
M  V30 10892 O 1055.54 0.936016 -1.5199 0
M  V30 10893 C 1052.64 1.6927 -2.936 0
M  V30 10894 C 1051.81 1.28 -4.18252 0
M  V30 10895 C 1050.87 2.34541 -4.71038 0
M  V30 10896 O 1049.9 1.96239 -5.34302 0
M  V30 10897 N 1051.1 3.6636 -4.50289 0
M  V30 10898 H 1053.87 -0.116897 -2.99472 0
M  V30 10899 H 1051.43 -0.208296 -1.60554 0
M  V30 10900 H 1053.42 2.40054 -3.25816 0
M  V30 10901 H 1051.99 2.20729 -2.21354 0
M  V30 10902 H 1051.21 0.40133 -3.92152 0
M  V30 10903 H 1052.5 0.98082 -4.99257 0
M  V30 10904 H 1051.9 4.00245 -3.99775 0
M  V30 10905 H 1050.45 4.332 -4.87013 0
M  V30 10906 N 1053.89 1.57202 -0.111913 0
M  V30 10907 C 1054.82 2.17957 0.837683 0
M  V30 10908 C 1055.8 1.1176 1.28233 0
M  V30 10909 O 1056.98 1.39967 1.34621 0
M  V30 10910 C 1054.11 2.77333 2.09054 0
M  V30 10911 C 1053.07 3.8905 1.78393 0
M  V30 10912 C 1052.39 4.35203 3.10649 0
M  V30 10913 C 1053.69 5.11477 1.05775 0
M  V30 10914 H 1055.39 2.9756 0.331441 0
M  V30 10915 H 1052.93 1.43131 0.157979 0
M  V30 10916 H 1054.88 3.18492 2.75936 0
M  V30 10917 H 1053.61 1.95009 2.6199 0
M  V30 10918 H 1052.27 3.48456 1.13903 0
M  V30 10919 H 1051.92 3.49747 3.61506 0
M  V30 10920 H 1051.62 5.10534 2.9091 0
M  V30 10921 H 1053.14 4.79007 3.78661 0
M  V30 10922 H 1054.55 5.497 1.62798 0
M  V30 10923 H 1052.95 5.92346 0.961573 0
M  V30 10924 H 1054.02 4.84881 0.043297 0
M  V30 10925 N 1055.36 -0.161842 1.56767 0
M  V30 10926 C 1056.29 -1.20226 2.0017 0
M  V30 10927 C 1057.27 -1.4564 0.878807 0
M  V30 10928 O 1058.46 -1.56813 1.14557 0
M  V30 10929 C 1055.59 -2.53897 2.36968 0
M  V30 10930 C 1054.54 -2.43033 3.52305 0
M  V30 10931 C 1053.87 -3.81281 3.74872 0
M  V30 10932 C 1055.17 -1.927 4.85453 0
M  V30 10933 H 1056.86 -0.84142 2.87333 0
M  V30 10934 H 1054.41 -0.403309 1.38237 0
M  V30 10935 H 1056.36 -3.26893 2.6593 0
M  V30 10936 H 1055.09 -2.91787 1.46724 0
M  V30 10937 H 1053.75 -1.7249 3.23485 0
M  V30 10938 H 1053.39 -4.1658 2.81904 0
M  V30 10939 H 1053.09 -3.74877 4.52483 0
M  V30 10940 H 1054.62 -4.55848 4.06245 0
M  V30 10941 H 1056.03 -2.55477 5.13229 0
M  V30 10942 H 1054.43 -1.97222 5.66766 0
M  V30 10943 H 1055.5 -0.881816 4.76814 0
M  V30 10944 N 1056.84 -1.516 -0.430713 0
M  V30 10945 C 1058.07 -1.687 -1.20644 0
M  V30 10946 C 1058.49 -0.386555 -1.84085 0
M  V30 10947 O 1057.85 0.653952 -1.69095 0
M  V30 10948 C 1057.9 -2.80887 -2.2613 0
M  V30 10949 O 1057 -2.44952 -3.31772 0
M  V30 10950 H 1056.34 -0.562289 -0.353167 0
M  V30 10951 H 1058.87 -1.98198 -0.507807 0
M  V30 10952 H 1058.88 -3.05167 -2.70809 0
M  V30 10953 H 1057.56 -3.75249 -1.79334 0
M  V30 10954 H 1056.13 -2.31267 -2.92523 0
M  V30 10955 N 1058.32 0.686584 -1.41858 0
M  V30 10956 C 1059.25 1.81264 -1.47193 0
M  V30 10957 C 1060.23 1.66875 -0.329657 0
M  V30 10958 O 1061.42 1.86473 -0.542347 0
M  V30 10959 C 1058.55 3.19472 -1.36216 0
M  V30 10960 C 1057.5 3.4858 -2.48347 0
M  V30 10961 C 1056.83 4.86239 -2.22432 0
M  V30 10962 C 1058.13 3.46653 -3.90678 0
M  V30 10963 H 1059.82 1.77057 -2.41436 0
M  V30 10964 H 1057.37 0.850415 -1.16206 0
M  V30 10965 H 1059.32 3.97969 -1.38558 0
M  V30 10966 H 1058.04 3.24327 -0.384611 0
M  V30 10967 H 1056.7 2.72437 -2.45303 0
M  V30 10968 H 1056.35 4.8773 -1.22999 0
M  V30 10969 H 1056.05 5.06677 -2.97577 0
M  V30 10970 H 1057.57 5.67034 -2.26505 0
M  V30 10971 H 1058.99 4.15139 -3.95389 0
M  V30 10972 H 1057.38 3.78625 -4.65578 0
M  V30 10973 H 1058.45 2.45451 -4.18189 0
M  V30 10974 N 1059.8 1.27835 0.921735 0
M  V30 10975 C 1061.03 1.17352 1.704 0
M  V30 10976 C 1061.44 -0.268892 1.86875 0
M  V30 10977 O 1060.8 -1.18253 1.39005 0
M  V30 10978 C 1060.85 1.85889 3.10045 0
M  V30 10979 O 1060.57 3.24495 2.94338 0
M  V30 10980 C 1062.07 1.81607 4.04393 0
M  V30 10981 H 1059.29 0.40773 0.532914 0
M  V30 10982 H 1061.83 1.68815 1.15419 0
M  V30 10983 H 1059.99 1.38316 3.61867 0
M  V30 10984 H 1060.4 3.58705 3.82663 0
M  V30 10985 H 1061.88 2.34165 4.99871 0
M  V30 10986 H 1062.35 0.786697 4.32097 0
M  V30 10987 H 1062.96 2.28822 3.58498 0
M  V30 10988 N 1061.28 -1.12907 1.09954 0
M  V30 10989 C 1062.5 -1.88679 0.861099 0
M  V30 10990 C 1062.93 -1.78853 -0.582499 0
M  V30 10991 O 1062.28 -1.13992 -1.4098 0
M  V30 10992 C 1062.33 -3.36047 1.30785 0
M  V30 10993 O 1061.44 -4.09716 0.469728 0
M  V30 10994 H 1060.78 -0.586447 0.31141 0
M  V30 10995 H 1063.31 -1.42818 1.46507 0
M  V30 10996 H 1063.32 -3.86882 1.29562 0
M  V30 10997 H 1061.99 -3.42516 2.35914 0
M  V30 10998 H 1060.57 -3.6887 0.54674 0
M  V30 10999 N 1062.75 -0.88754 -1.30232 0
M  V30 11000 C 1063.69 -0.313488 -2.27046 0
M  V30 11001 C 1064.7 0.533383 -1.53814 0
M  V30 11002 O 1065.89 0.352516 -1.74984 0
M  V30 11003 C 1062.99 0.572674 -3.34026 0
M  V30 11004 C 1062.16 -0.245712 -4.36709 0
M  V30 11005 C 1061.22 0.57135 -5.23089 0
M  V30 11006 O 1060.25 -0.00685948 -5.692 0
M  V30 11007 N 1061.45 1.87994 -5.49216 0
M  V30 11008 H 1064.21 -1.14553 -2.76943 0
M  V30 11009 H 1061.77 -0.750785 -1.43439 0
M  V30 11010 H 1063.77 1.12539 -3.88738 0
M  V30 11011 H 1062.34 1.3054 -2.84039 0
M  V30 11012 H 1061.56 -0.979869 -3.81827 0
M  V30 11013 H 1062.84 -0.806618 -5.02366 0
M  V30 11014 H 1062.24 2.3726 -5.13541 0
M  V30 11015 H 1060.8 2.38005 -6.06792 0
M  V30 11016 N 1064.23 1.43628 -0.648757 0
M  V30 11017 C 1065.16 2.33478 0.0320785 0
M  V30 11018 C 1066.14 1.49217 0.816605 0
M  V30 11019 O 1067.33 1.77892 0.778974 0
M  V30 11020 C 1064.46 3.32525 1.00222 0
M  V30 11021 C 1063.41 4.2674 0.328119 0
M  V30 11022 C 1062.74 5.15791 1.4094 0
M  V30 11023 C 1064.04 5.16493 -0.776701 0
M  V30 11024 H 1065.73 2.90657 -0.718257 0
M  V30 11025 H 1063.28 1.3976 -0.346852 0
M  V30 11026 H 1065.23 3.94277 1.4874 0
M  V30 11027 H 1063.96 2.73593 1.78366 0
M  V30 11028 H 1062.61 3.66346 -0.136569 0
M  V30 11029 H 1062.26 4.53201 2.18216 0
M  V30 11030 H 1061.96 5.79645 0.963631 0
M  V30 11031 H 1063.49 5.80416 1.89603 0
M  V30 11032 H 1064.9 5.7208 -0.373878 0
M  V30 11033 H 1063.3 5.89043 -1.14667 0
M  V30 11034 H 1064.37 4.56448 -1.63654 0
M  V30 11035 N 1065.71 0.390394 1.52688 0
M  V30 11036 C 1066.66 -0.444229 2.26485 0
M  V30 11037 C 1067.63 -1.05688 1.28138 0
M  V30 11038 O 1068.81 -1.0847 1.56968 0
M  V30 11039 C 1065.95 -1.56501 3.07574 0
M  V30 11040 C 1065.07 -0.975111 4.20851 0
M  V30 11041 C 1064.2 -2.06704 4.89333 0
M  V30 11042 C 1063.24 -1.45309 5.94602 0
M  V30 11043 N 1062.38 -2.48437 6.56676 0
M  V30 11044 H 1067.22 0.191535 2.97384 0
M  V30 11045 H 1064.75 0.106287 1.46716 0
M  V30 11046 H 1066.71 -2.22558 3.52879 0
M  V30 11047 H 1065.34 -2.17107 2.38881 0
M  V30 11048 H 1064.39 -0.204109 3.79852 0
M  V30 11049 H 1065.71 -0.486465 4.96422 0
M  V30 11050 H 1064.86 -2.80528 5.37949 0
M  V30 11051 H 1063.6 -2.58928 4.13289 0
M  V30 11052 H 1062.6 -0.700091 5.45324 0
M  V30 11053 H 1063.83 -0.938775 6.7258 0
M  V30 11054 H 1061.77 -2.99829 5.83471 0
M  V30 11055 H 1061.69 -2.04331 7.27863 0
M  V30 11056 H 1062.96 -3.21888 7.09935 0
M  V30 11057 N 1067.19 -1.57141 0.120249 0
M  V30 11058 C 1068.15 -2.14213 -0.815185 0
M  V30 11059 C 1069.15 -1.07731 -1.19376 0
M  V30 11060 O 1070.34 -1.33502 -1.11906 0
M  V30 11061 C 1067.47 -2.68339 -2.10255 0
M  V30 11062 H 1068.67 -2.98197 -0.319166 0
M  V30 11063 H 1066.22 -1.55767 -0.128997 0
M  V30 11064 H 1066.95 -1.87946 -2.64285 0
M  V30 11065 H 1066.74 -3.46216 -1.84057 0
M  V30 11066 H 1068.23 -3.124 -2.77121 0
M  V30 11067 N 1068.67 0.153526 -1.5685 0
M  V30 11068 C 1069.91 0.865519 -1.82629 0
M  V30 11069 C 1070.24 1.81999 -0.700105 0
M  V30 11070 O 1069.51 1.93907 0.278744 0
M  V30 11071 H 1068.09 0.32261 -0.673745 0
M  V30 11072 H 1070.75 0.149088 -1.94329 0
M  V30 11073 H 1069.84 1.43171 -2.77324 0
M  V30 11074 N 1070.14 1.51827 0.422667 0
M  V30 11075 C 1071.09 1.74198 1.51406 0
M  V30 11076 C 1072.06 0.584013 1.55494 0
M  V30 11077 O 1073.25 0.820079 1.72277 0
M  V30 11078 C 1070.39 1.88627 2.88988 0
M  V30 11079 C 1069.5 3.16233 2.94314 0
M  V30 11080 C 1068.63 3.21172 4.2311 0
M  V30 11081 C 1067.67 4.43033 4.2236 0
M  V30 11082 N 1066.81 4.4544 5.42704 0
M  V30 11083 H 1071.65 2.67352 1.31632 0
M  V30 11084 H 1069.19 1.32487 0.63919 0
M  V30 11085 H 1071.15 1.94976 3.68837 0
M  V30 11086 H 1069.78 0.988673 3.07287 0
M  V30 11087 H 1068.83 3.19123 2.07039 0
M  V30 11088 H 1070.14 4.06104 2.89623 0
M  V30 11089 H 1069.29 3.26517 5.11343 0
M  V30 11090 H 1068.03 2.29216 4.30478 0
M  V30 11091 H 1067.04 4.37849 3.32518 0
M  V30 11092 H 1068.26 5.3627 4.16643 0
M  V30 11093 H 1066.21 3.56361 5.50766 0
M  V30 11094 H 1066.13 5.29138 5.39953 0
M  V30 11095 H 1067.39 4.54997 6.32928 0
M  V30 11096 N 1071.62 -0.679052 1.4222 0
M  V30 11097 C 1072.87 -1.43627 1.42182 0
M  V30 11098 C 1073.19 -1.94964 0.0377095 0
M  V30 11099 O 1072.46 -1.72788 -0.923098 0
M  V30 11100 H 1071.04 -0.532972 0.523402 0
M  V30 11101 H 1073.7 -0.802649 1.77605 0
M  V30 11102 H 1072.8 -2.29137 2.11902 0
M  V30 11103 N 1073.1 -1.28322 -0.914942 0
M  V30 11104 C 1074.03 -1.14681 -2.03398 0
M  V30 11105 C 1075.01 -0.0448939 -1.70041 0
M  V30 11106 O 1076.2 -0.221672 -1.92931 0
M  V30 11107 C 1073.33 -0.806623 -3.37803 0
M  V30 11108 C 1072.28 -1.86318 -3.85318 0
M  V30 11109 C 1071.61 -1.37665 -5.16674 0
M  V30 11110 C 1072.91 -3.26953 -4.07307 0
M  V30 11111 H 1074.6 -2.08293 -2.15068 0
M  V30 11112 H 1072.15 -1.00284 -1.03339 0
M  V30 11113 H 1074.1 -0.69796 -4.1558 0
M  V30 11114 H 1072.82 0.165203 -3.26182 0
M  V30 11115 H 1071.48 -1.96096 -3.09745 0
M  V30 11116 H 1071.13 -0.393927 -5.01455 0
M  V30 11117 H 1070.83 -2.08313 -5.49435 0
M  V30 11118 H 1072.35 -1.28119 -5.97007 0
M  V30 11119 H 1073.77 -3.20102 -4.75613 0
M  V30 11120 H 1072.17 -3.95424 -4.51398 0
M  V30 11121 H 1073.24 -3.71059 -3.12159 0
M  V30 11122 N 1074.58 1.12322 -1.10551 0
M  V30 11123 C 1075.81 1.87679 -0.87087 0
M  V30 11124 C 1076.22 1.79711 0.578733 0
M  V30 11125 O 1075.58 1.17185 1.39907 0
M  V30 11126 C 1075.63 3.36846 -1.31213 0
M  V30 11127 O 1075.35 3.44626 -2.70489 0
M  V30 11128 C 1076.85 4.29138 -1.11156 0
M  V30 11129 H 1074.07 0.593788 -0.3125 0
M  V30 11130 H 1076.62 1.42116 -1.47048 0
M  V30 11131 H 1074.77 3.79948 -0.756169 0
M  V30 11132 H 1075.18 4.37441 -2.89389 0
M  V30 11133 H 1076.66 5.32082 -1.46944 0
M  V30 11134 H 1077.14 4.39171 -0.0502963 0
M  V30 11135 H 1077.74 3.91818 -1.65405 0
M  V30 11136 N 1076.06 0.894434 1.2976 0
M  V30 11137 C 1077.31 0.513673 1.95049 0
M  V30 11138 C 1077.62 -0.943744 1.71327 0
M  V30 11139 O 1078.82 -1.43179 2.30678 0
M  V30 11140 C 1077.28 0.867751 3.49282 0
M  V30 11141 C 1076.89 2.34358 3.81812 0
M  V30 11142 C 1078.63 0.556645 4.20835 0
M  V30 11143 C 1076.54 2.63879 5.29265 0
M  V30 11144 H 1075.47 0.188375 0.73009 0
M  V30 11145 H 1078.12 1.09071 1.47566 0
M  V30 11146 H 1076.5 0.2197 3.9539 0
M  V30 11147 H 1077.68 3.03674 3.46581 0
M  V30 11148 H 1075.99 2.62318 3.23386 0
M  V30 11149 H 1078.59 0.754123 5.29355 0
M  V30 11150 H 1078.93 -0.504526 4.13231 0
M  V30 11151 H 1079.46 1.1623 3.80441 0
M  V30 11152 H 1076.2 3.68774 5.41928 0
M  V30 11153 H 1075.72 1.99182 5.65762 0
M  V30 11154 H 1077.4 2.49871 5.96803 0
M  V30 11155 N 1077.53 -1.43282 0.656365 0
M  V30 11156 C 1078.78 -2.02075 0.171293 0
M  V30 11157 C 1079.11 -1.51682 -1.21269 0
M  V30 11158 O 1078.39 -0.711243 -1.81029 0
M  V30 11159 C 1078.67 -3.59621 0.185602 0
M  V30 11160 C 1078.52 -4.20239 1.60373 0
M  V30 11161 C 1079.84 -4.37515 -0.476289 0
M  V30 11162 H 1076.96 -0.73424 0.0637185 0
M  V30 11163 H 1079.6 -1.70539 0.837648 0
M  V30 11164 H 1077.75 -3.86619 -0.381804 0
M  V30 11165 H 1079.43 -4.0426 2.22197 0
M  V30 11166 H 1077.67 -3.76769 2.15006 0
M  V30 11167 H 1078.34 -5.29333 1.56557 0
M  V30 11168 H 1080.82 -4.16099 0.00651073 0
M  V30 11169 H 1079.69 -5.47169 -0.435562 0
M  V30 11170 H 1079.95 -4.14003 -1.55093 0
M  V30 11171 N 1079.01 -0.398486 -1.52479 0
M  V30 11172 C 1080.26 0.180394 -2.01293 0
M  V30 11173 C 1080.58 1.46548 -1.28641 0
M  V30 11174 O 1079.85 1.91579 -0.409173 0
M  V30 11175 H 1078.43 0.0696528 -0.743746 0
M  V30 11176 H 1081.09 -0.532285 -1.87491 0
M  V30 11177 H 1080.19 0.38409 -3.09728 0
M  V30 11178 N 1080.49 1.57075 -0.12858 0
M  V30 11179 C 1081.72 2.00305 0.537839 0
M  V30 11180 C 1082.14 1.00787 1.58819 0
M  V30 11181 O 1081.5 -0.0190839 1.8129 0
M  V30 11182 C 1081.55 3.42371 1.13201 0
M  V30 11183 O 1080.65 3.45786 2.24735 0
M  V30 11184 H 1079.99 0.650456 0.133428 0
M  V30 11185 H 1082.52 2.03415 -0.219882 0
M  V30 11186 H 1082.53 3.80783 1.4652 0
M  V30 11187 H 1081.21 4.14315 0.362713 0
M  V30 11188 H 1079.78 3.19201 1.92783 0
M  V30 11189 N 1081.97 -0.145205 1.5693 0
M  V30 11190 C 1083.22 -0.858786 1.83719 0
M  V30 11191 C 1083.55 -1.80738 0.710452 0
M  V30 11192 O 1082.82 -1.92389 -0.285791 0
M  V30 11193 C 1083.11 -1.6317 3.2101 0
M  V30 11194 C 1082.96 -0.704472 4.44249 0
M  V30 11195 C 1084.28 -2.59377 3.55544 0
M  V30 11196 H 1081.4 -0.310757 0.66828 0
M  V30 11197 H 1084.04 -0.123918 1.89595 0
M  V30 11198 H 1082.19 -2.25816 3.16132 0
M  V30 11199 H 1083.86 -0.08887 4.61214 0
M  V30 11200 H 1082.1 -0.0141693 4.33798 0
M  V30 11201 H 1082.78 -1.28135 5.36922 0
M  V30 11202 H 1085.25 -2.06848 3.61044 0
M  V30 11203 H 1084.13 -3.10506 4.52634 0
M  V30 11204 H 1084.39 -3.40819 2.81594 0
M  V30 11205 N 1083.45 -1.52049 -0.414609 0
M  V30 11206 C 1084.38 -1.77956 -1.51175 0
M  V30 11207 C 1085.36 -0.630282 -1.57992 0
M  V30 11208 O 1086.54 -0.875324 -1.73354 0
M  V30 11209 C 1083.67 -1.92527 -2.89051 0
M  V30 11210 C 1082.63 -3.08096 -2.97087 0
M  V30 11211 C 1081.95 -3.07882 -4.37164 0
M  V30 11212 C 1083.25 -4.47656 -2.69075 0
M  V30 11213 H 1084.95 -2.69827 -1.29746 0
M  V30 11214 H 1082.49 -1.29839 -0.62273 0
M  V30 11215 H 1084.45 -2.09234 -3.65786 0
M  V30 11216 H 1083.17 -0.973235 -3.11762 0
M  V30 11217 H 1081.83 -2.91131 -2.22797 0
M  V30 11218 H 1081.48 -2.10411 -4.56877 0
M  V30 11219 H 1081.18 -3.85501 -4.43467 0
M  V30 11220 H 1082.7 -3.26712 -5.15841 0
M  V30 11221 H 1084.12 -4.64855 -3.35534 0
M  V30 11222 H 1082.51 -5.27151 -2.8676 0
M  V30 11223 H 1083.58 -4.56129 -1.64544 0
M  V30 11224 N 1084.93 0.6715 -1.42579 0
M  V30 11225 C 1085.84 1.81435 -1.48723 0
M  V30 11226 C 1086.85 1.69895 -0.375716 0
M  V30 11227 O 1088.03 1.91388 -0.627115 0
M  V30 11228 C 1085.09 3.17599 -1.39038 0
M  V30 11229 C 1084.15 3.41071 -2.60709 0
M  V30 11230 C 1083.39 4.7074 -2.51476 0
M  V30 11231 O 1083.61 5.48868 -1.55243 0
M  V30 11232 O 1082.54 4.95528 -3.41666 0
M  V30 11233 H 1086.37 1.79206 -2.45191 0
M  V30 11234 H 1083.95 0.827666 -1.24379 0
M  V30 11235 H 1085.84 3.98847 -1.3601 0
M  V30 11236 H 1084.51 3.20458 -0.456966 0
M  V30 11237 H 1083.42 2.59659 -2.69311 0
M  V30 11238 H 1084.75 3.43045 -3.5296 0
M  V30 11239 N 1086.4 1.28806 0.908124 0
M  V30 11240 C 1087.65 1.16058 1.65454 0
M  V30 11241 C 1087.97 -0.290057 1.92831 0
M  V30 11242 O 1087.24 -1.20001 1.54843 0
M  V30 11243 H 1085.82 0.426522 0.61326 0
M  V30 11244 H 1088.48 1.61614 1.08936 0
M  V30 11245 H 1087.58 1.70437 2.61453 0
M  V30 11246 N 1087.88 -1.11734 1.11145 0
M  V30 11247 C 1089.11 -1.87215 0.880811 0
M  V30 11248 C 1089.52 -1.80016 -0.569195 0
M  V30 11249 O 1088.88 -1.17926 -1.39283 0
M  V30 11250 C 1088.93 -3.36146 1.32998 0
M  V30 11251 O 1088.65 -3.43187 2.72313 0
M  V30 11252 C 1090.15 -4.28542 1.1343 0
M  V30 11253 H 1087.37 -0.592123 0.315645 0
M  V30 11254 H 1089.92 -1.41335 1.478 0
M  V30 11255 H 1088.07 -3.79542 0.776308 0
M  V30 11256 H 1088.49 -4.359 2.91705 0
M  V30 11257 H 1089.96 -5.31295 1.49764 0
M  V30 11258 H 1090.44 -4.39138 0.0735859 0
M  V30 11259 H 1091.04 -3.90935 1.67481 0
M  V30 11260 N 1089.36 -0.901303 -1.29284 0
M  V30 11261 C 1090.61 -0.528043 -1.95494 0
M  V30 11262 C 1090.93 0.92597 -1.71044 0
M  V30 11263 O 1090.19 1.67185 -1.01723 0
M  V30 11264 C 1090.49 -0.768828 -3.49033 0
M  V30 11265 C 1090.15 -2.20045 -3.93562 0
M  V30 11266 C 1088.82 -2.59189 -4.05431 0
M  V30 11267 C 1091.17 -3.13266 -4.1655 0
M  V30 11268 C 1088.5 -3.90733 -4.37658 0
M  V30 11269 C 1090.85 -4.4436 -4.50252 0
M  V30 11270 C 1089.51 -4.83375 -4.60331 0
M  V30 11271 H 1088.78 -0.193225 -0.715364 0
M  V30 11272 H 1091.43 -1.14027 -1.53851 0
M  V30 11273 H 1089.73 -0.0736997 -3.91731 0
M  V30 11274 H 1091.43 -0.459384 -3.9836 0
M  V30 11275 H 1088.02 -1.88666 -3.84842 0
M  V30 11276 H 1092.21 -2.84237 -4.06845 0
M  V30 11277 H 1087.46 -4.2068 -4.43665 0
M  V30 11278 H 1091.64 -5.16618 -4.66989 0
M  V30 11279 H 1089.26 -5.8534 -4.85058 0
M  V30 11280 N 1090.84 1.42931 -0.663954 0
M  V30 11281 C 1091.77 2.33499 0.00731327 0
M  V30 11282 C 1092.75 1.50074 0.800733 0
M  V30 11283 O 1093.93 1.78708 0.760062 0
M  V30 11284 C 1091.06 3.33569 0.966897 0
M  V30 11285 C 1090.02 4.27064 0.282839 0
M  V30 11286 C 1089.34 5.17257 1.35461 0
M  V30 11287 C 1090.64 5.1564 -0.831438 0
M  V30 11288 H 1092.34 2.89879 -0.749044 0
M  V30 11289 H 1089.88 1.39385 -0.361656 0
M  V30 11290 H 1091.84 3.95833 1.44549 0
M  V30 11291 H 1090.56 2.75469 1.75455 0
M  V30 11292 H 1089.22 3.6618 -0.175417 0
M  V30 11293 H 1088.87 4.5549 2.13397 0
M  V30 11294 H 1088.57 5.80634 0.902098 0
M  V30 11295 H 1090.09 5.82395 1.83436 0
M  V30 11296 H 1091.51 5.71651 -0.434534 0
M  V30 11297 H 1089.9 5.87794 -1.20908 0
M  V30 11298 H 1090.97 4.54687 -1.68487 0
M  V30 11299 N 1092.32 0.406567 1.52266 0
M  V30 11300 C 1093.23 -0.4271 2.30679 0
M  V30 11301 C 1094.24 -1.0559 1.383 0
M  V30 11302 O 1095.42 -1.05797 1.71374 0
M  V30 11303 C 1092.48 -1.53008 3.1111 0
M  V30 11304 C 1091.54 -0.924604 4.19225 0
M  V30 11305 C 1090.78 -1.97502 4.95811 0
M  V30 11306 O 1091 -3.19277 4.72671 0
M  V30 11307 O 1089.93 -1.58268 5.80719 0
M  V30 11308 H 1093.76 0.212187 3.02958 0
M  V30 11309 H 1091.34 0.169835 1.48432 0
M  V30 11310 H 1093.23 -2.17046 3.61205 0
M  V30 11311 H 1091.9 -2.15401 2.41628 0
M  V30 11312 H 1090.81 -0.247009 3.73284 0
M  V30 11313 H 1092.14 -0.34463 4.90992 0
M  V30 11314 N 1093.79 -1.57004 0.136909 0
M  V30 11315 C 1094.74 -2.17524 -0.823784 0
M  V30 11316 C 1095.74 -1.1294 -1.26258 0
M  V30 11317 O 1096.94 -1.3121 -1.23223 0
M  V30 11318 H 1093.32 -0.696381 -0.283827 0
M  V30 11319 H 1095.29 -2.96997 -0.289052 0
M  V30 11320 C 1094.04 -2.80331 -2.05693 0
M  V30 11321 H 1093.36 -3.60515 -1.72825 0
M  V30 11322 H 1094.8 -3.26192 -2.70878 0
M  V30 11323 C 1093.26 -1.78322 -2.85837 0
M  V30 11324 O 1093.79 -1.2475 -3.81838 0
M  V30 11325 N 1092 -1.47854 -2.50175 0
M  V30 11326 H 1091.54 -1.9161 -1.72173 0
M  V30 11327 H 1091.5 -0.798464 -3.04092 0
M  V30 11328 N 1095.27 0.136881 -1.57004 0
M  V30 11329 C 1096.22 1.17411 -1.95445 0
M  V30 11330 C 1097.21 1.38019 -0.827015 0
M  V30 11331 O 1098.4 1.39412 -1.09057 0
M  V30 11332 C 1095.53 2.50525 -2.34717 0
M  V30 11333 C 1094.61 2.33467 -3.54054 0
M  V30 11334 N 1095 1.86184 -4.70286 0
M  V30 11335 C 1093.3 2.64185 -3.59336 0
M  V30 11336 C 1094 1.82411 -5.5236 0
M  V30 11337 N 1092.98 2.26098 -4.94349 0
M  V30 11338 H 1096.78 0.8008 -2.8278 0
M  V30 11339 H 1094.3 0.344831 -1.58697 0
M  V30 11340 H 1096.29 3.2552 -2.60465 0
M  V30 11341 H 1094.95 2.8863 -1.48738 0
M  V30 11342 H 1095.96 1.55998 -4.93847 0
M  V30 11343 H 1092.64 3.06096 -2.83922 0
M  V30 11344 H 1094.03 1.4726 -6.55564 0
M  V30 11345 N 1096.75 1.52266 0.40654 0
M  V30 11346 C 1098.16 1.58587 0.985241 0
M  V30 11347 C 1098.51 0.427955 1.91476 0
M  V30 11348 O 1097.64 -0.451341 2.11641 0
M  V30 11349 C 1098.23 2.87426 1.79365 0
M  V30 11350 C 1096.79 2.96217 2.32233 0
M  V30 11351 C 1095.94 2.53548 1.12288 0
M  V30 11352 H 1098.89 1.57598 0.186685 0
M  V30 11353 H 1098.91 2.72925 2.65127 0
M  V30 11354 H 1098.42 3.71682 1.11687 0
M  V30 11355 H 1096.52 2.1646 3.03275 0
M  V30 11356 H 1096.64 4.00511 2.62922 0
M  V30 11357 H 1095 2.07457 1.47763 0
M  V30 11358 H 1095.78 3.40181 0.461731 0
M  V30 11359 N 1098.23 -0.663929 1.42933 0
M  V30 11360 C 1099.16 -1.78946 1.43217 0
M  V30 11361 C 1100.17 -1.59426 0.329727 0
M  V30 11362 O 1101.36 -1.68344 0.5935 0
M  V30 11363 C 1098.46 -3.16217 1.21902 0
M  V30 11364 C 1097.64 -3.6249 2.44785 0
M  V30 11365 C 1096.69 -4.78529 2.18853 0
M  V30 11366 O 1095.72 -4.88516 2.92131 0
M  V30 11367 N 1096.92 -5.67994 1.19845 0
M  V30 11368 H 1099.69 -1.79184 2.40236 0
M  V30 11369 H 1097.25 -0.847404 1.37952 0
M  V30 11370 H 1099.24 -3.91517 1.02454 0
M  V30 11371 H 1097.81 -3.10814 0.333676 0
M  V30 11372 H 1097.03 -2.77751 2.79729 0
M  V30 11373 H 1098.32 -3.90151 3.26588 0
M  V30 11374 H 1097.72 -5.62588 0.59259 0
M  V30 11375 H 1096.27 -6.4306 1.06382 0
M  V30 11376 N 1099.71 -1.29285 -0.901281 0
M  V30 11377 C 1100.67 -1.14283 -1.98676 0
M  V30 11378 C 1101.67 -0.0787641 -1.60607 0
M  V30 11379 O 1102.86 -0.325574 -1.71131 0
M  V30 11380 C 1099.99 -0.747279 -3.32609 0
M  V30 11381 H 1101.18 -2.10701 -2.13413 0
M  V30 11382 H 1098.74 -1.12449 -1.08558 0
M  V30 11383 H 1099.47 0.217111 -3.23572 0
M  V30 11384 H 1099.26 -1.51608 -3.61604 0
M  V30 11385 H 1100.75 -0.665322 -4.12266 0
M  V30 11386 N 1101.18 1.11143 -1.11736 0
M  V30 11387 C 1102.12 2.1705 -0.736325 0
M  V30 11388 C 1103.13 1.61116 0.233528 0
M  V30 11389 O 1104.32 1.78493 0.0159602 0
M  V30 11390 C 1101.42 3.38832 -0.067974 0
M  V30 11391 C 1100.59 4.24226 -1.06543 0
M  V30 11392 C 1099.65 5.24472 -0.426063 0
M  V30 11393 O 1098.68 5.58843 -1.0809 0
M  V30 11394 N 1099.88 5.74825 0.809711 0
M  V30 11395 H 1102.64 2.50349 -1.64758 0
M  V30 11396 H 1100.2 1.26693 -1.00799 0
M  V30 11397 H 1102.2 4.02991 0.371563 0
M  V30 11398 H 1100.77 3.0357 0.745917 0
M  V30 11399 H 1099.99 3.56475 -1.68283 0
M  V30 11400 H 1101.27 4.78117 -1.74016 0
M  V30 11401 H 1100.67 5.49088 1.36084 0
M  V30 11402 H 1099.23 6.40804 1.19218 0
M  V30 11403 N 1102.66 0.908147 1.28804 0
M  V30 11404 C 1104.08 0.605474 1.47669 0
M  V30 11405 C 1104.28 -0.850759 1.82659 0
M  V30 11406 O 1103.33 -1.63029 1.92816 0
M  V30 11407 C 1104.65 1.53856 2.58358 0
M  V30 11408 C 1106.2 1.54467 2.7223 0
M  V30 11409 C 1106.67 2.46424 3.86056 0
M  V30 11410 N 1108.16 2.44519 3.93402 0
M  V30 11411 C 1108.9 3.12371 4.80845 0
M  V30 11412 N 1108.39 3.89533 5.72919 0
M  V30 11413 N 1110.19 3.01486 4.74407 0
M  V30 11414 H 1102.34 1.84988 1.04371 0
M  V30 11415 H 1104.6 0.793132 0.519274 0
M  V30 11416 H 1104.31 2.57651 2.39393 0
M  V30 11417 H 1104.18 1.26543 3.5534 0
M  V30 11418 H 1106.57 0.514127 2.90587 0
M  V30 11419 H 1106.65 1.85821 1.75796 0
M  V30 11420 H 1106.29 3.49577 3.68454 0
M  V30 11421 H 1106.22 2.12375 4.81876 0
M  V30 11422 H 1108.71 1.88464 3.27551 0
M  V30 11423 H 1109.03 4.3834 6.36457 0
M  V30 11424 H 1107.37 3.93639 5.72777 0
M  V30 11425 H 1110.56 2.40713 4.01466 0
M  V30 11426 H 1110.73 3.5464 5.42342 0
M  V30 11427 N 1104.14 -1.42577 0.671525 0
M  V30 11428 C 1105.1 -2.292 0.000392482 0
M  V30 11429 C 1106.1 -1.43158 -0.732294 0
M  V30 11430 O 1107.29 -1.64583 -0.570789 0
M  V30 11431 C 1104.43 -3.25591 -1.01013 0
M  V30 11432 H 1105.62 -2.90037 0.762783 0
M  V30 11433 H 1103.17 -1.50162 0.433703 0
M  V30 11434 H 1103.91 -2.69685 -1.80112 0
M  V30 11435 H 1103.69 -3.89049 -0.488183 0
M  V30 11436 H 1105.18 -3.90561 -1.47824 0
M  V30 11437 N 1105.62 -0.414636 -1.52048 0
M  V30 11438 C 1106.53 0.414861 -2.30903 0
M  V30 11439 C 1107.54 1.04855 -1.38858 0
M  V30 11440 O 1108.72 1.04886 -1.71933 0
M  V30 11441 C 1105.79 1.51356 -3.11917 0
M  V30 11442 C 1104.85 0.902359 -4.19709 0
M  V30 11443 C 1104.08 1.9487 -4.96852 0
M  V30 11444 O 1104.3 3.16766 -4.74358 0
M  V30 11445 O 1103.24 1.55186 -5.8155 0
M  V30 11446 H 1107.06 -0.228251 -3.02841 0
M  V30 11447 H 1104.65 -0.177704 -1.48339 0
M  V30 11448 H 1106.53 2.15127 -3.62351 0
M  V30 11449 H 1105.2 2.14117 -2.42767 0
M  V30 11450 H 1104.11 0.22721 -3.73409 0
M  V30 11451 H 1105.44 0.318587 -4.91168 0
M  V30 11452 N 1107.1 1.56929 -0.145233 0
M  V30 11453 C 1108.01 2.20238 0.808219 0
M  V30 11454 C 1109.02 1.18615 1.27304 0
M  V30 11455 O 1110.2 1.51186 1.3306 0
M  V30 11456 C 1107.26 2.81016 2.03055 0
M  V30 11457 C 1106.32 3.97759 1.61512 0
M  V30 11458 C 1105.56 4.55628 2.77918 0
M  V30 11459 O 1105.78 4.12378 3.94082 0
M  V30 11460 O 1104.71 5.45917 2.53492 0
M  V30 11461 H 1108.54 3.02221 0.299314 0
M  V30 11462 H 1106.13 1.49176 0.0817051 0
M  V30 11463 H 1108.01 3.19652 2.74592 0
M  V30 11464 H 1106.68 2.02047 2.52901 0
M  V30 11465 H 1105.59 3.63842 0.870033 0
M  V30 11466 H 1106.92 4.78242 1.16383 0
M  V30 11467 N 1108.58 -0.128553 1.57075 0
M  V30 11468 C 1109.8 -0.8564 1.88893 0
M  V30 11469 C 1110.23 -1.73095 0.736196 0
M  V30 11470 O 1109.58 -1.78567 -0.313629 0
M  V30 11471 C 1109.63 -1.67368 3.19406 0
M  V30 11472 O 1108.74 -2.77973 3.04639 0
M  V30 11473 H 1108.08 -0.237424 0.620102 0
M  V30 11474 H 1110.61 -0.113821 2.04283 0
M  V30 11475 H 1110.62 -2.0649 3.51889 0
M  V30 11476 H 1109.29 -1.03161 4.02903 0
M  V30 11477 H 1107.87 -2.42123 2.83603 0
M  V30 11478 N 1110.05 -1.5248 -0.398459 0
M  V30 11479 C 1111.3 -1.66287 -1.14155 0
M  V30 11480 C 1111.62 -0.40429 -1.91376 0
M  V30 11481 O 1112.82 -0.422341 -2.68195 0
M  V30 11482 C 1111.28 -2.93831 -2.07825 0
M  V30 11483 C 1110.89 -4.26836 -1.3607 0
M  V30 11484 C 1112.63 -3.17004 -2.82327 0
M  V30 11485 C 1110.54 -5.45495 -2.28451 0
M  V30 11486 H 1109.47 -0.619478 -0.42984 0
M  V30 11487 H 1112.12 -1.78972 -0.405112 0
M  V30 11488 H 1110.5 -2.7487 -2.85065 0
M  V30 11489 H 1111.67 -4.56317 -0.641205 0
M  V30 11490 H 1109.99 -4.0985 -0.735659 0
M  V30 11491 H 1112.59 -4.02834 -3.51609 0
M  V30 11492 H 1112.93 -2.3168 -3.45876 0
M  V30 11493 H 1113.46 -3.36487 -2.12183 0
M  V30 11494 H 1110.2 -6.33198 -1.69532 0
M  V30 11495 H 1109.72 -5.20338 -2.98343 0
M  V30 11496 H 1111.4 -5.78996 -2.88743 0
M  V30 11497 N 1111.53 0.65634 -1.43283 0
M  V30 11498 C 1112.95 0.971645 -1.26614 0
M  V30 11499 C 1113.15 2.00662 -0.183612 0
M  V30 11500 O 1112.2 2.48654 0.439003 0
M  V30 11501 C 1113.52 1.45888 -2.6294 0
M  V30 11502 C 1115.06 1.57569 -2.70446 0
M  V30 11503 C 1115.54 2.09684 -4.07181 0
M  V30 11504 N 1117.03 2.16991 -4.0923 0
M  V30 11505 C 1117.77 2.5843 -5.11861 0
M  V30 11506 N 1117.26 2.99188 -6.24867 0
M  V30 11507 N 1119.05 2.58342 -4.99215 0
M  V30 11508 H 1111.21 -0.028573 -2.12381 0
M  V30 11509 H 1113.47 0.0497918 -0.946691 0
M  V30 11510 H 1113.17 0.772823 -3.43104 0
M  V30 11511 H 1113.05 2.43445 -2.88122 0
M  V30 11512 H 1115.44 2.25277 -1.90616 0
M  V30 11513 H 1115.52 0.584529 -2.49032 0
M  V30 11514 H 1115.16 1.42579 -4.87477 0
M  V30 11515 H 1115.09 3.09625 -4.25958 0
M  V30 11516 H 1117.58 1.88278 -3.27658 0
M  V30 11517 H 1117.89 3.29549 -6.99012 0
M  V30 11518 H 1116.24 2.97 -6.28344 0
M  V30 11519 H 1119.43 2.25875 -4.09998 0
M  V30 11520 H 1119.6 2.90316 -5.79328 0
M  V30 11521 N 1113.01 1.29761 0.894412 0
M  V30 11522 C 1114.43 1.07888 1.17611 0
M  V30 11523 C 1114.63 -0.16644 2.00811 0
M  V30 11524 O 1113.68 -0.86272 2.37304 0
M  V30 11525 C 1114.99 2.33723 1.89193 0
M  V30 11526 C 1116.54 2.39095 2.01997 0
M  V30 11527 C 1117.02 3.64747 2.7699 0
M  V30 11528 N 1118.51 3.65501 2.84541 0
M  V30 11529 C 1119.24 4.59411 3.43117 0
M  V30 11530 N 1118.74 5.63657 4.02818 0
M  V30 11531 N 1120.53 4.46971 3.40842 0
M  V30 11532 H 1112.68 2.0967 0.339421 0
M  V30 11533 H 1114.95 0.923788 0.212882 0
M  V30 11534 H 1114.65 3.24551 1.35496 0
M  V30 11535 H 1114.53 2.41642 2.89636 0
M  V30 11536 H 1116.91 1.48751 2.54867 0
M  V30 11537 H 1116.99 2.35158 1.0067 0
M  V30 11538 H 1116.64 4.55445 2.24794 0
M  V30 11539 H 1116.57 3.65944 3.78672 0
M  V30 11540 H 1119.06 2.90129 2.42144 0
M  V30 11541 H 1119.37 6.31429 4.45552 0
M  V30 11542 H 1117.72 5.67461 4.01265 0
M  V30 11543 H 1120.91 3.64719 2.93424 0
M  V30 11544 H 1121.08 5.20341 3.86198 0
M  V30 11545 N 1114.49 -1.10549 1.12324 0
M  V30 11546 C 1115.42 -2.18911 0.812416 0
M  V30 11547 C 1116.4 -1.68628 -0.22327 0
M  V30 11548 O 1117.58 -1.94015 -0.0847184 0
M  V30 11549 C 1114.71 -3.46288 0.264947 0
M  V30 11550 C 1113.67 -4.09838 1.23356 0
M  V30 11551 C 1112.99 -5.31901 0.546374 0
M  V30 11552 C 1114.29 -4.53686 2.58778 0
M  V30 11553 H 1115.99 -2.45169 1.71851 0
M  V30 11554 H 1113.53 -1.17834 0.827715 0
M  V30 11555 H 1115.49 -4.21385 0.0352364 0
M  V30 11556 H 1114.21 -3.19517 -0.676479 0
M  V30 11557 H 1112.87 -3.36746 1.44906 0
M  V30 11558 H 1112.52 -5.01406 -0.400157 0
M  V30 11559 H 1112.22 -5.75372 1.19249 0
M  V30 11560 H 1113.74 -6.09731 0.325673 0
M  V30 11561 H 1115.16 -5.20063 2.41263 0
M  V30 11562 H 1113.55 -5.08003 3.19457 0
M  V30 11563 H 1114.62 -3.66665 3.17309 0
M  V30 11564 N 1115.97 -0.914965 -1.28321 0
M  V30 11565 C 1116.9 -0.348729 -2.2552 0
M  V30 11566 C 1117.88 0.547737 -1.53097 0
M  V30 11567 O 1119.06 0.491119 -1.8199 0
M  V30 11568 C 1116.19 0.501397 -3.34968 0
M  V30 11569 C 1115.23 -0.329859 -4.25223 0
M  V30 11570 S 1116.07 -1.73737 -5.06533 0
M  V30 11571 C 1117.22 -0.89458 -6.19474 0
M  V30 11572 H 1117.46 -1.17256 -2.732 0
M  V30 11573 H 1114.99 -0.716297 -1.36779 0
M  V30 11574 H 1116.95 0.986061 -3.98481 0
M  V30 11575 H 1115.61 1.29962 -2.85952 0
M  V30 11576 H 1114.8 0.320236 -5.02982 0
M  V30 11577 H 1114.4 -0.748221 -3.66439 0
M  V30 11578 H 1116.69 -0.124776 -6.77385 0
M  V30 11579 H 1117.64 -1.64475 -6.88733 0
M  V30 11580 H 1118.05 -0.442217 -5.62765 0
M  V30 11581 N 1117.44 1.42219 -0.679077 0
M  V30 11582 C 1118.35 2.346 -0.00345919 0
M  V30 11583 C 1119.37 1.55327 0.784181 0
M  V30 11584 O 1120.55 1.87878 0.725524 0
M  V30 11585 C 1117.61 3.33905 0.933194 0
M  V30 11586 C 1116.67 4.29073 0.139607 0
M  V30 11587 C 1115.9 5.23634 1.03165 0
M  V30 11588 O 1116.13 5.23234 2.27119 0
M  V30 11589 O 1115.06 5.99901 0.490159 0
M  V30 11590 H 1118.89 2.9392 -0.764525 0
M  V30 11591 H 1116.47 1.42794 -0.439329 0
M  V30 11592 H 1118.35 3.949 1.47077 0
M  V30 11593 H 1117.03 2.77052 1.67404 0
M  V30 11594 H 1115.94 3.71478 -0.442177 0
M  V30 11595 H 1117.27 4.88979 -0.562214 0
M  V30 11596 N 1118.92 0.422693 1.51826 0
M  V30 11597 C 1119.88 -0.384307 2.25955 0
M  V30 11598 C 1120.88 -0.962184 1.28836 0
M  V30 11599 O 1122.07 -0.838931 1.52668 0
M  V30 11600 C 1119.21 -1.54228 3.04018 0
M  V30 11601 H 1120.4 0.265157 2.98726 0
M  V30 11602 H 1117.95 0.175515 1.55311 0
M  V30 11603 H 1118.69 -2.22822 2.35629 0
M  V30 11604 H 1118.47 -1.13425 3.75336 0
M  V30 11605 H 1119.96 -2.1128 3.60209 0
M  V30 11606 N 1120.4 -1.5685 0.153553 0
M  V30 11607 C 1121.31 -2.20664 -0.796528 0
M  V30 11608 C 1122.33 -1.19289 -1.26674 0
M  V30 11609 O 1123.5 -1.51889 -1.32256 0
M  V30 11610 C 1120.57 -2.82088 -2.01561 0
M  V30 11611 C 1119.63 -3.9861 -1.59401 0
M  V30 11612 C 1118.86 -4.57096 -2.75498 0
M  V30 11613 O 1119.08 -4.14462 -3.9189 0
M  V30 11614 O 1118.02 -5.47254 -2.50593 0
M  V30 11615 H 1121.84 -3.02376 -0.283282 0
M  V30 11616 H 1119.43 -1.49218 -0.0737927 0
M  V30 11617 H 1121.31 -3.21103 -2.72893 0
M  V30 11618 H 1119.99 -2.03385 -2.51826 0
M  V30 11619 H 1118.89 -3.64299 -0.850725 0
M  V30 11620 H 1120.23 -4.78853 -1.13845 0
M  V30 11621 N 1121.88 0.120221 -1.57141 0
M  V30 11622 C 1122.82 1.14751 -2.00252 0
M  V30 11623 C 1123.79 1.41217 -0.874462 0
M  V30 11624 O 1124.98 1.53104 -1.13859 0
M  V30 11625 C 1122.12 2.46923 -2.41087 0
M  V30 11626 C 1121.23 2.27403 -3.67303 0
M  V30 11627 C 1120.37 3.52797 -3.97125 0
M  V30 11628 C 1119.41 3.28429 -5.16528 0
M  V30 11629 N 1118.54 4.46022 -5.42226 0
M  V30 11630 H 1123.38 0.772884 -2.87803 0
M  V30 11631 H 1120.92 0.370137 -1.42367 0
M  V30 11632 H 1122.88 3.24025 -2.62799 0
M  V30 11633 H 1121.51 2.82281 -1.5658 0
M  V30 11634 H 1120.56 1.41224 -3.53214 0
M  V30 11635 H 1121.87 2.05373 -4.54558 0
M  V30 11636 H 1121.03 4.38318 -4.19479 0
M  V30 11637 H 1119.77 3.77857 -3.08343 0
M  V30 11638 H 1118.77 2.41299 -4.94019 0
M  V30 11639 H 1120 3.0474 -6.06886 0
M  V30 11640 H 1117.94 4.71205 -4.56401 0
M  V30 11641 H 1117.86 4.27092 -6.23802 0
M  V30 11642 H 1119.13 5.3268 -5.69098 0
M  V30 11643 N 1123.36 1.52689 0.390367 0
M  V30 11644 C 1124.6 1.67914 1.13722 0
M  V30 11645 C 1124.94 0.417159 1.89667 0
M  V30 11646 O 1124.21 -0.585005 1.85494 0
M  V30 11647 C 1124.49 2.91331 2.11656 0
M  V30 11648 C 1124.35 4.27626 1.39484 0
M  V30 11649 C 1125.67 3.10293 3.12099 0
M  V30 11650 H 1122.78 0.611047 0.412057 0
M  V30 11651 H 1125.43 1.85283 0.420753 0
M  V30 11652 H 1123.58 2.76654 2.72754 0
M  V30 11653 H 1125.25 4.54068 0.813607 0
M  V30 11654 H 1123.49 4.28169 0.69669 0
M  V30 11655 H 1124.16 5.10066 2.11038 0
M  V30 11656 H 1126.64 3.23992 2.6109 0
M  V30 11657 H 1125.51 3.98127 3.7787 0
M  V30 11658 H 1125.78 2.24448 3.80888 0
M  V30 11659 N 1124.83 -0.648732 1.43629 0
M  V30 11660 C 1125.78 -1.76145 1.49136 0
M  V30 11661 C 1126.75 -1.62569 0.340649 0
M  V30 11662 O 1127.94 -1.82748 0.548435 0
M  V30 11663 C 1125.08 -3.14321 1.42466 0
M  V30 11664 C 1124.19 -3.38999 2.67776 0
M  V30 11665 C 1123.32 -4.67047 2.53062 0
M  V30 11666 C 1122.36 -4.84845 3.7362 0
M  V30 11667 N 1121.5 -6.04155 3.57689 0
M  V30 11668 H 1126.34 -1.70774 2.44213 0
M  V30 11669 H 1123.88 -0.833311 1.2122 0
M  V30 11670 H 1125.84 -3.94206 1.36592 0
M  V30 11671 H 1124.47 -3.18751 0.509666 0
M  V30 11672 H 1123.52 -2.53179 2.83909 0
M  V30 11673 H 1124.83 -3.48035 3.57314 0
M  V30 11674 H 1123.98 -5.55066 2.44922 0
M  V30 11675 H 1122.72 -4.60339 1.61056 0
M  V30 11676 H 1121.73 -3.95261 3.82163 0
M  V30 11677 H 1122.95 -4.9338 4.6664 0
M  V30 11678 H 1120.9 -5.9857 2.6842 0
M  V30 11679 H 1120.82 -6.14169 4.40832 0
M  V30 11680 H 1122.08 -6.94782 3.53409 0
M  V30 11681 N 1126.31 -1.30234 -0.887518 0
M  V30 11682 C 1127.56 -1.18675 -1.63587 0
M  V30 11683 C 1127.88 0.259342 -1.93268 0
M  V30 11684 O 1127.15 1.17523 -1.56733 0
M  V30 11685 H 1125.73 -0.436224 -0.606397 0
M  V30 11686 H 1128.39 -1.63326 -1.06351 0
M  V30 11687 H 1127.49 -1.74575 -2.58708 0
M  V30 11688 N 1127.79 1.09952 -1.12909 0
M  V30 11689 C 1129.04 1.82016 -0.887482 0
M  V30 11690 C 1129.37 1.85445 0.586546 0
M  V30 11691 O 1128.62 1.31446 1.44984 0
M  V30 11692 C 1128.92 3.28252 -1.41369 0
M  V30 11693 C 1128.59 3.44965 -2.90362 0
M  V30 11694 C 1127.25 3.49233 -3.31043 0
M  V30 11695 C 1129.6 3.49947 -3.86247 0
M  V30 11696 C 1126.93 3.56057 -4.66305 0
M  V30 11697 C 1129.28 3.58305 -5.21345 0
M  V30 11698 C 1127.94 3.6084 -5.61561 0
M  V30 11699 H 1127.21 0.666046 -0.324753 0
M  V30 11700 H 1129.86 1.29568 -1.41012 0
M  V30 11701 H 1128.17 3.83301 -0.81163 0
M  V30 11702 H 1129.86 3.82533 -1.20289 0
M  V30 11703 H 1126.45 3.42323 -2.57901 0
M  V30 11704 H 1130.64 3.45895 -3.55908 0
M  V30 11705 H 1125.89 3.56305 -4.96847 0
M  V30 11706 H 1130.07 3.61104 -5.95463 0
M  V30 11707 H 1127.69 3.6588 -6.6636 0
M  V30 11708 N 1129.27 0.921757 1.27833 0
M  V30 11709 C 1130.51 0.566288 1.96399 0
M  V30 11710 C 1130.87 -0.875149 1.70895 0
M  V30 11711 O 1132.07 -1.3386 2.33099 0
M  V30 11712 C 1130.34 0.876329 3.4649 0
M  V30 11713 S 1131.9 0.628481 4.34276 0
M  V30 11714 H 1128.72 0.209246 0.679512 0
M  V30 11715 H 1131.32 1.18892 1.55193 0
M  V30 11716 H 1130.03 1.92319 3.62549 0
M  V30 11717 H 1129.56 0.242658 3.92651 0
M  V30 11718 H 1131.57 -0.516493 4.93505 0
M  V30 11719 N 1130.75 -1.41857 0.686609 0
M  V30 11720 C 1131.68 -2.29188 -0.0234289 0
M  V30 11721 C 1132.69 -1.44311 -0.753541 0
M  V30 11722 O 1133.88 -1.67908 -0.605734 0
M  V30 11723 C 1130.98 -3.21991 -1.05713 0
M  V30 11724 C 1130.15 -4.35581 -0.398453 0
M  V30 11725 C 1129.21 -5.09022 -1.33354 0
M  V30 11726 O 1128.24 -5.63126 -0.829334 0
M  V30 11727 N 1129.44 -5.15643 -2.66632 0
M  V30 11728 H 1132.21 -2.90766 0.726295 0
M  V30 11729 H 1129.77 -1.52912 0.531937 0
M  V30 11730 H 1131.76 -3.6799 -1.68421 0
M  V30 11731 H 1130.33 -2.61782 -1.70847 0
M  V30 11732 H 1129.55 -3.92079 0.408358 0
M  V30 11733 H 1130.84 -5.08765 0.0599239 0
M  V30 11734 H 1130.23 -4.73118 -3.10122 0
M  V30 11735 H 1128.79 -5.65248 -3.24558 0
M  V30 11736 N 1132.22 -0.430739 -1.51599 0
M  V30 11737 C 1133.47 0.138133 -2.02329 0
M  V30 11738 C 1133.8 1.42934 -1.31466 0
M  V30 11739 O 1133.08 1.89743 -0.427551 0
M  V30 11740 C 1133.36 0.363677 -3.58259 0
M  V30 11741 C 1133.21 -0.94572 -4.39746 0
M  V30 11742 C 1134.53 1.13637 -4.25176 0
M  V30 11743 H 1131.65 0.0487287 -0.735387 0
M  V30 11744 H 1134.29 -0.568444 -1.81297 0
M  V30 11745 H 1132.44 0.965552 -3.7631 0
M  V30 11746 H 1134.12 -1.58107 -4.33359 0
M  V30 11747 H 1132.36 -1.55183 -4.05094 0
M  V30 11748 H 1133.03 -0.742031 -5.4699 0
M  V30 11749 H 1135.51 0.626608 -4.11355 0
M  V30 11750 H 1134.38 1.26294 -5.34173 0
M  V30 11751 H 1134.64 2.16273 -3.85588 0
M  V30 11752 N 1133.7 1.56767 -0.161869 0
M  V30 11753 C 1134.95 1.96885 0.486215 0
M  V30 11754 C 1135.28 1.04745 1.6353 0
M  V30 11755 O 1134.56 0.0927156 1.94279 0
M  V30 11756 C 1134.84 3.46559 0.97822 0
M  V30 11757 C 1134.69 4.49477 -0.17039 0
M  V30 11758 C 1136.01 3.99093 1.85506 0
M  V30 11759 H 1133.13 0.715857 0.175265 0
M  V30 11760 H 1135.77 1.88399 -0.246098 0
M  V30 11761 H 1133.92 3.53921 1.60225 0
M  V30 11762 H 1135.59 4.54183 -0.807205 0
M  V30 11763 H 1133.84 4.25838 -0.827322 0
M  V30 11764 H 1134.51 5.51578 0.21583 0
M  V30 11765 H 1136.98 3.94303 1.32908 0
M  V30 11766 H 1135.86 5.04255 2.16837 0
M  V30 11767 H 1136.12 3.4234 2.79742 0
M  V30 11768 N 1135.18 -0.111886 1.57202 0
M  V30 11769 C 1136.43 -0.817022 1.84412 0
M  V30 11770 C 1136.74 -1.80708 0.748608 0
M  V30 11771 O 1137.95 -2.55891 0.907319 0
M  V30 11772 C 1136.4 -1.50376 3.26979 0
M  V30 11773 C 1136.01 -0.554334 4.44557 0
M  V30 11774 C 1137.76 -2.19361 3.63429 0
M  V30 11775 C 1135.66 -1.24471 5.78153 0
M  V30 11776 H 1134.59 -0.308864 0.687836 0
M  V30 11777 H 1137.24 -0.0698109 1.83367 0
M  V30 11778 H 1135.63 -2.29785 3.22514 0
M  V30 11779 H 1136.8 0.207045 4.60335 0
M  V30 11780 H 1135.12 0.0289261 4.1639 0
M  V30 11781 H 1137.71 -2.71716 4.60515 0
M  V30 11782 H 1138.06 -2.97488 2.91215 0
M  V30 11783 H 1138.59 -1.46833 3.69709 0
M  V30 11784 H 1135.33 -0.504584 6.53555 0
M  V30 11785 H 1134.85 -1.97792 5.66249 0
M  V30 11786 H 1136.53 -1.77591 6.2215 0
M  V30 11787 N 1136.66 -1.52894 -0.382264 0
M  V30 11788 C 1137.88 -1.72453 -1.15216 0
M  V30 11789 C 1138.31 -0.444925 -1.82762 0
M  V30 11790 O 1137.67 0.599825 -1.7109 0
M  V30 11791 C 1137.71 -2.87939 -2.17079 0
M  V30 11792 O 1136.82 -2.55383 -3.23811 0
M  V30 11793 H 1136.16 -0.57324 -0.335099 0
M  V30 11794 H 1138.69 -1.99713 -0.444495 0
M  V30 11795 H 1138.7 -3.13628 -2.60963 0
M  V30 11796 H 1137.37 -3.80765 -1.67305 0
M  V30 11797 H 1135.95 -2.40457 -2.85018 0
M  V30 11798 N 1138.14 0.641106 -1.43971 0
M  V30 11799 C 1139.36 1.43324 -1.4991 0
M  V30 11800 C 1139.79 1.87705 -0.121908 0
M  V30 11801 O 1139.15 1.58127 0.886875 0
M  V30 11802 C 1139.19 2.63637 -2.46025 0
M  V30 11803 O 1138.3 3.63123 -1.95488 0
M  V30 11804 H 1137.64 0.429252 -0.506595 0
M  V30 11805 H 1140.17 0.783427 -1.89007 0
M  V30 11806 H 1140.18 3.11304 -2.63731 0
M  V30 11807 H 1138.85 2.30678 -3.46064 0
M  V30 11808 H 1137.43 3.22332 -1.87501 0
M  V30 11809 N 1139.62 1.30703 0.880598 0
M  V30 11810 C 1140.56 1.17369 2.00817 0
M  V30 11811 C 1141.56 0.0845159 1.69189 0
M  V30 11812 O 1142.76 0.245673 1.78316 0
M  V30 11813 H 1139.14 0.363107 0.658527 0
M  V30 11814 H 1141.11 2.12789 2.09197 0
M  V30 11815 C 1139.86 0.886851 3.362 0
M  V30 11816 H 1139.18 1.71704 3.61051 0
M  V30 11817 H 1140.62 0.83368 4.15723 0
M  V30 11818 C 1139.08 -0.410293 3.34392 0
M  V30 11819 O 1139.61 -1.43044 3.75368 0
M  V30 11820 N 1137.82 -0.423023 2.87505 0
M  V30 11821 H 1137.36 0.407637 2.54354 0
M  V30 11822 H 1137.32 -1.29086 2.86678 0
M  V30 11823 N 1141.09 -1.09351 1.1349 0
M  V30 11824 C 1142.02 -2.18037 0.835588 0
M  V30 11825 C 1143 -1.68856 -0.205373 0
M  V30 11826 O 1144.19 -1.94094 -0.0641357 0
M  V30 11827 C 1141.32 -3.45987 0.301661 0
M  V30 11828 C 1140.27 -4.08507 1.27696 0
M  V30 11829 C 1139.6 -5.31292 0.602758 0
M  V30 11830 C 1140.9 -4.50916 2.63575 0
M  V30 11831 H 1142.59 -2.43332 1.74441 0
M  V30 11832 H 1140.14 -1.1695 0.840166 0
M  V30 11833 H 1142.09 -4.21324 0.079928 0
M  V30 11834 H 1140.82 -3.20217 -0.642552 0
M  V30 11835 H 1139.48 -3.3519 1.4847 0
M  V30 11836 H 1139.12 -5.01802 -0.346953 0
M  V30 11837 H 1138.82 -5.74075 1.25345 0
M  V30 11838 H 1140.35 -6.09351 0.390325 0
M  V30 11839 H 1141.76 -5.17474 2.46765 0
M  V30 11840 H 1140.16 -5.04586 3.24827 0
M  V30 11841 H 1141.23 -3.63279 3.2118 0
M  V30 11842 N 1142.57 -0.928524 -1.27343 0
M  V30 11843 C 1143.99 -0.62889 -1.46687 0
M  V30 11844 C 1144.19 0.821592 -1.83989 0
M  V30 11845 O 1143.24 1.59941 -1.95385 0
M  V30 11846 C 1144.56 -1.57947 -2.55878 0
M  V30 11847 C 1146.1 -1.58778 -2.69738 0
M  V30 11848 C 1146.58 -2.52535 -3.82087 0
M  V30 11849 N 1148.07 -2.50747 -3.89462 0
M  V30 11850 C 1148.81 -3.19981 -4.75814 0
M  V30 11851 N 1148.3 -3.98598 -5.66649 0
M  V30 11852 N 1150.09 -3.08996 -4.69551 0
M  V30 11853 H 1142.25 -1.86625 -1.01414 0
M  V30 11854 H 1144.51 -0.801293 -0.50659 0
M  V30 11855 H 1144.21 -2.61427 -2.35264 0
M  V30 11856 H 1144.09 -1.3218 -3.53282 0
M  V30 11857 H 1146.48 -0.560292 -2.89732 0
M  V30 11858 H 1146.56 -1.88594 -1.72817 0
M  V30 11859 H 1146.2 -3.55395 -3.62846 0
M  V30 11860 H 1146.13 -2.20015 -4.78436 0
M  V30 11861 H 1148.62 -1.93651 -3.24511 0
M  V30 11862 H 1148.93 -4.4841 -6.29403 0
M  V30 11863 H 1147.28 -4.02701 -5.66442 0
M  V30 11864 H 1150.47 -2.4707 -3.97585 0
M  V30 11865 H 1150.64 -3.63223 -5.36631 0
M  V30 11866 N 1144.05 1.41491 -0.694123 0
M  V30 11867 C 1145.33 1.95004 -0.152571 0
M  V30 11868 C 1145.71 1.63357 1.33707 0
M  V30 11869 O 1145.05 0.939815 2.08278 0
M  V30 11870 C 1145.26 3.46186 -0.44232 0
M  V30 11871 C 1146.61 4.22991 -0.369279 0
M  V30 11872 O 1147.64 3.54198 -0.377152 0
M  V30 11873 O 1146.5 5.45514 -0.328145 0
M  V30 11874 H 1143.59 0.826879 -0.0141253 0
M  V30 11875 H 1146.14 1.51216 -0.770183 0
M  V30 11876 H 1144.91 3.62497 -1.47348 0
M  V30 11877 H 1144.53 3.97064 0.206337 0
M  V30 11878 N 1145.53 0.438773 1.51369 0
M  V30 11879 C 1146.78 -0.126962 2.01701 0
M  V30 11880 C 1147.1 -1.43086 1.32481 0
M  V30 11881 O 1146.37 -1.90427 0.459823 0
M  V30 11882 H 1144.95 -0.0499092 0.745331 0
M  V30 11883 H 1147.61 0.581808 1.86013 0
M  V30 11884 H 1146.7 -0.301836 3.10637 0
M  V30 11885 N 1147.01 -1.56678 0.170181 0
M  V30 11886 C 1148.25 -1.9714 -0.475767 0
M  V30 11887 C 1148.58 -1.05611 -1.62972 0
M  V30 11888 O 1147.86 -0.103017 -1.94227 0
M  V30 11889 C 1148.14 -3.47072 -0.959828 0
M  V30 11890 C 1148 -4.4938 0.194225 0
M  V30 11891 C 1149.31 -4.00071 -1.83387 0
M  V30 11892 H 1146.43 -0.716776 -0.171466 0
M  V30 11893 H 1149.08 -1.88266 0.256086 0
M  V30 11894 H 1147.23 -3.54766 -1.58346 0
M  V30 11895 H 1148.9 -4.53748 0.83128 0
M  V30 11896 H 1147.14 -4.25393 0.849893 0
M  V30 11897 H 1147.81 -5.51685 -0.186575 0
M  V30 11898 H 1150.29 -3.95002 -1.30815 0
M  V30 11899 H 1149.16 -5.05398 -2.14159 0
M  V30 11900 H 1149.42 -3.43819 -2.77923 0
M  V30 11901 N 1148.48 0.103547 -1.57259 0
M  V30 11902 C 1149.71 0.82624 -1.90232 0
M  V30 11903 C 1150.13 1.71902 -0.763641 0
M  V30 11904 O 1149.49 1.79043 0.285181 0
M  V30 11905 C 1149.54 1.62265 -3.22029 0
M  V30 11906 O 1148.64 2.73091 -3.09023 0
M  V30 11907 H 1147.98 0.227528 -0.6238 0
M  V30 11908 H 1150.51 0.081307 -2.04438 0
M  V30 11909 H 1150.52 2.00865 -3.5513 0
M  V30 11910 H 1149.2 0.967383 -4.04493 0
M  V30 11911 H 1147.78 2.3758 -2.8742 0
M  V30 11912 N 1149.96 1.53094 0.37415 0
M  V30 11913 C 1150.91 1.75307 1.45779 0
M  V30 11914 C 1151.9 0.607409 1.48994 0
M  V30 11915 O 1153.09 0.865777 1.5438 0
M  V30 11916 C 1150.22 1.93871 2.83318 0
M  V30 11917 C 1149.3 3.14413 2.84614 0
M  V30 11918 N 1149.69 4.36486 2.55565 0
M  V30 11919 C 1147.99 3.14961 3.15778 0
M  V30 11920 C 1148.69 5.18178 2.64322 0
M  V30 11921 N 1147.67 4.54196 2.98675 0
M  V30 11922 H 1151.47 2.67305 1.22169 0
M  V30 11923 H 1148.98 1.51603 0.582254 0
M  V30 11924 H 1150.98 2.0791 3.61357 0
M  V30 11925 H 1149.64 1.03096 3.07898 0
M  V30 11926 H 1150.65 4.64366 2.29314 0
M  V30 11927 H 1147.33 2.34048 3.45728 0
M  V30 11928 H 1148.72 6.25529 2.45282 0
M  V30 11929 N 1151.44 -0.633461 1.44309 0
M  V30 11930 C 1152.37 -1.75676 1.53819 0
M  V30 11931 C 1153.35 -1.65537 0.391365 0
M  V30 11932 O 1154.54 -1.84332 0.611181 0
M  V30 11933 C 1151.67 -3.14197 1.47979 0
M  V30 11934 C 1150.62 -3.39122 2.61113 0
M  V30 11935 C 1149.95 -4.77648 2.40325 0
M  V30 11936 C 1151.25 -3.31914 4.03274 0
M  V30 11937 H 1152.94 -1.67974 2.47841 0
M  V30 11938 H 1150.49 -0.8067 1.19283 0
M  V30 11939 H 1152.44 -3.92553 1.53233 0
M  V30 11940 H 1151.16 -3.22677 0.504718 0
M  V30 11941 H 1149.82 -2.63145 2.55245 0
M  V30 11942 H 1149.47 -4.82829 1.41016 0
M  V30 11943 H 1149.17 -4.95284 3.16177 0
M  V30 11944 H 1150.69 -5.58237 2.47394 0
M  V30 11945 H 1152.11 -4.00178 4.10524 0
M  V30 11946 H 1150.5 -3.61085 4.7931 0
M  V30 11947 H 1151.57 -2.29761 4.2701 0
M  V30 11948 N 1152.92 -1.31168 -0.873655 0
M  V30 11949 C 1154.17 -1.20003 -1.62118 0
M  V30 11950 C 1154.48 0.241505 -1.94103 0
M  V30 11951 O 1155.69 0.474801 -2.67316 0
M  V30 11952 C 1154.14 -2.10055 -2.92241 0
M  V30 11953 C 1153.75 -3.59183 -2.67752 0
M  V30 11954 C 1155.49 -2.07681 -3.70228 0
M  V30 11955 C 1153.4 -4.41255 -3.93761 0
M  V30 11956 H 1152.33 -0.445564 -0.608267 0
M  V30 11957 H 1154.98 -1.55997 -0.966287 0
M  V30 11958 H 1153.36 -1.66956 -3.59085 0
M  V30 11959 H 1154.54 -4.10504 -2.09339 0
M  V30 11960 H 1152.85 -3.63496 -2.03125 0
M  V30 11961 H 1155.45 -2.66246 -4.637 0
M  V30 11962 H 1155.79 -1.06304 -4.02499 0
M  V30 11963 H 1156.33 -2.48961 -3.10263 0
M  V30 11964 H 1153.07 -5.43372 -3.66643 0
M  V30 11965 H 1152.59 -3.94694 -4.51638 0
M  V30 11966 H 1154.26 -4.53278 -4.6168 0
M  V30 11967 N 1154.4 1.08748 -1.14068 0
M  V30 11968 C 1155.33 2.1544 -0.782199 0
M  V30 11969 C 1156.34 1.61575 0.199301 0
M  V30 11970 O 1157.53 1.78487 -0.0219044 0
M  V30 11971 C 1154.63 3.38611 -0.13983 0
M  V30 11972 C 1153.8 4.2187 -1.15518 0
M  V30 11973 C 1152.86 5.23451 -0.537216 0
M  V30 11974 O 1151.89 5.56424 -1.1992 0
M  V30 11975 N 1153.09 5.76413 0.6876 0
M  V30 11976 H 1155.86 2.46798 -1.70032 0
M  V30 11977 H 1153.42 1.24527 -1.03463 0
M  V30 11978 H 1155.41 4.03688 0.285999 0
M  V30 11979 H 1153.98 3.05084 0.681357 0
M  V30 11980 H 1153.2 3.52825 -1.75806 0
M  V30 11981 H 1154.49 4.74318 -1.84119 0
M  V30 11982 H 1153.88 5.51851 1.24406 0
M  V30 11983 H 1152.44 6.43189 1.05599 0
M  V30 11984 N 1155.87 0.935264 1.26849 0
M  V30 11985 C 1157.1 0.595704 1.98661 0
M  V30 11986 C 1157.52 -0.821001 1.69237 0
M  V30 11987 O 1156.88 -1.55211 0.936982 0
M  V30 11988 C 1156.93 0.837275 3.50745 0
M  V30 11989 O 1156.03 -0.0934914 4.12294 0
M  V30 11990 H 1155.38 0.228512 0.623441 0
M  V30 11991 H 1157.91 1.25658 1.61466 0
M  V30 11992 H 1157.92 0.755827 4.00938 0
M  V30 11993 H 1156.59 1.86993 3.71492 0
M  V30 11994 H 1155.17 0.0385124 3.7288 0
M  V30 11995 N 1157.35 -1.41121 0.701616 0
M  V30 11996 C 1158.6 -2.00733 0.234682 0
M  V30 11997 C 1158.92 -1.55869 -1.17174 0
M  V30 11998 O 1158.19 -0.791965 -1.79178 0
M  V30 11999 H 1156.77 -0.742288 0.0837745 0
M  V30 12000 H 1159.43 -1.7266 0.904127 0
M  V30 12001 H 1158.53 -3.11041 0.256831 0
M  V30 12002 N 1158.83 -0.446794 -1.51134 0
M  V30 12003 C 1160.08 0.116263 -2.01765 0
M  V30 12004 C 1160.4 1.42382 -1.33238 0
M  V30 12005 O 1159.67 1.9018 -0.469915 0
M  V30 12006 H 1158.25 0.0459558 -0.745585 0
M  V30 12007 H 1160.91 -0.591664 -1.85702 0
M  V30 12008 H 1160.01 0.285358 -3.10793 0
M  V30 12009 N 1160.31 1.56586 -0.178487 0
M  V30 12010 C 1161.24 2.21313 0.744486 0
M  V30 12011 C 1162.22 1.17098 1.23377 0
M  V30 12012 O 1163.4 1.45551 1.28563 0
M  V30 12013 C 1160.53 2.8595 1.97103 0
M  V30 12014 C 1159.49 3.96266 1.61732 0
M  V30 12015 C 1158.81 4.47987 2.91911 0
M  V30 12016 C 1160.11 5.15503 0.839868 0
M  V30 12017 H 1161.81 2.98698 0.204938 0
M  V30 12018 H 1159.35 1.43672 0.0971306 0
M  V30 12019 H 1161.31 3.29909 2.6218 0
M  V30 12020 H 1160.03 2.05946 2.53484 0
M  V30 12021 H 1158.69 3.52974 0.990208 0
M  V30 12022 H 1158.34 3.64765 3.46346 0
M  V30 12023 H 1158.04 5.22413 2.68995 0
M  V30 12024 H 1159.56 4.94637 3.58004 0
M  V30 12025 H 1160.98 5.5611 1.39337 0
M  V30 12026 H 1159.37 5.95891 0.709473 0
M  V30 12027 H 1160.44 4.84628 -0.162396 0
M  V30 12028 N 1161.79 -0.095206 1.57312 0
M  V30 12029 C 1163.03 -0.797142 1.85715 0
M  V30 12030 C 1163.36 -1.79275 0.767171 0
M  V30 12031 O 1162.63 -1.94808 -0.206584 0
M  V30 12032 H 1161.21 -0.297382 0.685254 0
M  V30 12033 H 1163.87 -0.0768617 1.94748 0
M  V30 12034 H 1162.96 -1.32779 2.82447 0
M  V30 12035 N 1163.26 -1.53291 -0.366026 0
M  V30 12036 C 1164.51 -1.69117 -1.10653 0
M  V30 12037 C 1164.83 -0.445327 -1.89847 0
M  V30 12038 O 1164.1 0.540616 -1.88293 0
M  V30 12039 H 1162.68 -0.623446 -0.41149 0
M  V30 12040 H 1165.35 -1.90479 -0.412749 0
M  V30 12041 H 1164.44 -2.55205 -1.79658 0
M  V30 12042 N 1164.74 0.6258 -1.44643 0
M  V30 12043 C 1165.67 1.74858 -1.54748 0
M  V30 12044 C 1166.65 1.65327 -0.400138 0
M  V30 12045 O 1167.84 1.84005 -0.620948 0
M  V30 12046 C 1164.97 3.13408 -1.49643 0
M  V30 12047 C 1163.92 3.37733 -2.62908 0
M  V30 12048 C 1163.25 4.76367 -2.42855 0
M  V30 12049 C 1164.55 3.29771 -4.05029 0
M  V30 12050 H 1166.24 1.66658 -2.48728 0
M  V30 12051 H 1163.79 0.800363 -1.19709 0
M  V30 12052 H 1165.74 3.91735 -1.55312 0
M  V30 12053 H 1164.47 3.22404 -0.521824 0
M  V30 12054 H 1163.12 2.61788 -2.56637 0
M  V30 12055 H 1162.77 4.82074 -1.43575 0
M  V30 12056 H 1162.47 4.936 -3.18799 0
M  V30 12057 H 1164 5.56917 -2.50351 0
M  V30 12058 H 1165.41 3.97996 -4.12641 0
M  V30 12059 H 1163.81 3.58538 -4.81218 0
M  V30 12060 H 1164.88 2.27493 -4.28223 0
M  V30 12061 N 1166.22 1.31629 0.866686 0
M  V30 12062 C 1167.15 1.15377 1.98042 0
M  V30 12063 C 1168.17 0.0919633 1.6254 0
M  V30 12064 O 1169.35 0.339775 1.75236 0
M  V30 12065 C 1166.45 0.741295 3.30693 0
M  V30 12066 C 1165.63 1.88882 3.94516 0
M  V30 12067 C 1164.69 1.46186 5.05486 0
M  V30 12068 O 1163.71 2.17202 5.26129 0
M  V30 12069 N 1164.91 0.351096 5.79437 0
M  V30 12070 H 1167.68 2.11309 2.12529 0
M  V30 12071 H 1165.24 1.24007 1.04085 0
M  V30 12072 H 1167.23 0.438313 4.02319 0
M  V30 12073 H 1165.8 -0.12651 3.12344 0
M  V30 12074 H 1165.02 2.35894 3.15828 0
M  V30 12075 H 1166.31 2.65734 4.33892 0
M  V30 12076 H 1165.71 -0.240245 5.6519 0
M  V30 12077 H 1164.27 0.107663 6.51711 0
M  V30 12078 N 1167.7 -1.08142 1.14644 0
M  V30 12079 C 1168.65 -2.13338 0.804412 0
M  V30 12080 C 1169.63 -1.59554 -0.207664 0
M  V30 12081 O 1170.83 -1.76997 -0.00960233 0
M  V30 12082 C 1167.95 -3.42102 0.286579 0
M  V30 12083 C 1167.04 -4.0276 1.32834 0
M  V30 12084 N 1167.43 -4.37789 2.53327 0
M  V30 12085 C 1165.73 -4.30129 1.17919 0
M  V30 12086 C 1166.43 -4.85748 3.20037 0
M  V30 12087 N 1165.41 -4.84021 2.47436 0
M  V30 12088 H 1169.21 -2.38243 1.72097 0
M  V30 12089 H 1166.72 -1.25501 1.0307 0
M  V30 12090 H 1168.72 -4.16894 0.0232417 0
M  V30 12091 H 1167.38 -3.18645 -0.624142 0
M  V30 12092 H 1168.39 -4.28731 2.90534 0
M  V30 12093 H 1165.07 -4.16212 0.327713 0
M  V30 12094 H 1166.46 -5.22208 4.22786 0
M  V30 12095 N 1169.18 -0.941978 -1.26351 0
M  V30 12096 C 1170.13 -0.443011 -2.28342 0
M  V30 12097 C 1171.12 0.48013 -1.62453 0
M  V30 12098 O 1172.33 0.358255 -1.76399 0
M  V30 12099 H 1168.7 -0.124728 -0.741584 0
M  V30 12100 H 1170.67 -1.31573 -2.67827 0
M  V30 12101 C 1169.42 0.275675 -3.46605 0
M  V30 12102 H 1168.74 -0.425504 -3.97529 0
M  V30 12103 H 1170.18 0.589012 -4.19889 0
M  V30 12104 C 1168.64 1.49376 -3.01974 0
M  V30 12105 O 1169.17 2.59203 -3.06883 0
M  V30 12106 N 1167.38 1.35061 -2.57307 0
M  V30 12107 H 1166.93 0.457045 -2.53513 0
M  V30 12108 H 1166.88 2.16681 -2.27809 0
M  V30 12109 N 1170.66 1.40747 -0.709091 0
M  V30 12110 C 1171.88 2.05319 -0.255258 0
M  V30 12111 C 1172.3 1.53406 1.10054 0
M  V30 12112 O 1171.66 0.687905 1.69039 0
M  V30 12113 C 1171.71 3.60835 -0.219251 0
M  V30 12114 O 1171.43 4.1083 -1.52151 0
M  V30 12115 C 1172.93 4.42572 0.253927 0
M  V30 12116 H 1170.15 0.660904 -0.115959 0
M  V30 12117 H 1172.69 1.80274 -0.965474 0
M  V30 12118 H 1170.85 3.84872 0.441882 0
M  V30 12119 H 1171.26 5.04979 -1.41764 0
M  V30 12120 H 1172.74 5.51529 0.22798 0
M  V30 12121 H 1173.21 4.19673 1.29504 0
M  V30 12122 H 1173.82 4.23629 -0.376694 0
M  V30 12123 N 1172.13 0.454803 1.50895 0
M  V30 12124 C 1173.38 -0.105927 2.02523 0
M  V30 12125 C 1173.71 -1.40825 1.33724 0
M  V30 12126 O 1172.99 -1.89038 0.457683 0
M  V30 12127 C 1173.27 -0.306635 3.58792 0
M  V30 12128 C 1173.12 1.01556 4.38185 0
M  V30 12129 C 1174.44 -1.06858 4.2693 0
M  V30 12130 H 1171.56 -0.0370232 0.736069 0
M  V30 12131 H 1174.2 0.597215 1.8037 0
M  V30 12132 H 1172.35 -0.905563 3.77799 0
M  V30 12133 H 1174.03 1.64981 4.30789 0
M  V30 12134 H 1172.27 1.61608 4.02574 0
M  V30 12135 H 1172.94 0.828959 5.4574 0
M  V30 12136 H 1175.42 -0.561086 4.123 0
M  V30 12137 H 1174.29 -1.1778 5.36115 0
M  V30 12138 H 1174.55 -2.10111 3.8898 0
M  V30 12139 N 1173.61 -1.56489 0.186789 0
M  V30 12140 C 1174.54 -2.21705 -0.732739 0
M  V30 12141 C 1175.52 -1.17751 -1.22755 0
M  V30 12142 O 1176.71 -1.46231 -1.27789 0
M  V30 12143 C 1173.84 -2.86992 -1.95584 0
M  V30 12144 C 1172.79 -3.97118 -1.59628 0
M  V30 12145 C 1172.12 -4.49529 -2.89531 0
M  V30 12146 C 1173.42 -5.15941 -0.812518 0
M  V30 12147 H 1175.11 -2.98802 -0.189094 0
M  V30 12148 H 1172.66 -1.43722 -0.0895099 0
M  V30 12149 H 1174.61 -3.31295 -2.60426 0
M  V30 12150 H 1173.33 -2.07287 -2.52388 0
M  V30 12151 H 1171.99 -3.53494 -0.971475 0
M  V30 12152 H 1171.64 -3.66596 -3.44407 0
M  V30 12153 H 1171.34 -5.23832 -2.66221 0
M  V30 12154 H 1172.87 -4.96528 -3.55376 0
M  V30 12155 H 1174.28 -5.56841 -1.36386 0
M  V30 12156 H 1172.68 -5.96259 -0.677862 0
M  V30 12157 H 1173.75 -4.84535 0.188095 0
M  V30 12158 N 1175.09 0.086862 -1.5736 0
M  V30 12159 C 1176.34 0.790008 -1.8678 0
M  V30 12160 C 1176.67 1.77977 -0.777042 0
M  V30 12161 O 1175.94 1.93317 0.21419 0
M  V30 12162 C 1176.23 1.51143 -3.26845 0
M  V30 12163 C 1176.08 0.539106 -4.46558 0
M  V30 12164 C 1177.4 2.46003 -3.64926 0
M  V30 12165 H 1174.52 0.285741 -0.679354 0
M  V30 12166 H 1177.16 0.0534655 -1.89925 0
M  V30 12167 H 1175.31 2.13928 -3.24295 0
M  V30 12168 H 1176.98 -0.0823679 -4.61226 0
M  V30 12169 H 1175.22 -0.146842 -4.33551 0
M  V30 12170 H 1175.9 1.0812 -5.41308 0
M  V30 12171 H 1178.37 1.93306 -3.68473 0
M  V30 12172 H 1177.25 2.93493 -4.63846 0
M  V30 12173 H 1177.51 3.30133 -2.94049 0
M  V30 12174 N 1176.57 1.53483 0.357892 0
M  V30 12175 C 1177.82 1.69701 1.09754 0
M  V30 12176 C 1178.14 0.455389 1.89608 0
M  V30 12177 O 1177.41 -0.530623 1.88577 0
M  V30 12178 H 1175.99 0.62562 0.408178 0
M  V30 12179 H 1178.65 1.90696 0.402641 0
M  V30 12180 H 1177.74 2.56154 1.78302 0
M  V30 12181 N 1178.05 -0.61812 1.44973 0
M  V30 12182 C 1179.29 -1.37754 1.4965 0
M  V30 12183 C 1179.65 -1.91945 0.132201 0
M  V30 12184 O 1178.94 -1.71493 -0.854439 0
M  V30 12185 C 1179.13 -2.55143 2.50274 0
M  V30 12186 C 1178.96 -2.12446 3.96354 0
M  V30 12187 C 1177.73 -1.99112 4.64416 0
M  V30 12188 C 1179.93 -1.70557 4.85196 0
M  V30 12189 N 1177.91 -1.50114 5.95264 0
M  V30 12190 C 1179.28 -1.329 6.05589 0
M  V30 12191 C 1181.34 -1.58054 4.72147 0
M  V30 12192 C 1180.04 -0.839882 7.1438 0
M  V30 12193 C 1182.07 -1.10547 5.80976 0
M  V30 12194 C 1181.43 -0.738477 7.00518 0
M  V30 12195 H 1177.53 -0.498393 0.602601 0
M  V30 12196 H 1180.11 -0.70775 1.81381 0
M  V30 12197 H 1178.28 -3.19732 2.20513 0
M  V30 12198 H 1180.02 -3.21988 2.45166 0
M  V30 12199 H 1176.77 -2.19971 4.19416 0
M  V30 12200 H 1177.19 -1.27878 6.64813 0
M  V30 12201 H 1181.84 -1.85056 3.8015 0
M  V30 12202 H 1179.55 -0.557395 8.06175 0
M  V30 12203 H 1183.14 -1.01314 5.72911 0
M  V30 12204 H 1182.02 -0.376513 7.83296 0
M  V30 12205 N 1179.52 -1.32087 -0.859693 0
M  V30 12206 C 1180.93 -1.20107 -1.42938 0
M  V30 12207 C 1181.29 0.188411 -1.95293 0
M  V30 12208 O 1180.41 1.08683 -1.87128 0
M  V30 12209 C 1181.01 -2.17436 -2.59821 0
M  V30 12210 C 1179.56 -2.09359 -3.12803 0
M  V30 12211 C 1178.71 -2.06086 -1.85537 0
M  V30 12212 H 1181.66 -1.43989 -0.667302 0
M  V30 12213 H 1181.68 -1.76996 -3.36828 0
M  V30 12214 H 1181.2 -3.18555 -2.21685 0
M  V30 12215 H 1179.3 -1.1147 -3.55535 0
M  V30 12216 H 1179.41 -2.98947 -3.74389 0
M  V30 12217 H 1177.77 -1.51251 -2.04928 0
M  V30 12218 H 1178.56 -3.08978 -1.49625 0
M  V30 12219 N 1181 1.07532 -1.15215 0
M  V30 12220 C 1182.42 1.32183 -0.894411 0
M  V30 12221 C 1182.62 1.96188 0.459614 0
M  V30 12222 O 1181.67 2.22057 1.20195 0
M  V30 12223 C 1182.99 2.21473 -2.03397 0
M  V30 12224 C 1184.53 2.34927 -2.06829 0
M  V30 12225 C 1185.01 3.27564 -3.20103 0
M  V30 12226 N 1186.5 3.35144 -3.19738 0
M  V30 12227 C 1187.24 4.0688 -4.04025 0
M  V30 12228 N 1186.73 4.81246 -4.98371 0
M  V30 12229 N 1188.52 4.02802 -3.92055 0
M  V30 12230 H 1180.68 0.643732 -2.0241 0
M  V30 12231 H 1182.94 0.346272 -0.882496 0
M  V30 12232 H 1182.64 1.81701 -3.01127 0
M  V30 12233 H 1182.52 3.2199 -1.96475 0
M  V30 12234 H 1184.91 2.73953 -1.09699 0
M  V30 12235 H 1184.99 1.34121 -2.17819 0
M  V30 12236 H 1184.63 2.89258 -4.17483 0
M  V30 12237 H 1184.56 4.2832 -3.06349 0
M  V30 12238 H 1187.05 2.82135 -2.51412 0
M  V30 12239 H 1187.36 5.33472 -5.59131 0
M  V30 12240 H 1185.71 4.80268 -5.02362 0
M  V30 12241 H 1188.9 3.43816 -3.17661 0
M  V30 12242 H 1189.07 4.58443 -4.57967 0
M  V30 12243 N 1182.48 0.948665 1.2585 0
M  V30 12244 C 1183.43 0.455115 2.28104 0
M  V30 12245 C 1184.42 -0.471508 1.62706 0
M  V30 12246 O 1185.63 -0.348895 1.76586 0
M  V30 12247 H 1182 0.128659 0.740912 0
M  V30 12248 H 1183.97 1.32991 2.67125 0
M  V30 12249 C 1182.72 -0.25729 3.46747 0
M  V30 12250 H 1182.05 0.44658 3.97298 0
M  V30 12251 H 1183.49 -0.566736 4.20195 0
M  V30 12252 C 1181.95 -1.47772 3.02762 0
M  V30 12253 O 1182.48 -2.57571 3.08253 0
M  V30 12254 N 1180.68 -1.33694 2.5802 0
M  V30 12255 H 1180.23 -0.443595 2.53752 0
M  V30 12256 H 1180.19 -2.1547 2.28954 0
M  V30 12257 N 1183.96 -1.40369 0.716545 0
M  V30 12258 C 1185.2 -2.01657 0.265674 0
M  V30 12259 C 1185.56 -1.55803 -1.12886 0
M  V30 12260 O 1184.85 -0.76863 -1.75507 0
M  V30 12261 C 1185.05 -3.56257 0.285583 0
M  V30 12262 C 1184.88 -4.1712 1.68051 0
M  V30 12263 C 1183.65 -4.50512 2.28839 0
M  V30 12264 C 1185.84 -4.41913 2.63092 0
M  V30 12265 N 1183.83 -4.96774 3.60679 0
M  V30 12266 C 1185.2 -4.90179 3.79638 0
M  V30 12267 C 1187.25 -4.23953 2.61091 0
M  V30 12268 C 1185.95 -5.22369 4.94493 0
M  V30 12269 C 1187.98 -4.57246 3.75074 0
M  V30 12270 C 1187.34 -5.05701 4.90353 0
M  V30 12271 H 1183.44 -0.768801 0.14307 0
M  V30 12272 H 1186.03 -1.70585 0.938548 0
M  V30 12273 H 1184.2 -3.86757 -0.35686 0
M  V30 12274 H 1185.93 -4.0429 -0.182091 0
M  V30 12275 H 1182.68 -4.37678 1.80929 0
M  V30 12276 H 1183.11 -5.24286 4.28315 0
M  V30 12277 H 1187.75 -3.8571 1.73169 0
M  V30 12278 H 1185.47 -5.59526 5.83058 0
M  V30 12279 H 1189.05 -4.44989 3.74802 0
M  V30 12280 H 1187.93 -5.30977 5.77091 0
M  V30 12281 N 1185.44 -0.462799 -1.50652 0
M  V30 12282 C 1186.85 -0.11648 -1.59174 0
M  V30 12283 C 1187.05 1.37638 -1.47167 0
M  V30 12284 O 1186.11 2.14886 -1.3259 0
M  V30 12285 C 1187.42 -0.659289 -2.93383 0
M  V30 12286 C 1188.97 -0.62198 -3.06758 0
M  V30 12287 C 1189.44 -1.14219 -4.43529 0
M  V30 12288 N 1190.94 -1.10125 -4.49919 0
M  V30 12289 C 1191.67 -1.47436 -5.54121 0
M  V30 12290 N 1191.17 -1.92156 -6.65618 0
M  V30 12291 N 1192.96 -1.39091 -5.44619 0
M  V30 12292 H 1185.11 -1.43383 -1.56701 0
M  V30 12293 H 1187.37 -0.592438 -0.740082 0
M  V30 12294 H 1187.08 -1.70477 -3.07621 0
M  V30 12295 H 1186.95 -0.0982388 -3.77072 0
M  V30 12296 H 1189.34 0.414576 -2.92173 0
M  V30 12297 H 1189.42 -1.21974 -2.24847 0
M  V30 12298 H 1189.07 -2.17734 -4.58862 0
M  V30 12299 H 1189 -0.52073 -5.24019 0
M  V30 12300 H 1191.49 -0.773154 -3.69906 0
M  V30 12301 H 1191.8 -2.18796 -7.4118 0
M  V30 12302 H 1190.14 -1.96103 -6.6676 0
M  V30 12303 H 1193.34 -1.04001 -4.564 0
M  V30 12304 H 1193.51 -1.68496 -6.2571 0
M  V30 12305 N 1186.91 1.56388 -0.195085 0
M  V30 12306 C 1187.85 2.16316 0.757643 0
M  V30 12307 C 1188.86 1.12498 1.17678 0
M  V30 12308 O 1190.05 1.39591 1.11251 0
M  V30 12309 C 1187.15 2.7104 2.03447 0
M  V30 12310 C 1186.32 3.99759 1.77514 0
M  V30 12311 C 1185.38 4.3931 2.89644 0
M  V30 12312 O 1184.41 5.06732 2.59252 0
M  V30 12313 N 1185.61 4.02813 4.17998 0
M  V30 12314 H 1188.37 2.98696 0.24517 0
M  V30 12315 H 1185.93 1.61895 -0.0131194 0
M  V30 12316 H 1187.93 2.94483 2.776 0
M  V30 12317 H 1186.5 1.93114 2.45817 0
M  V30 12318 H 1185.72 3.84448 0.8714 0
M  V30 12319 H 1187 4.83782 1.57585 0
M  V30 12320 H 1186.4 3.4858 4.45543 0
M  V30 12321 H 1184.96 4.31206 4.88779 0
M  V30 12322 N 1188.39 -0.0785156 1.57404 0
M  V30 12323 C 1189.34 -1.09402 2.03224 0
M  V30 12324 C 1190.31 -1.38849 0.911596 0
M  V30 12325 O 1191.49 -1.50031 1.17878 0
M  V30 12326 C 1188.63 -2.40444 2.47549 0
M  V30 12327 C 1187.75 -2.17585 3.73203 0
M  V30 12328 C 1186.88 -3.42143 4.06339 0
M  V30 12329 C 1185.92 -3.14619 5.25054 0
M  V30 12330 N 1185.06 -4.31489 5.5386 0
M  V30 12331 H 1189.9 -0.696307 2.89751 0
M  V30 12332 H 1187.44 -0.332261 1.43298 0
M  V30 12333 H 1189.39 -3.16944 2.71298 0
M  V30 12334 H 1188.02 -2.78031 1.64009 0
M  V30 12335 H 1187.08 -1.3181 3.56834 0
M  V30 12336 H 1188.39 -1.93249 4.59844 0
M  V30 12337 H 1187.54 -4.27042 4.30953 0
M  V30 12338 H 1186.28 -3.69549 3.18253 0
M  V30 12339 H 1185.29 -2.28116 5.00243 0
M  V30 12340 H 1186.51 -2.88543 6.14752 0
M  V30 12341 H 1184.46 -4.58939 4.68734 0
M  V30 12342 H 1184.37 -4.10403 6.34906 0
M  V30 12343 H 1185.64 -5.17404 5.83021 0
M  V30 12344 N 1189.87 -1.5367 -0.349747 0
M  V30 12345 C 1190.78 -1.84207 -1.45275 0
M  V30 12346 C 1191.8 -0.731695 -1.57868 0
M  V30 12347 O 1192.97 -1.02337 -1.73462 0
M  V30 12348 C 1190.04 -2.0398 -2.80345 0
M  V30 12349 C 1189.1 -3.27853 -2.77148 0
M  V30 12350 C 1188.33 -3.46673 -4.05775 0
M  V30 12351 O 1188.55 -2.69457 -5.02741 0
M  V30 12352 O 1187.49 -4.40082 -4.10623 0
M  V30 12353 H 1191.31 -2.77947 -1.22389 0
M  V30 12354 H 1188.9 -1.39247 -0.541345 0
M  V30 12355 H 1190.78 -2.18466 -3.60348 0
M  V30 12356 H 1189.46 -1.13429 -3.03176 0
M  V30 12357 H 1188.36 -3.18776 -1.95787 0
M  V30 12358 H 1189.7 -4.18377 -2.59271 0
M  V30 12359 N 1191.35 0.610423 -1.45298 0
M  V30 12360 C 1192.63 1.36966 -1.39641 0
M  V30 12361 C 1193.01 2.10998 -0.0655757 0
M  V30 12362 O 1192.35 2.07705 0.952407 0
M  V30 12363 C 1192.56 2.31885 -2.60826 0
M  V30 12364 C 1193.91 2.9458 -3.05791 0
M  V30 12365 O 1194.94 2.42207 -2.61179 0
M  V30 12366 O 1193.79 3.89639 -3.83202 0
M  V30 12367 H 1190.89 0.61401 -0.554004 0
M  V30 12368 H 1193.43 0.633748 -1.57422 0
M  V30 12369 H 1192.21 1.76421 -3.49272 0
M  V30 12370 H 1191.83 3.12861 -2.45364 0
M  V30 12371 N 1192.83 1.32541 0.852676 0
M  V30 12372 C 1193.78 1.18224 1.94954 0
M  V30 12373 C 1194.76 0.0886514 1.60656 0
M  V30 12374 O 1195.95 0.315359 1.74168 0
M  V30 12375 C 1193.08 0.909484 3.31034 0
M  V30 12376 C 1192.17 2.04486 3.71546 0
M  V30 12377 N 1192.56 3.29362 3.83868 0
M  V30 12378 C 1190.86 1.94848 4.01186 0
M  V30 12379 C 1191.56 4.0374 4.18771 0
M  V30 12380 N 1190.53 3.32054 4.30396 0
M  V30 12381 H 1194.34 2.12893 2.02617 0
M  V30 12382 H 1191.85 1.24349 1.04456 0
M  V30 12383 H 1193.85 0.787865 4.09388 0
M  V30 12384 H 1192.51 -0.0288163 3.24687 0
M  V30 12385 H 1193.52 3.64274 3.68137 0
M  V30 12386 H 1190.19 1.08591 4.0313 0
M  V30 12387 H 1191.58 5.11434 4.35757 0
M  V30 12388 N 1194.3 -1.0692 1.15784 0
M  V30 12389 C 1195.24 -2.14168 0.816375 0
M  V30 12390 C 1196.25 -1.61872 -0.17357 0
M  V30 12391 O 1197.44 -1.78429 0.0502973 0
M  V30 12392 C 1194.54 -3.38346 0.193682 0
M  V30 12393 C 1193.71 -4.19979 1.22215 0
M  V30 12394 C 1192.77 -5.2253 0.620424 0
M  V30 12395 O 1191.8 -5.54446 1.28757 0
M  V30 12396 N 1193 -5.77434 -0.595811 0
M  V30 12397 H 1195.76 -2.44062 1.73937 0
M  V30 12398 H 1193.32 -1.22865 1.05431 0
M  V30 12399 H 1195.32 -4.04092 -0.22174 0
M  V30 12400 H 1193.89 -3.06129 -0.632735 0
M  V30 12401 H 1193.11 -3.49984 1.81397 0
M  V30 12402 H 1194.39 -4.71329 1.91641 0
M  V30 12403 H 1193.79 -5.5376 -1.15611 0
M  V30 12404 H 1192.35 -6.44788 -0.953529 0
M  V30 12405 N 1195.78 -0.955326 -1.25345 0
M  V30 12406 C 1197.01 -0.627693 -1.97149 0
M  V30 12407 C 1197.43 0.800349 -1.70997 0
M  V30 12408 O 1196.78 1.53545 -0.986417 0
M  V30 12409 C 1196.83 -0.877675 -3.50684 0
M  V30 12410 O 1196.55 -2.24957 -3.75934 0
M  V30 12411 C 1198.06 -0.562524 -4.39716 0
M  V30 12412 H 1195.28 -0.235269 -0.628402 0
M  V30 12413 H 1197.82 -1.27989 -1.59496 0
M  V30 12414 H 1195.97 -0.271878 -3.86445 0
M  V30 12415 H 1196.39 -2.32022 -4.70389 0
M  V30 12416 H 1197.86 -0.787972 -5.46347 0
M  V30 12417 H 1198.34 0.50293 -4.36311 0
M  V30 12418 H 1198.95 -1.14767 -4.09522 0
M  V30 12419 N 1197.26 1.39987 -0.723979 0
M  V30 12420 C 1198.51 2.01514 -0.276365 0
M  V30 12421 C 1198.86 1.56399 1.12058 0
M  V30 12422 O 1198.16 0.777927 1.75097 0
M  V30 12423 C 1198.35 3.56101 -0.304472 0
M  V30 12424 C 1198.18 4.16223 -1.70261 0
M  V30 12425 C 1196.95 4.49292 -2.31225 0
M  V30 12426 C 1199.15 4.40512 -2.65431 0
M  V30 12427 N 1197.13 4.94854 -3.63308 0
M  V30 12428 C 1198.5 4.88158 -3.82232 0
M  V30 12429 C 1200.55 4.22562 -2.63335 0
M  V30 12430 C 1199.26 5.19739 -4.97256 0
M  V30 12431 C 1201.28 4.5525 -3.77493 0
M  V30 12432 C 1200.65 5.03093 -4.93028 0
M  V30 12433 H 1196.74 0.768031 -0.147146 0
M  V30 12434 H 1199.33 1.70085 -0.947581 0
M  V30 12435 H 1197.5 3.86941 0.336344 0
M  V30 12436 H 1199.23 4.04381 0.160647 0
M  V30 12437 H 1195.99 4.36712 -1.83248 0
M  V30 12438 H 1196.41 5.22007 -4.31089 0
M  V30 12439 H 1201.05 3.84786 -1.75212 0
M  V30 12440 H 1198.77 5.56426 -5.86017 0
M  V30 12441 H 1202.36 4.42995 -3.77156 0
M  V30 12442 H 1201.24 5.27909 -5.79898 0
M  V30 12443 N 1198.74 0.470782 1.50404 0
M  V30 12444 C 1200.16 0.124919 1.5911 0
M  V30 12445 C 1200.36 -1.36855 1.47895 0
M  V30 12446 O 1199.41 -2.1418 1.33728 0
M  V30 12447 C 1200.72 0.674839 2.9303 0
M  V30 12448 C 1202.27 0.638239 3.06424 0
M  V30 12449 C 1202.75 1.1657 4.42917 0
M  V30 12450 N 1204.24 1.1251 4.49328 0
M  V30 12451 C 1204.97 1.50373 5.53331 0
M  V30 12452 N 1204.47 1.95684 6.6459 0
M  V30 12453 N 1206.26 1.41978 5.43874 0
M  V30 12454 H 1198.41 1.44212 1.55938 0
M  V30 12455 H 1200.68 0.596354 0.73693 0
M  V30 12456 H 1200.38 1.72106 3.06712 0
M  V30 12457 H 1200.26 0.118234 3.77015 0
M  V30 12458 H 1202.64 -0.399075 2.92389 0
M  V30 12459 H 1202.72 1.23164 2.24197 0
M  V30 12460 H 1202.37 2.20164 4.57701 0
M  V30 12461 H 1202.3 0.548513 5.23736 0
M  V30 12462 H 1204.79 0.79276 3.69491 0
M  V30 12463 H 1205.1 2.22724 7.40009 0
M  V30 12464 H 1203.45 1.99636 6.65711 0
M  V30 12465 H 1206.64 1.0642 4.55842 0
M  V30 12466 H 1206.81 1.71812 6.24808 0
M  V30 12467 N 1200.22 -1.56282 0.203376 0
M  V30 12468 C 1201.17 -2.20822 -0.730784 0
M  V30 12469 C 1202.16 -1.18193 -1.21354 0
M  V30 12470 O 1203.37 -1.36318 -1.17547 0
M  V30 12471 H 1199.74 -0.707792 -0.254036 0
M  V30 12472 H 1201.71 -2.97955 -0.162825 0
M  V30 12473 C 1200.46 -2.88803 -1.93618 0
M  V30 12474 H 1199.78 -3.67521 -1.57379 0
M  V30 12475 H 1201.22 -3.37387 -2.56799 0
M  V30 12476 C 1199.68 -1.90285 -2.78017 0
M  V30 12477 O 1200.21 -1.40833 -3.76203 0
M  V30 12478 N 1198.42 -1.58332 -2.43679 0
M  V30 12479 H 1197.97 -1.9874 -1.63891 0
M  V30 12480 H 1197.92 -0.926722 -3.00432 0
M  V30 12481 N 1201.7 0.070167 -1.57444 0
M  V30 12482 C 1202.94 0.769014 -1.8733 0
M  V30 12483 C 1203.27 1.77496 -0.79533 0
M  V30 12484 O 1202.53 1.94586 0.208495 0
M  V30 12485 C 1202.82 1.5111 -3.23883 0
M  V30 12486 C 1202.49 0.644988 -4.46263 0
M  V30 12487 C 1201.15 0.406307 -4.79482 0
M  V30 12488 C 1203.5 0.0444938 -5.21181 0
M  V30 12489 C 1200.83 -0.442322 -5.8503 0
M  V30 12490 C 1203.18 -0.791599 -6.27628 0
M  V30 12491 C 1201.85 -1.04014 -6.59346 0
M  V30 12492 H 1201.12 0.281402 -0.685488 0
M  V30 12493 H 1203.77 0.029752 -1.91477 0
M  V30 12494 H 1202.07 2.32261 -3.15535 0
M  V30 12495 H 1203.77 2.05665 -3.44242 0
M  V30 12496 H 1200.36 0.841148 -4.20265 0
M  V30 12497 H 1204.54 0.216005 -4.9583 0
M  V30 12498 H 1199.8 -0.643607 -6.08003 0
M  V30 12499 H 1203.97 -1.26363 -6.8484 0
M  V30 12500 H 1201.6 -1.69949 -7.4096 0
M  V30 12501 N 1203.17 1.53854 0.341593 0
M  V30 12502 C 1204.42 1.7041 1.07905 0
M  V30 12503 C 1204.74 0.475039 1.89744 0
M  V30 12504 O 1205.94 0.521589 2.66443 0
M  V30 12505 C 1204.4 3.01342 1.96776 0
M  V30 12506 C 1204.01 4.31592 1.20135 0
M  V30 12507 C 1205.75 3.27264 2.70367 0
M  V30 12508 C 1203.66 5.53598 2.08047 0
M  V30 12509 H 1202.59 0.635005 0.406553 0
M  V30 12510 H 1205.24 1.80353 0.338409 0
M  V30 12511 H 1203.62 2.85261 2.74667 0
M  V30 12512 H 1204.79 4.58382 0.471404 0
M  V30 12513 H 1203.11 4.12298 0.583039 0
M  V30 12514 H 1205.71 4.15607 3.36415 0
M  V30 12515 H 1206.05 2.44357 3.37039 0
M  V30 12516 H 1206.58 3.4413 1.99548 0
M  V30 12517 H 1203.32 6.39053 1.45914 0
M  V30 12518 H 1202.84 5.31052 2.78825 0
M  V30 12519 H 1204.52 5.89314 2.67055 0
M  V30 12520 N 1204.65 -0.602709 1.4562 0
M  V30 12521 C 1205.56 -1.74132 1.5721 0
M  V30 12522 C 1206.58 -1.67909 0.456347 0
M  V30 12523 O 1207.75 -1.88178 0.717714 0
M  V30 12524 C 1204.82 -3.10604 1.54032 0
M  V30 12525 C 1203.88 -3.28244 2.76685 0
M  V30 12526 C 1203.11 -4.58205 2.73649 0
M  V30 12527 O 1203.34 -5.40836 1.81254 0
M  V30 12528 O 1202.27 -4.78663 3.64919 0
M  V30 12529 H 1206.1 -1.67304 2.53462 0
M  V30 12530 H 1203.68 -0.767381 1.28186 0
M  V30 12531 H 1205.56 -3.91904 1.54885 0
M  V30 12532 H 1204.24 -3.17913 0.60934 0
M  V30 12533 H 1203.14 -2.46514 2.81393 0
M  V30 12534 H 1204.48 -3.25814 3.68925 0
M  V30 12535 N 1206.13 -1.32992 -0.845635 0
M  V30 12536 C 1207.06 -1.25301 -1.97033 0
M  V30 12537 C 1208.04 -0.134966 -1.69564 0
M  V30 12538 O 1209.23 -0.323629 -1.91484 0
M  V30 12539 C 1206.36 -0.984551 -3.33052 0
M  V30 12540 C 1205.31 -2.06481 -3.749 0
M  V30 12541 C 1204.64 -1.6486 -5.08651 0
M  V30 12542 C 1205.94 -3.48083 -3.89404 0
M  V30 12543 H 1207.63 -2.194 -2.03725 0
M  V30 12544 H 1205.18 -1.05621 -0.978783 0
M  V30 12545 H 1207.13 -0.917269 -4.11296 0
M  V30 12546 H 1205.85 -0.00793116 -3.26599 0
M  V30 12547 H 1204.51 -2.1224 -2.98915 0
M  V30 12548 H 1204.16 -0.659183 -4.98662 0
M  V30 12549 H 1203.86 -2.37145 -5.37621 0
M  V30 12550 H 1205.38 -1.59585 -5.89377 0
M  V30 12551 H 1206.8 -3.44863 -4.57976 0
M  V30 12552 H 1205.19 -4.18796 -4.29802 0
M  V30 12553 H 1206.26 -3.87084 -2.92051 0
M  V30 12554 N 1207.61 1.06304 -1.1635 0
M  V30 12555 C 1208.85 1.79366 -0.94634 0
M  V30 12556 C 1209.19 1.86981 0.524569 0
M  V30 12557 O 1208.46 1.36134 1.38917 0
M  V30 12558 C 1208.74 3.23861 -1.57436 0
M  V30 12559 C 1208.6 3.24327 -3.1166 0
M  V30 12560 C 1209.92 4.21409 -1.26895 0
M  V30 12561 H 1207.04 0.65115 -0.345215 0
M  V30 12562 H 1209.68 1.24325 -1.43678 0
M  V30 12563 H 1207.83 3.70862 -1.15731 0
M  V30 12564 H 1209.5 2.85488 -3.62346 0
M  V30 12565 H 1207.74 2.62983 -3.44997 0
M  V30 12566 H 1208.41 4.2626 -3.50723 0
M  V30 12567 H 1210.89 3.8285 -1.62989 0
M  V30 12568 H 1209.77 5.20778 -1.73439 0
M  V30 12569 H 1210.03 4.41701 -0.187768 0
M  V30 12570 N 1209.09 0.96196 1.24836 0
M  V30 12571 C 1210.5 0.667561 1.44968 0
M  V30 12572 C 1210.7 -0.772521 1.86103 0
M  V30 12573 O 1209.76 -1.54704 1.99557 0
M  V30 12574 C 1211.07 1.64675 2.516 0
M  V30 12575 C 1212.62 1.65874 2.65433 0
M  V30 12576 C 1213.09 2.62576 3.75257 0
M  V30 12577 N 1214.58 2.60984 3.82677 0
M  V30 12578 C 1215.32 3.32484 4.67163 0
M  V30 12579 N 1214.82 4.13482 5.55882 0
M  V30 12580 N 1216.61 3.21336 4.61193 0
M  V30 12581 H 1208.76 1.89248 0.964307 0
M  V30 12582 H 1211.02 0.814443 0.485167 0
M  V30 12583 H 1210.73 2.67572 2.2825 0
M  V30 12584 H 1210.6 1.415 3.49653 0
M  V30 12585 H 1212.99 0.636912 2.88145 0
M  V30 12586 H 1213.07 1.9311 1.67756 0
M  V30 12587 H 1212.71 3.6489 3.53295 0
M  V30 12588 H 1212.64 2.32622 4.72435 0
M  V30 12589 H 1215.14 2.02187 3.19263 0
M  V30 12590 H 1215.45 4.6494 6.17293 0
M  V30 12591 H 1213.79 4.17578 5.55566 0
M  V30 12592 H 1216.98 2.57524 3.90895 0
M  V30 12593 H 1217.16 3.77323 5.26812 0
M  V30 12594 N 1210.56 -1.39601 0.731392 0
M  V30 12595 C 1211.47 -2.34425 0.090527 0
M  V30 12596 C 1212.49 -1.58131 -0.725992 0
M  V30 12597 O 1213.67 -1.90441 -0.655294 0
M  V30 12598 C 1210.73 -3.37138 -0.808624 0
M  V30 12599 C 1209.79 -4.29295 0.0197365 0
M  V30 12600 C 1209.02 -5.27102 -0.836593 0
M  V30 12601 O 1209.25 -5.31302 -2.07543 0
M  V30 12602 O 1208.18 -6.01307 -0.267172 0
M  V30 12603 H 1212.01 -2.9088 0.873084 0
M  V30 12604 H 1209.59 -1.41066 0.492024 0
M  V30 12605 H 1211.47 -4.00087 -1.32319 0
M  V30 12606 H 1210.15 -2.83074 -1.57006 0
M  V30 12607 H 1209.06 -3.69581 0.579744 0
M  V30 12608 H 1210.39 -4.86555 0.743308 0
M  V30 12609 N 1212.04 -0.478751 -1.50152 0
M  V30 12610 C 1213.27 0.0710485 -2.06778 0
M  V30 12611 C 1213.69 1.32826 -1.34174 0
M  V30 12612 O 1213.04 1.77758 -0.413304 0
M  V30 12613 C 1213.09 0.351351 -3.59789 0
M  V30 12614 O 1212.81 -0.855998 -4.29656 0
M  V30 12615 C 1214.32 0.947269 -4.33061 0
M  V30 12616 H 1211.54 -0.0105032 -0.670918 0
M  V30 12617 H 1214.08 -0.669732 -1.93222 0
M  V30 12618 H 1212.23 1.04207 -3.73121 0
M  V30 12619 H 1212.65 -0.605252 -5.20996 0
M  V30 12620 H 1214.12 1.09312 -5.41068 0
M  V30 12621 H 1214.6 1.93937 -3.94062 0
M  V30 12622 H 1215.21 0.294693 -4.24278 0
M  V30 12623 N 1213.52 1.56172 -0.211661 0
M  V30 12624 C 1214.75 2.02428 0.427843 0
M  V30 12625 C 1215.16 1.09162 1.54043 0
M  V30 12626 O 1214.52 0.0994249 1.82229 0
M  V30 12627 C 1214.57 3.48279 0.968728 0
M  V30 12628 O 1214.29 4.37987 -0.0994841 0
M  V30 12629 C 1215.79 4.10132 1.68246 0
M  V30 12630 H 1213.01 0.662611 0.10577 0
M  V30 12631 H 1215.56 2.01897 -0.32522 0
M  V30 12632 H 1213.71 3.49456 1.6721 0
M  V30 12633 H 1214.13 5.23609 0.305558 0
M  V30 12634 H 1215.6 5.13985 2.01304 0
M  V30 12635 H 1216.08 3.54552 2.5921 0
M  V30 12636 H 1216.68 4.12775 1.02453 0
M  V30 12637 N 1215 -0.0618163 1.57479 0
M  V30 12638 C 1215.96 -1.05684 2.0338 0
M  V30 12639 C 1216.96 -1.31006 0.932423 0
M  V30 12640 O 1218.15 -1.26559 1.19702 0
M  V30 12641 C 1215.28 -2.39805 2.42294 0
M  V30 12642 H 1216.48 -0.661006 2.92525 0
M  V30 12643 H 1214.03 -0.307814 1.53239 0
M  V30 12644 H 1214.76 -2.84201 1.56207 0
M  V30 12645 H 1214.55 -2.22764 3.22674 0
M  V30 12646 H 1216.04 -3.11307 2.78349 0
M  V30 12647 N 1216.48 -1.54033 -0.333429 0
M  V30 12648 C 1217.72 -1.71426 -1.0704 0
M  V30 12649 C 1218.05 -0.485496 -1.8886 0
M  V30 12650 O 1217.32 0.500555 -1.89397 0
M  V30 12651 H 1215.9 -0.632034 -0.398173 0
M  V30 12652 H 1218.56 -1.91312 -0.372252 0
M  V30 12653 H 1217.65 -2.58958 -1.74205 0
M  V30 12654 N 1217.95 0.594978 -1.45938 0
M  V30 12655 C 1218.9 1.69949 -1.51991 0
M  V30 12656 C 1219.89 1.56301 -0.381956 0
M  V30 12657 O 1221.08 1.65423 -0.62961 0
M  V30 12658 C 1218.21 3.08723 -1.5015 0
M  V30 12659 C 1217.3 3.27712 -2.69194 0
M  V30 12660 N 1217.69 3.1691 -3.9421 0
M  V30 12661 C 1215.98 3.58618 -2.65158 0
M  V30 12662 C 1216.69 3.37572 -4.7373 0
M  V30 12663 N 1215.66 3.62154 -4.05395 0
M  V30 12664 H 1219.46 1.60109 -2.46459 0
M  V30 12665 H 1216.98 0.798634 -1.41406 0
M  V30 12666 H 1218.97 3.87978 -1.52573 0
M  V30 12667 H 1217.63 3.19702 -0.567488 0
M  V30 12668 H 1218.65 2.95039 -4.25643 0
M  V30 12669 H 1215.32 3.76358 -1.80724 0
M  V30 12670 H 1216.71 3.34507 -5.82713 0
M  V30 12671 N 1219.43 1.33438 0.838571 0
M  V30 12672 C 1220.36 1.26344 1.96365 0
M  V30 12673 C 1221.34 0.143956 1.6949 0
M  V30 12674 O 1222.53 0.333779 1.9131 0
M  V30 12675 C 1219.66 1.0022 3.32526 0
M  V30 12676 C 1218.61 2.08466 3.73799 0
M  V30 12677 C 1217.94 1.67555 5.07769 0
M  V30 12678 C 1219.24 3.50144 3.87552 0
M  V30 12679 H 1220.93 2.20478 2.02558 0
M  V30 12680 H 1218.48 1.06139 0.973168 0
M  V30 12681 H 1220.43 0.939068 4.10803 0
M  V30 12682 H 1219.16 0.0252514 3.2659 0
M  V30 12683 H 1217.81 2.13822 2.97785 0
M  V30 12684 H 1217.46 0.685619 4.98305 0
M  V30 12685 H 1217.16 2.39993 5.36356 0
M  V30 12686 H 1218.69 1.62708 5.88522 0
M  V30 12687 H 1220.1 3.47287 4.56141 0
M  V30 12688 H 1218.5 4.21069 4.27575 0
M  V30 12689 H 1219.57 3.88628 2.89994 0
M  V30 12690 N 1220.91 -1.05686 1.16912 0
M  V30 12691 C 1221.87 -2.11481 0.883647 0
M  V30 12692 C 1222.87 -1.60321 -0.124034 0
M  V30 12693 O 1224.06 -1.73868 0.107566 0
M  V30 12694 C 1221.2 -3.3937 0.322649 0
M  V30 12695 H 1222.39 -2.38239 1.8216 0
M  V30 12696 H 1219.94 -1.2185 0.978895 0
M  V30 12697 H 1220.68 -3.18266 -0.622695 0
M  V30 12698 H 1220.46 -3.77812 1.04883 0
M  V30 12699 H 1221.95 -4.17362 0.141072 0
M  V30 12700 N 1222.39 -0.968567 -1.24324 0
M  V30 12701 C 1223.32 -0.518323 -2.27674 0
M  V30 12702 C 1224.3 0.442479 -1.64244 0
M  V30 12703 O 1225.48 0.338416 -1.91229 0
M  V30 12704 C 1222.61 0.191459 -3.46772 0
M  V30 12705 C 1221.57 -0.685449 -4.22476 0
M  V30 12706 C 1220.89 0.155873 -5.34473 0
M  V30 12707 C 1222.19 -1.97047 -4.83704 0
M  V30 12708 H 1223.89 -1.38215 -2.65588 0
M  V30 12709 H 1221.43 -0.66604 -1.27671 0
M  V30 12710 H 1223.39 0.517667 -4.18208 0
M  V30 12711 H 1222.11 1.08965 -3.07887 0
M  V30 12712 H 1220.77 -0.994942 -3.52841 0
M  V30 12713 H 1220.42 1.05424 -4.91828 0
M  V30 12714 H 1220.12 -0.427655 -5.86042 0
M  V30 12715 H 1221.64 0.476733 -6.08736 0
M  V30 12716 H 1223.06 -1.70979 -5.4721 0
M  V30 12717 H 1221.45 -2.50079 -5.45509 0
M  V30 12718 H 1222.52 -2.66484 -4.0511 0
M  V30 12719 N 1223.87 1.39211 -0.738786 0
M  V30 12720 C 1224.8 2.33209 -0.11647 0
M  V30 12721 C 1225.78 1.54108 0.720056 0
M  V30 12722 O 1226.96 1.82486 0.664264 0
M  V30 12723 C 1224.09 3.38226 0.78872 0
M  V30 12724 C 1223.05 4.27963 0.0560636 0
M  V30 12725 C 1222.37 5.2371 1.07852 0
M  V30 12726 C 1223.67 5.10508 -1.1036 0
M  V30 12727 H 1225.37 2.85501 -0.901649 0
M  V30 12728 H 1222.91 1.37272 -0.435032 0
M  V30 12729 H 1224.87 4.02938 1.23364 0
M  V30 12730 H 1223.59 2.84382 1.60606 0
M  V30 12731 H 1222.25 3.64735 -0.369274 0
M  V30 12732 H 1221.9 4.66161 1.88953 0
M  V30 12733 H 1221.6 5.846 0.593048 0
M  V30 12734 H 1223.12 5.91299 1.52307 0
M  V30 12735 H 1224.53 5.68544 -0.736943 0
M  V30 12736 H 1222.93 5.80558 -1.51895 0
M  V30 12737 H 1224 4.45117 -1.92352 0
M  V30 12738 N 1225.34 0.486708 1.49896 0
M  V30 12739 C 1226.59 -0.0629451 2.02702 0
M  V30 12740 C 1226.92 -1.37956 1.36681 0
M  V30 12741 O 1226.2 -1.88025 0.497678 0
M  V30 12742 C 1226.48 -0.230461 3.59362 0
M  V30 12743 C 1226.33 1.10828 4.35933 0
M  V30 12744 C 1227.65 -0.977785 4.29101 0
M  V30 12745 H 1224.77 -0.0214017 0.736689 0
M  V30 12746 H 1227.41 0.635339 1.79063 0
M  V30 12747 H 1225.56 -0.825222 3.79634 0
M  V30 12748 H 1227.24 1.74082 4.27192 0
M  V30 12749 H 1225.48 1.7011 3.99055 0
M  V30 12750 H 1226.15 0.944532 5.43859 0
M  V30 12751 H 1228.63 -0.473505 4.13397 0
M  V30 12752 H 1227.5 -1.06382 5.38492 0
M  V30 12753 H 1227.76 -2.01813 3.9335 0
M  V30 12754 N 1226.82 -1.56058 0.219941 0
M  V30 12755 C 1228.05 -2.02652 -0.417101 0
M  V30 12756 C 1228.47 -1.09977 -1.53461 0
M  V30 12757 O 1227.82 -0.109088 -1.82174 0
M  V30 12758 C 1227.87 -3.48787 -0.950244 0
M  V30 12759 O 1227.6 -4.37928 0.12271 0
M  V30 12760 C 1229.1 -4.11018 -1.66069 0
M  V30 12761 H 1226.32 -0.663163 -0.102254 0
M  V30 12762 H 1228.86 -2.01722 0.335923 0
M  V30 12763 H 1227.02 -3.50338 -1.65355 0
M  V30 12764 H 1227.43 -5.23764 -0.277785 0
M  V30 12765 H 1228.9 -5.15046 -1.98575 0
M  V30 12766 H 1229.38 -3.55921 -2.57326 0
M  V30 12767 H 1229.99 -4.13313 -1.00263 0
M  V30 12768 N 1228.3 0.053464 -1.57509 0
M  V30 12769 C 1229.25 1.06155 -2.04939 0
M  V30 12770 C 1230.22 1.37382 -0.93357 0
M  V30 12771 O 1231.4 1.48137 -1.2025 0
M  V30 12772 C 1228.54 2.36476 -2.51343 0
M  V30 12773 C 1227.66 2.1162 -3.76618 0
M  V30 12774 C 1226.79 3.35636 -4.11731 0
M  V30 12775 C 1225.83 3.06226 -5.29993 0
M  V30 12776 N 1224.97 4.22623 -5.60655 0
M  V30 12777 H 1229.81 0.650122 -2.90822 0
M  V30 12778 H 1227.34 0.309421 -1.43809 0
M  V30 12779 H 1229.3 3.12588 -2.76306 0
M  V30 12780 H 1227.93 2.75386 -1.68411 0
M  V30 12781 H 1226.98 1.26116 -3.58886 0
M  V30 12782 H 1228.3 1.85909 -4.6286 0
M  V30 12783 H 1227.45 4.20132 -4.37692 0
M  V30 12784 H 1226.19 3.64439 -3.24092 0
M  V30 12785 H 1225.19 2.20128 -5.03809 0
M  V30 12786 H 1226.42 2.78726 -6.19265 0
M  V30 12787 H 1224.37 4.51424 -4.75976 0
M  V30 12788 H 1224.28 4.0025 -6.41355 0
M  V30 12789 H 1225.55 5.08063 -5.91178 0
M  V30 12790 N 1229.78 1.54207 0.325255 0
M  V30 12791 C 1230.73 1.84197 1.42036 0
M  V30 12792 C 1231.72 0.71375 1.53629 0
M  V30 12793 O 1232.93 0.897385 1.56035 0
M  V30 12794 H 1229.3 0.583848 0.473947 0
M  V30 12795 H 1231.27 2.7578 1.13965 0
M  V30 12796 C 1230.02 2.08459 2.78281 0
M  V30 12797 H 1229.35 2.94734 2.70133 0
M  V30 12798 H 1230.79 2.33398 3.5398 0
M  V30 12799 C 1229.24 0.875615 3.25322 0
M  V30 12800 O 1229.77 0.0840387 4.01612 0
M  V30 12801 N 1227.98 0.687721 2.82345 0
M  V30 12802 H 1227.53 1.33307 2.20425 0
M  V30 12803 H 1227.49 -0.119687 3.14172 0
M  V30 12804 N 1231.26 -0.58723 1.46251 0
M  V30 12805 C 1232.5 -1.3476 1.51551 0
M  V30 12806 C 1232.84 -1.93499 0.16483 0
M  V30 12807 O 1232.11 -1.7622 -0.823207 0
M  V30 12808 C 1232.39 -2.48033 2.61059 0
M  V30 12809 C 1232.25 -1.94358 4.05642 0
M  V30 12810 C 1233.57 -3.50096 2.66685 0
M  V30 12811 H 1230.69 -0.48863 0.551733 0
M  V30 12812 H 1233.33 -0.660097 1.78165 0
M  V30 12813 H 1231.48 -3.06679 2.38496 0
M  V30 12814 H 1233.15 -1.40204 4.39478 0
M  V30 12815 H 1231.39 -1.25217 4.15335 0
M  V30 12816 H 1232.06 -2.76105 4.77986 0
M  V30 12817 H 1234.54 -3.01324 2.86955 0
M  V30 12818 H 1233.42 -4.26817 3.45135 0
M  V30 12819 H 1233.68 -4.07032 1.7256 0
M  V30 12820 N 1232.74 -1.33881 -0.831482 0
M  V30 12821 C 1233.96 -1.28961 -1.62431 0
M  V30 12822 C 1234.39 0.135249 -1.87613 0
M  V30 12823 O 1233.74 1.09426 -1.44553 0
M  V30 12824 C 1233.79 -2.07767 -2.94729 0
M  V30 12825 O 1232.9 -1.44133 -3.86393 0
M  V30 12826 H 1232.24 -0.443313 -0.494337 0
M  V30 12827 H 1234.77 -1.76555 -1.0339 0
M  V30 12828 H 1234.78 -2.18806 -3.44366 0
M  V30 12829 H 1233.45 -3.11367 -2.75724 0
M  V30 12830 H 1232.03 -1.41784 -3.44894 0
M  V30 12831 N 1234.21 1.05064 -1.1747 0
M  V30 12832 C 1235.15 2.12334 -0.836028 0
M  V30 12833 C 1236.12 1.61393 0.197733 0
M  V30 12834 O 1237.31 1.88334 0.0789748 0
M  V30 12835 C 1234.44 3.37796 -0.24734 0
M  V30 12836 C 1233.48 4.07565 -1.25669 0
M  V30 12837 S 1234.31 4.55941 -2.80853 0
M  V30 12838 C 1235.47 5.84648 -2.23468 0
M  V30 12839 H 1235.7 2.40735 -1.74453 0
M  V30 12840 H 1233.24 1.17684 -0.999495 0
M  V30 12841 H 1235.19 4.1041 0.0858241 0
M  V30 12842 H 1233.86 3.07529 0.639124 0
M  V30 12843 H 1233.05 4.97715 -0.793465 0
M  V30 12844 H 1232.65 3.41022 -1.53557 0
M  V30 12845 H 1234.94 6.58067 -1.61104 0
M  V30 12846 H 1235.89 6.35719 -3.11877 0
M  V30 12847 H 1236.29 5.39272 -1.6687 0
M  V30 12848 N 1235.69 0.975146 1.23809 0
M  V30 12849 C 1236.94 0.641124 1.92083 0
M  V30 12850 C 1237.27 -0.824671 1.76152 0
M  V30 12851 O 1236.52 -1.6097 1.11298 0
M  V30 12852 C 1236.82 0.971016 3.43956 0
M  V30 12853 C 1236.49 2.42616 3.80063 0
M  V30 12854 C 1235.15 2.82386 3.8963 0
M  V30 12855 C 1237.5 3.37019 3.97577 0
M  V30 12856 C 1234.83 4.15585 4.14133 0
M  V30 12857 C 1237.18 4.69855 4.23579 0
M  V30 12858 C 1235.84 5.09391 4.31366 0
M  V30 12859 H 1235.11 0.234604 0.702881 0
M  V30 12860 H 1237.76 1.22803 1.46941 0
M  V30 12861 H 1236.07 0.301965 3.90635 0
M  V30 12862 H 1237.76 0.690858 3.95004 0
M  V30 12863 H 1234.35 2.10782 3.73187 0
M  V30 12864 H 1238.54 3.07474 3.89581 0
M  V30 12865 H 1233.79 4.45831 4.18383 0
M  V30 12866 H 1237.97 5.42966 4.36074 0
M  V30 12867 H 1235.59 6.12624 4.50106 0
M  V30 12868 N 1237.17 -1.38817 0.746158 0
M  V30 12869 C 1238.58 -1.83045 0.367629 0
M  V30 12870 C 1238.93 -1.62285 -1.10263 0
M  V30 12871 O 1238.06 -1.12001 -1.85162 0
M  V30 12872 C 1238.65 -3.323 0.660482 0
M  V30 12873 C 1237.21 -3.74903 0.335318 0
M  V30 12874 C 1236.36 -2.61683 0.917446 0
M  V30 12875 H 1239.31 -1.27651 0.94291 0
M  V30 12876 H 1239.33 -3.80446 -0.0639061 0
M  V30 12877 H 1238.84 -3.47377 1.73062 0
M  V30 12878 H 1236.94 -3.65408 -0.728538 0
M  V30 12879 H 1237.06 -4.71932 0.825677 0
M  V30 12880 H 1235.42 -2.52376 0.343316 0
M  V30 12881 H 1236.2 -2.79563 1.99247 0
M  V30 12882 N 1238.65 -0.49465 -1.49636 0
M  V30 12883 C 1239.9 0.0520143 -2.02033 0
M  V30 12884 C 1240.22 1.38071 -1.37701 0
M  V30 12885 O 1239.49 1.88589 -0.530181 0
M  V30 12886 H 1238.07 0.0222123 -0.74667 0
M  V30 12887 H 1240.73 -0.650445 -1.83726 0
M  V30 12888 H 1239.82 0.186337 -3.11543 0
M  V30 12889 N 1240.13 1.55939 -0.228214 0
M  V30 12890 C 1241.07 2.21957 0.69556 0
M  V30 12891 C 1242.07 1.20109 1.19458 0
M  V30 12892 O 1243.27 1.38171 1.15364 0
M  V30 12893 H 1239.65 0.711744 0.242744 0
M  V30 12894 H 1241.62 2.98177 0.115403 0
M  V30 12895 C 1240.37 2.91847 1.88999 0
M  V30 12896 H 1239.69 3.69978 1.51512 0
M  V30 12897 H 1241.13 3.4143 2.51399 0
M  V30 12898 C 1239.59 1.94683 2.74954 0
M  V30 12899 O 1240.12 1.468 3.73915 0
M  V30 12900 N 1238.33 1.62188 2.41129 0
M  V30 12901 H 1237.87 2.01322 1.60709 0
M  V30 12902 H 1237.83 0.9744 2.98919 0
M  V30 12903 N 1241.6 -0.0451101 1.57535 0
M  V30 12904 C 1243.02 -0.59372 1.77008 0
M  V30 12905 C 1243.37 -1.76482 0.857233 0
M  V30 12906 O 1242.49 -2.16347 0.0479703 0
M  V30 12907 C 1243.09 -1.08383 3.20996 0
M  V30 12908 C 1241.65 -1.57808 3.41721 0
M  V30 12909 C 1240.79 -0.509067 2.72587 0
M  V30 12910 H 1243.74 0.181114 1.57663 0
M  V30 12911 H 1243.76 -1.95181 3.26626 0
M  V30 12912 H 1243.28 -0.231276 3.8741 0
M  V30 12913 H 1241.38 -2.45302 2.8046 0
M  V30 12914 H 1241.49 -1.63664 4.50279 0
M  V30 12915 H 1239.85 -0.960389 2.359 0
M  V30 12916 H 1240.64 0.333753 3.41674 0
M  V30 12917 N 1243.08 -1.54377 -0.317073 0
M  V30 12918 C 1243.99 -1.87247 -1.41335 0
M  V30 12919 C 1245.01 -0.765017 -1.5628 0
M  V30 12920 O 1246.18 -1.05994 -1.71252 0
M  V30 12921 C 1243.25 -2.0988 -2.75955 0
M  V30 12922 C 1242.31 -3.33658 -2.70131 0
M  V30 12923 C 1241.54 -3.55202 -3.9833 0
M  V30 12924 O 1241.77 -2.80061 -4.96913 0
M  V30 12925 O 1240.7 -4.48693 -4.01196 0
M  V30 12926 H 1244.53 -2.80481 -1.16465 0
M  V30 12927 H 1242.11 -1.40364 -0.511687 0
M  V30 12928 H 1243.99 -2.2606 -3.55633 0
M  V30 12929 H 1242.67 -1.19834 -3.00702 0
M  V30 12930 H 1241.58 -3.22857 -1.88981 0
M  V30 12931 H 1242.91 -4.23782 -2.50338 0
M  V30 12932 N 1244.56 0.579466 -1.4656 0
M  V30 12933 C 1245.98 0.903163 -1.31587 0
M  V30 12934 C 1246.18 1.99406 -0.28972 0
M  V30 12935 O 1245.23 2.50632 0.30658 0
M  V30 12936 C 1246.55 1.31745 -2.70303 0
M  V30 12937 C 1248.09 1.43012 -2.78418 0
M  V30 12938 C 1248.57 1.87805 -4.17724 0
M  V30 12939 N 1250.06 1.94993 -4.20157 0
M  V30 12940 C 1250.79 2.30934 -5.2484 0
M  V30 12941 N 1250.29 2.65645 -6.39847 0
M  V30 12942 N 1252.08 2.31517 -5.12207 0
M  V30 12943 H 1244.23 -0.141111 -2.11931 0
M  V30 12944 H 1246.5 -0.000460304 -0.948 0
M  V30 12945 H 1246.2 0.589864 -3.46718 0
M  V30 12946 H 1246.08 2.2783 -3.00622 0
M  V30 12947 H 1248.46 2.14856 -2.02289 0
M  V30 12948 H 1248.55 0.451701 -2.5178 0
M  V30 12949 H 1248.19 1.16539 -4.94349 0
M  V30 12950 H 1248.12 2.86611 -4.41771 0
M  V30 12951 H 1250.61 1.70645 -3.37178 0
M  V30 12952 H 1250.92 2.92032 -7.15498 0
M  V30 12953 H 1249.27 2.63276 -6.43204 0
M  V30 12954 H 1252.46 2.03824 -4.21394 0
M  V30 12955 H 1252.63 2.59199 -5.93902 0
M  V30 12956 N 1246.04 1.3432 0.824371 0
M  V30 12957 C 1247.29 1.26595 1.5805 0
M  V30 12958 C 1247.61 -0.164471 1.93803 0
M  V30 12959 O 1246.87 -1.12537 1.60106 0
M  V30 12960 C 1247.17 2.1008 2.89139 0
M  V30 12961 C 1246.83 3.59102 2.72684 0
M  V30 12962 C 1245.5 3.99726 2.67904 0
M  V30 12963 C 1247.85 4.53736 2.56463 0
M  V30 12964 C 1245.18 5.33178 2.44822 0
M  V30 12965 C 1247.53 5.87366 2.34913 0
M  V30 12966 C 1246.19 6.27155 2.28544 0
M  V30 12967 H 1245.46 0.463245 0.578347 0
M  V30 12968 H 1248.11 1.66048 0.953948 0
M  V30 12969 H 1246.41 1.6345 3.56078 0
M  V30 12970 H 1248.11 2.01451 3.46726 0
M  V30 12971 H 1244.7 3.26855 2.77244 0
M  V30 12972 H 1248.88 4.23248 2.5918 0
M  V30 12973 H 1244.14 5.63028 2.38348 0
M  V30 12974 H 1248.31 6.60286 2.21349 0
M  V30 12975 H 1245.94 7.30498 2.1042 0
M  V30 12976 N 1247.52 -1.0444 1.18026 0
M  V30 12977 C 1248.74 -1.81772 0.998684 0
M  V30 12978 C 1249.17 -1.82682 -0.448225 0
M  V30 12979 O 1248.52 -1.24136 -1.32136 0
M  V30 12980 C 1248.57 -3.2542 1.55352 0
M  V30 12981 O 1247.68 -4.05103 0.772351 0
M  V30 12982 H 1247.02 -0.561731 0.354054 0
M  V30 12983 H 1249.55 -1.31557 1.56697 0
M  V30 12984 H 1249.56 -3.76206 1.57903 0
M  V30 12985 H 1248.23 -3.24073 2.60672 0
M  V30 12986 H 1246.81 -3.63798 0.818852 0
M  V30 12987 N 1248.99 -0.981699 -1.2329 0
M  V30 12988 C 1249.9 -0.531296 -2.28505 0
M  V30 12989 C 1250.92 0.414531 -1.6899 0
M  V30 12990 O 1252.1 0.284129 -1.99386 0
M  V30 12991 C 1249.16 0.157864 -3.4634 0
M  V30 12992 C 1248.22 -0.829527 -4.21209 0
M  V30 12993 C 1247.46 -0.17316 -5.33419 0
M  V30 12994 O 1247.68 1.03549 -5.60922 0
M  V30 12995 O 1246.61 -0.872385 -5.95544 0
M  V30 12996 H 1250.44 -1.40633 -2.69177 0
M  V30 12997 H 1248.02 -0.749395 -1.29246 0
M  V30 12998 H 1249.91 0.544394 -4.17869 0
M  V30 12999 H 1248.58 1.00764 -3.07617 0
M  V30 13000 H 1247.49 -1.26678 -3.51999 0
M  V30 13001 H 1248.82 -1.64815 -4.63785 0
M  V30 13002 N 1250.47 1.3842 -0.753509 0
M  V30 13003 C 1251.72 1.99723 -0.309021 0
M  V30 13004 C 1252.04 1.60111 1.11308 0
M  V30 13005 O 1251.31 0.85792 1.76115 0
M  V30 13006 H 1249.89 0.738667 -0.111266 0
M  V30 13007 H 1252.55 1.69186 -0.967586 0
M  V30 13008 H 1251.65 3.09874 -0.372095 0
M  V30 13009 N 1251.95 0.502579 1.49372 0
M  V30 13010 C 1253.18 -0.0403087 2.07361 0
M  V30 13011 C 1253.6 -1.29918 1.36026 0
M  V30 13012 O 1252.96 -1.76428 0.417488 0
M  V30 13013 C 1253.01 -0.275362 3.59547 0
M  V30 13014 O 1252.11 -1.34975 3.89686 0
M  V30 13015 H 1251.45 0.0269268 0.663454 0
M  V30 13016 H 1253.98 0.702652 1.92156 0
M  V30 13017 H 1253.99 -0.506392 4.04845 0
M  V30 13018 H 1252.67 0.644382 4.10878 0
M  V30 13019 H 1251.24 -1.10355 3.56197 0
M  V30 13020 N 1253.43 -1.55816 0.23648 0
M  V30 13021 C 1254.68 -1.97862 -0.391579 0
M  V30 13022 C 1254.99 -1.1276 -1.59827 0
M  V30 13023 O 1256.2 -1.44772 -2.29681 0
M  V30 13024 C 1254.65 -3.5204 -0.748065 0
M  V30 13025 C 1254.26 -4.45867 0.436643 0
M  V30 13026 C 1256 -4.02766 -1.3409 0
M  V30 13027 C 1253.91 -5.91373 0.0568909 0
M  V30 13028 H 1252.84 -0.738913 -0.150078 0
M  V30 13029 H 1255.49 -1.80415 0.335052 0
M  V30 13030 H 1253.87 -3.65143 -1.53254 0
M  V30 13031 H 1255.05 -4.44519 1.21408 0
M  V30 13032 H 1253.36 -4.05565 0.943702 0
M  V30 13033 H 1255.96 -5.08987 -1.63817 0
M  V30 13034 H 1256.3 -3.49496 -2.26182 0
M  V30 13035 H 1256.84 -3.92946 -0.619548 0
M  V30 13036 H 1253.58 -6.48657 0.944682 0
M  V30 13037 H 1253.1 -5.95881 -0.684557 0
M  V30 13038 H 1254.77 -6.45972 -0.364586 0
M  V30 13039 N 1254.91 0.036755 -1.57557 0
M  V30 13040 C 1256.18 0.764087 -1.80059 0
M  V30 13041 C 1256.56 1.93983 -0.83269 0
M  V30 13042 O 1255.91 2.28148 0.126815 0
M  V30 13043 C 1256.12 1.20433 -3.27562 0
M  V30 13044 C 1257.47 1.6234 -3.9234 0
M  V30 13045 O 1258.49 1.29911 -3.31665 0
M  V30 13046 O 1257.35 2.22504 -4.99154 0
M  V30 13047 H 1254.45 0.368866 -0.74018 0
M  V30 13048 H 1256.99 0.0141254 -1.69694 0
M  V30 13049 H 1255.76 0.364646 -3.89597 0
M  V30 13050 H 1255.39 2.01454 -3.42786 0
M  V30 13051 N 1256.39 1.54543 0.308881 0
M  V30 13052 C 1257.63 1.73706 1.04661 0
M  V30 13053 C 1257.96 0.517111 1.87189 0
M  V30 13054 O 1257.24 -0.485856 1.88334 0
M  V30 13055 C 1257.52 3.02141 1.95916 0
M  V30 13056 C 1257.38 4.34419 1.1662 0
M  V30 13057 C 1258.69 3.26401 2.95213 0
M  V30 13058 H 1255.81 0.63203 0.379087 0
M  V30 13059 H 1258.46 1.87253 0.321947 0
M  V30 13060 H 1256.61 2.90723 2.57706 0
M  V30 13061 H 1258.28 4.57743 0.571772 0
M  V30 13062 H 1256.52 4.3126 0.468747 0
M  V30 13063 H 1257.19 5.20535 1.83704 0
M  V30 13064 H 1259.67 3.37377 2.43549 0
M  V30 13065 H 1258.54 4.17597 3.56235 0
M  V30 13066 H 1258.8 2.44322 3.68455 0
M  V30 13067 N 1257.86 -0.571685 1.46866 0
M  V30 13068 C 1259.11 -1.32924 1.53957 0
M  V30 13069 C 1259.46 -1.91428 0.1932 0
M  V30 13070 O 1258.76 -1.74125 -0.799447 0
M  V30 13071 C 1258.95 -2.47051 2.58264 0
M  V30 13072 C 1258.78 -1.99729 4.02913 0
M  V30 13073 C 1257.55 -1.84236 4.70516 0
M  V30 13074 C 1259.75 -1.55035 4.90376 0
M  V30 13075 N 1257.73 -1.31101 5.99738 0
M  V30 13076 C 1259.1 -1.13566 6.0951 0
M  V30 13077 C 1261.16 -1.42953 4.76937 0
M  V30 13078 C 1259.86 -0.612183 7.1669 0
M  V30 13079 C 1261.89 -0.92008 5.84199 0
M  V30 13080 C 1261.25 -0.515239 7.02513 0
M  V30 13081 H 1257.35 -0.47897 0.618152 0
M  V30 13082 H 1259.93 -0.649687 1.83541 0
M  V30 13083 H 1258.1 -3.12555 2.30573 0
M  V30 13084 H 1259.83 -3.14025 2.55285 0
M  V30 13085 H 1256.59 -2.06516 4.26202 0
M  V30 13086 H 1257.01 -1.06663 6.68545 0
M  V30 13087 H 1261.65 -1.72869 3.85845 0
M  V30 13088 H 1259.37 -0.300634 8.07541 0
M  V30 13089 H 1262.96 -0.830357 5.75844 0
M  V30 13090 H 1261.84 -0.127122 7.84097 0
M  V30 13091 N 1259.34 -1.34755 -0.817236 0
M  V30 13092 C 1260.59 -1.28629 -1.57563 0
M  V30 13093 C 1260.94 0.141015 -1.91883 0
M  V30 13094 O 1260.24 1.08874 -1.57661 0
M  V30 13095 C 1260.43 -2.11611 -2.8802 0
M  V30 13096 C 1260.26 -3.62266 -2.66446 0
M  V30 13097 C 1259.03 -4.3153 -2.62887 0
M  V30 13098 C 1261.23 -4.56145 -2.37564 0
M  V30 13099 N 1259.21 -5.67999 -2.32918 0
M  V30 13100 C 1260.58 -5.80658 -2.17339 0
M  V30 13101 C 1262.63 -4.44999 -2.23339 0
M  V30 13102 C 1261.34 -6.9528 -1.8433 0
M  V30 13103 C 1263.36 -5.5946 -1.91726 0
M  V30 13104 C 1262.73 -6.82995 -1.72329 0
M  V30 13105 H 1258.82 -0.52593 -0.578724 0
M  V30 13106 H 1261.41 -1.69527 -0.957533 0
M  V30 13107 H 1259.58 -1.73 -3.47743 0
M  V30 13108 H 1261.31 -1.97085 -3.53468 0
M  V30 13109 H 1258.07 -3.84029 -2.77162 0
M  V30 13110 H 1258.49 -6.39996 -2.20757 0
M  V30 13111 H 1263.13 -3.50104 -2.37037 0
M  V30 13112 H 1260.85 -7.90152 -1.69369 0
M  V30 13113 H 1264.44 -5.52784 -1.81443 0
M  V30 13114 H 1263.32 -7.70065 -1.48222 0
M  V30 13115 N 1260.82 1.03812 -1.18578 0
M  V30 13116 C 1262.07 1.76455 -0.977071 0
M  V30 13117 C 1262.38 1.8926 0.493964 0
M  V30 13118 O 1263.59 2.58781 0.821256 0
M  V30 13119 C 1262.04 3.17264 -1.69917 0
M  V30 13120 C 1261.65 3.12543 -3.20969 0
M  V30 13121 C 1263.4 3.94266 -1.57337 0
M  V30 13122 C 1261.3 4.48226 -3.85807 0
M  V30 13123 H 1260.23 0.661445 -0.361949 0
M  V30 13124 H 1262.88 1.16252 -1.41978 0
M  V30 13125 H 1261.27 3.77878 -1.18424 0
M  V30 13126 H 1262.44 2.61364 -3.79507 0
M  V30 13127 H 1260.75 2.49039 -3.33719 0
M  V30 13128 H 1263.35 4.9461 -2.03137 0
M  V30 13129 H 1263.69 4.12963 -0.526033 0
M  V30 13130 H 1264.23 3.40232 -2.06124 0
M  V30 13131 H 1260.97 4.34734 -4.90599 0
M  V30 13132 H 1260.49 4.99497 -3.32058 0
M  V30 13133 H 1262.17 5.17135 -3.88819 0
M  V30 13134 N 1262.3 0.988223 1.22768 0
M  V30 13135 C 1263.54 0.662441 1.91676 0
M  V30 13136 C 1263.88 -0.802931 1.76824 0
M  V30 13137 O 1263.15 -1.58011 1.13415 0
M  V30 13138 C 1263.43 1.06332 3.44043 0
M  V30 13139 C 1263.29 2.5869 3.67967 0
M  V30 13140 C 1264.61 0.613058 4.35809 0
M  V30 13141 H 1261.73 0.242132 0.69609 0
M  V30 13142 H 1264.37 1.23091 1.44736 0
M  V30 13143 H 1262.52 0.579623 3.84152 0
M  V30 13144 H 1264.19 3.14694 3.37291 0
M  V30 13145 H 1262.43 3.00971 3.12408 0
M  V30 13146 H 1263.1 2.8179 4.74656 0
M  V30 13147 H 1265.58 1.02846 4.0319 0
M  V30 13148 H 1264.46 0.921901 5.41103 0
M  V30 13149 H 1264.72 -0.48641 4.39416 0
M  V30 13150 N 1263.78 -1.38018 0.760839 0
M  V30 13151 C 1264.73 -2.27717 0.113521 0
M  V30 13152 C 1265.71 -1.45562 -0.685613 0
M  V30 13153 O 1266.9 -1.68226 -0.550377 0
M  V30 13154 C 1264.03 -3.34478 -0.77325 0
M  V30 13155 C 1263.12 -4.24087 0.0331238 0
M  V30 13156 N 1263.51 -4.94283 1.07323 0
M  V30 13157 C 1261.81 -4.45584 -0.192565 0
M  V30 13158 C 1262.51 -5.60344 1.56172 0
M  V30 13159 N 1261.48 -5.36499 0.875768 0
M  V30 13160 H 1265.28 -2.79456 0.910021 0
M  V30 13161 H 1262.8 -1.51006 0.597561 0
M  V30 13162 H 1264.8 -3.97635 -1.25268 0
M  V30 13163 H 1263.46 -2.84296 -1.56862 0
M  V30 13164 H 1264.47 -4.97036 1.45517 0
M  V30 13165 H 1261.14 -4.06296 -0.960704 0
M  V30 13166 H 1262.53 -6.26477 2.42851 0
M  V30 13167 N 1265.25 -0.510493 -1.49103 0
M  V30 13168 C 1266.53 0.0941122 -1.95373 0
M  V30 13169 C 1266.91 1.53207 -1.45227 0
M  V30 13170 O 1266.26 2.18452 -0.670161 0
M  V30 13171 C 1266.47 -0.00302507 -3.49 0
M  V30 13172 C 1267.82 0.166117 -4.24275 0
M  V30 13173 O 1268.84 0.0717097 -3.56128 0
M  V30 13174 O 1267.7 0.361155 -5.45305 0
M  V30 13175 H 1264.79 0.0900741 -0.82208 0
M  V30 13176 H 1267.34 -0.573707 -1.59708 0
M  V30 13177 H 1266.11 -1.00545 -3.78162 0
M  V30 13178 H 1265.73 0.704518 -3.91308 0
M  V30 13179 N 1266.73 1.55688 -0.24474 0
M  V30 13180 C 1267.98 1.98498 0.379852 0
M  V30 13181 C 1268.3 1.13416 1.58625 0
M  V30 13182 O 1267.57 0.216456 1.947 0
M  V30 13183 H 1266.15 0.73312 0.143334 0
M  V30 13184 H 1268.81 1.91858 -0.343027 0
M  V30 13185 H 1267.91 3.04367 0.690463 0
M  V30 13186 N 1268.21 -0.0283989 1.57574 0
M  V30 13187 C 1269.46 -0.717656 1.88929 0
M  V30 13188 C 1269.78 -1.7586 0.842517 0
M  V30 13189 O 1269.05 -1.95509 -0.123774 0
M  V30 13190 H 1267.63 -0.268051 0.69725 0
M  V30 13191 H 1270.29 0.00580691 1.94899 0
M  V30 13192 H 1269.39 -1.2068 2.87824 0
M  V30 13193 N 1269.69 -1.54705 -0.300681 0
M  V30 13194 C 1270.62 -1.80561 -1.39546 0
M  V30 13195 C 1271.6 -0.656825 -1.48743 0
M  V30 13196 O 1272.78 -0.896815 -1.658 0
M  V30 13197 C 1269.91 -1.94261 -2.77453 0
M  V30 13198 C 1268.96 -3.16687 -2.85678 0
M  V30 13199 S 1269.79 -4.74747 -2.47741 0
M  V30 13200 C 1270.94 -4.91384 -3.87676 0
M  V30 13201 H 1271.18 -2.73136 -1.17405 0
M  V30 13202 H 1268.71 -1.46121 -0.498809 0
M  V30 13203 H 1270.67 -2.0284 -3.56884 0
M  V30 13204 H 1269.33 -1.02623 -2.96862 0
M  V30 13205 H 1268.52 -3.23076 -3.8683 0
M  V30 13206 H 1268.12 -3.06556 -2.14241 0
M  V30 13207 H 1270.42 -4.75427 -4.82676 0
M  V30 13208 H 1271.36 -5.93475 -3.86256 0
M  V30 13209 H 1271.77 -4.19533 -3.77693 0
M  V30 13210 N 1271.17 0.563888 -1.47167 0
M  V30 13211 C 1272.1 1.68137 -1.62025 0
M  V30 13212 C 1273.08 1.63481 -0.469899 0
M  V30 13213 O 1274.26 1.81206 -0.698432 0
M  V30 13214 C 1271.39 3.06779 -1.62801 0
M  V30 13215 C 1270.35 3.26278 -2.76996 0
M  V30 13216 C 1269.67 4.65638 -2.62841 0
M  V30 13217 C 1270.97 3.12295 -4.18651 0
M  V30 13218 H 1272.67 1.55958 -2.55573 0
M  V30 13219 H 1270.21 0.74887 -1.22996 0
M  V30 13220 H 1272.17 3.84795 -1.71787 0
M  V30 13221 H 1270.89 3.19901 -0.658097 0
M  V30 13222 H 1269.55 2.50668 -2.67509 0
M  V30 13223 H 1269.2 4.75551 -1.63892 0
M  V30 13224 H 1268.9 4.79635 -3.39447 0
M  V30 13225 H 1270.42 5.45798 -2.73746 0
M  V30 13226 H 1271.83 3.80136 -4.2915 0
M  V30 13227 H 1270.23 3.37805 -4.95992 0
M  V30 13228 H 1271.3 2.09126 -4.37486 0
M  V30 13229 N 1272.64 1.35187 0.810078 0
M  V30 13230 C 1273.58 1.22171 1.92742 0
M  V30 13231 C 1274.56 0.110393 1.62225 0
M  V30 13232 O 1275.74 0.27786 1.86441 0
M  V30 13233 C 1272.87 0.880367 3.27058 0
M  V30 13234 C 1271.91 2.00325 3.76527 0
M  V30 13235 S 1272.75 3.6185 3.94747 0
M  V30 13236 C 1273.9 3.29784 5.31971 0
M  V30 13237 H 1274.13 2.16749 2.03488 0
M  V30 13238 H 1271.67 1.20362 0.967072 0
M  V30 13239 H 1273.63 0.690224 4.04656 0
M  V30 13240 H 1272.29 -0.0472868 3.14064 0
M  V30 13241 H 1271.48 1.71847 4.73798 0
M  V30 13242 H 1271.08 2.15154 3.05916 0
M  V30 13243 H 1273.37 2.82396 6.1584 0
M  V30 13244 H 1274.32 4.26243 5.6544 0
M  V30 13245 H 1274.72 2.65641 4.98092 0
M  V30 13246 N 1274.12 -1.03182 1.19127 0
M  V30 13247 C 1275.05 -2.13301 0.94999 0
M  V30 13248 C 1276.03 -1.69707 -0.115577 0
M  V30 13249 O 1277.22 -1.94161 0.0388395 0
M  V30 13250 C 1274.35 -3.43902 0.484637 0
M  V30 13251 C 1273.3 -4.01164 1.4917 0
M  V30 13252 C 1272.63 -5.2735 0.883537 0
M  V30 13253 C 1273.93 -4.36311 2.87107 0
M  V30 13254 H 1275.62 -2.33743 1.87095 0
M  V30 13255 H 1273.17 -1.12332 0.900977 0
M  V30 13256 H 1275.12 -4.20308 0.30315 0
M  V30 13257 H 1273.85 -3.23173 -0.471909 0
M  V30 13258 H 1272.5 -3.26849 1.66028 0
M  V30 13259 H 1272.15 -5.02936 -0.0804712 0
M  V30 13260 H 1271.85 -5.66624 1.55599 0
M  V30 13261 H 1273.38 -6.06425 0.71278 0
M  V30 13262 H 1274.79 -5.03666 2.73848 0
M  V30 13263 H 1273.19 -4.86659 3.51117 0
M  V30 13264 H 1274.26 -3.45743 3.39985 0
M  V30 13265 N 1275.6 -0.99472 -1.22242 0
M  V30 13266 C 1276.53 -0.566499 -2.26524 0
M  V30 13267 C 1277.51 0.407541 -1.65146 0
M  V30 13268 O 1278.7 0.297777 -1.91903 0
M  V30 13269 C 1275.83 0.11786 -3.471 0
M  V30 13270 C 1274.78 -0.774908 -4.20927 0
M  V30 13271 C 1274.11 0.0424687 -5.34683 0
M  V30 13272 C 1275.41 -2.07263 -4.79416 0
M  V30 13273 H 1277.1 -1.43818 -2.62596 0
M  V30 13274 H 1274.65 -0.692971 -1.2623 0
M  V30 13275 H 1276.6 0.428842 -4.19212 0
M  V30 13276 H 1275.32 1.0241 -3.10129 0
M  V30 13277 H 1273.98 -1.06956 -3.50651 0
M  V30 13278 H 1273.63 0.949677 -4.93954 0
M  V30 13279 H 1273.33 -0.551867 -5.85003 0
M  V30 13280 H 1274.85 0.347504 -6.0961 0
M  V30 13281 H 1276.27 -1.82548 -5.4346 0
M  V30 13282 H 1274.67 -2.61594 -5.40082 0
M  V30 13283 H 1275.74 -2.75017 -3.99366 0
M  V30 13284 N 1277.08 1.37613 -0.768148 0
M  V30 13285 C 1278.49 1.82437 -0.396703 0
M  V30 13286 C 1278.84 1.64019 1.07668 0
M  V30 13287 O 1277.97 1.14932 1.83356 0
M  V30 13288 C 1278.56 3.31207 -0.713265 0
M  V30 13289 C 1277.12 3.74323 -0.39492 0
M  V30 13290 C 1276.27 2.60191 -0.958962 0
M  V30 13291 H 1279.22 1.26135 -0.963099 0
M  V30 13292 H 1279.24 3.805 0.00337228 0
M  V30 13293 H 1278.75 3.4458 -1.78567 0
M  V30 13294 H 1276.85 3.66521 0.670313 0
M  V30 13295 H 1276.96 4.70558 -0.900653 0
M  V30 13296 H 1275.33 2.51797 -0.383423 0
M  V30 13297 H 1276.11 2.76358 -2.03669 0
M  V30 13298 N 1278.56 0.518393 1.4883 0
M  V30 13299 C 1279.8 -0.0199053 2.0249 0
M  V30 13300 C 1280.13 -1.35375 1.39657 0
M  V30 13301 O 1279.39 -1.88454 0.527586 0
M  V30 13302 C 1279.69 -0.203001 3.56823 0
M  V30 13303 C 1279.35 1.05502 4.38384 0
M  V30 13304 C 1278.01 1.39982 4.60389 0
M  V30 13305 C 1280.37 1.89042 4.85708 0
M  V30 13306 C 1277.69 2.57922 5.26966 0
M  V30 13307 C 1280.05 3.06151 5.53583 0
M  V30 13308 C 1278.71 3.40991 5.73831 0
M  V30 13309 H 1277.98 -0.00728388 0.740964 0
M  V30 13310 H 1280.63 0.682073 1.78941 0
M  V30 13311 H 1278.93 -0.987653 3.79147 0
M  V30 13312 H 1280.63 -0.634234 3.95953 0
M  V30 13313 H 1277.22 0.77647 4.21508 0
M  V30 13314 H 1281.4 1.63716 4.6852 0
M  V30 13315 H 1276.66 2.85132 5.40842 0
M  V30 13316 H 1280.83 3.71198 5.89224 0
M  V30 13317 H 1278.46 4.32479 6.25193 0
M  V30 13318 N 1280.03 -1.55556 0.252993 0
M  V30 13319 C 1280.96 -2.24613 -0.638047 0
M  V30 13320 C 1281.95 -1.22852 -1.1765 0
M  V30 13321 O 1283.13 -1.51519 -1.21472 0
M  V30 13322 C 1280.26 -2.95029 -1.83236 0
M  V30 13323 C 1279.21 -4.03531 -1.42641 0
M  V30 13324 C 1278.54 -4.61404 -2.70204 0
M  V30 13325 C 1279.84 -5.18923 -0.592958 0
M  V30 13326 H 1281.53 -2.99335 -0.0621918 0
M  V30 13327 H 1279.08 -1.43972 -0.0284722 0
M  V30 13328 H 1281.03 -3.42042 -2.46141 0
M  V30 13329 H 1279.76 -2.17805 -2.43369 0
M  V30 13330 H 1278.42 -3.57296 -0.820672 0
M  V30 13331 H 1278.06 -3.80874 -3.28548 0
M  V30 13332 H 1277.76 -5.34652 -2.43764 0
M  V30 13333 H 1279.29 -5.11154 -3.33997 0
M  V30 13334 H 1280.7 -5.62124 -1.12646 0
M  V30 13335 H 1279.1 -5.98598 -0.424358 0
M  V30 13336 H 1280.17 -4.83301 0.393434 0
M  V30 13337 N 1281.51 0.0200419 -1.57587 0
M  V30 13338 C 1282.44 1.01715 -2.10181 0
M  V30 13339 C 1283.42 1.37136 -1.00636 0
M  V30 13340 O 1284.61 1.45862 -1.2821 0
M  V30 13341 C 1281.74 2.31531 -2.58865 0
M  V30 13342 C 1280.69 2.10327 -3.72755 0
M  V30 13343 C 1280.02 3.45981 -4.07678 0
M  V30 13344 C 1281.32 1.4821 -5.0083 0
M  V30 13345 H 1283.01 0.579307 -2.93742 0
M  V30 13346 H 1280.56 0.277211 -1.41307 0
M  V30 13347 H 1282.51 3.01623 -2.94281 0
M  V30 13348 H 1281.24 2.77392 -1.72399 0
M  V30 13349 H 1279.89 1.42665 -3.37701 0
M  V30 13350 H 1279.54 3.89508 -3.18265 0
M  V30 13351 H 1279.24 3.32616 -4.84397 0
M  V30 13352 H 1280.77 4.17421 -4.45637 0
M  V30 13353 H 1282.18 2.08232 -5.34146 0
M  V30 13354 H 1280.58 1.45393 -5.82221 0
M  V30 13355 H 1281.65 0.448942 -4.82817 0
M  V30 13356 N 1282.99 1.54862 0.292472 0
M  V30 13357 C 1284.41 1.46267 0.638611 0
M  V30 13358 C 1284.61 0.660824 1.90356 0
M  V30 13359 O 1283.66 0.171909 2.51914 0
M  V30 13360 C 1284.98 2.90309 0.783675 0
M  V30 13361 C 1286.52 3.00404 0.879004 0
M  V30 13362 C 1287 4.4566 1.056 0
M  V30 13363 N 1288.49 4.49406 1.122 0
M  V30 13364 C 1289.22 5.5899 1.2774 0
M  V30 13365 N 1288.72 6.78482 1.40123 0
M  V30 13366 N 1290.51 5.46695 1.30696 0
M  V30 13367 H 1282.66 2.0546 -0.538521 0
M  V30 13368 H 1284.93 0.930879 -0.179354 0
M  V30 13369 H 1284.63 3.5162 -0.0750437 0
M  V30 13370 H 1284.51 3.38215 1.67004 0
M  V30 13371 H 1286.89 2.39201 1.7282 0
M  V30 13372 H 1286.98 2.55781 -0.0315624 0
M  V30 13373 H 1286.62 5.07459 0.211535 0
M  V30 13374 H 1286.55 4.87921 1.98092 0
M  V30 13375 H 1289.04 3.63322 1.03948 0
M  V30 13376 H 1289.35 7.57752 1.5176 0
M  V30 13377 H 1287.7 6.81331 1.37163 0
M  V30 13378 H 1290.89 4.52288 1.20638 0
M  V30 13379 H 1291.06 6.32146 1.42463 0
M  V30 13380 N 1284.47 -0.556076 1.47464 0
M  V30 13381 C 1285.42 -1.6586 1.56444 0
M  V30 13382 C 1286.4 -1.55233 0.423262 0
M  V30 13383 O 1287.59 -1.63696 0.673247 0
M  V30 13384 C 1284.72 -3.04633 1.58283 0
M  V30 13385 C 1283.81 -3.2046 2.77788 0
M  V30 13386 N 1284.2 -3.06347 4.02474 0
M  V30 13387 C 1282.5 -3.51462 2.74573 0
M  V30 13388 C 1283.2 -3.24893 4.82514 0
M  V30 13389 N 1282.18 -3.51278 4.14855 0
M  V30 13390 H 1285.98 -1.53519 2.50618 0
M  V30 13391 H 1283.49 -0.760862 1.43474 0
M  V30 13392 H 1285.49 -3.83797 1.62806 0
M  V30 13393 H 1284.15 -3.18085 0.652052 0
M  V30 13394 H 1285.16 -2.8365 4.33316 0
M  V30 13395 H 1281.84 -3.71434 1.90639 0
M  V30 13396 H 1283.23 -3.1894 5.91377 0
M  V30 13397 N 1285.95 -1.35615 -0.802897 0
M  V30 13398 C 1286.9 -1.25378 -1.90432 0
M  V30 13399 C 1287.88 -0.148217 -1.60216 0
M  V30 13400 O 1289.07 -0.379783 -1.72878 0
M  V30 13401 C 1286.2 -1.03172 -3.2743 0
M  V30 13402 C 1285.29 -2.18135 -3.637 0
M  V30 13403 N 1285.68 -3.43382 -3.71379 0
M  V30 13404 C 1283.98 -2.09603 -3.93678 0
M  V30 13405 C 1284.68 -4.19004 -4.03498 0
M  V30 13406 N 1283.65 -3.47799 -4.17776 0
M  V30 13407 H 1287.46 -2.20267 -1.94576 0
M  V30 13408 H 1284.97 -1.2814 -0.997687 0
M  V30 13409 H 1286.97 -0.939264 -4.06182 0
M  V30 13410 H 1285.63 -0.0917091 -3.2457 0
M  V30 13411 H 1286.64 -3.77687 -3.54363 0
M  V30 13412 H 1283.32 -1.23479 -3.98822 0
M  V30 13413 H 1284.71 -5.27255 -4.16476 0
M  V30 13414 N 1287.43 1.02549 -1.19673 0
M  V30 13415 C 1288.37 2.109 -0.937536 0
M  V30 13416 C 1289.34 1.65599 0.128923 0
M  V30 13417 O 1290.53 1.90795 -0.0139366 0
M  V30 13418 C 1287.67 3.4166 -0.48602 0
M  V30 13419 C 1286.78 4.0049 -1.61963 0
M  V30 13420 C 1285.92 5.19273 -1.11931 0
M  V30 13421 C 1284.95 5.70166 -2.22659 0
M  V30 13422 N 1284.09 6.80221 -1.73909 0
M  V30 13423 H 1288.93 2.32408 -1.86523 0
M  V30 13424 H 1286.47 1.13982 -0.929869 0
M  V30 13425 H 1288.43 4.16693 -0.205614 0
M  V30 13426 H 1287.06 3.20253 0.404678 0
M  V30 13427 H 1286.11 3.22638 -2.01516 0
M  V30 13428 H 1287.42 4.34273 -2.45374 0
M  V30 13429 H 1286.57 6.01478 -0.794336 0
M  V30 13430 H 1285.31 4.87033 -0.254972 0
M  V30 13431 H 1284.32 4.86572 -2.55983 0
M  V30 13432 H 1285.54 6.04444 -3.09554 0
M  V30 13433 H 1283.49 6.49826 -0.897889 0
M  V30 13434 H 1283.41 7.13149 -2.50907 0
M  V30 13435 H 1284.67 7.66011 -1.44386 0
M  V30 13436 N 1288.9 1.00119 1.21713 0
M  V30 13437 C 1290.15 0.682733 1.90962 0
M  V30 13438 C 1290.48 -0.784131 1.77665 0
M  V30 13439 O 1289.76 -1.56799 1.15084 0
M  V30 13440 C 1290.04 1.09975 3.42896 0
M  V30 13441 C 1289.89 2.62578 3.65202 0
M  V30 13442 C 1291.21 0.659247 4.35134 0
M  V30 13443 H 1288.33 0.249501 0.693483 0
M  V30 13444 H 1290.97 1.24619 1.43423 0
M  V30 13445 H 1289.12 0.620334 3.83515 0
M  V30 13446 H 1290.8 3.18254 3.33934 0
M  V30 13447 H 1289.04 3.04268 3.09198 0
M  V30 13448 H 1289.71 2.86809 4.7164 0
M  V30 13449 H 1292.19 1.07116 4.02076 0
M  V30 13450 H 1291.06 0.979241 5.40095 0
M  V30 13451 H 1291.32 -0.439777 4.39907 0
M  V30 13452 N 1290.38 -1.37203 0.775435 0
M  V30 13453 C 1291.63 -2.00349 0.350965 0
M  V30 13454 C 1291.98 -1.6045 -1.06176 0
M  V30 13455 O 1291.28 -0.842377 -1.72089 0
M  V30 13456 C 1291.47 -3.54725 0.436426 0
M  V30 13457 C 1291.3 -4.09617 1.85591 0
M  V30 13458 C 1290.07 -4.404 2.47741 0
M  V30 13459 C 1292.27 -4.30357 2.81598 0
M  V30 13460 N 1290.25 -4.81029 3.81424 0
M  V30 13461 C 1291.62 -4.73636 4.00087 0
M  V30 13462 C 1293.67 -4.12498 2.78837 0
M  V30 13463 C 1292.38 -5.00926 5.16203 0
M  V30 13464 C 1294.4 -4.40926 3.9413 0
M  V30 13465 C 1293.77 -4.84448 5.1136 0
M  V30 13466 H 1289.86 -0.762041 0.175549 0
M  V30 13467 H 1292.45 -1.66451 1.01005 0
M  V30 13468 H 1290.62 -3.87923 -0.192502 0
M  V30 13469 H 1292.35 -4.04699 -0.0104534 0
M  V30 13470 H 1289.11 -4.2961 1.9933 0
M  V30 13471 H 1289.53 -5.05648 4.50166 0
M  V30 13472 H 1294.17 -3.78018 1.89373 0
M  V30 13473 H 1291.89 -5.34293 6.06265 0
M  V30 13474 H 1295.48 -4.28692 3.93338 0
M  V30 13475 H 1294.36 -5.06022 5.99092 0
M  V30 13476 N 1291.86 -0.526279 -1.48553 0
M  V30 13477 C 1293.28 -0.183886 -1.58537 0
M  V30 13478 C 1293.48 1.31272 -1.52872 0
M  V30 13479 O 1292.53 2.09069 -1.41585 0
M  V30 13480 C 1293.84 -0.78313 -2.90323 0
M  V30 13481 C 1295.39 -0.751527 -3.03844 0
M  V30 13482 C 1295.87 -1.32928 -4.38285 0
M  V30 13483 N 1297.36 -1.29109 -4.44843 0
M  V30 13484 C 1298.09 -1.70806 -5.47369 0
M  V30 13485 N 1297.59 -2.20215 -6.56869 0
M  V30 13486 N 1299.38 -1.62065 -5.3823 0
M  V30 13487 H 1291.53 -1.499 -1.50478 0
M  V30 13488 H 1293.8 -0.623294 -0.714289 0
M  V30 13489 H 1293.5 -1.83371 -3.00113 0
M  V30 13490 H 1293.38 -0.25808 -3.76316 0
M  V30 13491 H 1295.76 0.290282 -2.93669 0
M  V30 13492 H 1295.84 -1.314 -2.19471 0
M  V30 13493 H 1295.49 -2.37 -4.49214 0
M  V30 13494 H 1295.42 -0.742516 -5.21339 0
M  V30 13495 H 1297.91 -0.929348 -3.66294 0
M  V30 13496 H 1298.22 -2.50035 -7.31233 0
M  V30 13497 H 1296.57 -2.24206 -6.57842 0
M  V30 13498 H 1299.76 -1.23265 -4.51579 0
M  V30 13499 H 1299.93 -1.94883 -6.18001 0
M  V30 13500 N 1293.34 1.5542 -0.261239 0
M  V30 13501 C 1294.28 2.21972 0.632216 0
M  V30 13502 C 1295.25 1.18843 1.16041 0
M  V30 13503 O 1296.44 1.47339 1.21226 0
M  V30 13504 C 1293.58 2.93397 1.81693 0
M  V30 13505 C 1292.69 4.11214 1.3239 0
M  V30 13506 C 1291.83 4.70318 2.46931 0
M  V30 13507 C 1290.87 5.80355 1.94561 0
M  V30 13508 N 1290 6.33581 3.02523 0
M  V30 13509 H 1294.84 2.97944 0.058018 0
M  V30 13510 H 1292.38 1.4709 0.0168725 0
M  V30 13511 H 1294.34 3.33015 2.5131 0
M  V30 13512 H 1292.97 2.19874 2.36337 0
M  V30 13513 H 1292.02 3.76811 0.521292 0
M  V30 13514 H 1293.33 4.90609 0.900214 0
M  V30 13515 H 1292.49 5.12584 3.24565 0
M  V30 13516 H 1291.23 3.90169 2.92608 0
M  V30 13517 H 1290.23 5.37552 1.15402 0
M  V30 13518 H 1291.46 6.62364 1.49836 0
M  V30 13519 H 1289.4 5.56332 3.47608 0
M  V30 13520 H 1289.32 7.08209 2.64529 0
M  V30 13521 H 1290.59 6.80506 3.80174 0
M  V30 13522 N 1294.82 -0.0116844 1.57596 0
M  V30 13523 C 1296.06 -0.703597 1.91908 0
M  V30 13524 C 1296.42 -1.71581 0.861628 0
M  V30 13525 O 1297.62 -2.45724 1.08963 0
M  V30 13526 C 1295.89 -1.34031 3.31316 0
M  V30 13527 S 1297.45 -2.05896 3.87495 0
M  V30 13528 H 1294.27 -0.23269 0.671846 0
M  V30 13529 H 1296.87 0.0421973 1.95454 0
M  V30 13530 H 1295.57 -0.590617 4.06128 0
M  V30 13531 H 1295.11 -2.12428 3.31116 0
M  V30 13532 H 1297.12 -3.33266 3.67626 0
M  V30 13533 N 1296.29 -1.55015 -0.284256 0
M  V30 13534 C 1297.24 -1.87122 -1.35107 0
M  V30 13535 C 1298.21 -0.721638 -1.49605 0
M  V30 13536 O 1299.4 -0.971855 -1.64194 0
M  V30 13537 C 1296.54 -2.1388 -2.70831 0
M  V30 13538 C 1295.65 -3.41447 -2.64647 0
M  V30 13539 C 1294.78 -3.57961 -3.92476 0
M  V30 13540 C 1293.82 -4.79261 -3.80757 0
M  V30 13541 N 1292.96 -4.92492 -5.00395 0
M  V30 13542 H 1297.8 -2.78117 -1.07027 0
M  V30 13543 H 1295.34 -1.37704 -0.517311 0
M  V30 13544 H 1297.29 -2.27391 -3.49784 0
M  V30 13545 H 1295.92 -1.26132 -2.97137 0
M  V30 13546 H 1294.98 -3.36467 -1.77466 0
M  V30 13547 H 1296.29 -4.3053 -2.51884 0
M  V30 13548 H 1295.44 -3.71229 -4.79868 0
M  V30 13549 H 1294.18 -2.67042 -4.08093 0
M  V30 13550 H 1293.19 -4.66008 -2.91747 0
M  V30 13551 H 1294.41 -5.71604 -3.66669 0
M  V30 13552 H 1292.36 -4.04501 -5.16445 0
M  V30 13553 H 1292.27 -5.75603 -4.9012 0
M  V30 13554 H 1293.54 -5.10134 -5.89392 0
M  V30 13555 N 1297.77 0.548248 -1.47757 0
M  V30 13556 C 1298.7 1.6705 -1.55466 0
M  V30 13557 C 1299.68 1.57444 -0.406208 0
M  V30 13558 O 1300.87 1.78176 -0.615268 0
M  V30 13559 C 1297.99 3.0535 -1.46558 0
M  V30 13560 C 1297.04 3.33372 -2.66017 0
M  V30 13561 S 1297.87 3.21643 -4.28143 0
M  V30 13562 C 1299.03 4.62421 -4.21803 0
M  V30 13563 H 1299.26 1.60258 -2.50409 0
M  V30 13564 H 1296.79 0.72978 -1.36065 0
M  V30 13565 H 1298.75 3.85118 -1.42106 0
M  V30 13566 H 1297.41 3.09599 -0.529838 0
M  V30 13567 H 1296.61 4.34218 -2.55873 0
M  V30 13568 H 1296.21 2.6124 -2.67638 0
M  V30 13569 H 1298.5 5.53561 -3.9061 0
M  V30 13570 H 1299.44 4.77621 -5.22766 0
M  V30 13571 H 1299.85 4.40887 -3.52532 0
M  V30 13572 N 1299.25 1.36039 0.795694 0
M  V30 13573 C 1300.67 1.16315 1.09284 0
M  V30 13574 C 1300.87 -0.017024 2.01493 0
M  V30 13575 O 1299.92 -0.684316 2.4305 0
M  V30 13576 C 1301.23 2.47113 1.71335 0
M  V30 13577 C 1302.78 2.5342 1.83705 0
M  V30 13578 C 1303.26 3.84289 2.49171 0
M  V30 13579 N 1304.75 3.856 2.56645 0
M  V30 13580 C 1305.48 4.83597 3.08094 0
M  V30 13581 N 1304.98 5.91985 3.59897 0
M  V30 13582 N 1306.77 4.71023 3.06748 0
M  V30 13583 H 1298.92 2.11611 0.182957 0
M  V30 13584 H 1301.19 0.937035 0.143771 0
M  V30 13585 H 1300.89 3.33708 1.11049 0
M  V30 13586 H 1300.77 2.62461 2.70914 0
M  V30 13587 H 1303.15 1.67247 2.43131 0
M  V30 13588 H 1303.23 2.41977 0.829495 0
M  V30 13589 H 1302.88 4.70865 1.90391 0
M  V30 13590 H 1302.81 3.93025 3.50484 0
M  V30 13591 H 1305.3 3.07291 2.19956 0
M  V30 13592 H 1305.61 6.6274 3.97487 0
M  V30 13593 H 1303.96 5.95662 3.58066 0
M  V30 13594 H 1307.15 3.8548 2.65561 0
M  V30 13595 H 1307.32 5.47555 3.46536 0
M  V30 13596 N 1300.73 -1.01913 1.20215 0
M  V30 13597 C 1301.98 -1.74878 1.00502 0
M  V30 13598 C 1302.29 -1.90022 -0.463792 0
M  V30 13599 O 1303.5 -2.60055 -0.779982 0
M  V30 13600 C 1301.95 -3.1452 1.74943 0
M  V30 13601 C 1301.56 -3.07397 3.259 0
M  V30 13602 C 1303.3 -3.91713 1.63589 0
M  V30 13603 C 1301.21 -4.42032 3.92889 0
M  V30 13604 H 1300.14 -0.655603 0.372426 0
M  V30 13605 H 1302.79 -1.13978 1.4381 0
M  V30 13606 H 1301.17 -3.75946 1.24421 0
M  V30 13607 H 1302.35 -2.55294 3.83617 0
M  V30 13608 H 1300.66 -2.43698 3.37639 0
M  V30 13609 H 1303.26 -4.91316 2.1098 0
M  V30 13610 H 1303.6 -4.12074 0.591665 0
M  V30 13611 H 1304.14 -3.3691 2.11511 0
M  V30 13612 H 1300.88 -4.26874 4.97453 0
M  V30 13613 H 1300.4 -4.94151 3.39962 0
M  V30 13614 H 1302.07 -5.10884 3.96997 0
M  V30 13615 N 1302.21 -1.00763 -1.2118 0
M  V30 13616 C 1303.45 -0.691826 -1.90316 0
M  V30 13617 C 1303.78 0.777678 -1.78276 0
M  V30 13618 O 1303.04 1.57962 -1.15526 0
M  V30 13619 C 1303.34 -1.06187 -3.41261 0
M  V30 13620 C 1303 -2.52608 -3.73497 0
M  V30 13621 C 1301.66 -2.92617 -3.82006 0
M  V30 13622 C 1304.02 -3.47442 -3.88502 0
M  V30 13623 C 1301.34 -4.26419 -4.02969 0
M  V30 13624 C 1303.7 -4.8092 -4.10973 0
M  V30 13625 C 1302.36 -5.20649 -4.17709 0
M  V30 13626 H 1301.63 -0.253157 -0.696414 0
M  V30 13627 H 1304.28 -1.26655 -1.43634 0
M  V30 13628 H 1302.58 -0.405428 -3.89697 0
M  V30 13629 H 1304.28 -0.795343 -3.93033 0
M  V30 13630 H 1300.87 -2.20603 -3.67468 0
M  V30 13631 H 1305.05 -3.17695 -3.81292 0
M  V30 13632 H 1300.31 -4.56767 -4.06416 0
M  V30 13633 H 1304.48 -5.54337 -4.21525 0
M  V30 13634 H 1302.11 -6.24343 -4.33705 0
M  V30 13635 N 1303.68 1.3679 -0.7827 0
M  V30 13636 C 1304.91 2.03678 -0.363734 0
M  V30 13637 C 1305.33 1.59024 1.01768 0
M  V30 13638 O 1304.68 0.776541 1.65155 0
M  V30 13639 C 1304.74 3.59165 -0.410213 0
M  V30 13640 O 1304.46 4.02188 -1.73714 0
M  V30 13641 C 1305.96 4.43296 0.018972 0
M  V30 13642 H 1303.18 0.653828 -0.150829 0
M  V30 13643 H 1305.72 1.74903 -1.05968 0
M  V30 13644 H 1303.88 3.86673 0.237249 0
M  V30 13645 H 1304.29 4.96754 -1.68332 0
M  V30 13646 H 1305.76 5.51962 -0.0646943 0
M  V30 13647 H 1306.24 4.25948 1.07076 0
M  V30 13648 H 1306.85 4.21036 -0.600721 0
M  V30 13649 N 1305.16 0.53415 1.48272 0
M  V30 13650 C 1306.41 0.00157492 2.028 0
M  V30 13651 C 1306.74 -1.33538 1.41001 0
M  V30 13652 O 1306.02 -1.86347 0.557245 0
M  V30 13653 C 1306.3 -0.116016 3.59913 0
M  V30 13654 C 1306.15 1.2464 4.32186 0
M  V30 13655 C 1307.47 -0.840775 4.31994 0
M  V30 13656 H 1304.59 0.00204634 0.736997 0
M  V30 13657 H 1307.23 0.691985 1.76951 0
M  V30 13658 H 1305.38 -0.704027 3.82068 0
M  V30 13659 H 1307.05 1.87584 4.21438 0
M  V30 13660 H 1305.3 1.8272 3.93441 0
M  V30 13661 H 1305.97 1.11708 5.40579 0
M  V30 13662 H 1308.44 -0.341746 4.14694 0
M  V30 13663 H 1307.32 -0.89196 5.41604 0
M  V30 13664 H 1307.58 -1.89197 3.99571 0
M  V30 13665 N 1306.64 -1.55279 0.269478 0
M  V30 13666 C 1307.6 -2.21008 -0.607299 0
M  V30 13667 C 1308.6 -1.18619 -1.08564 0
M  V30 13668 O 1309.79 -1.4356 -0.986721 0
M  V30 13669 C 1306.93 -2.87157 -1.83721 0
M  V30 13670 H 1308.12 -2.99881 -0.0334894 0
M  V30 13671 H 1305.67 -1.56287 0.0200573 0
M  V30 13672 H 1306.41 -2.12281 -2.45168 0
M  V30 13673 H 1306.19 -3.62183 -1.5022 0
M  V30 13674 H 1307.68 -3.37391 -2.46083 0
M  V30 13675 N 1308.12 0.00332656 -1.576 0
M  V30 13676 C 1309.05 1.02391 -2.05058 0
M  V30 13677 C 1310.06 1.30903 -0.967901 0
M  V30 13678 O 1311.25 1.27937 -1.24476 0
M  V30 13679 C 1308.35 2.35947 -2.43274 0
M  V30 13680 C 1307.53 2.26423 -3.74234 0
M  V30 13681 C 1306.58 3.4264 -3.99355 0
M  V30 13682 O 1305.61 3.20977 -4.70067 0
M  V30 13683 N 1306.81 4.65379 -3.46991 0
M  V30 13684 H 1309.58 0.619216 -2.93233 0
M  V30 13685 H 1307.14 0.190777 -1.60772 0
M  V30 13686 H 1309.13 3.12462 -2.57196 0
M  V30 13687 H 1307.7 2.6817 -1.60635 0
M  V30 13688 H 1306.92 1.34841 -3.70421 0
M  V30 13689 H 1308.21 2.17229 -4.60097 0
M  V30 13690 H 1307.61 4.85878 -2.89723 0
M  V30 13691 H 1306.16 5.39171 -3.66249 0
M  V30 13692 N 1309.6 1.55164 0.276031 0
M  V30 13693 C 1310.53 1.82758 1.36656 0
M  V30 13694 C 1311.51 0.680405 1.4768 0
M  V30 13695 O 1312.69 0.923078 1.64352 0
M  V30 13696 C 1309.82 1.98651 2.74328 0
M  V30 13697 C 1308.86 3.21192 2.80603 0
M  V30 13698 S 1309.7 4.78628 2.40156 0
M  V30 13699 C 1310.85 4.9749 3.79809 0
M  V30 13700 H 1311.09 2.74969 1.13045 0
M  V30 13701 H 1308.62 1.46896 0.4755 0
M  V30 13702 H 1310.58 2.08492 3.53612 0
M  V30 13703 H 1309.24 1.07333 2.95192 0
M  V30 13704 H 1308.43 3.29189 3.81642 0
M  V30 13705 H 1308.03 3.09926 2.09337 0
M  V30 13706 H 1310.33 4.83045 4.75051 0
M  V30 13707 H 1311.27 5.99544 3.76765 0
M  V30 13708 H 1311.68 4.25489 3.70971 0
M  V30 13709 N 1311.07 -0.540404 1.48045 0
M  V30 13710 C 1312.35 -1.30148 1.46017 0
M  V30 13711 C 1312.73 -2.10445 0.166171 0
M  V30 13712 O 1312.08 -2.12013 -0.852223 0
M  V30 13713 C 1312.29 -2.19177 2.71593 0
M  V30 13714 C 1313.64 -2.79655 3.19497 0
M  V30 13715 O 1314.66 -2.2947 2.72437 0
M  V30 13716 O 1313.52 -3.70912 4.01356 0
M  V30 13717 H 1310.61 -0.586879 0.582668 0
M  V30 13718 H 1313.16 -0.557918 1.60267 0
M  V30 13719 H 1311.93 -1.59556 3.57292 0
M  V30 13720 H 1311.56 -3.00798 2.60012 0
M  V30 13721 N 1312.55 -1.36459 -0.788468 0
M  V30 13722 C 1313.83 -1.21289 -1.53455 0
M  V30 13723 C 1314.21 0.200549 -2.10145 0
M  V30 13724 O 1313.56 1.20629 -1.94064 0
M  V30 13725 C 1313.77 -2.29562 -2.62873 0
M  V30 13726 C 1315.12 -2.66277 -3.30729 0
M  V30 13727 O 1316.14 -2.28612 -2.73157 0
M  V30 13728 O 1315 -3.31106 -4.34777 0
M  V30 13729 H 1312.09 -0.472306 -0.678864 0
M  V30 13730 H 1314.64 -1.48192 -0.826869 0
M  V30 13731 H 1313.41 -3.24286 -2.18984 0
M  V30 13732 H 1313.03 -2.0403 -3.41259 0
M  V30 13733 N 1314.03 1.01274 -1.20754 0
M  V30 13734 C 1314.98 2.12012 -0.95675 0
M  V30 13735 C 1315.97 1.69143 0.0932738 0
M  V30 13736 O 1317.18 1.79908 -0.0574298 0
M  V30 13737 H 1313.55 0.692956 -0.292088 0
M  V30 13738 H 1315.52 2.30347 -1.89692 0
M  V30 13739 C 1314.27 3.43643 -0.529602 0
M  V30 13740 H 1313.6 3.77058 -1.32918 0
M  V30 13741 H 1315.04 4.22171 -0.393376 0
M  V30 13742 C 1313.5 3.2825 0.758505 0
M  V30 13743 O 1314.03 3.58309 1.81598 0
M  V30 13744 N 1312.23 2.81487 0.722022 0
M  V30 13745 H 1311.78 2.57226 -0.138807 0
M  V30 13746 H 1311.74 2.7157 1.58421 0
M  V30 13747 N 1315.51 1.01404 1.20644 0
M  V30 13748 C 1316.73 0.720839 1.9447 0
M  V30 13749 C 1317.16 -0.711711 1.74116 0
M  V30 13750 O 1316.52 -1.48938 1.03379 0
M  V30 13751 C 1316.57 1.05864 3.4471 0
M  V30 13752 O 1315.67 0.168901 4.12054 0
M  V30 13753 H 1315.01 0.267698 0.607646 0
M  V30 13754 H 1317.54 1.35672 1.53147 0
M  V30 13755 H 1317.55 1.00928 3.9532 0
M  V30 13756 H 1316.23 2.1024 3.58848 0
M  V30 13757 H 1314.8 0.275572 3.7188 0
M  V30 13758 N 1316.99 -1.36373 0.789944 0
M  V30 13759 C 1318.24 -1.98476 0.359165 0
M  V30 13760 C 1318.55 -1.634 -1.07517 0
M  V30 13761 O 1319.76 -2.18742 -1.60824 0
M  V30 13762 C 1318.21 -3.55011 0.591228 0
M  V30 13763 C 1317.82 -3.99011 2.03701 0
M  V30 13764 C 1319.56 -4.23903 0.224979 0
M  V30 13765 C 1317.47 -5.48325 2.2157 0
M  V30 13766 H 1316.4 -0.742612 0.130552 0
M  V30 13767 H 1319.05 -1.55664 0.971652 0
M  V30 13768 H 1317.43 -3.95895 -0.0909788 0
M  V30 13769 H 1318.61 -3.69324 2.75566 0
M  V30 13770 H 1316.92 -3.42957 2.36155 0
M  V30 13771 H 1319.52 -5.33638 0.336764 0
M  V30 13772 H 1319.86 -4.08004 -0.826964 0
M  V30 13773 H 1320.4 -3.88383 0.860443 0
M  V30 13774 H 1317.13 -5.69173 3.25149 0
M  V30 13775 H 1316.65 -5.79637 1.54211 0
M  V30 13776 H 1318.33 -6.14556 2.0231 0
M  V30 13777 N 1318.47 -0.542005 -1.47987 0
M  V30 13778 C 1319.4 0.25143 -2.27817 0
M  V30 13779 C 1320.41 0.893436 -1.36094 0
M  V30 13780 O 1321.6 0.769849 -1.61045 0
M  V30 13781 C 1318.7 1.37236 -3.0987 0
M  V30 13782 C 1317.87 0.830021 -4.29452 0
M  V30 13783 C 1316.93 1.83356 -4.93221 0
M  V30 13784 O 1315.96 1.38571 -5.52075 0
M  V30 13785 N 1317.16 3.16631 -4.86544 0
M  V30 13786 H 1319.92 -0.433281 -2.96551 0
M  V30 13787 H 1317.49 -0.377099 -1.57447 0
M  V30 13788 H 1319.48 2.04212 -3.49399 0
M  V30 13789 H 1318.05 1.96055 -2.43478 0
M  V30 13790 H 1317.27 -0.0160827 -3.94197 0
M  V30 13791 H 1318.56 0.446762 -5.06835 0
M  V30 13792 H 1317.95 3.55673 -4.39901 0
M  V30 13793 H 1316.51 3.79207 -5.30137 0
M  V30 13794 N 1319.94 1.55134 -0.277709 0
M  V30 13795 C 1320.88 2.18745 0.650058 0
M  V30 13796 C 1321.85 1.14922 1.15029 0
M  V30 13797 O 1323.04 1.43458 1.22278 0
M  V30 13798 C 1320.17 2.81277 1.88683 0
M  V30 13799 C 1319.21 3.98425 1.52185 0
M  V30 13800 S 1320.04 5.32153 0.597782 0
M  V30 13801 C 1321.2 5.98155 1.84287 0
M  V30 13802 H 1321.43 2.97098 0.109571 0
M  V30 13803 H 1318.97 1.54276 -0.0619536 0
M  V30 13804 H 1320.92 3.17934 2.59669 0
M  V30 13805 H 1319.59 2.02813 2.39845 0
M  V30 13806 H 1318.78 4.40877 2.4422 0
M  V30 13807 H 1318.38 3.63203 0.892146 0
M  V30 13808 H 1320.67 6.17546 2.78646 0
M  V30 13809 H 1321.62 6.92857 1.46131 0
M  V30 13810 H 1322.02 5.27541 2.00899 0
M  V30 13811 N 1321.42 0.00503138 1.57599 0
M  V30 13812 C 1322.37 -0.984754 2.08737 0
M  V30 13813 C 1323.34 -1.33822 0.983915 0
M  V30 13814 O 1324.52 -1.43572 1.25665 0
M  V30 13815 C 1321.66 -2.26984 2.59946 0
M  V30 13816 C 1320.78 -1.97496 3.84212 0
M  V30 13817 C 1319.91 -3.20123 4.23904 0
M  V30 13818 C 1318.95 -2.86344 5.40993 0
M  V30 13819 N 1318.09 -4.01524 5.75954 0
M  V30 13820 H 1322.93 -0.541737 2.93034 0
M  V30 13821 H 1320.46 -0.255834 1.44858 0
M  V30 13822 H 1322.42 -3.02117 2.87717 0
M  V30 13823 H 1321.05 -2.68946 1.78516 0
M  V30 13824 H 1320.1 -1.12709 3.63319 0
M  V30 13825 H 1321.42 -1.68602 4.69441 0
M  V30 13826 H 1320.57 -4.03598 4.52983 0
M  V30 13827 H 1319.31 -3.5216 3.37394 0
M  V30 13828 H 1318.31 -2.01278 5.11632 0
M  V30 13829 H 1319.54 -2.5555 6.29183 0
M  V30 13830 H 1317.49 -4.33447 4.92402 0
M  V30 13831 H 1317.4 -3.76171 6.55768 0
M  V30 13832 H 1318.67 -4.85772 6.09628 0
M  V30 13833 N 1322.9 -1.55308 -0.267798 0
M  V30 13834 C 1323.85 -1.88544 -1.33115 0
M  V30 13835 C 1324.82 -0.737465 -1.48831 0
M  V30 13836 O 1326 -0.989215 -1.63154 0
M  V30 13837 C 1323.14 -2.1674 -2.68547 0
M  V30 13838 C 1322.25 -3.44234 -2.61011 0
M  V30 13839 C 1321.39 -3.62104 -3.88657 0
M  V30 13840 C 1320.43 -4.83272 -3.75652 0
M  V30 13841 N 1319.57 -4.97772 -4.95144 0
M  V30 13842 H 1324.41 -2.79237 -1.04071 0
M  V30 13843 H 1321.94 -1.38245 -0.502677 0
M  V30 13844 H 1323.9 -2.31088 -3.47353 0
M  V30 13845 H 1322.53 -1.29276 -2.95783 0
M  V30 13846 H 1321.58 -3.3833 -1.73887 0
M  V30 13847 H 1322.89 -4.33177 -2.47303 0
M  V30 13848 H 1322.05 -3.76298 -4.75904 0
M  V30 13849 H 1320.79 -2.71356 -4.05238 0
M  V30 13850 H 1319.79 -4.69076 -2.86788 0
M  V30 13851 H 1321.02 -5.75461 -3.60585 0
M  V30 13852 H 1318.96 -4.09956 -5.12125 0
M  V30 13853 H 1318.88 -5.80769 -4.83987 0
M  V30 13854 H 1320.15 -5.16357 -5.83949 0
M  V30 13855 N 1324.38 0.532545 -1.4833 0
M  V30 13856 C 1325.65 1.29371 -1.46705 0
M  V30 13857 C 1326.03 2.10354 -0.177329 0
M  V30 13858 O 1325.38 2.12462 0.840968 0
M  V30 13859 C 1325.59 2.17733 -2.72751 0
M  V30 13860 C 1326.94 2.77956 -3.20976 0
M  V30 13861 O 1327.96 2.28022 -2.7365 0
M  V30 13862 O 1326.82 3.68779 -4.03317 0
M  V30 13863 H 1323.92 0.58378 -0.585773 0
M  V30 13864 H 1326.46 0.549411 -1.6056 0
M  V30 13865 H 1325.24 1.57659 -3.58133 0
M  V30 13866 H 1324.86 2.99415 -2.61603 0
M  V30 13867 N 1325.86 1.36875 0.78122 0
M  V30 13868 C 1326.79 1.34559 1.9083 0
M  V30 13869 C 1327.77 0.215713 1.68727 0
M  V30 13870 O 1328.95 0.41462 1.89722 0
M  V30 13871 C 1326.08 1.14233 3.27976 0
M  V30 13872 C 1325.04 2.24132 3.64621 0
M  V30 13873 C 1324.36 1.8894 5.00206 0
M  V30 13874 C 1325.66 3.66266 3.72353 0
M  V30 13875 H 1327.36 2.28871 1.93025 0
M  V30 13876 H 1324.9 1.10171 0.927275 0
M  V30 13877 H 1326.85 1.11246 4.06451 0
M  V30 13878 H 1325.58 0.163747 3.26189 0
M  V30 13879 H 1324.24 2.26259 2.88448 0
M  V30 13880 H 1323.89 0.896351 4.94949 0
M  V30 13881 H 1323.59 2.62525 5.25694 0
M  V30 13882 H 1325.11 1.87523 5.81092 0
M  V30 13883 H 1326.52 3.66321 4.41001 0
M  V30 13884 H 1324.92 4.38825 4.09332 0
M  V30 13885 H 1325.99 4.00578 2.7325 0
M  V30 13886 N 1327.33 -1.00632 1.21289 0
M  V30 13887 C 1328.56 -1.77967 1.05524 0
M  V30 13888 C 1328.98 -1.84621 -0.395023 0
M  V30 13889 O 1328.33 -1.30664 -1.27409 0
M  V30 13890 C 1328.38 -3.21939 1.64432 0
M  V30 13891 O 1328.11 -3.15669 3.03784 0
M  V30 13892 C 1329.61 -4.1578 1.5376 0
M  V30 13893 H 1326.83 -0.559341 0.370646 0
M  V30 13894 H 1329.37 -1.26604 1.60598 0
M  V30 13895 H 1327.53 -3.70415 1.13453 0
M  V30 13896 H 1327.94 -4.06112 3.31924 0
M  V30 13897 H 1329.41 -5.14602 1.99722 0
M  V30 13898 H 1329.89 -4.36438 0.491811 0
M  V30 13899 H 1330.5 -3.73192 2.0398 0
M  V30 13900 N 1328.81 -1.02043 -1.20104 0
M  V30 13901 C 1330.04 -0.731315 -1.93544 0
M  V30 13902 C 1330.45 0.708582 -1.74999 0
M  V30 13903 O 1329.81 1.481 -1.06642 0
M  V30 13904 C 1329.86 -1.06233 -3.45538 0
M  V30 13905 O 1329.58 -2.44568 -3.63481 0
M  V30 13906 C 1331.08 -0.794818 -4.36116 0
M  V30 13907 H 1328.3 -0.268248 -0.615048 0
M  V30 13908 H 1330.85 -1.36264 -1.52488 0
M  V30 13909 H 1329 -0.476341 -3.8446 0
M  V30 13910 H 1329.42 -2.5663 -4.57429 0
M  V30 13911 H 1330.89 -1.07647 -5.41402 0
M  V30 13912 H 1331.37 0.270944 -4.38363 0
M  V30 13913 H 1331.97 -1.36314 -4.02863 0
M  V30 13914 N 1330.29 1.35952 -0.797165 0
M  V30 13915 C 1331.54 1.99032 -0.373142 0
M  V30 13916 C 1331.87 1.63257 1.05723 0
M  V30 13917 O 1331.12 0.883022 1.74646 0
M  V30 13918 C 1331.42 3.53986 -0.492805 0
M  V30 13919 C 1331.09 4.09603 -1.88511 0
M  V30 13920 C 1329.75 4.24505 -2.26604 0
M  V30 13921 C 1332.1 4.39829 -2.79643 0
M  V30 13922 C 1329.43 4.66946 -3.55215 0
M  V30 13923 C 1331.78 4.83706 -4.0769 0
M  V30 13924 C 1330.44 4.96813 -4.45795 0
M  V30 13925 H 1329.71 0.728311 -0.136542 0
M  V30 13926 H 1332.36 1.62318 -1.01613 0
M  V30 13927 H 1330.67 3.91103 0.233661 0
M  V30 13928 H 1332.36 4.00735 -0.145638 0
M  V30 13929 H 1328.95 3.98449 -1.57912 0
M  V30 13930 H 1333.14 4.27878 -2.51464 0
M  V30 13931 H 1328.39 4.75282 -3.84599 0
M  V30 13932 H 1332.57 5.06057 -4.78414 0
M  V30 13933 H 1330.19 5.29458 -5.45507 0
M  V30 13934 N 1331.77 0.549846 1.47697 0
M  V30 13935 C 1332.7 -0.190364 2.32723 0
M  V30 13936 C 1333.68 -0.915933 1.43334 0
M  V30 13937 O 1334.86 -0.897838 1.72199 0
M  V30 13938 C 1331.99 -1.22545 3.24961 0
M  V30 13939 C 1330.95 -0.616805 4.23532 0
M  V30 13940 C 1330.27 -1.75599 5.05044 0
M  V30 13941 C 1331.57 0.424595 5.20571 0
M  V30 13942 H 1333.27 0.519461 2.94859 0
M  V30 13943 H 1330.81 0.251259 1.41791 0
M  V30 13944 H 1332.77 -1.75139 3.83281 0
M  V30 13945 H 1331.49 -1.96512 2.60865 0
M  V30 13946 H 1330.15 -0.112224 3.66428 0
M  V30 13947 H 1329.8 -2.48453 4.37356 0
M  V30 13948 H 1329.5 -1.35456 5.71774 0
M  V30 13949 H 1331.02 -2.28533 5.6622 0
M  V30 13950 H 1332.44 -0.0150025 5.73298 0
M  V30 13951 H 1330.83 0.7445 5.95464 0
M  V30 13952 H 1331.9 1.32318 4.66497 0
M  V30 13953 N 1333.25 -1.54984 0.285932 0
M  V30 13954 C 1334.48 -2.03943 -0.330295 0
M  V30 13955 C 1334.88 -1.16336 -1.49207 0
M  V30 13956 O 1334.23 -0.178341 -1.82832 0
M  V30 13957 C 1334.29 -3.48976 -0.863479 0
M  V30 13958 C 1333.95 -4.5668 0.171058 0
M  V30 13959 C 1334.95 -5.10303 0.994329 0
M  V30 13960 C 1332.64 -5.01352 0.308416 0
M  V30 13961 C 1334.63 -6.07126 1.94104 0
M  V30 13962 C 1332.32 -5.97999 1.25859 0
M  V30 13963 C 1333.31 -6.50768 2.0734 0
M  V30 13964 O 1333 -7.45524 3.00749 0
M  V30 13965 H 1332.73 -0.671491 -0.0779452 0
M  V30 13966 H 1335.29 -2.01081 0.419011 0
M  V30 13967 H 1333.52 -3.49113 -1.66305 0
M  V30 13968 H 1335.21 -3.81213 -1.39396 0
M  V30 13969 H 1335.97 -4.76595 0.899002 0
M  V30 13970 H 1331.85 -4.59917 -0.315817 0
M  V30 13971 H 1335.4 -6.48239 2.57743 0
M  V30 13972 H 1331.29 -6.31125 1.35469 0
M  V30 13973 H 1332.06 -7.63276 2.95554 0
M  V30 13974 N 1334.72 -0.0133892 -1.57594 0
M  V30 13975 C 1335.67 0.982482 -2.05746 0
M  V30 13976 C 1336.66 1.29508 -0.954801 0
M  V30 13977 O 1337.85 1.28382 -1.21848 0
M  V30 13978 C 1334.98 2.27012 -2.57527 0
M  V30 13979 C 1334.07 1.98658 -3.74694 0
M  V30 13980 N 1334.46 1.40512 -4.85891 0
M  V30 13981 C 1332.75 2.28732 -3.82881 0
M  V30 13982 C 1333.46 1.28933 -5.67231 0
M  V30 13983 N 1332.43 1.77951 -5.13648 0
M  V30 13984 H 1336.23 0.527626 -2.89125 0
M  V30 13985 H 1333.75 0.192001 -1.61261 0
M  V30 13986 H 1335.74 2.99212 -2.90306 0
M  V30 13987 H 1334.4 2.73139 -1.75572 0
M  V30 13988 H 1335.42 1.08217 -5.06468 0
M  V30 13989 H 1332.09 2.77641 -3.11804 0
M  V30 13990 H 1333.48 0.841051 -6.66615 0
M  V30 13991 N 1336.2 1.55448 0.259558 0
M  V30 13992 C 1337.13 1.9226 1.32508 0
M  V30 13993 C 1338.11 0.786012 1.5085 0
M  V30 13994 O 1339.3 1.04526 1.6367 0
M  V30 13995 C 1336.43 2.20627 2.68218 0
M  V30 13996 C 1335.38 3.36418 2.64589 0
M  V30 13997 C 1334.71 3.50295 4.03977 0
M  V30 13998 C 1336.01 4.72452 2.2268 0
M  V30 13999 H 1337.7 2.81509 1.01945 0
M  V30 14000 H 1335.25 1.35444 0.488965 0
M  V30 14001 H 1337.2 2.44968 3.42883 0
M  V30 14002 H 1335.93 1.28191 3.00391 0
M  V30 14003 H 1334.58 3.12065 1.92382 0
M  V30 14004 H 1334.23 2.55302 4.33394 0
M  V30 14005 H 1333.93 4.28155 4.02439 0
M  V30 14006 H 1335.46 3.76944 4.8036 0
M  V30 14007 H 1336.87 4.96249 2.87071 0
M  V30 14008 H 1335.27 5.53323 2.32279 0
M  V30 14009 H 1336.34 4.70367 1.17826 0
M  V30 14010 N 1337.68 -0.524672 1.4861 0
M  V30 14011 C 1339.1 -0.853703 1.34848 0
M  V30 14012 C 1339.3 -1.98194 0.363529 0
M  V30 14013 O 1338.35 -2.51597 -0.213348 0
M  V30 14014 C 1339.67 -1.21622 2.75006 0
M  V30 14015 C 1341.21 -1.3258 2.83534 0
M  V30 14016 C 1341.69 -1.72172 4.24406 0
M  V30 14017 N 1343.18 -1.79265 4.27105 0
M  V30 14018 C 1343.91 -2.11296 5.33049 0
M  V30 14019 N 1343.41 -2.41714 6.49266 0
M  V30 14020 N 1345.2 -2.12347 5.20447 0
M  V30 14021 H 1337.35 0.219671 2.11261 0
M  V30 14022 H 1339.62 0.0356444 0.94733 0
M  V30 14023 H 1339.32 -0.460776 3.48669 0
M  V30 14024 H 1339.2 -2.16516 3.0887 0
M  V30 14025 H 1341.58 -2.072 2.10124 0
M  V30 14026 H 1341.67 -0.357943 2.53283 0
M  V30 14027 H 1341.31 -0.981108 4.98334 0
M  V30 14028 H 1341.24 -2.70017 4.52104 0
M  V30 14029 H 1343.73 -1.58013 3.43279 0
M  V30 14030 H 1344.04 -2.65276 7.25843 0
M  V30 14031 H 1342.39 -2.39222 6.52532 0
M  V30 14032 H 1345.58 -1.88044 4.28669 0
M  V30 14033 H 1345.75 -2.36978 6.03113 0
M  V30 14034 N 1339.16 -1.37287 -0.77395 0
M  V30 14035 C 1340.41 -1.31698 -1.52769 0
M  V30 14036 C 1340.72 0.0968585 -1.9536 0
M  V30 14037 O 1341.93 0.275205 -2.70102 0
M  V30 14038 C 1340.38 -2.31154 -2.75854 0
M  V30 14039 C 1339.99 -3.78055 -2.40371 0
M  V30 14040 C 1341.73 -2.34572 -3.53803 0
M  V30 14041 C 1339.64 -4.69248 -3.59945 0
M  V30 14042 H 1338.57 -0.489456 -0.573541 0
M  V30 14043 H 1341.22 -1.62735 -0.84791 0
M  V30 14044 H 1339.6 -1.93132 -3.45711 0
M  V30 14045 H 1340.78 -4.24902 -1.78312 0
M  V30 14046 H 1339.09 -3.77562 -1.75602 0
M  V30 14047 H 1341.69 -2.99908 -4.42673 0
M  V30 14048 H 1342.03 -1.35868 -3.93504 0
M  V30 14049 H 1342.57 -2.7129 -2.90941 0
M  V30 14050 H 1339.31 -5.69072 -3.25327 0
M  V30 14051 H 1338.83 -4.27108 -4.21117 0
M  V30 14052 H 1340.5 -4.86275 -4.26785 0
M  V30 14053 N 1340.64 0.999871 -1.21821 0
M  V30 14054 C 1341.86 1.77405 -1.06467 0
M  V30 14055 C 1342.28 1.84828 0.385227 0
M  V30 14056 O 1341.64 1.31338 1.26714 0
M  V30 14057 C 1341.69 3.21062 -1.66137 0
M  V30 14058 O 1341.41 3.14054 -3.05454 0
M  V30 14059 C 1342.91 4.14958 -1.55963 0
M  V30 14060 H 1340.13 0.557368 -0.373607 0
M  V30 14061 H 1342.67 1.2575 -1.61267 0
M  V30 14062 H 1340.83 3.69808 -1.15416 0
M  V30 14063 H 1341.24 4.04346 -3.34073 0
M  V30 14064 H 1342.72 5.13536 -2.02448 0
M  V30 14065 H 1343.19 4.36171 -0.514949 0
M  V30 14066 H 1343.8 3.72105 -2.05956 0
M  V30 14067 N 1342.11 1.02678 1.19562 0
M  V30 14068 C 1343.08 0.610407 2.20922 0
M  V30 14069 C 1344.08 -0.324858 1.57484 0
M  V30 14070 O 1345.27 -0.112153 1.73839 0
M  V30 14071 C 1342.4 -0.107115 3.40732 0
M  V30 14072 H 1343.59 1.50722 2.59274 0
M  V30 14073 H 1341.15 0.817725 1.33203 0
M  V30 14074 H 1341.88 -1.01837 3.07896 0
M  V30 14075 H 1341.67 0.564901 3.88009 0
M  V30 14076 H 1343.16 -0.385423 4.15818 0
M  V30 14077 N 1343.59 -1.35528 0.804364 0
M  V30 14078 C 1344.5 -2.33616 0.214663 0
M  V30 14079 C 1345.52 -1.61757 -0.64115 0
M  V30 14080 O 1346.69 -1.93647 -0.553424 0
M  V30 14081 C 1343.76 -3.40951 -0.628778 0
M  V30 14082 C 1342.82 -4.28587 0.247269 0
M  V30 14083 C 1342.05 -5.30796 -0.556012 0
M  V30 14084 O 1342.28 -5.41557 -1.79088 0
M  V30 14085 O 1341.21 -6.01878 0.0519437 0
M  V30 14086 H 1345.04 -2.85843 1.02605 0
M  V30 14087 H 1342.62 -1.38259 0.566108 0
M  V30 14088 H 1344.5 -4.06538 -1.10926 0
M  V30 14089 H 1343.18 -2.90999 -1.4178 0
M  V30 14090 H 1342.09 -3.65988 0.774835 0
M  V30 14091 H 1343.42 -4.81931 1.00017 0
M  V30 14092 N 1345.07 -0.557671 -1.47404 0
M  V30 14093 C 1346.32 -0.0338384 -2.02772 0
M  V30 14094 C 1346.65 1.31278 -1.43107 0
M  V30 14095 O 1345.93 1.85436 -0.58682 0
M  V30 14096 C 1346.21 0.0587427 -3.60052 0
M  V30 14097 C 1346.06 -1.315 -4.30148 0
M  V30 14098 C 1347.38 0.771942 -4.33277 0
M  V30 14099 H 1344.5 -0.0137711 -0.736871 0
M  V30 14100 H 1347.14 -0.720049 -1.75827 0
M  V30 14101 H 1345.29 0.643154 -3.83139 0
M  V30 14102 H 1346.96 -1.94265 -4.184 0
M  V30 14103 H 1345.21 -1.88956 -3.90484 0
M  V30 14104 H 1345.88 -1.20294 -5.38733 0
M  V30 14105 H 1348.35 0.275729 -4.15185 0
M  V30 14106 H 1347.23 0.805683 -5.42955 0
M  V30 14107 H 1347.49 1.82816 -4.0253 0
M  V30 14108 N 1346.55 1.54831 -0.294147 0
M  V30 14109 C 1347.46 2.26939 0.594621 0
M  V30 14110 C 1348.48 1.30209 1.15419 0
M  V30 14111 O 1349.65 1.6318 1.18044 0
M  V30 14112 C 1346.72 2.9909 1.75345 0
M  V30 14113 C 1345.78 4.11342 1.22865 0
M  V30 14114 C 1345.01 4.80043 2.33225 0
M  V30 14115 O 1345.23 4.48062 3.52983 0
M  V30 14116 O 1344.17 5.67593 2.00304 0
M  V30 14117 H 1347.99 3.03698 0.00989235 0
M  V30 14118 H 1345.58 1.49276 -0.0608528 0
M  V30 14119 H 1347.46 3.44369 2.42875 0
M  V30 14120 H 1346.14 2.25232 2.32492 0
M  V30 14121 H 1345.04 3.70478 0.519279 0
M  V30 14122 H 1346.38 4.87158 0.702703 0
M  V30 14123 N 1348.03 0.0217466 1.57585 0
M  V30 14124 C 1349.27 -0.659463 1.91778 0
M  V30 14125 C 1349.61 -1.72201 0.897801 0
M  V30 14126 O 1348.88 -1.94333 -0.080509 0
M  V30 14127 C 1349.16 -1.28269 3.36481 0
M  V30 14128 C 1349.02 -0.230201 4.49211 0
M  V30 14129 C 1350.34 -2.20279 3.81005 0
M  V30 14130 H 1347.46 -0.238263 0.697424 0
M  V30 14131 H 1350.1 0.0774967 1.89842 0
M  V30 14132 H 1348.25 -1.9108 3.38262 0
M  V30 14133 H 1349.92 0.399901 4.59563 0
M  V30 14134 H 1348.16 0.445157 4.3151 0
M  V30 14135 H 1348.83 -0.705732 5.4747 0
M  V30 14136 H 1351.31 -1.67463 3.80914 0
M  V30 14137 H 1350.19 -2.60842 4.82962 0
M  V30 14138 H 1350.45 -3.09092 3.16093 0
M  V30 14139 N 1349.51 -1.55583 -0.251311 0
M  V30 14140 C 1350.75 -1.77471 -0.981418 0
M  V30 14141 C 1351.08 -0.586228 -1.85141 0
M  V30 14142 O 1350.36 0.415623 -1.90007 0
M  V30 14143 C 1350.64 -3.09204 -1.84567 0
M  V30 14144 C 1350.5 -4.38448 -1.00417 0
M  V30 14145 C 1351.81 -3.37133 -2.82895 0
M  V30 14146 H 1348.93 -0.645664 -0.355369 0
M  V30 14147 H 1351.58 -1.88318 -0.252228 0
M  V30 14148 H 1349.73 -3.00087 -2.46738 0
M  V30 14149 H 1351.4 -4.5955 -0.40149 0
M  V30 14150 H 1349.64 -4.32703 -0.308365 0
M  V30 14151 H 1350.31 -5.26995 -1.64258 0
M  V30 14152 H 1352.79 -3.46183 -2.3086 0
M  V30 14153 H 1351.66 -4.30531 -3.40491 0
M  V30 14154 H 1351.92 -2.57829 -3.59133 0
M  V30 14155 N 1350.98 0.516783 -1.48886 0
M  V30 14156 C 1351.89 1.6467 -1.67095 0
M  V30 14157 C 1352.91 1.64963 -0.553466 0
M  V30 14158 O 1354.09 1.83673 -0.826206 0
M  V30 14159 C 1351.15 3.01095 -1.71879 0
M  V30 14160 C 1350.21 3.11554 -2.95352 0
M  V30 14161 C 1349.44 4.41471 -2.99898 0
M  V30 14162 O 1349.67 5.29348 -2.12477 0
M  V30 14163 O 1348.6 4.56573 -3.92205 0
M  V30 14164 H 1352.43 1.52242 -2.62785 0
M  V30 14165 H 1350.01 0.69134 -1.32442 0
M  V30 14166 H 1351.89 3.82207 -1.77471 0
M  V30 14167 H 1350.57 3.1382 -0.793656 0
M  V30 14168 H 1349.48 2.29689 -2.95286 0
M  V30 14169 H 1350.81 3.03751 -3.87294 0
M  V30 14170 N 1352.46 1.37696 0.766659 0
M  V30 14171 C 1353.39 1.28241 1.88758 0
M  V30 14172 C 1354.37 0.161948 1.61791 0
M  V30 14173 O 1355.56 0.337034 1.85462 0
M  V30 14174 C 1352.68 0.983972 3.24092 0
M  V30 14175 C 1351.73 2.12202 3.69963 0
M  V30 14176 S 1352.56 3.74225 3.83035 0
M  V30 14177 C 1353.72 3.46542 5.2121 0
M  V30 14178 H 1353.95 2.23113 1.96489 0
M  V30 14179 H 1351.48 1.23378 0.92829 0
M  V30 14180 H 1353.44 0.818612 4.02255 0
M  V30 14181 H 1352.1 0.0526544 3.14056 0
M  V30 14182 H 1351.3 1.86834 4.68091 0
M  V30 14183 H 1350.9 2.24778 2.98916 0
M  V30 14184 H 1353.19 3.01845 6.06544 0
M  V30 14185 H 1354.13 4.44016 5.51593 0
M  V30 14186 H 1354.54 2.81353 4.89388 0
M  V30 14187 N 1353.94 -0.993397 1.22349 0
M  V30 14188 C 1354.89 -2.06784 0.960445 0
M  V30 14189 C 1355.87 -1.60655 -0.0887385 0
M  V30 14190 O 1357.07 -1.76581 0.121716 0
M  V30 14191 C 1354.19 -3.39034 0.539552 0
M  V30 14192 C 1353.28 -3.91798 1.62344 0
M  V30 14193 N 1353.67 -4.17791 2.85104 0
M  V30 14194 C 1351.97 -4.20197 1.49501 0
M  V30 14195 C 1352.67 -4.6067 3.55187 0
M  V30 14196 N 1351.65 -4.64333 2.82658 0
M  V30 14197 H 1355.45 -2.24821 1.89295 0
M  V30 14198 H 1352.96 -1.17509 1.12095 0
M  V30 14199 H 1354.96 -4.15573 0.332419 0
M  V30 14200 H 1353.62 -3.22397 -0.38606 0
M  V30 14201 H 1354.63 -4.05999 3.21536 0
M  V30 14202 H 1351.31 -4.12634 0.635546 0
M  V30 14203 H 1352.7 -4.89408 4.60358 0
M  V30 14204 N 1355.42 -1.03311 -1.19015 0
M  V30 14205 C 1356.33 -0.627735 -2.26046 0
M  V30 14206 C 1357.34 0.342483 -1.70596 0
M  V30 14207 O 1358.52 0.199307 -2.00411 0
M  V30 14208 C 1355.58 0.0108274 -3.46698 0
M  V30 14209 C 1354.65 -1.00743 -4.17312 0
M  V30 14210 C 1353.88 -0.399245 -5.32205 0
M  V30 14211 O 1354.1 0.796649 -5.64809 0
M  V30 14212 O 1353.04 -1.12419 -5.91308 0
M  V30 14213 H 1356.86 -1.51923 -2.6297 0
M  V30 14214 H 1354.45 -0.803538 -1.25951 0
M  V30 14215 H 1356.33 0.366672 -4.19802 0
M  V30 14216 H 1355 0.876265 -3.11614 0
M  V30 14217 H 1353.91 -1.41494 -3.4631 0
M  V30 14218 H 1355.24 -1.84338 -4.56377 0
M  V30 14219 N 1356.9 1.35099 -0.81154 0
M  V30 14220 C 1358.12 2.03391 -0.405805 0
M  V30 14221 C 1358.55 1.60745 0.97686 0
M  V30 14222 O 1357.9 0.786518 1.63351 0
M  V30 14223 C 1357.95 3.57075 -0.502954 0
M  V30 14224 O 1357.06 4.09577 0.481681 0
M  V30 14225 H 1356.4 0.642203 -0.168733 0
M  V30 14226 H 1358.93 1.72591 -1.0988 0
M  V30 14227 H 1358.94 4.06277 -0.37456 0
M  V30 14228 H 1357.61 3.87463 -1.51145 0
M  V30 14229 H 1356.19 3.71583 0.313115 0
M  V30 14230 N 1358.37 0.56548 1.47106 0
M  V30 14231 C 1359.65 -0.0215358 1.95588 0
M  V30 14232 C 1360.03 -1.47712 1.50813 0
M  V30 14233 O 1359.38 -2.15814 0.750776 0
M  V30 14234 C 1359.59 0.132552 3.48748 0
M  V30 14235 C 1360.94 -0.00853591 4.24599 0
M  V30 14236 O 1361.96 0.0605142 3.56149 0
M  V30 14237 O 1360.82 -0.158519 5.4627 0
M  V30 14238 H 1357.91 -0.0595011 0.824857 0
M  V30 14239 H 1360.46 0.632586 1.57469 0
M  V30 14240 H 1359.23 1.14511 3.7417 0
M  V30 14241 H 1358.85 -0.558801 3.93654 0
M  V30 14242 N 1359.85 -1.54672 0.302354 0
M  V30 14243 C 1361.1 -1.99345 -0.307307 0
M  V30 14244 C 1361.41 -1.19437 -1.549 0
M  V30 14245 O 1362.62 -1.54384 -2.23334 0
M  V30 14246 C 1361.08 -3.54896 -0.59808 0
M  V30 14247 C 1360.68 -4.43614 0.625357 0
M  V30 14248 C 1362.43 -4.08091 -1.16886 0
M  V30 14249 C 1360.34 -5.90599 0.307661 0
M  V30 14250 H 1359.27 -0.744614 -0.118603 0
M  V30 14251 H 1361.92 -1.78832 0.411271 0
M  V30 14252 H 1360.3 -3.71314 -1.37629 0
M  V30 14253 H 1361.47 -4.38969 1.40152 0
M  V30 14254 H 1359.79 -4.01198 1.11487 0
M  V30 14255 H 1362.38 -5.15477 -1.42082 0
M  V30 14256 H 1362.73 -3.58775 -2.11155 0
M  V30 14257 H 1363.26 -3.9522 -0.452329 0
M  V30 14258 H 1360 -6.44067 1.21895 0
M  V30 14259 H 1359.52 -5.98248 -0.431208 0
M  V30 14260 H 1361.2 -6.46937 -0.0902796 0
M  V30 14261 N 1361.33 -0.0301034 -1.57571 0
M  V30 14262 C 1362.56 0.662045 -1.9655 0
M  V30 14263 C 1362.98 1.64811 -0.906581 0
M  V30 14264 O 1362.34 1.80816 0.132415 0
M  V30 14265 C 1362.39 1.34389 -3.34622 0
M  V30 14266 O 1361.49 2.45919 -3.31056 0
M  V30 14267 H 1360.83 0.173842 -0.640839 0
M  V30 14268 H 1363.36 -0.092248 -2.04392 0
M  V30 14269 H 1363.37 1.70045 -3.70875 0
M  V30 14270 H 1362.05 0.621092 -4.11236 0
M  V30 14271 H 1360.62 2.12367 -3.06521 0
M  V30 14272 N 1362.81 1.55714 0.243056 0
M  V30 14273 C 1363.77 1.89832 1.28438 0
M  V30 14274 C 1364.77 0.775083 1.40887 0
M  V30 14275 O 1365.96 1.04304 1.39521 0
M  V30 14276 C 1363.09 2.13016 2.66153 0
M  V30 14277 H 1364.29 2.82947 0.994022 0
M  V30 14278 H 1361.84 1.48665 0.482521 0
M  V30 14279 H 1362.57 1.22381 3.00322 0
M  V30 14280 H 1362.36 2.94824 2.58498 0
M  V30 14281 H 1363.85 2.40581 3.41336 0
M  V30 14282 N 1364.29 -0.50888 1.49158 0
M  V30 14283 C 1365.52 -1.28585 1.61708 0
M  V30 14284 C 1365.92 -1.87047 0.284629 0
M  V30 14285 O 1365.27 -1.68182 -0.738959 0
M  V30 14286 C 1365.33 -2.46043 2.62113 0
M  V30 14287 C 1364.99 -2.0851 4.0666 0
M  V30 14288 C 1365.99 -1.62943 4.93706 0
M  V30 14289 C 1363.68 -2.18386 4.52342 0
M  V30 14290 C 1365.67 -1.27747 6.24467 0
M  V30 14291 C 1363.36 -1.82801 5.83118 0
M  V30 14292 C 1364.35 -1.37555 6.69005 0
M  V30 14293 O 1364.04 -1.02447 7.97345 0
M  V30 14294 H 1363.77 -0.396504 0.547504 0
M  V30 14295 H 1366.33 -0.61834 1.95872 0
M  V30 14296 H 1364.56 -3.15844 2.23113 0
M  V30 14297 H 1366.25 -3.08081 2.64275 0
M  V30 14298 H 1367.01 -1.54766 4.59644 0
M  V30 14299 H 1362.89 -2.52556 3.85664 0
M  V30 14300 H 1366.44 -0.923589 6.91459 0
M  V30 14301 H 1362.33 -1.90626 6.16711 0
M  V30 14302 H 1363.1 -1.15663 8.10287 0
M  V30 14303 N 1365.76 -1.381 -0.759346 0
M  V30 14304 C 1366.99 -1.37213 -1.54855 0
M  V30 14305 C 1367.41 0.0395175 -1.88759 0
M  V30 14306 O 1366.76 1.00462 -1.5236 0
M  V30 14307 C 1366.82 -2.22232 -2.85123 0
M  V30 14308 O 1366.54 -3.57897 -2.52668 0
M  V30 14309 C 1368.04 -2.29461 -3.79292 0
M  V30 14310 H 1365.26 -0.469542 -0.479345 0
M  V30 14311 H 1367.8 -1.81604 -0.940216 0
M  V30 14312 H 1365.96 -1.81317 -3.42349 0
M  V30 14313 H 1366.37 -4.02599 -3.36176 0
M  V30 14314 H 1367.84 -2.93246 -4.67665 0
M  V30 14315 H 1368.32 -1.3066 -4.19315 0
M  V30 14316 H 1368.93 -2.70741 -3.27993 0
M  V30 14317 N 1367.24 0.986894 -1.22875 0
M  V30 14318 C 1368.47 1.7601 -1.08185 0
M  V30 14319 C 1368.88 1.85545 0.370088 0
M  V30 14320 O 1368.22 1.32915 1.26804 0
M  V30 14321 C 1368.29 3.20661 -1.62532 0
M  V30 14322 C 1367.95 3.34655 -3.11216 0
M  V30 14323 C 1368.95 3.21493 -4.08581 0
M  V30 14324 C 1366.63 3.59512 -3.50794 0
M  V30 14325 C 1368.63 3.32983 -5.43508 0
M  V30 14326 C 1366.31 3.70642 -4.85868 0
M  V30 14327 C 1367.31 3.57387 -5.82034 0
M  V30 14328 O 1367 3.68135 -7.14655 0
M  V30 14329 H 1366.73 0.559402 -0.379533 0
M  V30 14330 H 1369.28 1.24905 -1.63058 0
M  V30 14331 H 1367.51 3.72985 -1.02073 0
M  V30 14332 H 1369.2 3.7972 -1.43415 0
M  V30 14333 H 1369.97 3.02193 -3.79347 0
M  V30 14334 H 1365.85 3.68904 -2.76461 0
M  V30 14335 H 1369.39 3.22553 -6.18551 0
M  V30 14336 H 1365.29 3.89451 -5.1478 0
M  V30 14337 H 1366.06 3.84971 -7.22316 0
M  V30 14338 N 1368.72 1.0394 1.18466 0
M  V30 14339 C 1369.63 0.639714 2.2571 0
M  V30 14340 C 1370.65 -0.333431 1.70775 0
M  V30 14341 O 1371.82 -0.188676 2.00514 0
M  V30 14342 C 1368.89 0.007559 3.46699 0
M  V30 14343 C 1367.95 1.02955 4.16772 0
M  V30 14344 C 1367.18 0.427464 5.31985 0
M  V30 14345 O 1367.4 -0.766684 5.65224 0
M  V30 14346 O 1366.34 1.15553 5.90704 0
M  V30 14347 H 1370.16 1.53316 2.6216 0
M  V30 14348 H 1367.75 0.810206 1.25523 0
M  V30 14349 H 1369.63 -0.344404 4.1999 0
M  V30 14350 H 1368.31 -0.859727 3.12074 0
M  V30 14351 H 1367.21 1.43328 3.45554 0
M  V30 14352 H 1368.55 1.86756 4.55393 0
M  V30 14353 N 1370.2 -1.34667 0.818693 0
M  V30 14354 C 1371.15 -2.29595 0.235551 0
M  V30 14355 C 1372.12 -1.53389 -0.63727 0
M  V30 14356 O 1373.3 -1.81777 -0.579804 0
M  V30 14357 C 1370.44 -3.39843 -0.600043 0
M  V30 14358 C 1369.55 -4.30995 0.294553 0
M  V30 14359 C 1368.69 -5.28343 -0.550203 0
M  V30 14360 C 1367.73 -6.11132 0.344043 0
M  V30 14361 N 1366.86 -7.00582 -0.461392 0
M  V30 14362 H 1371.7 -2.78872 1.05044 0
M  V30 14363 H 1369.24 -1.37239 0.529517 0
M  V30 14364 H 1371.2 -4.02443 -1.09978 0
M  V30 14365 H 1369.83 -2.91811 -1.38008 0
M  V30 14366 H 1368.88 -3.69294 0.912483 0
M  V30 14367 H 1370.19 -4.89031 0.982341 0
M  V30 14368 H 1369.35 -5.96374 -1.11459 0
M  V30 14369 H 1368.09 -4.70833 -1.27151 0
M  V30 14370 H 1367.09 -5.42038 0.920608 0
M  V30 14371 H 1368.32 -6.70722 1.0634 0
M  V30 14372 H 1366.26 -6.45546 -1.16645 0
M  V30 14373 H 1366.18 -7.55813 0.168095 0
M  V30 14374 H 1367.45 -7.72946 -1.00867 0
M  V30 14375 N 1371.68 -0.573274 -1.46804 0
M  V30 14376 C 1372.9 -0.0605984 -2.06811 0
M  V30 14377 C 1373.32 1.24024 -1.4235 0
M  V30 14378 O 1372.68 1.7477 -0.525515 0
M  V30 14379 C 1372.73 0.121828 -3.61295 0
M  V30 14380 O 1372.45 -1.12751 -4.23342 0
M  V30 14381 C 1373.95 0.669941 -4.38208 0
M  V30 14382 H 1371.17 -0.0531498 -0.668892 0
M  V30 14383 H 1373.71 -0.791259 -1.88572 0
M  V30 14384 H 1371.87 0.802674 -3.78993 0
M  V30 14385 H 1372.28 -0.935361 -5.16092 0
M  V30 14386 H 1373.76 0.746806 -5.46925 0
M  V30 14387 H 1374.23 1.68483 -4.05598 0
M  V30 14388 H 1374.84 0.0242721 -4.25293 0
M  V30 14389 N 1373.15 1.5451 -0.310553 0
M  V30 14390 C 1374.08 2.26827 0.554243 0
M  V30 14391 C 1375.07 1.27133 1.13009 0
M  V30 14392 O 1376.25 1.55923 1.15765 0
M  V30 14393 C 1373.38 3.01626 1.7216 0
M  V30 14394 C 1372.33 4.08547 1.27566 0
M  V30 14395 C 1371.66 4.71115 2.52893 0
M  V30 14396 C 1372.96 5.20766 0.399955 0
M  V30 14397 H 1374.65 2.9936 -0.0489475 0
M  V30 14398 H 1372.2 1.43978 -0.0249817 0
M  V30 14399 H 1374.15 3.50942 2.33276 0
M  V30 14400 H 1372.88 2.26688 2.35118 0
M  V30 14401 H 1371.54 3.60096 0.687499 0
M  V30 14402 H 1371.18 3.92805 3.14186 0
M  V30 14403 H 1370.88 5.43331 2.23752 0
M  V30 14404 H 1372.41 5.23198 3.14796 0
M  V30 14405 H 1373.82 5.65918 0.917054 0
M  V30 14406 H 1372.22 5.9976 0.2019 0
M  V30 14407 H 1373.29 4.81508 -0.572537 0
M  V30 14408 N 1374.63 0.0384594 1.57553 0
M  V30 14409 C 1375.88 -0.639085 1.92467 0
M  V30 14410 C 1376.21 -1.71239 0.916014 0
M  V30 14411 O 1375.49 -1.94408 -0.0598928 0
M  V30 14412 C 1375.77 -1.24693 3.37822 0
M  V30 14413 C 1375.62 -0.182544 4.49429 0
M  V30 14414 C 1376.94 -2.16226 3.8332 0
M  V30 14415 H 1374.06 -0.230852 0.699912 0
M  V30 14416 H 1376.7 0.0976276 1.89749 0
M  V30 14417 H 1374.85 -1.87481 3.40269 0
M  V30 14418 H 1376.53 0.448622 4.59113 0
M  V30 14419 H 1374.77 0.4909 4.31013 0
M  V30 14420 H 1375.44 -0.647626 5.48188 0
M  V30 14421 H 1377.92 -1.63413 3.82669 0
M  V30 14422 H 1376.79 -2.55705 4.85702 0
M  V30 14423 H 1377.05 -3.05722 3.19353 0
M  V30 14424 N 1376.11 -1.55841 -0.234795 0
M  V30 14425 C 1377.04 -1.86317 -1.31762 0
M  V30 14426 C 1378.02 -0.719321 -1.45824 0
M  V30 14427 O 1379.21 -0.966329 -1.61847 0
M  V30 14428 C 1376.33 -2.05854 -2.68964 0
M  V30 14429 C 1375.38 -3.28518 -2.71989 0
M  V30 14430 S 1376.21 -4.84827 -2.27382 0
M  V30 14431 C 1377.37 -5.07385 -3.66485 0
M  V30 14432 H 1377.6 -2.7787 -1.05715 0
M  V30 14433 H 1375.13 -1.48105 -0.436386 0
M  V30 14434 H 1377.09 -2.17794 -3.4796 0
M  V30 14435 H 1375.75 -1.15122 -2.92243 0
M  V30 14436 H 1374.95 -3.39192 -3.7278 0
M  V30 14437 H 1374.55 -3.15367 -2.01047 0
M  V30 14438 H 1376.84 -4.95471 -4.62077 0
M  V30 14439 H 1377.78 -6.09323 -3.60737 0
M  V30 14440 H 1378.19 -4.35175 -3.59559 0
M  V30 14441 N 1377.59 0.500963 -1.49426 0
M  V30 14442 C 1378.5 1.62889 -1.68833 0
M  V30 14443 C 1379.52 1.64367 -0.570932 0
M  V30 14444 O 1380.69 1.82786 -0.845641 0
M  V30 14445 C 1377.76 2.99255 -1.75063 0
M  V30 14446 C 1376.82 3.08404 -2.9864 0
M  V30 14447 C 1376.05 4.38266 -3.04564 0
M  V30 14448 O 1376.27 5.27065 -2.1808 0
M  V30 14449 O 1375.21 4.52387 -3.97026 0
M  V30 14450 H 1379.03 1.49446 -2.64385 0
M  V30 14451 H 1376.62 0.677254 -1.33168 0
M  V30 14452 H 1378.5 3.80303 -1.81515 0
M  V30 14453 H 1377.18 3.1296 -0.826896 0
M  V30 14454 H 1376.08 2.26544 -2.97706 0
M  V30 14455 H 1377.42 2.99626 -3.90494 0
M  V30 14456 N 1379.07 1.38501 0.752011 0
M  V30 14457 C 1380 1.31746 1.87551 0
M  V30 14458 C 1381.01 0.229386 1.61176 0
M  V30 14459 O 1382.2 0.487066 1.71726 0
M  V30 14460 C 1379.3 1.01889 3.23221 0
M  V30 14461 C 1378.47 2.21637 3.77088 0
M  V30 14462 C 1377.53 1.885 4.91278 0
M  V30 14463 O 1376.56 2.61011 5.05828 0
M  V30 14464 N 1377.76 0.840909 5.74377 0
M  V30 14465 H 1380.53 2.28561 1.93856 0
M  V30 14466 H 1378.09 1.32383 0.932013 0
M  V30 14467 H 1380.08 0.777704 3.97157 0
M  V30 14468 H 1378.65 0.138658 3.12292 0
M  V30 14469 H 1377.87 2.61812 2.947 0
M  V30 14470 H 1379.16 3.01551 4.0981 0
M  V30 14471 H 1378.56 0.23962 5.65192 0
M  V30 14472 H 1377.11 0.659604 6.48454 0
M  V30 14473 N 1380.55 -0.980364 1.23396 0
M  V30 14474 C 1381.96 -1.24658 0.996622 0
M  V30 14475 C 1382.16 -1.9922 -0.302259 0
M  V30 14476 O 1381.22 -2.30906 -1.02169 0
M  V30 14477 C 1382.53 -2.0461 2.20353 0
M  V30 14478 C 1384.08 -2.17749 2.24843 0
M  V30 14479 C 1384.55 -3.01091 3.4512 0
M  V30 14480 N 1386.04 -3.08676 3.4536 0
M  V30 14481 C 1386.78 -3.73487 4.3508 0
M  V30 14482 N 1386.28 -4.40121 5.35038 0
M  V30 14483 N 1388.07 -3.70373 4.22824 0
M  V30 14484 H 1380.22 -0.480851 2.06885 0
M  V30 14485 H 1382.48 -0.275049 0.907222 0
M  V30 14486 H 1382.19 -1.57197 3.14614 0
M  V30 14487 H 1382.06 -3.05359 2.21441 0
M  V30 14488 H 1384.45 -2.64369 1.31122 0
M  V30 14489 H 1384.53 -1.16388 2.27788 0
M  V30 14490 H 1384.17 -2.55168 4.39149 0
M  V30 14491 H 1384.1 -4.02621 3.39417 0
M  V30 14492 H 1386.6 -2.61265 2.73037 0
M  V30 14493 H 1386.91 -4.87354 5.99755 0
M  V30 14494 H 1385.25 -4.38829 5.38938 0
M  V30 14495 H 1388.44 -3.17486 3.43977 0
M  V30 14496 H 1388.62 -4.20601 4.92949 0
M  V30 14497 N 1382.02 -1.04567 -1.17913 0
M  V30 14498 C 1383.25 -0.772146 -1.92491 0
M  V30 14499 C 1383.67 0.665297 -1.75942 0
M  V30 14500 O 1383.03 1.46144 -1.07292 0
M  V30 14501 C 1383.08 -1.14966 -3.41782 0
M  V30 14502 O 1382.18 -0.278091 -4.11461 0
M  V30 14503 H 1381.52 -0.283715 -0.600335 0
M  V30 14504 H 1384.05 -1.39685 -1.49496 0
M  V30 14505 H 1384.06 -1.11374 -3.92505 0
M  V30 14506 H 1382.74 -2.1968 -3.53148 0
M  V30 14507 H 1381.32 -0.374073 -3.71019 0
M  V30 14508 N 1383.5 1.34231 -0.825823 0
M  V30 14509 C 1384.43 2.28261 -0.207234 0
M  V30 14510 C 1385.45 1.51159 0.604554 0
M  V30 14511 O 1386.64 1.7315 0.43376 0
M  V30 14512 C 1383.74 3.30991 0.727868 0
M  V30 14513 C 1382.91 4.3738 -0.0417267 0
M  V30 14514 C 1381.97 5.19854 0.81474 0
M  V30 14515 O 1380.99 5.68612 0.25867 0
M  V30 14516 N 1382.2 5.39849 2.1341 0
M  V30 14517 H 1384.96 2.81986 -1.0151 0
M  V30 14518 H 1382.52 1.46785 -0.683056 0
M  V30 14519 H 1384.51 3.83065 1.3055 0
M  V30 14520 H 1383.08 2.7764 1.43647 0
M  V30 14521 H 1382.3 3.85983 -0.800686 0
M  V30 14522 H 1383.59 5.05581 -0.571395 0
M  V30 14523 H 1382.99 5.01914 2.60958 0
M  V30 14524 H 1381.55 5.95029 2.66052 0
M  V30 14525 N 1384.98 0.581051 1.46498 0
M  V30 14526 C 1386.23 0.0637189 2.01599 0
M  V30 14527 C 1386.54 -1.30353 1.45834 0
M  V30 14528 O 1387.75 -1.91211 1.92745 0
M  V30 14529 C 1386.2 0.0633254 3.59844 0
M  V30 14530 C 1385.81 1.42879 4.24605 0
M  V30 14531 C 1387.56 -0.400149 4.2261 0
M  V30 14532 C 1385.46 1.38621 5.74924 0
M  V30 14533 H 1384.39 0.0200512 0.753733 0
M  V30 14534 H 1387.04 0.732451 1.68248 0
M  V30 14535 H 1385.43 -0.671538 3.90264 0
M  V30 14536 H 1386.6 2.18325 4.05796 0
M  V30 14537 H 1384.91 1.83215 3.73927 0
M  V30 14538 H 1387.51 -0.450771 5.32797 0
M  V30 14539 H 1387.85 -1.41733 3.9143 0
M  V30 14540 H 1388.39 0.280598 3.96809 0
M  V30 14541 H 1385.13 2.38014 6.10761 0
M  V30 14542 H 1384.65 0.673926 5.96002 0
M  V30 14543 H 1386.33 1.09841 6.37608 0
M  V30 14544 N 1386.46 -1.54343 0.318742 0
M  V30 14545 C 1387.39 -2.27118 -0.542206 0
M  V30 14546 C 1388.37 -1.27731 -1.12334 0
M  V30 14547 O 1389.55 -1.56535 -1.14937 0
M  V30 14548 C 1386.68 -3.02535 -1.70558 0
M  V30 14549 C 1385.64 -4.09218 -1.25398 0
M  V30 14550 C 1384.96 -4.72449 -2.50391 0
M  V30 14551 C 1386.26 -5.20971 -0.372332 0
M  V30 14552 H 1387.96 -2.9933 0.0648226 0
M  V30 14553 H 1385.5 -1.43963 0.0326168 0
M  V30 14554 H 1387.46 -3.52174 -2.31412 0
M  V30 14555 H 1386.18 -2.27931 -2.33912 0
M  V30 14556 H 1384.84 -3.60455 -0.668392 0
M  V30 14557 H 1384.49 -3.94466 -3.12099 0
M  V30 14558 H 1384.19 -5.4451 -2.20868 0
M  V30 14559 H 1385.71 -5.2486 -3.12016 0
M  V30 14560 H 1387.13 -5.66396 -0.887029 0
M  V30 14561 H 1385.52 -5.99859 -0.17009 0
M  V30 14562 H 1386.59 -4.81198 0.598064 0
M  V30 14563 N 1387.94 -0.0468143 -1.5753 0
M  V30 14564 C 1388.88 0.929065 -2.11275 0
M  V30 14565 C 1389.85 1.31166 -1.01905 0
M  V30 14566 O 1391.04 1.40189 -1.29428 0
M  V30 14567 C 1388.18 2.20012 -2.65873 0
M  V30 14568 C 1387.29 1.8724 -3.89314 0
M  V30 14569 C 1386.43 3.08772 -4.32242 0
M  V30 14570 C 1385.46 2.719 -5.48395 0
M  V30 14571 N 1384.6 3.86112 -5.86397 0
M  V30 14572 H 1389.44 0.463854 -2.94368 0
M  V30 14573 H 1386.98 0.217338 -1.45486 0
M  V30 14574 H 1388.94 2.94383 -2.95626 0
M  V30 14575 H 1387.57 2.64118 -1.85584 0
M  V30 14576 H 1386.62 1.03037 -3.6618 0
M  V30 14577 H 1387.93 1.56096 -4.73746 0
M  V30 14578 H 1387.08 3.91446 -4.63525 0
M  V30 14579 H 1385.82 3.4309 -3.46613 0
M  V30 14580 H 1384.83 1.87642 -5.16789 0
M  V30 14581 H 1386.05 2.38779 -6.35737 0
M  V30 14582 H 1384 4.2024 -5.03721 0
M  V30 14583 H 1383.92 3.58652 -6.65511 0
M  V30 14584 H 1385.18 4.69438 -6.22293 0
M  V30 14585 N 1389.41 1.55964 0.226527 0
M  V30 14586 C 1390.35 1.88487 1.30405 0
M  V30 14587 C 1391.36 0.772723 1.43293 0
M  V30 14588 O 1392.55 1.05099 1.44279 0
M  V30 14589 C 1389.65 2.074 2.68027 0
M  V30 14590 C 1388.82 3.38389 2.77149 0
M  V30 14591 C 1387.88 3.46795 3.95752 0
M  V30 14592 O 1386.91 4.19862 3.84323 0
M  V30 14593 N 1388.11 2.77573 5.09836 0
M  V30 14594 H 1390.87 2.81506 1.02833 0
M  V30 14595 H 1388.43 1.56449 0.416581 0
M  V30 14596 H 1390.43 2.10344 3.45742 0
M  V30 14597 H 1389 1.2103 2.8822 0
M  V30 14598 H 1388.22 3.47586 1.8595 0
M  V30 14599 H 1389.5 4.24688 2.8021 0
M  V30 14600 H 1388.9 2.17979 5.22017 0
M  V30 14601 H 1387.46 2.86185 5.85612 0
M  V30 14602 N 1390.89 -0.493031 1.4969 0
M  V30 14603 C 1391.83 -1.61165 1.61558 0
M  V30 14604 C 1392.8 -1.55828 0.464363 0
M  V30 14605 O 1393.99 -1.7577 0.680973 0
M  V30 14606 C 1391.11 -2.997 1.5779 0
M  V30 14607 C 1390.16 -3.2327 2.78207 0
M  V30 14608 S 1390.99 -3.05531 4.39785 0
M  V30 14609 C 1392.15 -4.46447 4.38675 0
M  V30 14610 H 1392.38 -1.50854 2.56185 0
M  V30 14611 H 1389.92 -0.678777 1.38679 0
M  V30 14612 H 1391.87 -3.79579 1.56302 0
M  V30 14613 H 1390.53 -3.07419 0.644379 0
M  V30 14614 H 1389.73 -4.24422 2.71812 0
M  V30 14615 H 1389.33 -2.51126 2.77149 0
M  V30 14616 H 1391.62 -5.38683 4.10886 0
M  V30 14617 H 1392.56 -4.5789 5.40132 0
M  V30 14618 H 1392.97 -4.27499 3.68652 0
M  V30 14619 N 1392.37 -1.38898 -0.744656 0
M  V30 14620 C 1393.32 -1.33342 -1.84943 0
M  V30 14621 C 1394.3 -0.216036 -1.59443 0
M  V30 14622 O 1395.5 -0.452764 -1.71111 0
M  V30 14623 C 1392.63 -1.16966 -3.2276 0
M  V30 14624 C 1391.71 -2.33365 -3.54121 0
M  V30 14625 N 1392.1 -3.58824 -3.56481 0
M  V30 14626 C 1390.4 -2.26112 -3.84434 0
M  V30 14627 C 1391.1 -4.35741 -3.85364 0
M  V30 14628 N 1390.08 -3.65206 -4.02648 0
M  V30 14629 H 1393.88 -2.28321 -1.85059 0
M  V30 14630 H 1391.39 -1.32257 -0.94244 0
M  V30 14631 H 1393.39 -1.11069 -4.01832 0
M  V30 14632 H 1392.05 -0.229288 -3.23889 0
M  V30 14633 H 1393.06 -3.92377 -3.38025 0
M  V30 14634 H 1389.74 -1.40283 -3.93226 0
M  V30 14635 H 1391.13 -5.44445 -3.93738 0
M  V30 14636 N 1393.85 0.973806 -1.23914 0
M  V30 14637 C 1394.78 2.08526 -1.05068 0
M  V30 14638 C 1395.76 1.70065 0.0344761 0
M  V30 14639 O 1396.94 1.93755 -0.131432 0
M  V30 14640 C 1394.07 3.41198 -0.648165 0
M  V30 14641 C 1393.03 3.9359 -1.6814 0
M  V30 14642 C 1392.35 5.22534 -1.13414 0
M  V30 14643 C 1393.65 4.22116 -3.07597 0
M  V30 14644 H 1395.35 2.24551 -1.98034 0
M  V30 14645 H 1392.89 1.07905 -0.953546 0
M  V30 14646 H 1394.85 4.18383 -0.50334 0
M  V30 14647 H 1393.57 3.25056 0.317182 0
M  V30 14648 H 1392.23 3.18555 -1.81434 0
M  V30 14649 H 1391.88 5.02747 -0.159578 0
M  V30 14650 H 1391.58 5.58555 -1.82456 0
M  V30 14651 H 1393.1 6.02334 -1.0013 0
M  V30 14652 H 1394.52 4.90027 -2.97567 0
M  V30 14653 H 1392.91 4.69352 -3.73937 0
M  V30 14654 H 1393.98 3.29128 -3.56094 0
M  V30 14655 N 1395.33 1.05191 1.17357 0
M  V30 14656 C 1396.55 0.782373 1.91537 0
M  V30 14657 C 1396.97 -0.661935 1.76816 0
M  V30 14658 O 1396.33 -1.45221 1.10531 0
M  V30 14659 C 1396.38 1.15357 3.426 0
M  V30 14660 O 1396.1 2.54119 3.56869 0
M  V30 14661 C 1397.6 0.910167 4.33856 0
M  V30 14662 H 1394.82 0.284461 0.607719 0
M  V30 14663 H 1397.36 1.40259 1.48821 0
M  V30 14664 H 1395.52 0.578107 3.83062 0
M  V30 14665 H 1395.93 2.68668 4.50464 0
M  V30 14666 H 1397.41 1.21964 5.38358 0
M  V30 14667 H 1397.88 -0.154624 4.38928 0
M  V30 14668 H 1398.49 1.46947 3.99107 0
M  V30 14669 N 1396.8 -1.33791 0.83293 0
M  V30 14670 C 1397.75 -2.29332 0.25989 0
M  V30 14671 C 1398.72 -1.54056 -0.620965 0
M  V30 14672 O 1399.91 -1.82382 -0.560492 0
M  V30 14673 C 1397.05 -3.40461 -0.563964 0
M  V30 14674 C 1396.16 -4.30658 0.34025 0
M  V30 14675 C 1395.29 -5.28897 -0.494134 0
M  V30 14676 C 1394.33 -6.10733 0.408842 0
M  V30 14677 N 1393.47 -7.01032 -0.38706 0
M  V30 14678 H 1398.31 -2.77743 1.07996 0
M  V30 14679 H 1395.85 -1.3667 0.544043 0
M  V30 14680 H 1397.81 -4.03587 -1.05704 0
M  V30 14681 H 1396.44 -2.93258 -1.34905 0
M  V30 14682 H 1395.49 -3.68305 0.9516 0
M  V30 14683 H 1396.8 -4.87962 1.03415 0
M  V30 14684 H 1395.95 -5.97522 -1.05128 0
M  V30 14685 H 1394.69 -4.72155 -1.2215 0
M  V30 14686 H 1393.7 -5.41031 0.978046 0
M  V30 14687 H 1394.92 -6.69557 1.13448 0
M  V30 14688 H 1392.87 -6.46747 -1.09792 0
M  V30 14689 H 1392.79 -7.55592 0.248249 0
M  V30 14690 H 1394.05 -7.73973 -0.926631 0
M  V30 14691 N 1398.28 -0.588812 -1.46187 0
M  V30 14692 C 1399.23 0.153638 -2.32092 0
M  V30 14693 C 1400.22 0.878346 -1.4485 0
M  V30 14694 O 1401.43 0.796042 -1.61441 0
M  V30 14695 H 1397.81 0.0684129 -0.748882 0
M  V30 14696 H 1399.78 -0.58961 -2.92517 0
M  V30 14697 C 1398.53 1.15003 -3.28131 0
M  V30 14698 H 1397.85 0.601804 -3.95245 0
M  V30 14699 H 1399.29 1.6398 -3.91007 0
M  V30 14700 C 1397.75 2.21411 -2.53926 0
M  V30 14701 O 1398.28 3.28862 -2.30679 0
M  V30 14702 N 1396.48 1.96184 -2.14383 0
M  V30 14703 H 1396.03 1.08812 -2.3349 0
M  V30 14704 H 1395.99 2.6759 -1.65055 0
M  V30 14705 N 1399.76 1.54172 -0.326923 0
M  V30 14706 C 1400.67 2.28149 0.546351 0
M  V30 14707 C 1401.69 1.32628 1.12631 0
M  V30 14708 O 1402.86 1.65647 1.14556 0
M  V30 14709 C 1399.93 3.02742 1.68962 0
M  V30 14710 C 1398.99 4.13856 1.14112 0
M  V30 14711 C 1398.22 4.84882 2.2299 0
M  V30 14712 O 1398.44 4.55448 3.43399 0
M  V30 14713 O 1397.38 5.71714 1.8822 0
M  V30 14714 H 1401.2 3.03651 -0.0545288 0
M  V30 14715 H 1398.79 1.49113 -0.0925027 0
M  V30 14716 H 1400.67 3.49443 2.35515 0
M  V30 14717 H 1399.35 2.30113 2.27662 0
M  V30 14718 H 1398.25 3.71497 0.440579 0
M  V30 14719 H 1399.59 4.88539 0.599211 0
M  V30 14720 N 1401.24 0.0551678 1.57503 0
M  V30 14721 C 1402.65 -0.3014 1.56728 0
M  V30 14722 C 1402.85 -1.71169 1.06317 0
M  V30 14723 O 1401.91 -2.4197 0.721566 0
M  V30 14724 C 1403.22 -0.12622 3.00435 0
M  V30 14725 C 1404.77 -0.197022 3.12379 0
M  V30 14726 C 1405.25 -0.0503235 4.57972 0
M  V30 14727 N 1406.74 -0.106471 4.63078 0
M  V30 14728 C 1407.47 -0.0171325 5.73397 0
M  V30 14729 N 1406.97 0.124781 6.92688 0
M  V30 14730 N 1408.76 -0.0730028 5.62053 0
M  V30 14731 H 1400.91 0.977072 1.88592 0
M  V30 14732 H 1403.18 0.37963 0.868668 0
M  V30 14733 H 1402.88 0.846286 3.41366 0
M  V30 14734 H 1402.76 -0.885574 3.66657 0
M  V30 14735 H 1405.14 -1.16 2.71345 0
M  V30 14736 H 1405.22 0.593155 2.48828 0
M  V30 14737 H 1404.87 0.909352 4.99693 0
M  V30 14738 H 1404.8 -0.859695 5.19535 0
M  V30 14739 H 1407.29 -0.215241 3.77287 0
M  V30 14740 H 1407.6 0.185548 7.72577 0
M  V30 14741 H 1405.95 0.15992 6.94816 0
M  V30 14742 H 1409.14 -0.182456 4.67744 0
M  V30 14743 H 1409.31 7.85052e-05 6.48 0
M  V30 14744 N 1402.72 -1.56081 -0.218252 0
M  V30 14745 C 1403.63 -1.95856 -1.29141 0
M  V30 14746 C 1404.64 -0.862857 -1.51099 0
M  V30 14747 O 1405.82 -1.1667 -1.64165 0
M  V30 14748 C 1402.88 -2.27005 -2.62049 0
M  V30 14749 C 1401.94 -3.50162 -2.48365 0
M  V30 14750 C 1401.18 -3.79815 -3.74935 0
M  V30 14751 O 1401.4 -3.11095 -4.78096 0
M  V30 14752 O 1400.33 -4.73299 -3.71849 0
M  V30 14753 H 1404.16 -2.8732 -0.983922 0
M  V30 14754 H 1401.75 -1.43334 -0.421385 0
M  V30 14755 H 1403.63 -2.4822 -3.40536 0
M  V30 14756 H 1402.3 -1.38715 -2.92472 0
M  V30 14757 H 1401.21 -3.34222 -1.68066 0
M  V30 14758 H 1402.54 -4.38845 -2.22881 0
M  V30 14759 N 1404.2 0.485086 -1.49949 0
M  V30 14760 C 1405.61 0.817651 -1.37064 0
M  V30 14761 C 1405.81 1.9716 -0.415949 0
M  V30 14762 O 1404.87 2.52074 0.146567 0
M  V30 14763 C 1406.18 1.14288 -2.78134 0
M  V30 14764 C 1407.73 1.25016 -2.8695 0
M  V30 14765 C 1408.2 1.60859 -4.28822 0
M  V30 14766 N 1409.69 1.67878 -4.31707 0
M  V30 14767 C 1410.43 1.97089 -5.38464 0
M  V30 14768 N 1409.93 2.24415 -6.55446 0
M  V30 14769 N 1411.72 1.98474 -5.25894 0
M  V30 14770 H 1403.87 -0.275606 -2.10604 0
M  V30 14771 H 1406.13 -0.0607486 -0.946052 0
M  V30 14772 H 1405.84 0.36817 -3.49768 0
M  V30 14773 H 1405.71 2.0825 -3.14502 0
M  V30 14774 H 1408.1 2.01556 -2.15544 0
M  V30 14775 H 1408.18 0.290664 -2.54143 0
M  V30 14776 H 1407.82 0.848639 -5.0076 0
M  V30 14777 H 1407.75 2.57936 -4.59104 0
M  V30 14778 H 1410.25 1.48856 -3.47347 0
M  V30 14779 H 1410.56 2.45938 -7.32622 0
M  V30 14780 H 1408.9 2.21837 -6.58645 0
M  V30 14781 H 1412.09 1.76612 -4.33504 0
M  V30 14782 H 1412.27 2.20904 -6.09184 0
M  V30 14783 N 1405.67 1.39291 0.737279 0
M  V30 14784 C 1406.58 1.40098 1.88175 0
M  V30 14785 C 1407.6 0.296053 1.71463 0
M  V30 14786 O 1408.78 0.537153 1.94105 0
M  V30 14787 C 1405.84 1.24071 3.2374 0
M  V30 14788 C 1404.9 2.44515 3.52861 0
M  V30 14789 C 1404.13 2.29243 4.81958 0
M  V30 14790 O 1404.36 1.2947 5.55512 0
M  V30 14791 O 1403.29 3.18178 5.10927 0
M  V30 14792 H 1407.12 2.36565 1.90449 0
M  V30 14793 H 1404.7 1.20382 0.884786 0
M  V30 14794 H 1406.58 1.17257 4.04758 0
M  V30 14795 H 1405.26 0.30698 3.22241 0
M  V30 14796 H 1404.17 2.56905 2.71939 0
M  V30 14797 H 1405.5 3.36573 3.59137 0
M  V30 14798 N 1407.15 -0.967221 1.24429 0
M  V30 14799 C 1408.4 -1.70458 1.07829 0
M  V30 14800 C 1408.71 -1.91818 -0.38278 0
M  V30 14801 O 1409.92 -2.63129 -0.668982 0
M  V30 14802 C 1408.38 -3.06817 1.88125 0
M  V30 14803 C 1407.98 -2.93298 3.38645 0
M  V30 14804 C 1409.73 -3.84422 1.80056 0
M  V30 14805 C 1407.63 -4.2497 4.11284 0
M  V30 14806 H 1406.56 -0.639217 0.399897 0
M  V30 14807 H 1409.22 -1.07776 1.48515 0
M  V30 14808 H 1407.6 -3.70331 1.40254 0
M  V30 14809 H 1408.77 -2.38793 3.94099 0
M  V30 14810 H 1407.09 -2.29159 3.47671 0
M  V30 14811 H 1409.68 -4.81925 2.31629 0
M  V30 14812 H 1410.03 -4.09194 0.765908 0
M  V30 14813 H 1410.56 -3.27636 2.2561 0
M  V30 14814 H 1407.3 -4.05391 5.1511 0
M  V30 14815 H 1406.82 -4.79288 3.60615 0
M  V30 14816 H 1408.5 -4.93586 4.18308 0
M  V30 14817 N 1408.63 -1.05812 -1.16797 0
M  V30 14818 C 1409.56 -0.622584 -2.20582 0
M  V30 14819 C 1410.57 0.316905 -1.59686 0
M  V30 14820 O 1411.76 0.108657 -1.78169 0
M  V30 14821 C 1408.86 0.108124 -3.38727 0
M  V30 14822 C 1408.04 -0.84363 -4.29187 0
M  V30 14823 C 1407.1 -0.15305 -5.25977 0
M  V30 14824 O 1406.12 -0.78915 -5.63703 0
M  V30 14825 N 1407.32 1.10721 -5.69843 0
M  V30 14826 H 1410.09 -1.51532 -2.5857 0
M  V30 14827 H 1407.65 -0.940815 -1.31758 0
M  V30 14828 H 1409.64 0.580395 -4.00517 0
M  V30 14829 H 1408.21 0.902599 -2.99286 0
M  V30 14830 H 1407.43 -1.49538 -3.64735 0
M  V30 14831 H 1408.72 -1.48946 -4.86511 0
M  V30 14832 H 1408.12 1.64423 -5.41278 0
M  V30 14833 H 1406.67 1.52344 -6.33746 0
M  V30 14834 N 1410.11 1.33347 -0.840014 0
M  V30 14835 C 1411.33 2.02485 -0.448856 0
M  V30 14836 C 1411.76 1.62781 0.942543 0
M  V30 14837 O 1411.12 0.82099 1.61646 0
M  V30 14838 C 1411.16 3.55928 -0.578582 0
M  V30 14839 O 1410.27 4.10507 0.394695 0
M  V30 14840 H 1409.61 0.63848 -0.182317 0
M  V30 14841 H 1412.14 1.70221 -1.13516 0
M  V30 14842 H 1412.15 4.05391 -0.460653 0
M  V30 14843 H 1410.82 3.8417 -1.5933 0
M  V30 14844 H 1409.4 3.72164 0.234227 0
M  V30 14845 N 1411.59 0.596556 1.45873 0
M  V30 14846 C 1412.83 0.0850976 2.0152 0
M  V30 14847 C 1413.15 -1.28799 1.47208 0
M  V30 14848 O 1414.35 -1.89156 1.94762 0
M  V30 14849 C 1412.81 0.101488 3.59757 0
M  V30 14850 C 1412.42 1.47374 4.23066 0
M  V30 14851 C 1414.16 -0.355303 4.2301 0
M  V30 14852 C 1412.07 1.44711 5.73422 0
M  V30 14853 H 1411 0.0280444 0.753478 0
M  V30 14854 H 1413.65 0.750255 1.67462 0
M  V30 14855 H 1412.03 -0.630108 3.90955 0
M  V30 14856 H 1413.21 2.22617 4.03458 0
M  V30 14857 H 1411.52 1.87171 3.71962 0
M  V30 14858 H 1414.12 -0.394236 5.33245 0
M  V30 14859 H 1414.46 -1.37573 3.92911 0
M  V30 14860 H 1414.99 0.32267 3.96489 0
M  V30 14861 H 1411.73 2.44479 6.08203 0
M  V30 14862 H 1411.25 0.737102 5.95254 0
M  V30 14863 H 1412.93 1.16598 6.36407 0
M  V30 14864 N 1413.06 -1.53996 0.335095 0
M  V30 14865 C 1414.29 -2.05188 -0.26563 0
M  V30 14866 C 1414.71 -1.21058 -1.44881 0
M  V30 14867 O 1414.06 -0.243919 -1.80863 0
M  V30 14868 C 1414.11 -3.54875 -0.688904 0
M  V30 14869 O 1413.84 -4.35811 0.447217 0
M  V30 14870 C 1415.34 -4.22204 -1.35123 0
M  V30 14871 H 1412.56 -0.668921 -0.0527806 0
M  V30 14872 H 1415.1 -1.98675 0.48463 0
M  V30 14873 H 1413.26 -3.61638 -1.38912 0
M  V30 14874 H 1413.67 -5.24381 0.111495 0
M  V30 14875 H 1415.14 -5.28356 -1.59823 0
M  V30 14876 H 1415.62 -3.74029 -2.30216 0
M  V30 14877 H 1416.23 -4.19611 -0.693283 0
M  V30 14878 N 1414.54 -0.0635198 -1.57472 0
M  V30 14879 C 1415.82 0.648029 -1.84553 0
M  V30 14880 C 1416.2 1.88295 -0.954371 0
M  V30 14881 O 1415.55 2.28492 -0.0185351 0
M  V30 14882 C 1415.76 0.993573 -3.34558 0
M  V30 14883 C 1417.1 1.3706 -4.0187 0
M  V30 14884 O 1418.13 1.08555 -3.39255 0
M  V30 14885 O 1416.99 1.90309 -5.12294 0
M  V30 14886 H 1414.08 0.321047 -0.76214 0
M  V30 14887 H 1416.63 -0.0938223 -1.6944 0
M  V30 14888 H 1415.4 0.116139 -3.91128 0
M  V30 14889 H 1415.02 1.79246 -3.54904 0
M  V30 14890 N 1416.02 1.56195 0.209972 0
M  V30 14891 C 1416.93 1.96539 1.28101 0
M  V30 14892 C 1417.95 0.870858 1.50639 0
M  V30 14893 O 1419.12 1.17539 1.63544 0
M  V30 14894 C 1416.19 2.28392 2.60841 0
M  V30 14895 C 1415.25 3.51474 2.46505 0
M  V30 14896 C 1414.48 3.81798 3.72915 0
M  V30 14897 O 1414.7 3.13627 4.76439 0
M  V30 14898 O 1413.64 4.75264 3.69334 0
M  V30 14899 H 1417.46 2.87838 0.968671 0
M  V30 14900 H 1415.05 1.43556 0.413777 0
M  V30 14901 H 1416.93 2.50022 3.39215 0
M  V30 14902 H 1415.61 1.40264 2.91732 0
M  V30 14903 H 1414.51 3.35109 1.66292 0
M  V30 14904 H 1415.85 4.40021 2.2055 0
M  V30 14905 N 1417.5 -0.477127 1.50204 0
M  V30 14906 C 1418.72 -1.25775 1.6491 0
M  V30 14907 C 1419.15 -1.85187 0.329765 0
M  V30 14908 O 1418.51 -1.67004 -0.705641 0
M  V30 14909 C 1418.55 -2.3466 2.73801 0
M  V30 14910 O 1417.66 -3.39147 2.34634 0
M  V30 14911 H 1417 -0.370291 0.551163 0
M  V30 14912 H 1419.53 -0.568514 1.96543 0
M  V30 14913 H 1419.54 -2.80065 2.96695 0
M  V30 14914 H 1418.21 -1.90788 3.69557 0
M  V30 14915 H 1416.79 -2.99496 2.22163 0
M  V30 14916 N 1418.98 -1.3968 -0.729882 0
M  V30 14917 C 1420.39 -1.21396 -1.0361 0
M  V30 14918 C 1420.59 -0.0791302 -2.01345 0
M  V30 14919 O 1419.65 0.567575 -2.46038 0
M  V30 14920 C 1420.96 -2.55006 -1.59349 0
M  V30 14921 C 1422.51 -2.61896 -1.71405 0
M  V30 14922 C 1422.98 -3.9574 -2.30552 0
M  V30 14923 N 1424.48 -3.97406 -2.37955 0
M  V30 14924 C 1425.21 -4.97745 -2.8467 0
M  V30 14925 N 1424.71 -6.08482 -3.31243 0
M  V30 14926 N 1426.5 -4.85121 -2.83925 0
M  V30 14927 H 1418.65 -2.12242 -0.081787 0
M  V30 14928 H 1420.91 -0.942827 -0.0989005 0
M  V30 14929 H 1420.62 -3.38626 -0.950005 0
M  V30 14930 H 1420.49 -2.75087 -2.58083 0
M  V30 14931 H 1422.88 -1.78656 -2.34874 0
M  V30 14932 H 1422.96 -2.45659 -0.7131 0
M  V30 14933 H 1422.61 -4.79412 -1.67709 0
M  V30 14934 H 1422.54 -4.09299 -3.31334 0
M  V30 14935 H 1425.03 -3.17435 -2.05044 0
M  V30 14936 H 1425.34 -6.8095 -3.65414 0
M  V30 14937 H 1423.68 -6.12068 -3.29239 0
M  V30 14938 H 1426.88 -3.97711 -2.46867 0
M  V30 14939 H 1427.05 -5.63465 -3.20017 0
M  V30 14940 N 1420.45 0.960609 -1.2494 0
M  V30 14941 C 1421.7 1.70111 -1.09117 0
M  V30 14942 C 1422.02 1.91466 0.369544 0
M  V30 14943 O 1421.29 1.49749 1.26302 0
M  V30 14944 H 1419.87 0.630372 -0.400799 0
M  V30 14945 H 1422.54 1.15525 -1.56971 0
M  V30 14946 H 1421.63 2.68277 -1.5948 0
M  V30 14947 N 1421.93 1.0643 1.16234 0
M  V30 14948 C 1423.16 0.802671 1.91238 0
M  V30 14949 C 1423.58 -0.637222 1.76978 0
M  V30 14950 O 1422.94 -1.44419 1.09603 0
M  V30 14951 C 1422.99 1.20389 3.3991 0
M  V30 14952 O 1422.09 0.343516 4.10967 0
M  V30 14953 H 1421.43 0.29323 0.595745 0
M  V30 14954 H 1423.96 1.42046 1.47255 0
M  V30 14955 H 1423.97 1.17604 3.90683 0
M  V30 14956 H 1422.65 2.2527 3.49608 0
M  V30 14957 H 1421.23 0.433051 3.70377 0
M  V30 14958 N 1423.41 -1.329 0.847073 0
M  V30 14959 C 1424.66 -1.96774 0.443022 0
M  V30 14960 C 1424.97 -1.67813 -1.0049 0
M  V30 14961 O 1426.18 -2.25366 -1.51402 0
M  V30 14962 C 1424.63 -3.52184 0.741268 0
M  V30 14963 C 1424.24 -3.90013 2.20441 0
M  V30 14964 C 1425.99 -4.22568 0.404569 0
M  V30 14965 C 1423.89 -5.38434 2.44627 0
M  V30 14966 H 1422.82 -0.736406 0.161932 0
M  V30 14967 H 1425.47 -1.51402 1.0368 0
M  V30 14968 H 1423.86 -3.95925 0.0770158 0
M  V30 14969 H 1425.03 -3.57304 2.90982 0
M  V30 14970 H 1423.35 -3.32633 2.50489 0
M  V30 14971 H 1425.94 -5.3173 0.562795 0
M  V30 14972 H 1426.29 -4.11144 -0.653172 0
M  V30 14973 H 1426.82 -3.84384 1.0244 0
M  V30 14974 H 1423.56 -5.5487 3.48997 0
M  V30 14975 H 1423.08 -5.72575 1.78656 0
M  V30 14976 H 1424.76 -6.05423 2.28194 0
M  V30 14977 N 1424.89 -0.604284 -1.45555 0
M  V30 14978 C 1426.3 -0.267665 -1.57339 0
M  V30 14979 C 1426.5 1.22984 -1.59616 0
M  V30 14980 O 1425.56 2.0127 -1.52468 0
M  V30 14981 C 1426.87 -0.935923 -2.85764 0
M  V30 14982 C 1428.42 -0.911531 -2.99433 0
M  V30 14983 C 1428.9 -1.55974 -4.30623 0
M  V30 14984 N 1430.39 -1.52507 -4.37374 0
M  V30 14985 C 1431.12 -1.9958 -5.37546 0
M  V30 14986 N 1430.62 -2.54724 -6.44273 0
M  V30 14987 N 1432.41 -1.90368 -5.28882 0
M  V30 14988 H 1424.56 -1.57666 -1.42321 0
M  V30 14989 H 1426.83 -0.66028 -0.680245 0
M  V30 14990 H 1426.53 -1.99022 -2.89971 0
M  V30 14991 H 1426.41 -0.457194 -3.74419 0
M  V30 14992 H 1428.79 0.134206 -2.94795 0
M  V30 14993 H 1428.87 -1.42849 -2.12197 0
M  V30 14994 H 1428.52 -2.60479 -4.3602 0
M  V30 14995 H 1428.45 -1.01782 -5.1667 0
M  V30 14996 H 1430.94 -1.12221 -3.60853 0
M  V30 14997 H 1431.25 -2.88445 -7.16951 0
M  V30 14998 H 1429.6 -2.58761 -6.45033 0
M  V30 14999 H 1432.79 -1.47029 -4.4441 0
M  V30 15000 H 1432.96 -2.27367 -6.06802 0
M  V30 15001 N 1426.37 1.53816 -0.343257 0
M  V30 15002 C 1427.78 1.59598 0.00867849 0
M  V30 15003 C 1427.98 1.35922 1.48753 0
M  V30 15004 O 1427.04 1.15334 2.2462 0
M  V30 15005 C 1428.35 2.97649 -0.427234 0
M  V30 15006 C 1429.9 3.1069 -0.379554 0
M  V30 15007 C 1430.37 4.51119 -0.79093 0
M  V30 15008 N 1431.87 4.57168 -0.745105 0
M  V30 15009 C 1432.6 5.63975 -1.03537 0
M  V30 15010 N 1432.1 6.78635 -1.39377 0
M  V30 15011 N 1433.89 5.53848 -0.959628 0
M  V30 15012 H 1426.04 1.6746 -1.30656 0
M  V30 15013 H 1428.3 0.784254 -0.532588 0
M  V30 15014 H 1428.01 3.2004 -1.45834 0
M  V30 15015 H 1427.88 3.76682 0.197704 0
M  V30 15016 H 1430.27 2.88024 0.642376 0
M  V30 15017 H 1430.35 2.33718 -1.03969 0
M  V30 15018 H 1430 4.74521 -1.81087 0
M  V30 15019 H 1429.93 5.26489 -0.108274 0
M  V30 15020 H 1432.42 3.7483 -0.480752 0
M  V30 15021 H 1432.73 7.56053 -1.60011 0
M  V30 15022 H 1431.07 6.80083 -1.43222 0
M  V30 15023 H 1434.27 4.6315 -0.678974 0
M  V30 15024 H 1434.44 6.36995 -1.18919 0
M  V30 15025 N 1427.84 0.0718701 1.57436 0
M  V30 15026 C 1428.79 -0.895335 2.12726 0
M  V30 15027 C 1429.76 -1.29528 1.03979 0
M  V30 15028 O 1430.95 -1.38113 1.31642 0
M  V30 15029 C 1428.09 -2.15755 2.6934 0
M  V30 15030 C 1427.2 -1.81023 3.92243 0
M  V30 15031 C 1426.33 -3.01856 4.371 0
M  V30 15032 C 1425.37 -2.63141 5.52651 0
M  V30 15033 N 1424.51 -3.76734 5.92466 0
M  V30 15034 H 1429.35 -0.416964 2.95068 0
M  V30 15035 H 1426.89 -0.194165 1.45813 0
M  V30 15036 H 1428.85 -2.89642 3.00272 0
M  V30 15037 H 1427.48 -2.61132 1.89762 0
M  V30 15038 H 1426.53 -0.971983 3.67773 0
M  V30 15039 H 1427.84 -1.4854 4.76169 0
M  V30 15040 H 1426.99 -3.84022 4.69694 0
M  V30 15041 H 1425.73 -3.37533 3.52027 0
M  V30 15042 H 1424.74 -1.79397 5.19708 0
M  V30 15043 H 1425.96 -2.28635 6.39455 0
M  V30 15044 H 1423.91 -4.12173 5.10343 0
M  V30 15045 H 1423.83 -3.48019 6.71132 0
M  V30 15046 H 1425.09 -4.59479 6.29682 0
M  V30 15047 N 1429.32 -1.56304 -0.201686 0
M  V30 15048 C 1430.27 -1.94901 -1.26949 0
M  V30 15049 C 1431.26 -0.833574 -1.47472 0
M  V30 15050 O 1432.47 -1.01854 -1.48411 0
M  V30 15051 H 1428.85 -0.619663 -0.426053 0
M  V30 15052 H 1430.82 -2.83964 -0.9169 0
M  V30 15053 C 1429.57 -2.29913 -2.60835 0
M  V30 15054 H 1428.89 -3.15268 -2.45858 0
M  V30 15055 H 1430.33 -2.60789 -3.34313 0
M  V30 15056 C 1428.79 -1.13136 -3.17335 0
M  V30 15057 O 1429.32 -0.402915 -3.99674 0
M  V30 15058 N 1427.52 -0.909912 -2.75987 0
M  V30 15059 H 1427.07 -1.50402 -2.09134 0
M  V30 15060 H 1427.03 -0.130348 -3.1413 0
M  V30 15061 N 1430.8 0.469154 -1.50455 0
M  V30 15062 C 1432.21 1.04997 -1.54378 0
M  V30 15063 C 1432.56 1.93082 -0.348414 0
M  V30 15064 O 1431.69 2.09594 0.538469 0
M  V30 15065 C 1432.28 1.91096 -2.79764 0
M  V30 15066 C 1430.84 2.44283 -2.86361 0
M  V30 15067 C 1429.99 1.22676 -2.48688 0
M  V30 15068 H 1432.94 0.251692 -1.56691 0
M  V30 15069 H 1432.96 2.76186 -2.61728 0
M  V30 15070 H 1432.47 1.26961 -3.66746 0
M  V30 15071 H 1430.57 3.11966 -2.03735 0
M  V30 15072 H 1430.69 2.79258 -3.89297 0
M  V30 15073 H 1429.05 1.56215 -2.01169 0
M  V30 15074 H 1429.83 0.602002 -3.37981 0
M  V30 15075 N 1432.28 1.40065 0.722464 0
M  V30 15076 C 1433.24 1.39544 1.81825 0
M  V30 15077 C 1434.24 0.290385 1.58156 0
M  V30 15078 O 1435.43 0.54894 1.65325 0
M  V30 15079 C 1432.56 1.18041 3.19811 0
M  V30 15080 H 1433.76 2.37063 1.83687 0
M  V30 15081 H 1431.31 1.25813 0.927404 0
M  V30 15082 H 1432.04 0.212536 3.23603 0
M  V30 15083 H 1431.83 1.98079 3.38389 0
M  V30 15084 H 1433.32 1.20447 3.99853 0
M  V30 15085 N 1433.76 -0.95397 1.25448 0
M  V30 15086 C 1434.71 -2.07206 1.05681 0
M  V30 15087 C 1435.7 -1.69395 -0.0124672 0
M  V30 15088 O 1436.91 -1.79429 0.143201 0
M  V30 15089 H 1433.28 -0.678231 0.324817 0
M  V30 15090 H 1435.25 -2.21034 2.00466 0
M  V30 15091 C 1434 -3.40725 0.692955 0
M  V30 15092 H 1433.32 -3.70287 1.50756 0
M  V30 15093 H 1434.76 -4.19814 0.594351 0
M  V30 15094 C 1433.22 -3.31495 -0.601028 0
M  V30 15095 O 1433.75 -3.66565 -1.64296 0
M  V30 15096 N 1431.96 -2.84612 -0.586899 0
M  V30 15097 H 1431.51 -2.56271 0.261375 0
M  V30 15098 H 1431.46 -2.78819 -1.45284 0
M  V30 15099 N 1435.24 -1.07045 -1.15668 0
M  V30 15100 C 1436.46 -0.812746 -1.90268 0
M  V30 15101 C 1436.88 0.633722 -1.77847 0
M  V30 15102 O 1436.24 1.43444 -1.12828 0
M  V30 15103 C 1436.29 -1.20793 -3.40722 0
M  V30 15104 O 1436.01 -2.59764 -3.52781 0
M  V30 15105 C 1437.51 -0.979074 -4.32353 0
M  V30 15106 H 1434.73 -0.294093 -0.603117 0
M  V30 15107 H 1437.27 -1.42609 -1.46571 0
M  V30 15108 H 1435.43 -0.638975 -3.82094 0
M  V30 15109 H 1435.84 -2.75801 -4.46133 0
M  V30 15110 H 1437.32 -1.30513 -5.36349 0
M  V30 15111 H 1437.79 0.0847752 -4.39118 0
M  V30 15112 H 1438.4 -1.53278 -3.96719 0
M  V30 15113 N 1436.71 1.32449 -0.85411 0
M  V30 15114 C 1438.13 1.50046 -0.543895 0
M  V30 15115 C 1438.33 1.78985 0.925561 0
M  V30 15116 O 1437.39 1.85909 1.70862 0
M  V30 15117 C 1438.7 2.64499 -1.43041 0
M  V30 15118 C 1440.25 2.78384 -1.43078 0
M  V30 15119 C 1440.72 3.95915 -2.3025 0
M  V30 15120 N 1442.21 4.03176 -2.28043 0
M  V30 15121 C 1442.95 4.9335 -2.92221 0
M  V30 15122 N 1442.44 5.88536 -3.6551 0
M  V30 15123 N 1444.24 4.86468 -2.81612 0
M  V30 15124 H 1436.39 1.11931 -1.80514 0
M  V30 15125 H 1438.65 0.551626 -0.770982 0
M  V30 15126 H 1438.36 2.49842 -2.47532 0
M  V30 15127 H 1438.23 3.60269 -1.11742 0
M  V30 15128 H 1440.62 2.92464 -0.393529 0
M  V30 15129 H 1440.7 1.83329 -1.78393 0
M  V30 15130 H 1440.34 3.82594 -3.34043 0
M  V30 15131 H 1440.27 4.90245 -1.92268 0
M  V30 15132 H 1442.76 3.35064 -1.74759 0
M  V30 15133 H 1443.08 6.54038 -4.11648 0
M  V30 15134 H 1441.42 5.88564 -3.69618 0
M  V30 15135 H 1444.61 4.11076 -2.23907 0
M  V30 15136 H 1444.79 5.56542 -3.3191 0
M  V30 15137 N 1438.19 0.611994 1.45232 0
M  V30 15138 C 1439.12 -0.0914869 2.33321 0
M  V30 15139 C 1440.1 -0.854315 1.4709 0
M  V30 15140 O 1441.29 -0.823994 1.75852 0
M  V30 15141 C 1438.42 -1.08652 3.29867 0
M  V30 15142 C 1437.37 -0.436615 4.25767 0
M  V30 15143 C 1436.7 -1.54021 5.12037 0
M  V30 15144 C 1438 0.645005 5.18302 0
M  V30 15145 H 1439.69 0.644053 2.92391 0
M  V30 15146 H 1437.24 0.311171 1.40598 0
M  V30 15147 H 1439.19 -1.58726 3.90364 0
M  V30 15148 H 1437.91 -1.85271 2.68965 0
M  V30 15149 H 1436.57 0.0432918 3.66574 0
M  V30 15150 H 1436.22 -2.29679 4.475 0
M  V30 15151 H 1435.92 -1.11084 5.77005 0
M  V30 15152 H 1437.45 -2.04313 5.75403 0
M  V30 15153 H 1438.86 0.228166 5.72846 0
M  V30 15154 H 1437.26 0.996387 5.9177 0
M  V30 15155 H 1438.33 1.51985 4.60466 0
M  V30 15156 N 1439.67 -1.53632 0.351409 0
M  V30 15157 C 1441.09 -1.596 -0.000214515 0
M  V30 15158 C 1441.29 -1.36709 -1.4803 0
M  V30 15159 O 1440.34 -1.16524 -2.24006 0
M  V30 15160 C 1441.65 -2.97419 0.443013 0
M  V30 15161 C 1443.2 -3.10485 0.396025 0
M  V30 15162 C 1443.68 -4.50693 0.814843 0
M  V30 15163 N 1445.17 -4.56766 0.76934 0
M  V30 15164 C 1445.9 -5.63418 1.06526 0
M  V30 15165 N 1445.4 -6.77887 1.42974 0
M  V30 15166 N 1447.19 -5.53331 0.988986 0
M  V30 15167 H 1439.34 -1.66765 1.31542 0
M  V30 15168 H 1441.61 -0.781418 0.53674 0
M  V30 15169 H 1441.31 -3.19262 1.47529 0
M  V30 15170 H 1441.19 -3.76781 -0.177725 0
M  V30 15171 H 1443.57 -2.8836 -0.627092 0
M  V30 15172 H 1443.65 -2.33163 1.05207 0
M  V30 15173 H 1443.3 -4.73554 1.83601 0
M  V30 15174 H 1443.23 -5.26424 0.136193 0
M  V30 15175 H 1445.72 -3.74569 0.500623 0
M  V30 15176 H 1446.03 -7.55194 1.64018 0
M  V30 15177 H 1444.38 -6.79314 1.46827 0
M  V30 15178 H 1447.57 -4.62783 0.703526 0
M  V30 15179 H 1447.74 -6.36355 1.22295 0
M  V30 15180 N 1441.15 -0.0802183 -1.57396 0
M  V30 15181 C 1442.08 0.881426 -2.16225 0
M  V30 15182 C 1443.06 1.30459 -1.09154 0
M  V30 15183 O 1444.24 1.37413 -1.37227 0
M  V30 15184 C 1441.37 2.14599 -2.73065 0
M  V30 15185 C 1440.33 1.86195 -3.85377 0
M  V30 15186 C 1439.65 3.19354 -4.28856 0
M  V30 15187 C 1440.95 1.16059 -5.09242 0
M  V30 15188 H 1442.65 0.391325 -2.96832 0
M  V30 15189 H 1440.19 0.186785 -1.42783 0
M  V30 15190 H 1442.15 2.82297 -3.12868 0
M  V30 15191 H 1440.87 2.65866 -1.89691 0
M  V30 15192 H 1439.53 1.209 -3.46091 0
M  V30 15193 H 1439.18 3.68479 -3.42392 0
M  V30 15194 H 1438.88 3.01137 -5.04569 0
M  V30 15195 H 1440.4 3.88235 -4.71281 0
M  V30 15196 H 1441.82 1.7384 -5.46308 0
M  V30 15197 H 1440.21 1.08072 -5.90288 0
M  V30 15198 H 1441.28 0.14098 -4.84695 0
M  V30 15199 N 1442.63 1.56409 0.193394 0
M  V30 15200 C 1443.57 1.95572 1.25914 0
M  V30 15201 C 1444.57 0.841384 1.47028 0
M  V30 15202 O 1445.77 1.0264 1.47868 0
M  V30 15203 H 1442.15 0.621914 0.422761 0
M  V30 15204 H 1444.12 2.84446 0.901827 0
M  V30 15205 C 1442.87 2.31293 2.59613 0
M  V30 15206 H 1442.19 3.16568 2.44182 0
M  V30 15207 H 1443.63 2.62558 3.32926 0
M  V30 15208 C 1442.09 1.14818 3.16731 0
M  V30 15209 O 1442.62 0.424105 3.99455 0
M  V30 15210 N 1440.83 0.924536 2.75501 0
M  V30 15211 H 1440.37 1.51509 2.08334 0
M  V30 15212 H 1440.33 0.147006 3.14056 0
M  V30 15213 N 1444.1 -0.461169 1.50702 0
M  V30 15214 C 1445.35 -1.21431 1.62427 0
M  V30 15215 C 1445.68 -1.91406 0.328228 0
M  V30 15216 O 1444.96 -1.82563 -0.670898 0
M  V30 15217 C 1445.24 -2.25016 2.8114 0
M  V30 15218 C 1445.09 -1.5928 4.20654 0
M  V30 15219 C 1446.41 -3.26234 2.95397 0
M  V30 15220 H 1443.53 -0.440113 0.59116 0
M  V30 15221 H 1446.17 -0.506726 1.83118 0
M  V30 15222 H 1444.32 -2.85363 2.63629 0
M  V30 15223 H 1446 -1.02454 4.49779 0
M  V30 15224 H 1444.24 -0.895665 4.24453 0
M  V30 15225 H 1444.91 -2.34602 4.99666 0
M  V30 15226 H 1447.39 -2.7592 3.1146 0
M  V30 15227 H 1446.26 -3.96031 3.80067 0
M  V30 15228 H 1446.52 -3.90943 2.06436 0
M  V30 15229 N 1445.58 -1.40446 -0.715026 0
M  V30 15230 C 1446.99 -1.34564 -1.29419 0
M  V30 15231 C 1447.34 -0.0193984 -1.9619 0
M  V30 15232 O 1446.47 0.882616 -1.97582 0
M  V30 15233 C 1447.06 -2.43721 -2.35342 0
M  V30 15234 C 1445.62 -2.41297 -2.88881 0
M  V30 15235 C 1444.77 -2.2457 -1.62676 0
M  V30 15236 H 1447.72 -1.50244 -0.511116 0
M  V30 15237 H 1447.74 -2.1166 -3.16197 0
M  V30 15238 H 1447.25 -3.40234 -1.86715 0
M  V30 15239 H 1445.35 -1.48483 -3.41736 0
M  V30 15240 H 1445.47 -3.36903 -3.40637 0
M  V30 15241 H 1443.83 -1.72096 -1.87763 0
M  V30 15242 H 1444.61 -3.23082 -1.16074 0
M  V30 15243 N 1447.06 0.947303 -1.25952 0
M  V30 15244 C 1447.97 2.07878 -1.08738 0
M  V30 15245 C 1448.99 1.73985 -0.0225212 0
M  V30 15246 O 1450.16 2.00139 -0.224984 0
M  V30 15247 C 1447.23 3.39231 -0.715756 0
M  V30 15248 C 1446.29 3.86945 -1.85935 0
M  V30 15249 C 1445.52 5.1203 -1.50537 0
M  V30 15250 O 1445.74 5.68965 -0.404323 0
M  V30 15251 O 1444.68 5.54634 -2.33805 0
M  V30 15252 H 1448.5 2.25305 -2.03645 0
M  V30 15253 H 1446.09 1.06321 -1.04958 0
M  V30 15254 H 1447.97 4.18167 -0.520962 0
M  V30 15255 H 1446.65 3.23057 0.203978 0
M  V30 15256 H 1445.55 3.08981 -2.10906 0
M  V30 15257 H 1446.89 4.0763 -2.75859 0
M  V30 15258 N 1448.54 1.07657 1.15099 0
M  V30 15259 C 1449.45 0.711198 2.2356 0
M  V30 15260 C 1450.46 -0.278932 1.7175 0
M  V30 15261 O 1451.64 -0.124788 2.01013 0
M  V30 15262 C 1448.71 0.117855 3.465 0
M  V30 15263 C 1447.77 1.16162 4.13286 0
M  V30 15264 C 1447 0.596494 5.30356 0
M  V30 15265 O 1447.22 -0.586474 5.67377 0
M  V30 15266 O 1446.16 1.34288 5.86729 0
M  V30 15267 H 1449.98 1.61578 2.5715 0
M  V30 15268 H 1447.57 0.84973 1.22882 0
M  V30 15269 H 1449.45 -0.210613 4.20873 0
M  V30 15270 H 1448.12 -0.760008 3.14652 0
M  V30 15271 H 1447.03 1.54249 3.4082 0
M  V30 15272 H 1448.36 2.01149 4.49221 0
M  V30 15273 N 1450.02 -1.31994 0.861122 0
M  V30 15274 C 1451.24 -2.01211 0.481865 0
M  V30 15275 C 1451.66 -1.64687 -0.923233 0
M  V30 15276 O 1451.02 -0.87151 -1.60346 0
M  V30 15277 C 1451.07 -3.56162 0.618919 0
M  V30 15278 O 1450.79 -3.91376 1.96868 0
M  V30 15279 C 1452.29 -4.42652 0.239514 0
M  V30 15280 H 1449.51 -0.643922 0.188693 0
M  V30 15281 H 1452.05 -1.68427 1.15985 0
M  V30 15282 H 1450.21 -3.87398 -0.0114042 0
M  V30 15283 H 1450.62 -4.86095 1.97008 0
M  V30 15284 H 1452.1 -5.50646 0.386394 0
M  V30 15285 H 1452.57 -4.31466 -0.820598 0
M  V30 15286 H 1453.18 -4.16818 0.845175 0
M  V30 15287 N 1451.49 -0.619688 -1.44906 0
M  V30 15288 C 1452.46 0.0822364 -2.29052 0
M  V30 15289 C 1453.46 0.783427 -1.40425 0
M  V30 15290 O 1454.65 0.629751 -1.62419 0
M  V30 15291 C 1451.78 1.12685 -3.21737 0
M  V30 15292 H 1452.97 -0.657726 -2.92599 0
M  V30 15293 H 1450.53 -0.379286 -1.51628 0
M  V30 15294 H 1451.26 1.89717 -2.63017 0
M  V30 15295 H 1451.05 0.628122 -3.87036 0
M  V30 15296 H 1452.54 1.61808 -3.84978 0
M  V30 15297 N 1452.97 1.53444 -0.359552 0
M  V30 15298 C 1454.22 2.00769 0.231564 0
M  V30 15299 C 1454.54 1.2487 1.49775 0
M  V30 15300 O 1453.81 0.360284 1.92558 0
M  V30 15301 H 1452.39 0.741732 0.0885581 0
M  V30 15302 H 1455.05 1.88785 -0.484397 0
M  V30 15303 H 1454.15 3.0865 0.462789 0
M  V30 15304 N 1454.45 0.0885642 1.57351 0
M  V30 15305 C 1455.73 -0.618587 1.85561 0
M  V30 15306 C 1456.11 -1.86753 0.984206 0
M  V30 15307 O 1455.46 -2.28434 0.0548839 0
M  V30 15308 C 1455.67 -0.940222 3.36096 0
M  V30 15309 C 1457.01 -1.30649 4.04 0
M  V30 15310 O 1458.04 -1.03144 3.4094 0
M  V30 15311 O 1456.9 -1.82135 5.15256 0
M  V30 15312 H 1453.99 -0.308881 0.767152 0
M  V30 15313 H 1456.54 0.120767 1.6927 0
M  V30 15314 H 1455.31 -0.0538991 3.91263 0
M  V30 15315 H 1454.93 -1.73577 3.5771 0
M  V30 15316 N 1455.93 -1.56509 -0.185096 0
M  V30 15317 C 1457.15 -1.85683 -0.923941 0
M  V30 15318 C 1457.58 -0.673315 -1.75636 0
M  V30 15319 O 1456.94 0.3778 -1.7732 0
M  V30 15320 C 1456.98 -3.13165 -1.78774 0
M  V30 15321 O 1456.09 -2.9442 -2.88775 0
M  V30 15322 H 1455.43 -0.611139 -0.259624 0
M  V30 15323 H 1457.96 -2.0374 -0.187393 0
M  V30 15324 H 1457.97 -3.44216 -2.19042 0
M  V30 15325 H 1456.64 -3.98922 -1.17619 0
M  V30 15326 H 1455.22 -2.7469 -2.5219 0
M  V30 15327 N 1457.41 0.45317 -1.50944 0
M  V30 15328 C 1458.32 1.57435 -1.73929 0
M  V30 15329 C 1459.33 1.62467 -0.622935 0
M  V30 15330 O 1460.51 1.80004 -0.903365 0
M  V30 15331 C 1457.57 2.93534 -1.84495 0
M  V30 15332 C 1456.63 2.98747 -3.083 0
M  V30 15333 C 1455.87 4.28354 -3.18352 0
M  V30 15334 O 1456.09 5.1986 -2.34738 0
M  V30 15335 O 1455.02 4.39527 -4.11217 0
M  V30 15336 H 1458.85 1.40959 -2.69006 0
M  V30 15337 H 1456.44 0.634545 -1.35255 0
M  V30 15338 H 1458.32 3.74336 -1.93522 0
M  V30 15339 H 1456.99 3.10171 -0.926044 0
M  V30 15340 H 1455.9 2.16958 -3.04762 0
M  V30 15341 H 1457.23 2.87051 -3.99828 0
M  V30 15342 N 1458.88 1.40823 0.707568 0
M  V30 15343 C 1459.79 1.44058 1.85161 0
M  V30 15344 C 1460.81 0.332357 1.70796 0
M  V30 15345 O 1461.99 0.578205 1.92922 0
M  V30 15346 C 1459.05 1.3091 3.21035 0
M  V30 15347 C 1458.11 2.51944 3.47595 0
M  V30 15348 C 1457.35 2.39414 4.76987 0
M  V30 15349 O 1457.57 1.41224 5.52641 0
M  V30 15350 O 1456.5 3.28944 5.04063 0
M  V30 15351 H 1460.33 2.40551 1.85388 0
M  V30 15352 H 1457.91 1.22232 0.859052 0
M  V30 15353 H 1459.8 1.25816 4.02179 0
M  V30 15354 H 1458.47 0.375263 3.21517 0
M  V30 15355 H 1457.38 2.62615 2.66428 0
M  V30 15356 H 1458.71 3.44115 3.51917 0
M  V30 15357 N 1460.36 -0.94061 1.26453 0
M  V30 15358 C 1461.31 -2.03941 1.08059 0
M  V30 15359 C 1462.28 -1.66094 -0.0145388 0
M  V30 15360 O 1463.46 -1.90246 0.145338 0
M  V30 15361 C 1460.6 -3.37501 0.720228 0
M  V30 15362 C 1459.72 -3.88381 1.89167 0
M  V30 15363 C 1458.85 -5.10329 1.47437 0
M  V30 15364 C 1457.89 -5.53473 2.61408 0
M  V30 15365 N 1457.03 -6.66624 2.20355 0
M  V30 15366 H 1461.87 -2.19006 2.0209 0
M  V30 15367 H 1459.41 -1.07305 1.00618 0
M  V30 15368 H 1461.36 -4.14287 0.492177 0
M  V30 15369 H 1459.99 -3.2228 -0.183101 0
M  V30 15370 H 1459.05 -3.0799 2.23264 0
M  V30 15371 H 1460.36 -4.16338 2.74708 0
M  V30 15372 H 1459.51 -5.94577 1.20679 0
M  V30 15373 H 1458.25 -4.8412 0.589873 0
M  V30 15374 H 1457.26 -4.67782 2.88894 0
M  V30 15375 H 1458.48 -5.81684 3.50458 0
M  V30 15376 H 1456.43 -6.42097 1.34341 0
M  V30 15377 H 1456.34 -6.9417 2.99439 0
M  V30 15378 H 1457.61 -7.54245 1.96811 0
M  V30 15379 N 1461.84 -1.08266 -1.14527 0
M  V30 15380 C 1463.25 -0.832702 -1.67102 0
M  V30 15381 C 1463.6 0.640776 -1.85441 0
M  V30 15382 O 1462.73 1.49505 -1.56452 0
M  V30 15383 C 1463.32 -1.50502 -3.03537 0
M  V30 15384 C 1461.88 -1.30234 -3.53152 0
M  V30 15385 C 1461.03 -1.56873 -2.28661 0
M  V30 15386 H 1463.98 -1.24344 -0.986118 0
M  V30 15387 H 1464 -0.931426 -3.68924 0
M  V30 15388 H 1463.51 -2.57741 -2.90157 0
M  V30 15389 H 1461.61 -0.250582 -3.71756 0
M  V30 15390 H 1461.73 -2.02898 -4.34015 0
M  V30 15391 H 1460.09 -0.990214 -2.34663 0
M  V30 15392 H 1460.87 -2.65316 -2.17859 0
M  V30 15393 N 1463.32 1.31536 -0.86811 0
M  V30 15394 C 1464.23 2.32326 -0.32588 0
M  V30 15395 C 1465.25 1.64632 0.563243 0
M  V30 15396 O 1466.42 1.96067 0.460403 0
M  V30 15397 C 1463.49 3.43562 0.46539 0
M  V30 15398 C 1462.55 4.26919 -0.451472 0
M  V30 15399 C 1461.78 5.32844 0.302129 0
M  V30 15400 O 1462 5.49485 1.53045 0
M  V30 15401 O 1460.94 6.00944 -0.339048 0
M  V30 15402 H 1464.76 2.80622 -1.16126 0
M  V30 15403 H 1462.35 1.35401 -0.631428 0
M  V30 15404 H 1464.23 4.11368 0.914028 0
M  V30 15405 H 1462.91 2.97432 1.27734 0
M  V30 15406 H 1461.81 3.61874 -0.948571 0
M  V30 15407 H 1463.15 4.7661 -1.22897 0
M  V30 15408 N 1464.8 0.627364 1.44575 0
M  V30 15409 C 1465.71 -0.0811184 2.3446 0
M  V30 15410 C 1466.72 -0.839668 1.52399 0
M  V30 15411 O 1467.9 -0.792784 1.8514 0
M  V30 15412 C 1464.96 -1.05296 3.30323 0
M  V30 15413 C 1464.03 -0.294201 4.28291 0
M  V30 15414 C 1463.26 -1.21975 5.19575 0
M  V30 15415 O 1463.48 -2.45834 5.14706 0
M  V30 15416 O 1462.42 -0.70611 5.97744 0
M  V30 15417 H 1466.24 0.658067 2.96485 0
M  V30 15418 H 1463.83 0.387565 1.44285 0
M  V30 15419 H 1465.71 -1.61218 3.89341 0
M  V30 15420 H 1464.38 -1.77283 2.70837 0
M  V30 15421 H 1463.29 0.307969 3.7283 0
M  V30 15422 H 1464.62 0.385567 4.90687 0
M  V30 15423 N 1466.28 -1.53251 0.367684 0
M  V30 15424 C 1467.19 -2.29518 -0.485669 0
M  V30 15425 C 1468.2 -1.35568 -1.09075 0
M  V30 15426 O 1469.38 -1.68626 -1.10124 0
M  V30 15427 C 1466.44 -3.07115 -1.60876 0
M  V30 15428 C 1465.5 -4.16736 -1.031 0
M  V30 15429 C 1464.74 -4.90624 -2.10056 0
M  V30 15430 O 1464.96 -4.64393 -3.31203 0
M  V30 15431 O 1463.89 -5.76503 -1.72996 0
M  V30 15432 H 1467.72 -3.034 0.135017 0
M  V30 15433 H 1465.3 -1.48816 0.132005 0
M  V30 15434 H 1467.19 -3.55564 -2.26168 0
M  V30 15435 H 1465.86 -2.36068 -2.21481 0
M  V30 15436 H 1464.77 -3.72534 -0.341928 0
M  V30 15437 H 1466.1 -4.89956 -0.469473 0
M  V30 15438 N 1467.75 -0.0969077 -1.57302 0
M  V30 15439 C 1469 0.567212 -1.94706 0
M  V30 15440 C 1469.33 1.67721 -0.978937 0
M  V30 15441 O 1468.61 1.94496 -0.0123016 0
M  V30 15442 C 1468.89 1.12069 -3.42217 0
M  V30 15443 C 1468.74 0.015615 -4.49797 0
M  V30 15444 C 1470.06 2.0185 -3.91081 0
M  V30 15445 H 1467.18 0.204716 -0.707997 0
M  V30 15446 H 1469.82 -0.167984 -1.89256 0
M  V30 15447 H 1467.97 1.74723 -3.46993 0
M  V30 15448 H 1469.65 -0.61871 -4.57132 0
M  V30 15449 H 1467.89 -0.650529 -4.28895 0
M  V30 15450 H 1468.56 0.443724 -5.50214 0
M  V30 15451 H 1471.04 1.49098 -3.8847 0
M  V30 15452 H 1469.91 2.37502 -4.94858 0
M  V30 15453 H 1470.17 2.93659 -3.3048 0
M  V30 15454 N 1469.23 1.56605 0.176793 0
M  V30 15455 C 1470.16 1.9254 1.24342 0
M  V30 15456 C 1471.18 0.81792 1.40762 0
M  V30 15457 O 1472.37 1.09636 1.40862 0
M  V30 15458 C 1469.47 2.15822 2.61293 0
M  V30 15459 C 1468.64 3.47035 2.66243 0
M  V30 15460 C 1467.7 3.5921 3.84519 0
M  V30 15461 O 1466.72 4.31876 3.70771 0
M  V30 15462 N 1467.93 2.93653 5.00748 0
M  V30 15463 H 1470.69 2.84635 0.938246 0
M  V30 15464 H 1468.25 1.57695 0.366597 0
M  V30 15465 H 1470.24 2.21237 3.38875 0
M  V30 15466 H 1468.81 1.30138 2.84223 0
M  V30 15467 H 1468.03 3.53326 1.74798 0
M  V30 15468 H 1469.32 4.33388 2.66557 0
M  V30 15469 H 1468.72 2.34476 5.14818 0
M  V30 15470 H 1467.28 3.04671 5.76211 0
M  V30 15471 N 1470.71 -0.445159 1.51182 0
M  V30 15472 C 1471.64 -1.5473 1.74874 0
M  V30 15473 C 1472.62 -1.5923 0.598323 0
M  V30 15474 O 1473.81 -1.75083 0.840219 0
M  V30 15475 C 1470.94 -2.92872 1.86664 0
M  V30 15476 C 1469.89 -3.03235 3.02048 0
M  V30 15477 C 1469.22 -4.43279 2.99012 0
M  V30 15478 C 1470.52 -2.7804 4.42144 0
M  V30 15479 H 1472.21 -1.35156 2.67158 0
M  V30 15480 H 1469.76 -0.648763 1.28558 0
M  V30 15481 H 1471.71 -3.69927 2.01822 0
M  V30 15482 H 1470.43 -3.1366 0.910225 0
M  V30 15483 H 1469.09 -2.28617 2.86583 0
M  V30 15484 H 1468.74 -4.61023 2.01163 0
M  V30 15485 H 1468.44 -4.51144 3.76488 0
M  V30 15486 H 1469.96 -5.22319 3.16252 0
M  V30 15487 H 1471.38 -3.44831 4.58 0
M  V30 15488 H 1469.77 -2.97323 5.21267 0
M  V30 15489 H 1470.84 -1.737 4.52721 0
M  V30 15490 N 1472.19 -1.41197 -0.700089 0
M  V30 15491 C 1473.44 -1.39611 -1.45574 0
M  V30 15492 C 1473.75 -0.00683378 -1.95599 0
M  V30 15493 O 1474.96 0.131643 -2.71181 0
M  V30 15494 C 1473.41 -2.45452 -2.63214 0
M  V30 15495 C 1473.02 -3.90265 -2.19993 0
M  V30 15496 C 1474.76 -2.52996 -3.40871 0
M  V30 15497 C 1472.67 -4.87668 -3.34565 0
M  V30 15498 H 1471.6 -0.51917 -0.546789 0
M  V30 15499 H 1474.25 -1.67001 -0.760456 0
M  V30 15500 H 1472.63 -2.11186 -3.34987 0
M  V30 15501 H 1473.81 -4.33756 -1.55539 0
M  V30 15502 H 1472.12 -3.86339 -1.55341 0
M  V30 15503 H 1474.72 -3.22952 -4.26153 0
M  V30 15504 H 1475.06 -1.56536 -3.85749 0
M  V30 15505 H 1475.6 -2.86331 -2.76151 0
M  V30 15506 H 1472.33 -5.85517 -2.94704 0
M  V30 15507 H 1471.85 -4.4883 -3.97884 0
M  V30 15508 H 1473.53 -5.08215 -4.00409 0
M  V30 15509 N 1473.67 0.933891 -1.2695 0
M  V30 15510 C 1474.62 2.01966 -1.05801 0
M  V30 15511 C 1475.6 1.60896 0.0119868 0
M  V30 15512 O 1476.79 1.75799 -0.205827 0
M  V30 15513 C 1473.92 3.36073 -0.700695 0
M  V30 15514 C 1473.01 3.83606 -1.80852 0
M  V30 15515 N 1473.4 4.03713 -3.04712 0
M  V30 15516 C 1471.7 4.12586 -1.69378 0
M  V30 15517 C 1472.4 4.43199 -3.76762 0
M  V30 15518 N 1471.37 4.50319 -3.0449 0
M  V30 15519 H 1475.17 2.15534 -1.99806 0
M  V30 15520 H 1472.69 1.12027 -1.17574 0
M  V30 15521 H 1474.69 4.13513 -0.530316 0
M  V30 15522 H 1473.35 3.23872 0.231801 0
M  V30 15523 H 1474.36 3.90196 -3.4054 0
M  V30 15524 H 1471.03 4.09132 -0.831695 0
M  V30 15525 H 1472.42 4.66887 -4.83184 0
M  V30 15526 N 1475.14 1.08871 1.13951 0
M  V30 15527 C 1476.42 0.73388 1.81311 0
M  V30 15528 C 1476.8 -0.781824 1.96089 0
M  V30 15529 O 1476.15 -1.70211 1.52448 0
M  V30 15530 C 1476.36 1.46631 3.16702 0
M  V30 15531 C 1477.71 1.62843 3.92132 0
M  V30 15532 O 1478.73 1.42836 3.26307 0
M  V30 15533 O 1477.59 1.95893 5.10185 0
M  V30 15534 H 1474.68 0.262976 0.784074 0
M  V30 15535 H 1477.23 1.19057 1.20927 0
M  V30 15536 H 1476 2.49863 3.01138 0
M  V30 15537 H 1475.62 1.00141 3.84782 0
M  V30 15538 N 1476.62 -1.31073 0.875073 0
M  V30 15539 C 1477.55 -2.27335 0.291809 0
M  V30 15540 C 1478.57 -1.53298 -0.548036 0
M  V30 15541 O 1479.76 -1.7464 -0.369198 0
M  V30 15542 C 1476.86 -3.33465 -0.604521 0
M  V30 15543 C 1476.03 -4.36924 0.204029 0
M  V30 15544 C 1475.09 -5.2252 -0.621238 0
M  V30 15545 O 1474.11 -5.6918 -0.0474551 0
M  V30 15546 N 1475.32 -5.47397 -1.93227 0
M  V30 15547 H 1478.08 -2.78024 1.11906 0
M  V30 15548 H 1475.64 -1.44149 0.737064 0
M  V30 15549 H 1477.63 -3.87646 -1.16243 0
M  V30 15550 H 1476.2 -2.8278 -1.33244 0
M  V30 15551 H 1475.42 -3.82745 0.943389 0
M  V30 15552 H 1476.71 -5.03112 0.758644 0
M  V30 15553 H 1476.11 -5.11253 -2.4215 0
M  V30 15554 H 1474.67 -6.04493 -2.43785 0
M  V30 15555 N 1478.1 -0.635022 -1.4424 0
M  V30 15556 C 1479.33 -0.146549 -2.06882 0
M  V30 15557 C 1479.75 1.17143 -1.4717 0
M  V30 15558 O 1479.11 1.71952 -0.574636 0
M  V30 15559 C 1479.16 -0.0494694 -3.60566 0
M  V30 15560 O 1478.26 0.993423 -4.00256 0
M  V30 15561 H 1477.6 -0.0865505 -0.658335 0
M  V30 15562 H 1480.13 -0.872803 -1.85049 0
M  V30 15563 H 1480.14 0.139839 -4.0776 0
M  V30 15564 H 1478.82 -1.01169 -4.03407 0
M  V30 15565 H 1477.39 0.778372 -3.64686 0
M  V30 15566 N 1479.58 1.53054 -0.375806 0
M  V30 15567 C 1480.54 2.24666 0.453608 0
M  V30 15568 C 1481.54 1.25816 1.00135 0
M  V30 15569 O 1482.73 1.50016 0.885481 0
M  V30 15570 C 1479.86 2.99131 1.63503 0
M  V30 15571 H 1481.06 2.994 -0.173172 0
M  V30 15572 H 1478.61 1.55778 -0.127673 0
M  V30 15573 H 1479.34 2.28666 2.29962 0
M  V30 15574 H 1479.13 3.71671 1.24913 0
M  V30 15575 H 1480.62 3.53542 2.22256 0
M  V30 15576 N 1481.06 0.105248 1.57248 0
M  V30 15577 C 1482.47 -0.422304 1.81861 0
M  V30 15578 C 1482.82 -1.67508 1.02154 0
M  V30 15579 O 1481.94 -2.14905 0.253961 0
M  V30 15580 C 1482.54 -0.772943 3.29865 0
M  V30 15581 C 1481.1 -1.24519 3.55207 0
M  V30 15582 C 1480.24 -0.246936 2.76198 0
M  V30 15583 H 1483.2 0.330565 1.55219 0
M  V30 15584 H 1483.22 -1.6316 3.43743 0
M  V30 15585 H 1482.73 0.139033 3.87851 0
M  V30 15586 H 1480.83 -2.17453 3.02564 0
M  V30 15587 H 1480.94 -1.20001 4.63828 0
M  V30 15588 H 1479.31 -0.731171 2.43979 0
M  V30 15589 H 1480.09 0.657896 3.36937 0
M  V30 15590 N 1482.53 -1.56697 -0.168486 0
M  V30 15591 C 1483.76 -1.86652 -0.904195 0
M  V30 15592 C 1484.18 -0.691906 -1.74912 0
M  V30 15593 O 1483.54 0.358971 -1.77711 0
M  V30 15594 C 1483.59 -3.15043 -1.75442 0
M  V30 15595 O 1482.69 -2.97466 -2.85636 0
M  V30 15596 H 1482.04 -0.613859 -0.253128 0
M  V30 15597 H 1484.57 -2.03927 -0.165773 0
M  V30 15598 H 1484.58 -3.4652 -2.15378 0
M  V30 15599 H 1483.25 -4.00147 -1.13381 0
M  V30 15600 H 1481.83 -2.7735 -2.49262 0
M  V30 15601 N 1484.01 0.437135 -1.51416 0
M  V30 15602 C 1485.25 1.19603 -1.65754 0
M  V30 15603 C 1485.62 1.88481 -0.365891 0
M  V30 15604 O 1486.82 2.66028 -0.385046 0
M  V30 15605 C 1485.09 2.18579 -2.82769 0
M  V30 15606 S 1486.65 3.02952 -3.17436 0
M  V30 15607 H 1483.47 0.405591 -0.583966 0
M  V30 15608 H 1486.07 0.487568 -1.89323 0
M  V30 15609 H 1484.77 1.66616 -3.75056 0
M  V30 15610 H 1484.3 2.94005 -2.6139 0
M  V30 15611 H 1486.32 4.20213 -2.63886 0
M  V30 15612 N 1485.49 1.41566 0.692592 0
M  V30 15613 C 1486.9 1.36606 1.27262 0
M  V30 15614 C 1487.25 0.0506082 1.96135 0
M  V30 15615 O 1486.38 -0.851071 1.98962 0
M  V30 15616 C 1486.97 2.47434 2.31434 0
M  V30 15617 C 1485.53 2.45863 2.85006 0
M  V30 15618 C 1484.68 2.2713 1.59083 0
M  V30 15619 H 1487.63 1.51038 0.487149 0
M  V30 15620 H 1487.65 2.16663 3.12789 0
M  V30 15621 H 1487.16 3.43161 1.81278 0
M  V30 15622 H 1485.26 1.53901 3.3933 0
M  V30 15623 H 1485.38 3.42279 3.35234 0
M  V30 15624 H 1483.74 1.75061 1.85002 0
M  V30 15625 H 1484.52 3.24887 1.10919 0
M  V30 15626 N 1486.97 -0.927146 1.27443 0
M  V30 15627 C 1488.19 -1.71426 1.16739 0
M  V30 15628 C 1488.62 -1.86122 -0.272063 0
M  V30 15629 O 1487.98 -1.36165 -1.19703 0
M  V30 15630 C 1488.02 -3.09131 1.85661 0
M  V30 15631 O 1487.13 -3.95897 1.15495 0
M  V30 15632 H 1486.47 -0.525428 0.405983 0
M  V30 15633 H 1489 -1.16022 1.68523 0
M  V30 15634 H 1489.01 -3.59442 1.93042 0
M  V30 15635 H 1487.68 -2.97752 2.90373 0
M  V30 15636 H 1486.26 -3.54337 1.16187 0
M  V30 15637 N 1488.45 -1.09474 -1.13372 0
M  V30 15638 C 1489.67 -0.853093 -1.89043 0
M  V30 15639 C 1490.1 0.590075 -1.78605 0
M  V30 15640 O 1489.45 1.41462 -1.13394 0
M  V30 15641 C 1489.5 -1.29359 -3.36599 0
M  V30 15642 O 1488.61 -0.452355 -4.09912 0
M  V30 15643 H 1487.95 -0.308922 -0.587761 0
M  V30 15644 H 1490.48 -1.459 -1.43437 0
M  V30 15645 H 1490.49 -1.27921 -3.87428 0
M  V30 15646 H 1489.16 -2.3446 -3.43513 0
M  V30 15647 H 1487.74 -0.531098 -3.69099 0
M  V30 15648 N 1489.92 1.30607 -0.882012 0
M  V30 15649 C 1491.15 2.00954 -0.513048 0
M  V30 15650 C 1491.57 1.65697 0.890279 0
M  V30 15651 O 1490.93 0.872001 1.58952 0
M  V30 15652 C 1490.98 3.53907 -0.691525 0
M  V30 15653 O 1490.08 4.11555 0.263896 0
M  V30 15654 H 1489.43 0.632356 -0.202537 0
M  V30 15655 H 1491.96 1.66524 -1.18874 0
M  V30 15656 H 1491.97 4.0372 -0.589392 0
M  V30 15657 H 1490.64 3.78907 -1.71471 0
M  V30 15658 H 1489.22 3.7272 0.115707 0
M  V30 15659 N 1491.4 0.642663 1.43901 0
M  V30 15660 C 1492.81 0.232809 1.85243 0
M  V30 15661 C 1493.16 -1.21834 1.53789 0
M  V30 15662 O 1492.29 -1.92855 0.981625 0
M  V30 15663 C 1492.88 0.415749 3.36239 0
M  V30 15664 C 1491.44 0.0603055 3.76352 0
M  V30 15665 C 1490.59 0.723658 2.67691 0
M  V30 15666 H 1493.54 0.847052 1.34204 0
M  V30 15667 H 1493.56 -0.341903 3.78961 0
M  V30 15668 H 1493.07 1.472 3.59101 0
M  V30 15669 H 1491.18 -0.993761 3.59103 0
M  V30 15670 H 1491.29 0.478408 4.76705 0
M  V30 15671 H 1489.65 0.15787 2.5421 0
M  V30 15672 H 1490.44 1.78273 2.93383 0
M  V30 15673 N 1492.88 -1.52852 0.383918 0
M  V30 15674 C 1494.11 -2.06406 -0.202764 0
M  V30 15675 C 1494.53 -1.25421 -1.40183 0
M  V30 15676 O 1493.89 -0.277876 -1.79158 0
M  V30 15677 C 1493.94 -3.56281 -0.556414 0
M  V30 15678 O 1493.04 -3.77904 -1.65113 0
M  V30 15679 H 1492.38 -0.663523 -0.0251737 0
M  V30 15680 H 1494.91 -1.97074 0.54983 0
M  V30 15681 H 1494.92 -3.99629 -0.822249 0
M  V30 15682 H 1493.6 -4.14665 0.320253 0
M  V30 15683 H 1492.17 -3.46448 -1.37943 0
M  V30 15684 N 1494.36 -0.113586 -1.5719 0
M  V30 15685 C 1495.77 0.412653 -1.82083 0
M  V30 15686 C 1496.12 1.66964 -1.03041 0
M  V30 15687 O 1495.25 2.14767 -0.265354 0
M  V30 15688 C 1495.84 0.755439 -3.3027 0
M  V30 15689 C 1494.4 1.22634 -3.55862 0
M  V30 15690 C 1493.55 0.232285 -2.76325 0
M  V30 15691 H 1496.5 -0.338792 -1.55042 0
M  V30 15692 H 1496.52 1.61335 -3.44603 0
M  V30 15693 H 1496.03 -0.1596 -3.87772 0
M  V30 15694 H 1494.13 2.15846 -3.03713 0
M  V30 15695 H 1494.25 1.1754 -4.64458 0
M  V30 15696 H 1492.61 0.718222 -2.44364 0
M  V30 15697 H 1493.39 -0.675756 -3.36583 0
M  V30 15698 N 1495.84 1.56784 0.160173 0
M  V30 15699 C 1497.09 1.8226 0.873253 0
M  V30 15700 C 1497.41 0.692384 1.82294 0
M  V30 15701 O 1496.68 -0.286961 1.93787 0
M  V30 15702 H 1495.26 0.672371 0.325463 0
M  V30 15703 H 1497.92 1.94264 0.157325 0
M  V30 15704 H 1497.01 2.76714 1.44345 0
M  V30 15705 N 1497.32 -0.429099 1.51646 0
M  V30 15706 C 1498.23 -1.54648 1.76412 0
M  V30 15707 C 1499.24 -1.61455 0.648703 0
M  V30 15708 O 1500.42 -1.78544 0.931888 0
M  V30 15709 C 1497.48 -2.90562 1.89142 0
M  V30 15710 C 1496.54 -2.93804 3.13014 0
M  V30 15711 C 1495.78 -4.23235 3.25127 0
M  V30 15712 O 1496 -5.1606 2.42979 0
M  V30 15713 O 1494.93 -4.32929 4.18158 0
M  V30 15714 H 1498.76 -1.36661 2.71215 0
M  V30 15715 H 1496.34 -0.612946 1.36247 0
M  V30 15716 H 1498.23 -3.7121 1.99453 0
M  V30 15717 H 1496.9 -3.08659 0.975272 0
M  V30 15718 H 1495.81 -2.12082 3.08175 0
M  V30 15719 H 1497.14 -2.80654 4.04344 0
M  V30 15720 N 1498.79 -1.41931 -0.685074 0
M  V30 15721 C 1499.7 -1.46985 -1.82846 0
M  V30 15722 C 1500.72 -0.359487 -1.70246 0
M  V30 15723 O 1501.9 -0.608824 -1.91977 0
M  V30 15724 C 1498.96 -1.36001 -3.18912 0
M  V30 15725 C 1498.02 -2.57442 -3.43543 0
M  V30 15726 C 1497.25 -2.46972 -4.73118 0
M  V30 15727 O 1497.48 -1.49999 -5.50324 0
M  V30 15728 O 1496.41 -3.36922 -4.98766 0
M  V30 15729 H 1500.24 -2.4347 -1.81538 0
M  V30 15730 H 1497.82 -1.23583 -0.839497 0
M  V30 15731 H 1499.7 -1.32198 -4.00127 0
M  V30 15732 H 1498.38 -0.426366 -3.2088 0
M  V30 15733 H 1497.29 -2.66821 -2.62217 0
M  V30 15734 H 1498.62 -3.49671 -3.46398 0
M  V30 15735 N 1500.27 0.920374 -1.27933 0
M  V30 15736 C 1501.68 1.48385 -1.13309 0
M  V30 15737 C 1502.03 1.94202 0.279307 0
M  V30 15738 O 1501.16 1.81855 1.17294 0
M  V30 15739 C 1501.75 2.69681 -2.05079 0
M  V30 15740 C 1500.31 3.22229 -1.94539 0
M  V30 15741 C 1499.46 1.94948 -1.97207 0
M  V30 15742 H 1502.41 0.733744 -1.40719 0
M  V30 15743 H 1502.43 3.44717 -1.6109 0
M  V30 15744 H 1501.94 2.36304 -3.07867 0
M  V30 15745 H 1500.04 3.60348 -0.94764 0
M  V30 15746 H 1500.16 3.87927 -2.81157 0
M  V30 15747 H 1498.52 2.1176 -1.41527 0
M  V30 15748 H 1499.3 1.63875 -3.01662 0
M  V30 15749 N 1501.75 1.10074 1.1279 0
M  V30 15750 C 1502.66 0.758458 2.22001 0
M  V30 15751 C 1503.68 -0.242438 1.72303 0
M  V30 15752 O 1504.85 -0.0821223 2.01233 0
M  V30 15753 C 1501.92 0.191326 3.46172 0
M  V30 15754 C 1500.98 1.24902 4.10729 0
M  V30 15755 C 1500.21 0.708857 5.28972 0
M  V30 15756 O 1500.43 -0.465993 5.68493 0
M  V30 15757 O 1499.37 1.46703 5.83748 0
M  V30 15758 H 1503.19 1.66997 2.53665 0
M  V30 15759 H 1500.78 0.875604 1.21052 0
M  V30 15760 H 1502.66 -0.121292 4.21225 0
M  V30 15761 H 1501.34 -0.693094 3.16193 0
M  V30 15762 H 1500.24 1.61444 3.37471 0
M  V30 15763 H 1501.58 2.10632 4.44854 0
M  V30 15764 N 1503.23 -1.30138 0.888926 0
M  V30 15765 C 1504.48 -1.95602 0.508359 0
M  V30 15766 C 1504.8 -1.70495 -0.946377 0
M  V30 15767 O 1504.07 -1.03073 -1.66592 0
M  V30 15768 H 1502.65 -0.723728 0.185006 0
M  V30 15769 H 1505.31 -1.58594 1.13286 0
M  V30 15770 H 1504.4 -3.04559 0.681915 0
M  V30 15771 N 1504.71 -0.650285 -1.43559 0
M  V30 15772 C 1505.62 0.0438076 -2.34559 0
M  V30 15773 C 1506.63 0.815316 -1.53716 0
M  V30 15774 O 1507.81 0.76323 -1.86378 0
M  V30 15775 C 1504.87 1.00028 -3.31957 0
M  V30 15776 C 1503.93 0.226027 -4.28705 0
M  V30 15777 C 1503.17 1.13694 -5.21449 0
M  V30 15778 O 1503.39 2.37614 -5.18551 0
M  V30 15779 O 1502.32 0.610924 -5.98792 0
M  V30 15780 H 1506.15 -0.705152 -2.954 0
M  V30 15781 H 1503.73 -0.410471 -1.43651 0
M  V30 15782 H 1505.62 1.55004 -3.91857 0
M  V30 15783 H 1504.29 1.72952 -2.73623 0
M  V30 15784 H 1503.2 -0.367244 -3.72293 0
M  V30 15785 H 1504.53 -0.463582 -4.90012 0
M  V30 15786 N 1506.18 1.52647 -0.392018 0
M  V30 15787 C 1507.43 2.01215 0.188926 0
M  V30 15788 C 1507.75 1.28019 1.47092 0
M  V30 15789 O 1507.02 0.401048 1.91751 0
M  V30 15790 H 1505.6 0.743444 0.0728049 0
M  V30 15791 H 1508.26 1.87715 -0.524332 0
M  V30 15792 H 1507.36 3.09562 0.397216 0
M  V30 15793 N 1507.66 0.121921 1.57128 0
M  V30 15794 C 1508.57 -0.840825 2.19014 0
M  V30 15795 C 1509.59 -1.29051 1.16712 0
M  V30 15796 O 1510.76 -1.35289 1.49194 0
M  V30 15797 C 1507.83 -2.07204 2.7797 0
M  V30 15798 C 1506.89 -1.67399 3.95318 0
M  V30 15799 C 1506.12 -2.84652 4.51452 0
M  V30 15800 O 1506.35 -4.00161 4.06482 0
M  V30 15801 O 1505.28 -2.61568 5.42094 0
M  V30 15802 H 1509.11 -0.344146 3.01744 0
M  V30 15803 H 1506.69 -0.103841 1.49039 0
M  V30 15804 H 1508.57 -2.79307 3.1554 0
M  V30 15805 H 1507.25 -2.55872 1.9827 0
M  V30 15806 H 1506.16 -0.92395 3.62511 0
M  V30 15807 H 1507.49 -1.2347 4.76462 0
M  V30 15808 N 1509.14 -1.56867 -0.151857 0
M  V30 15809 C 1510.37 -1.87237 -0.880343 0
M  V30 15810 C 1510.78 -0.709565 -1.74959 0
M  V30 15811 O 1510.14 0.320818 -1.79658 0
M  V30 15812 C 1510.19 -3.16811 -1.74107 0
M  V30 15813 O 1509.91 -4.28611 -0.906858 0
M  V30 15814 C 1511.41 -3.60662 -2.57755 0
M  V30 15815 H 1508.63 -0.62074 -0.254799 0
M  V30 15816 H 1511.18 -2.03977 -0.146104 0
M  V30 15817 H 1509.33 -3.01838 -2.42842 0
M  V30 15818 H 1509.75 -5.02673 -1.49733 0
M  V30 15819 H 1511.22 -4.54176 -3.13732 0
M  V30 15820 H 1511.7 -2.85716 -3.33561 0
M  V30 15821 H 1512.3 -3.78312 -1.94319 0
M  V30 15822 N 1510.62 0.421051 -1.51871 0
M  V30 15823 C 1511.9 1.18133 -1.55897 0
M  V30 15824 C 1512.28 2.08459 -0.332876 0
M  V30 15825 O 1511.62 2.18114 0.681052 0
M  V30 15826 C 1511.83 1.96902 -2.88151 0
M  V30 15827 C 1513.18 2.53382 -3.4071 0
M  V30 15828 O 1514.21 2.07095 -2.89811 0
M  V30 15829 O 1513.06 3.37846 -4.29561 0
M  V30 15830 H 1510.16 0.538721 -0.627462 0
M  V30 15831 H 1512.7 0.428798 -1.64193 0
M  V30 15832 H 1511.48 1.30659 -3.68841 0
M  V30 15833 H 1511.1 2.79185 -2.83093 0
M  V30 15834 N 1512.1 1.42293 0.677538 0
M  V30 15835 C 1513.51 1.37948 1.25806 0
M  V30 15836 C 1513.86 0.071408 1.9607 0
M  V30 15837 O 1512.98 -0.829921 1.99853 0
M  V30 15838 C 1513.58 2.49875 2.28797 0
M  V30 15839 C 1512.14 2.48872 2.82382 0
M  V30 15840 C 1511.28 2.28804 1.56665 0
M  V30 15841 H 1514.24 1.51546 0.471102 0
M  V30 15842 H 1514.26 2.19969 3.10474 0
M  V30 15843 H 1513.77 3.45065 1.77629 0
M  V30 15844 H 1511.87 1.57492 3.37679 0
M  V30 15845 H 1511.98 3.45816 3.31585 0
M  V30 15846 H 1510.35 1.77014 1.83135 0
M  V30 15847 H 1511.13 3.26046 1.07467 0
M  V30 15848 N 1513.57 -0.913576 1.28419 0
M  V30 15849 C 1514.48 -2.04922 1.14211 0
M  V30 15850 C 1515.5 -1.73865 0.0686424 0
M  V30 15851 O 1516.68 -1.99473 0.277968 0
M  V30 15852 C 1513.74 -3.37214 0.805445 0
M  V30 15853 C 1512.8 -3.81879 1.96129 0
M  V30 15854 C 1512.04 -5.07858 1.6406 0
M  V30 15855 O 1512.26 -5.67693 0.555032 0
M  V30 15856 O 1511.19 -5.4824 2.48428 0
M  V30 15857 H 1515.02 -2.19827 2.09547 0
M  V30 15858 H 1512.6 -1.03501 1.0774 0
M  V30 15859 H 1514.49 -4.16639 0.631648 0
M  V30 15860 H 1513.16 -3.23484 -0.118254 0
M  V30 15861 H 1512.07 -3.03281 2.19024 0
M  V30 15862 H 1513.4 -4.00173 2.8657 0
M  V30 15863 N 1515.05 -1.1067 -1.12204 0
M  V30 15864 C 1516 -0.757745 -2.18007 0
M  V30 15865 C 1516.97 0.26706 -1.63939 0
M  V30 15866 O 1518.15 0.145789 -1.90242 0
M  V30 15867 C 1515.29 -0.198379 -3.44529 0
M  V30 15868 C 1514.41 -1.27878 -4.12639 0
M  V30 15869 C 1513.54 -0.6808 -5.26819 0
M  V30 15870 C 1512.58 -1.74161 -5.868 0
M  V30 15871 N 1511.72 -1.16372 -6.92389 0
M  V30 15872 H 1516.56 -1.66418 -2.47202 0
M  V30 15873 H 1514.1 -0.831216 -1.21364 0
M  V30 15874 H 1516.05 0.143838 -4.16952 0
M  V30 15875 H 1514.68 0.671279 -3.15743 0
M  V30 15876 H 1513.74 -1.73808 -3.38371 0
M  V30 15877 H 1515.05 -2.08169 -4.53285 0
M  V30 15878 H 1514.2 -0.288172 -6.06015 0
M  V30 15879 H 1512.94 0.153521 -4.87458 0
M  V30 15880 H 1511.95 -2.14364 -5.06289 0
M  V30 15881 H 1513.17 -2.57882 -6.28231 0
M  V30 15882 H 1511.12 -0.350899 -6.55061 0
M  V30 15883 H 1511.03 -1.90344 -7.31646 0
M  V30 15884 H 1512.3 -0.797715 -7.75407 0
M  V30 15885 N 1516.53 1.29665 -0.895815 0
M  V30 15886 C 1517.78 1.96006 -0.520522 0
M  V30 15887 C 1518.11 1.7048 0.930068 0
M  V30 15888 O 1517.38 1.01558 1.6588 0
M  V30 15889 C 1517.67 3.50897 -0.808925 0
M  V30 15890 C 1517.52 3.85896 -2.31093 0
M  V30 15891 C 1518.84 4.39125 -0.292769 0
M  V30 15892 H 1515.96 0.711931 -0.190588 0
M  V30 15893 H 1518.6 1.53349 -1.12179 0
M  V30 15894 H 1516.75 3.87362 -0.297194 0
M  V30 15895 H 1518.42 3.59397 -2.89191 0
M  V30 15896 H 1516.67 3.33578 -2.77323 0
M  V30 15897 H 1517.34 4.93989 -2.46331 0
M  V30 15898 H 1519.81 4.0963 -0.730906 0
M  V30 15899 H 1518.69 5.46395 -0.523799 0
M  V30 15900 H 1518.95 4.34683 0.806393 0
M  V30 15901 N 1518.01 0.657889 1.43212 0
M  V30 15902 C 1518.96 -0.0532813 2.27938 0
M  V30 15903 C 1519.94 -0.790207 1.40159 0
M  V30 15904 O 1521.13 -0.671904 1.63751 0
M  V30 15905 C 1518.26 -1.01574 3.27929 0
M  V30 15906 C 1517.35 -0.277042 4.23194 0
M  V30 15907 N 1517.74 0.708959 5.00807 0
M  V30 15908 C 1516.04 -0.517845 4.42983 0
M  V30 15909 C 1516.74 1.14784 5.70263 0
M  V30 15910 N 1515.72 0.481156 5.41466 0
M  V30 15911 H 1519.52 0.703257 2.85362 0
M  V30 15912 H 1517.03 0.485552 1.54971 0
M  V30 15913 H 1519.03 -1.54006 3.87412 0
M  V30 15914 H 1517.69 -1.77229 2.72066 0
M  V30 15915 H 1518.7 1.08786 5.06346 0
M  V30 15916 H 1515.38 -1.2552 3.98185 0
M  V30 15917 H 1516.77 1.96395 6.42556 0
M  V30 15918 N 1519.49 -1.52437 0.400108 0
M  V30 15919 C 1520.42 -2.29672 -0.421054 0
M  V30 15920 C 1521.4 -1.33506 -1.05405 0
M  V30 15921 O 1522.58 -1.62408 -1.06477 0
M  V30 15922 C 1519.71 -3.1115 -1.54281 0
M  V30 15923 C 1518.67 -4.1529 -1.0353 0
M  V30 15924 C 1517.99 -4.85058 -2.24996 0
M  V30 15925 C 1519.29 -5.22212 -0.0956529 0
M  V30 15926 H 1520.99 -2.98565 0.2234 0
M  V30 15927 H 1518.53 -1.43588 0.108883 0
M  V30 15928 H 1520.49 -3.63945 -2.12419 0
M  V30 15929 H 1519.21 -2.4001 -2.21501 0
M  V30 15930 H 1517.87 -3.63492 -0.476383 0
M  V30 15931 H 1517.52 -4.10455 -2.9075 0
M  V30 15932 H 1517.22 -5.55452 -1.91694 0
M  V30 15933 H 1518.74 -5.40661 -2.83756 0
M  V30 15934 H 1520.15 -5.70302 -0.585548 0
M  V30 15935 H 1518.55 -5.99917 0.148121 0
M  V30 15936 H 1519.62 -4.77351 0.852296 0
M  V30 15937 N 1520.96 -0.130252 -1.57061 0
M  V30 15938 C 1522.19 0.532416 -1.99932 0
M  V30 15939 C 1522.61 1.59505 -1.01013 0
M  V30 15940 O 1521.96 1.82499 -0.00463158 0
M  V30 15941 C 1522.02 1.14833 -3.42776 0
M  V30 15942 O 1521.74 0.128163 -4.37912 0
M  V30 15943 C 1523.24 1.89324 -4.00838 0
M  V30 15944 H 1520.46 0.140046 -0.656223 0
M  V30 15945 H 1523 -0.219905 -2.03314 0
M  V30 15946 H 1521.16 1.85137 -3.40298 0
M  V30 15947 H 1521.57 0.577135 -5.21315 0
M  V30 15948 H 1523.04 2.27731 -5.02835 0
M  V30 15949 H 1523.52 2.77277 -3.40608 0
M  V30 15950 H 1524.13 1.23757 -4.06896 0
M  V30 15951 N 1522.44 1.56945 0.143535 0
M  V30 15952 C 1523.69 1.84696 0.851985 0
M  V30 15953 C 1524.04 0.714713 1.78633 0
M  V30 15954 O 1523.34 -0.287092 1.89437 0
M  V30 15955 C 1523.53 3.16482 1.66054 0
M  V30 15956 C 1523.36 4.42418 0.80599 0
M  V30 15957 C 1522.13 5.03107 0.470269 0
M  V30 15958 C 1524.33 5.14123 0.134742 0
M  V30 15959 N 1522.31 6.12612 -0.397516 0
M  V30 15960 C 1523.68 6.17157 -0.593039 0
M  V30 15961 C 1525.74 4.97869 0.0557743 0
M  V30 15962 C 1524.44 7.05696 -1.39234 0
M  V30 15963 C 1526.47 5.86874 -0.730272 0
M  V30 15964 C 1525.83 6.89392 -1.44632 0
M  V30 15965 H 1521.93 0.726447 0.28948 0
M  V30 15966 H 1524.51 1.94347 0.117143 0
M  V30 15967 H 1522.68 3.07972 2.3666 0
M  V30 15968 H 1524.41 3.32128 2.31243 0
M  V30 15969 H 1521.17 4.66676 0.806858 0
M  V30 15970 H 1521.59 6.71985 -0.822534 0
M  V30 15971 H 1526.23 4.18592 0.595021 0
M  V30 15972 H 1523.95 7.84398 -1.94283 0
M  V30 15973 H 1527.54 5.76365 -0.79341 0
M  V30 15974 H 1526.42 7.57072 -2.04479 0
M  V30 15975 N 1523.92 -0.412991 1.52093 0
M  V30 15976 C 1525.15 -1.18212 1.69805 0
M  V30 15977 C 1525.56 -1.84386 0.405844 0
M  V30 15978 O 1524.92 -1.71725 -0.617809 0
M  V30 15979 C 1524.97 -2.24811 2.83094 0
M  V30 15980 O 1524.69 -1.61338 4.0731 0
M  V30 15981 C 1526.19 -3.14633 3.12283 0
M  V30 15982 H 1523.41 -0.355371 0.569168 0
M  V30 15983 H 1525.96 -0.486392 1.98632 0
M  V30 15984 H 1524.11 -2.90058 2.56797 0
M  V30 15985 H 1524.53 -2.31979 4.7041 0
M  V30 15986 H 1526 -3.85511 3.95076 0
M  V30 15987 H 1526.48 -3.76785 2.25677 0
M  V30 15988 H 1527.08 -2.55059 3.40331 0
M  V30 15989 N 1525.4 -1.4265 -0.669982 0
M  V30 15990 C 1526.35 -1.46504 -1.7834 0
M  V30 15991 C 1527.32 -0.316478 -1.63057 0
M  V30 15992 O 1528.5 -0.521245 -1.83542 0
M  V30 15993 C 1525.64 -1.37784 -3.16401 0
M  V30 15994 C 1524.75 -2.62714 -3.42937 0
M  V30 15995 C 1523.89 -2.46101 -4.70752 0
M  V30 15996 C 1522.93 -3.66381 -4.90338 0
M  V30 15997 N 1522.07 -3.48681 -6.09398 0
M  V30 15998 H 1526.91 -2.41651 -1.74381 0
M  V30 15999 H 1524.44 -1.1997 -0.851215 0
M  V30 16000 H 1526.4 -1.30725 -3.9619 0
M  V30 16001 H 1525.03 -0.462291 -3.19473 0
M  V30 16002 H 1524.08 -2.8012 -2.57366 0
M  V30 16003 H 1525.39 -3.52108 -3.53301 0
M  V30 16004 H 1524.55 -2.36655 -5.58641 0
M  V30 16005 H 1523.29 -1.54204 -4.6268 0
M  V30 16006 H 1522.29 -3.76254 -4.00891 0
M  V30 16007 H 1523.52 -4.59265 -5.00253 0
M  V30 16008 H 1521.46 -2.59505 -6.02489 0
M  V30 16009 H 1521.38 -4.31666 -6.20645 0
M  V30 16010 H 1522.65 -3.43056 -6.99952 0
M  V30 16011 N 1526.88 0.906753 -1.28902 0
M  V30 16012 C 1528.15 1.63637 -1.07155 0
M  V30 16013 C 1528.53 2.07527 0.386727 0
M  V30 16014 O 1527.88 1.82562 1.37417 0
M  V30 16015 C 1528.09 2.82256 -2.05263 0
M  V30 16016 C 1529.44 3.53109 -2.35794 0
M  V30 16017 O 1530.46 2.92414 -2.03402 0
M  V30 16018 O 1529.32 4.62512 -2.91109 0
M  V30 16019 H 1526.42 0.718194 -0.410032 0
M  V30 16020 H 1528.96 0.955442 -1.40248 0
M  V30 16021 H 1527.74 2.46968 -3.03517 0
M  V30 16022 H 1527.36 3.58059 -1.72857 0
M  V30 16023 N 1528.36 1.11264 1.11616 0
M  V30 16024 C 1529.3 0.769295 2.17602 0
M  V30 16025 C 1530.27 -0.258362 1.64078 0
M  V30 16026 O 1531.46 -0.135698 1.90317 0
M  V30 16027 C 1528.6 0.216647 3.44419 0
M  V30 16028 C 1527.71 1.30064 4.11955 0
M  V30 16029 C 1526.85 0.708729 5.26451 0
M  V30 16030 C 1525.88 1.7727 5.85868 0
M  V30 16031 N 1525.02 1.20042 6.91762 0
M  V30 16032 H 1529.86 1.67727 2.46316 0
M  V30 16033 H 1527.4 0.83764 1.20921 0
M  V30 16034 H 1529.36 -0.121724 4.17022 0
M  V30 16035 H 1527.99 -0.654525 3.16095 0
M  V30 16036 H 1527.04 1.756 3.37445 0
M  V30 16037 H 1528.35 2.1057 4.52174 0
M  V30 16038 H 1527.5 0.320307 6.05854 0
M  V30 16039 H 1526.24 -0.127668 4.87533 0
M  V30 16040 H 1525.25 2.17046 5.05145 0
M  V30 16041 H 1526.47 2.6121 6.26854 0
M  V30 16042 H 1524.42 0.385633 6.54866 0
M  V30 16043 H 1524.34 1.94221 7.30626 0
M  V30 16044 H 1525.6 0.838825 7.74974 0
M  V30 16045 N 1529.83 -1.29188 0.902679 0
M  V30 16046 C 1531.06 -2.00113 0.544953 0
M  V30 16047 C 1531.48 -1.67093 -0.863805 0
M  V30 16048 O 1530.84 -0.897179 -1.57545 0
M  V30 16049 C 1530.89 -3.52762 0.747741 0
M  V30 16050 O 1529.99 -4.11923 -0.198388 0
M  V30 16051 H 1529.33 -0.629054 0.212572 0
M  V30 16052 H 1531.86 -1.64611 1.21508 0
M  V30 16053 H 1531.87 -4.02732 0.653546 0
M  V30 16054 H 1530.55 -3.76131 1.77478 0
M  V30 16055 H 1529.13 -3.72857 -0.0563959 0
M  V30 16056 N 1531.31 -0.665475 -1.42861 0
M  V30 16057 C 1532.56 -0.184156 -2.01962 0
M  V30 16058 C 1532.89 1.20301 -1.52451 0
M  V30 16059 O 1532.17 1.80573 -0.722756 0
M  V30 16060 C 1532.45 -0.208497 -3.59496 0
M  V30 16061 C 1532.3 -1.63045 -4.19209 0
M  V30 16062 C 1533.62 0.448421 -4.3781 0
M  V30 16063 H 1530.74 -0.0683924 -0.73382 0
M  V30 16064 H 1533.38 -0.84849 -1.70002 0
M  V30 16065 H 1531.53 0.357179 -3.86855 0
M  V30 16066 H 1533.2 -2.24766 -4.02837 0
M  V30 16067 H 1531.45 -2.17401 -3.75392 0
M  V30 16068 H 1532.12 -1.59924 -5.28326 0
M  V30 16069 H 1534.59 -0.0330053 -4.16087 0
M  V30 16070 H 1533.47 0.400713 -5.47435 0
M  V30 16071 H 1533.73 1.52454 -4.14982 0
M  V30 16072 N 1532.79 1.52222 -0.408187 0
M  V30 16073 C 1533.75 2.25578 0.405851 0
M  V30 16074 C 1534.75 1.27912 0.974434 0
M  V30 16075 O 1535.94 1.51861 0.853461 0
M  V30 16076 C 1533.07 3.02532 1.57122 0
M  V30 16077 H 1534.27 2.98965 -0.23664 0
M  V30 16078 H 1531.82 1.55472 -0.160687 0
M  V30 16079 H 1532.56 2.33492 2.2506 0
M  V30 16080 H 1532.34 3.74237 1.17001 0
M  V30 16081 H 1533.83 3.58177 2.14707 0
M  V30 16082 N 1534.27 0.138579 1.5699 0
M  V30 16083 C 1535.18 -0.817548 2.19894 0
M  V30 16084 C 1536.19 -1.27806 1.18075 0
M  V30 16085 O 1537.37 -1.33699 1.5062 0
M  V30 16086 C 1534.43 -2.04244 2.80152 0
M  V30 16087 C 1533.5 -1.63197 3.97071 0
M  V30 16088 C 1532.73 -2.79847 4.54446 0
M  V30 16089 O 1532.95 -3.95827 4.10703 0
M  V30 16090 O 1531.89 -2.55804 5.44838 0
M  V30 16091 H 1535.71 -0.312123 3.02092 0
M  V30 16092 H 1533.3 -0.0880281 1.4914 0
M  V30 16093 H 1535.18 -2.75945 3.18485 0
M  V30 16094 H 1533.85 -2.53755 2.00973 0
M  V30 16095 H 1532.76 -0.885448 3.6347 0
M  V30 16096 H 1534.09 -1.1841 4.77745 0
M  V30 16097 N 1535.75 -1.57019 -0.13521 0
M  V30 16098 C 1536.69 -1.99148 -1.16657 0
M  V30 16099 C 1537.66 -0.860947 -1.42045 0
M  V30 16100 O 1538.85 -1.12393 -1.54183 0
M  V30 16101 C 1535.99 -2.3872 -2.49212 0
M  V30 16102 C 1535.1 -3.65117 -2.30898 0
M  V30 16103 C 1534.24 -3.9374 -3.5657 0
M  V30 16104 C 1533.27 -5.1337 -3.33343 0
M  V30 16105 N 1532.41 -5.37945 -4.51176 0
M  V30 16106 H 1537.25 -2.87052 -0.800312 0
M  V30 16107 H 1534.79 -1.42007 -0.383705 0
M  V30 16108 H 1536.75 -2.59695 -3.26518 0
M  V30 16109 H 1535.38 -1.53879 -2.83762 0
M  V30 16110 H 1534.43 -3.5185 -1.44588 0
M  V30 16111 H 1535.74 -4.52578 -2.09701 0
M  V30 16112 H 1534.89 -4.15277 -4.423 0
M  V30 16113 H 1533.63 -3.04723 -3.80782 0
M  V30 16114 H 1532.64 -4.91694 -2.46002 0
M  V30 16115 H 1533.86 -6.0395 -3.10517 0
M  V30 16116 H 1531.81 -4.51884 -4.75539 0
M  V30 16117 H 1531.73 -6.19698 -4.33025 0
M  V30 16118 H 1532.99 -5.63989 -5.38086 0
M  V30 16119 N 1537.22 0.404919 -1.52309 0
M  V30 16120 C 1538.17 1.51412 -1.7657 0
M  V30 16121 C 1539.17 1.5713 -0.632983 0
M  V30 16122 O 1540.37 1.60486 -0.815121 0
M  V30 16123 H 1536.75 0.503636 -0.55844 0
M  V30 16124 H 1538.72 1.28137 -2.69488 0
M  V30 16125 C 1537.47 2.88733 -1.93722 0
M  V30 16126 H 1536.79 2.85078 -2.80304 0
M  V30 16127 H 1538.23 3.65626 -2.14695 0
M  V30 16128 C 1536.69 3.29431 -0.705444 0
M  V30 16129 O 1537.22 4.01506 0.124693 0
M  V30 16130 N 1535.43 2.85536 -0.540128 0
M  V30 16131 H 1534.97 2.27052 -1.21677 0
M  V30 16132 H 1534.93 3.13126 0.282723 0
M  V30 16133 N 1538.7 1.43003 0.662408 0
M  V30 16134 C 1539.65 1.47448 1.77561 0
M  V30 16135 C 1540.62 0.325121 1.62887 0
M  V30 16136 O 1541.8 0.530971 1.83263 0
M  V30 16137 C 1538.94 1.3946 3.15666 0
M  V30 16138 C 1538.06 2.64529 3.41539 0
M  V30 16139 C 1537.19 2.48594 4.69441 0
M  V30 16140 C 1536.23 3.68976 4.88388 0
M  V30 16141 N 1535.37 3.51908 6.0754 0
M  V30 16142 H 1540.21 2.42573 1.73097 0
M  V30 16143 H 1537.75 1.2042 0.84484 0
M  V30 16144 H 1539.7 1.32824 3.95492 0
M  V30 16145 H 1538.33 0.479227 3.19223 0
M  V30 16146 H 1537.39 2.81481 2.55877 0
M  V30 16147 H 1538.7 3.53977 3.51429 0
M  V30 16148 H 1537.85 2.39614 5.57378 0
M  V30 16149 H 1536.59 1.56656 4.61855 0
M  V30 16150 H 1535.6 3.78374 3.9889 0
M  V30 16151 H 1536.82 4.61911 4.9781 0
M  V30 16152 H 1534.77 2.62697 6.01104 0
M  V30 16153 H 1534.68 4.34951 6.18347 0
M  V30 16154 H 1535.95 3.46763 6.98123 0
M  V30 16155 N 1540.18 -0.899904 1.29381 0
M  V30 16156 C 1541.43 -1.64712 1.17109 0
M  V30 16157 C 1541.75 -1.93011 -0.277772 0
M  V30 16158 O 1541.02 -1.55604 -1.19013 0
M  V30 16159 H 1539.6 -0.610532 0.430418 0
M  V30 16160 H 1542.26 -1.07905 1.62304 0
M  V30 16161 H 1541.36 -2.60362 1.72098 0
M  V30 16162 N 1541.66 -1.11854 -1.11024 0
M  V30 16163 C 1543.07 -0.885443 -1.64368 0
M  V30 16164 C 1543.42 0.581455 -1.87386 0
M  V30 16165 O 1542.55 1.44452 -1.61129 0
M  V30 16166 C 1543.14 -1.60082 -2.98595 0
M  V30 16167 C 1541.7 -1.41403 -3.4883 0
M  V30 16168 C 1540.85 -1.64069 -2.23555 0
M  V30 16169 H 1543.8 -1.27418 -0.94606 0
M  V30 16170 H 1543.82 -1.04832 -3.65774 0
M  V30 16171 H 1543.33 -2.66842 -2.8181 0
M  V30 16172 H 1541.43 -0.368727 -3.70771 0
M  V30 16173 H 1541.54 -2.16603 -4.27341 0
M  V30 16174 H 1539.91 -1.06437 -2.31394 0
M  V30 16175 H 1540.69 -2.72112 -2.09308 0
M  V30 16176 N 1543.14 1.28707 -0.909517 0
M  V30 16177 C 1544.36 1.99821 -0.555557 0
M  V30 16178 C 1544.79 1.67549 0.854931 0
M  V30 16179 O 1544.14 0.905521 1.57067 0
M  V30 16180 C 1544.19 3.52361 -0.766438 0
M  V30 16181 O 1543.3 4.12022 0.17654 0
M  V30 16182 H 1542.64 0.627918 -0.215905 0
M  V30 16183 H 1545.17 1.63965 -1.2238 0
M  V30 16184 H 1545.18 4.02379 -0.674894 0
M  V30 16185 H 1543.85 3.75184 -1.7947 0
M  V30 16186 H 1542.43 3.72882 0.0366216 0
M  V30 16187 N 1544.61 0.673042 1.42506 0
M  V30 16188 C 1546.03 0.272049 1.84707 0
M  V30 16189 C 1546.38 -1.18545 1.56338 0
M  V30 16190 O 1545.5 -1.9073 1.02231 0
M  V30 16191 C 1546.1 0.486977 3.35282 0
M  V30 16192 C 1544.66 0.140122 3.76139 0
M  V30 16193 C 1543.8 0.780276 2.66096 0
M  V30 16194 H 1546.75 0.875329 1.32377 0
M  V30 16195 H 1546.77 -0.261443 3.79601 0
M  V30 16196 H 1546.29 1.54784 3.55898 0
M  V30 16197 H 1544.39 -0.917366 3.6113 0
M  V30 16198 H 1544.5 0.579417 4.75583 0
M  V30 16199 H 1542.86 0.211756 2.53818 0
M  V30 16200 H 1543.65 1.84456 2.89536 0
M  V30 16201 N 1546.09 -1.52004 0.416254 0
M  V30 16202 C 1547.34 -2.02188 -0.157434 0
M  V30 16203 C 1547.67 -1.30097 -1.44182 0
M  V30 16204 O 1546.95 -0.409426 -1.90142 0
M  V30 16205 C 1547.23 -3.57896 -0.397847 0
M  V30 16206 C 1547.08 -4.40628 0.903715 0
M  V30 16207 C 1548.4 -4.24072 -1.17689 0
M  V30 16208 H 1545.52 -0.734889 -0.0557437 0
M  V30 16209 H 1548.16 -1.81831 0.551118 0
M  V30 16210 H 1546.31 -3.75372 -1.00142 0
M  V30 16211 H 1547.98 -4.34848 1.53964 0
M  V30 16212 H 1546.23 -4.06556 1.5131 0
M  V30 16213 H 1546.9 -5.47673 0.689802 0
M  V30 16214 H 1549.37 -4.10738 -0.665832 0
M  V30 16215 H 1548.25 -5.32944 -1.31386 0
M  V30 16216 H 1548.51 -3.83507 -2.19942 0
M  V30 16217 N 1547.57 -0.146903 -1.56914 0
M  V30 16218 C 1548.8 0.514426 -2.00919 0
M  V30 16219 C 1549.22 1.57632 -1.02634 0
M  V30 16220 O 1548.58 1.813 -0.00207478 0
M  V30 16221 C 1548.63 1.09197 -3.43669 0
M  V30 16222 O 1547.73 2.20684 -3.48385 0
M  V30 16223 H 1547.07 0.125827 -0.651969 0
M  V30 16224 H 1549.6 -0.243607 -2.03145 0
M  V30 16225 H 1549.61 1.42066 -3.82467 0
M  V30 16226 H 1548.29 0.314336 -4.1471 0
M  V30 16227 H 1546.86 1.89045 -3.21429 0
M  V30 16228 N 1549.05 1.57088 0.126881 0
M  V30 16229 C 1550.27 1.88984 0.854389 0
M  V30 16230 C 1550.7 0.738037 1.73016 0
M  V30 16231 O 1550.06 -0.311728 1.786 0
M  V30 16232 C 1550.1 3.19584 1.67028 0
M  V30 16233 O 1549.21 3.04935 2.77648 0
M  V30 16234 H 1548.55 0.620354 0.236763 0
M  V30 16235 H 1551.08 2.04295 0.111647 0
M  V30 16236 H 1551.09 3.52109 2.06115 0
M  V30 16237 H 1549.76 4.03012 1.02732 0
M  V30 16238 H 1548.34 2.83861 2.41821 0
M  V30 16239 N 1550.53 -0.396836 1.52522 0
M  V30 16240 C 1551.44 -1.50871 1.79653 0
M  V30 16241 C 1552.45 -1.60043 0.682804 0
M  V30 16242 O 1553.63 -1.76527 0.96955 0
M  V30 16243 C 1550.69 -2.86485 1.95263 0
M  V30 16244 C 1549.75 -2.87099 3.19175 0
M  V30 16245 C 1548.99 -4.16244 3.34031 0
M  V30 16246 O 1549.21 -5.1079 2.5387 0
M  V30 16247 O 1548.14 -4.23962 4.27247 0
M  V30 16248 H 1551.97 -1.30878 2.74052 0
M  V30 16249 H 1549.56 -0.583908 1.37517 0
M  V30 16250 H 1551.44 -3.66895 2.07282 0
M  V30 16251 H 1550.11 -3.0652 1.04052 0
M  V30 16252 H 1549.02 -2.05497 3.12605 0
M  V30 16253 H 1550.35 -2.72014 4.10206 0
M  V30 16254 N 1552.01 -1.43353 -0.654814 0
M  V30 16255 C 1553.25 -1.44599 -1.41193 0
M  V30 16256 C 1553.57 -0.0707955 -1.94871 0
M  V30 16257 O 1552.84 0.893637 -1.7433 0
M  V30 16258 H 1551.42 -0.532373 -0.524011 0
M  V30 16259 H 1554.09 -1.78942 -0.772388 0
M  V30 16260 H 1553.18 -2.15761 -2.25508 0
M  V30 16261 N 1553.48 0.89303 -1.29857 0
M  V30 16262 C 1554.73 1.63881 -1.17583 0
M  V30 16263 C 1555.05 1.93723 0.270293 0
M  V30 16264 O 1556.25 2.66582 0.514432 0
M  V30 16265 C 1554.71 2.95327 -2.05694 0
M  V30 16266 C 1554.32 2.73055 -3.55169 0
M  V30 16267 C 1556.06 3.7327 -2.02162 0
M  V30 16268 C 1553.97 4.00268 -4.35361 0
M  V30 16269 H 1552.9 0.614815 -0.436485 0
M  V30 16270 H 1555.55 0.989339 -1.54546 0
M  V30 16271 H 1553.93 3.61523 -1.61607 0
M  V30 16272 H 1555.1 2.1541 -4.07351 0
M  V30 16273 H 1553.42 2.08498 -3.6044 0
M  V30 16274 H 1556.02 4.67601 -2.59333 0
M  V30 16275 H 1556.36 4.04032 -1.00318 0
M  V30 16276 H 1556.89 3.13925 -2.44328 0
M  V30 16277 H 1553.63 3.74669 -5.37869 0
M  V30 16278 H 1553.15 4.57448 -3.87945 0
M  V30 16279 H 1554.83 4.68358 -4.46374 0
M  V30 16280 N 1554.96 1.12442 1.10429 0
M  V30 16281 C 1555.91 0.792332 2.16773 0
M  V30 16282 C 1556.88 -0.240945 1.64343 0
M  V30 16283 O 1558.06 -0.115504 1.9045 0
M  V30 16284 C 1555.2 0.253166 3.4417 0
M  V30 16285 C 1554.32 1.34426 4.10553 0
M  V30 16286 C 1553.45 0.764527 5.2567 0
M  V30 16287 C 1552.49 1.83474 5.83955 0
M  V30 16288 N 1551.63 1.27372 6.9045 0
M  V30 16289 H 1556.47 1.7033 2.44524 0
M  V30 16290 H 1554 0.850418 1.20026 0
M  V30 16291 H 1555.96 -0.0774862 4.17128 0
M  V30 16292 H 1554.59 -0.620962 3.16771 0
M  V30 16293 H 1553.64 1.79169 3.35563 0
M  V30 16294 H 1554.96 2.15354 4.49916 0
M  V30 16295 H 1554.11 0.384548 6.0548 0
M  V30 16296 H 1552.85 -0.0759512 4.87641 0
M  V30 16297 H 1551.85 2.22391 5.02814 0
M  V30 16298 H 1553.08 2.67844 6.24048 0
M  V30 16299 H 1551.03 0.455069 6.5442 0
M  V30 16300 H 1550.94 2.01959 7.28525 0
M  V30 16301 H 1552.21 0.920975 7.7404 0
M  V30 16302 N 1556.44 -1.28223 0.91633 0
M  V30 16303 C 1557.72 -1.89878 0.469661 0
M  V30 16304 C 1558.1 -1.83037 -1.05169 0
M  V30 16305 O 1557.44 -1.26801 -1.90088 0
M  V30 16306 C 1557.65 -3.34279 1.00293 0
M  V30 16307 C 1559 -4.11244 1.05657 0
M  V30 16308 O 1560.03 -3.43249 0.951753 0
M  V30 16309 O 1558.89 -5.32788 1.21652 0
M  V30 16310 H 1555.98 -0.813418 0.149263 0
M  V30 16311 H 1558.53 -1.36572 1.00728 0
M  V30 16312 H 1557.3 -3.33494 2.04688 0
M  V30 16313 H 1556.92 -3.95087 0.446287 0
M  V30 16314 N 1557.92 -0.68059 -1.42147 0
M  V30 16315 C 1559.16 -0.205263 -2.01457 0
M  V30 16316 C 1559.49 1.19015 -1.53837 0
M  V30 16317 O 1558.75 1.81423 -0.733763 0
M  V30 16318 C 1559.05 -0.194825 -3.56869 0
M  V30 16319 C 1558.71 -1.5357 -4.23942 0
M  V30 16320 C 1557.37 -1.90282 -4.4198 0
M  V30 16321 C 1559.73 -2.41852 -4.61689 0
M  V30 16322 C 1557.05 -3.14891 -4.95036 0
M  V30 16323 C 1559.41 -3.65779 -5.16129 0
M  V30 16324 C 1558.07 -4.02653 -5.32379 0
M  V30 16325 H 1557.34 -0.0751109 -0.737183 0
M  V30 16326 H 1559.99 -0.87672 -1.70252 0
M  V30 16327 H 1558.29 0.560155 -3.87775 0
M  V30 16328 H 1559.99 0.190248 -4.00548 0
M  V30 16329 H 1556.58 -1.24012 -4.10267 0
M  V30 16330 H 1560.76 -2.14773 -4.47422 0
M  V30 16331 H 1556.02 -3.43474 -5.05802 0
M  V30 16332 H 1560.19 -4.34384 -5.4432 0
M  V30 16333 H 1557.82 -4.99283 -5.73254 0
M  V30 16334 N 1559.4 1.51781 -0.424309 0
M  V30 16335 C 1560.64 2.01969 0.146492 0
M  V30 16336 C 1560.97 1.30918 1.43843 0
M  V30 16337 O 1560.23 0.408705 1.91385 0
M  V30 16338 C 1560.52 3.54855 0.42574 0
M  V30 16339 C 1560.19 4.44123 -0.778814 0
M  V30 16340 C 1558.85 4.68242 -1.10918 0
M  V30 16341 C 1561.2 4.96579 -1.58299 0
M  V30 16342 C 1558.53 5.42063 -2.24464 0
M  V30 16343 C 1560.88 5.71645 -2.70934 0
M  V30 16344 C 1559.55 5.94031 -3.04439 0
M  V30 16345 H 1558.82 0.739059 0.0536052 0
M  V30 16346 H 1561.47 1.82856 -0.568838 0
M  V30 16347 H 1559.77 3.72229 1.22282 0
M  V30 16348 H 1561.47 3.91212 0.880598 0
M  V30 16349 H 1558.06 4.25539 -0.511363 0
M  V30 16350 H 1562.24 4.77841 -1.34098 0
M  V30 16351 H 1557.5 5.57614 -2.50753 0
M  V30 16352 H 1561.67 6.11284 -3.33624 0
M  V30 16353 H 1559.3 6.51014 -3.92537 0
M  V30 16354 N 1560.87 0.155222 1.56834 0
M  V30 16355 C 1562.1 -0.503763 2.01189 0
M  V30 16356 C 1562.52 -1.57086 1.03468 0
M  V30 16357 O 1561.88 -1.81296 0.0116895 0
M  V30 16358 C 1561.93 -1.07373 3.44243 0
M  V30 16359 O 1561.03 -2.18834 3.49551 0
M  V30 16360 H 1560.37 -0.122368 0.652627 0
M  V30 16361 H 1562.9 0.254377 2.03013 0
M  V30 16362 H 1562.91 -1.40036 3.83215 0
M  V30 16363 H 1561.59 -0.292339 4.14871 0
M  V30 16364 H 1560.17 -1.87337 3.22427 0
M  V30 16365 N 1562.35 -1.57153 -0.118549 0
M  V30 16366 C 1563.28 -1.95577 -1.17579 0
M  V30 16367 C 1564.26 -0.825508 -1.40086 0
M  V30 16368 O 1565.45 -1.08372 -1.54233 0
M  V30 16369 C 1562.57 -2.25238 -2.52954 0
M  V30 16370 C 1561.62 -3.47789 -2.46871 0
M  V30 16371 S 1562.45 -5.00358 -1.90792 0
M  V30 16372 C 1563.61 -5.33172 -3.27839 0
M  V30 16373 H 1563.84 -2.84946 -0.84812 0
M  V30 16374 H 1561.37 -1.50934 -0.325323 0
M  V30 16375 H 1563.33 -2.43005 -3.30846 0
M  V30 16376 H 1561.99 -1.36482 -2.82898 0
M  V30 16377 H 1561.19 -3.6591 -3.46592 0
M  V30 16378 H 1560.79 -3.29411 -1.771 0
M  V30 16379 H 1563.08 -5.28381 -4.24051 0
M  V30 16380 H 1564.02 -6.34403 -3.14545 0
M  V30 16381 H 1564.43 -4.60647 -3.26289 0
M  V30 16382 N 1563.83 0.388742 -1.5273 0
M  V30 16383 C 1564.78 1.47488 -1.77527 0
M  V30 16384 C 1565.75 1.54155 -0.618505 0
M  V30 16385 O 1566.93 1.70407 -0.858251 0
M  V30 16386 C 1564.07 2.84714 -1.95018 0
M  V30 16387 C 1563.18 2.87197 -3.2271 0
M  V30 16388 C 1562.32 4.15851 -3.30517 0
M  V30 16389 C 1561.36 4.12386 -4.52332 0
M  V30 16390 N 1560.5 5.32647 -4.57418 0
M  V30 16391 H 1565.34 1.25644 -2.70218 0
M  V30 16392 H 1562.87 0.609519 -1.33878 0
M  V30 16393 H 1564.83 3.64402 -2.03143 0
M  V30 16394 H 1563.46 3.05008 -1.05688 0
M  V30 16395 H 1562.51 1.99879 -3.23655 0
M  V30 16396 H 1563.82 2.80505 -4.12454 0
M  V30 16397 H 1562.98 5.03943 -3.37827 0
M  V30 16398 H 1561.72 4.25265 -2.38748 0
M  V30 16399 H 1560.72 3.22683 -4.45147 0
M  V30 16400 H 1561.95 4.04594 -5.45418 0
M  V30 16401 H 1559.89 5.42691 -3.68541 0
M  V30 16402 H 1559.81 5.28032 -5.41035 0
M  V30 16403 H 1561.08 6.22636 -4.68983 0
M  V30 16404 N 1565.31 1.43698 0.647203 0
M  V30 16405 C 1566.72 1.40586 1.22851 0
M  V30 16406 C 1567.07 0.112981 1.95874 0
M  V30 16407 O 1566.19 -0.787342 2.01569 0
M  V30 16408 C 1566.79 2.54672 2.23445 0
M  V30 16409 C 1565.35 2.54806 2.7704 0
M  V30 16410 C 1564.5 2.32076 1.51777 0
M  V30 16411 H 1567.45 1.52512 0.43885 0
M  V30 16412 H 1567.47 2.26505 3.05738 0
M  V30 16413 H 1566.98 3.48755 1.70269 0
M  V30 16414 H 1565.08 1.64619 3.34262 0
M  V30 16415 H 1565.19 3.52771 3.24175 0
M  V30 16416 H 1563.56 1.80858 1.79339 0
M  V30 16417 H 1564.34 3.28252 1.00527 0
M  V30 16418 N 1566.79 -0.886131 1.30328 0
M  V30 16419 C 1567.7 -2.02453 1.18532 0
M  V30 16420 C 1568.71 -1.7368 0.105506 0
M  V30 16421 O 1569.89 -1.98838 0.320217 0
M  V30 16422 C 1566.95 -3.3543 0.876792 0
M  V30 16423 C 1566.01 -3.77633 2.04185 0
M  V30 16424 C 1565.25 -5.04264 1.74795 0
M  V30 16425 O 1565.47 -5.66388 0.675323 0
M  V30 16426 O 1564.4 -5.42847 2.60001 0
M  V30 16427 H 1568.23 -2.15333 2.14162 0
M  V30 16428 H 1565.82 -1.01193 1.09911 0
M  V30 16429 H 1567.7 -4.15206 0.719882 0
M  V30 16430 H 1566.37 -3.23662 -0.0496117 0
M  V30 16431 H 1565.28 -2.98567 2.25408 0
M  V30 16432 H 1566.61 -3.94004 2.94994 0
M  V30 16433 N 1568.26 -1.13026 -1.09832 0
M  V30 16434 C 1569.51 -0.900674 -1.82372 0
M  V30 16435 C 1569.87 0.56724 -1.83848 0
M  V30 16436 O 1569.16 1.41423 -1.29268 0
M  V30 16437 C 1569.35 -1.41718 -3.28102 0
M  V30 16438 C 1569.18 -2.93378 -3.40821 0
M  V30 16439 C 1567.95 -3.6168 -3.52868 0
M  V30 16440 C 1570.15 -3.91341 -3.33702 0
M  V30 16441 N 1568.13 -5.01393 -3.54228 0
M  V30 16442 C 1569.5 -5.17221 -3.41881 0
M  V30 16443 C 1571.56 -3.83665 -3.17341 0
M  V30 16444 C 1570.26 -6.36324 -3.35386 0
M  V30 16445 C 1572.29 -5.02298 -3.1217 0
M  V30 16446 C 1571.65 -6.27039 -3.20938 0
M  V30 16447 H 1567.75 -0.382934 -0.681825 0
M  V30 16448 H 1570.33 -1.43771 -1.31293 0
M  V30 16449 H 1568.5 -0.907117 -3.77659 0
M  V30 16450 H 1570.23 -1.12902 -3.88632 0
M  V30 16451 H 1566.99 -3.12188 -3.5614 0
M  V30 16452 H 1567.41 -5.74286 -3.58504 0
M  V30 16453 H 1572.06 -2.88113 -3.09436 0
M  V30 16454 H 1569.77 -7.32136 -3.42056 0
M  V30 16455 H 1573.36 -4.98095 -3.00653 0
M  V30 16456 H 1572.24 -7.17296 -3.16947 0
M  V30 16457 N 1569.74 1.27735 -0.923117 0
M  V30 16458 C 1570.65 2.30734 -0.424124 0
M  V30 16459 C 1571.67 1.66872 0.49291 0
M  V30 16460 O 1572.84 1.97843 0.37683 0
M  V30 16461 C 1569.91 3.45227 0.319254 0
M  V30 16462 C 1568.97 4.2462 -0.632137 0
M  V30 16463 C 1568.2 5.33646 0.0758596 0
M  V30 16464 O 1568.43 5.55481 1.29602 0
M  V30 16465 O 1567.36 5.98966 -0.593624 0
M  V30 16466 H 1571.19 2.75444 -1.27923 0
M  V30 16467 H 1568.77 1.32601 -0.688288 0
M  V30 16468 H 1570.65 4.14874 0.73873 0
M  V30 16469 H 1569.33 3.02582 1.15004 0
M  V30 16470 H 1568.24 3.57525 -1.1012 0
M  V30 16471 H 1569.57 4.70969 -1.43001 0
M  V30 16472 N 1571.22 0.688118 1.41784 0
M  V30 16473 C 1572.17 0.00661035 2.32599 0
M  V30 16474 C 1573.16 -0.776475 1.50556 0
M  V30 16475 O 1574.37 -0.682937 1.66541 0
M  V30 16476 H 1570.74 -0.0166615 0.751815 0
M  V30 16477 H 1572.71 0.789718 2.8776 0
M  V30 16478 C 1571.46 -0.921251 3.35273 0
M  V30 16479 H 1570.79 -0.328099 3.98451 0
M  V30 16480 H 1572.23 -1.36655 4.01374 0
M  V30 16481 C 1570.69 -2.03393 2.68576 0
M  V30 16482 O 1571.22 -3.1219 2.52785 0
M  V30 16483 N 1569.42 -1.8095 2.27389 0
M  V30 16484 H 1568.97 -0.924692 2.40431 0
M  V30 16485 H 1568.93 -2.55584 1.83096 0
M  V30 16486 N 1572.7 -1.51554 0.432352 0
M  V30 16487 C 1573.63 -2.30514 -0.372243 0
M  V30 16488 C 1574.61 -1.35712 -1.02549 0
M  V30 16489 O 1575.79 -1.6463 -1.03009 0
M  V30 16490 C 1572.92 -3.14353 -1.47646 0
M  V30 16491 C 1571.88 -4.17392 -0.946974 0
M  V30 16492 C 1571.2 -4.89721 -2.14656 0
M  V30 16493 C 1572.5 -5.22298 0.0151377 0
M  V30 16494 H 1574.2 -2.98024 0.28668 0
M  V30 16495 H 1571.74 -1.43325 0.139315 0
M  V30 16496 H 1573.7 -3.68369 -2.04651 0
M  V30 16497 H 1572.42 -2.44654 -2.1636 0
M  V30 16498 H 1571.08 -3.6442 -0.399174 0
M  V30 16499 H 1570.73 -4.1653 -2.81978 0
M  V30 16500 H 1570.43 -5.59393 -1.79869 0
M  V30 16501 H 1571.95 -5.46559 -2.72224 0
M  V30 16502 H 1573.37 -5.71416 -0.464447 0
M  V30 16503 H 1571.76 -5.99468 0.275339 0
M  V30 16504 H 1572.83 -4.75436 0.953357 0
M  V30 16505 N 1574.18 -0.163538 -1.56749 0
M  V30 16506 C 1575.12 0.786745 -2.18891 0
M  V30 16507 C 1576.12 1.24323 -1.15066 0
M  V30 16508 O 1577.32 1.20979 -1.33282 0
M  V30 16509 H 1573.7 0.271967 -0.701098 0
M  V30 16510 H 1575.67 0.2386 -2.97445 0
M  V30 16511 C 1574.42 2.00905 -2.83782 0
M  V30 16512 H 1573.74 1.66681 -3.63397 0
M  V30 16513 H 1575.18 2.65302 -3.30743 0
M  V30 16514 C 1573.64 2.8277 -1.83148 0
M  V30 16515 O 1574.17 3.79666 -1.31213 0
M  V30 16516 N 1572.38 2.47629 -1.52079 0
M  V30 16517 H 1571.92 1.68896 -1.94504 0
M  V30 16518 H 1571.88 3.02693 -0.849963 0
M  V30 16519 N 1575.65 1.57214 0.110213 0
M  V30 16520 C 1576.59 1.97641 1.16064 0
M  V30 16521 C 1577.6 0.876886 1.37166 0
M  V30 16522 O 1578.79 1.15512 1.36086 0
M  V30 16523 C 1575.89 2.2671 2.51904 0
M  V30 16524 C 1575.06 3.58015 2.51285 0
M  V30 16525 C 1574.12 3.75195 3.68938 0
M  V30 16526 O 1573.15 4.47214 3.5212 0
M  V30 16527 N 1574.35 3.14627 4.87842 0
M  V30 16528 H 1577.11 2.88358 0.816679 0
M  V30 16529 H 1574.67 1.59108 0.299383 0
M  V30 16530 H 1576.67 2.35411 3.29187 0
M  V30 16531 H 1575.24 1.42076 2.78448 0
M  V30 16532 H 1574.46 3.60422 1.59655 0
M  V30 16533 H 1575.74 4.44303 2.47936 0
M  V30 16534 H 1575.14 2.56101 5.0441 0
M  V30 16535 H 1573.7 3.28836 5.6277 0
M  V30 16536 N 1577.13 -0.380637 1.52934 0
M  V30 16537 C 1578.36 -1.15033 1.72575 0
M  V30 16538 C 1578.78 -1.82715 0.446869 0
M  V30 16539 O 1578.14 -1.71154 -0.598004 0
M  V30 16540 C 1578.19 -2.16773 2.8817 0
M  V30 16541 O 1577.29 -3.23539 2.55727 0
M  V30 16542 H 1576.63 -0.334489 0.573597 0
M  V30 16543 H 1579.16 -0.442369 1.9976 0
M  V30 16544 H 1579.17 -2.60629 3.13905 0
M  V30 16545 H 1577.85 -1.669 3.80943 0
M  V30 16546 H 1576.43 -2.84761 2.4076 0
M  V30 16547 N 1578.61 -1.44039 -0.639573 0
M  V30 16548 C 1579.56 -1.50541 -1.77314 0
M  V30 16549 C 1580.55 -0.37781 -1.65133 0
M  V30 16550 O 1581.76 -0.552396 -1.71314 0
M  V30 16551 H 1578.13 -0.472221 -0.585245 0
M  V30 16552 H 1580.1 -2.45964 -1.68951 0
M  V30 16553 C 1578.85 -1.45868 -3.15623 0
M  V30 16554 H 1578.18 -2.31946 -3.25639 0
M  V30 16555 H 1579.62 -1.54479 -3.94857 0
M  V30 16556 C 1578.08 -0.178204 -3.36428 0
M  V30 16557 O 1578.61 0.755017 -3.94541 0
M  V30 16558 N 1576.81 -0.0840295 -2.90478 0
M  V30 16559 H 1576.36 -0.844281 -2.43371 0
M  V30 16560 H 1576.32 0.771988 -3.04775 0
M  V30 16561 N 1580.09 0.879207 -1.30796 0
M  V30 16562 C 1581.33 1.63392 -1.20129 0
M  V30 16563 C 1581.67 1.92684 0.242164 0
M  V30 16564 O 1580.94 1.55188 1.17247 0
M  V30 16565 C 1581.23 2.97005 -2.03618 0
M  V30 16566 C 1581.08 2.74649 -3.56214 0
M  V30 16567 C 1582.4 3.97998 -1.87845 0
M  V30 16568 H 1579.52 0.592911 -0.437751 0
M  V30 16569 H 1582.16 1.017 -1.6049 0
M  V30 16570 H 1580.31 3.49659 -1.69326 0
M  V30 16571 H 1581.98 2.28738 -4.00595 0
M  V30 16572 H 1580.22 2.09048 -3.80107 0
M  V30 16573 H 1580.89 3.69681 -4.09927 0
M  V30 16574 H 1583.37 3.54523 -2.17836 0
M  V30 16575 H 1582.25 4.89388 -2.48578 0
M  V30 16576 H 1582.51 4.34062 -0.839183 0
M  V30 16577 N 1581.57 1.13606 1.09231 0
M  V30 16578 C 1582.98 0.87469 1.33497 0
M  V30 16579 C 1583.18 -0.488687 1.95484 0
M  V30 16580 O 1582.24 -1.23478 2.20249 0
M  V30 16581 C 1583.55 2.00086 2.24468 0
M  V30 16582 C 1585.1 2.03319 2.37972 0
M  V30 16583 C 1585.58 3.15205 3.3228 0
M  V30 16584 N 1587.07 3.14728 3.39854 0
M  V30 16585 C 1587.8 3.97941 4.12833 0
M  V30 16586 N 1587.3 4.91172 4.88591 0
M  V30 16587 N 1589.09 3.86032 4.08578 0
M  V30 16588 H 1581.24 2.01432 0.673709 0
M  V30 16589 H 1583.5 0.877259 0.359334 0
M  V30 16590 H 1583.21 2.98397 1.86151 0
M  V30 16591 H 1583.08 1.91673 3.24871 0
M  V30 16592 H 1585.47 1.0562 2.75551 0
M  V30 16593 H 1585.55 2.15804 1.3734 0
M  V30 16594 H 1585.2 4.13143 2.95423 0
M  V30 16595 H 1585.13 2.99957 4.3282 0
M  V30 16596 H 1587.62 2.47196 2.85837 0
M  V30 16597 H 1587.93 5.5115 5.41714 0
M  V30 16598 H 1586.28 4.95177 4.87673 0
M  V30 16599 H 1589.47 3.12522 3.48494 0
M  V30 16600 H 1589.64 4.51111 4.65191 0
M  V30 16601 N 1583.05 -1.27244 0.929878 0
M  V30 16602 C 1584.46 -1.4662 0.630451 0
M  V30 16603 C 1584.66 -1.84077 -0.819633 0
M  V30 16604 O 1583.72 -1.95555 -1.59733 0
M  V30 16605 C 1585.03 -2.55709 1.58219 0
M  V30 16606 C 1586.58 -2.69569 1.59065 0
M  V30 16607 C 1587.05 -3.81818 2.52941 0
M  V30 16608 N 1588.54 -3.89195 2.51161 0
M  V30 16609 C 1589.28 -4.75474 3.20488 0
M  V30 16610 N 1588.78 -5.66225 3.99201 0
M  V30 16611 N 1590.57 -4.69222 3.09495 0
M  V30 16612 H 1582.72 -1.01216 1.86733 0
M  V30 16613 H 1584.98 -0.505737 0.801832 0
M  V30 16614 H 1584.69 -2.34985 2.61677 0
M  V30 16615 H 1584.56 -3.53141 1.32556 0
M  V30 16616 H 1586.95 -2.89672 0.563375 0
M  V30 16617 H 1587.03 -1.72616 1.88778 0
M  V30 16618 H 1586.67 -3.62467 3.55781 0
M  V30 16619 H 1586.6 -4.78202 2.20524 0
M  V30 16620 H 1589.1 -3.24305 1.93997 0
M  V30 16621 H 1589.41 -6.28925 4.4908 0
M  V30 16622 H 1587.75 -5.66013 4.03304 0
M  V30 16623 H 1590.94 -3.97322 2.47493 0
M  V30 16624 H 1591.12 -5.36244 3.63794 0
M  V30 16625 N 1584.52 -0.695628 -1.41417 0
M  V30 16626 C 1585.46 0.0202064 -2.28191 0
M  V30 16627 C 1586.43 0.787887 -1.42236 0
M  V30 16628 O 1587.62 0.778692 -1.71664 0
M  V30 16629 C 1584.75 1.03599 -3.22467 0
M  V30 16630 C 1583.79 0.361472 -4.24965 0
M  V30 16631 S 1584.62 -0.896181 -5.27948 0
M  V30 16632 C 1585.78 0.118005 -6.25789 0
M  V30 16633 H 1586.01 -0.715769 -2.88555 0
M  V30 16634 H 1583.55 -0.485904 -1.46555 0
M  V30 16635 H 1585.5 1.6169 -3.77315 0
M  V30 16636 H 1584.17 1.74454 -2.61198 0
M  V30 16637 H 1583.36 1.12866 -4.912 0
M  V30 16638 H 1582.96 -0.146366 -3.73713 0
M  V30 16639 H 1585.25 0.971258 -6.70502 0
M  V30 16640 H 1586.2 -0.510417 -7.06258 0
M  V30 16641 H 1586.6 0.472806 -5.62516 0
M  V30 16642 N 1586 1.51322 -0.440383 0
M  V30 16643 C 1586.95 2.24682 0.38753 0
M  V30 16644 C 1587.94 1.27031 0.98752 0
M  V30 16645 O 1589.13 1.52105 0.905156 0
M  V30 16646 C 1586.26 3.09451 1.48643 0
M  V30 16647 C 1585.34 4.14534 0.895682 0
M  V30 16648 N 1585.73 5.05788 0.0343863 0
M  V30 16649 C 1584.03 4.30571 1.16294 0
M  V30 16650 C 1584.73 5.80938 -0.297709 0
M  V30 16651 N 1583.71 5.42661 0.319444 0
M  V30 16652 H 1587.51 2.92597 -0.276449 0
M  V30 16653 H 1585.02 1.60423 -0.252641 0
M  V30 16654 H 1587.02 3.60587 2.09244 0
M  V30 16655 H 1585.68 2.43081 2.15271 0
M  V30 16656 H 1586.69 5.16833 -0.332271 0
M  V30 16657 H 1583.37 3.75427 1.82649 0
M  V30 16658 H 1584.76 6.64435 -0.99877 0
M  V30 16659 N 1587.48 0.171848 1.5666 0
M  V30 16660 C 1588.71 -0.479221 2.01274 0
M  V30 16661 C 1589.12 -1.56771 1.05206 0
M  V30 16662 O 1588.48 -1.82423 0.0530164 0
M  V30 16663 C 1588.53 -1.05705 3.457 0
M  V30 16664 O 1588.25 -0.0120133 4.38098 0
M  V30 16665 C 1589.75 -1.78629 4.05717 0
M  V30 16666 H 1586.97 -0.122598 0.659705 0
M  V30 16667 H 1589.52 0.273733 2.0266 0
M  V30 16668 H 1587.67 -1.7605 3.45087 0
M  V30 16669 H 1588.09 -0.438714 5.22662 0
M  V30 16670 H 1589.56 -2.14319 5.08696 0
M  V30 16671 H 1590.04 -2.68149 3.4784 0
M  V30 16672 H 1590.64 -1.12925 4.10034 0
M  V30 16673 N 1588.96 -1.5727 -0.101874 0
M  V30 16674 C 1589.92 -2.00625 -1.10826 0
M  V30 16675 C 1590.92 -0.89878 -1.33336 0
M  V30 16676 O 1592.11 -1.16442 -1.29564 0
M  V30 16677 C 1589.24 -2.36113 -2.45893 0
M  V30 16678 H 1590.44 -2.90748 -0.735238 0
M  V30 16679 H 1587.99 -1.52406 -0.346713 0
M  V30 16680 H 1588.72 -1.48923 -2.88084 0
M  V30 16681 H 1588.51 -3.169 -2.30904 0
M  V30 16682 H 1590 -2.70336 -3.1829 0
M  V30 16683 N 1590.44 0.372521 -1.53134 0
M  V30 16684 C 1591.68 1.11754 -1.6923 0
M  V30 16685 C 1592.01 1.89167 -0.439265 0
M  V30 16686 O 1591.29 1.86164 0.563317 0
M  V30 16687 C 1591.57 2.08242 -2.93781 0
M  V30 16688 C 1591.43 1.34484 -4.29225 0
M  V30 16689 C 1592.74 3.08457 -3.13914 0
M  V30 16690 H 1589.86 0.404898 -0.615814 0
M  V30 16691 H 1592.51 0.399101 -1.85761 0
M  V30 16692 H 1590.66 2.69507 -2.79818 0
M  V30 16693 H 1592.33 0.76056 -4.54987 0
M  V30 16694 H 1590.57 0.646673 -4.28953 0
M  V30 16695 H 1591.24 2.05071 -5.12494 0
M  V30 16696 H 1593.72 2.57292 -3.27017 0
M  V30 16697 H 1592.59 3.73198 -4.0251 0
M  V30 16698 H 1592.85 3.78243 -2.28878 0
M  V30 16699 N 1591.91 1.44376 0.631925 0
M  V30 16700 C 1593.33 1.28245 0.950014 0
M  V30 16701 C 1593.53 0.217644 2.00321 0
M  V30 16702 O 1592.59 -0.396736 2.49364 0
M  V30 16703 C 1593.9 2.65378 1.41404 0
M  V30 16704 C 1595.45 2.73081 1.52956 0
M  V30 16705 C 1595.92 4.10682 2.02742 0
M  V30 16706 N 1597.41 4.12854 2.10014 0
M  V30 16707 C 1598.15 5.16173 2.49705 0
M  V30 16708 N 1597.64 6.29855 2.88539 0
M  V30 16709 N 1599.44 5.03528 2.49832 0
M  V30 16710 H 1591.59 2.12302 -0.0646167 0
M  V30 16711 H 1593.85 0.9474 0.0337162 0
M  V30 16712 H 1593.56 3.44366 0.714476 0
M  V30 16713 H 1593.43 2.92213 2.3852 0
M  V30 16714 H 1595.82 1.94412 2.22009 0
M  V30 16715 H 1595.9 2.49988 0.542176 0
M  V30 16716 H 1595.54 4.89827 1.34285 0
M  V30 16717 H 1595.47 4.31152 3.02351 0
M  V30 16718 H 1597.96 3.30806 1.8269 0
M  V30 16719 H 1598.28 7.04505 3.17637 0
M  V30 16720 H 1596.62 6.33294 2.86293 0
M  V30 16721 H 1599.81 4.13773 2.18883 0
M  V30 16722 H 1599.99 5.84172 2.80441 0
M  V30 16723 N 1593.39 -0.872258 1.31261 0
M  V30 16724 C 1594.32 -1.99517 1.21306 0
M  V30 16725 C 1595.3 -1.69801 0.100775 0
M  V30 16726 O 1596.49 -1.92098 0.284984 0
M  V30 16727 C 1593.62 -3.34968 0.917249 0
M  V30 16728 C 1592.57 -3.78984 1.98885 0
M  V30 16729 C 1591.9 -5.11869 1.54578 0
M  V30 16730 C 1593.2 -3.96338 3.40167 0
M  V30 16731 H 1594.89 -2.08104 2.15251 0
M  V30 16732 H 1592.44 -0.999865 1.03628 0
M  V30 16733 H 1594.39 -4.1306 0.834217 0
M  V30 16734 H 1593.11 -3.26549 -0.0578721 0
M  V30 16735 H 1591.77 -3.0313 2.06174 0
M  V30 16736 H 1591.42 -4.99889 0.558581 0
M  V30 16737 H 1591.12 -5.4229 2.26265 0
M  V30 16738 H 1592.65 -5.92472 1.47678 0
M  V30 16739 H 1594.06 -4.64831 3.35566 0
M  V30 16740 H 1592.46 -4.38153 4.10051 0
M  V30 16741 H 1593.53 -2.9979 3.81122 0
M  V30 16742 N 1594.87 -1.14184 -1.08627 0
M  V30 16743 C 1595.82 -0.822297 -2.1758 0
M  V30 16744 C 1596.81 0.198863 -1.68229 0
M  V30 16745 O 1598.02 0.0551869 -1.79915 0
M  V30 16746 H 1594.39 -0.248183 -0.709866 0
M  V30 16747 H 1596.36 -1.74916 -2.41758 0
M  V30 16748 C 1595.11 -0.313671 -3.46282 0
M  V30 16749 H 1594.44 -1.09078 -3.84632 0
M  V30 16750 H 1595.88 -0.128604 -4.23805 0
M  V30 16751 C 1594.33 0.962289 -3.22865 0
M  V30 16752 O 1594.86 2.03649 -3.46251 0
M  V30 16753 N 1593.07 0.896635 -2.76421 0
M  V30 16754 H 1592.62 0.0223186 -2.5759 0
M  V30 16755 H 1592.58 1.75093 -2.61132 0
M  V30 16756 N 1596.35 1.26749 -0.936613 0
M  V30 16757 C 1597.26 2.30272 -0.448573 0
M  V30 16758 C 1598.27 1.67386 0.475184 0
M  V30 16759 O 1599.45 1.98232 0.355825 0
M  V30 16760 C 1596.52 3.45546 0.28262 0
M  V30 16761 C 1595.58 4.23926 -0.677138 0
M  V30 16762 C 1594.81 5.33697 0.019255 0
M  V30 16763 O 1595.03 5.56825 1.23703 0
M  V30 16764 O 1593.97 5.98302 -0.657119 0
M  V30 16765 H 1597.79 2.74072 -1.30838 0
M  V30 16766 H 1595.38 1.31863 -0.702314 0
M  V30 16767 H 1597.26 4.15635 0.694686 0
M  V30 16768 H 1595.93 3.03784 1.11789 0
M  V30 16769 H 1594.84 3.56337 -1.13906 0
M  V30 16770 H 1596.17 4.69425 -1.47988 0
M  V30 16771 N 1597.83 0.703118 1.41046 0
M  V30 16772 C 1599.07 0.237638 2.01403 0
M  V30 16773 C 1599.41 -1.16217 1.55587 0
M  V30 16774 O 1598.68 -1.78593 0.770377 0
M  V30 16775 C 1598.96 0.303738 3.58817 0
M  V30 16776 C 1598.82 1.74103 4.14739 0
M  V30 16777 C 1600.14 -0.332186 4.38845 0
M  V30 16778 H 1597.25 0.0878243 0.731749 0
M  V30 16779 H 1599.9 0.893264 1.67693 0
M  V30 16780 H 1598.05 -0.254485 3.87666 0
M  V30 16781 H 1599.72 2.35368 3.96736 0
M  V30 16782 H 1597.96 2.27277 3.69496 0
M  V30 16783 H 1598.63 1.73876 5.239 0
M  V30 16784 H 1601.11 0.143312 4.15853 0
M  V30 16785 H 1599.98 -0.255429 5.48305 0
M  V30 16786 H 1600.25 -1.41397 4.18878 0
M  V30 16787 N 1599.3 -1.51086 0.448402 0
M  V30 16788 C 1600.55 -2.01367 -0.115904 0
M  V30 16789 C 1600.87 -1.33658 -1.42811 0
M  V30 16790 O 1602.07 -1.74968 -2.07602 0
M  V30 16791 C 1600.53 -3.58981 -0.257092 0
M  V30 16792 C 1600.14 -4.35634 1.04534 0
M  V30 16793 C 1601.88 -4.17373 -0.774573 0
M  V30 16794 C 1599.79 -5.84978 0.869184 0
M  V30 16795 H 1598.72 -0.752528 -0.0470907 0
M  V30 16796 H 1601.37 -1.74098 0.57985 0
M  V30 16797 H 1599.75 -3.82742 -1.01611 0
M  V30 16798 H 1600.92 -4.23612 1.81354 0
M  V30 16799 H 1599.24 -3.88745 1.49219 0
M  V30 16800 H 1601.84 -5.26673 -0.923032 0
M  V30 16801 H 1602.18 -3.77267 -1.75997 0
M  V30 16802 H 1602.71 -3.97732 -0.0735697 0
M  V30 16803 H 1599.45 -6.29516 1.82729 0
M  V30 16804 H 1598.97 -5.99634 0.140969 0
M  V30 16805 H 1600.65 -6.44852 0.526752 0
M  V30 16806 N 1600.78 -0.180154 -1.56567 0
M  V30 16807 C 1602.03 0.463205 -1.97439 0
M  V30 16808 C 1602.36 1.62296 -1.06647 0
M  V30 16809 O 1601.64 1.94157 -0.115382 0
M  V30 16810 C 1601.92 0.937709 -3.47677 0
M  V30 16811 C 1601.77 -0.222835 -4.49248 0
M  V30 16812 C 1603.09 1.80836 -4.01231 0
M  V30 16813 H 1600.21 0.166899 -0.717854 0
M  V30 16814 H 1602.85 -0.268069 -1.88099 0
M  V30 16815 H 1601 1.56084 -3.55767 0
M  V30 16816 H 1602.67 -0.860155 -4.5321 0
M  V30 16817 H 1600.92 -0.876962 -4.24843 0
M  V30 16818 H 1601.59 0.151444 -5.51792 0
M  V30 16819 H 1604.06 1.28297 -3.95827 0
M  V30 16820 H 1602.94 2.10937 -5.06751 0
M  V30 16821 H 1603.2 2.75728 -3.45581 0
M  V30 16822 N 1602.26 1.57322 0.0935319 0
M  V30 16823 C 1603.21 2.02171 1.11336 0
M  V30 16824 C 1604.18 0.898305 1.39713 0
M  V30 16825 O 1605.36 1.16441 1.51149 0
M  V30 16826 C 1602.5 2.45243 2.42796 0
M  V30 16827 C 1601.62 3.7111 2.21136 0
M  V30 16828 C 1600.75 4.03056 3.46005 0
M  V30 16829 C 1599.79 5.22028 3.19615 0
M  V30 16830 N 1598.93 5.49718 4.36755 0
M  V30 16831 H 1603.77 2.89073 0.723924 0
M  V30 16832 H 1601.3 1.42975 0.345919 0
M  V30 16833 H 1603.26 2.68261 3.19518 0
M  V30 16834 H 1601.89 1.61348 2.79583 0
M  V30 16835 H 1600.94 3.5556 1.35209 0
M  V30 16836 H 1602.26 4.57979 1.97628 0
M  V30 16837 H 1601.41 4.26858 4.31135 0
M  V30 16838 H 1600.15 3.14712 3.72569 0
M  V30 16839 H 1599.15 4.98044 2.32879 0
M  V30 16840 H 1600.38 6.11971 2.94396 0
M  V30 16841 H 1598.32 4.64333 4.63391 0
M  V30 16842 H 1598.24 6.30961 4.16443 0
M  V30 16843 H 1599.51 5.78057 5.22944 0
M  V30 16844 N 1603.74 -0.364395 1.53329 0
M  V30 16845 C 1604.69 -1.44645 1.79851 0
M  V30 16846 C 1605.66 -1.53151 0.642951 0
M  V30 16847 O 1606.84 -1.6902 0.885252 0
M  V30 16848 C 1603.98 -2.81575 1.99523 0
M  V30 16849 C 1603.09 -2.82026 3.27239 0
M  V30 16850 C 1602.23 -4.1054 3.37091 0
M  V30 16851 C 1601.27 -4.05138 4.58835 0
M  V30 16852 N 1600.4 -5.25303 4.65834 0
M  V30 16853 H 1605.24 -1.21329 2.72182 0
M  V30 16854 H 1602.78 -0.588143 1.34831 0
M  V30 16855 H 1604.74 -3.61124 2.08915 0
M  V30 16856 H 1603.37 -3.03288 1.10527 0
M  V30 16857 H 1602.42 -1.94704 3.26794 0
M  V30 16858 H 1603.73 -2.73907 4.16865 0
M  V30 16859 H 1602.89 -4.98504 3.45801 0
M  V30 16860 H 1601.63 -4.21413 2.45483 0
M  V30 16861 H 1600.63 -3.1556 4.50224 0
M  V30 16862 H 1601.86 -3.95866 5.51785 0
M  V30 16863 H 1599.8 -5.36759 3.77128 0
M  V30 16864 H 1599.72 -5.19358 5.49367 0
M  V30 16865 H 1600.99 -6.15096 4.78829 0
M  V30 16866 N 1605.22 -1.44709 -0.62426 0
M  V30 16867 C 1606.44 -1.51573 -1.41564 0
M  V30 16868 C 1606.87 -0.143806 -1.87549 0
M  V30 16869 O 1606.22 0.868361 -1.59151 0
M  V30 16870 C 1606.27 -2.49085 -2.60747 0
M  V30 16871 O 1605.38 -1.99712 -3.60817 0
M  V30 16872 H 1604.72 -0.51157 -0.423311 0
M  V30 16873 H 1607.25 -1.89908 -0.761316 0
M  V30 16874 H 1607.26 -2.67346 -3.08205 0
M  V30 16875 H 1605.93 -3.48733 -2.26624 0
M  V30 16876 H 1604.51 -1.9125 -3.20122 0
M  V30 16877 N 1606.69 0.865285 -1.31722 0
M  V30 16878 C 1608.11 1.15179 -1.10481 0
M  V30 16879 C 1608.31 2.01132 0.121667 0
M  V30 16880 O 1607.37 2.39167 0.809645 0
M  V30 16881 C 1608.68 1.8394 -2.3788 0
M  V30 16882 C 1610.23 1.96621 -2.43535 0
M  V30 16883 C 1610.7 2.68796 -3.70827 0
M  V30 16884 N 1612.19 2.76329 -3.71748 0
M  V30 16885 C 1612.93 3.32798 -4.6694 0
M  V30 16886 N 1612.42 3.90162 -5.7249 0
M  V30 16887 N 1614.22 3.30801 -4.54453 0
M  V30 16888 H 1606.37 0.292632 -2.10374 0
M  V30 16889 H 1608.63 0.192252 -0.928301 0
M  V30 16890 H 1608.34 1.28233 -3.27489 0
M  V30 16891 H 1608.21 2.84182 -2.48034 0
M  V30 16892 H 1610.6 2.5149 -1.54392 0
M  V30 16893 H 1610.68 0.954071 -2.37342 0
M  V30 16894 H 1610.32 2.14593 -4.60339 0
M  V30 16895 H 1610.25 3.70427 -3.74288 0
M  V30 16896 H 1612.74 2.35621 -2.95451 0
M  V30 16897 H 1613.06 4.31376 -6.41198 0
M  V30 16898 H 1611.4 3.88525 -5.76258 0
M  V30 16899 H 1614.59 2.85227 -3.71165 0
M  V30 16900 H 1614.77 3.74511 -5.28815 0
M  V30 16901 N 1608.17 1.14759 1.0802 0
M  V30 16902 C 1609.45 0.828957 1.77166 0
M  V30 16903 C 1609.83 -0.676783 1.99957 0
M  V30 16904 O 1609.18 -1.61891 1.61256 0
M  V30 16905 C 1609.39 1.63213 3.08484 0
M  V30 16906 C 1610.74 1.834 3.82948 0
M  V30 16907 O 1611.76 1.59932 3.18277 0
M  V30 16908 O 1610.62 2.22661 4.99083 0
M  V30 16909 H 1607.71 0.304168 0.769032 0
M  V30 16910 H 1610.26 1.253 1.14446 0
M  V30 16911 H 1609.03 2.65474 2.8747 0
M  V30 16912 H 1608.65 1.20397 3.78933 0
M  V30 16913 N 1609.65 -1.26251 0.943322 0
M  V30 16914 C 1610.61 -2.24554 0.459158 0
M  V30 16915 C 1611.61 -1.54918 -0.430926 0
M  V30 16916 O 1612.8 -1.72678 -0.229803 0
M  V30 16917 C 1609.94 -3.39221 -0.337973 0
M  V30 16918 H 1611.13 -2.689 1.32789 0
M  V30 16919 H 1608.68 -1.38442 0.725495 0
M  V30 16920 H 1609.42 -3.00279 -1.22486 0
M  V30 16921 H 1609.2 -3.90947 0.300428 0
M  V30 16922 H 1610.69 -4.12246 -0.666568 0
M  V30 16923 N 1611.13 -0.710588 -1.40671 0
M  V30 16924 C 1612.08 -0.0548139 -2.30735 0
M  V30 16925 C 1613.05 0.755572 -1.4792 0
M  V30 16926 O 1614.23 0.720541 -1.76672 0
M  V30 16927 C 1611.37 0.864648 -3.34093 0
M  V30 16928 C 1610.48 0.0442717 -4.31977 0
M  V30 16929 C 1609.62 0.962752 -5.22403 0
M  V30 16930 C 1608.66 0.13617 -6.11949 0
M  V30 16931 N 1607.8 1.00926 -6.94808 0
M  V30 16932 H 1612.64 -0.828555 -2.8625 0
M  V30 16933 H 1610.17 -0.420286 -1.40968 0
M  V30 16934 H 1612.13 1.41193 -3.92582 0
M  V30 16935 H 1610.76 1.60462 -2.80092 0
M  V30 16936 H 1609.81 -0.620132 -3.75311 0
M  V30 16937 H 1611.12 -0.595895 -4.95228 0
M  V30 16938 H 1610.28 1.57874 -5.85799 0
M  V30 16939 H 1609.02 1.63675 -4.59415 0
M  V30 16940 H 1608.02 -0.492793 -5.47587 0
M  V30 16941 H 1609.25 -0.534251 -6.76995 0
M  V30 16942 H 1607.19 1.669 -6.34413 0
M  V30 16943 H 1607.11 0.425013 -7.54804 0
M  V30 16944 H 1608.38 1.61159 -7.62659 0
M  V30 16945 N 1612.61 1.50847 -0.456408 0
M  V30 16946 C 1613.54 2.31077 0.335523 0
M  V30 16947 C 1614.52 1.37326 1.00377 0
M  V30 16948 O 1615.7 1.66247 1.00376 0
M  V30 16949 C 1612.83 3.16662 1.42627 0
M  V30 16950 C 1611.79 4.18846 0.88045 0
M  V30 16951 C 1611.11 4.93074 2.06838 0
M  V30 16952 C 1612.41 5.22208 -0.0982288 0
M  V30 16953 H 1614.11 2.97531 -0.334056 0
M  V30 16954 H 1611.65 1.43085 -0.162099 0
M  V30 16955 H 1613.61 3.71578 1.98765 0
M  V30 16956 H 1612.33 2.48066 2.12441 0
M  V30 16957 H 1610.99 3.65009 0.341147 0
M  V30 16958 H 1610.64 4.20963 2.75316 0
M  V30 16959 H 1610.34 5.62184 1.70947 0
M  V30 16960 H 1611.86 5.5082 2.63494 0
M  V30 16961 H 1613.28 5.72082 0.373481 0
M  V30 16962 H 1611.67 5.98954 -0.370674 0
M  V30 16963 H 1612.74 4.73859 -1.02887 0
M  V30 16964 N 1614.09 0.188454 1.56469 0
M  V30 16965 C 1615.33 -0.452728 1.97682 0
M  V30 16966 C 1615.66 -1.61729 1.07506 0
M  V30 16967 O 1614.94 -1.94094 0.125677 0
M  V30 16968 C 1615.22 -0.919257 3.48169 0
M  V30 16969 C 1615.08 0.246656 4.49123 0
M  V30 16970 C 1616.39 -1.78706 4.02184 0
M  V30 16971 H 1613.51 -0.16309 0.718729 0
M  V30 16972 H 1616.16 0.27804 1.87955 0
M  V30 16973 H 1614.31 -1.54195 3.5659 0
M  V30 16974 H 1615.98 0.884178 4.52747 0
M  V30 16975 H 1614.22 0.89948 4.24372 0
M  V30 16976 H 1614.89 -0.122179 5.51865 0
M  V30 16977 H 1617.37 -1.26196 3.96502 0
M  V30 16978 H 1616.24 -2.08247 5.07863 0
M  V30 16979 H 1616.5 -2.73891 3.47039 0
M  V30 16980 N 1615.56 -1.5737 -0.0851874 0
M  V30 16981 C 1616.49 -2.05796 -1.10319 0
M  V30 16982 C 1617.47 -0.948796 -1.4118 0
M  V30 16983 O 1618.66 -1.22069 -1.51039 0
M  V30 16984 C 1615.79 -2.49069 -2.42037 0
M  V30 16985 C 1614.74 -3.6374 -2.25561 0
M  V30 16986 C 1614.07 -3.93023 -3.62543 0
M  V30 16987 C 1615.37 -4.94274 -1.68793 0
M  V30 16988 H 1617.06 -2.91095 -0.700274 0
M  V30 16989 H 1614.61 -1.40039 -0.335405 0
M  V30 16990 H 1616.56 -2.81558 -3.13534 0
M  V30 16991 H 1615.29 -1.60781 -2.84283 0
M  V30 16992 H 1613.95 -3.31513 -1.56507 0
M  V30 16993 H 1613.59 -3.01887 -4.02335 0
M  V30 16994 H 1613.29 -4.70229 -3.52362 0
M  V30 16995 H 1614.82 -4.27995 -4.35491 0
M  V30 16996 H 1616.23 -5.25079 -2.30141 0
M  V30 16997 H 1614.63 -5.75711 -1.69344 0
M  V30 16998 H 1615.7 -4.80548 -0.648204 0
M  V30 16999 N 1617.04 0.356258 -1.53521 0
M  V30 17000 C 1617.97 1.44271 -1.83598 0
M  V30 17001 C 1618.95 1.5547 -0.690141 0
M  V30 17002 O 1620.14 1.69886 -0.940868 0
M  V30 17003 C 1617.27 2.8149 -2.03422 0
M  V30 17004 C 1616.22 2.85108 -3.19213 0
M  V30 17005 C 1615.55 4.25091 -3.24348 0
M  V30 17006 C 1616.85 2.51788 -4.57602 0
M  V30 17007 H 1618.54 1.1935 -2.74583 0
M  V30 17008 H 1616.09 0.572707 -1.32121 0
M  V30 17009 H 1618.04 3.57531 -2.23046 0
M  V30 17010 H 1616.76 3.07819 -1.09155 0
M  V30 17011 H 1615.42 2.1152 -2.99424 0
M  V30 17012 H 1615.07 4.4851 -2.277 0
M  V30 17013 H 1614.77 4.28426 -4.0215 0
M  V30 17014 H 1616.3 5.02992 -3.46167 0
M  V30 17015 H 1617.71 3.17542 -4.77326 0
M  V30 17016 H 1616.11 2.66426 -5.37715 0
M  V30 17017 H 1617.18 1.4701 -4.62078 0
M  V30 17018 N 1618.52 1.45038 0.616577 0
M  V30 17019 C 1619.47 1.53343 1.74896 0
M  V30 17020 C 1620.46 0.404033 1.64511 0
M  V30 17021 O 1621.67 0.57958 1.70414 0
M  V30 17022 H 1618.04 0.481471 0.577658 0
M  V30 17023 H 1620.01 2.4862 1.65017 0
M  V30 17024 C 1618.76 1.50871 3.13262 0
M  V30 17025 H 1618.09 2.37098 3.21908 0
M  V30 17026 H 1619.53 1.60741 3.9235 0
M  V30 17027 C 1617.98 0.231704 3.36102 0
M  V30 17028 O 1618.51 -0.692154 3.95692 0
M  V30 17029 N 1616.72 0.130232 2.90308 0
M  V30 17030 H 1616.27 0.882893 2.41997 0
M  V30 17031 H 1616.23 -0.723403 3.05964 0
M  V30 17032 N 1620 -0.858287 1.32179 0
M  V30 17033 C 1620.93 -1.97021 1.15143 0
M  V30 17034 C 1621.91 -1.62517 0.0518379 0
M  V30 17035 O 1623.09 -1.87321 0.210465 0
M  V30 17036 C 1620.22 -3.3002 0.761887 0
M  V30 17037 C 1619.27 -3.83504 1.8662 0
M  V30 17038 S 1620.1 -4.07535 3.47383 0
M  V30 17039 C 1621.25 -5.43514 3.10392 0
M  V30 17040 H 1621.49 -2.11169 2.09272 0
M  V30 17041 H 1619.02 -1.00983 1.16798 0
M  V30 17042 H 1620.98 -4.06881 0.543893 0
M  V30 17043 H 1619.64 -3.1369 -0.160479 0
M  V30 17044 H 1618.83 -4.79685 1.54655 0
M  V30 17045 H 1618.43 -3.13474 2.03986 0
M  V30 17046 H 1620.73 -6.2562 2.60011 0
M  V30 17047 H 1621.67 -5.80439 4.05581 0
M  V30 17048 H 1622.08 -5.07344 2.47511 0
M  V30 17049 N 1621.48 -1.1533 -1.07409 0
M  V30 17050 C 1622.89 -0.937287 -1.61468 0
M  V30 17051 C 1623.24 0.521545 -1.89141 0
M  V30 17052 O 1622.36 1.39253 -1.65643 0
M  V30 17053 C 1622.96 -1.69501 -2.93351 0
M  V30 17054 C 1621.52 -1.52429 -3.44154 0
M  V30 17055 C 1620.66 -1.71098 -2.18222 0
M  V30 17056 H 1623.61 -1.30364 -0.905044 0
M  V30 17057 H 1623.64 -1.16416 -3.62253 0
M  V30 17058 H 1623.15 -2.75672 -2.73178 0
M  V30 17059 H 1621.25 -0.486498 -3.6941 0
M  V30 17060 H 1621.36 -2.30089 -4.20233 0
M  V30 17061 H 1619.73 -1.13745 -2.27891 0
M  V30 17062 H 1620.51 -2.78634 -2.00545 0
M  V30 17063 N 1622.95 1.25748 -0.950004 0
M  V30 17064 C 1624.2 1.92954 -0.601104 0
M  V30 17065 C 1624.52 1.74817 0.863953 0
M  V30 17066 O 1623.79 1.10904 1.61484 0
M  V30 17067 H 1622.37 0.714077 -0.219325 0
M  V30 17068 H 1625.03 1.53009 -1.20724 0
M  V30 17069 H 1624.13 3.00959 -0.826447 0
M  V30 17070 N 1624.43 0.718038 1.40292 0
M  V30 17071 C 1625.84 0.330675 1.83748 0
M  V30 17072 C 1626.19 -1.13511 1.6003 0
M  V30 17073 O 1625.32 -1.87381 1.08247 0
M  V30 17074 C 1625.91 0.593398 3.33563 0
M  V30 17075 C 1624.47 0.259717 3.75503 0
M  V30 17076 C 1623.62 0.864537 2.63479 0
M  V30 17077 H 1626.57 0.917 1.29525 0
M  V30 17078 H 1626.59 -0.140544 3.8024 0
M  V30 17079 H 1626.1 1.66028 3.50794 0
M  V30 17080 H 1624.2 -0.802011 3.63866 0
M  V30 17081 H 1624.32 0.730427 4.73499 0
M  V30 17082 H 1622.68 0.292399 2.53016 0
M  V30 17083 H 1623.46 1.93574 2.83521 0
M  V30 17084 N 1625.91 -1.50602 0.464402 0
M  V30 17085 C 1627.32 -1.86698 0.00767586 0
M  V30 17086 C 1627.67 -1.37971 -1.39494 0
M  V30 17087 O 1626.8 -0.741843 -2.03287 0
M  V30 17088 C 1627.39 -3.38799 0.00715323 0
M  V30 17089 C 1625.95 -3.74331 -0.394077 0
M  V30 17090 C 1625.1 -2.74465 0.395495 0
M  V30 17091 H 1628.05 -1.43441 0.678996 0
M  V30 17092 H 1628.07 -3.7207 -0.796497 0
M  V30 17093 H 1627.58 -3.74234 1.02812 0
M  V30 17094 H 1625.68 -3.44495 -1.41964 0
M  V30 17095 H 1625.8 -4.78995 -0.10007 0
M  V30 17096 H 1624.16 -2.54258 -0.149903 0
M  V30 17097 H 1624.94 -3.12744 1.41585 0
M  V30 17098 N 1627.39 -0.19675 -1.56367 0
M  V30 17099 C 1628.8 0.159068 -1.58805 0
M  V30 17100 C 1629 1.60902 -1.21297 0
M  V30 17101 O 1628.06 2.34491 -0.93649 0
M  V30 17102 C 1629.37 -0.144784 -3.00351 0
M  V30 17103 C 1630.92 -0.0850243 -3.12884 0
M  V30 17104 C 1631.4 -0.362209 -4.56565 0
M  V30 17105 N 1632.89 -0.310887 -4.62156 0
M  V30 17106 C 1633.62 -0.499187 -5.71223 0
M  V30 17107 N 1633.12 -0.747925 -6.88751 0
M  V30 17108 N 1634.91 -0.433329 -5.60427 0
M  V30 17109 H 1627.06 -1.1429 -1.79029 0
M  V30 17110 H 1629.33 -0.456298 -0.830961 0
M  V30 17111 H 1629.03 -1.15019 -3.3236 0
M  V30 17112 H 1628.91 0.551864 -3.73141 0
M  V30 17113 H 1631.29 0.910992 -2.80687 0
M  V30 17114 H 1631.37 -0.814774 -2.42477 0
M  V30 17115 H 1631.02 -1.35555 -4.89477 0
M  V30 17116 H 1630.95 0.388448 -5.25165 0
M  V30 17117 H 1633.44 -0.125318 -3.77692 0
M  V30 17118 H 1633.75 -0.880372 -7.67769 0
M  V30 17119 H 1632.1 -0.784838 -6.90554 0
M  V30 17120 H 1635.29 -0.239411 -4.67487 0
M  V30 17121 H 1635.46 -0.583495 -6.45368 0
M  V30 17122 N 1628.87 1.57413 0.0768405 0
M  V30 17123 C 1629.81 2.04373 1.1106 0
M  V30 17124 C 1630.81 0.948127 1.40381 0
M  V30 17125 O 1632.01 1.13325 1.39848 0
M  V30 17126 H 1628.39 0.65156 0.375464 0
M  V30 17127 H 1630.36 2.90352 0.688348 0
M  V30 17128 C 1629.11 2.49914 2.41741 0
M  V30 17129 H 1628.43 3.33808 2.20027 0
M  V30 17130 H 1629.87 2.8653 3.12532 0
M  V30 17131 C 1628.33 1.37996 3.07341 0
M  V30 17132 O 1628.86 0.719242 3.95209 0
M  V30 17133 N 1627.07 1.12635 2.67884 0
M  V30 17134 H 1626.61 1.66545 1.96521 0
M  V30 17135 H 1626.57 0.37956 3.121 0
M  V30 17136 N 1630.34 -0.348112 1.53707 0
M  V30 17137 C 1631.76 -0.690926 1.43869 0
M  V30 17138 C 1631.96 -1.92614 0.59177 0
M  V30 17139 O 1631.02 -2.5237 0.0809797 0
M  V30 17140 C 1632.33 -0.887824 2.87295 0
M  V30 17141 C 1633.88 -0.986731 2.9704 0
M  V30 17142 C 1634.35 -1.21598 4.41563 0
M  V30 17143 N 1635.84 -1.28328 4.45069 0
M  V30 17144 C 1636.58 -1.47809 5.54022 0
M  V30 17145 N 1636.07 -1.64492 6.72989 0
M  V30 17146 N 1637.87 -1.5032 5.41628 0
M  V30 17147 H 1630.02 0.464101 2.07268 0
M  V30 17148 H 1632.28 0.145678 0.93674 0
M  V30 17149 H 1631.99 -0.0517672 3.51662 0
M  V30 17150 H 1631.86 -1.79089 3.31974 0
M  V30 17151 H 1634.25 -1.81331 2.32815 0
M  V30 17152 H 1634.33 -0.0606692 2.55728 0
M  V30 17153 H 1633.97 -0.394341 5.06367 0
M  V30 17154 H 1633.9 -2.15553 4.80463 0
M  V30 17155 H 1636.39 -1.16979 3.59339 0
M  V30 17156 H 1636.71 -1.78979 7.51789 0
M  V30 17157 H 1635.05 -1.61636 6.75943 0
M  V30 17158 H 1638.24 -1.36865 4.47644 0
M  V30 17159 H 1638.42 -1.6516 6.26599 0
M  V30 17160 N 1631.82 -1.45363 -0.608876 0
M  V30 17161 C 1632.77 -1.54268 -1.7408 0
M  V30 17162 C 1633.76 -0.412752 -1.64295 0
M  V30 17163 O 1634.97 -0.58861 -1.70104 0
M  V30 17164 H 1631.35 -0.484528 -0.575097 0
M  V30 17165 H 1633.32 -2.49492 -1.63696 0
M  V30 17166 C 1632.07 -1.5253 -3.12458 0
M  V30 17167 H 1631.39 -2.38801 -3.20646 0
M  V30 17168 H 1632.83 -1.62819 -3.91492 0
M  V30 17169 C 1631.29 -0.249525 -3.35975 0
M  V30 17170 O 1631.82 0.671159 -3.96053 0
M  V30 17171 N 1630.02 -0.145625 -2.90235 0
M  V30 17172 H 1629.57 -0.895714 -2.41526 0
M  V30 17173 H 1629.53 0.707167 -3.06344 0
M  V30 17174 N 1633.3 0.851265 -1.32632 0
M  V30 17175 C 1634.55 1.60252 -1.23141 0
M  V30 17176 C 1634.87 1.93909 0.205946 0
M  V30 17177 O 1634.14 1.59914 1.13156 0
M  V30 17178 H 1632.72 0.594137 -0.452781 0
M  V30 17179 H 1635.38 1.01806 -1.66197 0
M  V30 17180 H 1634.48 2.53796 -1.81643 0
M  V30 17181 N 1634.78 1.15898 1.06796 0
M  V30 17182 C 1636.06 0.847701 1.76276 0
M  V30 17183 C 1636.44 -0.655537 2.00664 0
M  V30 17184 O 1635.78 -1.60171 1.62964 0
M  V30 17185 C 1635.99 1.66475 3.06736 0
M  V30 17186 C 1637.34 1.87452 3.80982 0
M  V30 17187 O 1638.37 1.63298 3.16563 0
M  V30 17188 O 1637.22 2.27942 4.96694 0
M  V30 17189 H 1634.32 0.312308 0.765763 0
M  V30 17190 H 1636.86 1.26507 1.13111 0
M  V30 17191 H 1635.64 2.68508 2.84638 0
M  V30 17192 H 1635.26 1.24409 3.77635 0
M  V30 17193 N 1636.26 -1.25243 0.956659 0
M  V30 17194 C 1637.17 -2.29529 0.48515 0
M  V30 17195 C 1638.18 -1.68121 -0.448494 0
M  V30 17196 O 1639.36 -1.98773 -0.324243 0
M  V30 17197 C 1636.42 -3.45952 -0.227611 0
M  V30 17198 C 1635.48 -4.22795 0.744495 0
M  V30 17199 C 1634.72 -5.3366 0.0656539 0
M  V30 17200 O 1634.94 -5.58722 -1.14829 0
M  V30 17201 O 1633.87 -5.97181 0.75222 0
M  V30 17202 H 1637.7 -2.71955 1.35181 0
M  V30 17203 H 1635.29 -1.30729 0.723203 0
M  V30 17204 H 1637.17 -4.16687 -0.628474 0
M  V30 17205 H 1635.84 -3.05524 -1.06942 0
M  V30 17206 H 1634.75 -3.5448 1.1956 0
M  V30 17207 H 1636.08 -4.67012 1.55438 0
M  V30 17208 N 1637.73 -0.725468 -1.3991 0
M  V30 17209 C 1638.68 -0.0682776 -2.325 0
M  V30 17210 C 1639.68 0.736285 -1.52562 0
M  V30 17211 O 1640.88 0.638542 -1.68293 0
M  V30 17212 H 1637.26 -0.00327742 -0.751993 0
M  V30 17213 H 1639.23 -0.865735 -2.85565 0
M  V30 17214 C 1637.98 0.832036 -3.37598 0
M  V30 17215 H 1637.3 0.222341 -3.99181 0
M  V30 17216 H 1638.74 1.25965 -4.04856 0
M  V30 17217 C 1637.2 1.96201 -2.73874 0
M  V30 17218 O 1637.73 3.05378 -2.60974 0
M  V30 17219 N 1635.94 1.74857 -2.32106 0
M  V30 17220 H 1635.48 0.860621 -2.42798 0
M  V30 17221 H 1635.44 2.50639 -1.89808 0
M  V30 17222 N 1639.21 1.50354 -0.472382 0
M  V30 17223 C 1640.44 2.06446 0.0796976 0
M  V30 17224 C 1640.85 1.33626 1.33943 0
M  V30 17225 O 1640.19 0.399473 1.79304 0
M  V30 17226 C 1640.26 3.56889 0.432455 0
M  V30 17227 C 1639.92 4.51205 -0.725443 0
M  V30 17228 C 1640.92 4.94413 -1.60784 0
M  V30 17229 C 1638.6 4.93875 -0.916135 0
M  V30 17230 C 1640.6 5.78998 -2.66533 0
M  V30 17231 C 1638.28 5.78242 -1.97684 0
M  V30 17232 C 1639.28 6.20706 -2.8498 0
M  V30 17233 O 1638.97 7.03391 -3.89224 0
M  V30 17234 H 1638.7 0.675986 -0.00433625 0
M  V30 17235 H 1641.25 1.94489 -0.660558 0
M  V30 17236 H 1639.48 3.66754 1.22591 0
M  V30 17237 H 1641.17 3.95342 0.919769 0
M  V30 17238 H 1641.94 4.62116 -1.47221 0
M  V30 17239 H 1637.82 4.60343 -0.246124 0
M  V30 17240 H 1641.36 6.12063 -3.34701 0
M  V30 17241 H 1637.26 6.09953 -2.11254 0
M  V30 17242 H 1638.03 7.21644 -3.86229 0
M  V30 17243 N 1640.69 0.205039 1.56261 0
M  V30 17244 C 1641.62 -0.751391 2.15475 0
M  V30 17245 C 1642.6 -1.20265 1.09431 0
M  V30 17246 O 1643.79 -1.28837 1.37598 0
M  V30 17247 C 1640.91 -2.01598 2.72169 0
M  V30 17248 C 1639.96 -1.70605 3.90892 0
M  V30 17249 S 1640.79 -0.845372 5.28785 0
M  V30 17250 C 1641.95 -2.11989 5.88907 0
M  V30 17251 H 1642.18 -0.248043 2.96263 0
M  V30 17252 H 1639.71 -0.0100808 1.54397 0
M  V30 17253 H 1641.67 -2.74217 3.05475 0
M  V30 17254 H 1640.33 -2.49045 1.91403 0
M  V30 17255 H 1639.53 -2.6452 4.29005 0
M  V30 17256 H 1639.13 -1.0606 3.58646 0
M  V30 17257 H 1641.42 -3.0715 6.03875 0
M  V30 17258 H 1642.36 -1.78292 6.85286 0
M  V30 17259 H 1642.77 -2.25289 5.17596 0
M  V30 17260 N 1642.17 -1.57451 -0.0684915 0
M  V30 17261 C 1643.08 -2.07274 -1.09885 0
M  V30 17262 C 1644.1 -1.00295 -1.42186 0
M  V30 17263 O 1645.27 -1.31786 -1.52297 0
M  V30 17264 C 1642.34 -2.50949 -2.39219 0
M  V30 17265 C 1641.4 -3.7224 -2.13859 0
M  V30 17266 C 1640.63 -4.13823 -3.37026 0
M  V30 17267 O 1640.85 -3.55248 -4.46268 0
M  V30 17268 O 1639.79 -5.06587 -3.25044 0
M  V30 17269 H 1643.61 -2.9539 -0.705587 0
M  V30 17270 H 1641.2 -1.46698 -0.282849 0
M  V30 17271 H 1643.08 -2.79547 -3.15327 0
M  V30 17272 H 1641.76 -1.6596 -2.77919 0
M  V30 17273 H 1640.66 -3.4872 -1.35445 0
M  V30 17274 H 1642 -4.58091 -1.80038 0
M  V30 17275 N 1643.65 0.339955 -1.5389 0
M  V30 17276 C 1644.89 1.07979 -1.71309 0
M  V30 17277 C 1645.22 1.88531 -0.478147 0
M  V30 17278 O 1644.48 1.88099 0.540113 0
M  V30 17279 C 1644.78 2.04572 -2.93062 0
M  V30 17280 C 1644.44 1.40303 -4.28516 0
M  V30 17281 C 1643.1 1.22505 -4.65345 0
M  V30 17282 C 1645.46 0.940364 -5.12647 0
M  V30 17283 C 1642.78 0.570639 -5.83918 0
M  V30 17284 C 1645.14 0.299844 -6.31889 0
M  V30 17285 C 1643.8 0.109575 -6.6741 0
M  V30 17286 H 1643.07 0.395125 -0.626863 0
M  V30 17287 H 1645.72 0.358686 -1.88111 0
M  V30 17288 H 1644.02 2.83077 -2.70878 0
M  V30 17289 H 1645.72 2.61816 -3.03733 0
M  V30 17290 H 1642.31 1.55155 -3.99531 0
M  V30 17291 H 1646.49 1.06571 -4.84723 0
M  V30 17292 H 1641.75 0.411872 -6.10011 0
M  V30 17293 H 1645.92 -0.0667391 -6.96368 0
M  V30 17294 H 1643.55 -0.399556 -7.59149 0
M  V30 17295 N 1645.13 1.45684 0.601159 0
M  V30 17296 C 1646.06 1.57694 1.72206 0
M  V30 17297 C 1647.04 0.428141 1.64624 0
M  V30 17298 O 1648.22 0.65209 1.82925 0
M  V30 17299 C 1645.35 1.54941 3.10822 0
M  V30 17300 C 1644.31 2.68603 3.33222 0
M  V30 17301 C 1643.63 2.50906 4.72176 0
M  V30 17302 C 1644.93 4.10568 3.22849 0
M  V30 17303 H 1646.63 2.51521 1.62412 0
M  V30 17304 H 1644.17 1.2105 0.779929 0
M  V30 17305 H 1646.12 1.61939 3.89042 0
M  V30 17306 H 1644.85 0.576471 3.21472 0
M  V30 17307 H 1643.51 2.61043 2.57394 0
M  V30 17308 H 1643.16 1.51736 4.79568 0
M  V30 17309 H 1642.86 3.27131 4.88118 0
M  V30 17310 H 1644.38 2.59767 5.52588 0
M  V30 17311 H 1645.79 4.19336 3.90935 0
M  V30 17312 H 1644.19 4.87234 3.50318 0
M  V30 17313 H 1645.26 4.32022 2.20192 0
M  V30 17314 N 1646.6 -0.84422 1.33082 0
M  V30 17315 C 1647.51 -1.9858 1.24913 0
M  V30 17316 C 1648.53 -1.73256 0.160708 0
M  V30 17317 O 1649.71 -1.97719 0.383313 0
M  V30 17318 C 1646.77 -3.32471 0.983063 0
M  V30 17319 C 1645.83 -3.70946 2.16096 0
M  V30 17320 C 1645.06 -4.98448 1.90749 0
M  V30 17321 O 1645.29 -5.63953 0.855173 0
M  V30 17322 O 1644.22 -5.34301 2.7714 0
M  V30 17323 H 1648.05 -2.0841 2.20905 0
M  V30 17324 H 1645.63 -0.976447 1.13075 0
M  V30 17325 H 1647.51 -4.12705 0.851612 0
M  V30 17326 H 1646.19 -3.23656 0.053384 0
M  V30 17327 H 1645.1 -2.91244 2.34793 0
M  V30 17328 H 1646.43 -3.8442 3.07379 0
M  V30 17329 N 1648.08 -1.16463 -1.0618 0
M  V30 17330 C 1649.33 -0.948248 -1.79265 0
M  V30 17331 C 1649.66 0.522578 -1.87037 0
M  V30 17332 O 1648.94 1.38772 -1.36282 0
M  V30 17333 C 1649.22 -1.57781 -3.23693 0
M  V30 17334 C 1649.07 -3.12005 -3.23995 0
M  V30 17335 C 1650.39 -1.27343 -4.21274 0
M  V30 17336 H 1647.51 -0.345907 -0.650782 0
M  V30 17337 H 1650.15 -1.4381 -1.24172 0
M  V30 17338 H 1648.3 -1.16126 -3.70738 0
M  V30 17339 H 1649.97 -3.62649 -2.85102 0
M  V30 17340 H 1648.22 -3.45276 -2.62615 0
M  V30 17341 H 1648.89 -3.51176 -4.25886 0
M  V30 17342 H 1651.36 -1.63396 -3.82676 0
M  V30 17343 H 1650.24 -1.73993 -5.20594 0
M  V30 17344 H 1650.5 -0.192469 -4.41681 0
M  V30 17345 N 1649.56 1.24734 -0.963288 0
M  V30 17346 C 1650.49 2.27892 -0.508667 0
M  V30 17347 C 1651.47 1.64055 0.449438 0
M  V30 17348 O 1652.66 1.91083 0.346519 0
M  V30 17349 C 1649.79 3.46688 0.206157 0
M  V30 17350 C 1648.74 4.22762 -0.667534 0
M  V30 17351 C 1648.07 5.34402 0.178529 0
M  V30 17352 C 1649.37 4.84535 -1.94995 0
M  V30 17353 H 1651.06 2.66171 -1.37088 0
M  V30 17354 H 1648.61 1.27952 -0.660622 0
M  V30 17355 H 1650.56 4.17985 0.535391 0
M  V30 17356 H 1649.28 3.07422 1.10269 0
M  V30 17357 H 1647.94 3.53259 -0.979976 0
M  V30 17358 H 1647.59 4.91377 1.07508 0
M  V30 17359 H 1647.29 5.86218 -0.402808 0
M  V30 17360 H 1648.81 6.08529 0.502533 0
M  V30 17361 H 1650.23 5.4793 -1.68658 0
M  V30 17362 H 1648.62 5.46564 -2.47765 0
M  V30 17363 H 1649.69 4.06236 -2.64765 0
M  V30 17364 N 1651.04 0.732878 1.39523 0
M  V30 17365 C 1652.27 0.29007 2.04857 0
M  V30 17366 C 1652.68 -1.07435 1.55252 0
M  V30 17367 O 1652.04 -1.67847 0.716497 0
M  V30 17368 C 1652.09 0.280464 3.6041 0
M  V30 17369 O 1651.81 1.59102 4.08189 0
M  V30 17370 C 1653.31 -0.178772 4.42939 0
M  V30 17371 H 1650.53 0.12716 0.658841 0
M  V30 17372 H 1653.07 0.995933 1.7861 0
M  V30 17373 H 1651.23 -0.376494 3.85566 0
M  V30 17374 H 1651.64 1.50314 5.025 0
M  V30 17375 H 1653.12 -0.134335 5.51837 0
M  V30 17376 H 1653.59 -1.22362 4.21811 0
M  V30 17377 H 1654.2 0.448543 4.22928 0
M  V30 17378 N 1652.52 -1.50101 0.480349 0
M  V30 17379 C 1653.43 -2.32488 -0.31408 0
M  V30 17380 C 1654.44 -1.43285 -0.987186 0
M  V30 17381 O 1655.62 -1.7633 -0.973123 0
M  V30 17382 C 1652.68 -3.18203 -1.37651 0
M  V30 17383 C 1651.74 -4.23236 -0.71903 0
M  V30 17384 C 1650.98 -5.04854 -1.73084 0
M  V30 17385 O 1651.2 -4.87681 -2.95843 0
M  V30 17386 O 1650.13 -5.87748 -1.29755 0
M  V30 17387 H 1653.96 -3.01562 0.3597 0
M  V30 17388 H 1651.54 -1.47427 0.242029 0
M  V30 17389 H 1653.43 -3.71362 -1.9917 0
M  V30 17390 H 1652.1 -2.51846 -2.0336 0
M  V30 17391 H 1651.01 -3.74044 -0.0646492 0
M  V30 17392 H 1652.34 -4.92089 -0.104743 0
M  V30 17393 N 1653.99 -0.213323 -1.5615 0
M  V30 17394 C 1654.94 0.713371 -2.16553 0
M  V30 17395 C 1655.93 1.16341 -1.11147 0
M  V30 17396 O 1657.12 1.11877 -1.37159 0
M  V30 17397 C 1654.25 1.92487 -2.8426 0
M  V30 17398 C 1653.33 1.49489 -3.9688 0
M  V30 17399 N 1653.73 0.776985 -4.99797 0
M  V30 17400 C 1652.02 1.78281 -4.08818 0
M  V30 17401 C 1652.72 0.558882 -5.79009 0
M  V30 17402 N 1651.7 1.11311 -5.32082 0
M  V30 17403 H 1655.5 0.156357 -2.93484 0
M  V30 17404 H 1653.02 -0.0142491 -1.62394 0
M  V30 17405 H 1655.01 2.59942 -3.25938 0
M  V30 17406 H 1653.67 2.48643 -2.08822 0
M  V30 17407 H 1654.68 0.430529 -5.16107 0
M  V30 17408 H 1651.36 2.35816 -3.44524 0
M  V30 17409 H 1652.75 -0.0119209 -6.71899 0
M  V30 17410 N 1655.47 1.57485 0.0601405 0
M  V30 17411 C 1656.4 2.07525 1.07031 0
M  V30 17412 C 1657.38 0.971136 1.39653 0
M  V30 17413 O 1658.57 1.24456 1.49078 0
M  V30 17414 C 1655.7 2.52888 2.38044 0
M  V30 17415 C 1654.65 3.67282 2.19745 0
M  V30 17416 C 1653.98 3.98741 3.56244 0
M  V30 17417 C 1655.28 4.96896 1.60908 0
M  V30 17418 H 1656.97 2.92173 0.653875 0
M  V30 17419 H 1654.52 1.40555 0.313083 0
M  V30 17420 H 1656.47 2.8651 3.09014 0
M  V30 17421 H 1655.2 1.65284 2.81689 0
M  V30 17422 H 1653.85 3.33961 1.51213 0
M  V30 17423 H 1653.5 3.08249 3.97481 0
M  V30 17424 H 1653.2 4.75775 3.44836 0
M  V30 17425 H 1654.73 4.34869 4.28627 0
M  V30 17426 H 1656.14 5.28674 2.21758 0
M  V30 17427 H 1654.54 5.78332 1.60164 0
M  V30 17428 H 1655.61 4.81518 0.571671 0
M  V30 17429 N 1656.95 -0.331789 1.54068 0
M  V30 17430 C 1658.23 -1.08843 1.6252 0
M  V30 17431 C 1658.61 -2.06164 0.453847 0
M  V30 17432 O 1657.96 -2.21714 -0.552727 0
M  V30 17433 C 1658.17 -1.79767 2.9914 0
M  V30 17434 C 1659.51 -2.33086 3.54903 0
M  V30 17435 O 1660.54 -1.89846 3.01392 0
M  V30 17436 O 1659.4 -3.12226 4.48528 0
M  V30 17437 H 1656.49 -0.501222 0.657804 0
M  V30 17438 H 1659.04 -0.332339 1.66414 0
M  V30 17439 H 1657.81 -1.08932 3.75832 0
M  V30 17440 H 1657.43 -2.62205 2.98888 0
M  V30 17441 N 1658.43 -1.46001 -0.593424 0
M  V30 17442 C 1659.84 -1.30719 -0.915678 0
M  V30 17443 C 1660.04 -0.270679 -1.99674 0
M  V30 17444 O 1659.1 0.330482 -2.50328 0
M  V30 17445 C 1660.41 -2.69034 -1.34318 0
M  V30 17446 C 1661.96 -2.77041 -1.45662 0
M  V30 17447 C 1662.44 -4.15913 -1.91783 0
M  V30 17448 N 1663.93 -4.18277 -1.98994 0
M  V30 17449 C 1664.66 -5.22612 -2.35932 0
M  V30 17450 N 1664.16 -6.37283 -2.71738 0
M  V30 17451 N 1665.95 -5.09975 -2.36394 0
M  V30 17452 H 1658.1 -2.12056 0.120882 0
M  V30 17453 H 1660.37 -0.947961 -0.00858574 0
M  V30 17454 H 1660.07 -3.4614 -0.622922 0
M  V30 17455 H 1659.95 -2.98434 -2.30688 0
M  V30 17456 H 1662.33 -2.0023 -2.16776 0
M  V30 17457 H 1662.41 -2.51338 -0.475706 0
M  V30 17458 H 1662.06 -4.93215 -1.2125 0
M  V30 17459 H 1661.99 -4.39016 -2.90813 0
M  V30 17460 H 1664.48 -3.35534 -1.73855 0
M  V30 17461 H 1664.79 -7.12679 -2.98846 0
M  V30 17462 H 1663.14 -6.40662 -2.69401 0
M  V30 17463 H 1666.33 -4.1943 -2.07836 0
M  V30 17464 H 1666.5 -5.91402 -2.64854 0
M  V30 17465 N 1659.91 0.83715 -1.33527 0
M  V30 17466 C 1661.15 1.59487 -1.25267 0
M  V30 17467 C 1661.49 1.93357 0.180741 0
M  V30 17468 O 1660.76 1.5884 1.12251 0
M  V30 17469 C 1661.04 2.90376 -2.12964 0
M  V30 17470 C 1660.9 2.63177 -3.64771 0
M  V30 17471 C 1662.22 3.9182 -2.00412 0
M  V30 17472 H 1659.33 0.578684 -0.456392 0
M  V30 17473 H 1661.98 0.965428 -1.63644 0
M  V30 17474 H 1660.13 3.44095 -1.80364 0
M  V30 17475 H 1661.8 2.15878 -4.0767 0
M  V30 17476 H 1660.04 1.96849 -3.86566 0
M  V30 17477 H 1660.71 3.56452 -4.21481 0
M  V30 17478 H 1663.19 3.47413 -2.29005 0
M  V30 17479 H 1662.06 4.81232 -2.64021 0
M  V30 17480 H 1662.33 4.31173 -0.976852 0
M  V30 17481 N 1661.38 1.17024 1.05561 0
M  V30 17482 C 1662.32 0.827019 2.12687 0
M  V30 17483 C 1663.3 -0.204573 1.61308 0
M  V30 17484 O 1664.48 -0.0869578 1.88299 0
M  V30 17485 C 1661.61 0.233018 3.37897 0
M  V30 17486 C 1660.65 1.2394 4.08094 0
M  V30 17487 S 1661.49 2.78918 4.57127 0
M  V30 17488 C 1662.64 2.20988 5.8559 0
M  V30 17489 H 1662.87 1.73431 2.41472 0
M  V30 17490 H 1660.41 0.994498 1.18106 0
M  V30 17491 H 1662.37 -0.103221 4.1037 0
M  V30 17492 H 1661.03 -0.652154 3.07255 0
M  V30 17493 H 1660.22 0.772359 4.98047 0
M  V30 17494 H 1659.82 1.5211 3.4167 0
M  V30 17495 H 1662.11 1.58313 6.58744 0
M  V30 17496 H 1663.06 3.0918 6.37035 0
M  V30 17497 H 1663.46 1.64583 5.39975 0
M  V30 17498 N 1662.86 -1.24221 0.969889 0
M  V30 17499 C 1663.79 -2.27619 0.520745 0
M  V30 17500 C 1664.77 -1.64291 -0.440731 0
M  V30 17501 O 1665.96 -1.91265 -0.336381 0
M  V30 17502 C 1663.09 -3.46792 -0.187768 0
M  V30 17503 C 1662.04 -4.22402 0.689945 0
M  V30 17504 C 1661.37 -5.34489 -0.150186 0
M  V30 17505 C 1662.67 -4.83494 1.97562 0
M  V30 17506 H 1664.36 -2.65441 1.38498 0
M  V30 17507 H 1661.91 -1.276 0.667398 0
M  V30 17508 H 1663.86 -4.18263 -0.513216 0
M  V30 17509 H 1662.59 -3.08002 -1.08637 0
M  V30 17510 H 1661.24 -3.52734 0.998696 0
M  V30 17511 H 1660.89 -4.9194 -1.049 0
M  V30 17512 H 1660.59 -5.85996 0.433891 0
M  V30 17513 H 1662.12 -6.08786 -0.470255 0
M  V30 17514 H 1663.53 -5.47028 1.71561 0
M  V30 17515 H 1661.93 -5.45243 2.5066 0
M  V30 17516 H 1663 -4.04826 2.66915 0
M  V30 17517 N 1664.34 -0.740267 -1.39132 0
M  V30 17518 C 1665.59 -0.290953 -2.00702 0
M  V30 17519 C 1665.92 1.12051 -1.58613 0
M  V30 17520 O 1665.19 1.76488 -0.817457 0
M  V30 17521 C 1665.48 -0.398765 -3.57885 0
M  V30 17522 C 1665.33 -1.85038 -4.09977 0
M  V30 17523 C 1666.65 0.215717 -4.39571 0
M  V30 17524 H 1663.77 -0.107194 -0.729163 0
M  V30 17525 H 1666.41 -0.937411 -1.65265 0
M  V30 17526 H 1664.56 0.151613 -3.88204 0
M  V30 17527 H 1666.23 -2.45804 -3.90357 0
M  V30 17528 H 1664.48 -2.36994 -3.63341 0
M  V30 17529 H 1665.15 -1.87705 -5.19106 0
M  V30 17530 H 1667.62 -0.253518 -4.15327 0
M  V30 17531 H 1666.5 0.109966 -5.4879 0
M  V30 17532 H 1666.76 1.30242 -4.2248 0
M  V30 17533 N 1665.82 1.49844 -0.488302 0
M  V30 17534 C 1667.23 1.58954 -0.14348 0
M  V30 17535 C 1667.43 1.49482 1.3512 0
M  V30 17536 O 1666.49 1.36218 2.12605 0
M  V30 17537 C 1667.8 2.92222 -0.708991 0
M  V30 17538 C 1669.35 3.05658 -0.673957 0
M  V30 17539 C 1669.83 4.41526 -1.21731 0
M  V30 17540 N 1671.32 4.47985 -1.17746 0
M  V30 17541 C 1672.05 5.51539 -1.5682 0
M  V30 17542 N 1671.55 6.62261 -2.03426 0
M  V30 17543 N 1673.34 5.4218 -1.48315 0
M  V30 17544 H 1665.49 1.54244 -1.46022 0
M  V30 17545 H 1667.76 0.72992 -0.604914 0
M  V30 17546 H 1667.46 3.04683 -1.75674 0
M  V30 17547 H 1667.34 3.76851 -0.162226 0
M  V30 17548 H 1669.72 2.92835 0.364925 0
M  V30 17549 H 1669.8 2.22744 -1.25772 0
M  V30 17550 H 1669.45 4.551 -2.25491 0
M  V30 17551 H 1669.38 5.2306 -0.609598 0
M  V30 17552 H 1671.87 3.68541 -0.835828 0
M  V30 17553 H 1672.18 7.3736 -2.31345 0
M  V30 17554 H 1670.53 6.63335 -2.07392 0
M  V30 17555 H 1673.72 4.54569 -1.11733 0
M  V30 17556 H 1673.89 6.2276 -1.79092 0
M  V30 17557 N 1667.3 0.221601 1.56034 0
M  V30 17558 C 1668.54 -0.409277 1.97912 0
M  V30 17559 C 1668.87 -1.60291 1.11049 0
M  V30 17560 O 1668.14 -1.95 0.187529 0
M  V30 17561 H 1666.72 -0.154201 0.730911 0
M  V30 17562 H 1669.38 0.314508 1.92346 0
M  V30 17563 H 1668.47 -0.73557 3.03308 0
M  V30 17564 N 1668.77 -1.57515 -0.0517878 0
M  V30 17565 C 1670.02 -1.87843 -0.745624 0
M  V30 17566 C 1670.34 -0.816318 -1.77091 0
M  V30 17567 O 1669.61 0.152784 -1.95303 0
M  V30 17568 H 1668.19 -0.693194 -0.278372 0
M  V30 17569 H 1670.86 -1.94886 -0.0231267 0
M  V30 17570 H 1669.95 -2.86001 -1.2494 0
M  V30 17571 N 1670.25 0.323614 -1.54242 0
M  V30 17572 C 1671.5 1.05947 -1.72104 0
M  V30 17573 C 1671.82 1.88547 -0.497512 0
M  V30 17574 O 1671.09 1.89712 0.488485 0
M  V30 17575 H 1669.67 0.394141 -0.634557 0
M  V30 17576 H 1672.33 0.360063 -1.91545 0
M  V30 17577 H 1671.43 1.72552 -2.60062 0
M  V30 17578 N 1671.73 1.46313 0.585673 0
M  V30 17579 C 1673.15 1.31203 0.908733 0
M  V30 17580 C 1673.35 0.281265 1.99527 0
M  V30 17581 O 1672.4 -0.317202 2.505 0
M  V30 17582 C 1673.72 2.69742 1.3289 0
M  V30 17583 C 1675.26 2.77809 1.44191 0
M  V30 17584 C 1675.74 4.16924 1.89574 0
M  V30 17585 N 1677.23 4.19327 1.96773 0
M  V30 17586 C 1677.97 5.23856 2.33157 0
M  V30 17587 N 1677.46 6.38716 2.68355 0
M  V30 17588 N 1679.25 5.11221 2.33686 0
M  V30 17589 H 1671.41 2.11989 -0.132126 0
M  V30 17590 H 1673.67 0.947993 0.00355835 0
M  V30 17591 H 1673.37 3.46465 0.604557 0
M  V30 17592 H 1673.25 2.99653 2.29102 0
M  V30 17593 H 1675.64 2.01377 2.15712 0
M  V30 17594 H 1675.72 2.51587 0.46237 0
M  V30 17595 H 1675.36 4.93851 1.18633 0
M  V30 17596 H 1675.29 4.40552 2.88481 0
M  V30 17597 H 1677.78 3.36451 1.72073 0
M  V30 17598 H 1678.09 7.14253 2.95063 0
M  V30 17599 H 1676.44 6.42082 2.66 0
M  V30 17600 H 1679.63 4.20527 2.05609 0
M  V30 17601 H 1679.8 5.92798 2.61714 0
M  V30 17602 N 1673.21 -0.830057 1.33969 0
M  V30 17603 C 1674.12 -1.97244 1.27012 0
M  V30 17604 C 1675.14 -1.73076 0.179075 0
M  V30 17605 O 1676.31 -1.97301 0.404262 0
M  V30 17606 C 1673.38 -3.31409 1.01827 0
M  V30 17607 C 1672.44 -3.68633 2.20018 0
M  V30 17608 C 1671.67 -4.96397 1.96025 0
M  V30 17609 O 1671.89 -5.63014 0.91494 0
M  V30 17610 O 1670.83 -5.31331 2.82791 0
M  V30 17611 H 1674.65 -2.06056 2.23103 0
M  V30 17612 H 1672.24 -0.964399 1.14104 0
M  V30 17613 H 1674.12 -4.11779 0.895337 0
M  V30 17614 H 1672.8 -3.23581 0.0877091 0
M  V30 17615 H 1671.7 -2.88738 2.37869 0
M  V30 17616 H 1673.04 -3.81138 3.11439 0
M  V30 17617 N 1674.69 -1.17582 -1.04939 0
M  V30 17618 C 1675.93 -0.967208 -1.7825 0
M  V30 17619 C 1676.27 0.502711 -1.87581 0
M  V30 17620 O 1675.54 1.37318 -1.37746 0
M  V30 17621 C 1675.82 -1.61205 -3.22001 0
M  V30 17622 C 1675.68 -3.15424 -3.20667 0
M  V30 17623 C 1677 -1.31804 -4.199 0
M  V30 17624 H 1674.12 -0.35279 -0.647077 0
M  V30 17625 H 1676.76 -1.45119 -1.2264 0
M  V30 17626 H 1674.91 -1.20052 -3.69486 0
M  V30 17627 H 1676.58 -3.65653 -2.8124 0
M  V30 17628 H 1674.82 -3.48042 -2.58938 0
M  V30 17629 H 1675.49 -3.55674 -4.22138 0
M  V30 17630 H 1677.97 -1.67446 -3.80921 0
M  V30 17631 H 1676.85 -1.79505 -5.18719 0
M  V30 17632 H 1677.11 -0.239304 -4.41452 0
M  V30 17633 N 1676.17 1.23705 -0.976463 0
M  V30 17634 C 1677.41 1.9132 -0.638714 0
M  V30 17635 C 1677.73 1.7707 0.830993 0
M  V30 17636 O 1678.93 2.39453 1.27964 0
M  V30 17637 C 1677.39 3.42941 -1.09178 0
M  V30 17638 C 1677 3.6586 -2.58555 0
M  V30 17639 C 1678.74 4.16355 -0.827585 0
M  V30 17640 C 1676.65 5.11096 -2.97549 0
M  V30 17641 H 1675.58 0.716382 -0.235187 0
M  V30 17642 H 1678.23 1.40205 -1.18384 0
M  V30 17643 H 1676.61 3.93142 -0.474893 0
M  V30 17644 H 1677.79 3.26221 -3.25448 0
M  V30 17645 H 1676.1 3.05748 -2.82678 0
M  V30 17646 H 1678.7 5.23372 -1.09482 0
M  V30 17647 H 1679.04 4.15629 0.236282 0
M  V30 17648 H 1679.57 3.7213 -1.40586 0
M  V30 17649 H 1676.31 5.1695 -4.03042 0
M  V30 17650 H 1675.83 5.51699 -2.35346 0
M  V30 17651 H 1677.51 5.79397 -2.87937 0
M  V30 17652 N 1677.64 0.747635 1.38738 0
M  V30 17653 C 1678.87 0.311781 2.04537 0
M  V30 17654 C 1679.29 -1.05782 1.56383 0
M  V30 17655 O 1678.64 -1.67077 0.734259 0
M  V30 17656 C 1678.69 0.318675 3.60093 0
M  V30 17657 O 1678.42 1.63423 4.06478 0
M  V30 17658 C 1679.92 -0.131782 4.43104 0
M  V30 17659 H 1677.14 0.134141 0.657455 0
M  V30 17660 H 1679.68 1.01482 1.77543 0
M  V30 17661 H 1677.84 -0.335578 3.85944 0
M  V30 17662 H 1678.25 1.55636 5.00877 0
M  V30 17663 H 1679.72 -0.0757978 5.51948 0
M  V30 17664 H 1680.2 -1.17881 4.23085 0
M  V30 17665 H 1680.81 0.493375 4.22429 0
M  V30 17666 N 1679.12 -1.49583 0.496242 0
M  V30 17667 C 1680.37 -2.01634 -0.051782 0
M  V30 17668 C 1680.68 -1.38133 -1.38487 0
M  V30 17669 O 1681.89 -1.81484 -2.0193 0
M  V30 17670 C 1680.35 -3.59617 -0.142755 0
M  V30 17671 C 1679.95 -4.32088 1.1834 0
M  V30 17672 C 1681.7 -4.19626 -0.641397 0
M  V30 17673 C 1679.6 -5.81917 1.05485 0
M  V30 17674 H 1678.53 -0.753645 -0.0231258 0
M  V30 17675 H 1681.19 -1.72165 0.634944 0
M  V30 17676 H 1679.57 -3.85781 -0.893826 0
M  V30 17677 H 1680.74 -4.17628 1.94739 0
M  V30 17678 H 1679.06 -3.83801 1.61511 0
M  V30 17679 H 1681.65 -5.29343 -0.755008 0
M  V30 17680 H 1682 -3.82676 -1.63906 0
M  V30 17681 H 1682.53 -3.97765 0.053003 0
M  V30 17682 H 1679.27 -6.23384 2.02664 0
M  V30 17683 H 1678.79 -5.98882 0.331667 0
M  V30 17684 H 1680.47 -6.4285 0.731641 0
M  V30 17685 N 1680.6 -0.229873 -1.55915 0
M  V30 17686 C 1681.83 0.403603 -2.02619 0
M  V30 17687 C 1682.24 1.53304 -1.10881 0
M  V30 17688 O 1681.58 1.83356 -0.112312 0
M  V30 17689 C 1681.64 0.988727 -3.45636 0
M  V30 17690 C 1681.31 -0.00630999 -4.57 0
M  V30 17691 C 1682.3 -0.809714 -5.13556 0
M  V30 17692 C 1679.99 -0.127474 -5.02138 0
M  V30 17693 C 1681.98 -1.7209 -6.13729 0
M  V30 17694 C 1679.67 -1.04219 -6.02148 0
M  V30 17695 C 1680.67 -1.83744 -6.5782 0
M  V30 17696 O 1680.36 -2.73677 -7.55881 0
M  V30 17697 H 1680.09 0.102102 -0.668245 0
M  V30 17698 H 1682.64 -0.346247 -2.02461 0
M  V30 17699 H 1680.87 1.78782 -3.4289 0
M  V30 17700 H 1682.56 1.53048 -3.7594 0
M  V30 17701 H 1683.33 -0.726601 -4.79526 0
M  V30 17702 H 1679.21 0.481415 -4.58479 0
M  V30 17703 H 1682.75 -2.34206 -6.5711 0
M  V30 17704 H 1678.65 -1.12629 -6.35598 0
M  V30 17705 H 1679.41 -2.67846 -7.73435 0
M  V30 17706 N 1682.08 1.5754 0.0434337 0
M  V30 17707 C 1683.3 1.93247 0.753012 0
M  V30 17708 C 1683.73 0.828712 1.68861 0
M  V30 17709 O 1683.09 -0.216618 1.80001 0
M  V30 17710 C 1683.13 3.27989 1.49852 0
M  V30 17711 O 1682.24 3.19223 2.61094 0
M  V30 17712 H 1681.58 0.632032 0.203547 0
M  V30 17713 H 1684.11 2.046 0.00319776 0
M  V30 17714 H 1684.12 3.62539 1.87161 0
M  V30 17715 H 1682.79 4.07891 0.812251 0
M  V30 17716 H 1681.37 2.9628 2.26434 0
M  V30 17717 O 1683.59 -0.186546 1.60419 0
M  V30 17718 H 1684.29 -0.824636 1.7527 0
M  V30 END ATOM
M  V30 BEGIN BOND
M  V30 END BOND
M  V30 END CTAB
M  END
$$$$
