drugbank_target|Q9H2G2 STE20-like serine/threonine-protein kinase (DB07664; DB07853; DB12010)
 OpenBabel12092120453D

  0  0  0     0  0            999 V3000
M  V30 BEGIN CTAB
M  V30 COUNTS 19953 20074 0 0 0
M  V30 BEGIN ATOM
M  V30 1 H -0.908 1.98254 -0.117106 0
M  V30 2 N 0 1.576 0 0
M  V30 3 C 0.933 2.03868 1.02534 0
M  V30 4 C 1.911 0.928543 1.3348 0
M  V30 5 O 3.095 1.19667 1.45644 0
M  V30 6 C 0.222 2.43627 2.35294 0
M  V30 7 C -0.732 3.65373 2.2001 0
M  V30 8 S 0.101 5.13292 1.52614 0
M  V30 9 C 1.257 5.56322 2.86805 0
M  V30 10 H 1.49 2.90518 0.631377 0
M  V30 11 H -0.977 1.52953 0.210867 0
M  V30 12 H 0.981 2.67203 3.11629 0
M  V30 13 H -0.358 1.57376 2.7183 0
M  V30 14 H -1.165 3.90944 3.18086 0
M  V30 15 H -1.563 3.418 1.51819 0
M  V30 16 H 0.729 5.58782 3.83104 0
M  V30 17 H 1.672 6.56266 2.65933 0
M  V30 18 H 2.08 4.83886 2.90714 0
M  V30 19 N 1.4781 -0.272755 1.55222 0
M  V30 20 C 2.7031 -1.02683 1.80197 0
M  V30 21 C 3.1281 -1.79142 0.573551 0
M  V30 22 O 2.4861 -1.74917 -0.476849 0
M  V30 23 C 2.5341 -1.9609 3.02624 0
M  V30 24 O 1.6381 -3.04863 2.77727 0
M  V30 25 H 0.9791 -0.293557 0.595584 0
M  V30 26 H 3.5091 -0.30159 2.02365 0
M  V30 27 H 3.5191 -2.38039 3.31363 0
M  V30 28 H 2.1941 -1.39851 3.91682 0
M  V30 29 H 0.7711 -2.67228 2.60084 0
M  V30 30 N 2.9562 -1.48159 -0.537278 0
M  V30 31 C 4.2032 -1.55804 -1.29349 0
M  V30 32 C 4.5312 -0.228802 -1.9315 0
M  V30 33 O 3.7862 0.780242 -1.79473 0
M  V30 34 C 4.0852 -2.63956 -2.40961 0
M  V30 35 C 3.7512 -4.0662 -1.94861 0
M  V30 36 C 2.4132 -4.45452 -1.82006 0
M  V30 37 C 4.7652 -4.96055 -1.59933 0
M  V30 38 C 2.0932 -5.71531 -1.32547 0
M  V30 39 C 4.4452 -6.22617 -1.11939 0
M  V30 40 C 3.1092 -6.60312 -0.976951 0
M  V30 41 H 2.3792 -0.570129 -0.473322 0
M  V30 42 H 5.0262 -1.81845 -0.600372 0
M  V30 43 H 3.3312 -2.31747 -3.15912 0
M  V30 44 H 5.0282 -2.67089 -2.99107 0
M  V30 45 H 1.6182 -3.75949 -2.05815 0
M  V30 46 H 5.8022 -4.66738 -1.68728 0
M  V30 47 H 1.0582 -5.99468 -1.202 0
M  V30 48 H 5.2322 -6.91318 -0.839811 0
M  V30 49 H 2.8592 -7.57895 -0.591501 0
M  V30 50 N 4.4343 0.785586 -1.36625 0
M  V30 51 C 5.6813 1.54362 -1.31067 0
M  V30 52 C 6.0093 1.94195 0.10893 0
M  V30 53 O 5.2643 1.63262 1.07908 0
M  V30 54 C 5.5633 2.83007 -2.1827 0
M  V30 55 C 5.2293 2.62294 -3.6676 0
M  V30 56 C 3.8913 2.56353 -4.0723 0
M  V30 57 C 6.2433 2.43371 -4.6089 0
M  V30 58 C 3.5713 2.29461 -5.39967 0
M  V30 59 C 5.9233 2.18005 -5.93849 0
M  V30 60 C 4.5873 2.105 -6.3344 0
M  V30 61 H 3.8573 0.564851 -0.479609 0
M  V30 62 H 6.5043 0.906028 -1.68711 0
M  V30 63 H 4.8093 3.51253 -1.73576 0
M  V30 64 H 6.5063 3.40817 -2.11292 0
M  V30 65 H 3.0963 2.67774 -3.34656 0
M  V30 66 H 7.2803 2.46959 -4.30494 0
M  V30 67 H 2.5363 2.22135 -5.69619 0
M  V30 68 H 6.7103 2.02359 -6.66351 0
M  V30 69 H 4.3373 1.89425 -7.36222 0
M  V30 70 N 5.9124 1.20967 1.01018 0
M  V30 71 C 6.8604 0.961223 2.1181 0
M  V30 72 C 7.8544 -0.0897034 1.69162 0
M  V30 73 O 9.0604 0.0612271 1.79896 0
M  V30 74 H 5.4354 0.29355 0.692338 0
M  V30 75 H 7.4064 1.90178 2.29946 0
M  V30 76 C 6.1554 0.536854 3.4353 0
M  V30 77 H 5.4784 1.33713 3.76777 0
M  V30 78 H 6.9184 0.402286 4.22087 0
M  V30 79 C 5.3774 -0.751574 3.2841 0
M  V30 80 O 5.9074 -1.80841 3.58691 0
M  V30 81 N 4.1134 -0.716079 2.81639 0
M  V30 82 H 3.6604 0.144236 2.57196 0
M  V30 83 H 3.6184 -1.57847 2.71904 0
M  V30 84 N 7.3905 -1.2043 1.01659 0
M  V30 85 C 8.6375 -1.89797 0.705917 0
M  V30 86 C 8.9655 -1.78848 -0.764439 0
M  V30 87 O 8.2205 -1.16694 -1.57102 0
M  V30 88 C 8.5195 -3.40464 1.08714 0
M  V30 89 C 8.1855 -3.71614 2.5537 0
M  V30 90 C 6.8475 -3.79826 2.95441 0
M  V30 91 C 9.1995 -3.85915 3.50313 0
M  V30 92 C 6.5275 -3.99797 4.29394 0
M  V30 93 C 8.8795 -4.07396 4.83954 0
M  V30 94 C 7.5435 -4.13837 5.23732 0
M  V30 95 H 6.8135 -0.694518 0.258313 0
M  V30 96 H 9.4605 -1.42691 1.27717 0
M  V30 97 H 7.7655 -3.89385 0.434309 0
M  V30 98 H 9.4625 -3.92433 0.824461 0
M  V30 99 H 6.0525 -3.65822 2.23321 0
M  V30 100 H 10.2365 -3.78926 3.20513 0
M  V30 101 H 5.4925 -4.03018 4.59768 0
M  V30 102 H 9.6665 -4.17404 5.57447 0
M  V30 103 H 7.2935 -4.29064 6.27541 0
M  V30 104 N 8.8686 -0.792821 -1.36206 0
M  V30 105 C 10.2846 -0.474903 -1.52371 0
M  V30 106 C 10.4846 1.00622 -1.74578 0
M  V30 107 O 9.5406 1.79162 -1.77924 0
M  V30 108 C 10.8536 -1.3083 -2.70747 0
M  V30 109 C 12.4016 -1.30234 -2.84619 0
M  V30 110 C 12.8766 -2.11956 -4.06004 0
M  V30 111 N 14.3676 -2.09419 -4.13156 0
M  V30 112 C 15.1026 -2.69419 -5.06163 0
M  V30 113 N 14.5986 -3.3829 -6.04592 0
M  V30 114 N 16.3916 -2.59134 -4.98804 0
M  V30 115 H 8.5426 -1.75222 -1.20046 0
M  V30 116 H 10.8056 -0.745024 -0.586211 0
M  V30 117 H 10.5116 -2.35881 -2.6087 0
M  V30 118 H 10.3856 -0.95196 -3.6499 0
M  V30 119 H 12.7726 -0.259748 -2.93955 0
M  V30 120 H 12.8536 -1.69847 -1.91274 0
M  V30 121 H 12.4976 -3.16248 -3.97429 0
M  V30 122 H 12.4276 -1.69711 -4.98503 0
M  V30 123 H 14.9186 -1.59297 -3.42685 0
M  V30 124 H 15.2316 -3.81394 -6.7213 0
M  V30 125 H 13.5766 -3.42393 -6.04807 0
M  V30 126 H 16.7676 -2.04927 -4.20859 0
M  V30 127 H 16.9406 -3.06185 -5.711 0
M  V30 128 N 10.3467 1.47872 -0.545128 0
M  V30 129 C 11.2937 2.29849 0.2093 0
M  V30 130 C 12.2637 1.38313 0.919707 0
M  V30 131 O 13.4487 1.67277 0.917772 0
M  V30 132 C 10.5887 3.22019 1.24088 0
M  V30 133 C 9.7017 4.2864 0.537778 0
M  V30 134 C 8.8367 5.07973 1.5536 0
M  V30 135 C 7.8757 6.06381 0.8348 0
M  V30 136 N 7.0127 6.78717 1.79688 0
M  V30 137 H 11.8527 2.93845 -0.49591 0
M  V30 138 H 9.3897 1.44848 -0.256389 0
M  V30 139 H 11.3477 3.73868 1.85144 0
M  V30 140 H 9.9777 2.59914 1.91428 0
M  V30 141 H 9.0297 3.7994 -0.187046 0
M  V30 142 H 10.3417 4.98793 -0.0258907 0
M  V30 143 H 9.4957 5.63912 2.23803 0
M  V30 144 H 8.2347 4.37693 2.15118 0
M  V30 145 H 7.2397 5.49631 0.136388 0
M  V30 146 H 8.4647 6.78665 0.24313 0
M  V30 147 H 6.4107 6.11177 2.38326 0
M  V30 148 H 6.3277 7.44998 1.28505 0
M  V30 149 H 7.5957 7.39237 2.47282 0
M  V30 150 N 11.8248 0.280983 1.55075 0
M  V30 151 C 13.0738 -0.334784 1.98902 0
M  V30 152 C 13.3868 -1.56534 1.17288 0
M  V30 153 O 14.5928 -2.25443 1.51287 0
M  V30 154 C 13.0488 -0.646994 3.54037 0
M  V30 155 C 12.6568 0.564085 4.44435 0
M  V30 156 C 14.4008 -1.22506 4.06439 0
M  V30 157 C 12.3078 0.226137 5.90967 0
M  V30 158 H 11.2378 -0.128866 0.742906 0
M  V30 159 H 13.8888 0.386556 1.79382 0
M  V30 160 H 12.2708 -1.42739 3.6938 0
M  V30 161 H 13.4448 1.34082 4.40861 0
M  V30 162 H 11.7598 1.0594 4.02698 0
M  V30 163 H 14.3568 -1.49182 5.13468 0
M  V30 164 H 14.6998 -2.16085 3.55827 0
M  V30 165 H 15.2328 -0.50682 3.94558 0
M  V30 166 H 11.9718 1.12996 6.45687 0
M  V30 167 H 11.4918 -0.513717 5.97596 0
M  V30 168 H 13.1708 -0.179539 6.46751 0
M  V30 169 N 13.3029 -1.57598 0.00835791 0
M  V30 170 C 14.5499 -1.90928 -0.674732 0
M  V30 171 C 14.8779 -0.88277 -1.73313 0
M  V30 172 O 14.1329 0.111294 -1.95383 0
M  V30 173 C 14.4319 -3.3101 -1.34787 0
M  V30 174 C 14.0979 -4.48922 -0.421861 0
M  V30 175 C 12.7599 -4.8091 -0.166927 0
M  V30 176 C 15.1119 -5.20755 0.215211 0
M  V30 177 C 12.4399 -5.821 0.733232 0
M  V30 178 C 14.7919 -6.22905 1.1033 0
M  V30 179 C 13.4559 -6.53346 1.36733 0
M  V30 180 H 12.7259 -0.698656 -0.246902 0
M  V30 181 H 15.3729 -1.91387 0.0656779 0
M  V30 182 H 13.6779 -3.26714 -2.16253 0
M  V30 183 H 15.3749 -3.54061 -1.8826 0
M  V30 184 H 11.9649 -4.23934 -0.630729 0
M  V30 185 H 16.1489 -4.9629 0.0312829 0
M  V30 186 H 11.4049 -6.04042 0.945712 0
M  V30 187 H 15.5789 -6.77694 1.60325 0
M  V30 188 H 13.2059 -7.31573 2.06652 0
M  V30 189 N 14.781 0.264519 -1.55364 0
M  V30 190 C 15.728 1.32717 -1.88825 0
M  V30 191 C 16.698 1.48675 -0.740605 0
M  V30 192 O 17.883 1.62945 -0.992657 0
M  V30 193 C 15.023 2.68089 -2.17307 0
M  V30 194 C 14.136 2.60284 -3.44785 0
M  V30 195 C 13.271 3.87892 -3.62924 0
M  V30 196 C 12.31 3.74631 -4.84064 0
M  V30 197 N 11.447 4.94092 -4.98816 0
M  V30 198 H 16.287 1.03481 -2.79456 0
M  V30 199 H 13.824 0.499757 -1.3835 0
M  V30 200 H 15.782 3.46864 -2.31821 0
M  V30 201 H 14.412 2.95509 -1.299 0
M  V30 202 H 13.464 1.73173 -3.38697 0
M  V30 203 H 14.776 2.46388 -4.33698 0
M  V30 204 H 13.93 4.75109 -3.77302 0
M  V30 205 H 12.669 4.04664 -2.7221 0
M  V30 206 H 11.674 2.85797 -4.69681 0
M  V30 207 H 12.899 3.5937 -5.76221 0
M  V30 208 H 10.845 5.11259 -4.11036 0
M  V30 209 H 10.762 4.8276 -5.81789 0
M  V30 210 H 12.03 5.82857 -5.17588 0
M  V30 211 N 16.2591 1.48442 0.529413 0
M  V30 212 C 17.1891 1.65902 1.64313 0
M  V30 213 C 18.1701 0.507897 1.6234 0
M  V30 214 O 19.3551 0.740503 1.79528 0
M  V30 215 C 16.4851 1.69911 3.02898 0
M  V30 216 C 15.4391 2.8453 3.19729 0
M  V30 217 C 14.7651 2.73629 4.59381 0
M  V30 218 C 16.0651 4.25821 3.02447 0
M  V30 219 H 17.7591 2.5914 1.49955 0
M  V30 220 H 15.3051 1.24709 0.719982 0
M  V30 221 H 17.2581 1.80715 3.80684 0
M  V30 222 H 15.9821 0.732524 3.18279 0
M  V30 223 H 14.6411 2.73283 2.44361 0
M  V30 224 H 14.2891 1.74938 4.71599 0
M  V30 225 H 13.9891 3.50541 4.71588 0
M  V30 226 H 15.5131 2.86401 5.39265 0
M  V30 227 H 16.9271 4.37898 3.70024 0
M  V30 228 H 15.3241 5.03735 3.26146 0
M  V30 229 H 16.3941 4.42244 1.98867 0
M  V30 230 N 17.7372 -0.778329 1.37039 0
M  V30 231 C 18.9852 -1.53361 1.31623 0
M  V30 232 C 19.3062 -1.94739 -0.100831 0
M  V30 233 O 18.5762 -1.65797 -1.04347 0
M  V30 234 H 17.1562 -0.568794 0.484234 0
M  V30 235 H 19.8182 -0.926742 1.71457 0
M  V30 236 H 18.9142 -2.43606 1.95096 0
M  V30 237 N 19.2153 -1.21501 -1.00376 0
M  V30 238 C 20.4403 -1.05977 -1.78279 0
M  V30 239 C 20.8653 0.385994 -1.84097 0
M  V30 240 O 20.2233 1.27849 -1.28547 0
M  V30 241 C 20.2713 -1.66302 -3.19963 0
M  V30 242 O 19.3753 -0.909333 -4.0225 0
M  V30 243 H 18.7163 -0.372906 -0.549397 0
M  V30 244 H 21.2463 -1.6107 -1.26165 0
M  V30 245 H 21.2563 -1.70574 -3.70632 0
M  V30 246 H 19.9313 -2.71515 -3.15043 0
M  V30 247 H 18.5083 -0.941795 -3.60811 0
M  V30 248 N 20.6934 1.19889 -1.02296 0
M  V30 249 C 21.6034 2.26571 -0.608508 0
M  V30 250 C 22.6194 1.70299 0.356964 0
M  V30 251 O 23.7954 2.00235 0.216326 0
M  V30 252 C 20.8604 3.46677 0.0402814 0
M  V30 253 C 19.9214 4.18153 -0.97194 0
M  V30 254 C 19.1544 5.32525 -0.354016 0
M  V30 255 O 19.3774 5.64112 0.844604 0
M  V30 256 O 18.3114 5.92242 -1.07391 0
M  V30 257 H 22.1374 2.64251 -1.49684 0
M  V30 258 H 19.7224 1.26629 -0.792809 0
M  V30 259 H 21.6044 4.19475 0.402324 0
M  V30 260 H 20.2794 3.10858 0.902707 0
M  V30 261 H 19.1864 3.47499 -1.38546 0
M  V30 262 H 20.5194 4.57927 -1.80454 0
M  V30 263 N 22.1715 0.800033 1.35784 0
M  V30 264 C 23.1185 0.203848 2.29898 0
M  V30 265 C 24.0885 -0.658375 1.52495 0
M  V30 266 O 25.2735 -0.604832 1.8096 0
M  V30 267 C 22.4135 -0.64688 3.38983 0
M  V30 268 C 21.5265 0.235054 4.3136 0
M  V30 269 C 20.6615 -0.623054 5.27533 0
M  V30 270 C 19.7005 0.259682 6.11549 0
M  V30 271 N 18.8375 -0.558019 6.99879 0
M  V30 272 H 23.6775 1.01186 2.80295 0
M  V30 273 H 21.2145 0.51053 1.37957 0
M  V30 274 H 23.1725 -1.15521 4.00887 0
M  V30 275 H 21.8025 -1.42021 2.89879 0
M  V30 276 H 20.8545 0.861438 3.70518 0
M  V30 277 H 22.1665 0.914768 4.9034 0
M  V30 278 H 21.3205 -1.19678 5.94779 0
M  V30 279 H 20.0595 -1.33636 4.69034 0
M  V30 280 H 19.0645 0.845726 5.43256 0
M  V30 281 H 20.2895 0.970748 6.72126 0
M  V30 282 H 18.2355 -1.25542 6.43875 0
M  V30 283 H 18.1525 0.0637872 7.55973 0
M  V30 284 H 19.4205 -1.11523 7.71481 0
M  V30 285 N 23.6496 -1.47581 0.552962 0
M  V30 286 C 24.5966 -2.29957 -0.197108 0
M  V30 287 C 25.5666 -1.38799 -0.912359 0
M  V30 288 O 26.7516 -1.67761 -0.908888 0
M  V30 289 C 23.8916 -3.22672 -1.22379 0
M  V30 290 C 23.0046 -4.28919 -0.515038 0
M  V30 291 C 22.1396 -5.0879 -1.52664 0
M  V30 292 C 21.1786 -6.06815 -0.802631 0
M  V30 293 N 20.3156 -6.7966 -1.76086 0
M  V30 294 H 25.1556 -2.93578 0.511486 0
M  V30 295 H 22.6926 -1.4471 0.264067 0
M  V30 296 H 24.6506 -3.74845 -1.83159 0
M  V30 297 H 23.2806 -2.60925 -1.90047 0
M  V30 298 H 22.3326 -3.79835 0.207192 0
M  V30 299 H 23.6446 -4.98773 0.0523425 0
M  V30 300 H 22.7986 -5.65091 -2.20809 0
M  V30 301 H 21.5376 -4.38828 -2.12794 0
M  V30 302 H 20.5426 -5.49695 -0.107238 0
M  V30 303 H 21.7676 -6.78784 -0.207135 0
M  V30 304 H 19.7136 -6.12432 -2.35081 0
M  V30 305 H 19.6306 -7.45669 -1.24552 0
M  V30 306 H 20.8986 -7.40538 -2.43359 0
M  V30 307 N 25.1277 -0.289203 -1.54924 0
M  V30 308 C 26.0747 0.592115 -2.23075 0
M  V30 309 C 27.0447 1.13881 -1.20915 0
M  V30 310 O 28.2297 1.18551 -1.495 0
M  V30 311 C 25.3697 1.76376 -2.96623 0
M  V30 312 C 24.4827 1.24959 -4.13533 0
M  V30 313 C 23.6177 2.38416 -4.74691 0
M  V30 314 C 22.6567 1.84072 -5.83767 0
M  V30 315 N 21.7937 2.91057 -6.38929 0
M  V30 316 H 26.6337 0.00432038 -2.98 0
M  V30 317 H 24.1707 -0.00963529 -1.47097 0
M  V30 318 H 26.1287 2.45268 -3.3749 0
M  V30 319 H 24.7587 2.32337 -2.24097 0
M  V30 320 H 23.8107 0.453307 -3.77689 0
M  V30 321 H 25.1227 0.811662 -4.92152 0
M  V30 322 H 24.2767 3.15276 -5.18349 0
M  V30 323 H 23.0157 2.8553 -3.95378 0
M  V30 324 H 22.0207 1.05697 -5.39545 0
M  V30 325 H 23.2457 1.37877 -6.64956 0
M  V30 326 H 21.1917 3.37526 -5.62505 0
M  V30 327 H 21.1087 2.51724 -7.12861 0
M  V30 328 H 22.3767 3.6785 -6.87246 0
M  V30 329 N 26.6058 1.57591 -0.0167156 0
M  V30 330 C 27.5528 2.09462 0.969251 0
M  V30 331 C 28.5228 0.99381 1.33089 0
M  V30 332 O 29.7078 1.26726 1.42636 0
M  V30 333 C 26.8478 2.61622 2.25051 0
M  V30 334 C 25.9608 3.85666 1.94642 0
M  V30 335 C 25.0958 4.26266 3.16972 0
M  V30 336 C 24.1348 5.43101 2.82326 0
M  V30 337 N 23.2718 5.78915 3.97243 0
M  V30 338 H 28.1118 2.93428 0.519997 0
M  V30 339 H 25.6488 1.45044 0.245087 0
M  V30 340 H 27.6068 2.89949 2.99976 0
M  V30 341 H 26.2368 1.80505 2.67615 0
M  V30 342 H 25.2888 3.64145 1.10013 0
M  V30 343 H 26.6008 4.70678 1.65117 0
M  V30 344 H 25.7548 4.55963 4.00228 0
M  V30 345 H 24.4938 3.39996 3.49648 0
M  V30 346 H 23.4988 5.1311 1.97479 0
M  V30 347 H 24.7238 6.3106 2.50879 0
M  V30 348 H 22.6698 4.95602 4.29785 0
M  V30 349 H 22.5868 6.58539 3.71299 0
M  V30 350 H 23.8548 6.13212 4.81239 0
M  V30 351 N 28.0839 -0.256276 1.55502 0
M  V30 352 C 29.0159 -1.33981 1.85962 0
M  V30 353 C 30.0289 -1.44743 0.745212 0
M  V30 354 O 31.2179 -1.4626 1.02324 0
M  V30 355 C 28.3179 -2.7194 2.02242 0
M  V30 356 C 27.4909 -2.83562 3.33033 0
M  V30 357 C 26.5499 -4.02304 3.39172 0
M  V30 358 O 25.5759 -3.92273 4.12444 0
M  V30 359 N 26.7779 -5.15045 2.67784 0
M  V30 360 H 29.5429 -1.08191 2.7949 0
M  V30 361 H 27.1039 -0.446388 1.55624 0
M  V30 362 H 29.0959 -3.49697 2.03701 0
M  V30 363 H 27.6659 -2.90479 1.15502 0
M  V30 364 H 26.8859 -1.92555 3.43971 0
M  V30 365 H 28.1739 -2.88271 4.19258 0
M  V30 366 H 27.5719 -5.26085 2.07968 0
M  V30 367 H 26.1289 -5.90972 2.74947 0
M  V30 368 N 29.562 -1.4872 -0.521534 0
M  V30 369 C 30.792 -1.6061 -1.29954 0
M  V30 370 C 31.2 -0.268728 -1.87282 0
M  V30 371 O 30.543 0.753221 -1.67548 0
M  V30 372 C 30.605 -2.60013 -2.48261 0
M  V30 373 C 30.269 -4.04874 -2.11957 0
M  V30 374 C 31.266 -4.92304 -1.67132 0
M  V30 375 C 28.951 -4.5047 -2.22221 0
M  V30 376 C 30.945 -6.2336 -1.33047 0
M  V30 377 C 28.632 -5.81544 -1.87748 0
M  V30 378 C 29.63 -6.67812 -1.43234 0
M  V30 379 O 29.318 -7.96446 -1.09217 0
M  V30 380 H 29.05 -0.544116 -0.401141 0
M  V30 381 H 31.604 -1.95339 -0.634958 0
M  V30 382 H 29.834 -2.20422 -3.17728 0
M  V30 383 H 31.523 -2.61648 -3.10315 0
M  V30 384 H 32.289 -4.58312 -1.58665 0
M  V30 385 H 28.168 -3.83504 -2.55823 0
M  V30 386 H 31.712 -6.90649 -0.982299 0
M  V30 387 H 27.609 -6.15069 -1.95858 0
M  V30 388 H 28.377 -8.09275 -1.22542 0
M  V30 389 N 31.0401 0.771051 -1.3745 0
M  V30 390 C 31.9501 1.91538 -1.35464 0
M  V30 391 C 32.9661 1.72134 -0.254123 0
M  V30 392 O 34.1421 1.95358 -0.489626 0
M  V30 393 C 31.2071 3.26671 -1.16134 0
M  V30 394 C 30.2681 3.58723 -2.35831 0
M  V30 395 C 29.5011 4.87409 -2.17413 0
M  V30 396 O 29.7241 5.58506 -1.15876 0
M  V30 397 O 28.6581 5.18539 -3.05615 0
M  V30 398 H 32.4841 1.96165 -2.31847 0
M  V30 399 H 30.0691 0.9139 -1.18187 0
M  V30 400 H 31.9511 4.07499 -1.07345 0
M  V30 401 H 30.6261 3.22894 -0.228251 0
M  V30 402 H 29.5331 2.78127 -2.50192 0
M  V30 403 H 30.8661 3.67243 -3.27709 0
M  V30 404 N 32.5182 1.22032 0.997298 0
M  V30 405 C 33.4682 0.953838 2.07089 0
M  V30 406 C 34.4522 -0.0938669 1.60626 0
M  V30 407 O 35.6442 0.116078 1.76619 0
M  V30 408 C 32.7732 0.528726 3.39204 0
M  V30 409 C 31.8592 1.61092 3.92314 0
M  V30 410 N 32.2502 2.83768 4.18699 0
M  V30 411 C 30.5482 1.48158 4.20672 0
M  V30 412 C 31.2492 3.53715 4.61802 0
M  V30 413 N 30.2252 2.81174 4.65233 0
M  V30 414 H 34.0272 1.88577 2.25424 0
M  V30 415 H 31.5412 1.11719 1.17867 0
M  V30 416 H 33.5382 0.31915 4.15677 0
M  V30 417 H 32.1982 -0.39635 3.22272 0
M  V30 418 H 33.2092 3.20238 4.07023 0
M  V30 419 H 29.8862 0.622369 4.12835 0
M  V30 420 H 31.2762 4.58793 4.90875 0
M  V30 421 N 33.9963 -1.19345 1.0293 0
M  V30 422 C 35.2423 -1.89318 0.727083 0
M  V30 423 C 35.5753 -1.79446 -0.742483 0
M  V30 424 O 34.8503 -1.1871 -1.54072 0
M  V30 425 C 35.1333 -3.40238 1.17942 0
M  V30 426 C 34.9863 -3.58979 2.71024 0
M  V30 427 C 36.3053 -4.33479 0.760548 0
M  V30 428 H 33.4243 -0.687475 0.265606 0
M  V30 429 H 36.0663 -1.40477 1.2793 0
M  V30 430 H 34.2163 -3.81964 0.709608 0
M  V30 431 H 35.8883 -3.26421 3.25955 0
M  V30 432 H 34.1313 -3.02018 3.11396 0
M  V30 433 H 34.8023 -4.64823 2.9773 0
M  V30 434 H 37.2783 -3.99469 1.16464 0
M  V30 435 H 36.1543 -5.37664 1.10493 0
M  V30 436 H 36.4153 -4.40813 -0.337063 0
M  V30 437 N 35.4744 -0.807222 -1.35358 0
M  V30 438 C 36.4214 -0.216037 -2.29787 0
M  V30 439 C 37.3914 0.650278 -1.52842 0
M  V30 440 O 38.5764 0.595227 -1.81278 0
M  V30 441 C 35.7164 0.628893 -3.39321 0
M  V30 442 C 34.8294 -0.257927 -4.31229 0
M  V30 443 C 33.9644 0.595069 -5.27856 0
M  V30 444 C 33.0034 -0.292111 -6.11403 0
M  V30 445 N 32.1404 0.520895 -7.00165 0
M  V30 446 H 36.9804 -1.02671 -2.79755 0
M  V30 447 H 34.5174 -0.517839 -1.37684 0
M  V30 448 H 36.4754 1.13393 -4.01494 0
M  V30 449 H 35.1054 1.40482 -2.90628 0
M  V30 450 H 34.1574 -0.881076 -3.70056 0
M  V30 451 H 35.4694 -0.940759 -4.89848 0
M  V30 452 H 34.6234 1.16522 -5.95405 0
M  V30 453 H 33.3624 1.31146 -4.69736 0
M  V30 454 H 32.3674 -0.874525 -5.428 0
M  V30 455 H 33.5924 -1.00638 -6.71602 0
M  V30 456 H 31.5384 1.22125 -6.44532 0
M  V30 457 H 31.4554 -0.103877 -7.55929 0
M  V30 458 H 32.7234 1.0743 -7.72062 0
M  V30 459 N 36.9525 1.47285 -0.560781 0
M  V30 460 C 38.3685 1.58065 -0.22081 0
M  V30 461 C 38.5685 1.55892 1.27671 0
M  V30 462 O 37.6245 1.46422 2.0571 0
M  V30 463 C 38.9375 2.88418 -0.850625 0
M  V30 464 C 40.4855 3.02009 -0.822184 0
M  V30 465 C 40.9605 4.35066 -1.43113 0
M  V30 466 N 42.4515 4.41711 -1.39448 0
M  V30 467 C 43.1865 5.43237 -1.83525 0
M  V30 468 N 42.6825 6.51555 -2.35474 0
M  V30 469 N 44.4755 5.34304 -1.74574 0
M  V30 470 H 36.6265 1.46941 -1.53369 0
M  V30 471 H 38.8895 0.699558 -0.639783 0
M  V30 472 H 38.5955 2.95755 -1.9032 0
M  V30 473 H 38.4695 3.75612 -0.345773 0
M  V30 474 H 40.8565 2.94266 0.221714 0
M  V30 475 H 40.9375 2.16347 -1.36483 0
M  V30 476 H 40.5815 4.43565 -2.47412 0
M  V30 477 H 40.5115 5.19465 -0.863899 0
M  V30 478 H 43.0025 3.64027 -1.01452 0
M  V30 479 H 43.3155 7.25203 -2.67021 0
M  V30 480 H 41.6605 6.52435 -2.39487 0
M  V30 481 H 44.8515 4.48581 -1.33763 0
M  V30 482 H 45.0245 6.13288 -2.09242 0
M  V30 483 N 38.4306 0.297415 1.54768 0
M  V30 484 C 39.7076 -0.365847 1.92148 0
M  V30 485 C 40.0876 -1.71975 1.22424 0
M  V30 486 O 39.4356 -2.25666 0.358739 0
M  V30 487 C 39.6456 -0.484056 3.45627 0
M  V30 488 C 40.9936 -0.756594 4.17805 0
M  V30 489 O 42.0176 -0.568007 3.51642 0
M  V30 490 O 40.8766 -1.11863 5.34929 0
M  V30 491 H 37.9706 -0.203919 0.801465 0
M  V30 492 H 40.5166 0.34521 1.66152 0
M  V30 493 H 39.2886 0.467865 3.88493 0
M  V30 494 H 38.9116 -1.24372 3.77647 0
M  V30 495 N 39.9087 -1.5758 0.0250728 0
M  V30 496 C 40.8387 -2.13007 -0.956575 0
M  V30 497 C 41.8197 -1.0452 -1.342 0
M  V30 498 O 43.0047 -1.32332 -1.42133 0
M  V30 499 C 40.1347 -2.65386 -2.24026 0
M  V30 500 C 39.0887 -3.78623 -1.99571 0
M  V30 501 C 38.4147 -4.17414 -3.3417 0
M  V30 502 C 39.7147 -5.04867 -1.33814 0
M  V30 503 H 41.4087 -2.9528 -0.494991 0
M  V30 504 H 38.9547 -1.42042 -0.236651 0
M  V30 505 H 40.9077 -3.02794 -2.93076 0
M  V30 506 H 39.6317 -1.80268 -2.72343 0
M  V30 507 H 38.2907 -3.41646 -1.32941 0
M  V30 508 H 37.9387 -3.29284 -3.80238 0
M  V30 509 H 37.6387 -4.93719 -3.18615 0
M  V30 510 H 39.1627 -4.57402 -4.04495 0
M  V30 511 H 40.5767 -5.39888 -1.92857 0
M  V30 512 H 38.9737 -5.86144 -1.28669 0
M  V30 513 H 40.0437 -4.83904 -0.310561 0
M  V30 514 N 41.3868 0.248026 -1.55636 0
M  V30 515 C 42.3348 1.32683 -1.91045 0
M  V30 516 C 43.3288 1.49883 -0.789401 0
M  V30 517 O 44.5348 1.51371 -0.974007 0
M  V30 518 H 40.9098 0.444272 -0.606734 0
M  V30 519 H 42.8808 1.00085 -2.81115 0
M  V30 520 C 41.6298 2.6755 -2.22064 0
M  V30 521 H 40.9528 2.55114 -3.07826 0
M  V30 522 H 42.3928 3.41912 -2.50743 0
M  V30 523 C 40.8518 3.20556 -1.0366 0
M  V30 524 O 41.3818 4.00695 -0.284016 0
M  V30 525 N 39.5878 2.78568 -0.82753 0
M  V30 526 H 39.1348 2.1351 -1.44123 0
M  V30 527 H 39.0928 3.14378 -0.0369803 0
M  V30 528 N 42.8649 1.48995 0.513639 0
M  V30 529 C 44.2759 1.5119 1.09537 0
M  V30 530 C 44.6269 0.290906 1.94031 0
M  V30 531 O 43.7519 -0.60049 2.07902 0
M  V30 532 C 44.3469 2.73964 1.99322 0
M  V30 533 C 42.9059 2.78978 2.52682 0
M  V30 534 C 42.0529 2.44934 1.30009 0
M  V30 535 H 45.0039 1.55875 0.298125 0
M  V30 536 H 45.0249 2.53409 2.83838 0
M  V30 537 H 44.5369 3.62813 1.37799 0
M  V30 538 H 42.6379 1.94378 3.1788 0
M  V30 539 H 42.7509 3.8083 2.90698 0
M  V30 540 H 41.1149 1.9644 1.62122 0
M  V30 541 H 41.8979 3.36043 0.702131 0
M  V30 542 N 44.343 -0.763751 1.37857 0
M  V30 543 C 45.253 -1.90817 1.36478 0
M  V30 544 C 46.269 -1.71997 0.263248 0
M  V30 545 O 47.445 -1.95095 0.499979 0
M  V30 546 C 44.51 -3.2605 1.17864 0
M  V30 547 C 43.571 -3.57467 2.3773 0
M  V30 548 C 42.804 -4.86249 2.19995 0
M  V30 549 O 43.027 -5.57884 1.18836 0
M  V30 550 O 41.961 -5.16911 3.08361 0
M  V30 551 H 45.787 -1.94933 2.32884 0
M  V30 552 H 43.372 -0.907619 1.1867 0
M  V30 553 H 45.254 -4.06924 1.09504 0
M  V30 554 H 43.929 -3.22769 0.245372 0
M  V30 555 H 42.836 -2.76796 2.51664 0
M  V30 556 H 44.169 -3.655 3.29652 0
M  V30 557 N 45.8211 -1.22559 -0.990812 0
M  V30 558 C 47.0981 -0.959875 -1.70428 0
M  V30 559 C 47.4781 0.524455 -2.04481 0
M  V30 560 O 46.8261 1.49302 -1.72977 0
M  V30 561 C 47.0361 -1.85955 -2.95333 0
M  V30 562 C 48.3841 -2.11687 -3.68068 0
M  V30 563 O 49.4081 -1.8342 -3.05345 0
M  V30 564 O 48.2671 -2.59572 -4.80921 0
M  V30 565 H 45.3611 -0.361154 -0.743974 0
M  V30 566 H 47.9071 -1.33554 -1.04697 0
M  V30 567 H 46.6791 -2.86346 -2.66687 0
M  V30 568 H 46.3021 -1.4856 -3.68803 0
M  V30 569 N 47.2992 1.18797 -1.03562 0
M  V30 570 C 48.5462 1.8865 -0.736023 0
M  V30 571 C 48.8742 1.80041 0.735889 0
M  V30 572 O 48.1292 1.19179 1.55225 0
M  V30 573 C 48.4282 3.38692 -1.14117 0
M  V30 574 C 48.0942 3.67504 -2.6125 0
M  V30 575 C 46.7562 3.75078 -3.01447 0
M  V30 576 C 49.1082 3.80293 -3.56408 0
M  V30 577 C 46.4362 3.92915 -4.35701 0
M  V30 578 C 48.7882 3.99645 -4.90374 0
M  V30 579 C 47.4522 4.05453 -5.30249 0
M  V30 580 H 46.7222 0.690321 -0.26933 0
M  V30 581 H 49.3692 1.40641 -1.29971 0
M  V30 582 H 47.6742 3.88645 -0.496202 0
M  V30 583 H 49.3712 3.91072 -0.886789 0
M  V30 584 H 45.9612 3.62223 -2.29113 0
M  V30 585 H 50.1452 3.73779 -3.26501 0
M  V30 586 H 45.4012 3.95653 -4.66121 0
M  V30 587 H 49.5752 4.08482 -5.64017 0
M  V30 588 H 47.2022 4.19027 -6.34288 0
M  V30 589 N 48.7773 0.814389 1.34928 0
M  V30 590 C 50.0233 0.408167 1.99263 0
M  V30 591 C 50.3783 -1.0154 1.63424 0
M  V30 592 O 49.6713 -1.69607 0.891289 0
M  V30 593 C 49.8653 0.537781 3.53331 0
M  V30 594 C 49.6943 1.9724 4.04137 0
M  V30 595 C 48.4643 2.60245 4.33129 0
M  V30 596 C 50.6623 2.93801 4.2212 0
M  V30 597 N 48.6443 3.95036 4.69914 0
M  V30 598 C 50.0153 4.1348 4.6199 0
M  V30 599 C 52.0703 2.9053 4.04348 0
M  V30 600 C 50.7733 5.3033 4.85945 0
M  V30 601 C 52.7993 4.06589 4.29464 0
M  V30 602 C 52.1613 5.25017 4.69613 0
M  V30 603 H 48.2603 0.197289 0.756704 0
M  V30 604 H 50.8443 1.05728 1.63492 0
M  V30 605 H 49.0153 -0.0813868 3.88315 0
M  V30 606 H 50.7473 0.105389 4.04563 0
M  V30 607 H 47.5023 2.11545 4.23728 0
M  V30 608 H 47.9263 4.64455 4.92555 0
M  V30 609 H 52.5683 2.00115 3.72443 0
M  V30 610 H 50.2863 6.21309 5.16721 0
M  V30 611 H 53.8723 4.05447 4.17257 0
M  V30 612 H 52.7523 6.1333 4.88667 0
M  V30 613 N 50.2554 -1.46986 0.568584 0
M  V30 614 C 51.1654 -2.33942 -0.17555 0
M  V30 615 C 52.1814 -1.48891 -0.90041 0
M  V30 616 O 53.3574 -1.81794 -0.86676 0
M  V30 617 C 50.4224 -3.25811 -1.18524 0
M  V30 618 C 49.4834 -4.26757 -0.466582 0
M  V30 619 C 48.7164 -5.14236 -1.42817 0
M  V30 620 O 48.9394 -5.04379 -2.66379 0
M  V30 621 O 47.8734 -5.94412 -0.946453 0
M  V30 622 H 51.6994 -2.98896 0.538036 0
M  V30 623 H 49.2844 -1.4573 0.329097 0
M  V30 624 H 51.1664 -3.82527 -1.76779 0
M  V30 625 H 49.8414 -2.63471 -1.88055 0
M  V30 626 H 48.7484 -3.73769 0.157451 0
M  V30 627 H 50.0814 -4.91843 0.187485 0
M  V30 628 N 51.7335 -0.305618 -1.54608 0
M  V30 629 C 52.9825 0.303098 -1.9941 0
M  V30 630 C 53.2955 1.54648 -1.19764 0
M  V30 631 O 54.5015 2.23007 -1.54855 0
M  V30 632 C 52.9575 0.590588 -3.55021 0
M  V30 633 C 52.5655 -0.634719 -4.43481 0
M  V30 634 C 54.3095 1.16025 -4.08336 0
M  V30 635 C 52.2165 -0.320126 -5.90533 0
M  V30 636 H 51.1465 0.117031 -0.744862 0
M  V30 637 H 53.7975 -0.415045 -1.78745 0
M  V30 638 H 52.1795 1.36845 -3.71604 0
M  V30 639 H 53.3535 -1.41079 -4.38672 0
M  V30 640 H 51.6685 -1.12333 -4.00962 0
M  V30 641 H 54.2655 1.40994 -5.15776 0
M  V30 642 H 54.6085 2.10397 -3.5922 0
M  V30 643 H 55.1415 0.443985 -3.95315 0
M  V30 644 H 51.8805 -1.23254 -6.43808 0
M  V30 645 H 51.4005 0.418579 -5.98338 0
M  V30 646 H 53.0795 0.0766241 -6.46955 0
M  V30 647 N 53.2116 1.57565 -0.0334293 0
M  V30 648 C 54.4606 1.91155 0.643639 0
M  V30 649 C 54.7736 0.91192 1.73042 0
M  V30 650 O 55.9796 1.13923 2.46442 0
M  V30 651 C 54.4356 3.39443 1.1961 0
M  V30 652 C 54.0436 4.47774 0.142381 0
M  V30 653 C 55.7876 3.82094 1.84944 0
M  V30 654 C 53.6946 5.87162 0.706727 0
M  V30 655 H 52.6246 0.713368 0.244176 0
M  V30 656 H 55.2756 1.8323 -0.0994323 0
M  V30 657 H 53.6576 3.42313 1.99092 0
M  V30 658 H 54.8316 4.56469 -0.630296 0
M  V30 659 H 53.1466 4.14352 -0.412446 0
M  V30 660 H 55.7436 4.83591 2.2813 0
M  V30 661 H 56.0866 3.17386 2.69392 0
M  V30 662 H 56.6196 3.81665 1.12145 0
M  V30 663 H 53.3586 6.55424 -0.0997178 0
M  V30 664 H 52.8786 5.82064 1.44779 0
M  V30 665 H 54.5576 6.35866 1.19514 0
M  V30 666 N 54.6897 -0.239769 1.55765 0
M  V30 667 C 55.9377 -0.964892 1.77579 0
M  V30 668 C 56.2587 -1.85582 0.598699 0
M  V30 669 O 55.5287 -1.92075 -0.385226 0
M  V30 670 H 54.1087 -0.359265 0.654933 0
M  V30 671 H 56.7707 -0.256001 1.93211 0
M  V30 672 H 55.8667 -1.58243 2.69009 0
M  V30 673 N 56.1678 -1.49265 -0.50573 0
M  V30 674 C 57.0778 -1.68312 -1.63427 0
M  V30 675 C 58.0938 -0.565682 -1.64548 0
M  V30 676 O 59.2698 -0.839801 -1.83055 0
M  V30 677 C 56.3348 -1.74107 -2.99813 0
M  V30 678 C 55.3958 -2.97653 -3.09356 0
M  V30 679 C 54.6288 -3.03163 -4.39236 0
M  V30 680 O 54.8518 -2.16396 -5.27758 0
M  V30 681 O 53.7858 -3.9558 -4.53652 0
M  V30 682 H 57.6118 -2.63907 -1.50289 0
M  V30 683 H 55.1968 -1.32951 -0.681502 0
M  V30 684 H 57.0788 -1.803 -3.80881 0
M  V30 685 H 55.7538 -0.816901 -3.13223 0
M  V30 686 H 54.6608 -2.96981 -2.27493 0
M  V30 687 H 55.9938 -3.89535 -3.00871 0
M  V30 688 N 57.6459 0.756429 -1.3826 0
M  V30 689 C 58.5759 1.88374 -1.37976 0
M  V30 690 C 59.5569 1.68311 -0.246082 0
M  V30 691 O 60.7419 1.88944 -0.44874 0
M  V30 692 C 57.8719 3.25864 -1.20125 0
M  V30 693 C 56.8259 3.60523 -2.30666 0
M  V30 694 C 56.1519 4.9672 -1.97923 0
M  V30 695 C 57.4519 3.65692 -3.72916 0
M  V30 696 H 59.1459 1.88869 -2.32312 0
M  V30 697 H 56.6919 0.907272 -1.11824 0
M  V30 698 H 58.6449 4.0438 -1.18552 0
M  V30 699 H 57.3689 3.25841 -0.222498 0
M  V30 700 H 56.0279 2.84324 -2.3142 0
M  V30 701 H 55.6759 4.93253 -0.985393 0
M  V30 702 H 55.3759 5.20878 -2.71955 0
M  V30 703 H 56.8999 5.77618 -1.97964 0
M  V30 704 H 58.3139 4.34328 -3.74208 0
M  V30 705 H 56.7109 4.01358 -4.4613 0
M  V30 706 H 57.7809 2.65987 -4.05436 0
M  V30 707 N 59.124 1.23083 0.984299 0
M  V30 708 C 60.372 1.05848 1.72165 0
M  V30 709 C 60.693 -0.406049 1.90726 0
M  V30 710 O 59.963 -1.29139 1.47309 0
M  V30 711 H 58.543 0.388685 0.637913 0
M  V30 712 H 61.205 1.54736 1.18503 0
M  V30 713 H 60.301 1.54327 2.71274 0
M  V30 714 N 60.6021 -1.18246 1.0419 0
M  V30 715 C 61.8791 -1.84121 0.660208 0
M  V30 716 C 62.2591 -1.92778 -0.860221 0
M  V30 717 O 61.6071 -1.45464 -1.76217 0
M  V30 718 C 61.8171 -3.22355 1.33747 0
M  V30 719 C 63.1651 -3.98376 1.46906 0
M  V30 720 O 64.1891 -3.31799 1.29568 0
M  V30 721 O 63.0481 -5.17665 1.75171 0
M  V30 722 H 60.1421 -0.794036 0.231161 0
M  V30 723 H 62.6881 -1.25628 1.14087 0
M  V30 724 H 61.4601 -3.10964 2.37522 0
M  V30 725 H 61.0831 -3.88506 0.845515 0
M  V30 726 N 62.0802 -0.821533 -1.34494 0
M  V30 727 C 63.3282 -0.408139 -1.97936 0
M  V30 728 C 63.6492 1.03193 -1.65457 0
M  V30 729 O 62.9192 1.71622 -0.944595 0
M  V30 730 H 61.4992 -0.147928 -0.732206 0
M  V30 731 H 64.1612 -1.05067 -1.64155 0
M  V30 732 H 63.2572 -0.52601 -3.07635 0
M  V30 733 N 63.5583 1.46682 -0.576371 0
M  V30 734 C 64.5213 2.28707 0.150239 0
M  V30 735 C 65.5213 1.38035 0.824794 0
M  V30 736 O 66.7113 1.60476 0.677719 0
M  V30 737 C 63.8433 3.18248 1.22192 0
M  V30 738 H 65.0363 2.94423 -0.570521 0
M  V30 739 H 62.5893 1.52688 -0.334078 0
M  V30 740 H 63.3243 2.57265 1.97447 0
M  V30 741 H 63.1093 3.85 0.742812 0
M  V30 742 H 64.5993 3.80001 1.73172 0
M  V30 743 N 65.0364 0.313813 1.54444 0
M  V30 744 C 66.2834 -0.291675 2.00388 0
M  V30 745 C 66.6114 -1.52904 1.2021 0
M  V30 746 O 65.8664 -1.93833 0.269707 0
M  V30 747 C 66.1654 -0.680386 3.50864 0
M  V30 748 C 65.8314 0.456699 4.48581 0
M  V30 749 C 64.4934 0.768824 4.75018 0
M  V30 750 C 66.8454 1.22098 5.06697 0
M  V30 751 C 64.1734 1.84812 5.56831 0
M  V30 752 C 66.5254 2.29029 5.89685 0
M  V30 753 C 65.1894 2.60834 6.14428 0
M  V30 754 H 64.4594 -0.106732 0.733273 0
M  V30 755 H 67.1064 0.43557 1.86481 0
M  V30 756 H 65.4114 -1.48791 3.62448 0
M  V30 757 H 67.1084 -1.16026 3.83847 0
M  V30 758 H 63.6984 0.203337 4.28117 0
M  V30 759 H 67.8824 0.993096 4.86263 0
M  V30 760 H 63.1384 2.09912 5.74236 0
M  V30 761 H 67.3124 2.887 6.33739 0
M  V30 762 H 64.9394 3.44596 6.77612 0
M  V30 763 N 66.5145 -1.57545 0.0417849 0
M  V30 764 C 67.7625 -1.91937 -0.632829 0
M  V30 765 C 68.0835 -0.919978 -1.71934 0
M  V30 766 O 67.3535 0.0366064 -1.95866 0
M  V30 767 H 65.9335 -0.708493 -0.236742 0
M  V30 768 H 68.5955 -1.9468 0.0925745 0
M  V30 769 H 67.6915 -2.92912 -1.07746 0
M  V30 770 N 67.9926 0.231505 -1.5589 0
M  V30 771 C 68.9396 1.28682 -1.91598 0
M  V30 772 C 69.9096 1.47071 -0.771974 0
M  V30 773 O 71.0946 1.60802 -1.027 0
M  V30 774 C 68.2346 2.6342 -2.22944 0
M  V30 775 C 67.3476 2.52912 -3.50228 0
M  V30 776 C 66.4826 3.80106 -3.7107 0
M  V30 777 C 65.5216 3.64279 -4.91902 0
M  V30 778 N 64.6586 4.834 -5.09184 0
M  V30 779 H 69.4986 0.975305 -2.81588 0
M  V30 780 H 67.0356 0.470299 -1.39379 0
M  V30 781 H 68.9936 3.41869 -2.39126 0
M  V30 782 H 67.6236 2.92687 -1.36139 0
M  V30 783 H 66.6756 1.6595 -3.42294 0
M  V30 784 H 67.9876 2.37133 -4.38827 0
M  V30 785 H 67.1416 4.66999 -3.87295 0
M  V30 786 H 65.8806 3.98799 -2.80733 0
M  V30 787 H 64.8856 2.7577 -4.75637 0
M  V30 788 H 66.1106 3.47067 -5.83714 0
M  V30 789 H 64.0566 5.02425 -4.21788 0
M  V30 790 H 63.9736 4.70311 -5.91898 0
M  V30 791 H 65.2416 5.71747 -5.29835 0
M  V30 792 N 69.4707 1.49531 0.497807 0
M  V30 793 C 70.7167 1.59415 1.25358 0
M  V30 794 C 71.0497 0.281422 1.9215 0
M  V30 795 O 70.3247 -0.715249 1.80871 0
M  V30 796 C 70.6077 2.75566 2.3181 0
M  V30 797 C 70.4607 4.16642 1.69498 0
M  V30 798 C 71.7797 2.87347 3.33346 0
M  V30 799 H 68.8987 0.580244 0.454408 0
M  V30 800 H 71.5407 1.81827 0.551262 0
M  V30 801 H 69.6907 2.56587 2.91711 0
M  V30 802 H 71.3627 4.47145 1.13399 0
M  V30 803 H 69.6057 4.22141 0.998978 0
M  V30 804 H 70.2767 4.93792 2.46725 0
M  V30 805 H 72.7527 3.04634 2.83438 0
M  V30 806 H 71.6287 3.70289 4.05188 0
M  V30 807 H 71.8897 1.96834 3.95865 0
M  V30 808 N 70.9488 -0.749086 1.3866 0
M  V30 809 C 72.1788 -1.53611 1.38157 0
M  V30 810 C 72.5868 -1.89177 -0.0293595 0
M  V30 811 O 71.9298 -1.53606 -1.00752 0
M  V30 812 C 71.9918 -2.86087 2.17702 0
M  V30 813 C 71.6558 -2.73034 3.66472 0
M  V30 814 C 72.6528 -2.42526 4.59866 0
M  V30 815 C 70.3378 -2.90345 4.09884 0
M  V30 816 C 72.3318 -2.29492 5.94653 0
M  V30 817 C 70.0188 -2.7693 5.4475 0
M  V30 818 C 71.0168 -2.46547 6.36949 0
M  V30 819 O 70.7048 -2.33199 7.69333 0
M  V30 820 H 70.4368 -0.481773 0.474205 0
M  V30 821 H 72.9908 -0.934465 1.82912 0
M  V30 822 H 71.2208 -3.48458 1.67672 0
M  V30 823 H 72.9098 -3.47625 2.09551 0
M  V30 824 H 73.6758 -2.28816 4.27631 0
M  V30 825 H 69.5548 -3.1299 3.38464 0
M  V30 826 H 73.0988 -2.05698 6.66584 0
M  V30 827 H 68.9958 -2.90215 5.76581 0
M  V30 828 H 69.7638 -2.48376 7.79905 0
M  V30 829 N 72.4269 -1.23603 -0.977757 0
M  V30 830 C 73.3739 -1.01954 -2.07061 0
M  V30 831 C 74.3439 0.0638697 -1.65977 0
M  V30 832 O 75.5289 -0.0887624 -1.90593 0
M  V30 833 C 72.6689 -0.619658 -3.39491 0
M  V30 834 C 71.7819 -1.77547 -3.93829 0
M  V30 835 C 70.9169 -1.32212 -5.14484 0
M  V30 836 C 69.9559 -2.44852 -5.60994 0
M  V30 837 N 69.0929 -2.00456 -6.72876 0
M  V30 838 H 73.9329 -1.95495 -2.24913 0
M  V30 839 H 71.4699 -0.973861 -1.10247 0
M  V30 840 H 73.4279 -0.368898 -4.15566 0
M  V30 841 H 72.0579 0.278752 -3.21594 0
M  V30 842 H 71.1099 -2.14016 -3.14486 0
M  V30 843 H 72.4219 -2.62219 -4.24314 0
M  V30 844 H 71.5759 -1.02965 -5.97899 0
M  V30 845 H 70.3149 -0.445808 -4.85658 0
M  V30 846 H 69.3199 -2.74871 -4.76157 0
M  V30 847 H 70.5449 -3.33024 -5.91837 0
M  V30 848 H 68.4909 -1.15208 -6.45804 0
M  V30 849 H 68.4079 -2.78687 -7.02759 0
M  V30 850 H 69.6759 -1.7432 -7.59758 0
M  V30 851 N 73.905 1.17692 -1.04816 0
M  V30 852 C 74.868 2.19787 -0.650117 0
M  V30 853 C 75.868 1.58044 0.296427 0
M  V30 854 O 77.058 1.74012 0.0808097 0
M  V30 855 C 74.19 3.40869 0.0456987 0
M  V30 856 H 75.383 2.56516 -1.5537 0
M  V30 857 H 72.936 1.31708 -0.841594 0
M  V30 858 H 73.671 3.09681 0.962726 0
M  V30 859 H 73.456 3.86928 -0.634727 0
M  V30 860 H 74.946 4.16445 0.310432 0
M  V30 861 N 75.3831 0.828654 1.34056 0
M  V30 862 C 76.3151 0.212052 2.28217 0
M  V30 863 C 77.3281 -0.601362 1.51286 0
M  V30 864 O 78.5171 -0.430104 1.73241 0
M  V30 865 C 75.6171 -0.72088 3.31144 0
M  V30 866 C 74.7901 0.0509587 4.3737 0
M  V30 867 C 73.8491 -0.803766 5.20025 0
M  V30 868 O 72.8751 -0.246667 5.68665 0
M  V30 869 N 74.0771 -2.1227 5.40298 0
M  V30 870 H 76.8421 1.02105 2.81771 0
M  V30 871 H 74.4031 0.686153 1.46641 0
M  V30 872 H 76.3951 -1.29742 3.8334 0
M  V30 873 H 74.9651 -1.43061 2.77943 0
M  V30 874 H 74.1851 0.808831 3.85813 0
M  V30 875 H 75.4731 0.582065 5.0546 0
M  V30 876 H 74.8711 -2.59898 5.02464 0
M  V30 877 H 73.4281 -2.64796 5.95589 0
M  V30 878 N 76.8612 -1.46375 0.584142 0
M  V30 879 C 77.8092 -2.32042 -0.161047 0
M  V30 880 C 78.8032 -1.44569 -0.882966 0
M  V30 881 O 80.0092 -1.61186 -0.801191 0
M  V30 882 H 76.3842 -0.748659 -0.0708033 0
M  V30 883 H 78.3552 -2.92704 0.580269 0
M  V30 884 C 77.1042 -3.27762 -1.1605 0
M  V30 885 H 76.4272 -3.95051 -0.614419 0
M  V30 886 H 77.8672 -3.90481 -1.65228 0
M  V30 887 C 76.3262 -2.53218 -2.22221 0
M  V30 888 O 76.8562 -2.29628 -3.29597 0
M  V30 889 N 75.0622 -2.13756 -1.96868 0
M  V30 890 H 74.6092 -2.33142 -1.09557 0
M  V30 891 H 74.5672 -1.642 -2.68115 0
M  V30 892 N 78.3393 -0.321999 -1.54275 0
M  V30 893 C 79.2863 0.544664 -2.24281 0
M  V30 894 C 80.2563 1.1129 -1.23303 0
M  V30 895 O 81.4413 1.15354 -1.51981 0
M  V30 896 C 78.5813 1.70045 -3.00298 0
M  V30 897 C 77.6943 1.16159 -4.1609 0
M  V30 898 C 76.8293 2.28293 -4.79641 0
M  V30 899 C 75.8683 1.71648 -5.8754 0
M  V30 900 N 75.0053 2.77438 -6.44959 0
M  V30 901 H 79.8453 -0.0588907 -2.97942 0
M  V30 902 H 77.3823 -0.0408345 -1.47043 0
M  V30 903 H 79.3403 2.38054 -3.42616 0
M  V30 904 H 77.9703 2.27531 -2.28975 0
M  V30 905 H 77.0223 0.373092 -3.78566 0
M  V30 906 H 78.3343 0.707087 -4.93763 0
M  V30 907 H 77.4883 3.0421 -5.2492 0
M  V30 908 H 76.2273 2.77079 -4.01346 0
M  V30 909 H 75.2323 0.942282 -5.41665 0
M  V30 910 H 76.4573 1.23741 -6.67731 0
M  V30 911 H 74.4033 3.25519 -5.69538 0
M  V30 912 H 74.3203 2.36547 -7.1804 0
M  V30 913 H 75.5883 3.53189 -6.94894 0
M  V30 914 N 79.8174 1.5752 -0.0501392 0
M  V30 915 C 80.7274 2.14952 0.939827 0
M  V30 916 C 81.7434 1.10706 1.34239 0
M  V30 917 O 82.9194 1.42869 1.41952 0
M  V30 918 C 79.9844 2.68232 2.19665 0
M  V30 919 C 79.0454 3.87272 1.85253 0
M  V30 920 C 78.2784 4.38002 3.04943 0
M  V30 921 O 78.5014 3.87811 4.18281 0
M  V30 922 O 77.4354 5.29602 2.86017 0
M  V30 923 H 81.2614 2.9986 0.481392 0
M  V30 924 H 78.8464 1.4841 0.171699 0
M  V30 925 H 80.7284 3.02475 2.93406 0
M  V30 926 H 79.4034 1.86395 2.64648 0
M  V30 927 H 78.3104 3.5792 1.0883 0
M  V30 928 H 79.6434 4.70336 1.4507 0
M  V30 929 N 81.2955 -0.223234 1.56011 0
M  V30 930 C 82.5235 -0.964812 1.83027 0
M  V30 931 C 82.9385 -1.78013 0.62904 0
M  V30 932 O 82.2955 -1.78008 -0.402414 0
M  V30 933 C 82.3465 -1.88373 3.08542 0
M  V30 934 O 82.0675 -1.10137 4.2403 0
M  V30 935 C 83.5685 -2.73934 3.48533 0
M  V30 936 H 80.7885 -0.282842 0.608475 0
M  V30 937 H 83.3325 -0.238971 2.03099 0
M  V30 938 H 81.4875 -2.56354 2.9045 0
M  V30 939 H 81.9015 -1.72501 4.95322 0
M  V30 940 H 83.3755 -3.34117 4.39397 0
M  V30 941 H 83.8525 -3.46244 2.70207 0
M  V30 942 H 84.4585 -2.11369 3.69057 0
M  V30 943 N 82.7736 -1.49793 -0.48987 0
M  V30 944 C 83.9986 -1.63836 -1.27172 0
M  V30 945 C 84.4236 -0.31402 -1.8546 0
M  V30 946 O 83.7816 0.719803 -1.66399 0
M  V30 947 C 83.8296 -2.71797 -2.36978 0
M  V30 948 O 82.9336 -2.31744 -3.41128 0
M  V30 949 H 82.2746 -0.547997 -0.37496 0
M  V30 950 H 84.8046 -1.96053 -0.585191 0
M  V30 951 H 84.8146 -2.94305 -2.82575 0
M  V30 952 H 83.4896 -3.67923 -1.93921 0
M  V30 953 H 82.0666 -2.1961 -3.01373 0
M  V30 954 N 84.2517 0.741722 -1.39055 0
M  V30 955 C 85.4977 1.50336 -1.36113 0
M  V30 956 C 85.8307 1.94148 0.0450796 0
M  V30 957 O 85.1057 1.66301 1.00868 0
M  V30 958 C 85.3887 2.74773 -2.32749 0
M  V30 959 C 85.2417 2.37023 -3.82283 0
M  V30 960 C 86.5607 3.76846 -2.27322 0
M  V30 961 H 83.6797 0.545351 -0.495743 0
M  V30 962 H 86.3217 0.848624 -1.69995 0
M  V30 963 H 84.4717 3.30639 -2.03986 0
M  V30 964 H 86.1437 1.8684 -4.21768 0
M  V30 965 H 84.3867 1.69334 -3.99385 0
M  V30 966 H 85.0577 3.26104 -4.45376 0
M  V30 967 H 87.5337 3.30548 -2.5274 0
M  V30 968 H 86.4097 4.6159 -2.97028 0
M  V30 969 H 86.6707 4.23286 -1.27599 0
M  V30 970 N 85.7298 1.2412 0.971189 0
M  V30 971 C 86.6598 1.05508 2.08304 0
M  V30 972 C 87.6408 -0.0308864 1.70072 0
M  V30 973 O 88.8258 0.135521 1.93727 0
M  V30 974 C 85.9558 0.655365 3.4106 0
M  V30 975 C 84.9098 1.68971 3.93234 0
M  V30 976 C 84.2358 1.14516 5.22293 0
M  V30 977 C 85.5358 3.08487 4.21465 0
M  V30 978 H 87.2298 1.98507 2.24132 0
M  V30 979 H 84.7758 0.955821 1.07704 0
M  V30 980 H 86.7288 0.51217 4.18276 0
M  V30 981 H 85.4528 -0.31032 3.25122 0
M  V30 982 H 84.1118 1.82106 3.18171 0
M  V30 983 H 83.7598 0.170189 5.02712 0
M  V30 984 H 83.4598 1.83635 5.58168 0
M  V30 985 H 84.9838 1.01401 6.02121 0
M  V30 986 H 86.3978 2.98601 4.89398 0
M  V30 987 H 84.7948 3.74926 4.68562 0
M  V30 988 H 85.8648 3.56787 3.28376 0
M  V30 989 N 87.2079 -1.17134 1.05439 0
M  V30 990 C 88.1709 -2.19439 0.661764 0
M  V30 991 C 89.1709 -1.58199 -0.288042 0
M  V30 992 O 90.3609 -1.74053 -0.0715803 0
M  V30 993 C 87.4929 -3.40889 -0.0276209 0
M  V30 994 H 88.6859 -2.55688 1.56728 0
M  V30 995 H 86.2389 -1.31259 0.848567 0
M  V30 996 H 86.9739 -3.10187 -0.94629 0
M  V30 997 H 86.7589 -3.86586 0.655238 0
M  V30 998 H 88.2489 -4.16603 -0.288342 0
M  V30 999 N 88.686 -0.835752 -1.33615 0
M  V30 1000 C 89.649 -0.272 -2.2758 0
M  V30 1001 C 90.649 0.557487 -1.50827 0
M  V30 1002 O 91.839 0.37173 -1.70188 0
M  V30 1003 C 88.971 0.617173 -3.35267 0
M  V30 1004 H 90.164 -1.10111 -2.78954 0
M  V30 1005 H 87.717 -0.608594 -1.43965 0
M  V30 1006 H 88.452 1.46884 -2.89129 0
M  V30 1007 H 88.237 0.0237066 -3.92093 0
M  V30 1008 H 89.727 1.005 -4.05326 0
M  V30 1009 N 90.1641 1.46063 -0.591896 0
M  V30 1010 C 91.1271 2.28854 0.125973 0
M  V30 1011 C 92.1271 1.38903 0.810107 0
M  V30 1012 O 93.3171 1.61186 0.66066 0
M  V30 1013 C 90.4491 3.19526 1.1881 0
M  V30 1014 H 91.6421 2.93802 -0.601717 0
M  V30 1015 H 89.1951 1.52325 -0.350254 0
M  V30 1016 H 89.9301 2.59345 1.94707 0
M  V30 1017 H 89.7151 3.85766 0.701936 0
M  V30 1018 H 91.2051 3.81817 1.69132 0
M  V30 1019 N 91.6422 0.330177 1.54103 0
M  V30 1020 C 92.5892 -0.532762 2.24567 0
M  V30 1021 C 93.5592 -1.10635 1.23892 0
M  V30 1022 O 94.7442 -1.14546 1.5259 0
M  V30 1023 C 91.8842 -1.6845 3.01195 0
M  V30 1024 C 90.9972 -1.13951 4.167 0
M  V30 1025 C 90.1322 -2.25746 4.80845 0
M  V30 1026 C 89.1712 -1.6853 5.88442 0
M  V30 1027 N 88.3082 -2.74014 6.46421 0
M  V30 1028 H 93.1482 0.0746905 2.97906 0
M  V30 1029 H 90.6852 0.048632 1.4702 0
M  V30 1030 H 92.6432 -2.36234 3.43874 0
M  V30 1031 H 91.2732 -2.26314 2.30178 0
M  V30 1032 H 90.3252 -0.35301 3.78758 0
M  V30 1033 H 91.6372 -0.680892 4.94131 0
M  V30 1034 H 90.7912 -3.01422 5.26526 0
M  V30 1035 H 89.5302 -2.74947 4.0281 0
M  V30 1036 H 88.5352 -0.913543 5.42157 0
M  V30 1037 H 89.7602 -1.20198 6.68378 0
M  V30 1038 H 87.7062 -3.22494 5.71256 0
M  V30 1039 H 87.6232 -2.32735 7.19285 0
M  V30 1040 H 88.8912 -3.49499 6.96757 0
M  V30 1041 N 93.1203 -1.57491 0.0584922 0
M  V30 1042 C 94.3663 -1.93264 -0.614558 0
M  V30 1043 C 94.6993 -0.937717 -1.7006 0
M  V30 1044 O 93.9743 0.0351652 -1.94468 0
M  V30 1045 C 94.2573 -3.3938 -1.20386 0
M  V30 1046 C 94.1103 -4.49625 -0.125375 0
M  V30 1047 C 95.4293 -3.86039 -2.11334 0
M  V30 1048 H 92.5483 -0.702791 -0.221933 0
M  V30 1049 H 95.1903 -1.8961 0.12175 0
M  V30 1050 H 93.3403 -3.42626 -1.83139 0
M  V30 1051 H 95.0123 -4.58506 0.506971 0
M  V30 1052 H 93.2553 -4.30354 0.545672 0
M  V30 1053 H 93.9263 -5.48967 -0.577861 0
M  V30 1054 H 96.4023 -3.84716 -1.58534 0
M  V30 1055 H 95.2783 -4.88914 -2.49507 0
M  V30 1056 H 95.5393 -3.23215 -3.01636 0
M  V30 1057 N 94.5984 0.214957 -1.56127 0
M  V30 1058 C 95.8474 0.936451 -1.78643 0
M  V30 1059 C 96.1604 1.85237 -0.628229 0
M  V30 1060 O 97.3664 2.613 -0.737186 0
M  V30 1061 C 95.8224 1.7154 -3.16389 0
M  V30 1062 C 95.4304 0.845299 -4.39953 0
M  V30 1063 C 97.1744 2.42772 -3.48227 0
M  V30 1064 C 95.0814 1.62198 -5.68723 0
M  V30 1065 H 94.0114 0.353401 -0.666051 0
M  V30 1066 H 96.6624 0.190169 -1.82512 0
M  V30 1067 H 95.0444 2.50484 -3.06715 0
M  V30 1068 H 96.2184 0.0959353 -4.607 0
M  V30 1069 H 94.5334 0.244789 -4.1568 0
M  V30 1070 H 97.1304 3.01394 -4.41663 0
M  V30 1071 H 97.4734 3.15984 -2.71035 0
M  V30 1072 H 98.0064 1.70813 -3.5926 0
M  V30 1073 H 94.7454 0.933011 -6.48826 0
M  V30 1074 H 94.2654 2.34579 -5.52026 0
M  V30 1075 H 95.9444 2.18095 -6.09133 0
M  V30 1076 N 96.0765 1.50051 0.48192 0
M  V30 1077 C 97.3535 1.51009 1.2432 0
M  V30 1078 C 97.7335 0.248587 2.09631 0
M  V30 1079 O 97.0815 -0.768409 2.15192 0
M  V30 1080 C 97.2915 2.79981 2.08355 0
M  V30 1081 C 98.6395 3.3022 2.66908 0
M  V30 1082 O 99.6635 2.81228 2.18607 0
M  V30 1083 O 98.5225 4.15595 3.54884 0
M  V30 1084 H 95.6165 0.605239 0.563573 0
M  V30 1085 H 98.1625 1.62332 0.494627 0
M  V30 1086 H 96.9345 3.63275 1.45419 0
M  V30 1087 H 96.5575 2.7161 2.90368 0
M  V30 1088 N 97.5546 -0.734337 1.39446 0
M  V30 1089 C 98.7826 -1.52358 1.39981 0
M  V30 1090 C 99.1976 -1.88799 -0.0054975 0
M  V30 1091 O 98.5546 -1.54146 -0.976998 0
M  V30 1092 C 98.6056 -2.81072 2.27333 0
M  V30 1093 O 98.3266 -2.46178 3.62392 0
M  V30 1094 C 99.8276 -3.75096 2.36259 0
M  V30 1095 H 97.0476 -0.470806 0.478103 0
M  V30 1096 H 99.5916 -0.907339 1.83269 0
M  V30 1097 H 97.7466 -3.39026 1.87457 0
M  V30 1098 H 98.1606 -3.28866 4.08592 0
M  V30 1099 H 99.6346 -4.62305 3.01626 0
M  V30 1100 H 100.112 -4.16892 1.38194 0
M  V30 1101 H 100.718 -3.23061 2.76608 0
M  V30 1102 N 99.0327 -1.24633 -0.964593 0
M  V30 1103 C 99.9797 -1.04144 -2.05968 0
M  V30 1104 C 100.95 0.046262 -1.66036 0
M  V30 1105 O 102.135 -0.108972 -1.90489 0
M  V30 1106 C 99.2747 -0.65563 -3.38815 0
M  V30 1107 C 98.3877 -1.81714 -3.91923 0
M  V30 1108 C 97.5227 -1.37662 -5.13052 0
M  V30 1109 C 96.5617 -2.50788 -5.58365 0
M  V30 1110 N 95.6987 -2.07582 -6.70712 0
M  V30 1111 H 100.539 -1.9787 -2.22827 0
M  V30 1112 H 98.0757 -0.9855 -1.09208 0
M  V30 1113 H 100.034 -0.412954 -4.15151 0
M  V30 1114 H 98.6637 0.244627 -3.21872 0
M  V30 1115 H 97.7157 -2.1734 -3.12198 0
M  V30 1116 H 99.0277 -2.66705 -4.21509 0
M  V30 1117 H 98.1817 -1.093 -5.96773 0
M  V30 1118 H 96.9207 -0.497293 -4.85158 0
M  V30 1119 H 95.9257 -2.79906 -4.73215 0
M  V30 1120 H 97.1507 -3.39283 -5.88272 0
M  V30 1121 H 95.0967 -1.22051 -6.44546 0
M  V30 1122 H 95.0137 -2.86125 -6.99763 0
M  V30 1123 H 96.2817 -1.82369 -7.57867 0
M  V30 1124 N 100.511 1.16574 -1.06058 0
M  V30 1125 C 101.736 1.91493 -0.796562 0
M  V30 1126 C 102.161 1.76773 0.642868 0
M  V30 1127 O 101.519 1.09142 1.44768 0
M  V30 1128 C 101.567 3.40293 -1.19303 0
M  V30 1129 O 100.671 4.11074 -0.330394 0
M  V30 1130 H 100.012 0.596678 -0.291326 0
M  V30 1131 H 102.542 1.47708 -1.41575 0
M  V30 1132 H 102.552 3.91057 -1.16356 0
M  V30 1133 H 101.227 3.50326 -2.24153 0
M  V30 1134 H 99.8038 3.70513 -0.421225 0
M  V30 1135 N 101.989 0.842826 1.3317 0
M  V30 1136 C 102.899 0.281444 2.32906 0
M  V30 1137 C 103.915 -0.594587 1.63526 0
M  V30 1138 O 105.091 -0.49777 1.95152 0
M  V30 1139 C 102.156 -0.530929 3.42611 0
M  V30 1140 C 101.217 0.369843 4.27704 0
M  V30 1141 C 100.45 -0.403853 5.3217 0
M  V30 1142 O 100.673 -1.63513 5.46461 0
M  V30 1143 O 99.6069 0.224199 6.01482 0
M  V30 1144 H 103.433 1.10744 2.82789 0
M  V30 1145 H 101.018 0.60545 1.36582 0
M  V30 1146 H 102.9 -0.992437 4.09547 0
M  V30 1147 H 101.575 -1.33392 2.94938 0
M  V30 1148 H 100.482 0.879275 3.6362 0
M  V30 1149 H 101.815 1.13771 4.78871 0
M  V30 1150 N 103.467 -1.45747 0.599634 0
M  V30 1151 C 104.377 -2.34262 -0.125888 0
M  V30 1152 C 105.393 -1.50768 -0.868625 0
M  V30 1153 O 106.569 -1.83592 -0.828003 0
M  V30 1154 C 103.634 -3.28252 -1.11587 0
M  V30 1155 C 102.695 -4.27651 -0.375956 0
M  V30 1156 C 101.928 -5.1715 -1.31877 0
M  V30 1157 O 102.151 -5.09916 -2.55621 0
M  V30 1158 O 101.085 -5.96286 -0.820157 0
M  V30 1159 H 104.911 -2.97688 0.601315 0
M  V30 1160 H 102.496 -1.44999 0.359934 0
M  V30 1161 H 104.378 -3.86191 -1.68626 0
M  V30 1162 H 103.053 -2.67401 -1.82424 0
M  V30 1163 H 101.96 -3.7335 0.236698 0
M  V30 1164 H 103.293 -4.91334 0.29177 0
M  V30 1165 N 104.945 -0.338344 -1.53925 0
M  V30 1166 C 105.855 0.529421 -2.28548 0
M  V30 1167 C 106.871 1.11645 -1.3346 0
M  V30 1168 O 108.047 1.13325 -1.66492 0
M  V30 1169 C 105.112 1.66713 -3.03987 0
M  V30 1170 C 104.173 1.11041 -4.14691 0
M  V30 1171 C 103.406 2.19389 -4.86522 0
M  V30 1172 O 103.629 3.40013 -4.57982 0
M  V30 1173 O 102.563 1.83976 -5.73094 0
M  V30 1174 H 106.389 -0.0770399 -3.03602 0
M  V30 1175 H 103.974 -0.103555 -1.49041 0
M  V30 1176 H 105.856 2.32918 -3.5118 0
M  V30 1177 H 104.531 2.25949 -2.31794 0
M  V30 1178 H 103.438 0.413024 -3.71813 0
M  V30 1179 H 104.771 0.562975 -4.8897 0
M  V30 1180 N 106.423 1.57458 -0.0668435 0
M  V30 1181 C 107.353 2.15468 0.899764 0
M  V30 1182 C 108.334 1.08042 1.31381 0
M  V30 1183 O 109.519 1.36054 1.38574 0
M  V30 1184 C 106.649 2.71232 2.16911 0
M  V30 1185 C 105.603 3.83781 1.89463 0
M  V30 1186 C 104.929 4.26127 3.22986 0
M  V30 1187 C 106.229 5.08238 1.20381 0
M  V30 1188 H 107.923 2.96488 0.416529 0
M  V30 1189 H 105.469 1.4262 0.198908 0
M  V30 1190 H 107.422 3.10458 2.84945 0
M  V30 1191 H 106.146 1.87426 2.67468 0
M  V30 1192 H 104.805 3.45051 1.23836 0
M  V30 1193 H 104.453 3.39249 3.71374 0
M  V30 1194 H 104.153 5.01993 3.05413 0
M  V30 1195 H 105.677 4.67966 3.92225 0
M  V30 1196 H 107.091 5.44811 1.78475 0
M  V30 1197 H 105.488 5.89349 1.13083 0
M  V30 1198 H 106.558 4.84558 0.182153 0
M  V30 1199 N 107.901 -0.206675 1.56239 0
M  V30 1200 C 108.811 -1.27686 1.96808 0
M  V30 1201 C 109.827 -1.50455 0.874035 0
M  V30 1202 O 111.003 -1.63295 1.17884 0
M  V30 1203 C 108.068 -2.60358 2.28942 0
M  V30 1204 C 107.129 -2.45762 3.51994 0
M  V30 1205 C 106.362 -3.72108 3.82585 0
M  V30 1206 O 106.585 -4.75776 3.14631 0
M  V30 1207 O 105.519 -3.6833 4.76043 0
M  V30 1208 H 109.345 -0.962593 2.88041 0
M  V30 1209 H 106.93 -0.410746 1.43643 0
M  V30 1210 H 108.812 -3.38687 2.50737 0
M  V30 1211 H 107.487 -2.91435 1.4088 0
M  V30 1212 H 106.394 -1.65584 3.35459 0
M  V30 1213 H 107.727 -2.19621 4.40486 0
M  V30 1214 N 109.379 -1.50304 -0.473955 0
M  V30 1215 C 110.656 -1.51667 -1.23518 0
M  V30 1216 C 111.036 -0.259701 -2.09496 0
M  V30 1217 O 110.384 0.756986 -2.15597 0
M  V30 1218 C 110.594 -2.81082 -2.06868 0
M  V30 1219 C 111.942 -3.31631 -2.65153 0
M  V30 1220 O 112.966 -2.82384 -2.17113 0
M  V30 1221 O 111.825 -4.17471 -3.52675 0
M  V30 1222 H 108.919 -0.60822 -0.560355 0
M  V30 1223 H 111.465 -1.62592 -0.486011 0
M  V30 1224 H 110.237 -3.64041 -1.4349 0
M  V30 1225 H 109.86 -2.73146 -2.88924 0
M  V30 1226 N 110.857 0.726932 -1.39834 0
M  V30 1227 C 112.087 1.51393 -1.40583 0
M  V30 1228 C 112.495 1.892 -0.000740625 0
M  V30 1229 O 111.838 1.55189 0.982951 0
M  V30 1230 C 111.9 2.82588 -2.22226 0
M  V30 1231 C 111.564 2.67169 -3.70769 0
M  V30 1232 C 112.561 2.3518 -4.63666 0
M  V30 1233 C 110.246 2.83788 -4.14451 0
M  V30 1234 C 112.24 2.20002 -5.98229 0
M  V30 1235 C 109.927 2.68229 -5.49087 0
M  V30 1236 C 110.925 2.36382 -6.4079 0
M  V30 1237 O 110.613 2.2093 -7.72946 0
M  V30 1238 H 110.345 0.474168 -0.48181 0
M  V30 1239 H 112.899 0.905247 -1.84376 0
M  V30 1240 H 111.129 3.45746 -1.73195 0
M  V30 1241 H 112.818 3.44247 -2.15055 0
M  V30 1242 H 113.584 2.21984 -4.31217 0
M  V30 1243 H 109.463 3.07566 -3.43401 0
M  V30 1244 H 113.007 1.95067 -6.69772 0
M  V30 1245 H 108.904 2.81006 -5.81125 0
M  V30 1246 H 109.672 2.35937 -7.83757 0
M  V30 1247 N 112.336 1.25143 0.95797 0
M  V30 1248 C 113.269 0.995565 2.05338 0
M  V30 1249 C 114.247 -0.0740423 1.62431 0
M  V30 1250 O 115.431 0.0649212 1.88388 0
M  V30 1251 C 112.558 0.504298 3.34925 0
M  V30 1252 C 111.604 1.56393 3.96792 0
M  V30 1253 S 112.437 3.14815 4.33188 0
M  V30 1254 C 113.593 2.67415 5.65898 0
M  V30 1255 H 113.826 1.92309 2.26726 0
M  V30 1256 H 111.359 1.08635 1.09716 0
M  V30 1257 H 113.317 0.227497 4.09869 0
M  V30 1258 H 111.978 -0.402671 3.11508 0
M  V30 1259 H 111.171 1.17082 4.90212 0
M  V30 1260 H 110.773 1.79124 3.28315 0
M  V30 1261 H 113.065 2.10833 6.4386 0
M  V30 1262 H 114.008 3.59463 6.10076 0
M  V30 1263 H 114.416 2.07521 5.24972 0
M  V30 1264 N 113.814 -1.1601 1.06675 0
M  V30 1265 C 115.06 -1.86909 0.786945 0
M  V30 1266 C 115.393 -1.81717 -0.685018 0
M  V30 1267 O 114.668 -1.23551 -1.50218 0
M  V30 1268 C 114.951 -3.36313 1.28707 0
M  V30 1269 C 114.804 -3.50175 2.82308 0
M  V30 1270 C 116.123 -4.3084 0.898071 0
M  V30 1271 H 113.242 -0.678677 0.287343 0
M  V30 1272 H 115.884 -1.36336 1.32334 0
M  V30 1273 H 114.034 -3.79513 0.830768 0
M  V30 1274 H 115.706 -3.15886 3.36175 0
M  V30 1275 H 113.949 -2.91959 3.20847 0
M  V30 1276 H 114.62 -4.55116 3.12368 0
M  V30 1277 H 117.096 -3.95561 1.29114 0
M  V30 1278 H 115.972 -5.33876 1.27543 0
M  V30 1279 H 116.233 -4.41662 -0.196651 0
M  V30 1280 N 115.292 -0.849877 -1.32721 0
M  V30 1281 C 116.202 -0.293791 -2.32753 0
M  V30 1282 C 117.218 0.585906 -1.63839 0
M  V30 1283 O 118.394 0.487413 -1.95413 0
M  V30 1284 C 115.459 0.512752 -3.42887 0
M  V30 1285 C 114.52 -0.39252 -4.27502 0
M  V30 1286 C 113.753 0.375625 -5.32377 0
M  V30 1287 O 113.976 1.60613 -5.4732 0
M  V30 1288 O 112.91 -0.256094 -6.01355 0
M  V30 1289 H 116.736 -1.12242 -2.82197 0
M  V30 1290 H 114.321 -0.612685 -1.36259 0
M  V30 1291 H 116.203 0.970704 -4.10067 0
M  V30 1292 H 114.878 1.31826 -2.95641 0
M  V30 1293 H 113.785 -0.898547 -3.63149 0
M  V30 1294 H 115.118 -1.16309 -4.7826 0
M  V30 1295 N 116.77 1.45427 -0.607355 0
M  V30 1296 C 118.019 2.01452 -0.100036 0
M  V30 1297 C 118.332 1.48159 1.27704 0
M  V30 1298 O 119.538 1.96159 1.87707 0
M  V30 1299 C 117.994 3.59672 -0.128158 0
M  V30 1300 C 117.602 4.21962 -1.50507 0
M  V30 1301 C 119.346 4.23262 0.323932 0
M  V30 1302 C 117.253 5.72333 -1.48959 0
M  V30 1303 H 116.183 0.75325 -0.0336299 0
M  V30 1304 H 118.834 1.66901 -0.76265 0
M  V30 1305 H 117.216 3.91411 0.601105 0
M  V30 1306 H 118.39 4.01796 -2.25602 0
M  V30 1307 H 116.705 3.70565 -1.89923 0
M  V30 1308 H 119.302 5.33522 0.354691 0
M  V30 1309 H 119.645 3.93921 1.34656 0
M  V30 1310 H 120.178 3.96239 -0.352056 0
M  V30 1311 H 116.917 6.06373 -2.48981 0
M  V30 1312 H 116.437 5.94691 -0.781214 0
M  V30 1313 H 118.116 6.35525 -1.21313 0
M  V30 1314 N 118.248 0.346503 1.53744 0
M  V30 1315 C 119.525 -0.304532 1.93215 0
M  V30 1316 C 119.905 -1.67993 1.27834 0
M  V30 1317 O 119.253 -2.24411 0.430352 0
M  V30 1318 C 119.463 -0.373852 3.46992 0
M  V30 1319 C 120.811 -0.62329 4.2 0
M  V30 1320 O 121.835 -0.455847 3.53271 0
M  V30 1321 O 120.694 -0.947879 5.38217 0
M  V30 1322 H 117.788 -0.178318 0.807547 0
M  V30 1323 H 120.334 0.397895 1.64969 0
M  V30 1324 H 119.106 0.591224 3.86808 0
M  V30 1325 H 118.729 -1.12294 3.81413 0
M  V30 1326 N 119.726 -1.57421 0.075193 0
M  V30 1327 C 120.975 -1.92794 -0.592731 0
M  V30 1328 C 121.288 -0.957478 -1.70563 0
M  V30 1329 O 122.494 -1.20417 -2.43335 0
M  V30 1330 C 120.95 -3.42495 -1.10569 0
M  V30 1331 C 120.558 -4.47994 -0.0236121 0
M  V30 1332 C 122.302 -3.86864 -1.74748 0
M  V30 1333 C 120.209 -5.88829 -0.550803 0
M  V30 1334 H 119.139 -0.719591 -0.225177 0
M  V30 1335 H 121.79 -1.82902 0.147978 0
M  V30 1336 H 120.172 -3.47471 -1.89947 0
M  V30 1337 H 121.346 -4.54637 0.751099 0
M  V30 1338 H 119.661 -4.13113 0.522159 0
M  V30 1339 H 122.258 -4.8947 -2.15229 0
M  V30 1340 H 122.601 -3.24417 -2.60882 0
M  V30 1341 H 123.134 -3.84504 -1.01986 0
M  V30 1342 H 119.873 -6.54929 0.273457 0
M  V30 1343 H 119.393 -5.85698 -1.29296 0
M  V30 1344 H 121.072 -6.38811 -1.02613 0
M  V30 1345 N 121.204 0.198386 -1.56346 0
M  V30 1346 C 122.134 1.24865 -1.9731 0
M  V30 1347 C 123.115 1.47651 -0.844576 0
M  V30 1348 O 124.3 1.59444 -1.10866 0
M  V30 1349 C 121.43 2.59358 -2.30977 0
M  V30 1350 C 120.384 2.5119 -3.46537 0
M  V30 1351 C 119.71 3.89926 -3.65871 0
M  V30 1352 C 121.01 2.03977 -4.80823 0
M  V30 1353 H 122.704 0.908252 -2.85291 0
M  V30 1354 H 120.25 0.435462 -1.37258 0
M  V30 1355 H 122.203 3.33011 -2.58228 0
M  V30 1356 H 120.927 2.95132 -1.39874 0
M  V30 1357 H 119.586 1.79993 -3.19371 0
M  V30 1358 H 119.234 4.23046 -2.72105 0
M  V30 1359 H 118.934 3.85336 -4.4361 0
M  V30 1360 H 120.458 4.65205 -3.95495 0
M  V30 1361 H 121.872 2.67386 -5.07127 0
M  V30 1362 H 120.269 2.10397 -5.62008 0
M  V30 1363 H 121.339 0.992861 -4.74626 0
M  V30 1364 N 122.682 1.50554 0.465978 0
M  V30 1365 C 123.645 1.69233 1.54574 0
M  V30 1366 C 124.645 0.562901 1.50626 0
M  V30 1367 O 125.835 0.830016 1.53155 0
M  V30 1368 C 122.967 1.7223 2.94193 0
M  V30 1369 H 124.16 2.65571 1.39327 0
M  V30 1370 H 121.713 1.40111 0.692711 0
M  V30 1371 H 122.448 0.77603 3.14878 0
M  V30 1372 H 122.233 2.54285 2.98466 0
M  V30 1373 H 123.723 1.88618 3.72576 0
M  V30 1374 N 124.16 -0.719506 1.40217 0
M  V30 1375 C 125.385 -1.51371 1.4178 0
M  V30 1376 C 125.81 -1.88091 0.0182355 0
M  V30 1377 O 125.168 -1.52997 -0.972707 0
M  V30 1378 C 125.216 -2.768 2.31115 0
M  V30 1379 O 124.32 -3.73349 1.7517 0
M  V30 1380 H 123.661 -0.456529 0.482159 0
M  V30 1381 H 126.191 -0.88644 1.844 0
M  V30 1382 H 126.201 -3.25371 2.46167 0
M  V30 1383 H 124.876 -2.49407 3.3282 0
M  V30 1384 H 123.453 -3.32179 1.69444 0
M  V30 1385 N 125.638 -1.25649 -0.95132 0
M  V30 1386 C 126.878 -1.11802 -1.71113 0
M  V30 1387 C 127.242 0.334758 -1.89059 0
M  V30 1388 O 128.443 0.595121 -2.62129 0
M  V30 1389 C 126.714 -1.85512 -3.05483 0
M  V30 1390 S 128.273 -1.87597 -3.96677 0
M  V30 1391 H 125.091 -0.399552 -0.588115 0
M  V30 1392 H 127.693 -1.59222 -1.1344 0
M  V30 1393 H 126.397 -2.90299 -2.90094 0
M  V30 1394 H 125.928 -1.38493 -3.68216 0
M  V30 1395 H 127.943 -0.955389 -4.86916 0
M  V30 1396 N 127.117 1.15442 -1.07289 0
M  V30 1397 C 128.394 1.82306 -0.708792 0
M  V30 1398 C 128.774 1.94991 0.808807 0
M  V30 1399 O 128.122 1.50085 1.72298 0
M  V30 1400 C 128.332 3.18695 -1.42247 0
M  V30 1401 C 129.68 3.94341 -1.57417 0
M  V30 1402 O 130.704 3.28247 -1.38319 0
M  V30 1403 O 129.563 5.12839 -1.88834 0
M  V30 1404 H 126.657 0.787628 -0.252132 0
M  V30 1405 H 129.203 1.22559 -1.17377 0
M  V30 1406 H 127.975 3.04557 -2.45684 0
M  V30 1407 H 127.598 3.86128 -0.948223 0
M  V30 1408 N 128.595 0.856903 1.32268 0
M  V30 1409 C 129.545 0.274899 2.26337 0
M  V30 1410 C 130.529 -0.580543 1.50062 0
M  V30 1411 O 131.721 -0.429559 1.71708 0
M  V30 1412 C 128.85 -0.533841 3.39124 0
M  V30 1413 C 127.936 0.334114 4.22782 0
M  V30 1414 N 128.327 1.42143 4.85416 0
M  V30 1415 C 126.625 0.124256 4.45827 0
M  V30 1416 C 127.326 1.95559 5.47843 0
M  V30 1417 N 126.302 1.25444 5.28928 0
M  V30 1418 H 130.104 1.10612 2.72291 0
M  V30 1419 H 127.618 0.703258 1.46383 0
M  V30 1420 H 129.615 -0.96722 4.05525 0
M  V30 1421 H 128.275 -1.36283 2.94715 0
M  V30 1422 H 129.286 1.80436 4.85451 0
M  V30 1423 H 125.963 -0.669837 4.12092 0
M  V30 1424 H 127.353 2.86714 6.07655 0
M  V30 1425 N 130.073 -1.45103 0.615059 0
M  V30 1426 C 131.484 -1.85654 0.197383 0
M  V30 1427 C 131.835 -1.51433 -1.24749 0
M  V30 1428 O 130.96 -0.944608 -1.94695 0
M  V30 1429 C 131.555 -3.36972 0.351448 0
M  V30 1430 C 130.114 -3.76398 -0.011593 0
M  V30 1431 C 129.261 -2.69024 0.672394 0
M  V30 1432 H 132.212 -1.35797 0.821263 0
M  V30 1433 H 132.233 -3.78239 -0.414227 0
M  V30 1434 H 131.745 -3.61847 1.40314 0
M  V30 1435 H 129.846 -3.5714 -1.06217 0
M  V30 1436 H 129.959 -4.77532 0.387265 0
M  V30 1437 H 128.323 -2.54465 0.109284 0
M  V30 1438 H 129.106 -2.96735 1.72636 0
M  V30 1439 N 131.551 -0.354651 -1.53558 0
M  V30 1440 C 132.499 0.512195 -2.26891 0
M  V30 1441 C 133.493 1.09263 -1.29452 0
M  V30 1442 O 134.699 1.03709 -1.47121 0
M  V30 1443 H 131.074 0.183878 -0.729173 0
M  V30 1444 H 133.045 -0.128202 -2.98124 0
M  V30 1445 C 131.794 1.64563 -3.06291 0
M  V30 1446 H 131.117 1.20829 -3.81104 0
M  V30 1447 H 132.557 2.22711 -3.60799 0
M  V30 1448 C 131.016 2.58158 -2.16462 0
M  V30 1449 O 131.546 3.60695 -1.76811 0
M  V30 1450 N 129.752 2.27096 -1.81317 0
M  V30 1451 H 129.299 1.43751 -2.1376 0
M  V30 1452 H 129.257 2.89975 -1.21498 0
M  V30 1453 N 133.029 1.57378 -0.0835403 0
M  V30 1454 C 134.278 1.93106 0.582498 0
M  V30 1455 C 134.591 0.96651 1.70053 0
M  V30 1456 O 135.797 1.21705 2.42693 0
M  V30 1457 C 134.253 3.43076 1.08751 0
M  V30 1458 C 133.861 4.48 -0.000146404 0
M  V30 1459 C 135.605 3.87785 1.72694 0
M  V30 1460 C 133.512 5.89113 0.519568 0
M  V30 1461 H 132.442 0.720775 0.221358 0
M  V30 1462 H 135.093 1.82821 -0.157675 0
M  V30 1463 H 133.475 3.48474 1.88101 0
M  V30 1464 H 134.649 4.54233 -0.775199 0
M  V30 1465 H 132.964 4.1283 -0.54406 0
M  V30 1466 H 135.561 4.90604 2.1263 0
M  V30 1467 H 135.904 3.25796 2.59158 0
M  V30 1468 H 136.437 3.8504 0.999457 0
M  V30 1469 H 133.176 6.54775 -0.308186 0
M  V30 1470 H 132.696 5.86376 1.26188 0
M  V30 1471 H 134.375 6.39346 0.992237 0
M  V30 1472 N 134.507 -0.190092 1.56449 0
M  V30 1473 C 135.753 -0.911052 1.81184 0
M  V30 1474 C 136.086 -1.82699 0.658396 0
M  V30 1475 O 135.361 -1.91491 -0.340775 0
M  V30 1476 C 135.644 -1.72297 3.16205 0
M  V30 1477 C 135.497 -0.831419 4.42049 0
M  V30 1478 C 136.816 -2.69454 3.47969 0
M  V30 1479 H 133.935 -0.32977 0.659106 0
M  V30 1480 H 136.577 -0.178169 1.89163 0
M  V30 1481 H 134.727 -2.34778 3.09534 0
M  V30 1482 H 136.399 -0.220929 4.60771 0
M  V30 1483 H 134.642 -0.138406 4.33579 0
M  V30 1484 H 135.313 -1.43461 5.33032 0
M  V30 1485 H 137.789 -2.17104 3.54972 0
M  V30 1486 H 136.665 -3.23342 4.43555 0
M  V30 1487 H 136.926 -3.48744 2.71717 0
M  V30 1488 N 135.985 -1.50799 -0.457987 0
M  V30 1489 C 136.932 -1.70617 -1.5543 0
M  V30 1490 C 137.902 -0.547562 -1.56815 0
M  V30 1491 O 139.087 -0.779647 -1.74144 0
M  V30 1492 C 136.227 -1.81831 -2.93311 0
M  V30 1493 C 135.34 -3.09278 -3.01615 0
M  V30 1494 C 134.475 -3.11209 -4.30491 0
M  V30 1495 C 133.514 -4.33055 -4.32585 0
M  V30 1496 N 132.651 -4.32652 -5.52952 0
M  V30 1497 H 137.491 -2.64207 -1.37836 0
M  V30 1498 H 135.028 -1.30959 -0.669937 0
M  V30 1499 H 136.986 -1.86314 -3.73287 0
M  V30 1500 H 135.616 -0.916685 -3.0951 0
M  V30 1501 H 134.668 -3.14203 -2.1443 0
M  V30 1502 H 135.98 -3.99233 -2.99022 0
M  V30 1503 H 135.134 -3.14494 -5.18824 0
M  V30 1504 H 133.873 -2.19106 -4.35711 0
M  V30 1505 H 132.878 -4.29969 -3.42647 0
M  V30 1506 H 134.103 -5.264 -4.29046 0
M  V30 1507 H 132.049 -3.43409 -5.58933 0
M  V30 1508 H 131.966 -5.16392 -5.52155 0
M  V30 1509 H 133.234 -4.40101 -6.43375 0
M  V30 1510 N 137.463 0.71206 -1.40597 0
M  V30 1511 C 138.393 1.83889 -1.43899 0
M  V30 1512 C 139.374 1.67442 -0.299504 0
M  V30 1513 O 140.559 1.87421 -0.508624 0
M  V30 1514 C 137.689 3.21877 -1.30431 0
M  V30 1515 C 136.643 3.53002 -2.42019 0
M  V30 1516 C 135.969 4.90172 -2.13626 0
M  V30 1517 C 137.269 3.53643 -3.84362 0
M  V30 1518 H 138.963 1.81383 -2.38203 0
M  V30 1519 H 136.509 0.871237 -1.14654 0
M  V30 1520 H 138.462 4.00404 -1.31357 0
M  V30 1521 H 137.186 3.24968 -0.326049 0
M  V30 1522 H 135.845 2.76818 -2.40349 0
M  V30 1523 H 135.493 4.89869 -1.14182 0
M  V30 1524 H 135.193 5.11962 -2.88389 0
M  V30 1525 H 136.717 5.71028 -2.1624 0
M  V30 1526 H 138.131 4.22203 -3.87837 0
M  V30 1527 H 136.528 3.86961 -4.58673 0
M  V30 1528 H 137.598 2.52954 -4.13693 0
M  V30 1529 N 138.941 1.26152 0.944643 0
M  V30 1530 C 139.871 1.09902 2.06019 0
M  V30 1531 C 140.852 0.00519538 1.70099 0
M  V30 1532 O 142.037 0.176583 1.93396 0
M  V30 1533 C 139.167 0.727562 3.39594 0
M  V30 1534 C 138.121 1.77274 3.89561 0
M  V30 1535 C 137.447 1.25569 5.19747 0
M  V30 1536 C 138.747 3.17357 4.14827 0
M  V30 1537 H 140.441 2.03217 2.19871 0
M  V30 1538 H 137.987 0.978452 1.05652 0
M  V30 1539 H 139.94 0.600777 4.17095 0
M  V30 1540 H 138.664 -0.241287 3.25707 0
M  V30 1541 H 137.323 1.88814 3.14237 0
M  V30 1542 H 136.971 0.276783 5.02238 0
M  V30 1543 H 136.671 1.95433 5.54148 0
M  V30 1544 H 138.195 1.1415 5.99835 0
M  V30 1545 H 139.609 3.08914 4.82954 0
M  V30 1546 H 138.006 3.84781 4.60504 0
M  V30 1547 H 139.076 3.63673 3.20734 0
M  V30 1548 N 140.419 -1.14872 1.07899 0
M  V30 1549 C 141.696 -1.81928 0.71845 0
M  V30 1550 C 142.076 -1.95417 -0.798455 0
M  V30 1551 O 141.424 -1.50997 -1.715 0
M  V30 1552 C 141.634 -3.17937 1.43935 0
M  V30 1553 C 142.982 -3.93501 1.59506 0
M  V30 1554 O 144.006 -3.27509 1.40058 0
M  V30 1555 O 142.865 -5.1183 1.91551 0
M  V30 1556 H 139.959 -0.78628 0.256305 0
M  V30 1557 H 142.505 -1.21934 1.18026 0
M  V30 1558 H 141.277 -3.0325 2.47295 0
M  V30 1559 H 140.9 -3.85619 0.968687 0
M  V30 1560 N 141.898 -0.863906 -1.31812 0
M  V30 1561 C 142.861 -0.320212 -2.26952 0
M  V30 1562 C 143.861 0.525369 -1.51975 0
M  V30 1563 O 145.051 0.335547 -1.70938 0
M  V30 1564 C 142.183 0.545919 -3.365 0
M  V30 1565 H 143.376 -1.16004 -2.76556 0
M  V30 1566 H 140.929 -0.638995 -1.42641 0
M  V30 1567 H 141.664 1.40718 -2.92179 0
M  V30 1568 H 141.449 -0.0594674 -3.92055 0
M  V30 1569 H 142.939 0.918796 -4.07367 0
M  V30 1570 N 143.376 1.44774 -0.622745 0
M  V30 1571 C 144.623 2.02121 -0.1239 0
M  V30 1572 C 144.951 1.48915 1.25118 0
M  V30 1573 O 144.206 0.660045 1.84233 0
M  V30 1574 C 144.505 3.57364 -0.0508323 0
M  V30 1575 C 144.171 4.29787 -1.36358 0
M  V30 1576 C 142.833 4.4929 -1.72314 0
M  V30 1577 C 145.185 4.71062 -2.23048 0
M  V30 1578 C 142.513 5.07325 -2.94682 0
M  V30 1579 C 144.865 5.30452 -3.44679 0
M  V30 1580 C 143.529 5.48175 -3.80868 0
M  V30 1581 H 142.799 0.739612 -0.0453381 0
M  V30 1582 H 145.446 1.73648 -0.807389 0
M  V30 1583 H 143.751 3.85202 0.715991 0
M  V30 1584 H 145.448 3.99456 0.351533 0
M  V30 1585 H 142.038 4.14932 -1.07375 0
M  V30 1586 H 146.222 4.55715 -1.96565 0
M  V30 1587 H 141.478 5.19235 -3.22809 0
M  V30 1588 H 145.652 5.61385 -4.12092 0
M  V30 1589 H 143.279 5.92912 -4.75773 0
M  V30 1590 N 144.854 0.36279 1.53368 0
M  V30 1591 C 146.084 -0.228281 2.05335 0
M  V30 1592 C 146.492 -1.43226 1.23625 0
M  V30 1593 O 145.835 -1.81717 0.269206 0
M  V30 1594 C 145.897 -0.688549 3.52845 0
M  V30 1595 C 145.561 0.398362 4.5526 0
M  V30 1596 C 146.558 1.24732 5.04716 0
M  V30 1597 C 144.243 0.557805 4.99193 0
M  V30 1598 C 146.237 2.2411 5.96702 0
M  V30 1599 C 143.924 1.55495 5.90986 0
M  V30 1600 C 144.922 2.39503 6.39631 0
M  V30 1601 O 144.61 3.37517 7.29615 0
M  V30 1602 H 144.342 -0.044395 0.674541 0
M  V30 1603 H 146.896 0.518668 1.98744 0
M  V30 1604 H 145.126 -1.48706 3.56964 0
M  V30 1605 H 146.815 -1.20231 3.87685 0
M  V30 1606 H 147.581 1.13532 4.71525 0
M  V30 1607 H 143.46 -0.0862959 4.60919 0
M  V30 1608 H 147.004 2.89718 6.34594 0
M  V30 1609 H 142.901 1.66744 6.23592 0
M  V30 1610 H 143.669 3.33213 7.47604 0
M  V30 1611 N 146.332 -1.57332 0.0918853 0
M  V30 1612 C 147.562 -1.98286 -0.580205 0
M  V30 1613 C 147.97 -0.969713 -1.6246 0
M  V30 1614 O 147.313 0.0493501 -1.83634 0
M  V30 1615 C 147.375 -3.35603 -1.28882 0
M  V30 1616 C 147.039 -4.55285 -0.395559 0
M  V30 1617 C 148.036 -5.18687 0.355002 0
M  V30 1618 C 145.721 -5.01314 -0.314556 0
M  V30 1619 C 147.715 -6.26484 1.17458 0
M  V30 1620 C 145.402 -6.08979 0.508677 0
M  V30 1621 C 146.4 -6.71429 1.2519 0
M  V30 1622 O 146.088 -7.77018 2.06151 0
M  V30 1623 H 145.82 -0.656678 -0.160466 0
M  V30 1624 H 148.374 -2.04721 0.16688 0
M  V30 1625 H 146.604 -3.25842 -2.08241 0
M  V30 1626 H 148.293 -3.61026 -1.85512 0
M  V30 1627 H 149.059 -4.84058 0.302134 0
M  V30 1628 H 144.938 -4.5247 -0.882697 0
M  V30 1629 H 148.482 -6.75159 1.75518 0
M  V30 1630 H 144.379 -6.4304 0.563037 0
M  V30 1631 H 145.147 -7.93991 1.98799 0
M  V30 1632 N 147.81 0.181792 -1.56548 0
M  V30 1633 C 148.72 1.24538 -1.98815 0
M  V30 1634 C 149.736 1.49045 -0.897861 0
M  V30 1635 O 150.912 1.61399 -1.20467 0
M  V30 1636 C 147.977 2.56683 -2.33055 0
M  V30 1637 C 147.038 2.40131 -3.55859 0
M  V30 1638 C 146.271 3.65975 -3.88456 0
M  V30 1639 O 146.494 4.70711 -3.22161 0
M  V30 1640 O 145.428 3.6071 -4.81842 0
M  V30 1641 H 149.254 0.916647 -2.89536 0
M  V30 1642 H 146.839 0.387842 -1.44278 0
M  V30 1643 H 148.721 3.34655 -2.56094 0
M  V30 1644 H 147.396 2.89157 -1.45498 0
M  V30 1645 H 146.303 1.60226 -3.38051 0
M  V30 1646 H 147.636 2.12585 -4.43924 0
M  V30 1647 N 149.288 1.51039 0.449983 0
M  V30 1648 C 150.236 1.71995 1.5659 0
M  V30 1649 C 151.23 0.586029 1.5894 0
M  V30 1650 O 152.436 0.76709 1.62837 0
M  V30 1651 H 148.811 0.543233 0.520001 0
M  V30 1652 H 150.782 2.65562 1.36085 0
M  V30 1653 C 149.531 1.8506 2.9436 0
M  V30 1654 H 148.854 2.71712 2.93279 0
M  V30 1655 H 150.294 2.0374 3.71842 0
M  V30 1656 C 148.753 0.607277 3.31382 0
M  V30 1657 O 149.283 -0.243903 4.00959 0
M  V30 1658 N 147.489 0.455073 2.87015 0
M  V30 1659 H 147.036 1.14879 2.30566 0
M  V30 1660 H 146.994 -0.375611 3.12148 0
M  V30 1661 N 150.766 -0.704594 1.40972 0
M  V30 1662 C 151.714 -1.83994 1.42299 0
M  V30 1663 C 152.708 -1.66684 0.302111 0
M  V30 1664 O 153.914 -1.73655 0.473697 0
M  V30 1665 H 150.289 -0.606171 0.44504 0
M  V30 1666 H 152.26 -1.79992 2.38003 0
M  V30 1667 C 151.009 -3.21946 1.31323 0
M  V30 1668 H 150.332 -3.35878 2.16855 0
M  V30 1669 H 151.772 -4.01491 1.36311 0
M  V30 1670 C 150.231 -3.36891 0.0245977 0
M  V30 1671 O 150.761 -3.90687 -0.934153 0
M  V30 1672 N 148.967 -2.90559 -0.0485243 0
M  V30 1673 H 148.514 -2.46968 0.732419 0
M  V30 1674 H 148.472 -3.00937 -0.910171 0
M  V30 1675 N 152.244 -1.26651 -0.937939 0
M  V30 1676 C 153.174 -1.10993 -2.05433 0
M  V30 1677 C 154.155 -0.0142161 -1.70094 0
M  V30 1678 O 155.34 -0.186837 -1.93299 0
M  V30 1679 C 152.47 -0.745561 -3.39203 0
M  V30 1680 C 151.424 -1.79337 -3.88616 0
M  V30 1681 C 150.75 -1.28324 -5.19073 0
M  V30 1682 C 152.05 -3.19553 -4.13138 0
M  V30 1683 H 153.744 -2.0438 -2.1879 0
M  V30 1684 H 151.29 -0.984041 -1.05131 0
M  V30 1685 H 153.243 -0.622888 -4.16771 0
M  V30 1686 H 151.967 0.22401 -3.25831 0
M  V30 1687 H 150.626 -1.90477 -3.13231 0
M  V30 1688 H 150.274 -0.303414 -5.02084 0
M  V30 1689 H 149.974 -1.98369 -5.53103 0
M  V30 1690 H 151.498 -1.1733 -5.99221 0
M  V30 1691 H 152.912 -3.11471 -4.81309 0
M  V30 1692 H 151.309 -3.87218 -4.58457 0
M  V30 1693 H 152.379 -3.65368 -3.18801 0
M  V30 1694 N 153.722 1.14298 -1.08507 0
M  V30 1695 C 154.968 1.85854 -0.826438 0
M  V30 1696 C 155.323 1.81413 0.640878 0
M  V30 1697 O 154.616 1.23463 1.46518 0
M  V30 1698 C 154.81 3.33547 -1.28379 0
M  V30 1699 C 154.639 3.52369 -2.79403 0
M  V30 1700 C 153.409 3.67159 -3.47164 0
M  V30 1701 C 155.607 3.49203 -3.77573 0
M  V30 1702 N 153.589 3.74149 -4.86709 0
M  V30 1703 C 154.96 3.6245 -5.03021 0
M  V30 1704 C 157.015 3.32547 -3.70563 0
M  V30 1705 C 155.718 3.60761 -6.2229 0
M  V30 1706 C 157.744 3.32162 -4.89308 0
M  V30 1707 C 157.106 3.45949 -6.13595 0
M  V30 1708 H 153.205 0.696705 -0.355143 0
M  V30 1709 H 155.789 1.36981 -1.38362 0
M  V30 1710 H 153.96 3.81008 -0.754166 0
M  V30 1711 H 155.692 3.92867 -0.971469 0
M  V30 1712 H 152.447 3.68433 -2.9758 0
M  V30 1713 H 152.871 3.81359 -5.5937 0
M  V30 1714 H 157.513 3.20797 -2.75407 0
M  V30 1715 H 155.231 3.71286 -7.17755 0
M  V30 1716 H 158.817 3.20485 -4.85573 0
M  V30 1717 H 157.697 3.456 -7.03939 0
M  V30 1718 N 155.201 0.870884 1.31352 0
M  V30 1719 C 156.45 0.478408 1.95944 0
M  V30 1720 C 156.763 -0.974493 1.69597 0
M  V30 1721 O 157.969 -1.47316 2.28058 0
M  V30 1722 C 156.425 0.804609 3.50791 0
M  V30 1723 C 156.033 2.27433 3.85977 0
M  V30 1724 C 157.777 0.480648 4.2177 0
M  V30 1725 C 155.684 2.5429 5.33939 0
M  V30 1726 H 154.614 0.175175 0.733369 0
M  V30 1727 H 157.265 1.06391 1.4951 0
M  V30 1728 H 155.647 0.148347 3.95722 0
M  V30 1729 H 156.821 2.97373 3.52002 0
M  V30 1730 H 155.136 2.56442 3.28065 0
M  V30 1731 H 157.733 0.658519 5.30629 0
M  V30 1732 H 158.076 -0.578979 4.12254 0
M  V30 1733 H 158.609 1.09349 3.82476 0
M  V30 1734 H 155.348 3.58939 5.48491 0
M  V30 1735 H 154.868 1.88945 5.69263 0
M  V30 1736 H 156.547 2.39066 6.01212 0
M  V30 1737 N 156.679 -1.44442 0.630414 0
M  V30 1738 C 157.609 -2.33418 -0.0618083 0
M  V30 1739 C 158.59 -1.48165 -0.835541 0
M  V30 1740 O 159.775 -1.76886 -0.801564 0
M  V30 1741 C 156.905 -3.31222 -1.04449 0
M  V30 1742 C 155.859 -4.26288 -0.382436 0
M  V30 1743 C 155.185 -5.13954 -1.47497 0
M  V30 1744 C 156.485 -5.1744 0.710865 0
M  V30 1745 H 158.179 -2.91548 0.681184 0
M  V30 1746 H 155.725 -1.40191 0.329026 0
M  V30 1747 H 157.678 -3.92351 -1.53748 0
M  V30 1748 H 156.402 -2.71299 -1.81836 0
M  V30 1749 H 155.061 -3.6649 0.0899054 0
M  V30 1750 H 154.709 -4.50385 -2.2397 0
M  V30 1751 H 154.409 -5.7837 -1.03737 0
M  V30 1752 H 155.933 -5.77955 -1.96979 0
M  V30 1753 H 157.347 -5.72509 0.300996 0
M  V30 1754 H 155.744 -5.90455 1.07156 0
M  V30 1755 H 156.814 -4.58496 1.57829 0
M  V30 1756 N 158.157 -0.370918 -1.53173 0
M  V30 1757 C 159.406 0.218249 -2.00516 0
M  V30 1758 C 159.719 1.49429 -1.26215 0
M  V30 1759 O 160.925 2.16239 -1.64174 0
M  V30 1760 C 159.381 0.43948 -3.57207 0
M  V30 1761 C 158.989 -0.822244 -4.4039 0
M  V30 1762 C 160.733 0.986012 -4.1289 0
M  V30 1763 C 158.64 -0.570304 -5.88644 0
M  V30 1764 H 157.57 0.0853333 -0.749156 0
M  V30 1765 H 160.221 -0.490483 -1.76823 0
M  V30 1766 H 158.603 1.20961 -3.77074 0
M  V30 1767 H 159.777 -1.59557 -4.32294 0
M  V30 1768 H 158.092 -1.29238 -3.95836 0
M  V30 1769 H 160.689 1.18991 -5.21292 0
M  V30 1770 H 161.032 1.94972 -3.6782 0
M  V30 1771 H 161.565 0.27592 -3.96842 0
M  V30 1772 H 158.304 -1.50449 -6.38001 0
M  V30 1773 H 157.824 0.164427 -5.99575 0
M  V30 1774 H 159.503 -0.19784 -6.46697 0
M  V30 1775 N 159.635 1.57281 -0.100228 0
M  V30 1776 C 160.545 2.17833 0.870965 0
M  V30 1777 C 161.561 1.14921 1.30649 0
M  V30 1778 O 162.737 1.47313 1.37335 0
M  V30 1779 C 159.802 2.75085 2.1102 0
M  V30 1780 C 158.863 3.9297 1.72838 0
M  V30 1781 C 158.096 4.47482 2.90854 0
M  V30 1782 O 158.319 4.00922 4.05731 0
M  V30 1783 O 157.253 5.38433 2.69023 0
M  V30 1784 H 161.079 3.0124 0.38575 0
M  V30 1785 H 158.664 1.48881 0.124397 0
M  V30 1786 H 160.546 3.11656 2.83634 0
M  V30 1787 H 159.221 1.94721 2.58584 0
M  V30 1788 H 158.128 3.61201 0.973883 0
M  V30 1789 H 159.461 4.74713 1.30033 0
M  V30 1790 N 161.113 -0.173488 1.56642 0
M  V30 1791 C 162.36 -0.890465 1.81871 0
M  V30 1792 C 162.688 -1.82339 0.67696 0
M  V30 1793 O 161.943 -1.92795 -0.335926 0
M  V30 1794 C 162.242 -1.72069 3.13252 0
M  V30 1795 C 161.908 -0.936878 4.41059 0
M  V30 1796 C 160.57 -0.720545 4.75775 0
M  V30 1797 C 162.922 -0.386919 5.19762 0
M  V30 1798 C 160.25 0.0568829 5.86672 0
M  V30 1799 C 162.602 0.37741 6.31473 0
M  V30 1800 C 161.266 0.604563 6.64757 0
M  V30 1801 H 160.536 -0.325844 0.665512 0
M  V30 1802 H 163.183 -0.155527 1.90867 0
M  V30 1803 H 161.488 -2.52496 2.99588 0
M  V30 1804 H 163.185 -2.27844 3.29982 0
M  V30 1805 H 159.775 -1.11553 4.13828 0
M  V30 1806 H 163.959 -0.541398 4.93338 0
M  V30 1807 H 159.215 0.242635 6.10918 0
M  V30 1808 H 163.389 0.810825 6.91664 0
M  V30 1809 H 161.016 1.20885 7.50527 0
M  V30 1810 N 162.591 -1.51276 -0.441967 0
M  V30 1811 C 163.831 -1.65372 -1.20132 0
M  V30 1812 C 164.195 -0.359871 -1.88597 0
M  V30 1813 O 165.396 -0.376551 -2.66149 0
M  V30 1814 C 163.667 -2.8207 -2.1948 0
M  V30 1815 S 165.226 -3.16467 -3.03964 0
M  V30 1816 H 162.044 -0.582669 -0.407453 0
M  V30 1817 H 164.646 -1.89166 -0.493609 0
M  V30 1818 H 163.35 -3.74523 -1.67812 0
M  V30 1819 H 162.881 -2.6045 -2.94838 0
M  V30 1820 H 164.896 -2.62543 -4.21053 0
M  V30 1821 N 164.069 0.697108 -1.41344 0
M  V30 1822 C 165.032 1.79281 -1.42797 0
M  V30 1823 C 166.032 1.57607 -0.318837 0
M  V30 1824 O 167.222 1.64309 -0.578642 0
M  V30 1825 C 164.354 3.17632 -1.23785 0
M  V30 1826 H 165.547 1.79385 -2.40335 0
M  V30 1827 H 163.1 0.904582 -1.27464 0
M  V30 1828 H 163.835 3.23167 -0.270814 0
M  V30 1829 H 163.62 3.34765 -2.04144 0
M  V30 1830 H 165.11 3.97617 -1.27633 0
M  V30 1831 N 165.547 1.27147 0.931209 0
M  V30 1832 C 166.795 1.13055 1.6752 0
M  V30 1833 C 167.116 -0.324791 1.92276 0
M  V30 1834 O 166.386 -1.22775 1.52654 0
M  V30 1835 H 164.966 0.415391 0.620854 0
M  V30 1836 H 167.628 1.59623 1.11833 0
M  V30 1837 H 166.724 1.65694 2.64485 0
M  V30 1838 N 167.025 -1.13721 1.09112 0
M  V30 1839 C 168.273 -1.84559 0.823562 0
M  V30 1840 C 168.594 -1.83754 -0.652658 0
M  V30 1841 O 167.864 -1.29102 -1.47342 0
M  V30 1842 H 166.444 -0.683376 0.301673 0
M  V30 1843 H 169.106 -1.37771 1.37859 0
M  V30 1844 H 168.202 -2.8917 1.17419 0
M  V30 1845 N 168.503 -0.877838 -1.30888 0
M  V30 1846 C 169.466 -0.344265 -2.266 0
M  V30 1847 C 170.466 0.50922 -1.52524 0
M  V30 1848 O 171.656 0.317398 -1.71284 0
M  V30 1849 C 168.788 0.510198 -3.37061 0
M  V30 1850 H 169.981 -1.1893 -2.7531 0
M  V30 1851 H 167.534 -0.654088 -1.41956 0
M  V30 1852 H 168.269 1.37612 -2.93655 0
M  V30 1853 H 168.054 -0.101047 -3.9197 0
M  V30 1854 H 169.544 0.875537 -4.08319 0
M  V30 1855 N 169.982 1.44106 -0.638065 0
M  V30 1856 C 171.228 2.02277 -0.145546 0
M  V30 1857 C 171.561 1.50125 1.23191 0
M  V30 1858 O 170.836 0.688133 1.8192 0
M  V30 1859 C 171.119 3.59829 -0.139791 0
M  V30 1860 C 170.972 4.22247 -1.55008 0
M  V30 1861 C 172.291 4.36873 0.531966 0
M  V30 1862 H 169.41 0.734992 -0.0543632 0
M  V30 1863 H 172.052 1.71592 -0.815863 0
M  V30 1864 H 170.202 3.86102 0.431007 0
M  V30 1865 H 171.874 4.07057 -2.1703 0
M  V30 1866 H 170.117 3.79476 -2.10191 0
M  V30 1867 H 170.788 5.31284 -1.49804 0
M  V30 1868 H 173.264 4.16074 0.0464781 0
M  V30 1869 H 172.14 5.4657 0.505206 0
M  V30 1870 H 172.401 4.11995 1.60352 0
M  V30 1871 N 171.46 0.379036 1.52974 0
M  V30 1872 C 172.737 -0.263479 1.93817 0
M  V30 1873 C 173.117 -1.65244 1.31368 0
M  V30 1874 O 172.465 -2.23448 0.477856 0
M  V30 1875 C 172.675 -0.300166 3.47707 0
M  V30 1876 C 174.023 -0.534061 4.21228 0
M  V30 1877 O 175.047 -0.38081 3.54159 0
M  V30 1878 O 173.906 -0.833501 5.40106 0
M  V30 1879 H 171 -0.161149 0.811147 0
M  V30 1880 H 173.546 0.432798 1.64088 0
M  V30 1881 H 172.318 0.673138 3.85467 0
M  V30 1882 H 171.941 -1.04179 3.83709 0
M  V30 1883 N 172.938 -1.57226 0.108567 0
M  V30 1884 C 173.901 -2.13602 -0.831082 0
M  V30 1885 C 174.901 -1.06841 -1.20173 0
M  V30 1886 O 176.091 -1.32666 -1.12895 0
M  V30 1887 C 173.223 -2.66769 -2.12243 0
M  V30 1888 H 174.416 -2.97951 -0.341317 0
M  V30 1889 H 171.969 -1.55667 -0.14057 0
M  V30 1890 H 172.704 -1.85977 -2.65675 0
M  V30 1891 H 172.489 -3.44839 -1.86625 0
M  V30 1892 H 173.979 -3.10332 -2.79435 0
M  V30 1893 N 174.416 0.165178 -1.56732 0
M  V30 1894 C 175.662 0.882112 -1.82611 0
M  V30 1895 C 175.995 1.81628 -0.687378 0
M  V30 1896 O 175.27 1.92009 0.310267 0
M  V30 1897 C 175.553 1.67245 -3.18906 0
M  V30 1898 C 175.406 0.760987 -4.43316 0
M  V30 1899 C 176.725 2.63884 -3.52212 0
M  V30 1900 H 173.844 0.319242 -0.664269 0
M  V30 1901 H 176.486 0.148052 -1.89422 0
M  V30 1902 H 174.636 2.29824 -3.1323 0
M  V30 1903 H 176.308 0.147596 -4.61064 0
M  V30 1904 H 174.551 0.0694102 -4.33744 0
M  V30 1905 H 175.222 1.34962 -5.35247 0
M  V30 1906 H 177.698 2.11429 -3.58381 0
M  V30 1907 H 176.574 3.16245 -4.48643 0
M  V30 1908 H 176.835 3.44377 -2.77231 0
M  V30 1909 N 175.894 1.51508 0.433938 0
M  V30 1910 C 176.827 1.67756 1.54704 0
M  V30 1911 C 177.805 0.525127 1.53887 0
M  V30 1912 O 178.989 0.749393 1.72963 0
M  V30 1913 C 176.116 1.69424 2.9328 0
M  V30 1914 C 175.162 2.90673 3.12108 0
M  V30 1915 S 175.995 4.51431 2.88046 0
M  V30 1916 C 177.151 4.55849 4.28897 0
M  V30 1917 H 177.384 2.61904 1.40689 0
M  V30 1918 H 174.917 1.41235 0.62386 0
M  V30 1919 H 176.875 1.7107 3.73156 0
M  V30 1920 H 175.536 0.764464 3.04655 0
M  V30 1921 H 174.729 2.88251 4.13434 0
M  V30 1922 H 174.331 2.86786 2.40062 0
M  V30 1923 H 176.623 4.31699 5.22152 0
M  V30 1924 H 177.566 5.57676 4.36351 0
M  V30 1925 H 177.974 3.85137 4.12711 0
M  V30 1926 N 177.372 -0.689602 1.41712 0
M  V30 1927 C 178.302 -1.81577 1.46806 0
M  V30 1928 C 179.283 -1.66945 0.326105 0
M  V30 1929 O 180.468 -1.86588 0.538377 0
M  V30 1930 C 177.598 -3.19762 1.35535 0
M  V30 1931 C 176.552 -3.49107 2.47605 0
M  V30 1932 C 175.878 -4.86711 2.21397 0
M  V30 1933 C 177.178 -3.47483 3.89939 0
M  V30 1934 H 178.872 -1.7757 2.41058 0
M  V30 1935 H 176.418 -0.852887 1.16025 0
M  V30 1936 H 178.371 -3.98263 1.3771 0
M  V30 1937 H 177.095 -3.24409 0.377708 0
M  V30 1938 H 175.754 -2.72959 2.44722 0
M  V30 1939 H 175.402 -4.8799 1.21961 0
M  V30 1940 H 175.102 -5.0731 2.96497 0
M  V30 1941 H 176.626 -5.67515 2.25297 0
M  V30 1942 H 178.04 -4.1598 3.94505 0
M  V30 1943 H 176.437 -3.79615 4.64771 0
M  V30 1944 H 177.507 -2.46341 4.17665 0
M  V30 1945 N 178.85 -1.27639 -0.924453 0
M  V30 1946 C 179.76 -1.12466 -2.05885 0
M  V30 1947 C 180.776 -0.053869 -1.73917 0
M  V30 1948 O 181.952 -0.261012 -1.99702 0
M  V30 1949 C 179.017 -0.776768 -3.37886 0
M  V30 1950 C 178.078 -1.92878 -3.83532 0
M  V30 1951 C 177.311 -1.59739 -5.09234 0
M  V30 1952 O 177.534 -0.506782 -5.68144 0
M  V30 1953 O 176.468 -2.43761 -5.50331 0
M  V30 1954 H 180.294 -2.07671 -2.21599 0
M  V30 1955 H 177.879 -1.06857 -1.04413 0
M  V30 1956 H 179.761 -0.596229 -4.17161 0
M  V30 1957 H 178.436 0.145732 -3.23372 0
M  V30 1958 H 177.343 -2.1644 -3.0513 0
M  V30 1959 H 178.676 -2.8316 -4.02593 0
M  V30 1960 N 180.328 1.1314 -1.09713 0
M  V30 1961 C 181.258 2.20748 -0.761102 0
M  V30 1962 C 182.239 1.68061 0.262566 0
M  V30 1963 O 183.424 1.93765 0.129977 0
M  V30 1964 C 180.554 3.46812 -0.184054 0
M  V30 1965 C 179.508 4.12606 -1.13757 0
M  V30 1966 C 178.834 5.33031 -0.422083 0
M  V30 1967 C 180.134 4.59603 -2.48118 0
M  V30 1968 H 181.828 2.49113 -1.66082 0
M  V30 1969 H 179.374 1.19734 -0.799987 0
M  V30 1970 H 181.327 4.21353 0.0631215 0
M  V30 1971 H 180.051 3.17851 0.750868 0
M  V30 1972 H 178.71 3.40036 -1.37007 0
M  V30 1973 H 178.358 5.00335 0.517072 0
M  V30 1974 H 178.058 5.77999 -1.05788 0
M  V30 1975 H 179.582 6.10325 -0.183277 0
M  V30 1976 H 180.996 5.25552 -2.29059 0
M  V30 1977 H 179.393 5.15321 -3.07514 0
M  V30 1978 H 180.463 3.73971 -3.08665 0
M  V30 1979 N 181.806 0.884767 1.30421 0
M  V30 1980 C 182.716 0.355398 2.31892 0
M  V30 1981 C 183.732 -0.542261 1.65335 0
M  V30 1982 O 184.908 -0.435432 1.96637 0
M  V30 1983 C 181.973 -0.421661 3.44126 0
M  V30 1984 C 181.034 0.505727 4.26311 0
M  V30 1985 C 180.267 -0.234343 5.33185 0
M  V30 1986 O 180.49 -1.46045 5.51386 0
M  V30 1987 O 179.424 0.415443 6.00465 0
M  V30 1988 H 183.25 1.19685 2.79122 0
M  V30 1989 H 180.835 0.648596 1.34587 0
M  V30 1990 H 182.717 -0.861641 4.12497 0
M  V30 1991 H 181.392 -1.23942 2.99032 0
M  V30 1992 H 180.299 0.994513 3.60639 0
M  V30 1993 H 181.632 1.28948 4.75009 0
M  V30 1994 N 183.284 -1.43765 0.645699 0
M  V30 1995 C 184.7 -1.56509 0.312591 0
M  V30 1996 C 184.9 -1.6307 -1.18365 0
M  V30 1997 O 183.956 -1.58167 -1.96824 0
M  V30 1998 C 185.269 -2.82968 1.01733 0
M  V30 1999 C 186.817 -2.96701 0.996865 0
M  V30 2000 C 187.292 -4.25982 1.68236 0
M  V30 2001 N 188.783 -4.32829 1.64964 0
M  V30 2002 C 189.518 -5.31613 2.14885 0
M  V30 2003 N 189.014 -6.36718 2.73061 0
M  V30 2004 N 190.807 -5.23217 2.05428 0
M  V30 2005 H 182.958 -1.3775 1.61675 0
M  V30 2006 H 185.221 -0.661067 0.679481 0
M  V30 2007 H 184.927 -2.84156 2.0724 0
M  V30 2008 H 184.801 -3.72957 0.564177 0
M  V30 2009 H 187.188 -2.95058 -0.0497719 0
M  V30 2010 H 187.269 -2.08022 1.48865 0
M  V30 2011 H 186.913 -4.28386 2.72852 0
M  V30 2012 H 186.843 -5.13545 1.16529 0
M  V30 2013 H 189.334 -3.57493 1.22503 0
M  V30 2014 H 189.647 -7.08401 3.08848 0
M  V30 2015 H 187.992 -6.37362 2.77118 0
M  V30 2016 H 191.183 -4.40019 1.59689 0
M  V30 2017 H 191.356 -6.00045 2.44643 0
M  V30 2018 N 184.763 -0.387143 -1.52771 0
M  V30 2019 C 186.174 0.0873634 -1.86495 0
M  V30 2020 C 186.525 1.46336 -1.30691 0
M  V30 2021 O 185.65 2.068 -0.637409 0
M  V30 2022 C 186.245 0.165305 -3.38396 0
M  V30 2023 C 184.804 0.584101 -3.7184 0
M  V30 2024 C 183.951 -0.255279 -2.76122 0
M  V30 2025 H 186.902 -0.605104 -1.46711 0
M  V30 2026 H 186.923 0.984848 -3.67534 0
M  V30 2027 H 186.435 -0.836301 -3.78982 0
M  V30 2028 H 184.536 1.59315 -3.36823 0
M  V30 2029 H 184.649 0.343749 -4.77865 0
M  V30 2030 H 183.013 0.279126 -2.53166 0
M  V30 2031 H 183.796 -1.25482 -3.19545 0
M  V30 2032 N 186.241 1.57166 -0.116904 0
M  V30 2033 C 187.171 2.18222 0.830759 0
M  V30 2034 C 188.152 1.12167 1.27877 0
M  V30 2035 O 189.337 1.40394 1.34176 0
M  V30 2036 C 186.467 2.77996 2.08172 0
M  V30 2037 C 185.421 3.89614 1.77157 0
M  V30 2038 C 184.747 4.36187 3.09265 0
M  V30 2039 C 186.047 5.1181 1.04151 0
M  V30 2040 H 187.741 2.97664 0.321992 0
M  V30 2041 H 185.287 1.4318 0.153434 0
M  V30 2042 H 187.24 3.19366 2.74924 0
M  V30 2043 H 185.964 1.9584 2.6137 0
M  V30 2044 H 184.623 3.48816 1.12796 0
M  V30 2045 H 184.271 3.50893 3.60393 0
M  V30 2046 H 183.971 5.11455 2.89288 0
M  V30 2047 H 185.495 4.80207 3.77139 0
M  V30 2048 H 186.909 5.50214 1.61052 0
M  V30 2049 H 185.306 5.92648 0.942762 0
M  V30 2050 H 186.376 4.84892 0.0279022 0
M  V30 2051 N 187.719 -0.156864 1.56817 0
M  V30 2052 C 188.947 -0.886316 1.86955 0
M  V30 2053 C 189.362 -1.75185 0.703975 0
M  V30 2054 O 188.719 -1.79555 -0.326552 0
M  V30 2055 C 188.77 -1.75117 3.16253 0
M  V30 2056 O 188.491 -0.920537 4.2832 0
M  V30 2057 C 189.992 -2.58905 3.59837 0
M  V30 2058 H 187.212 -0.25678 0.619923 0
M  V30 2059 H 189.756 -0.152615 2.0393 0
M  V30 2060 H 187.911 -2.43805 3.01062 0
M  V30 2061 H 188.325 -1.51337 5.02192 0
M  V30 2062 H 189.799 -3.1518 4.53172 0
M  V30 2063 H 190.276 -3.34472 2.84649 0
M  V30 2064 H 190.882 -1.95526 3.7769 0
M  V30 2065 N 189.197 -1.51736 -0.425897 0
M  V30 2066 C 190.107 -1.76738 -1.54275 0
M  V30 2067 C 191.123 -0.65211 -1.61318 0
M  V30 2068 O 192.299 -0.935654 -1.78346 0
M  V30 2069 C 189.364 -1.89755 -2.90162 0
M  V30 2070 C 188.425 -3.13633 -2.93143 0
M  V30 2071 C 187.658 -3.2602 -4.22548 0
M  V30 2072 O 187.881 -2.44067 -5.15546 0
M  V30 2073 O 186.815 -4.19071 -4.32046 0
M  V30 2074 H 190.641 -2.71502 -1.36089 0
M  V30 2075 H 188.226 -1.36376 -0.610069 0
M  V30 2076 H 190.108 -2.00236 -3.70788 0
M  V30 2077 H 188.783 -0.981785 -3.08452 0
M  V30 2078 H 187.69 -3.08622 -2.11431 0
M  V30 2079 H 189.023 -4.04936 -2.798 0
M  V30 2080 N 190.675 0.682077 -1.42076 0
M  V30 2081 C 191.9 1.47558 -1.45744 0
M  V30 2082 C 192.325 1.87977 -0.0680981 0
M  V30 2083 O 191.683 1.55522 0.9318 0
M  V30 2084 C 191.731 2.70575 -2.38373 0
M  V30 2085 O 190.835 3.68573 -1.85007 0
M  V30 2086 H 190.176 0.443585 -0.494093 0
M  V30 2087 H 192.706 0.837238 -1.86686 0
M  V30 2088 H 192.716 3.18729 -2.54707 0
M  V30 2089 H 191.391 2.40495 -3.39315 0
M  V30 2090 H 189.968 3.2757 -1.78192 0
M  V30 2091 N 192.153 1.28127 0.917671 0
M  V30 2092 C 193.085 1.07517 2.02417 0
M  V30 2093 C 194.098 0.0281099 1.62776 0
M  V30 2094 O 195.287 0.270748 1.76435 0
M  V30 2095 C 192.387 0.610957 3.33347 0
M  V30 2096 C 191.56 1.73255 4.01624 0
M  V30 2097 C 190.619 1.26238 5.10833 0
M  V30 2098 O 189.645 1.96389 5.34247 0
M  V30 2099 N 190.847 0.123448 5.80369 0
M  V30 2100 H 193.612 2.02806 2.20658 0
M  V30 2101 H 191.173 1.19827 1.08871 0
M  V30 2102 H 193.165 0.280101 4.0373 0
M  V30 2103 H 191.735 -0.24898 3.11607 0
M  V30 2104 H 190.955 2.23319 3.24842 0
M  V30 2105 H 192.243 2.48503 4.43986 0
M  V30 2106 H 191.641 -0.461847 5.63812 0
M  V30 2107 H 190.198 -0.148158 6.51632 0
M  V30 2108 N 193.631 -1.12557 1.10312 0
M  V30 2109 C 194.88 -1.83395 0.839588 0
M  V30 2110 C 195.193 -1.84939 -0.636929 0
M  V30 2111 O 196.399 -2.51761 -1.01631 0
M  V30 2112 C 194.855 -3.29303 1.45215 0
M  V30 2113 C 194.463 -3.36122 2.96186 0
M  V30 2114 C 196.207 -4.05121 1.26796 0
M  V30 2115 C 194.114 -4.76357 3.50483 0
M  V30 2116 H 193.044 -0.687133 0.310425 0
M  V30 2117 H 195.695 -1.26746 1.32694 0
M  V30 2118 H 194.077 -3.85812 0.892469 0
M  V30 2119 H 195.251 -2.89559 3.58458 0
M  V30 2120 H 193.566 -2.73776 3.13745 0
M  V30 2121 H 196.163 -5.08668 1.64806 0
M  V30 2122 H 196.506 -4.15773 0.209409 0
M  V30 2123 H 197.039 -3.54967 1.79563 0
M  V30 2124 H 193.778 -4.70899 4.55998 0
M  V30 2125 H 193.298 -5.23377 2.92978 0
M  V30 2126 H 194.977 -5.45294 3.48228 0
M  V30 2127 N 195.109 -0.891671 -1.2995 0
M  V30 2128 C 196.041 -0.320695 -2.26945 0
M  V30 2129 C 197.054 0.528497 -1.53983 0
M  V30 2130 O 198.243 0.346959 -1.75096 0
M  V30 2131 C 195.343 0.562066 -3.34207 0
M  V30 2132 C 194.516 -0.259576 -4.36629 0
M  V30 2133 C 193.575 0.554739 -5.23268 0
M  V30 2134 O 192.601 -0.0249311 -5.69195 0
M  V30 2135 N 193.803 1.8625 -5.4981 0
M  V30 2136 H 196.568 -1.15432 -2.76578 0
M  V30 2137 H 194.129 -0.755336 -1.432 0
M  V30 2138 H 196.121 1.11304 -3.89093 0
M  V30 2139 H 194.691 1.29637 -2.84452 0
M  V30 2140 H 193.911 -0.991986 -3.81514 0
M  V30 2141 H 195.199 -0.822564 -5.02107 0
M  V30 2142 H 194.597 2.35628 -5.14292 0
M  V30 2143 H 193.154 2.36078 -6.07545 0
M  V30 2144 N 196.587 1.43421 -0.653314 0
M  V30 2145 C 197.833 2.02111 -0.166992 0
M  V30 2146 C 198.166 1.51423 1.21592 0
M  V30 2147 O 197.441 0.707389 1.8118 0
M  V30 2148 C 197.724 3.5966 -0.177948 0
M  V30 2149 C 197.577 4.20579 -1.59478 0
M  V30 2150 C 198.896 4.37413 0.4856 0
M  V30 2151 H 196.015 0.734374 -0.0621557 0
M  V30 2152 H 198.657 1.70717 -0.834016 0
M  V30 2153 H 196.807 3.86537 0.390032 0
M  V30 2154 H 198.479 4.04732 -2.21336 0
M  V30 2155 H 196.722 3.77226 -2.14204 0
M  V30 2156 H 197.393 5.29665 -1.5543 0
M  V30 2157 H 199.869 4.161 0.00234528 0
M  V30 2158 H 198.745 5.47075 0.447207 0
M  V30 2159 H 199.006 4.13672 1.55974 0
M  V30 2160 N 198.065 0.39524 1.52563 0
M  V30 2161 C 199.311 -0.185318 2.01952 0
M  V30 2162 C 199.644 -1.45964 1.28095 0
M  V30 2163 O 198.919 -1.90689 0.38315 0
M  V30 2164 C 199.202 -0.447193 3.57312 0
M  V30 2165 C 199.055 0.842828 4.41833 0
M  V30 2166 C 200.374 -1.23529 4.22408 0
M  V30 2167 H 197.493 -0.0658788 0.73405 0
M  V30 2168 H 200.135 0.525975 1.82575 0
M  V30 2169 H 198.285 -1.05312 3.73954 0
M  V30 2170 H 199.957 1.4795 4.36931 0
M  V30 2171 H 198.2 1.45686 4.08605 0
M  V30 2172 H 198.871 0.614165 5.48573 0
M  V30 2173 H 201.347 -0.722445 4.0978 0
M  V30 2174 H 200.223 -1.38727 5.3108 0
M  V30 2175 H 200.484 -2.25213 3.80436 0
M  V30 2176 N 199.544 -1.57102 0.125237 0
M  V30 2177 C 200.784 -1.97294 -0.534259 0
M  V30 2178 C 201.148 -1.0074 -1.63449 0
M  V30 2179 O 202.349 -1.29893 -2.35332 0
M  V30 2180 C 200.62 -3.41705 -1.04748 0
M  V30 2181 S 202.179 -4.03913 -1.71463 0
M  V30 2182 H 198.997 -0.689517 -0.173458 0
M  V30 2183 H 201.599 -1.94349 0.211797 0
M  V30 2184 H 200.303 -4.09723 -0.235649 0
M  V30 2185 H 199.834 -3.48315 -1.82867 0
M  V30 2186 H 201.849 -3.95182 -3.00077 0
M  V30 2187 N 201.022 0.148545 -1.56898 0
M  V30 2188 C 201.969 1.18345 -1.98149 0
M  V30 2189 C 202.939 1.42772 -0.848848 0
M  V30 2190 O 204.124 1.55132 -1.11079 0
M  V30 2191 C 201.264 2.51231 -2.36594 0
M  V30 2192 C 200.377 2.33991 -3.63142 0
M  V30 2193 C 199.512 3.59902 -3.90697 0
M  V30 2194 C 198.551 3.37692 -5.1052 0
M  V30 2195 N 197.688 4.5573 -5.34092 0
M  V30 2196 H 202.528 0.82467 -2.86362 0
M  V30 2197 H 200.065 0.395756 -1.41676 0
M  V30 2198 H 202.023 3.28713 -2.56912 0
M  V30 2199 H 200.653 2.85059 -1.51463 0
M  V30 2200 H 199.705 1.47572 -3.50609 0
M  V30 2201 H 201.017 2.13539 -4.5078 0
M  V30 2202 H 200.171 4.45813 -4.11505 0
M  V30 2203 H 198.91 3.83357 -3.01477 0
M  V30 2204 H 197.915 2.5017 -4.89587 0
M  V30 2205 H 199.14 3.15637 -6.0129 0
M  V30 2206 H 197.086 4.79361 -4.47827 0
M  V30 2207 H 197.003 4.38274 -6.15996 0
M  V30 2208 H 198.271 5.42858 -5.59397 0
M  V30 2209 N 202.5 1.5196 0.417844 0
M  V30 2210 C 203.432 1.70895 1.52733 0
M  V30 2211 C 204.445 0.589405 1.51756 0
M  V30 2212 O 205.634 0.864312 1.56179 0
M  V30 2213 C 202.734 1.72627 2.91639 0
M  V30 2214 C 201.907 3.01479 3.16905 0
M  V30 2215 C 200.966 2.95139 4.35637 0
M  V30 2216 O 199.992 3.69059 4.3334 0
M  V30 2217 N 201.194 2.12328 5.40275 0
M  V30 2218 H 203.959 2.66612 1.36888 0
M  V30 2219 H 201.52 1.50089 0.607037 0
M  V30 2220 H 203.512 1.65928 3.6912 0
M  V30 2221 H 202.082 0.844216 3.00985 0
M  V30 2222 H 201.302 3.21895 2.27546 0
M  V30 2223 H 202.59 3.86736 3.30625 0
M  V30 2224 H 201.988 1.51685 5.44985 0
M  V30 2225 H 200.545 2.11494 6.16534 0
M  V30 2226 N 203.978 -0.674533 1.42435 0
M  V30 2227 C 205.206 -1.46283 1.46317 0
M  V30 2228 C 205.621 -1.88653 0.0745836 0
M  V30 2229 O 204.978 -1.58151 -0.91074 0
M  V30 2230 C 205.029 -2.71178 2.3905 0
M  V30 2231 O 204.75 -2.30586 3.72507 0
M  V30 2232 C 206.251 -3.64738 2.51955 0
M  V30 2233 H 203.471 -0.450104 0.497642 0
M  V30 2234 H 206.015 -0.828792 1.86953 0
M  V30 2235 H 204.17 -3.3077 2.01667 0
M  V30 2236 H 204.584 -3.11241 4.22172 0
M  V30 2237 H 206.058 -4.49096 3.20962 0
M  V30 2238 H 206.535 -4.10656 1.55752 0
M  V30 2239 H 207.141 -3.11038 2.90061 0
M  V30 2240 N 205.456 -1.28612 -0.910864 0
M  V30 2241 C 206.386 -1.15326 -2.03032 0
M  V30 2242 C 207.367 -0.0502924 -1.70026 0
M  V30 2243 O 208.552 -0.227797 -1.92859 0
M  V30 2244 C 205.682 -0.817343 -3.37545 0
M  V30 2245 C 204.636 -1.8754 -3.84724 0
M  V30 2246 C 203.962 -1.39305 -5.16235 0
M  V30 2247 C 205.262 -3.28244 -4.06267 0
M  V30 2248 H 206.956 -2.08975 -2.14406 0
M  V30 2249 H 204.502 -1.00612 -1.03021 0
M  V30 2250 H 206.455 -0.711151 -4.15356 0
M  V30 2251 H 205.179 0.154846 -3.26233 0
M  V30 2252 H 203.838 -1.97079 -3.09121 0
M  V30 2253 H 203.486 -0.409846 -5.01328 0
M  V30 2254 H 203.186 -2.10057 -5.48771 0
M  V30 2255 H 204.71 -1.30014 -5.96598 0
M  V30 2256 H 206.124 -3.21611 -4.74594 0
M  V30 2257 H 204.521 -3.96855 -4.5014 0
M  V30 2258 H 205.591 -3.72048 -3.10979 0
M  V30 2259 N 206.934 1.1197 -1.10907 0
M  V30 2260 C 208.211 1.79959 -0.766432 0
M  V30 2261 C 208.591 1.97466 0.746363 0
M  V30 2262 O 207.939 1.55491 1.67436 0
M  V30 2263 C 208.149 3.14009 -1.52314 0
M  V30 2264 C 209.497 3.89134 -1.69883 0
M  V30 2265 O 210.521 3.2368 -1.48692 0
M  V30 2266 O 209.38 5.06572 -2.05054 0
M  V30 2267 H 206.474 0.779208 -0.277062 0
M  V30 2268 H 209.02 1.18762 -1.21217 0
M  V30 2269 H 207.792 2.96587 -2.55249 0
M  V30 2270 H 207.415 3.82915 -1.07059 0
M  V30 2271 N 208.412 0.89855 1.29475 0
M  V30 2272 C 209.375 0.380272 2.26023 0
M  V30 2273 C 210.375 -0.484891 1.53315 0
M  V30 2274 O 211.565 -0.290108 1.71767 0
M  V30 2275 C 208.697 -0.45651 3.3783 0
M  V30 2276 H 209.89 1.23295 2.73383 0
M  V30 2277 H 207.443 0.676589 1.40897 0
M  V30 2278 H 208.178 -1.32922 2.95808 0
M  V30 2279 H 207.963 0.163393 3.91759 0
M  V30 2280 H 209.453 -0.810466 4.0966 0
M  V30 2281 N 209.89 -1.43072 0.660911 0
M  V30 2282 C 210.82 -2.33497 -0.0122829 0
M  V30 2283 C 211.801 -1.49903 -0.803925 0
M  V30 2284 O 212.986 -1.78546 -0.763864 0
M  V30 2285 C 210.116 -3.33363 -0.973994 0
M  V30 2286 C 209.07 -4.27003 -0.291928 0
M  V30 2287 C 208.396 -5.16967 -1.36562 0
M  V30 2288 C 209.696 -5.15816 0.820462 0
M  V30 2289 H 211.39 -2.90038 0.742873 0
M  V30 2290 H 208.936 -1.39461 0.358688 0
M  V30 2291 H 210.889 -3.95524 -1.45392 0
M  V30 2292 H 209.613 -2.75095 -1.7604 0
M  V30 2293 H 208.272 -3.66217 0.167623 0
M  V30 2294 H 207.92 -4.55034 -2.14366 0
M  V30 2295 H 207.62 -5.80441 -0.914454 0
M  V30 2296 H 209.144 -5.82003 -1.84675 0
M  V30 2297 H 210.558 -5.71742 0.422366 0
M  V30 2298 H 208.955 -5.8805 1.19656 0
M  V30 2299 H 210.025 -4.55045 1.67518 0
M  V30 2300 N 211.368 -0.403325 -1.52352 0
M  V30 2301 C 212.316 0.439752 -2.28405 0
M  V30 2302 C 213.31 1.05089 -1.32863 0
M  V30 2303 O 214.516 0.989759 -1.50345 0
M  V30 2304 H 210.891 0.160587 -0.734653 0
M  V30 2305 H 212.862 -0.222983 -2.97566 0
M  V30 2306 C 211.611 1.54736 -3.11371 0
M  V30 2307 H 210.934 1.08643 -3.84755 0
M  V30 2308 H 212.374 2.1112 -3.67701 0
M  V30 2309 C 210.833 2.51141 -2.24566 0
M  V30 2310 O 211.363 3.54887 -1.88196 0
M  V30 2311 N 209.569 2.21213 -1.8845 0
M  V30 2312 H 209.116 1.36878 -2.18225 0
M  V30 2313 H 209.074 2.85963 -1.30662 0
M  V30 2314 N 212.846 1.57033 -0.133567 0
M  V30 2315 C 214.076 1.99754 0.527429 0
M  V30 2316 C 214.484 1.01245 1.59832 0
M  V30 2317 O 213.827 -0.000645496 1.837 0
M  V30 2318 C 213.889 3.38903 1.19939 0
M  V30 2319 C 213.553 4.56174 0.274709 0
M  V30 2320 C 214.55 5.17563 -0.492398 0
M  V30 2321 C 212.235 5.01972 0.18153 0
M  V30 2322 C 214.229 6.2315 -1.34027 0
M  V30 2323 C 211.916 6.07416 -0.669958 0
M  V30 2324 C 212.914 6.67874 -1.42947 0
M  V30 2325 O 212.602 7.71279 -2.2668 0
M  V30 2326 H 212.334 0.660702 0.142999 0
M  V30 2327 H 214.888 2.04207 -0.221099 0
M  V30 2328 H 213.118 3.31248 1.99528 0
M  V30 2329 H 214.807 3.65818 1.75875 0
M  V30 2330 H 215.573 4.83087 -0.430367 0
M  V30 2331 H 211.452 4.54652 0.762422 0
M  V30 2332 H 214.996 6.70268 -1.93357 0
M  V30 2333 H 210.893 6.41321 -0.73333 0
M  V30 2334 H 211.661 7.88441 -2.1978 0
M  V30 2335 N 214.325 -0.140222 1.56975 0
M  V30 2336 C 215.255 -1.17456 2.01808 0
M  V30 2337 C 216.236 -1.44415 0.898794 0
M  V30 2338 O 217.421 -1.5522 1.16707 0
M  V30 2339 C 214.551 -2.50607 2.40444 0
M  V30 2340 C 213.505 -2.38155 3.55621 0
M  V30 2341 C 212.831 -3.76078 3.80091 0
M  V30 2342 C 214.131 -1.85991 4.88062 0
M  V30 2343 H 215.825 -0.801743 2.88466 0
M  V30 2344 H 213.371 -0.38422 1.38779 0
M  V30 2345 H 215.324 -3.23197 2.7041 0
M  V30 2346 H 214.048 -2.89737 1.50732 0
M  V30 2347 H 212.707 -1.68016 3.25832 0
M  V30 2348 H 212.355 -4.12656 2.87618 0
M  V30 2349 H 212.055 -3.68606 4.57606 0
M  V30 2350 H 213.579 -4.50206 4.12488 0
M  V30 2351 H 214.993 -2.4838 5.16701 0
M  V30 2352 H 213.39 -1.89393 5.6943 0
M  V30 2353 H 214.46 -0.816023 4.77984 0
M  V30 2354 N 215.803 -1.52179 -0.40978 0
M  V30 2355 C 216.753 -1.71857 -1.49831 0
M  V30 2356 C 217.737 -0.572469 -1.50372 0
M  V30 2357 O 218.929 -0.829509 -1.56359 0
M  V30 2358 C 216.058 -1.87206 -2.87765 0
M  V30 2359 C 215.144 -3.07685 -2.91875 0
M  V30 2360 N 215.535 -4.30403 -2.65683 0
M  V30 2361 C 213.833 -3.07505 -3.23043 0
M  V30 2362 C 214.534 -5.11868 -2.76344 0
M  V30 2363 N 213.51 -4.47101 -3.09195 0
M  V30 2364 H 217.312 -2.64381 -1.28375 0
M  V30 2365 H 214.826 -1.50203 -0.617479 0
M  V30 2366 H 216.823 -1.99419 -3.66111 0
M  V30 2367 H 215.483 -0.958814 -3.10221 0
M  V30 2368 H 216.494 -4.58887 -2.4009 0
M  V30 2369 H 213.171 -2.25915 -3.51096 0
M  V30 2370 H 214.561 -6.19634 -2.59814 0
M  V30 2371 N 217.281 0.66697 -1.42791 0
M  V30 2372 C 218.558 1.4234 -1.34159 0
M  V30 2373 C 218.938 2.11093 0.0172729 0
M  V30 2374 O 218.286 2.03808 1.03318 0
M  V30 2375 C 218.496 2.41942 -2.51526 0
M  V30 2376 C 219.844 3.06353 -2.93995 0
M  V30 2377 O 220.868 2.52269 -2.51473 0
M  V30 2378 O 219.727 4.04376 -3.67617 0
M  V30 2379 H 216.821 0.635277 -0.529483 0
M  V30 2380 H 219.367 0.695034 -1.54814 0
M  V30 2381 H 218.139 1.89991 -3.42081 0
M  V30 2382 H 217.762 3.22249 -2.32898 0
M  V30 2383 N 218.759 1.29093 0.90403 0
M  V30 2384 C 219.707 1.13727 2.02901 0
M  V30 2385 C 220.701 0.0539853 1.69314 0
M  V30 2386 O 221.907 0.213469 1.7873 0
M  V30 2387 H 218.282 0.35117 0.664969 0
M  V30 2388 H 220.253 2.08982 2.13001 0
M  V30 2389 C 219.002 0.826066 3.37745 0
M  V30 2390 H 218.325 1.65164 3.64089 0
M  V30 2391 H 219.765 0.758559 4.17159 0
M  V30 2392 C 218.224 -0.470541 3.33598 0
M  V30 2393 O 218.754 -1.49792 3.72727 0
M  V30 2394 N 216.96 -0.474812 2.86695 0
M  V30 2395 H 216.507 0.361692 2.55048 0
M  V30 2396 H 216.465 -1.34236 2.84303 0
M  V30 2397 N 220.237 -1.11381 1.11499 0
M  V30 2398 C 221.184 -2.17439 0.773887 0
M  V30 2399 C 222.154 -1.64132 -0.254899 0
M  V30 2400 O 223.339 -1.90345 -0.13168 0
M  V30 2401 C 220.479 -3.44373 0.223917 0
M  V30 2402 C 219.592 -4.1168 1.30934 0
M  V30 2403 C 218.727 -5.263 0.71984 0
M  V30 2404 C 217.766 -5.85493 1.78507 0
M  V30 2405 N 216.903 -6.91507 1.21502 0
M  V30 2406 H 221.743 -2.45962 1.68246 0
M  V30 2407 H 219.28 -1.20744 0.840191 0
M  V30 2408 H 221.238 -4.17047 -0.112921 0
M  V30 2409 H 219.868 -3.16232 -0.647851 0
M  V30 2410 H 218.92 -3.37073 1.76312 0
M  V30 2411 H 220.232 -4.51729 2.11524 0
M  V30 2412 H 219.386 -6.05785 0.333094 0
M  V30 2413 H 218.125 -4.87559 -0.117377 0
M  V30 2414 H 217.13 -5.04686 2.18111 0
M  V30 2415 H 218.355 -6.26301 2.62533 0
M  V30 2416 H 216.301 -6.54783 0.399455 0
M  V30 2417 H 216.218 -7.30214 1.95763 0
M  V30 2418 H 217.486 -7.74795 0.855181 0
M  V30 2419 N 221.715 -0.905404 -1.28997 0
M  V30 2420 C 222.964 -0.530191 -1.94607 0
M  V30 2421 C 223.277 0.929185 -1.72121 0
M  V30 2422 O 224.483 1.41218 -2.31883 0
M  V30 2423 C 222.939 -0.897333 -3.48534 0
M  V30 2424 C 222.547 -2.37587 -3.79811 0
M  V30 2425 C 224.291 -0.592304 -4.20347 0
M  V30 2426 C 222.198 -2.68357 -5.27009 0
M  V30 2427 H 221.128 -0.194558 -0.728466 0
M  V30 2428 H 223.779 -1.10318 -1.46636 0
M  V30 2429 H 222.161 -0.253214 -3.9519 0
M  V30 2430 H 223.335 -3.06602 -3.43994 0
M  V30 2431 H 221.65 -2.6505 -3.2115 0
M  V30 2432 H 224.247 -0.798975 -5.28697 0
M  V30 2433 H 224.59 0.469474 -4.13644 0
M  V30 2434 H 225.123 -1.19452 -3.79442 0
M  V30 2435 H 221.862 -3.73355 -5.38782 0
M  V30 2436 H 221.382 -2.03971 -5.64053 0
M  V30 2437 H 223.061 -2.54922 -5.94663 0
M  V30 2438 N 223.193 1.4272 -0.668489 0
M  V30 2439 C 224.442 2.00846 -0.185389 0
M  V30 2440 C 224.755 1.53442 1.21305 0
M  V30 2441 O 225.961 2.03944 1.79218 0
M  V30 2442 C 224.417 3.58805 -0.280591 0
M  V30 2443 C 224.025 4.15198 -1.68268 0
M  V30 2444 C 225.769 4.24255 0.14412 0
M  V30 2445 C 223.676 5.655 -1.73099 0
M  V30 2446 H 222.606 0.751145 -0.0655475 0
M  V30 2447 H 225.257 1.63516 -0.832752 0
M  V30 2448 H 223.639 3.93608 0.434553 0
M  V30 2449 H 224.813 3.91866 -2.42441 0
M  V30 2450 H 223.128 3.62176 -2.05469 0
M  V30 2451 H 225.725 5.34547 0.128086 0
M  V30 2452 H 226.068 3.99277 1.17827 0
M  V30 2453 H 226.601 3.94389 -0.519798 0
M  V30 2454 H 223.34 5.95268 -2.74475 0
M  V30 2455 H 222.86 5.90842 -1.03274 0
M  V30 2456 H 224.539 6.29808 -1.48158 0
M  V30 2457 N 224.671 0.411399 1.52136 0
M  V30 2458 C 225.621 -0.430376 2.23901 0
M  V30 2459 C 226.605 -1.0116 1.25121 0
M  V30 2460 O 227.797 -0.934044 1.50348 0
M  V30 2461 C 224.926 -1.54527 3.06556 0
M  V30 2462 C 224.012 -0.9747 4.12747 0
M  V30 2463 N 224.403 -0.130991 5.0563 0
M  V30 2464 C 222.701 -1.24497 4.28271 0
M  V30 2465 C 223.402 0.186689 5.814 0
M  V30 2466 N 222.378 -0.42304 5.41951 0
M  V30 2467 H 226.18 0.220509 2.93072 0
M  V30 2468 H 223.694 0.221952 1.60876 0
M  V30 2469 H 225.691 -2.16093 3.56524 0
M  V30 2470 H 224.351 -2.19875 2.38925 0
M  V30 2471 H 225.362 0.23349 5.17373 0
M  V30 2472 H 222.039 -1.89787 3.7187 0
M  V30 2473 H 223.429 0.871673 6.66222 0
M  V30 2474 N 226.149 -1.5696 0.141893 0
M  V30 2475 C 227.565 -1.58151 -0.21456 0
M  V30 2476 C 227.765 -1.1559 -1.65049 0
M  V30 2477 O 226.821 -0.853832 -2.37626 0
M  V30 2478 C 228.134 -3.00674 0.0395576 0
M  V30 2479 C 229.682 -3.1299 -0.0245529 0
M  V30 2480 C 230.157 -4.57554 0.202167 0
M  V30 2481 N 231.648 -4.62961 0.148919 0
M  V30 2482 C 232.383 -5.7262 0.298924 0
M  V30 2483 N 231.879 -6.90947 0.50637 0
M  V30 2484 N 233.672 -5.61601 0.236886 0
M  V30 2485 H 225.823 -1.8292 1.07953 0
M  V30 2486 H 228.086 -0.846425 0.42693 0
M  V30 2487 H 227.792 -3.36183 1.03315 0
M  V30 2488 H 227.666 -3.70981 -0.682143 0
M  V30 2489 H 230.053 -2.77326 -1.00869 0
M  V30 2490 H 230.134 -2.4518 0.729396 0
M  V30 2491 H 229.778 -4.93922 1.18338 0
M  V30 2492 H 229.708 -5.23484 -0.572044 0
M  V30 2493 H 232.199 -3.77899 -0.00697015 0
M  V30 2494 H 232.512 -7.7038 0.611076 0
M  V30 2495 H 230.857 -6.92878 0.542628 0
M  V30 2496 H 234.048 -4.68039 0.0756209 0
M  V30 2497 H 234.221 -6.47015 0.357227 0
M  V30 2498 N 227.627 0.131896 -1.57047 0
M  V30 2499 C 228.904 0.871495 -1.75112 0
M  V30 2500 C 229.284 1.9866 -0.713949 0
M  V30 2501 O 228.632 2.26965 0.264447 0
M  V30 2502 C 228.842 1.40007 -3.19686 0
M  V30 2503 C 230.19 1.85752 -3.81813 0
M  V30 2504 O 231.214 1.49715 -3.23209 0
M  V30 2505 O 230.073 2.5226 -4.84796 0
M  V30 2506 H 227.167 0.412919 -0.716538 0
M  V30 2507 H 229.713 0.116641 -1.69299 0
M  V30 2508 H 228.485 0.599404 -3.86682 0
M  V30 2509 H 228.108 2.218 -3.29986 0
M  V30 2510 N 229.106 1.52395 0.401703 0
M  V30 2511 C 230.036 1.79231 1.49661 0
M  V30 2512 C 231.017 0.643654 1.57452 0
M  V30 2513 O 232.202 0.889989 1.72606 0
M  V30 2514 C 229.332 1.94971 2.87409 0
M  V30 2515 C 228.286 3.10604 2.94465 0
M  V30 2516 C 227.612 3.11577 4.34538 0
M  V30 2517 C 228.912 4.49921 2.6527 0
M  V30 2518 H 230.606 2.70917 1.27454 0
M  V30 2519 H 228.152 1.30362 0.6117 0
M  V30 2520 H 230.105 2.12328 3.63999 0
M  V30 2521 H 228.829 0.999632 3.10926 0
M  V30 2522 H 227.488 2.93009 2.20321 0
M  V30 2523 H 227.136 2.14277 4.55076 0
M  V30 2524 H 226.836 3.89247 4.40183 0
M  V30 2525 H 228.36 3.31073 5.13053 0
M  V30 2526 H 229.774 4.67683 3.31581 0
M  V30 2527 H 228.171 5.29564 2.82281 0
M  V30 2528 H 229.241 4.57507 1.60671 0
M  V30 2529 N 230.584 -0.659388 1.43143 0
M  V30 2530 C 231.531 -1.77249 1.47822 0
M  V30 2531 C 232.501 -1.62818 0.328558 0
M  V30 2532 O 233.686 -1.83151 0.534838 0
M  V30 2533 C 230.826 -3.15371 1.40126 0
M  V30 2534 C 229.939 -3.4098 2.65249 0
M  V30 2535 C 229.074 -4.68915 2.49584 0
M  V30 2536 C 228.113 -4.87608 3.70006 0
M  V30 2537 N 227.25 -6.06796 3.53189 0
M  V30 2538 H 232.09 -1.72584 2.42938 0
M  V30 2539 H 229.627 -0.842297 1.20598 0
M  V30 2540 H 231.585 -3.9521 1.33659 0
M  V30 2541 H 230.215 -3.19121 0.485964 0
M  V30 2542 H 229.267 -2.55282 2.8202 0
M  V30 2543 H 230.579 -3.50681 3.54717 0
M  V30 2544 H 229.733 -5.56871 2.4079 0
M  V30 2545 H 228.472 -4.61524 1.5763 0
M  V30 2546 H 227.477 -3.9809 3.79215 0
M  V30 2547 H 228.702 -4.96834 4.62961 0
M  V30 2548 H 226.648 -6.00549 2.63965 0
M  V30 2549 H 226.565 -6.17428 4.36255 0
M  V30 2550 H 227.833 -6.9739 3.48236 0
M  V30 2551 N 232.062 -1.29571 -0.897171 0
M  V30 2552 C 233.025 -1.14913 -1.98312 0
M  V30 2553 C 234.025 -0.0838629 -1.60581 0
M  V30 2554 O 235.215 -0.331006 -1.71026 0
M  V30 2555 C 232.347 -0.757835 -3.3237 0
M  V30 2556 H 233.54 -2.11377 -2.12743 0
M  V30 2557 H 231.093 -1.12793 -1.08201 0
M  V30 2558 H 231.828 0.206837 -3.2364 0
M  V30 2559 H 231.613 -1.52755 -3.61121 0
M  V30 2560 H 233.103 -0.678408 -4.12053 0
M  V30 2561 N 233.54 1.10788 -1.12088 0
M  V30 2562 C 234.788 1.8231 -0.872205 0
M  V30 2563 C 235.109 1.85419 0.603709 0
M  V30 2564 O 234.379 1.32963 1.43867 0
M  V30 2565 H 232.959 0.675137 -0.319686 0
M  V30 2566 H 235.621 1.34068 -1.41463 0
M  V30 2567 H 234.717 2.85955 -1.25045 0
M  V30 2568 N 235.018 0.912232 1.28515 0
M  V30 2569 C 235.966 0.389597 2.29314 0
M  V30 2570 C 236.96 -0.517915 1.61289 0
M  V30 2571 O 238.166 -0.399328 1.75515 0
M  V30 2572 H 234.541 0.107386 0.744293 0
M  V30 2573 H 236.512 1.25286 2.70825 0
M  V30 2574 C 235.261 -0.356496 3.45868 0
M  V30 2575 H 234.584 0.332608 3.98414 0
M  V30 2576 H 236.024 -0.686851 4.184 0
M  V30 2577 C 234.483 -1.56383 2.98406 0
M  V30 2578 O 235.013 -2.66294 3.00749 0
M  V30 2579 N 233.219 -1.41029 2.54085 0
M  V30 2580 H 232.766 -0.516089 2.52377 0
M  V30 2581 H 232.724 -2.21939 2.22689 0
M  V30 2582 N 236.496 -1.42363 0.676048 0
M  V30 2583 C 237.745 -2.00745 0.196037 0
M  V30 2584 C 238.058 -1.54083 -1.20489 0
M  V30 2585 O 239.264 -2.04891 -1.78134 0
M  V30 2586 C 237.72 -3.58651 0.299616 0
M  V30 2587 C 237.328 -4.143 1.70468 0
M  V30 2588 C 239.072 -4.24326 -0.121619 0
M  V30 2589 C 236.979 -5.64574 1.76096 0
M  V30 2590 H 235.909 -0.750787 0.0695301 0
M  V30 2591 H 238.56 -1.63072 0.841412 0
M  V30 2592 H 236.942 -3.93833 -0.413673 0
M  V30 2593 H 238.116 -3.90575 2.44515 0
M  V30 2594 H 236.431 -3.61081 2.07387 0
M  V30 2595 H 239.028 -5.34607 -0.0997362 0
M  V30 2596 H 239.371 -3.99897 -1.15708 0
M  V30 2597 H 239.904 -3.94108 0.540706 0
M  V30 2598 H 236.643 -5.93804 2.77628 0
M  V30 2599 H 236.163 -5.90286 1.06406 0
M  V30 2600 H 237.842 -6.29013 1.51496 0
M  V30 2601 N 237.974 -0.419461 -1.51915 0
M  V30 2602 C 238.904 0.391813 -2.30189 0
M  V30 2603 C 239.885 1.03699 -1.34836 0
M  V30 2604 O 241.07 1.04403 -1.63748 0
M  V30 2605 C 238.2 1.50312 -3.13087 0
M  V30 2606 C 237.154 0.9824 -4.16573 0
M  V30 2607 C 236.48 2.18809 -4.8788 0
M  V30 2608 C 237.78 0.0292356 -5.22292 0
M  V30 2609 H 239.474 -0.26135 -2.98257 0
M  V30 2610 H 237.02 -0.127134 -1.43438 0
M  V30 2611 H 238.973 2.07773 -3.66617 0
M  V30 2612 H 237.697 2.18431 -2.42807 0
M  V30 2613 H 236.356 0.430119 -3.64068 0
M  V30 2614 H 236.004 2.85507 -4.14119 0
M  V30 2615 H 235.704 1.84615 -5.57845 0
M  V30 2616 H 237.228 2.76858 -5.44226 0
M  V30 2617 H 238.642 0.512976 -5.71 0
M  V30 2618 H 237.039 -0.2244 -5.9968 0
M  V30 2619 H 238.109 -0.912931 -4.76228 0
M  V30 2620 N 239.452 1.56882 -0.150215 0
M  V30 2621 C 240.699 1.96228 0.500093 0
M  V30 2622 C 241.027 1.03522 1.64661 0
M  V30 2623 O 240.282 0.0650683 1.95592 0
M  V30 2624 C 240.581 3.41801 1.04437 0
M  V30 2625 C 240.247 4.50897 0.0159671 0
M  V30 2626 C 238.909 4.8046 -0.266731 0
M  V30 2627 C 241.261 5.16703 -0.683192 0
M  V30 2628 C 238.589 5.73135 -1.25434 0
M  V30 2629 C 240.941 6.10441 -1.65964 0
M  V30 2630 C 239.605 6.38382 -1.95 0
M  V30 2631 H 238.875 0.718048 0.182997 0
M  V30 2632 H 241.522 1.90019 -0.237724 0
M  V30 2633 H 239.827 3.44857 1.85959 0
M  V30 2634 H 241.524 3.69573 1.55618 0
M  V30 2635 H 238.114 4.27891 0.246485 0
M  V30 2636 H 242.298 4.93993 -0.477983 0
M  V30 2637 H 237.554 5.93074 -1.48571 0
M  V30 2638 H 241.728 6.60507 -2.20689 0
M  V30 2639 H 239.355 7.09996 -2.71679 0
M  V30 2640 N 240.93 -0.123565 1.57115 0
M  V30 2641 C 242.158 -0.846461 1.88793 0
M  V30 2642 C 242.573 -1.73652 0.740976 0
M  V30 2643 O 241.93 -1.80207 -0.288393 0
M  V30 2644 C 241.981 -1.6837 3.19897 0
M  V30 2645 O 241.702 -0.829477 4.30176 0
M  V30 2646 C 243.203 -2.51214 3.65248 0
M  V30 2647 H 240.423 -0.243573 0.625231 0
M  V30 2648 H 242.967 -0.109324 2.04208 0
M  V30 2649 H 241.122 -2.37364 3.06165 0
M  V30 2650 H 241.536 -1.40651 5.0529 0
M  V30 2651 H 243.01 -3.05497 4.59756 0
M  V30 2652 H 243.487 -3.28359 2.9168 0
M  V30 2653 H 244.093 -1.8747 3.81752 0
M  V30 2654 N 242.408 -1.52605 -0.393616 0
M  V30 2655 C 243.338 -1.80022 -1.48709 0
M  V30 2656 C 244.319 -0.651995 -1.57108 0
M  V30 2657 O 245.504 -0.89913 -1.72132 0
M  V30 2658 C 242.634 -1.96492 -2.86371 0
M  V30 2659 C 241.588 -3.12161 -2.92813 0
M  V30 2660 C 240.914 -3.13877 -4.3288 0
M  V30 2661 C 242.214 -4.51322 -2.6288 0
M  V30 2662 H 243.908 -2.71589 -1.26015 0
M  V30 2663 H 241.454 -1.30684 -0.604778 0
M  V30 2664 H 243.407 -2.14255 -3.62867 0
M  V30 2665 H 242.131 -1.01611 -3.10391 0
M  V30 2666 H 240.79 -2.94173 -2.18764 0
M  V30 2667 H 240.438 -2.16687 -4.53933 0
M  V30 2668 H 240.138 -3.91576 -4.38112 0
M  V30 2669 H 241.662 -3.33789 -5.1129 0
M  V30 2670 H 243.076 -4.69435 -3.29096 0
M  V30 2671 H 241.473 -5.31053 -2.79468 0
M  V30 2672 H 242.543 -4.58353 -1.58242 0
M  V30 2673 N 243.887 0.651787 -1.4349 0
M  V30 2674 C 245.164 1.40909 -1.35661 0
M  V30 2675 C 245.544 2.11099 -0.00511733 0
M  V30 2676 O 244.892 2.04892 1.0115 0
M  V30 2677 C 245.102 2.3926 -2.54078 0
M  V30 2678 C 246.45 3.03217 -2.97228 0
M  V30 2679 O 247.474 2.49588 -2.54135 0
M  V30 2680 O 246.333 4.00455 -3.71885 0
M  V30 2681 H 243.427 0.629625 -0.536191 0
M  V30 2682 H 245.973 0.678575 -1.55542 0
M  V30 2683 H 244.745 1.86352 -3.44076 0
M  V30 2684 H 244.368 3.1976 -2.36303 0
M  V30 2685 N 245.365 1.30045 0.890287 0
M  V30 2686 C 246.613 1.18327 1.63839 0
M  V30 2687 C 246.934 -0.263455 1.93212 0
M  V30 2688 O 246.204 -1.17856 1.56482 0
M  V30 2689 H 244.784 0.434933 0.607324 0
M  V30 2690 H 247.446 1.631 1.06698 0
M  V30 2691 H 246.542 1.74024 2.59079 0
M  V30 2692 N 246.843 -1.10192 1.12674 0
M  V30 2693 C 248.12 -1.78717 0.794965 0
M  V30 2694 C 248.5 -1.98628 -0.714853 0
M  V30 2695 O 247.848 -1.58135 -1.64941 0
M  V30 2696 C 248.058 -3.11546 1.5729 0
M  V30 2697 C 249.406 -3.86382 1.76052 0
M  V30 2698 O 250.43 -3.21274 1.53823 0
M  V30 2699 O 249.289 -5.03246 2.13087 0
M  V30 2700 H 246.383 -0.774702 0.289423 0
M  V30 2701 H 248.929 -1.16819 1.23091 0
M  V30 2702 H 247.701 -2.92489 2.59935 0
M  V30 2703 H 247.324 -3.81164 1.13137 0
M  V30 2704 N 248.321 -0.919034 -1.28029 0
M  V30 2705 C 249.57 -0.550802 -1.94034 0
M  V30 2706 C 249.883 0.910877 -1.73096 0
M  V30 2707 O 251.089 1.3875 -2.33368 0
M  V30 2708 C 249.545 -0.934249 -3.47563 0
M  V30 2709 C 249.153 -2.41602 -3.7727 0
M  V30 2710 C 250.897 -0.636854 -4.19696 0
M  V30 2711 C 248.804 -2.73932 -5.24133 0
M  V30 2712 H 247.734 -0.202273 -0.726362 0
M  V30 2713 H 250.385 -1.11867 -1.45458 0
M  V30 2714 H 248.767 -0.295115 -3.94899 0
M  V30 2715 H 249.941 -3.10233 -3.40723 0
M  V30 2716 H 248.256 -2.68441 -3.18321 0
M  V30 2717 H 250.853 -0.855005 -5.2782 0
M  V30 2718 H 251.196 0.425575 -4.14119 0
M  V30 2719 H 251.729 -1.23469 -3.78154 0
M  V30 2720 H 248.468 -3.79049 -5.34792 0
M  V30 2721 H 247.988 -2.09942 -5.61858 0
M  V30 2722 H 249.667 -2.61215 -5.91925 0
M  V30 2723 N 249.799 1.42003 -0.683588 0
M  V30 2724 C 250.746 2.30798 -0.0107309 0
M  V30 2725 C 251.716 1.4645 0.783688 0
M  V30 2726 O 252.901 1.75263 0.754156 0
M  V30 2727 C 250.041 3.3238 0.928306 0
M  V30 2728 C 249.154 4.31814 0.126776 0
M  V30 2729 C 248.289 5.20468 1.06236 0
M  V30 2730 C 247.328 6.11577 0.253035 0
M  V30 2731 N 246.465 6.92754 1.14179 0
M  V30 2732 H 251.305 2.8778 -0.773727 0
M  V30 2733 H 248.842 1.41745 -0.393283 0
M  V30 2734 H 250.8 3.89813 1.48666 0
M  V30 2735 H 249.43 2.76976 1.65783 0
M  V30 2736 H 248.482 3.76427 -0.54833 0
M  V30 2737 H 249.794 4.96276 -0.501192 0
M  V30 2738 H 248.948 5.82677 1.69035 0
M  V30 2739 H 247.687 4.56204 1.7242 0
M  V30 2740 H 246.692 5.48428 -0.388108 0
M  V30 2741 H 247.917 6.77892 -0.404839 0
M  V30 2742 H 245.863 6.3111 1.78987 0
M  V30 2743 H 245.78 7.53855 0.569111 0
M  V30 2744 H 247.048 7.59441 1.75697 0
M  V30 2745 N 251.277 0.427512 1.51691 0
M  V30 2746 C 252.207 -0.3796 2.30394 0
M  V30 2747 C 253.188 -1.02982 1.35384 0
M  V30 2748 O 254.373 -1.03534 1.643 0
M  V30 2749 C 251.503 -1.48649 3.1388 0
M  V30 2750 C 250.457 -0.960294 4.17088 0
M  V30 2751 C 249.783 -2.16219 4.89033 0
M  V30 2752 C 251.083 -0.00153679 5.223 0
M  V30 2753 H 252.777 0.277164 2.98114 0
M  V30 2754 H 250.323 0.134739 1.43368 0
M  V30 2755 H 252.276 -2.05826 3.67714 0
M  V30 2756 H 251 -2.1714 2.43962 0
M  V30 2757 H 249.659 -0.410806 3.64291 0
M  V30 2758 H 249.307 -2.83307 4.15628 0
M  V30 2759 H 249.007 -1.81654 5.58816 0
M  V30 2760 H 250.531 -2.73968 5.45687 0
M  V30 2761 H 251.945 -0.482687 5.71264 0
M  V30 2762 H 250.342 0.256199 5.99553 0
M  V30 2763 H 251.412 0.938174 4.75738 0
M  V30 2764 N 252.755 -1.56801 0.158532 0
M  V30 2765 C 253.718 -2.16138 -0.762705 0
M  V30 2766 C 254.718 -1.1061 -1.16713 0
M  V30 2767 O 255.908 -1.36191 -1.08617 0
M  V30 2768 C 253.04 -2.73386 -2.03649 0
M  V30 2769 H 254.233 -2.98886 -0.246354 0
M  V30 2770 H 251.786 -1.56035 -0.0909744 0
M  V30 2771 H 252.521 -1.94335 -2.59623 0
M  V30 2772 H 252.306 -3.50601 -1.75559 0
M  V30 2773 H 253.796 -3.19065 -2.6942 0
M  V30 2774 N 254.233 0.115231 -1.57178 0
M  V30 2775 C 255.51 0.852873 -1.76027 0
M  V30 2776 C 255.89 1.97892 -0.73498 0
M  V30 2777 O 255.238 2.27232 0.24036 0
M  V30 2778 C 255.448 1.36608 -3.21153 0
M  V30 2779 C 256.796 1.81692 -3.83762 0
M  V30 2780 O 257.82 1.46278 -3.24779 0
M  V30 2781 O 256.679 2.47104 -4.87444 0
M  V30 2782 H 253.773 0.405296 -0.720877 0
M  V30 2783 H 256.319 0.0986785 -1.69413 0
M  V30 2784 H 255.091 0.558357 -3.87296 0
M  V30 2785 H 254.714 2.18287 -3.3232 0
M  V30 2786 N 255.711 1.52812 0.385517 0
M  V30 2787 C 256.958 1.68026 1.1302 0
M  V30 2788 C 257.286 0.421934 1.89868 0
M  V30 2789 O 256.541 -0.595749 1.86412 0
M  V30 2790 C 256.84 2.86856 2.13187 0
M  V30 2791 C 256.506 4.24159 1.5297 0
M  V30 2792 C 255.168 4.61501 1.36274 0
M  V30 2793 C 257.52 5.09627 1.09223 0
M  V30 2794 C 254.848 5.81966 0.743837 0
M  V30 2795 C 257.2 6.30719 0.487411 0
M  V30 2796 C 255.864 6.6679 0.307777 0
M  V30 2797 H 255.134 0.614849 0.413571 0
M  V30 2798 H 257.781 1.86962 0.414405 0
M  V30 2799 H 256.086 2.6235 2.90998 0
M  V30 2800 H 257.783 2.95821 2.70722 0
M  V30 2801 H 254.373 3.94746 1.66954 0
M  V30 2802 H 258.557 4.81343 1.20922 0
M  V30 2803 H 253.813 6.08519 0.592891 0
M  V30 2804 H 257.987 6.96259 0.140143 0
M  V30 2805 H 255.614 7.60001 -0.173879 0
M  V30 2806 N 257.189 -0.644168 1.43834 0
M  V30 2807 C 258.437 -1.40117 1.45642 0
M  V30 2808 C 258.758 -1.94814 0.0852413 0
M  V30 2809 O 258.028 -1.74988 -0.880688 0
M  V30 2810 H 256.608 -0.52005 0.536243 0
M  V30 2811 H 259.27 -0.7591 1.7951 0
M  V30 2812 H 258.366 -2.23902 2.17427 0
M  V30 2813 N 258.668 -1.30515 -0.883378 0
M  V30 2814 C 259.914 -1.19607 -1.63774 0
M  V30 2815 C 260.247 0.248314 -1.92606 0
M  V30 2816 O 259.522 1.17742 -1.54813 0
M  V30 2817 C 259.805 -2.02669 -2.97653 0
M  V30 2818 C 259.658 -3.55335 -2.75784 0
M  V30 2819 C 260.977 -1.86573 -3.98596 0
M  V30 2820 H 258.096 -0.435856 -0.594305 0
M  V30 2821 H 260.738 -1.60165 -1.02212 0
M  V30 2822 H 258.888 -1.68208 -3.50197 0
M  V30 2823 H 260.56 -3.99863 -2.30016 0
M  V30 2824 H 258.803 -3.79438 -2.1026 0
M  V30 2825 H 259.474 -4.08745 -3.70988 0
M  V30 2826 H 261.95 -2.16703 -3.55217 0
M  V30 2827 H 260.826 -2.47014 -4.90179 0
M  V30 2828 H 261.087 -0.825321 -4.34328 0
M  V30 2829 N 260.146 1.09593 -1.13257 0
M  V30 2830 C 261.371 1.8604 -0.916732 0
M  V30 2831 C 261.796 1.80504 0.529146 0
M  V30 2832 O 261.154 1.18127 1.37534 0
M  V30 2833 C 261.202 3.32017 -1.40703 0
M  V30 2834 O 260.306 4.08141 -0.591153 0
M  V30 2835 H 259.647 0.576943 -0.328683 0
M  V30 2836 H 262.177 1.38405 -1.50682 0
M  V30 2837 H 262.187 3.82865 -1.4099 0
M  V30 2838 H 260.862 3.35361 -2.45979 0
M  V30 2839 H 259.439 3.67084 -0.656005 0
M  V30 2840 N 261.624 0.925811 1.2754 0
M  V30 2841 C 262.587 0.428129 2.25166 0
M  V30 2842 C 263.587 -0.452261 1.54309 0
M  V30 2843 O 264.777 -0.253608 1.72344 0
M  V30 2844 C 261.909 -0.384749 3.38722 0
M  V30 2845 H 263.102 1.29066 2.70706 0
M  V30 2846 H 260.655 0.706323 1.3943 0
M  V30 2847 H 261.39 -1.26618 2.98561 0
M  V30 2848 H 261.175 0.246454 3.91325 0
M  V30 2849 H 262.665 -0.723389 4.11287 0
M  V30 2850 N 263.102 -1.41638 0.69111 0
M  V30 2851 C 264.049 -2.30789 0.0229705 0
M  V30 2852 C 265.019 -1.46863 -0.775911 0
M  V30 2853 O 266.204 -1.75661 -0.74485 0
M  V30 2854 C 263.344 -3.32868 -0.910666 0
M  V30 2855 C 262.457 -4.31875 -0.103874 0
M  V30 2856 C 261.592 -5.21024 -1.03475 0
M  V30 2857 C 260.631 -6.11702 -0.220598 0
M  V30 2858 N 259.768 -6.93349 -1.10504 0
M  V30 2859 H 264.608 -2.87366 0.788978 0
M  V30 2860 H 262.145 -1.41535 0.400794 0
M  V30 2861 H 264.103 -3.90596 -1.46597 0
M  V30 2862 H 262.733 -2.77851 -1.64312 0
M  V30 2863 H 261.785 -3.76131 0.568285 0
M  V30 2864 H 263.097 -4.96003 0.527504 0
M  V30 2865 H 262.251 -5.83565 -1.65943 0
M  V30 2866 H 260.99 -4.57112 -1.69999 0
M  V30 2867 H 259.995 -5.48215 0.417187 0
M  V30 2868 H 261.22 -6.77668 0.440784 0
M  V30 2869 H 259.166 -6.3205 -1.75638 0
M  V30 2870 H 259.083 -7.54146 -0.529125 0
M  V30 2871 H 260.351 -7.60362 -1.71667 0
M  V30 2872 N 264.58 -0.43555 -1.51462 0
M  V30 2873 C 265.528 0.391205 -2.29287 0
M  V30 2874 C 266.522 1.02247 -1.35062 0
M  V30 2875 O 267.728 0.957646 -1.52411 0
M  V30 2876 H 264.103 0.144968 -0.737895 0
M  V30 2877 H 266.074 -0.286051 -2.97026 0
M  V30 2878 C 264.823 1.48096 -3.14583 0
M  V30 2879 H 264.146 1.00457 -3.86973 0
M  V30 2880 H 265.586 2.03273 -3.72097 0
M  V30 2881 C 264.045 2.46321 -2.29843 0
M  V30 2882 O 264.575 3.50815 -1.95682 0
M  V30 2883 N 262.781 2.17166 -1.931 0
M  V30 2884 H 262.328 1.32218 -2.21079 0
M  V30 2885 H 262.286 2.83127 -1.36698 0
M  V30 2886 N 266.058 1.56714 -0.166846 0
M  V30 2887 C 267.286 2.0112 0.485644 0
M  V30 2888 C 267.701 1.04705 1.57106 0
M  V30 2889 O 267.058 0.0471923 1.82439 0
M  V30 2890 C 267.109 3.45361 1.06808 0
M  V30 2891 O 266.83 4.38092 0.0259995 0
M  V30 2892 C 268.331 4.05145 1.79924 0
M  V30 2893 H 265.551 0.65931 0.124704 0
M  V30 2894 H 268.095 2.02746 -0.267262 0
M  V30 2895 H 266.25 3.44524 1.7715 0
M  V30 2896 H 266.664 5.22519 0.455398 0
M  V30 2897 H 268.138 5.08009 2.15942 0
M  V30 2898 H 268.615 3.46982 2.69258 0
M  V30 2899 H 269.221 4.09672 1.14234 0
M  V30 2900 N 267.536 -0.106894 1.57237 0
M  V30 2901 C 268.952 -0.46078 1.52804 0
M  V30 2902 C 269.152 -1.81184 0.881746 0
M  V30 2903 O 268.208 -2.48102 0.469224 0
M  V30 2904 C 269.521 -0.434127 2.9755 0
M  V30 2905 C 271.069 -0.516821 3.08704 0
M  V30 2906 C 271.544 -0.520436 4.55033 0
M  V30 2907 N 273.035 -0.58153 4.59535 0
M  V30 2908 C 273.77 -0.605973 5.70189 0
M  V30 2909 N 273.266 -0.587331 6.90306 0
M  V30 2910 N 275.059 -0.649895 5.5833 0
M  V30 2911 H 267.21 0.778203 1.9763 0
M  V30 2912 H 269.473 0.288403 0.903066 0
M  V30 2913 H 269.179 0.491197 3.48253 0
M  V30 2914 H 269.053 -1.25748 3.55622 0
M  V30 2915 H 271.44 -1.43256 2.57995 0
M  V30 2916 H 271.521 0.334449 2.53604 0
M  V30 2917 H 271.165 0.391313 5.0639 0
M  V30 2918 H 271.095 -1.38876 5.07958 0
M  V30 2919 H 273.586 -0.60161 3.73081 0
M  V30 2920 H 273.899 -0.60894 7.70397 0
M  V30 2921 H 272.244 -0.554564 6.92784 0
M  V30 2922 H 275.435 -0.661907 4.63397 0
M  V30 2923 H 275.608 -0.665476 6.44574 0
M  V30 2924 N 269.014 -1.53014 -0.377408 0
M  V30 2925 C 270.242 -1.72515 -1.14219 0
M  V30 2926 C 270.657 -0.448735 -1.8339 0
M  V30 2927 O 270.014 0.577592 -1.73119 0
M  V30 2928 C 270.065 -2.8826 -2.18148 0
M  V30 2929 O 269.786 -4.10962 -1.51795 0
M  V30 2930 C 271.287 -3.19536 -3.07264 0
M  V30 2931 H 268.507 -0.577301 -0.342001 0
M  V30 2932 H 271.051 -1.99712 -0.439935 0
M  V30 2933 H 269.206 -2.63492 -2.83991 0
M  V30 2934 H 269.62 -4.75693 -2.20945 0
M  V30 2935 H 271.094 -4.03959 -3.76193 0
M  V30 2936 H 271.571 -2.34403 -3.71419 0
M  V30 2937 H 272.177 -3.46186 -2.47053 0
M  V30 2938 N 270.492 0.636531 -1.44174 0
M  V30 2939 C 271.741 1.39213 -1.45954 0
M  V30 2940 C 272.054 1.95374 -0.0939119 0
M  V30 2941 O 273.26 2.71498 0.0107767 0
M  V30 2942 C 271.716 2.52025 -2.56927 0
M  V30 2943 C 271.324 2.024 -3.99673 0
M  V30 2944 C 273.068 3.29269 -2.67922 0
M  V30 2945 C 270.975 3.12521 -5.0208 0
M  V30 2946 H 269.905 0.523132 -0.542999 0
M  V30 2947 H 272.556 0.685349 -1.70221 0
M  V30 2948 H 270.938 3.25253 -2.25891 0
M  V30 2949 H 272.112 1.36073 -4.40251 0
M  V30 2950 H 270.427 1.37987 -3.92872 0
M  V30 2951 H 273.024 4.11352 -3.41605 0
M  V30 2952 H 273.367 3.78397 -1.73555 0
M  V30 2953 H 273.9 2.63129 -2.98342 0
M  V30 2954 H 270.639 2.68343 -5.98057 0
M  V30 2955 H 270.159 3.77507 -4.66099 0
M  V30 2956 H 271.838 3.77385 -5.25538 0
M  V30 2957 N 271.97 1.30982 0.876444 0
M  V30 2958 C 272.902 1.13902 1.98894 0
M  V30 2959 C 273.915 0.0798815 1.62604 0
M  V30 2960 O 275.104 0.326743 1.75484 0
M  V30 2961 C 272.204 0.716699 3.31235 0
M  V30 2962 C 271.377 1.85945 3.95908 0
M  V30 2963 C 270.436 1.42426 5.06558 0
M  V30 2964 O 269.462 2.13287 5.27729 0
M  V30 2965 N 270.664 0.308025 5.79682 0
M  V30 2966 H 273.429 2.09724 2.14094 0
M  V30 2967 H 270.99 1.2323 1.05004 0
M  V30 2968 H 272.982 0.408403 4.02634 0
M  V30 2969 H 271.552 -0.149719 3.12241 0
M  V30 2970 H 270.772 2.33541 3.17573 0
M  V30 2971 H 272.06 2.62503 4.35855 0
M  V30 2972 H 271.458 -0.282241 5.64995 0
M  V30 2973 H 270.015 0.0592282 6.51773 0
M  V30 2974 N 273.449 -1.08991 1.13837 0
M  V30 2975 C 274.865 -1.33312 0.877506 0
M  V30 2976 C 275.065 -1.95587 -0.48456 0
M  V30 2977 O 274.121 -2.20509 -1.23013 0
M  V30 2978 C 275.434 -2.24045 2.0056 0
M  V30 2979 C 276.982 -2.37542 2.03821 0
M  V30 2980 C 277.457 -3.31614 3.15905 0
M  V30 2981 N 278.948 -3.39189 3.15445 0
M  V30 2982 C 279.683 -4.11992 3.98811 0
M  V30 2983 N 279.179 -4.87553 4.92203 0
M  V30 2984 N 280.972 -4.07762 3.86894 0
M  V30 2985 H 273.123 -0.669456 2.01574 0
M  V30 2986 H 275.386 -0.357482 0.878015 0
M  V30 2987 H 275.092 -1.85521 2.98789 0
M  V30 2988 H 274.966 -3.24466 1.92359 0
M  V30 2989 H 277.353 -2.75327 1.06202 0
M  V30 2990 H 277.434 -1.36884 2.16093 0
M  V30 2991 H 277.078 -2.94551 4.13766 0
M  V30 2992 H 277.008 -4.32186 3.0087 0
M  V30 2993 H 279.499 -2.85314 2.47799 0
M  V30 2994 H 279.812 -5.40549 5.52292 0
M  V30 2995 H 278.157 -4.86627 4.96205 0
M  V30 2996 H 281.348 -3.47833 3.13257 0
M  V30 2997 H 281.521 -4.64238 4.52092 0
M  V30 2998 N 274.927 -0.932562 -1.27047 0
M  V30 2999 C 276.343 -0.633544 -1.46487 0
M  V30 3000 C 276.543 0.815746 -1.84249 0
M  V30 3001 O 275.599 1.59319 -1.95892 0
M  V30 3002 C 276.912 -1.58758 -2.55375 0
M  V30 3003 C 278.46 -1.59634 -2.69232 0
M  V30 3004 C 278.935 -2.53747 -3.81283 0
M  V30 3005 N 280.426 -2.51982 -3.88664 0
M  V30 3006 C 281.161 -3.21491 -4.74796 0
M  V30 3007 N 280.657 -4.00395 -5.65381 0
M  V30 3008 N 282.45 -3.10485 -4.68568 0
M  V30 3009 H 274.601 -1.86946 -1.00821 0
M  V30 3010 H 276.864 -0.802897 -0.504044 0
M  V30 3011 H 276.57 -2.62172 -2.34432 0
M  V30 3012 H 276.444 -1.33301 -3.52861 0
M  V30 3013 H 278.831 -0.569488 -2.89553 0
M  V30 3014 H 278.912 -1.89142 -1.72218 0
M  V30 3015 H 278.556 -3.56545 -3.61715 0
M  V30 3016 H 278.486 -2.21532 -4.77735 0
M  V30 3017 H 280.977 -1.94681 -3.23895 0
M  V30 3018 H 281.29 -4.50406 -6.27976 0
M  V30 3019 H 279.635 -4.04498 -5.65161 0
M  V30 3020 H 282.826 -2.48331 -3.96799 0
M  V30 3021 H 282.999 -3.64925 -5.35475 0
M  V30 3022 N 276.405 1.4127 -0.698611 0
M  V30 3023 C 277.682 1.94955 -0.158762 0
M  V30 3024 C 278.062 1.63781 1.33188 0
M  V30 3025 O 277.41 0.946423 2.07979 0
M  V30 3026 C 277.62 3.46044 -0.453309 0
M  V30 3027 C 278.968 4.22872 -0.382707 0
M  V30 3028 O 279.992 3.54076 -0.388396 0
M  V30 3029 O 278.851 5.45407 -0.345463 0
M  V30 3030 H 275.945 0.82683 -0.0167505 0
M  V30 3031 H 278.491 1.50971 -0.77498 0
M  V30 3032 H 277.263 3.62028 -1.48498 0
M  V30 3033 H 276.886 3.97128 0.19373 0
M  V30 3034 N 277.883 0.443576 1.51229 0
M  V30 3035 C 279.108 -0.121648 2.07043 0
M  V30 3036 C 279.533 -1.35156 1.30823 0
M  V30 3037 O 278.891 -1.7793 0.347934 0
M  V30 3038 C 278.939 -0.41624 3.5819 0
M  V30 3039 O 278.043 -1.50163 3.8409 0
M  V30 3040 H 277.384 0.000871367 0.663999 0
M  V30 3041 H 279.914 0.626706 1.94765 0
M  V30 3042 H 279.924 -0.664867 4.02546 0
M  V30 3043 H 278.599 0.482653 4.1309 0
M  V30 3044 H 277.176 -1.24248 3.51592 0
M  V30 3045 N 279.361 -1.56624 0.175154 0
M  V30 3046 C 280.608 -1.96999 -0.468811 0
M  V30 3047 C 280.936 -1.06129 -1.62994 0
M  V30 3048 O 280.191 -0.0961771 -1.95464 0
M  V30 3049 C 280.49 -3.43419 -0.989864 0
M  V30 3050 C 280.156 -4.50866 0.0557687 0
M  V30 3051 C 278.818 -4.79975 0.343134 0
M  V30 3052 C 281.17 -5.15551 0.765308 0
M  V30 3053 C 278.498 -5.71066 1.34536 0
M  V30 3054 C 280.85 -6.07724 1.75654 0
M  V30 3055 C 279.514 -6.35199 2.05132 0
M  V30 3056 H 278.784 -0.720869 -0.17155 0
M  V30 3057 H 281.431 -1.89616 0.267924 0
M  V30 3058 H 279.736 -3.47772 -1.80449 0
M  V30 3059 H 281.433 -3.72002 -1.49719 0
M  V30 3060 H 278.023 -4.28229 -0.178381 0
M  V30 3061 H 282.207 -4.9317 0.556513 0
M  V30 3062 H 277.463 -5.90635 1.57988 0
M  V30 3063 H 281.637 -6.56912 2.31169 0
M  V30 3064 H 279.264 -7.05584 2.8294 0
M  V30 3065 N 280.839 0.0985539 -1.57292 0
M  V30 3066 C 282.088 0.801358 -1.85098 0
M  V30 3067 C 282.401 1.80066 -0.763902 0
M  V30 3068 O 283.607 2.55112 -0.928981 0
M  V30 3069 C 282.063 1.47599 -3.28242 0
M  V30 3070 C 281.671 0.516624 -4.45011 0
M  V30 3071 C 283.415 2.16272 -3.65276 0
M  V30 3072 C 281.322 1.19564 -5.79188 0
M  V30 3073 H 280.252 0.303022 -0.69043 0
M  V30 3074 H 282.903 0.0542623 -1.8342 0
M  V30 3075 H 281.285 2.27042 -3.2445 0
M  V30 3076 H 282.459 -0.246065 -4.60143 0
M  V30 3077 H 280.774 -0.064227 -4.1635 0
M  V30 3078 H 283.371 2.67802 -4.62803 0
M  V30 3079 H 283.714 2.95009 -2.93727 0
M  V30 3080 H 284.247 1.43693 -3.70941 0
M  V30 3081 H 280.986 0.449157 -6.53959 0
M  V30 3082 H 280.506 1.92984 -5.67906 0
M  V30 3083 H 282.185 1.7231 -6.23633 0
M  V30 3084 N 282.317 1.53212 0.369288 0
M  V30 3085 C 283.565 1.68881 1.11012 0
M  V30 3086 C 283.886 0.441285 1.89941 0
M  V30 3087 O 283.156 -0.544623 1.88177 0
M  V30 3088 H 281.736 0.622569 0.412816 0
M  V30 3089 H 284.398 1.90391 0.416802 0
M  V30 3090 H 283.494 2.54822 1.80201 0
M  V30 3091 N 283.795 -0.628877 1.44509 0
M  V30 3092 C 285.023 -1.41554 1.50897 0
M  V30 3093 C 285.438 -1.8832 0.134564 0
M  V30 3094 O 284.795 -1.60969 -0.859965 0
M  V30 3095 C 284.846 -2.63435 2.47556 0
M  V30 3096 O 284.567 -2.18619 3.79654 0
M  V30 3097 C 286.068 -3.56537 2.63431 0
M  V30 3098 H 283.288 -0.434044 0.511709 0
M  V30 3099 H 285.832 -0.768895 1.89495 0
M  V30 3100 H 283.987 -3.24187 2.12089 0
M  V30 3101 H 284.401 -2.97652 4.31861 0
M  V30 3102 H 285.875 -4.38657 3.35088 0
M  V30 3103 H 286.352 -4.05493 1.68738 0
M  V30 3104 H 286.958 -3.01653 2.9981 0
M  V30 3105 N 285.273 -1.31445 -0.869486 0
M  V30 3106 C 286.684 -1.19042 -1.43826 0
M  V30 3107 C 287.035 0.202919 -1.95148 0
M  V30 3108 O 286.16 1.10071 -1.86315 0
M  V30 3109 C 286.755 -2.15499 -2.6143 0
M  V30 3110 C 285.314 -2.07028 -3.14351 0
M  V30 3111 C 284.461 -2.04701 -1.87063 0
M  V30 3112 H 287.412 -1.43489 -0.677984 0
M  V30 3113 H 287.433 -1.74488 -3.38134 0
M  V30 3114 H 286.945 -3.16899 -2.24046 0
M  V30 3115 H 285.046 -1.08825 -3.56354 0
M  V30 3116 H 285.159 -2.96157 -3.766 0
M  V30 3117 H 283.523 -1.49724 -2.06046 0
M  V30 3118 H 284.306 -3.07857 -1.51917 0
M  V30 3119 N 286.751 1.08385 -1.14413 0
M  V30 3120 C 287.981 1.8425 -0.934644 0
M  V30 3121 C 288.389 1.81907 0.520234 0
M  V30 3122 O 287.732 1.22126 1.37226 0
M  V30 3123 C 287.794 3.32853 -1.35828 0
M  V30 3124 C 287.458 3.5893 -2.82875 0
M  V30 3125 C 288.455 3.53756 -3.80989 0
M  V30 3126 C 286.14 3.86934 -3.20293 0
M  V30 3127 C 288.134 3.76216 -5.14529 0
M  V30 3128 C 285.821 4.09047 -4.54008 0
M  V30 3129 C 286.819 4.03682 -5.50936 0
M  V30 3130 O 286.507 4.25214 -6.82238 0
M  V30 3131 H 286.239 0.588502 -0.332628 0
M  V30 3132 H 288.793 1.37792 -1.52324 0
M  V30 3133 H 287.023 3.8007 -0.713019 0
M  V30 3134 H 288.712 3.90154 -1.11957 0
M  V30 3135 H 289.478 3.32135 -3.53428 0
M  V30 3136 H 285.357 3.9023 -2.45442 0
M  V30 3137 H 288.901 3.71943 -5.90173 0
M  V30 3138 H 284.798 4.30151 -4.8129 0
M  V30 3139 H 285.566 4.42619 -6.88499 0
M  V30 3140 N 288.23 0.939286 1.26551 0
M  V30 3141 C 289.476 0.596234 1.94465 0
M  V30 3142 C 289.831 -0.855013 1.72358 0
M  V30 3143 O 289.124 -1.6034 1.04889 0
M  V30 3144 C 289.318 0.872106 3.46596 0
M  V30 3145 C 289.147 2.34862 3.83497 0
M  V30 3146 C 287.917 3.00344 4.06352 0
M  V30 3147 C 290.115 3.32697 3.92195 0
M  V30 3148 N 288.097 4.38027 4.30123 0
M  V30 3149 C 289.468 4.55631 4.20476 0
M  V30 3150 C 291.523 3.27747 3.74815 0
M  V30 3151 C 290.226 5.74233 4.33185 0
M  V30 3152 C 292.252 4.45672 3.88755 0
M  V30 3153 C 291.614 5.67388 4.17433 0
M  V30 3154 H 287.713 0.268515 0.734455 0
M  V30 3155 H 290.297 1.2083 1.5267 0
M  V30 3156 H 288.468 0.289102 3.87323 0
M  V30 3157 H 290.2 0.490513 4.01716 0
M  V30 3158 H 286.955 2.50969 4.01636 0
M  V30 3159 H 287.379 5.09288 4.46044 0
M  V30 3160 H 292.021 2.34703 3.51673 0
M  V30 3161 H 289.739 6.67731 4.55149 0
M  V30 3162 H 293.325 4.43372 3.76713 0
M  V30 3163 H 292.205 6.57115 4.27983 0
M  V30 3164 N 289.708 -1.40897 0.706093 0
M  V30 3165 C 290.641 -2.282 -0.00328781 0
M  V30 3166 C 291.619 -1.42816 -0.77732 0
M  V30 3167 O 292.803 -1.72237 -0.765944 0
M  V30 3168 C 289.93 -3.23226 -1.01205 0
M  V30 3169 C 288.976 -4.25222 -0.329955 0
M  V30 3170 S 289.809 -5.27269 0.935298 0
M  V30 3171 C 290.965 -6.25859 -0.0716061 0
M  V30 3172 H 291.198 -2.88016 0.737143 0
M  V30 3173 H 288.731 -1.46191 0.496756 0
M  V30 3174 H 290.689 -3.78503 -1.58888 0
M  V30 3175 H 289.35 -2.62485 -1.72513 0
M  V30 3176 H 288.543 -4.92023 -1.09221 0
M  V30 3177 H 288.145 -3.73595 0.174069 0
M  V30 3178 H 290.437 -6.71204 -0.921521 0
M  V30 3179 H 291.38 -7.0586 0.562765 0
M  V30 3180 H 291.788 -5.62852 -0.431088 0
M  V30 3181 N 291.186 -0.45159 -1.50991 0
M  V30 3182 C 292.149 0.341117 -2.26647 0
M  V30 3183 C 293.149 0.937422 -1.30649 0
M  V30 3184 O 294.339 0.809644 -1.54241 0
M  V30 3185 C 291.471 1.48398 -3.06905 0
M  V30 3186 H 292.664 -0.322117 -2.98165 0
M  V30 3187 H 290.217 -0.205122 -1.54948 0
M  V30 3188 H 290.952 2.18284 -2.39838 0
M  V30 3189 H 290.737 1.06241 -3.77432 0
M  V30 3190 H 292.227 2.04367 -3.64176 0
M  V30 3191 N 292.664 1.56529 -0.183458 0
M  V30 3192 C 294.075 1.83739 0.331177 0
M  V30 3193 C 294.426 1.10373 1.62211 0
M  V30 3194 O 293.551 0.36071 2.13373 0
M  V30 3195 C 294.146 3.33306 0.607646 0
M  V30 3196 C 292.705 3.60969 1.06668 0
M  V30 3197 C 291.852 2.77086 0.109029 0
M  V30 3198 H 294.803 1.53379 -0.407484 0
M  V30 3199 H 294.824 3.51444 1.45832 0
M  V30 3200 H 294.336 3.86677 -0.332086 0
M  V30 3201 H 292.437 3.13021 2.0211 0
M  V30 3202 H 292.55 4.69231 0.967447 0
M  V30 3203 H 290.914 2.47319 0.608714 0
M  V30 3204 H 291.697 3.33241 -0.82494 0
M  V30 3205 N 294.142 -0.090211 1.57342 0
M  V30 3206 C 295.052 -1.12735 2.05738 0
M  V30 3207 C 296.068 -1.43557 0.983231 0
M  V30 3208 O 297.244 -1.54101 1.29672 0
M  V30 3209 C 294.309 -2.42659 2.47624 0
M  V30 3210 C 293.37 -2.18975 3.69254 0
M  V30 3211 C 292.603 -3.42704 4.09133 0
M  V30 3212 O 292.826 -4.51127 3.49057 0
M  V30 3213 O 291.76 -3.32003 5.02053 0
M  V30 3214 H 295.586 -0.746279 2.94388 0
M  V30 3215 H 293.171 -0.303064 1.46294 0
M  V30 3216 H 295.053 -3.19155 2.7517 0
M  V30 3217 H 293.728 -2.80182 1.62109 0
M  V30 3218 H 292.635 -1.40244 3.46818 0
M  V30 3219 H 293.968 -1.86342 4.55563 0
M  V30 3220 N 295.62 -1.53406 -0.361157 0
M  V30 3221 C 296.866 -1.70054 -1.10496 0
M  V30 3222 C 297.199 -0.453278 -1.88836 0
M  V30 3223 O 296.474 0.5495 -1.86576 0
M  V30 3224 C 296.757 -2.95317 -2.06058 0
M  V30 3225 C 296.61 -4.3021 -1.31298 0
M  V30 3226 C 297.929 -3.16193 -3.06121 0
M  V30 3227 H 295.048 -0.618799 -0.400321 0
M  V30 3228 H 297.69 -1.86052 -0.385318 0
M  V30 3229 H 295.84 -2.81809 -2.67425 0
M  V30 3230 H 297.512 -4.55538 -0.726807 0
M  V30 3231 H 295.755 -4.29421 -0.614853 0
M  V30 3232 H 296.426 -5.14 -2.01265 0
M  V30 3233 H 298.902 -3.28916 -2.5486 0
M  V30 3234 H 297.778 -4.05266 -3.70204 0
M  V30 3235 H 298.039 -2.31676 -3.76535 0
M  V30 3236 N 297.098 0.621204 -1.44841 0
M  V30 3237 C 298.344 1.3826 -1.48365 0
M  V30 3238 C 298.677 1.93831 -0.119624 0
M  V30 3239 O 297.952 1.74251 0.864111 0
M  V30 3240 C 298.235 2.54058 -2.55199 0
M  V30 3241 C 298.088 2.03772 -4.00995 0
M  V30 3242 C 299.407 3.56225 -2.58442 0
M  V30 3243 H 296.526 0.501374 -0.540179 0
M  V30 3244 H 299.168 0.7015 -1.76576 0
M  V30 3245 H 297.318 3.12162 -2.31274 0
M  V30 3246 H 298.99 1.50423 -4.36086 0
M  V30 3247 H 297.233 1.34876 -4.12299 0
M  V30 3248 H 297.904 2.87185 -4.71411 0
M  V30 3249 H 300.38 3.07939 -2.79844 0
M  V30 3250 H 299.256 4.34756 -3.3508 0
M  V30 3251 H 299.517 4.10949 -1.63013 0
M  V30 3252 N 298.576 1.31904 0.862503 0
M  V30 3253 C 299.509 1.14514 1.97388 0
M  V30 3254 C 300.487 0.0466493 1.62533 0
M  V30 3255 O 301.671 0.204484 1.87388 0
M  V30 3256 C 298.798 0.751347 3.30261 0
M  V30 3257 C 297.844 1.85395 3.84098 0
M  V30 3258 S 298.677 3.46081 4.08642 0
M  V30 3259 C 299.833 3.08655 5.44502 0
M  V30 3260 H 300.066 2.08597 2.11836 0
M  V30 3261 H 297.599 1.16475 1.01356 0
M  V30 3262 H 299.557 0.530901 4.07052 0
M  V30 3263 H 298.218 -0.170493 3.13637 0
M  V30 3264 H 297.411 1.53122 4.80177 0
M  V30 3265 H 297.013 2.02984 3.14123 0
M  V30 3266 H 299.305 2.58012 6.26447 0
M  V30 3267 H 300.248 4.03726 5.81731 0
M  V30 3268 H 300.656 2.45891 5.08132 0
M  V30 3269 N 300.054 -1.07777 1.14986 0
M  V30 3270 C 301.294 -1.81888 0.932527 0
M  V30 3271 C 301.658 -1.84509 -0.531064 0
M  V30 3272 O 302.859 -2.54448 -0.866577 0
M  V30 3273 C 301.13 -3.23244 1.52473 0
M  V30 3274 S 302.689 -4.14154 1.44989 0
M  V30 3275 H 299.507 -0.626752 0.335712 0
M  V30 3276 H 302.109 -1.29503 1.46455 0
M  V30 3277 H 300.813 -3.18922 2.58296 0
M  V30 3278 H 300.344 -3.80704 0.991381 0
M  V30 3279 H 302.359 -4.94247 0.439799 0
M  V30 3280 N 301.532 -0.945985 -1.26051 0
M  V30 3281 C 302.442 -0.465633 -2.29933 0
M  V30 3282 C 303.458 0.462761 -1.67733 0
M  V30 3283 O 304.634 0.341118 -1.9849 0
M  V30 3284 C 301.699 0.256994 -3.45746 0
M  V30 3285 C 300.76 -0.708549 -4.23412 0
M  V30 3286 C 299.993 -0.0203135 -5.33696 0
M  V30 3287 O 300.216 1.19571 -5.57726 0
M  V30 3288 O 299.15 -0.701459 -5.97799 0
M  V30 3289 H 302.976 -1.32866 -2.73094 0
M  V30 3290 H 300.561 -0.712071 -1.31339 0
M  V30 3291 H 302.443 0.663852 -4.16138 0
M  V30 3292 H 301.118 1.09533 -3.04605 0
M  V30 3293 H 300.025 -1.16545 -3.55483 0
M  V30 3294 H 301.358 -1.51465 -4.68315 0
M  V30 3295 N 303.011 1.40521 -0.713556 0
M  V30 3296 C 304.239 2.05237 -0.261775 0
M  V30 3297 C 304.654 1.53755 1.09567 0
M  V30 3298 O 304.011 0.693268 1.6882 0
M  V30 3299 C 304.062 3.60763 -0.230706 0
M  V30 3300 O 303.783 4.10345 -1.53455 0
M  V30 3301 C 305.284 4.42651 0.239874 0
M  V30 3302 H 302.504 0.660533 -0.118057 0
M  V30 3303 H 305.048 1.79967 -0.971192 0
M  V30 3304 H 303.203 3.8501 0.429661 0
M  V30 3305 H 303.617 5.04526 -1.43366 0
M  V30 3306 H 305.091 5.51599 0.210468 0
M  V30 3307 H 305.568 4.20082 1.28171 0
M  V30 3308 H 306.174 4.23507 -0.390142 0
M  V30 3309 N 304.489 0.459591 1.5075 0
M  V30 3310 C 305.714 -0.0996819 2.0716 0
M  V30 3311 C 306.139 -1.33761 1.32249 0
M  V30 3312 O 305.497 -1.77551 0.366786 0
M  V30 3313 C 305.545 -0.378226 3.58611 0
M  V30 3314 O 304.649 -1.46081 3.85661 0
M  V30 3315 H 303.99 0.00791392 0.663953 0
M  V30 3316 H 306.52 0.647329 1.9409 0
M  V30 3317 H 306.53 -0.622135 4.03229 0
M  V30 3318 H 305.205 0.526439 4.12555 0
M  V30 3319 H 303.782 -1.20511 3.5289 0
M  V30 3320 N 305.967 -1.56429 0.191757 0
M  V30 3321 C 306.914 -2.18936 -0.730454 0
M  V30 3322 C 307.884 -1.13557 -1.21219 0
M  V30 3323 O 309.069 -1.41794 -1.27668 0
M  V30 3324 C 306.209 -2.85013 -1.9458 0
M  V30 3325 C 305.322 -4.04909 -1.50574 0
M  V30 3326 C 304.457 -4.58853 -2.67634 0
M  V30 3327 C 303.496 -5.71114 -2.20217 0
M  V30 3328 N 302.633 -6.19478 -3.30442 0
M  V30 3329 H 307.473 -2.97389 -0.190664 0
M  V30 3330 H 305.01 -1.46869 -0.0823694 0
M  V30 3331 H 306.968 -3.21492 -2.65893 0
M  V30 3332 H 305.598 -2.09129 -2.45896 0
M  V30 3333 H 304.65 -3.74115 -0.688605 0
M  V30 3334 H 305.962 -4.86113 -1.11784 0
M  V30 3335 H 305.116 -4.97619 -3.47074 0
M  V30 3336 H 303.855 -3.76749 -3.09696 0
M  V30 3337 H 302.86 -5.31879 -1.3923 0
M  V30 3338 H 304.085 -6.55033 -1.79189 0
M  V30 3339 H 302.031 -5.40297 -3.72041 0
M  V30 3340 H 301.948 -6.95725 -2.9581 0
M  V30 3341 H 303.216 -6.62898 -4.10106 0
M  V30 3342 N 307.445 0.0818655 -1.57387 0
M  V30 3343 C 308.722 0.815343 -1.77796 0
M  V30 3344 C 309.102 1.96289 -0.77679 0
M  V30 3345 O 308.45 2.27691 0.192106 0
M  V30 3346 C 308.66 1.29765 -3.23978 0
M  V30 3347 C 310.008 1.7351 -3.8753 0
M  V30 3348 O 311.032 1.39356 -3.27808 0
M  V30 3349 O 309.891 2.36708 -4.92576 0
M  V30 3350 H 306.985 0.389914 -0.729312 0
M  V30 3351 H 309.531 0.0627213 -1.69584 0
M  V30 3352 H 308.303 0.47608 -3.88393 0
M  V30 3353 H 307.926 2.11189 -3.36875 0
M  V30 3354 N 308.923 1.53595 0.353017 0
M  V30 3355 C 310.339 1.43648 0.695516 0
M  V30 3356 C 310.539 0.585617 1.92802 0
M  V30 3357 O 309.595 0.0729223 2.52395 0
M  V30 3358 C 310.908 2.8701 0.896991 0
M  V30 3359 C 312.456 2.96723 0.996209 0
M  V30 3360 C 312.931 4.41173 1.23007 0
M  V30 3361 N 314.422 4.44657 1.29749 0
M  V30 3362 C 315.157 5.53547 1.49577 0
M  V30 3363 N 314.653 6.72461 1.66639 0
M  V30 3364 N 316.446 5.41145 1.52048 0
M  V30 3365 H 308.597 2.07415 -0.457481 0
M  V30 3366 H 310.86 0.9372 -0.142687 0
M  V30 3367 H 310.566 3.51644 0.0629938 0
M  V30 3368 H 310.44 3.31401 1.80148 0
M  V30 3369 H 312.827 2.32235 1.82074 0
M  V30 3370 H 312.908 2.55707 0.0688331 0
M  V30 3371 H 312.552 5.06238 0.410505 0
M  V30 3372 H 312.482 4.79772 2.17086 0
M  V30 3373 H 314.973 3.58963 1.18126 0
M  V30 3374 H 315.286 7.51214 1.81378 0
M  V30 3375 H 313.631 6.75423 1.63794 0
M  V30 3376 H 316.822 4.47205 1.38294 0
M  V30 3377 H 316.995 6.26068 1.67159 0
M  V30 3378 N 310.401 -0.613514 1.45168 0
M  V30 3379 C 311.812 -1.19539 1.43413 0
M  V30 3380 C 312.163 -1.95558 0.158632 0
M  V30 3381 O 311.288 -2.0335 -0.740119 0
M  V30 3382 C 311.883 -2.17445 2.59813 0
M  V30 3383 C 310.442 -2.71022 2.61197 0
M  V30 3384 C 309.589 -1.46323 2.35552 0
M  V30 3385 H 312.54 -0.403163 1.53494 0
M  V30 3386 H 312.561 -3.00373 2.33574 0
M  V30 3387 H 312.073 -1.62089 3.52631 0
M  V30 3388 H 310.174 -3.30332 1.7237 0
M  V30 3389 H 310.287 -3.15859 3.60236 0
M  V30 3390 H 308.651 -1.75072 1.84992 0
M  V30 3391 H 309.434 -0.92844 3.30507 0
M  V30 3392 N 311.879 -1.3236 -0.855495 0
M  V30 3393 C 313.109 -1.25688 -1.6397 0
M  V30 3394 C 313.517 0.177592 -1.88365 0
M  V30 3395 O 312.86 1.12485 -1.45234 0
M  V30 3396 C 312.922 -1.94602 -3.02275 0
M  V30 3397 C 312.586 -3.43937 -3.00926 0
M  V30 3398 C 313.583 -4.39435 -2.77835 0
M  V30 3399 C 311.268 -3.85858 -3.21588 0
M  V30 3400 C 313.262 -5.74829 -2.75409 0
M  V30 3401 C 310.949 -5.21361 -3.18789 0
M  V30 3402 C 311.947 -6.15658 -2.95727 0
M  V30 3403 O 311.635 -7.48681 -2.928 0
M  V30 3404 H 311.367 -0.434972 -0.51747 0
M  V30 3405 H 313.921 -1.75023 -1.075 0
M  V30 3406 H 312.151 -1.39836 -3.60531 0
M  V30 3407 H 313.84 -1.81651 -3.62985 0
M  V30 3408 H 314.606 -4.08374 -2.6164 0
M  V30 3409 H 310.485 -3.12883 -3.38564 0
M  V30 3410 H 314.029 -6.48404 -2.57328 0
M  V30 3411 H 309.926 -5.52052 -3.34528 0
M  V30 3412 H 310.694 -7.5803 -3.0876 0
M  V30 3413 N 313.357 1.07166 -1.15556 0
M  V30 3414 C 314.634 1.76546 -0.842069 0
M  V30 3415 C 315.014 2.00453 0.661939 0
M  V30 3416 O 314.362 1.62452 1.60691 0
M  V30 3417 C 314.572 3.07266 -1.65495 0
M  V30 3418 C 315.92 3.81578 -1.86234 0
M  V30 3419 O 316.944 3.17083 -1.62287 0
M  V30 3420 O 315.803 4.97419 -2.26355 0
M  V30 3421 H 312.897 0.766756 -0.309862 0
M  V30 3422 H 315.443 1.13514 -1.26145 0
M  V30 3423 H 314.215 2.85494 -2.67598 0
M  V30 3424 H 313.838 3.7803 -1.23203 0
M  V30 3425 N 314.835 0.952656 1.25548 0
M  V30 3426 C 316.065 0.622592 1.96996 0
M  V30 3427 C 316.473 -0.809112 1.71026 0
M  V30 3428 O 315.816 -1.55258 0.981861 0
M  V30 3429 C 315.878 0.798946 3.5051 0
M  V30 3430 C 315.542 2.20744 4.00151 0
M  V30 3431 C 316.539 3.18394 4.11001 0
M  V30 3432 C 314.224 2.5311 4.33867 0
M  V30 3433 C 316.218 4.46504 4.54877 0
M  V30 3434 C 313.905 3.8145 4.7743 0
M  V30 3435 C 314.903 4.77959 4.87897 0
M  V30 3436 O 314.591 6.04012 5.30494 0
M  V30 3437 H 314.323 0.232503 0.634758 0
M  V30 3438 H 316.877 1.2789 1.60728 0
M  V30 3439 H 315.107 0.0854903 3.86605 0
M  V30 3440 H 316.796 0.47023 4.03167 0
M  V30 3441 H 317.562 2.94715 3.85186 0
M  V30 3442 H 313.441 1.78719 4.24948 0
M  V30 3443 H 316.985 5.21835 4.62962 0
M  V30 3444 H 312.882 4.04936 5.0269 0
M  V30 3445 H 313.65 6.0736 5.48685 0
M  V30 3446 N 316.313 -1.40141 0.720998 0
M  V30 3447 C 317.26 -2.30688 0.071919 0
M  V30 3448 C 318.23 -1.48476 -0.744584 0
M  V30 3449 O 319.415 -1.77201 -0.707423 0
M  V30 3450 C 316.555 -3.34724 -0.839855 0
M  V30 3451 C 315.668 -4.31998 -0.0122438 0
M  V30 3452 C 314.803 -5.23102 -0.923995 0
M  V30 3453 C 313.842 -6.12033 -0.0907969 0
M  V30 3454 N 312.979 -6.95537 -0.957718 0
M  V30 3455 H 317.819 -2.85628 0.849755 0
M  V30 3456 H 315.356 -1.40653 0.430726 0
M  V30 3457 H 317.314 -3.93618 -1.38279 0
M  V30 3458 H 315.944 -2.81274 -1.58381 0
M  V30 3459 H 314.996 -3.74841 0.64794 0
M  V30 3460 H 316.308 -4.94772 0.632595 0
M  V30 3461 H 315.462 -5.86953 -1.53527 0
M  V30 3462 H 314.201 -4.60615 -1.60264 0
M  V30 3463 H 313.206 -5.47207 0.533377 0
M  V30 3464 H 314.431 -6.76581 0.584428 0
M  V30 3465 H 312.377 -6.35633 -1.62192 0
M  V30 3466 H 312.294 -7.55099 -0.36904 0
M  V30 3467 H 313.562 -7.63832 -1.555 0
M  V30 3468 N 317.792 -0.46758 -1.50504 0
M  V30 3469 C 318.755 0.317059 -2.26996 0
M  V30 3470 C 319.755 0.923513 -1.31635 0
M  V30 3471 O 320.945 0.793239 -1.55091 0
M  V30 3472 C 318.077 1.45134 -3.08462 0
M  V30 3473 H 319.27 -0.353723 -2.97807 0
M  V30 3474 H 316.823 -0.221545 -1.54722 0
M  V30 3475 H 317.558 2.15728 -2.4214 0
M  V30 3476 H 317.343 1.02232 -3.78538 0
M  V30 3477 H 318.833 2.00493 -3.66323 0
M  V30 3478 N 319.27 1.56325 -0.20005 0
M  V30 3479 C 320.547 1.89484 0.48529 0
M  V30 3480 C 320.927 1.1143 1.79294 0
M  V30 3481 O 320.275 0.216919 2.27468 0
M  V30 3482 C 320.485 3.41923 0.699243 0
M  V30 3483 C 321.833 4.12256 1.01638 0
M  V30 3484 O 322.857 3.47402 0.786792 0
M  V30 3485 O 321.716 5.26887 1.45095 0
M  V30 3486 H 318.81 0.787144 0.253639 0
M  V30 3487 H 321.356 1.67985 -0.240633 0
M  V30 3488 H 320.128 3.90658 -0.224008 0
M  V30 3489 H 319.751 3.69131 1.47744 0
M  V30 3490 N 320.748 -0.0735177 1.57428 0
M  V30 3491 C 321.994 -0.774145 1.87443 0
M  V30 3492 C 322.327 -1.77311 0.792103 0
M  V30 3493 O 321.602 -1.93492 -0.197793 0
M  V30 3494 C 321.885 -1.48367 3.28115 0
M  V30 3495 C 321.738 -0.501227 4.46999 0
M  V30 3496 C 323.057 -2.429 3.66998 0
M  V30 3497 H 320.176 -0.279971 0.681752 0
M  V30 3498 H 322.818 -0.0373616 1.89963 0
M  V30 3499 H 320.968 -2.11171 3.26097 0
M  V30 3500 H 322.64 0.121468 4.6114 0
M  V30 3501 H 320.883 0.183593 4.33411 0
M  V30 3502 H 321.554 -1.03526 5.42205 0
M  V30 3503 H 324.03 -1.90175 3.70098 0
M  V30 3504 H 322.906 -2.89549 4.66318 0
M  V30 3505 H 323.167 -3.27628 2.96837 0
M  V30 3506 N 322.226 -1.5378 -0.344866 0
M  V30 3507 C 323.472 -1.72158 -1.0832 0
M  V30 3508 C 323.827 -0.478218 -1.86362 0
M  V30 3509 O 323.12 0.529152 -1.84148 0
M  V30 3510 C 323.314 -2.92407 -2.05506 0
M  V30 3511 C 323.143 -4.28318 -1.37017 0
M  V30 3512 C 321.913 -4.92832 -1.11558 0
M  V30 3513 C 324.111 -5.08086 -0.797071 0
M  V30 3514 N 322.093 -6.12619 -0.396358 0
M  V30 3515 C 323.464 -6.1965 -0.208336 0
M  V30 3516 C 325.519 -4.92986 -0.697787 0
M  V30 3517 C 324.222 -7.17763 0.470023 0
M  V30 3518 C 326.248 -5.91391 -0.033171 0
M  V30 3519 C 325.61 -7.02292 0.544599 0
M  V30 3520 H 321.709 -0.683017 -0.380805 0
M  V30 3521 H 324.293 -1.91211 -0.366961 0
M  V30 3522 H 322.464 -2.74857 -2.74423 0
M  V30 3523 H 324.196 -2.9951 -2.72169 0
M  V30 3524 H 320.951 -4.52362 -1.40234 0
M  V30 3525 H 321.375 -6.7698 -0.0515119 0
M  V30 3526 H 326.017 -4.07414 -1.13022 0
M  V30 3527 H 323.735 -8.0291 0.914351 0
M  V30 3528 H 327.321 -5.81784 0.0430009 0
M  V30 3529 H 326.201 -7.77129 1.05073 0
M  V30 3530 N 323.704 0.605807 -1.45491 0
M  V30 3531 C 324.929 1.39625 -1.53361 0
M  V30 3532 C 325.354 1.87351 -0.167645 0
M  V30 3533 O 324.712 1.60243 0.848051 0
M  V30 3534 C 324.76 2.57559 -2.5238 0
M  V30 3535 O 323.864 3.58248 -2.04285 0
M  V30 3536 H 323.205 0.416771 -0.516912 0
M  V30 3537 H 325.735 0.737103 -1.90861 0
M  V30 3538 H 325.745 3.0478 -2.71244 0
M  V30 3539 H 324.42 2.22171 -3.51586 0
M  V30 3540 H 322.997 3.17664 -1.95305 0
M  V30 3541 N 325.182 1.32811 0.848464 0
M  V30 3542 C 326.112 1.24882 1.97299 0
M  V30 3543 C 327.093 0.131357 1.69592 0
M  V30 3544 O 328.278 0.319553 1.91553 0
M  V30 3545 C 325.408 0.97746 3.33261 0
M  V30 3546 C 324.362 2.05682 3.75338 0
M  V30 3547 C 323.688 1.63777 5.09 0
M  V30 3548 C 324.988 3.47254 3.90144 0
M  V30 3549 H 326.682 2.18966 2.04191 0
M  V30 3550 H 324.228 1.05413 0.981029 0
M  V30 3551 H 326.181 0.908513 4.1149 0
M  V30 3552 H 324.905 0.000980011 3.266 0
M  V30 3553 H 323.564 2.11603 2.99366 0
M  V30 3554 H 323.212 0.648569 4.98801 0
M  V30 3555 H 322.912 2.36 5.38124 0
M  V30 3556 H 324.436 1.5833 5.89715 0
M  V30 3557 H 325.85 3.43888 4.58709 0
M  V30 3558 H 324.247 4.1788 4.30693 0
M  V30 3559 H 325.317 3.86462 2.92874 0
M  V30 3560 N 326.66 -1.06551 1.16123 0
M  V30 3561 C 327.908 -1.78947 0.939267 0
M  V30 3562 C 328.229 -1.87532 -0.534476 0
M  V30 3563 O 327.499 -1.38211 -1.38833 0
M  V30 3564 H 326.079 -0.662807 0.344523 0
M  V30 3565 H 328.741 -1.28725 1.46342 0
M  V30 3566 H 327.837 -2.81117 1.35572 0
M  V30 3567 N 328.138 -0.959301 -1.25041 0
M  V30 3568 C 329.387 -0.612254 -1.92183 0
M  V30 3569 C 329.7 0.855347 -1.75907 0
M  V30 3570 O 330.906 1.31256 -2.37664 0
M  V30 3571 C 329.362 -1.04435 -3.44414 0
M  V30 3572 C 328.97 -2.53482 -3.69393 0
M  V30 3573 C 330.714 -0.770055 -4.17457 0
M  V30 3574 C 328.621 -2.90468 -5.15153 0
M  V30 3575 H 327.551 -0.225279 -0.719559 0
M  V30 3576 H 330.202 -1.16438 -1.41825 0
M  V30 3577 H 328.584 -0.4206 -3.9376 0
M  V30 3578 H 329.758 -3.20916 -3.30681 0
M  V30 3579 H 328.073 -2.78432 -3.0962 0
M  V30 3580 H 330.67 -1.02249 -5.24832 0
M  V30 3581 H 331.013 0.293611 -4.15263 0
M  V30 3582 H 331.546 -1.35437 -3.74034 0
M  V30 3583 H 328.285 -3.95871 -5.22462 0
M  V30 3584 H 327.805 -2.27711 -5.54894 0
M  V30 3585 H 329.484 -2.79914 -5.83315 0
M  V30 3586 N 329.616 1.39756 -0.72842 0
M  V30 3587 C 330.844 2.04948 -0.283528 0
M  V30 3588 C 331.259 1.54908 1.0793 0
M  V30 3589 O 330.616 0.711135 1.68075 0
M  V30 3590 C 330.667 3.60498 -0.268957 0
M  V30 3591 O 330.388 4.08695 -1.57798 0
M  V30 3592 C 331.889 4.4288 0.192912 0
M  V30 3593 H 329.109 0.659243 -0.125056 0
M  V30 3594 H 331.653 1.78927 -0.990226 0
M  V30 3595 H 329.808 3.85444 0.388801 0
M  V30 3596 H 330.222 5.02977 -1.48709 0
M  V30 3597 H 331.696 5.51791 0.151952 0
M  V30 3598 H 332.173 4.21418 1.23708 0
M  V30 3599 H 332.779 4.23069 -0.435039 0
M  V30 3600 N 331.094 0.475555 1.50254 0
M  V30 3601 C 332.024 -0.30611 2.31485 0
M  V30 3602 C 333.005 -0.986228 1.38591 0
M  V30 3603 O 334.19 -0.982541 1.67511 0
M  V30 3604 C 331.32 -1.38588 3.1845 0
M  V30 3605 C 330.274 -0.827115 4.19932 0
M  V30 3606 C 329.6 -2.00551 4.95665 0
M  V30 3607 C 330.9 0.16463 5.2204 0
M  V30 3608 H 332.594 0.371866 2.97082 0
M  V30 3609 H 330.14 0.180282 1.42867 0
M  V30 3610 H 332.093 -1.94023 3.74076 0
M  V30 3611 H 330.817 -2.09269 2.50747 0
M  V30 3612 H 329.476 -0.294702 3.65414 0
M  V30 3613 H 329.124 -2.6994 4.2443 0
M  V30 3614 H 328.824 -1.63784 5.64313 0
M  V30 3615 H 330.348 -2.56468 5.54127 0
M  V30 3616 H 331.762 -0.300699 5.72511 0
M  V30 3617 H 330.159 0.446813 5.98434 0
M  V30 3618 H 331.229 1.08905 4.72512 0
M  V30 3619 N 332.573 -1.56217 0.208337 0
M  V30 3620 C 333.822 -1.97124 -0.427204 0
M  V30 3621 C 334.135 -1.09859 -1.61835 0
M  V30 3622 O 335.341 -1.40606 -2.32255 0
M  V30 3623 C 333.797 -3.50633 -0.811442 0
M  V30 3624 C 333.405 -4.46582 0.35615 0
M  V30 3625 C 335.149 -4.00282 -1.41332 0
M  V30 3626 C 333.056 -5.91379 -0.0497852 0
M  V30 3627 H 331.986 -0.736086 -0.163381 0
M  V30 3628 H 334.637 -1.8099 0.302456 0
M  V30 3629 H 333.019 -3.62319 -1.59815 0
M  V30 3630 H 334.193 -4.46636 1.1337 0
M  V30 3631 H 332.508 -4.07202 0.870396 0
M  V30 3632 H 335.105 -5.0595 -1.72972 0
M  V30 3633 H 335.448 -3.45359 -2.32449 0
M  V30 3634 H 335.981 -3.91764 -0.690323 0
M  V30 3635 H 332.72 -6.50255 0.827529 0
M  V30 3636 H 332.24 -5.94549 -0.791926 0
M  V30 3637 H 333.919 -6.45209 -0.481042 0
M  V30 3638 N 334.051 0.0651679 -1.57465 0
M  V30 3639 C 334.961 1.09448 -2.07505 0
M  V30 3640 C 335.977 1.41974 -1.00595 0
M  V30 3641 O 337.153 1.52018 -1.32107 0
M  V30 3642 C 334.218 2.38689 -2.51453 0
M  V30 3643 C 333.279 2.13073 -3.72691 0
M  V30 3644 C 332.512 3.36152 -4.14533 0
M  V30 3645 O 332.735 4.45517 -3.56189 0
M  V30 3646 O 331.669 3.23974 -5.07272 0
M  V30 3647 H 335.495 0.69935 -2.95538 0
M  V30 3648 H 333.08 0.279752 -1.46757 0
M  V30 3649 H 334.962 3.14736 -2.80212 0
M  V30 3650 H 333.637 2.77568 -1.66546 0
M  V30 3651 H 332.544 1.34709 -3.49005 0
M  V30 3652 H 333.877 1.79071 -4.5847 0
M  V30 3653 N 335.529 1.53961 0.336706 0
M  V30 3654 C 336.462 1.77255 1.43722 0
M  V30 3655 C 337.44 0.62193 1.50236 0
M  V30 3656 O 338.624 0.857874 1.67847 0
M  V30 3657 C 335.751 1.87733 2.81912 0
M  V30 3658 C 334.797 3.09933 2.92991 0
M  V30 3659 S 335.63 4.68836 2.58753 0
M  V30 3660 C 336.786 4.82202 3.99039 0
M  V30 3661 H 337.019 2.70322 1.23748 0
M  V30 3662 H 334.552 1.44917 0.532777 0
M  V30 3663 H 336.51 1.94455 3.61521 0
M  V30 3664 H 335.171 0.956666 2.99177 0
M  V30 3665 H 334.364 3.1396 3.94265 0
M  V30 3666 H 333.966 3.01472 2.21338 0
M  V30 3667 H 336.258 4.64032 4.9364 0
M  V30 3668 H 337.201 5.84298 4.00002 0
M  V30 3669 H 337.609 4.10604 3.87382 0
M  V30 3670 N 337.007 -0.598083 1.45811 0
M  V30 3671 C 337.97 -1.69018 1.54808 0
M  V30 3672 C 338.97 -1.55037 0.426652 0
M  V30 3673 O 340.16 -1.59932 0.690456 0
M  V30 3674 C 337.292 -3.0835 1.45371 0
M  V30 3675 H 338.485 -1.62403 2.52121 0
M  V30 3676 H 336.038 -0.814626 1.33392 0
M  V30 3677 H 336.773 -3.20534 0.492793 0
M  V30 3678 H 336.558 -3.19907 2.26721 0
M  V30 3679 H 338.048 -3.8788 1.54721 0
M  V30 3680 N 338.485 -1.33259 -0.841409 0
M  V30 3681 C 339.395 -1.25332 -1.98316 0
M  V30 3682 C 340.411 -0.164364 -1.73222 0
M  V30 3683 O 341.587 -0.387486 -1.97637 0
M  V30 3684 C 338.652 -0.990078 -3.32262 0
M  V30 3685 C 337.713 -2.16879 -3.70489 0
M  V30 3686 C 336.946 -1.91801 -4.98044 0
M  V30 3687 O 337.169 -0.867075 -5.63771 0
M  V30 3688 O 336.103 -2.78267 -5.33714 0
M  V30 3689 H 339.929 -2.21344 -2.07944 0
M  V30 3690 H 337.514 -1.1328 -0.974058 0
M  V30 3691 H 339.396 -0.860321 -4.12524 0
M  V30 3692 H 338.071 -0.0602155 -3.23644 0
M  V30 3693 H 336.978 -2.35407 -2.90748 0
M  V30 3694 H 338.311 -3.0819 -3.8377 0
M  V30 3695 N 339.963 1.05934 -1.16686 0
M  V30 3696 C 341.212 1.78188 -0.945085 0
M  V30 3697 C 341.525 1.88338 0.528021 0
M  V30 3698 O 342.731 2.57258 0.867799 0
M  V30 3699 C 341.187 3.20277 -1.64167 0
M  V30 3700 C 340.795 3.18281 -3.15279 0
M  V30 3701 C 342.539 3.97039 -1.502 0
M  V30 3702 C 340.446 4.55112 -3.7766 0
M  V30 3703 H 339.376 0.667866 -0.349959 0
M  V30 3704 H 342.027 1.18794 -1.39858 0
M  V30 3705 H 340.409 3.79952 -1.11589 0
M  V30 3706 H 341.583 2.68167 -3.74731 0
M  V30 3707 H 339.898 2.55018 -3.29173 0
M  V30 3708 H 342.495 4.98194 -1.94183 0
M  V30 3709 H 342.838 4.13845 -0.451461 0
M  V30 3710 H 343.371 3.43894 -1.99954 0
M  V30 3711 H 340.11 4.43512 -4.82677 0
M  V30 3712 H 339.63 5.05406 -3.22994 0
M  V30 3713 H 341.309 5.24064 -3.79428 0
M  V30 3714 N 341.441 0.965919 1.2453 0
M  V30 3715 C 342.351 0.502154 2.29163 0
M  V30 3716 C 343.367 -0.436017 1.68448 0
M  V30 3717 O 344.543 -0.309497 1.99008 0
M  V30 3718 C 341.608 -0.201956 3.46111 0
M  V30 3719 C 340.669 0.775821 4.22232 0
M  V30 3720 C 339.902 0.105217 5.33596 0
M  V30 3721 O 340.125 -1.10683 5.59558 0
M  V30 3722 O 339.059 0.796475 5.96607 0
M  V30 3723 H 342.885 1.37194 2.70946 0
M  V30 3724 H 340.47 0.732875 1.30189 0
M  V30 3725 H 342.352 -0.597564 4.17142 0
M  V30 3726 H 341.027 -1.04673 3.06309 0
M  V30 3727 H 339.934 1.22185 3.53584 0
M  V30 3728 H 341.267 1.58896 4.65846 0
M  V30 3729 N 342.919 -1.39368 0.735821 0
M  V30 3730 C 344.33 -1.83313 0.354015 0
M  V30 3731 C 344.681 -1.61461 -1.11466 0
M  V30 3732 O 343.806 -1.10621 -1.85989 0
M  V30 3733 C 344.401 -3.32781 0.635769 0
M  V30 3734 C 342.96 -3.75142 0.307448 0
M  V30 3735 C 342.107 -2.62358 0.897974 0
M  V30 3736 H 345.058 -1.28349 0.933398 0
M  V30 3737 H 345.079 -3.80388 -0.0921773 0
M  V30 3738 H 344.591 -3.48654 1.70476 0
M  V30 3739 H 342.692 -3.64857 -0.755674 0
M  V30 3740 H 342.805 -4.72532 0.790583 0
M  V30 3741 H 341.169 -2.52624 0.324551 0
M  V30 3742 H 341.952 -2.81036 1.97164 0
M  V30 3743 N 344.397 -0.483516 -1.5 0
M  V30 3744 C 345.808 -0.0314176 -1.86674 0
M  V30 3745 C 346.159 1.37728 -1.39733 0
M  V30 3746 O 345.284 2.02327 -0.767635 0
M  V30 3747 C 345.879 -0.0502376 -3.38763 0
M  V30 3748 C 344.438 0.346442 -3.74802 0
M  V30 3749 C 343.585 -0.430366 -2.7394 0
M  V30 3750 H 346.536 -0.697182 -1.42566 0
M  V30 3751 H 346.557 0.749116 -3.73053 0
M  V30 3752 H 346.069 -1.07563 -3.72897 0
M  V30 3753 H 344.17 1.37572 -3.46273 0
M  V30 3754 H 344.283 0.0391486 -4.79084 0
M  V30 3755 H 342.647 0.117557 -2.54429 0
M  V30 3756 H 343.43 -1.4555 -3.10918 0
M  V30 3757 N 345.875 1.56104 -0.216619 0
M  V30 3758 C 346.825 2.16703 0.708798 0
M  V30 3759 C 347.809 1.11392 1.16106 0
M  V30 3760 O 349.001 1.37395 1.11587 0
M  V30 3761 C 346.13 2.84666 1.91886 0
M  V30 3762 C 345.216 3.97195 1.48651 0
M  V30 3763 N 345.607 4.99959 0.766434 0
M  V30 3764 C 343.905 4.09193 1.77418 0
M  V30 3765 C 344.606 5.79126 0.546659 0
M  V30 3766 N 343.582 5.32315 1.10188 0
M  V30 3767 H 347.384 2.93516 0.150162 0
M  V30 3768 H 344.898 1.6239 -0.0176768 0
M  V30 3769 H 346.895 3.26486 2.59253 0
M  V30 3770 H 345.555 2.09347 2.48202 0
M  V30 3771 H 346.566 5.16197 0.419634 0
M  V30 3772 H 343.243 3.45021 2.35088 0
M  V30 3773 H 344.633 6.71895 -0.026103 0
M  V30 3774 N 347.353 -0.0568162 1.57498 0
M  V30 3775 C 348.303 -1.07315 2.01166 0
M  V30 3776 C 349.287 -1.33632 0.896171 0
M  V30 3777 O 350.479 -1.33682 1.16009 0
M  V30 3778 C 347.608 -2.38257 2.47161 0
M  V30 3779 C 346.694 -2.1515 3.65474 0
M  V30 3780 N 347.085 -1.62014 4.7915 0
M  V30 3781 C 345.383 -2.45559 3.72313 0
M  V30 3782 C 346.084 -1.54069 5.60926 0
M  V30 3783 N 345.06 -2.00652 5.05213 0
M  V30 3784 H 348.862 -0.655878 2.86488 0
M  V30 3785 H 346.376 -0.263635 1.60246 0
M  V30 3786 H 348.373 -3.11845 2.76691 0
M  V30 3787 H 347.033 -2.80687 1.63232 0
M  V30 3788 H 348.044 -1.30667 5.01145 0
M  V30 3789 H 344.721 -2.91253 2.99129 0
M  V30 3790 H 346.111 -1.13712 6.62208 0
M  V30 3791 N 348.832 -1.54138 -0.328536 0
M  V30 3792 C 349.742 -1.86192 -1.42723 0
M  V30 3793 C 350.758 -0.753382 -1.56844 0
M  V30 3794 O 351.934 -1.04718 -1.72035 0
M  V30 3795 C 348.999 -2.07824 -2.77507 0
M  V30 3796 C 348.06 -3.31641 -2.72603 0
M  V30 3797 C 347.293 -3.52232 -4.00959 0
M  V30 3798 O 347.516 -2.7636 -4.9898 0
M  V30 3799 O 346.45 -4.45699 -4.0452 0
M  V30 3800 H 350.276 -2.79608 -1.18547 0
M  V30 3801 H 347.861 -1.3998 -0.522104 0
M  V30 3802 H 349.743 -2.23411 -3.57303 0
M  V30 3803 H 348.418 -1.17596 -3.01584 0
M  V30 3804 H 347.325 -3.21444 -1.91376 0
M  V30 3805 H 348.658 -4.2191 -2.53481 0
M  V30 3806 N 350.31 0.590341 -1.46126 0
M  V30 3807 C 351.24 1.71032 -1.58966 0
M  V30 3808 C 352.221 1.64302 -0.440335 0
M  V30 3809 O 353.406 1.82436 -0.665634 0
M  V30 3810 C 350.536 3.09665 -1.57241 0
M  V30 3811 C 349.49 3.31221 -2.71066 0
M  V30 3812 C 348.816 4.70303 -2.54399 0
M  V30 3813 C 350.116 3.19796 -4.1295 0
M  V30 3814 H 351.81 1.60543 -2.52718 0
M  V30 3815 H 349.356 0.770933 -1.21625 0
M  V30 3816 H 351.309 3.87831 -1.64819 0
M  V30 3817 H 350.033 3.21036 -0.600289 0
M  V30 3818 H 348.692 2.55452 -2.62944 0
M  V30 3819 H 348.34 4.78429 -1.55288 0
M  V30 3820 H 348.04 4.85679 -3.30741 0
M  V30 3821 H 349.564 5.50647 -2.63857 0
M  V30 3822 H 350.978 3.87815 -4.22223 0
M  V30 3823 H 349.375 3.46696 -4.89818 0
M  V30 3824 H 350.445 2.16983 -4.33643 0
M  V30 3825 N 351.788 1.33704 0.83433 0
M  V30 3826 C 352.736 1.24323 1.96587 0
M  V30 3827 C 353.73 0.143659 1.6879 0
M  V30 3828 O 354.936 0.30791 1.77347 0
M  V30 3829 H 351.311 0.385925 0.645419 0
M  V30 3830 H 353.282 2.19978 2.01624 0
M  V30 3831 C 352.031 1.00394 3.32891 0
M  V30 3832 H 351.354 1.84231 3.54822 0
M  V30 3833 H 352.794 0.97862 4.12552 0
M  V30 3834 C 351.253 -0.293047 3.35623 0
M  V30 3835 O 351.783 -1.29823 3.80143 0
M  V30 3836 N 349.989 -0.322174 2.88809 0
M  V30 3837 H 349.536 0.496379 2.52772 0
M  V30 3838 H 349.494 -1.18977 2.91019 0
M  V30 3839 N 353.266 -1.05314 1.17247 0
M  V30 3840 C 354.677 -1.59753 0.96623 0
M  V30 3841 C 355.028 -1.9005 -0.487378 0
M  V30 3842 O 354.153 -1.68126 -1.36245 0
M  V30 3843 C 354.748 -2.90249 1.74759 0
M  V30 3844 C 353.307 -3.41352 1.58606 0
M  V30 3845 C 352.454 -2.15103 1.75002 0
M  V30 3846 H 355.405 -0.881406 1.31973 0
M  V30 3847 H 355.426 -3.60097 1.22925 0
M  V30 3848 H 354.938 -2.68166 2.8055 0
M  V30 3849 H 353.039 -3.68474 0.552985 0
M  V30 3850 H 353.152 -4.16019 2.37624 0
M  V30 3851 H 351.516 -2.25804 1.17833 0
M  V30 3852 H 352.299 -1.95491 2.82202 0
M  V30 3853 N 354.744 -0.972509 -1.24016 0
M  V30 3854 C 355.677 -0.45117 -2.23696 0
M  V30 3855 C 356.655 0.477378 -1.55434 0
M  V30 3856 O 357.839 0.407647 -1.84039 0
M  V30 3857 C 354.966 0.34818 -3.36906 0
M  V30 3858 C 354.012 -0.523355 -4.23277 0
M  V30 3859 S 354.845 -1.96647 -4.98087 0
M  V30 3860 C 356.001 -1.17604 -6.14752 0
M  V30 3861 H 356.234 -1.29588 -2.67571 0
M  V30 3862 H 353.767 -0.777903 -1.33372 0
M  V30 3863 H 355.725 0.803387 -4.02562 0
M  V30 3864 H 354.386 1.16792 -2.91579 0
M  V30 3865 H 353.579 0.0906181 -5.03919 0
M  V30 3866 H 353.181 -0.914485 -3.62647 0
M  V30 3867 H 355.473 -0.433434 -6.76112 0
M  V30 3868 H 356.416 -1.95701 -6.8052 0
M  V30 3869 H 356.824 -0.698295 -5.60164 0
M  V30 3870 N 356.222 1.38976 -0.743202 0
M  V30 3871 C 357.638 1.53984 -0.419664 0
M  V30 3872 C 357.838 1.70837 1.0685 0
M  V30 3873 O 356.894 1.7135 1.8546 0
M  V30 3874 C 358.207 2.75287 -1.20985 0
M  V30 3875 C 359.755 2.89129 -1.19889 0
M  V30 3876 C 360.23 4.13381 -1.97181 0
M  V30 3877 N 361.721 4.20437 -1.94389 0
M  V30 3878 C 362.456 5.15547 -2.50996 0
M  V30 3879 N 361.952 6.16395 -3.16274 0
M  V30 3880 N 363.745 5.07822 -2.40984 0
M  V30 3881 H 355.896 1.26285 -1.7078 0
M  V30 3882 H 358.159 0.612689 -0.723406 0
M  V30 3883 H 357.865 2.69204 -2.26323 0
M  V30 3884 H 357.739 3.68184 -0.819759 0
M  V30 3885 H 360.126 2.947 -0.153606 0
M  V30 3886 H 360.207 1.97272 -1.62841 0
M  V30 3887 H 359.851 4.08572 -3.01714 0
M  V30 3888 H 359.781 5.04298 -1.51629 0
M  V30 3889 H 362.272 3.48205 -1.46839 0
M  V30 3890 H 362.585 6.85443 -3.56915 0
M  V30 3891 H 360.93 6.16758 -3.20367 0
M  V30 3892 H 364.121 4.27973 -1.89622 0
M  V30 3893 H 364.294 5.81767 -2.85397 0
M  V30 3894 N 357.7 0.491464 1.49741 0
M  V30 3895 C 358.946 -0.0565092 2.02721 0
M  V30 3896 C 359.279 -1.37522 1.37118 0
M  V30 3897 O 358.554 -1.87866 0.503645 0
M  V30 3898 C 358.837 -0.219051 3.59433 0
M  V30 3899 C 358.69 1.12211 4.35579 0
M  V30 3900 C 360.009 -0.964157 4.29409 0
M  V30 3901 H 357.128 -0.0190627 0.736753 0
M  V30 3902 H 359.77 0.641021 1.7886 0
M  V30 3903 H 357.92 -0.813165 3.79895 0
M  V30 3904 H 359.592 1.75437 4.26637 0
M  V30 3905 H 357.835 1.71377 3.98513 0
M  V30 3906 H 358.506 0.961794 5.43556 0
M  V30 3907 H 360.982 -0.460378 4.13545 0
M  V30 3908 H 359.858 -1.04671 5.38828 0
M  V30 3909 H 360.119 -2.00563 3.93988 0
M  V30 3910 N 359.178 -1.55987 0.224894 0
M  V30 3911 C 360.108 -2.23426 -0.678457 0
M  V30 3912 C 361.089 -1.20709 -1.19847 0
M  V30 3913 O 362.274 -1.49304 -1.24186 0
M  V30 3914 C 359.404 -2.91676 -1.88527 0
M  V30 3915 C 358.358 -4.00893 -1.49896 0
M  V30 3916 C 357.684 -4.56455 -2.78483 0
M  V30 3917 C 358.984 -5.17769 -0.686461 0
M  V30 3918 H 360.678 -2.99175 -0.116173 0
M  V30 3919 H 358.224 -1.43897 -0.054436 0
M  V30 3920 H 360.177 -3.37547 -2.5227 0
M  V30 3921 H 358.901 -2.1338 -2.47258 0
M  V30 3922 H 357.56 -3.55758 -0.884985 0
M  V30 3923 H 357.208 -3.74886 -3.35365 0
M  V30 3924 H 356.908 -5.30169 -2.53368 0
M  V30 3925 H 358.432 -5.05047 -3.43162 0
M  V30 3926 H 359.846 -5.60001 -1.22767 0
M  V30 3927 H 358.243 -5.97735 -0.532259 0
M  V30 3928 H 359.313 -4.83932 0.306196 0
M  V30 3929 N 360.656 0.0484629 -1.57525 0
M  V30 3930 C 361.586 1.0549 -2.08313 0
M  V30 3931 C 362.567 1.38929 -0.981463 0
M  V30 3932 O 363.752 1.48151 -1.25558 0
M  V30 3933 C 360.882 2.36162 -2.54646 0
M  V30 3934 C 359.836 2.17016 -3.68901 0
M  V30 3935 C 359.162 3.53278 -4.01371 0
M  V30 3936 C 360.462 1.57219 -4.98076 0
M  V30 3937 H 362.156 0.632195 -2.92649 0
M  V30 3938 H 359.702 0.302654 -1.40784 0
M  V30 3939 H 361.655 3.06882 -2.88793 0
M  V30 3940 H 360.379 2.80456 -1.67368 0
M  V30 3941 H 359.038 1.48733 -3.35073 0
M  V30 3942 H 358.686 3.95185 -3.11188 0
M  V30 3943 H 358.386 3.41299 -4.78318 0
M  V30 3944 H 359.91 4.25391 -4.38035 0
M  V30 3945 H 361.324 2.17832 -5.30304 0
M  V30 3946 H 359.721 1.55871 -5.79503 0
M  V30 3947 H 360.791 0.535956 -4.81929 0
M  V30 3948 N 362.134 1.5431 0.320358 0
M  V30 3949 C 363.081 1.83918 1.39438 0
M  V30 3950 C 364.051 0.686525 1.51248 0
M  V30 3951 O 365.236 0.933269 1.66417 0
M  V30 3952 C 362.376 2.075 2.75749 0
M  V30 3953 C 361.489 3.35177 2.72544 0
M  V30 3954 C 360.624 3.48704 4.00723 0
M  V30 3955 C 359.663 4.70244 3.91838 0
M  V30 3956 N 358.8 4.80679 5.11754 0
M  V30 3957 H 363.64 2.75544 1.13489 0
M  V30 3958 H 361.177 1.36459 0.549309 0
M  V30 3959 H 363.135 2.19166 3.54996 0
M  V30 3960 H 361.765 1.19163 3 0
M  V30 3961 H 360.817 3.32233 1.85271 0
M  V30 3962 H 362.129 4.24534 2.61863 0
M  V30 3963 H 361.283 3.59928 4.88402 0
M  V30 3964 H 360.022 2.57445 4.14214 0
M  V30 3965 H 359.027 4.59072 3.02544 0
M  V30 3966 H 360.252 5.6289 3.7991 0
M  V30 3967 H 358.198 3.92337 5.25745 0
M  V30 3968 H 358.115 5.64007 5.0342 0
M  V30 3969 H 359.383 4.96239 6.01138 0
M  V30 3970 N 363.613 -0.582584 1.46437 0
M  V30 3971 C 364.862 -1.337 1.5102 0
M  V30 3972 C 365.175 -1.94891 0.166359 0
M  V30 3973 O 366.381 -2.71351 0.0899954 0
M  V30 3974 C 364.837 -2.42315 2.66104 0
M  V30 3975 C 364.445 -1.87427 4.06909 0
M  V30 3976 C 366.189 -3.19099 2.79958 0
M  V30 3977 C 364.096 -2.93672 5.13333 0
M  V30 3978 H 363.026 -0.502619 0.562041 0
M  V30 3979 H 365.677 -0.621701 1.72647 0
M  V30 3980 H 364.059 -3.16645 2.37807 0
M  V30 3981 H 365.233 -1.19639 4.44998 0
M  V30 3982 H 363.548 -1.2331 3.97723 0
M  V30 3983 H 366.145 -3.9839 3.56636 0
M  V30 3984 H 366.488 -3.71695 1.87479 0
M  V30 3985 H 367.021 -2.51875 3.07902 0
M  V30 3986 H 363.76 -2.45962 6.07604 0
M  V30 3987 H 363.28 -3.59948 4.79789 0
M  V30 3988 H 364.959 -3.5762 5.39182 0
M  V30 3989 N 365.091 -1.34144 -0.827227 0
M  V30 3990 C 366.054 -1.25264 -1.91942 0
M  V30 3991 C 367.054 -0.168866 -1.59911 0
M  V30 3992 O 368.244 -0.421198 -1.69031 0
M  V30 3993 C 365.376 -0.932952 -3.27885 0
M  V30 3994 H 366.569 -2.22357 -2.0124 0
M  V30 3995 H 364.122 -1.1837 -1.0207 0
M  V30 3996 H 364.857 0.0349917 -3.24281 0
M  V30 3997 H 364.642 -1.71682 -3.52516 0
M  V30 3998 H 366.132 -0.895874 -4.07877 0
M  V30 3999 N 366.569 1.04691 -1.17803 0
M  V30 4000 C 367.516 2.12557 -0.899343 0
M  V30 4001 C 368.486 1.65339 0.158771 0
M  V30 4002 O 369.671 1.90789 0.0204797 0
M  V30 4003 C 366.811 3.42481 -0.424315 0
M  V30 4004 C 365.924 4.03346 -1.54713 0
M  V30 4005 C 365.059 5.21208 -1.02546 0
M  V30 4006 C 364.098 5.74089 -2.12339 0
M  V30 4007 N 363.235 6.83247 -1.61612 0
M  V30 4008 H 368.075 2.35734 -1.823 0
M  V30 4009 H 365.612 1.1564 -0.909159 0
M  V30 4010 H 367.57 4.16996 -0.130421 0
M  V30 4011 H 366.2 3.19471 0.462377 0
M  V30 4012 H 365.252 3.2622 -1.95664 0
M  V30 4013 H 366.564 4.38628 -2.37501 0
M  V30 4014 H 365.718 6.02812 -0.685718 0
M  V30 4015 H 364.457 4.87414 -0.167084 0
M  V30 4016 H 363.462 4.91111 -2.47165 0
M  V30 4017 H 364.687 6.0993 -2.98601 0
M  V30 4018 H 362.633 6.5134 -0.780533 0
M  V30 4019 H 362.55 7.17559 -2.38003 0
M  V30 4020 H 363.818 7.68491 -1.30545 0
M  V30 4021 N 368.047 0.979072 1.23499 0
M  V30 4022 C 369.272 0.664845 1.96455 0
M  V30 4023 C 369.697 -0.761287 1.72006 0
M  V30 4024 O 369.055 -1.51837 0.990713 0
M  V30 4025 C 369.103 0.959479 3.47601 0
M  V30 4026 O 368.207 0.0508168 4.12369 0
M  V30 4027 H 367.548 0.250185 0.615064 0
M  V30 4028 H 370.078 1.31231 1.5697 0
M  V30 4029 H 370.088 0.895642 3.98048 0
M  V30 4030 H 368.763 1.99876 3.64723 0
M  V30 4031 H 367.34 0.16895 3.72517 0
M  V30 4032 N 369.525 -1.3858 0.750561 0
M  V30 4033 C 370.435 -2.34278 0.122825 0
M  V30 4034 C 371.451 -1.59116 -0.704131 0
M  V30 4035 O 372.627 -1.91326 -0.628987 0
M  V30 4036 C 369.692 -3.38221 -0.762086 0
M  V30 4037 C 368.753 -4.29227 0.078896 0
M  V30 4038 C 367.986 -5.28205 -0.763874 0
M  V30 4039 O 368.209 -5.34112 -2.00201 0
M  V30 4040 O 367.143 -6.01618 -0.18428 0
M  V30 4041 H 370.969 -2.89649 0.913088 0
M  V30 4042 H 368.554 -1.40374 0.511417 0
M  V30 4043 H 370.436 -4.01872 -1.26793 0
M  V30 4044 H 369.111 -2.85211 -1.5309 0
M  V30 4045 H 368.018 -3.68747 0.630621 0
M  V30 4046 H 369.351 -4.85484 0.810289 0
M  V30 4047 N 371.003 -0.499398 -1.49478 0
M  V30 4048 C 372.414 -0.051215 -1.8663 0
M  V30 4049 C 372.765 1.36238 -1.41186 0
M  V30 4050 O 371.89 2.01502 -0.789051 0
M  V30 4051 C 372.485 -0.0861651 -3.3869 0
M  V30 4052 C 371.044 0.30667 -3.75149 0
M  V30 4053 C 370.191 -0.459397 -2.73468 0
M  V30 4054 H 373.142 -0.712264 -1.41818 0
M  V30 4055 H 373.163 0.709507 -3.73826 0
M  V30 4056 H 372.675 -1.11512 -3.71735 0
M  V30 4057 H 370.776 1.33892 -3.47712 0
M  V30 4058 H 370.889 -0.0116669 -4.79099 0
M  V30 4059 H 369.253 0.0905645 -2.54539 0
M  V30 4060 H 370.036 -1.4884 -3.09357 0
M  V30 4061 N 372.481 1.55866 -0.233164 0
M  V30 4062 C 373.892 1.847 0.272554 0
M  V30 4063 C 374.243 1.15477 1.58617 0
M  V30 4064 O 373.368 0.42841 2.12117 0
M  V30 4065 C 373.963 3.35071 0.501299 0
M  V30 4066 C 372.522 3.6418 0.951304 0
M  V30 4067 C 371.669 2.77292 0.0208209 0
M  V30 4068 H 374.62 1.52005 -0.456074 0
M  V30 4069 H 374.641 3.55906 1.34577 0
M  V30 4070 H 374.153 3.85424 -0.454936 0
M  V30 4071 H 372.254 3.19293 1.92049 0
M  V30 4072 H 372.367 4.72071 0.817675 0
M  V30 4073 H 370.731 2.49131 0.529723 0
M  V30 4074 H 371.514 3.30448 -0.93054 0
M  V30 4075 N 373.959 -0.0401083 1.57549 0
M  V30 4076 C 375.187 -0.745196 1.93014 0
M  V30 4077 C 375.602 -1.6948 0.831984 0
M  V30 4078 O 374.959 -1.81482 -0.192463 0
M  V30 4079 C 375.01 -1.51176 3.28372 0
M  V30 4080 O 374.731 -0.600284 4.33968 0
M  V30 4081 C 376.232 -2.315 3.78051 0
M  V30 4082 H 373.452 -0.210088 0.637263 0
M  V30 4083 H 375.996 -0.000924689 2.045 0
M  V30 4084 H 374.151 -2.20801 3.18317 0
M  V30 4085 H 374.565 -1.13669 5.12035 0
M  V30 4086 H 376.039 -2.80697 4.75303 0
M  V30 4087 H 376.516 -3.12436 3.08675 0
M  V30 4088 H 377.122 -1.66971 3.91153 0
M  V30 4089 N 375.437 -1.54477 -0.31217 0
M  V30 4090 C 376.367 -1.87652 -1.38957 0
M  V30 4091 C 377.348 -0.734358 -1.53431 0
M  V30 4092 O 378.533 -0.98911 -1.67123 0
M  V30 4093 C 375.663 -2.11396 -2.75552 0
M  V30 4094 C 374.617 -3.27243 -2.75855 0
M  V30 4095 C 373.943 -3.36382 -4.15633 0
M  V30 4096 C 375.243 -4.64622 -2.38587 0
M  V30 4097 H 376.937 -2.77887 -1.11442 0
M  V30 4098 H 374.483 -1.33707 -0.534655 0
M  V30 4099 H 376.436 -2.33189 -3.51 0
M  V30 4100 H 375.16 -1.17921 -3.04569 0
M  V30 4101 H 373.819 -3.05356 -2.02863 0
M  V30 4102 H 373.467 -2.40445 -4.41809 0
M  V30 4103 H 373.167 -4.14249 -4.1674 0
M  V30 4104 H 374.691 -3.60422 -4.92877 0
M  V30 4105 H 376.105 -4.86219 -3.03749 0
M  V30 4106 H 374.502 -5.45121 -2.50925 0
M  V30 4107 H 375.572 -4.66097 -1.33723 0
M  V30 4108 N 376.915 0.57481 -1.46744 0
M  V30 4109 C 377.878 1.66533 -1.57478 0
M  V30 4110 C 378.878 1.54338 -0.451263 0
M  V30 4111 O 380.068 1.58814 -0.715813 0
M  V30 4112 C 377.2 3.05999 -1.50259 0
M  V30 4113 H 378.393 1.58372 -2.54673 0
M  V30 4114 H 375.946 0.793301 -1.34672 0
M  V30 4115 H 376.681 3.19709 -0.543725 0
M  V30 4116 H 376.466 3.16259 -2.31781 0
M  V30 4117 H 377.956 3.8537 -1.60872 0
M  V30 4118 N 378.394 1.34581 0.820102 0
M  V30 4119 C 379.326 1.22236 1.93884 0
M  V30 4120 C 380.339 0.148776 1.62119 0
M  V30 4121 O 381.528 0.400877 1.7394 0
M  V30 4122 C 378.628 0.856542 3.27897 0
M  V30 4123 C 377.801 2.02569 3.87666 0
M  V30 4124 C 376.86 1.63782 5.00062 0
M  V30 4125 O 375.886 2.35477 5.18208 0
M  V30 4126 N 377.088 0.553611 5.77854 0
M  V30 4127 H 379.853 2.18615 2.05006 0
M  V30 4128 H 377.414 1.27573 0.99683 0
M  V30 4129 H 379.406 0.578806 4.0054 0
M  V30 4130 H 377.976 -0.0171518 3.12595 0
M  V30 4131 H 377.196 2.468 3.07382 0
M  V30 4132 H 378.484 2.80752 4.24329 0
M  V30 4133 H 377.882 -0.0423528 5.65684 0
M  V30 4134 H 376.439 0.335614 6.50935 0
M  V30 4135 N 379.872 -1.04064 1.18357 0
M  V30 4136 C 381.283 -1.58719 0.98312 0
M  V30 4137 C 381.634 -1.90556 -0.467193 0
M  V30 4138 O 380.759 -1.69561 -1.34454 0
M  V30 4139 C 381.354 -2.88379 1.77828 0
M  V30 4140 C 379.913 -3.3965 1.62218 0
M  V30 4141 C 379.06 -2.13235 1.77274 0
M  V30 4142 H 382.011 -0.867359 1.32901 0
M  V30 4143 H 382.032 -3.58773 1.26737 0
M  V30 4144 H 381.544 -2.65176 2.83379 0
M  V30 4145 H 379.645 -3.67866 0.592036 0
M  V30 4146 H 379.758 -4.13475 2.42023 0
M  V30 4147 H 378.122 -2.24542 1.20221 0
M  V30 4148 H 378.905 -1.92487 2.8426 0
M  V30 4149 N 381.35 -0.985608 -1.22978 0
M  V30 4150 C 382.575 -0.675254 -1.961 0
M  V30 4151 C 383 0.752154 -1.72407 0
M  V30 4152 O 382.358 1.5131 -0.998751 0
M  V30 4153 C 382.406 -0.977899 -3.47087 0
M  V30 4154 O 381.51 -0.072685 -4.12336 0
M  V30 4155 H 380.851 -0.253443 -0.613728 0
M  V30 4156 H 383.381 -1.32061 -1.56272 0
M  V30 4157 H 383.391 -0.916739 -3.97567 0
M  V30 4158 H 382.066 -2.01807 -3.63657 0
M  V30 4159 H 380.643 -0.188703 -3.72422 0
M  V30 4160 N 382.828 1.3818 -0.7579 0
M  V30 4161 C 384.244 1.5353 -0.435972 0
M  V30 4162 C 384.444 1.71961 1.05032 0
M  V30 4163 O 383.5 1.73307 1.83633 0
M  V30 4164 C 384.813 2.73989 -1.23898 0
M  V30 4165 C 386.361 2.87841 -1.22949 0
M  V30 4166 C 386.836 4.11266 -2.01554 0
M  V30 4167 N 388.327 4.18352 -1.98837 0
M  V30 4168 C 389.062 5.12856 -2.5645 0
M  V30 4169 N 388.558 6.13005 -3.22794 0
M  V30 4170 N 390.351 5.05238 -2.46356 0
M  V30 4171 H 382.502 1.24467 -1.7211 0
M  V30 4172 H 384.765 0.604982 -0.729864 0
M  V30 4173 H 384.471 2.66789 -2.29165 0
M  V30 4174 H 384.345 3.67294 -0.858764 0
M  V30 4175 H 386.732 2.9452 -0.184854 0
M  V30 4176 H 386.813 1.95534 -1.64924 0
M  V30 4177 H 386.457 4.05349 -3.06031 0
M  V30 4178 H 386.387 5.02661 -1.5697 0
M  V30 4179 H 388.878 3.46628 -1.50524 0
M  V30 4180 H 389.191 6.81619 -3.64165 0
M  V30 4181 H 387.536 6.13325 -3.2689 0
M  V30 4182 H 390.727 4.25938 -1.9415 0
M  V30 4183 H 390.9 5.78707 -2.91552 0
M  V30 4184 N 384.306 0.507319 1.49211 0
M  V30 4185 C 385.552 -0.0269732 2.03382 0
M  V30 4186 C 385.907 -1.34111 1.37957 0
M  V30 4187 O 385.2 -1.84733 0.508351 0
M  V30 4188 C 385.394 -0.229513 3.56662 0
M  V30 4189 C 385.223 1.06344 4.36945 0
M  V30 4190 C 383.993 1.617 4.78729 0
M  V30 4191 C 386.191 1.96833 4.75143 0
M  V30 4192 N 384.173 2.8552 5.43463 0
M  V30 4193 C 385.544 3.0523 5.39661 0
M  V30 4194 C 387.599 1.97434 4.57082 0
M  V30 4195 C 386.302 4.14265 5.88028 0
M  V30 4196 C 388.328 3.05448 5.06414 0
M  V30 4197 C 387.69 4.12564 5.70938 0
M  V30 4198 H 383.789 0.0310673 0.781383 0
M  V30 4199 H 386.373 0.683579 1.82305 0
M  V30 4200 H 384.544 -0.909127 3.7761 0
M  V30 4201 H 386.276 -0.761377 3.97473 0
M  V30 4202 H 383.031 1.16132 4.59141 0
M  V30 4203 H 383.455 3.48499 5.80412 0
M  V30 4204 H 388.097 1.15924 4.06597 0
M  V30 4205 H 385.815 4.96569 6.3753 0
M  V30 4206 H 389.401 3.06941 4.94246 0
M  V30 4207 H 388.281 4.94767 6.0842 0
M  V30 4208 N 385.784 -1.5574 0.241426 0
M  V30 4209 C 387.009 -2.0366 -0.392111 0
M  V30 4210 C 387.434 -1.11969 -1.51144 0
M  V30 4211 O 386.792 -0.111594 -1.80956 0
M  V30 4212 C 386.84 -3.49638 -0.882371 0
M  V30 4213 O 385.944 -3.6108 -1.99235 0
M  V30 4214 H 385.285 -0.658379 -0.0862122 0
M  V30 4215 H 387.815 -2.01302 0.365881 0
M  V30 4216 H 387.825 -3.90351 -1.18702 0
M  V30 4217 H 386.5 -4.15852 -0.0632361 0
M  V30 4218 H 385.077 -3.32262 -1.69282 0
M  V30 4219 N 387.262 0.0317525 -1.57568 0
M  V30 4220 C 388.487 0.738664 -1.938 0
M  V30 4221 C 388.912 1.68242 -0.841208 0
M  V30 4222 O 388.27 1.80157 0.203267 0
M  V30 4223 C 388.318 1.47417 -3.29091 0
M  V30 4224 O 387.422 2.5872 -3.2115 0
M  V30 4225 H 386.763 0.198856 -0.633524 0
M  V30 4226 H 389.293 -0.0119713 -2.04596 0
M  V30 4227 H 389.303 1.84468 -3.63917 0
M  V30 4228 H 387.978 0.781988 -4.08482 0
M  V30 4229 H 386.555 2.24231 -2.97951 0
M  V30 4230 N 388.74 1.54641 0.303973 0
M  V30 4231 C 389.688 1.86137 1.39484 0
M  V30 4232 C 390.682 0.734854 1.52631 0
M  V30 4233 O 391.888 0.918803 1.54784 0
M  V30 4234 H 388.263 0.590324 0.465856 0
M  V30 4235 H 390.234 2.77324 1.10154 0
M  V30 4236 C 388.983 2.12274 2.75382 0
M  V30 4237 H 388.306 2.98429 2.66046 0
M  V30 4238 H 389.746 2.38254 3.5073 0
M  V30 4239 C 388.205 0.920365 3.24085 0
M  V30 4240 O 388.735 0.139377 4.01458 0
M  V30 4241 N 386.941 0.726566 2.81371 0
M  V30 4242 H 386.488 1.36332 2.18567 0
M  V30 4243 H 386.446 -0.0763799 3.14307 0
M  V30 4244 N 390.218 -0.567019 1.47046 0
M  V30 4245 C 391.465 -1.32462 1.53167 0
M  V30 4246 C 391.793 -1.93571 0.189841 0
M  V30 4247 O 391.048 -1.77865 -0.816243 0
M  V30 4248 C 391.347 -2.4623 2.59047 0
M  V30 4249 C 391.013 -2.03014 4.02612 0
M  V30 4250 C 389.675 -1.90944 4.41694 0
M  V30 4251 C 392.027 -1.69895 4.92732 0
M  V30 4252 C 389.355 -1.44035 5.68745 0
M  V30 4253 C 391.707 -1.2446 6.20236 0
M  V30 4254 C 390.371 -1.10979 6.5821 0
M  V30 4255 H 389.641 -0.484713 0.560477 0
M  V30 4256 H 392.288 -0.636888 1.80599 0
M  V30 4257 H 390.593 -3.20517 2.25335 0
M  V30 4258 H 392.29 -3.04427 2.61008 0
M  V30 4259 H 388.88 -2.13348 3.71726 0
M  V30 4260 H 393.064 -1.78098 4.63244 0
M  V30 4261 H 388.32 -1.32254 5.96925 0
M  V30 4262 H 392.494 -0.978924 6.89485 0
M  V30 4263 H 390.121 -0.744078 7.5655 0
M  V30 4264 N 391.696 -1.35014 -0.812953 0
M  V30 4265 C 392.643 -1.27412 -1.92444 0
M  V30 4266 C 393.613 -0.14733 -1.65445 0
M  V30 4267 O 394.798 -0.329974 -1.87925 0
M  V30 4268 C 391.938 -1.04558 -3.28879 0
M  V30 4269 C 391.051 -2.26101 -3.68106 0
M  V30 4270 C 390.186 -1.96449 -4.9354 0
M  V30 4271 C 389.225 -3.14081 -5.25376 0
M  V30 4272 N 388.362 -2.84246 -6.41988 0
M  V30 4273 H 393.202 -2.22463 -1.98278 0
M  V30 4274 H 390.739 -1.10593 -0.969933 0
M  V30 4275 H 392.697 -0.893413 -4.07522 0
M  V30 4276 H 391.327 -0.131719 -3.22531 0
M  V30 4277 H 390.379 -2.52204 -2.84775 0
M  V30 4278 H 391.691 -3.13959 -3.87597 0
M  V30 4279 H 390.845 -1.78026 -5.79993 0
M  V30 4280 H 389.584 -1.05867 -4.76071 0
M  V30 4281 H 388.589 -3.33089 -4.37415 0
M  V30 4282 H 389.814 -4.05455 -5.44778 0
M  V30 4283 H 387.76 -1.96252 -6.25956 0
M  V30 4284 H 387.677 -3.65637 -6.61699 0
M  V30 4285 H 388.945 -2.6935 -7.31485 0
M  V30 4286 N 393.175 1.03435 -1.18907 0
M  V30 4287 C 394.452 1.73778 -0.89781 0
M  V30 4288 C 394.832 2.02458 0.597832 0
M  V30 4289 O 394.18 1.67482 1.55441 0
M  V30 4290 C 394.39 3.01845 -1.75187 0
M  V30 4291 C 395.738 3.7546 -1.9828 0
M  V30 4292 O 396.762 3.11759 -1.72293 0
M  V30 4293 O 395.621 4.89966 -2.42065 0
M  V30 4294 H 392.715 0.75651 -0.334098 0
M  V30 4295 H 395.261 1.09444 -1.29693 0
M  V30 4296 H 394.033 2.76836 -2.76545 0
M  V30 4297 H 393.656 3.73919 -1.35167 0
M  V30 4298 N 394.653 0.992116 1.22453 0
M  V30 4299 C 395.9 0.667534 1.91181 0
M  V30 4300 C 396.228 -0.800317 1.77271 0
M  V30 4301 O 395.483 -1.59421 1.13505 0
M  V30 4302 C 395.782 1.01832 3.42586 0
M  V30 4303 C 395.448 2.47831 3.76684 0
M  V30 4304 C 394.11 2.87729 3.85701 0
M  V30 4305 C 396.462 3.42466 3.92895 0
M  V30 4306 C 393.79 4.21252 4.08367 0
M  V30 4307 C 396.142 4.75648 4.17064 0
M  V30 4308 C 394.806 5.15288 4.24305 0
M  V30 4309 H 394.076 0.244268 0.699581 0
M  V30 4310 H 396.723 1.24816 1.45235 0
M  V30 4311 H 395.028 0.355769 3.90181 0
M  V30 4312 H 396.725 0.745228 3.94014 0
M  V30 4313 H 393.315 2.15905 3.70247 0
M  V30 4314 H 397.499 3.12814 3.85307 0
M  V30 4315 H 392.755 4.51554 4.122 0
M  V30 4316 H 396.929 5.48924 4.2855 0
M  V30 4317 H 394.556 6.18769 4.41621 0
M  V30 4318 N 396.131 -1.37776 0.765217 0
M  V30 4319 C 397.061 -2.32945 0.160953 0
M  V30 4320 C 398.042 -1.55454 -0.690516 0
M  V30 4321 O 399.227 -1.83721 -0.629318 0
M  V30 4322 C 396.357 -3.39669 -0.724031 0
M  V30 4323 C 395.311 -4.27992 0.0256173 0
M  V30 4324 C 394.637 -5.25673 -0.978383 0
M  V30 4325 C 395.937 -5.08309 1.20082 0
M  V30 4326 H 397.631 -2.83728 0.955969 0
M  V30 4327 H 395.177 -1.36416 0.461149 0
M  V30 4328 H 397.13 -4.05219 -1.15652 0
M  V30 4329 H 395.854 -2.87396 -1.5515 0
M  V30 4330 H 394.513 -3.63964 0.438812 0
M  V30 4331 H 394.161 -4.69682 -1.80022 0
M  V30 4332 H 393.861 -5.85625 -0.481378 0
M  V30 4333 H 395.385 -5.94098 -1.40995 0
M  V30 4334 H 396.799 -5.67034 0.845307 0
M  V30 4335 H 395.196 -5.77554 1.62947 0
M  V30 4336 H 396.266 -4.41365 2.00811 0
M  V30 4337 N 397.609 -0.515225 -1.4894 0
M  V30 4338 C 398.556 0.255567 -2.29381 0
M  V30 4339 C 399.526 0.947387 -1.36432 0
M  V30 4340 O 400.711 0.951288 -1.65394 0
M  V30 4341 C 397.851 1.30551 -3.19453 0
M  V30 4342 C 396.964 0.624029 -4.27469 0
M  V30 4343 C 396.099 1.65563 -5.0474 0
M  V30 4344 C 395.138 0.956802 -6.04576 0
M  V30 4345 N 394.275 1.93326 -6.74959 0
M  V30 4346 H 399.115 -0.436607 -2.94784 0
M  V30 4347 H 396.652 -0.227154 -1.45336 0
M  V30 4348 H 398.61 1.92639 -3.70062 0
M  V30 4349 H 397.24 1.96626 -2.56004 0
M  V30 4350 H 396.292 -0.110459 -3.8024 0
M  V30 4351 H 397.604 0.0746092 -4.98744 0
M  V30 4352 H 396.758 2.35119 -5.59289 0
M  V30 4353 H 395.497 2.23893 -4.3327 0
M  V30 4354 H 394.502 0.247097 -5.49244 0
M  V30 4355 H 395.727 0.379814 -6.78037 0
M  V30 4356 H 393.673 2.50591 -6.06251 0
M  V30 4357 H 393.59 1.43489 -7.42258 0
M  V30 4358 H 394.858 2.62126 -7.34105 0
M  V30 4359 N 399.087 1.5561 -0.249682 0
M  V30 4360 C 400.034 2.21496 0.648694 0
M  V30 4361 C 401.004 1.17977 1.16921 0
M  V30 4362 O 402.189 1.46434 1.22318 0
M  V30 4363 C 399.329 2.92039 1.83868 0
M  V30 4364 C 398.442 4.10219 1.35442 0
M  V30 4365 C 397.577 4.6847 2.50419 0
M  V30 4366 C 396.616 5.78893 1.98869 0
M  V30 4367 N 395.753 6.31315 3.07223 0
M  V30 4368 H 400.593 2.97892 0.0801582 0
M  V30 4369 H 398.13 1.47074 0.0278031 0
M  V30 4370 H 400.088 3.31138 2.53778 0
M  V30 4371 H 398.718 2.18111 2.37965 0
M  V30 4372 H 397.77 3.76413 0.54928 0
M  V30 4373 H 399.082 4.89927 0.936649 0
M  V30 4374 H 398.236 5.10158 3.28366 0
M  V30 4375 H 396.975 3.87984 2.95499 0
M  V30 4376 H 395.98 5.3668 1.19393 0
M  V30 4377 H 397.205 6.61232 1.54755 0
M  V30 4378 H 395.151 5.53733 3.51732 0
M  V30 4379 H 395.068 7.06224 2.69784 0
M  V30 4380 H 396.336 6.77662 3.8522 0
M  V30 4381 N 400.565 -0.0233959 1.57583 0
M  V30 4382 C 401.805 -0.71784 1.9138 0
M  V30 4383 C 402.169 -1.72216 0.848853 0
M  V30 4384 O 403.37 -2.46527 1.07134 0
M  V30 4385 C 401.641 -1.36489 3.30311 0
M  V30 4386 S 403.2 -2.0877 3.85954 0
M  V30 4387 H 400.018 -0.237676 0.670098 0
M  V30 4388 H 402.62 0.0276709 1.9548 0
M  V30 4389 H 401.324 -0.620782 4.05678 0
M  V30 4390 H 400.855 -2.14883 3.29528 0
M  V30 4391 H 402.87 -3.35988 3.65139 0
M  V30 4392 N 402.043 -1.548 -0.295768 0
M  V30 4393 C 402.973 -1.89115 -1.36959 0
M  V30 4394 C 403.954 -0.75059 -1.52644 0
M  V30 4395 O 405.139 -1.00678 -1.66065 0
M  V30 4396 C 402.269 -2.14307 -2.73295 0
M  V30 4397 C 401.223 -3.30151 -2.72368 0
M  V30 4398 C 400.549 -3.40772 -4.12042 0
M  V30 4399 C 401.849 -4.67126 -2.33646 0
M  V30 4400 H 403.543 -2.79053 -1.08488 0
M  V30 4401 H 401.089 -1.34266 -0.520443 0
M  V30 4402 H 403.042 -2.36898 -3.48507 0
M  V30 4403 H 401.766 -1.21145 -3.03301 0
M  V30 4404 H 400.425 -3.0749 -1.99613 0
M  V30 4405 H 400.073 -2.45117 -4.39234 0
M  V30 4406 H 399.773 -4.18645 -4.12322 0
M  V30 4407 H 401.297 -3.6563 -4.89027 0
M  V30 4408 H 402.711 -4.89414 -2.98575 0
M  V30 4409 H 401.108 -5.47751 -2.45129 0
M  V30 4410 H 402.178 -4.67489 -1.28772 0
M  V30 4411 N 403.521 0.559213 -1.47345 0
M  V30 4412 C 404.431 1.69388 -1.62311 0
M  V30 4413 C 405.447 1.6648 -0.505993 0
M  V30 4414 O 406.623 1.85964 -0.773262 0
M  V30 4415 C 403.688 3.05894 -1.63185 0
M  V30 4416 C 402.749 3.19885 -2.86307 0
M  V30 4417 C 401.982 4.49879 -2.87131 0
M  V30 4418 O 402.205 5.35217 -1.97229 0
M  V30 4419 O 401.139 4.67618 -3.78968 0
M  V30 4420 H 404.965 1.59706 -2.58317 0
M  V30 4421 H 402.55 0.728989 -1.30407 0
M  V30 4422 H 404.432 3.87133 -1.66451 0
M  V30 4423 H 403.107 3.15964 -0.70345 0
M  V30 4424 H 402.014 2.38052 -2.88587 0
M  V30 4425 H 403.347 3.14718 -3.78435 0
M  V30 4426 N 404.999 1.35443 0.805782 0
M  V30 4427 C 405.946 1.28431 1.91766 0
M  V30 4428 C 406.916 0.156102 1.65365 0
M  V30 4429 O 408.101 0.339936 1.87747 0
M  V30 4430 C 405.241 1.06301 3.2832 0
M  V30 4431 C 404.354 2.2805 3.66902 0
M  V30 4432 C 403.489 1.99064 4.92491 0
M  V30 4433 C 402.528 3.16863 5.23703 0
M  V30 4434 N 401.665 2.87647 6.40471 0
M  V30 4435 H 406.505 2.23511 1.97096 0
M  V30 4436 H 404.042 1.11105 0.964054 0
M  V30 4437 H 406 0.915012 4.07042 0
M  V30 4438 H 404.63 0.148822 3.22457 0
M  V30 4439 H 403.682 2.53711 2.83434 0
M  V30 4440 H 404.994 3.1601 3.85927 0
M  V30 4441 H 404.148 1.81099 5.7904 0
M  V30 4442 H 402.887 1.0839 4.75503 0
M  V30 4443 H 401.892 3.35404 4.35642 0
M  V30 4444 H 403.117 4.08339 5.4262 0
M  V30 4445 H 401.063 1.99568 6.24907 0
M  V30 4446 H 400.98 3.69141 6.59751 0
M  V30 4447 H 402.248 2.73226 7.30047 0
M  V30 4448 N 406.477 -1.02803 1.19454 0
M  V30 4449 C 407.425 -2.13213 0.929673 0
M  V30 4450 C 408.419 -1.69011 -0.114806 0
M  V30 4451 O 409.625 -1.79967 0.0345147 0
M  V30 4452 H 406 -0.69662 0.28324 0
M  V30 4453 H 407.971 -2.32744 1.86743 0
M  V30 4454 C 406.72 -3.4429 0.485797 0
M  V30 4455 H 406.043 -3.7872 1.28105 0
M  V30 4456 H 407.483 -4.22638 0.339582 0
M  V30 4457 C 405.942 -3.27258 -0.800244 0
M  V30 4458 O 406.472 -3.55967 -1.86146 0
M  V30 4459 N 404.678 -2.80545 -0.75781 0
M  V30 4460 H 404.225 -2.57382 0.106039 0
M  V30 4461 H 404.183 -2.6953 -1.61867 0
M  V30 4462 N 407.956 -0.998596 -1.21925 0
M  V30 4463 C 409.202 -0.678667 -1.91107 0
M  V30 4464 C 409.535 0.78791 -1.77498 0
M  V30 4465 O 408.81 1.57043 -1.1475 0
M  V30 4466 C 409.093 -1.09245 -3.43129 0
M  V30 4467 C 408.946 -2.61801 -3.6576 0
M  V30 4468 C 410.265 -0.649984 -4.35274 0
M  V30 4469 H 407.384 -0.248025 -0.694012 0
M  V30 4470 H 410.026 -1.24314 -1.43688 0
M  V30 4471 H 408.176 -0.612171 -3.83647 0
M  V30 4472 H 409.848 -3.17543 -3.34611 0
M  V30 4473 H 408.091 -3.03609 -3.09845 0
M  V30 4474 H 408.762 -2.85804 -4.7225 0
M  V30 4475 H 411.238 -1.0626 -4.02303 0
M  V30 4476 H 410.114 -0.967743 -5.40302 0
M  V30 4477 H 410.375 0.449139 -4.39813 0
M  V30 4478 N 409.434 1.37368 -0.772513 0
M  V30 4479 C 410.711 1.93839 -0.26188 0
M  V30 4480 C 411.091 1.7061 1.24319 0
M  V30 4481 O 410.439 1.05534 2.02669 0
M  V30 4482 C 410.649 3.43154 -0.636102 0
M  V30 4483 C 411.997 4.20249 -0.606324 0
M  V30 4484 O 413.021 3.5152 -0.575538 0
M  V30 4485 O 411.88 5.42809 -0.634086 0
M  V30 4486 H 408.974 0.82478 -0.0605555 0
M  V30 4487 H 411.52 1.4665 -0.853917 0
M  V30 4488 H 410.292 3.53647 -1.6748 0
M  V30 4489 H 409.915 3.97596 -0.0170516 0
M  V30 4490 N 410.912 0.523116 1.48665 0
M  V30 4491 C 411.875 -0.232592 2.28017 0
M  V30 4492 C 412.875 -0.874021 1.34972 0
M  V30 4493 O 414.065 -0.735132 1.57929 0
M  V30 4494 C 411.197 -1.33586 3.13636 0
M  V30 4495 H 412.39 0.464008 2.96289 0
M  V30 4496 H 409.943 0.278816 1.53793 0
M  V30 4497 H 410.678 -2.06593 2.4998 0
M  V30 4498 H 410.463 -0.881125 3.82071 0
M  V30 4499 H 411.953 -1.86759 3.73511 0
M  V30 4500 N 412.39 -1.55475 0.257931 0
M  V30 4501 C 413.806 -1.59307 -0.0966563 0
M  V30 4502 C 414.006 -1.27514 -1.5602 0
M  V30 4503 O 413.062 -1.02774 -2.30637 0
M  V30 4504 C 414.375 -2.99552 0.262481 0
M  V30 4505 C 415.923 -3.1231 0.207683 0
M  V30 4506 C 416.398 -4.54793 0.541012 0
M  V30 4507 N 417.889 -4.6058 0.491921 0
M  V30 4508 C 418.624 -5.68825 0.722857 0
M  V30 4509 N 418.12 -6.85287 1.0175 0
M  V30 4510 N 419.913 -5.58296 0.652815 0
M  V30 4511 H 412.064 -1.74409 1.21224 0
M  V30 4512 H 414.327 -0.812424 0.48854 0
M  V30 4513 H 414.033 -3.27593 1.27967 0
M  V30 4514 H 413.907 -3.75019 -0.40508 0
M  V30 4515 H 416.294 -2.84044 -0.800195 0
M  V30 4516 H 416.375 -2.39095 0.909255 0
M  V30 4517 H 416.019 -4.83783 1.5465 0
M  V30 4518 H 415.949 -5.26285 -0.18216 0
M  V30 4519 H 418.44 -3.7691 0.273366 0
M  V30 4520 H 418.753 -7.63725 1.18084 0
M  V30 4521 H 417.098 -6.86945 1.05509 0
M  V30 4522 H 420.289 -4.66189 0.422592 0
M  V30 4523 H 420.462 -6.42582 0.836182 0
M  V30 4524 N 413.868 0.0150385 -1.57593 0
M  V30 4525 C 415.114 0.69849 -1.91031 0
M  V30 4526 C 415.469 1.72208 -0.85804 0
M  V30 4527 O 414.762 1.91147 0.131614 0
M  V30 4528 C 414.956 1.39686 -3.28972 0
M  V30 4529 C 414.785 0.442428 -4.47518 0
M  V30 4530 C 413.555 0.0583223 -5.05266 0
M  V30 4531 C 415.753 -0.285072 -5.13509 0
M  V30 4532 N 413.735 -0.895893 -6.07328 0
M  V30 4533 C 415.106 -1.09447 -6.10263 0
M  V30 4534 C 417.161 -0.350518 -4.96665 0
M  V30 4535 C 415.864 -1.96333 -6.91987 0
M  V30 4536 C 417.89 -1.20655 -5.78962 0
M  V30 4537 C 417.252 -2.00383 -6.75297 0
M  V30 4538 H 413.351 0.22926 -0.747639 0
M  V30 4539 H 415.935 -0.0417748 -1.94655 0
M  V30 4540 H 414.106 2.1075 -3.2625 0
M  V30 4541 H 415.838 2.03381 -3.49883 0
M  V30 4542 H 412.593 0.423506 -4.71703 0
M  V30 4543 H 413.017 -1.36792 -6.63036 0
M  V30 4544 H 417.659 0.251596 -4.22051 0
M  V30 4545 H 415.377 -2.57618 -7.65936 0
M  V30 4546 H 418.963 -1.2609 -5.67972 0
M  V30 4547 H 417.843 -2.65552 -7.3787 0
M  V30 4548 N 415.346 1.54954 0.287554 0
M  V30 4549 C 416.574 1.78881 1.03967 0
M  V30 4550 C 416.989 0.554894 1.80462 0
M  V30 4551 O 416.346 -0.475676 1.76192 0
M  V30 4552 C 416.397 3.00488 2.0097 0
M  V30 4553 O 416.118 4.19113 1.27577 0
M  V30 4554 C 417.619 3.36907 2.88112 0
M  V30 4555 H 414.839 0.596259 0.307761 0
M  V30 4556 H 417.383 2.01937 0.322749 0
M  V30 4557 H 415.538 2.79601 2.68145 0
M  V30 4558 H 415.952 4.87765 1.92835 0
M  V30 4559 H 417.426 4.25205 3.52001 0
M  V30 4560 H 417.903 2.55659 3.57121 0
M  V30 4561 H 418.509 3.60001 2.26449 0
M  V30 4562 N 416.824 -0.551391 1.4764 0
M  V30 4563 C 418.052 -1.33357 1.58189 0
M  V30 4564 C 418.467 -1.87342 0.234199 0
M  V30 4565 O 417.824 -1.65301 -0.77343 0
M  V30 4566 C 417.875 -2.49942 2.61173 0
M  V30 4567 O 417.596 -1.98187 3.90709 0
M  V30 4568 C 419.097 -3.42072 2.8196 0
M  V30 4569 H 416.317 -0.40631 0.533998 0
M  V30 4570 H 418.861 -0.667367 1.93304 0
M  V30 4571 H 417.016 -3.12489 2.28975 0
M  V30 4572 H 417.43 -2.74342 4.47031 0
M  V30 4573 H 418.904 -4.20278 3.57869 0
M  V30 4574 H 419.381 -3.95978 1.89995 0
M  V30 4575 H 419.987 -2.85336 3.15378 0
M  V30 4576 N 418.302 -1.35869 -0.798587 0
M  V30 4577 C 419.527 -1.32883 -1.59238 0
M  V30 4578 C 419.952 0.0894587 -1.87887 0
M  V30 4579 O 419.31 1.05869 -1.47178 0
M  V30 4580 C 419.358 -2.14892 -2.89575 0
M  V30 4581 O 418.462 -1.53512 -3.82763 0
M  V30 4582 H 417.803 -0.455236 -0.48338 0
M  V30 4583 H 420.333 -1.79024 -0.990539 0
M  V30 4584 H 420.343 -2.27139 -3.38928 0
M  V30 4585 H 419.018 -3.17998 -2.68049 0
M  V30 4586 H 417.595 -1.50153 -3.41334 0
M  V30 4587 N 419.78 1.02168 -1.19998 0
M  V30 4588 C 420.712 2.10705 -0.901994 0
M  V30 4589 C 421.725 1.6244 0.108216 0
M  V30 4590 O 422.914 1.78082 -0.12214 0
M  V30 4591 C 420.014 3.37291 -0.329834 0
M  V30 4592 C 419.187 4.14714 -1.39035 0
M  V30 4593 C 418.246 5.19606 -0.830432 0
M  V30 4594 O 417.272 5.48809 -1.50989 0
M  V30 4595 N 418.474 5.79366 0.362696 0
M  V30 4596 H 421.239 2.36856 -1.83628 0
M  V30 4597 H 418.8 1.18518 -1.10296 0
M  V30 4598 H 420.792 4.04657 0.0587633 0
M  V30 4599 H 419.362 3.0843 0.508891 0
M  V30 4600 H 418.582 3.42392 -1.9535 0
M  V30 4601 H 419.87 4.63226 -2.10474 0
M  V30 4602 H 419.268 5.57968 0.932081 0
M  V30 4603 H 417.825 6.48106 0.69299 0
M  V30 4604 N 421.258 1.00505 1.21394 0
M  V30 4605 C 422.188 0.585684 2.26035 0
M  V30 4606 C 423.169 -0.393525 1.65485 0
M  V30 4607 O 424.354 -0.281497 1.92149 0
M  V30 4608 C 421.484 -0.0884283 3.47187 0
M  V30 4609 C 420.438 0.810567 4.20254 0
M  V30 4610 C 419.764 0.00286382 5.347 0
M  V30 4611 C 421.064 2.1132 4.77641 0
M  V30 4612 H 422.758 1.46039 2.61368 0
M  V30 4613 H 420.304 0.703648 1.25638 0
M  V30 4614 H 422.257 -0.393286 4.19561 0
M  V30 4615 H 420.981 -0.997766 3.10986 0
M  V30 4616 H 419.64 1.09925 3.49731 0
M  V30 4617 H 419.288 -0.907765 4.94741 0
M  V30 4618 H 418.988 0.601444 5.84514 0
M  V30 4619 H 420.512 -0.295808 6.09883 0
M  V30 4620 H 421.926 1.87148 5.41893 0
M  V30 4621 H 420.323 2.66164 5.37845 0
M  V30 4622 H 421.393 2.78393 3.9702 0
M  V30 4623 N 422.737 -1.36956 0.779787 0
M  V30 4624 C 423.667 -2.32761 0.185651 0
M  V30 4625 C 424.648 -1.56177 -0.673989 0
M  V30 4626 O 425.833 -1.84378 -0.609797 0
M  V30 4627 C 422.963 -3.40418 -0.687964 0
M  V30 4628 C 421.917 -4.27941 0.0710102 0
M  V30 4629 C 421.243 -5.26681 -0.922573 0
M  V30 4630 C 422.543 -5.07006 1.25467 0
M  V30 4631 H 424.237 -2.82698 0.986008 0
M  V30 4632 H 421.783 -1.3592 0.475592 0
M  V30 4633 H 423.736 -4.06423 -1.11348 0
M  V30 4634 H 422.46 -2.89025 -1.52093 0
M  V30 4635 H 421.119 -3.63478 0.47739 0
M  V30 4636 H 420.767 -4.71565 -1.7503 0
M  V30 4637 H 420.467 -5.86103 -0.419237 0
M  V30 4638 H 421.991 -5.9556 -1.34686 0
M  V30 4639 H 423.405 -5.66105 0.905401 0
M  V30 4640 H 421.802 -5.75793 1.69063 0
M  V30 4641 H 422.872 -4.3921 2.05481 0
M  V30 4642 N 424.215 -0.530993 -1.48385 0
M  V30 4643 C 425.147 0.268353 -2.27624 0
M  V30 4644 C 426.16 0.903525 -1.35426 0
M  V30 4645 O 427.349 0.781796 -1.60469 0
M  V30 4646 C 424.449 1.39535 -3.08842 0
M  V30 4647 C 423.622 0.861913 -4.28824 0
M  V30 4648 C 422.681 1.87016 -4.91845 0
M  V30 4649 O 421.707 1.4267 -5.5103 0
M  V30 4650 N 422.909 3.20238 -4.84178 0
M  V30 4651 H 425.674 -0.41123 -2.96865 0
M  V30 4652 H 423.235 -0.365387 -1.57723 0
M  V30 4653 H 425.227 2.06803 -3.47871 0
M  V30 4654 H 423.797 1.97859 -2.42014 0
M  V30 4655 H 423.017 0.0132126 -3.94198 0
M  V30 4656 H 424.305 0.484415 -5.06489 0
M  V30 4657 H 423.703 3.58932 -4.37246 0
M  V30 4658 H 422.26 3.83136 -5.27305 0
M  V30 4659 N 425.693 1.55336 -0.266172 0
M  V30 4660 C 426.643 2.18848 0.639497 0
M  V30 4661 C 427.627 1.1503 1.12503 0
M  V30 4662 O 428.819 1.40875 1.0716 0
M  V30 4663 C 425.948 2.90626 1.82733 0
M  V30 4664 C 425.034 4.01723 1.35939 0
M  V30 4665 N 425.425 5.02145 0.606988 0
M  V30 4666 C 423.723 4.1463 1.6431 0
M  V30 4667 C 424.424 5.80572 0.362138 0
M  V30 4668 N 423.4 5.35551 0.931971 0
M  V30 4669 H 427.202 2.93845 0.0567057 0
M  V30 4670 H 424.716 1.62252 -0.0693312 0
M  V30 4671 H 426.713 3.34569 2.48735 0
M  V30 4672 H 425.373 2.17137 2.41416 0
M  V30 4673 H 426.384 5.17271 0.255198 0
M  V30 4674 H 423.061 3.52326 2.23993 0
M  V30 4675 H 424.451 6.71472 -0.239848 0
M  V30 4676 N 427.171 -0.0066808 1.57599 0
M  V30 4677 C 428.582 -0.550379 1.78403 0
M  V30 4678 C 428.933 -1.74339 0.900014 0
M  V30 4679 O 428.058 -2.16166 0.100713 0
M  V30 4680 C 428.653 -1.00523 3.23544 0
M  V30 4681 C 427.212 -1.49428 3.45468 0
M  V30 4682 C 426.359 -0.442444 2.73748 0
M  V30 4683 H 429.31 0.219508 1.57175 0
M  V30 4684 H 429.331 -1.87157 3.31289 0
M  V30 4685 H 428.843 -0.136735 3.87859 0
M  V30 4686 H 426.944 -2.3839 2.86358 0
M  V30 4687 H 427.057 -1.52635 4.54136 0
M  V30 4688 H 425.421 -0.902578 2.38171 0
M  V30 4689 H 426.204 0.416973 3.40758 0
M  V30 4690 N 428.649 -1.55105 -0.279332 0
M  V30 4691 C 429.896 -1.75412 -1.01177 0
M  V30 4692 C 430.224 -0.551728 -1.86511 0
M  V30 4693 O 429.479 0.465919 -1.90073 0
M  V30 4694 C 429.778 -3.0086 -1.92919 0
M  V30 4695 C 429.444 -4.33689 -1.23387 0
M  V30 4696 C 428.106 -4.69792 -1.04159 0
M  V30 4697 C 430.458 -5.15941 -0.738562 0
M  V30 4698 C 427.786 -5.85707 -0.341166 0
M  V30 4699 C 430.138 -6.32579 -0.0517636 0
M  V30 4700 C 428.802 -6.67326 0.152292 0
M  V30 4701 H 428.072 -0.641879 -0.370233 0
M  V30 4702 H 430.719 -1.89373 -0.284627 0
M  V30 4703 H 429.024 -2.81773 -2.72234 0
M  V30 4704 H 430.721 -3.13768 -2.49701 0
M  V30 4705 H 427.311 -4.05309 -1.39364 0
M  V30 4706 H 431.495 -4.8853 -0.874764 0
M  V30 4707 H 426.751 -6.11157 -0.172287 0
M  V30 4708 H 430.925 -6.9557 0.339828 0
M  V30 4709 H 428.552 -7.56998 0.697014 0
M  V30 4710 N 430.127 0.543554 -1.4793 0
M  V30 4711 C 431.373 1.30201 -1.55485 0
M  V30 4712 C 431.706 1.92925 -0.222201 0
M  V30 4713 O 430.981 1.78586 0.77053 0
M  V30 4714 C 431.264 2.40174 -2.68307 0
M  V30 4715 C 431.117 1.8223 -4.11233 0
M  V30 4716 C 432.436 3.42024 -2.76961 0
M  V30 4717 H 429.555 0.472036 -0.565996 0
M  V30 4718 H 432.197 0.606914 -1.80046 0
M  V30 4719 H 430.347 2.99463 -2.47495 0
M  V30 4720 H 432.019 1.27096 -4.43446 0
M  V30 4721 H 430.262 1.12832 -4.18869 0
M  V30 4722 H 430.933 2.61793 -4.85972 0
M  V30 4723 H 433.409 2.92672 -2.95774 0
M  V30 4724 H 432.285 4.16383 -3.57654 0
M  V30 4725 H 432.546 4.0173 -1.84568 0
M  V30 4726 N 431.605 1.3629 0.791371 0
M  V30 4727 C 432.833 1.33562 1.58016 0
M  V30 4728 C 433.248 -0.0835616 1.88615 0
M  V30 4729 O 432.605 -1.0399 1.49974 0
M  V30 4730 C 432.656 2.15517 2.90232 0
M  V30 4731 O 432.377 3.51902 2.60953 0
M  V30 4732 C 433.878 2.20546 3.84544 0
M  V30 4733 H 431.098 0.458226 0.490173 0
M  V30 4734 H 433.642 1.79361 0.982345 0
M  V30 4735 H 431.797 1.73278 3.46487 0
M  V30 4736 H 432.211 3.94644 3.4548 0
M  V30 4737 H 433.685 2.82252 4.74382 0
M  V30 4738 H 434.162 1.20838 4.2225 0
M  V30 4739 H 434.768 2.63013 3.34222 0
M  V30 4740 N 433.083 -1.0153 1.20538 0
M  V30 4741 C 434.329 -1.75408 1.01783 0
M  V30 4742 C 434.662 -1.88943 -0.448814 0
M  V30 4743 O 433.937 -1.4162 -1.33319 0
M  V30 4744 C 434.22 -3.17255 1.70356 0
M  V30 4745 C 434.073 -3.11508 3.24473 0
M  V30 4746 C 435.392 -4.15955 1.43769 0
M  V30 4747 H 432.511 -0.636713 0.371167 0
M  V30 4748 H 435.153 -1.18436 1.4857 0
M  V30 4749 H 433.303 -3.65898 1.30578 0
M  V30 4750 H 434.975 -2.70658 3.73553 0
M  V30 4751 H 433.218 -2.4887 3.55311 0
M  V30 4752 H 433.889 -4.11784 3.67611 0
M  V30 4753 H 436.365 -3.75973 1.7828 0
M  V30 4754 H 435.241 -5.13368 1.94279 0
M  V30 4755 H 435.502 -4.40586 0.365564 0
M  V30 4756 N 434.561 -1.01147 -1.20859 0
M  V30 4757 C 435.838 -0.613136 -1.85742 0
M  V30 4758 C 436.218 0.909004 -1.90526 0
M  V30 4759 O 435.566 1.79862 -1.40932 0
M  V30 4760 C 435.776 -1.255 -3.25654 0
M  V30 4761 C 437.124 -1.3672 -4.01986 0
M  V30 4762 O 438.148 -1.21082 -3.34989 0
M  V30 4763 O 437.007 -1.6194 -5.21956 0
M  V30 4764 H 434.101 -0.210878 -0.799662 0
M  V30 4765 H 436.647 -1.10853 -1.2849 0
M  V30 4766 H 435.419 -2.29532 -3.16908 0
M  V30 4767 H 435.042 -0.746369 -3.90532 0
M  V30 4768 N 436.039 1.36541 -0.78704 0
M  V30 4769 C 437.264 2.0409 -0.369053 0
M  V30 4770 C 437.689 1.58957 1.00569 0
M  V30 4771 O 437.047 0.756926 1.64743 0
M  V30 4772 C 437.095 3.57924 -0.438466 0
M  V30 4773 O 436.199 4.08642 0.555479 0
M  V30 4774 H 435.54 0.645142 -0.157122 0
M  V30 4775 H 438.07 1.74545 -1.06749 0
M  V30 4776 H 438.08 4.06887 -0.301218 0
M  V30 4777 H 436.755 3.90127 -1.44132 0
M  V30 4778 H 435.332 3.70958 0.380088 0
M  V30 4779 N 437.518 0.538854 1.48102 0
M  V30 4780 C 438.466 -0.232325 2.31437 0
M  V30 4781 C 439.46 -0.927004 1.41785 0
M  V30 4782 O 440.666 -0.850378 1.58646 0
M  V30 4783 H 437.041 -0.0937916 0.746128 0
M  V30 4784 H 439.012 0.489986 2.9435 0
M  V30 4785 C 437.761 -1.26074 3.24038 0
M  V30 4786 H 437.084 -0.735609 3.92974 0
M  V30 4787 H 438.524 -1.77157 3.85216 0
M  V30 4788 C 436.983 -2.29902 2.46265 0
M  V30 4789 O 437.513 -3.36502 2.19384 0
M  V30 4790 N 435.719 -2.03348 2.07601 0
M  V30 4791 H 435.266 -1.16675 2.29662 0
M  V30 4792 H 435.224 -2.73038 1.55877 0
M  V30 4793 N 438.996 -1.55193 0.274407 0
M  V30 4794 C 439.943 -2.225 -0.613374 0
M  V30 4795 C 440.913 -1.19823 -1.15029 0
M  V30 4796 O 442.098 -1.48362 -1.19973 0
M  V30 4797 C 439.238 -2.94927 -1.79199 0
M  V30 4798 C 438.351 -4.12322 -1.28899 0
M  V30 4799 C 437.486 -4.72394 -2.42934 0
M  V30 4800 C 436.525 -5.81984 -1.89634 0
M  V30 4801 N 435.662 -6.36123 -2.9714 0
M  V30 4802 H 440.502 -2.97982 -0.032756 0
M  V30 4803 H 438.039 -1.47099 -0.00440146 0
M  V30 4804 H 439.997 -3.35134 -2.48478 0
M  V30 4805 H 438.627 -2.2187 -2.34465 0
M  V30 4806 H 437.679 -3.7724 -0.489327 0
M  V30 4807 H 438.991 -4.91355 -0.858587 0
M  V30 4808 H 438.145 -5.15317 -3.20208 0
M  V30 4809 H 436.884 -3.92636 -2.8929 0
M  V30 4810 H 435.889 -5.38511 -1.1084 0
M  V30 4811 H 437.114 -6.6361 -1.44215 0
M  V30 4812 H 435.06 -5.59259 -3.42878 0
M  V30 4813 H 434.977 -7.10427 -2.58515 0
M  V30 4814 H 436.245 -6.83704 -3.74391 0
M  V30 4815 N 440.474 -0.00167713 -1.576 0
M  V30 4816 C 441.885 0.54091 -1.78693 0
M  V30 4817 C 442.236 1.7386 -0.909247 0
M  V30 4818 O 441.361 2.16109 -0.112176 0
M  V30 4819 C 441.956 0.98806 -3.24072 0
M  V30 4820 C 440.515 1.47594 -3.46256 0
M  V30 4821 C 439.662 0.42792 -2.73978 0
M  V30 4822 H 442.613 -0.22784 -1.57056 0
M  V30 4823 H 442.634 1.85398 -3.32277 0
M  V30 4824 H 442.146 0.116164 -3.87926 0
M  V30 4825 H 440.247 2.36868 -2.87618 0
M  V30 4826 H 440.36 1.50225 -4.54939 0
M  V30 4827 H 438.724 0.889934 -2.38647 0
M  V30 4828 H 439.507 -0.435038 -3.40532 0
M  V30 4829 N 441.952 1.55251 0.271103 0
M  V30 4830 C 443.201 1.75151 1.00025 0
M  V30 4831 C 443.514 0.561041 1.87381 0
M  V30 4832 O 444.72 0.642506 2.63788 0
M  V30 4833 C 443.176 3.09999 1.82835 0
M  V30 4834 C 442.784 4.3662 1.00336 0
M  V30 4835 C 444.528 3.39249 2.55168 0
M  V30 4836 C 442.435 5.62506 1.82595 0
M  V30 4837 H 441.365 0.652877 0.377183 0
M  V30 4838 H 444.016 1.81708 0.255843 0
M  V30 4839 H 442.398 2.97485 2.61378 0
M  V30 4840 H 443.572 4.60055 0.261959 0
M  V30 4841 H 441.887 4.14527 0.394486 0
M  V30 4842 H 444.484 4.3051 3.1712 0
M  V30 4843 H 444.827 2.59467 3.2555 0
M  V30 4844 H 445.36 3.52869 1.83653 0
M  V30 4845 H 442.099 6.45041 1.16631 0
M  V30 4846 H 441.619 5.43211 2.54327 0
M  V30 4847 H 443.298 6.00875 2.39913 0
M  V30 4848 N 443.43 -0.535701 1.48216 0
M  V30 4849 C 444.846 -0.863701 1.3421 0
M  V30 4850 C 445.046 -1.98458 0.34879 0
M  V30 4851 O 444.102 -2.51432 -0.23204 0
M  V30 4852 C 445.415 -1.23662 2.74095 0
M  V30 4853 C 446.963 -1.34683 2.82541 0
M  V30 4854 C 447.438 -1.75322 4.23115 0
M  V30 4855 N 448.929 -1.82434 4.2576 0
M  V30 4856 C 449.664 -2.15252 5.31464 0
M  V30 4857 N 449.16 -2.46533 6.47452 0
M  V30 4858 N 450.953 -2.16209 5.18855 0
M  V30 4859 H 443.104 0.203965 2.11418 0
M  V30 4860 H 445.367 0.0286033 0.947568 0
M  V30 4861 H 445.073 -0.486674 3.48316 0
M  V30 4862 H 444.947 -2.18805 3.07253 0
M  V30 4863 H 447.334 -2.08756 2.08579 0
M  V30 4864 H 447.415 -0.376756 2.5301 0
M  V30 4865 H 447.059 -1.01812 4.97591 0
M  V30 4866 H 446.989 -2.7337 4.50085 0
M  V30 4867 H 449.48 -1.6056 3.42095 0
M  V30 4868 H 449.793 -2.70662 7.23852 0
M  V30 4869 H 448.138 -2.44065 6.50736 0
M  V30 4870 H 451.329 -1.91224 4.2726 0
M  V30 4871 H 451.502 -2.41453 6.01335 0
M  V30 4872 N 444.908 -1.36708 -0.784132 0
M  V30 4873 C 445.818 -1.3363 -1.92822 0
M  V30 4874 C 446.834 -0.237686 -1.72369 0
M  V30 4875 O 448.01 -0.470962 -1.95816 0
M  V30 4876 C 445.075 -1.13011 -3.27764 0
M  V30 4877 C 444.136 -2.32397 -3.60957 0
M  V30 4878 C 443.369 -2.12752 -4.89461 0
M  V30 4879 O 443.592 -1.10541 -5.59586 0
M  V30 4880 O 442.526 -3.00653 -5.21432 0
M  V30 4881 H 446.352 -2.29964 -1.98369 0
M  V30 4882 H 443.937 -1.1731 -0.925136 0
M  V30 4883 H 445.819 -1.03451 -4.08504 0
M  V30 4884 H 444.494 -0.19743 -3.23097 0
M  V30 4885 H 443.401 -2.47527 -2.80502 0
M  V30 4886 H 444.734 -3.2419 -3.70354 0
M  V30 4887 N 446.386 1.0089 -1.21074 0
M  V30 4888 C 447.316 2.1145 -0.990523 0
M  V30 4889 C 448.297 1.69897 0.0831699 0
M  V30 4890 O 449.482 1.94052 -0.0758853 0
M  V30 4891 C 446.612 3.42914 -0.550177 0
M  V30 4892 C 445.566 3.98244 -1.56799 0
M  V30 4893 C 444.892 5.25568 -0.984013 0
M  V30 4894 C 446.192 4.30752 -2.95381 0
M  V30 4895 H 447.886 2.3013 -1.91521 0
M  V30 4896 H 445.432 1.10592 -0.92225 0
M  V30 4897 H 447.385 4.19653 -0.383305 0
M  V30 4898 H 446.109 3.24014 0.41015 0
M  V30 4899 H 444.768 3.23621 -1.72236 0
M  V30 4900 H 444.416 5.02998 -0.0155216 0
M  V30 4901 H 444.116 5.63551 -1.66384 0
M  V30 4902 H 445.64 6.04955 -0.828378 0
M  V30 4903 H 447.054 4.98349 -2.8341 0
M  V30 4904 H 445.451 4.79869 -3.60341 0
M  V30 4905 H 446.521 3.39192 -3.46521 0
M  V30 4906 N 447.864 1.01787 1.20321 0
M  V30 4907 C 449.113 0.703249 1.89043 0
M  V30 4908 C 449.426 -0.770445 1.79787 0
M  V30 4909 O 450.632 -1.19767 2.43656 0
M  V30 4910 C 449.088 1.20749 3.3904 0
M  V30 4911 C 448.696 2.70817 3.56878 0
M  V30 4912 C 450.44 0.968352 4.13308 0
M  V30 4913 C 448.347 3.14716 5.00708 0
M  V30 4914 H 447.277 0.259354 0.707991 0
M  V30 4915 H 449.928 1.23072 1.36108 0
M  V30 4916 H 448.31 0.607989 3.91305 0
M  V30 4917 H 449.484 3.36327 3.14993 0
M  V30 4918 H 447.799 2.92888 2.95983 0
M  V30 4919 H 450.396 1.27173 5.19356 0
M  V30 4920 H 450.739 -0.095149 4.16191 0
M  V30 4921 H 451.272 1.53129 3.67146 0
M  V30 4922 H 448.011 4.20347 5.02979 0
M  V30 4923 H 447.531 2.53927 5.43398 0
M  V30 4924 H 449.21 3.07426 5.69296 0
M  V30 4925 N 449.342 -1.36122 0.79427 0
M  V30 4926 C 450.305 -2.28309 0.201889 0
M  V30 4927 C 451.305 -1.49041 -0.603603 0
M  V30 4928 O 452.495 -1.68964 -0.423888 0
M  V30 4929 C 449.627 -3.3321 -0.719978 0
M  V30 4930 H 450.82 -2.82208 1.01481 0
M  V30 4931 H 448.373 -1.45768 0.564037 0
M  V30 4932 H 449.108 -2.84475 -1.55706 0
M  V30 4933 H 448.893 -3.91835 -0.144266 0
M  V30 4934 H 450.383 -4.02044 -1.12916 0
M  V30 4935 N 450.82 -0.546701 -1.47814 0
M  V30 4936 C 451.73 0.21026 -2.33656 0
M  V30 4937 C 452.746 0.922413 -1.47538 0
M  V30 4938 O 453.922 0.893652 -1.80488 0
M  V30 4939 C 450.987 1.23348 -3.24016 0
M  V30 4940 C 450.048 0.529883 -4.26017 0
M  V30 4941 C 449.281 1.50435 -5.12059 0
M  V30 4942 O 449.504 2.73837 -5.00369 0
M  V30 4943 O 448.438 1.03459 -5.92942 0
M  V30 4944 H 452.264 -0.493605 -2.99662 0
M  V30 4945 H 449.849 -0.307427 -1.46203 0
M  V30 4946 H 451.731 1.82438 -3.79861 0
M  V30 4947 H 450.406 1.91945 -2.60651 0
M  V30 4948 H 449.313 -0.101948 -3.73961 0
M  V30 4949 H 450.646 -0.11445 -4.92067 0
M  V30 4950 N 452.299 1.55045 -0.282633 0
M  V30 4951 C 453.262 2.21515 0.588539 0
M  V30 4952 C 454.262 1.19535 1.07554 0
M  V30 4953 O 455.452 1.44391 0.974514 0
M  V30 4954 C 452.584 2.88704 1.8128 0
M  V30 4955 H 453.777 2.99899 0.00806397 0
M  V30 4956 H 451.33 1.56265 -0.0333067 0
M  V30 4957 H 452.065 2.14352 2.43359 0
M  V30 4958 H 451.85 3.63443 1.47144 0
M  V30 4959 H 453.34 3.39465 2.43214 0
M  V30 4960 N 453.777 0.010035 1.57597 0
M  V30 4961 C 454.724 -0.978122 2.09049 0
M  V30 4962 C 455.694 -1.33509 0.988159 0
M  V30 4963 O 456.879 -1.43172 1.26121 0
M  V30 4964 C 454.019 -2.26158 2.60666 0
M  V30 4965 C 453.132 -1.96275 3.84838 0
M  V30 4966 C 452.267 -3.18776 4.24918 0
M  V30 4967 C 451.306 -2.84625 5.41899 0
M  V30 4968 N 450.443 -3.99693 5.77226 0
M  V30 4969 H 455.283 -0.532431 2.93205 0
M  V30 4970 H 452.82 -0.251234 1.44939 0
M  V30 4971 H 454.778 -3.01202 2.88675 0
M  V30 4972 H 453.408 -2.68378 1.79369 0
M  V30 4973 H 452.46 -1.11555 3.63675 0
M  V30 4974 H 453.772 -1.67111 4.69974 0
M  V30 4975 H 452.926 -4.02157 4.54262 0
M  V30 4976 H 451.665 -3.51087 3.38511 0
M  V30 4977 H 450.67 -1.99653 5.12268 0
M  V30 4978 H 451.895 -2.53551 6.29991 0
M  V30 4979 H 449.841 -4.31882 4.93776 0
M  V30 4980 H 449.758 -3.74087 6.56959 0
M  V30 4981 H 451.026 -4.83834 6.11167 0
M  V30 4982 N 455.255 -1.55392 -0.262866 0
M  V30 4983 C 456.218 -1.88181 -1.30846 0
M  V30 4984 C 457.218 -0.757079 -1.41862 0
M  V30 4985 O 458.408 -1.02519 -1.40838 0
M  V30 4986 C 455.54 -2.09609 -2.68844 0
M  V30 4987 H 456.733 -2.81659 -1.02997 0
M  V30 4988 H 454.286 -1.48039 -0.501414 0
M  V30 4989 H 455.021 -1.18547 -3.01856 0
M  V30 4990 H 454.806 -2.91508 -2.62231 0
M  V30 4991 H 456.296 -2.36215 -3.44372 0
M  V30 4992 N 456.733 0.527833 -1.48498 0
M  V30 4993 C 457.643 1.65907 -1.65867 0
M  V30 4994 C 458.659 1.6537 -0.541192 0
M  V30 4995 O 459.835 1.84282 -0.812534 0
M  V30 4996 C 456.9 3.02364 -1.69637 0
M  V30 4997 C 455.961 3.1374 -2.93028 0
M  V30 4998 C 455.194 4.43688 -2.96609 0
M  V30 4999 O 455.417 5.30913 -2.08538 0
M  V30 5000 O 454.351 4.59475 -3.88802 0
M  V30 5001 H 458.177 1.5419 -2.61647 0
M  V30 5002 H 455.762 0.701163 -1.31924 0
M  V30 5003 H 457.644 3.83515 -1.74625 0
M  V30 5004 H 456.319 3.14401 -0.770312 0
M  V30 5005 H 455.226 2.31877 -2.93571 0
M  V30 5006 H 456.559 3.06621 -3.85026 0
M  V30 5007 N 458.211 1.37122 0.776871 0
M  V30 5008 C 459.457 1.32243 1.53752 0
M  V30 5009 C 459.79 -0.0944745 1.9397 0
M  V30 5010 O 459.065 -1.05068 1.6368 0
M  V30 5011 C 459.348 2.25681 2.80607 0
M  V30 5012 C 459.201 3.76127 2.46676 0
M  V30 5013 C 460.52 2.17657 3.82509 0
M  V30 5014 H 457.639 0.481704 0.557791 0
M  V30 5015 H 460.281 1.6778 0.891612 0
M  V30 5016 H 458.431 1.95505 3.35723 0
M  V30 5017 H 460.103 4.16877 1.97513 0
M  V30 5018 H 458.346 3.94946 1.79443 0
M  V30 5019 H 459.017 4.36933 3.37333 0
M  V30 5020 H 461.493 2.44245 3.36873 0
M  V30 5021 H 460.369 2.85185 4.69 0
M  V30 5022 H 460.63 1.16785 4.26396 0
M  V30 5023 N 459.689 -1.00246 1.21608 0
M  V30 5024 C 460.917 -1.77631 1.06089 0
M  V30 5025 C 461.332 -1.84746 -0.38916 0
M  V30 5026 O 460.689 -1.31068 -1.26994 0
M  V30 5027 C 460.74 -3.21415 1.65453 0
M  V30 5028 O 460.461 -3.14703 3.04785 0
M  V30 5029 C 461.962 -4.15289 1.55079 0
M  V30 5030 H 459.182 -0.558162 0.37242 0
M  V30 5031 H 461.726 -1.26093 1.60999 0
M  V30 5032 H 459.881 -3.70053 1.14629 0
M  V30 5033 H 460.295 -4.05056 3.33212 0
M  V30 5034 H 461.769 -5.13965 2.01355 0
M  V30 5035 H 462.246 -4.36279 0.505665 0
M  V30 5036 H 462.852 -3.72543 2.05163 0
M  V30 5037 N 461.167 -1.02423 -1.1978 0
M  V30 5038 C 462.077 -0.610919 -2.26506 0
M  V30 5039 C 463.093 0.355152 -1.70337 0
M  V30 5040 O 464.269 0.214195 -2.00258 0
M  V30 5041 C 461.334 0.0365921 -3.46681 0
M  V30 5042 C 460.395 -0.976389 -4.18049 0
M  V30 5043 C 459.628 -0.359683 -5.32487 0
M  V30 5044 O 459.851 0.838601 -5.64202 0
M  V30 5045 O 458.785 -1.08022 -5.92127 0
M  V30 5046 H 462.611 -1.49965 -2.64091 0
M  V30 5047 H 460.196 -0.794156 -1.26545 0
M  V30 5048 H 462.078 0.39786 -4.19518 0
M  V30 5049 H 460.753 0.899398 -3.10954 0
M  V30 5050 H 459.66 -1.38916 -3.47352 0
M  V30 5051 H 460.993 -1.80941 -4.57735 0
M  V30 5052 N 462.645 1.35699 -0.801477 0
M  V30 5053 C 463.555 2.33661 -0.209691 0
M  V30 5054 C 464.571 1.6162 0.644591 0
M  V30 5055 O 465.747 1.93529 0.557545 0
M  V30 5056 C 462.812 3.40816 0.636033 0
M  V30 5057 C 461.873 4.28639 -0.238147 0
M  V30 5058 C 461.106 5.30676 0.567307 0
M  V30 5059 O 461.329 5.41174 1.8024 0
M  V30 5060 O 460.263 6.01887 -0.0391336 0
M  V30 5061 H 464.089 2.8606 -1.01996 0
M  V30 5062 H 461.674 1.38379 -0.563164 0
M  V30 5063 H 463.556 4.06301 1.11791 0
M  V30 5064 H 462.231 2.90696 1.42399 0
M  V30 5065 H 461.138 3.66152 -0.767044 0
M  V30 5066 H 462.471 4.82143 -0.989915 0
M  V30 5067 N 464.123 0.554532 1.47522 0
M  V30 5068 C 465.369 0.0295227 2.02779 0
M  V30 5069 C 465.702 -1.31582 1.42828 0
M  V30 5070 O 464.977 -1.85561 0.582872 0
M  V30 5071 C 465.26 -0.0664057 3.60039 0
M  V30 5072 C 465.113 1.30585 4.30427 0
M  V30 5073 C 466.432 -0.781162 4.33112 0
M  V30 5074 H 463.551 0.0122027 0.736899 0
M  V30 5075 H 466.193 0.716305 1.7598 0
M  V30 5076 H 464.343 -0.651307 3.83002 0
M  V30 5077 H 466.015 1.93374 4.18813 0
M  V30 5078 H 464.258 1.88125 3.90886 0
M  V30 5079 H 464.929 1.19147 5.38988 0
M  V30 5080 H 467.405 -0.284565 4.15126 0
M  V30 5081 H 466.281 -0.817237 5.42782 0
M  V30 5082 H 466.542 -1.83672 4.0214 0
M  V30 5083 N 465.601 -1.54893 0.290851 0
M  V30 5084 C 466.511 -2.26812 -0.59945 0
M  V30 5085 C 467.527 -1.29963 -1.15696 0
M  V30 5086 O 468.703 -1.62928 -1.18391 0
M  V30 5087 C 465.768 -2.98716 -1.75982 0
M  V30 5088 C 464.829 -4.1108 -1.2374 0
M  V30 5089 C 464.062 -4.79546 -2.34246 0
M  V30 5090 O 464.285 -4.47309 -3.53936 0
M  V30 5091 O 463.219 -5.67165 -2.01512 0
M  V30 5092 H 467.045 -3.03696 -0.0163561 0
M  V30 5093 H 464.63 -1.49289 0.0576755 0
M  V30 5094 H 466.512 -3.43851 -2.43607 0
M  V30 5095 H 465.187 -2.24737 -2.3297 0
M  V30 5096 H 464.094 -3.70367 -0.527163 0
M  V30 5097 H 465.427 -4.87007 -0.71307 0
M  V30 5098 N 467.08 -0.0183926 -1.57589 0
M  V30 5099 C 468.357 0.700621 -1.82622 0
M  V30 5100 C 468.737 1.90951 -0.90005 0
M  V30 5101 O 468.085 2.28452 0.0469145 0
M  V30 5102 C 468.295 1.08899 -3.31575 0
M  V30 5103 C 469.643 1.48514 -3.9778 0
M  V30 5104 O 470.667 1.18227 -3.36007 0
M  V30 5105 O 469.526 2.04903 -5.06633 0
M  V30 5106 H 466.62 0.342743 -0.752633 0
M  V30 5107 H 469.166 -0.0452548 -1.6964 0
M  V30 5108 H 467.938 0.228113 -3.90635 0
M  V30 5109 H 467.561 1.89338 -3.49624 0
M  V30 5110 N 468.558 1.5553 0.254621 0
M  V30 5111 C 469.806 1.7665 0.981793 0
M  V30 5112 C 470.127 0.580963 1.86145 0
M  V30 5113 O 469.397 -0.403537 1.91699 0
M  V30 5114 H 467.977 0.651475 0.365498 0
M  V30 5115 H 470.639 1.92958 0.274426 0
M  V30 5116 H 469.735 2.67486 1.60802 0
M  V30 5117 N 470.036 -0.519951 1.48776 0
M  V30 5118 C 470.983 -1.62352 1.64044 0
M  V30 5119 C 471.953 -1.58945 0.482251 0
M  V30 5120 O 473.138 -1.77219 0.706971 0
M  V30 5121 C 470.278 -3.00579 1.69547 0
M  V30 5122 C 469.391 -3.14145 2.96541 0
M  V30 5123 C 468.526 -4.42991 2.93142 0
M  V30 5124 C 467.565 -4.50122 4.14797 0
M  V30 5125 N 466.702 -5.7037 4.09418 0
M  V30 5126 H 471.542 -1.48643 2.58281 0
M  V30 5127 H 469.079 -0.723516 1.28077 0
M  V30 5128 H 471.037 -3.80671 1.70719 0
M  V30 5129 H 469.667 -3.13036 0.787918 0
M  V30 5130 H 468.719 -2.27239 3.05068 0
M  V30 5131 H 470.031 -3.15275 3.86527 0
M  V30 5132 H 469.185 -5.31385 2.92772 0
M  V30 5133 H 467.924 -4.44398 2.00902 0
M  V30 5134 H 466.929 -3.60133 4.15433 0
M  V30 5135 H 468.154 -4.50445 5.08208 0
M  V30 5136 H 466.1 -5.72655 3.20004 0
M  V30 5137 H 466.017 -5.73036 4.93119 0
M  V30 5138 H 467.285 -6.61023 4.13121 0
M  V30 5139 N 471.514 -1.37532 -0.769588 0
M  V30 5140 C 472.424 -1.35668 -1.91393 0
M  V30 5141 C 473.44 -0.255954 -1.72107 0
M  V30 5142 O 474.616 -0.491704 -1.95305 0
M  V30 5143 C 471.681 -1.16481 -3.26547 0
M  V30 5144 C 470.742 -2.36212 -3.58472 0
M  V30 5145 C 469.975 -2.17932 -4.87177 0
M  V30 5146 O 470.198 -1.1647 -5.58382 0
M  V30 5147 O 469.132 -3.06167 -5.18214 0
M  V30 5148 H 472.958 -2.32055 -1.95918 0
M  V30 5149 H 470.543 -1.18284 -0.912641 0
M  V30 5150 H 472.425 -1.07778 -4.07384 0
M  V30 5151 H 471.1 -0.231687 -3.2287 0
M  V30 5152 H 470.007 -2.50488 -2.77861 0
M  V30 5153 H 471.34 -3.281 -3.66894 0
M  V30 5154 N 472.992 0.995999 -1.22138 0
M  V30 5155 C 473.902 2.11985 -1.00496 0
M  V30 5156 C 474.918 1.7394 0.0457701 0
M  V30 5157 O 476.094 2.00868 -0.146273 0
M  V30 5158 C 473.159 3.41779 -0.582086 0
M  V30 5159 C 472.22 3.93943 -1.70608 0
M  V30 5160 C 471.453 5.17542 -1.30328 0
M  V30 5161 O 471.676 5.70114 -0.180743 0
M  V30 5162 O 470.61 5.63382 -2.11861 0
M  V30 5163 H 474.436 2.33123 -1.94647 0
M  V30 5164 H 472.021 1.10358 -1.00705 0
M  V30 5165 H 473.903 4.1989 -0.356467 0
M  V30 5166 H 472.578 3.22007 0.330592 0
M  V30 5167 H 471.485 3.17019 -1.98619 0
M  V30 5168 H 472.818 4.18141 -2.59651 0
M  V30 5169 N 474.47 1.03057 1.19235 0
M  V30 5170 C 475.747 0.642608 1.84743 0
M  V30 5171 C 476.127 -0.878577 1.91948 0
M  V30 5172 O 475.475 -1.77597 1.43776 0
M  V30 5173 C 475.685 1.30665 3.23616 0
M  V30 5174 C 477.033 1.43098 3.9976 0
M  V30 5175 O 478.057 1.26396 3.3302 0
M  V30 5176 O 476.916 1.70223 5.19313 0
M  V30 5177 H 474.01 0.223573 0.796206 0
M  V30 5178 H 476.556 1.12883 1.26711 0
M  V30 5179 H 475.328 2.34544 3.13217 0
M  V30 5180 H 474.951 0.808405 3.89295 0
M  V30 5181 N 475.948 -1.35272 0.808662 0
M  V30 5182 C 476.858 -2.33546 0.222079 0
M  V30 5183 C 477.874 -1.6196 -0.636011 0
M  V30 5184 O 479.05 -1.93822 -0.547274 0
M  V30 5185 C 476.115 -3.41148 -0.61795 0
M  V30 5186 C 475.176 -4.28507 0.260875 0
M  V30 5187 C 474.409 -5.3097 -0.539156 0
M  V30 5188 O 474.632 -5.42123 -1.77367 0
M  V30 5189 O 473.566 -6.01858 0.0710526 0
M  V30 5190 H 477.392 -2.85515 1.03512 0
M  V30 5191 H 474.977 -1.38079 0.570495 0
M  V30 5192 H 476.859 -4.06889 -1.09634 0
M  V30 5193 H 475.534 -2.91447 -1.40855 0
M  V30 5194 H 474.441 -3.6574 0.786451 0
M  V30 5195 H 475.774 -4.81611 1.01547 0
M  V30 5196 N 477.426 -0.562348 -1.47226 0
M  V30 5197 C 478.336 0.185466 -2.33866 0
M  V30 5198 C 479.352 0.906713 -1.48508 0
M  V30 5199 O 480.528 0.874458 -1.81425 0
M  V30 5200 C 477.593 1.19904 -3.25306 0
M  V30 5201 C 476.654 0.484669 -4.26555 0
M  V30 5202 C 475.887 1.44996 -5.13626 0
M  V30 5203 O 476.11 2.68515 -5.03245 0
M  V30 5204 O 475.044 0.971642 -5.94006 0
M  V30 5205 H 478.87 -0.525361 -2.99121 0
M  V30 5206 H 476.455 -0.322916 -1.45868 0
M  V30 5207 H 478.337 1.78399 -3.81774 0
M  V30 5208 H 477.012 1.8917 -2.62672 0
M  V30 5209 H 475.919 -0.141605 -3.73832 0
M  V30 5210 H 477.252 -0.166634 -4.91918 0
M  V30 5211 N 478.904 1.54736 -0.299062 0
M  V30 5212 C 479.814 2.27127 0.587413 0
M  V30 5213 C 480.83 1.30575 1.15005 0
M  V30 5214 O 482.006 1.63554 1.17525 0
M  V30 5215 C 479.071 2.99645 1.74395 0
M  V30 5216 C 478.132 4.11731 1.21559 0
M  V30 5217 C 477.365 4.80781 2.317 0
M  V30 5218 O 477.588 4.4918 3.51558 0
M  V30 5219 O 476.522 5.68226 1.98501 0
M  V30 5220 H 480.348 3.037 0.000250109 0
M  V30 5221 H 477.933 1.49256 -0.0655919 0
M  V30 5222 H 479.815 3.45138 2.4178 0
M  V30 5223 H 478.49 2.25969 2.31775 0
M  V30 5224 H 477.397 3.70641 0.507514 0
M  V30 5225 H 478.73 4.87379 0.687233 0
M  V30 5226 N 480.382 0.0267497 1.57577 0
M  V30 5227 C 481.292 -0.971633 2.13533 0
M  V30 5228 C 482.308 -1.35868 1.08701 0
M  V30 5229 O 483.484 -1.44058 1.40746 0
M  V30 5230 C 480.549 -2.23622 2.64941 0
M  V30 5231 C 479.61 -1.90982 3.8448 0
M  V30 5232 C 478.843 -3.11411 4.33427 0
M  V30 5233 O 479.066 -4.23992 3.81558 0
M  V30 5234 O 478 -2.93848 5.25297 0
M  V30 5235 H 481.826 -0.525853 2.99113 0
M  V30 5236 H 479.411 -0.193712 1.48139 0
M  V30 5237 H 481.293 -2.97864 2.98086 0
M  V30 5238 H 479.968 -2.67386 1.82446 0
M  V30 5239 H 478.875 -1.14132 3.56265 0
M  V30 5240 H 480.208 -1.52036 4.6813 0
M  V30 5241 N 481.861 -1.55662 -0.24637 0
M  V30 5242 C 483.089 -1.81575 -0.991876 0
M  V30 5243 C 483.504 -0.602545 -1.78927 0
M  V30 5244 O 482.861 0.428795 -1.77391 0
M  V30 5245 C 482.912 -3.05711 -1.92933 0
M  V30 5246 O 482.633 -4.22348 -1.1642 0
M  V30 5247 C 484.134 -3.44428 -2.79078 0
M  V30 5248 H 481.354 -0.604209 -0.291844 0
M  V30 5249 H 483.898 -2.02722 -0.269095 0
M  V30 5250 H 482.053 -2.86612 -2.60638 0
M  V30 5251 H 482.467 -4.92706 -1.79835 0
M  V30 5252 H 483.941 -4.34388 -3.40603 0
M  V30 5253 H 484.418 -2.65037 -3.50217 0
M  V30 5254 H 485.024 -3.65879 -2.16824 0
M  V30 5255 N 483.339 0.512053 -1.4905 0
M  V30 5256 C 484.249 1.64139 -1.67617 0
M  V30 5257 C 485.265 1.64786 -0.558701 0
M  V30 5258 O 486.441 1.8341 -0.832034 0
M  V30 5259 C 483.506 3.00548 -1.72835 0
M  V30 5260 C 482.567 3.10615 -2.96339 0
M  V30 5261 C 481.8 4.40517 -3.01298 0
M  V30 5262 O 482.023 5.28671 -2.14157 0
M  V30 5263 O 480.957 4.55325 -3.93653 0
M  V30 5264 H 484.783 1.51407 -2.63267 0
M  V30 5265 H 482.368 0.687131 -1.32661 0
M  V30 5266 H 484.25 3.81641 -1.78683 0
M  V30 5267 H 482.925 3.13566 -0.803616 0
M  V30 5268 H 481.832 2.2875 -2.96014 0
M  V30 5269 H 483.165 3.0252 -3.88256 0
M  V30 5270 N 484.817 1.37938 0.762283 0
M  V30 5271 C 485.765 1.34569 1.89721 0
M  V30 5272 C 486.759 0.232929 1.67791 0
M  V30 5273 O 487.965 0.401485 1.75465 0
M  V30 5274 H 484.34 0.419594 0.624055 0
M  V30 5275 H 486.311 2.30357 1.8968 0
M  V30 5276 C 485.06 1.17898 3.27101 0
M  V30 5277 H 484.383 2.02781 3.44558 0
M  V30 5278 H 485.823 1.19593 4.06784 0
M  V30 5279 C 484.282 -0.114728 3.36705 0
M  V30 5280 O 484.812 -1.0949 3.8649 0
M  V30 5281 N 483.018 -0.16863 2.9011 0
M  V30 5282 H 482.565 0.62967 2.49786 0
M  V30 5283 H 482.523 -1.03383 2.96916 0
M  V30 5284 N 486.295 -0.989507 1.22664 0
M  V30 5285 C 487.52 -1.77031 1.08051 0
M  V30 5286 C 487.945 -1.84535 -0.364483 0
M  V30 5287 O 487.303 -1.3003 -1.2634 0
M  V30 5288 C 487.351 -3.18 1.70024 0
M  V30 5289 O 486.455 -4.01161 0.956216 0
M  V30 5290 H 485.796 -0.545008 0.379292 0
M  V30 5291 H 488.326 -1.24277 1.62531 0
M  V30 5292 H 488.336 -3.68616 1.74888 0
M  V30 5293 H 487.011 -3.11853 2.75174 0
M  V30 5294 H 485.588 -3.59687 0.98384 0
M  V30 5295 N 487.773 -1.03688 -1.18687 0
M  V30 5296 C 488.703 -0.645407 -2.24403 0
M  V30 5297 C 489.684 0.349511 -1.66471 0
M  V30 5298 O 490.869 0.230453 -1.92828 0
M  V30 5299 C 487.999 -0.00365337 -3.473 0
M  V30 5300 C 486.953 -0.921705 -4.17958 0
M  V30 5301 C 486.279 -0.144629 -5.34504 0
M  V30 5302 C 487.579 -2.23909 -4.71871 0
M  V30 5303 H 489.273 -1.52917 -2.57404 0
M  V30 5304 H 486.819 -0.736711 -1.23728 0
M  V30 5305 H 488.772 0.281908 -4.20456 0
M  V30 5306 H 487.496 0.914963 -3.13522 0
M  V30 5307 H 486.155 -1.19159 -3.46694 0
M  V30 5308 H 485.803 0.776274 -4.96974 0
M  V30 5309 H 485.503 -0.756206 -5.82714 0
M  V30 5310 H 487.027 0.134004 -6.10453 0
M  V30 5311 H 488.441 -2.0145 -5.36741 0
M  V30 5312 H 486.838 -2.8033 -5.30599 0
M  V30 5313 H 487.908 -2.88822 -3.895 0
M  V30 5314 N 489.251 1.34841 -0.815825 0
M  V30 5315 C 490.662 1.80937 -0.46029 0
M  V30 5316 C 491.013 1.67685 1.01863 0
M  V30 5317 O 490.138 1.21277 1.79223 0
M  V30 5318 C 490.733 3.28509 -0.828708 0
M  V30 5319 C 489.292 3.72712 -0.525644 0
M  V30 5320 C 488.439 2.56676 -1.04941 0
M  V30 5321 H 491.39 1.22688 -1.00664 0
M  V30 5322 H 491.411 3.80279 -0.129757 0
M  V30 5323 H 490.923 3.38122 -1.90513 0
M  V30 5324 H 489.024 3.68642 0.541666 0
M  V30 5325 H 489.137 4.67119 -1.06474 0
M  V30 5326 H 487.501 2.50302 -0.471286 0
M  V30 5327 H 488.284 2.69063 -2.13214 0
M  V30 5328 N 490.729 0.570148 1.46925 0
M  V30 5329 C 491.978 0.0487352 2.01641 0
M  V30 5330 C 492.291 -1.31433 1.44861 0
M  V30 5331 O 493.497 -1.92638 1.91318 0
M  V30 5332 C 491.953 0.0365817 3.59881 0
M  V30 5333 C 491.561 1.39719 4.25655 0
M  V30 5334 C 493.305 -0.431545 4.22301 0
M  V30 5335 C 491.212 1.34345 5.75939 0
M  V30 5336 H 490.142 0.0144492 0.753862 0
M  V30 5337 H 492.793 0.719928 1.68788 0
M  V30 5338 H 491.175 -0.700522 3.89755 0
M  V30 5339 H 492.349 2.15303 4.07408 0
M  V30 5340 H 490.664 1.80431 3.75278 0
M  V30 5341 H 493.261 -0.490354 5.32447 0
M  V30 5342 H 493.604 -1.44638 3.90366 0
M  V30 5343 H 494.137 0.251102 3.97007 0
M  V30 5344 H 490.876 2.33469 6.12513 0
M  V30 5345 H 490.396 0.629615 5.96486 0
M  V30 5346 H 492.075 1.051 6.38407 0
M  V30 5347 N 492.207 -1.54576 0.307264 0
M  V30 5348 C 493.618 -1.8579 -0.184121 0
M  V30 5349 C 493.969 -1.22914 -1.52927 0
M  V30 5350 O 493.094 -0.529126 -2.09831 0
M  V30 5351 C 493.689 -3.37081 -0.340862 0
M  V30 5352 C 492.248 -3.68304 -0.776465 0
M  V30 5353 C 491.395 -2.77076 0.111503 0
M  V30 5354 H 494.346 -1.49656 0.528078 0
M  V30 5355 H 494.367 -3.61922 -1.17443 0
M  V30 5356 H 493.879 -3.82815 0.638309 0
M  V30 5357 H 491.98 -3.28092 -1.76596 0
M  V30 5358 H 492.093 -4.75434 -0.591512 0
M  V30 5359 H 490.457 -2.51374 -0.410256 0
M  V30 5360 H 491.24 -3.25632 1.08714 0
M  V30 5361 N 493.685 -0.035106 -1.57561 0
M  V30 5362 C 494.648 0.929819 -2.09492 0
M  V30 5363 C 495.648 1.25026 -1.01119 0
M  V30 5364 O 496.838 1.18961 -1.27255 0
M  V30 5365 C 493.97 2.24457 -2.56577 0
M  V30 5366 H 495.163 0.479935 -2.96035 0
M  V30 5367 H 492.716 0.213033 -1.54841 0
M  V30 5368 H 493.451 2.74061 -1.73382 0
M  V30 5369 H 493.236 2.02508 -3.35757 0
M  V30 5370 H 494.726 2.93607 -2.96959 0
M  V30 5371 N 495.163 1.55791 0.238111 0
M  V30 5372 C 496.388 1.8244 0.986432 0
M  V30 5373 C 496.813 0.613314 1.7782 0
M  V30 5374 O 496.171 -0.437767 1.75935 0
M  V30 5375 C 496.219 3.06917 1.893 0
M  V30 5376 O 495.323 2.84449 2.98601 0
M  V30 5377 H 494.664 0.601975 0.280218 0
M  V30 5378 H 497.194 2.02987 0.256437 0
M  V30 5379 H 497.204 3.36583 2.30598 0
M  V30 5380 H 495.879 3.947 1.31091 0
M  V30 5381 H 494.456 2.65972 2.61368 0
M  V30 5382 N 496.642 -0.504142 1.49319 0
M  V30 5383 C 497.589 -1.60603 1.65756 0
M  V30 5384 C 498.559 -1.58425 0.499082 0
M  V30 5385 O 499.744 -1.76459 0.725728 0
M  V30 5386 C 496.884 -2.98764 1.72726 0
M  V30 5387 C 495.997 -3.10982 2.99857 0
M  V30 5388 C 495.132 -4.39857 2.97824 0
M  V30 5389 C 494.171 -4.45697 4.19548 0
M  V30 5390 N 493.308 -5.65995 4.15444 0
M  V30 5391 H 498.148 -1.45895 2.59843 0
M  V30 5392 H 495.685 -0.709891 1.28837 0
M  V30 5393 H 497.643 -3.78839 1.74747 0
M  V30 5394 H 496.273 -3.12183 0.821075 0
M  V30 5395 H 495.325 -2.23991 3.07461 0
M  V30 5396 H 496.637 -3.11157 3.89849 0
M  V30 5397 H 495.791 -5.2825 2.98391 0
M  V30 5398 H 494.53 -4.42242 2.05604 0
M  V30 5399 H 493.535 -3.55707 4.19229 0
M  V30 5400 H 494.76 -4.4503 5.12957 0
M  V30 5401 H 492.706 -5.69229 3.26059 0
M  V30 5402 H 492.623 -5.67773 4.99169 0
M  V30 5403 H 493.891 -6.56604 4.20109 0
M  V30 5404 N 498.12 -1.38341 -0.754957 0
M  V30 5405 C 499.536 -1.19508 -1.05783 0
M  V30 5406 C 499.736 -0.0428005 -2.01455 0
M  V30 5407 O 498.792 0.611861 -2.44975 0
M  V30 5408 C 500.105 -2.52091 -1.63923 0
M  V30 5409 C 501.653 -2.58762 -1.76101 0
M  V30 5410 C 502.128 -3.91517 -2.37652 0
M  V30 5411 N 503.619 -3.93049 -2.45085 0
M  V30 5412 C 504.354 -4.9253 -2.93602 0
M  V30 5413 N 503.85 -6.02408 -3.42165 0
M  V30 5414 N 505.643 -4.79921 -2.92629 0
M  V30 5415 H 497.794 -2.1206 -0.120056 0
M  V30 5416 H 500.057 -0.94089 -0.11589 0
M  V30 5417 H 499.763 -3.36858 -1.01093 0
M  V30 5418 H 499.637 -2.70388 -2.63003 0
M  V30 5419 H 502.024 -1.74391 -2.38058 0
M  V30 5420 H 502.105 -2.44333 -0.757294 0
M  V30 5421 H 501.749 -4.76309 -1.76329 0
M  V30 5422 H 501.679 -4.03256 -3.38662 0
M  V30 5423 H 504.17 -3.13685 -2.10736 0
M  V30 5424 H 504.483 -6.74248 -3.77637 0
M  V30 5425 H 502.828 -6.0603 -3.40225 0
M  V30 5426 H 506.019 -3.93194 -2.54001 0
M  V30 5427 H 506.192 -5.57601 -3.30128 0
M  V30 5428 N 499.598 0.982988 -1.23187 0
M  V30 5429 C 500.561 2.05649 -1.01198 0
M  V30 5430 C 501.561 1.6078 0.0252464 0
M  V30 5431 O 502.751 1.72878 -0.214243 0
M  V30 5432 C 499.883 3.36744 -0.530656 0
M  V30 5433 H 501.076 2.2659 -1.96461 0
M  V30 5434 H 498.629 1.15602 -1.05195 0
M  V30 5435 H 499.364 3.21492 0.425873 0
M  V30 5436 H 499.149 3.7065 -1.2791 0
M  V30 5437 H 500.639 4.15705 -0.397366 0
M  V30 5438 N 501.076 1.04316 1.18135 0
M  V30 5439 C 502.301 0.768047 1.92655 0
M  V30 5440 C 502.726 -0.66904 1.758 0
M  V30 5441 O 502.084 -1.46372 1.06981 0
M  V30 5442 C 502.132 1.14239 3.42026 0
M  V30 5443 O 501.236 0.269333 4.1152 0
M  V30 5444 H 500.577 0.282436 0.600937 0
M  V30 5445 H 503.107 1.39367 1.49793 0
M  V30 5446 H 503.117 1.10538 3.92741 0
M  V30 5447 H 501.792 2.18928 3.53615 0
M  V30 5448 H 500.369 0.366175 3.71098 0
M  V30 5449 N 502.554 -1.34406 0.822964 0
M  V30 5450 C 503.779 -2.0304 0.423034 0
M  V30 5451 C 504.204 -1.61568 -0.963196 0
M  V30 5452 O 503.562 -0.800339 -1.62678 0
M  V30 5453 C 503.61 -3.56636 0.53321 0
M  V30 5454 O 502.714 -4.09971 -0.446939 0
M  V30 5455 H 502.055 -0.64075 0.174171 0
M  V30 5456 H 504.585 -1.71653 1.11339 0
M  V30 5457 H 504.595 -4.05945 0.408991 0
M  V30 5458 H 503.27 -3.86168 1.54425 0
M  V30 5459 H 501.847 -3.71835 -0.281601 0
M  V30 5460 N 504.032 -0.577932 -1.46621 0
M  V30 5461 C 505.309 0.00495287 -1.95599 0
M  V30 5462 C 505.689 1.46428 -1.5206 0
M  V30 5463 O 505.037 2.1517 -0.769046 0
M  V30 5464 C 505.247 -0.162114 -3.48623 0
M  V30 5465 C 506.595 -0.0274623 -4.24591 0
M  V30 5466 O 507.619 -0.0907067 -3.56084 0
M  V30 5467 O 506.478 0.1122 -5.46385 0
M  V30 5468 H 503.572 0.0525057 -0.825332 0
M  V30 5469 H 506.118 -0.645914 -1.56927 0
M  V30 5470 H 504.89 -1.17679 -3.73185 0
M  V30 5471 H 504.513 0.525407 -3.94113 0
M  V30 5472 N 505.51 1.54411 -0.315457 0
M  V30 5473 C 506.44 2.27002 0.547039 0
M  V30 5474 C 507.421 1.27492 1.12605 0
M  V30 5475 O 508.606 1.5629 1.15269 0
M  V30 5476 C 505.736 3.02171 1.71201 0
M  V30 5477 C 504.69 4.0895 1.26268 0
M  V30 5478 C 504.016 4.71915 2.51396 0
M  V30 5479 C 505.316 5.20891 0.383419 0
M  V30 5480 H 507.01 2.99343 -0.0584517 0
M  V30 5481 H 504.556 1.4397 -0.0295527 0
M  V30 5482 H 506.509 3.51681 2.32161 0
M  V30 5483 H 505.233 2.27433 2.34397 0
M  V30 5484 H 503.892 3.60312 0.676062 0
M  V30 5485 H 503.54 3.93801 3.12937 0
M  V30 5486 H 503.24 5.44039 2.22026 0
M  V30 5487 H 504.764 5.24195 3.13133 0
M  V30 5488 H 506.178 5.66206 0.899082 0
M  V30 5489 H 504.575 5.99821 0.182857 0
M  V30 5490 H 505.645 4.81324 -0.587821 0
M  V30 5491 N 506.988 0.0434614 1.5754 0
M  V30 5492 C 508.213 -0.645358 1.97104 0
M  V30 5493 C 508.638 -1.64037 0.920521 0
M  V30 5494 O 507.996 -1.80922 -0.11708 0
M  V30 5495 C 508.044 -1.31547 3.35749 0
M  V30 5496 O 507.148 -2.43103 3.33129 0
M  V30 5497 H 506.489 -0.168403 0.64229 0
M  V30 5498 H 509.019 0.109573 2.04306 0
M  V30 5499 H 509.029 -1.66895 3.72304 0
M  V30 5500 H 507.704 -0.586205 4.11748 0
M  V30 5501 H 506.281 -2.0976 3.0831 0
M  V30 5502 N 508.466 -1.55915 -0.229846 0
M  V30 5503 C 509.715 -1.77742 -0.953455 0
M  V30 5504 C 510.028 -0.610524 -1.85828 0
M  V30 5505 O 511.234 -0.712219 -2.61992 0
M  V30 5506 C 509.69 -3.14738 -1.74551 0
M  V30 5507 C 509.298 -4.39126 -0.887242 0
M  V30 5508 C 511.042 -3.45895 -2.46084 0
M  V30 5509 C 508.949 -5.67149 -1.67617 0
M  V30 5510 H 507.879 -0.662648 -0.359741 0
M  V30 5511 H 510.53 -1.82322 -0.207576 0
M  V30 5512 H 508.912 -3.04311 -2.53399 0
M  V30 5513 H 510.086 -4.60588 -0.139892 0
M  V30 5514 H 508.401 -4.15427 -0.284443 0
M  V30 5515 H 510.998 -4.38767 -3.05594 0
M  V30 5516 H 511.341 -2.68007 -3.18556 0
M  V30 5517 H 511.874 -3.57614 -1.74233 0
M  V30 5518 H 508.613 -6.47906 -0.994881 0
M  V30 5519 H 508.133 -5.49763 -2.39836 0
M  V30 5520 H 509.812 -6.07025 -2.23898 0
M  V30 5521 N 509.944 0.496216 -1.49584 0
M  V30 5522 C 510.907 1.57952 -1.66084 0
M  V30 5523 C 511.907 1.51729 -0.53244 0
M  V30 5524 O 513.097 1.54796 -0.79899 0
M  V30 5525 C 510.229 2.97604 -1.66268 0
M  V30 5526 H 511.422 1.44649 -2.6271 0
M  V30 5527 H 508.975 0.7208 -1.38687 0
M  V30 5528 H 509.71 3.16378 -0.712432 0
M  V30 5529 H 509.495 3.03528 -2.4822 0
M  V30 5530 H 510.985 3.76301 -1.81073 0
M  V30 5531 N 511.423 1.38739 0.74761 0
M  V30 5532 C 512.648 1.38702 1.54197 0
M  V30 5533 C 513.073 -0.019664 1.8809 0
M  V30 5534 O 512.431 -1.00333 1.51006 0
M  V30 5535 C 512.479 2.25492 2.814 0
M  V30 5536 O 511.583 1.67613 3.76802 0
M  V30 5537 H 510.924 0.472863 0.466151 0
M  V30 5538 H 513.454 1.82577 0.923413 0
M  V30 5539 H 513.464 2.39561 3.30264 0
M  V30 5540 H 512.139 3.27727 2.56062 0
M  V30 5541 H 510.716 1.62718 3.35526 0
M  V30 5542 N 512.901 -0.976442 1.23707 0
M  V30 5543 C 514.126 -1.75875 1.09922 0
M  V30 5544 C 514.551 -1.84911 -0.34489 0
M  V30 5545 O 513.909 -1.31363 -1.24954 0
M  V30 5546 C 513.957 -3.16179 1.73388 0
M  V30 5547 O 513.061 -4.00124 0.99871 0
M  V30 5548 H 512.402 -0.540954 0.385052 0
M  V30 5549 H 514.932 -1.22546 1.6384 0
M  V30 5550 H 514.942 -3.66741 1.78788 0
M  V30 5551 H 513.617 -3.08917 2.78466 0
M  V30 5552 H 512.194 -3.58624 1.02193 0
M  V30 5553 N 514.379 -1.04941 -1.1758 0
M  V30 5554 C 515.289 -0.658826 -2.25159 0
M  V30 5555 C 516.305 0.318941 -1.71052 0
M  V30 5556 O 517.481 0.171669 -2.00667 0
M  V30 5557 C 514.546 -0.0369522 -3.4668 0
M  V30 5558 C 513.607 -1.06484 -4.15884 0
M  V30 5559 C 512.84 -0.472551 -5.31604 0
M  V30 5560 O 513.063 0.718736 -5.65854 0
M  V30 5561 O 511.997 -1.20557 -5.89703 0
M  V30 5562 H 515.823 -1.55533 -2.60851 0
M  V30 5563 H 513.408 -0.820819 -1.24832 0
M  V30 5564 H 515.29 0.308784 -4.20267 0
M  V30 5565 H 513.965 0.833238 -3.12792 0
M  V30 5566 H 512.872 -1.46253 -3.44327 0
M  V30 5567 H 514.205 -1.9061 -4.53794 0
M  V30 5568 N 515.857 1.33968 -0.830081 0
M  V30 5569 C 516.767 2.33164 -0.259207 0
M  V30 5570 C 517.783 1.62951 0.610164 0
M  V30 5571 O 518.959 1.94668 0.516369 0
M  V30 5572 C 516.024 3.42088 0.563598 0
M  V30 5573 C 515.085 4.28037 -0.329014 0
M  V30 5574 C 514.318 5.3176 0.454616 0
M  V30 5575 O 514.541 5.44876 1.6872 0
M  V30 5576 O 513.475 6.01669 -0.166794 0
M  V30 5577 H 517.301 2.83832 -1.08041 0
M  V30 5578 H 514.886 1.37154 -0.59239 0
M  V30 5579 H 516.768 4.08581 1.03147 0
M  V30 5580 H 515.443 2.93651 1.36201 0
M  V30 5581 H 514.35 3.64443 -0.844538 0
M  V30 5582 H 515.683 4.79934 -1.09196 0
M  V30 5583 N 517.335 0.585699 1.46312 0
M  V30 5584 C 518.612 0.00542031 1.95599 0
M  V30 5585 C 518.992 -1.45619 1.52834 0
M  V30 5586 O 518.34 -2.14759 0.780446 0
M  V30 5587 C 518.55 0.180601 3.48532 0
M  V30 5588 C 519.898 0.049979 4.24571 0
M  V30 5589 O 520.922 0.109589 3.56031 0
M  V30 5590 O 519.781 -0.0832226 5.46437 0
M  V30 5591 H 516.875 -0.0481281 0.825598 0
M  V30 5592 H 519.421 0.654227 1.56582 0
M  V30 5593 H 518.193 1.19657 3.72556 0
M  V30 5594 H 517.816 -0.504498 3.94386 0
M  V30 5595 N 518.813 -1.54241 0.323641 0
M  V30 5596 C 519.76 -2.24339 -0.542277 0
M  V30 5597 C 520.73 -1.23421 -1.11159 0
M  V30 5598 O 521.915 -1.52104 -1.15192 0
M  V30 5599 C 519.055 -3.00479 -1.69725 0
M  V30 5600 C 518.168 -4.16214 -1.15716 0
M  V30 5601 C 517.303 -4.79884 -2.27783 0
M  V30 5602 C 516.342 -5.87722 -1.71023 0
M  V30 5603 N 515.479 -6.45254 -2.76752 0
M  V30 5604 H 520.319 -2.97935 0.0620613 0
M  V30 5605 H 517.856 -1.47039 0.0423993 0
M  V30 5606 H 519.814 -3.42869 -2.3769 0
M  V30 5607 H 518.444 -2.29217 -2.27288 0
M  V30 5608 H 517.496 -3.78605 -0.369063 0
M  V30 5609 H 518.808 -4.93838 -0.701832 0
M  V30 5610 H 517.962 -5.25243 -3.03651 0
M  V30 5611 H 516.701 -4.01641 -2.76652 0
M  V30 5612 H 515.706 -5.41765 -0.936518 0
M  V30 5613 H 516.931 -6.67863 -1.2303 0
M  V30 5614 H 514.877 -5.69884 -3.24912 0
M  V30 5615 H 514.794 -7.18292 -2.35782 0
M  V30 5616 H 516.062 -6.95269 -3.5245 0
M  V30 5617 N 520.291 -0.0518155 -1.57515 0
M  V30 5618 C 521.221 0.920283 -2.146 0
M  V30 5619 C 522.202 1.32406 -1.06783 0
M  V30 5620 O 523.387 1.39866 -1.34726 0
M  V30 5621 C 520.517 2.1949 -2.6915 0
M  V30 5622 C 519.471 1.93116 -3.81956 0
M  V30 5623 C 518.797 3.27037 -4.23026 0
M  V30 5624 C 520.097 1.25225 -5.07066 0
M  V30 5625 H 521.791 0.444801 -2.96077 0
M  V30 5626 H 519.337 0.212508 -1.42423 0
M  V30 5627 H 521.29 2.87894 -3.07725 0
M  V30 5628 H 520.014 2.69244 -1.84865 0
M  V30 5629 H 518.673 1.27123 -3.43854 0
M  V30 5630 H 518.321 3.74595 -3.3569 0
M  V30 5631 H 518.021 3.10189 -4.99056 0
M  V30 5632 H 519.545 3.96673 -4.64202 0
M  V30 5633 H 520.959 1.83666 -5.43083 0
M  V30 5634 H 519.356 1.18702 -5.88243 0
M  V30 5635 H 520.426 0.228382 -4.84362 0
M  V30 5636 N 521.769 1.56035 0.221574 0
M  V30 5637 C 522.994 1.83476 0.967026 0
M  V30 5638 C 523.419 0.632139 1.7716 0
M  V30 5639 O 522.777 -0.419082 1.7639 0
M  V30 5640 C 522.825 3.08907 1.86034 0
M  V30 5641 O 521.929 2.876 2.95567 0
M  V30 5642 H 521.27 0.604913 0.273817 0
M  V30 5643 H 523.8 2.03247 0.234893 0
M  V30 5644 H 523.81 3.3901 2.27016 0
M  V30 5645 H 522.485 3.96068 1.26898 0
M  V30 5646 H 521.062 2.6873 2.58532 0
M  V30 5647 N 523.247 -0.488276 1.49845 0
M  V30 5648 C 524.179 -1.60539 1.63584 0
M  V30 5649 C 525.192 -1.5434 0.517972 0
M  V30 5650 O 526.381 -1.60041 0.790516 0
M  V30 5651 C 523.481 -2.99374 1.58835 0
M  V30 5652 C 522.654 -3.30624 2.86368 0
M  V30 5653 C 521.713 -4.4893 2.74496 0
M  V30 5654 O 520.739 -4.50085 3.48443 0
M  V30 5655 N 521.941 -5.49591 1.86894 0
M  V30 5656 H 524.706 -1.49176 2.59936 0
M  V30 5657 H 522.267 -0.67639 1.47094 0
M  V30 5658 H 524.259 -3.76459 1.48529 0
M  V30 5659 H 522.829 -3.04595 0.702892 0
M  V30 5660 H 522.049 -2.42314 3.1093 0
M  V30 5661 H 523.337 -3.48305 3.70892 0
M  V30 5662 H 522.735 -5.51467 1.26097 0
M  V30 5663 H 521.292 -6.25728 1.82503 0
M  V30 5664 N 524.725 -1.39134 -0.740242 0
M  V30 5665 C 525.673 -1.3757 -1.87556 0
M  V30 5666 C 526.667 -0.259593 -1.67399 0
M  V30 5667 O 527.873 -0.429349 -1.74804 0
M  V30 5668 H 524.248 -0.42947 -0.6173 0
M  V30 5669 H 526.219 -2.33345 -1.85991 0
M  V30 5670 C 524.968 -1.23087 -3.25184 0
M  V30 5671 H 524.291 -2.08237 -3.41288 0
M  V30 5672 H 525.731 -1.26049 -4.0483 0
M  V30 5673 C 524.19 0.0611471 -3.36845 0
M  V30 5674 O 524.72 1.03328 -3.88183 0
M  V30 5675 N 522.926 0.122454 -2.90342 0
M  V30 5676 H 522.473 -0.669329 -2.48752 0
M  V30 5677 H 522.431 0.986463 -2.98523 0
M  V30 5678 N 526.204 0.969867 -1.24223 0
M  V30 5679 C 527.167 2.04564 -1.03373 0
M  V30 5680 C 528.167 1.60798 0.00819206 0
M  V30 5681 O 529.357 1.72641 -0.232567 0
M  V30 5682 C 526.489 3.36163 -0.566343 0
M  V30 5683 H 527.682 2.24494 -1.98853 0
M  V30 5684 H 525.235 1.1448 -1.06415 0
M  V30 5685 H 525.97 3.21925 0.391751 0
M  V30 5686 H 525.755 3.69273 -1.31834 0
M  V30 5687 H 527.245 4.1526 -0.441435 0
M  V30 5688 N 527.682 1.05563 1.17022 0
M  V30 5689 C 528.922 0.777033 1.89054 0
M  V30 5690 C 529.286 -0.683617 1.79418 0
M  V30 5691 O 530.487 -1.07648 2.46303 0
M  V30 5692 C 528.758 1.24886 3.34871 0
M  V30 5693 S 530.317 1.0982 4.24835 0
M  V30 5694 H 527.135 0.282082 0.652649 0
M  V30 5695 H 529.737 1.35103 1.41306 0
M  V30 5696 H 528.441 2.30699 3.3942 0
M  V30 5697 H 527.972 0.669292 3.87665 0
M  V30 5698 H 529.987 0.02462 4.96194 0
M  V30 5699 N 529.16 -1.33526 0.837174 0
M  V30 5700 C 530.409 -1.97098 0.428387 0
M  V30 5701 C 530.722 -1.67062 -1.01734 0
M  V30 5702 O 531.928 -2.24235 -1.53072 0
M  V30 5703 C 530.384 -3.52725 0.715075 0
M  V30 5704 C 529.992 -3.9164 2.17537 0
M  V30 5705 C 531.736 -4.22857 0.373154 0
M  V30 5706 C 529.643 -5.40237 2.40619 0
M  V30 5707 H 528.573 -0.737589 0.156455 0
M  V30 5708 H 531.224 -1.52169 1.02552 0
M  V30 5709 H 529.606 -3.95971 0.0475904 0
M  V30 5710 H 530.78 -3.59456 2.88319 0
M  V30 5711 H 529.095 -3.34485 2.4801 0
M  V30 5712 H 531.692 -5.32133 0.523264 0
M  V30 5713 H 532.035 -4.10647 -0.683708 0
M  V30 5714 H 532.568 -3.85135 0.995801 0
M  V30 5715 H 529.307 -5.57449 3.44864 0
M  V30 5716 H 528.827 -5.73887 1.74396 0
M  V30 5717 H 530.506 -6.07102 2.23688 0
M  V30 5718 N 530.638 -0.59345 -1.46 0
M  V30 5719 C 531.568 0.121192 -2.33185 0
M  V30 5720 C 532.549 0.872977 -1.4599 0
M  V30 5721 O 533.734 0.846321 -1.74789 0
M  V30 5722 C 530.864 1.12844 -3.28456 0
M  V30 5723 C 529.818 0.4908 -4.25177 0
M  V30 5724 C 529.144 1.60529 -5.10034 0
M  V30 5725 C 530.444 -0.578949 -5.19081 0
M  V30 5726 H 532.138 -0.606767 -2.93187 0
M  V30 5727 H 529.684 -0.293242 -1.40983 0
M  V30 5728 H 531.637 1.63684 -3.88311 0
M  V30 5729 H 530.361 1.88681 -2.66584 0
M  V30 5730 H 529.02 0.00339328 -3.666 0
M  V30 5731 H 528.668 2.35359 -4.44539 0
M  V30 5732 H 528.368 1.18422 -5.75543 0
M  V30 5733 H 529.892 2.11623 -5.72755 0
M  V30 5734 H 531.306 -0.155199 -5.7309 0
M  V30 5735 H 529.703 -0.920947 -5.92991 0
M  V30 5736 H 530.773 -1.46109 -4.62364 0
M  V30 5737 N 532.116 1.54067 -0.331816 0
M  V30 5738 C 533.026 2.28322 0.539104 0
M  V30 5739 C 534.042 1.32985 1.1221 0
M  V30 5740 O 535.218 1.6601 1.1403 0
M  V30 5741 C 532.283 3.03277 1.68 0
M  V30 5742 C 531.344 4.14216 1.12798 0
M  V30 5743 C 530.577 4.85588 2.2145 0
M  V30 5744 O 530.8 4.56536 3.41952 0
M  V30 5745 O 529.734 5.72309 1.86404 0
M  V30 5746 H 533.56 3.03632 -0.0641692 0
M  V30 5747 H 531.145 1.49083 -0.0972365 0
M  V30 5748 H 533.027 3.50189 2.34405 0
M  V30 5749 H 531.702 2.30834 2.2693 0
M  V30 5750 H 530.609 3.71635 0.428782 0
M  V30 5751 H 531.942 4.88727 0.583698 0
M  V30 5752 N 533.594 0.0601682 1.57485 0
M  V30 5753 C 534.819 -0.624416 1.97777 0
M  V30 5754 C 535.244 -1.63051 0.937867 0
M  V30 5755 O 534.602 -1.81036 -0.0978845 0
M  V30 5756 C 534.65 -1.27979 3.37126 0
M  V30 5757 O 533.754 -2.39556 3.35688 0
M  V30 5758 H 533.095 -0.161581 0.64404 0
M  V30 5759 H 535.625 0.131237 2.04179 0
M  V30 5760 H 535.635 -1.62937 3.74053 0
M  V30 5761 H 534.31 -0.542501 4.12347 0
M  V30 5762 H 532.887 -2.06478 3.10517 0
M  V30 5763 N 535.072 -1.5615 -0.213296 0
M  V30 5764 C 536.318 -1.79812 -0.937849 0
M  V30 5765 C 536.651 -0.631201 -1.83656 0
M  V30 5766 O 535.926 0.369165 -1.90964 0
M  V30 5767 C 536.209 -3.13613 -1.76972 0
M  V30 5768 C 536.062 -4.40766 -0.89695 0
M  V30 5769 C 537.381 -3.43931 -2.7459 0
M  V30 5770 H 534.5 -0.654138 -0.339518 0
M  V30 5771 H 537.142 -1.88877 -0.20623 0
M  V30 5772 H 535.292 -3.06015 -2.39347 0
M  V30 5773 H 536.964 -4.60392 -0.289306 0
M  V30 5774 H 535.207 -4.33326 -0.202756 0
M  V30 5775 H 535.878 -5.30843 -1.51358 0
M  V30 5776 H 538.354 -3.5171 -2.22349 0
M  V30 5777 H 537.23 -4.38706 -3.29891 0
M  V30 5778 H 537.491 -2.6651 -3.52739 0
M  V30 5779 N 536.55 0.480323 -1.50102 0
M  V30 5780 C 537.775 1.26126 -1.64642 0
M  V30 5781 C 538.2 1.85257 -0.325823 0
M  V30 5782 O 537.558 1.66854 0.709194 0
M  V30 5783 C 537.606 2.35243 -2.73301 0
M  V30 5784 O 536.71 3.39646 -2.33911 0
M  V30 5785 H 536.051 0.371463 -0.550374 0
M  V30 5786 H 538.581 0.572696 -1.96421 0
M  V30 5787 H 538.591 2.80695 -2.96098 0
M  V30 5788 H 537.266 1.91574 -3.6915 0
M  V30 5789 H 535.843 2.99969 -2.21525 0
M  V30 5790 N 538.028 1.39524 0.732853 0
M  V30 5791 C 538.938 1.40695 1.87729 0
M  V30 5792 C 539.954 0.301496 1.71368 0
M  V30 5793 O 541.13 0.543313 1.93933 0
M  V30 5794 C 538.195 1.25098 3.23344 0
M  V30 5795 C 537.256 2.45634 3.52083 0
M  V30 5796 C 536.489 2.30772 4.81228 0
M  V30 5797 O 536.712 1.31233 5.55098 0
M  V30 5798 O 535.646 3.19799 5.09914 0
M  V30 5799 H 539.472 2.37168 1.89697 0
M  V30 5800 H 537.057 1.20663 0.880959 0
M  V30 5801 H 538.939 1.18541 4.04383 0
M  V30 5802 H 537.614 0.317209 3.22142 0
M  V30 5803 H 536.521 2.57767 2.71122 0
M  V30 5804 H 537.854 3.37712 3.58066 0
M  V30 5805 N 539.506 -0.963266 1.24736 0
M  V30 5806 C 540.453 -2.05857 1.04363 0
M  V30 5807 C 541.423 -1.6604 -0.0444951 0
M  V30 5808 O 542.608 -1.90477 0.110999 0
M  V30 5809 C 539.748 -3.38745 0.659235 0
M  V30 5810 C 538.861 -3.9173 1.82131 0
M  V30 5811 C 537.996 -5.12906 1.38208 0
M  V30 5812 C 537.035 -5.58098 2.51382 0
M  V30 5813 N 536.172 -6.7049 2.08295 0
M  V30 5814 H 541.012 -2.22616 1.98107 0
M  V30 5815 H 538.549 -1.09103 0.986661 0
M  V30 5816 H 540.507 -4.15107 0.417371 0
M  V30 5817 H 539.137 -3.21898 -0.241201 0
M  V30 5818 H 538.189 -3.11966 2.17672 0
M  V30 5819 H 539.501 -4.21225 2.67153 0
M  V30 5820 H 538.655 -5.96657 1.09935 0
M  V30 5821 H 537.394 -4.85105 0.502456 0
M  V30 5822 H 536.399 -4.72917 2.80409 0
M  V30 5823 H 537.624 -5.87911 3.39909 0
M  V30 5824 H 535.57 -6.44416 1.22737 0
M  V30 5825 H 535.487 -6.99458 2.86869 0
M  V30 5826 H 536.755 -7.57672 1.83175 0
M  V30 5827 N 540.985 -1.06182 -1.16461 0
M  V30 5828 C 542.213 -0.798583 -1.90867 0
M  V30 5829 C 542.628 0.646921 -1.77371 0
M  V30 5830 O 541.985 1.44279 -1.11758 0
M  V30 5831 C 542.036 -1.18258 -3.4161 0
M  V30 5832 O 541.757 -2.57135 -3.54701 0
M  V30 5833 C 543.258 -0.946917 -4.33069 0
M  V30 5834 H 540.478 -0.289603 -0.605286 0
M  V30 5835 H 543.022 -1.41515 -1.47627 0
M  V30 5836 H 541.177 -0.610562 -3.82558 0
M  V30 5837 H 541.591 -2.72477 -4.4817 0
M  V30 5838 H 543.065 -1.26523 -5.37304 0
M  V30 5839 H 543.542 0.117406 -4.39043 0
M  V30 5840 H 544.148 -1.50326 -3.97847 0
M  V30 5841 N 542.463 1.3308 -0.844243 0
M  V30 5842 C 543.373 2.32876 -0.283922 0
M  V30 5843 C 544.389 1.63589 0.592846 0
M  V30 5844 O 545.565 1.95205 0.495693 0
M  V30 5845 C 542.63 3.42667 0.527283 0
M  V30 5846 C 541.691 4.27664 -0.374394 0
M  V30 5847 C 540.924 5.32212 0.39819 0
M  V30 5848 O 541.147 5.46635 1.62932 0
M  V30 5849 O 540.081 6.01458 -0.2306 0
M  V30 5850 H 543.907 2.82671 -1.11045 0
M  V30 5851 H 541.492 1.36518 -0.606903 0
M  V30 5852 H 543.374 4.09652 0.988078 0
M  V30 5853 H 542.049 2.95079 1.33078 0
M  V30 5854 H 540.956 3.63526 -0.883144 0
M  V30 5855 H 542.289 4.78749 -1.1428 0
M  V30 5856 N 543.941 0.601185 1.45683 0
M  V30 5857 C 545.357 0.264315 1.57396 0
M  V30 5858 C 545.557 -1.23324 1.59353 0
M  V30 5859 O 544.613 -2.01594 1.52039 0
M  V30 5860 C 545.926 0.929839 2.85962 0
M  V30 5861 C 547.474 0.905156 2.99626 0
M  V30 5862 C 547.949 1.55057 4.30954 0
M  V30 5863 N 549.44 1.51576 4.37697 0
M  V30 5864 C 550.175 1.98436 5.37969 0
M  V30 5865 N 549.671 2.53352 6.44813 0
M  V30 5866 N 551.464 1.89242 5.29286 0
M  V30 5867 H 543.615 1.57363 1.42656 0
M  V30 5868 H 545.878 0.658831 0.681649 0
M  V30 5869 H 545.584 1.98404 2.90394 0
M  V30 5870 H 545.458 0.449224 3.74515 0
M  V30 5871 H 547.845 -0.14048 2.94765 0
M  V30 5872 H 547.926 1.42397 2.12501 0
M  V30 5873 H 547.57 2.5955 4.36573 0
M  V30 5874 H 547.5 1.00682 5.16886 0
M  V30 5875 H 549.991 1.11452 3.61091 0
M  V30 5876 H 550.304 2.86918 7.17564 0
M  V30 5877 H 548.649 2.57388 6.45582 0
M  V30 5878 H 551.84 1.46083 4.44722 0
M  V30 5879 H 552.013 2.26075 6.07284 0
M  V30 5880 N 545.419 -1.53889 0.339982 0
M  V30 5881 C 546.644 -2.05741 -0.261798 0
M  V30 5882 C 547.069 -1.21354 -1.43718 0
M  V30 5883 O 546.427 -0.22645 -1.7988 0
M  V30 5884 C 546.475 -3.54542 -0.658228 0
M  V30 5885 O 545.579 -3.7302 -1.75869 0
M  V30 5886 H 544.92 -0.662529 -0.0441672 0
M  V30 5887 H 547.45 -1.98568 0.493161 0
M  V30 5888 H 547.46 -3.9711 -0.936368 0
M  V30 5889 H 546.135 -4.15412 0.201358 0
M  V30 5890 H 544.712 -3.42355 -1.47809 0
M  V30 5891 N 546.897 -0.0685191 -1.57451 0
M  V30 5892 C 547.845 0.917577 -2.13736 0
M  V30 5893 C 548.839 1.31049 -1.07344 0
M  V30 5894 O 550.045 1.28811 -1.25728 0
M  V30 5895 H 546.42 0.313835 -0.683382 0
M  V30 5896 H 548.391 0.417903 -2.95459 0
M  V30 5897 C 547.14 2.17686 -2.71123 0
M  V30 5898 H 546.463 1.88336 -3.52661 0
M  V30 5899 H 547.903 2.84803 -3.14107 0
M  V30 5900 C 546.362 2.9332 -1.65726 0
M  V30 5901 O 546.892 3.86901 -1.08031 0
M  V30 5902 N 545.098 2.56367 -1.36837 0
M  V30 5903 H 544.645 1.80341 -1.83943 0
M  V30 5904 H 544.603 3.07276 -0.665501 0
M  V30 5905 N 548.375 1.56261 0.205012 0
M  V30 5906 C 549.6 1.84491 0.947512 0
M  V30 5907 C 550.025 0.650894 1.76479 0
M  V30 5908 O 549.383 -0.40035 1.76824 0
M  V30 5909 C 549.431 3.10863 1.82747 0
M  V30 5910 O 548.535 2.90719 2.925 0
M  V30 5911 H 547.876 0.607783 0.267386 0
M  V30 5912 H 550.406 2.03485 0.213323 0
M  V30 5913 H 550.416 3.41399 2.23407 0
M  V30 5914 H 549.091 3.97392 1.2269 0
M  V30 5915 H 547.668 2.71457 2.55667 0
M  V30 5916 N 549.853 -0.472356 1.50355 0
M  V30 5917 C 550.763 -1.59637 1.7191 0
M  V30 5918 C 551.779 -1.63247 0.602195 0
M  V30 5919 O 552.955 -1.81139 0.880369 0
M  V30 5920 C 550.02 -2.9586 1.80742 0
M  V30 5921 C 549.081 -3.02649 3.04471 0
M  V30 5922 C 548.314 -4.32374 3.12872 0
M  V30 5923 O 548.537 -5.22807 2.28099 0
M  V30 5924 O 547.471 -4.44728 4.05587 0
M  V30 5925 H 551.297 -1.44373 2.67189 0
M  V30 5926 H 548.882 -0.651717 1.34436 0
M  V30 5927 H 550.764 -3.7677 1.88739 0
M  V30 5928 H 549.439 -3.11325 0.88647 0
M  V30 5929 H 548.346 -2.20821 3.01975 0
M  V30 5930 H 549.679 -2.92119 3.9614 0
M  V30 5931 N 551.331 -1.39911 -0.725443 0
M  V30 5932 C 552.608 -1.28158 -1.47766 0
M  V30 5933 C 552.988 0.104545 -2.10841 0
M  V30 5934 O 552.336 1.11657 -1.99361 0
M  V30 5935 C 552.546 -2.41306 -2.52135 0
M  V30 5936 C 553.894 -2.81076 -3.18247 0
M  V30 5937 O 554.918 -2.40827 -2.62452 0
M  V30 5938 O 553.777 -3.50581 -4.19231 0
M  V30 5939 H 550.871 -0.502761 -0.656628 0
M  V30 5940 H 553.417 -1.51808 -0.758456 0
M  V30 5941 H 552.189 -3.33932 -2.03974 0
M  V30 5942 H 551.812 -2.19374 -3.31603 0
M  V30 5943 N 552.809 0.956637 -1.25245 0
M  V30 5944 C 553.756 2.053 -1.05454 0
M  V30 5945 C 554.726 1.66062 0.0356889 0
M  V30 5946 O 555.911 1.90415 -0.121099 0
M  V30 5947 C 553.051 3.38391 -0.677191 0
M  V30 5948 C 552.164 3.90758 -1.84206 0
M  V30 5949 C 551.299 5.12165 -1.40926 0
M  V30 5950 C 550.338 5.56757 -2.54338 0
M  V30 5951 N 549.475 6.69376 -2.11848 0
M  V30 5952 H 554.315 2.21562 -1.99284 0
M  V30 5953 H 551.852 1.08578 -0.992434 0
M  V30 5954 H 553.81 4.1488 -0.43938 0
M  V30 5955 H 552.44 3.22021 0.224127 0
M  V30 5956 H 551.492 3.10808 -2.19323 0
M  V30 5957 H 552.804 4.19802 -2.69383 0
M  V30 5958 H 551.958 5.96065 -1.13098 0
M  V30 5959 H 550.697 4.84832 -0.528175 0
M  V30 5960 H 549.702 4.71423 -2.82913 0
M  V30 5961 H 550.927 5.861 -3.43022 0
M  V30 5962 H 548.873 6.43756 -1.26153 0
M  V30 5963 H 548.79 6.97927 -2.90574 0
M  V30 5964 H 550.058 7.5669 -1.87191 0
M  V30 5965 N 554.287 1.06798 1.15896 0
M  V30 5966 C 555.217 0.704677 2.22613 0
M  V30 5967 C 556.198 -0.305252 1.67339 0
M  V30 5968 O 557.383 -0.179247 1.93371 0
M  V30 5969 C 554.513 0.0957325 3.47168 0
M  V30 5970 C 553.467 1.0322 4.15367 0
M  V30 5971 C 552.793 0.286293 5.33933 0
M  V30 5972 C 554.093 2.36341 4.65768 0
M  V30 5973 H 555.787 1.59688 2.53259 0
M  V30 5974 H 553.333 0.769257 1.21731 0
M  V30 5975 H 555.286 -0.170333 4.21056 0
M  V30 5976 H 554.01 -0.831516 3.15838 0
M  V30 5977 H 552.669 1.28309 3.43413 0
M  V30 5978 H 552.317 -0.644237 4.98857 0
M  V30 5979 H 552.017 0.910436 5.80504 0
M  V30 5980 H 553.541 0.0278938 6.10594 0
M  V30 5981 H 554.955 2.1561 5.31211 0
M  V30 5982 H 553.352 2.94299 5.2298 0
M  V30 5983 H 554.422 2.99047 3.81705 0
M  V30 5984 N 555.766 -1.3263 0.851289 0
M  V30 5985 C 556.714 -2.30882 0.282202 0
M  V30 5986 C 557.708 -1.58697 -0.592589 0
M  V30 5987 O 558.914 -1.73461 -0.480768 0
M  V30 5988 H 555.289 -0.748492 0.0725487 0
M  V30 5989 H 557.26 -2.76374 1.12516 0
M  V30 5990 C 556.009 -3.43828 -0.517449 0
M  V30 5991 H 555.332 -3.99532 0.146392 0
M  V30 5992 H 556.772 -4.1474 -0.88128 0
M  V30 5993 C 555.231 -2.90786 -1.70133 0
M  V30 5994 O 555.761 -2.88 -2.80034 0
M  V30 5995 N 553.967 -2.4723 -1.52728 0
M  V30 5996 H 553.514 -2.49695 -0.633257 0
M  V30 5997 H 553.472 -2.12094 -2.32085 0
M  V30 5998 N 557.244 -0.608902 -1.45362 0
M  V30 5999 C 558.469 -0.10921 -2.07112 0
M  V30 6000 C 558.894 1.19779 -1.45033 0
M  V30 6001 O 558.252 1.72961 -0.543527 0
M  V30 6002 C 558.3 0.0155745 -3.60597 0
M  V30 6003 O 557.404 1.06546 -3.98399 0
M  V30 6004 H 556.745 -0.0746619 -0.659789 0
M  V30 6005 H 559.275 -0.839283 -1.86594 0
M  V30 6006 H 559.285 0.213364 -4.07442 0
M  V30 6007 H 557.96 -0.938765 -4.05167 0
M  V30 6008 H 556.537 0.844024 -3.63223 0
M  V30 6009 N 558.722 1.53707 -0.348139 0
M  V30 6010 C 559.669 2.25173 0.506518 0
M  V30 6011 C 560.639 1.25174 1.09182 0
M  V30 6012 O 561.824 1.53917 1.12757 0
M  V30 6013 C 558.964 3.03141 1.64923 0
M  V30 6014 C 558.077 4.18002 1.0908 0
M  V30 6015 C 557.212 4.83447 2.20119 0
M  V30 6016 C 556.251 5.90369 1.61651 0
M  V30 6017 N 555.388 6.49575 2.66451 0
M  V30 6018 H 560.228 2.97799 -0.109452 0
M  V30 6019 H 557.765 1.46953 -0.0657866 0
M  V30 6020 H 559.723 3.46607 2.32205 0
M  V30 6021 H 558.353 2.32803 2.23612 0
M  V30 6022 H 557.405 3.79145 0.308783 0
M  V30 6023 H 558.717 4.94892 0.623178 0
M  V30 6024 H 557.871 5.30008 2.95257 0
M  V30 6025 H 556.61 4.05991 2.70227 0
M  V30 6026 H 555.615 5.43186 0.850209 0
M  V30 6027 H 556.84 6.69735 1.1239 0
M  V30 6028 H 554.786 5.74981 3.15805 0
M  V30 6029 H 554.703 7.21952 2.24325 0
M  V30 6030 H 555.971 7.00789 3.41344 0
M  V30 6031 N 560.2 0.0768682 1.57412 0
M  V30 6032 C 561.449 -0.590679 1.92857 0
M  V30 6033 C 561.762 -1.70461 0.959293 0
M  V30 6034 O 562.968 -2.43207 1.20675 0
M  V30 6035 C 561.424 -1.10204 3.42612 0
M  V30 6036 C 561.032 -0.0188447 4.47996 0
M  V30 6037 C 562.776 -1.74336 3.87049 0
M  V30 6038 C 560.683 -0.544536 5.88888 0
M  V30 6039 H 559.613 -0.224411 0.71983 0
M  V30 6040 H 562.264 0.149924 1.82887 0
M  V30 6041 H 560.646 -1.89577 3.47673 0
M  V30 6042 H 561.82 0.755936 4.54557 0
M  V30 6043 H 560.135 0.526555 4.13057 0
M  V30 6044 H 562.732 -2.14708 4.89699 0
M  V30 6045 H 563.075 -2.60537 3.24694 0
M  V30 6046 H 563.608 -1.01577 3.84613 0
M  V30 6047 H 560.347 0.280426 6.549 0
M  V30 6048 H 559.867 -1.28673 5.85836 0
M  V30 6049 H 561.546 -1.01933 6.3892 0
M  V30 6050 N 561.678 -1.56367 -0.196722 0
M  V30 6051 C 562.608 -1.97442 -1.24655 0
M  V30 6052 C 563.589 -0.846147 -1.47561 0
M  V30 6053 O 564.774 -1.11035 -1.59326 0
M  V30 6054 C 561.904 -2.31253 -2.59112 0
M  V30 6055 C 560.858 -3.46804 -2.50821 0
M  V30 6056 C 560.184 -3.66286 -3.89536 0
M  V30 6057 C 561.484 -4.8104 -2.03465 0
M  V30 6058 H 563.178 -2.85388 -0.905216 0
M  V30 6059 H 560.724 -1.37304 -0.434002 0
M  V30 6060 H 562.677 -2.58583 -3.32736 0
M  V30 6061 H 561.401 -1.40188 -2.94983 0
M  V30 6062 H 560.06 -3.19563 -1.79653 0
M  V30 6063 H 559.708 -2.72555 -4.22756 0
M  V30 6064 H 559.408 -4.4402 -3.84864 0
M  V30 6065 H 560.932 -3.9599 -4.64784 0
M  V30 6066 H 562.346 -5.07411 -2.66846 0
M  V30 6067 H 560.743 -5.62232 -2.09798 0
M  V30 6068 H 561.813 -4.74732 -0.98781 0
M  V30 6069 N 563.156 0.464375 -1.50603 0
M  V30 6070 C 564.104 1.58224 -1.70493 0
M  V30 6071 C 565.098 1.59492 -0.570836 0
M  V30 6072 O 566.304 1.63561 -0.751517 0
M  V30 6073 H 562.679 0.525161 -0.538247 0
M  V30 6074 H 564.65 1.38613 -2.64252 0
M  V30 6075 C 563.399 2.96113 -1.82243 0
M  V30 6076 H 562.722 2.95858 -2.68901 0
M  V30 6077 H 564.162 3.73769 -2.00182 0
M  V30 6078 C 562.621 3.31946 -0.575628 0
M  V30 6079 O 563.151 4.00708 0.282152 0
M  V30 6080 N 561.357 2.87436 -0.427665 0
M  V30 6081 H 560.904 2.31652 -1.12674 0
M  V30 6082 H 560.862 3.11776 0.405379 0
M  V30 6083 N 564.634 1.40294 0.718013 0
M  V30 6084 C 565.544 1.42678 1.86226 0
M  V30 6085 C 566.56 0.319655 1.71039 0
M  V30 6086 O 567.736 0.563852 1.93346 0
M  V30 6087 C 564.801 1.2852 3.21999 0
M  V30 6088 C 563.862 2.49354 3.49458 0
M  V30 6089 C 563.095 2.35863 4.78753 0
M  V30 6090 O 563.318 1.37114 5.53675 0
M  V30 6091 O 562.252 3.25189 5.06494 0
M  V30 6092 H 566.078 2.39167 1.87171 0
M  V30 6093 H 563.663 1.2159 0.868112 0
M  V30 6094 H 565.545 1.22824 4.03103 0
M  V30 6095 H 564.22 0.351359 3.21787 0
M  V30 6096 H 563.127 2.60628 2.68373 0
M  V30 6097 H 564.46 3.41491 3.54464 0
M  V30 6098 N 566.112 -0.949982 1.2575 0
M  V30 6099 C 567.059 -2.04738 1.06541 0
M  V30 6100 C 568.029 -1.66078 -0.0268818 0
M  V30 6101 O 569.214 -1.90348 0.131196 0
M  V30 6102 C 566.354 -3.38027 0.695127 0
M  V30 6103 C 565.467 -3.89776 1.86276 0
M  V30 6104 C 564.602 -5.11411 1.4364 0
M  V30 6105 C 563.641 -5.554 2.57287 0
M  V30 6106 N 562.778 -6.68244 2.15395 0
M  V30 6107 H 567.618 -2.20502 2.00457 0
M  V30 6108 H 565.155 -1.0805 0.998178 0
M  V30 6109 H 567.113 -4.14641 0.461375 0
M  V30 6110 H 565.743 -3.22135 -0.207046 0
M  V30 6111 H 564.795 -3.0964 2.20969 0
M  V30 6112 H 566.107 -4.18368 2.71606 0
M  V30 6113 H 565.261 -5.95457 1.16257 0
M  V30 6114 H 564 -4.84545 0.553879 0
M  V30 6115 H 563.005 -4.69916 2.85409 0
M  V30 6116 H 564.23 -5.84272 3.46125 0
M  V30 6117 H 562.176 -6.43078 1.29565 0
M  V30 6118 H 562.093 -6.96377 2.94272 0
M  V30 6119 H 563.361 -7.55687 1.91201 0
M  V30 6120 N 567.59 -1.07411 -1.15328 0
M  V30 6121 C 569.001 -0.820261 -1.67716 0
M  V30 6122 C 569.352 0.654539 -1.8496 0
M  V30 6123 O 568.477 1.50664 -1.55337 0
M  V30 6124 C 569.072 -1.48242 -3.04647 0
M  V30 6125 C 567.631 -1.27606 -3.5411 0
M  V30 6126 C 566.778 -1.5517 -2.29821 0
M  V30 6127 H 569.729 -1.23608 -0.995332 0
M  V30 6128 H 569.75 -0.903984 -3.69606 0
M  V30 6129 H 569.262 -2.55578 -2.92064 0
M  V30 6130 H 567.363 -0.222948 -3.71932 0
M  V30 6131 H 567.476 -1.99667 -4.35511 0
M  V30 6132 H 565.84 -0.972747 -2.35393 0
M  V30 6133 H 566.623 -2.63689 -2.19824 0
M  V30 6134 N 569.068 1.32177 -0.85831 0
M  V30 6135 C 570.296 2.01313 -0.477582 0
M  V30 6136 C 570.711 1.6449 0.926736 0
M  V30 6137 O 570.068 0.868096 1.60531 0
M  V30 6138 C 570.119 3.56293 -0.611337 0
M  V30 6139 O 569.84 3.91794 -1.96034 0
M  V30 6140 C 571.341 4.42702 -0.230093 0
M  V30 6141 H 568.561 0.644323 -0.187322 0
M  V30 6142 H 571.105 1.68674 -1.15626 0
M  V30 6143 H 569.26 3.87395 0.0196494 0
M  V30 6144 H 569.674 4.86513 -1.95973 0
M  V30 6145 H 571.148 5.50727 -0.374674 0
M  V30 6146 H 571.625 4.3129 0.829779 0
M  V30 6147 H 572.231 4.16997 -0.836302 0
M  V30 6148 N 570.547 0.616602 1.45037 0
M  V30 6149 C 571.775 0.121968 2.0654 0
M  V30 6150 C 572.19 -1.19743 1.45969 0
M  V30 6151 O 571.547 -1.73133 0.577168 0
M  V30 6152 C 571.598 -0.0145171 3.61497 0
M  V30 6153 O 571.319 1.25269 4.19809 0
M  V30 6154 C 572.82 -0.539555 4.40004 0
M  V30 6155 H 570.04 0.0729837 0.667019 0
M  V30 6156 H 572.584 0.846891 1.8614 0
M  V30 6157 H 570.739 -0.689809 3.81209 0
M  V30 6158 H 571.153 1.08816 5.13088 0
M  V30 6159 H 572.627 -0.584112 5.48901 0
M  V30 6160 H 573.104 -1.56368 4.10421 0
M  V30 6161 H 573.71 0.101995 4.25178 0
M  V30 6162 N 572.025 -1.5352 0.356285 0
M  V30 6163 C 573.302 -1.93405 -0.292223 0
M  V30 6164 C 573.682 -1.28901 -1.67176 0
M  V30 6165 O 573.03 -0.444632 -2.24132 0
M  V30 6166 C 573.24 -3.47223 -0.35175 0
M  V30 6167 C 574.588 -4.20389 -0.596534 0
M  V30 6168 O 575.612 -3.53554 -0.433344 0
M  V30 6169 O 574.471 -5.3881 -0.913589 0
M  V30 6170 H 571.565 -0.808666 -0.173172 0
M  V30 6171 H 574.111 -1.64713 0.408391 0
M  V30 6172 H 572.883 -3.86423 0.615841 0
M  V30 6173 H 572.506 -3.8212 -1.09864 0
M  V30 6174 N 573.503 -0.0852151 -1.57369 0
M  V30 6175 C 574.413 0.891712 -2.16992 0
M  V30 6176 C 575.429 1.3174 -1.13669 0
M  V30 6177 O 576.605 1.38735 -1.45995 0
M  V30 6178 C 573.67 2.13635 -2.73059 0
M  V30 6179 C 572.731 1.7658 -3.91303 0
M  V30 6180 C 571.964 2.95111 -4.44686 0
M  V30 6181 O 572.187 4.09539 -3.97032 0
M  V30 6182 O 571.121 2.74149 -5.35841 0
M  V30 6183 H 574.947 0.414477 -3.00858 0
M  V30 6184 H 572.532 0.138598 -1.48756 0
M  V30 6185 H 574.414 2.86595 -3.08935 0
M  V30 6186 H 573.089 2.6043 -1.92244 0
M  V30 6187 H 571.996 1.00831 -3.60255 0
M  V30 6188 H 573.329 1.34557 -4.7345 0
M  V30 6189 N 574.981 1.5647 0.188427 0
M  V30 6190 C 576.392 1.70864 0.752494 0
M  V30 6191 C 576.743 0.692905 1.83557 0
M  V30 6192 O 575.868 -0.149307 2.15884 0
M  V30 6193 C 576.463 3.09789 1.37173 0
M  V30 6194 C 575.022 3.25925 1.88281 0
M  V30 6195 C 574.169 2.66817 0.755259 0
M  V30 6196 H 577.12 1.58657 -0.0367408 0
M  V30 6197 H 577.141 3.07489 2.24122 0
M  V30 6198 H 576.653 3.83693 0.583219 0
M  V30 6199 H 574.754 2.56948 2.6983 0
M  V30 6200 H 574.867 4.33498 2.04001 0
M  V30 6201 H 573.231 2.2617 1.17128 0
M  V30 6202 H 574.014 3.43294 -0.0211237 0
M  V30 6203 N 576.459 -0.456382 1.50847 0
M  V30 6204 C 577.369 -1.57805 1.73594 0
M  V30 6205 C 578.385 -1.62599 0.619476 0
M  V30 6206 O 579.561 -1.80195 0.899532 0
M  V30 6207 C 576.626 -2.93926 1.8387 0
M  V30 6208 C 575.687 -2.99402 3.07663 0
M  V30 6209 C 574.92 -4.29031 3.1744 0
M  V30 6210 O 575.143 -5.20358 2.33631 0
M  V30 6211 O 574.077 -4.40401 4.10281 0
M  V30 6212 H 577.903 -1.41531 2.68705 0
M  V30 6213 H 575.488 -0.637422 1.3512 0
M  V30 6214 H 577.37 -3.74747 1.92725 0
M  V30 6215 H 576.045 -3.10368 0.91944 0
M  V30 6216 H 574.952 -2.17606 3.043 0
M  V30 6217 H 576.285 -2.87901 3.99216 0
M  V30 6218 N 577.937 -1.40673 -0.710563 0
M  V30 6219 C 578.884 -1.41336 -1.82463 0
M  V30 6220 C 579.854 -0.269648 -1.63897 0
M  V30 6221 O 581.039 -0.468463 -1.8496 0
M  V30 6222 C 578.179 -1.28665 -3.20218 0
M  V30 6223 C 577.292 -2.52784 -3.5032 0
M  V30 6224 C 576.427 -2.32517 -4.77608 0
M  V30 6225 C 575.466 -3.52187 -5.0063 0
M  V30 6226 N 574.603 -3.31084 -6.19135 0
M  V30 6227 H 579.443 -2.36558 -1.8123 0
M  V30 6228 H 576.98 -1.17483 -0.885226 0
M  V30 6229 H 578.938 -1.19324 -3.99772 0
M  V30 6230 H 577.568 -0.370602 -3.20666 0
M  V30 6231 H 576.62 -2.72634 -2.65283 0
M  V30 6232 H 577.932 -3.41845 -3.63241 0
M  V30 6233 H 577.086 -2.20558 -5.65189 0
M  V30 6234 H 575.825 -1.40889 -4.66906 0
M  V30 6235 H 574.83 -3.64617 -4.11502 0
M  V30 6236 H 576.055 -4.44749 -5.13201 0
M  V30 6237 H 574.001 -2.42143 -6.09674 0
M  V30 6238 H 573.918 -4.13713 -6.32754 0
M  V30 6239 H 575.186 -3.22868 -7.0949 0
M  V30 6240 N 579.415 0.9433 -1.26252 0
M  V30 6241 C 580.378 2.02326 -1.07689 0
M  V30 6242 C 581.378 1.60779 -0.0259174 0
M  V30 6243 O 582.568 1.72108 -0.269134 0
M  V30 6244 C 579.7 3.34886 -0.63752 0
M  V30 6245 H 580.893 2.20225 -2.0357 0
M  V30 6246 H 578.446 1.12197 -1.08819 0
M  V30 6247 H 579.181 3.22684 0.323377 0
M  V30 6248 H 578.966 3.66393 -1.39637 0
M  V30 6249 H 580.456 4.14231 -0.529418 0
M  V30 6250 N 580.893 1.08022 1.14757 0
M  V30 6251 C 582.139 0.808705 1.85978 0
M  V30 6252 C 582.472 -0.663764 1.82504 0
M  V30 6253 O 581.747 -1.48765 1.25296 0
M  V30 6254 C 582.03 1.32623 3.34788 0
M  V30 6255 C 581.883 2.86375 3.46856 0
M  V30 6256 C 583.202 0.948291 4.29762 0
M  V30 6257 H 580.321 0.295244 0.675278 0
M  V30 6258 H 582.963 1.33917 1.34783 0
M  V30 6259 H 581.113 0.875002 3.78518 0
M  V30 6260 H 582.785 3.39839 3.11941 0
M  V30 6261 H 581.028 3.24232 2.88194 0
M  V30 6262 H 581.699 3.17658 4.51439 0
M  V30 6263 H 584.175 1.33722 3.94028 0
M  V30 6264 H 583.051 1.33765 5.32352 0
M  V30 6265 H 583.312 -0.145094 4.41862 0
M  V30 6266 N 582.371 -1.3172 0.865308 0
M  V30 6267 C 583.281 -2.32394 0.320935 0
M  V30 6268 C 584.297 -1.64511 -0.566746 0
M  V30 6269 O 585.473 -1.95969 -0.464575 0
M  V30 6270 C 582.538 -3.43462 -0.472701 0
M  V30 6271 C 581.599 -4.27015 0.442385 0
M  V30 6272 C 580.832 -5.32779 -0.313469 0
M  V30 6273 O 581.055 -5.49158 -1.54214 0
M  V30 6274 O 579.989 -6.01015 0.326257 0
M  V30 6275 H 583.815 -2.80868 1.15528 0
M  V30 6276 H 581.4 -1.35535 0.628545 0
M  V30 6277 H 583.282 -4.11172 -0.922781 0
M  V30 6278 H 581.957 -2.97159 -1.28367 0
M  V30 6279 H 580.864 -3.62075 0.940866 0
M  V30 6280 H 582.197 -4.76871 1.21882 0
M  V30 6281 N 583.85 -0.624285 -1.44708 0
M  V30 6282 C 585.127 -0.0572781 -1.95516 0
M  V30 6283 C 585.507 1.41516 -1.56641 0
M  V30 6284 O 584.855 2.12614 -0.837111 0
M  V30 6285 C 585.065 -0.272944 -3.47931 0
M  V30 6286 C 586.413 -0.162529 -4.24289 0
M  V30 6287 O 587.437 -0.203946 -3.55616 0
M  V30 6288 O 586.296 -0.0616847 -5.46465 0
M  V30 6289 H 583.389 0.0262219 -0.826584 0
M  V30 6290 H 585.936 -0.695512 -1.54793 0
M  V30 6291 H 584.707 -1.29492 -3.69253 0
M  V30 6292 H 584.331 0.399756 -3.95585 0
M  V30 6293 N 585.328 1.53329 -0.364422 0
M  V30 6294 C 586.577 2.00421 0.226747 0
M  V30 6295 C 586.89 1.25581 1.49963 0
M  V30 6296 O 588.096 1.63256 2.16933 0
M  V30 6297 C 586.552 3.57017 0.454618 0
M  V30 6298 C 586.16 4.40734 -0.803568 0
M  V30 6299 C 587.904 4.12468 1.00351 0
M  V30 6300 C 585.811 5.8888 -0.545345 0
M  V30 6301 H 584.741 0.748787 0.0885082 0
M  V30 6302 H 587.392 1.7703 -0.482983 0
M  V30 6303 H 585.774 3.76558 1.22558 0
M  V30 6304 H 586.948 4.32967 -1.57723 0
M  V30 6305 H 585.263 3.96381 -1.27559 0
M  V30 6306 H 587.86 5.20783 1.212 0
M  V30 6307 H 588.203 3.6699 1.9653 0
M  V30 6308 H 588.736 3.96721 0.29274 0
M  V30 6309 H 585.475 6.38633 -1.47743 0
M  V30 6310 H 584.995 5.99499 0.189842 0
M  V30 6311 H 586.674 6.46776 -0.170425 0
M  V30 6312 N 586.806 0.0935595 1.57322 0
M  V30 6313 C 587.754 -0.883457 2.15169 0
M  V30 6314 C 588.748 -1.29324 1.09415 0
M  V30 6315 O 589.954 -1.26795 1.27762 0
M  V30 6316 H 586.329 -0.302923 0.688289 0
M  V30 6317 H 588.3 -0.370845 2.96087 0
M  V30 6318 C 587.049 -2.13345 2.74552 0
M  V30 6319 H 586.372 -1.82702 3.55612 0
M  V30 6320 H 587.812 -2.7977 3.18598 0
M  V30 6321 C 586.271 -2.90646 1.70371 0
M  V30 6322 O 586.801 -3.85133 1.14173 0
M  V30 6323 N 585.007 -2.54157 1.40899 0
M  V30 6324 H 584.554 -1.77391 1.86789 0
M  V30 6325 H 584.512 -3.06178 0.714301 0
M  V30 6326 N 588.284 -1.56567 -0.180126 0
M  V30 6327 C 589.194 -1.98947 -1.24327 0
M  V30 6328 C 590.21 -0.899446 -1.4895 0
M  V30 6329 O 591.386 -1.20639 -1.61271 0
M  V30 6330 C 588.451 -2.33328 -2.56435 0
M  V30 6331 C 587.512 -3.56114 -2.39752 0
M  V30 6332 C 586.745 -3.88845 -3.65561 0
M  V30 6333 O 586.968 -3.22662 -4.70368 0
M  V30 6334 O 585.902 -4.82226 -3.60197 0
M  V30 6335 H 589.728 -2.89634 -0.913565 0
M  V30 6336 H 587.313 -1.44319 -0.386306 0
M  V30 6337 H 589.195 -2.5645 -3.34382 0
M  V30 6338 H 587.87 -1.45806 -2.89002 0
M  V30 6339 H 586.777 -3.38221 -1.59866 0
M  V30 6340 H 588.11 -4.4415 -2.12113 0
M  V30 6341 N 589.762 0.448376 -1.51087 0
M  V30 6342 C 590.712 1.54156 -1.67988 0
M  V30 6343 C 591.696 1.5178 -0.534015 0
M  V30 6344 O 592.888 1.58419 -0.789448 0
M  V30 6345 C 590.017 2.92437 -1.79822 0
M  V30 6346 C 589.103 2.99611 -3.00157 0
M  V30 6347 N 589.494 2.7655 -4.23502 0
M  V30 6348 C 587.792 3.30764 -2.99184 0
M  V30 6349 C 588.493 2.89281 -5.0467 0
M  V30 6350 N 587.469 3.20473 -4.39088 0
M  V30 6351 H 591.271 1.35061 -2.61028 0
M  V30 6352 H 588.785 0.655504 -1.48583 0
M  V30 6353 H 590.782 3.71068 -1.90037 0
M  V30 6354 H 589.442 3.1256 -0.879554 0
M  V30 6355 H 590.453 2.5169 -4.52628 0
M  V30 6356 H 587.13 3.56732 -2.16907 0
M  V30 6357 H 588.52 2.75499 -6.12821 0
M  V30 6358 N 591.24 1.41047 0.703093 0
M  V30 6359 C 592.489 1.39301 1.4587 0
M  V30 6360 C 592.802 0.00267077 1.956 0
M  V30 6361 O 594.008 -0.137414 2.71152 0
M  V30 6362 C 592.464 2.44891 2.63735 0
M  V30 6363 C 592.072 3.89796 2.20824 0
M  V30 6364 C 593.816 2.5227 3.41409 0
M  V30 6365 C 591.723 4.86955 3.35602 0
M  V30 6366 H 590.653 0.518005 0.547893 0
M  V30 6367 H 593.304 1.66839 0.764009 0
M  V30 6368 H 591.686 2.10472 3.35436 0
M  V30 6369 H 592.86 4.33424 1.56461 0
M  V30 6370 H 591.175 3.86008 1.56163 0
M  V30 6371 H 593.772 3.22044 4.26839 0
M  V30 6372 H 594.115 1.55714 3.86081 0
M  V30 6373 H 594.648 2.85742 2.7676 0
M  V30 6374 H 591.387 5.84888 2.9595 0
M  V30 6375 H 590.907 4.47982 3.98839 0
M  V30 6376 H 592.586 5.07361 4.01489 0
M  V30 6377 N 592.718 -0.936591 1.26751 0
M  V30 6378 C 593.946 -1.71758 1.15355 0
M  V30 6379 C 594.361 -1.86549 -0.290683 0
M  V30 6380 O 593.718 -1.37616 -1.19868 0
M  V30 6381 C 593.769 -3.12193 1.82258 0
M  V30 6382 O 593.49 -2.98105 3.21038 0
M  V30 6383 C 594.991 -4.06485 1.76875 0
M  V30 6384 H 592.211 -0.537636 0.401483 0
M  V30 6385 H 594.755 -1.17382 1.67457 0
M  V30 6386 H 592.91 -3.63456 1.34083 0
M  V30 6387 H 593.324 -3.86824 3.54214 0
M  V30 6388 H 594.798 -5.02569 2.28316 0
M  V30 6389 H 595.275 -4.32986 0.736216 0
M  V30 6390 H 595.881 -3.61144 2.24623 0
M  V30 6391 N 594.196 -1.08629 -1.14182 0
M  V30 6392 C 595.473 -0.73002 -1.81466 0
M  V30 6393 C 595.853 0.785996 -1.95922 0
M  V30 6394 O 595.201 1.70535 -1.52086 0
M  V30 6395 C 595.411 -1.45957 -3.17014 0
M  V30 6396 C 596.759 -1.62008 -3.92477 0
M  V30 6397 O 597.783 -1.42141 -3.26611 0
M  V30 6398 O 596.642 -1.94806 -5.106 0
M  V30 6399 H 593.736 -0.261307 -0.784632 0
M  V30 6400 H 596.282 -1.188 -1.2118 0
M  V30 6401 H 595.054 -2.49221 -3.01669 0
M  V30 6402 H 594.677 -0.993222 -3.84995 0
M  V30 6403 N 595.674 1.31259 -0.872281 0
M  V30 6404 C 596.637 2.26744 -0.334656 0
M  V30 6405 C 597.637 1.52307 0.515681 0
M  V30 6406 O 598.827 1.71148 0.324656 0
M  V30 6407 C 595.959 3.36841 0.524482 0
M  V30 6408 H 597.152 2.75812 -1.17762 0
M  V30 6409 H 594.705 1.42232 -0.648064 0
M  V30 6410 H 595.44 2.93069 1.38855 0
M  V30 6411 H 595.225 3.92009 -0.0844299 0
M  V30 6412 H 596.715 4.07944 0.892838 0
M  V30 6413 N 597.152 0.631951 1.44375 0
M  V30 6414 C 598.084 -0.110911 2.28931 0
M  V30 6415 C 599.097 -0.808086 1.41329 0
M  V30 6416 O 600.286 -0.669396 1.65473 0
M  V30 6417 C 597.386 -1.17928 3.1772 0
M  V30 6418 C 596.559 -0.564458 4.33743 0
M  V30 6419 C 595.618 -1.5269 5.0356 0
M  V30 6420 O 594.644 -1.04372 5.59549 0
M  V30 6421 N 595.846 -2.86123 5.05088 0
M  V30 6422 H 598.611 0.614758 2.93327 0
M  V30 6423 H 596.172 0.473171 1.54831 0
M  V30 6424 H 598.164 -1.82348 3.61291 0
M  V30 6425 H 596.734 -1.80717 2.55069 0
M  V30 6426 H 595.954 0.258373 3.93352 0
M  V30 6427 H 597.242 -0.134355 5.08623 0
M  V30 6428 H 596.64 -3.27959 4.60933 0
M  V30 6429 H 595.197 -3.45901 5.52445 0
M  V30 6430 N 598.631 -1.53133 0.372548 0
M  V30 6431 C 599.561 -2.28876 -0.462412 0
M  V30 6432 C 600.542 -1.31583 -1.07796 0
M  V30 6433 O 601.727 -1.60461 -1.09389 0
M  V30 6434 C 598.857 -3.08317 -1.59868 0
M  V30 6435 C 597.811 -4.13355 -1.11003 0
M  V30 6436 C 597.137 -4.8092 -2.33708 0
M  V30 6437 C 598.437 -5.21955 -0.18983 0
M  V30 6438 H 600.131 -2.9892 0.169511 0
M  V30 6439 H 597.677 -1.43761 0.0829658 0
M  V30 6440 H 599.63 -3.60055 -2.18949 0
M  V30 6441 H 598.354 -2.35976 -2.25794 0
M  V30 6442 H 597.013 -3.62573 -0.541869 0
M  V30 6443 H 596.661 -4.05144 -2.98106 0
M  V30 6444 H 596.361 -5.51904 -2.01682 0
M  V30 6445 H 597.885 -5.35455 -2.93462 0
M  V30 6446 H 599.299 -5.69153 -0.688319 0
M  V30 6447 H 597.696 -6.00087 0.0398887 0
M  V30 6448 H 598.766 -4.78811 0.766057 0
M  V30 6449 N 600.109 -0.101901 -1.5727 0
M  V30 6450 C 601.019 0.868647 -2.17926 0
M  V30 6451 C 602.035 1.30527 -1.1506 0
M  V30 6452 O 603.211 1.37178 -1.47459 0
M  V30 6453 C 600.276 2.10727 -2.75309 0
M  V30 6454 C 599.337 1.7242 -3.93154 0
M  V30 6455 C 598.57 2.90377 -4.47791 0
M  V30 6456 O 598.793 4.05305 -4.01353 0
M  V30 6457 O 597.727 2.6845 -5.38719 0
M  V30 6458 H 601.553 0.382544 -3.01281 0
M  V30 6459 H 599.138 0.122812 -1.48894 0
M  V30 6460 H 601.02 2.83303 -3.11958 0
M  V30 6461 H 599.695 2.58376 -1.94996 0
M  V30 6462 H 598.602 0.970039 -3.61305 0
M  V30 6463 H 599.935 1.29528 -4.74851 0
M  V30 6464 N 601.587 1.56661 0.17182 0
M  V30 6465 C 602.55 1.9549 1.19651 0
M  V30 6466 C 603.55 0.838501 1.37207 0
M  V30 6467 O 604.74 1.10556 1.34622 0
M  V30 6468 C 601.872 2.24927 2.56166 0
M  V30 6469 H 603.065 2.87184 0.864007 0
M  V30 6470 H 600.618 1.50711 0.41425 0
M  V30 6471 H 601.353 1.35944 2.94431 0
M  V30 6472 H 601.138 3.06301 2.4479 0
M  V30 6473 H 602.628 2.55891 3.30014 0
M  V30 6474 N 603.065 -0.440357 1.51323 0
M  V30 6475 C 603.998 -1.55414 1.67098 0
M  V30 6476 C 604.976 -1.54108 0.518599 0
M  V30 6477 O 606.16 -1.7328 0.742054 0
M  V30 6478 C 603.287 -2.93996 1.68179 0
M  V30 6479 C 602.333 -3.13338 2.89347 0
M  V30 6480 S 603.166 -2.89957 4.50206 0
M  V30 6481 C 604.322 -4.30826 4.54027 0
M  V30 6482 H 604.555 -1.41798 2.61306 0
M  V30 6483 H 602.088 -0.629841 1.40969 0
M  V30 6484 H 604.046 -3.73878 1.69487 0
M  V30 6485 H 602.707 -3.04976 0.751542 0
M  V30 6486 H 601.9 -4.14652 2.86495 0
M  V30 6487 H 601.502 -2.41276 2.85766 0
M  V30 6488 H 603.794 -5.23977 4.29481 0
M  V30 6489 H 604.737 -4.38712 5.55822 0
M  V30 6490 H 605.145 -4.1434 3.83384 0
M  V30 6491 N 604.543 -1.41418 -0.695603 0
M  V30 6492 C 605.771 -1.4413 -1.48439 0
M  V30 6493 C 606.186 -0.0465698 -1.88743 0
M  V30 6494 O 605.543 0.934117 -1.56782 0
M  V30 6495 C 605.594 -2.34998 -2.74696 0
M  V30 6496 O 605.315 -3.69043 -2.36091 0
M  V30 6497 C 606.816 -2.46513 -3.68438 0
M  V30 6498 H 604.036 -0.490905 -0.457442 0
M  V30 6499 H 606.58 -1.85702 -0.856454 0
M  V30 6500 H 604.735 -1.96735 -3.33728 0
M  V30 6501 H 605.149 -4.17505 -3.17474 0
M  V30 6502 H 606.623 -3.1426 -4.53811 0
M  V30 6503 H 607.1 -1.49638 -4.12922 0
M  V30 6504 H 607.706 -2.85412 -3.1531 0
M  V30 6505 N 606.021 0.929856 -1.27246 0
M  V30 6506 C 606.931 2.0636 -1.11592 0
M  V30 6507 C 607.947 1.73938 -0.046496 0
M  V30 6508 O 609.123 1.9981 -0.252544 0
M  V30 6509 C 606.188 3.38213 -0.762437 0
M  V30 6510 C 605.249 3.84346 -1.9125 0
M  V30 6511 C 604.482 5.09906 -1.57579 0
M  V30 6512 O 604.705 5.68354 -0.482694 0
M  V30 6513 O 603.639 5.51359 -2.41426 0
M  V30 6514 H 607.465 2.22478 -2.0673 0
M  V30 6515 H 605.05 1.04865 -1.06413 0
M  V30 6516 H 606.932 4.1741 -0.57854 0
M  V30 6517 H 605.607 3.23307 0.159439 0
M  V30 6518 H 604.514 3.06045 -2.15144 0
M  V30 6519 H 605.847 4.0379 -2.81451 0
M  V30 6520 N 607.499 1.09233 1.13605 0
M  V30 6521 C 608.429 0.751738 2.21068 0
M  V30 6522 C 609.41 -0.269688 1.67948 0
M  V30 6523 O 610.595 -0.13819 1.93708 0
M  V30 6524 C 607.725 0.16935 3.46887 0
M  V30 6525 C 606.679 1.12007 4.13084 0
M  V30 6526 C 606.005 0.399483 5.33206 0
M  V30 6527 C 607.305 2.46168 4.6065 0
M  V30 6528 H 608.999 1.65024 2.49815 0
M  V30 6529 H 606.545 0.794905 1.20072 0
M  V30 6530 H 608.498 -0.0809824 4.21322 0
M  V30 6531 H 607.222 -0.764335 3.1753 0
M  V30 6532 H 605.881 1.35564 3.40614 0
M  V30 6533 H 605.529 -0.538277 5.00112 0
M  V30 6534 H 605.229 1.03337 5.78442 0
M  V30 6535 H 606.753 0.157403 6.10397 0
M  V30 6536 H 608.167 2.26829 5.26518 0
M  V30 6537 H 606.564 3.05326 5.1662 0
M  V30 6538 H 607.634 3.07076 3.75276 0
M  V30 6539 N 608.977 -1.30795 0.87923 0
M  V30 6540 C 609.927 -2.25838 0.313276 0
M  V30 6541 C 610.911 -1.51025 -0.55499 0
M  V30 6542 O 612.103 -1.72413 -0.400353 0
M  V30 6543 C 609.232 -3.39981 -0.476204 0
M  V30 6544 C 608.318 -4.22154 0.405826 0
M  V30 6545 N 608.709 -4.82934 1.50362 0
M  V30 6546 C 607.007 -4.45552 0.199909 0
M  V30 6547 C 607.708 -5.44444 2.0483 0
M  V30 6548 N 606.684 -5.26723 1.34403 0
M  V30 6549 H 610.486 -2.70374 1.15218 0
M  V30 6550 H 608 -1.45168 0.728003 0
M  V30 6551 H 609.997 -4.07108 -0.898251 0
M  V30 6552 H 608.657 -2.96986 -1.31261 0
M  V30 6553 H 609.668 -4.82319 1.8865 0
M  V30 6554 H 606.345 -4.13169 -0.599795 0
M  V30 6555 H 607.735 -6.02701 2.96986 0
M  V30 6556 N 610.455 -0.639598 -1.44038 0
M  V30 6557 C 611.732 -0.078012 -1.95444 0
M  V30 6558 C 612.112 1.39847 -1.58133 0
M  V30 6559 O 611.46 2.11714 -0.859614 0
M  V30 6560 C 611.67 -0.309832 -3.47622 0
M  V30 6561 C 613.018 -0.207521 -4.24093 0
M  V30 6562 O 614.042 -0.241653 -3.55379 0
M  V30 6563 O 612.901 -0.119641 -5.46369 0
M  V30 6564 H 609.995 0.0174534 -0.826816 0
M  V30 6565 H 612.541 -0.711891 -1.54046 0
M  V30 6566 H 611.313 -1.33401 -3.67858 0
M  V30 6567 H 610.936 0.357777 -3.95987 0
M  V30 6568 N 611.933 1.52934 -0.380664 0
M  V30 6569 C 613.349 1.59571 -0.0302429 0
M  V30 6570 C 613.549 1.39509 1.45394 0
M  V30 6571 O 612.605 1.20777 2.21741 0
M  V30 6572 C 613.918 2.96519 -0.499691 0
M  V30 6573 C 615.466 3.09672 -0.455204 0
M  V30 6574 C 615.941 4.49056 -0.900703 0
M  V30 6575 N 617.432 4.55215 -0.856367 0
M  V30 6576 C 618.167 5.61282 -1.17259 0
M  V30 6577 N 617.663 6.75035 -1.55885 0
M  V30 6578 N 619.456 5.51343 -1.0944 0
M  V30 6579 H 611.607 1.64224 -1.347 0
M  V30 6580 H 613.87 0.771033 -0.551554 0
M  V30 6581 H 613.576 3.16388 -1.53595 0
M  V30 6582 H 613.45 3.77052 0.105789 0
M  V30 6583 H 615.837 2.89504 0.571949 0
M  V30 6584 H 615.918 2.31113 -1.09638 0
M  V30 6585 H 615.562 4.69964 -1.92604 0
M  V30 6586 H 615.492 5.26068 -0.236629 0
M  V30 6587 H 617.983 3.73546 -0.572013 0
M  V30 6588 H 618.296 7.51926 -1.784 0
M  V30 6589 H 616.641 6.76388 -1.59764 0
M  V30 6590 H 619.832 4.61356 -0.791713 0
M  V30 6591 H 620.005 6.33905 -1.34417 0
M  V30 6592 N 613.412 0.11024 1.57214 0
M  V30 6593 C 614.64 -0.557834 1.99238 0
M  V30 6594 C 615.055 -1.60778 0.989734 0
M  V30 6595 O 614.412 -1.82491 -0.0186092 0
M  V30 6596 C 614.463 -1.19189 3.41286 0
M  V30 6597 O 614.184 -0.183919 4.37714 0
M  V30 6598 C 615.685 -1.94413 3.98395 0
M  V30 6599 H 612.905 -0.148392 0.654386 0
M  V30 6600 H 615.449 0.193996 2.03578 0
M  V30 6601 H 613.604 -1.89456 3.37913 0
M  V30 6602 H 614.018 -0.643475 5.20538 0
M  V30 6603 H 615.492 -2.34116 4.99894 0
M  V30 6604 H 615.969 -2.81592 3.3705 0
M  V30 6605 H 616.575 -1.28928 4.05287 0
M  V30 6606 N 614.89 -1.56749 -0.16351 0
M  V30 6607 C 615.853 -1.96121 -1.18613 0
M  V30 6608 C 616.853 -0.845765 -1.36761 0
M  V30 6609 O 618.043 -1.11268 -1.34033 0
M  V30 6610 C 615.175 -2.26282 -2.54969 0
M  V30 6611 H 616.368 -2.87639 -0.848764 0
M  V30 6612 H 613.921 -1.50928 -0.406251 0
M  V30 6613 H 614.656 -1.37504 -2.93706 0
M  V30 6614 H 614.441 -3.07595 -2.43162 0
M  V30 6615 H 615.931 -2.57638 -3.28653 0
M  V30 6616 N 616.368 0.432326 -1.51554 0
M  V30 6617 C 617.614 1.18309 -1.64714 0
M  V30 6618 C 617.947 1.90745 -0.364696 0
M  V30 6619 O 617.222 1.8381 0.635936 0
M  V30 6620 C 617.505 2.1961 -2.85383 0
M  V30 6621 C 617.358 1.51223 -4.23617 0
M  V30 6622 C 618.677 3.20538 -3.01569 0
M  V30 6623 H 615.796 0.428751 -0.599451 0
M  V30 6624 H 618.438 0.471689 -1.84052 0
M  V30 6625 H 616.588 2.8028 -2.69027 0
M  V30 6626 H 618.26 0.938516 -4.51652 0
M  V30 6627 H 616.503 0.814501 -4.26085 0
M  V30 6628 H 617.174 2.25024 -5.04052 0
M  V30 6629 H 619.65 2.69926 -3.16669 0
M  V30 6630 H 618.526 3.88706 -3.87555 0
M  V30 6631 H 618.787 3.86933 -2.13859 0
M  V30 6632 N 617.846 1.41785 0.688094 0
M  V30 6633 C 619.095 1.4084 1.44385 0
M  V30 6634 C 619.408 0.0234166 1.95586 0
M  V30 6635 O 620.614 -0.108647 2.71283 0
M  V30 6636 C 619.07 2.47675 2.61123 0
M  V30 6637 C 618.678 3.92116 2.16677 0
M  V30 6638 C 620.422 2.55877 3.38714 0
M  V30 6639 C 618.329 4.90487 3.30419 0
M  V30 6640 H 617.259 0.523787 0.542368 0
M  V30 6641 H 619.91 1.6764 0.74627 0
M  V30 6642 H 618.292 2.14018 3.33185 0
M  V30 6643 H 619.466 4.35059 1.51856 0
M  V30 6644 H 617.781 3.87642 1.5206 0
M  V30 6645 H 620.378 3.26553 4.234 0
M  V30 6646 H 620.721 1.59801 3.84408 0
M  V30 6647 H 621.254 2.88662 2.73714 0
M  V30 6648 H 617.993 5.87994 2.89729 0
M  V30 6649 H 617.513 4.52187 3.94065 0
M  V30 6650 H 619.192 5.11591 3.96085 0
M  V30 6651 N 619.324 -0.923095 1.27737 0
M  V30 6652 C 620.271 -2.02432 1.1086 0
M  V30 6653 C 621.241 -1.66098 0.00835195 0
M  V30 6654 O 622.426 -1.90027 0.171542 0
M  V30 6655 C 619.566 -3.36476 0.766671 0
M  V30 6656 C 618.679 -3.85737 1.94501 0
M  V30 6657 C 617.814 -5.08249 1.54455 0
M  V30 6658 C 616.853 -5.49818 2.6901 0
M  V30 6659 N 615.99 -6.63524 2.29521 0
M  V30 6660 H 620.83 -2.16201 2.05089 0
M  V30 6661 H 618.367 -1.05909 1.02087 0
M  V30 6662 H 620.325 -4.13569 0.549223 0
M  V30 6663 H 618.955 -3.22502 -0.13867 0
M  V30 6664 H 618.007 -3.04883 2.27487 0
M  V30 6665 H 619.319 -4.12513 2.80419 0
M  V30 6666 H 618.473 -5.92857 1.28862 0
M  V30 6667 H 617.212 -4.83261 0.656534 0
M  V30 6668 H 616.217 -4.63757 2.95313 0
M  V30 6669 H 617.442 -5.76799 3.5844 0
M  V30 6670 H 615.388 -6.40185 1.43177 0
M  V30 6671 H 615.305 -6.89978 3.08977 0
M  V30 6672 H 616.573 -7.51461 2.07187 0
M  V30 6673 N 620.802 -1.09834 -1.13024 0
M  V30 6674 C 621.712 -0.753731 -2.22162 0
M  V30 6675 C 622.728 0.246105 -1.72251 0
M  V30 6676 O 623.904 0.0864051 -2.01215 0
M  V30 6677 C 620.969 -0.183958 -3.46212 0
M  V30 6678 C 620.03 -1.24028 -4.10993 0
M  V30 6679 C 619.263 -0.697597 -5.29121 0
M  V30 6680 O 619.486 0.478092 -5.68393 0
M  V30 6681 O 618.42 -1.4546 -5.84059 0
M  V30 6682 H 622.246 -1.66456 -2.5402 0
M  V30 6683 H 619.831 -0.873026 -1.21238 0
M  V30 6684 H 621.713 0.130257 -4.21199 0
M  V30 6685 H 620.388 0.699823 -3.16045 0
M  V30 6686 H 619.295 -1.60725 -3.37814 0
M  V30 6687 H 620.628 -2.09685 -4.45301 0
M  V30 6688 N 622.28 1.30327 -0.886154 0
M  V30 6689 C 623.228 2.30052 -0.343317 0
M  V30 6690 C 624.222 1.60212 0.550305 0
M  V30 6691 O 625.428 1.74674 0.434609 0
M  V30 6692 H 621.803 0.746306 -0.0923681 0
M  V30 6693 H 623.774 2.73294 -1.19804 0
M  V30 6694 C 622.523 3.45079 0.426107 0
M  V30 6695 H 621.846 3.99003 -0.25227 0
M  V30 6696 H 623.286 4.16931 0.771009 0
M  V30 6697 C 621.745 2.95195 1.62363 0
M  V30 6698 O 622.275 2.95323 2.723 0
M  V30 6699 N 620.481 2.51192 1.4612 0
M  V30 6700 H 620.028 2.51286 0.566832 0
M  V30 6701 H 619.986 2.18173 2.2638 0
M  V30 6702 N 623.758 0.647228 1.43697 0
M  V30 6703 C 624.668 -0.0487997 2.34549 0
M  V30 6704 C 625.684 -0.818586 1.53542 0
M  V30 6705 O 626.86 -0.767195 1.86215 0
M  V30 6706 C 623.925 -1.00734 3.31743 0
M  V30 6707 C 622.986 -0.23515 4.28655 0
M  V30 6708 C 622.219 -1.14803 5.21206 0
M  V30 6709 O 622.442 -2.38717 5.18045 0
M  V30 6710 O 621.376 -0.623667 5.9866 0
M  V30 6711 H 625.202 0.698863 2.9555 0
M  V30 6712 H 622.787 0.407412 1.43738 0
M  V30 6713 H 624.669 -1.55837 3.91526 0
M  V30 6714 H 623.344 -1.73534 2.73254 0
M  V30 6715 H 622.251 0.359319 3.7237 0
M  V30 6716 H 623.584 0.453152 4.9011 0
M  V30 6717 N 625.236 -1.5273 0.388769 0
M  V30 6718 C 626.652 -1.59553 0.0387049 0
M  V30 6719 C 626.852 -1.40278 -1.44652 0
M  V30 6720 O 625.908 -1.21951 -2.21098 0
M  V30 6721 C 627.221 -2.9625 0.515409 0
M  V30 6722 C 628.769 -3.09426 0.471621 0
M  V30 6723 C 629.244 -4.48572 0.924505 0
M  V30 6724 N 630.735 -4.54754 0.880496 0
M  V30 6725 C 631.47 -5.60653 1.20234 0
M  V30 6726 N 630.966 -6.74198 1.59463 0
M  V30 6727 N 632.759 -5.50755 1.12363 0
M  V30 6728 H 624.91 -1.63508 1.35569 0
M  V30 6729 H 627.173 -0.768097 0.555636 0
M  V30 6730 H 626.879 -3.15569 1.5527 0
M  V30 6731 H 626.753 -3.77102 -0.085792 0
M  V30 6732 H 629.14 -2.89804 -0.556588 0
M  V30 6733 H 629.221 -2.30528 1.10862 0
M  V30 6734 H 628.865 -4.68936 1.95094 0
M  V30 6735 H 628.795 -5.25935 0.264524 0
M  V30 6736 H 631.286 -3.73237 0.591815 0
M  V30 6737 H 631.599 -7.5097 1.82385 0
M  V30 6738 H 629.944 -6.75531 1.63349 0
M  V30 6739 H 633.135 -4.6093 0.816169 0
M  V30 6740 H 633.308 -6.33184 1.37777 0
M  V30 6741 N 626.714 -0.118576 -1.57153 0
M  V30 6742 C 627.624 0.845484 -2.18835 0
M  V30 6743 C 628.64 1.29299 -1.16438 0
M  V30 6744 O 629.816 1.35607 -1.48905 0
M  V30 6745 C 626.881 2.07795 -2.77529 0
M  V30 6746 C 625.942 1.6824 -3.9496 0
M  V30 6747 C 625.175 2.85612 -4.50845 0
M  V30 6748 O 625.398 4.01025 -4.05629 0
M  V30 6749 O 624.332 2.62721 -5.41536 0
M  V30 6750 H 628.158 0.350568 -3.0167 0
M  V30 6751 H 625.743 0.107013 -1.49016 0
M  V30 6752 H 627.625 2.79978 -3.14945 0
M  V30 6753 H 626.3 2.56294 -1.97725 0
M  V30 6754 H 625.207 0.931663 -3.62313 0
M  V30 6755 H 626.54 1.24484 -4.76198 0
M  V30 6756 N 628.193 1.56834 0.155195 0
M  V30 6757 C 629.14 1.97646 1.19184 0
M  V30 6758 C 630.11 0.842788 1.4313 0
M  V30 6759 O 631.295 1.1042 1.55602 0
M  V30 6760 C 628.435 2.35527 2.52232 0
M  V30 6761 C 627.548 3.62147 2.35529 0
M  V30 6762 C 626.683 3.89167 3.61555 0
M  V30 6763 C 625.722 5.09084 3.39853 0
M  V30 6764 N 624.859 5.32156 4.5799 0
M  V30 6765 H 629.699 2.8601 0.836802 0
M  V30 6766 H 627.236 1.41507 0.401758 0
M  V30 6767 H 629.194 2.55516 3.29799 0
M  V30 6768 H 627.824 1.50253 2.85699 0
M  V30 6769 H 626.876 3.4998 1.49057 0
M  V30 6770 H 628.188 4.49871 2.15448 0
M  V30 6771 H 627.342 4.09611 4.47553 0
M  V30 6772 H 626.081 2.9985 3.84632 0
M  V30 6773 H 625.086 4.88522 2.52243 0
M  V30 6774 H 626.311 5.99947 3.18183 0
M  V30 6775 H 624.257 4.45791 4.81255 0
M  V30 6776 H 624.174 6.14133 4.40882 0
M  V30 6777 H 625.442 5.57091 5.45225 0
M  V30 6778 N 629.671 -0.424282 1.51781 0
M  V30 6779 C 631.087 -0.761768 1.40247 0
M  V30 6780 C 631.287 -1.95324 0.495041 0
M  V30 6781 O 630.343 -2.5246 -0.0448949 0
M  V30 6782 C 631.656 -1.0299 2.82513 0
M  V30 6783 C 633.204 -1.13354 2.91753 0
M  V30 6784 C 633.679 -1.43453 4.34954 0
M  V30 6785 N 635.17 -1.5035 4.3812 0
M  V30 6786 C 635.905 -1.75236 5.45967 0
M  V30 6787 N 635.401 -1.97827 6.63955 0
M  V30 6788 N 637.194 -1.77126 5.33463 0
M  V30 6789 H 629.345 0.360228 2.09323 0
M  V30 6790 H 631.608 0.0988128 0.942836 0
M  V30 6791 H 631.314 -0.226961 3.50967 0
M  V30 6792 H 631.188 -1.95411 3.22637 0
M  V30 6793 H 633.575 -1.92709 2.23489 0
M  V30 6794 H 633.656 -0.188041 2.55108 0
M  V30 6795 H 633.3 -0.646209 5.03772 0
M  V30 6796 H 633.23 -2.3923 4.69123 0
M  V30 6797 H 635.721 -1.34742 3.53062 0
M  V30 6798 H 636.034 -2.16223 7.41935 0
M  V30 6799 H 634.379 -1.95123 6.67047 0
M  V30 6800 H 637.57 -1.59005 4.40267 0
M  V30 6801 H 637.743 -1.96182 6.17589 0
M  V30 6802 N 631.149 -1.42148 -0.680565 0
M  V30 6803 C 632.56 -1.3768 -1.26099 0
M  V30 6804 C 632.911 -0.0672348 -1.96085 0
M  V30 6805 O 632.036 0.834172 -1.99676 0
M  V30 6806 C 632.631 -2.49387 -2.29328 0
M  V30 6807 C 631.19 -2.4827 -2.82911 0
M  V30 6808 C 630.337 -2.2847 -1.57152 0
M  V30 6809 H 633.288 -1.51446 -0.474326 0
M  V30 6810 H 633.309 -2.19307 -3.10941 0
M  V30 6811 H 632.821 -3.44686 -1.78363 0
M  V30 6812 H 630.922 -1.56773 -3.38013 0
M  V30 6813 H 631.035 -3.45109 -3.3232 0
M  V30 6814 H 629.399 -1.76623 -1.83511 0
M  V30 6815 H 630.182 -3.25816 -1.0816 0
M  V30 6816 N 632.627 0.916307 -1.28225 0
M  V30 6817 C 633.574 2.01841 -1.11932 0
M  V30 6818 C 634.544 1.66091 -0.0171604 0
M  V30 6819 O 635.729 1.89934 -0.181617 0
M  V30 6820 C 632.869 3.36065 -0.784504 0
M  V30 6821 C 631.982 3.847 -1.96544 0
M  V30 6822 C 631.117 5.07423 -1.57149 0
M  V30 6823 C 630.156 5.48384 -2.71922 0
M  V30 6824 N 629.293 6.62298 -2.33037 0
M  V30 6825 H 634.133 2.1511 -2.06232 0
M  V30 6826 H 631.67 1.05366 -1.02647 0
M  V30 6827 H 633.628 4.13272 -0.571148 0
M  V30 6828 H 632.258 3.22571 0.121565 0
M  V30 6829 H 631.31 3.03673 -2.291 0
M  V30 6830 H 632.622 4.1102 -2.82603 0
M  V30 6831 H 631.776 5.92165 -1.32004 0
M  V30 6832 H 630.515 4.82906 -0.682153 0
M  V30 6833 H 629.52 4.62184 -2.97768 0
M  V30 6834 H 630.745 5.7489 -3.61494 0
M  V30 6835 H 628.691 6.39416 -1.4657 0
M  V30 6836 H 628.608 6.8833 -3.12631 0
M  V30 6837 H 629.876 7.50352 -2.11169 0
M  V30 6838 N 634.105 1.10431 1.1244 0
M  V30 6839 C 635.035 0.775143 2.20258 0
M  V30 6840 C 636.016 -0.25186 1.68225 0
M  V30 6841 O 637.201 -0.117637 1.93843 0
M  V30 6842 C 634.331 0.206133 3.46688 0
M  V30 6843 C 633.285 1.16382 4.11873 0
M  V30 6844 C 632.611 0.456014 5.32752 0
M  V30 6845 C 633.911 2.5104 4.58013 0
M  V30 6846 H 635.605 1.67665 2.4805 0
M  V30 6847 H 633.151 0.807595 1.19222 0
M  V30 6848 H 635.104 -0.036291 4.21384 0
M  V30 6849 H 633.828 -0.730614 3.18323 0
M  V30 6850 H 632.487 1.39169 3.39157 0
M  V30 6851 H 632.135 -0.485203 5.00654 0
M  V30 6852 H 631.835 1.09466 5.77314 0
M  V30 6853 H 633.359 0.222135 6.10196 0
M  V30 6854 H 634.773 2.32401 5.24083 0
M  V30 6855 H 633.17 3.10789 5.13352 0
M  V30 6856 H 634.24 3.11039 3.71998 0
M  V30 6857 N 635.583 -1.29855 0.893053 0
M  V30 6858 C 636.493 -2.31661 0.370157 0
M  V30 6859 C 637.509 -1.65677 -0.531723 0
M  V30 6860 O 638.685 -1.9691 -0.422902 0
M  V30 6861 C 635.75 -3.44388 -0.399741 0
M  V30 6862 C 634.811 -4.2598 0.532861 0
M  V30 6863 C 634.044 -5.33324 -0.200388 0
M  V30 6864 O 634.267 -5.52305 -1.42531 0
M  V30 6865 O 633.201 -6.00188 0.453668 0
M  V30 6866 H 637.027 -2.78354 1.2146 0
M  V30 6867 H 634.612 -1.34171 0.657153 0
M  V30 6868 H 636.494 -4.13037 -0.835358 0
M  V30 6869 H 635.169 -2.99815 -1.22035 0
M  V30 6870 H 634.076 -3.59998 1.01746 0
M  V30 6871 H 635.409 -4.74178 1.3197 0
M  V30 6872 N 637.061 -0.65484 -1.43351 0
M  V30 6873 C 638.009 0.0476784 -2.32551 0
M  V30 6874 C 639.003 0.811403 -1.48703 0
M  V30 6875 O 640.209 0.721621 -1.64902 0
M  V30 6876 H 636.584 0.0342038 -0.751222 0
M  V30 6877 H 638.555 -0.722342 -2.89525 0
M  V30 6878 C 637.304 0.999251 -3.33032 0
M  V30 6879 H 636.627 0.421005 -3.97577 0
M  V30 6880 H 638.067 1.45986 -3.98076 0
M  V30 6881 C 636.526 2.09606 -2.63756 0
M  V30 6882 O 637.056 3.18004 -2.4543 0
M  V30 6883 N 635.262 1.86207 -2.23103 0
M  V30 6884 H 634.809 0.980555 -2.38208 0
M  V30 6885 H 634.767 2.59787 -1.77081 0
M  V30 6886 N 638.539 1.52521 -0.396863 0
M  V30 6887 C 639.469 2.29582 0.425941 0
M  V30 6888 C 640.45 1.33281 1.05689 0
M  V30 6889 O 641.635 1.62181 1.06823 0
M  V30 6890 C 638.765 3.10821 1.54943 0
M  V30 6891 C 637.719 4.15069 1.04413 0
M  V30 6892 C 637.045 4.84578 2.26028 0
M  V30 6893 C 638.345 5.22191 0.106767 0
M  V30 6894 H 640.039 2.98612 -0.217045 0
M  V30 6895 H 637.585 1.43611 -0.105826 0
M  V30 6896 H 639.538 3.63492 2.13193 0
M  V30 6897 H 638.262 2.39538 2.22011 0
M  V30 6898 H 636.921 3.63389 0.484118 0
M  V30 6899 H 636.569 4.09835 2.91623 0
M  V30 6900 H 636.269 5.55043 1.92876 0
M  V30 6901 H 637.793 5.40056 2.84906 0
M  V30 6902 H 639.207 5.70176 0.597685 0
M  V30 6903 H 637.604 5.99947 -0.135352 0
M  V30 6904 H 638.674 4.77531 -0.842134 0
M  V30 6905 N 640.017 0.126909 1.57088 0
M  V30 6906 C 641.428 -0.397201 1.82426 0
M  V30 6907 C 641.779 -1.66084 1.04453 0
M  V30 6908 O 640.904 -2.14534 0.283552 0
M  V30 6909 C 641.499 -0.727411 3.30899 0
M  V30 6910 C 640.058 -1.19612 3.56889 0
M  V30 6911 C 639.205 -0.20885 2.76512 0
M  V30 6912 H 642.156 0.351924 1.54749 0
M  V30 6913 H 642.177 -1.58407 3.45959 0
M  V30 6914 H 641.689 0.19247 3.87622 0
M  V30 6915 H 639.79 -2.13263 3.05532 0
M  V30 6916 H 639.903 -1.13598 4.65438 0
M  V30 6917 H 638.267 -0.697479 2.44964 0
M  V30 6918 H 639.05 0.704267 3.35998 0
M  V30 6919 N 641.495 -1.56914 -0.146875 0
M  V30 6920 C 642.772 -1.74273 -0.888165 0
M  V30 6921 C 643.152 -0.69496 -1.99333 0
M  V30 6922 O 642.5 0.286093 -2.26702 0
M  V30 6923 C 642.71 -3.18336 -1.43051 0
M  V30 6924 C 644.058 -3.80024 -1.89387 0
M  V30 6925 O 645.082 -3.21765 -1.52792 0
M  V30 6926 O 643.941 -4.82367 -2.56874 0
M  V30 6927 H 641.035 -0.712565 -0.419738 0
M  V30 6928 H 643.581 -1.6918 -0.132791 0
M  V30 6929 H 642.353 -3.86092 -0.636274 0
M  V30 6930 H 641.976 -3.27854 -2.24938 0
M  V30 6931 N 642.974 0.416227 -1.52004 0
M  V30 6932 C 644.202 1.18573 -1.69553 0
M  V30 6933 C 644.617 1.84472 -0.401919 0
M  V30 6934 O 643.974 1.71593 0.621463 0
M  V30 6935 C 644.025 2.25413 -2.82615 0
M  V30 6936 O 643.746 1.62205 -4.06966 0
M  V30 6937 C 645.247 3.15297 -3.11613 0
M  V30 6938 H 642.467 0.356582 -0.56841 0
M  V30 6939 H 645.011 0.490618 -1.98528 0
M  V30 6940 H 643.166 2.90604 -2.56179 0
M  V30 6941 H 643.58 2.3298 -4.69916 0
M  V30 6942 H 645.054 3.86351 -3.94255 0
M  V30 6943 H 645.531 3.77264 -2.24874 0
M  V30 6944 H 646.137 2.55783 -3.39787 0
M  V30 6945 N 644.452 1.42507 0.673017 0
M  V30 6946 C 645.362 1.4853 1.81593 0
M  V30 6947 C 646.378 0.373907 1.69935 0
M  V30 6948 O 647.554 0.625078 1.91454 0
M  V30 6949 C 644.619 1.387 3.17747 0
M  V30 6950 C 643.68 2.60346 3.41348 0
M  V30 6951 C 642.913 2.50975 4.71007 0
M  V30 6952 O 643.136 1.54659 5.49033 0
M  V30 6953 O 642.07 3.41138 4.95892 0
M  V30 6954 H 645.896 2.45001 1.79467 0
M  V30 6955 H 643.481 1.2429 0.82899 0
M  V30 6956 H 645.363 1.35586 3.98992 0
M  V30 6957 H 644.038 0.453555 3.20507 0
M  V30 6958 H 642.945 2.69034 2.59945 0
M  V30 6959 H 644.278 3.52595 3.43421 0
M  V30 6960 N 645.93 -0.909495 1.28709 0
M  V30 6961 C 647.207 -1.63865 1.06806 0
M  V30 6962 C 647.587 -2.07445 -0.391143 0
M  V30 6963 O 646.935 -1.82269 -1.37805 0
M  V30 6964 C 647.145 -2.82692 2.04661 0
M  V30 6965 C 648.493 -3.5361 2.35042 0
M  V30 6966 O 649.517 -2.92847 2.02779 0
M  V30 6967 O 648.376 -4.63131 2.90124 0
M  V30 6968 H 645.47 -0.719065 0.408502 0
M  V30 6969 H 648.016 -0.958424 1.40044 0
M  V30 6970 H 646.788 -2.47614 3.0299 0
M  V30 6971 H 646.411 -3.58426 1.72095 0
M  V30 6972 N 647.408 -1.11026 -1.11852 0
M  V30 6973 C 648.34 -0.72249 -2.17515 0
M  V30 6974 C 649.353 0.243782 -1.60964 0
M  V30 6975 O 650.542 0.0273252 -1.78479 0
M  V30 6976 C 647.642 -0.0463979 -3.38868 0
M  V30 6977 C 646.815 -1.0384 -4.24895 0
M  V30 6978 C 645.874 -0.392659 -5.24733 0
M  V30 6979 O 644.9 -1.0453 -5.5952 0
M  V30 6980 N 646.102 0.846296 -5.74298 0
M  V30 6981 H 648.867 -1.63161 -2.51393 0
M  V30 6982 H 646.428 -0.999899 -1.27333 0
M  V30 6983 H 648.42 0.397215 -4.02746 0
M  V30 6984 H 646.99 0.765231 -3.03089 0
M  V30 6985 H 646.21 -1.6601 -3.57539 0
M  V30 6986 H 647.498 -1.70968 -4.79215 0
M  V30 6987 H 646.896 1.39578 -5.4821 0
M  V30 6988 H 645.453 1.23296 -6.40032 0
M  V30 6989 N 648.886 1.2938 -0.899927 0
M  V30 6990 C 649.796 2.31462 -0.382437 0
M  V30 6991 C 650.812 1.65956 0.522929 0
M  V30 6992 O 651.988 1.97131 0.412454 0
M  V30 6993 C 649.053 3.44595 0.381472 0
M  V30 6994 C 648.114 4.25692 -0.555444 0
M  V30 6995 C 647.347 5.33422 0.172102 0
M  V30 6996 O 647.57 5.53053 1.396 0
M  V30 6997 O 646.504 5.99939 -0.485491 0
M  V30 6998 H 650.33 2.77706 -1.22934 0
M  V30 6999 H 647.915 1.33821 -0.664259 0
M  V30 7000 H 649.797 4.13474 0.813442 0
M  V30 7001 H 648.472 3.00458 1.20443 0
M  V30 7002 H 647.379 3.59453 -1.03653 0
M  V30 7003 H 648.712 4.73471 -1.34483 0
M  V30 7004 N 650.364 0.662433 1.43002 0
M  V30 7005 C 651.592 0.187615 2.06048 0
M  V30 7006 C 652.007 -1.15039 1.49705 0
M  V30 7007 O 651.364 -1.71209 0.631956 0
M  V30 7008 C 651.415 0.100498 3.6136 0
M  V30 7009 O 651.136 1.38562 4.15611 0
M  V30 7010 C 652.637 -0.399298 4.41498 0
M  V30 7011 H 649.857 0.0941675 0.664359 0
M  V30 7012 H 652.401 0.905681 1.83351 0
M  V30 7013 H 650.556 -0.568181 3.83211 0
M  V30 7014 H 650.97 1.25084 5.09366 0
M  V30 7015 H 652.444 -0.409187 5.50481 0
M  V30 7016 H 652.921 -1.43232 4.15188 0
M  V30 7017 H 653.527 0.23721 4.24638 0
M  V30 7018 N 651.842 -1.52309 0.404946 0
M  V30 7019 C 653.088 -2.02065 -0.172455 0
M  V30 7020 C 653.421 -1.29022 -1.45145 0
M  V30 7021 O 652.696 -0.395284 -1.90441 0
M  V30 7022 C 652.979 -3.5759 -0.424433 0
M  V30 7023 C 652.832 -4.41287 0.870945 0
M  V30 7024 C 654.151 -4.23186 -1.20837 0
M  V30 7025 H 651.27 -0.734454 -0.0612035 0
M  V30 7026 H 653.912 -1.82236 0.53759 0
M  V30 7027 H 652.062 -3.74617 -1.02929 0
M  V30 7028 H 653.734 -4.3598 1.50729 0
M  V30 7029 H 651.977 -4.07669 1.48284 0
M  V30 7030 H 652.648 -5.48171 0.649083 0
M  V30 7031 H 655.124 -4.10232 -0.696338 0
M  V30 7032 H 654 -5.31953 -1.35343 0
M  V30 7033 H 654.261 -3.81862 -2.22786 0
M  V30 7034 N 653.32 -0.135238 -1.57019 0
M  V30 7035 C 654.597 0.563227 -1.87316 0
M  V30 7036 C 654.977 1.83749 -1.03921 0
M  V30 7037 O 654.325 2.2817 -0.122675 0
M  V30 7038 C 654.535 0.840031 -3.3874 0
M  V30 7039 C 655.883 1.18598 -4.077 0
M  V30 7040 O 656.907 0.92977 -3.43851 0
M  V30 7041 O 655.766 1.66758 -5.20436 0
M  V30 7042 H 652.86 0.285971 -0.775983 0
M  V30 7043 H 655.406 -0.170965 -1.68837 0
M  V30 7044 H 654.178 -0.0622785 -3.9125 0
M  V30 7045 H 653.801 1.62882 -3.62706 0
M  V30 7046 N 654.798 1.5699 0.138552 0
M  V30 7047 C 656.047 1.82998 0.848205 0
M  V30 7048 C 656.36 0.717829 1.81952 0
M  V30 7049 O 657.566 0.863756 2.57394 0
M  V30 7050 C 656.022 3.24379 1.55904 0
M  V30 7051 C 655.63 4.43552 0.62971 0
M  V30 7052 C 657.374 3.59654 2.25498 0
M  V30 7053 C 655.281 5.75957 1.34266 0
M  V30 7054 H 654.211 0.682495 0.320495 0
M  V30 7055 H 656.862 1.83222 0.100924 0
M  V30 7056 H 655.244 3.18567 2.35226 0
M  V30 7057 H 656.418 4.6062 -0.128882 0
M  V30 7058 H 654.733 4.16379 0.0417526 0
M  V30 7059 H 657.33 4.55837 2.79493 0
M  V30 7060 H 657.673 2.86124 3.02388 0
M  V30 7061 H 658.206 3.67164 1.53087 0
M  V30 7062 H 654.945 6.52604 0.615441 0
M  V30 7063 H 654.465 5.62811 2.07375 0
M  V30 7064 H 656.144 6.19046 1.88126 0
M  V30 7065 N 656.276 -0.40816 1.52223 0
M  V30 7066 C 657.224 -1.51788 1.76248 0
M  V30 7067 C 658.218 -1.57264 0.629638 0
M  V30 7068 O 659.424 -1.60659 0.811704 0
M  V30 7069 H 655.799 -0.504823 0.557367 0
M  V30 7070 H 657.77 -1.2871 2.69214 0
M  V30 7071 C 656.519 -2.89145 1.93107 0
M  V30 7072 H 655.842 -2.85674 2.79697 0
M  V30 7073 H 657.282 -3.66082 2.13916 0
M  V30 7074 C 655.741 -3.29581 0.698431 0
M  V30 7075 O 656.271 -4.01479 -0.133238 0
M  V30 7076 N 654.477 -2.85651 0.53405 0
M  V30 7077 H 654.024 -2.2731 1.21194 0
M  V30 7078 H 653.982 -3.13065 -0.289387 0
M  V30 7079 N 657.755 -1.42862 -0.66545 0
M  V30 7080 C 658.98 -1.47456 -1.45848 0
M  V30 7081 C 659.405 -0.0900312 -1.87884 0
M  V30 7082 O 658.763 0.913587 -1.56599 0
M  V30 7083 C 658.811 -2.41514 -2.67774 0
M  V30 7084 O 657.915 -1.89296 -3.66389 0
M  V30 7085 H 657.256 -0.499236 -0.437789 0
M  V30 7086 H 659.786 -1.8765 -0.815394 0
M  V30 7087 H 659.796 -2.58409 -3.15735 0
M  V30 7088 H 658.471 -3.42099 -2.36519 0
M  V30 7089 H 657.048 -1.82003 -3.25468 0
M  V30 7090 N 659.233 0.902656 -1.29189 0
M  V30 7091 C 660.479 1.65532 -1.17163 0
M  V30 7092 C 660.812 1.92216 0.276879 0
M  V30 7093 O 660.087 1.53048 1.20027 0
M  V30 7094 C 660.37 3.00629 -1.98228 0
M  V30 7095 C 660.223 2.81029 -3.51202 0
M  V30 7096 C 661.542 4.01321 -1.80635 0
M  V30 7097 H 658.661 0.60071 -0.426985 0
M  V30 7098 H 661.303 1.04578 -1.5863 0
M  V30 7099 H 659.453 3.52656 -1.62991 0
M  V30 7100 H 661.125 2.35927 -3.96404 0
M  V30 7101 H 659.368 2.1587 -3.76275 0
M  V30 7102 H 660.039 3.77014 -4.03192 0
M  V30 7103 H 662.515 3.58394 -2.11406 0
M  V30 7104 H 661.391 4.93792 -2.3971 0
M  V30 7105 H 661.652 4.35505 -0.760754 0
M  V30 7106 N 660.711 1.11618 1.11262 0
M  V30 7107 C 661.936 0.889013 1.8738 0
M  V30 7108 C 662.361 -0.555884 1.79698 0
M  V30 7109 O 661.719 -1.39272 1.16073 0
M  V30 7110 C 661.767 1.35759 3.34069 0
M  V30 7111 O 660.871 0.530499 4.08974 0
M  V30 7112 H 660.212 0.320082 0.581759 0
M  V30 7113 H 662.742 1.48611 1.40627 0
M  V30 7114 H 662.752 1.35291 3.84916 0
M  V30 7115 H 661.427 2.40973 3.38976 0
M  V30 7116 H 660.004 0.601439 3.68018 0
M  V30 7117 N 662.189 -1.289 0.906776 0
M  V30 7118 C 663.099 -2.31256 0.394707 0
M  V30 7119 C 664.115 -1.66231 -0.514121 0
M  V30 7120 O 665.291 -1.97347 -0.401994 0
M  V30 7121 C 662.356 -3.44792 -0.363191 0
M  V30 7122 C 661.417 -4.25391 0.578012 0
M  V30 7123 C 660.65 -5.33506 -0.143811 0
M  V30 7124 O 660.873 -5.53786 -1.36665 0
M  V30 7125 O 659.807 -5.99673 0.5173 0
M  V30 7126 H 663.633 -2.77051 1.24405 0
M  V30 7127 H 661.218 -1.33466 0.671346 0
M  V30 7128 H 663.1 -4.139 -0.791503 0
M  V30 7129 H 661.775 -3.01093 -1.18848 0
M  V30 7130 H 660.682 -3.58899 1.05558 0
M  V30 7131 H 662.015 -4.72752 1.36992 0
M  V30 7132 N 663.667 -0.670007 -1.42649 0
M  V30 7133 C 664.915 -0.18991 -2.01206 0
M  V30 7134 C 665.236 1.20617 -1.53221 0
M  V30 7135 O 664.506 1.80898 -0.751856 0
M  V30 7136 H 663.086 -0.0672189 -0.743969 0
M  V30 7137 H 665.748 -0.865442 -1.74631 0
M  V30 7138 H 664.844 -0.187481 -3.11536 0
M  V30 7139 N 665.145 1.52092 -0.413018 0
M  V30 7140 C 666.092 2.27119 0.410558 0
M  V30 7141 C 667.062 1.29692 1.03774 0
M  V30 7142 O 668.247 1.58561 1.06128 0
M  V30 7143 C 665.387 3.09863 1.51918 0
M  V30 7144 C 664.5 4.22252 0.912528 0
M  V30 7145 C 663.635 4.92348 1.99417 0
M  V30 7146 C 662.674 5.96694 1.36466 0
M  V30 7147 N 661.811 6.60292 2.38661 0
M  V30 7148 H 666.651 2.97067 -0.235661 0
M  V30 7149 H 664.188 1.46542 -0.128055 0
M  V30 7150 H 666.146 3.56144 2.17295 0
M  V30 7151 H 664.776 2.42078 2.13537 0
M  V30 7152 H 663.828 3.80113 0.147697 0
M  V30 7153 H 665.14 4.9709 0.412717 0
M  V30 7154 H 664.294 5.42054 2.72512 0
M  V30 7155 H 663.033 4.17087 2.52764 0
M  V30 7156 H 662.038 5.46304 0.61906 0
M  V30 7157 H 663.263 6.73899 0.838827 0
M  V30 7158 H 661.209 5.87858 2.91134 0
M  V30 7159 H 661.126 7.30816 1.93503 0
M  V30 7160 H 662.394 7.14635 3.11314 0
M  V30 7161 N 666.623 0.143563 1.56945 0
M  V30 7162 C 667.533 -0.810562 2.20152 0
M  V30 7163 C 668.549 -1.27431 1.1848 0
M  V30 7164 O 669.725 -1.33221 1.51044 0
M  V30 7165 C 666.79 -2.03353 2.80799 0
M  V30 7166 C 665.851 -1.61936 3.97587 0
M  V30 7167 C 665.084 -2.78403 4.55332 0
M  V30 7168 O 665.307 -3.94521 4.11958 0
M  V30 7169 O 664.241 -2.54073 5.45647 0
M  V30 7170 H 668.067 -0.30253 3.02189 0
M  V30 7171 H 665.652 -0.0832925 1.49168 0
M  V30 7172 H 667.534 -2.74932 3.19359 0
M  V30 7173 H 666.209 -2.53116 2.01777 0
M  V30 7174 H 665.116 -0.873904 3.6375 0
M  V30 7175 H 666.449 -1.16892 4.78118 0
M  V30 7176 N 668.101 -1.57061 -0.130224 0
M  V30 7177 C 669.049 -2.00486 -1.17933 0
M  V30 7178 C 670.043 -0.899933 -1.43519 0
M  V30 7179 O 671.249 -1.08514 -1.43613 0
M  V30 7180 H 667.624 -0.638441 -0.397363 0
M  V30 7181 H 669.595 -2.87848 -0.786501 0
M  V30 7182 C 668.344 -2.41565 -2.50084 0
M  V30 7183 H 667.667 -3.26148 -2.31231 0
M  V30 7184 H 669.107 -2.75757 -3.22078 0
M  V30 7185 C 667.566 -1.27485 -3.11848 0
M  V30 7186 O 668.096 -0.584688 -3.97422 0
M  V30 7187 N 666.302 -1.03478 -2.71552 0
M  V30 7188 H 665.849 -1.59779 -2.02061 0
M  V30 7189 H 665.807 -0.27341 -3.13209 0
M  V30 7190 N 669.579 0.400081 -1.52437 0
M  V30 7191 C 670.527 1.50851 -1.7705 0
M  V30 7192 C 671.521 1.56928 -0.637969 0
M  V30 7193 O 672.727 1.60226 -0.820212 0
M  V30 7194 H 669.102 0.50186 -0.560036 0
M  V30 7195 H 671.073 1.27281 -2.69893 0
M  V30 7196 C 669.822 2.88117 -1.94638 0
M  V30 7197 H 669.145 2.84187 -2.81208 0
M  V30 7198 H 670.585 3.64942 -2.15855 0
M  V30 7199 C 669.044 3.29206 -0.715899 0
M  V30 7200 O 669.574 4.01544 0.111944 0
M  V30 7201 N 667.78 2.85363 -0.549191 0
M  V30 7202 H 667.327 2.26664 -1.22397 0
M  V30 7203 H 667.285 3.13214 0.27278 0
M  V30 7204 N 671.057 1.43213 0.657864 0
M  V30 7205 C 672.306 1.43871 1.41365 0
M  V30 7206 C 672.619 0.064898 1.95492 0
M  V30 7207 O 673.825 -0.0510796 2.71452 0
M  V30 7208 C 672.281 2.53158 2.55811 0
M  V30 7209 C 671.889 3.96624 2.08311 0
M  V30 7210 C 673.633 2.63004 3.3321 0
M  V30 7211 C 671.54 4.97385 3.1994 0
M  V30 7212 H 670.47 0.535174 0.531136 0
M  V30 7213 H 673.121 1.69185 0.710543 0
M  V30 7214 H 671.503 2.21037 3.2857 0
M  V30 7215 H 672.677 4.38182 1.42593 0
M  V30 7216 H 670.992 3.90781 1.43804 0
M  V30 7217 H 673.589 3.3546 4.16378 0
M  V30 7218 H 673.932 1.67918 3.80932 0
M  V30 7219 H 674.465 2.94403 2.67529 0
M  V30 7220 H 671.204 5.94007 2.77192 0
M  V30 7221 H 670.724 4.60444 3.84385 0
M  V30 7222 H 672.403 5.19877 3.85145 0
M  V30 7223 N 672.536 -0.895792 1.29666 0
M  V30 7224 C 673.469 -2.00238 1.09453 0
M  V30 7225 C 674.447 -1.62599 0.00527044 0
M  V30 7226 O 675.631 -1.87847 0.156729 0
M  V30 7227 C 672.758 -3.32066 0.667054 0
M  V30 7228 C 671.804 -3.88691 1.7556 0
M  V30 7229 S 672.637 -4.17317 3.35569 0
M  V30 7230 C 673.793 -5.52181 2.94698 0
M  V30 7231 H 674.026 -2.17076 2.03138 0
M  V30 7232 H 671.559 -1.04287 1.13858 0
M  V30 7233 H 673.517 -4.08272 0.427136 0
M  V30 7234 H 672.178 -3.13101 -0.250256 0
M  V30 7235 H 671.371 -4.83918 1.40853 0
M  V30 7236 H 670.973 -3.19187 1.94924 0
M  V30 7237 H 673.265 -6.3281 2.41986 0
M  V30 7238 H 674.208 -5.91817 3.88791 0
M  V30 7239 H 674.616 -5.14225 2.32879 0
M  V30 7240 N 674.014 -1.12206 -1.10668 0
M  V30 7241 C 675.263 -0.870595 -1.81944 0
M  V30 7242 C 675.576 0.605447 -1.85994 0
M  V30 7243 O 676.782 0.973433 -2.53449 0
M  V30 7244 C 675.238 -1.50783 -3.26791 0
M  V30 7245 C 674.846 -3.01849 -3.31046 0
M  V30 7246 C 676.59 -1.33653 -4.02911 0
M  V30 7247 C 674.497 -3.58518 -4.70339 0
M  V30 7248 H 673.427 -0.322043 -0.681765 0
M  V30 7249 H 676.078 -1.34827 -1.24475 0
M  V30 7250 H 674.46 -0.957825 -3.84242 0
M  V30 7251 H 675.634 -3.63321 -2.83433 0
M  V30 7252 H 673.949 -3.18346 -2.68411 0
M  V30 7253 H 676.546 -1.73416 -5.05797 0
M  V30 7254 H 676.889 -0.279949 -4.15358 0
M  V30 7255 H 677.422 -1.85562 -3.51868 0
M  V30 7256 H 674.161 -4.63925 -4.63091 0
M  V30 7257 H 673.681 -3.01819 -5.18329 0
M  V30 7258 H 675.36 -3.57434 -5.39305 0
M  V30 7259 N 675.492 1.28418 -0.913599 0
M  V30 7260 C 676.72 1.99106 -0.562536 0
M  V30 7261 C 677.135 1.68273 0.856137 0
M  V30 7262 O 676.492 0.935401 1.56705 0
M  V30 7263 C 676.543 3.5338 -0.761903 0
M  V30 7264 O 676.264 3.83127 -2.12475 0
M  V30 7265 C 677.765 4.41328 -0.417651 0
M  V30 7266 H 674.985 0.635798 -0.214481 0
M  V30 7267 H 677.529 1.63618 -1.22676 0
M  V30 7268 H 675.684 3.8713 -0.144676 0
M  V30 7269 H 676.098 4.77763 -2.16431 0
M  V30 7270 H 677.572 5.48642 -0.607919 0
M  V30 7271 H 678.049 4.34422 0.646108 0
M  V30 7272 H 678.655 4.13074 -1.01241 0
M  V30 7273 N 676.97 0.677563 1.42291 0
M  V30 7274 C 677.9 0.014968 2.33495 0
M  V30 7275 C 678.881 -0.786376 1.50831 0
M  V30 7276 O 680.066 -0.742975 1.79426 0
M  V30 7277 C 677.196 -0.935023 3.34477 0
M  V30 7278 C 676.15 -0.242074 4.27315 0
M  V30 7279 C 675.476 -1.30519 5.18526 0
M  V30 7280 C 676.776 0.880604 5.14823 0
M  V30 7281 H 678.47 0.776671 2.89151 0
M  V30 7282 H 676.016 0.37494 1.39033 0
M  V30 7283 H 677.969 -1.40766 3.97194 0
M  V30 7284 H 676.693 -1.72818 2.77131 0
M  V30 7285 H 675.352 0.210351 3.65996 0
M  V30 7286 H 675 -2.09041 4.57505 0
M  V30 7287 H 674.7 -0.846652 5.81468 0
M  V30 7288 H 676.224 -1.7787 5.84119 0
M  V30 7289 H 677.638 0.489062 5.7121 0
M  V30 7290 H 676.035 1.26511 5.86613 0
M  V30 7291 H 677.105 1.72818 4.53059 0
M  V30 7292 N 678.448 -1.51871 0.421078 0
M  V30 7293 C 679.358 -2.31077 -0.405069 0
M  V30 7294 C 680.374 -1.39301 -1.04265 0
M  V30 7295 O 681.55 -1.72376 -1.04157 0
M  V30 7296 C 678.615 -3.12556 -1.50032 0
M  V30 7297 C 677.676 -4.20088 -0.884559 0
M  V30 7298 C 676.909 -4.97673 -1.92762 0
M  V30 7299 O 677.132 -4.75696 -3.14753 0
M  V30 7300 O 676.066 -5.82203 -1.52719 0
M  V30 7301 H 679.892 -3.02742 0.241086 0
M  V30 7302 H 677.477 -1.48263 0.183991 0
M  V30 7303 H 679.359 -3.6326 -2.13589 0
M  V30 7304 H 678.034 -2.43672 -2.13086 0
M  V30 7305 H 676.941 -3.73502 -0.211379 0
M  V30 7306 H 678.274 -4.91298 -0.297763 0
M  V30 7307 N 679.926 -0.151884 -1.56866 0
M  V30 7308 C 681.154 0.504813 -2.00647 0
M  V30 7309 C 681.569 1.58098 -1.03201 0
M  V30 7310 O 680.926 1.82476 -0.0297814 0
M  V30 7311 C 680.977 1.10099 -3.44326 0
M  V30 7312 O 680.698 0.0678021 -4.38048 0
M  V30 7313 C 682.199 1.83782 -4.03409 0
M  V30 7314 H 679.419 0.130989 -0.65809 0
M  V30 7315 H 681.963 -0.247903 -2.02992 0
M  V30 7316 H 680.118 1.8043 -3.42817 0
M  V30 7317 H 680.532 0.505237 -5.22061 0
M  V30 7318 H 682.006 2.2078 -5.05925 0
M  V30 7319 H 682.483 2.72557 -3.44397 0
M  V30 7320 H 683.089 1.18138 -4.08563 0
M  V30 7321 N 681.404 1.57128 0.121893 0
M  V30 7322 C 682.352 2.01109 1.16868 0
M  V30 7323 C 683.346 0.907532 1.43039 0
M  V30 7324 O 684.552 1.09274 1.43036 0
M  V30 7325 H 680.927 0.640539 0.393971 0
M  V30 7326 H 682.898 2.88261 0.771224 0
M  V30 7327 C 681.647 2.42887 2.48799 0
M  V30 7328 H 680.97 3.2737 2.29498 0
M  V30 7329 H 682.41 2.77461 3.20611 0
M  V30 7330 C 680.869 1.29137 3.11168 0
M  V30 7331 O 681.399 0.605756 3.97106 0
M  V30 7332 N 679.605 1.04916 2.71 0
M  V30 7333 H 679.152 1.60848 2.01211 0
M  V30 7334 H 679.11 0.290016 3.1306 0
M  V30 7335 N 682.882 -0.391992 1.52647 0
M  V30 7336 C 684.131 -1.13449 1.6677 0
M  V30 7337 C 684.444 -1.91203 0.412399 0
M  V30 7338 O 685.65 -2.68013 0.433707 0
M  V30 7339 C 684.106 -2.06577 2.9471 0
M  V30 7340 C 683.714 -1.3426 4.27409 0
M  V30 7341 C 685.458 -2.80981 3.18198 0
M  V30 7342 C 683.365 -2.26136 5.46458 0
M  V30 7343 H 682.295 -0.427211 0.621295 0
M  V30 7344 H 684.946 -0.397522 1.79142 0
M  V30 7345 H 683.328 -2.83898 2.76076 0
M  V30 7346 H 684.502 -0.621856 4.56585 0
M  V30 7347 H 682.817 -0.718279 4.10158 0
M  V30 7348 H 685.414 -3.49898 4.04321 0
M  V30 7349 H 685.757 -3.44891 2.33144 0
M  V30 7350 H 686.29 -2.10754 3.37383 0
M  V30 7351 H 683.029 -1.66846 6.33911 0
M  V30 7352 H 682.549 -2.96134 5.21598 0
M  V30 7353 H 684.228 -2.86286 5.80215 0
M  V30 7354 N 684.36 -1.4356 -0.65026 0
M  V30 7355 C 685.27 -1.514 -1.79207 0
M  V30 7356 C 686.286 -0.400895 -1.69319 0
M  V30 7357 O 687.462 -0.655458 -1.90436 0
M  V30 7358 C 684.527 -1.43737 -3.155 0
M  V30 7359 C 683.588 -2.65743 -3.37163 0
M  V30 7360 C 682.821 -2.58436 -4.66954 0
M  V30 7361 O 683.044 -1.63374 -5.46503 0
M  V30 7362 O 681.978 -3.48984 -4.90402 0
M  V30 7363 H 685.804 -2.47825 -1.75547 0
M  V30 7364 H 683.389 -1.25594 -0.809111 0
M  V30 7365 H 685.271 -1.41916 -3.96784 0
M  V30 7366 H 683.946 -0.504488 -3.19745 0
M  V30 7367 H 682.853 -2.73136 -2.55632 0
M  V30 7368 H 684.186 -3.58014 -3.37768 0
M  V30 7369 N 685.838 0.888903 -1.30139 0
M  V30 7370 C 686.788 1.9814 -1.12803 0
M  V30 7371 C 687.772 1.60839 -0.0443137 0
M  V30 7372 O 688.964 1.74971 -0.267208 0
M  V30 7373 C 686.093 3.33416 -0.817849 0
M  V30 7374 C 685.179 3.77043 -1.94163 0
M  V30 7375 N 685.57 3.92805 -3.18651 0
M  V30 7376 C 683.868 4.06407 -1.8371 0
M  V30 7377 C 684.569 4.29746 -3.92038 0
M  V30 7378 N 683.545 4.3939 -3.20059 0
M  V30 7379 H 687.347 2.08411 -2.07225 0
M  V30 7380 H 684.861 1.07845 -1.21421 0
M  V30 7381 H 686.858 4.11405 -0.674668 0
M  V30 7382 H 685.518 3.24484 0.118344 0
M  V30 7383 H 686.529 3.78042 -3.53984 0
M  V30 7384 H 683.206 4.05972 -0.974331 0
M  V30 7385 H 684.596 4.49695 -4.99223 0
M  V30 7386 N 687.317 1.12792 1.10072 0
M  V30 7387 C 688.265 0.794523 2.18609 0
M  V30 7388 C 689.259 -0.220271 1.67962 0
M  V30 7389 O 690.465 -0.0780938 1.79831 0
M  V30 7390 H 686.84 0.239123 0.712969 0
M  V30 7391 H 688.811 1.71823 2.43966 0
M  V30 7392 C 687.56 0.269548 3.46654 0
M  V30 7393 H 686.883 1.04171 3.8599 0
M  V30 7394 H 688.323 0.0746242 4.23934 0
M  V30 7395 C 686.782 -1.00333 3.21613 0
M  V30 7396 O 687.312 -2.08042 3.4363 0
M  V30 7397 N 685.518 -0.931763 2.75257 0
M  V30 7398 H 685.065 -0.0551197 2.57541 0
M  V30 7399 H 685.023 -1.78405 2.58881 0
M  V30 7400 N 688.795 -1.27931 0.920396 0
M  V30 7401 C 689.725 -2.29487 0.431024 0
M  V30 7402 C 690.706 -1.62435 -0.504861 0
M  V30 7403 O 691.891 -1.89797 -0.411176 0
M  V30 7404 C 689.021 -3.45788 -0.323709 0
M  V30 7405 C 687.975 -4.24784 0.523658 0
M  V30 7406 C 687.301 -5.33488 -0.359809 0
M  V30 7407 C 688.601 -4.90874 1.78437 0
M  V30 7408 H 690.295 -2.70671 1.27975 0
M  V30 7409 H 687.841 -1.30121 0.616813 0
M  V30 7410 H 689.794 -4.15927 -0.676952 0
M  V30 7411 H 688.518 -3.03502 -1.2064 0
M  V30 7412 H 687.177 -3.56382 0.85951 0
M  V30 7413 H 686.825 -4.87445 -1.24124 0
M  V30 7414 H 686.525 -5.87247 0.203605 0
M  V30 7415 H 688.049 -6.06472 -0.708787 0
M  V30 7416 H 689.463 -5.53339 1.49963 0
M  V30 7417 H 687.86 -5.54659 2.29071 0
M  V30 7418 H 688.93 -4.14988 2.50824 0
M  V30 7419 N 690.273 -0.685099 -1.4193 0
M  V30 7420 C 691.22 -0.0131869 -2.30796 0
M  V30 7421 C 692.19 0.782129 -1.46533 0
M  V30 7422 O 693.375 0.75229 -1.75343 0
M  V30 7423 C 690.515 0.924768 -3.32479 0
M  V30 7424 C 689.628 0.122181 -4.31827 0
M  V30 7425 C 688.763 1.05682 -5.20581 0
M  V30 7426 C 687.802 0.246526 -6.11603 0
M  V30 7427 N 686.939 1.13442 -6.92875 0
M  V30 7428 H 691.779 -0.776789 -2.87698 0
M  V30 7429 H 689.316 -0.394791 -1.41703 0
M  V30 7430 H 691.274 1.48251 -3.89971 0
M  V30 7431 H 689.904 1.65488 -2.77152 0
M  V30 7432 H 688.956 -0.552335 -3.76369 0
M  V30 7433 H 690.268 -0.506473 -4.96222 0
M  V30 7434 H 689.422 1.68415 -5.82856 0
M  V30 7435 H 688.161 1.71935 -4.56388 0
M  V30 7436 H 687.166 -0.393944 -5.48387 0
M  V30 7437 H 688.391 -0.412053 -6.77849 0
M  V30 7438 H 686.337 1.78316 -6.313 0
M  V30 7439 H 686.254 0.561089 -7.53915 0
M  V30 7440 H 687.522 1.74889 -7.59628 0
M  V30 7441 N 691.751 1.51645 -0.429126 0
M  V30 7442 C 692.976 2.06917 0.141399 0
M  V30 7443 C 693.401 1.29527 1.36398 0
M  V30 7444 O 692.759 0.33094 1.78254 0
M  V30 7445 C 692.807 3.57776 0.4504 0
M  V30 7446 O 691.911 3.82639 1.53821 0
M  V30 7447 H 691.252 0.663978 0.0054647 0
M  V30 7448 H 693.782 1.95355 -0.608093 0
M  V30 7449 H 693.792 4.01894 0.703249 0
M  V30 7450 H 692.467 4.13532 -0.443213 0
M  V30 7451 H 691.044 3.5039 1.27597 0
M  V30 7452 N 693.229 0.160201 1.56784 0
M  V30 7453 C 694.139 -0.787167 2.21 0
M  V30 7454 C 695.155 -1.26167 1.19825 0
M  V30 7455 O 696.331 -1.31611 1.52448 0
M  V30 7456 C 693.396 -2.00364 2.8294 0
M  V30 7457 C 692.457 -1.5771 3.99282 0
M  V30 7458 C 691.69 -2.73558 4.58259 0
M  V30 7459 O 691.913 -3.90129 4.16119 0
M  V30 7460 O 690.847 -2.48271 5.48311 0
M  V30 7461 H 694.673 -0.270462 3.02493 0
M  V30 7462 H 692.258 -0.0674666 1.49248 0
M  V30 7463 H 694.14 -2.71529 3.22257 0
M  V30 7464 H 692.815 -2.50961 2.04451 0
M  V30 7465 H 691.722 -0.835274 3.64656 0
M  V30 7466 H 693.055 -1.11815 4.79331 0
M  V30 7467 N 694.707 -1.5719 -0.113559 0
M  V30 7468 C 695.617 -2.04041 -1.15777 0
M  V30 7469 C 696.633 -0.961812 -1.45001 0
M  V30 7470 O 697.809 -1.2737 -1.56009 0
M  V30 7471 C 694.874 -2.43994 -2.46308 0
M  V30 7472 C 693.935 -3.65962 -2.24433 0
M  V30 7473 C 693.168 -4.04 -3.4874 0
M  V30 7474 O 693.391 -3.42321 -4.56259 0
M  V30 7475 O 692.325 -4.97069 -3.3942 0
M  V30 7476 H 696.151 -2.93248 -0.789899 0
M  V30 7477 H 693.736 -1.45828 -0.324748 0
M  V30 7478 H 695.618 -2.70401 -3.23204 0
M  V30 7479 H 694.293 -1.57932 -2.82558 0
M  V30 7480 H 693.2 -3.44697 -1.45377 0
M  V30 7481 H 694.533 -4.52746 -1.93084 0
M  V30 7482 N 696.185 0.383891 -1.52853 0
M  V30 7483 C 697.095 1.49343 -1.80925 0
M  V30 7484 C 698.111 1.59458 -0.696348 0
M  V30 7485 O 699.287 1.75698 -0.984481 0
M  V30 7486 C 696.352 2.84819 -1.97684 0
M  V30 7487 C 695.413 2.84382 -3.21598 0
M  V30 7488 C 694.646 4.13397 -3.37548 0
M  V30 7489 O 694.869 5.08619 -2.58192 0
M  V30 7490 O 693.803 4.20325 -4.30826 0
M  V30 7491 H 697.629 1.2855 -2.75152 0
M  V30 7492 H 695.214 0.572229 -1.38007 0
M  V30 7493 H 697.096 3.65125 -2.10385 0
M  V30 7494 H 695.771 3.05627 -1.06647 0
M  V30 7495 H 694.678 2.0284 -3.14336 0
M  V30 7496 H 696.011 2.68526 -4.12498 0
M  V30 7497 N 697.663 1.43903 0.642637 0
M  V30 7498 C 698.61 1.49881 1.75512 0
M  V30 7499 C 699.58 0.347538 1.62423 0
M  V30 7500 O 700.765 0.556177 1.82514 0
M  V30 7501 C 697.905 1.43797 3.13714 0
M  V30 7502 C 697.018 2.6921 3.37861 0
M  V30 7503 C 696.153 2.5504 4.6597 0
M  V30 7504 C 695.192 3.75671 4.83257 0
M  V30 7505 N 694.329 3.60247 6.02633 0
M  V30 7506 H 699.169 2.44935 1.69737 0
M  V30 7507 H 696.706 1.21572 0.828165 0
M  V30 7508 H 698.664 1.38262 3.93624 0
M  V30 7509 H 697.294 0.523173 3.18532 0
M  V30 7510 H 696.346 2.8498 2.51973 0
M  V30 7511 H 697.658 3.58786 3.46517 0
M  V30 7512 H 696.812 2.47273 5.54023 0
M  V30 7513 H 695.551 1.63006 4.59653 0
M  V30 7514 H 694.556 3.83836 3.93637 0
M  V30 7515 H 695.781 4.68728 4.91397 0
M  V30 7516 H 693.727 2.70955 5.97427 0
M  V30 7517 H 693.644 4.43431 6.12295 0
M  V30 7518 H 694.912 3.56351 6.93278 0
M  V30 7519 N 699.141 -0.881989 1.30609 0
M  V30 7520 C 700.418 -1.61563 1.10258 0
M  V30 7521 C 700.798 -2.08228 -0.347053 0
M  V30 7522 O 700.146 -1.85151 -1.33908 0
M  V30 7523 C 700.356 -2.78287 2.10612 0
M  V30 7524 C 701.704 -3.48545 2.4249 0
M  V30 7525 O 702.728 -2.88479 2.08945 0
M  V30 7526 O 701.587 -4.56873 2.99883 0
M  V30 7527 H 698.681 -0.710238 0.423663 0
M  V30 7528 H 701.227 -0.928503 1.42045 0
M  V30 7529 H 699.999 -2.41131 3.08174 0
M  V30 7530 H 699.622 -3.54695 1.79659 0
M  V30 7531 N 700.619 -1.13374 -1.09472 0
M  V30 7532 C 701.551 -0.768466 -2.15933 0
M  V30 7533 C 702.564 0.209585 -1.61445 0
M  V30 7534 O 703.753 -0.010539 -1.78497 0
M  V30 7535 C 700.853 -0.118266 -3.38694 0
M  V30 7536 C 700.026 -1.12829 -4.22597 0
M  V30 7537 C 699.085 -0.503875 -5.23782 0
M  V30 7538 O 698.111 -1.16374 -5.57177 0
M  V30 7539 N 699.313 0.724288 -5.75964 0
M  V30 7540 H 702.078 -1.68457 -2.47876 0
M  V30 7541 H 699.639 -1.02668 -1.25183 0
M  V30 7542 H 701.631 0.311698 -4.03498 0
M  V30 7543 H 700.201 0.700769 -3.04644 0
M  V30 7544 H 699.421 -1.73556 -3.53938 0
M  V30 7545 H 700.709 -1.81095 -4.75481 0
M  V30 7546 H 700.107 1.27918 -5.51048 0
M  V30 7547 H 698.664 1.09692 -6.42504 0
M  V30 7548 N 702.098 1.27442 -0.927168 0
M  V30 7549 C 703.008 2.30599 -0.431448 0
M  V30 7550 C 704.024 1.67028 0.48761 0
M  V30 7551 O 705.2 1.97962 0.370546 0
M  V30 7552 C 702.265 3.45327 0.308292 0
M  V30 7553 C 701.326 4.24418 -0.645615 0
M  V30 7554 C 700.559 5.33667 0.0589164 0
M  V30 7555 O 700.782 5.5589 1.27838 0
M  V30 7556 O 699.716 5.98774 -0.612638 0
M  V30 7557 H 703.542 2.75036 -1.28797 0
M  V30 7558 H 701.127 1.32382 -0.692495 0
M  V30 7559 H 703.009 4.15107 0.725555 0
M  V30 7560 H 701.684 3.02945 1.14043 0
M  V30 7561 H 700.591 3.57174 -1.11255 0
M  V30 7562 H 701.924 4.70512 -1.44496 0
M  V30 7563 N 703.576 0.692616 1.41565 0
M  V30 7564 C 704.523 0.0254264 2.30786 0
M  V30 7565 C 705.493 -0.774347 1.46946 0
M  V30 7566 O 706.678 -0.742981 1.7574 0
M  V30 7567 C 703.818 -0.907123 3.32964 0
M  V30 7568 C 702.931 -0.0992784 4.31886 0
M  V30 7569 C 702.066 -1.0292 5.21134 0
M  V30 7570 C 701.105 -0.214088 6.11725 0
M  V30 7571 N 700.242 -1.09766 6.93467 0
M  V30 7572 H 705.082 0.792036 2.87282 0
M  V30 7573 H 702.619 0.4023 1.41492 0
M  V30 7574 H 704.577 -1.46181 3.90752 0
M  V30 7575 H 703.207 -1.64016 2.78026 0
M  V30 7576 H 702.259 0.572287 3.76071 0
M  V30 7577 H 703.571 0.532782 4.95946 0
M  V30 7578 H 702.725 -1.65321 5.83741 0
M  V30 7579 H 701.464 -1.69512 4.57293 0
M  V30 7580 H 700.469 0.42302 5.4817 0
M  V30 7581 H 701.694 0.447995 6.77621 0
M  V30 7582 H 699.64 -1.74965 6.32237 0
M  V30 7583 H 699.557 -0.521099 7.54202 0
M  V30 7584 H 700.825 -1.70858 7.60544 0
M  V30 7585 N 705.054 -1.51416 0.437162 0
M  V30 7586 C 705.986 -2.255 -0.410171 0
M  V30 7587 C 706.999 -1.29511 -0.986444 0
M  V30 7588 O 708.188 -1.55266 -0.880614 0
M  V30 7589 C 705.288 -2.99511 -1.58575 0
M  V30 7590 C 704.461 -4.22595 -1.12839 0
M  V30 7591 C 703.52 -4.79187 -2.17407 0
M  V30 7592 O 702.546 -5.4103 -1.76849 0
M  V30 7593 N 703.748 -4.63204 -3.49889 0
M  V30 7594 H 706.513 -2.98856 0.224783 0
M  V30 7595 H 704.074 -1.59699 0.266041 0
M  V30 7596 H 706.066 -3.34258 -2.28152 0
M  V30 7597 H 704.636 -2.29167 -2.12606 0
M  V30 7598 H 703.856 -3.93344 -0.259695 0
M  V30 7599 H 705.144 -5.02468 -0.800196 0
M  V30 7600 H 704.542 -4.13945 -3.85573 0
M  V30 7601 H 703.099 -5.02313 -4.15361 0
M  V30 7602 N 706.532 -0.168513 -1.56696 0
M  V30 7603 C 707.464 0.794249 -2.14998 0
M  V30 7604 C 708.477 1.1957 -1.10485 0
M  V30 7605 O 709.666 1.13604 -1.37682 0
M  V30 7606 C 706.766 2.08018 -2.67547 0
M  V30 7607 C 705.939 1.84274 -3.96689 0
M  V30 7608 C 704.998 2.97059 -4.3433 0
M  V30 7609 O 704.024 2.67815 -5.02259 0
M  V30 7610 N 705.226 4.24775 -3.9566 0
M  V30 7611 H 707.991 0.295832 -2.98236 0
M  V30 7612 H 705.552 0.0143611 -1.61894 0
M  V30 7613 H 707.544 2.82559 -2.89729 0
M  V30 7614 H 706.114 2.49059 -1.88914 0
M  V30 7615 H 705.334 0.936528 -3.82914 0
M  V30 7616 H 706.622 1.65773 -4.81037 0
M  V30 7617 H 706.02 4.51395 -3.40968 0
M  V30 7618 H 704.577 4.96027 -4.22848 0
M  V30 7619 N 708.01 1.57248 0.105221 0
M  V30 7620 C 708.943 1.96567 1.15916 0
M  V30 7621 C 709.921 0.837355 1.39381 0
M  V30 7622 O 711.105 1.09676 1.53308 0
M  V30 7623 C 708.232 2.27375 2.51035 0
M  V30 7624 C 707.278 3.49869 2.43913 0
M  V30 7625 S 708.111 5.01958 1.86543 0
M  V30 7626 C 709.267 5.35932 3.23307 0
M  V30 7627 H 709.5 2.85655 0.823931 0
M  V30 7628 H 707.033 1.51204 0.312515 0
M  V30 7629 H 708.991 2.45801 3.28774 0
M  V30 7630 H 707.652 1.38876 2.81731 0
M  V30 7631 H 706.845 3.68835 3.43477 0
M  V30 7632 H 706.447 3.30901 1.743 0
M  V30 7633 H 708.739 5.31958 4.19556 0
M  V30 7634 H 709.682 6.37047 3.09155 0
M  V30 7635 H 710.09 4.63397 3.22372 0
M  V30 7636 N 709.488 -0.375779 1.53054 0
M  V30 7637 C 710.735 -1.11948 1.68742 0
M  V30 7638 C 711.063 -1.89596 0.434015 0
M  V30 7639 O 710.318 -1.86787 -0.583867 0
M  V30 7640 C 710.617 -2.11356 2.88207 0
M  V30 7641 C 710.283 -1.50266 4.25124 0
M  V30 7642 C 708.945 -1.33333 4.62359 0
M  V30 7643 C 711.297 -1.05976 5.10312 0
M  V30 7644 C 708.625 -0.706765 5.82427 0
M  V30 7645 C 710.977 -0.447241 6.31017 0
M  V30 7646 C 709.641 -0.265314 6.66973 0
M  V30 7647 H 708.911 -0.409648 0.61747 0
M  V30 7648 H 711.558 -0.402492 1.87222 0
M  V30 7649 H 709.863 -2.89322 2.64197 0
M  V30 7650 H 711.56 -2.68833 2.97539 0
M  V30 7651 H 708.15 -1.64437 3.95801 0
M  V30 7652 H 712.334 -1.17855 4.82104 0
M  V30 7653 H 707.59 -0.554132 6.08884 0
M  V30 7654 H 711.764 -0.0958064 6.96334 0
M  V30 7655 H 709.391 0.222267 7.59875 0
M  V30 7656 N 710.966 -1.44241 -0.634997 0
M  V30 7657 C 711.876 -1.53293 -1.77591 0
M  V30 7658 C 712.892 -0.418831 -1.68884 0
M  V30 7659 O 714.068 -0.675619 -1.8973 0
M  V30 7660 C 711.133 -1.47075 -3.13958 0
M  V30 7661 C 710.194 -2.69304 -3.34326 0
M  V30 7662 C 709.427 -2.63374 -4.64187 0
M  V30 7663 O 709.65 -1.69161 -5.44739 0
M  V30 7664 O 708.584 -3.54166 -4.86673 0
M  V30 7665 H 712.41 -2.49673 -1.72908 0
M  V30 7666 H 709.995 -1.26445 -0.795745 0
M  V30 7667 H 711.877 -1.46117 -3.95257 0
M  V30 7668 H 710.552 -0.538373 -3.19192 0
M  V30 7669 H 709.459 -2.75831 -2.52721 0
M  V30 7670 H 710.792 -3.61576 -3.33951 0
M  V30 7671 N 712.444 0.87505 -1.31075 0
M  V30 7672 C 713.392 2.00317 -1.18219 0
M  V30 7673 C 714.386 1.69152 -0.0916872 0
M  V30 7674 O 715.592 1.7821 -0.253229 0
M  V30 7675 H 711.967 0.656981 -0.365895 0
M  V30 7676 H 713.938 2.08293 -2.13674 0
M  V30 7677 C 712.687 3.35821 -0.901095 0
M  V30 7678 H 712.01 3.6032 -1.73233 0
M  V30 7679 H 713.45 4.15366 -0.851295 0
M  V30 7680 C 711.909 3.34563 0.396114 0
M  V30 7681 O 712.439 3.75971 1.41452 0
M  V30 7682 N 710.645 2.87681 0.410832 0
M  V30 7683 H 710.192 2.54179 -0.418415 0
M  V30 7684 H 710.15 2.87223 1.27869 0
M  V30 7685 N 713.922 1.13953 1.08869 0
M  V30 7686 C 714.869 0.82213 2.15661 0
M  V30 7687 C 715.839 -0.218274 1.6466 0
M  V30 7688 O 717.024 -0.0892475 1.90591 0
M  V30 7689 C 714.164 0.300572 3.43789 0
M  V30 7690 C 713.277 1.40071 4.08661 0
M  V30 7691 C 712.412 0.836897 5.24566 0
M  V30 7692 C 711.451 1.91504 5.81371 0
M  V30 7693 N 710.588 1.36875 6.88629 0
M  V30 7694 H 715.428 1.73683 2.42153 0
M  V30 7695 H 712.965 0.866879 1.18843 0
M  V30 7696 H 714.923 -0.0199943 4.17195 0
M  V30 7697 H 713.553 -0.577248 3.17597 0
M  V30 7698 H 712.605 1.83776 3.33062 0
M  V30 7699 H 713.917 2.21534 4.46905 0
M  V30 7700 H 713.071 0.467953 6.04893 0
M  V30 7701 H 711.81 -0.00874207 4.87699 0
M  V30 7702 H 710.815 2.29299 4.99702 0
M  V30 7703 H 712.04 2.76419 6.20298 0
M  V30 7704 H 709.986 0.545211 6.5373 0
M  V30 7705 H 709.903 2.1198 7.25672 0
M  V30 7706 H 711.171 1.02756 7.72698 0
M  V30 7707 N 715.4 -1.26948 0.933913 0
M  V30 7708 C 716.33 -2.29017 0.45534 0
M  V30 7709 C 717.311 -1.62961 -0.487605 0
M  V30 7710 O 718.496 -1.90223 -0.391022 0
M  V30 7711 C 715.626 -3.46112 -0.287015 0
M  V30 7712 C 714.58 -4.24205 0.568682 0
M  V30 7713 C 713.906 -5.3384 -0.303206 0
M  V30 7714 C 715.206 -4.88954 1.83633 0
M  V30 7715 H 716.9 -2.69298 1.30839 0
M  V30 7716 H 714.446 -1.29459 0.630579 0
M  V30 7717 H 716.399 -4.16622 -0.6328 0
M  V30 7718 H 715.123 -3.04765 -1.17414 0
M  V30 7719 H 713.782 -3.5545 0.897261 0
M  V30 7720 H 713.43 -4.88734 -1.18947 0
M  V30 7721 H 713.13 -5.86998 0.265879 0
M  V30 7722 H 714.654 -6.0719 -0.644423 0
M  V30 7723 H 716.068 -5.51717 1.55823 0
M  V30 7724 H 714.465 -5.52198 2.34941 0
M  V30 7725 H 715.535 -4.12305 2.55211 0
M  V30 7726 N 716.879 -0.700114 -1.41195 0
M  V30 7727 C 718.128 -0.230082 -2.00383 0
M  V30 7728 C 718.441 1.17857 -1.56106 0
M  V30 7729 O 719.647 1.74631 -2.07885 0
M  V30 7730 C 718.103 -0.360447 -3.5809 0
M  V30 7731 C 717.711 -1.77475 -4.11347 0
M  V30 7732 C 719.455 0.0495799 -4.24471 0
M  V30 7733 C 717.362 -1.85653 -5.61504 0
M  V30 7734 H 716.292 -0.0822633 -0.749499 0
M  V30 7735 H 718.943 -0.868969 -1.6162 0
M  V30 7736 H 717.325 0.346768 -3.94479 0
M  V30 7737 H 718.499 -2.51109 -3.86369 0
M  V30 7738 H 716.814 -2.13486 -3.57509 0
M  V30 7739 H 719.411 0.00898219 -5.34699 0
M  V30 7740 H 719.754 1.08904 -4.01803 0
M  V30 7741 H 720.287 -0.607521 -3.93134 0
M  V30 7742 H 717.026 -2.87667 -5.89006 0
M  V30 7743 H 716.546 -1.1641 -5.88395 0
M  V30 7744 H 718.225 -1.62151 -6.26351 0
M  V30 7745 N 718.357 1.51182 -0.445186 0
M  V30 7746 C 719.304 2.27939 0.362291 0
M  V30 7747 C 720.274 1.31864 1.01 0
M  V30 7748 O 721.459 1.60776 1.02741 0
M  V30 7749 C 718.599 3.13016 1.45311 0
M  V30 7750 C 717.712 4.24093 0.822757 0
M  V30 7751 C 716.847 4.96467 1.88928 0
M  V30 7752 C 715.886 5.99454 1.23778 0
M  V30 7753 N 715.023 6.65206 2.24602 0
M  V30 7754 H 719.863 2.965 -0.29862 0
M  V30 7755 H 717.4 1.46237 -0.15911 0
M  V30 7756 H 719.358 3.60673 2.09692 0
M  V30 7757 H 717.988 2.46553 2.08354 0
M  V30 7758 H 717.04 3.80341 0.0670364 0
M  V30 7759 H 718.352 4.97853 0.307184 0
M  V30 7760 H 717.506 5.47712 2.60953 0
M  V30 7761 H 716.245 4.22355 2.4386 0
M  V30 7762 H 715.25 5.47494 0.503042 0
M  V30 7763 H 716.475 6.75527 0.695694 0
M  V30 7764 H 714.421 5.93901 2.78599 0
M  V30 7765 H 714.338 7.34756 1.77958 0
M  V30 7766 H 715.606 7.21078 2.96085 0
M  V30 7767 N 719.835 0.176821 1.56605 0
M  V30 7768 C 721.06 -0.47599 2.01864 0
M  V30 7769 C 721.485 -1.55645 1.05623 0
M  V30 7770 O 720.843 -1.81263 0.0366729 0
M  V30 7771 C 720.891 -1.02619 3.4569 0
M  V30 7772 O 719.995 -2.13996 3.52533 0
M  V30 7773 H 719.336 -0.113363 0.654251 0
M  V30 7774 H 721.866 0.28233 2.02643 0
M  V30 7775 H 721.876 -1.34742 3.85109 0
M  V30 7776 H 720.551 -0.235138 4.15235 0
M  V30 7777 H 719.128 -1.82876 3.24978 0
M  V30 7778 N 721.313 -1.57302 -0.09688 0
M  V30 7779 C 722.223 -2.05258 -1.13606 0
M  V30 7780 C 723.239 -0.977137 -1.43972 0
M  V30 7781 O 724.415 -1.29018 -1.54649 0
M  V30 7782 C 721.48 -2.46593 -2.43706 0
M  V30 7783 C 720.541 -3.68322 -2.20538 0
M  V30 7784 C 719.774 -4.07676 -3.44435 0
M  V30 7785 O 719.997 -3.47141 -4.52603 0
M  V30 7786 O 718.931 -5.00641 -3.34129 0
M  V30 7787 H 722.757 -2.94069 -0.758752 0
M  V30 7788 H 720.342 -1.46164 -0.309263 0
M  V30 7789 H 722.224 -2.73814 -3.20318 0
M  V30 7790 H 720.899 -1.6092 -2.80867 0
M  V30 7791 H 719.806 -3.4622 -1.41713 0
M  V30 7792 H 721.139 -4.54769 -1.88271 0
M  V30 7793 N 722.791 0.367657 -1.53252 0
M  V30 7794 C 723.701 1.47415 -1.82499 0
M  V30 7795 C 724.717 1.58711 -0.713222 0
M  V30 7796 O 725.893 1.74644 -1.00306 0
M  V30 7797 C 722.958 2.82706 -2.00694 0
M  V30 7798 C 722.019 2.80955 -3.24596 0
M  V30 7799 C 721.252 4.09793 -3.41914 0
M  V30 7800 O 721.475 5.05852 -2.63572 0
M  V30 7801 O 720.409 4.15731 -4.3526 0
M  V30 7802 H 724.235 1.25624 -2.765 0
M  V30 7803 H 721.82 0.557559 -1.38606 0
M  V30 7804 H 723.702 3.62873 -2.14246 0
M  V30 7805 H 722.377 3.04479 -1.09883 0
M  V30 7806 H 721.284 1.99494 -3.16469 0
M  V30 7807 H 722.617 2.64136 -4.15323 0
M  V30 7808 N 724.269 1.44576 0.627338 0
M  V30 7809 C 725.518 1.46837 1.38281 0
M  V30 7810 C 725.831 0.10635 1.95311 0
M  V30 7811 O 727.037 0.00651084 2.71499 0
M  V30 7812 C 725.493 2.58527 2.50384 0
M  V30 7813 C 725.101 4.00953 1.99851 0
M  V30 7814 C 726.845 2.70013 3.27557 0
M  V30 7815 C 724.752 5.0406 3.09318 0
M  V30 7816 H 723.682 0.546319 0.519664 0
M  V30 7817 H 726.333 1.70654 0.674497 0
M  V30 7818 H 724.715 2.27957 3.23808 0
M  V30 7819 H 725.889 4.41108 1.33267 0
M  V30 7820 H 724.204 3.93743 1.35482 0
M  V30 7821 H 726.801 3.44217 4.09168 0
M  V30 7822 H 727.144 1.75961 3.77284 0
M  V30 7823 H 727.677 3.00011 2.61224 0
M  V30 7824 H 724.416 5.99753 2.6453 0
M  V30 7825 H 723.936 4.68493 3.74532 0
M  V30 7826 H 725.615 5.2793 3.74031 0
M  V30 7827 N 725.747 -0.868086 1.31537 0
M  V30 7828 C 726.694 -1.97548 1.19346 0
M  V30 7829 C 727.664 -1.65913 0.0787922 0
M  V30 7830 O 728.849 -1.89129 0.251985 0
M  V30 7831 C 725.989 -3.32922 0.908692 0
M  V30 7832 C 725.102 -3.77141 2.10687 0
M  V30 7833 C 724.237 -5.01241 1.75873 0
M  V30 7834 C 723.276 -5.37914 2.92088 0
M  V30 7835 N 722.413 -6.53192 2.57457 0
M  V30 7836 H 727.253 -2.07307 2.14074 0
M  V30 7837 H 724.79 -1.01483 1.06487 0
M  V30 7838 H 726.748 -4.10867 0.724138 0
M  V30 7839 H 725.378 -3.228 -0.0017611 0
M  V30 7840 H 724.43 -2.94961 2.40213 0
M  V30 7841 H 725.742 -4.00248 2.97663 0
M  V30 7842 H 724.896 -5.86858 1.53891 0
M  V30 7843 H 723.635 -4.80041 0.86091 0
M  V30 7844 H 722.64 -4.50814 3.14717 0
M  V30 7845 H 723.865 -5.61077 3.82582 0
M  V30 7846 H 721.811 -6.33536 1.702 0
M  V30 7847 H 721.728 -6.76252 3.37963 0
M  V30 7848 H 722.996 -7.41997 2.38873 0
M  V30 7849 N 727.225 -1.14528 -1.08264 0
M  V30 7850 C 728.502 -0.825185 -1.77342 0
M  V30 7851 C 728.882 0.681037 -1.99813 0
M  V30 7852 O 728.23 1.62234 -1.60912 0
M  V30 7853 C 728.44 -1.62556 -3.08831 0
M  V30 7854 C 729.788 -1.82585 -3.83338 0
M  V30 7855 O 730.812 -1.59254 -3.18617 0
M  V30 7856 O 729.671 -2.21598 -4.99556 0
M  V30 7857 H 726.765 -0.302531 -0.769678 0
M  V30 7858 H 729.311 -1.25056 -1.14713 0
M  V30 7859 H 728.083 -2.64862 -2.88035 0
M  V30 7860 H 727.706 -1.1959 -3.79189 0
M  V30 7861 N 728.703 1.26451 -0.940633 0
M  V30 7862 C 729.931 1.97868 -0.604642 0
M  V30 7863 C 730.346 1.70051 0.820251 0
M  V30 7864 O 729.703 0.96843 1.54686 0
M  V30 7865 C 729.754 3.51684 -0.836689 0
M  V30 7866 O 729.475 3.78533 -2.20554 0
M  V30 7867 C 730.976 4.40343 -0.511169 0
M  V30 7868 H 728.196 0.631105 -0.227919 0
M  V30 7869 H 730.74 1.60979 -1.26119 0
M  V30 7870 H 728.895 3.86736 -0.226759 0
M  V30 7871 H 729.309 4.73065 -2.26517 0
M  V30 7872 H 730.783 5.47229 -0.724157 0
M  V30 7873 H 731.26 4.35694 0.553815 0
M  V30 7874 H 731.866 4.10834 -1.0998 0
M  V30 7875 N 730.181 0.707592 1.40822 0
M  V30 7876 C 731.43 0.240705 2.00259 0
M  V30 7877 C 731.743 -1.17027 1.56729 0
M  V30 7878 O 732.949 -1.73526 2.08809 0
M  V30 7879 C 731.405 0.379432 3.57894 0
M  V30 7880 C 731.013 1.79654 4.104 0
M  V30 7881 C 732.757 -0.0270684 4.24491 0
M  V30 7882 C 730.664 1.88628 5.60512 0
M  V30 7883 H 729.594 0.0862369 0.749052 0
M  V30 7884 H 732.245 0.877528 1.61157 0
M  V30 7885 H 730.627 -0.325842 3.94657 0
M  V30 7886 H 731.801 2.53155 3.85032 0
M  V30 7887 H 730.116 2.15379 3.56372 0
M  V30 7888 H 732.713 0.0193743 5.34696 0
M  V30 7889 H 733.056 -1.06772 4.02375 0
M  V30 7890 H 733.589 0.628361 3.92806 0
M  V30 7891 H 730.328 2.90787 5.87472 0
M  V30 7892 H 729.848 1.19528 5.8777 0
M  V30 7893 H 731.527 1.6547 6.25483 0
M  V30 7894 N 731.66 -1.50943 0.453197 0
M  V30 7895 C 732.59 -2.31005 -0.34044 0
M  V30 7896 C 733.571 -1.37112 -1.00669 0
M  V30 7897 O 734.756 -1.66033 -1.0073 0
M  V30 7898 C 731.886 -3.16358 -1.433 0
M  V30 7899 C 730.84 -4.18658 -0.889363 0
M  V30 7900 C 730.166 -4.92633 -2.07887 0
M  V30 7901 C 731.466 -5.22227 0.0871142 0
M  V30 7902 H 733.16 -2.97601 0.327723 0
M  V30 7903 H 730.706 -1.43119 0.159054 0
M  V30 7904 H 732.659 -3.71155 -1.99555 0
M  V30 7905 H 731.383 -2.47613 -2.12968 0
M  V30 7906 H 730.042 -3.64936 -0.348915 0
M  V30 7907 H 729.69 -4.20376 -2.76211 0
M  V30 7908 H 729.39 -5.61819 -1.72143 0
M  V30 7909 H 730.914 -5.50258 -2.64666 0
M  V30 7910 H 732.328 -5.72001 -0.385656 0
M  V30 7911 H 730.725 -5.99032 0.357926 0
M  V30 7912 H 731.795 -4.74077 1.01879 0
M  V30 7913 N 733.138 -0.185124 -1.56509 0
M  V30 7914 C 734.07 0.771401 -2.15829 0
M  V30 7915 C 735.083 1.18392 -1.11747 0
M  V30 7916 O 736.272 1.12137 -1.38879 0
M  V30 7917 C 733.372 2.05169 -2.69739 0
M  V30 7918 C 732.545 1.80056 -3.98621 0
M  V30 7919 C 731.604 2.92435 -4.37456 0
M  V30 7920 O 730.63 2.62473 -5.05071 0
M  V30 7921 N 731.832 4.20554 -4.00143 0
M  V30 7922 H 734.597 0.264184 -2.98533 0
M  V30 7923 H 732.158 -0.00281069 -1.619 0
M  V30 7924 H 734.15 2.7947 -2.92709 0
M  V30 7925 H 732.72 2.47041 -1.91545 0
M  V30 7926 H 731.94 0.895862 -3.83885 0
M  V30 7927 H 733.228 1.60662 -4.82768 0
M  V30 7928 H 732.626 4.47753 -3.45736 0
M  V30 7929 H 731.183 4.91514 -4.28085 0
M  V30 7930 N 734.616 1.57351 0.0885366 0
M  V30 7931 C 735.844 1.90631 0.804196 0
M  V30 7932 C 736.259 0.779474 1.71958 0
M  V30 7933 O 735.616 -0.248179 1.80805 0
M  V30 7934 C 735.667 3.23568 1.61202 0
M  V30 7935 O 735.388 4.31917 0.733447 0
M  V30 7936 C 736.889 3.70753 2.43016 0
M  V30 7937 H 734.109 0.630501 0.229585 0
M  V30 7938 H 736.653 2.044 0.0638092 0
M  V30 7939 H 734.808 3.11377 2.30485 0
M  V30 7940 H 735.222 5.08297 1.29361 0
M  V30 7941 H 736.696 4.66447 2.9518 0
M  V30 7942 H 737.173 2.98922 3.2178 0
M  V30 7943 H 737.779 3.85834 1.7892 0
M  V30 7944 N 736.094 -0.359525 1.53444 0
M  V30 7945 C 737.34 -1.10315 1.70172 0
M  V30 7946 C 737.673 -1.88788 0.455287 0
M  V30 7947 O 736.948 -1.86635 -0.547514 0
M  V30 7948 C 737.231 -2.05744 2.95536 0
M  V30 7949 C 737.084 -1.3084 4.3035 0
M  V30 7950 C 738.403 -3.05784 3.16518 0
M  V30 7951 H 735.522 -0.399662 0.619225 0
M  V30 7952 H 738.164 -0.383338 1.86093 0
M  V30 7953 H 736.314 -2.67125 2.82093 0
M  V30 7954 H 737.986 -0.721959 4.55615 0
M  V30 7955 H 736.229 -0.610283 4.29486 0
M  V30 7956 H 736.9 -2.00718 5.14214 0
M  V30 7957 H 739.376 -2.5451 3.29187 0
M  V30 7958 H 738.252 -3.69772 4.05659 0
M  V30 7959 H 738.513 -3.76289 2.32076 0
M  V30 7960 N 737.572 -1.44907 -0.619662 0
M  V30 7961 C 738.849 -1.38766 -1.37852 0
M  V30 7962 C 739.229 -0.0521393 -2.11036 0
M  V30 7963 O 738.577 0.965613 -2.07095 0
M  V30 7964 C 738.787 -2.59344 -2.33541 0
M  V30 7965 C 740.135 -3.03909 -2.96521 0
M  V30 7966 O 741.159 -2.59631 -2.43865 0
M  V30 7967 O 740.018 -3.80713 -3.92071 0
M  V30 7968 H 737.112 -0.550083 -0.617525 0
M  V30 7969 H 739.658 -1.57015 -0.643759 0
M  V30 7970 H 738.43 -3.48142 -1.78642 0
M  V30 7971 H 738.053 -2.43367 -3.14417 0
M  V30 7972 N 739.05 0.861098 -1.31996 0
M  V30 7973 C 739.98 1.98482 -1.22993 0
M  V30 7974 C 740.961 1.6971 -0.115168 0
M  V30 7975 O 742.146 1.91849 -0.30126 0
M  V30 7976 C 739.276 3.34179 -0.945615 0
M  V30 7977 C 738.23 3.77284 -2.02091 0
M  V30 7978 C 737.556 5.1054 -1.58912 0
M  V30 7979 C 738.856 3.93439 -3.43515 0
M  V30 7980 H 740.55 2.06271 -2.17008 0
M  V30 7981 H 738.096 0.991043 -1.04472 0
M  V30 7982 H 740.049 4.12338 -0.869206 0
M  V30 7983 H 738.773 3.26586 0.0301849 0
M  V30 7984 H 737.432 3.01371 -2.08737 0
M  V30 7985 H 737.08 4.99397 -0.600942 0
M  V30 7986 H 736.78 5.40352 -2.30854 0
M  V30 7987 H 738.304 5.91199 -1.52696 0
M  V30 7988 H 739.718 4.6197 -3.39495 0
M  V30 7989 H 738.115 4.34661 -4.13751 0
M  V30 7990 H 739.185 2.96548 -3.8365 0
M  V30 7991 N 740.528 1.15101 1.07655 0
M  V30 7992 C 741.774 0.925343 1.80458 0
M  V30 7993 C 742.107 -0.546354 1.86356 0
M  V30 7994 O 741.382 -1.40496 1.34503 0
M  V30 7995 C 741.665 1.53646 3.25676 0
M  V30 7996 C 741.518 3.07854 3.27942 0
M  V30 7997 C 742.837 1.21968 4.22861 0
M  V30 7998 H 739.956 0.337592 0.655134 0
M  V30 7999 H 742.598 1.42217 1.25993 0
M  V30 8000 H 740.748 1.11395 3.72187 0
M  V30 8001 H 742.42 3.58989 2.89697 0
M  V30 8002 H 740.663 3.41904 2.66991 0
M  V30 8003 H 741.334 3.45725 4.30324 0
M  V30 8004 H 743.81 1.5851 3.84726 0
M  V30 8005 H 742.686 1.67349 5.22767 0
M  V30 8006 H 742.947 0.136207 4.4189 0
M  V30 8007 N 742.006 -1.2595 0.947325 0
M  V30 8008 C 743.231 -1.98083 0.614633 0
M  V30 8009 C 743.656 -1.70013 -0.804815 0
M  V30 8010 O 743.014 -0.95175 -1.54309 0
M  V30 8011 C 743.062 -3.4993 0.870706 0
M  V30 8012 O 742.166 -4.12364 -0.0541451 0
M  V30 8013 H 741.507 -0.621232 0.234451 0
M  V30 8014 H 744.037 -1.60259 1.27193 0
M  V30 8015 H 744.047 -4.00198 0.794051 0
M  V30 8016 H 742.722 -3.69691 1.90529 0
M  V30 8017 H 741.299 -3.72826 0.0740917 0
M  V30 8018 N 743.484 -0.715051 -1.40445 0
M  V30 8019 C 744.416 -0.0227516 -2.29189 0
M  V30 8020 C 745.429 0.724313 -1.458 0
M  V30 8021 O 746.618 0.571781 -1.69094 0
M  V30 8022 C 743.718 0.992038 -3.24055 0
M  V30 8023 C 742.891 0.310613 -4.36296 0
M  V30 8024 C 741.95 1.23071 -5.11605 0
M  V30 8025 O 740.976 0.71571 -5.64682 0
M  V30 8026 N 742.178 2.56188 -5.2091 0
M  V30 8027 H 744.943 -0.78473 -2.89244 0
M  V30 8028 H 742.504 -0.562637 -1.51809 0
M  V30 8029 H 744.496 1.60973 -3.71308 0
M  V30 8030 H 743.066 1.65538 -2.65171 0
M  V30 8031 H 742.286 -0.487269 -3.91177 0
M  V30 8032 H 743.574 -0.162415 -5.08541 0
M  V30 8033 H 742.972 3.00527 -4.7927 0
M  V30 8034 H 741.529 3.13103 -5.71673 0
M  V30 8035 N 744.962 1.50701 -0.461195 0
M  V30 8036 C 745.872 2.32069 0.343661 0
M  V30 8037 C 746.888 1.42016 1.00535 0
M  V30 8038 O 748.064 1.75077 0.995498 0
M  V30 8039 C 745.129 3.16424 1.41692 0
M  V30 8040 C 744.19 4.22286 0.772869 0
M  V30 8041 C 743.423 5.02609 1.79499 0
M  V30 8042 O 743.646 4.83874 3.0203 0
M  V30 8043 O 742.58 5.86047 1.3723 0
M  V30 8044 H 746.406 3.01996 -0.321268 0
M  V30 8045 H 743.991 1.47723 -0.223235 0
M  V30 8046 H 745.873 3.68795 2.03883 0
M  V30 8047 H 744.548 2.49236 2.0655 0
M  V30 8048 H 743.455 3.73931 0.112277 0
M  V30 8049 H 744.788 4.91915 0.167399 0
M  V30 8050 N 746.441 0.193421 1.56409 0
M  V30 8051 C 747.669 -0.451438 2.01915 0
M  V30 8052 C 748.084 -1.55306 1.07357 0
M  V30 8053 O 747.441 -1.82333 0.0781512 0
M  V30 8054 C 747.492 -1.00931 3.47124 0
M  V30 8055 O 747.213 0.0483623 4.38073 0
M  V30 8056 C 748.714 -1.73021 4.0814 0
M  V30 8057 H 745.934 -0.113495 0.661332 0
M  V30 8058 H 748.478 0.301636 2.02263 0
M  V30 8059 H 746.633 -1.71277 3.47481 0
M  V30 8060 H 747.047 -0.366644 5.23217 0
M  V30 8061 H 748.521 -2.07289 5.11601 0
M  V30 8062 H 748.998 -2.6333 3.51502 0
M  V30 8063 H 749.604 -1.07264 4.11551 0
M  V30 8064 N 747.919 -1.57396 -0.0801906 0
M  V30 8065 C 749.167 -1.86467 -0.779384 0
M  V30 8066 C 749.488 -0.784243 -1.78535 0
M  V30 8067 O 748.758 0.187986 -1.94996 0
M  V30 8068 H 747.338 -0.68806 -0.29083 0
M  V30 8069 H 750 -1.94813 -0.0582749 0
M  V30 8070 H 749.096 -2.83701 -1.30078 0
M  V30 8071 N 749.397 0.351382 -1.53633 0
M  V30 8072 C 750.307 1.45471 -1.84052 0
M  V30 8073 C 751.323 1.57945 -0.730015 0
M  V30 8074 O 752.499 1.73571 -1.02153 0
M  V30 8075 C 749.564 2.80562 -2.03681 0
M  V30 8076 C 748.625 2.77497 -3.27558 0
M  V30 8077 C 747.858 4.06144 -3.46241 0
M  V30 8078 O 748.081 5.03028 -2.68922 0
M  V30 8079 O 747.015 4.11092 -4.39645 0
M  V30 8080 H 750.841 1.22684 -2.77817 0
M  V30 8081 H 748.426 0.542827 -1.3919 0
M  V30 8082 H 750.308 3.6058 -2.18082 0
M  V30 8083 H 748.983 3.03296 -1.13106 0
M  V30 8084 H 747.89 1.96126 -3.18568 0
M  V30 8085 H 749.223 2.59716 -4.18101 0
M  V30 8086 N 750.875 1.45233 0.611969 0
M  V30 8087 C 751.822 1.5357 1.72293 0
M  V30 8088 C 752.792 0.381912 1.6165 0
M  V30 8089 O 753.977 0.594765 1.81293 0
M  V30 8090 C 751.117 1.50419 3.10593 0
M  V30 8091 C 750.23 2.76316 3.32074 0
M  V30 8092 C 749.365 2.64866 4.60456 0
M  V30 8093 C 748.404 3.85838 4.7518 0
M  V30 8094 N 747.541 3.72949 5.94856 0
M  V30 8095 H 752.381 2.4848 1.64504 0
M  V30 8096 H 749.918 1.23302 0.802191 0
M  V30 8097 H 751.876 1.4658 3.90602 0
M  V30 8098 H 750.506 0.590621 3.17351 0
M  V30 8099 H 749.558 2.90261 2.45872 0
M  V30 8100 H 750.87 3.66055 3.38829 0
M  V30 8101 H 750.024 2.58969 5.48653 0
M  V30 8102 H 748.763 1.72719 4.56092 0
M  V30 8103 H 747.768 3.92099 3.85407 0
M  V30 8104 H 748.993 4.79045 4.81344 0
M  V30 8105 H 746.939 2.83567 5.91545 0
M  V30 8106 H 746.856 4.56319 6.02751 0
M  V30 8107 H 748.124 3.70976 6.85563 0
M  V30 8108 N 752.353 -0.854086 1.3245 0
M  V30 8109 C 753.263 -1.99503 1.23434 0
M  V30 8110 C 754.279 -1.73371 0.147828 0
M  V30 8111 O 755.455 -1.97998 0.368609 0
M  V30 8112 C 752.52 -3.33192 0.958328 0
M  V30 8113 C 751.581 -3.72542 2.13333 0
M  V30 8114 C 750.814 -4.99852 1.8704 0
M  V30 8115 O 751.037 -5.64573 0.813239 0
M  V30 8116 O 749.971 -5.36345 2.73161 0
M  V30 8117 H 753.797 -2.10046 2.1935 0
M  V30 8118 H 751.382 -0.984823 1.12346 0
M  V30 8119 H 753.264 -4.13327 0.820918 0
M  V30 8120 H 751.939 -3.23687 0.0293299 0
M  V30 8121 H 750.846 -2.92981 2.32622 0
M  V30 8122 H 752.179 -3.86694 3.04514 0
M  V30 8123 N 753.831 -1.1567 -1.07043 0
M  V30 8124 C 754.794 -0.858906 -2.12498 0
M  V30 8125 C 755.794 0.142735 -1.60165 0
M  V30 8126 O 756.984 -0.0872678 -1.73981 0
M  V30 8127 C 754.116 -0.283021 -3.39723 0
M  V30 8128 H 755.309 -1.79368 -2.40348 0
M  V30 8129 H 752.862 -0.964608 -1.22984 0
M  V30 8130 H 753.597 0.659796 -3.17517 0
M  V30 8131 H 753.382 -1.00467 -3.7901 0
M  V30 8132 H 754.872 -0.0923543 -4.17498 0
M  V30 8133 N 755.309 1.25446 -0.953992 0
M  V30 8134 C 756.257 2.27909 -0.46478 0
M  V30 8135 C 757.251 1.62904 0.464607 0
M  V30 8136 O 758.457 1.76733 0.341407 0
M  V30 8137 H 754.832 0.74036 -0.131798 0
M  V30 8138 H 756.803 2.66559 -1.34122 0
M  V30 8139 C 755.552 3.46853 0.242589 0
M  V30 8140 H 754.875 3.97105 -0.463418 0
M  V30 8141 H 756.315 4.20432 0.548919 0
M  V30 8142 C 754.774 3.03386 1.46487 0
M  V30 8143 O 755.304 3.09342 2.56262 0
M  V30 8144 N 753.51 2.58584 1.32599 0
M  V30 8145 H 753.057 2.53938 0.432834 0
M  V30 8146 H 753.015 2.29866 2.14497 0
M  V30 8147 N 756.787 0.722489 1.40064 0
M  V30 8148 C 758.036 0.261932 1.99992 0
M  V30 8149 C 758.349 -1.15358 1.57961 0
M  V30 8150 O 759.555 -1.71301 2.10637 0
M  V30 8151 C 758.011 0.41737 3.57472 0
M  V30 8152 C 757.619 1.83997 4.08472 0
M  V30 8153 C 759.363 0.0179561 4.24496 0
M  V30 8154 C 757.27 1.94563 5.5848 0
M  V30 8155 H 756.2 0.0941768 0.748095 0
M  V30 8156 H 758.851 0.894572 1.60218 0
M  V30 8157 H 757.233 -0.283965 3.94981 0
M  V30 8158 H 758.407 2.57224 3.82325 0
M  V30 8159 H 756.722 2.19147 3.54067 0
M  V30 8160 H 759.319 0.076085 5.34646 0
M  V30 8161 H 759.662 -1.02498 4.03485 0
M  V30 8162 H 760.195 0.669988 3.92117 0
M  V30 8163 H 756.934 2.97001 5.84355 0
M  V30 8164 H 756.454 1.25756 5.86469 0
M  V30 8165 H 758.133 1.72095 6.23692 0
M  V30 8166 N 758.265 -1.50454 0.469181 0
M  V30 8167 C 759.197 -2.26319 -0.362247 0
M  V30 8168 C 760.21 -1.31574 -0.958751 0
M  V30 8169 O 761.399 -1.57099 -0.847482 0
M  V30 8170 C 758.499 -3.02808 -1.52187 0
M  V30 8171 C 757.672 -4.24893 -1.03849 0
M  V30 8172 C 756.731 -4.83691 -2.07194 0
M  V30 8173 O 755.757 -5.44659 -1.65333 0
M  V30 8174 N 756.959 -4.70522 -3.39985 0
M  V30 8175 H 759.724 -2.98312 0.288124 0
M  V30 8176 H 757.285 -1.59099 0.299856 0
M  V30 8177 H 759.277 -3.39023 -2.21011 0
M  V30 8178 H 757.847 -2.33625 -2.07697 0
M  V30 8179 H 757.067 -3.93806 -0.176203 0
M  V30 8180 H 758.355 -5.04053 -0.693435 0
M  V30 8181 H 757.753 -4.2203 -3.76706 0
M  V30 8182 H 756.31 -5.11011 -4.04612 0
M  V30 8183 N 759.743 -0.201713 -1.56304 0
M  V30 8184 C 760.706 0.702811 -2.18159 0
M  V30 8185 C 761.706 1.13619 -1.13787 0
M  V30 8186 O 762.896 1.0482 -1.39134 0
M  V30 8187 C 760.028 1.96032 -2.78898 0
M  V30 8188 H 761.221 0.163836 -2.99452 0
M  V30 8189 H 758.774 0.04791 -1.56227 0
M  V30 8190 H 759.509 2.54165 -2.01421 0
M  V30 8191 H 759.294 1.65824 -3.55309 0
M  V30 8192 H 760.784 2.60519 -3.26373 0
M  V30 8193 N 761.222 1.57436 0.0718424 0
M  V30 8194 C 762.468 1.87525 0.772149 0
M  V30 8195 C 762.801 0.79399 1.77227 0
M  V30 8196 O 762.076 -0.195733 1.93513 0
M  V30 8197 C 762.359 3.28272 1.48018 0
M  V30 8198 C 762.212 4.47052 0.49647 0
M  V30 8199 C 763.531 3.67256 2.42509 0
M  V30 8200 H 760.65 0.682049 0.279245 0
M  V30 8201 H 763.292 1.89967 0.03534 0
M  V30 8202 H 761.442 3.26321 2.10824 0
M  V30 8203 H 763.114 4.61127 -0.126375 0
M  V30 8204 H 761.357 4.33392 -0.188205 0
M  V30 8205 H 762.028 5.42315 1.02949 0
M  V30 8206 H 764.504 3.70301 1.89781 0
M  V30 8207 H 763.38 4.66626 2.89053 0
M  V30 8208 H 763.641 2.97186 3.27312 0
M  V30 8209 N 762.7 -0.34323 1.53817 0
M  V30 8210 C 763.977 -1.10047 1.61706 0
M  V30 8211 C 764.357 -2.06495 0.438514 0
M  V30 8212 O 763.705 -2.21297 -0.569188 0
M  V30 8213 C 763.915 -1.81985 2.97796 0
M  V30 8214 C 765.263 -2.35717 3.53161 0
M  V30 8215 O 766.287 -1.9208 2.99973 0
M  V30 8216 O 765.146 -3.15551 4.46195 0
M  V30 8217 H 762.24 -0.506096 0.654061 0
M  V30 8218 H 764.786 -0.344697 1.66162 0
M  V30 8219 H 763.558 -1.11722 3.75012 0
M  V30 8220 H 763.181 -2.64419 2.96931 0
M  V30 8221 N 764.178 -1.45556 -0.604258 0
M  V30 8222 C 765.403 -1.53509 -1.39462 0
M  V30 8223 C 765.828 -0.169638 -1.87333 0
M  V30 8224 O 765.186 0.846346 -1.60333 0
M  V30 8225 C 765.234 -2.52654 -2.5729 0
M  V30 8226 O 764.338 -2.04666 -3.5803 0
M  V30 8227 H 763.679 -0.517355 -0.416221 0
M  V30 8228 H 766.209 -1.90939 -0.735072 0
M  V30 8229 H 766.219 -2.71568 -3.04491 0
M  V30 8230 H 764.894 -3.51823 -2.21797 0
M  V30 8231 H 763.471 -1.95643 -3.17456 0
M  V30 8232 N 765.656 0.84705 -1.32902 0
M  V30 8233 C 766.566 1.98845 -1.2449 0
M  V30 8234 C 767.582 1.7329 -0.15702 0
M  V30 8235 O 768.758 1.978 -0.379104 0
M  V30 8236 C 765.823 3.32679 -0.975985 0
M  V30 8237 C 764.884 3.71405 -2.15306 0
M  V30 8238 C 764.117 4.98853 -1.89688 0
M  V30 8239 O 764.34 5.64134 -0.843168 0
M  V30 8240 O 763.274 5.34889 -2.76002 0
M  V30 8241 H 767.1 2.0888 -2.2046 0
M  V30 8242 H 764.685 0.978852 -1.12867 0
M  V30 8243 H 766.567 4.12885 -0.842826 0
M  V30 8244 H 765.242 3.23667 -0.0464954 0
M  V30 8245 H 764.149 2.91743 -2.34172 0
M  V30 8246 H 765.482 3.85073 -3.06561 0
M  V30 8247 N 767.134 1.16236 1.06428 0
M  V30 8248 C 768.38 0.944431 1.79467 0
M  V30 8249 C 768.713 -0.526558 1.86925 0
M  V30 8250 O 767.988 -1.39061 1.35986 0
M  V30 8251 C 768.271 1.57092 3.24028 0
M  V30 8252 C 768.124 3.11315 3.24658 0
M  V30 8253 C 769.443 1.26447 4.21544 0
M  V30 8254 H 766.562 0.344521 0.651517 0
M  V30 8255 H 769.204 1.43545 1.24478 0
M  V30 8256 H 767.354 1.15337 3.70985 0
M  V30 8257 H 769.026 3.62042 2.85873 0
M  V30 8258 H 767.269 3.44716 2.6335 0
M  V30 8259 H 767.94 3.50269 4.26633 0
M  V30 8260 H 770.416 1.62581 3.83023 0
M  V30 8261 H 769.292 1.72885 5.20963 0
M  V30 8262 H 769.553 0.183068 4.41721 0
M  V30 8263 N 768.612 -1.24939 0.960631 0
M  V30 8264 C 769.86 -1.92437 0.617441 0
M  V30 8265 C 770.181 -1.75543 -0.849101 0
M  V30 8266 O 769.451 -1.12269 -1.60538 0
M  V30 8267 H 768.031 -0.712192 0.225371 0
M  V30 8268 H 770.693 -1.5198 1.22017 0
M  V30 8269 H 769.789 -3.00247 0.851933 0
M  V30 8270 N 770.09 -0.729906 -1.39679 0
M  V30 8271 C 771.02 -0.101618 -2.33279 0
M  V30 8272 C 772.001 0.729854 -1.53646 0
M  V30 8273 O 773.186 0.67587 -1.82059 0
M  V30 8274 C 770.316 0.81024 -3.37716 0
M  V30 8275 C 769.27 0.0833126 -4.27919 0
M  V30 8276 C 768.596 1.11185 -5.23012 0
M  V30 8277 C 769.896 -1.07107 -5.112 0
M  V30 8278 H 771.59 -0.883452 -2.86069 0
M  V30 8279 H 769.136 -0.426283 -1.37546 0
M  V30 8280 H 771.089 1.25927 -4.02145 0
M  V30 8281 H 769.813 1.62413 -2.83354 0
M  V30 8282 H 768.472 -0.346043 -3.64963 0
M  V30 8283 H 768.12 1.91917 -4.64948 0
M  V30 8284 H 767.82 0.63026 -5.8421 0
M  V30 8285 H 769.344 1.56068 -5.90318 0
M  V30 8286 H 770.758 -0.700726 -5.69002 0
M  V30 8287 H 769.155 -1.48196 -5.81514 0
M  V30 8288 H 770.225 -1.89513 -4.46332 0
M  V30 8289 N 771.568 1.50203 -0.477153 0
M  V30 8290 C 772.796 2.0677 0.0732489 0
M  V30 8291 C 773.211 1.34033 1.32968 0
M  V30 8292 O 772.568 0.411412 1.77802 0
M  V30 8293 C 772.619 3.59751 0.35518 0
M  V30 8294 O 772.34 4.29747 -0.851425 0
M  V30 8295 C 773.841 4.3296 0.951877 0
M  V30 8296 H 771.061 0.670929 -0.00978923 0
M  V30 8297 H 773.605 1.93293 -0.667676 0
M  V30 8298 H 771.76 3.7301 1.04605 0
M  V30 8299 H 772.174 5.2106 -0.599708 0
M  V30 8300 H 773.648 5.40952 1.09888 0
M  V30 8301 H 774.125 3.93856 1.94356 0
M  V30 8302 H 774.731 4.24246 0.299208 0
M  V30 8303 N 773.046 0.209999 1.56195 0
M  V30 8304 C 773.993 -0.704854 2.19774 0
M  V30 8305 C 774.963 -1.19886 1.14964 0
M  V30 8306 O 776.148 -1.26005 1.43274 0
M  V30 8307 C 773.288 -1.91241 2.87265 0
M  V30 8308 C 772.401 -1.45838 4.06639 0
M  V30 8309 C 771.536 -2.6226 4.61945 0
M  V30 8310 C 770.575 -2.13537 5.73645 0
M  V30 8311 N 769.712 -3.2319 6.23292 0
M  V30 8312 H 774.552 -0.155944 2.97592 0
M  V30 8313 H 772.089 -0.0652235 1.46955 0
M  V30 8314 H 774.047 -2.62123 3.24573 0
M  V30 8315 H 772.677 -2.43439 2.11985 0
M  V30 8316 H 771.729 -0.644897 3.74894 0
M  V30 8317 H 773.041 -1.06103 4.87384 0
M  V30 8318 H 772.195 -3.41243 5.01636 0
M  V30 8319 H 770.934 -3.05278 3.80338 0
M  V30 8320 H 769.939 -1.33013 5.33468 0
M  V30 8321 H 771.164 -1.71533 6.57079 0
M  V30 8322 H 769.11 -3.65711 5.44602 0
M  V30 8323 H 769.027 -2.8767 6.99129 0
M  V30 8324 H 770.295 -4.02342 6.67639 0
M  V30 8325 N 774.524 -1.57472 -0.0634922 0
M  V30 8326 C 775.434 -2.07621 -1.09227 0
M  V30 8327 C 776.45 -1.00746 -1.41867 0
M  V30 8328 O 777.626 -1.32269 -1.51878 0
M  V30 8329 C 774.691 -2.51707 -2.38421 0
M  V30 8330 C 773.752 -3.72917 -2.12676 0
M  V30 8331 C 772.985 -4.14891 -3.3571 0
M  V30 8332 O 773.208 -3.56663 -4.45137 0
M  V30 8333 O 772.142 -5.07616 -3.23434 0
M  V30 8334 H 775.968 -2.95612 -0.696205 0
M  V30 8335 H 773.553 -1.46787 -0.27819 0
M  V30 8336 H 775.435 -2.80547 -3.14438 0
M  V30 8337 H 774.11 -1.66842 -2.77391 0
M  V30 8338 H 773.017 -3.49148 -1.34337 0
M  V30 8339 H 774.35 -4.5866 -1.78583 0
M  V30 8340 N 776.003 0.335068 -1.53997 0
M  V30 8341 C 777.28 1.09188 -1.62288 0
M  V30 8342 C 777.66 2.0626 -0.449458 0
M  V30 8343 O 777.008 2.21596 0.557444 0
M  V30 8344 C 777.218 1.80403 -2.98757 0
M  V30 8345 C 778.566 2.33841 -3.54406 0
M  V30 8346 O 779.59 1.90487 -3.00987 0
M  V30 8347 O 778.449 3.1318 -4.47862 0
M  V30 8348 H 775.543 0.502621 -0.656736 0
M  V30 8349 H 778.089 0.33588 -1.66343 0
M  V30 8350 H 776.861 1.09732 -3.75599 0
M  V30 8351 H 776.484 2.62841 -2.9833 0
M  V30 8352 N 777.481 1.45874 0.596531 0
M  V30 8353 C 778.709 1.54013 1.38158 0
M  V30 8354 C 779.124 0.17648 1.87973 0
M  V30 8355 O 778.481 -0.823895 1.62844 0
M  V30 8356 C 778.532 2.53363 2.57855 0
M  V30 8357 O 778.253 3.8443 2.10108 0
M  V30 8358 C 779.754 2.71308 3.50581 0
M  V30 8359 H 776.974 0.521251 0.422538 0
M  V30 8360 H 779.518 1.9116 0.726493 0
M  V30 8361 H 777.673 2.19257 3.19382 0
M  V30 8362 H 778.087 4.38384 2.87958 0
M  V30 8363 H 779.561 3.44776 4.31084 0
M  V30 8364 H 780.038 1.77728 4.01633 0
M  V30 8365 H 780.644 3.06455 2.94899 0
M  V30 8366 N 778.959 -0.83999 1.33349 0
M  V30 8367 C 779.891 -1.95678 1.19344 0
M  V30 8368 C 780.904 -1.62322 0.124692 0
M  V30 8369 O 782.093 -1.74516 0.375012 0
M  V30 8370 C 779.193 -3.29133 0.807771 0
M  V30 8371 C 778.366 -3.9063 1.96792 0
M  V30 8372 C 777.425 -5.02438 1.56341 0
M  V30 8373 O 776.451 -5.21646 2.27759 0
M  V30 8374 N 777.653 -5.78612 0.467767 0
M  V30 8375 H 780.418 -2.08229 2.15548 0
M  V30 8376 H 777.979 -1.01566 1.26079 0
M  V30 8377 H 779.971 -4.01355 0.519282 0
M  V30 8378 H 778.541 -3.12535 -0.063555 0
M  V30 8379 H 777.761 -3.11011 2.4221 0
M  V30 8380 H 779.049 -4.2845 2.74422 0
M  V30 8381 H 778.447 -5.65559 -0.126324 0
M  V30 8382 H 777.004 -6.51362 0.238945 0
M  V30 8383 N 780.437 -1.16799 -1.0581 0
M  V30 8384 C 781.347 -0.893492 -2.16919 0
M  V30 8385 C 782.363 0.136061 -1.73467 0
M  V30 8386 O 783.539 -0.0417348 -2.01357 0
M  V30 8387 C 780.604 -0.403763 -3.44341 0
M  V30 8388 C 779.665 -1.49914 -4.02274 0
M  V30 8389 C 778.898 -1.03269 -5.23614 0
M  V30 8390 O 779.121 0.115647 -5.70283 0
M  V30 8391 O 778.055 -1.8231 -5.73626 0
M  V30 8392 H 781.881 -1.82274 -2.42919 0
M  V30 8393 H 779.466 -0.948361 -1.1544 0
M  V30 8394 H 781.348 -0.137874 -4.21174 0
M  V30 8395 H 780.023 0.497413 -3.19855 0
M  V30 8396 H 778.93 -1.81883 -3.26909 0
M  V30 8397 H 780.263 -2.3758 -4.31064 0
M  V30 8398 N 781.915 1.24427 -0.967243 0
M  V30 8399 C 782.862 2.25398 -0.496419 0
M  V30 8400 C 783.832 1.59667 0.457781 0
M  V30 8401 O 785.017 1.87213 0.368246 0
M  V30 8402 C 782.157 3.44474 0.207693 0
M  V30 8403 C 781.27 4.24804 -0.785221 0
M  V30 8404 C 780.405 5.31169 -0.0572631 0
M  V30 8405 C 779.444 6.03195 -1.04027 0
M  V30 8406 N 778.581 7.01265 -0.34235 0
M  V30 8407 H 783.421 2.65039 -1.36229 0
M  V30 8408 H 780.958 1.30288 -0.682902 0
M  V30 8409 H 782.916 4.12376 0.632612 0
M  V30 8410 H 781.546 3.05672 1.03752 0
M  V30 8411 H 780.598 3.56445 -1.32858 0
M  V30 8412 H 781.91 4.74599 -1.53483 0
M  V30 8413 H 781.064 6.05205 0.425674 0
M  V30 8414 H 779.803 4.8228 0.725047 0
M  V30 8415 H 778.808 5.27964 -1.53409 0
M  V30 8416 H 780.033 6.54173 -1.82302 0
M  V30 8417 H 777.979 6.54648 0.420993 0
M  V30 8418 H 777.896 7.48939 -1.03084 0
M  V30 8419 H 779.164 7.7941 0.118634 0
M  V30 8420 N 783.393 0.737304 1.3929 0
M  V30 8421 C 784.323 0.113988 2.33222 0
M  V30 8422 C 785.304 -0.721695 1.54031 0
M  V30 8423 O 786.489 -0.666206 1.82415 0
M  V30 8424 C 783.619 -0.792319 3.38141 0
M  V30 8425 C 782.573 -0.0606178 4.27957 0
M  V30 8426 C 781.899 -1.08409 5.23595 0
M  V30 8427 C 783.199 1.09817 5.10625 0
M  V30 8428 H 784.893 0.898611 2.85596 0
M  V30 8429 H 782.439 0.433571 1.37318 0
M  V30 8430 H 784.392 -1.23793 4.02807 0
M  V30 8431 H 783.116 -1.60908 2.84211 0
M  V30 8432 H 781.775 0.365393 3.64775 0
M  V30 8433 H 781.423 -1.89449 4.6596 0
M  V30 8434 H 781.123 -0.599269 5.84536 0
M  V30 8435 H 782.647 -1.52936 5.91137 0
M  V30 8436 H 784.061 0.730892 5.68622 0
M  V30 8437 H 782.458 1.51278 5.80719 0
M  V30 8438 H 783.528 1.91878 4.45321 0
M  V30 8439 N 784.871 -1.49948 0.485112 0
M  V30 8440 C 786.119 -2.01996 -0.0648775 0
M  V30 8441 C 786.44 -1.36819 -1.38945 0
M  V30 8442 O 785.71 -0.518163 -1.88923 0
M  V30 8443 H 784.29 -0.746513 -0.0269662 0
M  V30 8444 H 786.952 -1.84136 0.638733 0
M  V30 8445 H 786.048 -3.11418 -0.20617 0
M  V30 8446 N 786.349 -0.21828 -1.56081 0
M  V30 8447 C 787.259 0.704602 -2.23769 0
M  V30 8448 C 788.275 1.21633 -1.24425 0
M  V30 8449 O 789.451 1.25862 -1.57228 0
M  V30 8450 C 786.516 1.89725 -2.90182 0
M  V30 8451 C 785.577 1.42782 -4.0486 0
M  V30 8452 C 784.81 2.56361 -4.68097 0
M  V30 8453 O 785.033 3.74417 -4.30312 0
M  V30 8454 O 783.967 2.2775 -5.57148 0
M  V30 8455 H 787.793 0.158007 -3.03289 0
M  V30 8456 H 785.378 0.0120279 -1.49395 0
M  V30 8457 H 787.26 2.59382 -3.32113 0
M  V30 8458 H 785.935 2.432 -2.13624 0
M  V30 8459 H 784.842 0.699359 -3.67505 0
M  V30 8460 H 786.175 0.939474 -4.83151 0
M  V30 8461 N 787.827 1.57504 0.0551401 0
M  V30 8462 C 789.104 1.79155 0.785048 0
M  V30 8463 C 789.484 0.809995 1.94942 0
M  V30 8464 O 788.832 -0.153432 2.27984 0
M  V30 8465 C 789.042 3.26134 1.24247 0
M  V30 8466 C 790.39 3.90419 1.66908 0
M  V30 8467 O 791.414 3.30126 1.33772 0
M  V30 8468 O 790.273 4.96523 2.28314 0
M  V30 8469 H 787.367 0.735825 0.377479 0
M  V30 8470 H 789.913 1.69666 0.0339285 0
M  V30 8471 H 788.685 3.89145 0.410089 0
M  V30 8472 H 788.308 3.40411 2.05441 0
M  V30 8473 N 789.305 -0.326896 1.54172 0
M  V30 8474 C 790.582 -1.08326 1.62864 0
M  V30 8475 C 790.962 -2.06018 0.46039 0
M  V30 8476 O 790.31 -2.21889 -0.545685 0
M  V30 8477 C 790.52 -1.78816 2.9971 0
M  V30 8478 C 791.868 -2.31958 3.55641 0
M  V30 8479 O 792.892 -1.88888 3.01993 0
M  V30 8480 O 791.751 -3.10801 4.49517 0
M  V30 8481 H 788.845 -0.499131 0.659392 0
M  V30 8482 H 791.391 -0.327054 1.66519 0
M  V30 8483 H 790.163 -1.07739 3.76176 0
M  V30 8484 H 789.786 -2.61255 2.99719 0
M  V30 8485 N 790.784 -1.46188 -0.588786 0
M  V30 8486 C 791.731 -1.56292 -1.69828 0
M  V30 8487 C 792.701 -0.407581 -1.61022 0
M  V30 8488 O 793.886 -0.623532 -1.80324 0
M  V30 8489 C 791.026 -1.55341 -3.08161 0
M  V30 8490 C 790.139 -2.81564 -3.27636 0
M  V30 8491 C 789.274 -2.72158 -4.56183 0
M  V30 8492 C 788.313 -3.93348 -4.68981 0
M  V30 8493 N 787.45 -3.82365 -5.88848 0
M  V30 8494 H 792.29 -2.51066 -1.6053 0
M  V30 8495 H 789.827 -1.24562 -0.782474 0
M  V30 8496 H 791.785 -1.52776 -3.88221 0
M  V30 8497 H 790.415 -0.641034 -3.16371 0
M  V30 8498 H 789.467 -2.94136 -2.41223 0
M  V30 8499 H 790.779 -3.714 -3.32962 0
M  V30 8500 H 789.933 -2.67665 -5.44464 0
M  V30 8501 H 788.672 -1.79953 -4.53286 0
M  V30 8502 H 787.677 -3.98181 -3.7912 0
M  V30 8503 H 788.902 -4.86643 -4.73662 0
M  V30 8504 H 786.848 -2.92942 -5.86959 0
M  V30 8505 H 786.765 -4.65851 -5.95415 0
M  V30 8506 H 788.033 -3.81836 -6.79575 0
M  V30 8507 N 792.262 0.832906 -1.33792 0
M  V30 8508 C 793.49 1.62048 -1.28639 0
M  V30 8509 C 793.905 1.88269 0.141522 0
M  V30 8510 O 793.262 1.46706 1.08553 0
M  V30 8511 C 793.313 2.96722 -2.0649 0
M  V30 8512 O 793.034 2.7165 -3.43712 0
M  V30 8513 C 794.535 3.91144 -2.08617 0
M  V30 8514 H 791.755 0.504032 -0.442937 0
M  V30 8515 H 794.299 1.03704 -1.76255 0
M  V30 8516 H 792.454 3.51652 -1.62541 0
M  V30 8517 H 792.868 3.57453 -3.83833 0
M  V30 8518 H 794.342 4.82837 -2.67531 0
M  V30 8519 H 794.819 4.25766 -1.07796 0
M  V30 8520 H 795.425 3.42152 -2.52611 0
M  V30 8521 N 793.74 1.17359 1.05189 0
M  V30 8522 C 794.672 0.848078 2.12933 0
M  V30 8523 C 795.685 -0.149521 1.62112 0
M  V30 8524 O 796.874 0.0767797 1.78335 0
M  V30 8525 C 793.974 0.243889 3.38021 0
M  V30 8526 C 793.147 1.28436 4.18118 0
M  V30 8527 C 792.206 0.697926 5.21551 0
M  V30 8528 O 791.232 1.36973 5.52473 0
M  V30 8529 N 792.434 -0.510024 5.78255 0
M  V30 8530 H 795.199 1.7754 2.41453 0
M  V30 8531 H 792.76 1.07244 1.21286 0
M  V30 8532 H 794.752 -0.161727 4.04377 0
M  V30 8533 H 793.322 -0.58722 3.07035 0
M  V30 8534 H 792.542 1.86573 3.47252 0
M  V30 8535 H 793.83 1.98617 4.68432 0
M  V30 8536 H 793.228 -1.07378 5.55416 0
M  V30 8537 H 791.785 -0.857705 6.46132 0
M  V30 8538 N 795.218 -1.23913 0.973828 0
M  V30 8539 C 796.165 -2.25132 0.508366 0
M  V30 8540 C 797.135 -1.59908 -0.449307 0
M  V30 8541 O 798.32 -1.87405 -0.358313 0
M  V30 8542 C 795.46 -3.4458 -0.189422 0
M  V30 8543 C 794.573 -4.24381 0.807738 0
M  V30 8544 C 793.708 -5.31131 0.0854315 0
M  V30 8545 C 792.747 -6.02635 1.07225 0
M  V30 8546 N 791.884 -7.01073 0.379535 0
M  V30 8547 H 796.724 -2.64313 1.37632 0
M  V30 8548 H 794.261 -1.29924 0.689802 0
M  V30 8549 H 796.219 -4.12706 -0.610733 0
M  V30 8550 H 794.849 -3.06218 -1.02129 0
M  V30 8551 H 793.901 -3.55735 1.34747 0
M  V30 8552 H 795.213 -4.73778 1.55998 0
M  V30 8553 H 794.367 -6.05422 -0.393572 0
M  V30 8554 H 793.106 -4.82658 -0.699461 0
M  V30 8555 H 792.111 -5.27143 1.56207 0
M  V30 8556 H 793.336 -6.53197 1.85769 0
M  V30 8557 H 791.282 -6.54862 -0.386269 0
M  V30 8558 H 791.199 -7.48382 1.07054 0
M  V30 8559 H 792.467 -7.79462 -0.0772984 0
M  V30 8560 N 796.696 -0.74468 -1.38897 0
M  V30 8561 C 797.973 -0.222773 -1.94327 0
M  V30 8562 C 798.353 1.27731 -1.68071 0
M  V30 8563 O 797.701 2.04754 -1.01429 0
M  V30 8564 C 797.911 -0.566836 -3.44366 0
M  V30 8565 C 799.259 -0.521531 -4.21385 0
M  V30 8566 O 800.283 -0.504599 -3.52608 0
M  V30 8567 O 799.142 -0.524595 -5.43976 0
M  V30 8568 H 796.236 -0.0439259 -0.825833 0
M  V30 8569 H 798.782 -0.824197 -1.48341 0
M  V30 8570 H 797.554 -1.60321 -3.56949 0
M  V30 8571 H 797.177 0.0630577 -3.9755 0
M  V30 8572 N 798.174 1.49689 -0.493057 0
M  V30 8573 C 799.42 2.02727 0.0543518 0
M  V30 8574 C 799.753 1.37264 1.37376 0
M  V30 8575 O 799.028 0.505644 1.87812 0
M  V30 8576 C 799.311 3.59456 0.215226 0
M  V30 8577 C 799.164 4.35459 -1.12675 0
M  V30 8578 C 800.483 4.29511 0.959586 0
M  V30 8579 H 797.602 0.736773 0.0182786 0
M  V30 8580 H 800.244 1.78792 -0.642924 0
M  V30 8581 H 798.394 3.79981 0.809122 0
M  V30 8582 H 800.066 4.2645 -1.75891 0
M  V30 8583 H 798.309 3.9833 -1.71801 0
M  V30 8584 H 798.98 5.43454 -0.967578 0
M  V30 8585 H 801.456 4.13594 0.455977 0
M  V30 8586 H 800.332 5.38939 1.04098 0
M  V30 8587 H 800.593 3.94202 2.00144 0
M  V30 8588 N 799.652 0.226554 1.55963 0
M  V30 8589 C 800.901 -0.40417 1.97609 0
M  V30 8590 C 801.214 -1.60541 1.1174 0
M  V30 8591 O 802.42 -2.30598 1.43307 0
M  V30 8592 C 800.876 -0.770466 3.51556 0
M  V30 8593 C 800.484 0.408244 4.46136 0
M  V30 8594 C 802.228 -1.36651 4.01904 0
M  V30 8595 C 800.135 0.0192347 5.91397 0
M  V30 8596 H 799.065 -0.15478 0.737943 0
M  V30 8597 H 801.716 0.323558 1.80625 0
M  V30 8598 H 800.098 -1.55575 3.6416 0
M  V30 8599 H 801.272 1.18575 4.45283 0
M  V30 8600 H 799.587 0.917859 4.06158 0
M  V30 8601 H 802.184 -1.67055 5.07934 0
M  V30 8602 H 802.527 -2.28403 3.48049 0
M  V30 8603 H 803.06 -0.644556 3.92543 0
M  V30 8604 H 799.799 0.90336 6.49245 0
M  V30 8605 H 799.319 -0.722485 5.95433 0
M  V30 8606 H 800.998 -0.405711 6.45727 0
M  V30 8607 N 801.13 -1.57531 -0.0467866 0
M  V30 8608 C 802.355 -1.93087 -0.757123 0
M  V30 8609 C 802.78 -0.825116 -1.69037 0
M  V30 8610 O 802.138 0.220449 -1.79955 0
M  V30 8611 C 802.186 -3.27669 -1.5055 0
M  V30 8612 O 801.29 -3.18667 -2.61773 0
M  V30 8613 H 800.631 -0.631597 -0.204892 0
M  V30 8614 H 803.161 -2.04599 -0.00755232 0
M  V30 8615 H 803.171 -3.6214 -1.87932 0
M  V30 8616 H 801.846 -4.07717 -0.820931 0
M  V30 8617 H 800.423 -2.95798 -2.27064 0
M  V30 8618 N 802.608 0.318715 -1.54344 0
M  V30 8619 C 803.556 1.41254 -1.84798 0
M  V30 8620 C 804.55 1.53325 -0.720256 0
M  V30 8621 O 805.756 1.55653 -0.903992 0
M  V30 8622 H 802.131 0.471468 -0.585851 0
M  V30 8623 H 804.102 1.12795 -2.7626 0
M  V30 8624 C 802.851 2.77395 -2.09637 0
M  V30 8625 H 802.174 2.68881 -2.95876 0
M  V30 8626 H 803.614 3.52987 -2.34896 0
M  V30 8627 C 802.073 3.24948 -0.889398 0
M  V30 8628 O 802.603 4.01573 -0.101063 0
M  V30 8629 N 800.809 2.82051 -0.699684 0
M  V30 8630 H 800.356 2.19858 -1.3424 0
M  V30 8631 H 800.314 3.1422 0.106368 0
M  V30 8632 N 804.086 1.46499 0.581025 0
M  V30 8633 C 805.314 1.5547 1.36517 0
M  V30 8634 C 805.729 0.196407 1.87776 0
M  V30 8635 O 805.086 -0.806577 1.63709 0
M  V30 8636 C 805.137 2.56084 2.55154 0
M  V30 8637 O 804.858 3.86637 2.06018 0
M  V30 8638 C 806.359 2.75011 3.47683 0
M  V30 8639 H 803.579 0.525703 0.416986 0
M  V30 8640 H 806.123 1.9192 0.706177 0
M  V30 8641 H 804.278 2.22633 3.17039 0
M  V30 8642 H 804.692 4.41413 2.83292 0
M  V30 8643 H 806.166 3.49329 4.27403 0
M  V30 8644 H 806.643 1.81978 3.99726 0
M  V30 8645 H 807.249 3.09565 2.91632 0
M  V30 8646 N 805.565 -0.825799 1.34232 0
M  V30 8647 C 806.79 -1.61883 1.29648 0
M  V30 8648 C 807.215 -1.87669 -0.127295 0
M  V30 8649 O 806.573 -1.45016 -1.08813 0
M  V30 8650 C 806.621 -2.93846 2.09014 0
M  V30 8651 O 805.725 -3.85778 1.4577 0
M  V30 8652 H 805.066 -0.492454 0.445405 0
M  V30 8653 H 807.596 -1.02641 1.76992 0
M  V30 8654 H 807.606 -3.43435 2.20264 0
M  V30 8655 H 806.281 -2.74401 3.12533 0
M  V30 8656 H 804.858 -3.4429 1.43245 0
M  V30 8657 N 807.043 -1.17915 -1.04565 0
M  V30 8658 C 808.32 -0.881187 -1.74627 0
M  V30 8659 C 808.7 0.617123 -2.01878 0
M  V30 8660 O 808.048 1.57032 -1.65991 0
M  V30 8661 C 808.258 -1.72299 -3.03503 0
M  V30 8662 C 809.606 -1.94688 -3.77335 0
M  V30 8663 O 810.63 -1.6931 -3.13389 0
M  V30 8664 O 809.489 -2.37379 -4.92253 0
M  V30 8665 H 806.583 -0.326864 -0.759664 0
M  V30 8666 H 809.129 -1.28642 -1.10676 0
M  V30 8667 H 807.901 -2.73891 -2.79462 0
M  V30 8668 H 807.524 -1.31593 -3.75192 0
M  V30 8669 N 808.521 1.23394 -0.980386 0
M  V30 8670 C 809.767 1.92094 -0.650223 0
M  V30 8671 C 810.1 1.76309 0.814173 0
M  V30 8672 O 809.375 1.12406 1.5873 0
M  V30 8673 C 809.658 3.44713 -1.04139 0
M  V30 8674 C 809.511 3.69606 -2.56342 0
M  V30 8675 C 810.83 4.36191 -0.585296 0
M  V30 8676 H 807.949 0.697618 -0.237695 0
M  V30 8677 H 810.591 1.45517 -1.22167 0
M  V30 8678 H 808.741 3.84513 -0.55515 0
M  V30 8679 H 810.413 3.39288 -3.1254 0
M  V30 8680 H 808.656 3.14318 -2.98976 0
M  V30 8681 H 809.327 4.76441 -2.78762 0
M  V30 8682 H 811.803 4.03836 -1.00276 0
M  V30 8683 H 810.679 5.41679 -0.887428 0
M  V30 8684 H 810.94 4.39097 0.51438 0
M  V30 8685 N 809.999 0.752036 1.385 0
M  V30 8686 C 811.248 0.304294 1.99391 0
M  V30 8687 C 811.561 -1.11982 1.60373 0
M  V30 8688 O 812.767 -1.66795 2.14223 0
M  V30 8689 C 811.223 0.493101 3.56506 0
M  V30 8690 C 810.831 1.9262 4.04477 0
M  V30 8691 C 812.575 0.107994 4.24363 0
M  V30 8692 C 810.482 2.06365 5.54227 0
M  V30 8693 H 809.412 0.110024 0.745929 0
M  V30 8694 H 812.063 0.928355 1.58284 0
M  V30 8695 H 810.445 -0.20012 3.95494 0
M  V30 8696 H 811.619 2.65276 3.76783 0
M  V30 8697 H 809.934 2.26608 3.49339 0
M  V30 8698 H 812.531 0.189474 5.34364 0
M  V30 8699 H 812.874 -0.939165 4.05568 0
M  V30 8700 H 813.407 0.753011 3.90608 0
M  V30 8701 H 810.146 3.0933 5.77923 0
M  V30 8702 H 809.666 1.38167 5.83669 0
M  V30 8703 H 811.345 1.85286 6.19902 0
M  V30 8704 N 811.477 -1.49425 0.500989 0
M  V30 8705 C 812.725 -2.02053 -0.0434495 0
M  V30 8706 C 813.046 -1.38285 -1.37486 0
M  V30 8707 O 812.316 -0.538171 -1.88363 0
M  V30 8708 H 810.896 -0.746757 -0.0190469 0
M  V30 8709 H 813.558 -1.83449 0.658227 0
M  V30 8710 H 812.654 -3.11619 -0.173129 0
M  V30 8711 N 812.955 -0.234822 -1.55841 0
M  V30 8712 C 814.183 0.397745 -2.03041 0
M  V30 8713 C 814.598 1.52405 -1.11437 0
M  V30 8714 O 813.955 1.82061 -0.126466 0
M  V30 8715 C 814.006 0.916919 -3.49678 0
M  V30 8716 O 813.727 -0.164493 -4.37791 0
M  V30 8717 C 815.228 1.62139 -4.12584 0
M  V30 8718 H 812.448 0.0959214 -0.664108 0
M  V30 8719 H 814.992 -0.355156 -2.01392 0
M  V30 8720 H 813.147 1.62004 -3.519 0
M  V30 8721 H 813.561 0.227794 -5.24005 0
M  V30 8722 H 815.035 1.93651 -5.16917 0
M  V30 8723 H 815.512 2.53918 -3.58361 0
M  V30 8724 H 816.118 0.963145 -4.14251 0
M  V30 8725 N 814.433 1.57553 0.0384317 0
M  V30 8726 C 815.673 1.90687 0.736069 0
M  V30 8727 C 816.037 0.832381 1.73019 0
M  V30 8728 O 817.238 1.04777 2.47538 0
M  V30 8729 C 815.509 3.28994 1.39635 0
M  V30 8730 S 817.068 3.83944 2.12444 0
M  V30 8731 H 813.886 0.667799 0.244059 0
M  V30 8732 H 816.488 1.95498 -0.00901643 0
M  V30 8733 H 815.192 4.05067 0.659465 0
M  V30 8734 H 814.723 3.27463 2.18018 0
M  V30 8735 H 816.738 3.61916 3.39457 0
M  V30 8736 N 815.911 -0.310526 1.54511 0
M  V30 8737 C 816.821 -1.4054 1.87844 0
M  V30 8738 C 817.837 -1.55954 0.771635 0
M  V30 8739 O 819.013 -1.70801 1.06719 0
M  V30 8740 C 816.078 -2.75063 2.11048 0
M  V30 8741 C 815.139 -2.68715 3.348 0
M  V30 8742 C 814.372 -3.96821 3.56887 0
M  V30 8743 O 814.595 -4.95721 2.82165 0
M  V30 8744 O 813.529 -3.99291 4.50389 0
M  V30 8745 H 817.355 -1.15275 2.80972 0
M  V30 8746 H 814.94 -0.505732 1.4058 0
M  V30 8747 H 816.822 -3.54671 2.27566 0
M  V30 8748 H 815.497 -3.00191 1.21108 0
M  V30 8749 H 814.404 -1.87611 3.23655 0
M  V30 8750 H 815.737 -2.4854 4.2484 0
M  V30 8751 N 817.389 -1.46805 -0.573248 0
M  V30 8752 C 818.352 -1.57655 -1.66366 0
M  V30 8753 C 819.352 -0.452905 -1.5429 0
M  V30 8754 O 820.542 -0.717502 -1.58737 0
M  V30 8755 C 817.674 -1.50584 -3.05839 0
M  V30 8756 H 818.867 -2.54842 -1.581 0
M  V30 8757 H 816.42 -1.34756 -0.791868 0
M  V30 8758 H 817.155 -0.547127 -3.19651 0
M  V30 8759 H 816.94 -2.32118 -3.16012 0
M  V30 8760 H 818.43 -1.61282 -3.85199 0
M  V30 8761 N 818.867 0.818669 -1.34668 0
M  V30 8762 C 819.83 1.9114 -1.26483 0
M  V30 8763 C 820.83 1.598 -0.179044 0
M  V30 8764 O 822.02 1.6876 -0.431952 0
M  V30 8765 C 819.152 3.27285 -0.95381 0
M  V30 8766 H 820.345 1.9982 -2.23634 0
M  V30 8767 H 817.898 1.01314 -1.19018 0
M  V30 8768 H 818.633 3.24297 0.0143428 0
M  V30 8769 H 818.418 3.51416 -1.73924 0
M  V30 8770 H 819.908 4.07299 -0.921827 0
M  V30 8771 N 820.346 1.18468 1.03938 0
M  V30 8772 C 821.623 0.890435 1.74157 0
M  V30 8773 C 822.003 -0.606409 2.02203 0
M  V30 8774 O 821.351 -1.5615 1.66822 0
M  V30 8775 C 821.561 1.73906 3.02585 0
M  V30 8776 C 822.909 1.96686 3.76297 0
M  V30 8777 O 823.933 1.70969 3.12487 0
M  V30 8778 O 822.792 2.39986 4.90988 0
M  V30 8779 H 819.886 0.330889 0.757919 0
M  V30 8780 H 822.432 1.29228 1.09992 0
M  V30 8781 H 821.204 2.75369 2.78006 0
M  V30 8782 H 820.827 1.33581 3.74489 0
M  V30 8783 N 821.824 -1.22873 0.986916 0
M  V30 8784 C 823.07 -1.91746 0.660401 0
M  V30 8785 C 823.403 -1.76738 -0.804812 0
M  V30 8786 O 822.678 -1.13246 -1.58131 0
M  V30 8787 C 822.961 -3.44156 1.05966 0
M  V30 8788 C 822.814 -3.68242 2.58298 0
M  V30 8789 C 824.133 -4.35874 0.60842 0
M  V30 8790 H 821.252 -0.696347 0.241391 0
M  V30 8791 H 823.894 -1.44867 1.22937 0
M  V30 8792 H 822.044 -3.84213 0.575534 0
M  V30 8793 H 823.716 -3.37626 3.14335 0
M  V30 8794 H 821.959 -3.12728 3.00638 0
M  V30 8795 H 822.63 -4.74956 2.81285 0
M  V30 8796 H 825.106 -4.03299 1.02417 0
M  V30 8797 H 823.982 -5.41201 0.916142 0
M  V30 8798 H 824.243 -4.39364 -0.491086 0
M  V30 8799 N 823.302 -0.75937 -1.38099 0
M  V30 8800 C 824.265 -0.14372 -2.28749 0
M  V30 8801 C 825.265 0.641338 -1.47457 0
M  V30 8802 O 826.455 0.466751 -1.67831 0
M  V30 8803 C 823.587 0.804545 -3.3127 0
M  V30 8804 H 824.78 -0.942663 -2.847 0
M  V30 8805 H 822.333 -0.526757 -1.47156 0
M  V30 8806 H 823.068 1.62895 -2.80421 0
M  V30 8807 H 822.853 0.243939 -3.9134 0
M  V30 8808 H 824.343 1.23111 -3.99041 0
M  V30 8809 N 824.78 1.49157 -0.508906 0
M  V30 8810 C 825.712 2.272 0.302115 0
M  V30 8811 C 826.725 1.3407 0.923529 0
M  V30 8812 O 827.914 1.5929 0.805532 0
M  V30 8813 C 825.014 3.06736 1.44105 0
M  V30 8814 C 824.187 4.27497 0.925477 0
M  V30 8815 C 823.246 4.89014 1.94297 0
M  V30 8816 O 822.272 5.48851 1.50834 0
M  V30 8817 N 823.474 4.7937 3.2739 0
M  V30 8818 H 826.239 2.97443 -0.367115 0
M  V30 8819 H 823.8 1.58248 -0.341933 0
M  V30 8820 H 825.792 3.44763 2.11944 0
M  V30 8821 H 824.362 2.3905 2.0143 0
M  V30 8822 H 823.582 3.94135 0.0717301 0
M  V30 8823 H 824.87 5.05714 0.55955 0
M  V30 8824 H 824.268 4.31869 3.65384 0
M  V30 8825 H 822.825 5.21559 3.90922 0
M  V30 8826 N 826.258 0.243083 1.55714 0
M  V30 8827 C 827.205 -0.658078 2.21219 0
M  V30 8828 C 828.175 -1.1742 1.17481 0
M  V30 8829 O 829.36 -1.22937 1.45915 0
M  V30 8830 C 826.5 -1.85104 2.91257 0
M  V30 8831 C 825.613 -1.3718 4.09641 0
M  V30 8832 C 824.748 -2.52403 4.67404 0
M  V30 8833 C 823.787 -2.01321 5.78045 0
M  V30 8834 N 822.924 -3.09896 6.30007 0
M  V30 8835 H 827.764 -0.0927854 2.97856 0
M  V30 8836 H 825.301 -0.0340375 1.47061 0
M  V30 8837 H 827.259 -2.55179 3.3006 0
M  V30 8838 H 825.889 -2.38887 2.17101 0
M  V30 8839 H 824.941 -0.565232 3.76177 0
M  V30 8840 H 826.253 -0.957409 4.89525 0
M  V30 8841 H 825.407 -3.30525 5.08761 0
M  V30 8842 H 824.146 -2.97142 3.86728 0
M  V30 8843 H 823.151 -1.21667 5.36169 0
M  V30 8844 H 824.376 -1.57556 6.6057 0
M  V30 8845 H 822.322 -3.54077 5.52237 0
M  V30 8846 H 822.239 -2.72776 7.05074 0
M  V30 8847 H 823.507 -3.8809 6.76023 0
M  V30 8848 N 827.736 -1.57571 -0.0300757 0
M  V30 8849 C 828.982 -1.89506 -0.722159 0
M  V30 8850 C 829.315 -0.840699 -1.7506 0
M  V30 8851 O 828.59 0.144358 -1.93964 0
M  V30 8852 C 828.873 -3.32081 -1.39262 0
M  V30 8853 C 828.726 -4.48211 -0.377768 0
M  V30 8854 C 830.045 -3.73557 -2.32687 0
M  V30 8855 H 827.164 -0.689213 -0.261064 0
M  V30 8856 H 829.806 -1.89994 0.0150388 0
M  V30 8857 H 827.956 -3.31796 -2.02098 0
M  V30 8858 H 829.628 -4.6063 0.248591 0
M  V30 8859 H 827.871 -4.3274 0.303045 0
M  V30 8860 H 828.542 -5.44854 -0.885347 0
M  V30 8861 H 831.018 -3.75202 -1.79896 0
M  V30 8862 H 829.894 -4.74125 -2.7658 0
M  V30 8863 H 830.155 -3.05759 -3.19317 0
M  V30 8864 N 829.214 0.302327 -1.54673 0
M  V30 8865 C 830.491 1.05721 -1.64567 0
M  V30 8866 C 830.871 2.0526 -0.493108 0
M  V30 8867 O 830.219 2.22729 0.510315 0
M  V30 8868 C 830.429 1.74025 -3.02517 0
M  V30 8869 C 831.777 2.26271 -3.59286 0
M  V30 8870 O 832.801 1.8406 -3.0496 0
M  V30 8871 O 831.66 3.0361 -4.54404 0
M  V30 8872 H 828.754 0.488577 -0.667249 0
M  V30 8873 H 831.3 0.300521 -1.67018 0
M  V30 8874 H 830.072 1.0174 -3.77842 0
M  V30 8875 H 829.695 2.56454 -3.03838 0
M  V30 8876 N 830.692 1.47107 0.565454 0
M  V30 8877 C 831.602 1.61591 1.70075 0
M  V30 8878 C 832.618 0.498931 1.66693 0
M  V30 8879 O 833.794 0.765372 1.8629 0
M  V30 8880 C 830.859 1.61887 3.06583 0
M  V30 8881 C 829.92 2.84949 3.21096 0
M  V30 8882 C 829.153 2.85221 4.51093 0
M  V30 8883 O 829.376 1.94959 5.36048 0
M  V30 8884 O 828.31 3.76982 4.69221 0
M  V30 8885 H 832.136 2.57638 1.60799 0
M  V30 8886 H 829.721 1.30097 0.73451 0
M  V30 8887 H 831.603 1.64809 3.87835 0
M  V30 8888 H 830.278 0.69005 3.16259 0
M  V30 8889 H 829.185 2.87575 2.39273 0
M  V30 8890 H 830.518 3.77098 3.1632 0
M  V30 8891 N 832.17 -0.811516 1.35101 0
M  V30 8892 C 833.447 -1.55491 1.18667 0
M  V30 8893 C 833.827 -2.09775 -0.236189 0
M  V30 8894 O 833.175 -1.91989 -1.23905 0
M  V30 8895 C 833.385 -2.66732 2.25067 0
M  V30 8896 C 834.733 -3.35201 2.60625 0
M  V30 8897 O 835.757 -2.76998 2.23943 0
M  V30 8898 O 834.616 -4.40334 3.23679 0
M  V30 8899 H 831.71 -0.686783 0.460716 0
M  V30 8900 H 834.256 -0.851903 1.46768 0
M  V30 8901 H 833.028 -2.24457 3.20523 0
M  V30 8902 H 832.651 -3.44673 1.98208 0
M  V30 8903 N 833.648 -1.19017 -1.03309 0
M  V30 8904 C 834.873 -1.01598 -1.80811 0
M  V30 8905 C 835.298 0.430773 -1.83101 0
M  V30 8906 O 834.656 1.30946 -1.25391 0
M  V30 8907 C 834.704 -1.5845 -3.23923 0
M  V30 8908 O 833.808 -0.810972 -4.04348 0
M  V30 8909 H 833.149 -0.359398 -0.558327 0
M  V30 8910 H 835.679 -1.57945 -1.30055 0
M  V30 8911 H 835.689 -1.61486 -3.74682 0
M  V30 8912 H 834.364 -2.63752 -3.21571 0
M  V30 8913 H 832.941 -0.85353 -3.63 0
M  V30 8914 N 835.127 1.22348 -0.993418 0
M  V30 8915 C 836.09 2.22522 -0.549251 0
M  V30 8916 C 837.09 1.56529 0.368164 0
M  V30 8917 O 838.28 1.73463 0.16005 0
M  V30 8918 C 835.412 3.40307 0.201037 0
M  V30 8919 H 836.605 2.63332 -1.43515 0
M  V30 8920 H 834.158 1.35407 -0.78068 0
M  V30 8921 H 834.893 3.0497 1.10289 0
M  V30 8922 H 834.678 3.8942 -0.457685 0
M  V30 8923 H 836.168 4.14597 0.499946 0
M  V30 8924 N 836.605 0.766683 1.37694 0
M  V30 8925 C 837.515 0.150158 2.34119 0
M  V30 8926 C 838.531 -0.685513 1.59927 0
M  V30 8927 O 839.707 -0.606616 1.92047 0
M  V30 8928 C 836.772 -0.722562 3.39087 0
M  V30 8929 C 835.833 0.128983 4.29106 0
M  V30 8930 C 835.066 -0.702178 5.29061 0
M  V30 8931 O 835.289 -1.93954 5.36412 0
M  V30 8932 O 834.223 -0.114056 6.01792 0
M  V30 8933 H 838.049 0.946829 2.88563 0
M  V30 8934 H 835.634 0.527765 1.39768 0
M  V30 8935 H 837.516 -1.22095 4.03325 0
M  V30 8936 H 836.191 -1.49751 2.86978 0
M  V30 8937 H 835.098 0.673612 3.67985 0
M  V30 8938 H 836.431 0.866892 4.84506 0
M  V30 8939 N 838.083 -1.48885 0.516809 0
M  V30 8940 C 839.36 -1.95412 -0.0858293 0
M  V30 8941 C 839.74 -1.45875 -1.5259 0
M  V30 8942 O 839.088 -0.679415 -2.18166 0
M  V30 8943 C 839.298 -3.48995 0.0178194 0
M  V30 8944 C 840.646 -4.24342 -0.14813 0
M  V30 8945 O 841.67 -3.56155 -0.0566125 0
M  V30 8946 O 840.529 -5.45454 -0.338035 0
M  V30 8947 H 837.623 -0.822455 -0.0865884 0
M  V30 8948 H 840.169 -1.59464 0.580472 0
M  V30 8949 H 838.941 -3.77732 1.02147 0
M  V30 8950 H 838.564 -3.91604 -0.687924 0
M  V30 8951 N 839.561 -0.251338 -1.55583 0
M  V30 8952 C 840.789 0.376187 -2.03451 0
M  V30 8953 C 841.204 1.51215 -1.13047 0
M  V30 8954 O 840.561 1.81917 -0.145769 0
M  V30 8955 C 840.612 0.879779 -3.50631 0
M  V30 8956 O 840.333 -0.210917 -4.37592 0
M  V30 8957 C 841.834 1.57754 -4.14281 0
M  V30 8958 H 839.054 0.0888722 -0.665089 0
M  V30 8959 H 841.598 -0.376497 -2.01004 0
M  V30 8960 H 839.753 1.58263 -3.53598 0
M  V30 8961 H 840.167 0.172203 -5.24217 0
M  V30 8962 H 841.641 1.88158 -5.18942 0
M  V30 8963 H 842.118 2.50103 -3.61034 0
M  V30 8964 H 842.724 0.919154 -4.15249 0
M  V30 8965 N 841.039 1.57585 0.0217189 0
M  V30 8966 C 841.971 2.03849 1.04777 0
M  V30 8967 C 842.984 0.952558 1.32023 0
M  V30 8968 O 844.173 1.22974 1.29381 0
M  V30 8969 C 841.273 2.40504 2.3877 0
M  V30 8970 C 840.446 3.71566 2.30775 0
M  V30 8971 C 839.505 3.95329 3.47277 0
M  V30 8972 O 838.531 4.66289 3.26441 0
M  V30 8973 N 839.733 3.41536 4.69397 0
M  V30 8974 H 842.498 2.92491 0.653395 0
M  V30 8975 H 840.059 1.60538 0.209527 0
M  V30 8976 H 842.051 2.53532 3.15442 0
M  V30 8977 H 840.621 1.57494 2.70027 0
M  V30 8978 H 839.841 3.68822 1.39155 0
M  V30 8979 H 841.129 4.5753 2.22584 0
M  V30 8980 H 840.527 2.84033 4.89226 0
M  V30 8981 H 839.084 3.59932 5.43408 0
M  V30 8982 N 842.517 -0.29412 1.54831 0
M  V30 8983 C 843.742 -1.05156 1.78765 0
M  V30 8984 C 844.167 -1.79916 0.548809 0
M  V30 8985 O 843.525 -1.74243 -0.500909 0
M  V30 8986 C 843.573 -2.00242 2.99893 0
M  V30 8987 O 842.677 -3.08662 2.73499 0
M  V30 8988 H 842.018 -0.301737 0.591482 0
M  V30 8989 H 844.548 -0.329449 2.0193 0
M  V30 8990 H 844.558 -2.42583 3.28051 0
M  V30 8991 H 843.233 -1.45235 3.89717 0
M  V30 8992 H 841.81 -2.70786 2.56377 0
M  V30 8993 N 843.995 -1.47404 -0.557645 0
M  V30 8994 C 844.943 -1.60265 -1.68576 0
M  V30 8995 C 845.937 -0.469982 -1.6275 0
M  V30 8996 O 847.143 -0.647764 -1.67941 0
M  V30 8997 H 843.518 -0.504353 -0.557792 0
M  V30 8998 H 845.489 -2.55066 -1.54867 0
M  V30 8999 C 844.238 -1.63369 -3.0693 0
M  V30 9000 H 843.561 -2.49874 -3.12095 0
M  V30 9001 H 845.001 -1.76417 -3.85556 0
M  V30 9002 C 843.46 -0.366921 -3.34896 0
M  V30 9003 O 843.99 0.53218 -3.98159 0
M  V30 9004 N 842.196 -0.247082 -2.89548 0
M  V30 9005 H 841.743 -0.979669 -2.38244 0
M  V30 9006 H 841.701 0.599552 -3.0863 0
M  V30 9007 N 845.473 0.80434 -1.35529 0
M  V30 9008 C 846.75 1.5486 -1.1949 0
M  V30 9009 C 847.13 2.09897 0.22506 0
M  V30 9010 O 846.478 1.92643 1.22886 0
M  V30 9011 C 846.688 2.65535 -2.26478 0
M  V30 9012 C 848.036 3.33814 -2.62399 0
M  V30 9013 O 849.06 2.75807 -2.25409 0
M  V30 9014 O 847.919 4.38612 -3.26009 0
M  V30 9015 H 845.013 0.68433 -0.464351 0
M  V30 9016 H 847.559 0.844107 -1.47217 0
M  V30 9017 H 846.331 2.22754 -3.21709 0
M  V30 9018 H 845.954 3.43617 -2.00033 0
M  V30 9019 N 846.951 1.19563 1.02676 0
M  V30 9020 C 848.199 0.997593 1.75763 0
M  V30 9021 C 848.52 -0.47253 1.89188 0
M  V30 9022 O 847.79 -1.34214 1.42701 0
M  V30 9023 H 846.37 0.366128 0.651122 0
M  V30 9024 H 849.032 1.50495 1.23844 0
M  V30 9025 H 848.128 1.44741 2.76508 0
M  V30 9026 N 848.429 -1.21819 0.999893 0
M  V30 9027 C 849.376 -2.24003 0.556005 0
M  V30 9028 C 850.346 -1.60825 -0.415287 0
M  V30 9029 O 851.531 -1.88123 -0.318481 0
M  V30 9030 C 848.671 -3.44904 -0.116289 0
M  V30 9031 C 847.784 -4.22573 0.897574 0
M  V30 9032 C 846.919 -5.30831 0.198073 0
M  V30 9033 C 845.958 -6.00225 1.19983 0
M  V30 9034 N 845.095 -7.00111 0.528157 0
M  V30 9035 H 849.935 -2.61334 1.43208 0
M  V30 9036 H 847.472 -1.28431 0.717205 0
M  V30 9037 H 849.43 -4.13908 -0.523055 0
M  V30 9038 H 848.06 -3.08315 -0.956108 0
M  V30 9039 H 847.112 -3.52797 1.42262 0
M  V30 9040 H 848.424 -4.70363 1.66013 0
M  V30 9041 H 847.578 -6.06121 -0.265065 0
M  V30 9042 H 846.317 -4.84033 -0.596924 0
M  V30 9043 H 845.322 -5.23711 1.67353 0
M  V30 9044 H 846.547 -6.4911 1.99582 0
M  V30 9045 H 844.493 -6.55534 -0.247276 0
M  V30 9046 H 844.41 -7.45943 1.22904 0
M  V30 9047 H 845.678 -7.7945 0.0880543 0
M  V30 9048 N 849.908 -0.773975 -1.37286 0
M  V30 9049 C 850.818 -0.162571 -2.34036 0
M  V30 9050 C 851.834 0.677022 -1.60289 0
M  V30 9051 O 853.01 0.596423 -1.92366 0
M  V30 9052 C 850.075 0.70457 -3.39465 0
M  V30 9053 C 849.136 -0.151738 -4.29032 0
M  V30 9054 C 848.369 0.674111 -5.29426 0
M  V30 9055 O 848.592 1.91107 -5.37433 0
M  V30 9056 O 847.526 0.0821398 -6.01844 0
M  V30 9057 H 851.352 -0.962119 -2.88057 0
M  V30 9058 H 848.937 -0.53517 -1.39486 0
M  V30 9059 H 850.819 1.19954 -4.03967 0
M  V30 9060 H 849.494 1.48227 -2.87768 0
M  V30 9061 H 848.401 -0.693118 -3.67623 0
M  V30 9062 H 849.734 -0.892575 -4.84039 0
M  V30 9063 N 851.386 1.48609 -0.524698 0
M  V30 9064 C 852.632 2.02797 0.0113382 0
M  V30 9065 C 852.965 1.40147 1.34433 0
M  V30 9066 O 852.24 0.545368 1.86698 0
M  V30 9067 C 852.523 3.59832 0.138931 0
M  V30 9068 C 852.376 4.32971 -1.21886 0
M  V30 9069 C 853.695 4.3145 0.868265 0
M  V30 9070 H 850.814 0.736995 0.00264645 0
M  V30 9071 H 853.456 1.77388 -0.680704 0
M  V30 9072 H 851.606 3.81612 0.72834 0
M  V30 9073 H 853.278 4.22624 -1.84897 0
M  V30 9074 H 851.521 3.94597 -1.80211 0
M  V30 9075 H 852.192 5.41279 -1.08263 0
M  V30 9076 H 854.668 4.14468 0.368145 0
M  V30 9077 H 853.544 5.41025 0.926428 0
M  V30 9078 H 853.805 3.98358 1.91737 0
M  V30 9079 N 852.864 0.259585 1.55447 0
M  V30 9080 C 854.11 -0.362143 1.9954 0
M  V30 9081 C 854.443 -1.5666 1.14767 0
M  V30 9082 O 853.718 -1.93319 0.214025 0
M  V30 9083 C 854.001 -0.759588 3.51998 0
M  V30 9084 C 853.854 0.451134 4.47532 0
M  V30 9085 C 855.173 -1.60186 4.09913 0
M  V30 9086 H 852.292 -0.130157 0.725416 0
M  V30 9087 H 854.934 0.363431 1.86492 0
M  V30 9088 H 853.084 -1.3778 3.63248 0
M  V30 9089 H 854.756 1.08965 4.48246 0
M  V30 9090 H 852.999 1.092 4.19831 0
M  V30 9091 H 853.67 0.129518 5.51848 0
M  V30 9092 H 856.146 -1.0799 4.01842 0
M  V30 9093 H 855.022 -1.84879 5.16828 0
M  V30 9094 H 855.283 -2.57787 3.59163 0
M  V30 9095 N 854.342 -1.57594 -0.0133615 0
M  V30 9096 C 855.252 -2.10991 -1.02566 0
M  V30 9097 C 856.268 -1.05208 -1.3859 0
M  V30 9098 O 857.444 -1.37034 -1.47593 0
M  V30 9099 C 854.509 -2.59165 -2.30292 0
M  V30 9100 C 853.57 -3.79495 -2.00704 0
M  V30 9101 C 852.803 -4.25361 -3.22341 0
M  V30 9102 O 853.026 -3.70645 -4.33565 0
M  V30 9103 O 851.96 -5.17649 -3.07121 0
M  V30 9104 H 855.786 -2.97678 -0.601806 0
M  V30 9105 H 853.371 -1.47598 -0.23135 0
M  V30 9106 H 855.253 -2.90409 -3.05354 0
M  V30 9107 H 853.928 -1.75582 -2.71942 0
M  V30 9108 H 852.835 -3.53245 -1.23161 0
M  V30 9109 H 854.168 -4.64109 -1.639 0
M  V30 9110 N 855.82 0.285905 -1.54985 0
M  V30 9111 C 857.066 1.02071 -1.75241 0
M  V30 9112 C 857.399 1.864 -0.544842 0
M  V30 9113 O 856.674 1.89034 0.457844 0
M  V30 9114 C 856.957 1.91409 -3.05016 0
M  V30 9115 C 856.81 1.10158 -4.36102 0
M  V30 9116 C 858.129 2.90335 -3.30747 0
M  V30 9117 H 855.248 0.369663 -0.637588 0
M  V30 9118 H 857.89 0.294114 -1.8771 0
M  V30 9119 H 856.04 2.53362 -2.94517 0
M  V30 9120 H 857.712 0.503756 -4.58541 0
M  V30 9121 H 855.955 0.404675 -4.31908 0
M  V30 9122 H 856.626 1.75956 -5.23205 0
M  V30 9123 H 859.102 2.38514 -3.40955 0
M  V30 9124 H 857.978 3.49997 -4.2284 0
M  V30 9125 H 858.239 3.64787 -2.49765 0
M  V30 9126 N 857.298 1.47698 0.54982 0
M  V30 9127 C 858.546 1.54397 1.30407 0
M  V30 9128 C 858.867 0.211026 1.93855 0
M  V30 9129 O 858.137 -0.765701 1.80316 0
M  V30 9130 H 856.717 0.568747 0.484289 0
M  V30 9131 H 859.379 1.84042 0.641444 0
M  V30 9132 H 858.475 2.31449 2.09375 0
M  V30 9133 N 858.776 -0.797141 1.35954 0
M  V30 9134 C 859.708 -1.91782 1.25509 0
M  V30 9135 C 860.721 -1.61843 0.176271 0
M  V30 9136 O 861.91 -1.73235 0.430343 0
M  V30 9137 C 859.01 -3.26396 0.912073 0
M  V30 9138 C 858.183 -3.84171 2.0912 0
M  V30 9139 C 857.242 -4.9721 1.72246 0
M  V30 9140 O 856.268 -5.14136 2.44239 0
M  V30 9141 N 857.47 -5.76831 0.651611 0
M  V30 9142 H 860.235 -2.01266 2.22063 0
M  V30 9143 H 857.796 -0.975033 1.29247 0
M  V30 9144 H 859.788 -3.99499 0.646707 0
M  V30 9145 H 858.358 -3.12579 0.0359079 0
M  V30 9146 H 857.578 -3.03148 2.51982 0
M  V30 9147 H 858.866 -4.19503 2.87914 0
M  V30 9148 H 858.264 -5.65675 0.0536678 0
M  V30 9149 H 856.821 -6.50272 0.44605 0
M  V30 9150 N 860.254 -1.20106 -1.0204 0
M  V30 9151 C 861.201 -0.946468 -2.10501 0
M  V30 9152 C 862.171 0.121902 -1.65652 0
M  V30 9153 O 863.356 -0.0220244 -1.90787 0
M  V30 9154 C 860.496 -0.500499 -3.41451 0
M  V30 9155 C 859.609 -1.63659 -3.998 0
M  V30 9156 C 858.744 -1.14131 -5.18794 0
M  V30 9157 C 857.783 -2.25074 -5.69217 0
M  V30 9158 N 856.92 -1.76791 -6.79477 0
M  V30 9159 H 861.76 -1.87506 -2.31615 0
M  V30 9160 H 859.297 -0.934693 -1.13587 0
M  V30 9161 H 861.255 -0.223276 -4.16602 0
M  V30 9162 H 859.885 0.391099 -3.20422 0
M  V30 9163 H 858.937 -2.02882 -3.21781 0
M  V30 9164 H 860.249 -2.47213 -4.33229 0
M  V30 9165 H 859.403 -0.819826 -6.01135 0
M  V30 9166 H 858.142 -0.275615 -4.86921 0
M  V30 9167 H 857.147 -2.58043 -4.85483 0
M  V30 9168 H 858.372 -3.12114 -6.03127 0
M  V30 9169 H 856.318 -0.925428 -6.4944 0
M  V30 9170 H 856.235 -2.53928 -7.12079 0
M  V30 9171 H 857.503 -1.47631 -7.65392 0
M  V30 9172 N 861.732 1.21287 -1.00634 0
M  V30 9173 C 862.662 2.25973 -0.588089 0
M  V30 9174 C 863.643 1.65527 0.391764 0
M  V30 9175 O 864.828 1.92179 0.279452 0
M  V30 9176 C 861.958 3.47197 0.0847336 0
M  V30 9177 C 860.912 4.20168 -0.815039 0
M  V30 9178 C 860.238 5.34699 -0.00855393 0
M  V30 9179 C 861.538 4.77416 -2.11828 0
M  V30 9180 H 863.232 2.61212 -1.46317 0
M  V30 9181 H 860.778 1.25563 -0.704985 0
M  V30 9182 H 862.731 4.19602 0.388821 0
M  V30 9183 H 861.455 3.11092 0.994456 0
M  V30 9184 H 860.114 3.49614 -1.10297 0
M  V30 9185 H 859.762 4.94837 0.902499 0
M  V30 9186 H 859.462 5.84449 -0.607664 0
M  V30 9187 H 860.986 6.09914 0.289317 0
M  V30 9188 H 862.4 5.41694 -1.87725 0
M  V30 9189 H 860.797 5.37561 -2.66736 0
M  V30 9190 H 861.867 3.96724 -2.78816 0
M  V30 9191 N 863.21 0.781244 1.36873 0
M  V30 9192 C 864.459 0.34652 1.98701 0
M  V30 9193 C 864.772 -1.08555 1.62712 0
M  V30 9194 O 865.978 -1.62213 2.17713 0
M  V30 9195 C 864.434 0.568611 3.5538 0
M  V30 9196 C 864.042 2.01156 4.003 0
M  V30 9197 C 865.786 0.197983 4.24038 0
M  V30 9198 C 863.693 2.18074 5.49725 0
M  V30 9199 H 862.623 0.125821 0.743428 0
M  V30 9200 H 865.274 0.961721 1.56279 0
M  V30 9201 H 863.656 -0.116185 3.9583 0
M  V30 9202 H 864.83 2.73209 3.71071 0
M  V30 9203 H 863.145 2.33967 3.44454 0
M  V30 9204 H 865.742 0.302778 5.33842 0
M  V30 9205 H 866.085 -0.852927 4.07469 0
M  V30 9206 H 866.618 0.835696 3.88923 0
M  V30 9207 H 863.357 3.21519 5.71232 0
M  V30 9208 H 862.877 1.50517 5.80607 0
M  V30 9209 H 864.556 1.98393 6.15832 0
M  V30 9210 N 864.689 -1.48329 0.532571 0
M  V30 9211 C 865.637 -2.31336 -0.242133 0
M  V30 9212 C 866.631 -1.41391 -0.933006 0
M  V30 9213 O 867.837 -1.58284 -0.857096 0
M  V30 9214 H 864.212 -0.745724 -0.0969536 0
M  V30 9215 H 866.183 -2.94555 0.477504 0
M  V30 9216 C 864.932 -3.23501 -1.27446 0
M  V30 9217 H 864.255 -3.92659 -0.752261 0
M  V30 9218 H 865.695 -3.84461 -1.78789 0
M  V30 9219 C 864.154 -2.45288 -2.30944 0
M  V30 9220 O 864.684 -2.17955 -3.37429 0
M  V30 9221 N 862.89 -2.06737 -2.04226 0
M  V30 9222 H 862.437 -2.29166 -1.17647 0
M  V30 9223 H 862.395 -1.54719 -2.73696 0
M  V30 9224 N 866.167 -0.267825 -1.55308 0
M  V30 9225 C 867.114 0.6228 -2.22238 0
M  V30 9226 C 868.084 1.15536 -1.19334 0
M  V30 9227 O 869.269 1.206 -1.47852 0
M  V30 9228 C 866.409 1.80447 -2.94164 0
M  V30 9229 C 865.522 1.30646 -4.11771 0
M  V30 9230 C 864.657 2.44935 -4.7136 0
M  V30 9231 C 863.696 1.92099 -5.81175 0
M  V30 9232 N 862.833 2.99834 -6.34857 0
M  V30 9233 H 867.673 0.0453874 -2.97965 0
M  V30 9234 H 865.21 0.0106371 -1.47096 0
M  V30 9235 H 867.168 2.49896 -3.34078 0
M  V30 9236 H 865.798 2.35403 -2.20874 0
M  V30 9237 H 864.85 0.505314 -3.77029 0
M  V30 9238 H 866.162 0.879409 -4.90987 0
M  V30 9239 H 865.316 3.2239 -5.13955 0
M  V30 9240 H 864.055 2.90951 -3.91406 0
M  V30 9241 H 863.06 1.13122 -5.38037 0
M  V30 9242 H 864.285 1.47027 -6.62993 0
M  V30 9243 H 862.231 3.45246 -5.578 0
M  V30 9244 H 862.148 2.61524 -7.09324 0
M  V30 9245 H 863.416 3.77286 -6.82111 0
M  V30 9246 N 867.645 1.57599 0.00500368 0
M  V30 9247 C 869.056 1.78462 0.54848 0
M  V30 9248 C 869.407 0.901869 1.74243 0
M  V30 9249 O 868.532 0.103014 2.16155 0
M  V30 9250 C 869.127 3.2365 1.00179 0
M  V30 9251 C 867.686 3.45627 1.49061 0
M  V30 9252 C 866.833 2.73794 0.439531 0
M  V30 9253 H 869.784 1.57151 -0.22118 0
M  V30 9254 H 869.805 3.31488 1.86805 0
M  V30 9255 H 869.317 3.87873 0.132607 0
M  V30 9256 H 867.418 2.86612 2.38085 0
M  V30 9257 H 867.531 4.54298 1.52152 0
M  V30 9258 H 865.895 2.38267 0.900043 0
M  V30 9259 H 866.678 3.40714 -0.420599 0
M  V30 9260 N 869.123 -0.277682 1.55134 0
M  V30 9261 C 870.056 -1.3685 1.82612 0
M  V30 9262 C 871.034 -1.47752 0.678833 0
M  V30 9263 O 872.218 -1.6445 0.921329 0
M  V30 9264 C 869.345 -2.74539 1.98359 0
M  V30 9265 C 868.391 -2.80945 3.20893 0
M  V30 9266 S 869.224 -2.40666 4.78373 0
M  V30 9267 C 870.38 -3.80338 4.97085 0
M  V30 9268 H 870.613 -1.13338 2.74849 0
M  V30 9269 H 868.146 -0.477063 1.46845 0
M  V30 9270 H 870.104 -3.53834 2.08115 0
M  V30 9271 H 868.765 -2.95306 1.07019 0
M  V30 9272 H 867.958 -3.81992 3.28783 0
M  V30 9273 H 867.56 -2.09667 3.09703 0
M  V30 9274 H 869.852 -4.75565 4.8254 0
M  V30 9275 H 870.795 -3.77403 5.99143 0
M  V30 9276 H 871.203 -3.71424 4.25094 0
M  V30 9277 N 870.601 -1.47988 -0.541979 0
M  V30 9278 C 871.847 -1.55623 -1.30036 0
M  V30 9279 C 872.18 -0.224254 -1.92901 0
M  V30 9280 O 871.455 0.768629 -1.78668 0
M  V30 9281 C 871.738 -2.68562 -2.39888 0
M  V30 9282 C 871.591 -4.11426 -1.81792 0
M  V30 9283 C 872.91 -2.77325 -3.41729 0
M  V30 9284 H 870.029 -0.566498 -0.471433 0
M  V30 9285 H 872.671 -1.8011 -0.604998 0
M  V30 9286 H 870.821 -2.47814 -2.992 0
M  V30 9287 H 872.493 -4.43581 -1.26624 0
M  V30 9288 H 870.736 -4.18989 -1.12386 0
M  V30 9289 H 871.407 -4.8625 -2.61276 0
M  V30 9290 H 873.883 -2.96085 -2.92357 0
M  V30 9291 H 872.759 -3.58097 -4.16002 0
M  V30 9292 H 873.02 -1.84995 -4.01534 0
M  V30 9293 N 872.079 0.78992 -1.36375 0
M  V30 9294 C 873.327 1.54472 -1.30319 0
M  V30 9295 C 873.648 1.94647 0.117338 0
M  V30 9296 O 872.918 1.64906 1.05748 0
M  V30 9297 H 871.498 0.572879 -0.479394 0
M  V30 9298 H 874.16 0.941245 -1.70665 0
M  V30 9299 H 873.256 2.45252 -1.93024 0
M  V30 9300 N 873.557 1.20646 1.01402 0
M  V30 9301 C 874.968 1.01823 1.56489 0
M  V30 9302 C 875.319 -0.42463 1.9155 0
M  V30 9303 O 874.444 -1.30644 1.72514 0
M  V30 9304 C 875.039 1.84208 2.84347 0
M  V30 9305 C 873.598 1.69743 3.35953 0
M  V30 9306 C 872.745 1.8198 2.09233 0
M  V30 9307 H 875.696 1.348 0.837539 0
M  V30 9308 H 875.717 1.34698 3.55861 0
M  V30 9309 H 875.229 2.89215 2.58798 0
M  V30 9310 H 873.33 0.673833 3.66456 0
M  V30 9311 H 873.443 2.51173 4.07981 0
M  V30 9312 H 871.807 1.25193 2.21808 0
M  V30 9313 H 872.59 2.88477 1.86107 0
M  V30 9314 N 875.035 -1.20752 1.01276 0
M  V30 9315 C 875.945 -2.27079 0.589277 0
M  V30 9316 C 876.961 -1.6999 -0.371389 0
M  V30 9317 O 878.137 -2.00044 -0.233294 0
M  V30 9318 C 875.202 -3.4663 -0.0696715 0
M  V30 9319 C 874.263 -4.18962 0.936454 0
M  V30 9320 C 873.496 -5.32806 0.308856 0
M  V30 9321 O 873.719 -5.63376 -0.8924 0
M  V30 9322 O 872.653 -5.93131 1.02367 0
M  V30 9323 H 876.479 -2.6551 1.47438 0
M  V30 9324 H 874.064 -1.27297 0.782045 0
M  V30 9325 H 875.946 -4.19119 -0.437873 0
M  V30 9326 H 874.621 -3.10082 -0.929029 0
M  V30 9327 H 873.528 -3.48661 1.35595 0
M  V30 9328 H 874.861 -4.59441 1.76565 0
M  V30 9329 N 876.513 -0.788492 -1.36457 0
M  V30 9330 C 877.476 -0.192209 -2.28393 0
M  V30 9331 C 878.476 0.609916 -1.48784 0
M  V30 9332 O 879.666 0.431046 -1.68783 0
M  V30 9333 C 876.798 0.734096 -3.32902 0
M  V30 9334 H 877.991 -1.00284 -2.82636 0
M  V30 9335 H 875.544 -0.557852 -1.46006 0
M  V30 9336 H 876.279 1.5691 -2.83813 0
M  V30 9337 H 876.064 0.160875 -3.9177 0
M  V30 9338 H 877.554 1.1462 -4.01562 0
M  V30 9339 N 877.991 1.48044 -0.54043 0
M  V30 9340 C 879.239 2.02097 -0.0101367 0
M  V30 9341 C 879.56 1.41881 1.33771 0
M  V30 9342 O 878.83 0.587923 1.8687 0
M  V30 9343 H 877.41 0.747 -0.000758716 0
M  V30 9344 H 880.072 1.81639 -0.706634 0
M  V30 9345 H 879.168 3.11969 0.0904474 0
M  V30 9346 N 879.47 0.276058 1.55163 0
M  V30 9347 C 880.718 -0.339782 1.99223 0
M  V30 9348 C 881.039 -1.56307 1.16589 0
M  V30 9349 O 880.309 -1.94225 0.25564 0
M  V30 9350 H 878.889 -0.128534 0.735859 0
M  V30 9351 H 881.551 0.381612 1.91128 0
M  V30 9352 H 880.647 -0.629 3.05696 0
M  V30 9353 N 880.948 -1.576 0.00335426 0
M  V30 9354 C 882.176 -1.94996 -0.691685 0
M  V30 9355 C 882.591 -0.878405 -1.67121 0
M  V30 9356 O 881.948 0.142343 -1.81944 0
M  V30 9357 C 881.999 -3.32416 -1.42063 0
M  V30 9358 O 881.72 -4.35458 -0.48038 0
M  V30 9359 C 883.221 -3.84291 -2.20987 0
M  V30 9360 H 880.441 -0.642814 -0.192434 0
M  V30 9361 H 882.985 -2.04425 0.0554706 0
M  V30 9362 H 881.14 -3.24285 -2.11939 0
M  V30 9363 H 881.554 -5.14975 -0.995054 0
M  V30 9364 H 883.028 -4.82863 -2.67483 0
M  V30 9365 H 883.505 -3.17174 -3.03805 0
M  V30 9366 H 884.111 -3.95609 -1.56121 0
M  V30 9367 N 882.426 0.269451 -1.5528 0
M  V30 9368 C 883.373 1.33316 -1.88403 0
M  V30 9369 C 884.343 1.48909 -0.735881 0
M  V30 9370 O 885.528 1.63259 -0.987479 0
M  V30 9371 C 882.668 2.68778 -2.16454 0
M  V30 9372 C 881.781 2.61377 -3.43956 0
M  V30 9373 C 880.916 3.89042 -3.6169 0
M  V30 9374 C 879.955 3.76166 -4.82872 0
M  V30 9375 N 879.092 4.95673 -4.97245 0
M  V30 9376 H 883.932 1.04368 -2.79126 0
M  V30 9377 H 881.469 0.504147 -1.38191 0
M  V30 9378 H 883.427 3.47599 -2.30719 0
M  V30 9379 H 882.057 2.9592 -1.28961 0
M  V30 9380 H 881.109 1.74247 -3.38145 0
M  V30 9381 H 882.421 2.47764 -4.32914 0
M  V30 9382 H 881.575 4.76304 -3.75791 0
M  V30 9383 H 880.314 4.05526 -2.70924 0
M  V30 9384 H 879.319 2.87287 -4.68771 0
M  V30 9385 H 880.544 3.61198 -5.75077 0
M  V30 9386 H 878.49 5.12561 -4.09411 0
M  V30 9387 H 878.407 4.84605 -5.80254 0
M  V30 9388 H 879.675 5.84498 -5.15735 0
M  V30 9389 N 883.904 1.48273 0.534124 0
M  V30 9390 C 884.814 1.65162 1.66609 0
M  V30 9391 C 885.83 0.534177 1.65598 0
M  V30 9392 O 887.006 0.804715 1.84625 0
M  V30 9393 C 884.071 1.68354 3.03081 0
M  V30 9394 C 883.132 2.91696 3.1498 0
M  V30 9395 C 882.365 2.94725 4.44941 0
M  V30 9396 O 882.588 2.06285 5.31792 0
M  V30 9397 O 881.522 3.8685 4.61119 0
M  V30 9398 H 885.348 2.60991 1.55298 0
M  V30 9399 H 882.933 1.31626 0.706749 0
M  V30 9400 H 884.815 1.72998 3.84252 0
M  V30 9401 H 883.49 0.756978 3.14725 0
M  V30 9402 H 882.397 2.92586 2.33119 0
M  V30 9403 H 883.73 3.83722 3.0825 0
M  V30 9404 N 885.382 -0.782676 1.36792 0
M  V30 9405 C 886.628 -1.54311 1.3159 0
M  V30 9406 C 886.961 -1.93928 -0.102696 0
M  V30 9407 O 886.236 -1.63233 -1.05761 0
M  V30 9408 C 886.519 -2.81561 2.24489 0
M  V30 9409 C 886.372 -2.48268 3.75078 0
M  V30 9410 C 887.691 -3.83428 2.16034 0
M  V30 9411 H 884.81 -0.559828 0.479335 0
M  V30 9412 H 887.452 -0.898717 1.67401 0
M  V30 9413 H 885.602 -3.36549 1.9408 0
M  V30 9414 H 887.274 -1.99279 4.16036 0
M  V30 9415 H 885.517 -1.81116 3.94182 0
M  V30 9416 H 886.188 -3.39183 4.35499 0
M  V30 9417 H 888.664 -3.37905 2.42815 0
M  V30 9418 H 887.54 -4.70204 2.83194 0
M  V30 9419 H 887.801 -4.26887 1.14976 0
M  V30 9420 N 886.86 -1.21182 -1.00761 0
M  V30 9421 C 888.271 -1.02652 -1.55947 0
M  V30 9422 C 888.622 0.414466 -1.91772 0
M  V30 9423 O 887.747 1.29727 -1.73204 0
M  V30 9424 C 888.342 -1.85713 -2.83366 0
M  V30 9425 C 886.901 -1.71523 -3.35048 0
M  V30 9426 C 886.048 -1.83087 -2.08265 0
M  V30 9427 H 888.999 -1.35242 -0.830379 0
M  V30 9428 H 889.02 -1.36583 -3.55141 0
M  V30 9429 H 888.532 -2.90584 -2.5726 0
M  V30 9430 H 886.633 -0.693257 -3.66094 0
M  V30 9431 H 886.746 -2.53333 -4.06644 0
M  V30 9432 H 885.11 -1.26367 -2.21141 0
M  V30 9433 H 885.893 -2.8946 -1.84575 0
M  V30 9434 N 888.338 1.20213 -1.01915 0
M  V30 9435 C 889.587 1.88968 -0.705261 0
M  V30 9436 C 889.9 1.79869 0.768531 0
M  V30 9437 O 891.106 2.43783 1.19508 0
M  V30 9438 C 889.562 3.38911 -1.21109 0
M  V30 9439 C 889.17 3.5659 -2.71197 0
M  V30 9440 C 890.914 4.13204 -0.97275 0
M  V30 9441 C 888.821 5.00372 -3.15248 0
M  V30 9442 H 887.751 0.707715 -0.260107 0
M  V30 9443 H 890.402 1.35977 -1.23217 0
M  V30 9444 H 888.784 3.9124 -0.612152 0
M  V30 9445 H 889.958 3.14635 -3.36662 0
M  V30 9446 H 888.273 2.95671 -2.93202 0
M  V30 9447 H 890.87 5.19221 -1.27726 0
M  V30 9448 H 891.213 4.16201 0.09072 0
M  V30 9449 H 891.746 3.66983 -1.5352 0
M  V30 9450 H 888.485 5.02532 -4.20882 0
M  V30 9451 H 888.005 5.43127 -2.54505 0
M  V30 9452 H 889.684 5.68969 -3.08032 0
M  V30 9453 N 889.816 0.795718 1.36037 0
M  V30 9454 C 890.763 0.196548 2.29962 0
M  V30 9455 C 891.733 -0.663213 1.52285 0
M  V30 9456 O 892.918 -0.610574 1.80767 0
M  V30 9457 C 890.058 -0.657639 3.38776 0
M  V30 9458 C 889.171 0.221358 4.31433 0
M  V30 9459 C 888.306 -0.6398 5.27333 0
M  V30 9460 C 887.345 0.240265 6.11628 0
M  V30 9461 N 886.482 -0.580237 6.99698 0
M  V30 9462 H 891.322 1.00295 2.80615 0
M  V30 9463 H 888.859 0.506147 1.38118 0
M  V30 9464 H 890.817 -1.16793 4.00519 0
M  V30 9465 H 889.447 -1.42941 2.89426 0
M  V30 9466 H 888.499 0.84967 3.70789 0
M  V30 9467 H 889.811 0.899195 4.90628 0
M  V30 9468 H 888.965 -1.21566 5.94396 0
M  V30 9469 H 887.704 -1.35124 4.68607 0
M  V30 9470 H 886.709 0.828474 5.43522 0
M  V30 9471 H 887.934 0.949403 6.72431 0
M  V30 9472 H 885.88 -1.27585 6.43473 0
M  V30 9473 H 885.797 0.0397853 7.5599 0
M  V30 9474 H 887.065 -1.13972 7.71123 0
M  V30 9475 N 891.294 -1.47756 0.548274 0
M  V30 9476 C 892.204 -2.33678 -0.207773 0
M  V30 9477 C 893.22 -1.47636 -0.920843 0
M  V30 9478 O 894.396 -1.80583 -0.89173 0
M  V30 9479 C 891.461 -3.24147 -1.23003 0
M  V30 9480 C 890.522 -4.26073 -0.52535 0
M  V30 9481 C 889.755 -5.12219 -1.4989 0
M  V30 9482 O 889.978 -5.0066 -2.73305 0
M  V30 9483 O 888.912 -5.93051 -1.02828 0
M  V30 9484 H 892.738 -2.99609 0.496794 0
M  V30 9485 H 890.323 -1.4617 0.308982 0
M  V30 9486 H 892.205 -3.80055 -1.82034 0
M  V30 9487 H 890.88 -2.60855 -1.91668 0
M  V30 9488 H 889.787 -3.7395 0.105927 0
M  V30 9489 H 891.12 -4.92054 0.119686 0
M  V30 9490 N 892.772 -0.284283 -1.55015 0
M  V30 9491 C 894.021 0.33055 -1.98973 0
M  V30 9492 C 894.334 1.56284 -1.17621 0
M  V30 9493 O 895.54 2.2512 -1.51767 0
M  V30 9494 C 893.996 0.639457 -3.54174 0
M  V30 9495 C 893.604 -0.573543 -4.44313 0
M  V30 9496 C 895.348 1.21641 -4.06699 0
M  V30 9497 C 893.255 -0.238715 -5.90918 0
M  V30 9498 H 892.185 0.127285 -0.743179 0
M  V30 9499 H 894.836 -0.390372 -1.793 0
M  V30 9500 H 893.218 1.41953 -3.69683 0
M  V30 9501 H 894.392 -1.3502 -4.40575 0
M  V30 9502 H 892.707 -1.06797 -4.02472 0
M  V30 9503 H 895.304 1.48088 -5.13784 0
M  V30 9504 H 895.647 2.15328 -3.56286 0
M  V30 9505 H 896.18 0.498422 -3.94665 0
M  V30 9506 H 892.919 -1.1437 -6.45445 0
M  V30 9507 H 892.439 0.500997 -5.97704 0
M  V30 9508 H 894.118 0.165774 -6.46788 0
M  V30 9509 N 894.251 1.57596 -0.0117121 0
M  V30 9510 C 895.497 1.91355 0.671661 0
M  V30 9511 C 895.83 0.886818 1.72769 0
M  V30 9512 O 895.105 -0.0928813 1.94278 0
M  V30 9513 C 895.388 3.35657 1.30409 0
M  V30 9514 C 895.241 4.49055 0.2588 0
M  V30 9515 C 896.56 3.79595 2.22701 0
M  V30 9516 H 893.679 0.695893 0.242698 0
M  V30 9517 H 896.321 1.89887 -0.0654071 0
M  V30 9518 H 894.471 3.37038 1.9323 0
M  V30 9519 H 896.143 4.59809 -0.370631 0
M  V30 9520 H 894.386 4.31785 -0.417672 0
M  V30 9521 H 895.057 5.4701 0.740578 0
M  V30 9522 H 897.533 3.7984 1.69885 0
M  V30 9523 H 896.409 4.81292 2.63912 0
M  V30 9524 H 896.67 3.14118 3.11098 0
M  V30 9525 N 895.729 -0.261212 1.5542 0
M  V30 9526 C 896.639 -1.34493 1.92221 0
M  V30 9527 C 897.655 -1.53421 0.82086 0
M  V30 9528 O 898.831 -1.6732 1.12099 0
M  V30 9529 C 895.896 -2.68209 2.19692 0
M  V30 9530 C 894.957 -2.57927 3.43179 0
M  V30 9531 C 894.19 -3.85266 3.69331 0
M  V30 9532 O 894.413 -4.86493 2.97793 0
M  V30 9533 O 893.347 -3.8476 4.62865 0
M  V30 9534 H 897.173 -1.06278 2.84497 0
M  V30 9535 H 894.758 -0.460752 1.42118 0
M  V30 9536 H 896.64 -3.47252 2.38734 0
M  V30 9537 H 895.315 -2.96186 1.30597 0
M  V30 9538 H 894.222 -1.77219 3.2946 0
M  V30 9539 H 895.555 -2.34898 4.32532 0
M  V30 9540 N 897.207 -1.48554 -0.526253 0
M  V30 9541 C 898.14 -1.57928 -1.64724 0
M  V30 9542 C 899.118 -0.429536 -1.56824 0
M  V30 9543 O 900.302 -0.641651 -1.77243 0
M  V30 9544 C 897.429 -1.51075 -3.0314 0
M  V30 9545 C 896.475 -2.70937 -3.29386 0
M  V30 9546 S 897.308 -4.3287 -3.15251 0
M  V30 9547 C 898.464 -4.28622 -4.56108 0
M  V30 9548 H 898.697 -2.52761 -1.56523 0
M  V30 9549 H 896.23 -1.37133 -0.7095 0
M  V30 9550 H 898.188 -1.47808 -3.82966 0
M  V30 9551 H 896.849 -0.57574 -3.08778 0
M  V30 9552 H 896.042 -2.62291 -4.30371 0
M  V30 9553 H 895.644 -2.71486 -2.57238 0
M  V30 9554 H 897.936 -3.98784 -5.47702 0
M  V30 9555 H 898.879 -5.29798 -4.69808 0
M  V30 9556 H 899.287 -3.59038 -4.35605 0
M  V30 9557 N 898.685 0.775411 -1.37205 0
M  V30 9558 C 899.633 1.90996 -1.32752 0
M  V30 9559 C 900.627 1.68006 -0.216907 0
M  V30 9560 O 901.833 1.7584 -0.384723 0
M  V30 9561 H 898.208 0.62803 -0.413621 0
M  V30 9562 H 900.179 1.91869 -2.28536 0
M  V30 9563 C 898.928 3.28211 -1.14772 0
M  V30 9564 H 898.251 3.46477 -1.99484 0
M  V30 9565 H 899.691 4.07907 -1.15706 0
M  V30 9566 C 898.15 3.3658 0.146852 0
M  V30 9567 O 898.68 3.85428 1.13173 0
M  V30 9568 N 896.886 2.89936 0.196305 0
M  V30 9569 H 896.433 2.50375 -0.605807 0
M  V30 9570 H 896.391 2.95916 1.06212 0
M  V30 9571 N 900.163 1.21714 1.00117 0
M  V30 9572 C 901.073 0.99597 2.12409 0
M  V30 9573 C 902.089 -0.0531431 1.73919 0
M  V30 9574 O 903.265 0.137757 2.00928 0
M  V30 9575 C 900.33 0.567593 3.42022 0
M  V30 9576 C 899.391 1.68936 3.94663 0
M  V30 9577 C 898.624 1.28133 5.1809 0
M  V30 9578 O 898.847 0.156574 5.70185 0
M  V30 9579 O 897.781 2.0947 5.64275 0
M  V30 9580 H 901.607 1.93657 2.33946 0
M  V30 9581 H 899.192 1.00236 1.10784 0
M  V30 9582 H 901.074 0.338664 4.20037 0
M  V30 9583 H 899.749 -0.34424 3.21864 0
M  V30 9584 H 898.656 1.97274 3.17858 0
M  V30 9585 H 899.989 2.57876 4.19238 0
M  V30 9586 N 901.641 -1.19671 1.02551 0
M  V30 9587 C 902.89 -1.88591 0.715272 0
M  V30 9588 C 903.203 -1.80274 -0.758982 0
M  V30 9589 O 904.409 -2.44413 -1.18213 0
M  V30 9590 C 902.865 -3.38264 1.22905 0
M  V30 9591 C 902.473 -3.55146 2.73084 0
M  V30 9592 C 904.217 -4.12683 0.994649 0
M  V30 9593 C 902.124 -4.98693 3.17897 0
M  V30 9594 H 901.054 -0.706326 0.263857 0
M  V30 9595 H 903.705 -1.35322 1.23936 0
M  V30 9596 H 902.087 -3.9091 0.632892 0
M  V30 9597 H 903.261 -3.12845 3.38326 0
M  V30 9598 H 901.576 -2.94112 2.94766 0
M  V30 9599 H 904.173 -5.18536 1.30478 0
M  V30 9600 H 904.516 -4.16243 -0.0686466 0
M  V30 9601 H 905.049 -3.66164 1.55464 0
M  V30 9602 H 901.788 -5.00293 4.23542 0
M  V30 9603 H 901.308 -5.4177 2.57381 0
M  V30 9604 H 902.987 -5.67327 3.11045 0
M  V30 9605 N 903.119 -0.802921 -1.35613 0
M  V30 9606 C 904.029 -0.212177 -2.33639 0
M  V30 9607 C 905.045 0.642871 -1.61689 0
M  V30 9608 O 906.221 0.555485 -1.93588 0
M  V30 9609 C 903.286 0.632406 -3.40883 0
M  V30 9610 C 902.347 -0.242708 -4.28613 0
M  V30 9611 C 901.58 0.56166 -5.30736 0
M  V30 9612 O 901.803 1.79664 -5.41366 0
M  V30 9613 O 900.737 -0.0455387 -6.01883 0
M  V30 9614 H 904.563 -1.023 -2.85952 0
M  V30 9615 H 902.148 -0.564636 -1.38319 0
M  V30 9616 H 904.03 1.11358 -4.0642 0
M  V30 9617 H 902.705 1.42089 -2.90848 0
M  V30 9618 H 901.612 -0.77094 -3.6607 0
M  V30 9619 H 902.945 -0.995046 -4.82037 0
M  V30 9620 N 904.597 1.47463 -0.556102 0
M  V30 9621 C 905.507 2.33785 0.195378 0
M  V30 9622 C 906.523 1.48123 0.913 0
M  V30 9623 O 907.699 1.81053 0.882141 0
M  V30 9624 C 904.764 3.24795 1.21282 0
M  V30 9625 C 903.825 4.26346 0.502747 0
M  V30 9626 C 903.058 5.13007 1.47172 0
M  V30 9627 O 903.281 5.02103 2.70646 0
M  V30 9628 O 902.215 5.93588 0.996814 0
M  V30 9629 H 906.041 2.99341 -0.512676 0
M  V30 9630 H 903.626 1.46004 -0.31673 0
M  V30 9631 H 905.508 3.81015 1.80016 0
M  V30 9632 H 904.183 2.61868 1.90282 0
M  V30 9633 H 903.09 3.73889 -0.125757 0
M  V30 9634 H 904.423 4.91984 -0.145779 0
M  V30 9635 N 906.075 0.2925 1.54862 0
M  V30 9636 C 907.323 -0.318633 1.99572 0
M  V30 9637 C 907.644 -1.55062 1.1824 0
M  V30 9638 O 906.914 -1.93943 0.276226 0
M  V30 9639 H 905.494 -0.120722 0.737181 0
M  V30 9640 H 908.156 0.401862 1.90712 0
M  V30 9641 H 907.252 -0.596542 3.06346 0
M  V30 9642 N 907.553 -1.57587 0.0200696 0
M  V30 9643 C 908.5 -2.09667 -0.964791 0
M  V30 9644 C 909.47 -0.99664 -1.32877 0
M  V30 9645 O 910.655 -1.2703 -1.42366 0
M  V30 9646 C 907.795 -2.62101 -2.24493 0
M  V30 9647 C 906.908 -3.8608 -1.93821 0
M  V30 9648 C 906.043 -4.26939 -3.16064 0
M  V30 9649 C 905.082 -5.43701 -2.81169 0
M  V30 9650 N 904.219 -5.79759 -3.9601 0
M  V30 9651 H 909.059 -2.93538 -0.513751 0
M  V30 9652 H 906.596 -1.45096 -0.242 0
M  V30 9653 H 908.554 -2.90587 -2.99358 0
M  V30 9654 H 907.184 -1.81074 -2.6723 0
M  V30 9655 H 906.236 -3.64378 -1.09237 0
M  V30 9656 H 907.548 -4.71028 -1.64115 0
M  V30 9657 H 906.702 -4.56814 -3.99257 0
M  V30 9658 H 905.441 -3.40739 -3.48924 0
M  V30 9659 H 904.446 -5.13529 -1.96387 0
M  V30 9660 H 905.671 -6.31593 -2.49535 0
M  V30 9661 H 903.617 -4.96516 -4.28729 0
M  V30 9662 H 903.534 -6.59327 -3.69896 0
M  V30 9663 H 904.802 -6.14235 -4.79933 0
M  V30 9664 N 909.032 0.252966 -1.55557 0
M  V30 9665 C 909.98 1.33289 -1.90622 0
M  V30 9666 C 910.974 1.50133 -0.784638 0
M  V30 9667 O 912.18 1.51679 -0.969196 0
M  V30 9668 H 908.555 0.446196 -0.605321 0
M  V30 9669 H 910.526 1.00977 -2.80796 0
M  V30 9670 C 909.275 2.68254 -2.21213 0
M  V30 9671 H 908.598 2.5609 -3.07014 0
M  V30 9672 H 910.038 3.42707 -2.49656 0
M  V30 9673 C 908.497 3.20884 -1.02642 0
M  V30 9674 O 909.027 4.00783 -0.271292 0
M  V30 9675 N 907.233 2.7883 -0.818682 0
M  V30 9676 H 906.78 2.13966 -1.43444 0
M  V30 9677 H 906.738 3.14388 -0.0269989 0
M  V30 9678 N 910.51 1.48831 0.518367 0
M  V30 9679 C 911.457 1.64216 1.62178 0
M  V30 9680 C 912.427 0.483942 1.58894 0
M  V30 9681 O 913.612 0.708857 1.77144 0
M  V30 9682 C 910.752 1.69867 3.00399 0
M  V30 9683 C 909.865 2.96875 3.1383 0
M  V30 9684 C 909 2.93613 4.42679 0
M  V30 9685 C 908.039 4.15276 4.4968 0
M  V30 9686 N 907.176 4.10024 5.69934 0
M  V30 9687 H 912.016 2.58439 1.48368 0
M  V30 9688 H 909.553 1.28154 0.722152 0
M  V30 9689 H 911.511 1.71124 3.8049 0
M  V30 9690 H 910.141 0.791249 3.12952 0
M  V30 9691 H 909.193 3.0531 2.26914 0
M  V30 9692 H 910.505 3.86863 3.14863 0
M  V30 9693 H 909.659 2.93337 5.31073 0
M  V30 9694 H 908.398 2.01375 4.44184 0
M  V30 9695 H 907.403 4.15816 3.59691 0
M  V30 9696 H 908.628 5.08687 4.49904 0
M  V30 9697 H 906.574 3.20613 5.72314 0
M  V30 9698 H 906.491 4.93728 5.72511 0
M  V30 9699 H 907.759 4.13824 6.60583 0
M  V30 9700 N 911.988 -0.768124 1.37614 0
M  V30 9701 C 912.898 -1.91249 1.35871 0
M  V30 9702 C 913.914 -1.7208 0.257786 0
M  V30 9703 O 915.09 -1.95253 0.493782 0
M  V30 9704 C 912.155 -3.26423 1.16829 0
M  V30 9705 C 911.216 -3.5822 2.36594 0
M  V30 9706 C 910.449 -4.86945 2.1845 0
M  V30 9707 O 910.672 -5.58258 1.17064 0
M  V30 9708 O 909.606 -5.17888 3.06718 0
M  V30 9709 H 913.432 -1.95671 2.32264 0
M  V30 9710 H 911.017 -0.911382 1.18382 0
M  V30 9711 H 912.899 -4.07269 1.08212 0
M  V30 9712 H 911.574 -3.22845 0.235123 0
M  V30 9713 H 910.481 -2.77594 2.50783 0
M  V30 9714 H 911.814 -3.66545 3.2849 0
M  V30 9715 N 913.466 -1.22244 -0.994698 0
M  V30 9716 C 914.398 -0.948706 -2.08644 0
M  V30 9717 C 915.411 0.0720049 -1.62641 0
M  V30 9718 O 916.6 -0.161778 -1.77765 0
M  V30 9719 C 913.7 -0.404885 -3.36473 0
M  V30 9720 C 912.873 -1.48239 -4.11514 0
M  V30 9721 C 911.932 -0.94597 -5.17627 0
M  V30 9722 O 910.958 -1.63177 -5.45309 0
M  V30 9723 N 912.16 0.23355 -5.8003 0
M  V30 9724 H 914.925 -1.88858 -2.32707 0
M  V30 9725 H 912.486 -1.12908 -1.16032 0
M  V30 9726 H 914.478 -0.0313903 -4.04688 0
M  V30 9727 H 913.048 0.440061 -3.09487 0
M  V30 9728 H 912.268 -2.02928 -3.37955 0
M  V30 9729 H 913.556 -2.20741 -4.58422 0
M  V30 9730 H 912.954 0.80756 -5.59906 0
M  V30 9731 H 911.511 0.54845 -6.49488 0
M  V30 9732 N 914.944 1.19125 -1.03184 0
M  V30 9733 C 915.907 2.20662 -0.619766 0
M  V30 9734 C 916.907 1.57621 0.318179 0
M  V30 9735 O 918.097 1.73885 0.104783 0
M  V30 9736 C 915.229 3.40774 0.0926696 0
M  V30 9737 H 916.422 2.58633 -1.5182 0
M  V30 9738 H 913.975 1.32855 -0.823364 0
M  V30 9739 H 914.71 3.08324 1.00531 0
M  V30 9740 H 914.495 3.87766 -0.581344 0
M  V30 9741 H 915.985 4.15977 0.367792 0
M  V30 9742 N 916.422 0.810101 1.35185 0
M  V30 9743 C 917.671 0.388589 1.97921 0
M  V30 9744 C 917.984 -1.05079 1.64978 0
M  V30 9745 O 919.19 -1.57559 2.21105 0
M  V30 9746 C 917.646 0.643864 3.54094 0
M  V30 9747 C 917.254 2.09602 3.95943 0
M  V30 9748 C 918.998 0.287883 4.23523 0
M  V30 9749 C 916.905 2.29686 5.44976 0
M  V30 9750 H 915.835 0.141562 0.740592 0
M  V30 9751 H 918.486 0.994653 1.54204 0
M  V30 9752 H 916.868 -0.0321978 3.95987 0
M  V30 9753 H 918.042 2.81018 3.65192 0
M  V30 9754 H 916.357 2.4122 3.39414 0
M  V30 9755 H 918.954 0.415946 5.3308 0
M  V30 9756 H 919.297 -0.766305 4.09186 0
M  V30 9757 H 919.83 0.918004 3.87063 0
M  V30 9758 H 916.569 3.33563 5.64284 0
M  V30 9759 H 916.089 1.62798 5.77284 0
M  V30 9760 H 917.768 2.11411 6.11485 0
M  V30 9761 N 917.9 -1.47166 0.563914 0
M  V30 9762 C 918.848 -2.31798 -0.193009 0
M  V30 9763 C 919.842 -1.43338 -0.902805 0
M  V30 9764 O 921.048 -1.60067 -0.823328 0
M  V30 9765 H 917.423 -0.747613 -0.0811139 0
M  V30 9766 H 919.394 -2.93476 0.539876 0
M  V30 9767 C 918.143 -3.26131 -1.20555 0
M  V30 9768 H 917.466 -3.94166 -0.668803 0
M  V30 9769 H 918.906 -3.88167 -1.70593 0
M  V30 9770 C 917.365 -2.50132 -2.25689 0
M  V30 9771 O 917.895 -2.25064 -3.3273 0
M  V30 9772 N 916.101 -2.11022 -1.99795 0
M  V30 9773 H 915.648 -2.3161 -1.1276 0
M  V30 9774 H 915.606 -1.60489 -2.70353 0
M  V30 9775 N 919.378 -0.300708 -1.54705 0
M  V30 9776 C 920.603 0.314073 -2.05008 0
M  V30 9777 C 921.028 1.46759 -1.17657 0
M  V30 9778 O 920.386 1.80398 -0.180598 0
M  V30 9779 C 920.434 0.748243 -3.52752 0
M  V30 9780 O 919.538 1.85305 -3.68424 0
M  V30 9781 H 918.879 0.0610139 -0.661191 0
M  V30 9782 H 921.409 -0.442467 -1.99758 0
M  V30 9783 H 921.419 1.03713 -3.94598 0
M  V30 9784 H 920.094 -0.095573 -4.1579 0
M  V30 9785 H 918.671 1.56473 -3.38483 0
M  V30 9786 N 920.856 1.57574 -0.0284266 0
M  V30 9787 C 922.081 1.96479 0.664137 0
M  V30 9788 C 922.506 0.904826 1.64908 0
M  V30 9789 O 921.864 -0.134339 1.80802 0
M  V30 9790 C 921.912 3.34479 1.34745 0
M  V30 9791 O 921.016 3.30794 2.46271 0
M  V30 9792 H 920.357 0.640654 0.174524 0
M  V30 9793 H 922.887 2.04402 -0.0900729 0
M  V30 9794 H 922.897 3.70694 1.7044 0
M  V30 9795 H 921.572 4.1117 0.625468 0
M  V30 9796 H 920.149 3.06294 2.12693 0
M  V30 9797 N 922.334 -0.244713 1.55689 0
M  V30 9798 C 923.244 -1.32447 1.93636 0
M  V30 9799 C 924.26 -1.52541 0.837086 0
M  V30 9800 O 925.436 -1.66121 1.13867 0
M  V30 9801 C 922.501 -2.65864 2.22525 0
M  V30 9802 C 921.562 -2.54273 3.45896 0
M  V30 9803 C 920.795 -3.81327 3.73397 0
M  V30 9804 O 921.018 -4.83307 3.02936 0
M  V30 9805 O 919.952 -3.79829 4.66919 0
M  V30 9806 H 923.778 -1.03255 2.85608 0
M  V30 9807 H 921.363 -0.445652 1.42598 0
M  V30 9808 H 923.245 -3.447 2.42404 0
M  V30 9809 H 921.92 -2.94784 1.33731 0
M  V30 9810 H 920.827 -1.73715 3.31321 0
M  V30 9811 H 922.16 -2.30297 4.34999 0
M  V30 9812 N 923.813 -1.49104 -0.510467 0
M  V30 9813 C 924.761 -1.65547 -1.63392 0
M  V30 9814 C 925.755 -0.521522 -1.61172 0
M  V30 9815 O 926.961 -0.700865 -1.65795 0
M  V30 9816 H 923.336 -0.521843 -0.541464 0
M  V30 9817 H 925.307 -2.59864 -1.46673 0
M  V30 9818 C 924.056 -1.73051 -3.01577 0
M  V30 9819 H 923.379 -2.59676 -3.03987 0
M  V30 9820 H 924.819 -1.88594 -3.79748 0
M  V30 9821 C 923.278 -0.47328 -3.33559 0
M  V30 9822 O 923.808 0.405239 -3.99651 0
M  V30 9823 N 922.014 -0.339074 -2.88615 0
M  V30 9824 H 921.561 -1.05497 -2.35007 0
M  V30 9825 H 921.519 0.501061 -3.10382 0
M  V30 9826 N 925.291 0.760815 -1.38019 0
M  V30 9827 C 926.54 1.51506 -1.3315 0
M  V30 9828 C 926.853 1.95444 0.0782124 0
M  V30 9829 O 928.059 2.70352 0.249418 0
M  V30 9830 C 926.515 2.73636 -2.33776 0
M  V30 9831 C 926.123 2.36753 -3.80332 0
M  V30 9832 C 927.867 3.51548 -2.37937 0
M  V30 9833 C 925.774 3.55451 -4.72661 0
M  V30 9834 H 924.704 0.568844 -0.494907 0
M  V30 9835 H 927.355 0.832343 -1.63537 0
M  V30 9836 H 925.737 3.43852 -1.96422 0
M  V30 9837 H 926.911 1.7425 -4.26584 0
M  V30 9838 H 925.226 1.71991 -3.7922 0
M  V30 9839 H 927.823 4.39791 -3.04119 0
M  V30 9840 H 928.166 3.9219 -1.39617 0
M  V30 9841 H 928.699 2.88339 -2.74054 0
M  V30 9842 H 925.438 3.19882 -5.7215 0
M  V30 9843 H 924.958 4.17022 -4.31107 0
M  V30 9844 H 926.637 4.22125 -4.90326 0
M  V30 9845 N 926.769 1.22769 0.988202 0
M  V30 9846 C 927.702 0.945196 2.07705 0
M  V30 9847 C 928.68 -0.11363 1.62202 0
M  V30 9848 O 929.864 0.0189624 1.8849 0
M  V30 9849 C 926.991 0.422474 3.36055 0
M  V30 9850 C 926.037 1.4667 4.00487 0
M  V30 9851 S 926.87 3.04158 4.40736 0
M  V30 9852 C 928.026 2.53536 5.7225 0
M  V30 9853 H 928.259 1.86723 2.31348 0
M  V30 9854 H 925.792 1.05928 1.12333 0
M  V30 9855 H 927.75 0.12748 4.10302 0
M  V30 9856 H 926.411 -0.478515 3.10434 0
M  V30 9857 H 925.604 1.05093 4.92921 0
M  V30 9858 H 925.206 1.71064 3.32585 0
M  V30 9859 H 927.498 1.95069 6.4881 0
M  V30 9860 H 928.441 3.44479 6.1866 0
M  V30 9861 H 928.849 1.94658 5.29876 0
M  V30 9862 N 928.247 -1.18576 1.03814 0
M  V30 9863 C 929.524 -1.8433 0.654358 0
M  V30 9864 C 929.904 -1.92504 -0.866338 0
M  V30 9865 O 929.252 -1.44904 -1.76678 0
M  V30 9866 C 929.462 -3.22778 1.32723 0
M  V30 9867 C 930.81 -3.98841 1.45641 0
M  V30 9868 O 931.834 -3.32209 1.28514 0
M  V30 9869 O 930.693 -5.18219 1.73526 0
M  V30 9870 H 927.787 -0.794766 0.228638 0
M  V30 9871 H 930.333 -1.25989 1.13687 0
M  V30 9872 H 929.105 -3.11717 2.36534 0
M  V30 9873 H 928.728 -3.88772 0.833176 0
M  V30 9874 N 929.725 -0.817259 -1.34754 0
M  V30 9875 C 930.974 -0.39908 -1.97713 0
M  V30 9876 C 931.287 1.04203 -1.65533 0
M  V30 9877 O 932.493 1.56384 -2.21937 0
M  V30 9878 C 930.949 -0.662634 -3.53747 0
M  V30 9879 C 930.557 -2.11699 -3.94826 0
M  V30 9880 C 932.301 -0.31034 -4.23364 0
M  V30 9881 C 930.208 -2.32573 -5.4375 0
M  V30 9882 H 929.138 -0.145488 -0.739831 0
M  V30 9883 H 931.789 -1.00282 -1.53674 0
M  V30 9884 H 930.171 0.0111972 -3.95998 0
M  V30 9885 H 931.345 -2.82951 -3.63697 0
M  V30 9886 H 929.66 -2.43017 -3.3813 0
M  V30 9887 H 932.257 -0.44421 -5.32852 0
M  V30 9888 H 932.6 0.744594 -4.09587 0
M  V30 9889 H 933.133 -0.938518 -3.8657 0
M  V30 9890 H 929.872 -3.36551 -5.62507 0
M  V30 9891 H 929.392 -1.65858 -5.76412 0
M  V30 9892 H 931.071 -2.14651 -6.10356 0
M  V30 9893 N 931.203 1.46865 -0.571711 0
M  V30 9894 C 932.151 2.31897 0.180714 0
M  V30 9895 C 933.145 1.43815 0.895191 0
M  V30 9896 O 934.351 1.60501 0.814828 0
M  V30 9897 H 930.726 0.748032 0.077148 0
M  V30 9898 H 932.697 2.93185 -0.555432 0
M  V30 9899 C 931.446 3.26766 1.18824 0
M  V30 9900 H 930.769 3.94515 0.64789 0
M  V30 9901 H 932.209 3.89067 1.68532 0
M  V30 9902 C 930.668 2.51325 2.2436 0
M  V30 9903 O 931.198 2.26825 3.31532 0
M  V30 9904 N 929.404 2.12079 1.98673 0
M  V30 9905 H 928.951 2.32204 1.1153 0
M  V30 9906 H 928.909 1.61921 2.69498 0
M  V30 9907 N 932.681 0.308908 1.54543 0
M  V30 9908 C 933.591 -0.572939 2.27496 0
M  V30 9909 C 934.607 -1.14171 1.31305 0
M  V30 9910 O 935.783 -1.16481 1.64299 0
M  V30 9911 C 932.848 -1.72483 3.0075 0
M  V30 9912 C 931.909 -1.18934 4.12496 0
M  V30 9913 C 931.142 -2.28634 4.82247 0
M  V30 9914 O 931.365 -3.48691 4.5141 0
M  V30 9915 O 930.299 -1.94879 5.69478 0
M  V30 9916 H 934.125 0.0190877 3.03694 0
M  V30 9917 H 931.71 0.0750943 1.49211 0
M  V30 9918 H 933.592 -2.39578 3.46671 0
M  V30 9919 H 932.267 -2.30332 2.2744 0
M  V30 9920 H 931.174 -0.483904 3.70957 0
M  V30 9921 H 932.507 -0.656185 4.87806 0
M  V30 9922 N 934.159 -1.57557 0.0367827 0
M  V30 9923 C 935.069 -2.14148 -0.958017 0
M  V30 9924 C 936.085 -1.09564 -1.35173 0
M  V30 9925 O 937.261 -1.4166 -1.43158 0
M  V30 9926 C 934.326 -2.6636 -2.21931 0
M  V30 9927 C 933.387 -3.85688 -1.8853 0
M  V30 9928 C 932.62 -4.35401 -3.08645 0
M  V30 9929 O 932.843 -3.8425 -4.21554 0
M  V30 9930 O 931.777 -5.27158 -2.90497 0
M  V30 9931 H 935.603 -2.99442 -0.506797 0
M  V30 9932 H 933.188 -1.48259 -0.184275 0
M  V30 9933 H 935.07 -2.99976 -2.9596 0
M  V30 9934 H 933.745 -1.84145 -2.66219 0
M  V30 9935 H 932.652 -3.56985 -1.11861 0
M  V30 9936 H 933.985 -4.69089 -1.49052 0
M  V30 9937 N 935.637 0.236453 -1.55816 0
M  V30 9938 C 937.048 0.80468 -1.68469 0
M  V30 9939 C 937.399 1.85601 -0.636133 0
M  V30 9940 O 936.524 2.15323 0.215622 0
M  V30 9941 C 937.119 1.46634 -3.05424 0
M  V30 9942 C 935.678 1.98214 -3.19981 0
M  V30 9943 C 934.825 0.83695 -2.64368 0
M  V30 9944 H 937.776 0.0120647 -1.58695 0
M  V30 9945 H 937.797 2.33472 -3.00451 0
M  V30 9946 H 937.309 0.700931 -3.81718 0
M  V30 9947 H 935.41 2.77604 -2.4853 0
M  V30 9948 H 935.523 2.17235 -4.2702 0
M  V30 9949 H 933.887 1.24028 -2.22462 0
M  V30 9950 H 934.67 0.084451 -3.43196 0
M  V30 9951 N 937.115 1.49373 0.502552 0
M  V30 9952 C 938.363 1.58467 1.25429 0
M  V30 9953 C 938.684 0.272593 1.93085 0
M  V30 9954 O 937.954 -0.707947 1.82661 0
M  V30 9955 H 936.534 0.583866 0.46595 0
M  V30 9956 H 939.196 1.8599 0.582568 0
M  V30 9957 H 938.292 2.37993 2.01906 0
M  V30 9958 N 938.594 -0.753485 1.38421 0
M  V30 9959 C 939.822 -1.54272 1.37868 0
M  V30 9960 C 940.237 -1.88774 -0.0315155 0
M  V30 9961 O 939.594 -1.52785 -0.998148 0
M  V30 9962 C 939.645 -2.84179 2.23438 0
M  V30 9963 O 939.366 -2.51149 3.58965 0
M  V30 9964 C 940.867 -3.78316 2.31067 0
M  V30 9965 H 938.087 -0.47735 0.47157 0
M  V30 9966 H 940.631 -0.932509 1.82001 0
M  V30 9967 H 938.786 -3.41577 1.82767 0
M  V30 9968 H 939.2 -3.34466 4.04021 0
M  V30 9969 H 940.674 -4.66418 2.95226 0
M  V30 9970 H 941.151 -4.18757 1.32436 0
M  V30 9971 H 941.757 -3.26842 2.72129 0
M  V30 9972 N 940.072 -1.23292 -0.981677 0
M  V30 9973 C 941.3 -1.09088 -1.75805 0
M  V30 9974 C 941.715 0.357746 -1.8538 0
M  V30 9975 O 941.072 1.24751 -1.33205 0
M  V30 9976 C 941.123 -1.70885 -3.1856 0
M  V30 9977 O 940.844 -3.10082 -3.09484 0
M  V30 9978 C 942.345 -1.62106 -4.12597 0
M  V30 9979 H 939.565 -0.38184 -0.55176 0
M  V30 9980 H 942.109 -1.63116 -1.23342 0
M  V30 9981 H 940.264 -1.20893 -3.68054 0
M  V30 9982 H 940.678 -3.40039 -3.99342 0
M  V30 9983 H 942.152 -2.10049 -5.10474 0
M  V30 9984 H 942.629 -0.579642 -4.35358 0
M  V30 9985 H 943.235 -2.11457 -3.69007 0
M  V30 9986 N 941.55 1.18024 -1.04442 0
M  V30 9987 C 942.46 2.25436 -0.649276 0
M  V30 9988 C 943.476 1.70915 0.326189 0
M  V30 9989 O 944.652 2.00592 0.180174 0
M  V30 9990 C 941.717 3.46693 -0.0222558 0
M  V30 9991 C 940.778 4.16332 -1.0472 0
M  V30 9992 C 940.011 5.31799 -0.450011 0
M  V30 9993 O 940.234 5.65544 0.742717 0
M  V30 9994 O 939.168 5.90209 -1.18056 0
M  V30 9995 H 942.994 2.61508 -1.54426 0
M  V30 9996 H 940.579 1.25178 -0.81552 0
M  V30 9997 H 942.461 4.20132 0.326597 0
M  V30 9998 H 941.136 3.12436 0.84649 0
M  V30 9999 H 940.043 3.44944 -1.44792 0
M  V30 10000 H 941.376 4.54598 -1.88684 0
M  V30 10001 N 943.028 0.824394 1.34319 0
M  V30 10002 C 944.276 0.41235 1.97849 0
M  V30 10003 C 944.597 -1.02841 1.65677 0
M  V30 10004 O 943.867 -1.71421 0.948245 0
M  V30 10005 H 942.447 0.149486 0.73189 0
M  V30 10006 H 945.109 1.05416 1.63931 0
M  V30 10007 H 944.205 0.532557 3.07523 0
M  V30 10008 N 944.506 -1.46559 0.579492 0
M  V30 10009 C 945.416 -2.34066 -0.15816 0
M  V30 10010 C 946.432 -1.49556 -0.88932 0
M  V30 10011 O 947.608 -1.82434 -0.853226 0
M  V30 10012 C 944.673 -3.26683 -1.161 0
M  V30 10013 C 943.734 -4.27092 -0.434855 0
M  V30 10014 C 942.967 -5.15283 -1.38992 0
M  V30 10015 O 943.19 -5.06345 -2.62623 0
M  V30 10016 O 942.124 -5.95099 -0.902253 0
M  V30 10017 H 945.95 -2.98488 0.560234 0
M  V30 10018 H 943.535 -1.45482 0.339918 0
M  V30 10019 H 945.417 -3.8383 -1.73932 0
M  V30 10020 H 944.092 -2.64862 -1.86091 0
M  V30 10021 H 942.999 -3.73641 0.185224 0
M  V30 10022 H 944.332 -4.9169 0.224031 0
M  V30 10023 N 945.984 -0.3171 -1.54377 0
M  V30 10024 C 946.894 0.560867 -2.27797 0
M  V30 10025 C 947.91 1.13473 -1.31908 0
M  V30 10026 O 949.086 1.15608 -1.64914 0
M  V30 10027 C 946.151 1.70886 -3.0166 0
M  V30 10028 C 945.212 1.16745 -4.13121 0
M  V30 10029 C 944.445 2.26073 -4.83453 0
M  V30 10030 O 944.668 3.46292 -4.53252 0
M  V30 10031 O 943.602 1.91856 -5.70504 0
M  V30 10032 H 947.428 -0.035193 -3.0368 0
M  V30 10033 H 945.013 -0.0830062 -1.49169 0
M  V30 10034 H 946.895 2.37736 -3.47936 0
M  V30 10035 H 945.57 2.29122 -2.28658 0
M  V30 10036 H 944.477 0.464224 -3.71209 0
M  V30 10037 H 945.81 0.630307 -4.88147 0
M  V30 10038 N 947.462 1.57535 -0.0451378 0
M  V30 10039 C 948.711 1.91628 0.629415 0
M  V30 10040 C 949.024 0.924754 1.72359 0
M  V30 10041 O 950.23 1.15751 2.45589 0
M  V30 10042 C 948.686 3.40322 1.17084 0
M  V30 10043 C 948.294 4.47867 0.109101 0
M  V30 10044 C 950.038 3.83458 1.82099 0
M  V30 10045 C 947.945 5.87671 0.663072 0
M  V30 10046 H 946.875 0.715163 0.238868 0
M  V30 10047 H 949.526 1.83151 -0.113046 0
M  V30 10048 H 947.908 3.43783 1.96543 0
M  V30 10049 H 949.082 4.55988 -0.664201 0
M  V30 10050 H 947.397 4.14034 -0.443227 0
M  V30 10051 H 949.994 4.85273 2.2453 0
M  V30 10052 H 950.337 3.19379 2.67026 0
M  V30 10053 H 950.87 3.82488 1.09305 0
M  V30 10054 H 947.609 6.55332 -0.148423 0
M  V30 10055 H 947.129 5.83124 1.4045 0
M  V30 10056 H 948.808 6.36737 1.14785 0
M  V30 10057 N 948.94 -0.228186 1.55939 0
M  V30 10058 C 950.168 -0.970618 1.8272 0
M  V30 10059 C 950.583 -1.78212 0.623385 0
M  V30 10060 O 949.94 -1.77879 -0.408063 0
M  V30 10061 C 949.991 -1.89352 3.07942 0
M  V30 10062 O 949.712 -1.11483 4.23678 0
M  V30 10063 C 951.213 -2.75039 3.47661 0
M  V30 10064 H 948.433 -0.284772 0.607574 0
M  V30 10065 H 950.977 -0.245419 2.03022 0
M  V30 10066 H 949.132 -2.57275 2.89635 0
M  V30 10067 H 949.546 -1.74073 4.94772 0
M  V30 10068 H 951.02 -3.35511 4.38334 0
M  V30 10069 H 951.497 -3.471 2.69106 0
M  V30 10070 H 952.103 -2.1254 3.68384 0
M  V30 10071 N 950.418 -1.49637 -0.494624 0
M  V30 10072 C 951.328 -1.69522 -1.62172 0
M  V30 10073 C 952.344 -0.577894 -1.64123 0
M  V30 10074 O 953.52 -0.853382 -1.82426 0
M  V30 10075 C 950.585 -1.7633 -2.9851 0
M  V30 10076 C 949.646 -2.99944 -3.07135 0
M  V30 10077 C 948.879 -3.06419 -4.36971 0
M  V30 10078 O 949.102 -2.20312 -5.26136 0
M  V30 10079 O 948.036 -3.9894 -4.507 0
M  V30 10080 H 951.862 -2.65017 -1.48324 0
M  V30 10081 H 949.447 -1.33454 -0.671603 0
M  V30 10082 H 951.329 -1.83125 -3.7953 0
M  V30 10083 H 950.004 -0.840155 -3.12607 0
M  V30 10084 H 948.911 -2.98664 -2.2528 0
M  V30 10085 H 950.244 -3.9176 -2.97968 0
M  V30 10086 N 951.896 0.746133 -1.38819 0
M  V30 10087 C 953.121 1.54049 -1.38866 0
M  V30 10088 C 953.546 1.88092 0.0176624 0
M  V30 10089 O 952.904 1.51113 1.00173 0
M  V30 10090 C 952.952 2.8116 -2.25791 0
M  V30 10091 O 952.056 3.76623 -1.68014 0
M  V30 10092 H 951.397 0.465648 -0.473359 0
M  V30 10093 H 953.927 0.921469 -1.82675 0
M  V30 10094 H 953.937 3.30009 -2.39913 0
M  V30 10095 H 952.612 2.55713 -3.27999 0
M  V30 10096 H 951.189 3.35352 -1.63074 0
M  V30 10097 N 953.375 1.23811 0.975125 0
M  V30 10098 C 954.6 1.10109 1.75757 0
M  V30 10099 C 955.025 -0.342922 1.84948 0
M  V30 10100 O 954.383 -1.24814 1.31496 0
M  V30 10101 C 954.431 1.73724 3.15994 0
M  V30 10102 O 953.535 1.00297 4.00018 0
M  V30 10103 H 952.876 0.385627 0.540544 0
M  V30 10104 H 955.406 1.63971 1.22372 0
M  V30 10105 H 955.416 1.79178 3.6655 0
M  V30 10106 H 954.091 2.78794 3.0862 0
M  V30 10107 H 952.668 1.02575 3.58515 0
M  V30 10108 N 954.853 -1.17469 1.05066 0
M  V30 10109 C 956.078 -1.92162 0.780298 0
M  V30 10110 C 956.503 -1.76222 -0.657832 0
M  V30 10111 O 955.861 -1.0791 -1.45688 0
M  V30 10112 C 955.909 -3.41292 1.16414 0
M  V30 10113 O 955.013 -4.1134 0.295531 0
M  V30 10114 H 954.354 -0.599127 0.286257 0
M  V30 10115 H 956.884 -1.48903 1.40318 0
M  V30 10116 H 956.894 -3.92029 1.13036 0
M  V30 10117 H 955.569 -3.52214 2.21175 0
M  V30 10118 H 954.146 -3.70857 0.389797 0
M  V30 10119 N 956.331 -0.831506 -1.3388 0
M  V30 10120 C 957.559 -0.436925 -2.02234 0
M  V30 10121 C 957.974 0.959689 -1.6259 0
M  V30 10122 O 957.331 1.62248 -0.835576 0
M  V30 10123 C 957.382 -0.539429 -3.57453 0
M  V30 10124 O 957.103 -1.88101 -3.95664 0
M  V30 10125 C 958.604 -0.140852 -4.43076 0
M  V30 10126 H 955.824 -0.174302 -0.647966 0
M  V30 10127 H 958.368 -1.12204 -1.70969 0
M  V30 10128 H 956.523 0.0976959 -3.87277 0
M  V30 10129 H 956.937 -1.86131 -4.90363 0
M  V30 10130 H 958.411 -0.26364 -5.5137 0
M  V30 10131 H 958.888 0.916505 -4.29531 0
M  V30 10132 H 959.494 -0.752117 -4.18597 0
M  V30 10133 N 957.809 1.4625 -0.587256 0
M  V30 10134 C 958.719 2.34147 0.145744 0
M  V30 10135 C 959.735 1.50026 0.881376 0
M  V30 10136 O 960.911 1.82884 0.843539 0
M  V30 10137 C 957.976 3.27294 1.14366 0
M  V30 10138 C 957.037 4.27317 0.412199 0
M  V30 10139 C 956.27 5.16013 1.36257 0
M  V30 10140 O 956.493 5.0773 2.59934 0
M  V30 10141 O 955.427 5.95569 0.870681 0
M  V30 10142 H 959.253 2.98187 -0.576055 0
M  V30 10143 H 956.838 1.45299 -0.347628 0
M  V30 10144 H 958.72 3.84747 1.71894 0
M  V30 10145 H 957.395 2.65845 1.84684 0
M  V30 10146 H 956.302 3.73538 -0.205036 0
M  V30 10147 H 957.635 4.91564 -0.250104 0
M  V30 10148 N 959.287 0.325282 1.54207 0
M  V30 10149 C 960.197 -0.548778 2.28091 0
M  V30 10150 C 961.213 -1.12772 1.32508 0
M  V30 10151 O 962.389 -1.14732 1.65525 0
M  V30 10152 C 959.454 -1.69284 3.02562 0
M  V30 10153 C 958.515 -1.14553 4.13734 0
M  V30 10154 C 957.748 -2.23506 4.84645 0
M  V30 10155 O 957.971 -3.43884 4.55082 0
M  V30 10156 O 956.905 -1.88828 5.71513 0
M  V30 10157 H 960.731 0.0512974 3.03657 0
M  V30 10158 H 958.316 0.0909159 1.49123 0
M  V30 10159 H 960.198 -2.35887 3.49192 0
M  V30 10160 H 958.873 -2.27906 2.2987 0
M  V30 10161 H 957.78 -0.444532 3.71449 0
M  V30 10162 H 959.113 -0.60441 4.88475 0
M  V30 10163 N 960.765 -1.57509 0.0534917 0
M  V30 10164 C 961.698 -2.0723 -0.955554 0
M  V30 10165 C 962.676 -0.973313 -1.30251 0
M  V30 10166 O 963.86 -1.24541 -1.41498 0
M  V30 10167 C 960.987 -2.51473 -2.2689 0
M  V30 10168 C 960.033 -3.7263 -2.07482 0
M  V30 10169 S 960.866 -5.18177 -1.35104 0
M  V30 10170 C 962.022 -5.65736 -2.67757 0
M  V30 10171 H 962.255 -2.92494 -0.532407 0
M  V30 10172 H 959.788 -1.53581 -0.158831 0
M  V30 10173 H 961.746 -2.77626 -3.02381 0
M  V30 10174 H 960.407 -1.66511 -2.66332 0
M  V30 10175 H 959.6 -4.01515 -3.04633 0
M  V30 10176 H 959.202 -3.46756 -1.4013 0
M  V30 10177 H 961.494 -5.71463 -3.63918 0
M  V30 10178 H 962.437 -6.64914 -2.43506 0
M  V30 10179 H 962.845 -4.93475 -2.74123 0
M  V30 10180 N 962.243 0.219913 -1.56058 0
M  V30 10181 C 963.153 1.29349 -1.95719 0
M  V30 10182 C 964.169 1.5119 -0.861248 0
M  V30 10183 O 965.345 1.64289 -1.16495 0
M  V30 10184 C 962.41 2.6229 -2.26726 0
M  V30 10185 C 961.471 2.48738 -3.49897 0
M  V30 10186 C 960.704 3.75339 -3.79416 0
M  V30 10187 O 960.927 4.78427 -3.10586 0
M  V30 10188 O 959.861 3.72352 -4.72903 0
M  V30 10189 H 963.687 0.986979 -2.87215 0
M  V30 10190 H 961.272 0.42291 -1.43289 0
M  V30 10191 H 963.154 3.408 -2.47857 0
M  V30 10192 H 961.829 2.92619 -1.38404 0
M  V30 10193 H 960.736 1.68422 -3.34043 0
M  V30 10194 H 962.069 2.23347 -4.38608 0
M  V30 10195 N 963.721 1.49897 0.486681 0
M  V30 10196 C 964.967 1.60342 1.2417 0
M  V30 10197 C 965.3 0.295694 1.91936 0
M  V30 10198 O 964.575 -0.701788 1.81398 0
M  V30 10199 C 964.858 2.77281 2.29755 0
M  V30 10200 C 964.711 4.1789 1.66397 0
M  V30 10201 C 966.03 2.89817 3.31201 0
M  V30 10202 H 963.149 0.583605 0.450083 0
M  V30 10203 H 965.791 1.82232 0.537734 0
M  V30 10204 H 963.941 2.58748 2.89796 0
M  V30 10205 H 965.613 4.47975 1.10073 0
M  V30 10206 H 963.856 4.22872 0.967579 0
M  V30 10207 H 964.527 4.95612 2.43049 0
M  V30 10208 H 967.003 3.06732 2.81167 0
M  V30 10209 H 965.879 3.7329 4.02425 0
M  V30 10210 H 966.14 1.9977 3.94391 0
M  V30 10211 N 965.199 -0.738761 1.39212 0
M  V30 10212 C 966.615 -1.04381 1.20734 0
M  V30 10213 C 966.815 -2.01391 0.0663082 0
M  V30 10214 O 965.871 -2.45672 -0.583229 0
M  V30 10215 C 967.184 -1.6097 2.53987 0
M  V30 10216 C 968.732 -1.73069 2.60799 0
M  V30 10217 C 969.207 -2.33067 3.94264 0
M  V30 10218 N 970.698 -2.40481 3.95883 0
M  V30 10219 C 971.433 -2.87834 4.95923 0
M  V30 10220 N 970.929 -3.35111 6.0636 0
M  V30 10221 N 972.722 -2.87009 4.83304 0
M  V30 10222 H 964.873 -0.0952996 2.12186 0
M  V30 10223 H 967.136 -0.104902 0.942178 0
M  V30 10224 H 966.842 -0.971548 3.38015 0
M  V30 10225 H 966.716 -2.59829 2.73439 0
M  V30 10226 H 969.103 -2.36007 1.77157 0
M  V30 10227 H 969.184 -0.728728 2.452 0
M  V30 10228 H 968.828 -1.70758 4.78335 0
M  V30 10229 H 968.758 -3.33933 4.07181 0
M  V30 10230 H 971.249 -2.07061 3.16123 0
M  V30 10231 H 971.562 -3.69742 6.78609 0
M  V30 10232 H 969.907 -3.33129 6.09959 0
M  V30 10233 H 973.098 -2.49395 3.96131 0
M  V30 10234 H 973.271 -3.23598 5.61416 0
M  V30 10235 N 966.677 -1.24326 -0.968545 0
M  V30 10236 C 967.902 -1.1104 -1.75171 0
M  V30 10237 C 968.327 0.333109 -1.85127 0
M  V30 10238 O 967.685 1.24115 -1.32156 0
M  V30 10239 C 967.733 -1.75397 -3.15068 0
M  V30 10240 O 966.837 -1.02417 -3.9948 0
M  V30 10241 H 966.178 -0.388488 -0.538491 0
M  V30 10242 H 968.708 -1.64617 -1.215 0
M  V30 10243 H 968.718 -1.8112 -3.65595 0
M  V30 10244 H 967.393 -2.80427 -3.07138 0
M  V30 10245 H 965.97 -1.04475 -3.57966 0
M  V30 10246 N 968.156 1.1691 -1.05688 0
M  V30 10247 C 969.402 1.8757 -0.771071 0
M  V30 10248 C 969.735 1.8113 0.700399 0
M  V30 10249 O 969.01 1.22273 1.5126 0
M  V30 10250 C 969.293 3.37392 -1.25851 0
M  V30 10251 C 969.146 3.52556 -2.79329 0
M  V30 10252 C 970.465 4.31585 -0.861512 0
M  V30 10253 H 967.584 0.681089 -0.281579 0
M  V30 10254 H 970.226 1.37453 -1.31174 0
M  V30 10255 H 968.376 3.80204 -0.798563 0
M  V30 10256 H 970.048 3.18725 -3.33485 0
M  V30 10257 H 968.291 2.94668 -3.1836 0
M  V30 10258 H 968.962 4.57748 -3.08498 0
M  V30 10259 H 971.438 3.96642 -1.25756 0
M  V30 10260 H 970.314 5.34939 -1.23012 0
M  V30 10261 H 970.575 4.4148 0.234089 0
M  V30 10262 N 969.634 0.838594 1.33437 0
M  V30 10263 C 970.88 0.434813 1.98084 0
M  V30 10264 C 971.213 -1.00331 1.66275 0
M  V30 10265 O 970.488 -1.70139 0.942501 0
M  V30 10266 C 970.771 0.655602 3.54082 0
M  V30 10267 C 970.624 2.14097 3.95578 0
M  V30 10268 C 971.943 0.101576 4.39983 0
M  V30 10269 H 969.062 0.159456 0.719544 0
M  V30 10270 H 971.704 1.05406 1.58081 0
M  V30 10271 H 969.854 0.128501 3.88287 0
M  V30 10272 H 971.526 2.73292 3.71631 0
M  V30 10273 H 969.769 2.62558 3.4532 0
M  V30 10274 H 970.44 2.24621 5.04231 0
M  V30 10275 H 972.916 0.552122 4.12421 0
M  V30 10276 H 971.792 0.28575 5.48156 0
M  V30 10277 H 972.053 -0.994616 4.30767 0
M  V30 10278 N 971.112 -1.45937 0.595003 0
M  V30 10279 C 972.075 -2.2888 -0.121102 0
M  V30 10280 C 973.075 -1.39075 -0.807149 0
M  V30 10281 O 974.265 -1.61326 -0.657228 0
M  V30 10282 C 971.397 -3.19778 -1.1813 0
M  V30 10283 H 972.59 -2.93673 0.607968 0
M  V30 10284 H 970.143 -1.5225 0.353495 0
M  V30 10285 H 970.878 -2.59759 -1.94154 0
M  V30 10286 H 970.663 -3.85914 -0.693724 0
M  V30 10287 H 972.153 -3.82176 -1.68319 0
M  V30 10288 N 972.59 -0.333456 -1.54032 0
M  V30 10289 C 973.867 0.320902 -1.9295 0
M  V30 10290 C 974.247 1.69071 -1.26405 0
M  V30 10291 O 973.595 2.24768 -0.411311 0
M  V30 10292 C 973.805 0.403257 -3.46662 0
M  V30 10293 C 975.153 0.658875 -4.19457 0
M  V30 10294 O 976.177 0.485781 -3.52872 0
M  V30 10295 O 975.036 0.993475 -5.37394 0
M  V30 10296 H 972.13 0.185158 -0.806006 0
M  V30 10297 H 974.676 -0.383895 -1.65301 0
M  V30 10298 H 973.448 -0.558409 -3.87295 0
M  V30 10299 H 973.071 1.15524 -3.80447 0
M  V30 10300 N 974.068 1.57479 -0.061844 0
M  V30 10301 C 975.296 1.97429 0.618837 0
M  V30 10302 C 975.711 0.939826 1.63746 0
M  V30 10303 O 975.068 -0.0747173 1.82347 0
M  V30 10304 C 975.119 3.3746 1.29628 0
M  V30 10305 O 974.84 4.36941 0.318431 0
M  V30 10306 C 976.341 3.92228 2.06572 0
M  V30 10307 H 973.561 0.649513 0.168444 0
M  V30 10308 H 976.105 2.04078 -0.131303 0
M  V30 10309 H 974.26 3.31928 1.99757 0
M  V30 10310 H 974.674 5.18313 0.803239 0
M  V30 10311 H 976.148 4.92458 2.49377 0
M  V30 10312 H 976.625 3.28231 2.91824 0
M  V30 10313 H 977.231 4.01131 1.4133 0
M  V30 10314 N 975.546 -0.211634 1.56173 0
M  V30 10315 C 976.823 -0.959467 1.70451 0
M  V30 10316 C 977.203 -2.02036 0.611942 0
M  V30 10317 O 976.551 -2.25325 -0.37959 0
M  V30 10318 C 976.761 -1.56092 3.12148 0
M  V30 10319 C 978.109 -2.04939 3.71867 0
M  V30 10320 O 979.133 -1.65966 3.15172 0
M  V30 10321 O 977.992 -2.766 4.71333 0
M  V30 10322 H 975.086 -0.448844 0.6946 0
M  V30 10323 H 977.632 -0.202633 1.68486 0
M  V30 10324 H 976.404 -0.79538 3.83131 0
M  V30 10325 H 976.027 -2.38303 3.18273 0
M  V30 10326 N 977.024 -1.50153 -0.478725 0
M  V30 10327 C 977.956 -1.64603 -1.59494 0
M  V30 10328 C 978.969 -0.527789 -1.54007 0
M  V30 10329 O 980.158 -0.80069 -1.59534 0
M  V30 10330 C 977.258 -1.60738 -2.98356 0
M  V30 10331 C 976.431 -2.88468 -3.28794 0
M  V30 10332 C 975.49 -2.77349 -4.47173 0
M  V30 10333 O 974.516 -3.51302 -4.47857 0
M  V30 10334 N 975.718 -1.9039 -5.4839 0
M  V30 10335 H 978.483 -2.6088 -1.47518 0
M  V30 10336 H 976.044 -1.47521 -0.667011 0
M  V30 10337 H 978.036 -1.50923 -3.75505 0
M  V30 10338 H 976.606 -0.722273 -3.04141 0
M  V30 10339 H 975.826 -3.12467 -2.40329 0
M  V30 10340 H 977.114 -3.73102 -3.45937 0
M  V30 10341 H 976.512 -1.29606 -5.50653 0
M  V30 10342 H 975.069 -1.86484 -6.24553 0
M  V30 10343 N 978.502 0.731368 -1.39602 0
M  V30 10344 C 979.449 1.84541 -1.38612 0
M  V30 10345 C 980.419 1.64279 -0.245287 0
M  V30 10346 O 981.604 1.85635 -0.440954 0
M  V30 10347 C 978.744 3.22092 -1.23897 0
M  V30 10348 C 977.857 3.54034 -2.47555 0
M  V30 10349 C 976.992 4.81007 -2.25402 0
M  V30 10350 C 976.031 5.05804 -3.44716 0
M  V30 10351 N 975.168 6.23981 -3.21857 0
M  V30 10352 H 980.008 1.84722 -2.33841 0
M  V30 10353 H 977.545 0.902569 -1.16156 0
M  V30 10354 H 979.503 4.01499 -1.13376 0
M  V30 10355 H 978.133 3.2118 -0.322958 0
M  V30 10356 H 977.185 2.69301 -2.68665 0
M  V30 10357 H 978.497 3.68275 -3.36415 0
M  V30 10358 H 977.651 5.68401 -2.12143 0
M  V30 10359 H 976.39 4.68946 -1.33943 0
M  V30 10360 H 975.395 4.1687 -3.58468 0
M  V30 10361 H 976.62 5.19747 -4.37081 0
M  V30 10362 H 974.566 6.13202 -2.33065 0
M  V30 10363 H 974.483 6.38826 -4.04274 0
M  V30 10364 H 975.751 7.14205 -3.123 0
M  V30 10365 N 979.98 1.24838 0.961938 0
M  V30 10366 C 980.943 1.04674 2.03902 0
M  V30 10367 C 981.943 0.00204674 1.608 0
M  V30 10368 O 983.133 0.243555 1.72489 0
M  V30 10369 C 980.265 0.587736 3.35795 0
M  V30 10370 H 981.458 2.00278 2.23223 0
M  V30 10371 H 979.011 1.07142 1.138 0
M  V30 10372 H 979.746 -0.371244 3.22168 0
M  V30 10373 H 979.531 1.34182 3.68426 0
M  V30 10374 H 981.021 0.467867 4.14971 0
M  V30 10375 N 981.458 -1.16348 1.06306 0
M  V30 10376 C 982.388 -2.2291 0.695234 0
M  V30 10377 C 983.369 -1.67208 -0.312343 0
M  V30 10378 O 984.554 -1.93293 -0.187442 0
M  V30 10379 C 981.684 -3.47205 0.0810149 0
M  V30 10380 C 980.638 -4.15801 1.01458 0
M  V30 10381 C 979.964 -5.3405 0.263656 0
M  V30 10382 C 981.264 -4.66766 2.34365 0
M  V30 10383 H 982.958 -2.53934 1.58613 0
M  V30 10384 H 980.504 -1.22056 0.76409 0
M  V30 10385 H 982.457 -4.2098 -0.18818 0
M  V30 10386 H 981.181 -3.15482 -0.844897 0
M  V30 10387 H 979.84 -3.43954 1.26852 0
M  V30 10388 H 979.488 -4.9858 -0.665378 0
M  V30 10389 H 979.188 -5.80885 0.88582 0
M  V30 10390 H 980.712 -6.106 0.00200994 0
M  V30 10391 H 982.126 -5.3212 2.13356 0
M  V30 10392 H 980.523 -5.24223 2.9208 0
M  V30 10393 H 981.593 -3.82969 2.97426 0
M  V30 10394 N 982.937 -0.845659 -1.3299 0
M  V30 10395 C 984.185 -0.443774 -1.97168 0
M  V30 10396 C 984.506 1.00192 -1.67292 0
M  V30 10397 O 983.776 1.69891 -0.975397 0
M  V30 10398 H 982.356 -0.161111 -0.729419 0
M  V30 10399 H 985.018 -1.08011 -1.62233 0
M  V30 10400 H 984.114 -0.581414 -3.06637 0
M  V30 10401 N 984.415 1.45619 -0.602734 0
M  V30 10402 C 985.64 2.07157 -0.100429 0
M  V30 10403 C 986.065 1.44524 1.20393 0
M  V30 10404 O 985.423 0.536191 1.7319 0
M  V30 10405 C 985.471 3.60587 0.0308604 0
M  V30 10406 O 984.575 3.97944 1.08234 0
M  V30 10407 H 983.916 0.6601 -0.0718643 0
M  V30 10408 H 986.446 1.86948 -0.831366 0
M  V30 10409 H 986.456 4.07348 0.230634 0
M  V30 10410 H 985.131 4.05561 -0.921581 0
M  V30 10411 H 983.708 3.62862 0.859414 0
M  V30 10412 N 985.893 0.34162 1.53853 0
M  V30 10413 C 986.803 -0.524555 2.2866 0
M  V30 10414 C 987.819 -1.1136 1.33697 0
M  V30 10415 O 988.995 -1.1297 1.66732 0
M  V30 10416 C 986.06 -1.66065 3.04341 0
M  V30 10417 C 985.121 -1.10158 4.14926 0
M  V30 10418 C 984.354 -2.18353 4.86988 0
M  V30 10419 O 984.577 -3.39038 4.58704 0
M  V30 10420 O 983.511 -1.82756 5.73484 0
M  V30 10421 H 987.337 0.0835014 3.03585 0
M  V30 10422 H 984.922 0.106727 1.49018 0
M  V30 10423 H 986.804 -2.3217 3.51674 0
M  V30 10424 H 985.479 -2.25456 2.32275 0
M  V30 10425 H 984.386 -0.405109 3.719 0
M  V30 10426 H 985.719 -0.552567 4.89088 0
M  V30 10427 N 987.371 -1.57444 0.0701946 0
M  V30 10428 C 988.617 -1.93716 -0.600178 0
M  V30 10429 C 988.95 -0.950329 -1.69359 0
M  V30 10430 O 988.225 0.0207123 -1.94489 0
M  V30 10431 C 988.508 -3.40266 -1.17861 0
M  V30 10432 C 988.361 -4.49706 -0.0919575 0
M  V30 10433 C 989.68 -3.87599 -2.08459 0
M  V30 10434 H 986.799 -0.704421 -0.216704 0
M  V30 10435 H 989.441 -1.89514 0.135838 0
M  V30 10436 H 987.591 -3.43977 -1.80587 0
M  V30 10437 H 989.263 -4.58116 0.541031 0
M  V30 10438 H 987.506 -4.29937 0.577639 0
M  V30 10439 H 988.177 -5.49381 -0.537048 0
M  V30 10440 H 990.653 -3.85883 -1.5567 0
M  V30 10441 H 989.529 -4.90755 -2.45867 0
M  V30 10442 H 989.79 -3.25448 -2.99226 0
M  V30 10443 N 988.849 0.203349 -1.56283 0
M  V30 10444 C 989.781 1.27592 -1.90402 0
M  V30 10445 C 990.794 1.4213 -0.79391 0
M  V30 10446 O 991.983 1.42703 -1.07229 0
M  V30 10447 C 989.083 2.64919 -2.11356 0
M  V30 10448 C 988.256 2.72095 -3.42466 0
M  V30 10449 C 987.315 3.9056 -3.52631 0
M  V30 10450 O 986.341 3.78048 -4.25521 0
M  V30 10451 N 987.543 5.0566 -2.85111 0
M  V30 10452 H 990.308 0.986423 -2.83001 0
M  V30 10453 H 987.869 0.39331 -1.5705 0
M  V30 10454 H 989.861 3.42581 -2.15453 0
M  V30 10455 H 988.431 2.86391 -1.25295 0
M  V30 10456 H 987.651 1.8077 -3.50308 0
M  V30 10457 H 988.939 2.73874 -4.28801 0
M  V30 10458 H 988.337 5.18723 -2.25705 0
M  V30 10459 H 986.894 5.81299 -2.94847 0
M  V30 10460 N 990.327 1.50405 0.470755 0
M  V30 10461 C 991.604 1.51929 1.23195 0
M  V30 10462 C 991.984 0.264159 2.09441 0
M  V30 10463 O 991.332 -0.752395 2.15757 0
M  V30 10464 C 991.542 2.81521 2.06269 0
M  V30 10465 C 992.89 3.32195 2.64446 0
M  V30 10466 O 993.914 2.82845 2.16511 0
M  V30 10467 O 992.773 4.18221 3.51786 0
M  V30 10468 H 989.867 0.609411 0.559059 0
M  V30 10469 H 992.413 1.62695 0.482549 0
M  V30 10470 H 991.185 3.64346 1.42715 0
M  V30 10471 H 990.808 2.7376 2.88342 0
M  V30 10472 N 991.805 -0.723954 1.39988 0
M  V30 10473 C 992.768 -1.81973 1.3935 0
M  V30 10474 C 993.768 -1.58187 0.288702 0
M  V30 10475 O 994.958 -1.65383 0.547181 0
M  V30 10476 C 992.09 -3.19937 1.177 0
M  V30 10477 H 993.283 -1.83939 2.36868 0
M  V30 10478 H 990.836 -0.928742 1.25714 0
M  V30 10479 H 991.571 -3.23625 0.209093 0
M  V30 10480 H 991.356 -3.386 1.97719 0
M  V30 10481 H 992.846 -3.99981 1.20022 0
M  V30 10482 N 993.283 -1.25346 -0.955304 0
M  V30 10483 C 994.508 -1.12892 -1.73983 0
M  V30 10484 C 994.933 0.313455 -1.8547 0
M  V30 10485 O 994.291 1.22706 -1.33465 0
M  V30 10486 C 994.339 -1.78729 -3.1319 0
M  V30 10487 O 993.443 -1.06648 -3.98372 0
M  V30 10488 H 992.784 -0.394178 -0.534341 0
M  V30 10489 H 995.314 -1.65897 -1.19747 0
M  V30 10490 H 995.324 -1.84987 -3.63653 0
M  V30 10491 H 993.999 -2.83669 -3.04146 0
M  V30 10492 H 992.576 -1.08266 -3.56837 0
M  V30 10493 N 994.761 1.15782 -1.06922 0
M  V30 10494 C 995.708 2.2038 -0.685659 0
M  V30 10495 C 996.678 1.62972 0.320816 0
M  V30 10496 O 997.863 1.8966 0.208258 0
M  V30 10497 C 995.003 3.44995 -0.084998 0
M  V30 10498 C 994.116 4.16621 -1.14242 0
M  V30 10499 C 993.251 5.28773 -0.507226 0
M  V30 10500 C 992.29 5.92209 -1.54774 0
M  V30 10501 N 991.427 6.9584 -0.935443 0
M  V30 10502 H 996.267 2.5254 -1.58201 0
M  V30 10503 H 993.804 1.24031 -0.790864 0
M  V30 10504 H 995.762 4.16254 0.280845 0
M  V30 10505 H 994.392 3.13365 0.774725 0
M  V30 10506 H 993.444 3.43903 -1.62589 0
M  V30 10507 H 994.756 4.59884 -1.93154 0
M  V30 10508 H 993.91 6.06635 -0.0887719 0
M  V30 10509 H 992.649 4.8669 0.313704 0
M  V30 10510 H 991.654 5.13063 -1.97602 0
M  V30 10511 H 992.879 6.3637 -2.37088 0
M  V30 10512 H 990.825 6.5586 -0.135339 0
M  V30 10513 H 990.742 7.37508 -1.66186 0
M  V30 10514 H 992.01 7.77611 -0.542346 0
M  V30 10515 N 996.239 0.8527 1.3254 0
M  V30 10516 C 997.485 0.455798 1.97612 0
M  V30 10517 C 997.818 -0.985616 1.6733 0
M  V30 10518 O 997.093 -1.69129 0.960493 0
M  V30 10519 C 997.376 0.69312 3.53366 0
M  V30 10520 C 997.229 2.18281 3.93285 0
M  V30 10521 C 998.548 0.148236 4.3985 0
M  V30 10522 H 995.667 0.167078 0.717812 0
M  V30 10523 H 998.309 1.07076 1.56954 0
M  V30 10524 H 996.459 0.169677 3.88129 0
M  V30 10525 H 998.131 2.77218 3.68711 0
M  V30 10526 H 996.374 2.66206 3.42515 0
M  V30 10527 H 997.045 2.29957 5.01821 0
M  V30 10528 H 999.521 0.595834 4.11812 0
M  V30 10529 H 998.397 0.343873 5.47822 0
M  V30 10530 H 998.658 -0.948872 4.31797 0
M  V30 10531 N 997.718 -1.45297 0.610449 0
M  V30 10532 C 998.946 -2.0659 0.113211 0
M  V30 10533 C 999.361 -1.4546 -1.20361 0
M  V30 10534 O 998.718 -0.569823 -1.73376 0
M  V30 10535 C 998.769 -3.61488 -0.0298411 0
M  V30 10536 O 998.49 -4.20336 1.23488 0
M  V30 10537 C 999.991 -4.39772 -0.558202 0
M  V30 10538 H 997.211 -0.667322 0.0701555 0
M  V30 10539 H 999.755 -1.86497 0.838993 0
M  V30 10540 H 997.91 -3.80913 -0.705963 0
M  V30 10541 H 998.324 -5.13545 1.0664 0
M  V30 10542 H 999.798 -5.48648 -0.607375 0
M  V30 10543 H 1000.27 -4.09755 -1.58107 0
M  V30 10544 H 1000.88 -4.25217 0.0839704 0
M  V30 10545 N 999.196 -0.349774 -1.5367 0
M  V30 10546 C 1000.42 0.246038 -2.05432 0
M  V30 10547 C 1000.84 1.43719 -1.22435 0
M  V30 10548 O 1000.2 1.80622 -0.261166 0
M  V30 10549 C 1000.25 0.65501 -3.55516 0
M  V30 10550 O 999.968 -0.488782 -4.35365 0
M  V30 10551 C 1001.47 1.31088 -4.23475 0
M  V30 10552 H 998.689 0.0463952 -0.669394 0
M  V30 10553 H 1001.23 -0.503566 -1.98203 0
M  V30 10554 H 999.388 1.35455 -3.62947 0
M  V30 10555 H 999.802 -0.161528 -5.24251 0
M  V30 10556 H 1001.28 1.54774 -5.29857 0
M  V30 10557 H 1001.75 2.26636 -3.76208 0
M  V30 10558 H 1002.36 0.653211 -4.20254 0
M  V30 10559 N 1000.67 1.57404 -0.0785433 0
M  V30 10560 C 1001.61 2.101 0.916013 0
M  V30 10561 C 1002.62 1.03459 1.25698 0
M  V30 10562 O 1003.81 1.30954 1.21299 0
M  V30 10563 C 1000.91 2.55202 2.22992 0
M  V30 10564 C 1000.08 3.85491 2.06678 0
M  V30 10565 C 999.14 4.16614 3.21433 0
M  V30 10566 O 998.166 4.86105 2.96126 0
M  V30 10567 N 999.368 3.70697 4.46726 0
M  V30 10568 H 1002.13 2.96054 0.466059 0
M  V30 10569 H 999.694 1.61546 0.107006 0
M  V30 10570 H 1001.69 2.7308 2.9868 0
M  V30 10571 H 1000.26 1.74348 2.59464 0
M  V30 10572 H 999.476 3.76925 1.15417 0
M  V30 10573 H 1000.76 4.70759 1.93036 0
M  V30 10574 H 1000.16 3.14571 4.70172 0
M  V30 10575 H 998.719 3.93762 5.19418 0
M  V30 10576 N 1002.15 -0.195058 1.56388 0
M  V30 10577 C 1003.4 -0.913626 1.79821 0
M  V30 10578 C 1003.71 -1.84422 0.651767 0
M  V30 10579 O 1004.92 -2.6034 0.770402 0
M  V30 10580 C 1003.38 -1.67497 3.18548 0
M  V30 10581 C 1002.98 -0.789205 4.40994 0
M  V30 10582 C 1004.73 -2.38318 3.5129 0
M  V30 10583 C 1002.63 -1.54942 5.70742 0
M  V30 10584 H 1001.56 -0.344891 0.670497 0
M  V30 10585 H 1004.22 -0.166912 1.82739 0
M  V30 10586 H 1002.6 -2.46557 3.0988 0
M  V30 10587 H 1003.77 -0.0372595 4.60785 0
M  V30 10588 H 1002.09 -0.191834 4.15958 0
M  V30 10589 H 1004.68 -2.95745 4.45465 0
M  V30 10590 H 1005.03 -3.12507 2.75037 0
M  V30 10591 H 1005.56 -1.66224 3.61406 0
M  V30 10592 H 1002.3 -0.85031 6.49962 0
M  V30 10593 H 1001.82 -2.2753 5.54969 0
M  V30 10594 H 1003.5 -2.1032 6.11861 0
M  V30 10595 N 1003.63 -1.50653 -0.462772 0
M  V30 10596 C 1004.91 -1.5258 -1.22387 0
M  V30 10597 C 1005.29 -0.275263 -2.09298 0
M  V30 10598 O 1004.63 0.740943 -2.16153 0
M  V30 10599 C 1004.84 -2.82611 -2.04773 0
M  V30 10600 C 1006.19 -3.33592 -2.62681 0
M  V30 10601 O 1007.22 -2.83989 -2.15008 0
M  V30 10602 O 1006.08 -4.20081 -3.49563 0
M  V30 10603 H 1003.17 -0.612367 -0.55582 0
M  V30 10604 H 1005.72 -1.62948 -0.473914 0
M  V30 10605 H 1004.49 -3.65098 -1.40781 0
M  V30 10606 H 1004.11 -2.75286 -2.86886 0
M  V30 10607 N 1005.11 0.71652 -1.4037 0
M  V30 10608 C 1006.06 1.8306 -1.40562 0
M  V30 10609 C 1007.03 1.64009 -0.262697 0
M  V30 10610 O 1008.21 1.85157 -0.460619 0
M  V30 10611 C 1005.35 3.2076 -1.27307 0
M  V30 10612 C 1004.46 3.51389 -2.51296 0
M  V30 10613 C 1003.6 4.78589 -2.30491 0
M  V30 10614 C 1002.64 5.02119 -3.50061 0
M  V30 10615 N 1001.77 6.20533 -3.28457 0
M  V30 10616 H 1006.61 1.82231 -2.35788 0
M  V30 10617 H 1004.15 0.890198 -1.17106 0
M  V30 10618 H 1006.11 4.00274 -1.17628 0
M  V30 10619 H 1004.74 3.2082 -0.357005 0
M  V30 10620 H 1003.79 2.66436 -2.71507 0
M  V30 10621 H 1005.1 3.64686 -3.40302 0
M  V30 10622 H 1004.26 5.66119 -2.1816 0
M  V30 10623 H 1003 4.67499 -1.38909 0
M  V30 10624 H 1002 4.13044 -3.6287 0
M  V30 10625 H 1003.23 5.15082 -4.42569 0
M  V30 10626 H 1001.17 6.10695 -2.39556 0
M  V30 10627 H 1001.09 6.34502 -4.11027 0
M  V30 10628 H 1002.36 7.10853 -3.19857 0
M  V30 10629 N 1006.59 1.25851 0.948643 0
M  V30 10630 C 1007.5 1.08516 2.07994 0
M  V30 10631 C 1008.51 0.0206696 1.73988 0
M  V30 10632 O 1009.69 0.222854 2.00163 0
M  V30 10633 C 1006.75 0.712145 3.39307 0
M  V30 10634 C 1005.81 1.85523 3.87143 0
M  V30 10635 C 1005.05 1.49992 5.1219 0
M  V30 10636 O 1005.27 0.398268 5.69008 0
M  V30 10637 O 1004.2 2.33215 5.54882 0
M  V30 10638 H 1008.03 2.03405 2.25522 0
M  V30 10639 H 1005.62 1.04844 1.06433 0
M  V30 10640 H 1007.5 0.516512 4.18223 0
M  V30 10641 H 1006.17 -0.207416 3.23035 0
M  V30 10642 H 1005.08 2.10578 3.09205 0
M  V30 10643 H 1006.41 2.75425 4.07924 0
M  V30 10644 N 1008.06 -1.15214 1.07534 0
M  V30 10645 C 1009.01 -2.20013 0.697337 0
M  V30 10646 C 1009.98 -1.6314 -0.312168 0
M  V30 10647 O 1011.17 -1.89768 -0.198196 0
M  V30 10648 C 1008.31 -3.44945 0.103293 0
M  V30 10649 C 1007.42 -4.16009 1.1645 0
M  V30 10650 C 1006.55 -5.28496 0.535261 0
M  V30 10651 C 1005.59 -5.9138 1.57912 0
M  V30 10652 N 1004.73 -6.95335 0.972332 0
M  V30 10653 H 1009.57 -2.51698 1.59538 0
M  V30 10654 H 1007.11 -1.2361 0.797431 0
M  V30 10655 H 1009.07 -4.16397 -0.258766 0
M  V30 10656 H 1007.7 -3.13772 -0.758096 0
M  V30 10657 H 1006.75 -3.43035 1.64411 0
M  V30 10658 H 1008.06 -4.58853 1.9559 0
M  V30 10659 H 1007.21 -6.06579 0.120942 0
M  V30 10660 H 1005.95 -4.8685 -0.287889 0
M  V30 10661 H 1004.96 -5.12008 2.0032 0
M  V30 10662 H 1006.18 -6.35103 2.40459 0
M  V30 10663 H 1004.13 -6.55779 0.170119 0
M  V30 10664 H 1004.05 -7.36616 1.70095 0
M  V30 10665 H 1005.31 -7.77312 0.583577 0
M  V30 10666 N 1009.54 -0.859717 -1.32086 0
M  V30 10667 C 1010.49 -0.306042 -2.28762 0
M  V30 10668 C 1011.46 0.589801 -1.55276 0
M  V30 10669 O 1012.64 0.523633 -1.83474 0
M  V30 10670 C 1009.78 0.495256 -3.41528 0
M  V30 10671 C 1008.9 -0.426947 -4.29885 0
M  V30 10672 C 1008.03 0.387474 -5.29785 0
M  V30 10673 C 1007.07 -0.531807 -6.09785 0
M  V30 10674 N 1006.21 0.245741 -7.0167 0
M  V30 10675 H 1011.05 -1.1357 -2.7551 0
M  V30 10676 H 1008.59 -0.571468 -1.35546 0
M  V30 10677 H 1010.54 0.97551 -4.05635 0
M  V30 10678 H 1009.17 1.28969 -2.95917 0
M  V30 10679 H 1008.23 -1.02561 -3.66313 0
M  V30 10680 H 1009.54 -1.13226 -4.85779 0
M  V30 10681 H 1008.69 0.930677 -5.99519 0
M  V30 10682 H 1007.43 1.12612 -4.74521 0
M  V30 10683 H 1006.44 -1.08685 -5.3895 0
M  V30 10684 H 1007.66 -1.26915 -6.67135 0
M  V30 10685 H 1005.61 0.967391 -6.48828 0
M  V30 10686 H 1005.52 -0.400432 -7.54939 0
M  V30 10687 H 1006.79 0.770507 -7.75683 0
M  V30 10688 N 1011.02 1.44971 -0.618145 0
M  V30 10689 C 1011.93 2.34403 0.0960457 0
M  V30 10690 C 1012.95 1.51862 0.849355 0
M  V30 10691 O 1014.12 1.84632 0.804557 0
M  V30 10692 C 1011.19 3.29646 1.07397 0
M  V30 10693 C 1010.25 4.28095 0.321466 0
M  V30 10694 C 1009.48 5.18787 1.25281 0
M  V30 10695 O 1009.7 5.1313 2.49106 0
M  V30 10696 O 1008.64 5.97282 0.744156 0
M  V30 10697 H 1012.46 2.96898 -0.639176 0
M  V30 10698 H 1010.05 1.44529 -0.37837 0
M  V30 10699 H 1011.93 3.88307 1.63694 0
M  V30 10700 H 1010.61 2.69702 1.79004 0
M  V30 10701 H 1009.51 3.73019 -0.284223 0
M  V30 10702 H 1010.85 4.90923 -0.354315 0
M  V30 10703 N 1012.5 0.357919 1.53482 0
M  V30 10704 C 1013.75 -0.235241 2.00324 0
M  V30 10705 C 1014.06 -1.50494 1.24944 0
M  V30 10706 O 1015.27 -2.17623 1.62335 0
M  V30 10707 C 1013.72 -0.469748 3.56821 0
M  V30 10708 C 1013.33 0.784877 4.41071 0
M  V30 10709 C 1015.07 -1.02098 4.12039 0
M  V30 10710 C 1012.98 0.520377 5.89106 0
M  V30 10711 H 1011.91 -0.0916816 0.748405 0
M  V30 10712 H 1014.56 0.475474 1.77233 0
M  V30 10713 H 1012.94 -1.24153 3.76035 0
M  V30 10714 H 1014.12 1.55886 4.33631 0
M  V30 10715 H 1012.43 1.25878 3.96918 0
M  V30 10716 H 1015.03 -1.23406 5.20264 0
M  V30 10717 H 1015.37 -1.98084 3.66154 0
M  V30 10718 H 1015.91 -0.309554 3.96594 0
M  V30 10719 H 1012.65 1.45035 6.39254 0
M  V30 10720 H 1012.17 -0.215254 5.99414 0
M  V30 10721 H 1013.84 0.143006 6.46842 0
M  V30 10722 N 1013.98 -1.5736 0.0868897 0
M  V30 10723 C 1015.39 -1.81356 -0.443499 0
M  V30 10724 C 1015.74 -1.00192 -1.68689 0
M  V30 10725 O 1014.86 -0.228863 -2.15186 0
M  V30 10726 C 1015.46 -3.28941 -0.811387 0
M  V30 10727 C 1014.02 -3.53729 -1.28656 0
M  V30 10728 C 1013.16 -2.75891 -0.279153 0
M  V30 10729 H 1016.12 -1.55594 0.312427 0
M  V30 10730 H 1016.14 -3.41815 -1.6716 0
M  V30 10731 H 1015.65 -3.87987 0.0937598 0
M  V30 10732 H 1013.75 -3.00005 -2.2097 0
M  V30 10733 H 1013.86 -4.62396 -1.25406 0
M  V30 10734 H 1012.23 -2.4311 -0.759595 0
M  V30 10735 H 1013.01 -3.37682 0.618529 0
M  V30 10736 N 1015.45 0.186762 -1.56489 0
M  V30 10737 C 1016.7 0.907194 -1.81378 0
M  V30 10738 C 1017.03 1.82558 -0.662283 0
M  V30 10739 O 1016.31 1.91564 0.336699 0
M  V30 10740 C 1016.59 1.71624 -3.16571 0
M  V30 10741 C 1016.44 0.822009 -4.42225 0
M  V30 10742 C 1017.76 2.68713 -3.48542 0
M  V30 10743 H 1014.88 0.328366 -0.659806 0
M  V30 10744 H 1017.52 0.174142 -1.892 0
M  V30 10745 H 1015.67 2.34119 -3.10033 0
M  V30 10746 H 1017.35 0.211122 -4.60817 0
M  V30 10747 H 1015.59 0.129178 -4.33608 0
M  V30 10748 H 1016.26 1.42326 -5.33336 0
M  V30 10749 H 1018.74 2.16348 -3.55433 0
M  V30 10750 H 1017.61 3.22397 -4.44242 0
M  V30 10751 H 1017.87 3.48165 -2.72459 0
M  V30 10752 N 1016.93 1.50896 0.454776 0
M  V30 10753 C 1018.16 1.66759 1.23313 0
M  V30 10754 C 1018.58 0.35722 1.84677 0
M  V30 10755 O 1017.94 -0.680771 1.68033 0
M  V30 10756 C 1017.99 2.77254 2.3057 0
M  V30 10757 O 1017.09 2.39642 3.35627 0
M  V30 10758 H 1016.43 0.556599 0.362068 0
M  V30 10759 H 1018.96 1.97365 0.539274 0
M  V30 10760 H 1018.97 3.0082 2.75629 0
M  V30 10761 H 1017.65 3.72349 1.85281 0
M  V30 10762 H 1016.23 2.26584 2.96165 0
M  V30 10763 N 1018.41 -0.709066 1.40748 0
M  V30 10764 C 1019.66 -1.4646 1.38681 0
M  V30 10765 C 1019.97 -1.95599 -0.0056209 0
M  V30 10766 O 1021.18 -2.71091 -0.148907 0
M  V30 10767 C 1019.63 -2.64771 2.43771 0
M  V30 10768 C 1019.24 -2.22474 3.88856 0
M  V30 10769 C 1020.99 -3.42475 2.50821 0
M  V30 10770 C 1018.89 -3.37663 4.85528 0
M  V30 10771 H 1017.82 -0.550084 0.515678 0
M  V30 10772 H 1020.47 -0.771074 1.66513 0
M  V30 10773 H 1018.86 -3.36325 2.09048 0
M  V30 10774 H 1020.03 -1.58297 4.32757 0
M  V30 10775 H 1018.35 -1.57798 3.85342 0
M  V30 10776 H 1020.94 -4.28201 3.20232 0
M  V30 10777 H 1021.29 -3.86738 1.54076 0
M  V30 10778 H 1021.82 -2.77969 2.84567 0
M  V30 10779 H 1018.56 -2.98426 5.83628 0
M  V30 10780 H 1018.08 -4.00734 4.46287 0
M  V30 10781 H 1019.76 -4.03636 5.05655 0
M  V30 10782 N 1019.89 -1.26353 -0.941956 0
M  V30 10783 C 1020.84 -1.07842 -2.04056 0
M  V30 10784 C 1021.81 0.0163064 -1.66092 0
M  V30 10785 O 1022.99 -0.143313 -1.90261 0
M  V30 10786 C 1020.13 -0.716636 -3.37577 0
M  V30 10787 C 1019.24 -1.88754 -3.88582 0
M  V30 10788 C 1018.38 -1.46893 -5.10486 0
M  V30 10789 C 1017.42 -2.60819 -5.53751 0
M  V30 10790 N 1016.56 -2.19646 -6.66858 0
M  V30 10791 H 1021.4 -2.01856 -2.19221 0
M  V30 10792 H 1018.93 -1.00504 -1.07412 0
M  V30 10793 H 1020.89 -0.487768 -4.14339 0
M  V30 10794 H 1019.52 0.18653 -3.22261 0
M  V30 10795 H 1018.57 -2.22936 -3.08227 0
M  V30 10796 H 1019.88 -2.74264 -4.1663 0
M  V30 10797 H 1019.04 -1.20047 -5.94705 0
M  V30 10798 H 1017.78 -0.584721 -4.84182 0
M  V30 10799 H 1016.78 -2.88396 -4.6809 0
M  V30 10800 H 1018.01 -3.49838 -5.82057 0
M  V30 10801 H 1015.95 -1.33657 -6.4224 0
M  V30 10802 H 1015.87 -2.987 -6.94489 0
M  V30 10803 H 1017.14 -1.96009 -7.54454 0
M  V30 10804 N 1021.37 1.14642 -1.08144 0
M  V30 10805 C 1022.31 2.1964 -0.708995 0
M  V30 10806 C 1023.28 1.63303 0.303512 0
M  V30 10807 O 1024.47 1.8987 0.18813 0
M  V30 10808 C 1021.61 3.44886 -0.121585 0
M  V30 10809 C 1020.72 4.15386 -1.18654 0
M  V30 10810 C 1019.86 5.28205 -0.56328 0
M  V30 10811 C 1018.9 5.90534 -1.61046 0
M  V30 10812 N 1018.03 6.94809 -1.00919 0
M  V30 10813 H 1022.87 2.50848 -1.6087 0
M  V30 10814 H 1020.41 1.23185 -0.803975 0
M  V30 10815 H 1022.37 4.16528 0.23668 0
M  V30 10816 H 1021 3.14169 0.741445 0
M  V30 10817 H 1020.05 3.42159 -1.66227 0
M  V30 10818 H 1021.36 4.57809 -1.9802 0
M  V30 10819 H 1020.52 6.06507 -0.153109 0
M  V30 10820 H 1019.26 4.86995 0.262066 0
M  V30 10821 H 1018.26 5.10938 -2.03033 0
M  V30 10822 H 1019.49 6.33819 -2.43824 0
M  V30 10823 H 1017.43 6.5568 -0.204894 0
M  V30 10824 H 1017.35 7.35704 -1.73999 0
M  V30 10825 H 1018.62 7.76992 -0.624792 0
M  V30 10826 N 1022.85 0.866709 1.31628 0
M  V30 10827 C 1023.76 0.323408 2.3236 0
M  V30 10828 C 1024.77 -0.564995 1.64572 0
M  V30 10829 O 1025.95 -0.462489 1.96018 0
M  V30 10830 C 1023.01 -0.469045 3.43513 0
M  V30 10831 C 1022.07 0.446928 4.26967 0
M  V30 10832 C 1021.31 -0.307799 5.32812 0
M  V30 10833 O 1021.53 -1.5363 5.49321 0
M  V30 10834 O 1020.46 0.332653 6.0098 0
M  V30 10835 H 1024.29 1.15827 2.80745 0
M  V30 10836 H 1021.87 0.629987 1.35468 0
M  V30 10837 H 1023.76 -0.918405 4.1127 0
M  V30 10838 H 1022.43 -1.28051 2.97296 0
M  V30 10839 H 1021.34 0.944719 3.61975 0
M  V30 10840 H 1022.67 1.2239 4.76741 0
M  V30 10841 N 1024.32 -1.44642 0.625825 0
M  V30 10842 C 1025.73 -1.85502 0.211175 0
M  V30 10843 C 1026.09 -1.52356 -1.2362 0
M  V30 10844 O 1025.21 -0.959051 -1.93988 0
M  V30 10845 C 1025.81 -3.36702 0.37648 0
M  V30 10846 C 1024.36 -3.76396 0.0163795 0
M  V30 10847 C 1023.51 -2.68517 0.692368 0
M  V30 10848 H 1026.46 -1.35183 0.831333 0
M  V30 10849 H 1026.48 -3.78536 -0.386106 0
M  V30 10850 H 1026 -3.60795 1.42999 0
M  V30 10851 H 1024.1 -3.57919 -1.0356 0
M  V30 10852 H 1024.21 -4.77231 0.422742 0
M  V30 10853 H 1022.57 -2.54377 0.128191 0
M  V30 10854 H 1023.36 -2.95444 1.74837 0
M  V30 10855 N 1025.8 -0.366053 -1.5329 0
M  V30 10856 C 1026.71 0.488111 -2.29466 0
M  V30 10857 C 1027.73 1.09219 -1.35452 0
M  V30 10858 O 1028.9 1.10303 -1.68509 0
M  V30 10859 C 1025.97 1.61202 -3.06944 0
M  V30 10860 C 1025.03 1.03543 -4.16626 0
M  V30 10861 C 1024.26 2.10578 -4.904 0
M  V30 10862 O 1024.49 3.31697 -4.6404 0
M  V30 10863 O 1023.42 1.73609 -5.76319 0
M  V30 10864 H 1027.25 -0.131789 -3.03414 0
M  V30 10865 H 1024.83 -0.130421 -1.4883 0
M  V30 10866 H 1026.71 2.26546 -3.55324 0
M  V30 10867 H 1025.39 2.21732 -2.35832 0
M  V30 10868 H 1024.29 0.345892 -3.72498 0
M  V30 10869 H 1025.63 0.474687 -4.89906 0
M  V30 10870 N 1027.28 1.57312 -0.0952337 0
M  V30 10871 C 1028.53 1.94646 0.569284 0
M  V30 10872 C 1028.86 0.977152 1.67825 0
M  V30 10873 O 1028.13 0.0102318 1.94497 0
M  V30 10874 C 1028.42 3.42098 1.12433 0
M  V30 10875 C 1028.27 4.49795 0.0204016 0
M  V30 10876 C 1029.59 3.90866 2.02266 0
M  V30 10877 H 1026.71 0.707779 0.205469 0
M  V30 10878 H 1029.35 1.89274 -0.16597 0
M  V30 10879 H 1027.5 3.46807 1.75092 0
M  V30 10880 H 1029.17 4.57198 -0.613845 0
M  V30 10881 H 1027.41 4.28964 -0.645965 0
M  V30 10882 H 1028.09 5.50166 0.449579 0
M  V30 10883 H 1030.56 3.88311 1.49512 0
M  V30 10884 H 1029.44 4.94604 2.38029 0
M  V30 10885 H 1029.7 3.30167 2.9401 0
M  V30 10886 N 1028.76 -0.17846 1.56586 0
M  V30 10887 C 1029.99 -0.911996 1.85715 0
M  V30 10888 C 1030.4 -1.76138 0.679766 0
M  V30 10889 O 1029.76 -1.79088 -0.351266 0
M  V30 10890 C 1029.81 -1.79459 3.1381 0
M  V30 10891 O 1029.53 -0.979476 4.2701 0
M  V30 10892 C 1031.03 -2.6384 3.56235 0
M  V30 10893 H 1028.25 -0.265299 0.616326 0
M  V30 10894 H 1030.79 -0.180704 2.037 0
M  V30 10895 H 1028.95 -2.4793 2.97673 0
M  V30 10896 H 1029.36 -1.58244 5.00059 0
M  V30 10897 H 1030.84 -3.21396 4.48786 0
M  V30 10898 H 1031.31 -3.38363 2.80013 0
M  V30 10899 H 1031.92 -2.00712 3.7496 0
M  V30 10900 N 1030.24 -1.51135 -0.446768 0
M  V30 10901 C 1031.48 -1.63578 -1.19875 0
M  V30 10902 C 1031.81 -0.346478 -1.91084 0
M  V30 10903 O 1031.09 0.653447 -1.83195 0
M  V30 10904 C 1031.37 -2.83275 -2.22323 0
M  V30 10905 C 1031.23 -4.22155 -1.55259 0
M  V30 10906 C 1032.54 -2.98496 -3.23401 0
M  V30 10907 H 1029.66 -0.595333 -0.434452 0
M  V30 10908 H 1032.31 -1.83593 -0.48923 0
M  V30 10909 H 1030.46 -2.6634 -2.82834 0
M  V30 10910 H 1032.13 -4.50736 -0.981571 0
M  V30 10911 H 1030.37 -4.25288 -0.855122 0
M  V30 10912 H 1031.04 -5.01882 -2.29823 0
M  V30 10913 H 1033.52 -3.14079 -2.72935 0
M  V30 10914 H 1032.39 -3.83828 -3.92386 0
M  V30 10915 H 1032.65 -2.10157 -3.88956 0
M  V30 10916 N 1031.71 0.701592 -1.41122 0
M  V30 10917 C 1032.96 1.46376 -1.40363 0
M  V30 10918 C 1033.29 1.94197 -0.0105442 0
M  V30 10919 O 1032.57 1.69121 0.960637 0
M  V30 10920 C 1032.85 2.67994 -2.40523 0
M  V30 10921 C 1032.7 2.25977 -3.88914 0
M  V30 10922 C 1034.02 3.70181 -2.38022 0
M  V30 10923 H 1031.14 0.530929 -0.511159 0
M  V30 10924 H 1033.78 0.799588 -1.72356 0
M  V30 10925 H 1031.93 3.24661 -2.13372 0
M  V30 10926 H 1033.61 1.74684 -4.26946 0
M  V30 10927 H 1031.85 1.57826 -4.04071 0
M  V30 10928 H 1032.52 3.13215 -4.54533 0
M  V30 10929 H 1035 3.23174 -2.62103 0
M  V30 10930 H 1033.87 4.52894 -3.10127 0
M  V30 10931 H 1034.13 4.19458 -1.3967 0
M  V30 10932 N 1033.19 1.2685 0.935242 0
M  V30 10933 C 1034.42 1.15645 1.72165 0
M  V30 10934 C 1034.84 -0.283909 1.85945 0
M  V30 10935 O 1034.2 -1.20567 1.354 0
M  V30 10936 C 1034.25 1.83689 3.10307 0
M  V30 10937 O 1033.35 1.12972 3.96625 0
M  V30 10938 H 1032.69 0.402629 0.528002 0
M  V30 10939 H 1035.22 1.67781 1.17093 0
M  V30 10940 H 1035.23 1.90749 3.60664 0
M  V30 10941 H 1033.91 2.88472 2.99595 0
M  V30 10942 H 1032.48 1.13929 3.5507 0
M  V30 10943 N 1034.67 -1.14067 1.0875 0
M  V30 10944 C 1035.6 -2.18926 0.67852 0
M  V30 10945 C 1036.62 -1.60441 -0.276163 0
M  V30 10946 O 1037.8 -1.78388 -0.0632788 0
M  V30 10947 C 1034.9 -3.38893 -0.0218852 0
M  V30 10948 C 1034.08 -4.26901 0.952582 0
M  V30 10949 C 1033.14 -5.25418 0.286859 0
M  V30 10950 O 1032.16 -5.61512 0.932354 0
M  V30 10951 N 1033.36 -5.72476 -0.961831 0
M  V30 10952 H 1036.13 -2.54629 1.58063 0
M  V30 10953 H 1033.69 -1.29321 0.974042 0
M  V30 10954 H 1035.68 -4.01864 -0.478278 0
M  V30 10955 H 1034.25 -3.01486 -0.826141 0
M  V30 10956 H 1033.47 -3.60812 1.58772 0
M  V30 10957 H 1034.76 -4.82563 1.61279 0
M  V30 10958 H 1034.16 -5.45287 -1.50594 0
M  V30 10959 H 1032.72 -6.37418 -1.36166 0
M  V30 10960 N 1036.15 -0.873678 -1.31166 0
M  V30 10961 C 1037.56 -0.53852 -1.78765 0
M  V30 10962 C 1037.91 0.944765 -1.71955 0
M  V30 10963 O 1037.04 1.73781 -1.28954 0
M  V30 10964 C 1037.63 -0.970749 -3.24595 0
M  V30 10965 C 1036.19 -0.687189 -3.70074 0
M  V30 10966 C 1035.34 -1.16001 -2.51871 0
M  V30 10967 H 1038.29 -1.05903 -1.18196 0
M  V30 10968 H 1038.31 -0.294966 -3.79355 0
M  V30 10969 H 1037.82 -2.05034 -3.29519 0
M  V30 10970 H 1035.92 0.380881 -3.70648 0
M  V30 10971 H 1036.03 -1.26682 -4.62048 0
M  V30 10972 H 1034.4 -0.579663 -2.48016 0
M  V30 10973 H 1035.18 -2.2471 -2.59539 0
M  V30 10974 N 1037.63 1.44308 -0.633487 0
M  V30 10975 C 1038.85 2.06384 -0.146063 0
M  V30 10976 C 1039.27 1.47357 1.18031 0
M  V30 10977 O 1038.63 0.597334 1.72448 0
M  V30 10978 C 1038.68 3.61489 -0.0276722 0
M  V30 10979 O 1038.4 4.18318 -1.3016 0
M  V30 10980 C 1039.9 4.40604 0.488168 0
M  V30 10981 H 1037.12 0.666122 -0.0807632 0
M  V30 10982 H 1039.66 1.85139 -0.868557 0
M  V30 10983 H 1037.82 3.81988 0.645273 0
M  V30 10984 H 1038.23 5.11783 -1.14797 0
M  V30 10985 H 1039.71 5.49545 0.520013 0
M  V30 10986 H 1040.18 4.12218 1.51568 0
M  V30 10987 H 1040.79 4.2503 -0.151608 0
M  V30 10988 N 1039.1 0.374177 1.53094 0
M  V30 10989 C 1040.01 -0.475935 2.29722 0
M  V30 10990 C 1041.03 -1.085 1.36029 0
M  V30 10991 O 1042.21 -1.09408 1.69091 0
M  V30 10992 C 1039.27 -1.59572 3.07795 0
M  V30 10993 C 1038.33 -1.01332 4.17169 0
M  V30 10994 C 1037.57 -2.07975 4.9151 0
M  V30 10995 O 1037.79 -3.29232 4.65793 0
M  V30 10996 O 1036.72 -1.7055 5.77232 0
M  V30 10997 H 1040.55 0.147877 3.0334 0
M  V30 10998 H 1038.13 0.138312 1.48758 0
M  V30 10999 H 1040.02 -2.24658 3.5652 0
M  V30 11000 H 1038.69 -2.20478 2.37005 0
M  V30 11001 H 1037.6 -0.326133 3.72676 0
M  V30 11002 H 1038.93 -0.4487 4.90151 0
M  V30 11003 N 1040.58 -1.57259 0.103575 0
M  V30 11004 C 1041.99 -1.81816 -0.424239 0
M  V30 11005 C 1042.34 -1.01976 -1.67617 0
M  V30 11006 O 1041.47 -0.251673 -2.14932 0
M  V30 11007 C 1042.06 -3.29783 -0.776453 0
M  V30 11008 C 1040.62 -3.55074 -1.24897 0
M  V30 11009 C 1039.77 -2.76172 -0.249875 0
M  V30 11010 H 1042.72 -1.55254 0.328913 0
M  V30 11011 H 1042.74 -3.43569 -1.63526 0
M  V30 11012 H 1042.25 -3.87865 0.134906 0
M  V30 11013 H 1040.36 -3.02332 -2.17775 0
M  V30 11014 H 1040.47 -4.637 -1.20495 0
M  V30 11015 H 1038.83 -2.43902 -0.733767 0
M  V30 11016 H 1039.62 -3.37007 0.65431 0
M  V30 11017 N 1042.06 0.170153 -1.56679 0
M  V30 11018 C 1042.99 1.23525 -1.93066 0
M  V30 11019 C 1044.01 1.40414 -0.823879 0
M  V30 11020 O 1045.19 1.40396 -1.10232 0
M  V30 11021 C 1042.29 2.60376 -2.16928 0
M  V30 11022 C 1041.47 2.6477 -3.4816 0
M  V30 11023 C 1040.53 3.82993 -3.60837 0
M  V30 11024 O 1039.55 3.68937 -4.33444 0
M  V30 11025 N 1040.75 4.99498 -2.95773 0
M  V30 11026 H 1043.52 0.926172 -2.8503 0
M  V30 11027 H 1041.08 0.359909 -1.57849 0
M  V30 11028 H 1043.07 3.37934 -2.22672 0
M  V30 11029 H 1041.64 2.83669 -1.31342 0
M  V30 11030 H 1040.86 1.73298 -3.54064 0
M  V30 11031 H 1042.15 2.64717 -4.34514 0
M  V30 11032 H 1041.55 5.13819 -2.36657 0
M  V30 11033 H 1040.11 5.74914 -3.07111 0
M  V30 11034 N 1043.54 1.5137 0.438746 0
M  V30 11035 C 1044.95 1.56462 1.01866 0
M  V30 11036 C 1045.3 0.387244 1.9234 0
M  V30 11037 O 1044.43 -0.496131 2.10636 0
M  V30 11038 C 1045.02 2.83557 1.85421 0
M  V30 11039 C 1043.58 2.91224 2.38464 0
M  V30 11040 C 1042.73 2.51109 1.17641 0
M  V30 11041 H 1045.68 1.57167 0.220072 0
M  V30 11042 H 1045.7 2.6724 2.70857 0
M  V30 11043 H 1045.21 3.69229 1.19546 0
M  V30 11044 H 1043.31 2.09979 3.07798 0
M  V30 11045 H 1043.42 3.94844 2.71358 0
M  V30 11046 H 1041.79 2.04276 1.5213 0
M  V30 11047 H 1042.57 3.39125 0.533785 0
M  V30 11048 N 1045.02 -0.694098 1.41492 0
M  V30 11049 C 1046.26 -1.4563 1.41137 0
M  V30 11050 C 1046.6 -1.94189 0.0208428 0
M  V30 11051 O 1045.87 -1.69628 -0.951655 0
M  V30 11052 C 1046.15 -2.66714 2.41941 0
M  V30 11053 C 1046.01 -2.23912 3.90107 0
M  V30 11054 C 1047.33 -3.68913 2.39981 0
M  V30 11055 H 1044.44 -0.52821 0.513968 0
M  V30 11056 H 1047.09 -0.790437 1.72778 0
M  V30 11057 H 1045.24 -3.23525 2.1509 0
M  V30 11058 H 1046.91 -1.72417 4.27867 0
M  V30 11059 H 1045.15 -1.5568 4.04903 0
M  V30 11060 H 1045.82 -3.108 4.56188 0
M  V30 11061 H 1048.3 -3.21779 2.63813 0
M  V30 11062 H 1047.17 -4.51242 3.12524 0
M  V30 11063 H 1047.44 -4.18711 1.41892 0
M  V30 11064 N 1046.49 -1.27344 -0.928501 0
M  V30 11065 C 1047.42 -1.12517 -2.04602 0
M  V30 11066 C 1048.41 -0.0268563 -1.70079 0
M  V30 11067 O 1049.59 -0.201197 -1.93155 0
M  V30 11068 C 1046.72 -0.770749 -3.3864 0
M  V30 11069 C 1045.67 -1.8222 -3.87272 0
M  V30 11070 C 1045 -1.32178 -5.18105 0
M  V30 11071 C 1046.3 -3.22614 -4.10752 0
M  V30 11072 H 1047.99 -2.06 -2.17265 0
M  V30 11073 H 1045.54 -0.991827 -1.04397 0
M  V30 11074 H 1047.49 -0.653843 -4.16297 0
M  V30 11075 H 1046.22 0.19979 -3.25988 0
M  V30 11076 H 1044.88 -1.928 -3.11807 0
M  V30 11077 H 1044.52 -0.340719 -5.01845 0
M  V30 11078 H 1044.22 -2.02474 -5.51614 0
M  V30 11079 H 1045.75 -1.2178 -5.98333 0
M  V30 11080 H 1047.16 -3.1504 -4.78981 0
M  V30 11081 H 1045.56 -3.90614 -4.55566 0
M  V30 11082 H 1046.63 -3.67727 -3.16077 0
M  V30 11083 N 1047.97 1.13488 -1.09353 0
M  V30 11084 C 1049.22 1.841 -0.82401 0
M  V30 11085 C 1049.53 1.84393 0.652586 0
M  V30 11086 O 1050.74 2.5089 1.03762 0
M  V30 11087 C 1049.2 3.30523 -1.42418 0
M  V30 11088 C 1048.8 3.38621 -2.93326 0
M  V30 11089 C 1050.55 4.06182 -1.23356 0
M  V30 11090 C 1048.46 4.79311 -3.46432 0
M  V30 11091 H 1047.39 0.68974 -0.304589 0
M  V30 11092 H 1050.04 1.27866 -1.31615 0
M  V30 11093 H 1048.42 3.86555 -0.859727 0
M  V30 11094 H 1049.59 2.92587 -3.5599 0
M  V30 11095 H 1047.91 2.76426 -3.11412 0
M  V30 11096 H 1050.5 5.10047 -1.60488 0
M  V30 11097 H 1050.85 4.15936 -0.174152 0
M  V30 11098 H 1051.38 3.56477 -1.76547 0
M  V30 11099 H 1048.12 4.74748 -4.5199 0
M  V30 11100 H 1047.64 5.25842 -2.8853 0
M  V30 11101 H 1049.32 5.48227 -3.43593 0
M  V30 11102 N 1049.45 0.880621 1.30701 0
M  V30 11103 C 1050.86 0.547993 1.78477 0
M  V30 11104 C 1051.21 -0.935633 1.72454 0
M  V30 11105 O 1050.34 -1.73094 1.29874 0
M  V30 11106 C 1050.93 0.98795 3.24076 0
M  V30 11107 C 1049.49 0.706805 3.69704 0
M  V30 11108 C 1048.64 1.17335 2.51252 0
M  V30 11109 H 1051.59 1.06528 1.17633 0
M  V30 11110 H 1051.61 0.31508 3.79193 0
M  V30 11111 H 1051.12 2.06778 3.28427 0
M  V30 11112 H 1049.22 -0.36122 3.70845 0
M  V30 11113 H 1049.34 1.2913 4.6137 0
M  V30 11114 H 1047.7 0.592808 2.47705 0
M  V30 11115 H 1048.48 2.26083 2.58343 0
M  V30 11116 N 1050.93 -1.4397 0.641131 0
M  V30 11117 C 1052.15 -2.06818 0.155318 0
M  V30 11118 C 1052.58 -1.47665 -1.16519 0
M  V30 11119 O 1051.94 -0.58192 -1.71707 0
M  V30 11120 C 1051.99 -3.60542 0.0647537 0
M  V30 11121 O 1051.09 -4.00674 -0.976447 0
M  V30 11122 H 1050.43 -0.657962 0.0893404 0
M  V30 11123 H 1052.96 -1.84678 0.88064 0
M  V30 11124 H 1052.97 -4.07816 -0.122552 0
M  V30 11125 H 1051.65 -4.02975 1.02878 0
M  V30 11126 H 1050.22 -3.65013 -0.762905 0
M  V30 11127 N 1052.41 -0.382291 -1.52893 0
M  V30 11128 C 1053.66 0.203342 -2.00672 0
M  V30 11129 C 1053.97 1.48487 -1.27322 0
M  V30 11130 O 1055.18 2.15013 -1.65776 0
M  V30 11131 C 1053.63 0.412922 -3.57523 0
M  V30 11132 C 1053.24 -0.854949 -4.39767 0
M  V30 11133 C 1054.98 0.955301 -4.13611 0
M  V30 11134 C 1052.89 -0.614033 -5.88204 0
M  V30 11135 H 1051.82 0.0797635 -0.749769 0
M  V30 11136 H 1054.47 -0.50361 -1.76454 0
M  V30 11137 H 1052.85 1.18155 -3.77962 0
M  V30 11138 H 1054.03 -1.62765 -4.31096 0
M  V30 11139 H 1052.34 -1.32176 -3.94865 0
M  V30 11140 H 1054.94 1.15114 -5.22162 0
M  V30 11141 H 1055.28 1.92233 -3.69259 0
M  V30 11142 H 1055.82 0.24642 -3.97036 0
M  V30 11143 H 1052.55 -1.55187 -6.36865 0
M  V30 11144 H 1052.07 0.119865 -5.9968 0
M  V30 11145 H 1053.75 -0.245895 -6.46533 0
M  V30 11146 N 1053.89 1.57202 -0.111913 0
M  V30 11147 C 1054.83 2.16186 0.858286 0
M  V30 11148 C 1055.83 1.10917 1.28039 0
M  V30 11149 O 1057.03 1.29233 1.25295 0
M  V30 11150 H 1053.41 0.691777 0.29487 0
M  V30 11151 H 1055.38 2.96499 0.336265 0
M  V30 11152 C 1054.13 2.77024 2.10127 0
M  V30 11153 H 1053.45 3.5772 1.78539 0
M  V30 11154 H 1054.89 3.21841 2.76033 0
M  V30 11155 C 1053.35 1.73752 2.88638 0
M  V30 11156 O 1053.88 1.18659 3.83774 0
M  V30 11157 N 1052.09 1.43855 2.52496 0
M  V30 11158 H 1051.63 1.88846 1.75199 0
M  V30 11159 H 1051.59 0.749985 3.05324 0
M  V30 11160 N 1055.36 -0.161842 1.56767 0
M  V30 11161 C 1056.61 -0.875278 1.81719 0
M  V30 11162 C 1056.93 -1.82998 0.690739 0
M  V30 11163 O 1058.13 -2.58648 0.82545 0
M  V30 11164 C 1056.59 -1.60703 3.22029 0
M  V30 11165 C 1056.2 -0.695486 4.42569 0
M  V30 11166 C 1057.94 -2.30813 3.56266 0
M  V30 11167 C 1055.85 -1.42801 5.73901 0
M  V30 11168 H 1054.78 -0.330591 0.677662 0
M  V30 11169 H 1057.43 -0.128112 1.83052 0
M  V30 11170 H 1055.81 -2.39929 3.1504 0
M  V30 11171 H 1056.98 0.0604882 4.6076 0
M  V30 11172 H 1055.3 -0.10356 4.16271 0
M  V30 11173 H 1057.9 -2.86229 4.51638 0
M  V30 11174 H 1058.24 -3.06603 2.81604 0
M  V30 11175 H 1058.77 -1.5852 3.64851 0
M  V30 11176 H 1055.51 -0.712253 6.51619 0
M  V30 11177 H 1055.03 -2.15707 5.5967 0
M  V30 11178 H 1056.71 -1.97295 6.16185 0
M  V30 11179 N 1056.84 -1.516 -0.430713 0
M  V30 11180 C 1057.79 -1.73975 -1.54387 0
M  V30 11181 C 1058.78 -0.606222 -1.58181 0
M  V30 11182 O 1059.99 -0.787764 -1.61846 0
M  V30 11183 H 1056.36 -0.549811 -0.513041 0
M  V30 11184 H 1058.34 -2.67274 -1.32692 0
M  V30 11185 C 1057.08 -1.88794 -2.9198 0
M  V30 11186 H 1056.41 -2.75425 -2.89795 0
M  V30 11187 H 1057.85 -2.08458 -3.69217 0
M  V30 11188 C 1056.31 -0.649427 -3.30581 0
M  V30 11189 O 1056.84 0.192823 -4.01237 0
M  V30 11190 N 1055.04 -0.491586 -2.86412 0
M  V30 11191 H 1054.59 -1.17806 -2.29084 0
M  V30 11192 H 1054.55 0.33583 -3.12601 0
M  V30 11193 N 1058.32 0.686584 -1.41858 0
M  V30 11194 C 1059.54 1.4802 -1.45275 0
M  V30 11195 C 1059.97 1.87997 -0.0621297 0
M  V30 11196 O 1059.33 1.55226 0.936733 0
M  V30 11197 C 1059.38 2.7133 -2.37513 0
M  V30 11198 O 1058.48 3.69159 -1.83836 0
M  V30 11199 H 1057.82 0.445152 -0.492682 0
M  V30 11200 H 1060.35 0.843161 -1.86419 0
M  V30 11201 H 1060.36 3.19537 -2.53693 0
M  V30 11202 H 1059.04 2.41571 -3.3855 0
M  V30 11203 H 1057.61 3.28134 -1.77151 0
M  V30 11204 N 1059.8 1.27835 0.921735 0
M  V30 11205 C 1061.07 1.05238 1.64877 0
M  V30 11206 C 1061.45 -0.410921 2.07062 0
M  V30 11207 O 1060.8 -1.39538 1.80946 0
M  V30 11208 C 1061.01 2.01955 2.84632 0
M  V30 11209 C 1062.36 2.31657 3.55837 0
M  V30 11210 O 1063.38 1.99975 2.94768 0
M  V30 11211 O 1062.24 2.85692 4.65878 0
M  V30 11212 H 1059.34 0.401622 0.72293 0
M  V30 11213 H 1061.88 1.39123 0.971744 0
M  V30 11214 H 1060.66 3.00614 2.50494 0
M  V30 11215 H 1060.28 1.68667 3.60052 0
M  V30 11216 N 1061.28 -1.12907 1.09954 0
M  V30 11217 C 1062.5 -1.88679 0.861099 0
M  V30 11218 C 1062.93 -1.78853 -0.582499 0
M  V30 11219 O 1062.28 -1.13992 -1.4098 0
M  V30 11220 C 1062.33 -3.36047 1.30785 0
M  V30 11221 O 1061.44 -4.09716 0.469728 0
M  V30 11222 H 1060.78 -0.586447 0.31141 0
M  V30 11223 H 1063.31 -1.42818 1.46507 0
M  V30 11224 H 1063.32 -3.86882 1.29562 0
M  V30 11225 H 1061.99 -3.42516 2.35914 0
M  V30 11226 H 1060.57 -3.6887 0.54674 0
M  V30 11227 N 1062.75 -0.88754 -1.30232 0
M  V30 11228 C 1064 -0.506277 -1.95656 0
M  V30 11229 C 1064.32 0.948191 -1.70395 0
M  V30 11230 O 1063.59 1.66701 -1.02895 0
M  V30 11231 H 1062.17 -0.184235 -0.723924 0
M  V30 11232 H 1064.83 -1.13118 -1.58715 0
M  V30 11233 H 1063.93 -0.678673 -3.04632 0
M  V30 11234 N 1064.23 1.43628 -0.648757 0
M  V30 11235 C 1065.14 2.34554 0.0463037 0
M  V30 11236 C 1066.16 1.53629 0.816952 0
M  V30 11237 O 1067.33 1.86297 0.765212 0
M  V30 11238 C 1064.4 3.3185 1.00381 0
M  V30 11239 C 1063.46 4.2868 0.230589 0
M  V30 11240 C 1062.69 5.21328 1.14249 0
M  V30 11241 O 1062.92 5.18298 2.38166 0
M  V30 11242 O 1061.85 5.98726 0.617296 0
M  V30 11243 H 1065.68 2.95475 -0.702008 0
M  V30 11244 H 1063.26 1.43694 -0.408942 0
M  V30 11245 H 1065.14 3.91692 1.5542 0
M  V30 11246 H 1063.82 2.73439 1.73243 0
M  V30 11247 H 1062.73 3.72332 -0.363282 0
M  V30 11248 H 1064.06 4.90061 -0.458368 0
M  V30 11249 N 1065.71 0.390394 1.52688 0
M  V30 11250 C 1066.66 -0.4591 2.28024 0
M  V30 11251 C 1067.65 -1.06212 1.31967 0
M  V30 11252 O 1068.86 -1.00247 1.49501 0
M  V30 11253 H 1065.23 -0.16681 0.733266 0
M  V30 11254 H 1067.2 0.197747 2.97744 0
M  V30 11255 C 1065.95 -1.5737 3.10048 0
M  V30 11256 H 1065.28 -1.11901 3.83821 0
M  V30 11257 H 1066.72 -2.1423 3.65898 0
M  V30 11258 C 1065.18 -2.53036 2.22429 0
M  V30 11259 O 1065.71 -3.5647 1.85181 0
M  V30 11260 N 1063.91 -2.22802 1.86567 0
M  V30 11261 H 1063.46 -1.38723 2.17057 0
M  V30 11262 H 1063.42 -2.87061 1.28233 0
M  V30 11263 N 1067.19 -1.57141 0.120249 0
M  V30 11264 C 1068.14 -2.15379 -0.829497 0
M  V30 11265 C 1069.11 -1.07913 -1.2627 0
M  V30 11266 O 1070.29 -1.35827 -1.33999 0
M  V30 11267 C 1067.43 -2.75847 -2.0737 0
M  V30 11268 C 1066.54 -3.97624 -1.68875 0
M  V30 11269 C 1065.68 -4.46175 -2.88272 0
M  V30 11270 C 1064.72 -5.60481 -2.46023 0
M  V30 11271 N 1063.85 -6.0377 -3.58337 0
M  V30 11272 H 1068.69 -2.96211 -0.326031 0
M  V30 11273 H 1066.23 -1.46341 -0.149235 0
M  V30 11274 H 1068.19 -3.09037 -2.80272 0
M  V30 11275 H 1066.82 -1.97703 -2.55174 0
M  V30 11276 H 1065.87 -3.70588 -0.858431 0
M  V30 11277 H 1067.18 -4.80512 -1.33827 0
M  V30 11278 H 1066.34 -4.8128 -3.69397 0
M  V30 11279 H 1065.08 -3.6224 -3.26548 0
M  V30 11280 H 1064.08 -5.24979 -1.63331 0
M  V30 11281 H 1065.31 -6.46184 -2.08863 0
M  V30 11282 H 1063.25 -5.22776 -3.96284 0
M  V30 11283 H 1063.17 -6.81517 -3.27217 0
M  V30 11284 H 1064.44 -6.43514 -4.39898 0
M  V30 11285 N 1068.67 0.153526 -1.5685 0
M  V30 11286 C 1069.58 1.20932 -2.01029 0
M  V30 11287 C 1070.59 1.47401 -0.924598 0
M  V30 11288 O 1071.77 1.592 -1.23359 0
M  V30 11289 C 1068.83 2.52438 -2.37647 0
M  V30 11290 C 1067.89 2.33673 -3.60132 0
M  V30 11291 C 1067.13 3.58909 -3.94994 0
M  V30 11292 O 1067.35 4.64823 -3.30599 0
M  V30 11293 O 1066.28 3.5196 -4.8827 0
M  V30 11294 H 1070.11 0.864273 -2.91143 0
M  V30 11295 H 1067.7 0.361755 -1.44954 0
M  V30 11296 H 1069.58 3.29981 -2.62088 0
M  V30 11297 H 1068.25 2.86486 -1.5069 0
M  V30 11298 H 1067.16 1.54102 -3.40886 0
M  V30 11299 H 1068.49 2.04544 -4.47686 0
M  V30 11300 N 1070.14 1.51827 0.422667 0
M  V30 11301 C 1071.05 1.77066 1.53899 0
M  V30 11302 C 1072.07 0.655541 1.61179 0
M  V30 11303 O 1073.25 0.939448 1.78147 0
M  V30 11304 C 1070.31 1.90372 2.89758 0
M  V30 11305 C 1069.37 3.14256 2.92475 0
M  V30 11306 C 1068.61 3.26918 4.21853 0
M  V30 11307 O 1068.83 2.45164 5.15025 0
M  V30 11308 O 1067.76 4.19989 4.31153 0
M  V30 11309 H 1071.59 2.71791 1.35511 0
M  V30 11310 H 1069.17 1.36506 0.607165 0
M  V30 11311 H 1071.06 2.01024 3.70361 0
M  V30 11312 H 1069.73 0.988347 3.08242 0
M  V30 11313 H 1068.64 3.09072 2.10773 0
M  V30 11314 H 1069.97 4.0553 2.78937 0
M  V30 11315 N 1071.62 -0.679052 1.4222 0
M  V30 11316 C 1072.87 -1.43485 1.41757 0
M  V30 11317 C 1073.18 -1.95567 0.0358698 0
M  V30 11318 O 1074.39 -2.71346 -0.0913713 0
M  V30 11319 C 1072.85 -2.59541 2.49332 0
M  V30 11320 C 1072.45 -2.14176 3.93488 0
M  V30 11321 C 1074.2 -3.37078 2.58029 0
M  V30 11322 C 1072.11 -3.27289 4.92581 0
M  V30 11323 H 1071.04 -0.539022 0.52723 0
M  V30 11324 H 1073.69 -0.735581 1.68111 0
M  V30 11325 H 1072.07 -3.31815 2.16135 0
M  V30 11326 H 1073.24 -1.49082 4.36017 0
M  V30 11327 H 1071.56 -1.49589 3.88603 0
M  V30 11328 H 1074.15 -4.21312 3.29242 0
M  V30 11329 H 1074.5 -3.83383 1.62245 0
M  V30 11330 H 1075.03 -2.7187 2.90399 0
M  V30 11331 H 1071.77 -2.8598 5.89827 0
M  V30 11332 H 1071.29 -3.91178 4.54687 0
M  V30 11333 H 1072.97 -3.9282 5.14103 0
M  V30 11334 N 1073.1 -1.28322 -0.914942 0
M  V30 11335 C 1074.35 -1.15179 -1.66067 0
M  V30 11336 C 1074.67 0.300279 -1.92674 0
M  V30 11337 O 1073.94 1.20821 -1.54205 0
M  V30 11338 H 1072.52 -0.423264 -0.615513 0
M  V30 11339 H 1075.18 -1.61034 -1.09791 0
M  V30 11340 H 1074.28 -1.69048 -2.62353 0
M  V30 11341 N 1074.58 1.12322 -1.10551 0
M  V30 11342 C 1075.8 1.8822 -0.871093 0
M  V30 11343 C 1076.23 1.7916 0.573005 0
M  V30 11344 O 1075.59 1.14738 1.40374 0
M  V30 11345 C 1075.63 3.35349 -1.32565 0
M  V30 11346 O 1074.74 4.09461 -0.49145 0
M  V30 11347 H 1074.08 0.584787 -0.314516 0
M  V30 11348 H 1076.61 1.42039 -1.47262 0
M  V30 11349 H 1076.62 3.86189 -1.31612 0
M  V30 11350 H 1075.29 3.4126 -2.37728 0
M  V30 11351 H 1073.87 3.68575 -0.566294 0
M  V30 11352 N 1076.06 0.894434 1.2976 0
M  V30 11353 C 1076.99 0.3847 2.30309 0
M  V30 11354 C 1077.97 -0.537486 1.61385 0
M  V30 11355 O 1079.15 -0.449332 1.8893 0
M  V30 11356 C 1076.28 -0.393311 3.45066 0
M  V30 11357 C 1075.24 0.437968 4.25753 0
M  V30 11358 C 1074.56 -0.467221 5.32655 0
M  V30 11359 C 1075.86 1.6851 4.9437 0
M  V30 11360 H 1077.56 1.22496 2.73194 0
M  V30 11361 H 1075.1 0.590471 1.31337 0
M  V30 11362 H 1077.06 -0.760614 4.14479 0
M  V30 11363 H 1075.78 -1.2673 3.0101 0
M  V30 11364 H 1074.44 0.787533 3.58041 0
M  V30 11365 H 1074.09 -1.33919 4.84845 0
M  V30 11366 H 1073.79 0.0852482 5.87538 0
M  V30 11367 H 1075.31 -0.830833 6.04921 0
M  V30 11368 H 1076.72 1.38784 5.56248 0
M  V30 11369 H 1075.12 2.17849 5.59162 0
M  V30 11370 H 1076.19 2.42412 4.19958 0
M  V30 11371 N 1077.53 -1.43282 0.656365 0
M  V30 11372 C 1078.76 -2.06641 0.177245 0
M  V30 11373 C 1079.18 -1.48893 -1.14946 0
M  V30 11374 O 1078.54 -0.600099 -1.7108 0
M  V30 11375 C 1078.59 -3.60453 0.10299 0
M  V30 11376 O 1077.69 -4.01687 -0.933895 0
M  V30 11377 H 1077.04 -0.656978 0.096314 0
M  V30 11378 H 1079.57 -1.83733 0.900178 0
M  V30 11379 H 1079.58 -4.07923 -0.079291 0
M  V30 11380 H 1078.25 -4.01861 1.07147 0
M  V30 11381 H 1076.83 -3.65801 -0.724148 0
M  V30 11382 N 1079.01 -0.398486 -1.52479 0
M  V30 11383 C 1079.96 0.432212 -2.26717 0
M  V30 11384 C 1080.93 1.05007 -1.28696 0
M  V30 11385 O 1082.12 1.07636 -1.57541 0
M  V30 11386 C 1079.26 1.54868 -3.08399 0
M  V30 11387 C 1078.37 0.952779 -4.21362 0
M  V30 11388 C 1077.5 2.04106 -4.90423 0
M  V30 11389 C 1076.54 1.42153 -5.95364 0
M  V30 11390 N 1075.68 2.44951 -6.57984 0
M  V30 11391 H 1080.52 -0.207303 -2.97278 0
M  V30 11392 H 1078.06 -0.114066 -1.46657 0
M  V30 11393 H 1080.01 2.20684 -3.54054 0
M  V30 11394 H 1078.64 2.15837 -2.4003 0
M  V30 11395 H 1077.7 0.183962 -3.79955 0
M  V30 11396 H 1079.01 0.460131 -4.96673 0
M  V30 11397 H 1078.16 2.77672 -5.39429 0
M  V30 11398 H 1076.9 2.56733 -4.14656 0
M  V30 11399 H 1075.91 0.671161 -5.45688 0
M  V30 11400 H 1077.13 0.903093 -6.73068 0
M  V30 11401 H 1075.08 2.9673 -5.85053 0
M  V30 11402 H 1074.99 2.00468 -7.28937 0
M  V30 11403 H 1076.26 3.18119 -7.11632 0
M  V30 11404 N 1080.49 1.57075 -0.12858 0
M  V30 11405 C 1081.72 1.99876 0.534544 0
M  V30 11406 C 1082.13 1.00843 1.59612 0
M  V30 11407 O 1081.49 0.00268947 1.825 0
M  V30 11408 C 1081.54 3.42654 1.15198 0
M  V30 11409 O 1081.26 4.37899 0.132823 0
M  V30 11410 C 1082.76 4.00637 1.8975 0
M  V30 11411 H 1079.98 0.656073 0.140744 0
M  V30 11412 H 1082.53 2.03337 -0.217742 0
M  V30 11413 H 1080.68 3.40101 1.85499 0
M  V30 11414 H 1081.1 5.21253 0.582682 0
M  V30 11415 H 1082.57 5.02592 2.28266 0
M  V30 11416 H 1083.05 3.40313 2.7764 0
M  V30 11417 H 1083.65 4.06764 1.2419 0
M  V30 11418 N 1081.97 -0.145205 1.5693 0
M  V30 11419 C 1082.88 -1.19864 2.01667 0
M  V30 11420 C 1083.9 -1.46909 0.932402 0
M  V30 11421 O 1085.07 -1.58543 1.24201 0
M  V30 11422 C 1082.14 -2.51174 2.38982 0
M  V30 11423 C 1081.2 -2.3176 3.61366 0
M  V30 11424 C 1080.43 -3.56809 3.96892 0
M  V30 11425 O 1080.65 -4.63063 3.33059 0
M  V30 11426 O 1079.59 -3.49366 4.9013 0
M  V30 11427 H 1083.41 -0.848821 2.91597 0
M  V30 11428 H 1081 -0.354063 1.45144 0
M  V30 11429 H 1082.88 -3.28587 2.63835 0
M  V30 11430 H 1081.56 -2.85683 1.52207 0
M  V30 11431 H 1080.46 -1.52293 3.41698 0
M  V30 11432 H 1081.8 -2.02167 4.48764 0
M  V30 11433 N 1083.45 -1.52049 -0.414609 0
M  V30 11434 C 1084.68 -1.69679 -1.18392 0
M  V30 11435 C 1085.09 -0.403881 -1.84429 0
M  V30 11436 O 1084.45 0.619636 -1.71659 0
M  V30 11437 C 1084.5 -2.82855 -2.25112 0
M  V30 11438 O 1084.22 -4.07138 -1.61772 0
M  V30 11439 C 1085.72 -3.11948 -3.14965 0
M  V30 11440 H 1082.94 -0.56879 -0.355977 0
M  V30 11441 H 1085.48 -1.9858 -0.488505 0
M  V30 11442 H 1083.64 -2.56488 -2.90332 0
M  V30 11443 H 1084.05 -4.70163 -2.32479 0
M  V30 11444 H 1085.53 -3.94665 -3.85932 0
M  V30 11445 H 1086 -2.25276 -3.77024 0
M  V30 11446 H 1086.61 -3.40059 -2.55421 0
M  V30 11447 N 1084.93 0.6715 -1.42579 0
M  V30 11448 C 1086.17 1.42731 -1.42516 0
M  V30 11449 C 1086.49 1.95545 -0.0462407 0
M  V30 11450 O 1087.69 2.71391 0.0769798 0
M  V30 11451 C 1086.15 2.58215 -2.50705 0
M  V30 11452 C 1085.76 2.12086 -3.94618 0
M  V30 11453 C 1087.5 3.35705 -2.59813 0
M  V30 11454 C 1085.41 3.24672 -4.9431 0
M  V30 11455 H 1084.34 0.536218 -0.530081 0
M  V30 11456 H 1086.99 0.726655 -1.68499 0
M  V30 11457 H 1085.37 3.30665 -2.17892 0
M  V30 11458 H 1086.55 1.46768 -4.36802 0
M  V30 11459 H 1084.86 1.47526 -3.89391 0
M  V30 11460 H 1087.46 4.1956 -3.31472 0
M  V30 11461 H 1087.8 3.82517 -1.64276 0
M  V30 11462 H 1088.33 2.70326 -2.91836 0
M  V30 11463 H 1085.07 2.82848 -5.91335 0
M  V30 11464 H 1084.59 3.88761 -4.56755 0
M  V30 11465 H 1086.27 3.90088 -5.16179 0
M  V30 11466 N 1086.4 1.28806 0.908124 0
M  V30 11467 C 1087.33 1.15758 2.02787 0
M  V30 11468 C 1088.31 0.053911 1.70015 0
M  V30 11469 O 1089.5 0.231901 1.9281 0
M  V30 11470 C 1086.63 0.824526 3.37371 0
M  V30 11471 C 1085.58 1.88359 3.84324 0
M  V30 11472 C 1084.91 1.40404 5.15937 0
M  V30 11473 C 1086.21 3.29108 4.05568 0
M  V30 11474 H 1087.9 2.09431 2.13961 0
M  V30 11475 H 1085.45 1.00831 1.02806 0
M  V30 11476 H 1087.4 0.71999 4.15204 0
M  V30 11477 H 1086.13 -0.147902 3.26265 0
M  V30 11478 H 1084.79 1.97736 3.087 0
M  V30 11479 H 1084.43 0.420515 5.01239 0
M  V30 11480 H 1084.13 2.11224 5.48323 0
M  V30 11481 H 1085.66 1.31283 5.9632 0
M  V30 11482 H 1087.07 3.2262 4.73909 0
M  V30 11483 H 1085.47 3.97812 4.49294 0
M  V30 11484 H 1086.54 3.72709 3.10187 0
M  V30 11485 N 1087.88 -1.11734 1.11145 0
M  V30 11486 C 1089.29 -1.64928 0.874959 0
M  V30 11487 C 1089.64 -1.87012 -0.593375 0
M  V30 11488 O 1088.77 -1.60206 -1.45475 0
M  V30 11489 C 1089.36 -2.99608 1.58178 0
M  V30 11490 C 1087.92 -3.49723 1.39179 0
M  V30 11491 C 1087.07 -2.24595 1.62642 0
M  V30 11492 H 1090.02 -0.954154 1.26813 0
M  V30 11493 H 1090.04 -3.66434 1.02501 0
M  V30 11494 H 1089.55 -2.83504 2.65042 0
M  V30 11495 H 1087.65 -3.70998 0.345111 0
M  V30 11496 H 1087.77 -4.28711 2.13878 0
M  V30 11497 H 1086.13 -2.32067 1.04961 0
M  V30 11498 H 1086.91 -2.11036 2.70774 0
M  V30 11499 N 1089.36 -0.901303 -1.29284 0
M  V30 11500 C 1090.77 -0.576317 -1.77582 0
M  V30 11501 C 1091.12 0.908078 -1.73921 0
M  V30 11502 O 1090.25 1.71006 -1.32611 0
M  V30 11503 C 1090.84 -1.03938 -3.22463 0
M  V30 11504 C 1089.4 -0.765533 -3.68533 0
M  V30 11505 C 1088.55 -1.21318 -2.49354 0
M  V30 11506 H 1091.5 -1.08386 -1.15923 0
M  V30 11507 H 1091.52 -0.375367 -3.78644 0
M  V30 11508 H 1091.03 -2.11977 -3.25096 0
M  V30 11509 H 1089.13 0.302176 -3.71373 0
M  V30 11510 H 1089.25 -1.36454 -4.59257 0
M  V30 11511 H 1087.61 -0.632141 -2.46731 0
M  V30 11512 H 1088.39 -2.30165 -2.54714 0
M  V30 11513 N 1090.84 1.42931 -0.663954 0
M  V30 11514 C 1091.75 2.3459 0.0214234 0
M  V30 11515 C 1092.76 1.54487 0.800611 0
M  V30 11516 O 1093.94 1.87098 0.74541 0
M  V30 11517 C 1091 3.32896 0.968556 0
M  V30 11518 C 1090.07 4.28901 0.185108 0
M  V30 11519 C 1089.3 5.2251 1.08713 0
M  V30 11520 O 1089.52 5.20795 2.32655 0
M  V30 11521 O 1088.46 5.99347 0.553758 0
M  V30 11522 H 1092.28 2.94714 -0.733308 0
M  V30 11523 H 1089.87 1.43252 -0.424159 0
M  V30 11524 H 1091.75 3.93318 1.51257 0
M  V30 11525 H 1090.42 2.75261 1.70333 0
M  V30 11526 H 1089.33 3.71926 -0.402752 0
M  V30 11527 H 1090.66 4.89547 -0.510319 0
M  V30 11528 N 1092.32 0.406567 1.52266 0
M  V30 11529 C 1093.54 -0.172101 2.06685 0
M  V30 11530 C 1093.97 -1.38306 1.27488 0
M  V30 11531 O 1093.32 -1.78726 0.304441 0
M  V30 11532 C 1093.37 -0.503463 3.57068 0
M  V30 11533 O 1092.48 -1.59485 3.80314 0
M  V30 11534 H 1091.82 -0.0153209 0.663823 0
M  V30 11535 H 1094.35 0.579025 1.96236 0
M  V30 11536 H 1094.36 -0.762833 4.00805 0
M  V30 11537 H 1093.03 0.381775 4.14144 0
M  V30 11538 H 1091.61 -1.32784 3.48458 0
M  V30 11539 N 1093.79 -1.57004 0.136909 0
M  V30 11540 C 1094.7 -2.19807 -0.819887 0
M  V30 11541 C 1095.72 -1.17939 -1.27932 0
M  V30 11542 O 1096.9 -1.50478 -1.3386 0
M  V30 11543 C 1093.96 -2.79935 -2.04542 0
M  V30 11544 C 1093.02 -3.96897 -1.6362 0
M  V30 11545 C 1092.26 -4.54148 -2.80331 0
M  V30 11546 O 1092.48 -4.10282 -3.96264 0
M  V30 11547 O 1091.41 -5.44565 -2.56384 0
M  V30 11548 H 1095.24 -3.02058 -0.315337 0
M  V30 11549 H 1092.82 -1.49131 -0.0896151 0
M  V30 11550 H 1094.71 -3.18191 -2.76283 0
M  V30 11551 H 1093.38 -2.00703 -2.53969 0
M  V30 11552 H 1092.29 -3.63376 -0.889316 0
M  V30 11553 H 1093.62 -4.77618 -1.18918 0
M  V30 11554 N 1095.27 0.136881 -1.57004 0
M  V30 11555 C 1096.22 1.18782 -1.99984 0
M  V30 11556 C 1097.21 1.43899 -0.893841 0
M  V30 11557 O 1098.42 1.44072 -1.07904 0
M  V30 11558 H 1094.8 0.400065 -0.636751 0
M  V30 11559 H 1096.77 0.798696 -2.87512 0
M  V30 11560 C 1095.52 2.51105 -2.40502 0
M  V30 11561 H 1094.84 2.32611 -3.25165 0
M  V30 11562 H 1096.28 3.23244 -2.74389 0
M  V30 11563 C 1094.74 3.12386 -1.26161 0
M  V30 11564 O 1095.27 3.97666 -0.567836 0
M  V30 11565 N 1093.47 2.71989 -1.02326 0
M  V30 11566 H 1093.02 2.02736 -1.58921 0
M  V30 11567 H 1092.98 3.13322 -0.26013 0
M  V30 11568 N 1096.75 1.52266 0.40654 0
M  V30 11569 C 1098.16 1.58587 0.985241 0
M  V30 11570 C 1098.51 0.427955 1.91476 0
M  V30 11571 O 1097.64 -0.451341 2.11641 0
M  V30 11572 C 1098.23 2.87426 1.79365 0
M  V30 11573 C 1096.79 2.96217 2.32233 0
M  V30 11574 C 1095.94 2.53548 1.12288 0
M  V30 11575 H 1098.89 1.57598 0.186685 0
M  V30 11576 H 1098.91 2.72925 2.65127 0
M  V30 11577 H 1098.42 3.71682 1.11687 0
M  V30 11578 H 1096.52 2.1646 3.03275 0
M  V30 11579 H 1096.64 4.00511 2.62922 0
M  V30 11580 H 1095 2.07457 1.47763 0
M  V30 11581 H 1095.78 3.40181 0.461731 0
M  V30 11582 N 1098.23 -0.663929 1.42933 0
M  V30 11583 C 1099.18 -1.77717 1.47259 0
M  V30 11584 C 1100.15 -1.62922 0.323387 0
M  V30 11585 O 1101.33 -1.83319 0.529021 0
M  V30 11586 C 1098.47 -3.15814 1.39124 0
M  V30 11587 C 1097.58 -3.4182 2.64165 0
M  V30 11588 C 1096.72 -4.69705 2.48094 0
M  V30 11589 C 1095.76 -4.88781 3.68456 0
M  V30 11590 N 1094.89 -6.07915 3.51261 0
M  V30 11591 H 1099.73 -1.73355 2.42388 0
M  V30 11592 H 1097.27 -0.846121 1.2033 0
M  V30 11593 H 1099.23 -3.95633 1.32403 0
M  V30 11594 H 1097.86 -3.19274 0.475829 0
M  V30 11595 H 1096.91 -2.56176 2.81208 0
M  V30 11596 H 1098.22 -3.51805 3.53602 0
M  V30 11597 H 1097.38 -5.57632 2.39021 0
M  V30 11598 H 1096.12 -4.62022 1.56164 0
M  V30 11599 H 1095.12 -3.99292 3.7795 0
M  V30 11600 H 1096.35 -4.98301 4.61381 0
M  V30 11601 H 1094.29 -6.01384 2.62057 0
M  V30 11602 H 1094.21 -6.1881 4.34293 0
M  V30 11603 H 1095.48 -6.98492 3.4602 0
M  V30 11604 N 1099.71 -1.29285 -0.901281 0
M  V30 11605 C 1100.62 -1.16161 -2.03823 0
M  V30 11606 C 1101.63 -0.0852298 -1.73791 0
M  V30 11607 O 1102.81 -0.29699 -1.99198 0
M  V30 11608 C 1099.87 -0.837586 -3.3643 0
M  V30 11609 C 1098.93 -1.99764 -3.7999 0
M  V30 11610 C 1098.17 -1.68898 -5.0627 0
M  V30 11611 O 1098.39 -0.609177 -5.67138 0
M  V30 11612 O 1097.32 -2.53648 -5.45845 0
M  V30 11613 H 1101.15 -2.11635 -2.17817 0
M  V30 11614 H 1098.74 -1.08722 -1.02468 0
M  V30 11615 H 1100.62 -0.671376 -4.16017 0
M  V30 11616 H 1099.29 0.0873811 -3.23582 0
M  V30 11617 H 1098.2 -2.21908 -3.01177 0
M  V30 11618 H 1099.53 -2.90376 -3.9742 0
M  V30 11619 N 1101.18 1.11143 -1.11736 0
M  V30 11620 C 1102.13 2.19358 -0.773626 0
M  V30 11621 C 1103.13 1.67744 0.236288 0
M  V30 11622 O 1104.33 1.79748 0.09525 0
M  V30 11623 H 1100.71 0.715218 -0.232309 0
M  V30 11624 H 1102.68 2.45594 -1.69487 0
M  V30 11625 C 1101.43 3.46895 -0.236457 0
M  V30 11626 H 1100.75 3.86967 -1.00483 0
M  V30 11627 H 1102.19 4.23986 -0.034168 0
M  V30 11628 C 1100.65 3.20641 1.03397 0
M  V30 11629 O 1101.18 3.41629 2.11312 0
M  V30 11630 N 1099.39 2.74356 0.957986 0
M  V30 11631 H 1098.93 2.57477 0.0796924 0
M  V30 11632 H 1098.89 2.57166 1.80867 0
M  V30 11633 N 1102.66 0.908147 1.28804 0
M  V30 11634 C 1103.94 0.457561 1.90173 0
M  V30 11635 C 1104.32 -1.06333 1.82364 0
M  V30 11636 O 1103.67 -1.90892 1.25589 0
M  V30 11637 C 1103.88 0.981624 3.34911 0
M  V30 11638 C 1105.23 1.03037 4.11908 0
M  V30 11639 O 1106.25 0.929878 3.43848 0
M  V30 11640 O 1105.11 1.18257 5.33552 0
M  V30 11641 H 1102.2 0.144081 0.814352 0
M  V30 11642 H 1104.75 0.998565 1.37211 0
M  V30 11643 H 1103.52 2.02561 3.34791 0
M  V30 11644 H 1103.14 0.421122 3.95364 0
M  V30 11645 N 1104.14 -1.42577 0.671525 0
M  V30 11646 C 1105.09 -2.32591 -0.0205354 0
M  V30 11647 C 1106.08 -1.4964 -0.793993 0
M  V30 11648 O 1107.29 -1.65733 -0.702327 0
M  V30 11649 H 1103.66 -0.75157 -0.0254344 0
M  V30 11650 H 1105.63 -2.88662 0.756082 0
M  V30 11651 C 1104.38 -3.34175 -0.960316 0
M  V30 11652 H 1103.71 -3.98041 -0.374577 0
M  V30 11653 H 1105.15 -3.99752 -1.4133 0
M  V30 11654 C 1103.61 -2.66184 -2.06513 0
M  V30 11655 O 1104.14 -2.49125 -3.15119 0
M  V30 11656 N 1102.34 -2.25261 -1.83591 0
M  V30 11657 H 1101.89 -2.39336 -0.952689 0
M  V30 11658 H 1101.85 -1.80101 -2.57703 0
M  V30 11659 N 1105.62 -0.414636 -1.52048 0
M  V30 11660 C 1106.9 0.218172 -1.94379 0
M  V30 11661 C 1107.28 1.62133 -1.35189 0
M  V30 11662 O 1106.62 2.22271 -0.529877 0
M  V30 11663 C 1106.83 0.218932 -3.48313 0
M  V30 11664 C 1108.18 0.435604 -4.2236 0
M  V30 11665 O 1109.21 0.298049 -3.54951 0
M  V30 11666 O 1108.06 0.707217 -5.41905 0
M  V30 11667 H 1105.16 0.142173 -0.814688 0
M  V30 11668 H 1107.7 -0.470977 -1.63033 0
M  V30 11669 H 1106.48 -0.76292 -3.83791 0
M  V30 11670 H 1106.1 0.951949 -3.86036 0
M  V30 11671 N 1107.1 1.56929 -0.145233 0
M  V30 11672 C 1108.32 2.00864 0.516564 0
M  V30 11673 C 1108.75 1.02466 1.57741 0
M  V30 11674 O 1108.1 0.000145439 1.813 0
M  V30 11675 C 1108.15 3.43552 1.09563 0
M  V30 11676 O 1107.26 3.4815 2.21055 0
M  V30 11677 H 1106.6 0.651835 0.126521 0
M  V30 11678 H 1109.13 2.0317 -0.241445 0
M  V30 11679 H 1109.14 3.82316 1.42473 0
M  V30 11680 H 1107.81 4.14677 0.318749 0
M  V30 11681 H 1106.39 3.21228 1.89387 0
M  V30 11682 N 1108.58 -0.128553 1.57075 0
M  V30 11683 C 1109.82 -0.836355 1.83982 0
M  V30 11684 C 1110.14 -1.80862 0.728971 0
M  V30 11685 O 1109.41 -1.94326 -0.247859 0
M  V30 11686 H 1107.99 -0.31185 0.678792 0
M  V30 11687 H 1110.66 -0.118153 1.94542 0
M  V30 11688 H 1109.75 -1.38741 2.79567 0
M  V30 11689 N 1110.05 -1.5248 -0.398459 0
M  V30 11690 C 1111.28 -1.70925 -1.16586 0
M  V30 11691 C 1111.7 -0.42342 -1.83991 0
M  V30 11692 O 1111.05 0.601395 -1.72306 0
M  V30 11693 C 1111.1 -2.85226 -2.22099 0
M  V30 11694 O 1110.83 -4.08831 -1.57444 0
M  V30 11695 C 1112.33 -3.15272 -3.11639 0
M  V30 11696 H 1109.55 -0.572533 -0.349924 0
M  V30 11697 H 1112.09 -1.99087 -0.467416 0
M  V30 11698 H 1110.25 -2.59553 -2.87595 0
M  V30 11699 H 1110.66 -4.72603 -2.2748 0
M  V30 11700 H 1112.13 -3.98737 -3.81724 0
M  V30 11701 H 1112.61 -2.29262 -3.74614 0
M  V30 11702 H 1113.22 -3.42749 -2.518 0
M  V30 11703 N 1111.53 0.65634 -1.43283 0
M  V30 11704 C 1112.78 1.41347 -1.44449 0
M  V30 11705 C 1113.1 1.94879 -0.0687217 0
M  V30 11706 O 1112.37 1.74235 0.895492 0
M  V30 11707 H 1110.95 0.524578 -0.531815 0
M  V30 11708 H 1113.61 0.774292 -1.7886 0
M  V30 11709 H 1112.71 2.25737 -2.15521 0
M  V30 11710 N 1113.01 1.29761 0.894412 0
M  V30 11711 C 1114.23 1.21064 1.68399 0
M  V30 11712 C 1114.66 -0.224608 1.86754 0
M  V30 11713 O 1114.02 -1.16199 1.39167 0
M  V30 11714 C 1114.07 1.93468 3.04306 0
M  V30 11715 O 1113.17 1.25533 3.9283 0
M  V30 11716 H 1112.51 0.419223 0.514925 0
M  V30 11717 H 1115.04 1.71421 1.11696 0
M  V30 11718 H 1115.05 2.02127 3.54413 0
M  V30 11719 H 1113.73 2.97857 2.90265 0
M  V30 11720 H 1112.3 1.25168 3.51266 0
M  V30 11721 N 1114.49 -1.10549 1.12324 0
M  V30 11722 C 1115.72 -1.8627 0.900618 0
M  V30 11723 C 1116.13 -1.80609 -0.550069 0
M  V30 11724 O 1115.49 -1.19396 -1.38025 0
M  V30 11725 C 1115.54 -3.34716 1.36556 0
M  V30 11726 O 1115.26 -3.40279 2.75938 0
M  V30 11727 C 1116.76 -4.27315 1.17969 0
M  V30 11728 H 1113.98 -0.588741 0.321908 0
M  V30 11729 H 1116.52 -1.39759 1.49291 0
M  V30 11730 H 1114.68 -3.78697 0.81652 0
M  V30 11731 H 1115.09 -4.32781 2.96312 0
M  V30 11732 H 1116.57 -5.29677 1.55391 0
M  V30 11733 H 1117.04 -4.39036 0.120158 0
M  V30 11734 H 1117.65 -3.89137 1.71617 0
M  V30 11735 N 1115.97 -0.914965 -1.28321 0
M  V30 11736 C 1116.93 -0.409024 -2.25521 0
M  V30 11737 C 1117.93 0.465327 -1.5392 0
M  V30 11738 O 1119.12 0.26821 -1.72123 0
M  V30 11739 C 1116.25 0.413452 -3.38383 0
M  V30 11740 H 1117.44 -1.26767 -2.71791 0
M  V30 11741 H 1115 -0.694477 -1.40024 0
M  V30 11742 H 1115.73 1.29145 -2.97476 0
M  V30 11743 H 1115.52 -0.213268 -3.9152 0
M  V30 11744 H 1117.01 0.758232 -4.10659 0
M  V30 11745 N 1117.44 1.42219 -0.679077 0
M  V30 11746 C 1118.72 1.95155 -0.13188 0
M  V30 11747 C 1119.1 1.6193 1.35433 0
M  V30 11748 O 1118.45 0.917672 2.09263 0
M  V30 11749 C 1118.66 3.46635 -0.405578 0
M  V30 11750 C 1120.01 4.23359 -0.324394 0
M  V30 11751 O 1121.03 3.54578 -0.339564 0
M  V30 11752 O 1119.89 5.45831 -0.270268 0
M  V30 11753 H 1116.98 0.826983 -0.00535438 0
M  V30 11754 H 1119.53 1.52024 -0.754101 0
M  V30 11755 H 1118.3 3.6404 -1.43495 0
M  V30 11756 H 1117.92 3.96823 0.248439 0
M  V30 11757 N 1118.92 0.422693 1.51826 0
M  V30 11758 C 1120.15 -0.147744 2.06372 0
M  V30 11759 C 1120.56 -1.37714 1.29152 0
M  V30 11760 O 1119.92 -1.7917 0.347046 0
M  V30 11761 C 1119.97 -0.484642 3.58237 0
M  V30 11762 O 1119.69 0.695944 4.32537 0
M  V30 11763 C 1121.19 -1.10734 4.29247 0
M  V30 11764 H 1118.41 -0.0144047 0.670845 0
M  V30 11765 H 1120.96 0.597558 1.95575 0
M  V30 11766 H 1119.11 -1.17984 3.68997 0
M  V30 11767 H 1119.53 0.411471 5.22884 0
M  V30 11768 H 1121 -1.29318 5.36639 0
M  V30 11769 H 1121.48 -2.08429 3.86593 0
M  V30 11770 H 1122.08 -0.451958 4.22892 0
M  V30 11771 N 1120.4 -1.5685 0.153553 0
M  V30 11772 C 1121.62 -2.01135 -0.505904 0
M  V30 11773 C 1122.05 -1.03301 -1.57196 0
M  V30 11774 O 1121.41 -0.00976022 -1.81297 0
M  V30 11775 C 1121.46 -3.44129 -1.0774 0
M  V30 11776 O 1120.56 -3.49318 -2.19205 0
M  V30 11777 H 1119.9 -0.652496 -0.123062 0
M  V30 11778 H 1122.43 -2.03039 0.252216 0
M  V30 11779 H 1122.44 -3.83066 -1.40444 0
M  V30 11780 H 1121.12 -4.1484 -0.296754 0
M  V30 11781 H 1119.69 -3.22227 -1.8768 0
M  V30 11782 N 1121.88 0.120221 -1.57141 0
M  V30 11783 C 1123.1 0.84637 -1.89344 0
M  V30 11784 C 1123.53 1.72702 -0.745365 0
M  V30 11785 O 1122.89 1.7873 0.304155 0
M  V30 11786 C 1122.93 1.65671 -3.20289 0
M  V30 11787 O 1122.04 2.76353 -3.06109 0
M  V30 11788 H 1121.38 0.234132 -0.621352 0
M  V30 11789 H 1123.91 0.102986 -2.04341 0
M  V30 11790 H 1123.92 2.04621 -3.52979 0
M  V30 11791 H 1122.59 1.01023 -4.03444 0
M  V30 11792 H 1121.17 2.40615 -2.84884 0
M  V30 11793 N 1123.36 1.52689 0.390367 0
M  V30 11794 C 1124.61 1.6689 1.13272 0
M  V30 11795 C 1124.92 0.414433 1.91159 0
M  V30 11796 O 1126.12 0.436559 2.67967 0
M  V30 11797 C 1124.58 2.94929 2.06264 0
M  V30 11798 C 1124.19 4.27551 1.33805 0
M  V30 11799 C 1125.93 3.18497 2.80642 0
M  V30 11800 C 1123.84 5.46698 2.25554 0
M  V30 11801 H 1122.77 0.621749 0.426549 0
M  V30 11802 H 1125.42 1.79185 0.395615 0
M  V30 11803 H 1123.8 2.76378 2.83604 0
M  V30 11804 H 1124.98 4.56651 0.616997 0
M  V30 11805 H 1123.29 4.10234 0.713913 0
M  V30 11806 H 1125.89 4.04693 3.49467 0
M  V30 11807 H 1126.23 2.33511 3.44642 0
M  V30 11808 H 1126.76 3.37607 2.10395 0
M  V30 11809 H 1123.5 6.34088 1.66171 0
M  V30 11810 H 1123.02 5.21913 2.95579 0
M  V30 11811 H 1124.7 5.80519 2.85668 0
M  V30 11812 N 1124.83 -0.648732 1.43629 0
M  V30 11813 C 1126.11 -1.4062 1.35961 0
M  V30 11814 C 1126.49 -2.11098 0.00961023 0
M  V30 11815 O 1125.84 -2.05107 -1.00714 0
M  V30 11816 C 1126.05 -2.38719 2.54586 0
M  V30 11817 C 1127.4 -3.02584 2.97873 0
M  V30 11818 O 1128.42 -2.49046 2.54665 0
M  V30 11819 O 1127.28 -3.99662 3.72736 0
M  V30 11820 H 1124.37 -0.628483 0.53753 0
M  V30 11821 H 1126.92 -0.675263 1.55687 0
M  V30 11822 H 1125.69 -1.85619 3.44472 0
M  V30 11823 H 1125.32 -3.19257 2.36983 0
M  V30 11824 N 1126.31 -1.30234 -0.887518 0
M  V30 11825 C 1127.24 -1.18969 -2.00919 0
M  V30 11826 C 1128.22 -0.080952 -1.69907 0
M  V30 11827 O 1129.41 -0.262546 -1.92417 0
M  V30 11828 C 1126.54 -0.878094 -3.36016 0
M  V30 11829 C 1125.49 -1.94449 -3.81279 0
M  V30 11830 C 1124.82 -1.48594 -5.13638 0
M  V30 11831 C 1126.12 -3.35519 -4.00281 0
M  V30 11832 H 1127.81 -2.12808 -2.10602 0
M  V30 11833 H 1125.36 -1.02454 -1.01189 0
M  V30 11834 H 1127.31 -0.785954 -4.14006 0
M  V30 11835 H 1126.04 0.0959779 -3.26459 0
M  V30 11836 H 1124.69 -2.02622 -3.05516 0
M  V30 11837 H 1124.34 -0.500204 -5.00507 0
M  V30 11838 H 1124.04 -2.19921 -5.44893 0
M  V30 11839 H 1125.57 -1.40754 -5.94156 0
M  V30 11840 H 1126.98 -3.30119 -4.68716 0
M  V30 11841 H 1125.38 -4.0491 -4.42909 0
M  V30 11842 H 1126.45 -3.77597 -3.04218 0
M  V30 11843 N 1127.79 1.09952 -1.12909 0
M  V30 11844 C 1128.74 2.18525 -0.796849 0
M  V30 11845 C 1129.73 1.67985 0.218483 0
M  V30 11846 O 1130.94 1.79839 0.07618 0
M  V30 11847 H 1127.31 0.712714 -0.239882 0
M  V30 11848 H 1129.28 2.43783 -1.72083 0
M  V30 11849 C 1128.03 3.46625 -0.273237 0
M  V30 11850 H 1127.36 3.85879 -1.04582 0
M  V30 11851 H 1128.8 4.23926 -0.0791355 0
M  V30 11852 C 1127.26 3.2172 0.999903 0
M  V30 11853 O 1127.79 3.43851 2.07676 0
M  V30 11854 N 1125.99 2.75356 0.928833 0
M  V30 11855 H 1125.54 2.57547 0.052379 0
M  V30 11856 H 1125.5 2.5907 1.78129 0
M  V30 11857 N 1129.27 0.921757 1.27833 0
M  V30 11858 C 1130.2 0.433466 2.29441 0
M  V30 11859 C 1131.18 -0.503133 1.62489 0
M  V30 11860 O 1132.36 -0.409156 1.89841 0
M  V30 11861 C 1129.49 -0.320029 3.45822 0
M  V30 11862 C 1128.45 0.528178 4.24728 0
M  V30 11863 C 1127.77 -0.354132 5.33526 0
M  V30 11864 C 1129.07 1.78959 4.90684 0
M  V30 11865 H 1130.77 1.28263 2.70535 0
M  V30 11866 H 1128.31 0.618197 1.30055 0
M  V30 11867 H 1130.27 -0.672526 4.15999 0
M  V30 11868 H 1128.99 -1.20317 3.0363 0
M  V30 11869 H 1127.65 0.863302 3.5629 0
M  V30 11870 H 1127.3 -1.23605 4.87576 0
M  V30 11871 H 1127 0.209855 5.87225 0
M  V30 11872 H 1128.52 -0.702333 6.06547 0
M  V30 11873 H 1129.94 1.50552 5.53179 0
M  V30 11874 H 1128.33 2.29661 5.54415 0
M  V30 11875 H 1129.4 2.51265 4.14721 0
M  V30 11876 N 1130.75 -1.41857 0.686609 0
M  V30 11877 C 1131.97 -2.06219 0.221037 0
M  V30 11878 C 1132.4 -1.51298 -1.11762 0
M  V30 11879 O 1131.75 -0.636253 -1.69769 0
M  V30 11880 C 1131.8 -3.60153 0.179425 0
M  V30 11881 O 1130.91 -4.03577 -0.848481 0
M  V30 11882 H 1130.25 -0.654787 0.110228 0
M  V30 11883 H 1132.78 -1.81783 0.938948 0
M  V30 11884 H 1132.79 -4.07999 0.00725332 0
M  V30 11885 H 1131.46 -3.99498 1.15647 0
M  V30 11886 H 1130.04 -3.67255 -0.646393 0
M  V30 11887 N 1132.22 -0.430739 -1.51599 0
M  V30 11888 C 1133.47 0.139396 -2.01218 0
M  V30 11889 C 1133.79 1.44361 -1.31982 0
M  V30 11890 O 1134.99 2.0963 -1.72533 0
M  V30 11891 C 1133.45 0.298969 -3.58656 0
M  V30 11892 C 1133.06 -0.994424 -4.36824 0
M  V30 11893 C 1134.8 0.82323 -4.16441 0
M  V30 11894 C 1132.71 -0.800855 -5.85952 0
M  V30 11895 H 1131.64 0.0558698 -0.751927 0
M  V30 11896 H 1134.29 -0.559493 -1.74762 0
M  V30 11897 H 1132.67 1.06071 -3.8153 0
M  V30 11898 H 1133.84 -1.76398 -4.257 0
M  V30 11899 H 1132.16 -1.44672 -3.9046 0
M  V30 11900 H 1134.76 0.984434 -5.2556 0
M  V30 11901 H 1135.1 1.80388 -3.75188 0
M  V30 11902 H 1135.63 0.119982 -3.97619 0
M  V30 11903 H 1132.37 -1.75369 -6.31606 0
M  V30 11904 H 1131.89 -0.0709793 -5.99758 0
M  V30 11905 H 1133.57 -0.451459 -6.45423 0
M  V30 11906 N 1133.7 1.56767 -0.161869 0
M  V30 11907 C 1134.93 2.01401 0.49523 0
M  V30 11908 C 1135.35 1.04133 1.56646 0
M  V30 11909 O 1134.71 0.0193747 1.8129 0
M  V30 11910 C 1134.76 3.44695 1.05913 0
M  V30 11911 O 1133.86 3.50475 2.1735 0
M  V30 11912 H 1133.2 0.65314 0.1196 0
M  V30 11913 H 1135.73 2.02903 -0.26298 0
M  V30 11914 H 1135.74 3.83805 1.3841 0
M  V30 11915 H 1134.42 4.14991 0.274749 0
M  V30 11916 H 1133 3.23218 1.85969 0
M  V30 11917 N 1135.18 -0.111886 1.57202 0
M  V30 11918 C 1136.41 -0.836317 1.89791 0
M  V30 11919 C 1136.83 -1.72304 0.754513 0
M  V30 11920 O 1136.19 -1.78889 -0.294672 0
M  V30 11921 C 1136.24 -1.63971 3.21164 0
M  V30 11922 O 1135.34 -2.74726 3.0757 0
M  V30 11923 H 1134.68 -0.230833 0.622585 0
M  V30 11924 H 1137.21 -0.0921478 2.04392 0
M  V30 11925 H 1137.22 -2.02746 3.54059 0
M  V30 11926 H 1135.9 -0.98882 4.03974 0
M  V30 11927 H 1134.47 -2.39101 2.86156 0
M  V30 11928 N 1136.66 -1.52894 -0.382264 0
M  V30 11929 C 1137.91 -1.68266 -1.12663 0
M  V30 11930 C 1138.23 -0.425974 -1.89778 0
M  V30 11931 O 1137.49 0.59178 -1.86538 0
M  V30 11932 C 1137.79 -2.87309 -2.12576 0
M  V30 11933 C 1137.45 -4.24484 -1.52067 0
M  V30 11934 C 1136.12 -4.6179 -1.35292 0
M  V30 11935 C 1138.47 -5.09858 -1.08138 0
M  V30 11936 C 1135.8 -5.82123 -0.731449 0
M  V30 11937 C 1138.15 -6.30822 -0.473986 0
M  V30 11938 C 1136.81 -6.66854 -0.293585 0
M  V30 11939 H 1136.08 -0.615728 -0.412262 0
M  V30 11940 H 1138.73 -1.8705 -0.410425 0
M  V30 11941 H 1137.03 -2.62968 -2.90439 0
M  V30 11942 H 1138.73 -2.96397 -2.70092 0
M  V30 11943 H 1135.32 -3.951 -1.66114 0
M  V30 11944 H 1139.5 -4.816 -1.19898 0
M  V30 11945 H 1134.76 -6.08643 -0.579938 0
M  V30 11946 H 1138.93 -6.96287 -0.125324 0
M  V30 11947 H 1136.56 -7.59962 0.190054 0
M  V30 11948 N 1138.14 0.641106 -1.43971 0
M  V30 11949 C 1139.07 1.76489 -1.52885 0
M  V30 11950 C 1140.05 1.65742 -0.38258 0
M  V30 11951 O 1141.23 1.84653 -0.601397 0
M  V30 11952 C 1138.36 3.14977 -1.4631 0
M  V30 11953 C 1137.32 3.40502 -2.59311 0
M  V30 11954 C 1136.64 4.78916 -2.37789 0
M  V30 11955 C 1137.94 3.34048 -4.01509 0
M  V30 11956 H 1139.64 1.69286 -2.46946 0
M  V30 11957 H 1137.18 0.813015 -1.18853 0
M  V30 11958 H 1139.14 3.9336 -1.51149 0
M  V30 11959 H 1137.86 3.2294 -0.487599 0
M  V30 11960 H 1136.52 2.64495 -2.53846 0
M  V30 11961 H 1136.17 4.8357 -1.38454 0
M  V30 11962 H 1135.87 4.96954 -3.13545 0
M  V30 11963 H 1137.39 5.59541 -2.4443 0
M  V30 11964 H 1138.81 4.0235 -4.08396 0
M  V30 11965 H 1137.2 3.63622 -4.77388 0
M  V30 11966 H 1138.27 2.32022 -4.25786 0
M  V30 11967 N 1139.62 1.30703 0.880598 0
M  V30 11968 C 1140.84 1.22843 1.67106 0
M  V30 11969 C 1141.27 -0.204788 1.86982 0
M  V30 11970 O 1140.62 -1.14716 1.40392 0
M  V30 11971 C 1140.67 1.96685 3.02237 0
M  V30 11972 O 1139.78 1.29693 3.91476 0
M  V30 11973 H 1139.12 0.424661 0.51045 0
M  V30 11974 H 1141.65 1.72596 1.09871 0
M  V30 11975 H 1141.66 2.05874 3.52249 0
M  V30 11976 H 1140.33 3.00919 2.8709 0
M  V30 11977 H 1138.91 1.28886 3.49918 0
M  V30 11978 N 1141.09 -1.09351 1.1349 0
M  V30 11979 C 1142.04 -2.16008 0.812981 0
M  V30 11980 C 1143.01 -1.64566 -0.225252 0
M  V30 11981 O 1144.2 -1.90552 -0.0973261 0
M  V30 11982 C 1141.34 -3.43913 0.285996 0
M  V30 11983 C 1140.45 -4.09251 1.38338 0
M  V30 11984 C 1139.58 -5.24916 0.814652 0
M  V30 11985 C 1138.62 -5.82178 1.89038 0
M  V30 11986 N 1137.76 -6.89203 1.33955 0
M  V30 11987 H 1142.6 -2.42887 1.72655 0
M  V30 11988 H 1140.14 -1.19209 0.861833 0
M  V30 11989 H 1142.09 -4.17183 -0.0376794 0
M  V30 11990 H 1140.72 -3.17349 -0.590707 0
M  V30 11991 H 1139.78 -3.33838 1.82363 0
M  V30 11992 H 1141.09 -4.4784 2.19638 0
M  V30 11993 H 1140.24 -6.05086 0.442306 0
M  V30 11994 H 1138.98 -4.87691 -0.029416 0
M  V30 11995 H 1137.99 -5.00669 2.27179 0
M  V30 11996 H 1139.21 -6.21464 2.73787 0
M  V30 11997 H 1137.16 -6.53956 0.517494 0
M  V30 11998 H 1137.07 -7.26565 2.08902 0
M  V30 11999 H 1138.34 -7.73126 0.994793 0
M  V30 12000 N 1142.57 -0.928524 -1.27343 0
M  V30 12001 C 1143.8 -0.585734 -1.98436 0
M  V30 12002 C 1144.21 0.83644 -1.69261 0
M  V30 12003 O 1143.57 1.55603 -0.953626 0
M  V30 12004 C 1143.62 -0.803092 -3.52467 0
M  V30 12005 O 1143.34 -2.16932 -3.80621 0
M  V30 12006 C 1144.84 -0.469127 -4.40811 0
M  V30 12007 H 1142.06 -0.221887 -0.633251 0
M  V30 12008 H 1144.61 -1.24577 -1.62175 0
M  V30 12009 H 1142.76 -0.189846 -3.86935 0
M  V30 12010 H 1143.18 -2.21992 -4.75205 0
M  V30 12011 H 1144.65 -0.671906 -5.47895 0
M  V30 12012 H 1145.13 0.595365 -4.35146 0
M  V30 12013 H 1145.73 -1.06055 -4.11865 0
M  V30 12014 N 1144.05 1.41491 -0.694123 0
M  V30 12015 C 1145 2.30783 -0.0278824 0
M  V30 12016 C 1145.97 1.47028 0.772783 0
M  V30 12017 O 1147.15 1.75819 0.74111 0
M  V30 12018 C 1144.29 3.33061 0.903579 0
M  V30 12019 C 1143.4 4.31896 0.0946823 0
M  V30 12020 C 1142.54 5.21243 1.02365 0
M  V30 12021 C 1141.58 6.11748 0.207578 0
M  V30 12022 N 1140.72 6.93583 1.09028 0
M  V30 12023 H 1145.56 2.87197 -0.795092 0
M  V30 12024 H 1143.09 1.41449 -0.403806 0
M  V30 12025 H 1145.05 3.90907 1.45765 0
M  V30 12026 H 1143.68 2.782 1.6372 0
M  V30 12027 H 1142.73 3.76009 -0.576289 0
M  V30 12028 H 1144.04 4.95889 -0.538059 0
M  V30 12029 H 1143.2 5.83917 1.647 0
M  V30 12030 H 1141.94 4.57473 1.69025 0
M  V30 12031 H 1140.94 5.48125 -0.428854 0
M  V30 12032 H 1142.17 6.77573 -0.455206 0
M  V30 12033 H 1140.11 6.32422 1.74292 0
M  V30 12034 H 1140.03 7.54257 0.513073 0
M  V30 12035 H 1141.3 7.60726 1.70048 0
M  V30 12036 N 1145.53 0.438773 1.51369 0
M  V30 12037 C 1146.8 -0.18722 1.94702 0
M  V30 12038 C 1147.18 -1.59962 1.37752 0
M  V30 12039 O 1146.53 -2.214 0.565171 0
M  V30 12040 C 1146.74 -0.163491 3.48617 0
M  V30 12041 C 1148.09 -0.368355 4.22999 0
M  V30 12042 O 1149.11 -0.241541 3.5538 0
M  V30 12043 O 1147.97 -0.620916 5.42961 0
M  V30 12044 H 1145.07 -0.129194 0.816846 0
M  V30 12045 H 1147.61 0.496855 1.62263 0
M  V30 12046 H 1146.39 0.823882 3.82528 0
M  V30 12047 H 1146.01 -0.890414 3.87501 0
M  V30 12048 N 1147.01 -1.56678 0.170181 0
M  V30 12049 C 1148.23 -2.0166 -0.484543 0
M  V30 12050 C 1148.66 -1.04962 -1.56091 0
M  V30 12051 O 1148.01 -0.0289887 -1.81277 0
M  V30 12052 C 1148.06 -3.45252 -1.04084 0
M  V30 12053 O 1147.17 -3.51623 -2.15488 0
M  V30 12054 H 1146.51 -0.653765 -0.116135 0
M  V30 12055 H 1149.04 -2.02761 0.273737 0
M  V30 12056 H 1149.05 -3.84534 -1.36373 0
M  V30 12057 H 1147.72 -4.15131 -0.252738 0
M  V30 12058 H 1146.3 -3.242 -1.84252 0
M  V30 12059 N 1148.48 0.103547 -1.57259 0
M  V30 12060 C 1149.73 0.806979 -1.8529 0
M  V30 12061 C 1150.05 1.79679 -0.757653 0
M  V30 12062 O 1149.32 1.94695 0.216913 0
M  V30 12063 H 1147.9 0.301012 -0.683667 0
M  V30 12064 H 1150.56 0.0871886 -1.94705 0
M  V30 12065 H 1149.66 1.34275 -2.81738 0
M  V30 12066 N 1149.96 1.53094 0.37415 0
M  V30 12067 C 1151.19 1.73061 1.143 0
M  V30 12068 C 1151.61 0.454611 1.82524 0
M  V30 12069 O 1150.97 -0.590743 1.71406 0
M  V30 12070 C 1151.02 2.89086 2.15549 0
M  V30 12071 O 1150.12 2.57096 3.22452 0
M  V30 12072 H 1149.46 0.575009 0.332055 0
M  V30 12073 H 1151.99 1.99946 0.433897 0
M  V30 12074 H 1152 3.15007 2.59296 0
M  V30 12075 H 1150.68 3.81647 1.65283 0
M  V30 12076 H 1149.25 2.41965 2.83738 0
M  V30 12077 N 1151.44 -0.633461 1.44309 0
M  V30 12078 C 1152.69 -1.38902 1.4625 0
M  V30 12079 C 1153 -1.95354 0.0980699 0
M  V30 12080 O 1154.21 -2.715 -0.0049983 0
M  V30 12081 C 1152.66 -2.51477 2.57463 0
M  V30 12082 C 1152.27 -2.01549 4.00103 0
M  V30 12083 C 1154.02 -3.28698 2.68622 0
M  V30 12084 C 1151.92 -3.11452 5.02744 0
M  V30 12085 H 1150.85 -0.521976 0.544112 0
M  V30 12086 H 1153.5 -0.681725 1.70367 0
M  V30 12087 H 1151.89 -3.24771 2.26582 0
M  V30 12088 H 1153.06 -1.35135 4.4054 0
M  V30 12089 H 1151.37 -1.3715 3.93165 0
M  V30 12090 H 1153.97 -4.10624 3.42479 0
M  V30 12091 H 1154.31 -3.78027 1.7436 0
M  V30 12092 H 1154.85 -2.62494 2.98901 0
M  V30 12093 H 1151.59 -2.6707 5.98627 0
M  V30 12094 H 1151.11 -3.76514 4.66902 0
M  V30 12095 H 1152.79 -3.76265 5.2634 0
M  V30 12096 N 1152.92 -1.31168 -0.873655 0
M  V30 12097 C 1154.14 -1.23728 -1.66452 0
M  V30 12098 C 1154.57 0.194869 -1.87088 0
M  V30 12099 O 1153.93 1.1397 -1.40998 0
M  V30 12100 C 1153.97 -1.98285 -3.0119 0
M  V30 12101 O 1153.08 -1.31767 -3.90783 0
M  V30 12102 H 1152.42 -0.427362 -0.508191 0
M  V30 12103 H 1154.95 -1.73176 -1.08955 0
M  V30 12104 H 1154.96 -2.0774 -3.51153 0
M  V30 12105 H 1153.63 -3.02437 -2.8549 0
M  V30 12106 H 1152.21 -1.3074 -3.4923 0
M  V30 12107 N 1154.4 1.08748 -1.14068 0
M  V30 12108 C 1155.33 2.17591 -0.84714 0
M  V30 12109 C 1156.31 1.68962 0.196415 0
M  V30 12110 O 1157.49 1.94125 0.0538415 0
M  V30 12111 C 1154.62 3.45823 -0.320005 0
M  V30 12112 C 1153.58 4.07824 -1.2986 0
M  V30 12113 C 1152.9 5.30965 -0.630925 0
M  V30 12114 C 1154.2 4.49512 -2.65963 0
M  V30 12115 H 1155.9 2.42404 -1.75729 0
M  V30 12116 H 1153.44 1.16502 -0.846356 0
M  V30 12117 H 1155.4 4.21276 -0.102271 0
M  V30 12118 H 1154.12 3.20553 0.625561 0
M  V30 12119 H 1152.78 3.34398 -1.50245 0
M  V30 12120 H 1152.43 5.01979 0.320337 0
M  V30 12121 H 1152.13 5.73402 -1.28388 0
M  V30 12122 H 1153.65 6.09136 -0.422635 0
M  V30 12123 H 1155.06 5.16159 -2.49506 0
M  V30 12124 H 1153.46 5.02857 -3.27498 0
M  V30 12125 H 1154.53 3.6157 -3.23102 0
M  V30 12126 N 1155.87 0.935264 1.26849 0
M  V30 12127 C 1156.81 0.397539 2.25726 0
M  V30 12128 C 1157.82 -0.475928 1.55688 0
M  V30 12129 O 1159.01 -0.287329 1.76172 0
M  V30 12130 C 1156.11 -0.448308 3.35922 0
M  V30 12131 C 1155.28 0.407624 4.35496 0
M  V30 12132 C 1154.34 -0.376815 5.24849 0
M  V30 12133 O 1153.37 0.218109 5.68782 0
M  V30 12134 N 1154.57 -1.67481 5.55815 0
M  V30 12135 H 1157.33 1.24753 2.72501 0
M  V30 12136 H 1154.89 0.803505 1.40554 0
M  V30 12137 H 1156.89 -0.980338 3.92647 0
M  V30 12138 H 1155.46 -1.19908 2.88688 0
M  V30 12139 H 1154.68 1.12091 3.77928 0
M  V30 12140 H 1155.96 0.992512 4.99026 0
M  V30 12141 H 1155.36 -2.18037 5.21993 0
M  V30 12142 H 1153.92 -2.15321 6.15207 0
M  V30 12143 N 1157.35 -1.41121 0.701616 0
M  V30 12144 C 1158.26 -2.34565 0.0407815 0
M  V30 12145 C 1159.28 -1.56555 -0.75937 0
M  V30 12146 O 1160.45 -1.89008 -0.695542 0
M  V30 12147 C 1157.52 -3.35347 -0.879954 0
M  V30 12148 C 1156.58 -4.29241 -0.0713279 0
M  V30 12149 C 1155.81 -5.25209 -0.948211 0
M  V30 12150 O 1156.04 -5.26781 -2.18766 0
M  V30 12151 O 1154.97 -6.00605 -0.394657 0
M  V30 12152 H 1158.8 -2.92666 0.811188 0
M  V30 12153 H 1156.38 -1.42077 0.461991 0
M  V30 12154 H 1158.26 -3.9719 -1.40776 0
M  V30 12155 H 1156.94 -2.7968 -1.62975 0
M  V30 12156 H 1155.85 -3.70727 0.50122 0
M  V30 12157 H 1157.18 -4.88022 0.639935 0
M  V30 12158 N 1158.83 -0.446794 -1.51134 0
M  V30 12159 C 1160.06 0.114893 -2.06581 0
M  V30 12160 C 1160.47 1.35642 -1.31327 0
M  V30 12161 O 1159.83 1.78595 -0.375506 0
M  V30 12162 C 1159.88 0.427589 -3.58962 0
M  V30 12163 O 1159.6 -0.764669 -4.31375 0
M  V30 12164 C 1161.1 1.03891 -4.30954 0
M  V30 12165 H 1158.32 0.00373031 -0.67099 0
M  V30 12166 H 1160.87 -0.628596 -1.94599 0
M  V30 12167 H 1159.02 1.12099 -3.70827 0
M  V30 12168 H 1159.44 -0.494605 -5.22163 0
M  V30 12169 H 1160.91 1.20764 -5.38628 0
M  V30 12170 H 1161.39 2.02252 -3.8986 0
M  V30 12171 H 1161.99 0.384623 -4.23557 0
M  V30 12172 N 1160.31 1.56586 -0.178487 0
M  V30 12173 C 1161.72 1.58609 0.17759 0
M  V30 12174 C 1161.92 1.19411 1.62306 0
M  V30 12175 O 1160.98 0.90906 2.35568 0
M  V30 12176 C 1162.29 3.005 -0.109722 0
M  V30 12177 C 1163.84 3.12962 -0.0485036 0
M  V30 12178 C 1164.32 4.56957 -0.308901 0
M  V30 12179 N 1165.81 4.62487 -0.25693 0
M  V30 12180 C 1166.54 5.71767 -0.432488 0
M  V30 12181 N 1166.04 6.89577 -0.667494 0
M  V30 12182 N 1167.83 5.60895 -0.367895 0
M  V30 12183 H 1159.98 1.80351 -1.12193 0
M  V30 12184 H 1162.25 0.83623 -0.446569 0
M  V30 12185 H 1161.95 3.3368 -1.11133 0
M  V30 12186 H 1161.83 3.72472 0.595373 0
M  V30 12187 H 1164.21 2.79604 0.943687 0
M  V30 12188 H 1164.29 2.43411 -0.78642 0
M  V30 12189 H 1163.94 4.91025 -1.29833 0
M  V30 12190 H 1163.87 5.24676 0.449711 0
M  V30 12191 H 1166.36 3.77813 -0.0812308 0
M  V30 12192 H 1166.67 7.68744 -0.79071 0
M  V30 12193 H 1165.02 6.91423 -0.704193 0
M  V30 12194 H 1168.21 4.67735 -0.184837 0
M  V30 12195 H 1168.38 6.46005 -0.508138 0
M  V30 12196 N 1161.79 -0.095206 1.57312 0
M  V30 12197 C 1163.2 -0.449411 1.53142 0
M  V30 12198 C 1163.4 -1.80523 0.895187 0
M  V30 12199 O 1162.46 -2.47746 0.487649 0
M  V30 12200 C 1163.77 -0.412002 2.97864 0
M  V30 12201 C 1165.32 -0.493866 3.09079 0
M  V30 12202 C 1165.79 -0.486606 4.55408 0
M  V30 12203 N 1167.29 -0.547363 4.59955 0
M  V30 12204 C 1168.02 -0.563582 5.70624 0
M  V30 12205 N 1167.52 -0.536015 6.90723 0
M  V30 12206 N 1169.31 -0.608385 5.58798 0
M  V30 12207 H 1161.46 0.792869 1.97047 0
M  V30 12208 H 1163.72 0.295106 0.900898 0
M  V30 12209 H 1163.43 0.517064 3.47878 0
M  V30 12210 H 1163.3 -1.23102 3.56547 0
M  V30 12211 H 1165.69 -1.41335 2.59053 0
M  V30 12212 H 1165.77 0.353286 2.53349 0
M  V30 12213 H 1165.42 0.428935 5.06086 0
M  V30 12214 H 1165.35 -1.35097 5.08976 0
M  V30 12215 H 1167.84 -0.573867 3.73517 0
M  V30 12216 H 1168.15 -0.551671 7.70828 0
M  V30 12217 H 1166.49 -0.503064 6.93177 0
M  V30 12218 H 1169.69 -0.627451 4.63876 0
M  V30 12219 H 1169.86 -0.617556 6.45051 0
M  V30 12220 N 1163.26 -1.53291 -0.366026 0
M  V30 12221 C 1164.2 -1.75981 -1.46845 0
M  V30 12222 C 1165.21 -0.640574 -1.49668 0
M  V30 12223 O 1166.4 -0.916823 -1.53155 0
M  V30 12224 C 1163.5 -1.82426 -2.85611 0
M  V30 12225 C 1162.67 -3.12062 -3.0649 0
M  V30 12226 C 1161.73 -3.09755 -4.25368 0
M  V30 12227 O 1160.76 -3.83555 -4.20564 0
M  V30 12228 N 1161.96 -2.30544 -5.32757 0
M  V30 12229 H 1164.72 -2.71104 -1.2776 0
M  V30 12230 H 1162.28 -1.52063 -0.555745 0
M  V30 12231 H 1164.28 -1.78361 -3.63276 0
M  V30 12232 H 1162.85 -0.945888 -2.97946 0
M  V30 12233 H 1162.07 -3.29433 -2.16489 0
M  V30 12234 H 1163.35 -3.97735 -3.17308 0
M  V30 12235 H 1162.75 -1.70095 -5.39522 0
M  V30 12236 H 1161.31 -2.32298 -6.09 0
M  V30 12237 N 1164.74 0.6258 -1.44643 0
M  V30 12238 C 1165.69 1.73751 -1.51919 0
M  V30 12239 C 1166.66 1.62007 -0.36647 0
M  V30 12240 O 1167.84 1.81852 -0.577439 0
M  V30 12241 C 1164.98 3.12015 -1.47448 0
M  V30 12242 C 1164.1 3.34696 -2.73135 0
M  V30 12243 C 1163.23 4.62962 -2.6046 0
M  V30 12244 C 1162.27 4.7884 -3.81286 0
M  V30 12245 N 1161.41 5.98388 -3.67255 0
M  V30 12246 H 1166.25 1.66867 -2.46899 0
M  V30 12247 H 1163.79 0.813921 -1.22531 0
M  V30 12248 H 1165.74 3.91983 -1.42846 0
M  V30 12249 H 1164.37 3.179 -0.560312 0
M  V30 12250 H 1163.43 2.4863 -2.87901 0
M  V30 12251 H 1164.74 3.42306 -3.62806 0
M  V30 12252 H 1163.89 5.51099 -2.53722 0
M  V30 12253 H 1162.63 4.57719 -1.68359 0
M  V30 12254 H 1161.64 3.89131 -3.88403 0
M  V30 12255 H 1162.86 4.85893 -4.74431 0
M  V30 12256 H 1160.81 5.94224 -2.77909 0
M  V30 12257 H 1160.72 6.07078 -4.50547 0
M  V30 12258 H 1161.99 6.89072 -3.64417 0
M  V30 12259 N 1166.22 1.31629 0.866686 0
M  V30 12260 C 1167.17 1.19556 1.97421 0
M  V30 12261 C 1168.14 0.0805578 1.65905 0
M  V30 12262 O 1169.32 0.253997 1.89102 0
M  V30 12263 C 1166.46 0.912234 3.32825 0
M  V30 12264 C 1165.58 2.11088 3.76916 0
M  V30 12265 C 1164.71 1.76406 5.01053 0
M  V30 12266 C 1163.75 2.9266 5.37602 0
M  V30 12267 N 1162.89 2.58152 6.52918 0
M  V30 12268 H 1167.73 2.14294 2.0708 0
M  V30 12269 H 1165.26 1.06595 1.0137 0
M  V30 12270 H 1167.22 0.72851 4.1079 0
M  V30 12271 H 1165.85 0.00167404 3.228 0
M  V30 12272 H 1164.9 2.40527 2.94705 0
M  V30 12273 H 1166.22 2.98089 3.99931 0
M  V30 12274 H 1165.37 1.54515 5.86694 0
M  V30 12275 H 1164.11 0.866018 4.79949 0
M  V30 12276 H 1163.11 3.15196 4.50479 0
M  V30 12277 H 1164.34 3.83179 5.6067 0
M  V30 12278 H 1162.28 1.70874 6.33355 0
M  V30 12279 H 1162.2 3.38682 6.75892 0
M  V30 12280 H 1163.47 2.39662 7.41743 0
M  V30 12281 N 1167.7 -1.08142 1.14644 0
M  V30 12282 C 1168.93 -1.84318 0.939926 0
M  V30 12283 C 1169.34 -1.81735 -0.511636 0
M  V30 12284 O 1168.7 -1.22297 -1.35461 0
M  V30 12285 C 1168.75 -3.31744 1.43625 0
M  V30 12286 O 1168.47 -3.3435 2.83094 0
M  V30 12287 C 1169.97 -4.24717 1.27007 0
M  V30 12288 H 1167.19 -0.581781 0.334323 0
M  V30 12289 H 1169.74 -1.36561 1.52221 0
M  V30 12290 H 1167.89 -3.7688 0.896664 0
M  V30 12291 H 1168.31 -4.26399 3.05425 0
M  V30 12292 H 1169.78 -5.26262 1.66591 0
M  V30 12293 H 1170.26 -4.38682 0.213257 0
M  V30 12294 H 1170.86 -3.85409 1.79833 0
M  V30 12295 N 1169.18 -0.941978 -1.26351 0
M  V30 12296 C 1170.11 -0.469913 -2.28723 0
M  V30 12297 C 1171.09 0.477218 -1.63269 0
M  V30 12298 O 1172.27 0.378902 -1.90468 0
M  V30 12299 C 1169.4 0.264971 -3.46288 0
M  V30 12300 C 1168.36 -0.595682 -4.23834 0
M  V30 12301 C 1167.68 0.269208 -5.34022 0
M  V30 12302 C 1168.98 -1.86743 -4.87775 0
M  V30 12303 H 1170.68 -1.32551 -2.6846 0
M  V30 12304 H 1168.22 -0.638809 -1.29055 0
M  V30 12305 H 1170.18 0.606259 -4.17016 0
M  V30 12306 H 1168.9 1.15471 -3.05506 0
M  V30 12307 H 1167.56 -0.919875 -3.54872 0
M  V30 12308 H 1167.21 1.15832 -4.89481 0
M  V30 12309 H 1166.91 -0.30325 -5.86817 0
M  V30 12310 H 1168.43 0.605748 -6.07588 0
M  V30 12311 H 1169.85 -1.59333 -5.50714 0
M  V30 12312 H 1168.24 -2.38452 -5.50691 0
M  V30 12313 H 1169.31 -2.57831 -4.10671 0
M  V30 12314 N 1170.66 1.40747 -0.709091 0
M  V30 12315 C 1171.6 2.30741 -0.0523584 0
M  V30 12316 C 1172.57 1.4784 0.757145 0
M  V30 12317 O 1173.76 1.76595 0.72242 0
M  V30 12318 C 1170.9 3.34 0.868203 0
M  V30 12319 C 1170.01 4.31972 0.0488686 0
M  V30 12320 C 1169.15 5.223 0.968311 0
M  V30 12321 C 1168.18 6.11934 0.142682 0
M  V30 12322 N 1167.32 6.947 1.01665 0
M  V30 12323 H 1172.16 2.86338 -0.825509 0
M  V30 12324 H 1169.7 1.41013 -0.418785 0
M  V30 12325 H 1171.66 3.92431 1.41611 0
M  V30 12326 H 1170.29 2.79921 1.6076 0
M  V30 12327 H 1169.34 3.75377 -0.616137 0
M  V30 12328 H 1170.65 4.95291 -0.590625 0
M  V30 12329 H 1169.8 5.85631 1.58498 0
M  V30 12330 H 1168.54 4.5924 1.64164 0
M  V30 12331 H 1167.55 5.47639 -0.486965 0
M  V30 12332 H 1168.77 6.77052 -0.527046 0
M  V30 12333 H 1166.72 6.34236 1.67575 0
M  V30 12334 H 1166.64 7.54759 0.433045 0
M  V30 12335 H 1167.9 7.62487 1.6197 0
M  V30 12336 N 1172.13 0.454803 1.50895 0
M  V30 12337 C 1173.08 -0.347769 2.28165 0
M  V30 12338 C 1174.05 -1.00158 1.32505 0
M  V30 12339 O 1175.24 -1.01715 1.61427 0
M  V30 12340 C 1172.38 -1.43315 3.13934 0
M  V30 12341 C 1171.49 -0.795736 4.24608 0
M  V30 12342 C 1170.62 -1.85763 4.9766 0
M  V30 12343 C 1169.66 -1.19959 6.0023 0
M  V30 12344 N 1168.8 -2.20361 6.66622 0
M  V30 12345 H 1173.64 0.317493 2.96304 0
M  V30 12346 H 1171.18 0.168418 1.46133 0
M  V30 12347 H 1173.13 -2.07391 3.62001 0
M  V30 12348 H 1171.76 -2.0678 2.47875 0
M  V30 12349 H 1170.82 -0.0428173 3.80376 0
M  V30 12350 H 1172.13 -0.275477 4.98039 0
M  V30 12351 H 1171.28 -2.5746 5.49363 0
M  V30 12352 H 1170.02 -2.41166 4.23899 0
M  V30 12353 H 1169.03 -0.46817 5.47803 0
M  V30 12354 H 1170.25 -0.652666 6.75956 0
M  V30 12355 H 1168.2 -2.74812 5.95663 0
M  V30 12356 H 1168.11 -1.73275 7.35875 0
M  V30 12357 H 1169.38 -2.91488 7.22949 0
M  V30 12358 N 1173.61 -1.56489 0.186789 0
M  V30 12359 C 1174.84 -2.01722 -0.459993 0
M  V30 12360 C 1175.25 -1.06697 -1.5576 0
M  V30 12361 O 1174.61 -0.0704212 -1.82364 0
M  V30 12362 C 1174.66 -3.46693 -1.02401 0
M  V30 12363 O 1174.38 -4.3809 0.0297916 0
M  V30 12364 C 1175.88 -4.07403 -1.7475 0
M  V30 12365 H 1173.1 -0.660845 -0.116298 0
M  V30 12366 H 1175.65 -2.02389 0.293059 0
M  V30 12367 H 1173.8 -3.46752 -1.72749 0
M  V30 12368 H 1174.22 -5.23057 -0.388821 0
M  V30 12369 H 1175.69 -5.10718 -2.09455 0
M  V30 12370 H 1176.17 -3.50383 -2.64818 0
M  V30 12371 H 1176.77 -4.11093 -1.09007 0
M  V30 12372 N 1175.09 0.086862 -1.5736 0
M  V30 12373 C 1176.51 0.441284 -1.53378 0
M  V30 12374 C 1176.71 1.80046 -0.904748 0
M  V30 12375 O 1175.76 2.47484 -0.500781 0
M  V30 12376 C 1177.07 0.3962 -2.98078 0
M  V30 12377 C 1178.62 0.477468 -3.09337 0
M  V30 12378 C 1179.1 0.462448 -4.55659 0
M  V30 12379 N 1180.59 0.522963 -4.60238 0
M  V30 12380 C 1181.32 0.533313 -5.70914 0
M  V30 12381 N 1180.82 0.499376 -6.90998 0
M  V30 12382 N 1182.61 0.578742 -5.59113 0
M  V30 12383 H 1174.76 -0.803308 -1.96623 0
M  V30 12384 H 1177.03 -0.299879 -0.89932 0
M  V30 12385 H 1176.73 -0.535505 -3.47599 0
M  V30 12386 H 1176.61 1.21209 -3.57195 0
M  V30 12387 H 1178.99 1.39959 -2.59799 0
M  V30 12388 H 1179.07 -0.366717 -2.53158 0
M  V30 12389 H 1178.72 -0.455768 -5.05851 0
M  V30 12390 H 1178.65 1.32396 -5.09685 0
M  V30 12391 H 1181.14 0.554051 -3.73816 0
M  V30 12392 H 1181.45 0.510784 -7.7111 0
M  V30 12393 H 1179.8 0.466296 -6.93434 0
M  V30 12394 H 1182.99 0.602841 -4.64202 0
M  V30 12395 H 1183.16 0.583339 -6.45369 0
M  V30 12396 N 1176.57 1.53483 0.357892 0
M  V30 12397 C 1177.51 1.80463 1.43881 0
M  V30 12398 C 1178.48 0.649438 1.52877 0
M  V30 12399 O 1179.67 0.892409 1.68644 0
M  V30 12400 C 1176.81 2.00714 2.80727 0
M  V30 12401 C 1175.92 3.28431 2.80637 0
M  V30 12402 C 1175.06 3.38828 4.09107 0
M  V30 12403 C 1174.1 4.60549 4.03189 0
M  V30 12404 N 1173.23 4.68057 5.23323 0
M  V30 12405 H 1178.07 2.72694 1.20174 0
M  V30 12406 H 1175.61 1.35079 0.582422 0
M  V30 12407 H 1177.57 2.10444 3.60235 0
M  V30 12408 H 1176.2 1.11811 3.02817 0
M  V30 12409 H 1175.25 3.27617 1.93317 0
M  V30 12410 H 1176.56 4.18022 2.72138 0
M  V30 12411 H 1175.72 3.47911 4.97034 0
M  V30 12412 H 1174.46 2.47267 4.20369 0
M  V30 12413 H 1173.46 4.51558 3.13649 0
M  V30 12414 H 1174.69 5.53459 3.93523 0
M  V30 12415 H 1172.63 3.794 5.35156 0
M  V30 12416 H 1172.55 5.51563 5.17024 0
M  V30 12417 H 1173.82 4.81433 6.1306 0
M  V30 12418 N 1178.05 -0.61812 1.44973 0
M  V30 12419 C 1179.29 -1.3774 1.48439 0
M  V30 12420 C 1179.62 -1.94117 0.121999 0
M  V30 12421 O 1178.88 -1.749 -0.877974 0
M  V30 12422 C 1179.17 -2.55143 2.50274 0
M  V30 12423 C 1178.84 -2.16976 3.95262 0
M  V30 12424 C 1177.5 -2.06281 4.34743 0
M  V30 12425 C 1179.85 -1.8703 4.86486 0
M  V30 12426 C 1177.18 -1.63846 5.63357 0
M  V30 12427 C 1179.53 -1.46085 6.15501 0
M  V30 12428 C 1178.2 -1.3394 6.53924 0
M  V30 12429 H 1177.47 -0.504026 0.543175 0
M  V30 12430 H 1180.12 -0.699685 1.7826 0
M  V30 12431 H 1178.42 -3.28205 2.13983 0
M  V30 12432 H 1180.12 -3.13373 2.50197 0
M  V30 12433 H 1176.71 -2.26223 3.64034 0
M  V30 12434 H 1180.89 -1.94196 4.56729 0
M  V30 12435 H 1176.15 -1.53058 5.91932 0
M  V30 12436 H 1180.32 -1.21956 6.85638 0
M  V30 12437 H 1177.95 -1.00832 7.53483 0
M  V30 12438 N 1179.52 -1.32087 -0.859693 0
M  V30 12439 C 1180.77 -1.21716 -1.60836 0
M  V30 12440 C 1181.09 0.220904 -1.94349 0
M  V30 12441 O 1182.29 0.446422 -2.67805 0
M  V30 12442 C 1180.75 -2.13143 -2.89997 0
M  V30 12443 C 1180.36 -3.62003 -2.63928 0
M  V30 12444 C 1182.1 -2.11596 -3.68004 0
M  V30 12445 C 1180.01 -4.45407 -3.89059 0
M  V30 12446 H 1178.94 -0.45199 -0.603507 0
M  V30 12447 H 1181.59 -1.57013 -0.949687 0
M  V30 12448 H 1179.97 -1.70755 -3.57294 0
M  V30 12449 H 1181.14 -4.12701 -2.04974 0
M  V30 12450 H 1179.46 -3.6563 -1.99258 0
M  V30 12451 H 1182.06 -2.71149 -4.6085 0
M  V30 12452 H 1182.4 -1.10568 -4.01348 0
M  V30 12453 H 1182.93 -2.52238 -3.07605 0
M  V30 12454 H 1179.67 -5.4723 -3.60859 0
M  V30 12455 H 1179.19 -3.99462 -4.47427 0
M  V30 12456 H 1180.87 -4.58149 -4.56846 0
M  V30 12457 N 1181 1.07532 -1.15215 0
M  V30 12458 C 1182.25 1.8036 -0.927263 0
M  V30 12459 C 1182.58 1.86414 0.544371 0
M  V30 12460 O 1181.86 1.34653 1.40353 0
M  V30 12461 C 1182.14 3.25512 -1.53992 0
M  V30 12462 C 1181.99 3.27614 -3.08203 0
M  V30 12463 C 1183.31 4.22731 -1.22418 0
M  V30 12464 H 1180.43 0.654775 -0.338289 0
M  V30 12465 H 1183.07 1.25842 -1.42351 0
M  V30 12466 H 1181.22 3.72068 -1.11791 0
M  V30 12467 H 1182.89 2.89315 -3.59297 0
M  V30 12468 H 1181.14 2.66627 -3.42188 0
M  V30 12469 H 1181.81 4.29956 -3.46182 0
M  V30 12470 H 1184.28 3.84557 -1.58919 0
M  V30 12471 H 1183.16 5.22589 -1.67906 0
M  V30 12472 H 1183.42 4.41875 -0.14091 0
M  V30 12473 N 1182.48 0.948665 1.2585 0
M  V30 12474 C 1183.76 0.517832 1.88621 0
M  V30 12475 C 1184.14 -1.00477 1.85654 0
M  V30 12476 O 1183.49 -1.868 1.31598 0
M  V30 12477 C 1183.7 1.08768 3.31618 0
M  V30 12478 C 1185.04 1.16089 4.08422 0
M  V30 12479 O 1186.07 1.0388 3.40716 0
M  V30 12480 O 1184.93 1.35172 5.29519 0
M  V30 12481 H 1182.02 0.169916 0.809356 0
M  V30 12482 H 1184.57 1.04171 1.33964 0
M  V30 12483 H 1183.34 2.13109 3.28177 0
M  V30 12484 H 1182.96 0.54669 3.93824 0
M  V30 12485 N 1183.96 -1.40369 0.716545 0
M  V30 12486 C 1185.21 -2.00473 0.255959 0
M  V30 12487 C 1185.53 -1.57104 -1.15514 0
M  V30 12488 O 1184.8 -0.810925 -1.78328 0
M  V30 12489 H 1183.38 -0.741357 0.0916427 0
M  V30 12490 H 1186.04 -1.71692 0.922389 0
M  V30 12491 H 1185.14 -3.10752 0.289806 0
M  V30 12492 N 1185.44 -0.462799 -1.50652 0
M  V30 12493 C 1186.68 0.0951853 -2.02576 0
M  V30 12494 C 1187.02 1.40113 -1.34469 0
M  V30 12495 O 1186.29 1.88793 -0.467702 0
M  V30 12496 C 1186.57 0.287603 -3.5895 0
M  V30 12497 C 1186.43 -1.03878 -4.37641 0
M  V30 12498 C 1187.75 1.04593 -4.27491 0
M  V30 12499 H 1184.86 0.0331191 -0.736255 0
M  V30 12500 H 1187.51 -0.606772 -1.80051 0
M  V30 12501 H 1185.66 0.885514 -3.78274 0
M  V30 12502 H 1187.33 -1.67263 -4.29908 0
M  V30 12503 H 1185.57 -1.6374 -4.01711 0
M  V30 12504 H 1186.24 -0.857889 -5.45293 0
M  V30 12505 H 1188.72 0.539213 -4.12591 0
M  V30 12506 H 1187.59 1.14935 -5.36732 0
M  V30 12507 H 1187.86 2.08045 -3.90089 0
M  V30 12508 N 1186.91 1.56388 -0.195085 0
M  V30 12509 C 1187.82 2.22698 0.737743 0
M  V30 12510 C 1188.84 1.22605 1.23466 0
M  V30 12511 O 1190.02 1.55342 1.28183 0
M  V30 12512 C 1187.08 2.87333 1.94011 0
M  V30 12513 C 1186.14 4.02696 1.48776 0
M  V30 12514 C 1185.38 4.64239 2.63282 0
M  V30 12515 O 1185.6 4.24706 3.80763 0
M  V30 12516 O 1184.53 5.53705 2.35996 0
M  V30 12517 H 1188.36 3.03021 0.203013 0
M  V30 12518 H 1185.94 1.49361 0.0342044 0
M  V30 12519 H 1187.83 3.28226 2.64284 0
M  V30 12520 H 1186.5 2.0999 2.46345 0
M  V30 12521 H 1185.41 3.66426 0.753839 0
M  V30 12522 H 1186.74 4.81703 1.01109 0
M  V30 12523 N 1188.39 -0.0785156 1.57404 0
M  V30 12524 C 1189.64 -0.780092 1.87196 0
M  V30 12525 C 1189.97 -1.77562 0.78647 0
M  V30 12526 O 1189.25 -1.93428 -0.203935 0
M  V30 12527 C 1189.53 -1.49408 3.27642 0
M  V30 12528 C 1189.38 -0.515416 4.46837 0
M  V30 12529 C 1190.7 -2.44064 3.66225 0
M  V30 12530 H 1187.82 -0.282134 0.680859 0
M  V30 12531 H 1190.46 -0.0433926 1.8995 0
M  V30 12532 H 1188.61 -2.12205 3.25425 0
M  V30 12533 H 1190.28 0.106827 4.61176 0
M  V30 12534 H 1188.53 0.169832 4.33467 0
M  V30 12535 H 1189.2 -1.05247 5.41874 0
M  V30 12536 H 1191.67 -1.91349 3.69493 0
M  V30 12537 H 1190.55 -2.91029 4.65396 0
M  V30 12538 H 1190.81 -3.28569 2.95796 0
M  V30 12539 N 1189.87 -1.5367 -0.349747 0
M  V30 12540 C 1191.1 -1.74858 -1.11532 0
M  V30 12541 C 1191.52 -0.483591 -1.81777 0
M  V30 12542 O 1190.88 0.563399 -1.72324 0
M  V30 12543 C 1190.93 -2.92479 -2.10923 0
M  V30 12544 O 1190.03 -2.62194 -3.18321 0
M  V30 12545 H 1189.37 -0.580219 -0.322865 0
M  V30 12546 H 1191.9 -2.00611 -0.402033 0
M  V30 12547 H 1191.91 -3.19093 -2.54252 0
M  V30 12548 H 1190.59 -3.84228 -1.59191 0
M  V30 12549 H 1189.16 -2.46448 -2.79853 0
M  V30 12550 N 1191.35 0.610423 -1.45298 0
M  V30 12551 C 1192.59 1.37154 -1.49388 0
M  V30 12552 C 1192.93 1.93737 -0.134025 0
M  V30 12553 O 1192.2 1.74888 0.851138 0
M  V30 12554 C 1192.49 2.52155 -2.5708 0
M  V30 12555 C 1192.34 2.00786 -4.02498 0
M  V30 12556 C 1193.66 3.54294 -2.61082 0
M  V30 12557 H 1190.78 0.497346 -0.54389 0
M  V30 12558 H 1193.42 0.688358 -1.77092 0
M  V30 12559 H 1191.57 3.10434 -2.33587 0
M  V30 12560 H 1193.24 1.47178 -4.37191 0
M  V30 12561 H 1191.48 1.31809 -4.1329 0
M  V30 12562 H 1192.15 2.83674 -4.73533 0
M  V30 12563 H 1194.63 3.05851 -2.82125 0
M  V30 12564 H 1193.51 4.32254 -3.38301 0
M  V30 12565 H 1193.77 4.09726 -1.66063 0
M  V30 12566 N 1192.83 1.32541 0.852676 0
M  V30 12567 C 1194.05 1.2622 1.6394 0
M  V30 12568 C 1194.47 -0.169455 1.88038 0
M  V30 12569 O 1193.83 -1.10719 1.45078 0
M  V30 12570 C 1193.88 2.02062 2.99755 0
M  V30 12571 O 1193.6 3.39641 2.76723 0
M  V30 12572 C 1195.1 2.02787 3.94198 0
M  V30 12573 H 1192.32 0.435405 0.510552 0
M  V30 12574 H 1194.86 1.74696 1.06309 0
M  V30 12575 H 1193.02 1.57303 3.54026 0
M  V30 12576 H 1193.43 3.78484 3.63111 0
M  V30 12577 H 1194.91 2.60333 4.86755 0
M  V30 12578 H 1195.38 1.01464 4.27319 0
M  V30 12579 H 1195.99 2.47504 3.45864 0
M  V30 12580 N 1194.3 -1.0692 1.15784 0
M  V30 12581 C 1195.53 -1.8331 0.959422 0
M  V30 12582 C 1195.95 -1.82268 -0.492332 0
M  V30 12583 O 1195.3 -1.23727 -1.34156 0
M  V30 12584 C 1195.36 -3.30202 1.47135 0
M  V30 12585 O 1195.08 -3.31328 2.86624 0
M  V30 12586 C 1196.58 -4.23346 1.31504 0
M  V30 12587 H 1193.8 -0.578202 0.340475 0
M  V30 12588 H 1196.34 -1.34939 1.53661 0
M  V30 12589 H 1194.5 -3.75908 0.936587 0
M  V30 12590 H 1194.91 -4.23135 3.0993 0
M  V30 12591 H 1196.38 -5.24465 1.72163 0
M  V30 12592 H 1196.86 -4.38431 0.259773 0
M  V30 12593 H 1197.47 -3.8348 1.83911 0
M  V30 12594 N 1195.78 -0.955326 -1.25345 0
M  V30 12595 C 1197.01 -0.627233 -1.97688 0
M  V30 12596 C 1197.43 0.793973 -1.70522 0
M  V30 12597 O 1196.79 1.537 -0.961556 0
M  V30 12598 C 1196.84 -0.892969 -3.49369 0
M  V30 12599 O 1195.94 0.0278871 -4.12391 0
M  V30 12600 H 1195.28 -0.238402 -0.619726 0
M  V30 12601 H 1197.81 -1.28211 -1.59446 0
M  V30 12602 H 1197.82 -0.819517 -3.99685 0
M  V30 12603 H 1196.5 -1.92879 -3.6847 0
M  V30 12604 H 1195.08 -0.0978295 -3.72772 0
M  V30 12605 N 1197.26 1.39987 -0.723979 0
M  V30 12606 C 1198.21 2.30672 -0.0768286 0
M  V30 12607 C 1199.18 1.48634 0.741422 0
M  V30 12608 O 1200.36 1.77351 0.703649 0
M  V30 12609 C 1197.5 3.34902 0.832729 0
M  V30 12610 C 1196.62 4.32 0.00304942 0
M  V30 12611 C 1195.75 5.23298 0.91286 0
M  V30 12612 C 1194.79 6.12051 0.0777706 0
M  V30 12613 N 1193.93 6.9574 0.942912 0
M  V30 12614 H 1198.77 2.85446 -0.855832 0
M  V30 12615 H 1196.3 1.40561 -0.433718 0
M  V30 12616 H 1198.26 3.93911 1.37441 0
M  V30 12617 H 1196.89 2.81611 1.57782 0
M  V30 12618 H 1195.94 3.74702 -0.655916 0
M  V30 12619 H 1197.26 4.94637 -0.643124 0
M  V30 12620 H 1196.41 5.87279 1.52277 0
M  V30 12621 H 1195.15 4.60956 1.59284 0
M  V30 12622 H 1194.15 5.47092 -0.545022 0
M  V30 12623 H 1195.38 6.76455 -0.598827 0
M  V30 12624 H 1193.33 6.35977 1.60838 0
M  V30 12625 H 1193.24 7.55176 0.352968 0
M  V30 12626 H 1194.51 7.64162 1.53874 0
M  V30 12627 N 1198.74 0.470782 1.50404 0
M  V30 12628 C 1199.99 -0.0859981 2.01517 0
M  V30 12629 C 1200.3 -1.40811 1.35763 0
M  V30 12630 O 1201.51 -2.04982 1.7803 0
M  V30 12631 C 1199.96 -0.203773 3.59323 0
M  V30 12632 C 1199.57 1.10989 4.34034 0
M  V30 12633 C 1201.32 -0.712528 4.18477 0
M  V30 12634 C 1199.22 0.955928 5.83623 0
M  V30 12635 H 1198.15 -0.0359142 0.753144 0
M  V30 12636 H 1200.8 0.605631 1.73218 0
M  V30 12637 H 1199.19 -0.959177 3.84208 0
M  V30 12638 H 1200.36 1.87623 4.20873 0
M  V30 12639 H 1198.67 1.54973 3.86487 0
M  V30 12640 H 1201.27 -0.844745 5.27985 0
M  V30 12641 H 1201.61 -1.70377 3.79838 0
M  V30 12642 H 1202.15 -0.0145179 3.97797 0
M  V30 12643 H 1198.89 1.92054 6.26734 0
M  V30 12644 H 1198.41 0.22997 5.99359 0
M  V30 12645 H 1200.09 0.622423 6.43999 0
M  V30 12646 N 1200.22 -1.56282 0.203376 0
M  V30 12647 C 1201.46 -1.98105 -0.433844 0
M  V30 12648 C 1201.8 -1.09044 -1.60695 0
M  V30 12649 O 1201.07 -0.144193 -1.93965 0
M  V30 12650 C 1201.35 -3.4903 -0.885992 0
M  V30 12651 C 1201.21 -4.48867 0.289501 0
M  V30 12652 C 1202.53 -4.03871 -1.7486 0
M  V30 12653 H 1199.65 -0.720252 -0.156224 0
M  V30 12654 H 1202.29 -1.87681 0.295963 0
M  V30 12655 H 1200.44 -3.58045 -1.50785 0
M  V30 12656 H 1202.11 -4.51883 0.92734 0
M  V30 12657 H 1200.35 -4.23495 0.939934 0
M  V30 12658 H 1201.02 -5.51956 -0.0695128 0
M  V30 12659 H 1203.5 -3.97688 -1.22407 0
M  V30 12660 H 1202.38 -5.09827 -2.03391 0
M  V30 12661 H 1202.64 -3.49637 -2.70567 0
M  V30 12662 N 1201.7 0.070167 -1.57444 0
M  V30 12663 C 1202.92 0.781894 -1.91557 0
M  V30 12664 C 1203.34 1.71037 -0.799489 0
M  V30 12665 O 1202.7 1.81082 0.227062 0
M  V30 12666 C 1202.75 1.57415 -3.25427 0
M  V30 12667 O 1202.47 0.682991 -4.32743 0
M  V30 12668 C 1203.97 2.38673 -3.73564 0
M  V30 12669 H 1201.19 0.222211 -0.633138 0
M  V30 12670 H 1203.73 0.0399504 -2.04461 0
M  V30 12671 H 1201.89 2.26835 -3.14045 0
M  V30 12672 H 1202.3 1.2342 -5.09772 0
M  V30 12673 H 1203.78 2.89716 -4.6986 0
M  V30 12674 H 1204.25 3.18269 -3.02657 0
M  V30 12675 H 1204.86 1.74405 -3.87896 0
M  V30 12676 N 1203.17 1.53854 0.341593 0
M  V30 12677 C 1204.45 1.61823 1.09875 0
M  V30 12678 C 1204.83 0.440711 2.06448 0
M  V30 12679 O 1204.18 -0.566833 2.21358 0
M  V30 12680 C 1204.39 2.9799 1.81668 0
M  V30 12681 C 1205.74 3.53411 2.35341 0
M  V30 12682 O 1206.76 3.00177 1.91761 0
M  V30 12683 O 1205.62 4.4653 3.15076 0
M  V30 12684 H 1202.71 0.654599 0.5054 0
M  V30 12685 H 1205.26 1.66199 0.342929 0
M  V30 12686 H 1204.03 3.7513 1.11323 0
M  V30 12687 H 1203.65 2.97213 2.64103 0
M  V30 12688 N 1204.65 -0.602709 1.4562 0
M  V30 12689 C 1205.88 -1.39299 1.53657 0
M  V30 12690 C 1206.3 -1.87315 0.171632 0
M  V30 12691 O 1205.66 -1.60423 -0.844639 0
M  V30 12692 C 1205.71 -2.57021 2.52928 0
M  V30 12693 O 1204.81 -3.57812 2.05047 0
M  V30 12694 H 1204.15 -0.41567 0.517798 0
M  V30 12695 H 1206.68 -0.73304 1.91018 0
M  V30 12696 H 1206.69 -3.04202 2.71892 0
M  V30 12697 H 1205.37 -2.21422 3.52058 0
M  V30 12698 H 1203.94 -3.17247 1.95981 0
M  V30 12699 N 1206.13 -1.32992 -0.845635 0
M  V30 12700 C 1207.41 -1.14671 -1.58461 0
M  V30 12701 C 1207.79 0.289498 -2.09106 0
M  V30 12702 O 1207.13 1.28751 -1.88773 0
M  V30 12703 C 1207.34 -2.18206 -2.72373 0
M  V30 12704 C 1208.69 -2.5201 -3.41726 0
M  V30 12705 O 1209.72 -2.16821 -2.82608 0
M  V30 12706 O 1208.58 -3.12368 -4.48429 0
M  V30 12707 H 1205.67 -0.443088 -0.698285 0
M  V30 12708 H 1208.22 -1.44552 -0.888978 0
M  V30 12709 H 1206.99 -3.14707 -2.32541 0
M  V30 12710 H 1206.61 -1.89372 -3.49605 0
M  V30 12711 N 1207.61 1.06304 -1.1635 0
M  V30 12712 C 1208.83 1.83338 -0.969639 0
M  V30 12713 C 1209.26 1.81945 0.477231 0
M  V30 12714 O 1208.62 1.22018 1.34094 0
M  V30 12715 C 1208.66 3.2785 -1.50155 0
M  V30 12716 O 1207.77 4.06281 -0.707805 0
M  V30 12717 H 1207.11 0.567293 -0.345072 0
M  V30 12718 H 1209.64 1.34033 -1.54584 0
M  V30 12719 H 1209.65 3.7867 -1.51898 0
M  V30 12720 H 1208.32 3.28179 -2.55483 0
M  V30 12721 H 1206.9 3.65055 -0.760872 0
M  V30 12722 N 1209.09 0.96196 1.24836 0
M  V30 12723 C 1210.03 0.48686 2.25607 0
M  V30 12724 C 1211 -0.464546 1.59472 0
M  V30 12725 O 1212.19 -0.376179 1.87055 0
M  V30 12726 C 1209.33 -0.222294 3.44383 0
M  V30 12727 C 1208.44 0.767206 4.25133 0
M  V30 12728 C 1207.58 0.0347458 5.31189 0
M  V30 12729 C 1206.61 1.01469 6.03631 0
M  V30 12730 N 1205.75 0.312619 7.01404 0
M  V30 12731 H 1210.59 1.35104 2.65614 0
M  V30 12732 H 1208.13 0.677373 1.30576 0
M  V30 12733 H 1210.09 -0.650087 4.12104 0
M  V30 12734 H 1208.72 -1.05047 3.0523 0
M  V30 12735 H 1207.77 1.31346 3.57005 0
M  V30 12736 H 1209.08 1.5147 4.75245 0
M  V30 12737 H 1208.23 -0.451325 6.05019 0
M  V30 12738 H 1206.97 -0.745485 4.81969 0
M  V30 12739 H 1205.98 1.51169 5.28609 0
M  V30 12740 H 1207.2 1.79527 6.5494 0
M  V30 12741 H 1205.15 -0.44874 6.54463 0
M  V30 12742 H 1205.07 0.999079 7.49369 0
M  V30 12743 H 1206.33 -0.151673 7.79352 0
M  V30 12744 N 1210.56 -1.39601 0.731392 0
M  V30 12745 C 1211.79 -2.04887 0.28789 0
M  V30 12746 C 1212.21 -1.55138 -1.076 0
M  V30 12747 O 1211.56 -0.71471 -1.67923 0
M  V30 12748 C 1211.61 -3.6044 0.276629 0
M  V30 12749 O 1211.34 -4.08358 1.58668 0
M  V30 12750 C 1212.84 -4.4292 -0.183485 0
M  V30 12751 H 1210.06 -0.658976 0.126459 0
M  V30 12752 H 1212.6 -1.78716 0.994031 0
M  V30 12753 H 1210.76 -3.85526 -0.380597 0
M  V30 12754 H 1211.17 -5.02659 1.4978 0
M  V30 12755 H 1212.64 -5.51822 -0.140207 0
M  V30 12756 H 1213.12 -4.2168 -1.22811 0
M  V30 12757 H 1213.73 -4.22976 0.444042 0
M  V30 12758 N 1212.04 -0.478751 -1.50152 0
M  V30 12759 C 1212.95 0.316554 -2.32455 0
M  V30 12760 C 1213.97 0.98871 -1.4318 0
M  V30 12761 O 1215.14 0.974998 -1.76226 0
M  V30 12762 C 1212.21 1.3799 -3.18056 0
M  V30 12763 C 1211.27 0.723534 -4.23159 0
M  V30 12764 C 1210.5 1.73621 -5.0467 0
M  V30 12765 O 1210.73 2.96362 -4.87366 0
M  V30 12766 O 1209.66 1.30381 -5.87609 0
M  V30 12767 H 1213.49 -0.356491 -3.016 0
M  V30 12768 H 1211.07 -0.24046 -1.47452 0
M  V30 12769 H 1212.95 1.99565 -3.71149 0
M  V30 12770 H 1211.63 2.03627 -2.5163 0
M  V30 12771 H 1210.54 0.0686296 -3.74037 0
M  V30 12772 H 1211.87 0.109979 -4.92077 0
M  V30 12773 N 1213.52 1.56172 -0.211661 0
M  V30 12774 C 1214.43 2.23468 0.714081 0
M  V30 12775 C 1215.45 1.23908 1.22159 0
M  V30 12776 O 1216.62 1.56693 1.26528 0
M  V30 12777 C 1213.69 2.89375 1.90953 0
M  V30 12778 C 1212.75 4.04251 1.44497 0
M  V30 12779 C 1211.98 4.67006 2.58343 0
M  V30 12780 O 1212.2 4.28721 3.76237 0
M  V30 12781 O 1211.14 5.56177 2.3011 0
M  V30 12782 H 1214.96 3.03219 0.170862 0
M  V30 12783 H 1212.55 1.49389 0.0183607 0
M  V30 12784 H 1214.43 3.3101 2.60787 0
M  V30 12785 H 1213.11 2.12591 2.44104 0
M  V30 12786 H 1212.01 3.67205 0.714932 0
M  V30 12787 H 1213.35 4.82748 0.959947 0
M  V30 12788 N 1215 -0.0618163 1.57479 0
M  V30 12789 C 1215.93 -1.07252 2.07411 0
M  V30 12790 C 1216.91 -1.39756 0.969649 0
M  V30 12791 O 1218.09 -1.4921 1.24298 0
M  V30 12792 C 1215.22 -2.38313 2.52635 0
M  V30 12793 C 1214.18 -2.20136 3.67048 0
M  V30 12794 C 1213.5 -3.56668 3.98361 0
M  V30 12795 C 1214.8 -1.61437 4.96725 0
M  V30 12796 H 1216.5 -0.656983 2.92103 0
M  V30 12797 H 1214.04 -0.314579 1.40522 0
M  V30 12798 H 1216 -3.09319 2.86181 0
M  V30 12799 H 1214.72 -2.81865 1.64984 0
M  V30 12800 H 1213.38 -1.51569 3.338 0
M  V30 12801 H 1213.03 -3.97809 3.07826 0
M  V30 12802 H 1212.73 -3.45342 4.75408 0
M  V30 12803 H 1214.25 -4.2909 4.34413 0
M  V30 12804 H 1215.67 -2.2232 5.28438 0
M  V30 12805 H 1214.06 -1.60779 5.78161 0
M  V30 12806 H 1215.13 -0.576795 4.81457 0
M  V30 12807 N 1216.48 -1.54033 -0.333429 0
M  V30 12808 C 1217.89 -1.44522 -0.677166 0
M  V30 12809 C 1218.09 -0.610122 -1.92041 0
M  V30 12810 O 1217.15 -0.105058 -2.52281 0
M  V30 12811 C 1218.46 -2.88129 -0.860369 0
M  V30 12812 C 1220.01 -2.97968 -0.958342 0
M  V30 12813 C 1220.48 -4.42703 -1.17379 0
M  V30 12814 N 1221.98 -4.46273 -1.24075 0
M  V30 12815 C 1222.71 -5.55407 -1.42515 0
M  V30 12816 N 1222.21 -6.74528 -1.58062 0
M  V30 12817 N 1224 -5.43037 -1.45144 0
M  V30 12818 H 1216.15 -2.06815 0.483858 0
M  V30 12819 H 1218.41 -0.935307 0.15461 0
M  V30 12820 H 1218.12 -3.51695 -0.0182085 0
M  V30 12821 H 1217.99 -3.33668 -1.75913 0
M  V30 12822 H 1220.38 -2.34535 -1.79102 0
M  V30 12823 H 1220.46 -2.55774 -0.0362643 0
M  V30 12824 H 1220.11 -5.0672 -0.346004 0
M  V30 12825 H 1220.04 -4.82498 -2.10959 0
M  V30 12826 H 1222.53 -3.60439 -1.13545 0
M  V30 12827 H 1222.84 -7.53462 -1.71797 0
M  V30 12828 H 1221.18 -6.77454 -1.55179 0
M  V30 12829 H 1224.38 -4.4893 -1.32588 0
M  V30 12830 H 1224.55 -6.28146 -1.59173 0
M  V30 12831 N 1217.95 0.594978 -1.45938 0
M  V30 12832 C 1219.2 1.35361 -1.50611 0
M  V30 12833 C 1219.53 1.93898 -0.152866 0
M  V30 12834 O 1218.78 1.76275 0.850037 0
M  V30 12835 C 1219.08 2.51129 -2.54301 0
M  V30 12836 C 1218.75 2.1066 -3.98664 0
M  V30 12837 C 1217.41 1.99338 -4.3797 0
M  V30 12838 C 1219.76 1.79267 -4.894 0
M  V30 12839 C 1217.09 1.54863 -5.65893 0
M  V30 12840 C 1219.44 1.36274 -6.17748 0
M  V30 12841 C 1218.11 1.2352 -6.55972 0
M  V30 12842 H 1217.38 0.49532 -0.551125 0
M  V30 12843 H 1220.02 0.671236 -1.79351 0
M  V30 12844 H 1218.33 3.24759 -2.19177 0
M  V30 12845 H 1220.03 3.09353 -2.55151 0
M  V30 12846 H 1216.62 2.20403 -3.67587 0
M  V30 12847 H 1220.8 1.86906 -4.59761 0
M  V30 12848 H 1216.06 1.43621 -5.94292 0
M  V30 12849 H 1220.23 1.11032 -6.87492 0
M  V30 12850 H 1217.86 0.88832 -7.54992 0
M  V30 12851 N 1219.43 1.33438 0.838571 0
M  V30 12852 C 1220.36 1.26344 1.96365 0
M  V30 12853 C 1221.34 0.143956 1.6949 0
M  V30 12854 O 1222.53 0.333779 1.9131 0
M  V30 12855 C 1219.66 1.0022 3.32526 0
M  V30 12856 C 1218.61 2.08466 3.73799 0
M  V30 12857 C 1217.94 1.67555 5.07769 0
M  V30 12858 C 1219.24 3.50144 3.87552 0
M  V30 12859 H 1220.93 2.20478 2.02558 0
M  V30 12860 H 1218.48 1.06139 0.973168 0
M  V30 12861 H 1220.43 0.939068 4.10803 0
M  V30 12862 H 1219.16 0.0252514 3.2659 0
M  V30 12863 H 1217.81 2.13822 2.97785 0
M  V30 12864 H 1217.46 0.685619 4.98305 0
M  V30 12865 H 1217.16 2.39993 5.36356 0
M  V30 12866 H 1218.69 1.62708 5.88522 0
M  V30 12867 H 1220.1 3.47287 4.56141 0
M  V30 12868 H 1218.5 4.21069 4.27575 0
M  V30 12869 H 1219.57 3.88628 2.89994 0
M  V30 12870 N 1220.91 -1.05686 1.16912 0
M  V30 12871 C 1222.33 -1.30744 0.915327 0
M  V30 12872 C 1222.53 -1.96895 -0.428344 0
M  V30 12873 O 1221.58 -2.23941 -1.16647 0
M  V30 12874 C 1222.9 -2.18209 2.06894 0
M  V30 12875 C 1224.44 -2.31607 2.1054 0
M  V30 12876 C 1224.92 -3.2243 3.25273 0
M  V30 12877 N 1226.41 -3.30015 3.2503 0
M  V30 12878 C 1227.14 -4.00401 4.10447 0
M  V30 12879 N 1226.64 -4.73256 5.05965 0
M  V30 12880 N 1228.43 -3.96514 3.98413 0
M  V30 12881 H 1220.58 -0.611449 2.03409 0
M  V30 12882 H 1222.85 -0.332188 0.887894 0
M  V30 12883 H 1222.55 -1.76887 3.0398 0
M  V30 12884 H 1222.43 -3.18823 2.01573 0
M  V30 12885 H 1224.81 -2.72173 1.14044 0
M  V30 12886 H 1224.9 -1.30639 2.19925 0
M  V30 12887 H 1224.54 -2.82579 4.22032 0
M  V30 12888 H 1224.47 -4.23392 3.13125 0
M  V30 12889 H 1226.96 -2.781 2.55869 0
M  V30 12890 H 1227.27 -5.24509 5.67547 0
M  V30 12891 H 1225.62 -4.72215 5.09939 0
M  V30 12892 H 1228.81 -3.38719 3.2309 0
M  V30 12893 H 1228.98 -4.511 4.65202 0
M  V30 12894 N 1222.39 -0.968567 -1.24324 0
M  V30 12895 C 1223.8 -0.675239 -1.44612 0
M  V30 12896 C 1224 0.762641 -1.8651 0
M  V30 12897 O 1223.06 1.53644 -2.00374 0
M  V30 12898 C 1224.37 -1.66007 -2.50723 0
M  V30 12899 C 1225.92 -1.6728 -2.6455 0
M  V30 12900 C 1226.4 -2.64563 -3.73859 0
M  V30 12901 N 1227.89 -2.6301 -3.81287 0
M  V30 12902 C 1228.62 -3.34957 -4.65394 0
M  V30 12903 N 1228.12 -4.16424 -5.53681 0
M  V30 12904 N 1229.91 -3.23778 -4.59483 0
M  V30 12905 H 1222.06 -1.89757 -0.954257 0
M  V30 12906 H 1224.33 -0.817004 -0.480841 0
M  V30 12907 H 1224.03 -2.68779 -2.26827 0
M  V30 12908 H 1223.91 -1.43353 -3.48898 0
M  V30 12909 H 1226.29 -0.652184 -2.87803 0
M  V30 12910 H 1226.37 -1.93997 -1.6673 0
M  V30 12911 H 1226.02 -3.66759 -3.51355 0
M  V30 12912 H 1225.95 -2.35124 -4.71194 0
M  V30 12913 H 1228.44 -2.03877 -3.18186 0
M  V30 12914 H 1228.75 -4.68207 -6.14818 0
M  V30 12915 H 1227.1 -4.20518 -5.53344 0
M  V30 12916 H 1230.29 -2.59594 -3.89524 0
M  V30 12917 H 1230.46 -3.80112 -5.24804 0
M  V30 12918 N 1223.87 1.39211 -0.738786 0
M  V30 12919 C 1224.8 2.29117 -0.0616489 0
M  V30 12920 C 1225.81 1.47008 0.699462 0
M  V30 12921 O 1227 1.70041 0.542998 0
M  V30 12922 C 1224.1 3.25692 0.936893 0
M  V30 12923 C 1223.27 4.3676 0.236515 0
M  V30 12924 C 1222.33 5.1362 1.1437 0
M  V30 12925 O 1221.36 5.65816 0.619762 0
M  V30 12926 N 1222.56 5.25184 2.4731 0
M  V30 12927 H 1225.33 2.8787 -0.833711 0
M  V30 12928 H 1222.89 1.50832 -0.588323 0
M  V30 12929 H 1224.88 3.73987 1.54648 0
M  V30 12930 H 1223.45 2.67943 1.61014 0
M  V30 12931 H 1222.67 3.90293 -0.553594 0
M  V30 12932 H 1223.96 5.08192 -0.248707 0
M  V30 12933 H 1223.35 4.84302 2.92349 0
M  V30 12934 H 1221.91 5.76905 3.03355 0
M  V30 12935 N 1225.34 0.486708 1.49896 0
M  V30 12936 C 1226.25 -0.304222 2.32619 0
M  V30 12937 C 1227.27 -0.981103 1.43702 0
M  V30 12938 O 1228.45 -0.965639 1.76741 0
M  V30 12939 C 1225.51 -1.36301 3.18783 0
M  V30 12940 C 1224.57 -0.701082 4.23537 0
M  V30 12941 C 1223.81 -1.70943 5.05583 0
M  V30 12942 O 1224.03 -2.93773 4.88931 0
M  V30 12943 O 1222.96 -1.27263 5.88292 0
M  V30 12944 H 1226.79 0.37248 3.01407 0
M  V30 12945 H 1224.37 0.248277 1.47323 0
M  V30 12946 H 1226.26 -1.97594 3.72202 0
M  V30 12947 H 1224.93 -2.0229 2.52706 0
M  V30 12948 H 1223.84 -0.0487926 3.74068 0
M  V30 12949 H 1225.17 -0.0838817 4.92129 0
M  V30 12950 N 1226.82 -1.56058 0.219941 0
M  V30 12951 C 1227.75 -2.2321 -0.685547 0
M  V30 12952 C 1228.73 -1.20328 -1.20229 0
M  V30 12953 O 1229.92 -1.48909 -1.24659 0
M  V30 12954 C 1227.05 -2.91076 -1.89452 0
M  V30 12955 C 1226 -4.00415 -1.51169 0
M  V30 12956 C 1225.33 -4.55569 -2.79931 0
M  V30 12957 C 1226.63 -5.17549 -0.702896 0
M  V30 12958 H 1228.32 -2.99136 -0.125671 0
M  V30 12959 H 1225.87 -1.43879 -0.0590043 0
M  V30 12960 H 1227.82 -3.36744 -2.53341 0
M  V30 12961 H 1226.55 -2.12594 -2.47934 0
M  V30 12962 H 1225.21 -3.55475 -0.896275 0
M  V30 12963 H 1224.85 -3.73819 -3.36553 0
M  V30 12964 H 1224.55 -5.29361 -2.55049 0
M  V30 12965 H 1226.08 -5.03955 -3.44764 0
M  V30 12966 H 1227.49 -5.59608 -1.24544 0
M  V30 12967 H 1225.89 -5.97563 -0.551234 0
M  V30 12968 H 1226.96 -4.84027 0.29083 0
M  V30 12969 N 1228.3 0.053464 -1.57509 0
M  V30 12970 C 1229.72 0.408651 -1.5428 0
M  V30 12971 C 1229.92 1.78086 -0.942735 0
M  V30 12972 O 1228.97 2.46366 -0.553163 0
M  V30 12973 C 1230.29 0.332884 -2.98852 0
M  V30 12974 C 1231.83 0.411745 -3.1028 0
M  V30 12975 C 1232.31 0.365691 -4.56538 0
M  V30 12976 N 1233.8 0.425222 -4.61244 0
M  V30 12977 C 1234.54 0.412093 -5.71917 0
M  V30 12978 N 1234.03 0.352693 -6.91902 0
M  V30 12979 N 1235.82 0.460016 -5.60214 0
M  V30 12980 H 1227.98 -0.844834 -1.94875 0
M  V30 12981 H 1230.24 -0.318888 -0.892757 0
M  V30 12982 H 1229.94 -0.609116 -3.46385 0
M  V30 12983 H 1229.82 1.13605 -3.59686 0
M  V30 12984 H 1232.21 1.34417 -2.62709 0
M  V30 12985 H 1232.29 -0.420333 -2.52323 0
M  V30 12986 H 1231.93 -0.562963 -5.0477 0
M  V30 12987 H 1231.86 1.21555 -5.12379 0
M  V30 12988 H 1234.35 0.474634 -3.74908 0
M  V30 12989 H 1234.66 0.347105 -7.7202 0
M  V30 12990 H 1233.01 0.319104 -6.94267 0
M  V30 12991 H 1236.2 0.504242 -4.65376 0
M  V30 12992 H 1236.37 0.446315 -6.46461 0
M  V30 12993 N 1229.78 1.54207 0.325255 0
M  V30 12994 C 1230.69 1.86495 1.42326 0
M  V30 12995 C 1231.71 0.756718 1.56684 0
M  V30 12996 O 1232.88 1.05084 1.71812 0
M  V30 12997 C 1229.95 2.08414 2.77064 0
M  V30 12998 C 1229.01 3.32221 2.71897 0
M  V30 12999 C 1228.24 3.53085 4.00209 0
M  V30 13000 O 1228.46 2.77421 4.98391 0
M  V30 13001 O 1227.4 4.46559 4.0357 0
M  V30 13002 H 1231.22 2.79859 1.17951 0
M  V30 13003 H 1228.81 1.40091 0.519124 0
M  V30 13004 H 1230.69 2.24171 3.56827 0
M  V30 13005 H 1229.37 1.18238 3.01333 0
M  V30 13006 H 1228.27 3.21851 1.90691 0
M  V30 13007 H 1229.61 4.22449 2.52582 0
M  V30 13008 N 1231.26 -0.58723 1.46251 0
M  V30 13009 C 1232.19 -1.70694 1.5933 0
M  V30 13010 C 1233.17 -1.64208 0.443831 0
M  V30 13011 O 1234.35 -1.82294 0.669516 0
M  V30 13012 C 1231.48 -3.0933 1.579 0
M  V30 13013 C 1230.44 -3.30643 2.7177 0
M  V30 13014 C 1229.76 -4.69761 2.554 0
M  V30 13015 C 1231.06 -3.18916 4.1363 0
M  V30 13016 H 1232.76 -1.60004 2.53059 0
M  V30 13017 H 1230.3 -0.768343 1.21789 0
M  V30 13018 H 1232.26 -3.87479 1.65644 0
M  V30 13019 H 1230.98 -3.20907 0.60712 0
M  V30 13020 H 1229.64 -2.54892 2.63488 0
M  V30 13021 H 1229.29 -4.78098 1.56306 0
M  V30 13022 H 1228.99 -4.84974 3.31774 0
M  V30 13023 H 1230.51 -5.50084 2.65028 0
M  V30 13024 H 1231.93 -3.86915 4.23048 0
M  V30 13025 H 1230.32 -3.45653 4.90555 0
M  V30 13026 H 1231.39 -2.1606 4.34104 0
M  V30 13027 N 1232.74 -1.33881 -0.831482 0
M  V30 13028 C 1234.15 -1.13376 -1.1233 0
M  V30 13029 C 1234.35 0.0704402 -2.01377 0
M  V30 13030 O 1233.41 0.748516 -2.4115 0
M  V30 13031 C 1234.72 -2.42484 -1.77826 0
M  V30 13032 C 1236.27 -2.4846 -1.90359 0
M  V30 13033 C 1236.74 -3.77548 -2.59272 0
M  V30 13034 N 1238.23 -3.7866 -2.66778 0
M  V30 13035 C 1238.97 -4.75258 -3.20807 0
M  V30 13036 N 1238.47 -5.82234 -3.75466 0
M  V30 13037 N 1240.26 -4.62724 -3.19128 0
M  V30 13038 H 1232.41 -2.11051 -0.238998 0
M  V30 13039 H 1234.67 -0.932893 -0.168565 0
M  V30 13040 H 1234.38 -3.30647 -1.19857 0
M  V30 13041 H 1234.25 -2.55186 -2.77777 0
M  V30 13042 H 1236.64 -1.60742 -2.47479 0
M  V30 13043 H 1236.72 -2.39693 -0.893359 0
M  V30 13044 H 1236.36 -4.65651 -2.02808 0
M  V30 13045 H 1236.29 -3.83594 -3.60781 0
M  V30 13046 H 1238.79 -3.01351 -2.28026 0
M  V30 13047 H 1239.1 -6.51968 -4.14918 0
M  V30 13048 H 1237.44 -5.85959 -3.73733 0
M  V30 13049 H 1240.63 -3.78303 -2.75688 0
M  V30 13050 H 1240.81 -5.38175 -3.60932 0
M  V30 13051 N 1234.21 1.05064 -1.1747 0
M  V30 13052 C 1235.46 1.78089 -0.963883 0
M  V30 13053 C 1235.79 1.87766 0.507365 0
M  V30 13054 O 1235.04 1.37477 1.39279 0
M  V30 13055 C 1235.34 3.21961 -1.55164 0
M  V30 13056 C 1235.01 3.32339 -3.04732 0
M  V30 13057 C 1233.67 3.34878 -3.45557 0
M  V30 13058 C 1236.02 3.3325 -4.00741 0
M  V30 13059 C 1233.35 3.35959 -4.80987 0
M  V30 13060 C 1235.7 3.3587 -5.36073 0
M  V30 13061 C 1234.37 3.36697 -5.7636 0
M  V30 13062 H 1233.64 0.651672 -0.35271 0
M  V30 13063 H 1236.28 1.23471 -1.4638 0
M  V30 13064 H 1234.59 3.79514 -0.973471 0
M  V30 13065 H 1236.29 3.77087 -1.36406 0
M  V30 13066 H 1232.88 3.31076 -2.72188 0
M  V30 13067 H 1237.06 3.30488 -3.70258 0
M  V30 13068 H 1232.32 3.34911 -5.11512 0
M  V30 13069 H 1236.49 3.35524 -6.10243 0
M  V30 13070 H 1234.12 3.37288 -6.81279 0
M  V30 13071 N 1235.69 0.975146 1.23809 0
M  V30 13072 C 1236.62 0.530389 2.27396 0
M  V30 13073 C 1237.6 -0.433763 1.64476 0
M  V30 13074 O 1238.79 -0.32827 1.91405 0
M  V30 13075 C 1235.92 -0.173066 3.46869 0
M  V30 13076 C 1234.87 0.707844 4.22106 0
M  V30 13077 C 1234.2 -0.127527 5.34548 0
M  V30 13078 C 1235.5 1.99609 4.82652 0
M  V30 13079 H 1237.19 1.39622 2.64851 0
M  V30 13080 H 1234.74 0.672802 1.27316 0
M  V30 13081 H 1236.69 -0.495481 4.18477 0
M  V30 13082 H 1235.41 -1.0733 3.0846 0
M  V30 13083 H 1234.07 1.01364 3.52308 0
M  V30 13084 H 1233.72 -1.02814 4.9238 0
M  V30 13085 H 1233.42 0.458728 5.85807 0
M  V30 13086 H 1234.95 -0.444443 6.0898 0
M  V30 13087 H 1236.36 1.73878 5.46296 0
M  V30 13088 H 1234.76 2.52969 5.44175 0
M  V30 13089 H 1235.83 2.68629 4.03691 0
M  V30 13090 N 1237.17 -1.38817 0.746158 0
M  V30 13091 C 1238.1 -2.29081 0.0737986 0
M  V30 13092 C 1239.11 -1.47377 -0.691656 0
M  V30 13093 O 1240.3 -1.70326 -0.533973 0
M  V30 13094 C 1237.4 -3.26185 -0.919607 0
M  V30 13095 C 1236.58 -4.36879 -0.213349 0
M  V30 13096 C 1235.64 -5.1422 -1.11644 0
M  V30 13097 O 1234.66 -5.66137 -0.589747 0
M  V30 13098 N 1235.86 -5.26488 -2.44521 0
M  V30 13099 H 1238.63 -2.87424 0.848966 0
M  V30 13100 H 1236.19 -1.50518 0.596314 0
M  V30 13101 H 1238.18 -3.74802 -1.52662 0
M  V30 13102 H 1236.75 -2.68793 -1.5959 0
M  V30 13103 H 1235.97 -3.89994 0.574285 0
M  V30 13104 H 1237.26 -5.08053 0.275655 0
M  V30 13105 H 1236.66 -4.85846 -2.89777 0
M  V30 13106 H 1235.21 -5.78505 -3.00291 0
M  V30 13107 N 1238.65 -0.49465 -1.49636 0
M  V30 13108 C 1239.59 0.287153 -2.29007 0
M  V30 13109 C 1240.56 0.966099 -1.35114 0
M  V30 13110 O 1241.75 0.973991 -1.64067 0
M  V30 13111 C 1238.89 1.34941 -3.17624 0
M  V30 13112 C 1238 0.682879 -4.26569 0
M  V30 13113 C 1237.14 1.72503 -5.0241 0
M  V30 13114 C 1236.18 1.04003 -6.032 0
M  V30 13115 N 1235.31 2.0261 -6.7223 0
M  V30 13116 H 1240.15 -0.395941 -2.95358 0
M  V30 13117 H 1237.69 -0.207103 -1.45635 0
M  V30 13118 H 1239.65 1.9772 -3.67372 0
M  V30 13119 H 1238.28 2.00135 -2.5327 0
M  V30 13120 H 1237.33 -0.0580477 -3.80356 0
M  V30 13121 H 1238.64 0.143334 -4.98594 0
M  V30 13122 H 1237.8 2.42804 -5.55996 0
M  V30 13123 H 1236.54 2.29843 -4.30144 0
M  V30 13124 H 1235.54 0.322765 -5.48852 0
M  V30 13125 H 1236.77 0.473219 -6.77449 0
M  V30 13126 H 1234.71 2.58922 -6.0274 0
M  V30 13127 H 1234.63 1.53704 -7.4021 0
M  V30 13128 H 1235.9 2.72218 -7.30423 0
M  V30 13129 N 1240.13 1.55939 -0.228214 0
M  V30 13130 C 1241.04 2.24213 0.690339 0
M  V30 13131 C 1242.05 1.25197 1.20838 0
M  V30 13132 O 1243.23 1.58026 1.24859 0
M  V30 13133 C 1240.29 2.91384 1.87873 0
M  V30 13134 C 1239.35 4.05761 1.40201 0
M  V30 13135 C 1238.59 4.6972 2.53376 0
M  V30 13136 O 1238.81 4.32687 3.71669 0
M  V30 13137 O 1237.74 5.58587 2.24198 0
M  V30 13138 H 1241.57 3.03383 0.138692 0
M  V30 13139 H 1239.15 1.494 0.00251504 0
M  V30 13140 H 1241.04 3.33758 2.57262 0
M  V30 13141 H 1239.71 2.15168 2.41835 0
M  V30 13142 H 1238.62 3.67943 0.675945 0
M  V30 13143 H 1239.95 4.83739 0.908691 0
M  V30 13144 N 1241.6 -0.0451101 1.57535 0
M  V30 13145 C 1242.51 -1.06796 2.08882 0
M  V30 13146 C 1243.53 -1.40682 1.02394 0
M  V30 13147 O 1244.71 -1.50324 1.34033 0
M  V30 13148 C 1241.77 -2.35467 2.54472 0
M  V30 13149 C 1240.83 -2.0831 3.75374 0
M  V30 13150 C 1240.07 -3.30846 4.1878 0
M  V30 13151 O 1240.29 -4.40945 3.61834 0
M  V30 13152 O 1239.22 -3.17488 5.11356 0
M  V30 13153 H 1243.05 -0.661658 2.96405 0
M  V30 13154 H 1240.63 -0.26104 1.47102 0
M  V30 13155 H 1242.52 -3.11143 2.84198 0
M  V30 13156 H 1241.19 -2.75425 1.70068 0
M  V30 13157 H 1240.1 -1.30254 3.50692 0
M  V30 13158 H 1241.43 -1.73218 4.60713 0
M  V30 13159 N 1243.08 -1.54377 -0.317073 0
M  V30 13160 C 1244.01 -1.80563 -1.41172 0
M  V30 13161 C 1245.03 -0.687865 -1.47554 0
M  V30 13162 O 1246.22 -0.965084 -1.50161 0
M  V30 13163 C 1243.32 -1.9142 -2.79663 0
M  V30 13164 C 1242.49 -3.21655 -2.96407 0
M  V30 13165 C 1241.55 -3.23131 -4.15298 0
M  V30 13166 O 1240.57 -3.96741 -4.08149 0
M  V30 13167 N 1241.78 -2.47376 -5.25153 0
M  V30 13168 H 1244.54 -2.75032 -1.1907 0
M  V30 13169 H 1242.1 -1.53754 -0.507086 0
M  V30 13170 H 1244.09 -1.89828 -3.57418 0
M  V30 13171 H 1242.66 -1.0402 -2.94786 0
M  V30 13172 H 1241.88 -3.36154 -2.05899 0
M  V30 13173 H 1243.17 -4.07629 -3.04494 0
M  V30 13174 H 1242.57 -1.87173 -5.33838 0
M  V30 13175 H 1241.13 -2.51555 -6.01301 0
M  V30 13176 N 1244.56 0.579466 -1.4656 0
M  V30 13177 C 1245.98 0.903163 -1.31587 0
M  V30 13178 C 1246.18 1.99406 -0.28972 0
M  V30 13179 O 1245.23 2.50632 0.30658 0
M  V30 13180 C 1246.55 1.31745 -2.70303 0
M  V30 13181 C 1248.09 1.43012 -2.78418 0
M  V30 13182 C 1248.57 1.87805 -4.17724 0
M  V30 13183 N 1250.06 1.94993 -4.20157 0
M  V30 13184 C 1250.79 2.30934 -5.2484 0
M  V30 13185 N 1250.29 2.65645 -6.39847 0
M  V30 13186 N 1252.08 2.31517 -5.12207 0
M  V30 13187 H 1244.23 -0.141111 -2.11931 0
M  V30 13188 H 1246.5 -0.000460304 -0.948 0
M  V30 13189 H 1246.2 0.589864 -3.46718 0
M  V30 13190 H 1246.08 2.2783 -3.00622 0
M  V30 13191 H 1248.46 2.14856 -2.02289 0
M  V30 13192 H 1248.55 0.451701 -2.5178 0
M  V30 13193 H 1248.19 1.16539 -4.94349 0
M  V30 13194 H 1248.12 2.86611 -4.41771 0
M  V30 13195 H 1250.61 1.70645 -3.37178 0
M  V30 13196 H 1250.92 2.92032 -7.15498 0
M  V30 13197 H 1249.27 2.63276 -6.43204 0
M  V30 13198 H 1252.46 2.03824 -4.21394 0
M  V30 13199 H 1252.63 2.59199 -5.93902 0
M  V30 13200 N 1246.04 1.3432 0.824371 0
M  V30 13201 C 1247 1.25672 1.91675 0
M  V30 13202 C 1248 0.172269 1.59875 0
M  V30 13203 O 1249.19 0.424794 1.68941 0
M  V30 13204 C 1246.32 0.939928 3.27686 0
M  V30 13205 H 1247.52 2.22785 2.00766 0
M  V30 13206 H 1245.07 1.18587 1.01817 0
M  V30 13207 H 1245.8 -0.0280898 3.24288 0
M  V30 13208 H 1245.59 1.72432 3.5215 0
M  V30 13209 H 1247.08 0.904553 4.07686 0
M  V30 13210 N 1247.52 -1.0444 1.18026 0
M  V30 13211 C 1248.45 -2.12388 0.86162 0
M  V30 13212 C 1249.46 -1.62204 -0.139196 0
M  V30 13213 O 1250.65 -1.78282 0.0881334 0
M  V30 13214 C 1247.75 -3.37859 0.265407 0
M  V30 13215 C 1246.92 -4.17292 1.31096 0
M  V30 13216 C 1245.98 -5.21096 0.731121 0
M  V30 13217 O 1245.01 -5.5159 1.40488 0
M  V30 13218 N 1246.21 -5.78568 -0.473194 0
M  V30 13219 H 1248.98 -2.40317 1.79074 0
M  V30 13220 H 1246.54 -1.20601 1.08014 0
M  V30 13221 H 1248.53 -4.04472 -0.135976 0
M  V30 13222 H 1247.1 -3.07403 -0.567658 0
M  V30 13223 H 1246.32 -3.46057 1.8878 0
M  V30 13224 H 1247.61 -4.67158 2.01596 0
M  V30 13225 H 1247 -5.56088 -1.03839 0
M  V30 13226 H 1245.56 -6.46665 -0.816545 0
M  V30 13227 N 1248.99 -0.981699 -1.2329 0
M  V30 13228 C 1249.93 -0.481042 -2.24095 0
M  V30 13229 C 1250.94 0.417818 -1.57347 0
M  V30 13230 O 1252.13 0.221746 -1.77117 0
M  V30 13231 C 1249.23 0.323324 -3.37354 0
M  V30 13232 C 1248.4 -0.568975 -4.33684 0
M  V30 13233 C 1247.46 0.181761 -5.25886 0
M  V30 13234 O 1246.49 -0.429059 -5.67581 0
M  V30 13235 N 1247.69 1.46737 -5.61648 0
M  V30 13236 H 1250.45 -1.34781 -2.67683 0
M  V30 13237 H 1248.01 -0.855117 -1.37475 0
M  V30 13238 H 1250.01 0.833934 -3.96015 0
M  V30 13239 H 1248.58 1.09111 -2.9294 0
M  V30 13240 H 1247.8 -1.2604 -3.73507 0
M  V30 13241 H 1249.08 -1.17704 -4.94998 0
M  V30 13242 H 1248.48 1.98513 -5.29725 0
M  V30 13243 H 1247.04 1.92339 -6.22775 0
M  V30 13244 N 1250.47 1.3842 -0.753509 0
M  V30 13245 C 1251.4 2.29039 -0.0859463 0
M  V30 13246 C 1252.42 1.47742 0.68383 0
M  V30 13247 O 1253.61 1.70607 0.524933 0
M  V30 13248 C 1250.71 3.26668 0.902296 0
M  V30 13249 C 1249.88 4.36986 0.190178 0
M  V30 13250 C 1248.94 5.14805 1.08916 0
M  V30 13251 O 1247.96 5.66441 0.559715 0
M  V30 13252 N 1249.17 5.27777 2.41726 0
M  V30 13253 H 1251.93 2.8697 -0.864196 0
M  V30 13254 H 1249.49 1.502 -0.604288 0
M  V30 13255 H 1251.48 3.75606 1.50672 0
M  V30 13256 H 1250.05 2.69636 1.58163 0
M  V30 13257 H 1249.27 3.89684 -0.594959 0
M  V30 13258 H 1250.56 5.07899 -0.302594 0
M  V30 13259 H 1249.96 4.87376 2.87196 0
M  V30 13260 H 1248.52 5.8009 2.97219 0
M  V30 13261 N 1251.95 0.502579 1.49372 0
M  V30 13262 C 1252.88 -0.264307 2.31999 0
M  V30 13263 C 1253.86 -0.96107 1.40348 0
M  V30 13264 O 1255.05 -0.952167 1.69255 0
M  V30 13265 C 1252.18 -1.32822 3.20898 0
M  V30 13266 C 1251.13 -0.751236 4.21355 0
M  V30 13267 C 1250.46 -1.91578 4.99201 0
M  V30 13268 C 1251.76 0.258764 5.21659 0
M  V30 13269 H 1253.45 0.425391 2.96363 0
M  V30 13270 H 1251 0.206022 1.42519 0
M  V30 13271 H 1252.95 -1.87245 3.77515 0
M  V30 13272 H 1251.67 -2.04712 2.54481 0
M  V30 13273 H 1250.33 -0.228743 3.65886 0
M  V30 13274 H 1249.98 -2.62241 4.2923 0
M  V30 13275 H 1249.68 -1.53578 5.67175 0
M  V30 13276 H 1251.2 -2.46432 5.58663 0
M  V30 13277 H 1252.62 -0.197385 5.7296 0
M  V30 13278 H 1251.02 0.554681 5.97531 0
M  V30 13279 H 1252.09 1.1741 4.70471 0
M  V30 13280 N 1253.43 -1.55816 0.23648 0
M  V30 13281 C 1254.38 -2.22322 -0.68378 0
M  V30 13282 C 1255.37 -1.2074 -1.1882 0
M  V30 13283 O 1256.58 -1.38781 -1.14629 0
M  V30 13284 H 1252.95 -0.713021 -0.238966 0
M  V30 13285 H 1254.92 -2.98234 -0.0995879 0
M  V30 13286 C 1253.67 -2.92845 -1.87449 0
M  V30 13287 H 1252.99 -3.70777 -1.49548 0
M  V30 13288 H 1254.43 -3.42758 -2.49585 0
M  V30 13289 C 1252.89 -1.96139 -2.73918 0
M  V30 13290 O 1253.42 -1.48781 -3.73132 0
M  V30 13291 N 1251.63 -1.63465 -2.40266 0
M  V30 13292 H 1251.18 -2.02171 -1.59639 0
M  V30 13293 H 1251.13 -0.990239 -2.98398 0
M  V30 13294 N 1254.91 0.036755 -1.57557 0
M  V30 13295 C 1256.13 0.744813 -1.93565 0
M  V30 13296 C 1256.56 1.68508 -0.835863 0
M  V30 13297 O 1255.91 1.80091 0.208986 0
M  V30 13298 C 1255.96 1.48461 -3.28621 0
M  V30 13299 O 1255.07 2.59739 -3.20327 0
M  V30 13300 H 1254.41 0.200866 -0.632889 0
M  V30 13301 H 1256.94 -0.00547543 -2.04599 0
M  V30 13302 H 1256.95 1.85622 -3.63329 0
M  V30 13303 H 1255.62 0.794953 -4.08232 0
M  V30 13304 H 1254.2 2.25176 -2.97237 0
M  V30 13305 N 1256.39 1.54543 0.308881 0
M  V30 13306 C 1257.33 1.84949 1.38067 0
M  V30 13307 C 1258.3 0.697746 1.50734 0
M  V30 13308 O 1259.49 0.94561 1.65719 0
M  V30 13309 C 1256.63 2.09544 2.74199 0
M  V30 13310 C 1255.74 3.37193 2.70046 0
M  V30 13311 C 1254.88 3.51672 3.98121 0
M  V30 13312 C 1253.91 4.73143 3.88333 0
M  V30 13313 N 1253.05 4.84469 5.08167 0
M  V30 13314 H 1257.89 2.76379 1.11438 0
M  V30 13315 H 1255.43 1.36863 0.539153 0
M  V30 13316 H 1257.39 2.21798 3.53358 0
M  V30 13317 H 1256.02 1.21389 2.99106 0
M  V30 13318 H 1255.07 3.33601 1.82796 0
M  V30 13319 H 1256.38 4.26468 2.58701 0
M  V30 13320 H 1255.53 3.63548 4.85714 0
M  V30 13321 H 1254.27 2.60516 4.1229 0
M  V30 13322 H 1253.28 4.61308 2.99124 0
M  V30 13323 H 1254.5 5.65698 3.75716 0
M  V30 13324 H 1252.45 3.96234 5.22814 0
M  V30 13325 H 1252.37 5.67733 4.99215 0
M  V30 13326 H 1253.63 5.00693 5.97434 0
M  V30 13327 N 1257.86 -0.571685 1.46866 0
M  V30 13328 C 1258.79 -1.68994 1.61131 0
M  V30 13329 C 1259.77 -1.63728 0.461222 0
M  V30 13330 O 1260.96 -1.81574 0.688813 0
M  V30 13331 C 1258.09 -3.07638 1.61172 0
M  V30 13332 C 1257.04 -3.27742 2.75262 0
M  V30 13333 C 1256.37 -4.67025 2.60368 0
M  V30 13334 C 1257.67 -3.14511 4.16989 0
M  V30 13335 H 1259.36 -1.57311 2.54742 0
M  V30 13336 H 1256.91 -0.755382 1.22597 0
M  V30 13337 H 1258.86 -3.857 1.69744 0
M  V30 13338 H 1257.59 -3.20245 0.641122 0
M  V30 13339 H 1256.25 -2.52083 2.66176 0
M  V30 13340 H 1255.89 -4.76413 1.61368 0
M  V30 13341 H 1255.59 -4.81428 3.36899 0
M  V30 13342 H 1257.12 -5.47242 2.70848 0
M  V30 13343 H 1258.53 -3.82407 4.27128 0
M  V30 13344 H 1256.93 -3.40431 4.94193 0
M  V30 13345 H 1258 -2.11443 4.36371 0
M  V30 13346 N 1259.34 -1.34755 -0.817236 0
M  V30 13347 C 1260.27 -1.22648 -1.93624 0
M  V30 13348 C 1261.29 -0.152226 -1.62087 0
M  V30 13349 O 1262.48 -0.404578 -1.73855 0
M  V30 13350 C 1259.58 -0.863519 -3.27714 0
M  V30 13351 C 1258.75 -2.03394 -3.87233 0
M  V30 13352 C 1257.81 -1.64846 -4.99712 0
M  V30 13353 O 1256.83 -2.3658 -5.17705 0
M  V30 13354 N 1258.04 -0.565909 -5.77735 0
M  V30 13355 H 1260.8 -2.19051 -2.0454 0
M  V30 13356 H 1258.36 -1.27785 -0.994113 0
M  V30 13357 H 1260.35 -0.58733 -4.00415 0
M  V30 13358 H 1258.92 0.0104987 -3.12598 0
M  V30 13359 H 1258.14 -2.47454 -3.06856 0
M  V30 13360 H 1259.43 -2.81655 -4.23731 0
M  V30 13361 H 1258.83 0.030313 -5.65692 0
M  V30 13362 H 1257.39 -0.349467 -6.50862 0
M  V30 13363 N 1260.82 1.03812 -1.18578 0
M  V30 13364 C 1261.75 2.11928 -0.872871 0
M  V30 13365 C 1262.76 1.62275 0.130592 0
M  V30 13366 O 1263.95 1.78233 -0.0975869 0
M  V30 13367 C 1261.05 3.37714 -0.283321 0
M  V30 13368 C 1260.23 4.16591 -1.33307 0
M  V30 13369 C 1259.29 5.20701 -0.758746 0
M  V30 13370 O 1258.31 5.50837 -1.43412 0
M  V30 13371 N 1259.51 5.78811 0.442505 0
M  V30 13372 H 1262.28 2.39364 -1.80346 0
M  V30 13373 H 1259.84 1.20027 -1.08652 0
M  V30 13374 H 1261.83 4.04538 0.114524 0
M  V30 13375 H 1260.4 3.07699 0.551347 0
M  V30 13376 H 1259.62 3.45051 -1.90613 0
M  V30 13377 H 1260.91 4.66082 -2.04071 0
M  V30 13378 H 1260.31 5.56631 1.00889 0
M  V30 13379 H 1258.86 6.47089 0.78224 0
M  V30 13380 N 1262.3 0.988223 1.22768 0
M  V30 13381 C 1263.23 0.492919 2.23837 0
M  V30 13382 C 1264.24 -0.409467 1.57567 0
M  V30 13383 O 1265.43 -0.21235 1.77232 0
M  V30 13384 C 1262.53 -0.305428 3.37521 0
M  V30 13385 C 1261.7 0.591966 4.33376 0
M  V30 13386 C 1260.76 -0.15387 5.25975 0
M  V30 13387 O 1259.79 0.459153 5.67345 0
M  V30 13388 N 1260.99 -1.43756 5.62418 0
M  V30 13389 H 1263.76 1.36199 2.66965 0
M  V30 13390 H 1261.32 0.862395 1.3702 0
M  V30 13391 H 1263.31 -0.812921 3.96451 0
M  V30 13392 H 1261.88 -1.07556 2.93514 0
M  V30 13393 H 1261.1 1.28019 3.72833 0
M  V30 13394 H 1262.39 1.20327 4.94367 0
M  V30 13395 H 1261.79 -1.95701 5.30771 0
M  V30 13396 H 1260.34 -1.89034 6.23786 0
M  V30 13397 N 1263.78 -1.38018 0.760839 0
M  V30 13398 C 1265.19 -1.53437 0.439239 0
M  V30 13399 C 1265.39 -1.72184 -1.04666 0
M  V30 13400 O 1264.45 -1.73698 -1.83263 0
M  V30 13401 C 1265.76 -2.73724 1.24481 0
M  V30 13402 C 1267.31 -2.87579 1.23561 0
M  V30 13403 C 1267.78 -4.10836 2.02429 0
M  V30 13404 N 1269.27 -4.17928 1.99727 0
M  V30 13405 C 1270.01 -5.12309 2.57541 0
M  V30 13406 N 1269.51 -6.12317 3.24098 0
M  V30 13407 N 1271.3 -5.04712 2.47431 0
M  V30 13408 H 1263.45 -1.241 1.72375 0
M  V30 13409 H 1265.71 -0.603427 0.73115 0
M  V30 13410 H 1265.42 -2.663 2.29732 0
M  V30 13411 H 1265.29 -3.67111 0.866579 0
M  V30 13412 H 1267.68 -2.9448 0.191122 0
M  V30 13413 H 1267.76 -1.95183 1.6534 0
M  V30 13414 H 1267.4 -4.04696 3.06893 0
M  V30 13415 H 1267.33 -5.02326 1.58039 0
M  V30 13416 H 1269.83 -3.46307 1.51262 0
M  V30 13417 H 1270.14 -6.80842 3.65615 0
M  V30 13418 H 1268.48 -6.12628 3.28195 0
M  V30 13419 H 1271.67 -4.25524 1.95057 0
M  V30 13420 H 1271.85 -5.78085 2.92783 0
M  V30 13421 N 1265.25 -0.510493 -1.49103 0
M  V30 13422 C 1266.16 0.267176 -2.33074 0
M  V30 13423 C 1267.18 0.958117 -1.45245 0
M  V30 13424 O 1268.36 0.937399 -1.78255 0
M  V30 13425 C 1265.42 1.31212 -3.20911 0
M  V30 13426 C 1264.48 0.633613 -4.24598 0
M  V30 13427 C 1263.71 1.62878 -5.08239 0
M  V30 13428 O 1263.94 2.85958 -4.93543 0
M  V30 13429 O 1262.87 1.17887 -5.90242 0
M  V30 13430 H 1266.7 -0.420384 -3.00776 0
M  V30 13431 H 1264.28 -0.271683 -1.46909 0
M  V30 13432 H 1266.16 1.91647 -3.75299 0
M  V30 13433 H 1264.84 1.98244 -2.55892 0
M  V30 13434 H 1263.75 -0.0107246 -3.74098 0
M  V30 13435 H 1265.08 0.0055777 -4.922 0
M  V30 13436 N 1266.73 1.55688 -0.24474 0
M  V30 13437 C 1267.66 2.18616 0.68844 0
M  V30 13438 C 1268.68 1.16185 1.14039 0
M  V30 13439 O 1269.87 1.43059 1.06754 0
M  V30 13440 C 1266.97 2.77375 1.94721 0
M  V30 13441 C 1266.14 4.05204 1.64706 0
M  V30 13442 C 1265.2 4.48302 2.75521 0
M  V30 13443 O 1264.22 5.14723 2.42999 0
M  V30 13444 N 1265.43 4.15907 4.04971 0
M  V30 13445 H 1268.19 2.99324 0.150018 0
M  V30 13446 H 1265.75 1.61771 -0.0646183 0
M  V30 13447 H 1267.74 3.03165 2.68091 0
M  V30 13448 H 1266.31 2.00837 2.39548 0
M  V30 13449 H 1265.53 3.87026 0.74865 0
M  V30 13450 H 1266.82 4.8855 1.42114 0
M  V30 13451 H 1266.22 3.62579 4.34227 0
M  V30 13452 H 1264.78 4.46538 4.74813 0
M  V30 13453 N 1268.21 -0.0283989 1.57574 0
M  V30 13454 C 1269.46 -0.718121 1.88483 0
M  V30 13455 C 1269.77 -1.76485 0.843345 0
M  V30 13456 O 1270.98 -2.50721 1.04169 0
M  V30 13457 C 1269.43 -1.32832 3.3449 0
M  V30 13458 C 1269.04 -0.317905 4.46871 0
M  V30 13459 C 1270.79 -1.99788 3.74546 0
M  V30 13460 C 1268.69 -0.936489 5.83938 0
M  V30 13461 H 1267.62 -0.271969 0.703242 0
M  V30 13462 H 1270.27 0.0274862 1.83479 0
M  V30 13463 H 1268.66 -2.12366 3.34241 0
M  V30 13464 H 1269.83 0.450767 4.5859 0
M  V30 13465 H 1268.14 0.249605 4.15651 0
M  V30 13466 H 1270.74 -2.46923 4.74271 0
M  V30 13467 H 1271.08 -2.81633 3.06575 0
M  V30 13468 H 1271.62 -1.27029 3.76973 0
M  V30 13469 H 1268.36 -0.15744 6.55311 0
M  V30 13470 H 1267.88 -1.67499 5.75938 0
M  V30 13471 H 1269.56 -1.44363 6.30689 0
M  V30 13472 N 1269.69 -1.54705 -0.300681 0
M  V30 13473 C 1270.93 -1.74001 -1.03585 0
M  V30 13474 C 1271.26 -0.525972 -1.87253 0
M  V30 13475 O 1270.52 0.492068 -1.89413 0
M  V30 13476 C 1270.82 -2.98173 -1.97047 0
M  V30 13477 C 1270.48 -4.31948 -1.29352 0
M  V30 13478 C 1269.14 -4.68312 -1.10623 0
M  V30 13479 C 1271.5 -5.14874 -0.809594 0
M  V30 13480 C 1268.82 -5.85181 -0.42185 0
M  V30 13481 C 1271.18 -6.32447 -0.138935 0
M  V30 13482 C 1269.84 -6.67473 0.0603129 0
M  V30 13483 H 1269.11 -0.636716 -0.379044 0
M  V30 13484 H 1271.76 -1.88963 -0.310697 0
M  V30 13485 H 1270.06 -2.77994 -2.76091 0
M  V30 13486 H 1271.76 -3.10297 -2.54001 0
M  V30 13487 H 1268.35 -4.0335 -1.44937 0
M  V30 13488 H 1272.53 -4.87278 -0.942006 0
M  V30 13489 H 1267.79 -6.10862 -0.256494 0
M  V30 13490 H 1271.96 -6.95973 0.243939 0
M  V30 13491 H 1269.59 -7.57887 0.592626 0
M  V30 13492 N 1271.17 0.563888 -1.47167 0
M  V30 13493 C 1272.58 0.889156 -1.32537 0
M  V30 13494 C 1272.78 1.99088 -0.310854 0
M  V30 13495 O 1271.84 2.50943 0.27998 0
M  V30 13496 C 1273.15 1.28871 -2.71685 0
M  V30 13497 C 1274.7 1.40051 -2.79919 0
M  V30 13498 C 1275.17 1.83364 -4.19692 0
M  V30 13499 N 1276.67 1.90526 -4.22201 0
M  V30 13500 C 1277.4 2.25355 -5.2726 0
M  V30 13501 N 1276.9 2.58844 -6.42629 0
M  V30 13502 N 1278.69 2.26071 -5.14634 0
M  V30 13503 H 1270.84 -0.163581 -2.11769 0
M  V30 13504 H 1273.1 -0.0105151 -0.947942 0
M  V30 13505 H 1272.81 0.553057 -3.47324 0
M  V30 13506 H 1272.68 2.24629 -3.03021 0
M  V30 13507 H 1275.07 2.12698 -2.04557 0
M  V30 13508 H 1275.15 0.424971 -2.52245 0
M  V30 13509 H 1274.8 1.11289 -4.95557 0
M  V30 13510 H 1274.73 2.81909 -4.44786 0
M  V30 13511 H 1277.22 1.67059 -3.38968 0
M  V30 13512 H 1277.53 2.84427 -7.18555 0
M  V30 13513 H 1275.87 2.56439 -6.4596 0
M  V30 13514 H 1279.07 1.99343 -4.23533 0
M  V30 13515 H 1279.24 2.52885 -5.96618 0
M  V30 13516 N 1272.64 1.35187 0.810078 0
M  V30 13517 C 1274.06 1.15149 1.10512 0
M  V30 13518 C 1274.26 -0.038394 2.01463 0
M  V30 13519 O 1273.32 -0.710056 2.42311 0
M  V30 13520 C 1274.63 2.45282 1.73946 0
M  V30 13521 C 1276.18 2.51457 1.86382 0
M  V30 13522 C 1276.65 3.81625 2.53232 0
M  V30 13523 N 1278.14 3.82856 2.6072 0
M  V30 13524 C 1278.88 4.80302 3.13206 0
M  V30 13525 N 1278.37 5.88134 3.66156 0
M  V30 13526 N 1280.17 4.67743 3.11726 0
M  V30 13527 H 1272.32 2.11405 0.205391 0
M  V30 13528 H 1274.58 0.935457 0.153702 0
M  V30 13529 H 1274.29 3.32512 1.14582 0
M  V30 13530 H 1274.16 2.59573 2.73682 0
M  V30 13531 H 1276.55 1.64659 2.44891 0
M  V30 13532 H 1276.63 2.41084 0.855113 0
M  V30 13533 H 1276.27 4.68819 1.95375 0
M  V30 13534 H 1276.2 3.89285 3.54633 0
M  V30 13535 H 1278.69 3.04941 2.23203 0
M  V30 13536 H 1279.01 6.58487 4.04494 0
M  V30 13537 H 1277.35 5.91831 3.64364 0
M  V30 13538 H 1280.54 3.82642 2.69635 0
M  V30 13539 H 1280.72 5.43849 3.52324 0
M  V30 13540 N 1274.12 -1.03182 1.19127 0
M  V30 13541 C 1275.37 -1.76533 0.992093 0
M  V30 13542 C 1275.7 -1.88549 -0.477429 0
M  V30 13543 O 1274.95 -1.39675 -1.37074 0
M  V30 13544 C 1275.25 -3.19452 1.60267 0
M  V30 13545 C 1274.92 -3.27449 3.09981 0
M  V30 13546 C 1273.58 -3.29338 3.50841 0
M  V30 13547 C 1275.93 -3.26833 4.05992 0
M  V30 13548 C 1273.26 -3.28265 4.86271 0
M  V30 13549 C 1275.61 -3.27299 5.41348 0
M  V30 13550 C 1274.28 -3.27485 5.81644 0
M  V30 13551 H 1273.55 -0.645979 0.363033 0
M  V30 13552 H 1276.19 -1.21127 1.48326 0
M  V30 13553 H 1274.5 -3.77917 1.03372 0
M  V30 13554 H 1276.19 -3.74869 1.42388 0
M  V30 13555 H 1272.78 -3.26704 2.77421 0
M  V30 13556 H 1276.97 -3.24556 3.75469 0
M  V30 13557 H 1272.22 -3.26731 5.16775 0
M  V30 13558 H 1276.4 -3.25773 6.15504 0
M  V30 13559 H 1274.03 -3.26407 6.86558 0
M  V30 13560 N 1275.6 -0.99472 -1.22242 0
M  V30 13561 C 1276.51 -0.555502 -2.27928 0
M  V30 13562 C 1277.53 0.396584 -1.6942 0
M  V30 13563 O 1278.7 0.262965 -1.99676 0
M  V30 13564 C 1275.77 0.121121 -3.46488 0
M  V30 13565 C 1274.83 -0.874155 -4.20306 0
M  V30 13566 C 1274.06 -0.229726 -5.33205 0
M  V30 13567 O 1274.28 0.975935 -5.61989 0
M  V30 13568 O 1273.22 -0.935501 -5.94586 0
M  V30 13569 H 1277.04 -1.4348 -2.6767 0
M  V30 13570 H 1274.63 -0.763061 -1.28444 0
M  V30 13571 H 1276.51 0.500043 -4.18423 0
M  V30 13572 H 1275.19 0.974959 -3.08668 0
M  V30 13573 H 1274.09 -1.30404 -3.50636 0
M  V30 13574 H 1275.43 -1.69725 -4.62011 0
M  V30 13575 N 1277.08 1.37613 -0.768148 0
M  V30 13576 C 1278.01 2.28935 -0.110234 0
M  V30 13577 C 1279.02 1.48459 0.668122 0
M  V30 13578 O 1280.21 1.71154 0.506808 0
M  V30 13579 C 1277.31 3.27606 0.867598 0
M  V30 13580 C 1276.49 4.37163 0.143819 0
M  V30 13581 C 1275.54 5.15931 1.03449 0
M  V30 13582 O 1274.57 5.67003 0.499605 0
M  V30 13583 N 1275.77 5.30311 2.36114 0
M  V30 13584 H 1278.54 2.86037 -0.894585 0
M  V30 13585 H 1276.1 1.4955 -0.620185 0
M  V30 13586 H 1278.09 3.77183 1.4668 0
M  V30 13587 H 1276.66 2.71298 1.55294 0
M  V30 13588 H 1275.88 3.89031 -0.636257 0
M  V30 13589 H 1277.17 5.0755 -0.356446 0
M  V30 13590 H 1276.57 4.90394 2.82011 0
M  V30 13591 H 1275.12 5.83209 2.9105 0
M  V30 13592 N 1278.56 0.518393 1.4883 0
M  V30 13593 C 1279.47 -0.254811 2.33212 0
M  V30 13594 C 1280.48 -0.950401 1.45751 0
M  V30 13595 O 1281.66 -0.927932 1.78749 0
M  V30 13596 C 1278.72 -1.29509 3.21603 0
M  V30 13597 C 1277.78 -0.611086 4.24928 0
M  V30 13598 C 1277.02 -1.6018 5.09095 0
M  V30 13599 O 1277.24 -2.83336 4.95052 0
M  V30 13600 O 1276.17 -1.14756 5.90859 0
M  V30 13601 H 1280 0.436329 3.00549 0
M  V30 13602 H 1277.59 0.27947 1.46763 0
M  V30 13603 H 1279.47 -1.89654 3.7631 0
M  V30 13604 H 1278.14 -1.96884 2.5694 0
M  V30 13605 H 1277.05 0.0305638 3.74088 0
M  V30 13606 H 1278.38 0.0205249 4.92196 0
M  V30 13607 N 1280.03 -1.55556 0.252993 0
M  V30 13608 C 1280.97 -2.17683 -0.684776 0
M  V30 13609 C 1281.95 -1.13077 -1.16843 0
M  V30 13610 O 1283.13 -1.41495 -1.24545 0
M  V30 13611 C 1280.26 -2.78239 -1.93134 0
M  V30 13612 C 1279.3 -3.95953 -1.58504 0
M  V30 13613 S 1280.14 -5.31135 -0.682367 0
M  V30 13614 C 1281.29 -5.95147 -1.93779 0
M  V30 13615 H 1281.52 -2.96886 -0.156823 0
M  V30 13616 H 1279.06 -1.54355 0.0374019 0
M  V30 13617 H 1281.02 -3.13763 -2.64694 0
M  V30 13618 H 1279.68 -1.98971 -2.43042 0
M  V30 13619 H 1278.87 -4.36936 -2.51203 0
M  V30 13620 H 1278.47 -3.61738 -0.949815 0
M  V30 13621 H 1280.76 -6.13035 -2.88435 0
M  V30 13622 H 1281.71 -6.90445 -1.57135 0
M  V30 13623 H 1282.11 -5.24279 -2.09266 0
M  V30 13624 N 1281.51 0.0200419 -1.57587 0
M  V30 13625 C 1282.45 1.05118 -2.02547 0
M  V30 13626 C 1283.42 1.3465 -0.911494 0
M  V30 13627 O 1284.61 1.47154 -1.17805 0
M  V30 13628 C 1281.73 2.38373 -2.40615 0
M  V30 13629 C 1280.78 2.24639 -3.62546 0
M  V30 13630 S 1281.61 1.59129 -5.1131 0
M  V30 13631 C 1282.77 2.93856 -5.5263 0
M  V30 13632 H 1283 0.668271 -2.89692 0
M  V30 13633 H 1280.54 0.230301 -1.52673 0
M  V30 13634 H 1282.49 3.15002 -2.63218 0
M  V30 13635 H 1281.15 2.7381 -1.53906 0
M  V30 13636 H 1280.35 3.23032 -3.86867 0
M  V30 13637 H 1279.95 1.56153 -3.39841 0
M  V30 13638 H 1282.24 3.90179 -5.53865 0
M  V30 13639 H 1283.18 2.74258 -6.52831 0
M  V30 13640 H 1283.59 2.96844 -4.8015 0
M  V30 13641 N 1282.99 1.54862 0.292472 0
M  V30 13642 C 1284.22 1.78877 1.04966 0
M  V30 13643 C 1284.64 0.550724 1.79857 0
M  V30 13644 O 1284 -0.499054 1.74296 0
M  V30 13645 C 1284.05 3.00106 1.99922 0
M  V30 13646 O 1283.15 2.73827 3.0837 0
M  V30 13647 H 1282.49 0.591802 0.301108 0
M  V30 13648 H 1285.02 2.01965 0.3273 0
M  V30 13649 H 1285.03 3.28309 2.42233 0
M  V30 13650 H 1283.71 3.89872 1.44821 0
M  V30 13651 H 1282.28 2.56665 2.70513 0
M  V30 13652 N 1284.47 -0.556076 1.47464 0
M  V30 13653 C 1285.42 -1.66304 1.60036 0
M  V30 13654 C 1286.39 -1.60074 0.443348 0
M  V30 13655 O 1287.57 -1.7889 0.663545 0
M  V30 13656 C 1284.71 -3.04624 1.62167 0
M  V30 13657 C 1283.82 -3.21283 2.88793 0
M  V30 13658 C 1282.96 -4.50008 2.82252 0
M  V30 13659 C 1282 -4.60103 4.03698 0
M  V30 13660 N 1281.13 -5.80184 3.95387 0
M  V30 13661 H 1285.97 -1.54897 2.5458 0
M  V30 13662 H 1283.51 -0.754533 1.26274 0
M  V30 13663 H 1285.47 -3.84721 1.61386 0
M  V30 13664 H 1284.1 -3.14865 0.711348 0
M  V30 13665 H 1283.15 -2.34611 2.99436 0
M  V30 13666 H 1284.46 -3.24607 3.78724 0
M  V30 13667 H 1283.62 -5.38366 2.79726 0
M  V30 13668 H 1282.36 -4.49165 1.90005 0
M  V30 13669 H 1281.36 -3.70157 4.06527 0
M  V30 13670 H 1282.59 -4.62704 4.97073 0
M  V30 13671 H 1280.53 -5.80288 3.05944 0
M  V30 13672 H 1280.45 -5.8489 4.78998 0
M  V30 13673 H 1281.72 -6.709 3.96879 0
M  V30 13674 N 1285.95 -1.35615 -0.802897 0
M  V30 13675 C 1286.89 -1.28839 -1.91492 0
M  V30 13676 C 1287.86 -0.159621 -1.65331 0
M  V30 13677 O 1289.05 -0.343931 -1.87675 0
M  V30 13678 C 1286.19 -1.06999 -3.28093 0
M  V30 13679 C 1285.3 -2.28831 -3.66416 0
M  V30 13680 C 1284.44 -2.00111 -4.92066 0
M  V30 13681 C 1283.48 -3.17977 -5.23027 0
M  V30 13682 N 1282.61 -2.89009 -6.39858 0
M  V30 13683 H 1287.45 -2.2393 -1.96619 0
M  V30 13684 H 1284.99 -1.1131 -0.961687 0
M  V30 13685 H 1286.95 -0.923673 -4.06847 0
M  V30 13686 H 1285.58 -0.155684 -3.22424 0
M  V30 13687 H 1284.63 -2.54314 -2.82893 0
M  V30 13688 H 1285.94 -3.1683 -3.85253 0
M  V30 13689 H 1285.1 -1.82331 -5.78654 0
M  V30 13690 H 1283.84 -1.09402 -4.75271 0
M  V30 13691 H 1282.84 -3.3633 -4.34928 0
M  V30 13692 H 1284.07 -4.09493 -5.41749 0
M  V30 13693 H 1282.01 -2.00898 -6.24481 0
M  V30 13694 H 1281.93 -3.70544 -6.58964 0
M  V30 13695 H 1283.2 -2.74779 -7.29463 0
M  V30 13696 N 1287.43 1.02549 -1.19673 0
M  V30 13697 C 1288.84 1.28271 -0.94967 0
M  V30 13698 C 1289.04 1.97961 0.37599 0
M  V30 13699 O 1288.1 2.26955 1.10668 0
M  V30 13700 C 1289.41 2.12647 -2.12607 0
M  V30 13701 C 1290.96 2.25943 -2.16607 0
M  V30 13702 C 1291.43 3.13693 -3.33708 0
M  V30 13703 N 1292.92 3.21281 -3.33665 0
M  V30 13704 C 1293.66 3.89377 -4.20919 0
M  V30 13705 N 1293.16 4.59675 -5.18334 0
M  V30 13706 N 1294.95 3.85811 -4.08786 0
M  V30 13707 H 1287.1 0.557304 -2.04958 0
M  V30 13708 H 1289.36 0.308531 -0.896389 0
M  V30 13709 H 1289.07 1.68766 -3.08563 0
M  V30 13710 H 1288.94 3.13367 -2.09955 0
M  V30 13711 H 1291.33 2.69053 -1.2122 0
M  V30 13712 H 1291.41 1.24762 -2.23311 0
M  V30 13713 H 1291.05 2.7129 -4.29376 0
M  V30 13714 H 1290.98 4.14941 -3.2424 0
M  V30 13715 H 1293.48 2.71218 -2.63152 0
M  V30 13716 H 1293.79 5.09277 -5.81254 0
M  V30 13717 H 1292.13 4.58529 -5.22279 0
M  V30 13718 H 1295.32 3.30033 -3.31957 0
M  V30 13719 H 1295.5 4.38607 -4.76999 0
M  V30 13720 N 1288.9 1.00119 1.21713 0
M  V30 13721 C 1289.84 0.516633 2.23301 0
M  V30 13722 C 1290.85 -0.392732 1.57992 0
M  V30 13723 O 1292.04 -0.19354 1.77448 0
M  V30 13724 C 1289.14 -0.269612 3.37826 0
M  V30 13725 C 1288.31 0.637898 4.32723 0
M  V30 13726 C 1287.37 -0.0980745 5.26109 0
M  V30 13727 O 1286.4 0.519302 5.66826 0
M  V30 13728 N 1287.6 -1.37783 5.63911 0
M  V30 13729 H 1290.36 1.39022 2.65505 0
M  V30 13730 H 1287.92 0.87688 1.36097 0
M  V30 13731 H 1289.92 -0.770826 3.97291 0
M  V30 13732 H 1288.49 -1.04436 2.94638 0
M  V30 13733 H 1287.71 1.31966 3.71455 0
M  V30 13734 H 1288.99 1.25564 4.93063 0
M  V30 13735 H 1288.39 -1.90061 5.32817 0
M  V30 13736 H 1286.95 -1.82407 6.25756 0
M  V30 13737 N 1290.38 -1.37203 0.775435 0
M  V30 13738 C 1291.61 -2.03572 0.352416 0
M  V30 13739 C 1292.02 -1.58612 -1.03145 0
M  V30 13740 O 1291.36 -0.764478 -1.67037 0
M  V30 13741 C 1291.42 -3.58064 0.321026 0
M  V30 13742 C 1291.09 -4.2617 1.6501 0
M  V30 13743 C 1292.09 -4.50034 2.60318 0
M  V30 13744 C 1289.77 -4.63927 1.92555 0
M  V30 13745 C 1291.76 -5.10716 3.81376 0
M  V30 13746 C 1289.45 -5.24329 3.13883 0
M  V30 13747 C 1290.45 -5.47661 4.08113 0
M  V30 13748 O 1290.14 -6.068 5.27304 0
M  V30 13749 H 1289.87 -0.660231 0.145159 0
M  V30 13750 H 1292.42 -1.76446 1.05148 0
M  V30 13751 H 1290.65 -3.84252 -0.434439 0
M  V30 13752 H 1292.34 -4.0583 -0.0754241 0
M  V30 13753 H 1293.11 -4.21273 2.4032 0
M  V30 13754 H 1288.99 -4.45098 1.20036 0
M  V30 13755 H 1292.53 -5.28844 4.5494 0
M  V30 13756 H 1288.43 -5.52514 3.33765 0
M  V30 13757 H 1289.2 -6.25276 5.28179 0
M  V30 13758 N 1291.86 -0.526279 -1.48553 0
M  V30 13759 C 1293.14 0.073385 -1.95462 0
M  V30 13760 C 1293.52 1.51658 -1.46843 0
M  V30 13761 O 1292.86 2.17729 -0.693293 0
M  V30 13762 C 1293.07 -0.040041 -3.48977 0
M  V30 13763 C 1294.42 0.121108 -4.24427 0
M  V30 13764 O 1295.45 0.0339335 -3.56184 0
M  V30 13765 O 1294.31 0.303297 -5.45658 0
M  V30 13766 H 1291.4 0.0813498 -0.822989 0
M  V30 13767 H 1293.95 -0.590614 -1.59091 0
M  V30 13768 H 1292.72 -1.0455 -3.77074 0
M  V30 13769 H 1292.34 0.662975 -3.92034 0
M  V30 13770 N 1293.34 1.5542 -0.261239 0
M  V30 13771 C 1294.27 2.19334 0.665214 0
M  V30 13772 C 1295.28 1.17388 1.128 0
M  V30 13773 O 1296.47 1.44183 1.0523 0
M  V30 13774 C 1293.57 2.79425 1.91768 0
M  V30 13775 C 1292.74 4.06929 1.60399 0
M  V30 13776 C 1291.8 4.51199 2.70751 0
M  V30 13777 O 1290.83 5.17272 2.37526 0
M  V30 13778 N 1292.03 4.20179 4.00537 0
M  V30 13779 H 1294.8 2.99467 0.118262 0
M  V30 13780 H 1292.36 1.61693 -0.0817727 0
M  V30 13781 H 1294.35 3.05992 2.64861 0
M  V30 13782 H 1292.92 2.03366 2.37405 0
M  V30 13783 H 1292.14 3.87798 0.707559 0
M  V30 13784 H 1293.43 4.9003 1.36924 0
M  V30 13785 H 1292.83 3.67164 4.30357 0
M  V30 13786 H 1291.38 4.51549 4.7005 0
M  V30 13787 N 1294.82 -0.0116844 1.57596 0
M  V30 13788 C 1295.73 -1.02342 2.111 0
M  V30 13789 C 1296.74 -1.38478 1.05355 0
M  V30 13790 O 1297.92 -1.47447 1.37191 0
M  V30 13791 C 1294.98 -2.30016 2.5941 0
M  V30 13792 C 1294.04 -2.003 3.79708 0
M  V30 13793 C 1293.28 -3.21888 4.25704 0
M  V30 13794 O 1293.5 -4.33171 3.71106 0
M  V30 13795 O 1292.43 -3.0657 5.17975 0
M  V30 13796 H 1296.26 -0.598637 2.97742 0
M  V30 13797 H 1293.84 -0.229779 1.47622 0
M  V30 13798 H 1295.73 -3.05044 2.90733 0
M  V30 13799 H 1294.4 -2.71755 1.75871 0
M  V30 13800 H 1293.31 -1.22785 3.53376 0
M  V30 13801 H 1294.64 -1.63406 4.64284 0
M  V30 13802 N 1296.29 -1.55015 -0.284256 0
M  V30 13803 C 1297.54 -1.74297 -1.01506 0
M  V30 13804 C 1297.86 -0.545134 -1.8785 0
M  V30 13805 O 1299.06 -0.620118 -2.64323 0
M  V30 13806 C 1297.52 -3.08438 -1.85456 0
M  V30 13807 C 1297.13 -4.35753 -1.04034 0
M  V30 13808 C 1298.87 -3.37073 -2.58035 0
M  V30 13809 C 1296.78 -5.60938 -1.87358 0
M  V30 13810 H 1295.71 -0.649656 -0.382705 0
M  V30 13811 H 1298.36 -1.81484 -0.271239 0
M  V30 13812 H 1296.74 -2.95259 -2.63891 0
M  V30 13813 H 1297.91 -4.59816 -0.300954 0
M  V30 13814 H 1296.23 -4.14178 -0.429616 0
M  V30 13815 H 1298.83 -4.27806 -3.20759 0
M  V30 13816 H 1299.17 -2.56698 -3.27738 0
M  V30 13817 H 1299.7 -3.51299 -1.86638 0
M  V30 13818 H 1296.44 -6.44029 -1.22096 0
M  V30 13819 H 1295.96 -5.41035 -2.58923 0
M  V30 13820 H 1297.64 -5.98819 -2.44999 0
M  V30 13821 N 1297.77 0.548248 -1.47757 0
M  V30 13822 C 1298.68 1.68178 -1.63565 0
M  V30 13823 C 1299.7 1.661 -0.518351 0
M  V30 13824 O 1300.87 1.85384 -0.787061 0
M  V30 13825 C 1297.94 3.04673 -1.65454 0
M  V30 13826 C 1297 3.17749 -2.88677 0
M  V30 13827 C 1296.23 4.47733 -2.90466 0
M  V30 13828 O 1296.46 5.33736 -2.01201 0
M  V30 13829 O 1295.39 4.64789 -3.82433 0
M  V30 13830 H 1299.22 1.57781 -2.59497 0
M  V30 13831 H 1296.8 0.719277 -1.30946 0
M  V30 13832 H 1298.68 3.85885 -1.69324 0
M  V30 13833 H 1297.36 3.15433 -0.726912 0
M  V30 13834 H 1296.26 2.359 -2.90348 0
M  V30 13835 H 1297.6 3.11897 -3.80763 0
M  V30 13836 N 1299.25 1.36039 0.795694 0
M  V30 13837 C 1300.2 1.29902 1.92946 0
M  V30 13838 C 1301.19 0.191943 1.68309 0
M  V30 13839 O 1302.4 0.358577 1.76392 0
M  V30 13840 H 1298.77 0.404252 0.634101 0
M  V30 13841 H 1300.74 2.25663 1.95241 0
M  V30 13842 C 1299.49 1.09887 3.29879 0
M  V30 13843 H 1298.82 1.94318 3.494 0
M  V30 13844 H 1300.26 1.09638 4.0958 0
M  V30 13845 C 1298.71 -0.196802 3.36325 0
M  V30 13846 O 1299.24 -1.18883 3.83705 0
M  V30 13847 N 1297.45 -0.239325 2.89613 0
M  V30 13848 H 1297 0.568571 2.51247 0
M  V30 13849 H 1296.96 -1.10593 2.94307 0
M  V30 13850 N 1300.73 -1.01913 1.20215 0
M  V30 13851 C 1301.66 -2.12282 0.97256 0
M  V30 13852 C 1302.64 -1.6982 -0.0975709 0
M  V30 13853 O 1303.82 -1.94109 0.0594307 0
M  V30 13854 C 1300.95 -3.43369 0.521085 0
M  V30 13855 C 1299.91 -3.99559 1.53417 0
M  V30 13856 C 1299.23 -5.26383 0.93942 0
M  V30 13857 C 1300.53 -4.33241 2.91718 0
M  V30 13858 H 1302.23 -2.31746 1.89563 0
M  V30 13859 H 1299.77 -1.1137 0.912841 0
M  V30 13860 H 1301.73 -4.19963 0.347713 0
M  V30 13861 H 1300.45 -3.23655 -0.437605 0
M  V30 13862 H 1299.11 -3.25069 1.69486 0
M  V30 13863 H 1298.76 -5.02993 -0.0271236 0
M  V30 13864 H 1298.46 -5.64942 1.616 0
M  V30 13865 H 1299.98 -6.05635 0.777059 0
M  V30 13866 H 1301.4 -5.00734 2.79175 0
M  V30 13867 H 1299.79 -4.82907 3.56259 0
M  V30 13868 H 1300.86 -3.42118 3.43633 0
M  V30 13869 N 1302.21 -1.00763 -1.2118 0
M  V30 13870 C 1303.12 -0.579646 -2.27326 0
M  V30 13871 C 1304.13 0.378592 -1.69831 0
M  V30 13872 O 1305.31 0.241772 -1.99944 0
M  V30 13873 C 1302.37 0.0843648 -3.46597 0
M  V30 13874 C 1301.43 -0.918685 -4.19355 0
M  V30 13875 C 1300.67 -0.286267 -5.32932 0
M  V30 13876 O 1300.89 0.916274 -5.62993 0
M  V30 13877 O 1299.82 -0.998513 -5.9356 0
M  V30 13878 H 1303.65 -1.46311 -2.66133 0
M  V30 13879 H 1301.24 -0.776641 -1.27627 0
M  V30 13880 H 1303.12 0.455636 -4.18929 0
M  V30 13881 H 1301.79 0.942166 -3.09685 0
M  V30 13882 H 1300.7 -1.34116 -3.49233 0
M  V30 13883 H 1302.03 -1.74616 -4.60185 0
M  V30 13884 N 1303.68 1.3679 -0.7827 0
M  V30 13885 C 1304.63 2.30139 -0.174595 0
M  V30 13886 C 1305.6 1.51645 0.677714 0
M  V30 13887 O 1306.79 1.80176 0.627796 0
M  V30 13888 C 1303.93 3.38133 0.689936 0
M  V30 13889 C 1303.04 4.31624 -0.180179 0
M  V30 13890 C 1302.17 5.26698 0.69009 0
M  V30 13891 C 1301.21 6.1183 -0.181891 0
M  V30 13892 N 1300.35 6.99113 0.646977 0
M  V30 13893 H 1305.19 2.81559 -0.97613 0
M  V30 13894 H 1302.73 1.38595 -0.492944 0
M  V30 13895 H 1304.69 3.99386 1.2061 0
M  V30 13896 H 1303.32 2.88049 1.45696 0
M  V30 13897 H 1302.37 3.71583 -0.81425 0
M  V30 13898 H 1303.68 4.91464 -0.852337 0
M  V30 13899 H 1302.83 5.93209 1.27232 0
M  V30 13900 H 1301.57 4.67297 1.3959 0
M  V30 13901 H 1300.58 5.44288 -0.776572 0
M  V30 13902 H 1301.8 6.73306 -0.885195 0
M  V30 13903 H 1299.75 6.42227 1.3372 0
M  V30 13904 H 1299.67 7.55993 0.0323547 0
M  V30 13905 H 1300.93 7.7 1.21325 0
M  V30 13906 N 1305.16 0.53415 1.48272 0
M  V30 13907 C 1306.09 -0.263508 2.2768 0
M  V30 13908 C 1307.11 -0.90064 1.35618 0
M  V30 13909 O 1308.3 -0.778379 1.60635 0
M  V30 13910 C 1305.4 -1.38878 3.09138 0
M  V30 13911 C 1304.57 -0.852784 4.29006 0
M  V30 13912 C 1303.63 -1.85969 4.92242 0
M  V30 13913 O 1302.65 -1.41497 5.51332 0
M  V30 13914 N 1303.86 -3.19207 4.84858 0
M  V30 13915 H 1306.62 0.417548 2.96777 0
M  V30 13916 H 1304.18 0.368743 1.57645 0
M  V30 13917 H 1306.17 -2.06062 3.48311 0
M  V30 13918 H 1304.74 -1.97343 2.42434 0
M  V30 13919 H 1303.96 -0.0048227 3.942 0
M  V30 13920 H 1305.25 -0.473634 5.06591 0
M  V30 13921 H 1304.65 -3.58001 4.38009 0
M  V30 13922 H 1303.21 -3.82013 5.28119 0
M  V30 13923 N 1306.64 -1.55279 0.269478 0
M  V30 13924 C 1307.57 -2.19684 -0.653573 0
M  V30 13925 C 1308.59 -1.17985 -1.12176 0
M  V30 13926 O 1309.77 -1.44739 -1.04464 0
M  V30 13927 C 1306.87 -2.80438 -1.90284 0
M  V30 13928 C 1306.05 -4.07774 -1.58239 0
M  V30 13929 C 1305.11 -4.52629 -2.68354 0
M  V30 13930 O 1304.13 -5.18524 -2.3478 0
M  V30 13931 N 1305.33 -4.22297 -3.98303 0
M  V30 13932 H 1308.1 -2.99525 -0.102379 0
M  V30 13933 H 1305.66 -1.61648 0.0903465 0
M  V30 13934 H 1307.65 -3.07392 -2.63234 0
M  V30 13935 H 1306.22 -2.04622 -2.36323 0
M  V30 13936 H 1305.44 -3.88168 -0.686983 0
M  V30 13937 H 1306.73 -4.90749 -1.34323 0
M  V30 13938 H 1306.13 -3.69441 -4.28404 0
M  V30 13939 H 1304.69 -4.54035 -4.67649 0
M  V30 13940 N 1308.12 0.00332656 -1.576 0
M  V30 13941 C 1309.07 0.99581 -2.08212 0
M  V30 13942 C 1310.04 1.34342 -0.976804 0
M  V30 13943 O 1311.22 1.44236 -1.24902 0
M  V30 13944 C 1308.36 2.2836 -2.58739 0
M  V30 13945 C 1307.47 1.99531 -3.8316 0
M  V30 13946 C 1306.61 3.22367 -4.222 0
M  V30 13947 C 1305.65 2.89209 -5.39467 0
M  V30 13948 N 1304.78 4.04572 -5.73817 0
M  V30 13949 H 1309.62 0.55727 -2.92743 0
M  V30 13950 H 1307.16 0.263513 -1.4472 0
M  V30 13951 H 1309.12 3.03639 -2.86111 0
M  V30 13952 H 1307.75 2.69889 -1.77087 0
M  V30 13953 H 1306.8 1.14634 -3.62716 0
M  V30 13954 H 1308.11 1.71089 -4.6854 0
M  V30 13955 H 1307.27 4.05994 -4.50837 0
M  V30 13956 H 1306.01 3.53944 -3.35522 0
M  V30 13957 H 1305.01 2.03989 -5.10557 0
M  V30 13958 H 1306.24 2.58883 -6.27819 0
M  V30 13959 H 1304.18 4.36052 -4.90096 0
M  V30 13960 H 1304.1 3.79643 -6.53764 0
M  V30 13961 H 1305.37 4.88998 -6.07043 0
M  V30 13962 N 1309.6 1.55164 0.276031 0
M  V30 13963 C 1310.53 1.84243 1.36335 0
M  V30 13964 C 1311.54 0.726745 1.45679 0
M  V30 13965 O 1312.73 1.00456 1.4755 0
M  V30 13966 C 1309.83 1.98768 2.7449 0
M  V30 13967 C 1309 3.294 2.87775 0
M  V30 13968 C 1308.06 3.34029 4.06585 0
M  V30 13969 O 1307.09 4.07423 3.97486 0
M  V30 13970 N 1308.29 2.61213 5.18409 0
M  V30 13971 H 1311.06 2.78092 1.11736 0
M  V30 13972 H 1308.62 1.55044 0.466143 0
M  V30 13973 H 1310.61 1.99238 3.52259 0
M  V30 13974 H 1309.18 1.11799 2.91924 0
M  V30 13975 H 1308.4 3.41494 1.96914 0
M  V30 13976 H 1309.69 4.15558 2.93579 0
M  V30 13977 H 1309.08 2.01261 5.28687 0
M  V30 13978 H 1307.64 2.67409 5.9442 0
M  V30 13979 N 1311.07 -0.540404 1.48045 0
M  V30 13980 C 1312.3 -1.32177 1.59175 0
M  V30 13981 C 1312.72 -1.87163 0.248115 0
M  V30 13982 O 1312.07 -1.65871 -0.761124 0
M  V30 13983 C 1312.13 -2.47995 2.63023 0
M  V30 13984 O 1311.85 -1.95278 3.92171 0
M  V30 13985 C 1313.35 -3.39967 2.84495 0
M  V30 13986 H 1310.57 -0.40233 0.537002 0
M  V30 13987 H 1313.11 -0.652983 1.93795 0
M  V30 13988 H 1311.27 -3.10779 2.31291 0
M  V30 13989 H 1311.68 -2.71012 4.49058 0
M  V30 13990 H 1313.15 -4.17607 3.60982 0
M  V30 13991 H 1313.63 -3.94555 1.92932 0
M  V30 13992 H 1314.24 -2.82985 3.1749 0
M  V30 13993 N 1312.55 -1.36459 -0.788468 0
M  V30 13994 C 1313.8 -1.3007 -1.54158 0
M  V30 13995 C 1314.11 0.117574 -1.95246 0
M  V30 13996 O 1315.32 0.303837 -2.69795 0
M  V30 13997 C 1313.78 -2.28216 -2.78291 0
M  V30 13998 C 1313.38 -3.75484 -2.44368 0
M  V30 13999 C 1315.13 -2.30806 -3.56271 0
M  V30 14000 C 1313.04 -4.65404 -3.64902 0
M  V30 14001 H 1311.97 -0.483345 -0.5787 0
M  V30 14002 H 1314.62 -1.61827 -0.865123 0
M  V30 14003 H 1313 -1.89454 -3.4774 0
M  V30 14004 H 1314.17 -4.22986 -1.82809 0
M  V30 14005 H 1312.49 -3.75678 -1.79597 0
M  V30 14006 H 1315.08 -2.95196 -4.45829 0
M  V30 14007 H 1315.43 -1.31687 -3.94923 0
M  V30 14008 H 1315.96 -2.68189 -2.93802 0
M  V30 14009 H 1312.7 -5.65589 -3.31344 0
M  V30 14010 H 1312.22 -4.22617 -4.25623 0
M  V30 14011 H 1313.9 -4.81721 -4.31919 0
M  V30 14012 N 1314.03 1.01274 -1.20754 0
M  V30 14013 C 1314.94 2.1335 -0.975656 0
M  V30 14014 C 1315.96 1.7386 0.0697364 0
M  V30 14015 O 1317.13 2.01051 -0.118578 0
M  V30 14016 C 1314.2 3.42548 -0.534931 0
M  V30 14017 C 1313.26 3.96257 -1.65163 0
M  V30 14018 C 1312.49 5.19289 -1.23184 0
M  V30 14019 O 1312.71 5.70309 -0.102158 0
M  V30 14020 O 1311.65 5.66248 -2.04076 0
M  V30 14021 H 1315.47 2.35783 -1.91415 0
M  V30 14022 H 1313.06 1.11736 -0.991743 0
M  V30 14023 H 1314.94 4.20341 -0.298568 0
M  V30 14024 H 1313.62 3.21521 0.374937 0
M  V30 14025 H 1312.52 3.19726 -1.94232 0
M  V30 14026 H 1313.86 4.2168 -2.53864 0
M  V30 14027 N 1315.51 1.01404 1.20644 0
M  V30 14028 C 1316.93 0.728446 1.42006 0
M  V30 14029 C 1317.13 -0.692894 1.89212 0
M  V30 14030 O 1316.18 -1.46101 2.05939 0
M  V30 14031 C 1317.49 1.75198 2.44389 0
M  V30 14032 C 1319.04 1.76983 2.58159 0
M  V30 14033 C 1319.52 2.78256 3.63782 0
M  V30 14034 N 1321.01 2.7698 3.71263 0
M  V30 14035 C 1321.74 3.51999 4.52641 0
M  V30 14036 N 1321.24 4.36687 5.37844 0
M  V30 14037 N 1323.03 3.40608 4.47149 0
M  V30 14038 H 1315.18 1.93168 0.883172 0
M  V30 14039 H 1317.45 0.834287 0.450187 0
M  V30 14040 H 1317.15 2.77013 2.16695 0
M  V30 14041 H 1317.03 1.56203 3.43337 0
M  V30 14042 H 1319.41 0.758551 2.85184 0
M  V30 14043 H 1319.49 2.00051 1.59415 0
M  V30 14044 H 1319.14 3.79546 3.37501 0
M  V30 14045 H 1319.07 2.5245 4.62143 0
M  V30 14046 H 1321.56 2.15546 3.104 0
M  V30 14047 H 1321.87 4.90703 5.97018 0
M  V30 14048 H 1320.22 4.40766 5.37355 0
M  V30 14049 H 1323.41 2.73872 3.79621 0
M  V30 14050 H 1323.58 3.99327 5.10335 0
M  V30 14051 N 1316.99 -1.36373 0.789944 0
M  V30 14052 C 1317.92 -2.32616 0.202944 0
M  V30 14053 C 1318.9 -1.56674 -0.662364 0
M  V30 14054 O 1320.08 -1.84826 -0.596078 0
M  V30 14055 C 1317.21 -3.4092 -0.662646 0
M  V30 14056 C 1316.17 -4.27877 0.102811 0
M  V30 14057 C 1315.49 -5.27352 -0.883407 0
M  V30 14058 C 1316.79 -5.0606 1.29231 0
M  V30 14059 H 1318.49 -2.81958 1.00699 0
M  V30 14060 H 1316.03 -1.35562 0.48568 0
M  V30 14061 H 1317.99 -4.07239 -1.08324 0
M  V30 14062 H 1316.71 -2.90147 -1.4994 0
M  V30 14063 H 1315.37 -3.63114 0.504389 0
M  V30 14064 H 1315.02 -4.72853 -1.71521 0
M  V30 14065 H 1314.72 -5.86398 -0.375669 0
M  V30 14066 H 1316.24 -5.96545 -1.30256 0
M  V30 14067 H 1317.66 -5.65417 0.947446 0
M  V30 14068 H 1316.05 -5.74521 1.73338 0
M  V30 14069 H 1317.12 -4.37671 2.08739 0
M  V30 14070 N 1318.47 -0.542005 -1.47987 0
M  V30 14071 C 1319.38 0.217677 -2.33588 0
M  V30 14072 C 1320.39 0.927093 -1.47245 0
M  V30 14073 O 1321.57 0.899378 -1.80203 0
M  V30 14074 C 1318.63 1.24376 -3.23622 0
M  V30 14075 C 1317.69 0.543407 -4.25847 0
M  V30 14076 C 1316.93 1.5206 -5.11579 0
M  V30 14077 O 1317.15 2.75425 -4.99497 0
M  V30 14078 O 1316.08 1.05341 -5.9261 0
M  V30 14079 H 1319.91 -0.484089 -2.99817 0
M  V30 14080 H 1317.49 -0.302783 -1.463 0
M  V30 14081 H 1319.38 1.83644 -3.7928 0
M  V30 14082 H 1318.05 1.92772 -2.6004 0
M  V30 14083 H 1316.96 -0.090074 -3.73992 0
M  V30 14084 H 1318.29 -0.0988264 -4.92101 0
M  V30 14085 N 1319.94 1.55134 -0.277709 0
M  V30 14086 C 1320.88 2.20028 0.641913 0
M  V30 14087 C 1321.89 1.18578 1.11549 0
M  V30 14088 O 1323.08 1.45291 1.03695 0
M  V30 14089 C 1320.18 2.81443 1.88794 0
M  V30 14090 C 1319.35 4.08607 1.56074 0
M  V30 14091 C 1318.41 4.54045 2.6595 0
M  V30 14092 O 1317.44 5.19762 2.32026 0
M  V30 14093 N 1318.64 4.24403 3.96058 0
M  V30 14094 H 1321.4 2.99575 0.0864929 0
M  V30 14095 H 1318.96 1.61598 -0.0989178 0
M  V30 14096 H 1320.96 3.08784 2.616 0
M  V30 14097 H 1319.53 2.05873 2.35234 0
M  V30 14098 H 1318.75 3.88527 0.666388 0
M  V30 14099 H 1320.03 4.91455 1.31719 0
M  V30 14100 H 1319.43 3.71708 4.26439 0
M  V30 14101 H 1317.99 4.56509 4.65234 0
M  V30 14102 N 1321.42 0.00503138 1.57599 0
M  V30 14103 C 1322.33 -1.00097 2.12174 0
M  V30 14104 C 1323.35 -1.37353 1.06818 0
M  V30 14105 O 1324.52 -1.45984 1.38747 0
M  V30 14106 C 1321.59 -2.27252 2.61835 0
M  V30 14107 C 1320.65 -1.96262 3.81811 0
M  V30 14108 C 1319.88 -3.17355 4.29094 0
M  V30 14109 O 1320.11 -4.2921 3.75679 0
M  V30 14110 O 1319.04 -3.01059 5.21198 0
M  V30 14111 H 1322.87 -0.567024 2.9836 0
M  V30 14112 H 1320.45 -0.214109 1.47858 0
M  V30 14113 H 1322.33 -3.01944 2.93952 0
M  V30 14114 H 1321.01 -2.69875 1.78744 0
M  V30 14115 H 1319.91 -1.19031 3.54658 0
M  V30 14116 H 1321.25 -1.58473 4.65991 0
M  V30 14117 N 1322.9 -1.55308 -0.267798 0
M  V30 14118 C 1323.85 -1.84933 -1.33356 0
M  V30 14119 C 1324.83 -0.708605 -1.44456 0
M  V30 14120 O 1326.03 -0.970069 -1.4805 0
M  V30 14121 C 1323.15 -2.12927 -2.69289 0
M  V30 14122 C 1322.24 -3.33273 -2.62279 0
M  V30 14123 N 1322.63 -4.53055 -2.24889 0
M  V30 14124 C 1320.93 -3.35966 -2.93331 0
M  V30 14125 C 1321.63 -5.35156 -2.27998 0
M  V30 14126 N 1320.61 -4.73692 -2.66677 0
M  V30 14127 H 1324.41 -2.75086 -1.03465 0
M  V30 14128 H 1321.92 -1.55254 -0.476435 0
M  V30 14129 H 1323.92 -2.32309 -3.46177 0
M  V30 14130 H 1322.58 -1.24061 -3.00065 0
M  V30 14131 H 1323.59 -4.79059 -1.9678 0
M  V30 14132 H 1320.27 -2.57308 -3.28784 0
M  V30 14133 H 1321.66 -6.4094 -2.01608 0
M  V30 14134 N 1324.38 0.532545 -1.4833 0
M  V30 14135 C 1325.61 1.31331 -1.59874 0
M  V30 14136 C 1326.02 1.87028 -0.258037 0
M  V30 14137 O 1325.38 1.66272 0.752317 0
M  V30 14138 C 1325.43 2.46596 -2.64334 0
M  V30 14139 O 1325.15 1.93195 -3.93201 0
M  V30 14140 C 1326.65 3.38454 -2.86294 0
M  V30 14141 H 1323.87 0.399476 -0.539129 0
M  V30 14142 H 1326.41 0.642696 -1.94138 0
M  V30 14143 H 1324.57 3.09548 -2.32936 0
M  V30 14144 H 1324.98 2.68627 -4.50489 0
M  V30 14145 H 1326.46 4.15687 -3.63192 0
M  V30 14146 H 1326.93 3.93526 -1.95022 0
M  V30 14147 H 1327.54 2.81297 -3.18986 0
M  V30 14148 N 1325.86 1.36875 0.78122 0
M  V30 14149 C 1326.8 1.31941 1.91557 0
M  V30 14150 C 1327.8 0.209783 1.68096 0
M  V30 14151 O 1329 0.377266 1.76002 0
M  V30 14152 H 1325.38 0.410955 0.629778 0
M  V30 14153 H 1327.35 2.27721 1.92836 0
M  V30 14154 C 1326.1 1.13379 3.28695 0
M  V30 14155 H 1325.42 1.98013 3.47319 0
M  V30 14156 H 1326.86 1.13976 4.08394 0
M  V30 14157 C 1325.32 -0.161119 3.36515 0
M  V30 14158 O 1325.85 -1.14806 3.84945 0
M  V30 14159 N 1324.06 -0.208594 2.8985 0
M  V30 14160 H 1323.6 0.595187 2.5063 0
M  V30 14161 H 1323.56 -1.07465 2.95463 0
M  V30 14162 N 1327.33 -1.00632 1.21289 0
M  V30 14163 C 1328.75 -1.26744 0.969956 0
M  V30 14164 C 1328.95 -1.98534 -0.344449 0
M  V30 14165 O 1328.01 -2.28687 -1.07044 0
M  V30 14166 C 1329.32 -2.09238 2.15963 0
M  V30 14167 C 1330.87 -2.22469 2.20174 0
M  V30 14168 C 1331.34 -3.08344 3.38656 0
M  V30 14169 N 1332.83 -3.15932 3.38734 0
M  V30 14170 C 1333.57 -3.82632 4.2706 0
M  V30 14171 N 1333.06 -4.51371 5.25582 0
M  V30 14172 N 1334.86 -3.79259 4.14872 0
M  V30 14173 H 1327.01 -0.524626 2.05819 0
M  V30 14174 H 1329.27 -0.294231 0.901184 0
M  V30 14175 H 1328.98 -1.63835 3.11209 0
M  V30 14176 H 1328.85 -3.09987 2.14914 0
M  V30 14177 H 1331.24 -2.67091 1.25485 0
M  V30 14178 H 1331.32 -1.21194 2.25268 0
M  V30 14179 H 1330.96 -2.64425 4.33638 0
M  V30 14180 H 1330.89 -4.0973 3.30801 0
M  V30 14181 H 1333.38 -2.66998 2.67434 0
M  V30 14182 H 1333.7 -4.99966 5.89283 0
M  V30 14183 H 1332.04 -4.50162 5.29508 0
M  V30 14184 H 1335.23 -3.2471 3.37166 0
M  V30 14185 H 1335.41 -4.30963 4.83916 0
M  V30 14186 N 1328.81 -1.02043 -1.20104 0
M  V30 14187 C 1329.74 -0.614421 -2.25271 0
M  V30 14188 C 1330.72 0.37242 -1.65973 0
M  V30 14189 O 1331.91 0.257005 -1.92492 0
M  V30 14190 C 1329.04 0.0442085 -3.47272 0
M  V30 14191 C 1327.99 -0.864019 -4.19188 0
M  V30 14192 C 1327.32 -0.0709551 -5.34653 0
M  V30 14193 C 1328.62 -2.17385 -4.74912 0
M  V30 14194 H 1330.31 -1.49355 -2.59487 0
M  V30 14195 H 1327.86 -0.719591 -1.24731 0
M  V30 14196 H 1329.81 0.339825 -4.20028 0
M  V30 14197 H 1328.53 0.958082 -3.12231 0
M  V30 14198 H 1327.19 -1.1437 -3.48303 0
M  V30 14199 H 1326.84 0.844688 -4.95857 0
M  V30 14200 H 1326.54 -0.67583 -5.83701 0
M  V30 14201 H 1328.07 0.218118 -6.1021 0
M  V30 14202 H 1329.48 -1.94034 -5.39466 0
M  V30 14203 H 1327.88 -2.72991 -5.34412 0
M  V30 14204 H 1328.95 -2.83427 -3.93443 0
M  V30 14205 N 1330.29 1.35952 -0.797165 0
M  V30 14206 C 1331.71 1.52218 -0.479765 0
M  V30 14207 C 1331.91 1.74898 1.00064 0
M  V30 14208 O 1330.96 1.78495 1.78594 0
M  V30 14209 C 1332.28 2.70328 -1.31694 0
M  V30 14210 C 1333.82 2.84202 -1.31142 0
M  V30 14211 C 1334.3 4.05325 -2.13251 0
M  V30 14212 N 1335.79 4.12485 -2.10737 0
M  V30 14213 C 1336.52 5.053 -2.71033 0
M  V30 14214 N 1336.02 6.03509 -3.40219 0
M  V30 14215 N 1337.81 4.97975 -2.60725 0
M  V30 14216 H 1329.96 1.19486 -1.75604 0
M  V30 14217 H 1332.23 0.58383 -0.746892 0
M  V30 14218 H 1331.93 2.60116 -2.36712 0
M  V30 14219 H 1331.81 3.64684 -0.963607 0
M  V30 14220 H 1334.19 2.9387 -0.269131 0
M  V30 14221 H 1334.28 1.9073 -1.70457 0
M  V30 14222 H 1333.92 3.96417 -3.17515 0
M  V30 14223 H 1333.85 4.97959 -1.71302 0
M  V30 14224 H 1336.34 3.42174 -1.6039 0
M  V30 14225 H 1336.65 6.70909 -3.83537 0
M  V30 14226 H 1335 6.03711 -3.44322 0
M  V30 14227 H 1338.19 4.20203 -2.0627 0
M  V30 14228 H 1338.36 5.70119 -3.08007 0
M  V30 14229 N 1331.77 0.549846 1.47697 0
M  V30 14230 C 1333.05 -0.0422793 1.95554 0
M  V30 14231 C 1333.43 -1.49303 1.49238 0
M  V30 14232 O 1332.77 -2.16598 0.727844 0
M  V30 14233 C 1332.98 0.0955552 3.48869 0
M  V30 14234 C 1334.33 -0.0535698 4.24566 0
M  V30 14235 O 1335.36 0.0227365 3.56193 0
M  V30 14236 O 1334.21 -0.21645 5.46071 0
M  V30 14237 H 1331.31 -0.0682465 0.824179 0
M  V30 14238 H 1333.85 0.615849 1.58131 0
M  V30 14239 H 1332.63 1.10536 3.75363 0
M  V30 14240 H 1332.25 -0.600522 3.93039 0
M  V30 14241 N 1333.25 -1.54984 0.285932 0
M  V30 14242 C 1334.16 -2.26621 -0.606648 0
M  V30 14243 C 1335.17 -1.29595 -1.16108 0
M  V30 14244 O 1336.35 -1.62551 -1.18908 0
M  V30 14245 C 1333.41 -2.98156 -1.76929 0
M  V30 14246 C 1332.47 -4.10685 -1.25045 0
M  V30 14247 C 1331.71 -4.788 -2.35768 0
M  V30 14248 O 1331.93 -4.46183 -3.55354 0
M  V30 14249 O 1330.86 -5.66523 -2.03312 0
M  V30 14250 H 1334.69 -3.03689 -0.0259981 0
M  V30 14251 H 1332.28 -1.49306 0.0529355 0
M  V30 14252 H 1334.16 -3.43076 -2.44697 0
M  V30 14253 H 1332.83 -2.23996 -2.33683 0
M  V30 14254 H 1331.74 -3.70198 -0.538919 0
M  V30 14255 H 1333.07 -4.86778 -0.728528 0
M  V30 14256 N 1334.72 -0.0133892 -1.57594 0
M  V30 14257 C 1335.69 0.958601 -2.08191 0
M  V30 14258 C 1336.69 1.26408 -0.993865 0
M  V30 14259 O 1337.88 1.20703 -1.25604 0
M  V30 14260 C 1335.01 2.27971 -2.5346 0
M  V30 14261 H 1336.2 0.520686 -2.95345 0
M  V30 14262 H 1333.76 0.234351 -1.54533 0
M  V30 14263 H 1334.49 2.76424 -1.69588 0
M  V30 14264 H 1334.28 2.07116 -3.32935 0
M  V30 14265 H 1335.77 2.97672 -2.92884 0
M  V30 14266 N 1336.2 1.55448 0.259558 0
M  V30 14267 C 1337.15 1.89248 1.32113 0
M  V30 14268 C 1338.12 0.745348 1.48438 0
M  V30 14269 O 1339.3 0.997854 1.62627 0
M  V30 14270 C 1336.44 2.18161 2.67394 0
M  V30 14271 C 1335.56 3.45614 2.59182 0
M  V30 14272 C 1334.69 3.6416 3.86731 0
M  V30 14273 C 1333.73 4.85258 3.73084 0
M  V30 14274 N 1332.87 5.00391 4.92497 0
M  V30 14275 H 1337.71 2.79785 1.02589 0
M  V30 14276 H 1335.25 1.38509 0.495338 0
M  V30 14277 H 1337.2 2.32927 3.46122 0
M  V30 14278 H 1335.83 1.30843 2.95093 0
M  V30 14279 H 1334.89 3.39248 1.72091 0
M  V30 14280 H 1336.2 4.34483 2.45002 0
M  V30 14281 H 1335.35 3.78817 4.73902 0
M  V30 14282 H 1334.09 2.73501 4.03793 0
M  V30 14283 H 1333.1 4.70591 2.84296 0
M  V30 14284 H 1334.32 5.77365 3.57528 0
M  V30 14285 H 1332.27 4.12666 5.09944 0
M  V30 14286 H 1332.18 5.83328 4.809 0
M  V30 14287 H 1333.45 5.19446 5.81202 0
M  V30 14288 N 1337.68 -0.524672 1.4861 0
M  V30 14289 C 1339.1 -0.853703 1.34848 0
M  V30 14290 C 1339.3 -1.98194 0.363529 0
M  V30 14291 O 1338.35 -2.51597 -0.213348 0
M  V30 14292 C 1339.67 -1.21622 2.75006 0
M  V30 14293 C 1341.21 -1.3258 2.83534 0
M  V30 14294 C 1341.69 -1.72172 4.24406 0
M  V30 14295 N 1343.18 -1.79265 4.27105 0
M  V30 14296 C 1343.91 -2.11296 5.33049 0
M  V30 14297 N 1343.41 -2.41714 6.49266 0
M  V30 14298 N 1345.2 -2.12347 5.20447 0
M  V30 14299 H 1337.35 0.219671 2.11261 0
M  V30 14300 H 1339.62 0.0356444 0.94733 0
M  V30 14301 H 1339.32 -0.460776 3.48669 0
M  V30 14302 H 1339.2 -2.16516 3.0887 0
M  V30 14303 H 1341.58 -2.072 2.10124 0
M  V30 14304 H 1341.67 -0.357943 2.53283 0
M  V30 14305 H 1341.31 -0.981108 4.98334 0
M  V30 14306 H 1341.24 -2.70017 4.52104 0
M  V30 14307 H 1343.73 -1.58013 3.43279 0
M  V30 14308 H 1344.04 -2.65276 7.25843 0
M  V30 14309 H 1342.39 -2.39222 6.52532 0
M  V30 14310 H 1345.58 -1.88044 4.28669 0
M  V30 14311 H 1345.75 -2.36978 6.03113 0
M  V30 14312 N 1339.16 -1.37287 -0.77395 0
M  V30 14313 C 1340.41 -1.31698 -1.52769 0
M  V30 14314 C 1340.72 0.0968585 -1.9536 0
M  V30 14315 O 1341.93 0.275205 -2.70102 0
M  V30 14316 C 1340.38 -2.31154 -2.75854 0
M  V30 14317 C 1339.99 -3.78055 -2.40371 0
M  V30 14318 C 1341.73 -2.34572 -3.53803 0
M  V30 14319 C 1339.64 -4.69248 -3.59945 0
M  V30 14320 H 1338.57 -0.489456 -0.573541 0
M  V30 14321 H 1341.22 -1.62735 -0.84791 0
M  V30 14322 H 1339.6 -1.93132 -3.45711 0
M  V30 14323 H 1340.78 -4.24902 -1.78312 0
M  V30 14324 H 1339.09 -3.77562 -1.75602 0
M  V30 14325 H 1341.69 -2.99908 -4.42673 0
M  V30 14326 H 1342.03 -1.35868 -3.93504 0
M  V30 14327 H 1342.57 -2.7129 -2.90941 0
M  V30 14328 H 1339.31 -5.69072 -3.25327 0
M  V30 14329 H 1338.83 -4.27108 -4.21117 0
M  V30 14330 H 1340.5 -4.86275 -4.26785 0
M  V30 14331 N 1340.64 0.999871 -1.21821 0
M  V30 14332 C 1341.58 2.08864 -0.98206 0
M  V30 14333 C 1342.55 1.65835 0.0937677 0
M  V30 14334 O 1343.74 1.90722 -0.0544038 0
M  V30 14335 C 1340.88 3.40553 -0.558382 0
M  V30 14336 C 1339.99 3.96964 -1.70422 0
M  V30 14337 C 1339.13 5.16782 -1.2292 0
M  V30 14338 C 1338.17 5.65315 -2.34703 0
M  V30 14339 N 1337.3 6.76379 -1.88299 0
M  V30 14340 H 1342.14 2.28399 -1.9141 0
M  V30 14341 H 1339.68 1.11984 -0.953837 0
M  V30 14342 H 1341.64 4.16163 -0.293955 0
M  V30 14343 H 1340.27 3.2104 0.336656 0
M  V30 14344 H 1339.32 3.18291 -2.08315 0
M  V30 14345 H 1340.63 4.2897 -2.54531 0
M  V30 14346 H 1339.79 5.99657 -0.92174 0
M  V30 14347 H 1338.52 4.86383 -0.358222 0
M  V30 14348 H 1337.53 4.81033 -2.66246 0
M  V30 14349 H 1338.75 5.97742 -3.22306 0
M  V30 14350 H 1336.7 6.47775 -1.03552 0
M  V30 14351 H 1336.62 7.07666 -2.65978 0
M  V30 14352 H 1337.89 7.62776 -1.60601 0
M  V30 14353 N 1342.11 1.02678 1.19562 0
M  V30 14354 C 1343.36 0.72059 1.88817 0
M  V30 14355 C 1343.68 -0.752942 1.79877 0
M  V30 14356 O 1342.95 -1.54233 1.20785 0
M  V30 14357 H 1341.53 0.26355 0.698964 0
M  V30 14358 H 1344.2 1.30056 1.4516 0
M  V30 14359 H 1343.29 1.01303 2.95202 0
M  V30 14360 N 1343.59 -1.35528 0.804364 0
M  V30 14361 C 1344.5 -2.33616 0.214663 0
M  V30 14362 C 1345.52 -1.61757 -0.64115 0
M  V30 14363 O 1346.69 -1.93647 -0.553424 0
M  V30 14364 C 1343.76 -3.40951 -0.628778 0
M  V30 14365 C 1342.82 -4.28587 0.247269 0
M  V30 14366 C 1342.05 -5.30796 -0.556012 0
M  V30 14367 O 1342.28 -5.41557 -1.79088 0
M  V30 14368 O 1341.21 -6.01878 0.0519437 0
M  V30 14369 H 1345.04 -2.85843 1.02605 0
M  V30 14370 H 1342.62 -1.38259 0.566108 0
M  V30 14371 H 1344.5 -4.06538 -1.10926 0
M  V30 14372 H 1343.18 -2.90999 -1.4178 0
M  V30 14373 H 1342.09 -3.65988 0.774835 0
M  V30 14374 H 1343.42 -4.81931 1.00017 0
M  V30 14375 N 1345.07 -0.557671 -1.47404 0
M  V30 14376 C 1346 0.227253 -2.28071 0
M  V30 14377 C 1347.02 0.878951 -1.37034 0
M  V30 14378 O 1348.21 0.752725 -1.61853 0
M  V30 14379 C 1345.31 1.33942 -3.11308 0
M  V30 14380 C 1344.48 0.784425 -4.30309 0
M  V30 14381 C 1343.54 1.78114 -4.95138 0
M  V30 14382 O 1342.56 1.32708 -5.53514 0
M  V30 14383 N 1343.77 3.11453 -4.89875 0
M  V30 14384 H 1346.53 -0.464709 -2.96075 0
M  V30 14385 H 1344.09 -0.393777 -1.57038 0
M  V30 14386 H 1346.08 2.00495 -3.51545 0
M  V30 14387 H 1344.65 1.93461 -2.45543 0
M  V30 14388 H 1343.87 -0.0578917 -3.94157 0
M  V30 14389 H 1345.16 0.39298 -5.0728 0
M  V30 14390 H 1344.56 3.50987 -4.43649 0
M  V30 14391 H 1343.12 3.73563 -5.34129 0
M  V30 14392 N 1346.55 1.54831 -0.294147 0
M  V30 14393 C 1347.46 2.26939 0.594621 0
M  V30 14394 C 1348.48 1.30209 1.15419 0
M  V30 14395 O 1349.65 1.6318 1.18044 0
M  V30 14396 C 1346.72 2.9909 1.75345 0
M  V30 14397 C 1345.78 4.11342 1.22865 0
M  V30 14398 C 1345.01 4.80043 2.33225 0
M  V30 14399 O 1345.23 4.48062 3.52983 0
M  V30 14400 O 1344.17 5.67593 2.00304 0
M  V30 14401 H 1347.99 3.03698 0.00989235 0
M  V30 14402 H 1345.58 1.49276 -0.0608528 0
M  V30 14403 H 1347.46 3.44369 2.42875 0
M  V30 14404 H 1346.14 2.25232 2.32492 0
M  V30 14405 H 1345.04 3.70478 0.519279 0
M  V30 14406 H 1346.38 4.87158 0.702703 0
M  V30 14407 N 1348.03 0.0217466 1.57585 0
M  V30 14408 C 1348.97 -0.962559 2.0977 0
M  V30 14409 C 1349.94 -1.32771 0.998053 0
M  V30 14410 O 1351.13 -1.42231 1.27181 0
M  V30 14411 C 1348.27 -2.24214 2.62339 0
M  V30 14412 C 1347.38 -1.9341 3.86286 0
M  V30 14413 C 1346.52 -3.15609 4.27275 0
M  V30 14414 C 1345.56 -2.8059 5.43999 0
M  V30 14415 N 1344.69 -3.95392 5.8018 0
M  V30 14416 H 1349.53 -0.510626 2.93593 0
M  V30 14417 H 1347.07 -0.240456 1.45121 0
M  V30 14418 H 1349.03 -2.99049 2.90905 0
M  V30 14419 H 1347.66 -2.67037 1.81358 0
M  V30 14420 H 1346.71 -1.08849 3.64494 0
M  V30 14421 H 1348.02 -1.63614 4.71203 0
M  V30 14422 H 1347.18 -3.9877 4.57239 0
M  V30 14423 H 1345.92 -3.48561 3.41111 0
M  V30 14424 H 1344.92 -1.9584 5.13738 0
M  V30 14425 H 1346.15 -2.48863 6.31858 0
M  V30 14426 H 1344.09 -4.282 4.96971 0
M  V30 14427 H 1344.01 -3.69195 6.59721 0
M  V30 14428 H 1345.28 -4.79279 6.14746 0
M  V30 14429 N 1349.51 -1.55583 -0.251311 0
M  V30 14430 C 1350.42 -1.93073 -1.33266 0
M  V30 14431 C 1351.43 -0.830612 -1.52895 0
M  V30 14432 O 1352.61 -1.13162 -1.66602 0
M  V30 14433 C 1349.67 -2.21396 -2.66805 0
M  V30 14434 C 1348.73 -3.44815 -2.55737 0
M  V30 14435 C 1347.97 -3.71777 -3.82907 0
M  V30 14436 O 1348.19 -3.00884 -4.84587 0
M  V30 14437 O 1347.12 -4.65305 -3.81805 0
M  V30 14438 H 1350.95 -2.85168 -1.04465 0
M  V30 14439 H 1348.53 -1.42408 -0.451693 0
M  V30 14440 H 1350.42 -2.4094 -3.45725 0
M  V30 14441 H 1349.09 -1.3248 -2.95348 0
M  V30 14442 H 1348 -3.30582 -1.75118 0
M  V30 14443 H 1349.33 -4.34019 -2.32139 0
M  V30 14444 N 1350.98 0.516783 -1.48886 0
M  V30 14445 C 1351.91 1.62897 -1.67292 0
M  V30 14446 C 1352.89 1.61903 -0.521671 0
M  V30 14447 O 1354.08 1.78892 -0.755728 0
M  V30 14448 C 1351.21 3.01444 -1.72478 0
M  V30 14449 C 1350.16 3.173 -2.87236 0
M  V30 14450 C 1349.49 4.5704 -2.77522 0
M  V30 14451 C 1350.79 2.98818 -4.28375 0
M  V30 14452 H 1352.48 1.47748 -2.60405 0
M  V30 14453 H 1350.03 0.709361 -1.25316 0
M  V30 14454 H 1351.98 3.79135 -1.83942 0
M  V30 14455 H 1350.71 3.17645 -0.759538 0
M  V30 14456 H 1349.37 2.4203 -2.75349 0
M  V30 14457 H 1349.01 4.70096 -1.78938 0
M  V30 14458 H 1348.71 4.68593 -3.54534 0
M  V30 14459 H 1350.24 5.36813 -2.90972 0
M  V30 14460 H 1351.65 3.66291 -4.41026 0
M  V30 14461 H 1350.05 3.21854 -5.06488 0
M  V30 14462 H 1351.12 1.95102 -4.43918 0
M  V30 14463 N 1352.46 1.37696 0.766659 0
M  V30 14464 C 1353.69 1.36564 1.56093 0
M  V30 14465 C 1354.11 -0.0455828 1.88045 0
M  V30 14466 O 1353.47 -1.02405 1.49609 0
M  V30 14467 C 1353.52 2.21592 2.84481 0
M  V30 14468 O 1352.62 1.62404 3.79076 0
M  V30 14469 H 1351.96 0.466394 0.472623 0
M  V30 14470 H 1354.49 1.81287 0.948486 0
M  V30 14471 H 1354.5 2.34987 3.33534 0
M  V30 14472 H 1353.18 3.24167 2.60554 0
M  V30 14473 H 1351.75 1.58078 3.37736 0
M  V30 14474 N 1353.94 -0.993397 1.22349 0
M  V30 14475 C 1354.89 -2.0834 0.993123 0
M  V30 14476 C 1355.86 -1.65883 -0.0849717 0
M  V30 14477 O 1357.04 -1.90691 0.0645176 0
M  V30 14478 C 1354.18 -3.40252 0.576434 0
M  V30 14479 C 1353.29 -3.96055 1.72524 0
M  V30 14480 C 1352.43 -5.16123 1.25659 0
M  V30 14481 C 1351.47 -5.64062 2.37698 0
M  V30 14482 N 1350.61 -6.7537 1.91883 0
M  V30 14483 H 1355.45 -2.27381 1.92619 0
M  V30 14484 H 1352.98 -1.11476 0.959763 0
M  V30 14485 H 1354.94 -4.16001 0.316021 0
M  V30 14486 H 1353.57 -3.21214 -0.319626 0
M  V30 14487 H 1352.62 -3.17182 2.1 0
M  V30 14488 H 1353.93 -4.27614 2.56802 0
M  V30 14489 H 1353.09 -5.9916 0.953528 0
M  V30 14490 H 1351.83 -4.86186 0.384011 0
M  V30 14491 H 1350.83 -4.79614 2.68794 0
M  V30 14492 H 1352.06 -5.96025 3.25471 0
M  V30 14493 H 1350 -6.47217 1.06986 0
M  V30 14494 H 1349.92 -7.06246 2.69727 0
M  V30 14495 H 1351.19 -7.61914 1.64644 0
M  V30 14496 N 1355.42 -1.03311 -1.19015 0
M  V30 14497 C 1356.66 -0.732039 -1.88805 0
M  V30 14498 C 1356.99 0.739688 -1.79886 0
M  V30 14499 O 1356.25 1.55476 -1.18851 0
M  V30 14500 C 1356.55 -1.13402 -3.38932 0
M  V30 14501 C 1356.21 -2.60473 -3.68055 0
M  V30 14502 C 1354.87 -3.00654 -3.75713 0
M  V30 14503 C 1357.23 -3.55604 -3.81045 0
M  V30 14504 C 1354.55 -4.3487 -3.93833 0
M  V30 14505 C 1356.91 -4.89529 -4.00679 0
M  V30 14506 C 1355.57 -5.29392 -4.06571 0
M  V30 14507 H 1354.84 -0.267872 -0.690888 0
M  V30 14508 H 1357.49 -1.29673 -1.40915 0
M  V30 14509 H 1355.79 -0.487997 -3.88749 0
M  V30 14510 H 1357.49 -0.878532 -3.91258 0
M  V30 14511 H 1354.08 -2.28348 -3.62706 0
M  V30 14512 H 1358.26 -3.25711 -3.74467 0
M  V30 14513 H 1353.52 -4.65285 -3.96636 0
M  V30 14514 H 1357.69 -5.63153 -4.09672 0
M  V30 14515 H 1355.32 -6.33402 -4.20364 0
M  V30 14516 N 1356.9 1.35099 -0.81154 0
M  V30 14517 C 1357.83 2.28468 -0.183012 0
M  V30 14518 C 1358.84 1.50509 0.620553 0
M  V30 14519 O 1360.03 1.7268 0.4521 0
M  V30 14520 C 1357.13 3.30201 0.762933 0
M  V30 14521 C 1356.3 4.374 0.00466561 0
M  V30 14522 C 1355.36 5.18961 0.869832 0
M  V30 14523 O 1354.39 5.68306 0.318964 0
M  V30 14524 N 1355.59 5.37555 2.19123 0
M  V30 14525 H 1358.35 2.83046 -0.985132 0
M  V30 14526 H 1355.92 1.47502 -0.667449 0
M  V30 14527 H 1357.91 3.81659 1.34606 0
M  V30 14528 H 1356.48 2.76101 1.46584 0
M  V30 14529 H 1355.7 3.8681 -0.759702 0
M  V30 14530 H 1356.99 5.06159 -0.517739 0
M  V30 14531 H 1356.38 4.99118 2.66266 0
M  V30 14532 H 1354.94 5.92174 2.72348 0
M  V30 14533 N 1358.37 0.56548 1.47106 0
M  V30 14534 C 1359.32 -0.190542 2.31818 0
M  V30 14535 C 1360.32 -0.901279 1.43434 0
M  V30 14536 O 1361.52 -0.821625 1.60154 0
M  V30 14537 H 1357.9 -0.0803183 0.747698 0
M  V30 14538 H 1359.87 0.542999 2.93418 0
M  V30 14539 C 1358.62 -1.20208 3.2626 0
M  V30 14540 H 1357.94 -0.664608 3.94237 0
M  V30 14541 H 1359.38 -1.7018 3.88349 0
M  V30 14542 C 1357.84 -2.25423 2.50372 0
M  V30 14543 O 1358.37 -3.3249 2.25418 0
M  V30 14544 N 1356.57 -1.9957 2.11235 0
M  V30 14545 H 1356.12 -1.12513 2.31729 0
M  V30 14546 H 1356.08 -2.70182 1.60777 0
M  V30 14547 N 1359.85 -1.54672 0.302354 0
M  V30 14548 C 1360.79 -2.19752 -0.615175 0
M  V30 14549 C 1361.76 -1.16737 -1.13186 0
M  V30 14550 O 1362.95 -1.45385 -1.19981 0
M  V30 14551 C 1360.07 -2.84243 -1.84184 0
M  V30 14552 C 1359.12 -4.00795 -1.45827 0
M  V30 14553 S 1359.95 -5.33037 -0.513046 0
M  V30 14554 C 1361.11 -6.01011 -1.74747 0
M  V30 14555 H 1361.34 -2.97235 -0.0622917 0
M  V30 14556 H 1358.88 -1.54158 0.0864897 0
M  V30 14557 H 1360.83 -3.22025 -2.54578 0
M  V30 14558 H 1359.49 -2.06603 -2.36589 0
M  V30 14559 H 1358.69 -4.44707 -2.37175 0
M  V30 14560 H 1358.29 -3.64577 -0.83425 0
M  V30 14561 H 1360.58 -6.21901 -2.68786 0
M  V30 14562 H 1361.52 -6.95095 -1.35089 0
M  V30 14563 H 1361.93 -5.30671 -1.9248 0
M  V30 14564 N 1361.33 -0.0301034 -1.57571 0
M  V30 14565 C 1362.26 0.94977 -2.13311 0
M  V30 14566 C 1363.24 1.33865 -1.04948 0
M  V30 14567 O 1364.43 1.4171 -1.32786 0
M  V30 14568 C 1361.56 2.23178 -2.66099 0
M  V30 14569 C 1360.51 1.98362 -3.79258 0
M  V30 14570 C 1359.84 3.32836 -4.18479 0
M  V30 14571 C 1361.14 1.32201 -5.05292 0
M  V30 14572 H 1362.83 0.485562 -2.95436 0
M  V30 14573 H 1360.38 0.232116 -1.42117 0
M  V30 14574 H 1362.33 2.92108 -3.03728 0
M  V30 14575 H 1361.05 2.71766 -1.81137 0
M  V30 14576 H 1359.71 1.31849 -3.42069 0
M  V30 14577 H 1359.36 3.79185 -3.30496 0
M  V30 14578 H 1359.06 3.17037 -4.94733 0
M  V30 14579 H 1360.58 4.03032 -4.58691 0
M  V30 14580 H 1362 1.91133 -5.40501 0
M  V30 14581 H 1360.4 1.26797 -5.86551 0
M  V30 14582 H 1361.47 0.29511 -4.84001 0
M  V30 14583 N 1362.81 1.55714 0.243056 0
M  V30 14584 C 1363.76 1.90638 1.30099 0
M  V30 14585 C 1364.73 0.761049 1.47639 0
M  V30 14586 O 1365.91 1.01505 1.61559 0
M  V30 14587 C 1363.05 2.20985 2.65065 0
M  V30 14588 C 1362.16 3.48343 2.55501 0
M  V30 14589 C 1361.3 3.68241 3.82847 0
M  V30 14590 C 1360.34 4.89187 3.67916 0
M  V30 14591 N 1359.47 5.05586 4.87162 0
M  V30 14592 H 1364.31 2.80857 0.996155 0
M  V30 14593 H 1361.85 1.39027 0.480619 0
M  V30 14594 H 1363.81 2.36585 3.43632 0
M  V30 14595 H 1362.44 1.33966 2.93689 0
M  V30 14596 H 1361.49 3.41054 1.68483 0
M  V30 14597 H 1362.8 4.37057 2.4038 0
M  V30 14598 H 1361.96 3.83822 4.69857 0
M  V30 14599 H 1360.7 2.77768 4.00869 0
M  V30 14600 H 1359.7 4.7358 2.79289 0
M  V30 14601 H 1360.93 5.81124 3.51385 0
M  V30 14602 H 1358.87 4.18051 5.05538 0
M  V30 14603 H 1358.79 5.88395 4.74686 0
M  V30 14604 H 1360.06 5.25582 5.7566 0
M  V30 14605 N 1364.29 -0.50888 1.49158 0
M  V30 14606 C 1365.23 -1.63216 1.6572 0
M  V30 14607 C 1366.23 -1.61117 0.523236 0
M  V30 14608 O 1367.43 -1.6572 0.702629 0
M  V30 14609 H 1363.81 -0.540909 0.522419 0
M  V30 14610 H 1365.78 -1.46397 2.6002 0
M  V30 14611 C 1364.53 -3.01393 1.73372 0
M  V30 14612 H 1363.85 -3.03711 2.6 0
M  V30 14613 H 1365.29 -3.79547 1.88998 0
M  V30 14614 C 1363.75 -3.33509 0.47683 0
M  V30 14615 O 1364.28 -3.99694 -0.400986 0
M  V30 14616 N 1362.49 -2.88579 0.342145 0
M  V30 14617 H 1362.03 -2.34894 1.05747 0
M  V30 14618 H 1361.99 -3.10435 -0.497757 0
M  V30 14619 N 1365.76 -1.381 -0.759346 0
M  V30 14620 C 1367.18 -1.19171 -1.06162 0
M  V30 14621 C 1367.38 -0.0364043 -2.01467 0
M  V30 14622 O 1366.44 0.619635 -2.44779 0
M  V30 14623 C 1367.75 -2.51569 -1.64723 0
M  V30 14624 C 1369.3 -2.58201 -1.76921 0
M  V30 14625 C 1369.77 -3.9076 -2.38894 0
M  V30 14626 N 1371.26 -3.92269 -2.46331 0
M  V30 14627 C 1372 -4.91595 -2.95164 0
M  V30 14628 N 1371.49 -6.01318 -3.44075 0
M  V30 14629 N 1373.29 -4.7899 -2.94152 0
M  V30 14630 H 1365.44 -2.12021 -0.126788 0
M  V30 14631 H 1367.7 -0.940517 -0.118877 0
M  V30 14632 H 1367.41 -3.36535 -1.02162 0
M  V30 14633 H 1367.28 -2.69551 -2.6386 0
M  V30 14634 H 1369.67 -1.73634 -2.38611 0
M  V30 14635 H 1369.75 -2.44092 -0.765047 0
M  V30 14636 H 1369.39 -4.75747 -1.7784 0
M  V30 14637 H 1369.32 -4.02179 -3.39941 0
M  V30 14638 H 1371.81 -3.13015 -2.11731 0
M  V30 14639 H 1372.13 -6.73046 -3.79776 0
M  V30 14640 H 1370.47 -6.04946 -3.42148 0
M  V30 14641 H 1373.66 -3.92385 -2.55248 0
M  V30 14642 H 1373.84 -5.5655 -3.31897 0
M  V30 14643 N 1367.24 0.986894 -1.22875 0
M  V30 14644 C 1368.19 2.07811 -1.00416 0
M  V30 14645 C 1369.16 1.65925 0.0761734 0
M  V30 14646 O 1370.34 1.90654 -0.0746294 0
M  V30 14647 C 1367.48 3.39941 -0.594471 0
M  V30 14648 C 1366.6 3.95134 -1.74622 0
M  V30 14649 C 1365.73 5.1545 -1.28394 0
M  V30 14650 C 1364.77 5.62794 -2.40686 0
M  V30 14651 N 1363.91 6.74343 -1.95462 0
M  V30 14652 H 1368.75 2.26356 -1.93822 0
M  V30 14653 H 1366.29 1.10966 -0.965661 0
M  V30 14654 H 1368.24 4.15828 -0.338078 0
M  V30 14655 H 1366.87 3.21379 0.302587 0
M  V30 14656 H 1365.93 3.16064 -2.11679 0
M  V30 14657 H 1367.24 4.26247 -2.59066 0
M  V30 14658 H 1366.39 5.98646 -0.98529 0
M  V30 14659 H 1365.13 4.85975 -0.409789 0
M  V30 14660 H 1364.14 4.78182 -2.71333 0
M  V30 14661 H 1365.36 5.9429 -3.28627 0
M  V30 14662 H 1363.31 6.46641 -1.10417 0
M  V30 14663 H 1363.22 7.04806 -2.73469 0
M  V30 14664 H 1364.49 7.6103 -1.68683 0
M  V30 14665 N 1368.72 1.0394 1.18466 0
M  V30 14666 C 1369.67 0.629352 2.22054 0
M  V30 14667 C 1370.64 -0.362187 1.62103 0
M  V30 14668 O 1371.82 -0.256457 1.89069 0
M  V30 14669 C 1368.96 -0.00282888 3.451 0
M  V30 14670 C 1368.08 1.03602 4.19393 0
M  V30 14671 C 1367.21 0.372492 5.29892 0
M  V30 14672 C 1366.25 1.39652 5.95956 0
M  V30 14673 N 1365.39 0.758053 6.97996 0
M  V30 14674 H 1370.23 1.51722 2.56485 0
M  V30 14675 H 1367.76 0.759043 1.26004 0
M  V30 14676 H 1369.72 -0.386688 4.15404 0
M  V30 14677 H 1368.35 -0.854224 3.11292 0
M  V30 14678 H 1367.4 1.53784 3.47929 0
M  V30 14679 H 1368.72 1.81387 4.64651 0
M  V30 14680 H 1367.87 -0.065642 6.06664 0
M  V30 14681 H 1366.61 -0.437462 4.85734 0
M  V30 14682 H 1365.61 1.84481 5.17926 0
M  V30 14683 H 1366.84 2.20816 6.42197 0
M  V30 14684 H 1364.78 -0.0316173 6.55992 0
M  V30 14685 H 1364.7 1.47363 7.41499 0
M  V30 14686 H 1365.97 0.344273 7.78739 0
M  V30 14687 N 1370.2 -1.34667 0.818693 0
M  V30 14688 C 1371.11 -2.33375 0.239429 0
M  V30 14689 C 1372.12 -1.62428 -0.623957 0
M  V30 14690 O 1373.3 -1.94223 -0.532854 0
M  V30 14691 C 1370.37 -3.41598 -0.59258 0
M  V30 14692 C 1369.43 -4.28301 0.292712 0
M  V30 14693 C 1368.66 -5.31356 -0.499682 0
M  V30 14694 O 1368.88 -5.43426 -1.73334 0
M  V30 14695 O 1367.82 -6.01789 0.115778 0
M  V30 14696 H 1371.64 -2.84738 1.05631 0
M  V30 14697 H 1369.23 -1.37651 0.58074 0
M  V30 14698 H 1371.11 -4.07692 -1.06607 0
M  V30 14699 H 1369.78 -2.92486 -1.38685 0
M  V30 14700 H 1368.69 -3.65145 0.81361 0
M  V30 14701 H 1370.02 -4.80843 1.05123 0
M  V30 14702 N 1371.68 -0.573274 -1.46804 0
M  V30 14703 C 1372.92 -0.0553432 -2.02724 0
M  V30 14704 C 1373.26 1.29753 -1.44492 0
M  V30 14705 O 1372.53 1.84804 -0.606455 0
M  V30 14706 C 1372.81 0.0205511 -3.60094 0
M  V30 14707 C 1372.67 -1.36055 -4.2873 0
M  V30 14708 C 1373.99 0.725944 -4.34071 0
M  V30 14709 H 1371.1 -0.0215858 -0.736684 0
M  V30 14710 H 1373.75 -0.738657 -1.75054 0
M  V30 14711 H 1371.9 0.602481 -3.838 0
M  V30 14712 H 1373.57 -1.98692 -4.16316 0
M  V30 14713 H 1371.81 -1.93087 -3.88458 0
M  V30 14714 H 1372.48 -1.26001 -5.37427 0
M  V30 14715 H 1374.96 0.231677 -4.15455 0
M  V30 14716 H 1373.83 0.74805 -5.43779 0
M  V30 14717 H 1374.1 1.78536 -4.04447 0
M  V30 14718 N 1373.15 1.5451 -0.310553 0
M  V30 14719 C 1374.4 1.99505 0.296731 0
M  V30 14720 C 1374.72 1.20257 1.54265 0
M  V30 14721 O 1375.92 1.55566 2.22512 0
M  V30 14722 C 1374.38 3.55208 0.579251 0
M  V30 14723 C 1373.99 4.43276 -0.648874 0
M  V30 14724 C 1375.73 4.08705 1.1472 0
M  V30 14725 C 1373.64 5.90428 -0.338978 0
M  V30 14726 H 1372.57 0.745232 0.114652 0
M  V30 14727 H 1375.22 1.78611 -0.420749 0
M  V30 14728 H 1373.6 3.72039 1.35658 0
M  V30 14729 H 1374.77 4.3822 -1.42478 0
M  V30 14730 H 1373.09 4.00601 -1.13613 0
M  V30 14731 H 1375.69 5.16223 1.39346 0
M  V30 14732 H 1376.03 3.59889 2.09249 0
M  V30 14733 H 1376.56 3.95454 0.431363 0
M  V30 14734 H 1373.3 6.43411 -1.25309 0
M  V30 14735 H 1372.82 5.98468 0.399475 0
M  V30 14736 H 1374.5 6.46976 0.0559696 0
M  V30 14737 N 1374.63 0.0384594 1.57553 0
M  V30 14738 C 1375.58 -0.958199 2.11946 0
M  V30 14739 C 1376.58 -1.33073 1.04823 0
M  V30 14740 O 1377.78 -1.31187 1.23247 0
M  V30 14741 H 1374.16 -0.326819 0.677269 0
M  V30 14742 H 1376.13 -0.474211 2.94608 0
M  V30 14743 C 1374.88 -2.22821 2.6692 0
M  V30 14744 H 1374.2 -1.95032 3.49002 0
M  V30 14745 H 1375.64 -2.90746 3.08614 0
M  V30 14746 C 1374.1 -2.96429 1.60098 0
M  V30 14747 O 1374.63 -3.88892 1.00628 0
M  V30 14748 N 1372.83 -2.58931 1.3192 0
M  V30 14749 H 1372.38 -1.83818 1.80468 0
M  V30 14750 H 1372.34 -3.0849 0.60674 0
M  V30 14751 N 1376.11 -1.55841 -0.234795 0
M  V30 14752 C 1377.02 -1.94476 -1.31211 0
M  V30 14753 C 1378.04 -0.846782 -1.52005 0
M  V30 14754 O 1379.21 -1.14922 -1.65393 0
M  V30 14755 C 1376.28 -2.24213 -2.64442 0
M  V30 14756 C 1375.34 -3.47508 -2.52065 0
M  V30 14757 C 1374.57 -3.75817 -3.78942 0
M  V30 14758 O 1374.8 -3.06007 -4.81369 0
M  V30 14759 O 1373.73 -4.69328 -3.76848 0
M  V30 14760 H 1377.56 -2.8626 -1.01434 0
M  V30 14761 H 1375.14 -1.42879 -0.436563 0
M  V30 14762 H 1377.02 -2.44594 -3.4315 0
M  V30 14763 H 1375.7 -1.35605 -2.93927 0
M  V30 14764 H 1374.6 -3.32421 -1.71602 0
M  V30 14765 H 1375.94 -4.36457 -2.27523 0
M  V30 14766 N 1377.59 0.500963 -1.49426 0
M  V30 14767 C 1378.84 1.25694 -1.5915 0
M  V30 14768 C 1379.17 1.92209 -0.277365 0
M  V30 14769 O 1378.44 1.8072 0.719065 0
M  V30 14770 C 1378.73 2.32391 -2.75076 0
M  V30 14771 C 1378.58 1.70377 -4.16283 0
M  V30 14772 C 1379.9 3.33952 -2.86643 0
M  V30 14773 H 1377.02 0.455631 -0.579283 0
M  V30 14774 H 1379.66 0.555099 -1.8171 0
M  V30 14775 H 1377.81 2.92252 -2.55971 0
M  V30 14776 H 1379.48 1.14343 -4.46904 0
M  V30 14777 H 1377.72 1.00789 -4.21929 0
M  V30 14778 H 1378.4 2.47767 -4.9327 0
M  V30 14779 H 1380.87 2.84081 -3.04035 0
M  V30 14780 H 1379.75 4.05969 -3.69433 0
M  V30 14781 H 1380.01 3.96279 -1.95998 0
M  V30 14782 N 1379.07 1.38501 0.752011 0
M  V30 14783 C 1379.98 1.38094 1.8965 0
M  V30 14784 C 1380.99 0.277851 1.71767 0
M  V30 14785 O 1382.17 0.516536 1.94663 0
M  V30 14786 C 1379.23 1.2063 3.25037 0
M  V30 14787 C 1378.3 2.40758 3.55435 0
M  V30 14788 C 1377.53 2.24118 4.84362 0
M  V30 14789 O 1377.75 1.23571 5.56854 0
M  V30 14790 O 1376.69 3.12741 5.14273 0
M  V30 14791 H 1380.51 2.34532 1.92947 0
M  V30 14792 H 1378.1 1.19437 0.897504 0
M  V30 14793 H 1379.98 1.12957 4.05979 0
M  V30 14794 H 1378.65 0.272785 3.22549 0
M  V30 14795 H 1377.56 2.54006 2.74648 0
M  V30 14796 H 1378.89 3.32745 3.62686 0
M  V30 14797 N 1380.55 -0.980364 1.23396 0
M  V30 14798 C 1381.49 -2.07275 1.01516 0
M  V30 14799 C 1382.46 -1.65963 -0.0673729 0
M  V30 14800 O 1383.65 -1.90612 0.0847392 0
M  V30 14801 C 1380.79 -3.39621 0.61249 0
M  V30 14802 C 1379.9 -3.94203 1.76715 0
M  V30 14803 C 1379.04 -5.14761 1.31126 0
M  V30 14804 C 1378.07 -5.61509 2.43667 0
M  V30 14805 N 1377.21 -6.73297 1.99035 0
M  V30 14806 H 1382.05 -2.25325 1.9502 0
M  V30 14807 H 1379.59 -1.10452 0.971532 0
M  V30 14808 H 1381.55 -4.15643 0.360126 0
M  V30 14809 H 1380.18 -3.21535 -0.285539 0
M  V30 14810 H 1379.23 -3.14937 2.13352 0
M  V30 14811 H 1380.54 -4.24867 2.61323 0
M  V30 14812 H 1379.69 -5.98115 1.01702 0
M  V30 14813 H 1378.43 -4.85751 0.435555 0
M  V30 14814 H 1377.44 -4.76737 2.73865 0
M  V30 14815 H 1378.66 -5.92539 3.31774 0
M  V30 14816 H 1376.61 -6.46046 1.13845 0
M  V30 14817 H 1376.53 -7.03345 2.77203 0
M  V30 14818 H 1377.79 -7.60125 1.72716 0
M  V30 14819 N 1382.02 -1.04567 -1.17913 0
M  V30 14820 C 1382.99 -0.645476 -2.19923 0
M  V30 14821 C 1383.99 0.299763 -1.57981 0
M  V30 14822 O 1385.18 0.0844825 -1.73995 0
M  V30 14823 C 1382.31 0.0528935 -3.40859 0
M  V30 14824 H 1383.5 -1.54828 -2.56843 0
M  V30 14825 H 1381.05 -0.838812 -1.31885 0
M  V30 14826 H 1381.79 0.969261 -3.09477 0
M  V30 14827 H 1381.57 -0.626558 -3.87062 0
M  V30 14828 H 1383.06 0.319221 -4.16378 0
M  V30 14829 N 1383.5 1.34231 -0.825823 0
M  V30 14830 C 1384.91 1.8059 -0.473724 0
M  V30 14831 C 1385.26 1.68438 1.00614 0
M  V30 14832 O 1384.39 1.22606 1.78317 0
M  V30 14833 C 1384.98 3.27884 -0.853099 0
M  V30 14834 C 1383.54 3.72311 -0.553327 0
M  V30 14835 C 1382.69 2.55889 -1.06845 0
M  V30 14836 H 1385.64 1.21937 -1.01573 0
M  V30 14837 H 1385.66 3.80172 -0.158014 0
M  V30 14838 H 1385.17 3.36696 -1.93021 0
M  V30 14839 H 1383.27 3.69034 0.514256 0
M  V30 14840 H 1383.39 4.66315 -1.09942 0
M  V30 14841 H 1381.75 2.49945 -0.489874 0
M  V30 14842 H 1382.53 2.67471 -2.15207 0
M  V30 14843 N 1384.98 0.581051 1.46498 0
M  V30 14844 C 1385.93 -0.153147 2.30291 0
M  V30 14845 C 1386.9 -0.885681 1.40517 0
M  V30 14846 O 1388.08 -0.876678 1.69467 0
M  V30 14847 C 1385.22 -1.16193 3.24951 0
M  V30 14848 C 1384.33 -0.433016 4.29824 0
M  V30 14849 C 1383.47 -1.42918 5.11613 0
M  V30 14850 C 1382.51 -0.686576 6.08237 0
M  V30 14851 N 1381.65 -1.63072 6.829 0
M  V30 14852 H 1386.49 0.56747 2.92547 0
M  V30 14853 H 1384.02 0.29166 1.4418 0
M  V30 14854 H 1385.98 -1.75965 3.78275 0
M  V30 14855 H 1384.61 -1.85028 2.64508 0
M  V30 14856 H 1383.66 0.279707 3.7937 0
M  V30 14857 H 1384.97 0.147604 4.98582 0
M  V30 14858 H 1384.13 -2.09975 5.69206 0
M  V30 14859 H 1382.87 -2.04373 4.42813 0
M  V30 14860 H 1381.87 -0.00222013 5.498 0
M  V30 14861 H 1383.1 -0.0774416 6.79056 0
M  V30 14862 H 1381.04 -2.2334 6.1681 0
M  V30 14863 H 1380.96 -1.10286 7.47912 0
M  V30 14864 H 1382.23 -2.29169 7.45052 0
M  V30 14865 N 1386.46 -1.54343 0.318742 0
M  V30 14866 C 1387.37 -2.27856 -0.558442 0
M  V30 14867 C 1388.38 -1.32029 -1.13333 0
M  V30 14868 O 1389.56 -1.65037 -1.15433 0
M  V30 14869 C 1386.62 -3.01842 -1.70565 0
M  V30 14870 C 1385.69 -4.13245 -1.16305 0
M  V30 14871 C 1384.92 -4.83693 -2.25559 0
M  V30 14872 O 1385.14 -4.53621 -3.4581 0
M  V30 14873 O 1384.08 -5.70708 -1.91249 0
M  V30 14874 H 1387.9 -3.03676 0.0384247 0
M  V30 14875 H 1385.49 -1.4916 0.0845936 0
M  V30 14876 H 1387.37 -3.48189 -2.37365 0
M  V30 14877 H 1386.04 -2.28902 -2.28879 0
M  V30 14878 H 1384.95 -3.71258 -0.460274 0
M  V30 14879 H 1386.28 -4.88214 -0.625111 0
M  V30 14880 N 1387.94 -0.0468143 -1.5753 0
M  V30 14881 C 1388.87 0.927092 -2.14306 0
M  V30 14882 C 1389.85 1.32745 -1.06362 0
M  V30 14883 O 1391.03 1.40293 -1.34281 0
M  V30 14884 C 1388.16 2.20343 -2.68452 0
M  V30 14885 C 1387.12 1.94328 -3.81341 0
M  V30 14886 C 1386.44 3.28379 -4.21985 0
M  V30 14887 C 1387.74 1.26835 -5.06666 0
M  V30 14888 H 1389.44 0.454199 -2.95935 0
M  V30 14889 H 1386.98 0.217029 -1.42355 0
M  V30 14890 H 1388.93 2.8887 -3.0681 0
M  V30 14891 H 1387.66 2.6983 -1.84009 0
M  V30 14892 H 1386.32 1.28214 -3.43448 0
M  V30 14893 H 1385.97 3.75658 -3.34499 0
M  V30 14894 H 1385.67 3.11772 -4.98068 0
M  V30 14895 H 1387.19 3.98145 -4.6294 0
M  V30 14896 H 1388.6 1.85389 -5.42498 0
M  V30 14897 H 1387 1.20569 -5.87863 0
M  V30 14898 H 1388.07 0.243759 -4.84287 0
M  V30 14899 N 1389.41 1.55964 0.226527 0
M  V30 14900 C 1390.83 1.48844 0.575999 0
M  V30 14901 C 1391.03 0.740966 1.87382 0
M  V30 14902 O 1390.09 0.278599 2.50958 0
M  V30 14903 C 1391.4 2.93371 0.65984 0
M  V30 14904 C 1392.95 3.03862 0.750802 0
M  V30 14905 C 1393.42 4.49738 0.86603 0
M  V30 14906 N 1394.91 4.5376 0.930379 0
M  V30 14907 C 1395.65 5.63905 1.03916 0
M  V30 14908 N 1395.14 6.83814 1.1122 0
M  V30 14909 N 1396.94 5.51746 1.07391 0
M  V30 14910 H 1389.09 2.02991 -0.625179 0
M  V30 14911 H 1391.35 0.922435 -0.218674 0
M  V30 14912 H 1391.06 3.50985 -0.22411 0
M  V30 14913 H 1390.93 3.44994 1.52509 0
M  V30 14914 H 1393.32 2.46316 1.6252 0
M  V30 14915 H 1393.4 2.55416 -0.140019 0
M  V30 14916 H 1393.04 5.079 -0.00388632 0
M  V30 14917 H 1392.97 4.95884 1.77219 0
M  V30 14918 H 1395.46 3.67404 0.884451 0
M  V30 14919 H 1395.78 7.63507 1.19484 0
M  V30 14920 H 1394.12 6.86535 1.08142 0
M  V30 14921 H 1397.31 4.56997 1.01347 0
M  V30 14922 H 1397.49 6.37619 1.15523 0
M  V30 14923 N 1390.89 -0.493031 1.4969 0
M  V30 14924 C 1391.84 -1.59367 1.66945 0
M  V30 14925 C 1392.81 -1.58049 0.510842 0
M  V30 14926 O 1393.99 -1.75915 0.738822 0
M  V30 14927 C 1391.13 -2.97472 1.74941 0
M  V30 14928 C 1390.25 -3.08745 3.02159 0
M  V30 14929 C 1389.38 -4.37632 3.01085 0
M  V30 14930 C 1388.42 -4.42567 4.22849 0
M  V30 14931 N 1387.56 -5.62892 4.19639 0
M  V30 14932 H 1392.4 -1.4396 2.6092 0
M  V30 14933 H 1389.94 -0.700297 1.29361 0
M  V30 14934 H 1391.89 -3.7753 1.77558 0
M  V30 14935 H 1390.52 -3.11564 0.844252 0
M  V30 14936 H 1389.58 -2.217 3.09117 0
M  V30 14937 H 1390.89 -3.08251 3.92151 0
M  V30 14938 H 1390.04 -5.26018 3.02309 0
M  V30 14939 H 1388.78 -4.40702 2.08885 0
M  V30 14940 H 1387.79 -3.52581 4.21861 0
M  V30 14941 H 1389.01 -4.41205 5.1625 0
M  V30 14942 H 1386.96 -5.6679 3.30281 0
M  V30 14943 H 1386.87 -5.64048 5.03374 0
M  V30 14944 H 1388.14 -6.53464 4.24977 0
M  V30 14945 N 1392.37 -1.38898 -0.744656 0
M  V30 14946 C 1393.28 -1.39098 -1.88915 0
M  V30 14947 C 1394.3 -0.286956 -1.71617 0
M  V30 14948 O 1395.47 -0.526852 -1.94387 0
M  V30 14949 C 1392.54 -1.22352 -3.24393 0
M  V30 14950 C 1391.6 -2.4264 -3.54153 0
M  V30 14951 C 1390.83 -2.26683 -4.83167 0
M  V30 14952 O 1391.05 -1.26523 -5.56191 0
M  V30 14953 O 1389.99 -3.15464 -5.12607 0
M  V30 14954 H 1393.81 -2.35551 -1.91701 0
M  V30 14955 H 1391.4 -1.19911 -0.891158 0
M  V30 14956 H 1393.28 -1.15109 -4.05374 0
M  V30 14957 H 1391.96 -0.289886 -3.22399 0
M  V30 14958 H 1390.86 -2.55459 -2.73298 0
M  V30 14959 H 1392.2 -3.34664 -3.60917 0
M  V30 14960 N 1393.85 0.973806 -1.23914 0
M  V30 14961 C 1394.78 2.08526 -1.05068 0
M  V30 14962 C 1395.76 1.70065 0.0344761 0
M  V30 14963 O 1396.94 1.93755 -0.131432 0
M  V30 14964 C 1394.07 3.41198 -0.648165 0
M  V30 14965 C 1393.03 3.9359 -1.6814 0
M  V30 14966 C 1392.35 5.22534 -1.13414 0
M  V30 14967 C 1393.65 4.22116 -3.07597 0
M  V30 14968 H 1395.35 2.24551 -1.98034 0
M  V30 14969 H 1392.89 1.07905 -0.953546 0
M  V30 14970 H 1394.85 4.18383 -0.50334 0
M  V30 14971 H 1393.57 3.25056 0.317182 0
M  V30 14972 H 1392.23 3.18555 -1.81434 0
M  V30 14973 H 1391.88 5.02747 -0.159578 0
M  V30 14974 H 1391.58 5.58555 -1.82456 0
M  V30 14975 H 1393.1 6.02334 -1.0013 0
M  V30 14976 H 1394.52 4.90027 -2.97567 0
M  V30 14977 H 1392.91 4.69352 -3.73937 0
M  V30 14978 H 1393.98 3.29128 -3.56094 0
M  V30 14979 N 1395.33 1.05191 1.17357 0
M  V30 14980 C 1396.26 0.597207 2.20247 0
M  V30 14981 C 1397.24 -0.374194 1.58236 0
M  V30 14982 O 1398.42 -0.285815 1.86321 0
M  V30 14983 C 1395.55 -0.126012 3.38466 0
M  V30 14984 C 1394.59 0.800401 4.18922 0
M  V30 14985 S 1395.43 2.28956 4.84086 0
M  V30 14986 C 1396.58 1.57751 6.05694 0
M  V30 14987 H 1396.82 1.46893 2.58476 0
M  V30 14988 H 1394.35 0.863874 1.27971 0
M  V30 14989 H 1396.31 -0.537086 4.06971 0
M  V30 14990 H 1394.97 -0.97377 2.98624 0
M  V30 14991 H 1394.16 0.240754 5.03425 0
M  V30 14992 H 1393.76 1.15084 3.55853 0
M  V30 14993 H 1396.06 0.876839 6.71802 0
M  V30 14994 H 1397 2.40001 6.66187 0
M  V30 14995 H 1397.41 1.06493 5.54364 0
M  V30 14996 N 1396.8 -1.33791 0.83293 0
M  V30 14997 C 1397.75 -2.29332 0.25989 0
M  V30 14998 C 1398.72 -1.54056 -0.620965 0
M  V30 14999 O 1399.91 -1.82382 -0.560492 0
M  V30 15000 C 1397.05 -3.40461 -0.563964 0
M  V30 15001 C 1396.16 -4.30658 0.34025 0
M  V30 15002 C 1395.29 -5.28897 -0.494134 0
M  V30 15003 C 1394.33 -6.10733 0.408842 0
M  V30 15004 N 1393.47 -7.01032 -0.38706 0
M  V30 15005 H 1398.31 -2.77743 1.07996 0
M  V30 15006 H 1395.85 -1.3667 0.544043 0
M  V30 15007 H 1397.81 -4.03587 -1.05704 0
M  V30 15008 H 1396.44 -2.93258 -1.34905 0
M  V30 15009 H 1395.49 -3.68305 0.9516 0
M  V30 15010 H 1396.8 -4.87962 1.03415 0
M  V30 15011 H 1395.95 -5.97522 -1.05128 0
M  V30 15012 H 1394.69 -4.72155 -1.2215 0
M  V30 15013 H 1393.7 -5.41031 0.978046 0
M  V30 15014 H 1394.92 -6.69557 1.13448 0
M  V30 15015 H 1392.87 -6.46747 -1.09792 0
M  V30 15016 H 1392.79 -7.55592 0.248249 0
M  V30 15017 H 1394.05 -7.73973 -0.926631 0
M  V30 15018 N 1398.28 -0.588812 -1.46187 0
M  V30 15019 C 1399.7 -0.250962 -1.57615 0
M  V30 15020 C 1399.9 1.2467 -1.58302 0
M  V30 15021 O 1398.95 2.02876 -1.50325 0
M  V30 15022 C 1400.27 -0.905561 -2.8674 0
M  V30 15023 C 1401.82 -0.879721 -3.00383 0
M  V30 15024 C 1402.29 -1.51398 -4.32253 0
M  V30 15025 N 1403.78 -1.4786 -4.38967 0
M  V30 15026 C 1404.52 -1.93868 -5.39632 0
M  V30 15027 N 1404.01 -2.47876 -6.46938 0
M  V30 15028 N 1405.81 -1.84748 -5.30872 0
M  V30 15029 H 1397.96 -1.56148 -1.43985 0
M  V30 15030 H 1400.22 -0.653028 -0.68721 0
M  V30 15031 H 1399.93 -1.95935 -2.92066 0
M  V30 15032 H 1399.8 -0.417456 -3.74883 0
M  V30 15033 H 1402.19 0.165466 -2.94636 0
M  V30 15034 H 1402.27 -1.40591 -2.137 0
M  V30 15035 H 1401.91 -2.55839 -4.38758 0
M  V30 15036 H 1401.84 -0.962965 -5.17721 0
M  V30 15037 H 1404.33 -1.08387 -3.62023 0
M  V30 15038 H 1404.65 -2.80824 -7.1997 0
M  V30 15039 H 1402.99 -2.51905 -6.47741 0
M  V30 15040 H 1406.18 -1.42307 -4.45944 0
M  V30 15041 H 1406.35 -2.20919 -6.09179 0
M  V30 15042 N 1399.76 1.54172 -0.326923 0
M  V30 15043 C 1401.18 1.59579 0.0256055 0
M  V30 15044 C 1401.38 1.34337 1.50186 0
M  V30 15045 O 1400.43 1.12945 2.25831 0
M  V30 15046 C 1401.75 2.98086 -0.395641 0
M  V30 15047 C 1403.29 3.11075 -0.346579 0
M  V30 15048 C 1403.77 4.51932 -0.743039 0
M  V30 15049 N 1405.26 4.57932 -0.696575 0
M  V30 15050 C 1405.99 5.65041 -0.975493 0
M  V30 15051 N 1405.49 6.80075 -1.32172 0
M  V30 15052 N 1407.28 5.54835 -0.900831 0
M  V30 15053 H 1399.43 1.68836 -1.28872 0
M  V30 15054 H 1401.7 0.789858 -0.52424 0
M  V30 15055 H 1401.4 3.21568 -1.42431 0
M  V30 15056 H 1401.28 3.76451 0.237645 0
M  V30 15057 H 1403.66 2.87326 0.672889 0
M  V30 15058 H 1403.75 2.34807 -1.01484 0
M  V30 15059 H 1403.39 4.76415 -1.76044 0
M  V30 15060 H 1403.32 5.26574 -0.0524263 0
M  V30 15061 H 1405.81 3.75318 -0.440969 0
M  V30 15062 H 1406.12 7.57708 -1.51983 0
M  V30 15063 H 1404.47 6.81563 -1.36001 0
M  V30 15064 H 1407.66 4.63844 -0.629812 0
M  V30 15065 H 1407.83 6.3822 -1.12156 0
M  V30 15066 N 1401.24 0.0551678 1.57503 0
M  V30 15067 C 1402.19 -0.917847 2.11764 0
M  V30 15068 C 1403.16 -1.30624 1.02599 0
M  V30 15069 O 1404.34 -1.39501 1.30169 0
M  V30 15070 C 1401.48 -2.18599 2.67036 0
M  V30 15071 C 1400.59 -1.85173 3.90301 0
M  V30 15072 C 1399.73 -3.06475 4.33874 0
M  V30 15073 C 1398.77 -2.68988 5.49829 0
M  V30 15074 N 1397.9 -3.82997 5.88437 0
M  V30 15075 H 1402.74 -0.448236 2.9461 0
M  V30 15076 H 1400.28 -0.209619 1.45599 0
M  V30 15077 H 1402.24 -2.92811 2.97183 0
M  V30 15078 H 1400.87 -2.6313 1.86982 0
M  V30 15079 H 1399.92 -1.01094 3.66721 0
M  V30 15080 H 1401.23 -1.53582 4.74567 0
M  V30 15081 H 1400.39 -3.88982 4.65594 0
M  V30 15082 H 1399.13 -3.41247 3.48427 0
M  V30 15083 H 1398.13 -1.84899 5.17776 0
M  V30 15084 H 1399.36 -2.35404 6.36994 0
M  V30 15085 H 1397.3 -4.17562 5.05942 0
M  V30 15086 H 1397.22 -3.55118 6.67403 0
M  V30 15087 H 1398.49 -4.66131 6.24773 0
M  V30 15088 N 1402.72 -1.56081 -0.218252 0
M  V30 15089 C 1403.63 -1.95856 -1.29141 0
M  V30 15090 C 1404.64 -0.862857 -1.51099 0
M  V30 15091 O 1405.82 -1.1667 -1.64165 0
M  V30 15092 C 1402.88 -2.27005 -2.62049 0
M  V30 15093 C 1401.94 -3.50162 -2.48365 0
M  V30 15094 C 1401.18 -3.79815 -3.74935 0
M  V30 15095 O 1401.4 -3.11095 -4.78096 0
M  V30 15096 O 1400.33 -4.73299 -3.71849 0
M  V30 15097 H 1404.16 -2.8732 -0.983922 0
M  V30 15098 H 1401.75 -1.43334 -0.421385 0
M  V30 15099 H 1403.63 -2.4822 -3.40536 0
M  V30 15100 H 1402.3 -1.38715 -2.92472 0
M  V30 15101 H 1401.21 -3.34222 -1.68066 0
M  V30 15102 H 1402.54 -4.38845 -2.22881 0
M  V30 15103 N 1404.2 0.485086 -1.49949 0
M  V30 15104 C 1405.11 1.61089 -1.70551 0
M  V30 15105 C 1406.12 1.63752 -0.588333 0
M  V30 15106 O 1407.3 1.81879 -0.86498 0
M  V30 15107 C 1404.36 2.97382 -1.78227 0
M  V30 15108 C 1403.42 3.05219 -3.01894 0
M  V30 15109 C 1402.66 4.35011 -3.09195 0
M  V30 15110 O 1402.88 5.24722 -2.23658 0
M  V30 15111 O 1401.81 4.48151 -4.01802 0
M  V30 15112 H 1405.64 1.46633 -2.65956 0
M  V30 15113 H 1403.22 0.663091 -1.33879 0
M  V30 15114 H 1405.11 3.78356 -1.85538 0
M  V30 15115 H 1403.78 3.12066 -0.860043 0
M  V30 15116 H 1402.69 2.23373 -3.00092 0
M  V30 15117 H 1404.02 2.95467 -3.93649 0
M  V30 15118 N 1405.67 1.39291 0.737279 0
M  V30 15119 C 1406.6 1.40562 1.86452 0
M  V30 15120 C 1407.58 0.269283 1.67955 0
M  V30 15121 O 1408.77 0.474769 1.88307 0
M  V30 15122 C 1405.9 1.2461 3.24175 0
M  V30 15123 C 1404.85 2.35619 3.57306 0
M  V30 15124 C 1404.18 2.04758 4.93941 0
M  V30 15125 C 1405.48 3.77927 3.60512 0
M  V30 15126 H 1407.17 2.34896 1.85646 0
M  V30 15127 H 1404.72 1.13065 0.891756 0
M  V30 15128 H 1406.67 1.2412 4.02706 0
M  V30 15129 H 1405.4 0.267438 3.25503 0
M  V30 15130 H 1404.06 2.35322 2.81104 0
M  V30 15131 H 1403.7 1.05336 4.91847 0
M  V30 15132 H 1403.4 2.79117 5.17076 0
M  V30 15133 H 1404.93 2.05915 5.74832 0
M  V30 15134 H 1406.34 3.80166 4.29123 0
M  V30 15135 H 1404.74 4.51626 3.95164 0
M  V30 15136 H 1405.81 4.09068 2.60368 0
M  V30 15137 N 1407.15 -0.967221 1.24429 0
M  V30 15138 C 1408.11 -2.04344 1.03808 0
M  V30 15139 C 1409.11 -1.60799 -0.00476972 0
M  V30 15140 O 1410.3 -1.72591 0.236241 0
M  V30 15141 C 1407.44 -3.36041 0.573496 0
M  V30 15142 H 1408.63 -2.2407 1.9933 0
M  V30 15143 H 1406.18 -1.14253 1.06658 0
M  V30 15144 H 1406.92 -3.22008 -0.384898 0
M  V30 15145 H 1406.7 -3.68991 1.32619 0
M  V30 15146 H 1408.19 -4.15165 0.450272 0
M  V30 15147 N 1408.63 -1.05812 -1.16797 0
M  V30 15148 C 1409.56 -0.622584 -2.20582 0
M  V30 15149 C 1410.57 0.316905 -1.59686 0
M  V30 15150 O 1411.76 0.108657 -1.78169 0
M  V30 15151 C 1408.86 0.108124 -3.38727 0
M  V30 15152 C 1408.04 -0.84363 -4.29187 0
M  V30 15153 C 1407.1 -0.15305 -5.25977 0
M  V30 15154 O 1406.12 -0.78915 -5.63703 0
M  V30 15155 N 1407.32 1.10721 -5.69843 0
M  V30 15156 H 1410.09 -1.51532 -2.5857 0
M  V30 15157 H 1407.65 -0.940815 -1.31758 0
M  V30 15158 H 1409.64 0.580395 -4.00517 0
M  V30 15159 H 1408.21 0.902599 -2.99286 0
M  V30 15160 H 1407.43 -1.49538 -3.64735 0
M  V30 15161 H 1408.72 -1.48946 -4.86511 0
M  V30 15162 H 1408.12 1.64423 -5.41278 0
M  V30 15163 H 1406.67 1.52344 -6.33746 0
M  V30 15164 N 1410.11 1.33347 -0.840014 0
M  V30 15165 C 1411.33 2.02485 -0.448856 0
M  V30 15166 C 1411.76 1.62781 0.942543 0
M  V30 15167 O 1411.12 0.82099 1.61646 0
M  V30 15168 C 1411.16 3.55928 -0.578582 0
M  V30 15169 O 1410.27 4.10507 0.394695 0
M  V30 15170 H 1409.61 0.63848 -0.182317 0
M  V30 15171 H 1412.14 1.70221 -1.13516 0
M  V30 15172 H 1412.15 4.05391 -0.460653 0
M  V30 15173 H 1410.82 3.8417 -1.5933 0
M  V30 15174 H 1409.4 3.72164 0.234227 0
M  V30 15175 N 1411.59 0.596556 1.45873 0
M  V30 15176 C 1412.52 -0.166704 2.28593 0
M  V30 15177 C 1413.53 -0.84231 1.39316 0
M  V30 15178 O 1414.72 -0.709548 1.63792 0
M  V30 15179 C 1411.82 -1.25641 3.1475 0
M  V30 15180 C 1410.99 -0.67006 4.32237 0
M  V30 15181 C 1410.05 -1.64924 4.99686 0
M  V30 15182 O 1409.08 -1.17986 5.56838 0
M  V30 15183 N 1410.28 -2.98355 4.9796 0
M  V30 15184 H 1413.04 0.543045 2.94739 0
M  V30 15185 H 1410.61 0.435274 1.55939 0
M  V30 15186 H 1412.6 -1.91104 3.56737 0
M  V30 15187 H 1411.17 -1.86883 2.50586 0
M  V30 15188 H 1410.39 0.162375 3.93865 0
M  V30 15189 H 1411.68 -0.258345 5.08144 0
M  V30 15190 H 1411.07 -3.39101 4.52799 0
M  V30 15191 H 1409.63 -3.5927 5.43846 0
M  V30 15192 N 1413.06 -1.53996 0.335095 0
M  V30 15193 C 1414.01 -2.21479 -0.541388 0
M  V30 15194 C 1415 -1.19926 -1.07268 0
M  V30 15195 O 1416.19 -1.45508 -1.00779 0
M  V30 15196 C 1413.32 -2.98477 -1.69607 0
M  V30 15197 C 1412.4 -4.07379 -1.17912 0
M  V30 15198 N 1412.8 -5.0435 -0.382732 0
M  V30 15199 C 1411.09 -4.21537 -1.45679 0
M  V30 15200 C 1411.79 -5.81608 -0.103194 0
M  V30 15201 N 1410.77 -5.39171 -0.692513 0
M  V30 15202 H 1414.57 -2.93806 0.0742285 0
M  V30 15203 H 1412.09 -1.61782 0.141529 0
M  V30 15204 H 1414.08 -3.45316 -2.33587 0
M  V30 15205 H 1412.74 -2.27674 -2.31505 0
M  V30 15206 H 1413.75 -5.17894 -0.0245533 0
M  V30 15207 H 1410.43 -3.61953 -2.08078 0
M  V30 15208 H 1411.82 -6.69737 0.538682 0
M  V30 15209 N 1414.54 -0.0635198 -1.57472 0
M  V30 15210 C 1415.5 0.891881 -2.11135 0
M  V30 15211 C 1416.5 1.23182 -1.03358 0
M  V30 15212 O 1417.69 1.16646 -1.2938 0
M  V30 15213 C 1414.83 2.19792 -2.60584 0
M  V30 15214 H 1416.02 0.426461 -2.96852 0
M  V30 15215 H 1413.57 0.185069 -1.552 0
M  V30 15216 H 1414.31 2.70889 -1.78297 0
M  V30 15217 H 1414.09 1.96419 -3.39355 0
M  V30 15218 H 1415.58 2.88203 -3.02206 0
M  V30 15219 N 1416.02 1.56195 0.209972 0
M  V30 15220 C 1416.95 1.89859 1.28398 0
M  V30 15221 C 1417.96 0.787878 1.42465 0
M  V30 15222 O 1419.15 1.06623 1.43156 0
M  V30 15223 C 1416.25 2.10231 2.65812 0
M  V30 15224 C 1415.43 3.41309 2.73545 0
M  V30 15225 C 1414.49 3.50973 3.92052 0
M  V30 15226 O 1413.51 4.23915 3.79849 0
M  V30 15227 N 1414.71 2.82965 5.06864 0
M  V30 15228 H 1417.48 2.82581 0.998411 0
M  V30 15229 H 1415.04 1.56882 0.399964 0
M  V30 15230 H 1417.03 2.13999 3.43492 0
M  V30 15231 H 1415.6 1.2408 2.8692 0
M  V30 15232 H 1414.82 3.49539 1.82253 0
M  V30 15233 H 1416.11 4.27636 2.7569 0
M  V30 15234 H 1415.51 2.23504 5.19676 0
M  V30 15235 H 1414.06 2.9238 5.82544 0
M  V30 15236 N 1417.5 -0.477127 1.50204 0
M  V30 15237 C 1418.41 -1.60182 1.71403 0
M  V30 15238 C 1419.42 -1.63437 0.597009 0
M  V30 15239 O 1420.6 -1.81418 0.874614 0
M  V30 15240 C 1417.66 -2.96432 1.79802 0
M  V30 15241 C 1416.73 -3.03614 3.03508 0
M  V30 15242 C 1415.96 -4.33365 3.11497 0
M  V30 15243 O 1416.18 -5.23529 2.26438 0
M  V30 15244 O 1415.12 -4.46013 4.04173 0
M  V30 15245 H 1418.94 -1.45221 2.66729 0
M  V30 15246 H 1416.53 -0.655982 1.34228 0
M  V30 15247 H 1418.41 -3.77367 1.87542 0
M  V30 15248 H 1417.08 -3.11605 0.876581 0
M  V30 15249 H 1415.99 -2.21779 3.01272 0
M  V30 15250 H 1417.32 -2.93376 3.95211 0
M  V30 15251 N 1418.98 -1.3968 -0.729882 0
M  V30 15252 C 1419.91 -1.34713 -1.85432 0
M  V30 15253 C 1420.92 -0.254999 -1.60791 0
M  V30 15254 O 1422.11 -0.514324 -1.7093 0
M  V30 15255 C 1419.21 -1.07019 -3.21559 0
M  V30 15256 C 1418.38 -2.27609 -3.73515 0
M  V30 15257 C 1417.44 -1.96292 -4.88217 0
M  V30 15258 O 1416.47 -2.69025 -5.01612 0
M  V30 15259 N 1417.67 -0.932181 -5.72967 0
M  V30 15260 H 1420.44 -2.31616 -1.90195 0
M  V30 15261 H 1418 -1.33849 -0.910834 0
M  V30 15262 H 1419.99 -0.84079 -3.9587 0
M  V30 15263 H 1418.56 -0.188323 -3.12032 0
M  V30 15264 H 1417.78 -2.66468 -2.90497 0
M  V30 15265 H 1419.07 -3.08033 -4.04961 0
M  V30 15266 H 1418.46 -0.329507 -5.6474 0
M  V30 15267 H 1417.02 -0.762684 -6.47322 0
M  V30 15268 N 1420.45 0.960609 -1.2494 0
M  V30 15269 C 1421.36 2.0902 -1.06527 0
M  V30 15270 C 1422.38 1.74 -0.00406641 0
M  V30 15271 O 1423.56 2.00367 -0.203744 0
M  V30 15272 C 1420.62 3.39971 -0.679736 0
M  V30 15273 C 1419.68 3.88895 -1.81821 0
M  V30 15274 C 1418.92 5.13597 -1.45098 0
M  V30 15275 O 1419.14 5.69362 -0.343954 0
M  V30 15276 O 1418.07 5.57083 -2.27909 0
M  V30 15277 H 1421.9 2.27453 -2.01243 0
M  V30 15278 H 1419.48 1.07429 -1.03824 0
M  V30 15279 H 1421.37 4.18696 -0.47658 0
M  V30 15280 H 1420.04 3.22822 0.238231 0
M  V30 15281 H 1418.95 3.11201 -2.07617 0
M  V30 15282 H 1420.28 4.10533 -2.7152 0
M  V30 15283 N 1421.93 1.0643 1.16234 0
M  V30 15284 C 1423.18 0.78184 1.86798 0
M  V30 15285 C 1423.51 -0.691734 1.81784 0
M  V30 15286 O 1422.76 -1.52271 1.22931 0
M  V30 15287 C 1423.06 1.22348 3.35806 0
M  V30 15288 C 1422.73 2.7014 3.61019 0
M  V30 15289 C 1421.39 3.1051 3.6761 0
M  V30 15290 C 1423.74 3.65582 3.71482 0
M  V30 15291 C 1421.07 4.45159 3.82165 0
M  V30 15292 C 1423.42 4.99981 3.87559 0
M  V30 15293 C 1422.09 5.39986 3.92392 0
M  V30 15294 H 1421.36 0.286096 0.683542 0
M  V30 15295 H 1424 1.33364 1.37427 0
M  V30 15296 H 1422.31 0.590896 3.87319 0
M  V30 15297 H 1424 0.981959 3.88791 0
M  V30 15298 H 1420.59 2.37884 3.56524 0
M  V30 15299 H 1424.78 3.35525 3.657 0
M  V30 15300 H 1420.03 4.75637 3.8416 0
M  V30 15301 H 1424.21 5.73817 3.94597 0
M  V30 15302 H 1421.84 6.44324 4.03423 0
M  V30 15303 N 1423.41 -1.329 0.847073 0
M  V30 15304 C 1424.66 -1.97803 0.447417 0
M  V30 15305 C 1424.99 -1.6691 -0.9927 0
M  V30 15306 O 1424.26 -0.953315 -1.69535 0
M  V30 15307 C 1424.55 -3.53657 0.678135 0
M  V30 15308 C 1424.4 -3.94207 2.16612 0
M  V30 15309 C 1425.72 -4.39909 0.129589 0
M  V30 15310 H 1422.84 -0.718514 0.164034 0
M  V30 15311 H 1425.48 -1.57407 1.0641 0
M  V30 15312 H 1423.63 -3.88198 0.153222 0
M  V30 15313 H 1425.3 -3.69883 2.75653 0
M  V30 15314 H 1423.55 -3.43641 2.64752 0
M  V30 15315 H 1424.22 -5.02791 2.27827 0
M  V30 15316 H 1426.69 -4.12061 0.578371 0
M  V30 15317 H 1425.57 -5.47963 0.320648 0
M  V30 15318 H 1425.83 -4.31391 -0.967167 0
M  V30 15319 N 1424.89 -0.604284 -1.45555 0
M  V30 15320 C 1425.82 0.154579 -2.28678 0
M  V30 15321 C 1426.83 0.83491 -1.39761 0
M  V30 15322 O 1428.02 0.700852 -1.64166 0
M  V30 15323 C 1425.12 1.2397 -3.15412 0
M  V30 15324 C 1424.3 0.647128 -4.32586 0
M  V30 15325 C 1423.35 1.62272 -5.00554 0
M  V30 15326 O 1422.38 1.15031 -5.57455 0
M  V30 15327 N 1423.58 2.9571 -4.99536 0
M  V30 15328 H 1426.35 -0.558668 -2.94447 0
M  V30 15329 H 1423.91 -0.443538 -1.55706 0
M  V30 15330 H 1425.9 1.89209 -3.57746 0
M  V30 15331 H 1424.47 1.85552 -2.51574 0
M  V30 15332 H 1423.69 -0.183261 -3.93774 0
M  V30 15333 H 1424.98 0.231394 -5.08274 0
M  V30 15334 H 1424.38 3.36695 -4.54591 0
M  V30 15335 H 1422.93 3.56381 -5.45744 0
M  V30 15336 N 1426.37 1.53816 -0.343257 0
M  V30 15337 C 1427.31 2.25011 0.513664 0
M  V30 15338 C 1428.28 1.24827 1.09578 0
M  V30 15339 O 1429.47 1.53558 1.13245 0
M  V30 15340 C 1426.61 3.02616 1.65885 0
M  V30 15341 C 1425.72 4.17653 1.10406 0
M  V30 15342 C 1424.86 4.82746 2.21653 0
M  V30 15343 C 1423.9 5.89853 1.63524 0
M  V30 15344 N 1423.03 6.48726 2.68512 0
M  V30 15345 H 1427.87 2.97832 -0.099997 0
M  V30 15346 H 1425.41 1.46973 -0.0611206 0
M  V30 15347 H 1427.37 3.45868 2.33304 0
M  V30 15348 H 1426 2.32092 2.2435 0
M  V30 15349 H 1425.05 3.79045 0.320819 0
M  V30 15350 H 1426.36 4.94691 0.638887 0
M  V30 15351 H 1425.52 5.29068 2.96938 0
M  V30 15352 H 1424.25 4.05131 2.71515 0
M  V30 15353 H 1423.26 5.42914 0.86745 0
M  V30 15354 H 1424.48 6.69375 1.14515 0
M  V30 15355 H 1422.43 5.73975 3.17629 0
M  V30 15356 H 1422.35 7.21236 2.26616 0
M  V30 15357 H 1423.62 6.99701 3.43567 0
M  V30 15358 N 1427.84 0.0718701 1.57436 0
M  V30 15359 C 1428.78 -0.924911 2.09709 0
M  V30 15360 C 1429.79 -1.26136 1.02925 0
M  V30 15361 O 1430.98 -1.21853 1.30438 0
M  V30 15362 C 1428.08 -2.24072 2.54254 0
M  V30 15363 C 1427.25 -2.0831 3.84611 0
M  V30 15364 C 1426.31 -3.23196 4.15248 0
M  V30 15365 O 1425.34 -2.98184 4.84846 0
M  V30 15366 N 1426.54 -4.48293 3.688 0
M  V30 15367 H 1429.3 -0.478605 2.95854 0
M  V30 15368 H 1426.86 -0.113853 1.61499 0
M  V30 15369 H 1428.86 -2.99835 2.71811 0
M  V30 15370 H 1427.43 -2.60201 1.73246 0
M  V30 15371 H 1426.65 -1.17014 3.76432 0
M  V30 15372 H 1427.93 -1.9503 4.69937 0
M  V30 15373 H 1427.33 -4.71501 3.12575 0
M  V30 15374 H 1425.89 -5.21082 3.91556 0
M  V30 15375 N 1429.32 -1.56304 -0.201686 0
M  V30 15376 C 1430.25 -1.90538 -1.27389 0
M  V30 15377 C 1431.27 -0.795422 -1.42045 0
M  V30 15378 O 1432.46 -1.07381 -1.42589 0
M  V30 15379 C 1429.56 -2.11638 -2.64694 0
M  V30 15380 C 1428.73 -3.42755 -2.71731 0
M  V30 15381 C 1427.79 -3.53047 -3.90185 0
M  V30 15382 O 1426.81 -4.25923 -3.77595 0
M  V30 15383 N 1428.02 -2.85649 -5.05356 0
M  V30 15384 H 1430.78 -2.83106 -0.983411 0
M  V30 15385 H 1428.34 -1.57092 -0.391638 0
M  V30 15386 H 1430.33 -2.15818 -3.42352 0
M  V30 15387 H 1428.9 -1.256 -2.86258 0
M  V30 15388 H 1428.12 -3.50501 -1.80397 0
M  V30 15389 H 1429.41 -4.29092 -2.73418 0
M  V30 15390 H 1428.81 -2.26256 -5.18483 0
M  V30 15391 H 1427.37 -2.95465 -5.80985 0
M  V30 15392 N 1430.8 0.469154 -1.50455 0
M  V30 15393 C 1431.73 1.58443 -1.65615 0
M  V30 15394 C 1432.75 1.53668 -0.537584 0
M  V30 15395 O 1433.93 1.59021 -0.810832 0
M  V30 15396 C 1431.03 2.97327 -1.62634 0
M  V30 15397 C 1430.21 3.2695 -2.90555 0
M  V30 15398 C 1429.27 4.45398 -2.80191 0
M  V30 15399 O 1428.29 4.45611 -3.54146 0
M  V30 15400 N 1429.49 5.47167 -1.93878 0
M  V30 15401 H 1432.26 1.45854 -2.61814 0
M  V30 15402 H 1429.82 0.657604 -1.47943 0
M  V30 15403 H 1431.81 3.74537 -1.53311 0
M  V30 15404 H 1430.38 3.03675 -0.741624 0
M  V30 15405 H 1429.6 2.38335 -3.13991 0
M  V30 15406 H 1430.89 3.43554 -3.75297 0
M  V30 15407 H 1430.29 5.49817 -1.33109 0
M  V30 15408 H 1428.85 6.23353 -1.90457 0
M  V30 15409 N 1432.28 1.40065 0.722464 0
M  V30 15410 C 1433.19 1.42086 1.86678 0
M  V30 15411 C 1434.2 0.314223 1.71139 0
M  V30 15412 O 1435.38 0.55771 1.93524 0
M  V30 15413 C 1432.45 1.27498 3.22405 0
M  V30 15414 C 1431.51 2.48243 3.50248 0
M  V30 15415 C 1430.74 2.34342 4.79499 0
M  V30 15416 O 1430.96 1.35355 5.54108 0
M  V30 15417 O 1429.9 3.23579 5.07523 0
M  V30 15418 H 1433.72 2.38571 1.87929 0
M  V30 15419 H 1431.31 1.21314 0.871968 0
M  V30 15420 H 1433.19 1.21543 4.03491 0
M  V30 15421 H 1431.86 0.341141 3.21897 0
M  V30 15422 H 1430.77 2.59775 2.69199 0
M  V30 15423 H 1432.1 3.40364 3.55547 0
M  V30 15424 N 1433.76 -0.95397 1.25448 0
M  V30 15425 C 1434.69 -2.06828 1.08372 0
M  V30 15426 C 1435.67 -1.70098 -0.00741585 0
M  V30 15427 O 1436.85 -1.93521 0.16224 0
M  V30 15428 C 1433.98 -3.40124 0.702365 0
M  V30 15429 C 1432.94 -3.90865 1.74381 0
M  V30 15430 C 1432.26 -5.20663 1.21712 0
M  V30 15431 C 1433.56 -4.17169 3.14273 0
M  V30 15432 H 1435.26 -2.21372 2.01581 0
M  V30 15433 H 1432.8 -1.06374 0.970592 0
M  V30 15434 H 1434.76 -4.17529 0.569837 0
M  V30 15435 H 1433.48 -3.2552 -0.265428 0
M  V30 15436 H 1432.14 -3.15628 1.86479 0
M  V30 15437 H 1431.79 -5.02429 0.23954 0
M  V30 15438 H 1431.49 -5.55581 1.91319 0
M  V30 15439 H 1433.01 -6.00665 1.097 0
M  V30 15440 H 1434.43 -4.85231 3.05325 0
M  V30 15441 H 1432.82 -4.63344 3.81356 0
M  V30 15442 H 1433.89 -3.23421 3.61285 0
M  V30 15443 N 1435.24 -1.07045 -1.15668 0
M  V30 15444 C 1436.51 -0.704942 -1.82455 0
M  V30 15445 C 1436.89 0.812921 -1.9482 0
M  V30 15446 O 1436.24 1.72615 -1.49721 0
M  V30 15447 C 1436.45 -1.41574 -3.18995 0
M  V30 15448 C 1437.8 -1.56584 -3.94673 0
M  V30 15449 O 1438.82 -1.37626 -3.28538 0
M  V30 15450 O 1437.68 -1.87751 -5.13237 0
M  V30 15451 H 1434.78 -0.250469 -0.788159 0
M  V30 15452 H 1437.32 -1.17118 -1.22806 0
M  V30 15453 H 1436.09 -2.4504 -3.05075 0
M  V30 15454 H 1435.72 -0.940071 -3.86327 0
M  V30 15455 N 1436.71 1.32449 -0.85411 0
M  V30 15456 C 1437.96 1.96881 -0.45632 0
M  V30 15457 C 1438.28 1.67926 0.991248 0
M  V30 15458 O 1437.55 0.986195 1.69266 0
M  V30 15459 H 1436.13 0.728378 -0.165752 0
M  V30 15460 H 1438.79 1.61542 -1.09042 0
M  V30 15461 H 1437.89 3.0626 -0.600927 0
M  V30 15462 N 1438.19 0.611994 1.45232 0
M  V30 15463 C 1439.42 0.113618 2.07089 0
M  V30 15464 C 1439.84 -1.1947 1.45288 0
M  V30 15465 O 1439.2 -1.72845 0.547207 0
M  V30 15466 C 1439.25 -0.00789978 3.60599 0
M  V30 15467 O 1438.35 -1.05697 3.98625 0
M  V30 15468 H 1437.69 0.076066 0.659629 0
M  V30 15469 H 1440.22 0.843253 1.86415 0
M  V30 15470 H 1440.23 -0.204692 4.07486 0
M  V30 15471 H 1438.91 0.947386 4.04966 0
M  V30 15472 H 1437.48 -0.836291 3.63401 0
M  V30 15473 N 1439.67 -1.53632 0.351409 0
M  V30 15474 C 1440.6 -2.28217 -0.49391 0
M  V30 15475 C 1441.58 -1.30085 -1.09599 0
M  V30 15476 O 1442.77 -1.58938 -1.1159 0
M  V30 15477 C 1439.9 -3.06085 -1.64102 0
M  V30 15478 C 1438.85 -4.11786 -1.16689 0
M  V30 15479 C 1438.18 -4.77654 -2.40314 0
M  V30 15480 C 1439.48 -5.21644 -0.261742 0
M  V30 15481 H 1441.17 -2.99125 0.1283 0
M  V30 15482 H 1438.72 -1.43861 0.0631462 0
M  V30 15483 H 1440.67 -3.57003 -2.2389 0
M  V30 15484 H 1439.39 -2.32842 -2.29025 0
M  V30 15485 H 1438.05 -3.61792 -0.591784 0
M  V30 15486 H 1437.7 -4.00997 -3.03661 0
M  V30 15487 H 1437.4 -5.49072 -2.09268 0
M  V30 15488 H 1438.92 -5.3136 -3.00813 0
M  V30 15489 H 1440.34 -5.6815 -0.766689 0
M  V30 15490 H 1438.73 -6.00085 -0.0428132 0
M  V30 15491 H 1439.8 -4.79821 0.699999 0
M  V30 15492 N 1441.15 -0.0802183 -1.57396 0
M  V30 15493 C 1442.09 0.884041 -2.13198 0
M  V30 15494 C 1443.06 1.28975 -1.04664 0
M  V30 15495 O 1444.25 1.37413 -1.32372 0
M  V30 15496 C 1441.39 2.14323 -2.7048 0
M  V30 15497 C 1440.5 1.7894 -3.93198 0
M  V30 15498 C 1439.64 2.99534 -4.38695 0
M  V30 15499 C 1438.68 2.60207 -5.54039 0
M  V30 15500 N 1437.81 3.73587 -5.94455 0
M  V30 15501 H 1442.65 0.40131 -2.95285 0
M  V30 15502 H 1440.19 0.186429 -1.45914 0
M  V30 15503 H 1442.15 2.88046 -3.01804 0
M  V30 15504 H 1440.78 2.60122 -1.91144 0
M  V30 15505 H 1439.83 0.952465 -3.68283 0
M  V30 15506 H 1441.14 1.46012 -4.76951 0
M  V30 15507 H 1440.3 3.81526 -4.71724 0
M  V30 15508 H 1439.04 3.35661 -3.53812 0
M  V30 15509 H 1438.04 1.76638 -5.20652 0
M  V30 15510 H 1439.27 2.2524 -6.40659 0
M  V30 15511 H 1437.21 4.0946 -5.12521 0
M  V30 15512 H 1437.13 3.44455 -6.72969 0
M  V30 15513 H 1438.4 4.56133 -6.3211 0
M  V30 15514 N 1442.63 1.56409 0.193394 0
M  V30 15515 C 1443.57 1.94681 1.23968 0
M  V30 15516 C 1444.54 0.807634 1.45143 0
M  V30 15517 O 1445.73 1.06593 1.58248 0
M  V30 15518 C 1442.87 2.29306 2.57901 0
M  V30 15519 C 1441.98 3.56296 2.4429 0
M  V30 15520 C 1441.12 3.80235 3.70938 0
M  V30 15521 C 1440.15 5.00645 3.52167 0
M  V30 15522 N 1439.29 5.20829 4.70831 0
M  V30 15523 H 1444.13 2.83884 0.906298 0
M  V30 15524 H 1441.67 1.40486 0.436146 0
M  V30 15525 H 1443.63 2.47398 3.35932 0
M  V30 15526 H 1442.26 1.43241 2.89278 0
M  V30 15527 H 1441.31 3.46241 1.57547 0
M  V30 15528 H 1442.62 4.44483 2.26354 0
M  V30 15529 H 1441.77 3.98575 4.57408 0
M  V30 15530 H 1440.51 2.90381 3.91829 0
M  V30 15531 H 1439.52 4.82225 2.64081 0
M  V30 15532 H 1440.74 5.92009 3.32719 0
M  V30 15533 H 1438.69 4.33923 4.91983 0
M  V30 15534 H 1438.61 6.03199 4.55726 0
M  V30 15535 H 1439.87 5.4363 5.58648 0
M  V30 15536 N 1444.1 -0.461169 1.50702 0
M  V30 15537 C 1445.35 -1.20934 1.61425 0
M  V30 15538 C 1445.67 -1.92884 0.32481 0
M  V30 15539 O 1446.87 -2.69712 0.311081 0
M  V30 15540 C 1445.33 -2.19797 2.84987 0
M  V30 15541 C 1444.94 -1.53604 4.20844 0
M  V30 15542 C 1446.68 -2.95194 3.05059 0
M  V30 15543 C 1444.59 -2.50811 5.35582 0
M  V30 15544 H 1443.52 -0.455088 0.601174 0
M  V30 15545 H 1446.17 -0.478771 1.77144 0
M  V30 15546 H 1444.55 -2.96187 2.62848 0
M  V30 15547 H 1445.72 -0.829345 4.53275 0
M  V30 15548 H 1444.04 -0.904504 4.06457 0
M  V30 15549 H 1446.64 -3.67965 3.87951 0
M  V30 15550 H 1446.98 -3.5516 2.1718 0
M  V30 15551 H 1447.51 -2.25915 3.27425 0
M  V30 15552 H 1444.25 -1.9557 6.25646 0
M  V30 15553 H 1443.77 -3.19604 5.07556 0
M  V30 15554 H 1445.45 -3.12437 5.66561 0
M  V30 15555 N 1445.58 -1.40446 -0.715026 0
M  V30 15556 C 1446.83 -1.38059 -1.47046 0
M  V30 15557 C 1447.14 0.0139125 -1.95595 0
M  V30 15558 O 1448.35 0.160398 -2.71026 0
M  V30 15559 C 1446.81 -2.42646 -2.65802 0
M  V30 15560 C 1446.41 -3.8791 -2.2412 0
M  V30 15561 C 1448.16 -2.49367 -3.43535 0
M  V30 15562 C 1446.06 -4.84092 -3.39719 0
M  V30 15563 H 1444.99 -0.513341 -0.552265 0
M  V30 15564 H 1447.65 -1.66185 -0.778126 0
M  V30 15565 H 1446.03 -2.07621 -3.37208 0
M  V30 15566 H 1447.2 -4.32082 -1.6013 0
M  V30 15567 H 1445.52 -3.8467 -1.5943 0
M  V30 15568 H 1448.11 -3.18414 -4.29554 0
M  V30 15569 H 1448.46 -1.52436 -3.87388 0
M  V30 15570 H 1448.99 -2.83386 -2.79173 0
M  V30 15571 H 1445.73 -5.82358 -3.00898 0
M  V30 15572 H 1445.25 -4.44584 -4.02623 0
M  V30 15573 H 1446.93 -5.03939 -4.05776 0
M  V30 15574 N 1447.06 0.947303 -1.25952 0
M  V30 15575 C 1447.99 2.0487 -1.02767 0
M  V30 15576 C 1449 1.62797 0.00985984 0
M  V30 15577 O 1450.19 1.77018 -0.229527 0
M  V30 15578 C 1447.29 3.34682 -0.533048 0
M  V30 15579 C 1446.47 4.05555 -1.63841 0
M  V30 15580 C 1445.53 5.13638 -1.1429 0
M  V30 15581 O 1444.55 5.38682 -1.83876 0
M  V30 15582 N 1445.75 5.80499 0.0119377 0
M  V30 15583 H 1448.52 2.25327 -1.97605 0
M  V30 15584 H 1446.08 1.11636 -1.17256 0
M  V30 15585 H 1448.07 4.04273 -0.185868 0
M  V30 15586 H 1446.64 3.10941 0.321585 0
M  V30 15587 H 1445.86 3.29962 -2.15683 0
M  V30 15588 H 1447.15 4.49661 -2.38081 0
M  V30 15589 H 1446.55 5.62581 0.593212 0
M  V30 15590 H 1445.1 6.51109 0.30009 0
M  V30 15591 N 1448.54 1.07657 1.15099 0
M  V30 15592 C 1449.47 0.657598 2.19564 0
M  V30 15593 C 1450.48 -0.29146 1.6017 0
M  V30 15594 O 1451.67 -0.0802981 1.78319 0
M  V30 15595 C 1448.77 -0.0542221 3.38857 0
M  V30 15596 C 1447.95 0.911803 4.27791 0
M  V30 15597 C 1447 0.236709 5.25667 0
M  V30 15598 O 1446.03 0.878731 5.62376 0
M  V30 15599 N 1447.23 -1.01641 5.71532 0
M  V30 15600 H 1450 1.55626 2.56126 0
M  V30 15601 H 1447.56 0.961657 1.30245 0
M  V30 15602 H 1449.55 -0.516603 4.01389 0
M  V30 15603 H 1448.12 -0.854871 3.00684 0
M  V30 15604 H 1447.34 1.55322 3.6231 0
M  V30 15605 H 1448.63 1.56667 4.8408 0
M  V30 15606 H 1448.03 -1.55791 5.43825 0
M  V30 15607 H 1446.58 -1.42242 6.3609 0
M  V30 15608 N 1450.02 -1.31994 0.861122 0
M  V30 15609 C 1450.95 -2.27632 0.267681 0
M  V30 15610 C 1451.96 -1.52709 -0.564265 0
M  V30 15611 O 1453.15 -1.74239 -0.3877 0
M  V30 15612 C 1450.25 -3.32805 -0.639856 0
M  V30 15613 C 1449.42 -4.37116 0.157676 0
M  V30 15614 C 1448.48 -5.21832 -0.676624 0
M  V30 15615 O 1447.51 -5.69098 -0.107822 0
M  V30 15616 N 1448.71 -5.45317 -1.99022 0
M  V30 15617 H 1451.48 -2.79195 1.0895 0
M  V30 15618 H 1449.04 -1.44923 0.721733 0
M  V30 15619 H 1451.03 -3.86391 -1.20348 0
M  V30 15620 H 1449.6 -2.81351 -1.36236 0
M  V30 15621 H 1448.82 -3.83724 0.902741 0
M  V30 15622 H 1450.11 -5.03889 0.70524 0
M  V30 15623 H 1449.5 -5.08656 -2.47558 0
M  V30 15624 H 1448.06 -6.01874 -2.50182 0
M  V30 15625 N 1451.49 -0.619688 -1.44906 0
M  V30 15626 C 1452.44 0.0920359 -2.30616 0
M  V30 15627 C 1453.41 0.848114 -1.42815 0
M  V30 15628 O 1454.6 0.831439 -1.71732 0
M  V30 15629 C 1451.74 1.07537 -3.27917 0
M  V30 15630 C 1450.85 0.318904 -4.30821 0
M  V30 15631 C 1449.98 1.29303 -5.15222 0
M  V30 15632 C 1449.02 0.525071 -6.09844 0
M  V30 15633 N 1448.16 1.44909 -6.86983 0
M  V30 15634 H 1453 -0.644834 -2.9094 0
M  V30 15635 H 1450.54 -0.329785 -1.43356 0
M  V30 15636 H 1452.5 1.65874 -3.82808 0
M  V30 15637 H 1451.13 1.7795 -2.6932 0
M  V30 15638 H 1450.18 -0.380192 -3.78495 0
M  V30 15639 H 1451.49 -0.279742 -4.98015 0
M  V30 15640 H 1450.64 1.94809 -5.74573 0
M  V30 15641 H 1449.38 1.92561 -4.48076 0
M  V30 15642 H 1448.39 -0.14355 -5.49613 0
M  V30 15643 H 1449.61 -0.102625 -6.79022 0
M  V30 15644 H 1447.56 2.06908 -6.22515 0
M  V30 15645 H 1447.48 0.90418 -7.50574 0
M  V30 15646 H 1448.74 2.09335 -7.50866 0
M  V30 15647 N 1452.97 1.53444 -0.359552 0
M  V30 15648 C 1453.94 2.24173 0.477412 0
M  V30 15649 C 1454.94 1.24747 1.01464 0
M  V30 15650 O 1456.13 1.49069 0.901343 0
M  V30 15651 C 1453.26 2.9738 1.66667 0
M  V30 15652 H 1454.45 2.99566 -0.141407 0
M  V30 15653 H 1452 1.55904 -0.111143 0
M  V30 15654 H 1452.74 2.26214 2.32374 0
M  V30 15655 H 1452.52 3.70325 1.28848 0
M  V30 15656 H 1454.01 3.51165 2.25994 0
M  V30 15657 N 1454.45 0.0885642 1.57351 0
M  V30 15658 C 1455.36 -0.887092 2.17182 0
M  V30 15659 C 1456.38 -1.31498 1.13949 0
M  V30 15660 O 1457.55 -1.38424 1.4629 0
M  V30 15661 C 1454.62 -2.13053 2.73513 0
M  V30 15662 C 1453.68 -1.75747 3.91678 0
M  V30 15663 C 1452.91 -2.94163 4.45313 0
M  V30 15664 O 1453.13 -4.08693 3.97903 0
M  V30 15665 O 1452.07 -2.73008 5.36424 0
M  V30 15666 H 1455.89 -0.408073 3.00946 0
M  V30 15667 H 1453.48 -0.135431 1.48785 0
M  V30 15668 H 1455.36 -2.85937 3.09545 0
M  V30 15669 H 1454.04 -2.6002 1.92798 0
M  V30 15670 H 1452.94 -1.00064 3.60469 0
M  V30 15671 H 1454.28 -1.33549 4.73736 0
M  V30 15672 N 1455.93 -1.56509 -0.185096 0
M  V30 15673 C 1456.86 -1.98363 -1.23184 0
M  V30 15674 C 1457.84 -0.85709 -1.46929 0
M  V30 15675 O 1459.02 -1.12216 -1.58497 0
M  V30 15676 C 1456.15 -2.33172 -2.57387 0
M  V30 15677 C 1455.11 -3.48658 -2.48236 0
M  V30 15678 C 1454.43 -3.69171 -3.86804 0
M  V30 15679 C 1455.73 -4.82538 -1.99885 0
M  V30 15680 H 1457.43 -2.86053 -0.883982 0
M  V30 15681 H 1454.97 -1.37623 -0.423786 0
M  V30 15682 H 1456.93 -2.61048 -3.30805 0
M  V30 15683 H 1455.65 -1.42377 -2.93933 0
M  V30 15684 H 1454.31 -3.20889 -1.77273 0
M  V30 15685 H 1453.96 -2.75689 -4.20719 0
M  V30 15686 H 1453.66 -4.46868 -3.81553 0
M  V30 15687 H 1455.18 -3.99433 -4.61829 0
M  V30 15688 H 1456.6 -5.0938 -2.63068 0
M  V30 15689 H 1454.99 -5.63775 -2.05614 0
M  V30 15690 H 1456.06 -4.75453 -0.952503 0
M  V30 15691 N 1457.41 0.45317 -1.50944 0
M  V30 15692 C 1458.37 1.5313 -1.7054 0
M  V30 15693 C 1459.37 1.50142 -0.575678 0
M  V30 15694 O 1460.56 1.52444 -0.842997 0
M  V30 15695 C 1457.69 2.92719 -1.74723 0
M  V30 15696 H 1458.88 1.37066 -2.66745 0
M  V30 15697 H 1456.44 0.680783 -1.40695 0
M  V30 15698 H 1457.17 3.14208 -0.802753 0
M  V30 15699 H 1456.96 2.96295 -2.56811 0
M  V30 15700 H 1458.45 3.7096 -1.91777 0
M  V30 15701 N 1458.88 1.40823 0.707568 0
M  V30 15702 C 1459.83 1.4191 1.84294 0
M  V30 15703 C 1460.83 0.298592 1.66748 0
M  V30 15704 O 1462.03 0.47003 1.73755 0
M  V30 15705 H 1458.41 0.44376 0.607109 0
M  V30 15706 H 1460.38 2.37623 1.80494 0
M  V30 15707 C 1459.13 1.30643 3.22223 0
M  V30 15708 H 1458.45 2.16145 3.36335 0
M  V30 15709 H 1459.89 1.35463 4.01778 0
M  V30 15710 C 1458.35 0.0174867 3.36895 0
M  V30 15711 O 1458.88 -0.942398 3.90489 0
M  V30 15712 N 1457.09 -0.0546572 2.90549 0
M  V30 15713 H 1456.63 0.727204 2.47122 0
M  V30 15714 H 1456.59 -0.916521 3.00744 0
M  V30 15715 N 1460.36 -0.94061 1.26453 0
M  V30 15716 C 1461.61 -1.68132 1.1142 0
M  V30 15717 C 1461.92 -1.92587 -0.342006 0
M  V30 15718 O 1463.13 -2.64489 -0.613018 0
M  V30 15719 C 1461.59 -3.02758 1.94591 0
M  V30 15720 C 1461.19 -2.86049 3.4479 0
M  V30 15721 C 1462.94 -3.80516 1.88169 0
M  V30 15722 C 1460.85 -4.1615 4.20206 0
M  V30 15723 H 1459.78 -0.630591 0.413366 0
M  V30 15724 H 1462.43 -1.04602 1.50767 0
M  V30 15725 H 1460.81 -3.67272 1.48078 0
M  V30 15726 H 1461.98 -2.3038 3.99076 0
M  V30 15727 H 1460.3 -2.21732 3.52454 0
M  V30 15728 H 1462.89 -4.76904 2.41799 0
M  V30 15729 H 1463.24 -4.07477 0.852531 0
M  V30 15730 H 1463.77 -3.22776 2.32509 0
M  V30 15731 H 1460.51 -3.94373 5.23593 0
M  V30 15732 H 1460.03 -4.71531 3.707 0
M  V30 15733 H 1461.71 -4.84602 4.28684 0
M  V30 15734 N 1461.84 -1.08266 -1.14527 0
M  V30 15735 C 1462.75 -0.723043 -2.2318 0
M  V30 15736 C 1463.77 0.269819 -1.71895 0
M  V30 15737 O 1464.94 0.114126 -2.01076 0
M  V30 15738 C 1462.01 -0.136229 -3.46432 0
M  V30 15739 C 1461.07 -1.18352 -4.12664 0
M  V30 15740 C 1460.3 -0.624612 -5.30032 0
M  V30 15741 O 1460.52 0.556377 -5.6768 0
M  V30 15742 O 1459.46 -1.37397 -5.86008 0
M  V30 15743 H 1463.28 -1.6294 -2.56289 0
M  V30 15744 H 1460.87 -0.856235 -1.22429 0
M  V30 15745 H 1462.75 0.18829 -4.20979 0
M  V30 15746 H 1461.43 0.74331 -3.1505 0
M  V30 15747 H 1460.33 -1.56054 -3.39997 0
M  V30 15748 H 1461.67 -2.03528 -4.48148 0
M  V30 15749 N 1463.32 1.31536 -0.86811 0
M  V30 15750 C 1464.74 1.49461 -0.559778 0
M  V30 15751 C 1464.94 1.79957 0.906525 0
M  V30 15752 O 1463.99 1.87711 1.68881 0
M  V30 15753 C 1465.3 2.62967 -1.45839 0
M  V30 15754 C 1466.85 2.76851 -1.46023 0
M  V30 15755 C 1467.33 3.93451 -2.34436 0
M  V30 15756 N 1468.82 4.00735 -2.32306 0
M  V30 15757 C 1469.55 4.90223 -2.97437 0
M  V30 15758 N 1469.05 5.84626 -3.71731 0
M  V30 15759 N 1470.84 4.83454 -2.86755 0
M  V30 15760 H 1462.99 1.1001 -1.81691 0
M  V30 15761 H 1465.26 0.543418 -0.776789 0
M  V30 15762 H 1464.96 2.47203 -2.50168 0
M  V30 15763 H 1464.84 3.59063 -1.15556 0
M  V30 15764 H 1467.22 2.9203 -0.424527 0
M  V30 15765 H 1467.3 1.81427 -1.80327 0
M  V30 15766 H 1466.95 3.79029 -3.38082 0
M  V30 15767 H 1466.88 4.88179 -1.97457 0
M  V30 15768 H 1469.37 3.33191 -1.78303 0
M  V30 15769 H 1469.68 6.49635 -4.18562 0
M  V30 15770 H 1468.03 5.84611 -3.75839 0
M  V30 15771 H 1471.22 4.08678 -2.28254 0
M  V30 15772 H 1471.39 5.52991 -3.37795 0
M  V30 15773 N 1464.8 0.627364 1.44575 0
M  V30 15774 C 1465.71 -0.0811184 2.3446 0
M  V30 15775 C 1466.72 -0.839668 1.52399 0
M  V30 15776 O 1467.9 -0.792784 1.8514 0
M  V30 15777 C 1464.96 -1.05296 3.30323 0
M  V30 15778 C 1464.03 -0.294201 4.28291 0
M  V30 15779 C 1463.26 -1.21975 5.19575 0
M  V30 15780 O 1463.48 -2.45834 5.14706 0
M  V30 15781 O 1462.42 -0.70611 5.97744 0
M  V30 15782 H 1466.24 0.658067 2.96485 0
M  V30 15783 H 1463.83 0.387565 1.44285 0
M  V30 15784 H 1465.71 -1.61218 3.89341 0
M  V30 15785 H 1464.38 -1.77283 2.70837 0
M  V30 15786 H 1463.29 0.307969 3.7283 0
M  V30 15787 H 1464.62 0.385567 4.90687 0
M  V30 15788 N 1466.28 -1.53251 0.367684 0
M  V30 15789 C 1467.52 -2.03197 -0.221396 0
M  V30 15790 C 1467.88 -1.249 -1.45822 0
M  V30 15791 O 1469.08 -1.64863 -2.12306 0
M  V30 15792 C 1467.35 -3.53827 -0.504134 0
M  V30 15793 S 1468.91 -4.2564 -1.06658 0
M  V30 15794 H 1465.73 -0.708089 -0.0642774 0
M  V30 15795 H 1468.33 -1.88703 0.511037 0
M  V30 15796 H 1467.03 -4.08412 0.403477 0
M  V30 15797 H 1466.57 -3.72487 -1.26558 0
M  V30 15798 H 1468.58 -4.36987 -2.35068 0
M  V30 15799 N 1467.75 -0.0969077 -1.57302 0
M  V30 15800 C 1468.68 0.858443 -2.17147 0
M  V30 15801 C 1469.66 1.29294 -1.10531 0
M  V30 15802 O 1470.85 1.3595 -1.38676 0
M  V30 15803 C 1467.98 2.11691 -2.75326 0
M  V30 15804 C 1466.93 1.82097 -3.8733 0
M  V30 15805 C 1466.26 3.14787 -4.32219 0
M  V30 15806 C 1467.56 1.10651 -5.10444 0
M  V30 15807 H 1469.25 0.35982 -2.9723 0
M  V30 15808 H 1466.8 0.17163 -1.42974 0
M  V30 15809 H 1468.75 2.78963 -3.15844 0
M  V30 15810 H 1467.48 2.63839 -1.925 0
M  V30 15811 H 1466.14 1.17222 -3.47354 0
M  V30 15812 H 1465.78 3.64826 -3.46281 0
M  V30 15813 H 1465.48 2.95769 -5.07735 0
M  V30 15814 H 1467.01 3.83215 -4.75372 0
M  V30 15815 H 1468.42 1.68036 -5.48121 0
M  V30 15816 H 1466.82 1.01805 -5.91401 0
M  V30 15817 H 1467.89 0.0895634 -4.84817 0
M  V30 15818 N 1469.23 1.56605 0.176793 0
M  V30 15819 C 1470.18 1.96896 1.23833 0
M  V30 15820 C 1471.17 0.85693 1.46127 0
M  V30 15821 O 1472.38 1.04202 1.46772 0
M  V30 15822 H 1468.75 0.626363 0.416141 0
M  V30 15823 H 1470.73 2.85387 0.871607 0
M  V30 15824 C 1469.47 2.34034 2.57145 0
M  V30 15825 H 1468.8 3.1914 2.40811 0
M  V30 15826 H 1470.24 2.66074 3.30122 0
M  V30 15827 C 1468.7 1.18171 3.15495 0
M  V30 15828 O 1469.23 0.466448 3.98983 0
M  V30 15829 N 1467.43 0.953705 2.74505 0
M  V30 15830 H 1466.98 1.5371 2.06715 0
M  V30 15831 H 1466.94 0.180307 3.13883 0
M  V30 15832 N 1470.71 -0.445159 1.51182 0
M  V30 15833 C 1471.66 -1.5604 1.72494 0
M  V30 15834 C 1472.65 -1.58753 0.591101 0
M  V30 15835 O 1473.86 -1.62591 0.772285 0
M  V30 15836 H 1470.23 -0.518265 0.544891 0
M  V30 15837 H 1472.2 -1.35237 2.65995 0
M  V30 15838 C 1470.95 -2.93768 1.85999 0
M  V30 15839 H 1470.28 -2.9241 2.72647 0
M  V30 15840 H 1471.72 -3.71189 2.04926 0
M  V30 15841 C 1470.17 -3.31186 0.617853 0
M  V30 15842 O 1470.7 -4.01035 -0.231101 0
M  V30 15843 N 1468.91 -2.86868 0.464234 0
M  V30 15844 H 1468.46 -2.30198 1.15614 0
M  V30 15845 H 1468.42 -3.12267 -0.365643 0
M  V30 15846 N 1472.19 -1.41197 -0.700089 0
M  V30 15847 C 1473.13 -1.42688 -1.81407 0
M  V30 15848 C 1474.1 -0.28182 -1.63692 0
M  V30 15849 O 1475.29 -0.482196 -1.84606 0
M  V30 15850 C 1472.43 -1.31041 -3.19252 0
M  V30 15851 C 1471.54 -2.5538 -3.48432 0
M  V30 15852 C 1470.68 -2.3606 -4.75867 0
M  V30 15853 C 1469.72 -3.55898 -4.97999 0
M  V30 15854 N 1468.85 -3.35676 -6.16657 0
M  V30 15855 H 1473.69 -2.37898 -1.79467 0
M  V30 15856 H 1471.23 -1.18137 -0.87647 0
M  V30 15857 H 1473.19 -1.22292 -3.98874 0
M  V30 15858 H 1471.82 -0.394422 -3.20381 0
M  V30 15859 H 1470.87 -2.74598 -2.6325 0
M  V30 15860 H 1472.18 -3.44535 -3.6069 0
M  V30 15861 H 1471.34 -2.24752 -5.63535 0
M  V30 15862 H 1470.08 -1.44355 -4.65846 0
M  V30 15863 H 1469.08 -3.67665 -4.08781 0
M  V30 15864 H 1470.31 -4.4855 -5.09882 0
M  V30 15865 H 1468.25 -2.46667 -6.07858 0
M  V30 15866 H 1468.17 -4.18404 -6.29662 0
M  V30 15867 H 1469.44 -3.28132 -7.07071 0
M  V30 15868 N 1473.67 0.933891 -1.2695 0
M  V30 15869 C 1474.6 2.03768 -1.04934 0
M  V30 15870 C 1475.61 1.62798 -0.00740752 0
M  V30 15871 O 1476.8 1.76765 -0.248289 0
M  V30 15872 C 1473.9 3.34097 -0.568515 0
M  V30 15873 C 1473.07 4.03794 -1.68133 0
M  V30 15874 C 1472.13 5.12397 -1.19731 0
M  V30 15875 O 1471.16 5.36701 -1.89579 0
M  V30 15876 N 1472.36 5.80479 -0.0496327 0
M  V30 15877 H 1475.12 2.23219 -1.99984 0
M  V30 15878 H 1472.69 1.10386 -1.18433 0
M  V30 15879 H 1474.68 4.04053 -0.228736 0
M  V30 15880 H 1473.25 3.11265 0.288587 0
M  V30 15881 H 1472.47 3.27655 -2.1917 0
M  V30 15882 H 1473.76 4.4711 -2.42837 0
M  V30 15883 H 1473.15 5.63179 0.533509 0
M  V30 15884 H 1471.71 6.5139 0.231014 0
M  V30 15885 N 1475.14 1.08871 1.13951 0
M  V30 15886 C 1476.08 0.680849 2.18854 0
M  V30 15887 C 1477.09 -0.274456 1.6047 0
M  V30 15888 O 1478.28 -0.0613804 1.78394 0
M  V30 15889 C 1475.38 -0.0182788 3.38895 0
M  V30 15890 C 1474.55 0.957125 4.268 0
M  V30 15891 C 1473.61 0.29245 5.25387 0
M  V30 15892 O 1472.64 0.938329 5.61413 0
M  V30 15893 N 1473.84 -0.955738 5.72578 0
M  V30 15894 H 1476.6 1.58334 2.54461 0
M  V30 15895 H 1474.16 0.975417 1.29218 0
M  V30 15896 H 1476.16 -0.474001 4.01915 0
M  V30 15897 H 1474.73 -0.822932 3.01574 0
M  V30 15898 H 1473.95 1.59156 3.60642 0
M  V30 15899 H 1475.23 1.61792 4.82391 0
M  V30 15900 H 1474.63 -1.50014 5.45447 0
M  V30 15901 H 1473.19 -1.35488 6.37563 0
M  V30 15902 N 1476.62 -1.31073 0.875073 0
M  V30 15903 C 1477.55 -2.30855 0.350468 0
M  V30 15904 C 1478.53 -1.60569 -0.561384 0
M  V30 15905 O 1479.72 -1.88242 -0.477329 0
M  V30 15906 C 1476.85 -3.44444 -0.444493 0
M  V30 15907 C 1475.8 -4.26357 0.374716 0
M  V30 15908 C 1475.13 -5.31903 -0.546243 0
M  V30 15909 C 1476.43 -4.96817 1.61153 0
M  V30 15910 H 1478.12 -2.74983 1.18427 0
M  V30 15911 H 1475.67 -1.32199 0.570909 0
M  V30 15912 H 1477.62 -4.13304 -0.82206 0
M  V30 15913 H 1476.34 -2.99096 -1.31185 0
M  V30 15914 H 1475 -3.59171 0.734295 0
M  V30 15915 H 1474.65 -4.82803 -1.41102 0
M  V30 15916 H 1474.35 -5.876 -0.00198173 0
M  V30 15917 H 1475.88 -6.03621 -0.920542 0
M  V30 15918 H 1477.29 -5.58247 1.30511 0
M  V30 15919 H 1475.69 -5.62334 2.09524 0
M  V30 15920 H 1476.76 -4.2351 2.36151 0
M  V30 15921 N 1478.1 -0.635022 -1.4424 0
M  V30 15922 C 1479.03 0.116972 -2.279 0
M  V30 15923 C 1480.01 0.847505 -1.38766 0
M  V30 15924 O 1481.2 0.8508 -1.68207 0
M  V30 15925 C 1478.32 1.17183 -3.17783 0
M  V30 15926 C 1477.37 0.541389 -4.2305 0
M  V30 15927 S 1478.2 -0.671454 -5.31274 0
M  V30 15928 C 1479.36 0.383317 -6.24725 0
M  V30 15929 H 1479.59 -0.592739 -2.91331 0
M  V30 15930 H 1477.12 -0.423307 -1.48484 0
M  V30 15931 H 1479.08 1.77548 -3.70118 0
M  V30 15932 H 1477.74 1.85375 -2.53564 0
M  V30 15933 H 1476.94 1.33597 -4.85971 0
M  V30 15934 H 1476.54 0.0122707 -3.73998 0
M  V30 15935 H 1478.83 1.25477 -6.65779 0
M  V30 15936 H 1479.77 -0.21041 -7.07787 0
M  V30 15937 H 1480.18 0.710963 -5.60005 0
M  V30 15938 N 1479.58 1.53054 -0.375806 0
M  V30 15939 C 1480.99 1.5958 -0.0251765 0
M  V30 15940 C 1481.19 1.39047 1.45836 0
M  V30 15941 O 1480.25 1.20073 2.22123 0
M  V30 15942 C 1481.56 2.96676 -0.490274 0
M  V30 15943 C 1483.11 3.09815 -0.44537 0
M  V30 15944 C 1483.59 4.4934 -0.886442 0
M  V30 15945 N 1485.08 4.55484 -0.84191 0
M  V30 15946 C 1485.81 5.61652 -1.15476 0
M  V30 15947 N 1485.31 6.75526 -1.53741 0
M  V30 15948 N 1487.1 5.51688 -1.07689 0
M  V30 15949 H 1479.25 1.64651 -1.34178 0
M  V30 15950 H 1481.52 0.77278 -0.549104 0
M  V30 15951 H 1481.22 3.16874 -1.52589 0
M  V30 15952 H 1481.1 3.77016 0.11776 0
M  V30 15953 H 1483.48 2.89321 0.581138 0
M  V30 15954 H 1483.56 2.3146 -1.08903 0
M  V30 15955 H 1483.21 4.70573 -1.91111 0
M  V30 15956 H 1483.14 5.26141 -0.219925 0
M  V30 15957 H 1485.63 3.73725 -0.56015 0
M  V30 15958 H 1485.94 7.52489 -1.76012 0
M  V30 15959 H 1484.29 6.76892 -1.57616 0
M  V30 15960 H 1487.48 4.61605 -0.777062 0
M  V30 15961 H 1487.65 6.34329 -1.32403 0
M  V30 15962 N 1481.06 0.105248 1.57248 0
M  V30 15963 C 1482.02 -0.835589 2.13426 0
M  V30 15964 C 1483.02 -1.20398 1.06587 0
M  V30 15965 O 1484.21 -1.13175 1.32428 0
M  V30 15966 C 1481.34 -2.12806 2.6632 0
M  V30 15967 H 1482.53 -0.347606 2.97879 0
M  V30 15968 H 1480.09 -0.143855 1.55637 0
M  V30 15969 H 1480.82 -2.66066 1.85416 0
M  V30 15970 H 1480.61 -1.87352 3.44444 0
M  V30 15971 H 1482.1 -2.80089 3.09741 0
M  V30 15972 N 1482.53 -1.56697 -0.168486 0
M  V30 15973 C 1483.95 -1.50879 -0.52036 0
M  V30 15974 C 1484.15 -0.810001 -1.84503 0
M  V30 15975 O 1483.21 -0.371549 -2.49751 0
M  V30 15976 C 1484.52 -2.95618 -0.550502 0
M  V30 15977 C 1486.07 -3.06439 -0.637508 0
M  V30 15978 C 1486.54 -4.52642 -0.698516 0
M  V30 15979 N 1488.03 -4.569 -0.761328 0
M  V30 15980 C 1488.77 -5.67373 -0.829155 0
M  V30 15981 N 1488.26 -6.87471 -0.857642 0
M  V30 15982 N 1490.06 -5.55352 -0.868392 0
M  V30 15983 H 1482.21 -2.00531 0.700087 0
M  V30 15984 H 1484.47 -0.913683 0.252759 0
M  V30 15985 H 1484.18 -3.49912 0.354222 0
M  V30 15986 H 1484.05 -3.50416 -1.396 0
M  V30 15987 H 1486.44 -2.52178 -1.53266 0
M  V30 15988 H 1486.52 -2.54721 0.234719 0
M  V30 15989 H 1486.16 -5.07535 0.192387 0
M  V30 15990 H 1486.09 -5.0212 -1.58693 0
M  V30 15991 H 1488.58 -3.70434 -0.747482 0
M  V30 15992 H 1488.9 -7.67416 -0.910648 0
M  V30 15993 H 1487.24 -6.90076 -0.825872 0
M  V30 15994 H 1490.43 -4.60444 -0.843158 0
M  V30 15995 H 1490.61 -6.41468 -0.917789 0
M  V30 15996 N 1484.01 0.437135 -1.51416 0
M  V30 15997 C 1484.92 1.55581 -1.75589 0
M  V30 15998 C 1485.94 1.61797 -0.640132 0
M  V30 15999 O 1487.11 1.79035 -0.922406 0
M  V30 16000 C 1484.18 2.91561 -1.87598 0
M  V30 16001 C 1483.24 2.9546 -3.11451 0
M  V30 16002 C 1482.47 4.24954 -3.22878 0
M  V30 16003 O 1482.7 5.17341 -2.40238 0
M  V30 16004 O 1481.63 4.35141 -4.15856 0
M  V30 16005 H 1485.46 1.38098 -2.70486 0
M  V30 16006 H 1483.04 0.620163 -1.3592 0
M  V30 16007 H 1484.92 3.72262 -1.97481 0
M  V30 16008 H 1483.6 3.09171 -0.958889 0
M  V30 16009 H 1482.51 2.13713 -3.07046 0
M  V30 16010 H 1483.84 2.82794 -4.0285 0
M  V30 16011 N 1485.49 1.41566 0.692592 0
M  V30 16012 C 1486.45 1.43369 1.78824 0
M  V30 16013 C 1487.45 0.323867 1.57505 0
M  V30 16014 O 1488.64 0.583885 1.64123 0
M  V30 16015 C 1485.78 1.24798 3.17235 0
M  V30 16016 H 1486.97 2.40906 1.78617 0
M  V30 16017 H 1484.52 1.27752 0.900508 0
M  V30 16018 H 1485.26 0.281129 3.23079 0
M  V30 16019 H 1485.04 2.05212 3.34111 0
M  V30 16020 H 1486.53 1.28902 3.97208 0
M  V30 16021 N 1486.97 -0.927146 1.27443 0
M  V30 16022 C 1487.93 -2.00938 1.10257 0
M  V30 16023 C 1488.93 -1.60733 0.0463898 0
M  V30 16024 O 1490.12 -1.71752 0.291029 0
M  V30 16025 C 1487.25 -3.34047 0.680115 0
M  V30 16026 H 1488.45 -2.17615 2.06358 0
M  V30 16027 H 1486 -1.10802 1.10239 0
M  V30 16028 H 1486.73 -3.23069 -0.282259 0
M  V30 16029 H 1486.52 -3.64585 1.44291 0
M  V30 16030 H 1488.01 -4.13523 0.582126 0
M  V30 16031 N 1488.45 -1.09474 -1.13372 0
M  V30 16032 C 1489.7 -0.825968 -1.84013 0
M  V30 16033 C 1490.01 0.650623 -1.84462 0
M  V30 16034 O 1491.21 1.03495 -2.51 0
M  V30 16035 C 1489.67 -1.42769 -3.30371 0
M  V30 16036 C 1489.28 -2.93686 -3.38308 0
M  V30 16037 C 1491.02 -1.23788 -4.0605 0
M  V30 16038 C 1488.93 -3.46942 -4.78942 0
M  V30 16039 H 1487.86 -0.305322 -0.689416 0
M  V30 16040 H 1490.51 -1.31751 -1.27726 0
M  V30 16041 H 1488.89 -0.86384 -3.86463 0
M  V30 16042 H 1490.07 -3.56302 -2.92208 0
M  V30 16043 H 1488.38 -3.11706 -2.76094 0
M  V30 16044 H 1490.98 -1.61031 -5.09876 0
M  V30 16045 H 1491.32 -0.178578 -4.15917 0
M  V30 16046 H 1491.85 -1.76927 -3.56289 0
M  V30 16047 H 1488.59 -4.52495 -4.74267 0
M  V30 16048 H 1488.11 -2.8909 -5.25535 0
M  V30 16049 H 1489.79 -3.44176 -5.47861 0
M  V30 16050 N 1489.92 1.30607 -0.882012 0
M  V30 16051 C 1491.17 1.96927 -0.509063 0
M  V30 16052 C 1491.53 1.6838 0.930903 0
M  V30 16053 O 1490.82 0.976464 1.64851 0
M  V30 16054 C 1491.01 3.50136 -0.716929 0
M  V30 16055 C 1490.84 3.93573 -2.17555 0
M  V30 16056 C 1489.61 4.19321 -2.81954 0
M  V30 16057 C 1491.81 4.06619 -3.14906 0
M  V30 16058 N 1489.79 4.49198 -4.18443 0
M  V30 16059 C 1491.16 4.40345 -4.36459 0
M  V30 16060 C 1493.22 3.89035 -3.10734 0
M  V30 16061 C 1491.92 4.58322 -5.54377 0
M  V30 16062 C 1493.95 4.08212 -4.27922 0
M  V30 16063 C 1493.31 4.42281 -5.4824 0
M  V30 16064 H 1489.41 0.745681 -0.23555 0
M  V30 16065 H 1491.99 1.57898 -1.13913 0
M  V30 16066 H 1490.16 3.88226 -0.116371 0
M  V30 16067 H 1491.89 4.03502 -0.311174 0
M  V30 16068 H 1488.65 4.12412 -2.32838 0
M  V30 16069 H 1489.07 4.68276 -4.88924 0
M  V30 16070 H 1493.72 3.61774 -2.18813 0
M  V30 16071 H 1491.43 4.84426 -6.46805 0
M  V30 16072 H 1495.02 3.96079 -4.2616 0
M  V30 16073 H 1493.9 4.56815 -6.37408 0
M  V30 16074 N 1491.4 0.642663 1.43901 0
M  V30 16075 C 1492.31 -0.0562462 2.34533 0
M  V30 16076 C 1493.33 -0.823457 1.53281 0
M  V30 16077 O 1494.5 -0.773103 1.85971 0
M  V30 16078 C 1491.57 -1.01787 3.31422 0
M  V30 16079 C 1490.63 -0.248759 4.28579 0
M  V30 16080 C 1489.86 -1.16458 5.20839 0
M  V30 16081 O 1490.09 -2.40361 5.17284 0
M  V30 16082 O 1489.02 -0.642671 5.98459 0
M  V30 16083 H 1492.85 0.689476 2.9577 0
M  V30 16084 H 1490.43 0.402847 1.43866 0
M  V30 16085 H 1492.31 -1.5708 3.91029 0
M  V30 16086 H 1490.99 -1.744 2.72702 0
M  V30 16087 H 1489.9 0.347495 3.72483 0
M  V30 16088 H 1491.23 0.437589 4.90251 0
M  V30 16089 N 1492.88 -1.52852 0.383918 0
M  V30 16090 C 1493.81 -2.29213 -0.44539 0
M  V30 16091 C 1494.79 -1.3238 -1.06815 0
M  V30 16092 O 1495.98 -1.61269 -1.08194 0
M  V30 16093 C 1493.11 -3.09497 -1.57573 0
M  V30 16094 C 1492.06 -4.14168 -1.07928 0
M  V30 16095 C 1491.39 -4.82644 -2.30128 0
M  V30 16096 C 1492.69 -5.22082 -0.151035 0
M  V30 16097 H 1494.38 -2.98786 0.19172 0
M  V30 16098 H 1491.93 -1.43695 0.0936471 0
M  V30 16099 H 1493.88 -3.61672 -2.16267 0
M  V30 16100 H 1492.6 -2.37647 -2.24034 0
M  V30 16101 H 1491.26 -3.62966 -0.514909 0
M  V30 16102 H 1490.91 -4.07348 -2.95087 0
M  V30 16103 H 1490.61 -5.53388 -1.97574 0
M  V30 16104 H 1492.14 -5.37621 -2.89475 0
M  V30 16105 H 1493.55 -5.69649 -0.646003 0
M  V30 16106 H 1491.95 -6.00041 0.0844833 0
M  V30 16107 H 1493.02 -4.78228 0.801618 0
M  V30 16108 N 1494.36 -0.113586 -1.5719 0
M  V30 16109 C 1495.27 0.852428 -2.18565 0
M  V30 16110 C 1496.29 1.29668 -1.16026 0
M  V30 16111 O 1497.46 1.36079 -1.48474 0
M  V30 16112 C 1494.53 2.08675 -2.76867 0
M  V30 16113 C 1493.59 1.69493 -3.94424 0
M  V30 16114 C 1492.82 2.87042 -4.49936 0
M  V30 16115 O 1493.04 4.02311 -4.04354 0
M  V30 16116 O 1491.98 2.64439 -5.40699 0
M  V30 16117 H 1495.8 0.360144 -3.01557 0
M  V30 16118 H 1493.39 0.111744 -1.48982 0
M  V30 16119 H 1495.27 2.80976 -3.14054 0
M  V30 16120 H 1493.95 2.5692 -1.9691 0
M  V30 16121 H 1492.85 0.943161 -3.62016 0
M  V30 16122 H 1494.19 1.25995 -4.758 0
M  V30 16123 N 1495.84 1.56784 0.160173 0
M  V30 16124 C 1496.75 2.00514 1.21783 0
M  V30 16125 C 1497.76 0.918341 1.47792 0
M  V30 16126 O 1498.94 1.22683 1.59721 0
M  V30 16127 C 1496 2.36575 2.53443 0
M  V30 16128 C 1495.07 3.59138 2.35198 0
M  V30 16129 C 1494.3 3.93469 3.6058 0
M  V30 16130 O 1494.52 3.28625 4.6622 0
M  V30 16131 O 1493.46 4.86774 3.54027 0
M  V30 16132 H 1497.28 2.90774 0.876607 0
M  V30 16133 H 1494.87 1.44799 0.367897 0
M  V30 16134 H 1496.75 2.60687 3.31089 0
M  V30 16135 H 1495.42 1.49474 2.87122 0
M  V30 16136 H 1494.33 3.4023 1.55546 0
M  V30 16137 H 1495.66 4.46815 2.0644 0
M  V30 16138 N 1497.32 -0.429099 1.51646 0
M  V30 16139 C 1498.73 -0.766217 1.40005 0
M  V30 16140 C 1498.93 -1.95481 0.488837 0
M  V30 16141 O 1497.99 -2.52445 -0.0529101 0
M  V30 16142 C 1499.3 -1.03886 2.82185 0
M  V30 16143 C 1500.85 -1.1428 2.91392 0
M  V30 16144 C 1501.32 -1.44833 4.34497 0
M  V30 16145 N 1502.81 -1.5174 4.37641 0
M  V30 16146 C 1503.55 -1.76968 5.45408 0
M  V30 16147 N 1503.05 -1.99934 6.63324 0
M  V30 16148 N 1504.84 -1.78819 5.32898 0
M  V30 16149 H 1496.99 0.35358 2.09436 0
M  V30 16150 H 1499.25 0.0958189 0.943145 0
M  V30 16151 H 1498.96 -0.238103 3.50893 0
M  V30 16152 H 1498.83 -1.96434 3.22015 0
M  V30 16153 H 1501.22 -1.93418 2.22876 0
M  V30 16154 H 1501.3 -0.19614 2.55047 0
M  V30 16155 H 1500.94 -0.662201 5.03565 0
M  V30 16156 H 1500.87 -2.40718 4.68361 0
M  V30 16157 H 1503.37 -1.35862 3.52633 0
M  V30 16158 H 1503.68 -2.18578 7.41245 0
M  V30 16159 H 1502.02 -1.97239 6.66425 0
M  V30 16160 H 1505.21 -1.60402 4.3976 0
M  V30 16161 H 1505.39 -1.98142 6.16963 0
M  V30 16162 N 1498.79 -1.41931 -0.685074 0
M  V30 16163 C 1499.74 -1.41066 -1.79121 0
M  V30 16164 C 1500.73 -0.283467 -1.58383 0
M  V30 16165 O 1501.92 -0.524931 -1.69037 0
M  V30 16166 C 1499.05 -1.30551 -3.17508 0
M  V30 16167 C 1498.13 -2.48174 -3.43905 0
M  V30 16168 N 1498.53 -3.73621 -3.40941 0
M  V30 16169 C 1496.82 -2.42213 -3.74498 0
M  V30 16170 C 1497.52 -4.51693 -3.66536 0
M  V30 16171 N 1496.5 -3.81955 -3.86796 0
M  V30 16172 H 1500.3 -2.35965 -1.75208 0
M  V30 16173 H 1497.82 -1.36135 -0.885498 0
M  V30 16174 H 1499.81 -1.28013 -3.9676 0
M  V30 16175 H 1498.47 -0.366454 -3.22625 0
M  V30 16176 H 1499.48 -4.0636 -3.21079 0
M  V30 16177 H 1496.16 -1.56835 -3.86923 0
M  V30 16178 H 1497.55 -5.60654 -3.70292 0
M  V30 16179 N 1500.27 0.920374 -1.27933 0
M  V30 16180 C 1501.2 2.03882 -1.13817 0
M  V30 16181 C 1502.18 1.70058 -0.0376853 0
M  V30 16182 O 1503.37 1.93023 -0.213492 0
M  V30 16183 C 1500.5 3.38142 -0.792296 0
M  V30 16184 C 1499.45 3.86104 -1.84683 0
M  V30 16185 C 1498.78 5.17253 -1.35474 0
M  V30 16186 C 1500.08 4.0869 -3.25223 0
M  V30 16187 H 1501.77 2.15949 -2.07379 0
M  V30 16188 H 1499.32 1.03764 -0.998454 0
M  V30 16189 H 1501.27 4.15872 -0.680337 0
M  V30 16190 H 1499.99 3.26109 0.179029 0
M  V30 16191 H 1498.65 3.10573 -1.94782 0
M  V30 16192 H 1498.3 5.01618 -0.372666 0
M  V30 16193 H 1498 5.50314 -2.05982 0
M  V30 16194 H 1499.53 5.97545 -1.25587 0
M  V30 16195 H 1500.94 4.76965 -3.18083 0
M  V30 16196 H 1499.34 4.5307 -3.93507 0
M  V30 16197 H 1500.41 3.13729 -3.69733 0
M  V30 16198 N 1501.75 1.10074 1.1279 0
M  V30 16199 C 1502.68 0.704023 2.1812 0
M  V30 16200 C 1503.69 -0.25742 1.60752 0
M  V30 16201 O 1504.88 -0.0424559 1.7845 0
M  V30 16202 C 1501.98 0.0176666 3.38895 0
M  V30 16203 C 1501.16 1.00234 4.2576 0
M  V30 16204 C 1500.22 0.348158 5.25047 0
M  V30 16205 O 1499.24 0.997821 5.60386 0
M  V30 16206 N 1500.44 -0.894955 5.7356 0
M  V30 16207 H 1503.21 1.61024 2.52767 0
M  V30 16208 H 1500.77 0.989068 1.28176 0
M  V30 16209 H 1502.76 -0.431346 4.02395 0
M  V30 16210 H 1501.33 -0.7909 3.02429 0
M  V30 16211 H 1500.55 1.62972 3.58934 0
M  V30 16212 H 1501.84 1.669 4.80647 0
M  V30 16213 H 1501.24 -1.4422 5.47007 0
M  V30 16214 H 1499.79 -1.28718 6.38964 0
M  V30 16215 N 1503.23 -1.30138 0.888926 0
M  V30 16216 C 1504.14 -2.31778 0.3628 0
M  V30 16217 C 1505.15 -1.65507 -0.53698 0
M  V30 16218 O 1506.33 -1.96775 -0.429152 0
M  V30 16219 C 1503.39 -3.44259 -0.410673 0
M  V30 16220 C 1502.46 -4.26147 0.519334 0
M  V30 16221 C 1501.69 -5.33257 -0.21732 0
M  V30 16222 O 1501.91 -5.5185 -1.44284 0
M  V30 16223 O 1500.85 -6.00329 0.43461 0
M  V30 16224 H 1504.67 -2.78739 1.20575 0
M  V30 16225 H 1502.26 -1.34379 0.65289 0
M  V30 16226 H 1504.14 -4.1277 -0.848467 0
M  V30 16227 H 1502.81 -2.99426 -1.22986 0
M  V30 16228 H 1501.72 -3.60319 1.00602 0
M  V30 16229 H 1503.05 -4.74595 1.30464 0
M  V30 16230 N 1504.71 -0.650285 -1.43559 0
M  V30 16231 C 1505.65 0.043098 -2.3076 0
M  V30 16232 C 1506.62 0.81763 -1.44582 0
M  V30 16233 O 1507.81 0.794825 -1.73457 0
M  V30 16234 C 1504.95 1.00557 -3.30125 0
M  V30 16235 C 1504.06 0.227448 -4.31401 0
M  V30 16236 C 1503.2 1.18345 -5.17849 0
M  V30 16237 C 1502.23 0.395596 -6.1082 0
M  V30 16238 N 1501.37 1.30304 -6.89902 0
M  V30 16239 H 1506.21 -0.706402 -2.89506 0
M  V30 16240 H 1503.75 -0.360118 -1.42624 0
M  V30 16241 H 1505.71 1.57717 -3.8624 0
M  V30 16242 H 1504.34 1.72198 -2.73034 0
M  V30 16243 H 1503.39 -0.460391 -3.77604 0
M  V30 16244 H 1504.7 -0.385316 -4.9731 0
M  V30 16245 H 1503.85 1.82578 -5.78576 0
M  V30 16246 H 1502.59 1.83013 -4.52059 0
M  V30 16247 H 1501.6 -0.260099 -5.49184 0
M  V30 16248 H 1502.82 -0.246633 -6.78652 0
M  V30 16249 H 1500.77 1.93657 -6.26764 0
M  V30 16250 H 1500.69 0.744768 -7.52323 0
M  V30 16251 H 1501.95 1.93361 -7.55137 0
M  V30 16252 N 1506.18 1.52647 -0.392018 0
M  V30 16253 C 1507.13 2.23336 0.458815 0
M  V30 16254 C 1508.12 1.23825 1.02743 0
M  V30 16255 O 1509.31 1.49148 0.953089 0
M  V30 16256 C 1506.44 3.04566 1.58412 0
M  V30 16257 C 1505.52 4.11474 1.02711 0
M  V30 16258 N 1505.92 5.05423 0.195282 0
M  V30 16259 C 1504.21 4.26654 1.29934 0
M  V30 16260 C 1504.91 5.81591 -0.112738 0
M  V30 16261 N 1503.89 5.4137 0.491926 0
M  V30 16262 H 1507.69 2.93328 -0.183222 0
M  V30 16263 H 1505.21 1.61145 -0.201476 0
M  V30 16264 H 1507.2 3.53747 2.2061 0
M  V30 16265 H 1505.86 2.36109 2.22896 0
M  V30 16266 H 1506.87 5.17628 -0.167677 0
M  V30 16267 H 1503.55 3.69426 1.94501 0
M  V30 16268 H 1504.94 6.67276 -0.786879 0
M  V30 16269 N 1507.66 0.121921 1.57128 0
M  V30 16270 C 1508.59 -0.857725 2.12546 0
M  V30 16271 C 1509.61 -1.22797 1.06886 0
M  V30 16272 O 1510.8 -1.17641 1.34249 0
M  V30 16273 C 1507.9 -2.15869 2.61254 0
M  V30 16274 C 1507.07 -1.95969 3.91043 0
M  V30 16275 C 1506.13 -3.09822 4.2532 0
M  V30 16276 O 1505.15 -2.82608 4.94087 0
M  V30 16277 N 1506.36 -4.36333 3.82875 0
M  V30 16278 H 1509.12 -0.384239 2.97227 0
M  V30 16279 H 1506.68 -0.062416 1.6178 0
M  V30 16280 H 1508.67 -2.91035 2.81213 0
M  V30 16281 H 1507.24 -2.54557 1.81437 0
M  V30 16282 H 1506.46 -1.04979 3.79965 0
M  V30 16283 H 1507.75 -1.79981 4.75904 0
M  V30 16284 H 1507.15 -4.61318 3.27417 0
M  V30 16285 H 1505.71 -5.08362 4.07936 0
M  V30 16286 N 1509.14 -1.56867 -0.151857 0
M  V30 16287 C 1510.07 -2.00932 -1.18949 0
M  V30 16288 C 1511.05 -0.888062 -1.45077 0
M  V30 16289 O 1512.24 -1.15553 -1.56081 0
M  V30 16290 C 1509.37 -2.3858 -2.52383 0
M  V30 16291 C 1508.32 -3.53845 -2.40785 0
M  V30 16292 C 1507.65 -3.77292 -3.78886 0
M  V30 16293 C 1508.95 -4.8667 -1.89605 0
M  V30 16294 H 1510.64 -2.87863 -0.823107 0
M  V30 16295 H 1508.19 -1.38491 -0.394499 0
M  V30 16296 H 1510.14 -2.68006 -3.25193 0
M  V30 16297 H 1508.86 -1.48579 -2.90847 0
M  V30 16298 H 1507.52 -3.24577 -1.70427 0
M  V30 16299 H 1507.17 -2.84551 -4.14777 0
M  V30 16300 H 1506.87 -4.54861 -3.71989 0
M  V30 16301 H 1508.39 -4.09139 -4.53252 0
M  V30 16302 H 1509.81 -5.14846 -2.52204 0
M  V30 16303 H 1508.21 -5.6801 -1.93609 0
M  V30 16304 H 1509.28 -4.77366 -0.851438 0
M  V30 16305 N 1510.62 0.421051 -1.51871 0
M  V30 16306 C 1511.55 1.51928 -1.77313 0
M  V30 16307 C 1512.53 1.58258 -0.623579 0
M  V30 16308 O 1513.71 1.73724 -0.867967 0
M  V30 16309 C 1510.84 2.89865 -1.913 0
M  V30 16310 C 1509.8 2.98391 -3.06834 0
M  V30 16311 C 1509.12 4.38466 -3.06026 0
M  V30 16312 C 1510.42 2.7097 -4.46511 0
M  V30 16313 H 1512.12 1.30889 -2.69274 0
M  V30 16314 H 1509.66 0.628229 -1.29573 0
M  V30 16315 H 1511.62 3.66669 -2.07682 0
M  V30 16316 H 1510.34 3.12172 -0.960011 0
M  V30 16317 H 1509 2.24029 -2.90184 0
M  V30 16318 H 1508.65 4.57764 -2.08472 0
M  V30 16319 H 1508.35 4.45097 -3.83618 0
M  V30 16320 H 1509.87 5.17221 -3.24522 0
M  V30 16321 H 1511.29 3.37501 -4.63428 0
M  V30 16322 H 1509.68 2.88992 -5.25931 0
M  V30 16323 H 1510.75 1.66476 -4.55427 0
M  V30 16324 N 1512.1 1.42293 0.677538 0
M  V30 16325 C 1513.04 1.45556 1.79114 0
M  V30 16326 C 1514.01 0.307826 1.63223 0
M  V30 16327 O 1515.2 0.511504 1.83816 0
M  V30 16328 C 1512.34 1.36104 3.17127 0
M  V30 16329 C 1511.45 2.60891 3.44325 0
M  V30 16330 C 1510.59 2.43601 4.72051 0
M  V30 16331 C 1509.63 3.63775 4.92274 0
M  V30 16332 N 1508.76 3.45444 6.11239 0
M  V30 16333 H 1513.6 2.40723 1.7566 0
M  V30 16334 H 1511.14 1.19517 0.857565 0
M  V30 16335 H 1513.1 1.28622 3.96878 0
M  V30 16336 H 1511.73 0.445342 3.19713 0
M  V30 16337 H 1510.78 2.78751 2.58848 0
M  V30 16338 H 1512.09 3.50229 3.55163 0
M  V30 16339 H 1511.25 2.33689 5.59888 0
M  V30 16340 H 1509.98 1.51748 4.63491 0
M  V30 16341 H 1508.99 3.74122 4.0288 0
M  V30 16342 H 1510.21 4.56605 5.02681 0
M  V30 16343 H 1508.16 2.56306 6.03857 0
M  V30 16344 H 1508.08 4.28368 6.22926 0
M  V30 16345 H 1509.35 3.39339 7.01762 0
M  V30 16346 N 1513.57 -0.913576 1.28419 0
M  V30 16347 C 1514.51 -2.02073 1.08163 0
M  V30 16348 C 1515.52 -1.62766 0.0333064 0
M  V30 16349 O 1516.71 -1.76347 0.27638 0
M  V30 16350 C 1513.81 -3.33151 0.621596 0
M  V30 16351 C 1512.98 -4.01068 1.74536 0
M  V30 16352 C 1512.04 -5.10428 1.27868 0
M  V30 16353 O 1511.07 -5.33617 1.98094 0
M  V30 16354 N 1512.27 -5.80326 0.141976 0
M  V30 16355 H 1515.03 -2.20009 2.0351 0
M  V30 16356 H 1512.59 -1.08488 1.20174 0
M  V30 16357 H 1514.59 -4.03638 0.292989 0
M  V30 16358 H 1513.16 -3.11685 -0.239031 0
M  V30 16359 H 1512.38 -3.24127 2.24355 0
M  V30 16360 H 1513.66 -4.4319 2.49919 0
M  V30 16361 H 1513.06 -5.63956 -0.443845 0
M  V30 16362 H 1511.62 -6.51676 -0.127354 0
M  V30 16363 N 1515.05 -1.1067 -1.12204 0
M  V30 16364 C 1515.98 -0.715581 -2.17743 0
M  V30 16365 C 1517 0.248892 -1.60886 0
M  V30 16366 O 1518.19 0.0329917 -1.7847 0
M  V30 16367 C 1515.29 -0.0356388 -3.38881 0
M  V30 16368 C 1514.46 -1.0249 -4.25223 0
M  V30 16369 C 1513.52 -0.375998 -5.24855 0
M  V30 16370 O 1512.54 -1.02753 -5.59849 0
M  V30 16371 N 1513.75 0.864525 -5.74026 0
M  V30 16372 H 1516.51 -1.62362 -2.5191 0
M  V30 16373 H 1514.07 -0.995851 -1.2765 0
M  V30 16374 H 1516.06 0.41 -4.02618 0
M  V30 16375 H 1514.63 0.77485 -3.02845 0
M  V30 16376 H 1513.85 -1.64874 -3.58065 0
M  V30 16377 H 1515.14 -1.69446 -4.79756 0
M  V30 16378 H 1514.54 1.41317 -5.47764 0
M  V30 16379 H 1513.1 1.25327 -6.39638 0
M  V30 16380 N 1516.53 1.29665 -0.895815 0
M  V30 16381 C 1517.46 2.30268 -0.387151 0
M  V30 16382 C 1518.44 1.61442 0.535768 0
M  V30 16383 O 1519.63 1.88978 0.447321 0
M  V30 16384 C 1516.76 3.45107 0.389639 0
M  V30 16385 C 1515.71 4.25706 -0.442498 0
M  V30 16386 C 1515.04 5.32704 0.461552 0
M  V30 16387 C 1516.34 4.9419 -1.69036 0
M  V30 16388 H 1518.03 2.73064 -1.22786 0
M  V30 16389 H 1515.58 1.31274 -0.591869 0
M  V30 16390 H 1517.53 4.14559 0.756203 0
M  V30 16391 H 1516.25 3.01145 1.2641 0
M  V30 16392 H 1514.91 3.57957 -0.791343 0
M  V30 16393 H 1514.56 4.84987 1.33403 0
M  V30 16394 H 1514.26 5.87529 -0.0915006 0
M  V30 16395 H 1515.78 6.05009 0.824395 0
M  V30 16396 H 1517.2 5.561 -1.39376 0
M  V30 16397 H 1515.6 5.5893 -2.18444 0
M  V30 16398 H 1516.67 4.19699 -2.42859 0
M  V30 16399 N 1518.01 0.657889 1.43212 0
M  V30 16400 C 1518.96 -0.0308596 2.30779 0
M  V30 16401 C 1519.93 -0.809951 1.45014 0
M  V30 16402 O 1521.11 -0.785615 1.73876 0
M  V30 16403 C 1518.25 -0.988048 3.30653 0
M  V30 16404 C 1517.36 -0.204567 4.31515 0
M  V30 16405 C 1516.5 -1.15598 5.1847 0
M  V30 16406 C 1515.54 -0.363197 6.11022 0
M  V30 16407 N 1514.67 -1.26644 6.90584 0
M  V30 16408 H 1519.51 0.721745 2.89128 0
M  V30 16409 H 1517.05 0.367677 1.42431 0
M  V30 16410 H 1519.01 -1.55666 3.87071 0
M  V30 16411 H 1517.64 -1.70747 2.73944 0
M  V30 16412 H 1516.69 0.48041 3.77354 0
M  V30 16413 H 1518 0.411684 4.97098 0
M  V30 16414 H 1517.16 -1.79507 5.79536 0
M  V30 16415 H 1515.9 -1.80613 4.53023 0
M  V30 16416 H 1514.9 0.28922 5.49039 0
M  V30 16417 H 1516.13 0.28262 6.78512 0
M  V30 16418 H 1514.07 -1.90331 6.27782 0
M  V30 16419 H 1513.99 -0.70486 7.52707 0
M  V30 16420 H 1515.26 -1.89353 7.56152 0
M  V30 16421 N 1519.49 -1.52437 0.400108 0
M  V30 16422 C 1520.76 -1.94162 -0.23671 0
M  V30 16423 C 1521.14 -1.33636 -1.63416 0
M  V30 16424 O 1520.49 -0.508643 -2.22767 0
M  V30 16425 C 1520.7 -3.48088 -0.252159 0
M  V30 16426 C 1522.05 -4.21925 -0.475887 0
M  V30 16427 O 1523.07 -3.5465 -0.331905 0
M  V30 16428 O 1521.93 -5.41205 -0.758895 0
M  V30 16429 H 1519.03 -0.813294 -0.14994 0
M  V30 16430 H 1521.57 -1.63475 0.455399 0
M  V30 16431 H 1520.34 -3.84501 0.726263 0
M  V30 16432 H 1519.97 -3.8511 -0.988742 0
M  V30 16433 N 1520.96 -0.130252 -1.57061 0
M  V30 16434 C 1521.9 0.846442 -2.12998 0
M  V30 16435 C 1522.91 1.22229 -1.07536 0
M  V30 16436 O 1524.1 1.16928 -1.34871 0
M  V30 16437 C 1521.2 2.14481 -2.62395 0
M  V30 16438 C 1520.37 1.93892 -3.92077 0
M  V30 16439 C 1519.43 3.07562 -4.26957 0
M  V30 16440 O 1518.46 2.79983 -4.95578 0
M  V30 16441 N 1519.66 4.34297 -3.85184 0
M  V30 16442 H 1522.42 0.368471 -2.97426 0
M  V30 16443 H 1519.98 0.0538355 -1.6181 0
M  V30 16444 H 1521.98 2.8954 -2.82752 0
M  V30 16445 H 1520.55 2.53592 -1.82784 0
M  V30 16446 H 1519.77 1.02962 -3.80516 0
M  V30 16447 H 1521.05 1.77454 -4.76852 0
M  V30 16448 H 1520.45 4.59575 -3.29859 0
M  V30 16449 H 1519.01 5.06191 -4.10626 0
M  V30 16450 N 1522.44 1.56945 0.143535 0
M  V30 16451 C 1523.67 1.87429 0.869139 0
M  V30 16452 C 1524.08 0.716856 1.75094 0
M  V30 16453 O 1523.42 -0.322379 1.80849 0
M  V30 16454 C 1523.49 3.12657 1.77442 0
M  V30 16455 C 1523.15 4.44311 1.06943 0
M  V30 16456 C 1524.15 5.18187 0.421706 0
M  V30 16457 C 1521.83 4.91033 1.05791 0
M  V30 16458 C 1523.83 6.36992 -0.228127 0
M  V30 16459 C 1521.51 6.09761 0.404266 0
M  V30 16460 C 1522.51 6.82587 -0.237621 0
M  V30 16461 O 1522.2 7.99059 -0.880893 0
M  V30 16462 H 1521.93 0.625443 0.256508 0
M  V30 16463 H 1524.49 2.04922 0.139979 0
M  V30 16464 H 1522.72 2.91181 2.54461 0
M  V30 16465 H 1524.4 3.29359 2.37228 0
M  V30 16466 H 1525.17 4.83157 0.422395 0
M  V30 16467 H 1521.05 4.3427 1.54694 0
M  V30 16468 H 1524.59 6.93773 -0.729732 0
M  V30 16469 H 1520.49 6.44252 0.401256 0
M  V30 16470 H 1521.26 8.14747 -0.782907 0
M  V30 16471 N 1523.92 -0.412991 1.52093 0
M  V30 16472 C 1525.17 -1.1603 1.65962 0
M  V30 16473 C 1525.5 -1.90598 0.387652 0
M  V30 16474 O 1524.75 -1.85308 -0.629243 0
M  V30 16475 C 1525.05 -2.18321 2.82968 0
M  V30 16476 C 1524.72 -1.60589 4.21334 0
M  V30 16477 C 1523.38 -1.44568 4.5897 0
M  V30 16478 C 1525.73 -1.18388 5.07576 0
M  V30 16479 C 1523.06 -0.848584 5.80531 0
M  V30 16480 C 1525.41 -0.600985 6.29739 0
M  V30 16481 C 1524.07 -0.42788 6.66127 0
M  V30 16482 H 1523.34 -0.424583 0.607297 0
M  V30 16483 H 1525.99 -0.448028 1.86185 0
M  V30 16484 H 1524.3 -2.95678 2.57063 0
M  V30 16485 H 1525.99 -2.76009 2.90895 0
M  V30 16486 H 1522.58 -1.7404 3.91673 0
M  V30 16487 H 1526.77 -1.29576 4.79086 0
M  V30 16488 H 1522.02 -0.702447 6.07351 0
M  V30 16489 H 1526.2 -0.265583 6.95893 0
M  V30 16490 H 1523.82 0.0369013 7.60191 0
M  V30 16491 N 1525.4 -1.4265 -0.669982 0
M  V30 16492 C 1526.33 -1.4094 -1.79475 0
M  V30 16493 C 1527.31 -0.273018 -1.60292 0
M  V30 16494 O 1528.49 -0.463994 -1.827 0
M  V30 16495 C 1525.62 -1.20489 -3.16544 0
M  V30 16496 C 1524.67 -2.37184 -3.54466 0
M  V30 16497 S 1525.5 -3.99722 -3.56346 0
M  V30 16498 C 1526.66 -3.81624 -4.96099 0
M  V30 16499 H 1526.89 -2.36119 -1.80652 0
M  V30 16500 H 1524.42 -1.2948 -0.841092 0
M  V30 16501 H 1526.38 -1.09377 -3.9566 0
M  V30 16502 H 1525.04 -0.268876 -3.12947 0
M  V30 16503 H 1524.23 -2.18636 -4.54108 0
M  V30 16504 H 1523.84 -2.44836 -2.82722 0
M  V30 16505 H 1526.13 -3.42912 -5.8431 0
M  V30 16506 H 1527.07 -4.8096 -5.19696 0
M  V30 16507 H 1527.48 -3.14397 -4.68844 0
M  V30 16508 N 1526.88 0.906753 -1.28902 0
M  V30 16509 C 1527.81 2.01497 -1.09233 0
M  V30 16510 C 1528.82 1.62746 -0.0419378 0
M  V30 16511 O 1530.01 1.76198 -0.285728 0
M  V30 16512 C 1527.11 3.32816 -0.639255 0
M  V30 16513 C 1526.28 4.00137 -1.76661 0
M  V30 16514 C 1525.34 5.09742 -1.30573 0
M  V30 16515 O 1524.37 5.32559 -2.00921 0
M  V30 16516 N 1525.57 5.80243 -0.17275 0
M  V30 16517 H 1528.34 2.18927 -2.04673 0
M  V30 16518 H 1525.9 1.0785 -1.20748 0
M  V30 16519 H 1527.89 4.03477 -0.31439 0
M  V30 16520 H 1526.46 3.11807 0.222498 0
M  V30 16521 H 1525.68 3.22933 -2.26071 0
M  V30 16522 H 1526.97 4.41859 -2.52266 0
M  V30 16523 H 1526.37 5.64184 0.413931 0
M  V30 16524 H 1524.92 6.51734 0.0927926 0
M  V30 16525 N 1528.36 1.11264 1.11616 0
M  V30 16526 C 1529.77 0.846176 1.35322 0
M  V30 16527 C 1529.97 -0.530043 1.94404 0
M  V30 16528 O 1529.03 -1.28122 2.1758 0
M  V30 16529 C 1530.34 1.9528 2.28662 0
M  V30 16530 C 1531.89 1.98225 2.42231 0
M  V30 16531 C 1532.36 3.08086 3.38891 0
M  V30 16532 N 1533.85 3.07448 3.46453 0
M  V30 16533 C 1534.59 3.89094 4.21181 0
M  V30 16534 N 1534.09 4.80698 4.989 0
M  V30 16535 N 1535.88 3.77279 4.16674 0
M  V30 16536 H 1528.03 1.99958 0.716284 0
M  V30 16537 H 1530.29 0.869439 0.377862 0
M  V30 16538 H 1530 2.94381 1.92439 0
M  V30 16539 H 1529.87 1.84739 3.28864 0
M  V30 16540 H 1532.26 0.997517 2.77729 0
M  V30 16541 H 1532.34 2.12842 1.41887 0
M  V30 16542 H 1531.98 4.06784 3.0412 0
M  V30 16543 H 1531.91 2.90709 4.39085 0
M  V30 16544 H 1534.41 2.41077 2.91016 0
M  V30 16545 H 1534.72 5.39535 5.53282 0
M  V30 16546 H 1533.06 4.84721 4.98067 0
M  V30 16547 H 1536.25 3.05059 3.55044 0
M  V30 16548 H 1536.43 4.41142 4.74655 0
M  V30 16549 N 1529.83 -1.29188 0.902679 0
M  V30 16550 C 1530.78 -2.25236 0.353959 0
M  V30 16551 C 1531.77 -1.52002 -0.527659 0
M  V30 16552 O 1532.96 -1.73107 -0.369189 0
M  V30 16553 C 1530.09 -3.40785 -0.414803 0
M  V30 16554 C 1529.17 -4.21353 0.481904 0
M  V30 16555 N 1529.57 -4.80143 1.59048 0
M  V30 16556 C 1527.86 -4.45119 0.280241 0
M  V30 16557 C 1528.56 -5.40661 2.14616 0
M  V30 16558 N 1527.54 -5.24213 1.43882 0
M  V30 16559 H 1531.34 -2.68252 1.20076 0
M  V30 16560 H 1528.86 -1.43832 0.754069 0
M  V30 16561 H 1530.85 -4.08662 -0.824674 0
M  V30 16562 H 1529.51 -2.99305 -1.25883 0
M  V30 16563 H 1530.52 -4.78838 1.97319 0
M  V30 16564 H 1527.2 -4.14184 -0.525174 0
M  V30 16565 H 1528.59 -5.97246 3.07809 0
M  V30 16566 N 1531.31 -0.665475 -1.42861 0
M  V30 16567 C 1532.24 0.0574495 -2.29128 0
M  V30 16568 C 1533.26 0.774881 -1.43176 0
M  V30 16569 O 1534.45 0.630593 -1.6699 0
M  V30 16570 C 1531.55 1.10481 -3.20386 0
M  V30 16571 C 1530.72 0.463071 -4.34942 0
M  V30 16572 C 1529.78 1.40896 -5.06986 0
M  V30 16573 O 1528.8 0.912839 -5.61833 0
M  V30 16574 N 1530.01 2.74257 -5.11628 0
M  V30 16575 H 1532.77 -0.683051 -2.91812 0
M  V30 16576 H 1530.33 -0.509179 -1.53685 0
M  V30 16577 H 1532.32 1.73866 -3.65449 0
M  V30 16578 H 1530.89 1.74715 -2.59217 0
M  V30 16579 H 1530.11 -0.350109 -3.92642 0
M  V30 16580 H 1531.4 0.0156092 -5.08798 0
M  V30 16581 H 1530.8 3.17112 -4.68462 0
M  V30 16582 H 1529.36 3.32913 -5.60368 0
M  V30 16583 N 1532.79 1.52222 -0.408187 0
M  V30 16584 C 1533.72 2.29892 0.408868 0
M  V30 16585 C 1534.7 1.34063 1.04695 0
M  V30 16586 O 1535.89 1.6297 1.05615 0
M  V30 16587 C 1533.02 3.11964 1.52629 0
M  V30 16588 C 1531.97 4.15833 1.01326 0
M  V30 16589 C 1531.3 4.86244 2.2242 0
M  V30 16590 C 1532.6 5.22256 0.0679573 0
M  V30 16591 H 1534.29 2.98443 -0.23923 0
M  V30 16592 H 1531.84 1.43528 -0.116496 0
M  V30 16593 H 1533.79 3.65067 2.10486 0
M  V30 16594 H 1532.51 2.41181 2.20225 0
M  V30 16595 H 1531.17 3.63739 0.4571 0
M  V30 16596 H 1530.82 4.11991 2.88569 0
M  V30 16597 H 1530.52 5.56461 1.88746 0
M  V30 16598 H 1532.04 5.42159 2.80885 0
M  V30 16599 H 1533.46 5.70604 0.555295 0
M  V30 16600 H 1531.85 5.9983 -0.179934 0
M  V30 16601 H 1532.92 4.76892 -0.877599 0
M  V30 16602 N 1534.27 0.138579 1.5699 0
M  V30 16603 C 1535.2 -0.800568 2.19347 0
M  V30 16604 C 1536.18 -1.26318 1.13921 0
M  V30 16605 O 1537.36 -1.32226 1.42232 0
M  V30 16606 C 1534.49 -2.04317 2.80842 0
M  V30 16607 C 1533.45 -1.71764 3.92022 0
M  V30 16608 C 1532.77 -3.03217 4.40413 0
M  V30 16609 C 1534.07 -0.970789 5.13199 0
M  V30 16610 H 1535.77 -0.280888 2.98079 0
M  V30 16611 H 1533.31 -0.133663 1.43378 0
M  V30 16612 H 1535.27 -2.70491 3.2313 0
M  V30 16613 H 1533.99 -2.58643 1.99428 0
M  V30 16614 H 1532.65 -1.07972 3.50339 0
M  V30 16615 H 1532.3 -3.55517 3.55832 0
M  V30 16616 H 1532 -2.82203 5.15398 0
M  V30 16617 H 1533.52 -3.70477 4.85365 0
M  V30 16618 H 1534.94 -1.53445 5.52384 0
M  V30 16619 H 1533.33 -0.860895 5.93893 0
M  V30 16620 H 1534.4 0.0390088 4.84884 0
M  V30 16621 N 1535.75 -1.57019 -0.13521 0
M  V30 16622 C 1536.69 -1.99148 -1.16657 0
M  V30 16623 C 1537.66 -0.860947 -1.42045 0
M  V30 16624 O 1538.85 -1.12393 -1.54183 0
M  V30 16625 C 1535.99 -2.3872 -2.49212 0
M  V30 16626 C 1535.1 -3.65117 -2.30898 0
M  V30 16627 C 1534.24 -3.9374 -3.5657 0
M  V30 16628 C 1533.27 -5.1337 -3.33343 0
M  V30 16629 N 1532.41 -5.37945 -4.51176 0
M  V30 16630 H 1537.25 -2.87052 -0.800312 0
M  V30 16631 H 1534.79 -1.42007 -0.383705 0
M  V30 16632 H 1536.75 -2.59695 -3.26518 0
M  V30 16633 H 1535.38 -1.53879 -2.83762 0
M  V30 16634 H 1534.43 -3.5185 -1.44588 0
M  V30 16635 H 1535.74 -4.52578 -2.09701 0
M  V30 16636 H 1534.89 -4.15277 -4.423 0
M  V30 16637 H 1533.63 -3.04723 -3.80782 0
M  V30 16638 H 1532.64 -4.91694 -2.46002 0
M  V30 16639 H 1533.86 -6.0395 -3.10517 0
M  V30 16640 H 1531.81 -4.51884 -4.75539 0
M  V30 16641 H 1531.73 -6.19698 -4.33025 0
M  V30 16642 H 1532.99 -5.63989 -5.38086 0
M  V30 16643 N 1537.22 0.404919 -1.52309 0
M  V30 16644 C 1538.64 0.743846 -1.41206 0
M  V30 16645 C 1538.84 1.94678 -0.519874 0
M  V30 16646 O 1537.9 2.52497 0.0127417 0
M  V30 16647 C 1539.21 0.99384 -2.83802 0
M  V30 16648 C 1540.76 1.0963 -2.93173 0
M  V30 16649 C 1541.23 1.37902 -4.36746 0
M  V30 16650 N 1542.72 1.44758 -4.39999 0
M  V30 16651 C 1543.46 1.68269 -5.48154 0
M  V30 16652 N 1542.95 1.89356 -6.6642 0
M  V30 16653 N 1544.75 1.70318 -5.35675 0
M  V30 16654 H 1536.9 -0.386855 -2.08847 0
M  V30 16655 H 1539.16 -0.110811 -0.941501 0
M  V30 16656 H 1538.87 0.182249 -3.51227 0
M  V30 16657 H 1538.74 1.91287 -3.25099 0
M  V30 16658 H 1541.13 1.89847 -2.25925 0
M  V30 16659 H 1541.21 0.155539 -2.55327 0
M  V30 16660 H 1540.85 0.582004 -5.04554 0
M  V30 16661 H 1540.78 2.33237 -4.72132 0
M  V30 16662 H 1543.27 1.30235 -3.5475 0
M  V30 16663 H 1543.59 2.06758 -7.44628 0
M  V30 16664 H 1541.93 1.86612 -6.69478 0
M  V30 16665 H 1545.12 1.53385 -4.42256 0
M  V30 16666 H 1545.3 1.88302 -6.20037 0
M  V30 16667 N 1538.7 1.43003 0.662408 0
M  V30 16668 C 1539.65 1.43898 1.76854 0
M  V30 16669 C 1540.64 0.308629 1.57912 0
M  V30 16670 O 1541.83 0.551757 1.6818 0
M  V30 16671 C 1538.96 1.35585 3.15391 0
M  V30 16672 C 1538.04 2.53614 3.39913 0
M  V30 16673 N 1538.43 3.78998 3.34954 0
M  V30 16674 C 1536.73 2.48141 3.70597 0
M  V30 16675 C 1537.43 4.57467 3.59303 0
M  V30 16676 N 1536.41 3.8806 3.80671 0
M  V30 16677 H 1540.21 2.38722 1.71432 0
M  V30 16678 H 1537.73 1.37526 0.863728 0
M  V30 16679 H 1539.72 1.34308 3.94673 0
M  V30 16680 H 1538.38 0.417735 3.22002 0
M  V30 16681 H 1539.39 4.11417 3.14574 0
M  V30 16682 H 1536.07 1.62971 3.84379 0
M  V30 16683 H 1537.46 5.66475 3.61326 0
M  V30 16684 N 1540.18 -0.899904 1.29381 0
M  V30 16685 C 1541.09 -2.03699 1.16378 0
M  V30 16686 C 1542.11 -1.73782 0.0870792 0
M  V30 16687 O 1543.28 -1.99167 0.299109 0
M  V30 16688 C 1540.35 -3.36341 0.841166 0
M  V30 16689 C 1539.41 -3.79778 2.00168 0
M  V30 16690 C 1538.64 -5.0609 1.69437 0
M  V30 16691 O 1538.86 -5.67073 0.615212 0
M  V30 16692 O 1537.8 -5.45574 2.54229 0
M  V30 16693 H 1541.62 -2.17592 2.11866 0
M  V30 16694 H 1539.21 -1.02353 1.08831 0
M  V30 16695 H 1541.09 -4.15946 0.675803 0
M  V30 16696 H 1539.77 -3.23591 -0.0839376 0
M  V30 16697 H 1538.67 -3.00941 2.22229 0
M  V30 16698 H 1540.01 -3.97111 2.90798 0
M  V30 16699 N 1541.66 -1.11854 -1.11024 0
M  V30 16700 C 1542.61 -0.780825 -2.17191 0
M  V30 16701 C 1543.58 0.249657 -1.64213 0
M  V30 16702 O 1544.76 0.125603 -1.90386 0
M  V30 16703 C 1541.9 -0.23491 -3.443 0
M  V30 16704 C 1541.01 -1.32247 -4.1126 0
M  V30 16705 C 1540.15 -0.736638 -5.26068 0
M  V30 16706 C 1539.19 -1.80375 -5.8492 0
M  V30 16707 N 1538.32 -1.23709 -6.91115 0
M  V30 16708 H 1543.16 -1.69031 -2.45423 0
M  V30 16709 H 1540.7 -0.844041 -1.20476 0
M  V30 16710 H 1542.66 0.0996064 -4.17081 0
M  V30 16711 H 1541.29 0.637752 -3.16437 0
M  V30 16712 H 1540.34 -1.77387 -3.36509 0
M  V30 16713 H 1541.65 -2.12965 -4.51051 0
M  V30 16714 H 1540.81 -0.352432 -6.05675 0
M  V30 16715 H 1539.55 0.101811 -4.87594 0
M  V30 16716 H 1538.55 -2.19721 -5.03987 0
M  V30 16717 H 1539.78 -2.64531 -6.2546 0
M  V30 16718 H 1537.72 -0.420357 -6.54652 0
M  V30 16719 H 1537.64 -1.98093 -7.29586 0
M  V30 16720 H 1538.91 -0.879912 -7.74518 0
M  V30 16721 N 1543.14 1.28707 -0.909517 0
M  V30 16722 C 1544.05 2.31171 -0.399628 0
M  V30 16723 C 1545.06 1.6634 0.510582 0
M  V30 16724 O 1546.24 1.97432 0.397792 0
M  V30 16725 C 1543.3 3.44869 0.355852 0
M  V30 16726 C 1542.36 4.25267 -0.587065 0
M  V30 16727 C 1541.6 5.33536 0.132456 0
M  V30 16728 O 1541.82 5.54075 1.35486 0
M  V30 16729 O 1540.75 5.99561 -0.530062 0
M  V30 16730 H 1544.58 2.76785 -1.24995 0
M  V30 16731 H 1542.17 1.33323 -0.674186 0
M  V30 16732 H 1544.05 4.14068 0.782692 0
M  V30 16733 H 1542.72 3.01345 1.18207 0
M  V30 16734 H 1541.63 3.58673 -1.06322 0
M  V30 16735 H 1542.96 4.72459 -1.37998 0
M  V30 16736 N 1544.61 0.673042 1.42506 0
M  V30 16737 C 1545.84 0.202922 2.05902 0
M  V30 16738 C 1546.26 -1.13923 1.50556 0
M  V30 16739 O 1545.61 -1.70735 0.644662 0
M  V30 16740 C 1545.67 0.12735 3.61276 0
M  V30 16741 O 1545.39 1.41646 4.1457 0
M  V30 16742 C 1546.89 -0.366477 4.41783 0
M  V30 16743 H 1544.11 0.0991021 0.663641 0
M  V30 16744 H 1546.65 0.919282 1.82673 0
M  V30 16745 H 1544.81 -0.539687 3.83622 0
M  V30 16746 H 1545.22 1.28866 5.08423 0
M  V30 16747 H 1546.69 -0.368267 5.5077 0
M  V30 16748 H 1547.17 -1.40142 4.16241 0
M  V30 16749 H 1547.78 0.268761 4.2445 0
M  V30 16750 N 1546.09 -1.52004 0.416254 0
M  V30 16751 C 1547 -2.30947 -0.412403 0
M  V30 16752 C 1548.02 -1.38969 -1.04707 0
M  V30 16753 O 1549.19 -1.72044 -1.04703 0
M  V30 16754 C 1546.26 -3.12078 -1.51024 0
M  V30 16755 C 1545.32 -4.19805 -0.897892 0
M  V30 16756 C 1544.55 -4.97059 -1.94341 0
M  V30 16757 O 1544.78 -4.74695 -3.16261 0
M  V30 16758 O 1543.71 -5.81715 -1.54567 0
M  V30 16759 H 1547.54 -3.02817 0.231473 0
M  V30 16760 H 1545.12 -1.4832 0.179283 0
M  V30 16761 H 1547 -3.6258 -2.14741 0
M  V30 16762 H 1545.68 -2.42995 -2.13858 0
M  V30 16763 H 1544.59 -3.73433 -0.223236 0
M  V30 16764 H 1545.92 -4.91201 -0.31336 0
M  V30 16765 N 1547.57 -0.146903 -1.56914 0
M  V30 16766 C 1548.5 0.823803 -2.13883 0
M  V30 16767 C 1549.52 1.21081 -1.08826 0
M  V30 16768 O 1550.7 1.15491 -1.36103 0
M  V30 16769 C 1547.8 2.11686 -2.64655 0
M  V30 16770 C 1546.98 1.89723 -3.94112 0
M  V30 16771 C 1546.04 3.03016 -4.30195 0
M  V30 16772 O 1545.06 2.74711 -4.9852 0
M  V30 16773 N 1546.26 4.30187 -3.89768 0
M  V30 16774 H 1549.03 0.336904 -2.978 0
M  V30 16775 H 1546.59 0.0366704 -1.61858 0
M  V30 16776 H 1548.58 2.86525 -2.85807 0
M  V30 16777 H 1547.15 2.51639 -1.85464 0
M  V30 16778 H 1546.37 0.989208 -3.81587 0
M  V30 16779 H 1547.66 1.72387 -4.78707 0
M  V30 16780 H 1547.06 4.56051 -3.34715 0
M  V30 16781 H 1545.62 5.01807 -4.15972 0
M  V30 16782 N 1549.05 1.57088 0.126881 0
M  V30 16783 C 1549.98 1.94951 1.18614 0
M  V30 16784 C 1550.96 0.818067 1.40522 0
M  V30 16785 O 1552.14 1.07553 1.54805 0
M  V30 16786 C 1549.27 2.23893 2.54144 0
M  V30 16787 C 1548.32 3.46475 2.48712 0
M  V30 16788 S 1549.15 4.9934 1.93443 0
M  V30 16789 C 1550.31 5.31426 3.30662 0
M  V30 16790 H 1550.54 2.84492 0.863219 0
M  V30 16791 H 1548.07 1.50759 0.333323 0
M  V30 16792 H 1550.03 2.41247 3.3213 0
M  V30 16793 H 1548.69 1.3498 2.83618 0
M  V30 16794 H 1547.88 3.64067 3.48528 0
M  V30 16795 H 1547.49 3.28467 1.78844 0
M  V30 16796 H 1549.78 5.26125 4.26847 0
M  V30 16797 H 1550.72 6.32726 3.17905 0
M  V30 16798 H 1551.13 4.5891 3.28727 0
M  V30 16799 N 1550.53 -0.396836 1.52522 0
M  V30 16800 C 1551.46 -1.50361 1.72986 0
M  V30 16801 C 1552.47 -1.50928 0.610289 0
M  V30 16802 O 1553.66 -1.54972 0.88578 0
M  V30 16803 C 1550.76 -2.89229 1.76635 0
M  V30 16804 C 1549.93 -3.12715 3.05824 0
M  V30 16805 C 1548.99 -4.31523 3.01122 0
M  V30 16806 O 1548.02 -4.28207 3.75004 0
M  V30 16807 N 1549.22 -5.37294 2.19763 0
M  V30 16808 H 1551.99 -1.33196 2.68475 0
M  V30 16809 H 1549.55 -0.586269 1.50912 0
M  V30 16810 H 1551.54 -3.66796 1.71006 0
M  V30 16811 H 1550.11 -2.99791 0.885667 0
M  V30 16812 H 1549.33 -2.23083 3.25004 0
M  V30 16813 H 1550.62 -3.25257 3.91261 0
M  V30 16814 H 1550.01 -5.4284 1.5919 0
M  V30 16815 H 1548.57 -6.13557 2.19981 0
M  V30 16816 N 1552.01 -1.43353 -0.654814 0
M  V30 16817 C 1553.42 -1.26718 -0.970297 0
M  V30 16818 C 1553.62 -0.185747 -2.00642 0
M  V30 16819 O 1552.68 0.436357 -2.48701 0
M  V30 16820 C 1553.99 -2.63095 -1.45608 0
M  V30 16821 C 1555.54 -2.70613 -1.57281 0
M  V30 16822 C 1556.01 -4.07404 -2.0925 0
M  V30 16823 N 1557.5 -4.09461 -2.16555 0
M  V30 16824 C 1558.24 -5.12135 -2.57885 0
M  V30 16825 N 1557.74 -6.25185 -2.98523 0
M  V30 16826 N 1559.53 -4.9949 -2.57811 0
M  V30 16827 H 1551.68 -2.12378 0.0308331 0
M  V30 16828 H 1553.94 -0.946744 -0.0487843 0
M  V30 16829 H 1553.65 -3.43186 -0.769171 0
M  V30 16830 H 1553.52 -2.88381 -2.43138 0
M  V30 16831 H 1555.91 -1.90855 -2.25074 0
M  V30 16832 H 1555.99 -2.49094 -0.581879 0
M  V30 16833 H 1555.63 -4.87628 -1.4206 0
M  V30 16834 H 1555.56 -4.26287 -3.09172 0
M  V30 16835 H 1558.06 -3.27858 -1.87929 0
M  V30 16836 H 1558.37 -6.99362 -3.28804 0
M  V30 16837 H 1556.71 -6.28659 -2.96332 0
M  V30 16838 H 1559.9 -4.10238 -2.25438 0
M  V30 16839 H 1560.08 -5.79637 -2.89699 0
M  V30 16840 N 1553.48 0.89303 -1.29857 0
M  V30 16841 C 1554.71 1.675 -1.20943 0
M  V30 16842 C 1555.12 1.87779 0.231435 0
M  V30 16843 O 1554.46 1.41955 1.16596 0
M  V30 16844 C 1554.53 3.07722 -1.8587 0
M  V30 16845 C 1554.19 3.10647 -3.35182 0
M  V30 16846 C 1555.19 2.903 -4.31303 0
M  V30 16847 C 1552.87 3.32501 -3.76495 0
M  V30 16848 C 1554.87 2.91749 -5.66711 0
M  V30 16849 C 1552.55 3.33581 -5.12022 0
M  V30 16850 C 1553.55 3.13228 -6.06941 0
M  V30 16851 O 1553.24 3.14109 -7.39994 0
M  V30 16852 H 1552.97 0.529708 -0.419982 0
M  V30 16853 H 1555.53 1.12466 -1.71874 0
M  V30 16854 H 1553.76 3.64386 -1.29459 0
M  V30 16855 H 1555.44 3.68035 -1.71187 0
M  V30 16856 H 1556.21 2.73221 -4.00718 0
M  V30 16857 H 1552.09 3.47381 -3.03064 0
M  V30 16858 H 1555.63 2.75782 -6.40773 0
M  V30 16859 H 1551.53 3.50193 -5.4225 0
M  V30 16860 H 1552.3 3.3033 -7.48882 0
M  V30 16861 N 1554.96 1.12442 1.10429 0
M  V30 16862 C 1555.91 0.787578 2.18861 0
M  V30 16863 C 1556.9 -0.225602 1.67891 0
M  V30 16864 O 1558.11 -0.0838029 1.79805 0
M  V30 16865 H 1554.48 0.236858 0.713724 0
M  V30 16866 H 1556.46 1.71048 2.4451 0
M  V30 16867 C 1555.2 0.25854 3.46737 0
M  V30 16868 H 1554.53 1.02945 3.86319 0
M  V30 16869 H 1555.97 0.0611642 4.23956 0
M  V30 16870 C 1554.43 -1.01353 3.21293 0
M  V30 16871 O 1554.96 -2.09132 3.42967 0
M  V30 16872 N 1553.16 -0.940498 2.7496 0
M  V30 16873 H 1552.71 -0.0632962 2.57522 0
M  V30 16874 H 1552.67 -1.79226 2.58313 0
M  V30 16875 N 1556.44 -1.28223 0.91633 0
M  V30 16876 C 1557.37 -2.26291 0.363986 0
M  V30 16877 C 1558.38 -1.54964 -0.498988 0
M  V30 16878 O 1559.57 -1.75726 -0.31345 0
M  V30 16879 C 1556.67 -3.35219 -0.498126 0
M  V30 16880 C 1555.85 -4.36054 0.34293 0
M  V30 16881 C 1554.91 -5.24232 -0.454688 0
M  V30 16882 O 1553.93 -5.69043 0.133649 0
M  V30 16883 N 1555.13 -5.53268 -1.75714 0
M  V30 16884 H 1557.9 -2.74323 1.20694 0
M  V30 16885 H 1555.46 -1.41731 0.782551 0
M  V30 16886 H 1557.45 -3.91148 -1.03852 0
M  V30 16887 H 1556.02 -2.86876 -1.2418 0
M  V30 16888 H 1555.24 -3.7955 1.06468 0
M  V30 16889 H 1556.53 -5.00444 0.918322 0
M  V30 16890 H 1555.93 -5.18698 -2.25762 0
M  V30 16891 H 1554.48 -6.11943 -2.2443 0
M  V30 16892 N 1557.92 -0.68059 -1.42147 0
M  V30 16893 C 1559.33 -0.350691 -1.55699 0
M  V30 16894 C 1559.53 1.1435 -1.6591 0
M  V30 16895 O 1558.59 1.92905 -1.62923 0
M  V30 16896 C 1559.9 -1.08608 -2.80401 0
M  V30 16897 C 1561.45 -1.06897 -2.9418 0
M  V30 16898 C 1561.93 -1.78581 -4.2175 0
M  V30 16899 N 1563.42 -1.75477 -4.28675 0
M  V30 16900 C 1564.15 -2.27794 -5.26211 0
M  V30 16901 N 1563.65 -2.88518 -6.29865 0
M  V30 16902 N 1565.44 -2.18135 -5.18048 0
M  V30 16903 H 1557.59 -1.64988 -1.33763 0
M  V30 16904 H 1559.85 -0.695411 -0.644289 0
M  V30 16905 H 1559.56 -2.14113 -2.79014 0
M  V30 16906 H 1559.43 -0.655022 -3.71469 0
M  V30 16907 H 1561.82 -0.0222464 -2.95092 0
M  V30 16908 H 1561.9 -1.53897 -2.04327 0
M  V30 16909 H 1561.55 -2.83225 -4.21599 0
M  V30 16910 H 1561.48 -1.29027 -5.10548 0
M  V30 16911 H 1563.97 -1.31191 -3.54397 0
M  V30 16912 H 1564.28 -3.26043 -7.00654 0
M  V30 16913 H 1562.63 -2.92589 -6.3041 0
M  V30 16914 H 1565.82 -1.7038 -4.35991 0
M  V30 16915 H 1565.99 -2.59213 -5.93896 0
M  V30 16916 N 1559.4 1.51781 -0.424309 0
M  V30 16917 C 1560.33 2.30313 0.384462 0
M  V30 16918 C 1561.31 1.35166 1.03268 0
M  V30 16919 O 1562.49 1.64081 1.0388 0
M  V30 16920 C 1559.62 3.13566 1.49311 0
M  V30 16921 C 1558.58 4.16884 0.969096 0
M  V30 16922 C 1557.9 4.88576 2.17251 0
M  V30 16923 C 1559.2 5.22298 0.0125613 0
M  V30 16924 H 1560.9 2.98172 -0.270871 0
M  V30 16925 H 1558.44 1.43396 -0.131712 0
M  V30 16926 H 1560.39 3.67279 2.06602 0
M  V30 16927 H 1559.12 2.43504 2.17655 0
M  V30 16928 H 1557.78 3.64203 0.418494 0
M  V30 16929 H 1557.43 4.15029 2.84183 0
M  V30 16930 H 1557.13 5.58432 1.82833 0
M  V30 16931 H 1558.65 5.45107 2.75119 0
M  V30 16932 H 1560.06 5.71161 0.494744 0
M  V30 16933 H 1558.46 5.99606 -0.243544 0
M  V30 16934 H 1559.53 4.75935 -0.92813 0
M  V30 16935 N 1560.87 0.155222 1.56834 0
M  V30 16936 C 1562.12 -0.493831 1.95561 0
M  V30 16937 C 1562.44 -1.65468 1.04305 0
M  V30 16938 O 1563.64 -2.36891 1.32646 0
M  V30 16939 C 1562.1 -0.929923 3.47679 0
M  V30 16940 C 1561.71 0.204447 4.47533 0
M  V30 16941 C 1563.45 -1.5483 3.95257 0
M  V30 16942 C 1561.36 -0.250375 5.9087 0
M  V30 16943 H 1560.29 -0.188258 0.73012 0
M  V30 16944 H 1562.94 0.240883 1.81912 0
M  V30 16945 H 1561.32 -1.72014 3.56689 0
M  V30 16946 H 1562.49 0.981535 4.50225 0
M  V30 16947 H 1560.81 0.731756 4.0992 0
M  V30 16948 H 1563.41 -1.90036 4.9979 0
M  V30 16949 H 1563.75 -2.44031 3.37275 0
M  V30 16950 H 1564.28 -0.822828 3.89197 0
M  V30 16951 H 1561.02 0.606461 6.52689 0
M  V30 16952 H 1560.54 -0.993164 5.9152 0
M  V30 16953 H 1562.22 -0.699645 6.43206 0
M  V30 16954 N 1562.35 -1.57153 -0.118549 0
M  V30 16955 C 1563.26 -2.03673 -1.16424 0
M  V30 16956 C 1564.28 -0.957203 -1.45305 0
M  V30 16957 O 1565.45 -1.26874 -1.56413 0
M  V30 16958 C 1562.52 -2.43211 -2.47082 0
M  V30 16959 C 1561.58 -3.65248 -2.25593 0
M  V30 16960 C 1560.81 -4.02891 -3.50021 0
M  V30 16961 O 1561.04 -3.40871 -4.57344 0
M  V30 16962 O 1559.97 -4.95989 -3.40996 0
M  V30 16963 H 1563.8 -2.92996 -0.799206 0
M  V30 16964 H 1561.38 -1.45724 -0.329376 0
M  V30 16965 H 1563.26 -2.69374 -3.24061 0
M  V30 16966 H 1561.94 -1.57034 -2.83058 0
M  V30 16967 H 1560.84 -3.44234 -1.46471 0
M  V30 16968 H 1562.18 -4.52131 -1.94521 0
M  V30 16969 N 1563.83 0.388742 -1.5273 0
M  V30 16970 C 1564.74 1.49916 -1.8045 0
M  V30 16971 C 1565.76 1.59679 -0.691282 0
M  V30 16972 O 1566.93 1.7601 -0.978898 0
M  V30 16973 C 1564 2.85445 -1.96779 0
M  V30 16974 C 1563.06 2.85402 -3.20693 0
M  V30 16975 C 1562.29 4.14466 -3.36234 0
M  V30 16976 O 1562.51 5.09436 -2.56576 0
M  V30 16977 O 1561.45 4.2169 -4.29489 0
M  V30 16978 H 1565.27 1.29423 -2.74743 0
M  V30 16979 H 1562.86 0.576607 -1.37825 0
M  V30 16980 H 1564.74 3.65791 -2.09224 0
M  V30 16981 H 1563.42 3.05964 -1.05676 0
M  V30 16982 H 1562.32 2.03836 -3.1369 0
M  V30 16983 H 1563.66 2.69835 -4.11643 0
M  V30 16984 N 1565.31 1.43698 0.647203 0
M  V30 16985 C 1566.24 1.52135 1.77136 0
M  V30 16986 C 1567.22 0.375551 1.65902 0
M  V30 16987 O 1568.4 0.593564 1.84907 0
M  V30 16988 C 1565.53 1.44974 3.15594 0
M  V30 16989 C 1564.49 2.57866 3.41598 0
M  V30 16990 C 1563.81 2.35757 4.7992 0
M  V30 16991 C 1565.11 4.00089 3.35747 0
M  V30 16992 H 1566.81 2.46227 1.70332 0
M  V30 16993 H 1564.35 1.18507 0.818046 0
M  V30 16994 H 1566.31 1.4948 3.93997 0
M  V30 16995 H 1565.03 0.473905 3.23143 0
M  V30 16996 H 1563.69 2.52722 2.65569 0
M  V30 16997 H 1563.34 1.36403 4.84152 0
M  V30 16998 H 1563.04 3.11436 4.98278 0
M  V30 16999 H 1564.56 2.42055 5.60572 0
M  V30 17000 H 1565.98 4.06687 4.04078 0
M  V30 17001 H 1564.37 4.75842 3.65642 0
M  V30 17002 H 1565.44 4.24798 2.33825 0
M  V30 17003 N 1566.79 -0.886131 1.30328 0
M  V30 17004 C 1567.73 -1.99174 1.16612 0
M  V30 17005 C 1568.7 -1.66006 0.0559202 0
M  V30 17006 O 1569.89 -1.89458 0.225897 0
M  V30 17007 C 1567.03 -3.34142 0.862726 0
M  V30 17008 C 1566.14 -3.80008 2.05469 0
M  V30 17009 C 1565.28 -5.03617 1.68949 0
M  V30 17010 C 1564.32 -5.41888 2.84647 0
M  V30 17011 N 1563.45 -6.56678 2.48431 0
M  V30 17012 H 1568.29 -2.10238 2.11197 0
M  V30 17013 H 1565.83 -1.02941 1.05079 0
M  V30 17014 H 1567.79 -4.11826 0.667447 0
M  V30 17015 H 1566.42 -3.22767 -0.0462461 0
M  V30 17016 H 1565.47 -2.98243 2.36126 0
M  V30 17017 H 1566.78 -4.04312 2.92119 0
M  V30 17018 H 1565.94 -5.88923 1.45789 0
M  V30 17019 H 1564.67 -4.81182 0.794674 0
M  V30 17020 H 1563.68 -4.55109 3.08474 0
M  V30 17021 H 1564.9 -5.66296 3.74813 0
M  V30 17022 H 1562.85 -6.35821 1.61453 0
M  V30 17023 H 1562.77 -6.80846 3.28611 0
M  V30 17024 H 1564.04 -7.45219 2.28624 0
M  V30 17025 N 1568.26 -1.13026 -1.09832 0
M  V30 17026 C 1569.21 -0.799174 -2.1844 0
M  V30 17027 C 1570.21 0.216695 -1.68008 0
M  V30 17028 O 1571.41 0.0742662 -1.79847 0
M  V30 17029 H 1567.79 -0.24064 -0.712458 0
M  V30 17030 H 1569.76 -1.72342 -2.436 0
M  V30 17031 C 1568.51 -0.276925 -3.46595 0
M  V30 17032 H 1567.83 -1.04993 -3.85768 0
M  V30 17033 H 1569.27 -0.0836468 -4.23917 0
M  V30 17034 C 1567.73 0.996479 -3.21826 0
M  V30 17035 O 1568.26 2.0731 -3.44072 0
M  V30 17036 N 1566.47 0.925903 -2.75455 0
M  V30 17037 H 1566.01 0.0496383 -2.57552 0
M  V30 17038 H 1565.97 1.77853 -2.5926 0
M  V30 17039 N 1569.74 1.27735 -0.923117 0
M  V30 17040 C 1571.16 1.46952 -0.622666 0
M  V30 17041 C 1571.36 1.8364 0.829384 0
M  V30 17042 O 1570.41 1.94705 1.60767 0
M  V30 17043 C 1571.73 2.56545 -1.56861 0
M  V30 17044 C 1573.28 2.70408 -1.57634 0
M  V30 17045 C 1573.75 3.83154 -2.50913 0
M  V30 17046 N 1575.24 3.90521 -2.49093 0
M  V30 17047 C 1575.98 4.77167 -3.17962 0
M  V30 17048 N 1575.47 5.68334 -3.96193 0
M  V30 17049 N 1577.27 4.70857 -3.07002 0
M  V30 17050 H 1569.42 1.02205 -1.86193 0
M  V30 17051 H 1571.68 0.509982 -0.799138 0
M  V30 17052 H 1571.39 2.3637 -2.60427 0
M  V30 17053 H 1571.26 3.53839 -1.30681 0
M  V30 17054 H 1573.65 2.89967 -0.548005 0
M  V30 17055 H 1573.73 1.73615 -1.8786 0
M  V30 17056 H 1573.37 3.64349 -3.53853 0
M  V30 17057 H 1573.3 4.79365 -2.17984 0
M  V30 17058 H 1575.79 3.25329 -1.92274 0
M  V30 17059 H 1576.11 6.31298 -4.45738 0
M  V30 17060 H 1574.45 5.68144 -4.00297 0
M  V30 17061 H 1577.64 3.98629 -2.45382 0
M  V30 17062 H 1577.81 5.38166 -3.60945 0
M  V30 17063 N 1571.22 0.688118 1.41784 0
M  V30 17064 C 1572.15 -0.02099 2.2919 0
M  V30 17065 C 1573.17 -0.752005 1.44391 0
M  V30 17066 O 1574.35 -0.603947 1.67972 0
M  V30 17067 C 1571.45 -1.0537 3.22103 0
M  V30 17068 C 1570.63 -0.393817 4.35624 0
M  V30 17069 C 1569.69 -1.32812 5.09163 0
M  V30 17070 O 1568.71 -0.823341 5.63214 0
M  V30 17071 N 1569.91 -2.66083 5.15927 0
M  V30 17072 H 1572.68 0.729389 2.90689 0
M  V30 17073 H 1570.24 0.533564 1.52855 0
M  V30 17074 H 1572.23 -1.6803 3.68169 0
M  V30 17075 H 1570.8 -1.70568 2.61964 0
M  V30 17076 H 1570.02 0.41253 3.92035 0
M  V30 17077 H 1571.31 0.065338 5.08758 0
M  V30 17078 H 1570.71 -3.09619 4.73448 0
M  V30 17079 H 1569.27 -3.23956 5.65593 0
M  V30 17080 N 1572.7 -1.51554 0.432352 0
M  V30 17081 C 1573.93 -2.06462 -0.1346 0
M  V30 17082 C 1574.34 -1.30027 -1.36889 0
M  V30 17083 O 1573.7 -0.358447 -1.78945 0
M  V30 17084 C 1573.75 -3.58538 -0.461822 0
M  V30 17085 O 1573.47 -4.32085 0.723471 0
M  V30 17086 C 1574.97 -4.29943 -1.07999 0
M  V30 17087 H 1572.19 -0.670923 -0.0101329 0
M  V30 17088 H 1574.74 -1.9519 0.609999 0
M  V30 17089 H 1572.89 -3.6974 -1.15632 0
M  V30 17090 H 1573.3 -5.22611 0.444757 0
M  V30 17091 H 1574.78 -5.37451 -1.25898 0
M  V30 17092 H 1575.26 -3.87912 -2.05963 0
M  V30 17093 H 1575.86 -4.23171 -0.425022 0
M  V30 17094 N 1574.18 -0.163538 -1.56749 0
M  V30 17095 C 1575.11 0.801071 -2.14745 0
M  V30 17096 C 1576.12 1.1992 -1.10104 0
M  V30 17097 O 1577.31 1.14041 -1.37321 0
M  V30 17098 C 1574.41 2.08867 -2.66886 0
M  V30 17099 C 1573.58 1.85532 -3.96102 0
M  V30 17100 C 1572.64 2.98436 -4.33385 0
M  V30 17101 O 1571.67 2.69408 -5.01406 0
M  V30 17102 N 1572.87 4.26029 -3.94309 0
M  V30 17103 H 1575.64 0.3053 -2.98141 0
M  V30 17104 H 1573.2 0.019501 -1.61888 0
M  V30 17105 H 1575.19 2.83477 -2.8883 0
M  V30 17106 H 1573.76 2.49657 -1.88122 0
M  V30 17107 H 1572.98 0.94868 -3.82614 0
M  V30 17108 H 1574.27 1.673 -4.80508 0
M  V30 17109 H 1573.66 4.52475 -3.39533 0
M  V30 17110 H 1572.22 4.97367 -4.21271 0
M  V30 17111 N 1575.65 1.57214 0.110213 0
M  V30 17112 C 1576.56 2.04287 1.15342 0
M  V30 17113 C 1577.58 0.964895 1.44796 0
M  V30 17114 O 1578.76 1.27702 1.55737 0
M  V30 17115 C 1575.82 2.44518 2.45788 0
M  V30 17116 C 1574.88 3.66439 2.23653 0
M  V30 17117 C 1574.12 4.04742 3.47879 0
M  V30 17118 O 1574.34 3.43291 4.5553 0
M  V30 17119 O 1573.27 4.97791 3.38361 0
M  V30 17120 H 1577.1 2.93415 0.783656 0
M  V30 17121 H 1574.68 1.45897 0.321644 0
M  V30 17122 H 1576.57 2.71089 3.22628 0
M  V30 17123 H 1575.24 1.58533 2.82221 0
M  V30 17124 H 1574.15 3.45006 1.44643 0
M  V30 17125 H 1575.48 4.53156 1.9212 0
M  V30 17126 N 1577.13 -0.380637 1.52934 0
M  V30 17127 C 1578.55 -0.721287 1.42371 0
M  V30 17128 C 1578.75 -1.93826 0.55078 0
M  V30 17129 O 1577.8 -2.52485 0.02743 0
M  V30 17130 C 1579.12 -0.948564 2.85347 0
M  V30 17131 C 1580.67 -1.04952 2.9488 0
M  V30 17132 C 1581.14 -1.30937 4.38885 0
M  V30 17133 N 1582.63 -1.3774 4.42246 0
M  V30 17134 C 1583.37 -1.59527 5.50762 0
M  V30 17135 N 1582.86 -1.7873 6.69349 0
M  V30 17136 N 1584.66 -1.61774 5.38317 0
M  V30 17137 H 1576.81 0.420032 2.08205 0
M  V30 17138 H 1579.07 0.125776 0.939619 0
M  V30 17139 H 1578.78 -0.126348 3.51473 0
M  V30 17140 H 1578.65 -1.8609 3.28101 0
M  V30 17141 H 1581.04 -1.86229 2.28917 0
M  V30 17142 H 1581.12 -0.114899 2.55542 0
M  V30 17143 H 1580.76 -0.50166 5.05416 0
M  V30 17144 H 1580.69 -2.25696 4.75782 0
M  V30 17145 H 1583.18 -1.24575 3.56777 0
M  V30 17146 H 1583.5 -1.94885 7.47823 0
M  V30 17147 H 1581.84 -1.75938 6.72362 0
M  V30 17148 H 1585.03 -1.4633 4.44641 0
M  V30 17149 H 1585.2 -1.78414 6.22955 0
M  V30 17150 N 1578.61 -1.44039 -0.639573 0
M  V30 17151 C 1579.57 -1.49907 -1.7338 0
M  V30 17152 C 1580.57 -0.382101 -1.56194 0
M  V30 17153 O 1581.76 -0.644396 -1.61843 0
M  V30 17154 C 1578.9 -1.36486 -3.12385 0
M  V30 17155 H 1580.09 -2.4737 -1.69553 0
M  V30 17156 H 1577.64 -1.31006 -0.852474 0
M  V30 17157 H 1578.38 -0.400845 -3.21813 0
M  V30 17158 H 1578.16 -2.17471 -3.26265 0
M  V30 17159 H 1579.65 -1.43555 -3.9215 0
M  V30 17160 N 1580.09 0.879207 -1.30796 0
M  V30 17161 C 1581.5 1.16344 -1.09253 0
M  V30 17162 C 1581.7 2.00992 0.142993 0
M  V30 17163 O 1580.76 2.38295 0.834966 0
M  V30 17164 C 1582.07 1.86452 -2.35915 0
M  V30 17165 C 1583.62 1.99193 -2.41436 0
M  V30 17166 C 1584.1 2.72714 -3.67955 0
M  V30 17167 N 1585.59 2.80256 -3.68796 0
M  V30 17168 C 1586.32 3.37732 -4.63384 0
M  V30 17169 N 1585.82 3.96212 -5.6832 0
M  V30 17170 N 1587.61 3.35602 -4.50918 0
M  V30 17171 H 1579.76 0.314928 -2.10052 0
M  V30 17172 H 1582.03 0.202087 -0.92621 0
M  V30 17173 H 1581.73 1.31699 -3.26111 0
M  V30 17174 H 1581.61 2.86796 -2.45006 0
M  V30 17175 H 1583.99 2.53113 -1.51716 0
M  V30 17176 H 1584.07 0.97919 -2.36317 0
M  V30 17177 H 1583.72 2.19464 -4.58037 0
M  V30 17178 H 1583.65 3.74376 -3.70338 0
M  V30 17179 H 1586.14 2.38742 -2.92935 0
M  V30 17180 H 1586.45 4.38153 -6.36586 0
M  V30 17181 H 1584.8 3.94615 -5.72105 0
M  V30 17182 H 1587.99 2.89147 -3.68119 0
M  V30 17183 H 1588.16 3.80099 -5.24813 0
M  V30 17184 N 1581.57 1.13606 1.09231 0
M  V30 17185 C 1582.5 0.837908 2.17948 0
M  V30 17186 C 1583.48 -0.203575 1.68877 0
M  V30 17187 O 1584.66 -0.0620702 1.94101 0
M  V30 17188 C 1581.79 0.305342 3.45955 0
M  V30 17189 C 1580.75 1.2813 4.08371 0
M  V30 17190 C 1580.07 0.608412 5.31227 0
M  V30 17191 C 1581.37 2.64055 4.50636 0
M  V30 17192 H 1583.07 1.747 2.43147 0
M  V30 17193 H 1580.61 0.84141 1.1686 0
M  V30 17194 H 1582.57 0.0844116 4.21315 0
M  V30 17195 H 1581.29 -0.639144 3.20285 0
M  V30 17196 H 1579.95 1.48826 3.35032 0
M  V30 17197 H 1579.6 -0.341613 5.01839 0
M  V30 17198 H 1579.3 1.25956 5.73942 0
M  V30 17199 H 1580.82 0.396809 6.09309 0
M  V30 17200 H 1582.24 2.47316 5.17212 0
M  V30 17201 H 1580.63 3.25364 5.0424 0
M  V30 17202 H 1581.7 3.21566 3.62937 0
M  V30 17203 N 1583.05 -1.27244 0.929878 0
M  V30 17204 C 1584.46 -1.76254 0.615732 0
M  V30 17205 C 1584.81 -1.759 -0.869111 0
M  V30 17206 O 1583.93 -1.36388 -1.6801 0
M  V30 17207 C 1584.53 -3.20068 1.11095 0
M  V30 17208 C 1583.09 -3.66736 0.847435 0
M  V30 17209 C 1582.23 -2.4659 1.26842 0
M  V30 17210 H 1585.18 -1.1348 1.10942 0
M  V30 17211 H 1585.21 -3.77714 0.459618 0
M  V30 17212 H 1584.72 -3.20293 2.19166 0
M  V30 17213 H 1582.82 -3.71954 -0.219376 0
M  V30 17214 H 1582.93 -4.56104 1.4665 0
M  V30 17215 H 1581.3 -2.45261 0.686944 0
M  V30 17216 H 1582.08 -2.49524 2.35781 0
M  V30 17217 N 1584.52 -0.695628 -1.41417 0
M  V30 17218 C 1585.47 -0.0303383 -2.3078 0
M  V30 17219 C 1586.44 0.771218 -1.4711 0
M  V30 17220 O 1587.63 0.739239 -1.75897 0
M  V30 17221 C 1584.77 0.900034 -3.33157 0
M  V30 17222 C 1583.88 0.0900862 -4.31906 0
M  V30 17223 C 1583.01 1.01811 -5.21352 0
M  V30 17224 C 1582.05 0.201068 -6.1177 0
M  V30 17225 N 1581.19 1.0829 -6.93699 0
M  V30 17226 H 1586.03 -0.798148 -2.87113 0
M  V30 17227 H 1583.57 -0.405311 -1.41406 0
M  V30 17228 H 1585.52 1.45349 -3.91062 0
M  V30 17229 H 1584.15 1.63424 -2.78375 0
M  V30 17230 H 1583.21 -0.58029 -3.75948 0
M  V30 17231 H 1584.52 -0.543336 -4.95832 0
M  V30 17232 H 1583.67 1.64079 -5.84092 0
M  V30 17233 H 1582.41 1.68538 -4.57653 0
M  V30 17234 H 1581.42 -0.434686 -5.48079 0
M  V30 17235 H 1582.64 -0.462416 -6.77524 0
M  V30 17236 H 1580.59 1.73619 -6.32608 0
M  V30 17237 H 1580.5 0.505046 -7.54311 0
M  V30 17238 H 1581.77 1.69239 -7.60906 0
M  V30 17239 N 1586 1.51322 -0.440383 0
M  V30 17240 C 1587.25 2.01302 0.126581 0
M  V30 17241 C 1587.56 1.32898 1.43518 0
M  V30 17242 O 1588.77 1.73864 2.08527 0
M  V30 17243 C 1587.23 3.58839 0.276126 0
M  V30 17244 C 1586.83 4.36182 -1.02222 0
M  V30 17245 C 1588.58 4.16957 0.796697 0
M  V30 17246 C 1586.48 5.85431 -0.838148 0
M  V30 17247 H 1585.41 0.752268 0.0510809 0
M  V30 17248 H 1588.07 1.74403 -0.570609 0
M  V30 17249 H 1586.45 3.82198 1.03639 0
M  V30 17250 H 1587.62 4.24568 -1.79105 0
M  V30 17251 H 1585.94 3.89531 -1.47155 0
M  V30 17252 H 1588.53 5.26176 0.95095 0
M  V30 17253 H 1588.88 3.76329 1.77996 0
M  V30 17254 H 1589.41 3.97687 0.0946613 0
M  V30 17255 H 1586.15 6.30476 -1.79387 0
M  V30 17256 H 1585.67 5.99701 -0.109167 0
M  V30 17257 H 1587.35 6.45122 -0.492547 0
M  V30 17258 N 1587.48 0.171848 1.5666 0
M  V30 17259 C 1588.41 -0.789671 2.15167 0
M  V30 17260 C 1589.42 -1.19335 1.10739 0
M  V30 17261 O 1590.61 -1.13311 1.37924 0
M  V30 17262 C 1587.71 -2.07448 2.6799 0
M  V30 17263 C 1586.89 -1.83429 3.9708 0
M  V30 17264 C 1585.95 -2.96134 4.34961 0
M  V30 17265 O 1584.97 -2.66746 5.02827 0
M  V30 17266 N 1586.17 -4.23932 3.96563 0
M  V30 17267 H 1588.94 -0.289484 2.98299 0
M  V30 17268 H 1586.5 -0.0109154 1.61896 0
M  V30 17269 H 1588.49 -2.81941 2.90329 0
M  V30 17270 H 1587.06 -2.48656 1.89444 0
M  V30 17271 H 1586.28 -0.928376 3.83112 0
M  V30 17272 H 1587.57 -1.64749 4.81389 0
M  V30 17273 H 1586.97 -4.50668 3.41928 0
M  V30 17274 H 1585.52 -4.95126 4.23903 0
M  V30 17275 N 1588.96 -1.5727 -0.101874 0
M  V30 17276 C 1590.37 -1.5295 -0.455899 0
M  V30 17277 C 1590.57 -0.887526 -1.80901 0
M  V30 17278 O 1589.63 -0.477143 -2.47951 0
M  V30 17279 C 1590.94 -2.97687 -0.424625 0
M  V30 17280 C 1592.49 -3.08867 -0.506963 0
M  V30 17281 C 1592.97 -4.55197 -0.505907 0
M  V30 17282 N 1594.46 -4.59718 -0.566856 0
M  V30 17283 C 1595.19 -5.7038 -0.587766 0
M  V30 17284 N 1594.69 -6.9049 -0.56529 0
M  V30 17285 N 1596.48 -5.58535 -0.632067 0
M  V30 17286 H 1588.63 -1.97381 0.784509 0
M  V30 17287 H 1590.89 -0.902141 0.291284 0
M  V30 17288 H 1590.6 -3.48094 0.502312 0
M  V30 17289 H 1590.47 -3.56022 -1.24612 0
M  V30 17290 H 1592.86 -2.58451 -1.42432 0
M  V30 17291 H 1592.94 -2.53496 0.342544 0
M  V30 17292 H 1592.59 -5.06263 0.407477 0
M  V30 17293 H 1592.52 -5.08399 -1.37253 0
M  V30 17294 H 1595.01 -3.73271 -0.589696 0
M  V30 17295 H 1595.32 -7.70588 -0.584342 0
M  V30 17296 H 1593.67 -6.92957 -0.532444 0
M  V30 17297 H 1596.86 -4.63606 -0.647109 0
M  V30 17298 H 1597.03 -6.44783 -0.644895 0
M  V30 17299 N 1590.44 0.372521 -1.53134 0
M  V30 17300 C 1591.66 1.14116 -1.73183 0
M  V30 17301 C 1592.09 1.82475 -0.456553 0
M  V30 17302 O 1591.44 1.71468 0.588919 0
M  V30 17303 C 1591.49 2.15241 -2.89316 0
M  V30 17304 O 1590.6 3.22178 -2.57439 0
M  V30 17305 H 1589.94 0.331442 -0.575362 0
M  V30 17306 H 1592.47 0.431769 -1.99992 0
M  V30 17307 H 1592.48 2.58961 -3.15283 0
M  V30 17308 H 1591.15 1.64877 -3.81822 0
M  V30 17309 H 1589.73 2.83481 -2.42267 0
M  V30 17310 N 1591.91 1.44376 0.631925 0
M  V30 17311 C 1592.82 1.5367 1.77264 0
M  V30 17312 C 1593.84 0.422425 1.68794 0
M  V30 17313 O 1595.02 0.679656 1.89585 0
M  V30 17314 C 1592.08 1.47743 3.13644 0
M  V30 17315 C 1591.14 2.70015 3.33752 0
M  V30 17316 C 1590.37 2.64362 4.63626 0
M  V30 17317 O 1590.6 1.7032 5.44378 0
M  V30 17318 O 1589.53 3.55201 4.85918 0
M  V30 17319 H 1593.36 2.5004 1.72376 0
M  V30 17320 H 1590.94 1.26614 0.793052 0
M  V30 17321 H 1592.82 1.46958 3.94945 0
M  V30 17322 H 1591.5 0.545165 3.19076 0
M  V30 17323 H 1590.41 2.76369 2.52133 0
M  V30 17324 H 1591.74 3.62286 3.33181 0
M  V30 17325 N 1593.39 -0.872258 1.31261 0
M  V30 17326 C 1594.35 -1.96081 1.1868 0
M  V30 17327 C 1595.35 -1.60392 0.11452 0
M  V30 17328 O 1596.54 -1.70363 0.363613 0
M  V30 17329 C 1593.68 -3.30862 0.821183 0
M  V30 17330 H 1594.87 -2.08667 2.15402 0
M  V30 17331 H 1592.42 -1.06026 1.14839 0
M  V30 17332 H 1593.16 -3.23976 -0.14498 0
M  V30 17333 H 1592.94 -3.58137 1.59625 0
M  V30 17334 H 1594.43 -4.10682 0.756991 0
M  V30 17335 N 1594.87 -1.14184 -1.08627 0
M  V30 17336 C 1595.82 -0.826718 -2.15486 0
M  V30 17337 C 1596.79 0.214769 -1.64706 0
M  V30 17338 O 1597.97 0.0851909 -1.9061 0
M  V30 17339 C 1595.11 -0.307888 -3.43724 0
M  V30 17340 C 1594.22 -1.40941 -4.08362 0
M  V30 17341 C 1593.36 -0.848059 -5.24387 0
M  V30 17342 C 1592.4 -1.92741 -5.80962 0
M  V30 17343 N 1591.54 -1.3834 -6.88336 0
M  V30 17344 H 1596.38 -1.74198 -2.41783 0
M  V30 17345 H 1593.91 -0.869406 -1.18658 0
M  V30 17346 H 1595.87 0.0111149 -4.17199 0
M  V30 17347 H 1594.5 0.570488 -3.17719 0
M  V30 17348 H 1593.55 -1.84485 -3.3267 0
M  V30 17349 H 1594.86 -2.22485 -4.46433 0
M  V30 17350 H 1594.02 -0.480826 -6.04792 0
M  V30 17351 H 1592.76 -0.00163783 -4.877 0
M  V30 17352 H 1591.76 -2.30362 -4.99213 0
M  V30 17353 H 1592.99 -2.77738 -6.19708 0
M  V30 17354 H 1590.93 -0.559124 -6.53613 0
M  V30 17355 H 1590.85 -2.13524 -7.2522 0
M  V30 17356 H 1592.12 -1.044 -7.72477 0
M  V30 17357 N 1596.35 1.26749 -0.936613 0
M  V30 17358 C 1597.58 1.98059 -0.598357 0
M  V30 17359 C 1597.99 1.6979 0.825646 0
M  V30 17360 O 1597.35 0.963514 1.54992 0
M  V30 17361 C 1597.4 3.51948 -0.825519 0
M  V30 17362 O 1597.12 3.79232 -2.19351 0
M  V30 17363 C 1598.62 4.40503 -0.497186 0
M  V30 17364 H 1595.84 0.631826 -0.225914 0
M  V30 17365 H 1598.39 1.61379 -1.25607 0
M  V30 17366 H 1596.54 3.86806 -0.214479 0
M  V30 17367 H 1596.95 4.73782 -2.25014 0
M  V30 17368 H 1598.43 5.47457 -0.706779 0
M  V30 17369 H 1598.91 4.35516 0.567645 0
M  V30 17370 H 1599.51 4.11181 -1.08675 0
M  V30 17371 N 1597.83 0.703118 1.41046 0
M  V30 17372 C 1599.24 0.375417 1.55122 0
M  V30 17373 C 1599.44 -1.11696 1.67709 0
M  V30 17374 O 1598.5 -1.90289 1.65971 0
M  V30 17375 C 1599.81 1.13056 2.78638 0
M  V30 17376 C 1601.36 1.11564 2.92442 0
M  V30 17377 C 1601.83 1.85268 4.18855 0
M  V30 17378 N 1603.33 1.82275 4.25829 0
M  V30 17379 C 1604.06 2.36137 5.2252 0
M  V30 17380 N 1603.56 2.98502 6.25195 0
M  V30 17381 N 1605.35 2.26349 5.14512 0
M  V30 17382 H 1597.5 1.67096 1.31121 0
M  V30 17383 H 1599.76 0.705573 0.633144 0
M  V30 17384 H 1599.47 2.18524 2.75572 0
M  V30 17385 H 1599.34 0.714037 3.7038 0
M  V30 17386 H 1601.73 0.0691901 2.95019 0
M  V30 17387 H 1601.81 1.57128 2.01853 0
M  V30 17388 H 1601.46 2.89896 4.1704 0
M  V30 17389 H 1601.39 1.37133 5.08431 0
M  V30 17390 H 1603.88 1.36812 3.52265 0
M  V30 17391 H 1604.19 3.37149 6.95378 0
M  V30 17392 H 1602.53 3.02582 6.25675 0
M  V30 17393 H 1605.73 1.77294 4.33226 0
M  V30 17394 H 1605.9 2.68629 5.89697 0
M  V30 17395 N 1599.3 -1.51086 0.448402 0
M  V30 17396 C 1600.24 -2.24615 -0.402921 0
M  V30 17397 C 1601.22 -1.26994 -1.01544 0
M  V30 17398 O 1602.4 -1.56159 -1.05577 0
M  V30 17399 C 1599.53 -3.00504 -1.56253 0
M  V30 17400 C 1598.57 -4.1287 -1.06961 0
M  V30 17401 S 1599.41 -5.355 -0.00265176 0
M  V30 17402 C 1600.56 -6.14931 -1.16667 0
M  V30 17403 H 1600.79 -2.96475 0.221298 0
M  V30 17404 H 1598.33 -1.52631 0.23303 0
M  V30 17405 H 1600.29 -3.44824 -2.22726 0
M  V30 17406 H 1598.95 -2.28212 -2.15819 0
M  V30 17407 H 1598.14 -4.65288 -1.93708 0
M  V30 17408 H 1597.74 -3.70869 -0.48296 0
M  V30 17409 H 1600.03 -6.44688 -2.08286 0
M  V30 17410 H 1600.98 -7.04806 -0.682223 0
M  V30 17411 H 1601.38 -5.46601 -1.41024 0
M  V30 17412 N 1600.78 -0.180154 -1.56567 0
M  V30 17413 C 1601.75 0.732809 -2.17169 0
M  V30 17414 C 1602.75 1.15176 -1.1221 0
M  V30 17415 O 1603.94 1.06728 -1.37677 0
M  V30 17416 C 1601.07 1.99857 -2.7617 0
M  V30 17417 H 1602.26 0.205088 -2.99198 0
M  V30 17418 H 1599.81 0.0694351 -1.56146 0
M  V30 17419 H 1600.55 2.56917 -1.97899 0
M  V30 17420 H 1600.33 1.70705 -3.5299 0
M  V30 17421 H 1601.82 2.64992 -3.22752 0
M  V30 17422 N 1602.26 1.57322 0.0935319 0
M  V30 17423 C 1603.19 1.97423 1.14452 0
M  V30 17424 C 1604.17 0.84769 1.38755 0
M  V30 17425 O 1605.36 1.10812 1.52489 0
M  V30 17426 C 1602.48 2.29234 2.49338 0
M  V30 17427 C 1601.53 3.51672 2.41306 0
M  V30 17428 S 1602.36 5.0333 1.82808 0
M  V30 17429 C 1603.52 5.3832 3.19315 0
M  V30 17430 H 1603.75 2.86259 0.80268 0
M  V30 17431 H 1601.28 1.51432 0.301269 0
M  V30 17432 H 1603.24 2.48237 3.26938 0
M  V30 17433 H 1601.9 1.40966 2.80691 0
M  V30 17434 H 1601.1 3.71377 3.40727 0
M  V30 17435 H 1600.7 3.32187 1.71837 0
M  V30 17436 H 1602.99 5.35061 4.15591 0
M  V30 17437 H 1603.93 6.39327 3.04413 0
M  V30 17438 H 1604.34 4.6578 3.18919 0
M  V30 17439 N 1603.74 -0.364395 1.53329 0
M  V30 17440 C 1604.99 -1.10691 1.69569 0
M  V30 17441 C 1605.31 -1.89268 0.448093 0
M  V30 17442 O 1604.57 -1.87216 -0.56997 0
M  V30 17443 C 1604.87 -2.09208 2.8977 0
M  V30 17444 C 1604.53 -1.47103 4.26229 0
M  V30 17445 C 1603.2 -1.29893 4.63337 0
M  V30 17446 C 1605.55 -1.0218 5.11086 0
M  V30 17447 C 1602.88 -0.663463 5.82937 0
M  V30 17448 C 1605.23 -0.400334 6.31332 0
M  V30 17449 C 1603.89 -0.21574 6.67151 0
M  V30 17450 H 1603.16 -0.405048 0.620498 0
M  V30 17451 H 1605.81 -0.388568 1.87516 0
M  V30 17452 H 1604.11 -2.8735 2.6634 0
M  V30 17453 H 1605.81 -2.66615 2.99529 0
M  V30 17454 H 1602.4 -1.61491 3.97012 0
M  V30 17455 H 1606.58 -1.14269 4.82966 0
M  V30 17456 H 1601.84 -0.508867 6.09279 0
M  V30 17457 H 1606.01 -0.0440554 6.96386 0
M  V30 17458 H 1603.64 0.278732 7.59689 0
M  V30 17459 N 1605.22 -1.44709 -0.62426 0
M  V30 17460 C 1606.16 -1.52104 -1.73589 0
M  V30 17461 C 1607.13 -0.368193 -1.61968 0
M  V30 17462 O 1608.32 -0.579374 -1.81791 0
M  V30 17463 C 1605.46 -1.4778 -3.11857 0
M  V30 17464 C 1604.57 -2.73491 -3.34405 0
M  V30 17465 C 1603.71 -2.60953 -4.62685 0
M  V30 17466 C 1602.75 -3.81795 -4.78434 0
M  V30 17467 N 1601.88 -3.67892 -5.97997 0
M  V30 17468 H 1606.72 -2.47077 -1.66604 0
M  V30 17469 H 1604.26 -1.22617 -0.812616 0
M  V30 17470 H 1606.22 -1.43263 -3.91831 0
M  V30 17471 H 1604.85 -0.563694 -3.1784 0
M  V30 17472 H 1603.9 -2.88166 -2.48324 0
M  V30 17473 H 1605.21 -3.6317 -3.4192 0
M  V30 17474 H 1604.37 -2.54308 -5.50829 0
M  V30 17475 H 1603.1 -1.68846 -4.57539 0
M  V30 17476 H 1602.11 -3.88817 -3.88717 0
M  V30 17477 H 1603.33 -4.74947 -4.85388 0
M  V30 17478 H 1601.28 -2.78541 -5.93928 0
M  V30 17479 H 1601.2 -4.51193 -6.06598 0
M  V30 17480 H 1602.47 -3.6515 -6.88684 0
M  V30 17481 N 1606.69 0.865285 -1.31722 0
M  V30 17482 C 1607.64 1.97294 -1.19766 0
M  V30 17483 C 1608.61 1.65896 -0.0823232 0
M  V30 17484 O 1609.8 1.89075 -0.256009 0
M  V30 17485 C 1606.94 3.32727 -0.915776 0
M  V30 17486 C 1606.05 3.76691 -2.11489 0
M  V30 17487 C 1605.18 5.00865 -1.76939 0
M  V30 17488 C 1604.22 5.37291 -2.93232 0
M  V30 17489 N 1603.36 6.52643 -2.58846 0
M  V30 17490 H 1608.2 2.06851 -2.14515 0
M  V30 17491 H 1605.74 1.01256 -1.06703 0
M  V30 17492 H 1607.7 4.10712 -0.732881 0
M  V30 17493 H 1606.33 3.228 -0.00510917 0
M  V30 17494 H 1605.38 2.94449 -2.4084 0
M  V30 17495 H 1606.69 3.99613 -2.98514 0
M  V30 17496 H 1605.84 5.86529 -1.5514 0
M  V30 17497 H 1604.58 4.79857 -0.871125 0
M  V30 17498 H 1603.59 4.50143 -3.15675 0
M  V30 17499 H 1604.81 5.60262 -3.83775 0
M  V30 17500 H 1602.76 6.33172 -1.71548 0
M  V30 17501 H 1602.68 6.75531 -3.39401 0
M  V30 17502 H 1603.94 7.41487 -2.40451 0
M  V30 17503 N 1608.17 1.14759 1.0802 0
M  V30 17504 C 1609.4 0.942316 1.84757 0
M  V30 17505 C 1609.82 -0.504188 1.81217 0
M  V30 17506 O 1609.18 -1.35891 1.20014 0
M  V30 17507 C 1609.23 1.45271 3.30043 0
M  V30 17508 O 1608.33 0.647414 4.07287 0
M  V30 17509 H 1607.67 0.336613 0.572353 0
M  V30 17510 H 1610.2 1.52578 1.36313 0
M  V30 17511 H 1610.21 1.4626 3.80883 0
M  V30 17512 H 1608.89 2.50583 3.31935 0
M  V30 17513 H 1607.47 0.706595 3.66144 0
M  V30 17514 N 1609.65 -1.26251 0.943322 0
M  V30 17515 C 1610.58 -2.28673 0.472347 0
M  V30 17516 C 1611.56 -1.63319 -0.475481 0
M  V30 17517 O 1612.75 -1.90508 -0.376875 0
M  V30 17518 C 1609.88 -3.46316 -0.261286 0
M  V30 17519 C 1608.83 -4.23771 0.600192 0
M  V30 17520 C 1608.16 -5.3405 -0.263525 0
M  V30 17521 C 1609.46 -4.87576 1.87262 0
M  V30 17522 H 1611.15 -2.68319 1.32836 0
M  V30 17523 H 1608.7 -1.28987 0.640182 0
M  V30 17524 H 1610.65 -4.1708 -0.601821 0
M  V30 17525 H 1609.37 -3.05629 -1.15146 0
M  V30 17526 H 1608.03 -3.54774 0.923651 0
M  V30 17527 H 1607.68 -4.89604 -1.15312 0
M  V30 17528 H 1607.38 -5.86784 0.309495 0
M  V30 17529 H 1608.9 -6.07652 -0.599281 0
M  V30 17530 H 1610.32 -5.50544 1.59919 0
M  V30 17531 H 1608.72 -5.50437 2.39038 0
M  V30 17532 H 1609.79 -4.10397 2.58268 0
M  V30 17533 N 1611.13 -0.710588 -1.40671 0
M  V30 17534 C 1612.55 -0.383638 -1.54921 0
M  V30 17535 C 1612.75 1.10805 -1.68299 0
M  V30 17536 O 1611.8 1.89406 -1.66978 0
M  V30 17537 C 1613.11 -1.14532 -2.78034 0
M  V30 17538 C 1614.66 -1.13113 -2.91847 0
M  V30 17539 C 1615.14 -1.87487 -4.17867 0
M  V30 17540 N 1616.63 -1.8453 -4.24856 0
M  V30 17541 C 1617.36 -2.38904 -5.2126 0
M  V30 17542 N 1616.86 -3.01813 -6.23603 0
M  V30 17543 N 1618.65 -2.29075 -5.13304 0
M  V30 17544 H 1610.8 -1.67789 -1.30233 0
M  V30 17545 H 1613.07 -0.70892 -0.629393 0
M  V30 17546 H 1612.77 -2.19983 -2.74409 0
M  V30 17547 H 1612.65 -0.733669 -3.69996 0
M  V30 17548 H 1615.03 -0.0848347 -2.94978 0
M  V30 17549 H 1615.11 -1.58196 -2.01017 0
M  V30 17550 H 1614.76 -2.92104 -4.15497 0
M  V30 17551 H 1614.69 -1.39827 -5.07697 0
M  V30 17552 H 1617.18 -1.38679 -3.51535 0
M  V30 17553 H 1617.49 -3.40832 -6.9358 0
M  V30 17554 H 1615.84 -3.05896 -6.24062 0
M  V30 17555 H 1619.03 -1.79589 -4.32279 0
M  V30 17556 H 1619.2 -2.71752 -5.88264 0
M  V30 17557 N 1612.61 1.50847 -0.456408 0
M  V30 17558 C 1613.86 2.01425 0.105223 0
M  V30 17559 C 1614.17 1.34413 1.421 0
M  V30 17560 O 1615.38 1.76066 2.06671 0
M  V30 17561 C 1613.83 3.59112 0.238051 0
M  V30 17562 C 1613.44 4.35073 -1.06842 0
M  V30 17563 C 1615.18 4.17778 0.752428 0
M  V30 17564 C 1613.09 5.84509 -0.900194 0
M  V30 17565 H 1612.02 0.752767 0.0430992 0
M  V30 17566 H 1614.67 1.73788 -0.589075 0
M  V30 17567 H 1613.05 3.83275 0.995795 0
M  V30 17568 H 1614.23 4.22645 -1.83598 0
M  V30 17569 H 1612.54 3.87948 -1.51278 0
M  V30 17570 H 1615.14 5.27155 0.895088 0
M  V30 17571 H 1615.48 3.78195 1.73994 0
M  V30 17572 H 1616.02 3.97765 0.052476 0
M  V30 17573 H 1612.75 6.28538 -1.86064 0
M  V30 17574 H 1612.27 5.99551 -0.172767 0
M  V30 17575 H 1613.95 6.44564 -0.560943 0
M  V30 17576 N 1614.09 0.188454 1.56469 0
M  V30 17577 C 1615.03 -0.751822 2.20115 0
M  V30 17578 C 1616.03 -1.22476 1.1703 0
M  V30 17579 O 1617.23 -1.18843 1.3519 0
M  V30 17580 H 1613.61 -0.260778 0.705336 0
M  V30 17581 H 1615.58 -0.191249 2.97786 0
M  V30 17582 C 1614.33 -1.96365 2.86943 0
M  V30 17583 H 1613.65 -1.60879 3.66003 0
M  V30 17584 H 1615.09 -2.60007 3.34921 0
M  V30 17585 C 1613.55 -2.7982 1.87623 0
M  V30 17586 O 1614.08 -3.7753 1.37237 0
M  V30 17587 N 1612.29 -2.45179 1.55999 0
M  V30 17588 H 1611.83 -1.6578 1.97167 0
M  V30 17589 H 1611.79 -3.01302 0.898012 0
M  V30 17590 N 1615.56 -1.5737 -0.0851874 0
M  V30 17591 C 1616.79 -1.91183 -0.803983 0
M  V30 17592 C 1617.21 -0.78365 -1.70999 0
M  V30 17593 O 1616.57 0.264266 -1.79364 0
M  V30 17594 C 1616.62 -3.239 -1.58496 0
M  V30 17595 O 1615.72 -3.12189 -2.69466 0
M  V30 17596 H 1615.06 -0.626413 -0.220233 0
M  V30 17597 H 1617.59 -2.04519 -0.0574426 0
M  V30 17598 H 1617.6 -3.5745 -1.96707 0
M  V30 17599 H 1616.28 -4.05594 -0.920111 0
M  V30 17600 H 1614.86 -2.90173 -2.3421 0
M  V30 17601 N 1617.04 0.356258 -1.53521 0
M  V30 17602 C 1618.27 1.11828 -1.74075 0
M  V30 17603 C 1618.68 1.82753 -0.473998 0
M  V30 17604 O 1618.04 1.73899 0.553649 0
M  V30 17605 C 1618.09 2.14149 -2.91243 0
M  V30 17606 O 1617.81 1.4611 -4.13017 0
M  V30 17607 C 1619.31 3.02826 -3.23746 0
M  V30 17608 H 1616.53 0.334002 -0.581965 0
M  V30 17609 H 1619.08 0.412336 -2.003 0
M  V30 17610 H 1617.23 2.80328 -2.67386 0
M  V30 17611 H 1617.65 2.1436 -4.78696 0
M  V30 17612 H 1619.12 3.70583 -4.09112 0
M  V30 17613 H 1619.6 3.68149 -2.39505 0
M  V30 17614 H 1620.2 2.42252 -3.49563 0
M  V30 17615 N 1618.52 1.45038 0.616577 0
M  V30 17616 C 1619.48 1.52647 1.70973 0
M  V30 17617 C 1620.48 0.406902 1.55567 0
M  V30 17618 O 1621.67 0.670062 1.60797 0
M  V30 17619 C 1618.8 1.41438 3.10174 0
M  V30 17620 H 1620 2.50036 1.65596 0
M  V30 17621 H 1617.55 1.32346 0.831524 0
M  V30 17622 H 1618.29 0.451991 3.21135 0
M  V30 17623 H 1618.07 2.22634 3.22764 0
M  V30 17624 H 1619.56 1.49776 3.89817 0
M  V30 17625 N 1620 -0.858287 1.32179 0
M  V30 17626 C 1621.23 -1.64473 1.25523 0
M  V30 17627 C 1621.64 -1.87964 -0.177425 0
M  V30 17628 O 1621 -1.44607 -1.11333 0
M  V30 17629 C 1621.05 -3.00609 2.0079 0
M  V30 17630 O 1620.77 -2.7816 3.38465 0
M  V30 17631 C 1622.27 -3.95054 2.01115 0
M  V30 17632 H 1619.49 -0.512393 0.433237 0
M  V30 17633 H 1622.03 -1.07048 1.74244 0
M  V30 17634 H 1620.19 -3.5469 1.55801 0
M  V30 17635 H 1620.6 -3.64712 3.76942 0
M  V30 17636 H 1622.08 -4.87854 2.58268 0
M  V30 17637 H 1622.55 -4.27746 0.996513 0
M  V30 17638 H 1623.16 -3.4691 2.46035 0
M  V30 17639 N 1621.48 -1.1533 -1.07409 0
M  V30 17640 C 1622.89 -0.937287 -1.61468 0
M  V30 17641 C 1623.24 0.521545 -1.89141 0
M  V30 17642 O 1622.36 1.39253 -1.65643 0
M  V30 17643 C 1622.96 -1.69501 -2.93351 0
M  V30 17644 C 1621.52 -1.52429 -3.44154 0
M  V30 17645 C 1620.66 -1.71098 -2.18222 0
M  V30 17646 H 1623.61 -1.30364 -0.905044 0
M  V30 17647 H 1623.64 -1.16416 -3.62253 0
M  V30 17648 H 1623.15 -2.75672 -2.73178 0
M  V30 17649 H 1621.25 -0.486498 -3.6941 0
M  V30 17650 H 1621.36 -2.30089 -4.20233 0
M  V30 17651 H 1619.73 -1.13745 -2.27891 0
M  V30 17652 H 1620.51 -2.78634 -2.00545 0
M  V30 17653 N 1622.95 1.25748 -0.950004 0
M  V30 17654 C 1624.23 1.88566 -0.519839 0
M  V30 17655 C 1624.61 1.85761 1.00279 0
M  V30 17656 O 1623.96 1.31797 1.8666 0
M  V30 17657 C 1624.17 3.31502 -1.09121 0
M  V30 17658 C 1625.52 4.08298 -1.16524 0
M  V30 17659 O 1626.54 3.40605 -1.04243 0
M  V30 17660 O 1625.4 5.29375 -1.35735 0
M  V30 17661 H 1622.49 0.809175 -0.170777 0
M  V30 17662 H 1625.04 1.33853 -1.04314 0
M  V30 17663 H 1623.81 3.2795 -2.13458 0
M  V30 17664 H 1623.43 3.93765 -0.550881 0
M  V30 17665 N 1624.43 0.718038 1.40292 0
M  V30 17666 C 1625.36 0.0276294 2.29183 0
M  V30 17667 C 1626.38 -0.721208 1.45954 0
M  V30 17668 O 1627.57 -0.568181 1.69216 0
M  V30 17669 C 1624.67 -0.985139 3.24266 0
M  V30 17670 C 1623.84 -0.301327 4.36361 0
M  V30 17671 C 1622.9 -1.21982 5.11866 0
M  V30 17672 O 1621.92 -0.70369 5.64833 0
M  V30 17673 N 1623.13 -2.55079 5.21455 0
M  V30 17674 H 1625.89 0.790884 2.89076 0
M  V30 17675 H 1623.45 0.565867 1.51689 0
M  V30 17676 H 1625.44 -1.60183 3.7165 0
M  V30 17677 H 1624.01 -1.64973 2.65523 0
M  V30 17678 H 1623.23 0.495594 3.91072 0
M  V30 17679 H 1624.52 0.173238 5.08505 0
M  V30 17680 H 1623.92 -2.99506 4.79909 0
M  V30 17681 H 1622.48 -3.11886 5.72338 0
M  V30 17682 N 1625.91 -1.50602 0.464402 0
M  V30 17683 C 1627.19 -1.94992 -0.154146 0
M  V30 17684 C 1627.57 -1.40447 -1.57601 0
M  V30 17685 O 1626.92 -0.602668 -2.20409 0
M  V30 17686 C 1627.13 -3.48844 -0.104296 0
M  V30 17687 C 1628.47 -4.23563 -0.296506 0
M  V30 17688 O 1629.5 -3.55739 -0.181187 0
M  V30 17689 O 1628.36 -5.43937 -0.528668 0
M  V30 17690 H 1625.45 -0.818921 -0.115311 0
M  V30 17691 H 1628 -1.61397 0.524324 0
M  V30 17692 H 1626.77 -3.81075 0.88869 0
M  V30 17693 H 1626.39 -3.88957 -0.824514 0
M  V30 17694 N 1627.39 -0.19675 -1.56367 0
M  V30 17695 C 1628.8 0.159068 -1.58805 0
M  V30 17696 C 1629 1.60902 -1.21297 0
M  V30 17697 O 1628.06 2.34491 -0.93649 0
M  V30 17698 C 1629.37 -0.144784 -3.00351 0
M  V30 17699 C 1630.92 -0.0850243 -3.12884 0
M  V30 17700 C 1631.4 -0.362209 -4.56565 0
M  V30 17701 N 1632.89 -0.310887 -4.62156 0
M  V30 17702 C 1633.62 -0.499187 -5.71223 0
M  V30 17703 N 1633.12 -0.747925 -6.88751 0
M  V30 17704 N 1634.91 -0.433329 -5.60427 0
M  V30 17705 H 1627.06 -1.1429 -1.79029 0
M  V30 17706 H 1629.33 -0.456298 -0.830961 0
M  V30 17707 H 1629.03 -1.15019 -3.3236 0
M  V30 17708 H 1628.91 0.551864 -3.73141 0
M  V30 17709 H 1631.29 0.910992 -2.80687 0
M  V30 17710 H 1631.37 -0.814774 -2.42477 0
M  V30 17711 H 1631.02 -1.35555 -4.89477 0
M  V30 17712 H 1630.95 0.388448 -5.25165 0
M  V30 17713 H 1633.44 -0.125318 -3.77692 0
M  V30 17714 H 1633.75 -0.880372 -7.67769 0
M  V30 17715 H 1632.1 -0.784838 -6.90554 0
M  V30 17716 H 1635.29 -0.239411 -4.67487 0
M  V30 17717 H 1635.46 -0.583495 -6.45368 0
M  V30 17718 N 1628.87 1.57413 0.0768405 0
M  V30 17719 C 1630.14 1.78056 0.809663 0
M  V30 17720 C 1630.52 0.783053 1.9604 0
M  V30 17721 O 1629.87 -0.184836 2.27751 0
M  V30 17722 C 1630.08 3.24391 1.2873 0
M  V30 17723 C 1631.43 3.88082 1.72272 0
M  V30 17724 O 1632.45 3.28251 1.38309 0
M  V30 17725 O 1631.31 4.93329 2.35135 0
M  V30 17726 H 1628.41 0.730553 0.387584 0
M  V30 17727 H 1630.95 1.69603 0.057307 0
M  V30 17728 H 1629.72 3.88543 0.463678 0
M  V30 17729 H 1629.35 3.37548 2.10112 0
M  V30 17730 N 1630.34 -0.348112 1.53707 0
M  V30 17731 C 1631.29 -1.42729 1.81375 0
M  V30 17732 C 1632.26 -1.52461 0.659159 0
M  V30 17733 O 1633.45 -1.68072 0.903129 0
M  V30 17734 C 1630.59 -2.79443 2.02498 0
M  V30 17735 C 1629.7 -2.7854 3.30211 0
M  V30 17736 C 1628.83 -4.06942 3.41426 0
M  V30 17737 C 1627.87 -4.00248 4.63106 0
M  V30 17738 N 1627.01 -5.20332 4.7138 0
M  V30 17739 H 1631.85 -1.18436 2.73454 0
M  V30 17740 H 1629.39 -0.573809 1.35447 0
M  V30 17741 H 1631.35 -3.58888 2.12733 0
M  V30 17742 H 1629.98 -3.02099 1.13737 0
M  V30 17743 H 1629.03 -1.91227 3.28841 0
M  V30 17744 H 1630.34 -2.69471 4.19746 0
M  V30 17745 H 1629.49 -4.94808 3.51069 0
M  V30 17746 H 1628.23 -4.18786 2.49939 0
M  V30 17747 H 1627.24 -3.10767 4.53546 0
M  V30 17748 H 1628.46 -3.89991 5.55953 0
M  V30 17749 H 1626.41 -5.32729 3.828 0
M  V30 17750 H 1626.33 -5.13502 5.54844 0
M  V30 17751 H 1627.59 -6.09982 4.85326 0
M  V30 17752 N 1631.82 -1.45363 -0.608876 0
M  V30 17753 C 1633.07 -1.48586 -1.364 0
M  V30 17754 C 1633.38 -0.131213 -1.95159 0
M  V30 17755 O 1634.59 -0.0410845 -2.71469 0
M  V30 17756 C 1633.05 -2.61694 -2.47071 0
M  V30 17757 C 1632.65 -4.03466 -1.94729 0
M  V30 17758 C 1634.4 -2.74162 -3.24091 0
M  V30 17759 C 1632.31 -5.07958 -3.02874 0
M  V30 17760 H 1631.24 -0.552893 -0.512665 0
M  V30 17761 H 1633.89 -1.71499 -0.65271 0
M  V30 17762 H 1632.27 -2.32062 -3.20879 0
M  V30 17763 H 1633.44 -4.4277 -1.27638 0
M  V30 17764 H 1631.76 -3.95436 -1.30457 0
M  V30 17765 H 1634.35 -3.494 -4.04752 0
M  V30 17766 H 1634.7 -1.80751 -3.75013 0
M  V30 17767 H 1635.23 -3.03313 -2.57383 0
M  V30 17768 H 1631.97 -6.03073 -2.56871 0
M  V30 17769 H 1631.49 -4.73225 -3.68535 0
M  V30 17770 H 1633.17 -5.3265 -3.67277 0
M  V30 17771 N 1633.3 0.851265 -1.32632 0
M  V30 17772 C 1634.25 1.96012 -1.21852 0
M  V30 17773 C 1635.22 1.65799 -0.0999141 0
M  V30 17774 O 1636.4 1.88793 -0.276049 0
M  V30 17775 C 1633.54 3.31737 -0.951014 0
M  V30 17776 C 1632.66 3.74427 -2.15472 0
M  V30 17777 C 1631.79 4.9896 -1.82242 0
M  V30 17778 C 1630.83 5.3415 -2.98914 0
M  V30 17779 N 1629.97 6.49861 -2.65754 0
M  V30 17780 H 1634.81 2.04565 -2.16696 0
M  V30 17781 H 1632.34 1.00119 -1.07771 0
M  V30 17782 H 1634.3 4.09912 -0.776401 0
M  V30 17783 H 1632.93 3.22776 -0.0393461 0
M  V30 17784 H 1631.98 2.91878 -2.4395 0
M  V30 17785 H 1633.3 3.96425 -3.02736 0
M  V30 17786 H 1632.45 5.84851 -1.61352 0
M  V30 17787 H 1631.19 4.78906 -0.921971 0
M  V30 17788 H 1630.19 4.4677 -3.20432 0
M  V30 17789 H 1631.42 5.5616 -3.89696 0
M  V30 17790 H 1629.36 6.31317 -1.78254 0
M  V30 17791 H 1629.28 6.71894 -3.46547 0
M  V30 17792 H 1630.55 7.38895 -2.48302 0
M  V30 17793 N 1634.78 1.15898 1.06796 0
M  V30 17794 C 1635.71 0.818654 2.14081 0
M  V30 17795 C 1636.72 -0.171847 1.6189 0
M  V30 17796 O 1637.91 0.052196 1.78424 0
M  V30 17797 C 1635.01 0.197283 3.38325 0
M  V30 17798 C 1634.19 1.22662 4.19849 0
M  V30 17799 C 1633.24 0.625985 5.22463 0
M  V30 17800 O 1632.27 1.29347 5.54309 0
M  V30 17801 N 1633.47 -0.589665 5.77497 0
M  V30 17802 H 1636.24 1.74196 2.43877 0
M  V30 17803 H 1633.8 1.05562 1.22753 0
M  V30 17804 H 1635.79 -0.217439 4.04115 0
M  V30 17805 H 1634.36 -0.629476 3.06197 0
M  V30 17806 H 1633.58 1.8177 3.49791 0
M  V30 17807 H 1634.87 1.92143 4.71125 0
M  V30 17808 H 1634.27 -1.15022 5.53883 0
M  V30 17809 H 1632.82 -0.946667 6.44889 0
M  V30 17810 N 1636.26 -1.25243 0.956659 0
M  V30 17811 C 1637.5 -1.93014 0.612538 0
M  V30 17812 C 1637.83 -1.74908 -0.85073 0
M  V30 17813 O 1637.09 -1.08896 -1.62604 0
M  V30 17814 C 1637.39 -3.4536 0.919849 0
M  V30 17815 C 1637.05 -3.83623 2.36948 0
M  V30 17816 C 1635.71 -3.93779 2.76571 0
M  V30 17817 C 1638.07 -4.02536 3.3108 0
M  V30 17818 C 1635.39 -4.20257 4.09391 0
M  V30 17819 C 1637.75 -4.30507 4.63515 0
M  V30 17820 C 1636.41 -4.3888 5.02932 0
M  V30 17821 H 1635.68 -0.706286 0.224144 0
M  V30 17822 H 1638.33 -1.48748 1.20608 0
M  V30 17823 H 1636.63 -3.9104 0.243941 0
M  V30 17824 H 1638.33 -3.95986 0.632143 0
M  V30 17825 H 1634.92 -3.76275 2.05219 0
M  V30 17826 H 1639.1 -3.94102 3.01657 0
M  V30 17827 H 1634.36 -4.24956 4.39571 0
M  V30 17828 H 1638.53 -4.44087 5.36433 0
M  V30 17829 H 1636.16 -4.59151 6.05875 0
M  V30 17830 N 1637.73 -0.725468 -1.3991 0
M  V30 17831 C 1638.7 -0.0878956 -2.29031 0
M  V30 17832 C 1639.7 0.677105 -1.45849 0
M  V30 17833 O 1640.89 0.507538 -1.66642 0
M  V30 17834 C 1638.02 0.885087 -3.2921 0
M  V30 17835 H 1639.21 -0.872957 -2.86914 0
M  V30 17836 H 1636.77 -0.490715 -1.48397 0
M  V30 17837 H 1637.5 1.69685 -2.76365 0
M  V30 17838 H 1637.29 0.339297 -3.90629 0
M  V30 17839 H 1638.78 1.32806 -3.9592 0
M  V30 17840 N 1639.21 1.50354 -0.472382 0
M  V30 17841 C 1640.18 2.27096 0.30981 0
M  V30 17842 C 1641.18 1.3193 0.919306 0
M  V30 17843 O 1642.37 1.55344 0.788284 0
M  V30 17844 C 1639.5 3.08924 1.44149 0
M  V30 17845 H 1640.69 2.97692 -0.363228 0
M  V30 17846 H 1638.24 1.5465 -0.226483 0
M  V30 17847 H 1638.98 2.42828 2.14954 0
M  V30 17848 H 1638.76 3.78862 1.01023 0
M  V30 17849 H 1640.25 3.66961 1.99323 0
M  V30 17850 N 1640.69 0.205039 1.56261 0
M  V30 17851 C 1641.62 -0.743854 2.16794 0
M  V30 17852 C 1642.64 -1.16959 1.13245 0
M  V30 17853 O 1643.83 -1.1036 1.40296 0
M  V30 17854 C 1640.93 -2.01717 2.7233 0
M  V30 17855 C 1640.1 -1.74965 4.00882 0
M  V30 17856 C 1639.16 -2.86841 4.41145 0
M  V30 17857 O 1638.18 -2.5602 5.08372 0
M  V30 17858 N 1639.39 -4.15425 4.05466 0
M  V30 17859 H 1642.15 -0.226145 2.98846 0
M  V30 17860 H 1639.71 0.0234276 1.61883 0
M  V30 17861 H 1641.7 -2.7572 2.96244 0
M  V30 17862 H 1640.27 -2.44582 1.94675 0
M  V30 17863 H 1639.49 -0.846903 3.84995 0
M  V30 17864 H 1640.78 -1.54501 4.84775 0
M  V30 17865 H 1640.18 -4.43314 3.5141 0
M  V30 17866 H 1638.74 -4.86023 4.3431 0
M  V30 17867 N 1642.17 -1.57451 -0.0684915 0
M  V30 17868 C 1643.08 -2.07274 -1.09885 0
M  V30 17869 C 1644.1 -1.00295 -1.42186 0
M  V30 17870 O 1645.27 -1.31786 -1.52297 0
M  V30 17871 C 1642.34 -2.50949 -2.39219 0
M  V30 17872 C 1641.4 -3.7224 -2.13859 0
M  V30 17873 C 1640.63 -4.13823 -3.37026 0
M  V30 17874 O 1640.85 -3.55248 -4.46268 0
M  V30 17875 O 1639.79 -5.06587 -3.25044 0
M  V30 17876 H 1643.61 -2.9539 -0.705587 0
M  V30 17877 H 1641.2 -1.46698 -0.282849 0
M  V30 17878 H 1643.08 -2.79547 -3.15327 0
M  V30 17879 H 1641.76 -1.6596 -2.77919 0
M  V30 17880 H 1640.66 -3.4872 -1.35445 0
M  V30 17881 H 1642 -4.58091 -1.80038 0
M  V30 17882 N 1643.65 0.339955 -1.5389 0
M  V30 17883 C 1644.56 1.441 -1.85128 0
M  V30 17884 C 1645.57 1.57399 -0.741733 0
M  V30 17885 O 1646.75 1.72807 -1.0344 0
M  V30 17886 C 1643.81 2.7904 -2.05761 0
M  V30 17887 C 1642.88 2.75055 -3.29611 0
M  V30 17888 C 1642.11 4.0356 -3.4925 0
M  V30 17889 O 1642.33 5.01015 -2.72653 0
M  V30 17890 O 1641.27 4.07813 -4.42687 0
M  V30 17891 H 1645.09 1.20616 -2.78721 0
M  V30 17892 H 1642.68 0.532468 -1.39589 0
M  V30 17893 H 1644.56 3.5895 -2.20756 0
M  V30 17894 H 1643.23 3.02447 -1.15357 0
M  V30 17895 H 1642.14 1.93753 -3.20016 0
M  V30 17896 H 1643.47 2.56602 -4.20019 0
M  V30 17897 N 1645.13 1.45684 0.601159 0
M  V30 17898 C 1646.07 1.54846 1.71147 0
M  V30 17899 C 1647.04 0.393914 1.61361 0
M  V30 17900 O 1648.23 0.608222 1.80846 0
M  V30 17901 C 1645.37 1.52723 3.09467 0
M  V30 17902 C 1644.48 2.78776 3.30012 0
M  V30 17903 C 1643.62 2.68281 4.58474 0
M  V30 17904 C 1642.65 3.89358 4.72299 0
M  V30 17905 N 1641.79 3.77359 5.92068 0
M  V30 17906 H 1646.63 2.49696 1.62653 0
M  V30 17907 H 1644.17 1.23894 0.793006 0
M  V30 17908 H 1646.13 1.49479 3.89502 0
M  V30 17909 H 1644.76 0.614189 3.16903 0
M  V30 17910 H 1643.81 2.9208 2.43708 0
M  V30 17911 H 1645.12 3.68563 3.36099 0
M  V30 17912 H 1644.27 2.63039 5.46713 0
M  V30 17913 H 1643.01 1.76103 4.54795 0
M  V30 17914 H 1642.02 3.94952 3.82482 0
M  V30 17915 H 1643.24 4.82609 4.77771 0
M  V30 17916 H 1641.19 2.87955 5.89422 0
M  V30 17917 H 1641.11 4.60786 5.99343 0
M  V30 17918 H 1642.37 3.76061 6.82787 0
M  V30 17919 N 1646.6 -0.84422 1.33082 0
M  V30 17920 C 1648.02 -1.13406 1.12299 0
M  V30 17921 C 1648.22 -2.013 -0.0896529 0
M  V30 17922 O 1647.28 -2.40425 -0.771493 0
M  V30 17923 C 1648.59 -1.80132 2.40776 0
M  V30 17924 C 1650.14 -1.92721 2.46632 0
M  V30 17925 C 1650.61 -2.62863 3.75056 0
M  V30 17926 N 1652.1 -2.70379 3.76097 0
M  V30 17927 C 1652.84 -3.25328 4.72175 0
M  V30 17928 N 1652.33 -3.81005 5.78625 0
M  V30 17929 N 1654.13 -3.23529 4.59658 0
M  V30 17930 H 1646.28 -0.259126 2.10813 0
M  V30 17931 H 1648.54 -0.177459 0.931242 0
M  V30 17932 H 1648.25 -1.23007 3.29488 0
M  V30 17933 H 1648.12 -2.802 2.52523 0
M  V30 17934 H 1650.51 -2.49002 1.58373 0
M  V30 17935 H 1650.59 -0.916191 2.3883 0
M  V30 17936 H 1650.23 -2.07242 4.63695 0
M  V30 17937 H 1650.16 -3.64425 3.80134 0
M  V30 17938 H 1652.65 -2.30891 2.99162 0
M  V30 17939 H 1652.97 -4.21121 6.47979 0
M  V30 17940 H 1651.31 -3.79308 5.82366 0
M  V30 17941 H 1654.5 -2.79286 3.75656 0
M  V30 17942 H 1654.68 -3.66051 5.34706 0
M  V30 17943 N 1648.08 -1.16463 -1.0618 0
M  V30 17944 C 1649.01 -0.829995 -2.13644 0
M  V30 17945 C 1650.03 0.16326 -1.61979 0
M  V30 17946 O 1651.22 -0.0616575 -1.78393 0
M  V30 17947 C 1648.32 -0.215222 -3.38216 0
M  V30 17948 C 1647.49 -1.24886 -4.19192 0
M  V30 17949 C 1646.55 -0.653683 -5.22124 0
M  V30 17950 O 1645.57 -1.32285 -5.53615 0
M  V30 17951 N 1646.78 0.559031 -5.77802 0
M  V30 17952 H 1649.54 -1.75487 -2.42949 0
M  V30 17953 H 1647.1 -1.06212 -1.22191 0
M  V30 17954 H 1649.09 0.196005 -4.04225 0
M  V30 17955 H 1647.66 0.613229 -3.06526 0
M  V30 17956 H 1646.88 -1.83622 -3.48822 0
M  V30 17957 H 1648.17 -1.94639 -4.70099 0
M  V30 17958 H 1647.57 1.12083 -5.54485 0
M  V30 17959 H 1646.13 0.912453 -6.45382 0
M  V30 17960 N 1649.56 1.24734 -0.963288 0
M  V30 17961 C 1650.51 2.25555 -0.48926 0
M  V30 17962 C 1651.48 1.59521 0.462848 0
M  V30 17963 O 1652.66 1.87095 0.374188 0
M  V30 17964 C 1649.8 3.44407 0.218629 0
M  V30 17965 C 1648.91 4.25051 -0.77173 0
M  V30 17966 C 1648.05 5.31185 -0.0403986 0
M  V30 17967 C 1647.09 6.03523 -1.02112 0
M  V30 17968 N 1646.23 7.0137 -0.320083 0
M  V30 17969 H 1651.07 2.6547 -1.35386 0
M  V30 17970 H 1648.6 1.30504 -0.678762 0
M  V30 17971 H 1650.56 4.12173 0.645701 0
M  V30 17972 H 1649.19 3.05341 1.04722 0
M  V30 17973 H 1648.24 3.56865 -1.31726 0
M  V30 17974 H 1649.55 4.75084 -1.51976 0
M  V30 17975 H 1648.71 6.05067 0.444886 0
M  V30 17976 H 1647.45 4.82048 0.740356 0
M  V30 17977 H 1646.45 5.28448 -1.51732 0
M  V30 17978 H 1647.68 6.54749 -1.80224 0
M  V30 17979 H 1645.62 6.54511 0.441775 0
M  V30 17980 H 1645.54 7.49263 -1.00705 0
M  V30 17981 H 1646.81 7.79368 0.143379 0
M  V30 17982 N 1651.04 0.732878 1.39523 0
M  V30 17983 C 1651.99 0.0806066 2.3246 0
M  V30 17984 C 1652.98 -0.728184 1.5295 0
M  V30 17985 O 1654.19 -0.629608 1.6863 0
M  V30 17986 H 1650.56 0.00726537 0.751965 0
M  V30 17987 H 1652.53 0.880867 2.85102 0
M  V30 17988 C 1651.28 -0.81412 3.38035 0
M  V30 17989 H 1650.6 -0.201168 3.99294 0
M  V30 17990 H 1652.04 -1.23817 4.05519 0
M  V30 17991 C 1650.5 -1.94745 2.74911 0
M  V30 17992 O 1651.03 -3.03989 2.6259 0
M  V30 17993 N 1649.24 -1.73624 2.3303 0
M  V30 17994 H 1648.79 -0.847733 2.43251 0
M  V30 17995 H 1648.74 -2.49629 1.91135 0
M  V30 17996 N 1652.52 -1.50101 0.480349 0
M  V30 17997 C 1653.43 -2.32488 -0.31408 0
M  V30 17998 C 1654.44 -1.43285 -0.987186 0
M  V30 17999 O 1655.62 -1.7633 -0.973123 0
M  V30 18000 C 1652.68 -3.18203 -1.37651 0
M  V30 18001 C 1651.74 -4.23236 -0.71903 0
M  V30 18002 C 1650.98 -5.04854 -1.73084 0
M  V30 18003 O 1651.2 -4.87681 -2.95843 0
M  V30 18004 O 1650.13 -5.87748 -1.29755 0
M  V30 18005 H 1653.96 -3.01562 0.3597 0
M  V30 18006 H 1651.54 -1.47427 0.242029 0
M  V30 18007 H 1653.43 -3.71362 -1.9917 0
M  V30 18008 H 1652.1 -2.51846 -2.0336 0
M  V30 18009 H 1651.01 -3.74044 -0.0646492 0
M  V30 18010 H 1652.34 -4.92089 -0.104743 0
M  V30 18011 N 1653.99 -0.213323 -1.5615 0
M  V30 18012 C 1655.41 0.142215 -1.58965 0
M  V30 18013 C 1655.61 1.59606 -1.22996 0
M  V30 18014 O 1654.67 2.33485 -0.961308 0
M  V30 18015 C 1655.98 -0.176632 -3.00181 0
M  V30 18016 C 1657.53 -0.118205 -3.12777 0
M  V30 18017 C 1658 -0.410614 -4.56156 0
M  V30 18018 N 1659.49 -0.359887 -4.618 0
M  V30 18019 C 1660.23 -0.559744 -5.70661 0
M  V30 18020 N 1659.72 -0.820934 -6.87919 0
M  V30 18021 N 1661.52 -0.492746 -5.59936 0
M  V30 18022 H 1653.67 -1.16182 -1.77807 0
M  V30 18023 H 1655.93 -0.465086 -0.826075 0
M  V30 18024 H 1655.64 -1.18538 -3.31122 0
M  V30 18025 H 1655.51 0.512256 -3.73705 0
M  V30 18026 H 1657.9 0.88117 -2.81637 0
M  V30 18027 H 1657.98 -0.840446 -2.41599 0
M  V30 18028 H 1657.62 -1.40739 -4.88011 0
M  V30 18029 H 1657.55 0.332725 -5.25548 0
M  V30 18030 H 1660.04 -0.16537 -3.77538 0
M  V30 18031 H 1660.36 -0.961755 -7.66792 0
M  V30 18032 H 1658.7 -0.858036 -6.89683 0
M  V30 18033 H 1661.89 -0.288981 -4.67207 0
M  V30 18034 H 1662.07 -0.651912 -6.44712 0
M  V30 18035 N 1655.47 1.57485 0.0601405 0
M  V30 18036 C 1656.41 1.99806 1.10239 0
M  V30 18037 C 1657.38 0.876931 1.36926 0
M  V30 18038 O 1658.57 1.14022 1.50104 0
M  V30 18039 C 1655.69 2.34471 2.4442 0
M  V30 18040 C 1654.74 3.56712 2.33793 0
M  V30 18041 S 1655.57 5.07095 1.7209 0
M  V30 18042 C 1656.73 5.44972 3.07825 0
M  V30 18043 H 1656.96 2.87897 0.74178 0
M  V30 18044 H 1654.5 1.52037 0.269081 0
M  V30 18045 H 1656.45 2.55116 3.21599 0
M  V30 18046 H 1655.11 1.46888 2.77638 0
M  V30 18047 H 1654.31 3.78521 3.32773 0
M  V30 18048 H 1653.91 3.35757 1.64752 0
M  V30 18049 H 1656.2 5.43756 4.04148 0
M  V30 18050 H 1657.14 6.4564 2.90783 0
M  V30 18051 H 1657.55 4.7244 3.08967 0
M  V30 18052 N 1656.95 -0.331789 1.54068 0
M  V30 18053 C 1657.91 -1.39094 1.82169 0
M  V30 18054 C 1658.91 -1.45092 0.693168 0
M  V30 18055 O 1660.1 -1.45263 0.961471 0
M  V30 18056 C 1657.24 -2.77909 1.97432 0
M  V30 18057 H 1658.43 -1.15435 2.76794 0
M  V30 18058 H 1655.98 -0.566827 1.4566 0
M  V30 18059 H 1656.72 -3.06835 1.0499 0
M  V30 18060 H 1656.5 -2.7495 2.79544 0
M  V30 18061 H 1657.99 -3.54548 2.20649 0
M  V30 18062 N 1658.43 -1.46001 -0.593424 0
M  V30 18063 C 1659.36 -1.51774 -1.71748 0
M  V30 18064 C 1660.37 -0.407093 -1.57628 0
M  V30 18065 O 1661.56 -0.674903 -1.65249 0
M  V30 18066 C 1658.66 -1.3718 -3.09895 0
M  V30 18067 C 1657.84 -2.62173 -3.5012 0
M  V30 18068 C 1656.89 -2.41933 -4.67285 0
M  V30 18069 O 1655.92 -3.15611 -4.73686 0
M  V30 18070 N 1657.12 -1.47405 -5.61473 0
M  V30 18071 H 1659.89 -2.48689 -1.67253 0
M  V30 18072 H 1657.45 -1.41921 -0.779111 0
M  V30 18073 H 1659.44 -1.21428 -3.86054 0
M  V30 18074 H 1658.01 -0.484876 -3.08817 0
M  V30 18075 H 1657.23 -2.92943 -2.63777 0
M  V30 18076 H 1658.52 -3.45229 -3.73758 0
M  V30 18077 H 1657.92 -0.866282 -5.59028 0
M  V30 18078 H 1656.47 -1.3762 -6.37106 0
M  V30 18079 N 1659.91 0.83715 -1.33527 0
M  V30 18080 C 1660.86 1.93561 -1.20491 0
M  V30 18081 C 1661.84 1.60541 -0.107395 0
M  V30 18082 O 1663.03 1.73788 -0.335663 0
M  V30 18083 C 1660.16 3.2995 -0.948055 0
M  V30 18084 C 1659.25 3.69134 -2.08809 0
M  V30 18085 N 1659.64 3.79998 -3.33819 0
M  V30 18086 C 1657.94 3.98885 -1.99516 0
M  V30 18087 C 1658.64 4.14031 -4.08599 0
M  V30 18088 N 1657.61 4.26492 -3.37055 0
M  V30 18089 H 1661.42 2.00119 -2.15243 0
M  V30 18090 H 1658.93 1.02997 -1.2556 0
M  V30 18091 H 1660.93 4.0844 -0.835589 0
M  V30 18092 H 1659.59 3.24699 -0.00907808 0
M  V30 18093 H 1660.6 3.6386 -3.68546 0
M  V30 18094 H 1657.27 4.01836 -1.13289 0
M  V30 18095 H 1658.66 4.29759 -5.16485 0
M  V30 18096 N 1661.38 1.17024 1.05561 0
M  V30 18097 C 1662.32 0.841314 2.13201 0
M  V30 18098 C 1663.33 -0.154667 1.62064 0
M  V30 18099 O 1664.52 0.0711173 1.78358 0
M  V30 18100 C 1661.62 0.233156 3.38097 0
M  V30 18101 C 1660.79 1.27108 4.18524 0
M  V30 18102 C 1659.85 0.681364 5.2177 0
M  V30 18103 O 1658.88 1.35219 5.52906 0
M  V30 18104 N 1660.08 -0.528381 5.7809 0
M  V30 18105 H 1662.84 1.76773 2.42015 0
M  V30 18106 H 1660.4 1.06858 1.21626 0
M  V30 18107 H 1662.4 -0.174565 4.04323 0
M  V30 18108 H 1660.97 -0.596965 3.06847 0
M  V30 18109 H 1660.19 1.85469 3.47843 0
M  V30 18110 H 1661.47 1.97129 4.6906 0
M  V30 18111 H 1660.87 -1.09141 5.55072 0
M  V30 18112 H 1659.43 -0.878214 6.45857 0
M  V30 18113 N 1662.86 -1.24221 0.969889 0
M  V30 18114 C 1663.81 -2.25292 0.501215 0
M  V30 18115 C 1664.78 -1.59764 -0.454382 0
M  V30 18116 O 1665.96 -1.87291 -0.364261 0
M  V30 18117 C 1663.1 -3.44518 -0.200361 0
M  V30 18118 C 1662.22 -4.24636 0.79426 0
M  V30 18119 C 1661.35 -5.31156 0.068568 0
M  V30 18120 C 1660.39 -6.02973 1.05311 0
M  V30 18121 N 1659.53 -7.0119 0.357274 0
M  V30 18122 H 1664.37 -2.64749 1.36792 0
M  V30 18123 H 1661.91 -1.30142 0.685673 0
M  V30 18124 H 1663.86 -4.1251 -0.623833 0
M  V30 18125 H 1662.49 -3.05892 -1.03101 0
M  V30 18126 H 1661.55 -3.56161 1.33616 0
M  V30 18127 H 1662.86 -4.74271 1.54493 0
M  V30 18128 H 1662.01 -6.05294 -0.412792 0
M  V30 18129 H 1660.75 -4.82434 -0.714781 0
M  V30 18130 H 1659.76 -5.27636 1.54532 0
M  V30 18131 H 1660.98 -6.53784 1.83694 0
M  V30 18132 H 1658.93 -6.54736 -0.407059 0
M  V30 18133 H 1658.84 -7.48718 1.04677 0
M  V30 18134 H 1660.11 -7.79433 -0.102045 0
M  V30 18135 N 1664.34 -0.740267 -1.39132 0
M  V30 18136 C 1665.29 -0.0797035 -2.27861 0
M  V30 18137 C 1666.27 0.707146 -1.44528 0
M  V30 18138 O 1667.47 0.575289 -1.6739 0
M  V30 18139 C 1664.6 0.822818 -3.33294 0
M  V30 18140 C 1663.68 0.029836 -4.2409 0
M  V30 18141 N 1664.07 -0.999737 -4.95821 0
M  V30 18142 C 1662.37 0.258692 -4.45249 0
M  V30 18143 C 1663.07 -1.47837 -5.626 0
M  V30 18144 N 1662.05 -0.796028 -5.3774 0
M  V30 18145 H 1665.85 -0.868435 -2.80776 0
M  V30 18146 H 1663.36 -0.575079 -1.51877 0
M  V30 18147 H 1665.36 1.31157 -3.95732 0
M  V30 18148 H 1664.02 1.61065 -2.81936 0
M  V30 18149 H 1665.03 -1.38123 -4.99142 0
M  V30 18150 H 1661.71 1.02091 -4.04825 0
M  V30 18151 H 1663.1 -2.33524 -6.30013 0
M  V30 18152 N 1665.82 1.49844 -0.488302 0
M  V30 18153 C 1666.73 2.32651 0.301746 0
M  V30 18154 C 1667.74 1.43807 0.979573 0
M  V30 18155 O 1668.92 1.76844 0.963758 0
M  V30 18156 C 1665.99 3.18928 1.35962 0
M  V30 18157 C 1665.05 4.23611 0.696575 0
M  V30 18158 C 1664.28 5.05765 1.70404 0
M  V30 18159 O 1664.5 4.89243 2.93253 0
M  V30 18160 O 1663.44 5.88427 1.26637 0
M  V30 18161 H 1667.26 3.01367 -0.375687 0
M  V30 18162 H 1664.85 1.47296 -0.249844 0
M  V30 18163 H 1666.73 3.72413 1.97198 0
M  V30 18164 H 1665.4 2.52921 2.02021 0
M  V30 18165 H 1664.31 3.74073 0.0448118 0
M  V30 18166 H 1665.64 4.92137 0.0786446 0
M  V30 18167 N 1667.3 0.221601 1.56034 0
M  V30 18168 C 1668.24 -0.704963 2.2166 0
M  V30 18169 C 1669.24 -1.19966 1.19601 0
M  V30 18170 O 1670.44 -1.15949 1.37681 0
M  V30 18171 H 1666.82 -0.245758 0.710709 0
M  V30 18172 H 1668.79 -0.128041 2.98125 0
M  V30 18173 C 1667.54 -1.90234 2.91043 0
M  V30 18174 H 1666.86 -1.53079 3.69333 0
M  V30 18175 H 1668.3 -2.52844 3.40361 0
M  V30 18176 C 1666.76 -2.75777 1.93516 0
M  V30 18177 O 1667.29 -3.74534 1.45214 0
M  V30 18178 N 1665.5 -2.41815 1.61165 0
M  V30 18179 H 1665.04 -1.61561 2.00639 0
M  V30 18180 H 1665 -2.9933 0.96172 0
M  V30 18181 N 1668.77 -1.57515 -0.0517878 0
M  V30 18182 C 1669.71 -2.01812 -1.08649 0
M  V30 18183 C 1670.72 -0.92719 -1.33817 0
M  V30 18184 O 1671.91 -1.20483 -1.31705 0
M  V30 18185 C 1669.01 -2.35903 -2.43316 0
M  V30 18186 C 1668.18 -3.67095 -2.37824 0
M  V30 18187 C 1667.24 -3.8863 -3.54758 0
M  V30 18188 O 1666.27 -4.59974 -3.3528 0
M  V30 18189 N 1667.47 -3.32516 -4.75829 0
M  V30 18190 H 1670.23 -2.91191 -0.709094 0
M  V30 18191 H 1667.79 -1.60109 -0.240125 0
M  V30 18192 H 1669.79 -2.47466 -3.20223 0
M  V30 18193 H 1668.36 -1.52312 -2.72983 0
M  V30 18194 H 1667.58 -3.66099 -1.46168 0
M  V30 18195 H 1668.86 -4.53199 -2.31275 0
M  V30 18196 H 1668.26 -2.74645 -4.94557 0
M  V30 18197 H 1666.82 -3.49496 -5.50178 0
M  V30 18198 N 1670.25 0.323614 -1.54242 0
M  V30 18199 C 1671.19 1.42211 -1.78469 0
M  V30 18200 C 1672.16 1.49702 -0.634671 0
M  V30 18201 O 1673.35 1.67113 -0.872103 0
M  V30 18202 C 1670.48 2.80306 -1.90121 0
M  V30 18203 C 1669.52 2.90347 -3.12411 0
M  V30 18204 S 1670.35 2.54761 -4.71017 0
M  V30 18205 C 1671.51 3.94928 -4.85575 0
M  V30 18206 H 1671.74 1.21447 -2.71363 0
M  V30 18207 H 1669.28 0.520446 -1.45364 0
M  V30 18208 H 1671.23 3.59856 -1.97519 0
M  V30 18209 H 1669.9 2.98353 -0.982048 0
M  V30 18210 H 1669.09 3.91584 -3.17298 0
M  V30 18211 H 1668.69 2.18769 -3.03342 0
M  V30 18212 H 1670.98 4.8968 -4.68209 0
M  V30 18213 H 1671.93 3.95024 -5.87675 0
M  V30 18214 H 1672.33 3.8388 -4.1388 0
M  V30 18215 N 1671.73 1.46313 0.585673 0
M  V30 18216 C 1673.15 1.31203 0.908733 0
M  V30 18217 C 1673.35 0.281265 1.99527 0
M  V30 18218 O 1672.4 -0.317202 2.505 0
M  V30 18219 C 1673.72 2.69742 1.3289 0
M  V30 18220 C 1675.26 2.77809 1.44191 0
M  V30 18221 C 1675.74 4.16924 1.89574 0
M  V30 18222 N 1677.23 4.19327 1.96773 0
M  V30 18223 C 1677.97 5.23856 2.33157 0
M  V30 18224 N 1677.46 6.38716 2.68355 0
M  V30 18225 N 1679.25 5.11221 2.33686 0
M  V30 18226 H 1671.41 2.11989 -0.132126 0
M  V30 18227 H 1673.67 0.947993 0.00355835 0
M  V30 18228 H 1673.37 3.46465 0.604557 0
M  V30 18229 H 1673.25 2.99653 2.29102 0
M  V30 18230 H 1675.64 2.01377 2.15712 0
M  V30 18231 H 1675.72 2.51587 0.46237 0
M  V30 18232 H 1675.36 4.93851 1.18633 0
M  V30 18233 H 1675.29 4.40552 2.88481 0
M  V30 18234 H 1677.78 3.36451 1.72073 0
M  V30 18235 H 1678.09 7.14253 2.95063 0
M  V30 18236 H 1676.44 6.42082 2.66 0
M  V30 18237 H 1679.63 4.20527 2.05609 0
M  V30 18238 H 1679.8 5.92798 2.61714 0
M  V30 18239 N 1673.21 -0.830057 1.33969 0
M  V30 18240 C 1674.49 -1.57112 1.16513 0
M  V30 18241 C 1674.87 -2.09429 -0.265075 0
M  V30 18242 O 1674.21 -1.90263 -1.26539 0
M  V30 18243 C 1674.42 -2.69808 2.2137 0
M  V30 18244 C 1675.77 -3.38761 2.55981 0
M  V30 18245 O 1676.8 -2.80058 2.20104 0
M  V30 18246 O 1675.66 -4.44753 3.1758 0
M  V30 18247 H 1672.75 -0.693066 0.451207 0
M  V30 18248 H 1675.3 -0.872048 1.4558 0
M  V30 18249 H 1674.07 -2.28852 3.17399 0
M  V30 18250 H 1673.69 -3.47372 1.93439 0
M  V30 18251 N 1674.69 -1.17582 -1.04939 0
M  V30 18252 C 1675.62 -0.918221 -2.14688 0
M  V30 18253 C 1676.6 0.140757 -1.69517 0
M  V30 18254 O 1677.78 -0.0100118 -1.94197 0
M  V30 18255 C 1674.91 -0.433531 -3.44584 0
M  V30 18256 C 1673.87 -1.43199 -4.03334 0
M  V30 18257 C 1673.19 -0.805154 -5.28603 0
M  V30 18258 C 1674.49 -2.80598 -4.40525 0
M  V30 18259 H 1676.19 -1.83604 -2.36495 0
M  V30 18260 H 1673.73 -0.884202 -1.13657 0
M  V30 18261 H 1675.69 -0.240722 -4.20712 0
M  V30 18262 H 1674.41 0.519832 -3.22437 0
M  V30 18263 H 1673.07 -1.61158 -3.29277 0
M  V30 18264 H 1672.72 0.155124 -5.02761 0
M  V30 18265 H 1672.42 -1.4717 -5.68871 0
M  V30 18266 H 1673.94 -0.622677 -6.07417 0
M  V30 18267 H 1675.36 -2.66341 -5.07676 0
M  V30 18268 H 1673.75 -3.43854 -4.91817 0
M  V30 18269 H 1674.82 -3.34815 -3.50752 0
M  V30 18270 N 1676.17 1.23705 -0.976463 0
M  V30 18271 C 1677.1 2.24297 -0.471538 0
M  V30 18272 C 1678.11 1.57169 0.424484 0
M  V30 18273 O 1679.3 1.77022 0.229252 0
M  V30 18274 C 1676.4 3.37214 0.337621 0
M  V30 18275 C 1675.57 4.33921 -0.550586 0
M  V30 18276 C 1674.63 5.25804 0.204053 0
M  V30 18277 O 1673.66 5.67757 -0.404995 0
M  V30 18278 N 1674.86 5.61021 1.49116 0
M  V30 18279 H 1677.62 2.68252 -1.33645 0
M  V30 18280 H 1675.19 1.37836 -0.849281 0
M  V30 18281 H 1677.18 3.95658 0.850714 0
M  V30 18282 H 1675.75 2.92474 1.10351 0
M  V30 18283 H 1674.97 3.74038 -1.24455 0
M  V30 18284 H 1676.26 4.95493 -1.15604 0
M  V30 18285 H 1675.65 5.28879 2.00757 0
M  V30 18286 H 1674.21 6.21954 1.94978 0
M  V30 18287 N 1677.64 0.747635 1.38738 0
M  V30 18288 C 1678.57 0.131317 2.3313 0
M  V30 18289 C 1679.55 -0.710229 1.54563 0
M  V30 18290 O 1680.74 -0.652631 1.82905 0
M  V30 18291 C 1677.87 -0.767168 3.38721 0
M  V30 18292 C 1676.82 -0.0288124 4.2799 0
M  V30 18293 C 1676.15 -1.04515 5.24386 0
M  V30 18294 C 1677.45 1.13608 5.09795 0
M  V30 18295 H 1679.14 0.91981 2.84921 0
M  V30 18296 H 1676.69 0.443764 1.36992 0
M  V30 18297 H 1678.64 -1.20796 4.03716 0
M  V30 18298 H 1677.37 -1.58792 2.85399 0
M  V30 18299 H 1676.03 0.392491 3.64493 0
M  V30 18300 H 1675.67 -1.8598 4.67355 0
M  V30 18301 H 1675.37 -0.555813 5.84965 0
M  V30 18302 H 1676.9 -1.48538 5.92257 0
M  V30 18303 H 1678.31 0.773129 5.68063 0
M  V30 18304 H 1676.71 1.55589 5.79579 0
M  V30 18305 H 1677.78 1.95182 4.43883 0
M  V30 18306 N 1679.12 -1.49583 0.496242 0
M  V30 18307 C 1680.05 -2.26936 -0.321366 0
M  V30 18308 C 1681.07 -1.33282 -0.934863 0
M  V30 18309 O 1682.26 -1.58602 -0.819008 0
M  V30 18310 C 1679.36 -3.05503 -1.467 0
M  V30 18311 C 1678.53 -4.26697 -0.961687 0
M  V30 18312 C 1677.59 -4.8735 -1.98436 0
M  V30 18313 O 1676.61 -5.47553 -1.55482 0
M  V30 18314 N 1677.82 -4.76577 -3.31443 0
M  V30 18315 H 1680.58 -2.97744 0.341884 0
M  V30 18316 H 1678.14 -1.58532 0.328504 0
M  V30 18317 H 1680.13 -3.42954 -2.1486 0
M  V30 18318 H 1678.7 -2.37334 -2.03449 0
M  V30 18319 H 1677.92 -3.9406 -0.105143 0
M  V30 18320 H 1679.21 -5.05221 -0.602405 0
M  V30 18321 H 1678.61 -4.28756 -3.69032 0
M  V30 18322 H 1677.17 -5.18226 -3.95329 0
M  V30 18323 N 1680.6 -0.229873 -1.55915 0
M  V30 18324 C 1681.84 0.40131 -2.00422 0
M  V30 18325 C 1682.2 1.56356 -1.1143 0
M  V30 18326 O 1683.4 2.26132 -1.45319 0
M  V30 18327 C 1681.68 0.816946 -3.47938 0
M  V30 18328 S 1683.23 1.44106 -4.14462 0
M  V30 18329 H 1680.05 0.127024 -0.699561 0
M  V30 18330 H 1682.65 -0.341114 -1.92501 0
M  V30 18331 H 1681.36 -0.038498 -4.10382 0
M  V30 18332 H 1680.89 1.59198 -3.59749 0
M  V30 18333 H 1682.9 2.73016 -4.14339 0
M  V30 18334 N 1682.08 1.5754 0.0434337 0
M  V30 18335 C 1682.99 2.08996 1.06574 0
M  V30 18336 C 1684 1.02544 1.40573 0
M  V30 18337 O 1685.18 1.34192 1.50181 0
M  V30 18338 C 1682.24 2.54723 2.35196 0
M  V30 18339 C 1681.31 3.75595 2.0791 0
M  V30 18340 C 1680.54 4.19132 3.304 0
M  V30 18341 O 1680.76 3.62303 4.40559 0
M  V30 18342 O 1679.7 5.11694 3.16944 0
M  V30 18343 H 1683.52 2.96475 0.658503 0
M  V30 18344 H 1681.11 1.47129 0.259475 0
M  V30 18345 H 1682.99 2.84529 3.1084 0
M  V30 18346 H 1681.66 1.70361 2.75243 0
M  V30 18347 H 1680.57 3.5083 1.2988 0
M  V30 18348 H 1681.9 4.60897 1.72727 0
M  V30 18349 N 1683.56 -0.31543 1.54411 0
M  V30 18350 C 1684.52 -1.37154 1.83634 0
M  V30 18351 C 1685.52 -1.44349 0.708518 0
M  V30 18352 O 1686.71 -1.44235 0.976824 0
M  V30 18353 C 1683.84 -2.758 2.00368 0
M  V30 18354 H 1685.03 -1.12493 2.78002 0
M  V30 18355 H 1682.59 -0.551346 1.46253 0
M  V30 18356 H 1683.32 -3.05704 1.08238 0
M  V30 18357 H 1683.11 -2.7197 2.82445 0
M  V30 18358 H 1684.6 -3.52187 2.24397 0
M  V30 18359 N 1685.03 -1.46622 -0.577906 0
M  V30 18360 C 1685.98 -1.57926 -1.70769 0
M  V30 18361 C 1686.98 -0.447509 -1.63382 0
M  V30 18362 O 1688.18 -0.624559 -1.68817 0
M  V30 18363 H 1684.56 -0.496618 -0.56469 0
M  V30 18364 H 1686.53 -2.52908 -1.58367 0
M  V30 18365 C 1685.28 -1.59124 -3.09152 0
M  V30 18366 H 1684.6 -2.45549 -3.15509 0
M  V30 18367 H 1686.04 -1.71087 -3.8795 0
M  V30 18368 C 1684.5 -0.320734 -3.3537 0
M  V30 18369 O 1685.03 0.586999 -3.97388 0
M  V30 18370 N 1683.24 -0.207156 -2.89861 0
M  V30 18371 H 1682.78 -0.946744 -2.39572 0
M  V30 18372 H 1682.74 0.642028 -3.07775 0
M  V30 18373 N 1686.51 0.822941 -1.34408 0
M  V30 18374 C 1687.76 1.58149 -1.26951 0
M  V30 18375 C 1688.09 1.93538 0.160222 0
M  V30 18376 O 1687.37 1.60021 1.1056 0
M  V30 18377 C 1687.65 2.88101 -2.16032 0
M  V30 18378 C 1687.5 2.59293 -3.67542 0
M  V30 18379 C 1688.82 3.89673 -2.04556 0
M  V30 18380 H 1685.94 0.573811 -0.462504 0
M  V30 18381 H 1688.58 0.948017 -1.64659 0
M  V30 18382 H 1686.73 3.42162 -1.84003 0
M  V30 18383 H 1688.4 2.11542 -4.09936 0
M  V30 18384 H 1686.65 1.92738 -3.88632 0
M  V30 18385 H 1687.32 3.51962 -4.25238 0
M  V30 18386 H 1689.79 3.44965 -2.32677 0
M  V30 18387 H 1688.67 4.78404 -2.69111 0
M  V30 18388 H 1688.93 4.30113 -1.02253 0
M  V30 18389 N 1687.99 1.18137 1.04314 0
M  V30 18390 C 1689.41 0.930523 1.29667 0
M  V30 18391 C 1689.61 -0.405336 1.97381 0
M  V30 18392 O 1688.66 -1.14025 2.25288 0
M  V30 18393 C 1689.98 2.09427 2.1578 0
M  V30 18394 C 1691.52 2.13229 2.29134 0
M  V30 18395 C 1692 3.29014 3.18612 0
M  V30 18396 N 1693.49 3.28859 3.26199 0
M  V30 18397 C 1694.22 4.15092 3.95583 0
M  V30 18398 N 1693.72 5.11453 4.67319 0
M  V30 18399 N 1695.51 4.03014 3.91837 0
M  V30 18400 H 1687.66 2.04108 0.587669 0
M  V30 18401 H 1689.93 0.89171 0.321804 0
M  V30 18402 H 1689.63 3.06023 1.73328 0
M  V30 18403 H 1689.51 2.0528 3.16449 0
M  V30 18404 H 1691.89 1.17212 2.70823 0
M  V30 18405 H 1691.98 2.21435 1.28064 0
M  V30 18406 H 1691.62 4.25302 2.77635 0
M  V30 18407 H 1691.55 3.18045 4.19708 0
M  V30 18408 H 1694.04 2.59097 2.75095 0
M  V30 18409 H 1694.35 5.7363 5.1785 0
M  V30 18410 H 1692.7 5.15415 4.66232 0
M  V30 18411 H 1695.89 3.27021 3.34925 0
M  V30 18412 H 1696.06 4.70435 4.4564 0
M  V30 18413 N 1689.47 -1.23186 0.98301 0
M  V30 18414 C 1690.38 -2.28448 0.533727 0
M  V30 18415 C 1691.39 -1.69034 -0.412732 0
M  V30 18416 O 1692.57 -1.99416 -0.282007 0
M  V30 18417 C 1689.64 -3.46357 -0.154179 0
M  V30 18418 C 1688.7 -4.21121 0.834009 0
M  V30 18419 C 1687.93 -5.334 0.178836 0
M  V30 18420 O 1688.15 -5.61032 -1.02952 0
M  V30 18421 O 1687.09 -5.95451 0.878722 0
M  V30 18422 H 1690.91 -2.69027 1.40919 0
M  V30 18423 H 1688.5 -1.29166 0.75077 0
M  V30 18424 H 1690.38 -4.17926 -0.539947 0
M  V30 18425 H 1689.05 -3.07724 -1.00437 0
M  V30 18426 H 1687.96 -3.51864 1.27053 0
M  V30 18427 H 1689.29 -4.6361 1.65309 0
M  V30 18428 N 1690.95 -0.754982 -1.38339 0
M  V30 18429 C 1691.88 -0.143678 -2.33058 0
M  V30 18430 C 1692.86 0.702022 -1.54938 0
M  V30 18431 O 1694.04 0.642922 -1.83249 0
M  V30 18432 C 1691.17 0.749194 -3.39123 0
M  V30 18433 C 1690.13 0.00611459 -4.28 0
M  V30 18434 C 1689.45 1.01733 -5.24933 0
M  V30 18435 C 1690.75 -1.1631 -5.09185 0
M  V30 18436 H 1692.45 -0.934907 -2.84429 0
M  V30 18437 H 1689.99 -0.451023 -1.36754 0
M  V30 18438 H 1691.95 1.18653 -4.04351 0
M  V30 18439 H 1690.67 1.57276 -2.86237 0
M  V30 18440 H 1689.33 -0.411816 -3.6428 0
M  V30 18441 H 1688.98 1.83499 -4.68334 0
M  V30 18442 H 1688.68 0.524783 -5.85252 0
M  V30 18443 H 1690.2 1.45395 -5.93037 0
M  V30 18444 H 1691.61 -0.803244 -5.67645 0
M  V30 18445 H 1690.01 -1.5866 -5.78746 0
M  V30 18446 H 1691.08 -1.97533 -4.42842 0
M  V30 18447 N 1692.42 1.49318 -0.504168 0
M  V30 18448 C 1693.37 2.26124 0.291886 0
M  V30 18449 C 1694.36 1.31105 0.932753 0
M  V30 18450 O 1695.55 1.55807 0.839828 0
M  V30 18451 C 1692.68 3.15477 1.35384 0
M  V30 18452 C 1691.77 4.1796 0.719059 0
M  V30 18453 N 1692.16 5.05479 -0.180167 0
M  V30 18454 C 1690.45 4.35116 0.979276 0
M  V30 18455 C 1691.16 5.79152 -0.543837 0
M  V30 18456 N 1690.13 5.43527 0.0889959 0
M  V30 18457 H 1693.93 2.91161 -0.400301 0
M  V30 18458 H 1691.45 1.59207 -0.320454 0
M  V30 18459 H 1693.44 3.69137 1.93762 0
M  V30 18460 H 1692.1 2.51993 2.04767 0
M  V30 18461 H 1693.12 5.14959 -0.551179 0
M  V30 18462 H 1689.79 3.82836 1.66562 0
M  V30 18463 H 1691.18 6.59601 -1.27968 0
M  V30 18464 N 1693.9 0.238138 1.5579 0
M  V30 18465 C 1694.83 -0.697701 2.18323 0
M  V30 18466 C 1695.85 -1.1453 1.15701 0
M  V30 18467 O 1697.04 -1.07359 1.42605 0
M  V30 18468 C 1694.14 -1.95895 2.76547 0
M  V30 18469 C 1693.31 -1.66422 4.04503 0
M  V30 18470 C 1692.37 -2.77419 4.4713 0
M  V30 18471 O 1691.39 -2.45179 5.13689 0
M  V30 18472 N 1692.6 -4.06731 4.14187 0
M  V30 18473 H 1695.36 -0.162705 2.99258 0
M  V30 18474 H 1692.92 0.0577602 1.61797 0
M  V30 18475 H 1694.91 -2.69374 3.02026 0
M  V30 18476 H 1693.48 -2.40398 1.99819 0
M  V30 18477 H 1692.7 -0.76505 3.86705 0
M  V30 18478 H 1693.99 -1.44183 4.87943 0
M  V30 18479 H 1693.39 -4.3576 3.60735 0
M  V30 18480 H 1691.95 -4.76701 4.44521 0
M  V30 18481 N 1695.38 -1.57561 -0.0350783 0
M  V30 18482 C 1696.31 -2.09201 -1.03716 0
M  V30 18483 C 1697.29 -0.993231 -1.3809 0
M  V30 18484 O 1698.48 -1.26812 -1.47079 0
M  V30 18485 C 1695.61 -2.56643 -2.3399 0
M  V30 18486 C 1694.56 -3.70731 -2.13874 0
M  V30 18487 C 1693.89 -4.04358 -3.49855 0
M  V30 18488 C 1695.19 -4.99393 -1.52982 0
M  V30 18489 H 1696.88 -2.93176 -0.60731 0
M  V30 18490 H 1694.43 -1.41036 -0.290683 0
M  V30 18491 H 1696.38 -2.9139 -3.04417 0
M  V30 18492 H 1695.1 -1.69744 -2.79024 0
M  V30 18493 H 1693.76 -3.36325 -1.45881 0
M  V30 18494 H 1693.41 -3.14534 -3.92527 0
M  V30 18495 H 1693.11 -4.81201 -3.37223 0
M  V30 18496 H 1694.63 -4.41633 -4.21654 0
M  V30 18497 H 1696.05 -5.32135 -2.13319 0
M  V30 18498 H 1694.45 -5.80807 -1.50943 0
M  V30 18499 H 1695.52 -4.82367 -0.494993 0
M  V30 18500 N 1696.86 0.307236 -1.54576 0
M  V30 18501 C 1697.79 1.40019 -1.81459 0
M  V30 18502 C 1698.8 1.47113 -0.697246 0
M  V30 18503 O 1699.99 1.49544 -0.974626 0
M  V30 18504 C 1697.09 2.78439 -1.93197 0
M  V30 18505 C 1696.27 2.94353 -3.23536 0
M  V30 18506 C 1695.32 4.13232 -3.25769 0
M  V30 18507 O 1694.35 4.05614 -3.99331 0
M  V30 18508 N 1695.55 5.23567 -2.50715 0
M  V30 18509 H 1698.32 1.17317 -2.75784 0
M  V30 18510 H 1695.88 0.497286 -1.54074 0
M  V30 18511 H 1697.87 3.56202 -1.921 0
M  V30 18512 H 1696.44 2.94117 -1.05895 0
M  V30 18513 H 1695.66 2.03754 -3.37458 0
M  V30 18514 H 1696.95 3.01892 -4.09559 0
M  V30 18515 H 1696.35 5.32635 -1.90569 0
M  V30 18516 H 1694.9 5.99687 -2.55379 0
M  V30 18517 N 1698.34 1.46926 0.570122 0
M  V30 18518 C 1699.28 1.5883 1.69929 0
M  V30 18519 C 1700.28 0.456167 1.63143 0
M  V30 18520 O 1701.48 0.633503 1.68484 0
M  V30 18521 H 1697.86 0.499606 0.562048 0
M  V30 18522 H 1699.83 2.53744 1.57023 0
M  V30 18523 C 1698.58 1.60761 3.08304 0
M  V30 18524 H 1697.9 2.47219 3.14202 0
M  V30 18525 H 1699.34 1.73142 3.87037 0
M  V30 18526 C 1697.8 0.338515 3.35195 0
M  V30 18527 O 1698.33 -0.565917 3.97694 0
M  V30 18528 N 1696.54 0.222525 2.89747 0
M  V30 18529 H 1696.08 0.959435 2.39066 0
M  V30 18530 H 1696.04 -0.625697 3.08111 0
M  V30 18531 N 1699.82 -0.815801 1.34842 0
M  V30 18532 C 1700.73 -1.95886 1.29097 0
M  V30 18533 C 1701.74 -1.72876 0.197422 0
M  V30 18534 O 1702.92 -1.96861 0.425166 0
M  V30 18535 C 1699.98 -3.30311 1.05336 0
M  V30 18536 C 1699.04 -3.66279 2.23916 0
M  V30 18537 C 1698.28 -4.9429 2.01279 0
M  V30 18538 O 1698.5 -5.62012 0.974603 0
M  V30 18539 O 1697.43 -5.28302 2.88411 0
M  V30 18540 H 1701.26 -2.03678 2.25276 0
M  V30 18541 H 1698.84 -0.952243 1.1512 0
M  V30 18542 H 1700.73 -4.10806 0.938961 0
M  V30 18543 H 1699.4 -3.2347 0.122024 0
M  V30 18544 H 1698.31 -2.86198 2.40918 0
M  V30 18545 H 1699.64 -3.77814 3.15464 0
M  V30 18546 N 1701.29 -1.18689 -1.03686 0
M  V30 18547 C 1702.24 -0.917369 -2.11785 0
M  V30 18548 C 1703.21 0.144719 -1.65468 0
M  V30 18549 O 1704.4 0.00427016 -1.908 0
M  V30 18550 C 1701.54 -0.453396 -3.42109 0
M  V30 18551 C 1700.65 -1.58134 -4.02017 0
M  V30 18552 C 1699.78 -1.06971 -5.20318 0
M  V30 18553 C 1698.82 -2.17208 -5.72265 0
M  V30 18554 N 1697.96 -1.67411 -6.81849 0
M  V30 18555 H 1702.8 -1.84297 -2.34177 0
M  V30 18556 H 1700.34 -0.918951 -1.14864 0
M  V30 18557 H 1702.29 -0.165843 -4.1687 0
M  V30 18558 H 1700.92 0.435219 -3.19853 0
M  V30 18559 H 1699.98 -1.98429 -3.24546 0
M  V30 18560 H 1701.29 -2.41219 -4.36594 0
M  V30 18561 H 1700.44 -0.736906 -6.02208 0
M  V30 18562 H 1699.18 -0.208487 -4.87254 0
M  V30 18563 H 1698.19 -2.51328 -4.88993 0
M  V30 18564 H 1699.41 -3.03772 -6.07371 0
M  V30 18565 H 1697.36 -0.83584 -6.50653 0
M  V30 18566 H 1697.27 -2.44091 -7.15511 0
M  V30 18567 H 1698.54 -1.3707 -7.67354 0
M  V30 18568 N 1702.77 1.22662 -0.989529 0
M  V30 18569 C 1704.01 1.9305 -0.671653 0
M  V30 18570 C 1704.38 1.75377 0.781465 0
M  V30 18571 O 1705.58 2.39996 1.2106 0
M  V30 18572 C 1703.85 3.41245 -1.0624 0
M  V30 18573 S 1705.41 4.30242 -0.862376 0
M  V30 18574 H 1702.22 0.667204 -0.245682 0
M  V30 18575 H 1704.83 1.48537 -1.2711 0
M  V30 18576 H 1703.53 3.51619 -2.11641 0
M  V30 18577 H 1703.06 3.90764 -0.454611 0
M  V30 18578 H 1705.08 4.95575 0.248897 0
M  V30 18579 N 1704.25 0.762308 1.37937 0
M  V30 18580 C 1705.2 0.115944 2.27705 0
M  V30 18581 C 1706.18 -0.684063 1.45634 0
M  V30 18582 O 1707.38 -0.548586 1.68284 0
M  V30 18583 C 1704.5 -0.76969 3.3456 0
M  V30 18584 C 1703.59 0.0376368 4.24083 0
M  V30 18585 N 1703.98 1.07849 4.94168 0
M  V30 18586 C 1702.28 -0.187824 4.45604 0
M  V30 18587 C 1702.98 1.56769 5.60177 0
M  V30 18588 N 1701.96 0.881477 5.36406 0
M  V30 18589 H 1705.76 0.912994 2.79359 0
M  V30 18590 H 1703.27 0.599168 1.50943 0
M  V30 18591 H 1705.27 -1.24844 3.97768 0
M  V30 18592 H 1703.93 -1.56559 2.84463 0
M  V30 18593 H 1704.94 1.46046 4.96881 0
M  V30 18594 H 1701.62 -0.95638 4.06398 0
M  V30 18595 H 1703.01 2.43517 6.26218 0
M  V30 18596 N 1705.73 -1.49049 0.51208 0
M  V30 18597 C 1706.66 -2.32163 -0.249529 0
M  V30 18598 C 1707.64 -1.40957 -0.952114 0
M  V30 18599 O 1708.82 -1.69858 -0.94137 0
M  V30 18600 C 1705.95 -3.21737 -1.30776 0
M  V30 18601 C 1704.91 -4.21825 -0.724392 0
M  V30 18602 C 1704.23 -5.00411 -1.88396 0
M  V30 18603 C 1705.53 -5.21483 0.291975 0
M  V30 18604 H 1707.23 -2.96086 0.444253 0
M  V30 18605 H 1704.77 -1.42385 0.215093 0
M  V30 18606 H 1706.73 -3.78699 -1.84837 0
M  V30 18607 H 1705.45 -2.55779 -2.03088 0
M  V30 18608 H 1704.11 -3.66024 -0.205441 0
M  V30 18609 H 1703.76 -4.30891 -2.59502 0
M  V30 18610 H 1703.46 -5.68141 -1.49964 0
M  V30 18611 H 1704.98 -5.6022 -2.42869 0
M  V30 18612 H 1706.4 -5.73074 -0.160899 0
M  V30 18613 H 1704.79 -5.97166 0.592717 0
M  V30 18614 H 1705.86 -4.69714 1.20404 0
M  V30 18615 N 1707.21 -0.246397 -1.55662 0
M  V30 18616 C 1708.14 0.647563 -2.24341 0
M  V30 18617 C 1709.12 1.1817 -1.22352 0
M  V30 18618 O 1710.3 1.22114 -1.51003 0
M  V30 18619 C 1707.43 1.84485 -2.94249 0
M  V30 18620 C 1706.39 1.4435 -4.02923 0
M  V30 18621 C 1705.71 2.72158 -4.60255 0
M  V30 18622 C 1707.01 0.614951 -5.18667 0
M  V30 18623 H 1708.71 0.0748803 -2.99306 0
M  V30 18624 H 1706.25 0.034575 -1.43958 0
M  V30 18625 H 1708.2 2.47588 -3.40995 0
M  V30 18626 H 1706.93 2.4429 -2.16772 0
M  V30 18627 H 1705.59 0.835811 -3.56945 0
M  V30 18628 H 1705.24 3.3016 -3.79478 0
M  V30 18629 H 1704.94 2.46028 -5.33614 0
M  V30 18630 H 1706.46 3.36161 -5.09734 0
M  V30 18631 H 1707.87 1.15028 -5.61642 0
M  V30 18632 H 1706.27 0.449729 -5.98412 0
M  V30 18633 H 1707.34 -0.372943 -4.83464 0
M  V30 18634 N 1708.68 1.57577 0.026722 0
M  V30 18635 C 1709.93 1.8966 0.718124 0
M  V30 18636 C 1710.26 0.844423 1.7488 0
M  V30 18637 O 1709.54 -0.14023 1.93994 0
M  V30 18638 C 1709.82 3.32377 1.38555 0
M  V30 18639 C 1709.67 4.4829 0.368227 0
M  V30 18640 C 1710.99 3.74051 2.31891 0
M  V30 18641 H 1708.11 0.689767 0.259596 0
M  V30 18642 H 1710.75 1.8999 -0.0190825 0
M  V30 18643 H 1708.9 3.32226 2.01391 0
M  V30 18644 H 1710.58 4.60576 -0.258394 0
M  V30 18645 H 1708.82 4.32675 -0.312255 0
M  V30 18646 H 1709.49 5.45041 0.873749 0
M  V30 18647 H 1711.97 3.75584 1.79097 0
M  V30 18648 H 1710.84 4.74713 2.7557 0
M  V30 18649 H 1711.1 3.06438 3.18666 0
M  V30 18650 N 1710.16 -0.299034 1.54737 0
M  V30 18651 C 1711.07 -1.39141 1.88884 0
M  V30 18652 C 1712.09 -1.55377 0.783203 0
M  V30 18653 O 1713.26 -1.70003 1.07985 0
M  V30 18654 C 1710.33 -2.73487 2.13087 0
M  V30 18655 C 1709.39 -2.66219 3.36788 0
M  V30 18656 C 1708.62 -3.94158 3.59827 0
M  V30 18657 O 1708.85 -4.9361 2.85841 0
M  V30 18658 O 1707.78 -3.95933 4.53344 0
M  V30 18659 H 1711.61 -1.13184 2.81821 0
M  V30 18660 H 1709.19 -0.495271 1.40952 0
M  V30 18661 H 1711.07 -3.5297 2.30195 0
M  V30 18662 H 1709.75 -2.99283 1.23335 0
M  V30 18663 H 1708.65 -1.85201 3.25041 0
M  V30 18664 H 1709.99 -2.45376 4.26675 0
M  V30 18665 N 1711.64 -1.47227 -0.562322 0
M  V30 18666 C 1712.59 -1.55739 -1.66521 0
M  V30 18667 C 1713.57 -0.416678 -1.55411 0
M  V30 18668 O 1714.77 -0.666302 -1.6398 0
M  V30 18669 C 1711.89 -1.5699 -3.05302 0
M  V30 18670 C 1710.98 -2.76427 -3.21634 0
M  V30 18671 N 1711.37 -4.01172 -3.0805 0
M  V30 18672 C 1709.67 -2.73081 -3.52623 0
M  V30 18673 C 1710.37 -4.81132 -3.26936 0
M  V30 18674 N 1709.35 -4.13362 -3.53034 0
M  V30 18675 H 1713.15 -2.49965 -1.5458 0
M  V30 18676 H 1710.66 -1.4315 -0.766937 0
M  V30 18677 H 1712.66 -1.61178 -3.84483 0
M  V30 18678 H 1711.32 -0.638563 -3.18359 0
M  V30 18679 H 1712.33 -4.3211 -2.85485 0
M  V30 18680 H 1709.01 -1.89062 -3.72239 0
M  V30 18681 H 1710.4 -5.9002 -3.21444 0
M  V30 18682 N 1713.12 0.808639 -1.35273 0
M  V30 18683 C 1714.03 1.95198 -1.30134 0
M  V30 18684 C 1715.04 1.72769 -0.206587 0
M  V30 18685 O 1716.22 1.96633 -0.4356 0
M  V30 18686 C 1713.28 3.29747 -1.07087 0
M  V30 18687 C 1712.35 3.65086 -2.25855 0
M  V30 18688 C 1711.58 4.93215 -2.03898 0
M  V30 18689 O 1711.8 5.61487 -1.00439 0
M  V30 18690 O 1710.74 5.26765 -2.91208 0
M  V30 18691 H 1714.56 2.0248 -2.26353 0
M  V30 18692 H 1712.15 0.946124 -1.15624 0
M  V30 18693 H 1714.03 4.10302 -0.960734 0
M  V30 18694 H 1712.7 3.23401 -0.139177 0
M  V30 18695 H 1711.61 2.84917 -2.42432 0
M  V30 18696 H 1712.94 3.76135 -3.17464 0
M  V30 18697 N 1714.6 1.19237 1.03055 0
M  V30 18698 C 1715.82 1.01917 1.80057 0
M  V30 18699 C 1716.24 -0.43214 1.83788 0
M  V30 18700 O 1715.6 -1.30016 1.28071 0
M  V30 18701 C 1715.65 1.57912 3.25186 0
M  V30 18702 O 1715.37 2.97362 3.21725 0
M  V30 18703 C 1716.87 1.45352 4.18793 0
M  V30 18704 H 1714.09 0.359301 0.566696 0
M  V30 18705 H 1716.63 1.58015 1.29814 0
M  V30 18706 H 1714.79 1.05967 3.72625 0
M  V30 18707 H 1715.2 3.23674 4.12717 0
M  V30 18708 H 1716.68 1.89313 5.18521 0
M  V30 18709 H 1717.15 0.40378 4.3734 0
M  V30 18710 H 1717.76 1.96419 3.77226 0
M  V30 18711 N 1716.07 -1.22136 0.99602 0
M  V30 18712 C 1717.01 -2.23518 0.507162 0
M  V30 18713 C 1718.02 -1.57824 -0.399426 0
M  V30 18714 O 1719.21 -1.77364 -0.20106 0
M  V30 18715 C 1716.31 -3.37709 -0.283931 0
M  V30 18716 C 1715.48 -4.3299 0.619549 0
M  V30 18717 C 1714.54 -5.26062 -0.120376 0
M  V30 18718 O 1713.57 -5.67041 0.495269 0
M  V30 18719 N 1714.77 -5.63322 -1.40172 0
M  V30 18720 H 1717.53 -2.66092 1.37896 0
M  V30 18721 H 1715.09 -1.36468 0.871102 0
M  V30 18722 H 1717.09 -3.96961 -0.787661 0
M  V30 18723 H 1715.66 -2.94193 -1.05685 0
M  V30 18724 H 1714.88 -3.72011 1.3039 0
M  V30 18725 H 1716.16 -4.93591 1.23473 0
M  V30 18726 H 1715.56 -5.32006 -1.92318 0
M  V30 18727 H 1714.12 -6.24977 -1.85058 0
M  V30 18728 N 1717.55 -0.769612 -1.37531 0
M  V30 18729 C 1718.5 -0.152627 -2.30295 0
M  V30 18730 C 1719.47 0.692154 -1.50992 0
M  V30 18731 O 1720.65 0.64496 -1.79569 0
M  V30 18732 C 1717.79 0.72217 -3.37459 0
M  V30 18733 C 1716.91 -0.138985 -4.31776 0
M  V30 18734 C 1716.04 0.740317 -5.26016 0
M  V30 18735 C 1715.08 -0.1235 -6.11975 0
M  V30 18736 N 1714.22 0.713658 -6.98464 0
M  V30 18737 H 1719.06 -0.949218 -2.82478 0
M  V30 18738 H 1716.6 -0.479697 -1.39059 0
M  V30 18739 H 1718.55 1.24415 -3.98217 0
M  V30 18740 H 1717.18 1.48438 -2.86646 0
M  V30 18741 H 1716.24 -0.778756 -3.72343 0
M  V30 18742 H 1717.55 -0.805402 -4.92255 0
M  V30 18743 H 1716.7 1.32887 -5.91968 0
M  V30 18744 H 1715.44 1.44042 -4.65943 0
M  V30 18745 H 1714.45 -0.7246 -5.45004 0
M  V30 18746 H 1715.67 -0.820907 -6.7412 0
M  V30 18747 H 1713.62 1.39842 -6.40921 0
M  V30 18748 H 1713.53 0.104492 -7.55928 0
M  V30 18749 H 1714.8 1.28667 -7.68808 0
M  V30 18750 N 1719.03 1.48775 -0.519977 0
M  V30 18751 C 1719.96 2.32292 0.237213 0
M  V30 18752 C 1720.94 1.4146 0.944625 0
M  V30 18753 O 1722.13 1.70355 0.932349 0
M  V30 18754 C 1719.26 3.22426 1.29068 0
M  V30 18755 C 1718.21 4.22204 0.702011 0
M  V30 18756 C 1717.54 5.01403 1.85739 0
M  V30 18757 C 1718.84 5.21321 -0.319626 0
M  V30 18758 H 1720.53 2.95846 -0.459949 0
M  V30 18759 H 1718.08 1.42268 -0.222641 0
M  V30 18760 H 1720.03 3.79674 1.82826 0
M  V30 18761 H 1718.75 2.56853 2.01728 0
M  V30 18762 H 1717.41 3.66128 0.186027 0
M  V30 18763 H 1717.06 4.32262 2.57214 0
M  V30 18764 H 1716.76 5.68929 1.46949 0
M  V30 18765 H 1718.28 5.615 2.39895 0
M  V30 18766 H 1719.7 5.73151 0.130505 0
M  V30 18767 H 1718.1 5.96843 -0.624377 0
M  V30 18768 H 1719.17 4.69069 -1.22893 0
M  V30 18769 N 1720.51 0.254649 1.55529 0
M  V30 18770 C 1721.46 -0.64162 2.21702 0
M  V30 18771 C 1722.43 -1.16544 1.1835 0
M  V30 18772 O 1723.61 -1.2185 1.46824 0
M  V30 18773 C 1720.75 -1.82935 2.92624 0
M  V30 18774 C 1719.86 -1.34132 4.10649 0
M  V30 18775 C 1719 -2.48922 4.69267 0
M  V30 18776 C 1718.04 -1.9702 5.79525 0
M  V30 18777 N 1717.17 -3.05206 6.32293 0
M  V30 18778 H 1722.01 -0.0706476 2.97916 0
M  V30 18779 H 1719.55 -0.0231077 1.47082 0
M  V30 18780 H 1721.51 -2.52719 3.31947 0
M  V30 18781 H 1720.14 -2.37267 2.1887 0
M  V30 18782 H 1719.19 -0.53726 3.76587 0
M  V30 18783 H 1720.5 -0.921003 4.90223 0
M  V30 18784 H 1719.66 -3.26735 5.11203 0
M  V30 18785 H 1718.4 -2.94259 3.88925 0
M  V30 18786 H 1717.4 -1.17679 5.37058 0
M  V30 18787 H 1718.63 -1.52643 6.61723 0
M  V30 18788 H 1716.57 -3.49963 5.54853 0
M  V30 18789 H 1716.49 -2.67528 7.07082 0
M  V30 18790 H 1717.76 -3.83055 6.78888 0
M  V30 18791 N 1721.99 -1.57589 -0.0183649 0
M  V30 18792 C 1722.9 -2.10665 -1.03235 0
M  V30 18793 C 1723.91 -1.04767 -1.38924 0
M  V30 18794 O 1725.09 -1.36565 -1.48027 0
M  V30 18795 C 1722.15 -2.58432 -2.31114 0
M  V30 18796 C 1721.21 -3.78856 -2.01908 0
M  V30 18797 C 1720.45 -4.24335 -3.2369 0
M  V30 18798 O 1720.67 -3.69266 -4.3474 0
M  V30 18799 O 1719.6 -5.16671 -3.08763 0
M  V30 18800 H 1723.43 -2.97485 -0.611254 0
M  V30 18801 H 1721.02 -1.47524 -0.236035 0
M  V30 18802 H 1722.9 -2.89438 -3.06274 0
M  V30 18803 H 1721.57 -1.74718 -2.72498 0
M  V30 18804 H 1720.48 -3.52852 -1.24282 0
M  V30 18805 H 1721.81 -4.63587 -1.65373 0
M  V30 18806 N 1723.46 0.290824 -1.54893 0
M  V30 18807 C 1724.39 1.36354 -1.89551 0
M  V30 18808 C 1725.38 1.52403 -0.75546 0
M  V30 18809 O 1726.56 1.65743 -1.01208 0
M  V30 18810 C 1723.69 2.72609 -2.15178 0
M  V30 18811 C 1722.64 2.71313 -3.31019 0
M  V30 18812 C 1721.97 4.10952 -3.42085 0
M  V30 18813 C 1723.27 2.32153 -4.6787 0
M  V30 18814 H 1724.96 1.07597 -2.79398 0
M  V30 18815 H 1722.51 0.516154 -1.34432 0
M  V30 18816 H 1724.46 3.47749 -2.3801 0
M  V30 18817 H 1723.19 3.02913 -1.22112 0
M  V30 18818 H 1721.85 1.9863 -3.08126 0
M  V30 18819 H 1721.49 4.38449 -2.46518 0
M  V30 18820 H 1721.19 4.10984 -4.1996 0
M  V30 18821 H 1722.72 4.87857 -3.67189 0
M  V30 18822 H 1724.13 2.97011 -4.90364 0
M  V30 18823 H 1722.53 2.4338 -5.48531 0
M  V30 18824 H 1723.6 1.27279 -4.67897 0
M  V30 18825 N 1724.94 1.47523 0.554506 0
M  V30 18826 C 1726.22 1.44768 1.31535 0
M  V30 18827 C 1726.6 0.146082 2.10594 0
M  V30 18828 O 1725.95 -0.872415 2.1119 0
M  V30 18829 C 1726.16 2.69489 2.21758 0
M  V30 18830 C 1727.51 3.16814 2.82691 0
M  V30 18831 O 1728.53 2.70235 2.32059 0
M  V30 18832 O 1727.39 3.97798 3.74725 0
M  V30 18833 H 1724.48 0.577042 0.592412 0
M  V30 18834 H 1727.03 1.59727 0.573186 0
M  V30 18835 H 1725.8 3.55753 1.62958 0
M  V30 18836 H 1725.42 2.5713 3.03266 0
M  V30 18837 N 1726.42 -0.801453 1.357 0
M  V30 18838 C 1727.33 -1.94505 1.31167 0
M  V30 18839 C 1728.35 -1.72657 0.215747 0
M  V30 18840 O 1729.52 -1.96399 0.446022 0
M  V30 18841 C 1726.59 -3.29175 1.08834 0
M  V30 18842 C 1725.65 -3.63883 2.27788 0
M  V30 18843 C 1724.88 -4.92127 2.06511 0
M  V30 18844 O 1725.1 -5.60947 1.03416 0
M  V30 18845 O 1724.04 -5.25213 2.93998 0
M  V30 18846 H 1727.86 -2.01277 2.27423 0
M  V30 18847 H 1725.45 -0.939979 1.16124 0
M  V30 18848 H 1727.33 -4.09787 0.98248 0
M  V30 18849 H 1726.01 -3.23322 0.156326 0
M  V30 18850 H 1724.91 -2.83627 2.4394 0
M  V30 18851 H 1726.25 -3.74446 3.19454 0
M  V30 18852 N 1727.9 -1.19782 -1.02421 0
M  V30 18853 C 1728.81 -0.955253 -2.14271 0
M  V30 18854 C 1729.82 0.0863233 -1.73786 0
M  V30 18855 O 1731 -0.0993878 -2.01155 0
M  V30 18856 C 1728.07 -0.502219 -3.43043 0
M  V30 18857 C 1727.13 -1.61374 -3.97815 0
M  V30 18858 C 1726.36 -1.18223 -5.20441 0
M  V30 18859 O 1726.58 -0.0477334 -5.7038 0
M  V30 18860 O 1725.52 -1.98664 -5.68169 0
M  V30 18861 H 1729.34 -1.89157 -2.37599 0
M  V30 18862 H 1726.93 -0.981035 -1.12677 0
M  V30 18863 H 1728.81 -0.258445 -4.20607 0
M  V30 18864 H 1727.48 0.4056 -3.21149 0
M  V30 18865 H 1726.39 -1.91172 -3.21565 0
M  V30 18866 H 1727.72 -2.49829 -4.24083 0
M  V30 18867 N 1729.38 1.21606 -1.00248 0
M  V30 18868 C 1730.33 2.21711 -0.531824 0
M  V30 18869 C 1731.31 1.55714 0.405201 0
M  V30 18870 O 1732.5 1.75493 0.230462 0
M  V30 18871 C 1729.63 3.43003 0.142686 0
M  V30 18872 C 1728.72 4.16191 -0.815209 0
M  V30 18873 N 1729.11 4.65986 -1.967 0
M  V30 18874 C 1727.41 4.41484 -0.633069 0
M  V30 18875 C 1728.11 5.21897 -2.56901 0
M  V30 18876 N 1727.08 5.11121 -1.85084 0
M  V30 18877 H 1730.89 2.57862 -1.41013 0
M  V30 18878 H 1728.4 1.37385 -0.86598 0
M  V30 18879 H 1730.4 4.13923 0.497322 0
M  V30 18880 H 1729.06 3.08362 1.01701 0
M  V30 18881 H 1730.07 4.61644 -2.34746 0
M  V30 18882 H 1726.75 4.17047 0.194381 0
M  V30 18883 H 1728.14 5.70898 -3.54296 0
M  V30 18884 N 1730.86 0.776895 1.37121 0
M  V30 18885 C 1732.08 0.353911 2.04358 0
M  V30 18886 C 1732.51 -1.01745 1.58207 0
M  V30 18887 O 1731.86 -1.653 0.744691 0
M  V30 18888 C 1731.91 0.411918 3.5824 0
M  V30 18889 O 1731.02 -0.58576 4.08219 0
M  V30 18890 H 1730.36 0.152335 0.64629 0
M  V30 18891 H 1732.89 1.05452 1.75331 0
M  V30 18892 H 1732.9 0.271043 4.07099 0
M  V30 18893 H 1731.57 1.41236 3.91185 0
M  V30 18894 H 1730.15 -0.40758 3.70666 0
M  V30 18895 N 1732.33 -1.48497 0.527859 0
M  V30 18896 C 1733.27 -2.27566 -0.273157 0
M  V30 18897 C 1734.28 -1.35235 -0.906381 0
M  V30 18898 O 1735.47 -1.60303 -0.785182 0
M  V30 18899 C 1732.57 -3.08546 -1.40187 0
M  V30 18900 C 1731.74 -4.28641 -0.870962 0
M  V30 18901 C 1730.8 -4.91449 -1.88054 0
M  V30 18902 O 1729.83 -5.50727 -1.43833 0
M  V30 18903 N 1731.03 -4.83501 -3.21259 0
M  V30 18904 H 1733.79 -2.96951 0.404963 0
M  V30 18905 H 1731.35 -1.578 0.362057 0
M  V30 18906 H 1733.35 -3.47434 -2.07537 0
M  V30 18907 H 1731.92 -2.41596 -1.98369 0
M  V30 18908 H 1731.14 -3.94194 -0.0215331 0
M  V30 18909 H 1732.42 -5.06385 -0.495105 0
M  V30 18910 H 1731.82 -4.36487 -3.59855 0
M  V30 18911 H 1730.38 -5.26495 -3.84248 0
M  V30 18912 N 1733.81 -0.262893 -1.55392 0
M  V30 18913 C 1734.72 0.640223 -2.25695 0
M  V30 18914 C 1735.74 1.18019 -1.27857 0
M  V30 18915 O 1736.91 1.21308 -1.60768 0
M  V30 18916 C 1733.98 1.81336 -2.95497 0
M  V30 18917 C 1733.04 1.31128 -4.08784 0
M  V30 18918 C 1732.27 2.4285 -4.75247 0
M  V30 18919 O 1732.5 3.61939 -4.40859 0
M  V30 18920 O 1731.43 2.11699 -5.63442 0
M  V30 18921 H 1735.26 0.0710781 -3.03617 0
M  V30 18922 H 1732.84 -0.030765 -1.49368 0
M  V30 18923 H 1734.72 2.49764 -3.39406 0
M  V30 18924 H 1733.4 2.36982 -2.20502 0
M  V30 18925 H 1732.3 0.593816 -3.69357 0
M  V30 18926 H 1733.64 0.800711 -4.85643 0
M  V30 18927 N 1735.29 1.57597 0.0100073 0
M  V30 18928 C 1736.22 2.10825 1.00375 0
M  V30 18929 C 1737.2 1.01507 1.36493 0
M  V30 18930 O 1738.39 1.29136 1.45043 0
M  V30 18931 C 1735.52 2.60334 2.29878 0
M  V30 18932 C 1734.47 3.74087 2.07949 0
M  V30 18933 C 1733.8 4.09873 3.43378 0
M  V30 18934 C 1735.1 5.01764 1.45018 0
M  V30 18935 H 1736.79 2.94105 0.560591 0
M  V30 18936 H 1734.34 1.4148 0.268208 0
M  V30 18937 H 1736.29 2.96196 2.99743 0
M  V30 18938 H 1735.01 1.74162 2.76288 0
M  V30 18939 H 1733.67 3.38603 1.40512 0
M  V30 18940 H 1733.32 3.20739 3.87473 0
M  V30 18941 H 1733.02 4.86505 3.29525 0
M  V30 18942 H 1734.54 4.48285 4.14575 0
M  V30 18943 H 1735.96 5.35462 2.04826 0
M  V30 18944 H 1734.35 5.83135 1.41683 0
M  V30 18945 H 1735.42 4.83093 0.41819 0
M  V30 18946 N 1736.77 -0.282606 1.55045 0
M  V30 18947 C 1737.71 -1.34908 1.87266 0
M  V30 18948 C 1738.68 -1.49528 0.72323 0
M  V30 18949 O 1739.87 -1.6409 0.973602 0
M  V30 18950 C 1737.01 -2.70603 2.14168 0
M  V30 18951 C 1736.12 -2.64284 3.41728 0
M  V30 18952 C 1735.26 -3.92094 3.58379 0
M  V30 18953 C 1734.3 -3.80246 4.79666 0
M  V30 18954 N 1733.43 -4.99871 4.93025 0
M  V30 18955 H 1738.27 -1.06731 2.78231 0
M  V30 18956 H 1735.81 -0.515845 1.37759 0
M  V30 18957 H 1737.77 -3.49542 2.27763 0
M  V30 18958 H 1736.4 -2.97003 1.26448 0
M  V30 18959 H 1735.45 -1.77108 3.36656 0
M  V30 18960 H 1736.76 -2.51425 4.30798 0
M  V30 18961 H 1735.92 -4.79473 3.7174 0
M  V30 18962 H 1734.66 -4.07808 2.67476 0
M  V30 18963 H 1733.66 -2.91251 4.66319 0
M  V30 18964 H 1734.89 -3.6606 5.71994 0
M  V30 18965 H 1732.83 -5.16014 4.0505 0
M  V30 18966 H 1732.75 -4.89507 5.76124 0
M  V30 18967 H 1734.02 -5.88849 5.10761 0
M  V30 18968 N 1738.25 -1.47815 -0.546675 0
M  V30 18969 C 1739.16 -1.63744 -1.68003 0
M  V30 18970 C 1740.17 -0.520118 -1.66044 0
M  V30 18971 O 1741.35 -0.789033 -1.853 0
M  V30 18972 C 1738.41 -1.65778 -3.04497 0
M  V30 18973 C 1737.47 -2.89015 -3.17441 0
M  V30 18974 C 1736.71 -2.90943 -4.47424 0
M  V30 18975 O 1736.93 -2.01769 -5.33522 0
M  V30 18976 O 1735.86 -3.82927 -4.64382 0
M  V30 18977 H 1739.69 -2.59665 -1.57505 0
M  V30 18978 H 1737.27 -1.31022 -0.717883 0
M  V30 18979 H 1739.16 -1.69734 -3.85705 0
M  V30 18980 H 1737.83 -0.730268 -3.15355 0
M  V30 18981 H 1736.74 -2.90599 -2.35591 0
M  V30 18982 H 1738.07 -3.81095 -3.11492 0
M  V30 18983 N 1739.72 0.794246 -1.36123 0
M  V30 18984 C 1740.97 1.55357 -1.31285 0
M  V30 18985 C 1741.32 1.92094 0.108426 0
M  V30 18986 O 1740.62 1.59486 1.06182 0
M  V30 18987 C 1740.81 2.84387 -2.16469 0
M  V30 18988 C 1740.64 2.60259 -3.66736 0
M  V30 18989 C 1739.41 2.55525 -4.3593 0
M  V30 18990 C 1741.61 2.29787 -4.60111 0
M  V30 18991 N 1739.59 2.23243 -5.7187 0
M  V30 18992 C 1740.96 2.07452 -5.84263 0
M  V30 18993 C 1743.02 2.15753 -4.48726 0
M  V30 18994 C 1741.72 1.72503 -6.98309 0
M  V30 18995 C 1743.75 1.82202 -5.62633 0
M  V30 18996 C 1743.11 1.60711 -6.85822 0
M  V30 18997 H 1739.21 0.569714 -0.535677 0
M  V30 18998 H 1741.79 0.928621 -1.71128 0
M  V30 18999 H 1739.96 3.44757 -1.78878 0
M  V30 19000 H 1741.69 3.50072 -2.03056 0
M  V30 19001 H 1738.45 2.70603 -3.88678 0
M  V30 19002 H 1738.87 2.09862 -6.43651 0
M  V30 19003 H 1743.51 2.31061 -3.54077 0
M  V30 19004 H 1741.23 1.55933 -7.92913 0
M  V30 19005 H 1744.82 1.72034 -5.55784 0
M  V30 19006 H 1743.7 1.35131 -7.7247 0
M  V30 19007 N 1741.2 1.20323 1.01785 0
M  V30 19008 C 1742.62 0.957818 1.27664 0
M  V30 19009 C 1742.82 -0.363377 1.98196 0
M  V30 19010 O 1741.87 -1.09221 2.27656 0
M  V30 19011 C 1743.19 2.13957 2.11289 0
M  V30 19012 C 1744.73 2.18041 2.2456 0
M  V30 19013 C 1745.21 3.35698 3.11562 0
M  V30 19014 N 1746.7 3.35704 3.1915 0
M  V30 19015 C 1747.44 4.2339 3.86689 0
M  V30 19016 N 1746.93 5.21251 4.56366 0
M  V30 19017 N 1748.72 4.11235 3.832 0
M  V30 19018 H 1740.88 2.05309 0.544242 0
M  V30 19019 H 1743.14 0.898335 0.302817 0
M  V30 19020 H 1742.84 3.09631 1.66798 0
M  V30 19021 H 1742.72 2.11946 3.12024 0
M  V30 19022 H 1745.11 1.22931 2.68276 0
M  V30 19023 H 1745.19 2.24101 1.23338 0
M  V30 19024 H 1744.83 4.31095 2.68551 0
M  V30 19025 H 1744.76 3.26876 4.12868 0
M  V30 19026 H 1747.25 2.64874 2.69537 0
M  V30 19027 H 1747.56 5.84485 5.05566 0
M  V30 19028 H 1745.91 5.25189 4.55195 0
M  V30 19029 H 1749.1 3.34052 3.27913 0
M  V30 19030 H 1749.27 4.79782 4.35561 0
M  V30 19031 N 1742.68 -1.21073 1.00892 0
M  V30 19032 C 1743.59 -2.27265 0.582065 0
M  V30 19033 C 1744.61 -1.69872 -0.376785 0
M  V30 19034 O 1745.78 -1.99969 -0.239644 0
M  V30 19035 C 1742.85 -3.46606 -0.0806764 0
M  V30 19036 C 1741.91 -4.19257 0.923147 0
M  V30 19037 C 1741.14 -5.32901 0.291938 0
M  V30 19038 O 1741.36 -5.6309 -0.910282 0
M  V30 19039 O 1740.3 -5.93453 1.00483 0
M  V30 19040 H 1744.12 -2.65977 1.46594 0
M  V30 19041 H 1741.71 -1.27544 0.777999 0
M  V30 19042 H 1743.59 -4.18978 -0.451177 0
M  V30 19043 H 1742.27 -3.09785 -0.93887 0
M  V30 19044 H 1741.17 -3.4909 1.34488 0
M  V30 19045 H 1742.51 -4.59999 1.75106 0
M  V30 19046 N 1744.16 -0.784156 -1.36707 0
M  V30 19047 C 1745.11 -0.177044 -2.3012 0
M  V30 19048 C 1746.08 0.6761 -1.51717 0
M  V30 19049 O 1747.26 0.625878 -1.80243 0
M  V30 19050 C 1744.4 0.686337 -3.38206 0
M  V30 19051 C 1743.51 -0.184772 -4.31605 0
M  V30 19052 C 1742.65 0.684485 -5.26772 0
M  V30 19053 C 1741.69 -0.188402 -6.1181 0
M  V30 19054 N 1740.82 0.639537 -6.99181 0
M  V30 19055 H 1745.66 -0.979125 -2.81455 0
M  V30 19056 H 1743.2 -0.494419 -1.38542 0
M  V30 19057 H 1745.16 1.20185 -3.99514 0
M  V30 19058 H 1743.79 1.4539 -2.88204 0
M  V30 19059 H 1742.84 -0.818204 -3.71496 0
M  V30 19060 H 1744.15 -0.857567 -4.91373 0
M  V30 19061 H 1743.31 1.26601 -5.93344 0
M  V30 19062 H 1742.05 1.39092 -4.67445 0
M  V30 19063 H 1741.05 -0.782364 -5.44205 0
M  V30 19064 H 1742.28 -0.89236 -6.73212 0
M  V30 19065 H 1740.22 1.33036 -6.42369 0
M  V30 19066 H 1740.14 0.0243097 -7.55996 0
M  V30 19067 H 1741.41 1.20505 -7.70129 0
M  V30 19068 N 1745.64 1.48215 -0.535727 0
M  V30 19069 C 1746.57 2.3253 0.212562 0
M  V30 19070 C 1747.55 1.42454 0.929568 0
M  V30 19071 O 1748.73 1.71334 0.914228 0
M  V30 19072 C 1745.86 3.23777 1.25641 0
M  V30 19073 C 1744.82 4.22924 0.657191 0
M  V30 19074 C 1744.14 5.03345 1.80411 0
M  V30 19075 C 1745.44 5.20953 -0.374902 0
M  V30 19076 H 1747.14 2.95341 -0.491301 0
M  V30 19077 H 1744.68 1.42024 -0.237718 0
M  V30 19078 H 1746.64 3.81592 1.78789 0
M  V30 19079 H 1745.36 2.58978 1.98993 0
M  V30 19080 H 1744.02 3.66304 0.147184 0
M  V30 19081 H 1743.67 4.34965 2.52615 0
M  V30 19082 H 1743.37 5.70455 1.40906 0
M  V30 19083 H 1744.89 5.64013 2.33926 0
M  V30 19084 H 1746.3 5.73258 0.0697072 0
M  V30 19085 H 1744.7 5.96147 -0.687646 0
M  V30 19086 H 1745.77 4.67739 -1.27861 0
M  V30 19087 N 1747.11 0.27113 1.5525 0
M  V30 19088 C 1748.53 -0.0831186 1.59383 0
M  V30 19089 C 1748.73 -1.54931 1.28835 0
M  V30 19090 O 1747.79 -2.29756 1.0473 0
M  V30 19091 C 1749.1 0.287921 2.99318 0
M  V30 19092 C 1750.65 0.234209 3.12123 0
M  V30 19093 C 1751.12 0.57963 4.54317 0
M  V30 19094 N 1752.61 0.531033 4.60146 0
M  V30 19095 C 1753.35 0.771156 5.68191 0
M  V30 19096 N 1752.84 1.07569 6.84398 0
M  V30 19097 N 1754.64 0.700223 5.57722 0
M  V30 19098 H 1746.79 1.22702 1.73373 0
M  V30 19099 H 1749.05 0.495424 0.808244 0
M  V30 19100 H 1748.76 1.30746 3.26494 0
M  V30 19101 H 1748.63 -0.373205 3.75349 0
M  V30 19102 H 1751.02 -0.776035 2.84713 0
M  V30 19103 H 1751.1 0.929535 2.38313 0
M  V30 19104 H 1750.74 1.58754 4.82452 0
M  V30 19105 H 1750.67 -0.137442 5.26421 0
M  V30 19106 H 1753.16 0.305377 3.76664 0
M  V30 19107 H 1753.48 1.24568 7.62694 0
M  V30 19108 H 1751.82 1.11342 6.86023 0
M  V30 19109 H 1755.01 0.462183 4.65813 0
M  V30 19110 H 1755.19 0.890744 6.41849 0
M  V30 19111 N 1748.59 -1.576 -0.00164943 0
M  V30 19112 C 1750 -1.78578 -0.544681 0
M  V30 19113 C 1750.35 -0.905575 -1.74051 0
M  V30 19114 O 1749.48 -0.107614 -2.16132 0
M  V30 19115 C 1750.07 -3.23863 -0.994898 0
M  V30 19116 C 1748.63 -3.45943 -1.48325 0
M  V30 19117 C 1747.78 -2.73887 -0.433702 0
M  V30 19118 H 1750.73 -1.57104 0.224524 0
M  V30 19119 H 1750.75 -3.31885 -1.86099 0
M  V30 19120 H 1750.26 -3.87901 -0.124352 0
M  V30 19121 H 1748.37 -2.87118 -2.37474 0
M  V30 19122 H 1748.48 -4.54621 -1.51185 0
M  V30 19123 H 1746.84 -2.38458 -0.894969 0
M  V30 19124 H 1747.63 -3.40623 0.42785 0
M  V30 19125 N 1750.07 0.274379 -1.55193 0
M  V30 19126 C 1751.49 0.621497 -1.47002 0
M  V30 19127 C 1751.69 1.89572 -0.682995 0
M  V30 19128 O 1750.74 2.51696 -0.201296 0
M  V30 19129 C 1752.06 0.749741 -2.91203 0
M  V30 19130 C 1753.6 0.843886 -3.01409 0
M  V30 19131 C 1754.08 1.00392 -4.46862 0
M  V30 19132 N 1755.57 1.06947 -4.50684 0
M  V30 19133 C 1756.3 1.21207 -5.60443 0
M  V30 19134 N 1755.8 1.32195 -6.80071 0
M  V30 19135 N 1757.59 1.24307 -5.48183 0
M  V30 19136 H 1749.74 -0.562462 -2.04817 0
M  V30 19137 H 1752.01 -0.190205 -0.928723 0
M  V30 19138 H 1751.71 -0.116074 -3.51508 0
M  V30 19139 H 1751.59 1.63046 -3.40141 0
M  V30 19140 H 1753.97 1.70017 -2.41202 0
M  V30 19141 H 1754.06 -0.061411 -2.55726 0
M  V30 19142 H 1753.7 0.152298 -5.07672 0
M  V30 19143 H 1753.63 1.92384 -4.902 0
M  V30 19144 H 1756.12 0.997012 -3.64511 0
M  V30 19145 H 1756.43 1.42906 -7.59472 0
M  V30 19146 H 1754.78 1.29202 -6.82885 0
M  V30 19147 H 1757.97 1.15352 -4.53665 0
M  V30 19148 H 1758.14 1.35076 -6.33765 0
M  V30 19149 N 1751.55 1.48103 0.538828 0
M  V30 19150 C 1752.5 1.61966 1.64425 0
M  V30 19151 C 1753.47 0.461999 1.59546 0
M  V30 19152 O 1754.65 0.684377 1.78104 0
M  V30 19153 C 1751.79 1.65711 3.02711 0
M  V30 19154 C 1750.9 2.92522 3.17891 0
M  V30 19155 C 1750.04 2.87485 4.46683 0
M  V30 19156 C 1749.08 4.0904 4.5536 0
M  V30 19157 N 1748.21 4.02131 5.7553 0
M  V30 19158 H 1753.05 2.5637 1.51916 0
M  V30 19159 H 1750.59 1.27146 0.739745 0
M  V30 19160 H 1752.55 1.65864 3.82812 0
M  V30 19161 H 1751.18 0.748045 3.14013 0
M  V30 19162 H 1750.23 3.02154 2.311 0
M  V30 19163 H 1751.54 3.82487 3.20165 0
M  V30 19164 H 1750.7 2.8599 5.35065 0
M  V30 19165 H 1749.44 1.95234 4.46917 0
M  V30 19166 H 1748.44 4.10819 3.65387 0
M  V30 19167 H 1749.67 5.02439 4.56872 0
M  V30 19168 H 1747.61 3.12695 5.76678 0
M  V30 19169 H 1747.53 4.85791 5.7926 0
M  V30 19170 H 1748.8 4.04682 6.66223 0
M  V30 19171 N 1753.03 -0.787016 1.36542 0
M  V30 19172 C 1753.97 -1.89975 1.31065 0
M  V30 19173 C 1754.94 -1.65134 0.178905 0
M  V30 19174 O 1756.13 -1.8726 0.36581 0
M  V30 19175 C 1753.27 -3.26822 1.10821 0
M  V30 19176 C 1752.38 -3.6372 2.33091 0
M  V30 19177 C 1751.52 -4.89697 2.0584 0
M  V30 19178 C 1750.56 -5.1928 3.24059 0
M  V30 19179 N 1749.69 -6.36441 2.96457 0
M  V30 19180 H 1754.53 -1.93993 2.2621 0
M  V30 19181 H 1752.07 -0.948631 1.12425 0
M  V30 19182 H 1754.03 -4.05741 0.971091 0
M  V30 19183 H 1752.66 -3.22221 0.193302 0
M  V30 19184 H 1751.71 -2.79906 2.57598 0
M  V30 19185 H 1753.02 -3.81529 3.21305 0
M  V30 19186 H 1752.18 -5.76486 1.89072 0
M  V30 19187 H 1750.91 -4.73962 1.14941 0
M  V30 19188 H 1749.92 -4.30973 3.41383 0
M  V30 19189 H 1751.14 -5.36934 4.15787 0
M  V30 19190 H 1749.09 -6.22093 2.08172 0
M  V30 19191 H 1749.01 -6.54594 3.78209 0
M  V30 19192 H 1750.28 -7.26207 2.83273 0
M  V30 19193 N 1754.5 -1.20861 -1.01145 0
M  V30 19194 C 1755.73 -1.04769 -1.78413 0
M  V30 19195 C 1756.15 0.402846 -1.84452 0
M  V30 19196 O 1755.5 1.27962 -1.30123 0
M  V30 19197 C 1755.56 -1.63065 -3.22633 0
M  V30 19198 O 1755.28 -3.02443 -3.16954 0
M  V30 19199 C 1756.78 -1.51996 -4.16428 0
M  V30 19200 H 1754 -0.368271 -0.560908 0
M  V30 19201 H 1756.54 -1.6006 -1.27283 0
M  V30 19202 H 1754.7 -1.11882 -3.70892 0
M  V30 19203 H 1755.11 -3.30199 -4.07515 0
M  V30 19204 H 1756.58 -1.97539 -5.15444 0
M  V30 19205 H 1757.06 -0.473305 -4.36642 0
M  V30 19206 H 1757.67 -2.02396 -3.74054 0
M  V30 19207 N 1755.98 1.20536 -1.01532 0
M  V30 19208 C 1756.91 2.2553 -0.604866 0
M  V30 19209 C 1757.89 1.65814 0.379452 0
M  V30 19210 O 1759.08 1.92381 0.265162 0
M  V30 19211 C 1756.21 3.4725 0.0589292 0
M  V30 19212 C 1755.16 4.19551 -0.846241 0
M  V30 19213 C 1754.49 5.34678 -0.0482901 0
M  V30 19214 C 1755.79 4.75829 -2.1537 0
M  V30 19215 H 1757.48 2.60117 -1.48254 0
M  V30 19216 H 1755.03 1.25035 -0.714297 0
M  V30 19217 H 1756.98 4.1988 0.357627 0
M  V30 19218 H 1755.71 3.11822 0.97131 0
M  V30 19219 H 1754.36 3.48785 -1.12892 0
M  V30 19220 H 1754.01 4.95494 0.8657 0
M  V30 19221 H 1753.71 5.83982 -0.651081 0
M  V30 19222 H 1755.24 6.10112 0.243983 0
M  V30 19223 H 1756.65 5.40284 -1.91745 0
M  V30 19224 H 1755.05 5.35564 -2.70723 0
M  V30 19225 H 1756.12 3.94641 -2.81756 0
M  V30 19226 N 1757.46 0.791395 1.36289 0
M  V30 19227 C 1758.37 0.192362 2.3381 0
M  V30 19228 C 1759.39 -0.656556 1.61138 0
M  V30 19229 O 1760.56 -0.571877 1.9311 0
M  V30 19230 C 1757.63 -0.661283 3.40335 0
M  V30 19231 C 1756.69 0.206361 4.28804 0
M  V30 19232 C 1755.92 -0.606636 5.30241 0
M  V30 19233 O 1756.14 -1.84247 5.39823 0
M  V30 19234 O 1755.08 -0.00549116 6.019 0
M  V30 19235 H 1758.9 0.998723 2.86809 0
M  V30 19236 H 1756.49 0.552889 1.38793 0
M  V30 19237 H 1758.37 -1.148 4.05461 0
M  V30 19238 H 1757.05 -1.4455 2.89632 0
M  V30 19239 H 1755.95 0.739877 3.66711 0
M  V30 19240 H 1757.29 0.954142 4.82863 0
M  V30 19241 N 1758.94 -1.47929 0.54358 0
M  V30 19242 C 1759.85 -2.33611 -0.215191 0
M  V30 19243 C 1760.87 -1.47343 -0.925526 0
M  V30 19244 O 1762.04 -1.80299 -0.897459 0
M  V30 19245 C 1759.11 -3.23755 -1.24031 0
M  V30 19246 C 1758.17 -4.25904 -0.538874 0
M  V30 19247 C 1757.4 -5.11741 -1.51516 0
M  V30 19248 O 1757.62 -4.9979 -2.74893 0
M  V30 19249 O 1756.56 -5.92722 -1.0471 0
M  V30 19250 H 1760.38 -2.99765 0.487279 0
M  V30 19251 H 1757.97 -1.46267 0.30434 0
M  V30 19252 H 1759.85 -3.79475 -1.8324 0
M  V30 19253 H 1758.53 -2.60245 -1.92495 0
M  V30 19254 H 1757.43 -3.73982 0.0940539 0
M  V30 19255 H 1758.77 -4.9209 0.104063 0
M  V30 19256 N 1760.42 -0.27936 -1.55104 0
M  V30 19257 C 1761.33 0.616249 -2.26361 0
M  V30 19258 C 1762.34 1.16656 -1.29102 0
M  V30 19259 O 1763.52 1.19596 -1.62046 0
M  V30 19260 C 1760.58 1.78191 -2.97403 0
M  V30 19261 C 1759.65 1.26785 -4.10151 0
M  V30 19262 C 1758.88 2.37795 -4.77796 0
M  V30 19263 O 1759.1 3.57242 -4.44673 0
M  V30 19264 O 1758.04 2.05711 -5.65656 0
M  V30 19265 H 1761.86 0.0388715 -3.03675 0
M  V30 19266 H 1759.45 -0.0466058 -1.49327 0
M  V30 19267 H 1761.33 2.4615 -3.42036 0
M  V30 19268 H 1760 2.3463 -2.23003 0
M  V30 19269 H 1758.91 0.554608 -3.69966 0
M  V30 19270 H 1760.24 0.749157 -4.86465 0
M  V30 19271 N 1761.9 1.57599 -0.0067085 0
M  V30 19272 C 1763.14 1.90858 0.67673 0
M  V30 19273 C 1763.47 0.880956 1.73405 0
M  V30 19274 O 1762.73 -0.113339 1.95372 0
M  V30 19275 C 1763.02 3.30868 1.35133 0
M  V30 19276 C 1762.69 4.48878 0.426559 0
M  V30 19277 C 1761.35 4.80893 0.17196 0
M  V30 19278 C 1763.7 5.20778 -0.209761 0
M  V30 19279 C 1761.03 5.82177 -0.727139 0
M  V30 19280 C 1763.38 6.2302 -1.09678 0
M  V30 19281 C 1762.05 6.53488 -1.36049 0
M  V30 19282 H 1761.32 0.698397 0.247633 0
M  V30 19283 H 1763.97 1.91394 -0.0636748 0
M  V30 19284 H 1762.27 3.26487 2.16594 0
M  V30 19285 H 1763.97 3.53864 1.8863 0
M  V30 19286 H 1760.56 4.23867 0.635166 0
M  V30 19287 H 1764.74 4.96293 -0.0260888 0
M  V30 19288 H 1760 6.0414 -0.939389 0
M  V30 19289 H 1764.17 6.77861 -1.59616 0
M  V30 19290 H 1761.8 7.31789 -2.05886 0
M  V30 19291 N 1763.37 -0.266145 1.55336 0
M  V30 19292 C 1764.34 -1.31242 1.87904 0
M  V30 19293 C 1765.34 -1.42022 0.754083 0
M  V30 19294 O 1766.53 -1.41054 1.02222 0
M  V30 19295 C 1763.66 -2.69285 2.09041 0
M  V30 19296 H 1764.85 -1.03592 2.81441 0
M  V30 19297 H 1762.4 -0.504537 1.47933 0
M  V30 19298 H 1763.14 -3.02106 1.17909 0
M  V30 19299 H 1762.92 -2.62846 2.90954 0
M  V30 19300 H 1764.41 -3.4487 2.35488 0
M  V30 19301 N 1764.85 -1.48386 -0.530967 0
M  V30 19302 C 1766.27 -1.34485 -0.859412 0
M  V30 19303 C 1766.47 -0.355124 -1.98346 0
M  V30 19304 O 1765.52 0.224012 -2.51504 0
M  V30 19305 C 1766.84 -2.74488 -1.22787 0
M  V30 19306 C 1768.38 -2.82969 -1.33781 0
M  V30 19307 C 1768.86 -4.23673 -1.7397 0
M  V30 19308 N 1770.35 -4.26341 -1.81074 0
M  V30 19309 C 1771.09 -5.32149 -2.13554 0
M  V30 19310 N 1770.58 -6.48235 -2.44464 0
M  V30 19311 N 1772.37 -5.19542 -2.14551 0
M  V30 19312 H 1764.53 -2.11352 0.210713 0
M  V30 19313 H 1766.79 -0.947472 0.0316283 0
M  V30 19314 H 1766.49 -3.4847 -0.475552 0
M  V30 19315 H 1766.37 -3.0795 -2.17823 0
M  V30 19316 H 1768.76 -2.09244 -2.08089 0
M  V30 19317 H 1768.84 -2.53129 -0.368677 0
M  V30 19318 H 1768.48 -4.97914 -1.00222 0
M  V30 19319 H 1768.41 -4.50956 -2.71931 0
M  V30 19320 H 1770.9 -3.42606 -1.59467 0
M  V30 19321 H 1771.21 -7.24712 -2.6835 0
M  V30 19322 H 1769.56 -6.51512 -2.41986 0
M  V30 19323 H 1772.75 -4.27868 -1.89859 0
M  V30 19324 H 1772.92 -6.02103 -2.39532 0
M  V30 19325 N 1766.33 0.779763 -1.36958 0
M  V30 19326 C 1767.28 1.89278 -1.32071 0
M  V30 19327 C 1768.25 1.65037 -0.18766 0
M  V30 19328 O 1769.43 1.87064 -0.375736 0
M  V30 19329 C 1766.57 3.2623 -1.12552 0
M  V30 19330 C 1765.68 3.62479 -2.35017 0
M  V30 19331 C 1764.82 4.88599 -2.08434 0
M  V30 19332 C 1763.86 5.17555 -3.26808 0
M  V30 19333 N 1763 6.3486 -2.99828 0
M  V30 19334 H 1767.84 1.9279 -2.27235 0
M  V30 19335 H 1765.37 0.942656 -1.12927 0
M  V30 19336 H 1767.33 4.0522 -0.992595 0
M  V30 19337 H 1765.96 3.22114 -0.210387 0
M  V30 19338 H 1765.01 2.78536 -2.59079 0
M  V30 19339 H 1766.32 3.7982 -3.23324 0
M  V30 19340 H 1765.48 5.75476 -1.92127 0
M  V30 19341 H 1764.22 4.73346 -1.17453 0
M  V30 19342 H 1763.22 4.29156 -3.43664 0
M  V30 19343 H 1764.45 5.34721 -4.18629 0
M  V30 19344 H 1762.39 6.20981 -2.11468 0
M  V30 19345 H 1762.31 6.52579 -3.81676 0
M  V30 19346 H 1763.58 7.24695 -2.8712 0
M  V30 19347 N 1767.81 1.21396 1.00503 0
M  V30 19348 C 1768.74 0.997268 2.11132 0
M  V30 19349 C 1769.72 -0.0777455 1.69922 0
M  V30 19350 O 1770.9 0.08208 1.94026 0
M  V30 19351 C 1768.03 0.561122 3.42737 0
M  V30 19352 C 1766.99 1.58069 3.97741 0
M  V30 19353 C 1766.31 1.00079 5.25251 0
M  V30 19354 C 1767.61 2.96754 4.29807 0
M  V30 19355 H 1769.31 1.92255 2.29518 0
M  V30 19356 H 1766.85 0.925776 1.10297 0
M  V30 19357 H 1768.81 0.396701 4.19529 0
M  V30 19358 H 1767.53 -0.399804 3.24144 0
M  V30 19359 H 1766.19 1.73268 3.23069 0
M  V30 19360 H 1765.84 0.0315797 5.0299 0
M  V30 19361 H 1765.54 1.68182 5.63017 0
M  V30 19362 H 1767.06 0.847687 6.04687 0
M  V30 19363 H 1768.48 2.85 4.97441 0
M  V30 19364 H 1766.87 3.61871 4.78717 0
M  V30 19365 H 1767.94 3.47602 3.38084 0
M  V30 19366 N 1769.29 -1.19996 1.0217 0
M  V30 19367 C 1770.22 -2.22392 0.55446 0
M  V30 19368 C 1771.23 -1.58636 -0.36586 0
M  V30 19369 O 1772.42 -1.77751 -0.163394 0
M  V30 19370 C 1769.52 -3.38235 -0.212234 0
M  V30 19371 C 1768.69 -4.31578 0.711253 0
M  V30 19372 C 1767.75 -5.26199 -0.00876314 0
M  V30 19373 O 1766.78 -5.65863 0.615435 0
M  V30 19374 N 1767.98 -5.66169 -1.28192 0
M  V30 19375 H 1770.74 -2.63107 1.43509 0
M  V30 19376 H 1768.31 -1.34589 0.899853 0
M  V30 19377 H 1770.3 -3.98542 -0.703282 0
M  V30 19378 H 1768.87 -2.96369 -0.994205 0
M  V30 19379 H 1768.09 -3.69161 1.38252 0
M  V30 19380 H 1769.38 -4.90861 1.33915 0
M  V30 19381 H 1768.77 -5.35966 -1.8099 0
M  V30 19382 H 1767.33 -6.28762 -1.7176 0
M  V30 19383 N 1770.76 -0.798611 -1.35867 0
M  V30 19384 C 1771.67 -0.204758 -2.33705 0
M  V30 19385 C 1772.69 0.648001 -1.61484 0
M  V30 19386 O 1773.87 0.561628 -1.93411 0
M  V30 19387 C 1770.93 0.643225 -3.40681 0
M  V30 19388 C 1769.99 -0.229099 -4.28688 0
M  V30 19389 C 1769.22 0.578508 -5.30555 0
M  V30 19390 O 1769.45 1.81382 -5.40793 0
M  V30 19391 O 1768.38 -0.0264291 -6.01894 0
M  V30 19392 H 1772.21 -1.01392 -2.86275 0
M  V30 19393 H 1769.79 -0.560242 -1.38498 0
M  V30 19394 H 1771.67 1.12648 -4.06065 0
M  V30 19395 H 1770.35 1.43012 -2.90395 0
M  V30 19396 H 1769.26 -0.759314 -3.66313 0
M  V30 19397 H 1770.59 -0.979736 -4.82351 0
M  V30 19398 N 1772.24 1.47639 -0.551417 0
M  V30 19399 C 1773.17 2.27972 0.236919 0
M  V30 19400 C 1774.19 1.3666 0.884752 0
M  V30 19401 O 1775.38 1.61532 0.75958 0
M  V30 19402 C 1772.48 3.10738 1.3526 0
M  V30 19403 C 1771.65 4.29972 0.802659 0
M  V30 19404 C 1770.71 4.94379 1.80212 0
M  V30 19405 O 1769.73 5.52946 1.35053 0
M  V30 19406 N 1770.94 4.8855 3.13526 0
M  V30 19407 H 1773.7 2.9627 -0.452154 0
M  V30 19408 H 1771.26 1.57204 -0.387116 0
M  V30 19409 H 1773.25 3.50692 2.01983 0
M  V30 19410 H 1771.82 2.44721 1.945 0
M  V30 19411 H 1771.04 3.94178 -0.0411825 0
M  V30 19412 H 1772.33 5.07109 0.41448 0
M  V30 19413 H 1771.73 4.42157 3.52865 0
M  V30 19414 H 1770.29 5.32541 3.75823 0
M  V30 19415 N 1773.72 0.287581 1.54954 0
M  V30 19416 C 1774.63 -0.604236 2.26685 0
M  V30 19417 C 1775.65 -1.1597 1.29719 0
M  V30 19418 O 1776.82 -1.18735 1.62678 0
M  V30 19419 C 1773.89 -1.76612 2.98344 0
M  V30 19420 C 1772.95 -1.24608 4.10818 0
M  V30 19421 C 1772.18 -2.35258 4.7905 0
M  V30 19422 O 1772.4 -3.54879 4.46561 0
M  V30 19423 O 1771.34 -2.02709 5.66739 0
M  V30 19424 H 1775.16 -0.0227663 3.03691 0
M  V30 19425 H 1772.75 0.0545243 1.493 0
M  V30 19426 H 1774.63 -2.44332 3.43336 0
M  V30 19427 H 1773.31 -2.33444 2.24244 0
M  V30 19428 H 1772.21 -0.53498 3.70255 0
M  V30 19429 H 1773.55 -0.723348 4.86856 0
M  V30 19430 N 1775.2 -1.57593 0.0150662 0
M  V30 19431 C 1776.44 -1.91497 -0.667587 0
M  V30 19432 C 1776.78 -0.890493 -1.7258 0
M  V30 19433 O 1776.05 0.0887462 -1.94297 0
M  V30 19434 C 1776.34 -3.35934 -1.29694 0
M  V30 19435 C 1776.19 -4.49109 -0.249242 0
M  V30 19436 C 1777.51 -3.80068 -2.21893 0
M  V30 19437 H 1774.63 -0.696408 -0.241217 0
M  V30 19438 H 1777.27 -1.89873 0.0694484 0
M  V30 19439 H 1775.42 -3.37448 -1.92512 0
M  V30 19440 H 1777.09 -4.59729 0.380417 0
M  V30 19441 H 1775.33 -4.31695 0.426861 0
M  V30 19442 H 1776 -5.47166 -0.728934 0
M  V30 19443 H 1778.48 -3.80201 -1.69076 0
M  V30 19444 H 1777.36 -4.81852 -2.62887 0
M  V30 19445 H 1777.62 -3.1478 -3.10429 0
M  V30 19446 N 1776.68 0.257904 -1.55475 0
M  V30 19447 C 1777.92 0.98747 -1.76792 0
M  V30 19448 C 1778.25 1.85732 -0.577411 0
M  V30 19449 O 1777.51 1.90698 0.439647 0
M  V30 19450 C 1777.81 1.8875 -3.03494 0
M  V30 19451 C 1777.47 1.17391 -4.35351 0
M  V30 19452 C 1776.13 0.976662 -4.71184 0
M  V30 19453 C 1778.49 0.667299 -5.16911 0
M  V30 19454 C 1775.81 0.260314 -5.86122 0
M  V30 19455 C 1778.17 -0.0355283 -6.3259 0
M  V30 19456 C 1776.83 -0.244359 -6.67053 0
M  V30 19457 H 1776.1 0.361341 -0.646926 0
M  V30 19458 H 1778.75 0.258469 -1.89748 0
M  V30 19459 H 1777.05 2.6832 -2.85502 0
M  V30 19460 H 1778.75 2.45348 -3.17184 0
M  V30 19461 H 1775.34 1.33758 -4.07194 0
M  V30 19462 H 1779.52 0.807271 -4.89691 0
M  V30 19463 H 1774.78 0.0879391 -6.11337 0
M  V30 19464 H 1778.95 -0.435775 -6.95035 0
M  V30 19465 H 1776.58 -0.801403 -7.55964 0
M  V30 19466 N 1778.15 1.48666 0.52309 0
M  V30 19467 C 1779.4 1.57034 1.27854 0
M  V30 19468 C 1779.73 0.247256 1.92922 0
M  V30 19469 O 1778.98 -0.763049 1.80211 0
M  V30 19470 C 1779.28 2.66247 2.38426 0
M  V30 19471 C 1778.95 4.08464 1.90965 0
M  V30 19472 C 1777.61 4.47171 1.77739 0
M  V30 19473 C 1779.96 4.97562 1.55184 0
M  V30 19474 C 1777.29 5.72772 1.27077 0
M  V30 19475 C 1779.64 6.23659 1.05982 0
M  V30 19476 C 1778.31 6.61216 0.913782 0
M  V30 19477 H 1777.58 0.574628 0.46785 0
M  V30 19478 H 1780.22 1.82411 0.582961 0
M  V30 19479 H 1778.53 2.34756 3.13682 0
M  V30 19480 H 1780.23 2.69936 2.9654 0
M  V30 19481 H 1776.82 3.779 2.02212 0
M  V30 19482 H 1781 4.6833 1.64259 0
M  V30 19483 H 1776.26 6.0059 1.14464 0
M  V30 19484 H 1780.43 6.92089 0.773684 0
M  V30 19485 H 1778.06 7.58426 0.519021 0
M  V30 19486 N 1779.63 -0.772489 1.37369 0
M  V30 19487 C 1780.58 -1.88575 1.33073 0
M  V30 19488 C 1781.55 -1.64935 0.19641 0
M  V30 19489 O 1782.73 -1.86862 0.385651 0
M  V30 19490 C 1779.87 -3.25628 1.14281 0
M  V30 19491 C 1778.99 -3.61227 2.36936 0
M  V30 19492 C 1778.12 -4.87486 2.11023 0
M  V30 19493 C 1777.16 -5.15814 3.29548 0
M  V30 19494 N 1776.3 -6.33261 3.03191 0
M  V30 19495 H 1781.14 -1.91583 2.28255 0
M  V30 19496 H 1778.68 -0.936654 1.13425 0
M  V30 19497 H 1780.63 -4.04688 1.01407 0
M  V30 19498 H 1779.26 -3.21998 0.227467 0
M  V30 19499 H 1778.32 -2.77158 2.60552 0
M  V30 19500 H 1779.63 -3.781 3.25333 0
M  V30 19501 H 1778.78 -5.74449 1.95176 0
M  V30 19502 H 1777.52 -4.72716 1.19962 0
M  V30 19503 H 1776.53 -4.27328 3.45935 0
M  V30 19504 H 1777.75 -5.32493 4.21459 0
M  V30 19505 H 1775.7 -6.19851 2.14759 0
M  V30 19506 H 1775.61 -6.50546 3.85131 0
M  V30 19507 H 1776.88 -7.23162 2.9096 0
M  V30 19508 N 1781.11 -1.21927 -0.998575 0
M  V30 19509 C 1782.04 -0.927553 -2.08499 0
M  V30 19510 C 1783.02 0.127378 -1.621 0
M  V30 19511 O 1784.21 -0.00298127 -1.885 0
M  V30 19512 C 1781.33 -0.393968 -3.36401 0
M  V30 19513 C 1780.38 -1.4327 -4.01716 0
M  V30 19514 S 1781.21 -3.0041 -4.43299 0
M  V30 19515 C 1782.37 -2.48675 -5.74379 0
M  V30 19516 H 1782.6 -1.84755 -2.32923 0
M  V30 19517 H 1780.13 -1.04972 -1.13227 0
M  V30 19518 H 1782.09 -0.0926895 -4.10395 0
M  V30 19519 H 1780.75 0.504816 -3.10017 0
M  V30 19520 H 1779.95 -1.0091 -4.93795 0
M  V30 19521 H 1779.55 -1.68239 -3.34024 0
M  V30 19522 H 1781.84 -1.89562 -6.5044 0
M  V30 19523 H 1782.78 -3.39221 -6.21558 0
M  V30 19524 H 1783.19 -1.90158 -5.31507 0
M  V30 19525 N 1782.59 1.19452 -1.02805 0
M  V30 19526 C 1783.82 1.93075 -0.743624 0
M  V30 19527 C 1784.23 1.75446 0.697425 0
M  V30 19528 O 1783.59 1.07583 1.47418 0
M  V30 19529 C 1783.64 3.44855 -1.08431 0
M  V30 19530 O 1783.36 3.61916 -2.46877 0
M  V30 19531 C 1784.86 4.35601 -0.822571 0
M  V30 19532 H 1782.08 0.613327 -0.272159 0
M  V30 19533 H 1784.63 1.51617 -1.37232 0
M  V30 19534 H 1782.78 3.84149 -0.500812 0
M  V30 19535 H 1783.19 4.55785 -2.59538 0
M  V30 19536 H 1784.67 5.40706 -1.11092 0
M  V30 19537 H 1785.15 4.38527 0.243026 0
M  V30 19538 H 1785.75 4.01987 -1.38876 0
M  V30 19539 N 1784.07 0.805805 1.35442 0
M  V30 19540 C 1785.31 0.385046 1.98398 0
M  V30 19541 C 1785.64 -1.05114 1.64244 0
M  V30 19542 O 1784.91 -1.72711 0.924532 0
M  V30 19543 H 1783.49 0.139386 0.733881 0
M  V30 19544 H 1786.15 1.03147 1.65368 0
M  V30 19545 H 1785.24 0.490126 3.08227 0
M  V30 19546 N 1785.54 -1.47344 0.559239 0
M  V30 19547 C 1786.45 -2.33826 -0.190402 0
M  V30 19548 C 1787.47 -1.48317 -0.909846 0
M  V30 19549 O 1788.65 -1.8124 -0.878286 0
M  V30 19550 C 1785.71 -3.25052 -1.20591 0
M  V30 19551 C 1784.77 -4.26452 -0.493671 0
M  V30 19552 C 1784.01 -5.13319 -1.4608 0
M  V30 19553 O 1784.23 -5.02678 -2.69576 0
M  V30 19554 O 1783.16 -5.93799 -0.984178 0
M  V30 19555 H 1786.99 -2.99232 0.519046 0
M  V30 19556 H 1784.57 -1.45936 0.319836 0
M  V30 19557 H 1786.46 -3.81397 -1.79205 0
M  V30 19558 H 1785.13 -2.62272 -1.89724 0
M  V30 19559 H 1784.04 -3.73861 0.133714 0
M  V30 19560 H 1785.37 -4.91952 0.15625 0
M  V30 19561 N 1787.02 -0.295795 -1.54799 0
M  V30 19562 C 1788.25 0.32058 -2.04907 0
M  V30 19563 C 1788.67 1.47132 -1.17191 0
M  V30 19564 O 1788.03 1.80455 -0.174869 0
M  V30 19565 C 1788.08 0.759439 -3.52512 0
M  V30 19566 O 1787.18 1.86474 -3.67833 0
M  V30 19567 H 1786.52 0.0631128 -0.660994 0
M  V30 19568 H 1789.05 -0.436123 -1.99898 0
M  V30 19569 H 1789.06 1.04965 -3.94267 0
M  V30 19570 H 1787.74 -0.0823715 -4.15818 0
M  V30 19571 H 1786.32 1.57547 -3.37984 0
M  V30 19572 N 1788.5 1.57583 -0.0234236 0
M  V30 19573 C 1789.41 2.13328 0.976138 0
M  V30 19574 C 1790.43 1.08414 1.36097 0
M  V30 19575 O 1791.6 1.40441 1.44354 0
M  V30 19576 C 1788.67 2.64469 2.24181 0
M  V30 19577 C 1787.73 3.84076 1.91793 0
M  V30 19578 C 1786.96 4.32768 3.12326 0
M  V30 19579 O 1787.19 3.80663 4.24797 0
M  V30 19580 O 1786.12 5.24676 2.94956 0
M  V30 19581 H 1789.95 2.99001 0.532166 0
M  V30 19582 H 1787.53 1.48098 0.196838 0
M  V30 19583 H 1789.41 2.97456 2.98492 0
M  V30 19584 H 1788.09 1.81881 2.6777 0
M  V30 19585 H 1786.99 3.56023 1.14883 0
M  V30 19586 H 1788.33 4.67808 1.53024 0
M  V30 19587 N 1789.98 -0.249655 1.5561 0
M  V30 19588 C 1791.22 -0.985467 1.79075 0
M  V30 19589 C 1791.58 -1.82629 0.592503 0
M  V30 19590 O 1792.78 -2.59366 0.705869 0
M  V30 19591 C 1791.06 -1.82549 3.07263 0
M  V30 19592 S 1792.61 -2.62078 3.51939 0
M  V30 19593 H 1789.43 -0.331525 0.628977 0
M  V30 19594 H 1792.03 -0.253591 1.93848 0
M  V30 19595 H 1790.74 -1.19744 3.92542 0
M  V30 19596 H 1790.27 -2.60017 2.9522 0
M  V30 19597 H 1792.28 -3.84983 3.13054 0
M  V30 19598 N 1791.46 -1.48941 -0.515198 0
M  V30 19599 C 1792.39 -1.67466 -1.62719 0
M  V30 19600 C 1793.37 -0.523393 -1.61847 0
M  V30 19601 O 1794.55 -0.757631 -1.78812 0
M  V30 19602 C 1791.68 -1.72799 -3.0126 0
M  V30 19603 C 1790.64 -2.87574 -3.16994 0
M  V30 19604 C 1789.96 -2.78008 -4.56745 0
M  V30 19605 C 1791.26 -4.28693 -2.98362 0
M  V30 19606 H 1792.96 -2.60562 -1.47471 0
M  V30 19607 H 1790.5 -1.25391 -0.708027 0
M  V30 19608 H 1792.46 -1.84346 -3.78939 0
M  V30 19609 H 1791.18 -0.762918 -3.17564 0
M  V30 19610 H 1789.84 -2.75606 -2.41737 0
M  V30 19611 H 1789.49 -1.79438 -4.69905 0
M  V30 19612 H 1789.19 -3.55033 -4.68215 0
M  V30 19613 H 1790.71 -2.91543 -5.36503 0
M  V30 19614 H 1792.13 -4.41416 -3.65821 0
M  V30 19615 H 1790.52 -5.0683 -3.21315 0
M  V30 19616 H 1791.59 -4.44125 -1.9463 0
M  V30 19617 N 1792.94 0.765193 -1.37777 0
M  V30 19618 C 1793.88 1.90005 -1.34168 0
M  V30 19619 C 1794.88 1.6784 -0.229387 0
M  V30 19620 O 1796.08 1.7555 -0.39778 0
M  V30 19621 H 1792.46 0.624939 -0.418276 0
M  V30 19622 H 1794.43 1.90165 -2.29956 0
M  V30 19623 C 1793.18 3.27349 -1.17208 0
M  V30 19624 H 1792.5 3.44985 -2.02053 0
M  V30 19625 H 1793.94 4.07036 -1.18734 0
M  V30 19626 C 1792.4 3.3668 0.121835 0
M  V30 19627 O 1792.93 3.86258 1.10306 0
M  V30 19628 N 1791.14 2.90074 0.174753 0
M  V30 19629 H 1790.68 2.49918 -0.624397 0
M  V30 19630 H 1790.64 2.96697 1.0401 0
M  V30 19631 N 1794.41 1.22455 0.992094 0
M  V30 19632 C 1795.82 1.04629 1.54627 0
M  V30 19633 C 1796.18 -0.390011 1.92285 0
M  V30 19634 O 1795.3 -1.27511 1.74842 0
M  V30 19635 C 1795.9 1.89306 2.80978 0
M  V30 19636 C 1794.45 1.75775 3.32836 0
M  V30 19637 C 1793.6 1.85724 2.05917 0
M  V30 19638 H 1796.55 1.36288 0.813089 0
M  V30 19639 H 1796.57 1.41095 3.53373 0
M  V30 19640 H 1796.09 2.93836 2.53539 0
M  V30 19641 H 1794.19 0.739821 3.65181 0
M  V30 19642 H 1794.3 2.58491 4.03385 0
M  V30 19643 H 1792.66 1.29173 2.19514 0
M  V30 19644 H 1793.45 2.91787 1.80874 0
M  V30 19645 N 1795.89 -1.18905 1.03437 0
M  V30 19646 C 1797.12 -1.93219 0.753743 0
M  V30 19647 C 1797.54 -1.75299 -0.682055 0
M  V30 19648 O 1796.9 -1.05892 -1.47161 0
M  V30 19649 C 1796.95 -3.42864 1.117 0
M  V30 19650 O 1796.05 -4.11708 0.238816 0
M  V30 19651 H 1795.39 -0.603015 0.277973 0
M  V30 19652 H 1797.92 -1.50823 1.38252 0
M  V30 19653 H 1797.93 -3.9355 1.07623 0
M  V30 19654 H 1796.61 -3.55228 2.163 0
M  V30 19655 H 1795.18 -3.71359 0.338652 0
M  V30 19656 N 1797.37 -0.812977 -1.35013 0
M  V30 19657 C 1798.6 -0.409014 -2.02817 0
M  V30 19658 C 1799.01 0.982004 -1.61252 0
M  V30 19659 O 1798.37 1.63384 -0.813137 0
M  V30 19660 C 1798.42 -0.490117 -3.58162 0
M  V30 19661 O 1798.14 -1.8263 -3.98218 0
M  V30 19662 C 1799.64 -0.0797786 -4.43228 0
M  V30 19663 H 1796.86 -0.165356 -0.650306 0
M  V30 19664 H 1799.41 -1.09837 -1.72499 0
M  V30 19665 H 1797.56 0.151057 -3.87105 0
M  V30 19666 H 1797.98 -1.79356 -4.92881 0
M  V30 19667 H 1799.45 -0.18763 -5.51681 0
M  V30 19668 H 1799.93 0.975612 -4.28227 0
M  V30 19669 H 1800.53 -0.694359 -4.19594 0
M  V30 19670 N 1798.85 1.47045 -0.567045 0
M  V30 19671 C 1799.78 2.28211 0.212726 0
M  V30 19672 C 1800.79 1.37591 0.870207 0
M  V30 19673 O 1801.98 1.62329 0.742404 0
M  V30 19674 C 1799.08 3.12155 1.31957 0
M  V30 19675 C 1798.25 4.30799 0.75701 0
M  V30 19676 C 1797.31 4.96262 1.74958 0
M  V30 19677 O 1796.34 5.54347 1.29181 0
M  V30 19678 N 1797.54 4.91848 3.08327 0
M  V30 19679 H 1800.31 2.95773 -0.483552 0
M  V30 19680 H 1797.87 1.56784 -0.403768 0
M  V30 19681 H 1799.86 3.52815 1.98252 0
M  V30 19682 H 1798.43 2.4677 1.91894 0
M  V30 19683 H 1797.65 3.94113 -0.0829881 0
M  V30 19684 H 1798.94 5.0752 0.360671 0
M  V30 19685 H 1798.34 4.45875 3.48155 0
M  V30 19686 H 1796.89 5.36497 3.70154 0
M  V30 19687 N 1800.33 0.304 1.5464 0
M  V30 19688 C 1801.55 -0.309709 2.05075 0
M  V30 19689 C 1801.98 -1.46509 1.1797 0
M  V30 19690 O 1801.33 -1.80359 0.184437 0
M  V30 19691 C 1801.38 -0.740734 3.5291 0
M  V30 19692 O 1800.49 -1.8452 3.68817 0
M  V30 19693 H 1799.83 -0.0596065 0.661319 0
M  V30 19694 H 1802.36 0.446718 1.99664 0
M  V30 19695 H 1802.37 -1.02873 3.94818 0
M  V30 19696 H 1801.04 0.104422 4.15769 0
M  V30 19697 H 1799.62 -1.55753 3.38815 0
M  V30 19698 N 1801.8 -1.57568 0.0317802 0
M  V30 19699 C 1803.22 -1.56264 -0.324633 0
M  V30 19700 C 1803.42 -1.03765 -1.72728 0
M  V30 19701 O 1802.48 -0.685566 -2.43015 0
M  V30 19702 C 1803.79 -3.00214 -0.170806 0
M  V30 19703 C 1805.34 -3.12052 -0.243373 0
M  V30 19704 C 1805.81 -4.57847 -0.118304 0
M  V30 19705 N 1807.3 -4.62869 -0.175203 0
M  V30 19706 C 1808.04 -5.73309 -0.102252 0
M  V30 19707 N 1807.53 -6.92797 0.0219373 0
M  V30 19708 N 1809.33 -5.61882 -0.156432 0
M  V30 19709 H 1801.48 -1.90022 0.948968 0
M  V30 19710 H 1803.74 -0.874208 0.366693 0
M  V30 19711 H 1803.45 -3.42585 0.795517 0
M  V30 19712 H 1803.32 -3.65302 -0.939907 0
M  V30 19713 H 1805.71 -2.69593 -1.20016 0
M  V30 19714 H 1805.79 -2.49681 0.55615 0
M  V30 19715 H 1805.43 -5.00988 0.835072 0
M  V30 19716 H 1805.36 -5.18202 -0.936726 0
M  V30 19717 H 1807.85 -3.76925 -0.271225 0
M  V30 19718 H 1808.17 -7.72768 0.0708376 0
M  V30 19719 H 1806.51 -6.94977 0.0567564 0
M  V30 19720 H 1809.7 -4.67422 -0.251873 0
M  V30 19721 H 1809.88 -6.47929 -0.0961177 0
M  V30 19722 N 1803.28 0.241399 -1.5574 0
M  V30 19723 C 1804.53 0.966607 -1.7703 0
M  V30 19724 C 1804.84 1.86275 -0.59673 0
M  V30 19725 O 1806.05 2.62513 -0.692775 0
M  V30 19726 C 1804.51 1.7688 -3.13435 0
M  V30 19727 C 1804.11 0.919775 -4.38457 0
M  V30 19728 C 1805.86 2.48641 -3.44061 0
M  V30 19729 C 1803.77 1.71817 -5.65891 0
M  V30 19730 H 1802.7 0.364644 -0.659963 0
M  V30 19731 H 1805.35 0.221088 -1.82163 0
M  V30 19732 H 1803.73 2.55648 -3.02424 0
M  V30 19733 H 1804.9 0.174036 -4.60471 0
M  V30 19734 H 1803.22 0.315234 -4.15205 0
M  V30 19735 H 1805.81 3.08839 -4.36489 0
M  V30 19736 H 1806.16 3.20534 -2.65638 0
M  V30 19737 H 1806.69 1.7688 -3.56312 0
M  V30 19738 H 1803.43 1.04289 -6.47151 0
M  V30 19739 H 1802.95 2.43905 -5.47969 0
M  V30 19740 H 1804.63 2.28392 -6.05348 0
M  V30 19741 N 1804.76 1.49212 0.507292 0
M  V30 19742 C 1805.99 1.62343 1.29072 0
M  V30 19743 C 1806.41 0.292387 1.85814 0
M  V30 19744 O 1805.77 -0.739145 1.65549 0
M  V30 19745 C 1805.82 2.69017 2.40129 0
M  V30 19746 O 1804.92 2.27753 3.43806 0
M  V30 19747 H 1804.26 0.543591 0.38132 0
M  V30 19748 H 1806.79 1.95358 0.607997 0
M  V30 19749 H 1806.8 2.90992 2.85985 0
M  V30 19750 H 1805.48 3.65638 1.98195 0
M  V30 19751 H 1804.05 2.16084 3.03912 0
M  V30 19752 N 1806.24 -0.757876 1.38181 0
M  V30 19753 C 1807.19 -1.87152 1.35065 0
M  V30 19754 C 1808.16 -1.64717 0.213892 0
M  V30 19755 O 1809.34 -1.86442 0.405448 0
M  V30 19756 C 1806.48 -3.24398 1.17728 0
M  V30 19757 C 1805.59 -3.58694 2.40754 0
M  V30 19758 C 1804.73 -4.85221 2.16181 0
M  V30 19759 C 1803.77 -5.1229 3.35001 0
M  V30 19760 N 1802.9 -6.3001 3.0989 0
M  V30 19761 H 1807.74 -1.89151 2.30274 0
M  V30 19762 H 1805.28 -0.924571 1.14412 0
M  V30 19763 H 1807.24 -4.0359 1.05694 0
M  V30 19764 H 1805.87 -3.21738 0.261606 0
M  V30 19765 H 1804.92 -2.74379 2.63477 0
M  V30 19766 H 1806.23 -3.74628 3.29325 0
M  V30 19767 H 1805.39 -5.72346 2.01258 0
M  V30 19768 H 1804.13 -4.71417 1.24969 0
M  V30 19769 H 1803.13 -4.23635 3.50448 0
M  V30 19770 H 1804.36 -5.27993 4.27083 0
M  V30 19771 H 1802.3 -6.17538 2.21321 0
M  V30 19772 H 1802.22 -6.46425 3.92009 0
M  V30 19773 H 1803.49 -7.20035 2.98613 0
M  V30 19774 N 1807.72 -1.22979 -0.985586 0
M  V30 19775 C 1808.96 -1.05877 -1.72616 0
M  V30 19776 C 1809.29 0.405097 -1.90235 0
M  V30 19777 O 1808.55 1.31642 -1.44807 0
M  V30 19778 C 1808.85 -1.72346 -3.131 0
M  V30 19779 C 1808.51 -3.22256 -3.15376 0
M  V30 19780 C 1807.17 -3.63159 -3.15704 0
M  V30 19781 C 1809.53 -4.18174 -3.11094 0
M  V30 19782 C 1806.85 -4.98448 -3.09461 0
M  V30 19783 C 1809.21 -5.53449 -3.06393 0
M  V30 19784 C 1807.87 -5.93722 -3.05041 0
M  V30 19785 H 1807.14 -0.38743 -0.631648 0
M  V30 19786 H 1809.79 -1.52842 -1.15375 0
M  V30 19787 H 1808.09 -1.17725 -3.73695 0
M  V30 19788 H 1809.79 -1.56595 -3.6916 0
M  V30 19789 H 1806.38 -2.89692 -3.15875 0
M  V30 19790 H 1810.56 -3.87586 -3.09985 0
M  V30 19791 H 1805.82 -5.28873 -3.06763 0
M  V30 19792 H 1809.99 -6.27492 -3.02037 0
M  V30 19793 H 1807.62 -6.98519 -2.99958 0
M  V30 19794 N 1809.19 1.18355 -1.04066 0
M  V30 19795 C 1810.42 1.91996 -0.762952 0
M  V30 19796 C 1810.83 1.76413 0.683745 0
M  V30 19797 O 1810.18 1.09121 1.47778 0
M  V30 19798 C 1810.24 3.4384 -1.04949 0
M  V30 19799 C 1809.9 3.83201 -2.4901 0
M  V30 19800 C 1810.9 3.86984 -3.47187 0
M  V30 19801 C 1808.58 4.14497 -2.83721 0
M  V30 19802 C 1810.58 4.21513 -4.78127 0
M  V30 19803 C 1808.26 4.48696 -4.14867 0
M  V30 19804 C 1809.26 4.52181 -5.1188 0
M  V30 19805 O 1808.95 4.85582 -6.40676 0
M  V30 19806 H 1808.68 0.616351 -0.277647 0
M  V30 19807 H 1811.24 1.51092 -1.39141 0
M  V30 19808 H 1809.47 3.84984 -0.363904 0
M  V30 19809 H 1811.16 3.98729 -0.759579 0
M  V30 19810 H 1811.92 3.62944 -3.21709 0
M  V30 19811 H 1807.8 4.10962 -2.08881 0
M  V30 19812 H 1811.34 4.24148 -5.53845 0
M  V30 19813 H 1807.24 4.72198 -4.40113 0
M  V30 19814 H 1808.01 5.03485 -6.45326 0
M  V30 19815 N 1810.67 0.820125 1.3458 0
M  V30 19816 C 1812.08 0.466064 1.80789 0
M  V30 19817 C 1812.43 -1.01327 1.6801 0
M  V30 19818 O 1811.56 -1.78835 1.21849 0
M  V30 19819 C 1812.15 0.839192 3.28242 0
M  V30 19820 C 1810.71 0.53754 3.72542 0
M  V30 19821 C 1809.86 1.0576 2.5634 0
M  V30 19822 H 1812.81 1.01055 1.22366 0
M  V30 19823 H 1812.83 0.141897 3.80235 0
M  V30 19824 H 1812.34 1.91592 3.37512 0
M  V30 19825 H 1810.45 -0.529895 3.68813 0
M  V30 19826 H 1810.56 1.07964 4.66777 0
M  V30 19827 H 1808.92 0.479275 2.5015 0
M  V30 19828 H 1809.71 2.14072 2.68381 0
M  V30 19829 N 1812.15 -1.46743 0.574835 0
M  V30 19830 C 1813.4 -2.01625 0.0551724 0
M  V30 19831 C 1813.71 -1.4528 -1.3097 0
M  V30 19832 O 1814.92 -1.91932 -1.92026 0
M  V30 19833 C 1813.37 -3.59868 0.0480708 0
M  V30 19834 C 1812.98 -4.25207 1.41078 0
M  V30 19835 C 1814.73 -4.22436 -0.41806 0
M  V30 19836 C 1812.63 -5.75507 1.36183 0
M  V30 19837 H 1811.56 -0.753812 0.0168558 0
M  V30 19838 H 1814.21 -1.68557 0.725313 0
M  V30 19839 H 1812.6 -3.89976 -0.688076 0
M  V30 19840 H 1813.77 -4.06718 2.16603 0
M  V30 19841 H 1812.09 -3.747 1.81628 0
M  V30 19842 H 1814.68 -5.32601 -0.473353 0
M  V30 19843 H 1815.03 -3.90826 -1.43391 0
M  V30 19844 H 1815.56 -3.96925 0.263775 0
M  V30 19845 H 1812.3 -6.11765 2.35423 0
M  V30 19846 H 1811.82 -5.96282 0.648655 0
M  V30 19847 H 1813.5 -6.38068 1.07137 0
M  V30 19848 N 1813.63 -0.312197 -1.54477 0
M  V30 19849 C 1815.04 0.178189 -1.85848 0
M  V30 19850 C 1815.39 1.52534 -1.23401 0
M  V30 19851 O 1814.52 2.09661 -0.535822 0
M  V30 19852 C 1815.11 0.330099 -3.37188 0
M  V30 19853 C 1813.67 0.764703 -3.6855 0
M  V30 19854 C 1812.82 -0.120348 -2.77039 0
M  V30 19855 H 1815.77 -0.532853 -1.49487 0
M  V30 19856 H 1815.79 1.16287 -3.62295 0
M  V30 19857 H 1815.3 -0.650527 -3.82609 0
M  V30 19858 H 1813.4 1.75548 -3.28654 0
M  V30 19859 H 1813.51 0.576331 -4.75621 0
M  V30 19860 H 1811.88 0.402229 -2.51504 0
M  V30 19861 H 1812.66 -1.09753 -3.25283 0
M  V30 19862 N 1815.11 1.57549 -0.040136 0
M  V30 19863 C 1816.33 1.96967 0.649517 0
M  V30 19864 C 1816.76 0.917056 1.64231 0
M  V30 19865 O 1816.11 -0.120899 1.80896 0
M  V30 19866 C 1816.16 3.35471 1.32256 0
M  V30 19867 O 1815.27 3.32615 2.43806 0
M  V30 19868 H 1814.61 0.641933 0.169758 0
M  V30 19869 H 1817.14 2.04329 -0.105261 0
M  V30 19870 H 1817.15 3.71951 1.6768 0
M  V30 19871 H 1815.82 4.11623 0.594895 0
M  V30 19872 H 1814.4 3.07867 2.10411 0
M  V30 19873 N 1816.58 -0.233136 1.55866 0
M  V30 19874 C 1817.51 -1.29225 1.94482 0
M  V30 19875 C 1818.5 -1.49495 0.811503 0
M  V30 19876 O 1819.68 -1.61872 1.07289 0
M  V30 19877 C 1816.81 -2.64435 2.25147 0
M  V30 19878 C 1815.76 -2.5884 3.4086 0
M  V30 19879 C 1815.09 -3.97973 3.57102 0
M  V30 19880 C 1816.39 -2.14629 4.76164 0
M  V30 19881 H 1818.08 -0.971527 2.83199 0
M  V30 19882 H 1815.63 -0.465905 1.36255 0
M  V30 19883 H 1817.58 -3.38676 2.50752 0
M  V30 19884 H 1816.31 -2.98172 1.33271 0
M  V30 19885 H 1814.97 -1.87057 3.15286 0
M  V30 19886 H 1814.61 -4.28998 2.62621 0
M  V30 19887 H 1814.31 -3.95114 4.34924 0
M  V30 19888 H 1815.84 -4.73893 3.85043 0
M  V30 19889 H 1817.25 -2.78607 5.0105 0
M  V30 19890 H 1815.65 -2.22853 5.57186 0
M  V30 19891 H 1816.72 -1.09826 4.72299 0
M  V30 19892 N 1818.06 -1.49479 -0.499372 0
M  V30 19893 C 1819.01 -1.62662 -1.59766 0
M  V30 19894 C 1820 -0.482218 -1.53504 0
M  V30 19895 O 1821.19 -0.735252 -1.61006 0
M  V30 19896 C 1818.32 -1.69797 -2.98368 0
M  V30 19897 C 1817.4 -2.8982 -3.09621 0
M  V30 19898 N 1817.8 -4.13876 -2.90758 0
M  V30 19899 C 1816.09 -2.87791 -3.40723 0
M  V30 19900 C 1816.79 -4.94566 -3.06235 0
M  V30 19901 N 1815.77 -4.27963 -3.35184 0
M  V30 19902 H 1819.57 -2.56296 -1.43839 0
M  V30 19903 H 1817.09 -1.46274 -0.705532 0
M  V30 19904 H 1819.08 -1.7734 -3.77301 0
M  V30 19905 H 1817.74 -0.773015 -3.15364 0
M  V30 19906 H 1818.75 -4.43829 -2.669 0
M  V30 19907 H 1815.43 -2.0468 -3.63885 0
M  V30 19908 H 1816.82 -6.03122 -2.9613 0
M  V30 19909 N 1819.54 0.750537 -1.38581 0
M  V30 19910 C 1820.77 1.54489 -1.38376 0
M  V30 19911 C 1821.19 1.88085 0.023634 0
M  V30 19912 O 1820.55 1.50794 1.00652 0
M  V30 19913 C 1820.6 2.81875 -2.24897 0
M  V30 19914 O 1819.7 3.77155 -1.66817 0
M  V30 19915 H 1819.04 0.467148 -0.471878 0
M  V30 19916 H 1821.57 0.927264 -1.82381 0
M  V30 19917 H 1821.58 3.30769 -2.38864 0
M  V30 19918 H 1820.26 2.56753 -3.27186 0
M  V30 19919 H 1818.83 3.35868 -1.62009 0
M  V30 19920 N 1821.02 1.235 0.979051 0
M  V30 19921 C 1822.25 1.09462 1.75572 0
M  V30 19922 C 1822.66 -0.3538 1.85455 0
M  V30 19923 O 1822.02 -1.24467 1.3347 0
M  V30 19924 C 1822.07 1.71562 3.18196 0
M  V30 19925 O 1821.79 3.1074 3.08824 0
M  V30 19926 C 1823.29 1.62984 4.12251 0
M  V30 19927 H 1820.51 0.383013 0.550946 0
M  V30 19928 H 1823.06 1.63378 1.22995 0
M  V30 19929 H 1821.21 1.21676 3.67796 0
M  V30 19930 H 1821.63 3.40888 3.98617 0
M  V30 19931 H 1823.1 2.11135 5.10025 0
M  V30 19932 H 1823.58 0.588907 4.35234 0
M  V30 19933 H 1824.18 2.12242 3.68556 0
M  V30 19934 N 1822.5 -1.17802 1.04693 0
M  V30 19935 C 1823.75 -1.87567 0.752534 0
M  V30 19936 C 1824.07 -1.81129 -0.722303 0
M  V30 19937 O 1823.34 -1.23385 -1.52161 0
M  V30 19938 H 1821.92 -0.69439 0.275376 0
M  V30 19939 H 1824.58 -1.42932 1.32501 0
M  V30 19940 H 1823.67 -2.9344 1.06299 0
M  V30 19941 N 1823.98 -0.827251 -1.34143 0
M  V30 19942 C 1825.2 -0.429514 -2.02904 0
M  V30 19943 C 1825.63 0.958033 -1.61874 0
M  V30 19944 O 1824.98 1.62422 -0.805528 0
M  V30 19945 C 1825.03 -0.544592 -3.56464 0
M  V30 19946 O 1824.14 0.433849 -4.10112 0
M  V30 19947 H 1823.48 -0.176216 -0.64019 0
M  V30 19948 H 1826.01 -1.11887 -1.71297 0
M  V30 19949 H 1826.02 -0.421949 -4.05812 0
M  V30 19950 H 1824.69 -1.55657 -3.85673 0
M  V30 19951 H 1823.27 0.269729 -3.71923 0
M  V30 19952 O 1825.49 1.44396 -0.723337 0
M  V30 19953 H 1826.18 1.91794 -0.271063 0
M  V30 END ATOM
M  V30 BEGIN BOND
M  V30 END BOND
M  V30 END CTAB
M  END
$$$$
