drugbank_target|Q9H2M3 S-methylmethionine--homocysteine S-methyltransferase BHMT2 (DB00134)
 OpenBabel12092120083D

  0  0  0     0  0            999 V3000
M  V30 BEGIN CTAB
M  V30 COUNTS 5622 5695 0 0 0
M  V30 BEGIN ATOM
M  V30 1 H -0.908 1.98254 -0.117106 0
M  V30 2 N 0 1.576 0 0
M  V30 3 C 0.933 2.03868 1.02534 0
M  V30 4 C 1.911 0.928543 1.3348 0
M  V30 5 O 3.095 1.19667 1.45644 0
M  V30 6 C 0.222 2.43627 2.35294 0
M  V30 7 C -0.732 3.65373 2.2001 0
M  V30 8 S 0.101 5.13292 1.52614 0
M  V30 9 C 1.257 5.56322 2.86805 0
M  V30 10 H 1.49 2.90518 0.631377 0
M  V30 11 H -0.977 1.52953 0.210867 0
M  V30 12 H 0.981 2.67203 3.11629 0
M  V30 13 H -0.358 1.57376 2.7183 0
M  V30 14 H -1.165 3.90944 3.18086 0
M  V30 15 H -1.563 3.418 1.51819 0
M  V30 16 H 0.729 5.58782 3.83104 0
M  V30 17 H 1.672 6.56266 2.65933 0
M  V30 18 H 2.08 4.83886 2.90714 0
M  V30 19 N 1.4781 -0.272755 1.55222 0
M  V30 20 C 2.4411 -1.32041 1.87344 0
M  V30 21 C 3.4411 -1.42342 0.74803 0
M  V30 22 O 4.6311 -1.41488 1.0162 0
M  V30 23 C 1.7631 -2.70173 2.07893 0
M  V30 24 H 2.9561 -1.04789 2.80997 0
M  V30 25 H 0.5091 -0.51083 1.47717 0
M  V30 26 H 1.2441 -3.02605 1.16622 0
M  V30 27 H 1.0291 -2.64082 2.89833 0
M  V30 28 H 2.5191 -3.45869 2.34017 0
M  V30 29 N 2.9562 -1.48159 -0.537278 0
M  V30 30 C 4.3672 -1.49429 -1.11928 0
M  V30 31 C 4.7182 -0.26 -1.9447 0
M  V30 32 O 3.8432 0.633489 -2.0692 0
M  V30 33 C 4.4382 -2.70758 -2.03656 0
M  V30 34 C 2.9972 -2.74923 -2.57088 0
M  V30 35 C 2.1442 -2.42835 -1.3389 0
M  V30 36 H 5.0952 -1.55381 -0.322886 0
M  V30 37 H 5.1162 -2.48861 -2.87834 0
M  V30 38 H 4.6282 -3.60575 -1.43553 0
M  V30 39 H 2.7292 -1.89296 -3.20933 0
M  V30 40 H 2.8422 -3.76157 -2.9672 0
M  V30 41 H 1.2062 -1.93836 -1.65226 0
M  V30 42 H 1.9892 -3.34884 -0.755504 0
M  V30 43 N 4.4343 0.785586 -1.36625 0
M  V30 44 C 5.3973 1.87999 -1.31107 0
M  V30 45 C 6.3973 1.59316 -0.217959 0
M  V30 46 O 7.5873 1.67656 -0.472977 0
M  V30 47 C 4.7193 3.24861 -1.03334 0
M  V30 48 H 5.9123 1.94307 -2.2844 0
M  V30 49 H 3.4653 0.983813 -1.21453 0
M  V30 50 H 4.2003 3.24235 -0.0647432 0
M  V30 51 H 3.9853 3.4707 -1.82441 0
M  V30 52 H 5.4753 4.04929 -1.02088 0
M  V30 53 N 5.9124 1.20967 1.01018 0
M  V30 54 C 7.1604 1.02172 1.74371 0
M  V30 55 C 7.4814 -0.446414 1.89821 0
M  V30 56 O 6.7514 -1.32234 1.44537 0
M  V30 57 H 5.3314 0.375066 0.646014 0
M  V30 58 H 7.9934 1.52187 1.21758 0
M  V30 59 H 7.0894 1.48538 2.74487 0
M  V30 60 N 7.3905 -1.2043 1.01659 0
M  V30 61 C 8.8065 -1.41852 0.731442 0
M  V30 62 C 9.0065 -1.89358 -0.688898 0
M  V30 63 O 8.0625 -2.06247 -1.45666 0
M  V30 64 C 9.3755 -2.44019 1.75714 0
M  V30 65 C 10.9235 -2.57785 1.77527 0
M  V30 66 C 11.3985 -3.63194 2.79023 0
M  V30 67 N 12.8895 -3.70678 2.77763 0
M  V30 68 C 13.6245 -4.51897 3.52954 0
M  V30 69 N 13.1205 -5.36921 4.37821 0
M  V30 70 N 14.9135 -4.4643 3.41551 0
M  V30 71 H 7.0645 -0.879093 1.93354 0
M  V30 72 H 9.3275 -0.448425 0.835236 0
M  V30 73 H 9.0335 -2.1611 2.77469 0
M  V30 74 H 8.9075 -3.43007 1.56927 0
M  V30 75 H 11.2945 -2.85023 0.764569 0
M  V30 76 H 11.3755 -1.58992 2.00387 0
M  V30 77 H 11.0195 -3.36699 3.80258 0
M  V30 78 H 10.9495 -4.61609 2.53425 0
M  V30 79 H 13.4405 -3.09944 2.16201 0
M  V30 80 H 13.7535 -5.95981 4.91962 0
M  V30 81 H 12.0985 -5.36424 4.41899 0
M  V30 82 H 15.2895 -3.79042 2.74672 0
M  V30 83 H 15.4625 -5.09491 4.00404 0
M  V30 84 N 8.8686 -0.792821 -1.36206 0
M  V30 85 C 10.2796 -0.429513 -1.81692 0
M  V30 86 C 10.6306 1.04695 -1.65932 0
M  V30 87 O 9.7556 1.81256 -1.18218 0
M  V30 88 C 10.3506 -0.772831 -3.29868 0
M  V30 89 C 8.9096 -0.462307 -3.7355 0
M  V30 90 C 8.0566 -1.00569 -2.5842 0
M  V30 91 H 11.0076 -0.985672 -1.24379 0
M  V30 92 H 11.0286 -0.0651928 -3.80444 0
M  V30 93 H 10.5406 -1.84747 -3.41307 0
M  V30 94 H 8.6416 0.604158 -3.67669 0
M  V30 95 H 8.7546 -0.985299 -4.68859 0
M  V30 96 H 7.1186 -0.428734 -2.51066 0
M  V30 97 H 7.9016 -2.08616 -2.72643 0
M  V30 98 N 10.3467 1.47872 -0.545128 0
M  V30 99 C 11.5947 2.02093 -0.016553 0
M  V30 100 C 11.9157 1.42305 1.3332 0
M  V30 101 O 11.1857 0.593853 1.86682 0
M  V30 102 H 9.7657 0.746993 -0.00313038 0
M  V30 103 H 12.4277 1.81414 -0.712397 0
M  V30 104 H 11.5237 3.11996 0.0805422 0
M  V30 105 N 11.8248 0.280983 1.55075 0
M  V30 106 C 12.7878 -0.590896 2.21452 0
M  V30 107 C 13.7878 -1.07682 1.19421 0
M  V30 108 O 14.9778 -0.97605 1.44288 0
M  V30 109 C 12.1098 -1.81587 2.88511 0
M  V30 110 H 13.3028 -0.0112554 2.99898 0
M  V30 111 H 10.8558 0.0316438 1.56268 0
M  V30 112 H 11.5908 -2.43587 2.14093 0
M  V30 113 H 11.3758 -1.4753 3.63287 0
M  V30 114 H 12.8658 -2.43575 3.39206 0
M  V30 115 N 13.3029 -1.57598 0.00835791 0
M  V30 116 C 14.2499 -2.08945 -0.980346 0
M  V30 117 C 15.2199 -0.986738 -1.33614 0
M  V30 118 O 16.4049 -1.25968 -1.43306 0
M  V30 119 C 13.5449 -2.60425 -2.26435 0
M  V30 120 C 12.6579 -3.84628 -1.96685 0
M  V30 121 C 11.7929 -4.24579 -3.19228 0
M  V30 122 C 10.8319 -5.41596 -2.85202 0
M  V30 123 N 9.9689 -5.768 -4.00307 0
M  V30 124 H 14.8089 -2.93148 -0.535551 0
M  V30 125 H 12.3459 -1.44912 -0.252776 0
M  V30 126 H 14.3039 -2.88354 -3.01509 0
M  V30 127 H 12.9339 -1.79083 -2.68568 0
M  V30 128 H 11.9859 -3.63556 -1.11942 0
M  V30 129 H 13.2979 -4.69796 -1.67611 0
M  V30 130 H 12.4519 -4.53834 -4.02641 0
M  V30 131 H 11.1909 -3.38137 -3.51447 0
M  V30 132 H 10.1959 -5.12056 -2.00198 0
M  V30 133 H 11.4209 -6.29721 -2.54222 0
M  V30 134 H 9.3669 -4.93316 -4.32407 0
M  V30 135 H 9.2839 -6.5656 -3.74786 0
M  V30 136 H 10.5519 -6.10652 -4.84484 0
M  V30 137 N 14.781 0.264519 -1.55364 0
M  V30 138 C 15.728 1.32717 -1.88825 0
M  V30 139 C 16.698 1.48675 -0.740605 0
M  V30 140 O 17.883 1.62945 -0.992657 0
M  V30 141 C 15.023 2.68089 -2.17307 0
M  V30 142 C 14.136 2.60284 -3.44785 0
M  V30 143 C 13.271 3.87892 -3.62924 0
M  V30 144 C 12.31 3.74631 -4.84064 0
M  V30 145 N 11.447 4.94092 -4.98816 0
M  V30 146 H 16.287 1.03481 -2.79456 0
M  V30 147 H 13.824 0.499757 -1.3835 0
M  V30 148 H 15.782 3.46864 -2.31821 0
M  V30 149 H 14.412 2.95509 -1.299 0
M  V30 150 H 13.464 1.73173 -3.38697 0
M  V30 151 H 14.776 2.46388 -4.33698 0
M  V30 152 H 13.93 4.75109 -3.77302 0
M  V30 153 H 12.669 4.04664 -2.7221 0
M  V30 154 H 11.674 2.85797 -4.69681 0
M  V30 155 H 12.899 3.5937 -5.76221 0
M  V30 156 H 10.845 5.11259 -4.11036 0
M  V30 157 H 10.762 4.8276 -5.81789 0
M  V30 158 H 12.03 5.82857 -5.17588 0
M  V30 159 N 16.2591 1.48442 0.529413 0
M  V30 160 C 17.5071 1.56179 1.28267 0
M  V30 161 C 17.8281 0.237721 1.93546 0
M  V30 162 O 17.0981 -0.740779 1.81354 0
M  V30 163 H 15.6781 0.575367 0.476405 0
M  V30 164 H 18.3401 1.84909 0.61602 0
M  V30 165 H 17.4361 2.34312 2.06165 0
M  V30 166 N 17.7372 -0.778329 1.37039 0
M  V30 167 C 18.9862 -1.53189 1.3121 0
M  V30 168 C 19.2992 -1.95328 -0.103095 0
M  V30 169 O 20.5052 -2.70012 -0.283826 0
M  V30 170 C 18.9612 -2.76591 2.30272 0
M  V30 171 C 18.5692 -2.41577 3.77286 0
M  V30 172 C 20.3132 -3.5455 2.33441 0
M  V30 173 C 18.2202 -3.61441 4.68096 0
M  V30 174 H 17.1502 -0.5751 0.487622 0
M  V30 175 H 19.8012 -0.853101 1.62464 0
M  V30 176 H 18.1832 -3.46326 1.92027 0
M  V30 177 H 19.3572 -1.79668 4.2433 0
M  V30 178 H 17.6722 -1.76806 3.76999 0
M  V30 179 H 20.2692 -4.43628 2.98493 0
M  V30 180 H 20.6122 -3.93936 1.34611 0
M  V30 181 H 21.1452 -2.91805 2.7036 0
M  V30 182 H 17.8842 -3.27142 5.6803 0
M  V30 183 H 17.4042 -4.22478 4.25761 0
M  V30 184 H 19.0832 -4.28335 4.8491 0
M  V30 185 N 19.2153 -1.21501 -1.00376 0
M  V30 186 C 20.1453 -0.999478 -2.11028 0
M  V30 187 C 21.1263 0.0759671 -1.6993 0
M  V30 188 O 22.3113 -0.0841106 -1.94018 0
M  V30 189 C 19.4413 -0.564709 -3.42678 0
M  V30 190 C 18.3953 -1.58486 -3.97576 0
M  V30 191 C 17.7213 -1.00628 -5.25146 0
M  V30 192 C 19.0213 -2.97204 -4.29496 0
M  V30 193 H 20.7153 -1.92495 -2.29317 0
M  V30 194 H 18.2613 -0.92693 -1.102 0
M  V30 195 H 20.2143 -0.401091 -4.19487 0
M  V30 196 H 18.9383 0.396411 -3.24185 0
M  V30 197 H 17.5973 -1.73606 -3.22888 0
M  V30 198 H 17.2453 -0.0368439 -5.02987 0
M  V30 199 H 16.9453 -1.68771 -5.62841 0
M  V30 200 H 18.4693 -0.854015 -6.04598 0
M  V30 201 H 19.8833 -2.8552 -4.97143 0
M  V30 202 H 18.2803 -3.62372 -4.78338 0
M  V30 203 H 19.3503 -3.47956 -3.3772 0
M  V30 204 N 20.6934 1.19889 -1.02296 0
M  V30 205 C 21.6034 2.26571 -0.608508 0
M  V30 206 C 22.6194 1.70299 0.356964 0
M  V30 207 O 23.7954 2.00235 0.216326 0
M  V30 208 C 20.8604 3.46677 0.0402814 0
M  V30 209 C 19.9214 4.18153 -0.97194 0
M  V30 210 C 19.1544 5.32525 -0.354016 0
M  V30 211 O 19.3774 5.64112 0.844604 0
M  V30 212 O 18.3114 5.92242 -1.07391 0
M  V30 213 H 22.1374 2.64251 -1.49684 0
M  V30 214 H 19.7224 1.26629 -0.792809 0
M  V30 215 H 21.6044 4.19475 0.402324 0
M  V30 216 H 20.2794 3.10858 0.902707 0
M  V30 217 H 19.1864 3.47499 -1.38546 0
M  V30 218 H 20.5194 4.57927 -1.80454 0
M  V30 219 N 22.1715 0.800033 1.35784 0
M  V30 220 C 23.5875 0.482977 1.52117 0
M  V30 221 C 23.7875 -0.996948 1.75109 0
M  V30 222 O 22.8435 -1.78216 1.78872 0
M  V30 223 C 24.1565 1.32264 2.70049 0
M  V30 224 C 25.7045 1.31742 2.83924 0
M  V30 225 C 26.1795 2.14106 4.04874 0
M  V30 226 N 27.6705 2.11607 4.12039 0
M  V30 227 C 28.4055 2.72099 5.04727 0
M  V30 228 N 27.9015 3.41492 6.02789 0
M  V30 229 N 29.6945 2.61776 4.97423 0
M  V30 230 H 21.8455 1.75856 1.19115 0
M  V30 231 H 24.1085 0.748122 0.582252 0
M  V30 232 H 23.8145 2.37261 2.59616 0
M  V30 233 H 23.6885 0.971303 3.6448 0
M  V30 234 H 26.0755 0.275333 2.93813 0
M  V30 235 H 26.1565 1.70859 1.9037 0
M  V30 236 H 25.8005 3.18351 3.95746 0
M  V30 237 H 25.7305 1.72353 4.97596 0
M  V30 238 H 28.2215 1.61112 3.41835 0
M  V30 239 H 28.5345 3.84953 6.70098 0
M  V30 240 H 26.8795 3.45596 6.02983 0
M  V30 241 H 30.0705 2.07157 4.19766 0
M  V30 242 H 30.2435 3.0921 5.69468 0
M  V30 243 N 23.6496 -1.47581 0.552962 0
M  V30 244 C 24.5796 -2.32762 -0.185451 0
M  V30 245 C 25.5606 -1.43527 -0.912905 0
M  V30 246 O 26.7456 -1.72388 -0.894201 0
M  V30 247 C 23.8756 -3.25219 -1.21859 0
M  V30 248 C 22.8296 -4.23661 -0.607864 0
M  V30 249 C 22.1556 -5.05413 -1.74533 0
M  V30 250 C 23.4556 -5.20481 0.435582 0
M  V30 251 H 25.1496 -2.94749 0.525684 0
M  V30 252 H 22.6956 -1.41738 0.254251 0
M  V30 253 H 24.6486 -3.8365 -1.7433 0
M  V30 254 H 23.3726 -2.61279 -1.95961 0
M  V30 255 H 22.0316 -3.66451 -0.104489 0
M  V30 256 H 21.6796 -4.3788 -2.47529 0
M  V30 257 H 21.3796 -5.72059 -1.34249 0
M  V30 258 H 22.9036 -5.66701 -2.27338 0
M  V30 259 H 24.3176 -5.733 -0.00290157 0
M  V30 260 H 22.7146 -5.95305 0.757067 0
M  V30 261 H 23.7846 -4.66217 1.33303 0
M  V30 262 N 25.1277 -0.289203 -1.54924 0
M  V30 263 C 26.0377 0.601863 -2.26748 0
M  V30 264 C 27.0537 1.15834 -1.2984 0
M  V30 265 O 28.2297 1.18564 -1.62802 0
M  V30 266 C 25.2947 1.76299 -2.98529 0
M  V30 267 C 24.3557 1.24178 -4.10948 0
M  V30 268 C 23.5887 2.34757 -4.79296 0
M  V30 269 O 23.8117 3.54411 -4.46933 0
M  V30 270 O 22.7457 2.02115 -5.66951 0
M  V30 271 H 26.5717 0.0195879 -3.03694 0
M  V30 272 H 24.1567 -0.0560868 -1.49295 0
M  V30 273 H 26.0387 2.43973 -3.43592 0
M  V30 274 H 24.7137 2.33209 -2.24488 0
M  V30 275 H 23.6207 0.531104 -3.70311 0
M  V30 276 H 24.9537 0.718252 -4.86931 0
M  V30 277 N 26.6058 1.57591 -0.0167156 0
M  V30 278 C 27.8308 1.9598 0.67872 0
M  V30 279 C 28.2558 0.892546 1.65575 0
M  V30 280 O 27.6138 -0.147772 1.80697 0
M  V30 281 C 27.6618 3.33468 1.37227 0
M  V30 282 O 26.7658 3.28954 2.48722 0
M  V30 283 H 26.1068 0.639339 0.17928 0
M  V30 284 H 28.6368 2.04463 -0.0748802 0
M  V30 285 H 28.6468 3.69417 1.7319 0
M  V30 286 H 27.3218 4.10694 0.656007 0
M  V30 287 H 25.8988 3.04705 2.14963 0
M  V30 288 N 28.0839 -0.256276 1.55502 0
M  V30 289 C 29.3319 -0.983672 1.76545 0
M  V30 290 C 29.6529 -1.86206 0.578982 0
M  V30 291 O 28.9229 -1.91656 -0.405577 0
M  V30 292 H 27.5029 -0.366191 0.651086 0
M  V30 293 H 30.1649 -0.276479 1.92929 0
M  V30 294 H 29.2609 -1.61087 2.67315 0
M  V30 295 N 29.562 -1.4872 -0.521534 0
M  V30 296 C 30.472 -1.66569 -1.65203 0
M  V30 297 C 31.488 -0.548197 -1.65139 0
M  V30 298 O 32.664 -0.820339 -1.83936 0
M  V30 299 C 29.729 -1.70917 -3.01642 0
M  V30 300 C 28.79 -2.94356 -3.12495 0
M  V30 301 C 28.023 -2.98487 -4.42426 0
M  V30 302 O 28.246 -2.10786 -5.30024 0
M  V30 303 O 27.18 -3.90746 -4.57822 0
M  V30 304 H 31.006 -2.62298 -1.5308 0
M  V30 305 H 28.591 -1.3222 -0.695565 0
M  V30 306 H 30.473 -1.7625 -3.82771 0
M  V30 307 H 29.148 -0.783633 -3.14071 0
M  V30 308 H 28.055 -2.94552 -2.3063 0
M  V30 309 H 29.388 -3.86322 -3.04986 0
M  V30 310 N 31.0401 0.771051 -1.3745 0
M  V30 311 C 32.2861 1.5319 -1.32894 0
M  V30 312 C 32.6191 1.94008 0.0862511 0
M  V30 313 O 31.8941 1.64124 1.04373 0
M  V30 314 C 32.1771 2.79648 -2.26868 0
M  V30 315 C 32.0301 2.45079 -3.77169 0
M  V30 316 C 33.3491 3.81583 -2.19277 0
M  V30 317 H 30.4681 0.555744 -0.484064 0
M  V30 318 H 33.1101 0.884492 -1.68157 0
M  V30 319 H 31.2601 3.34891 -1.96926 0
M  V30 320 H 32.9321 1.95745 -4.1771 0
M  V30 321 H 31.1751 1.77767 -3.95704 0
M  V30 322 H 31.8461 3.35478 -4.38359 0
M  V30 323 H 34.3221 3.35835 -2.45671 0
M  V30 324 H 33.1981 4.67787 -2.87171 0
M  V30 325 H 33.4591 4.25897 -1.18592 0
M  V30 326 N 32.5182 1.22032 0.997298 0
M  V30 327 C 33.7642 1.04376 1.73878 0
M  V30 328 C 34.0972 -0.420716 1.89588 0
M  V30 329 O 33.3722 -1.31202 1.43583 0
M  V30 330 C 33.6552 1.75047 3.14691 0
M  V30 331 C 33.5082 3.29062 3.06656 0
M  V30 332 C 34.8272 1.49928 4.13775 0
M  V30 333 H 31.9462 0.380578 0.631133 0
M  V30 334 H 34.5882 1.50312 1.16217 0
M  V30 335 H 32.7382 1.35996 3.63919 0
M  V30 336 H 34.4102 3.7753 2.65083 0
M  V30 337 H 32.6532 3.58967 2.43568 0
M  V30 338 H 33.3242 3.73683 4.06282 0
M  V30 339 H 35.8002 1.83842 3.73285 0
M  V30 340 H 34.6762 2.01878 5.10428 0
M  V30 341 H 34.9372 0.430929 4.39995 0
M  V30 342 N 33.9963 -1.19345 1.0293 0
M  V30 343 C 35.2453 -1.88363 0.721256 0
M  V30 344 C 35.5583 -1.80514 -0.753254 0
M  V30 345 O 36.7643 -2.44788 -1.17436 0
M  V30 346 C 35.2203 -3.37872 1.23978 0
M  V30 347 C 34.8283 -3.54278 2.74211 0
M  V30 348 C 36.5723 -4.12365 1.00775 0
M  V30 349 C 34.4793 -4.97682 3.19479 0
M  V30 350 H 33.4093 -0.705484 0.266098 0
M  V30 351 H 36.0603 -1.34928 1.24365 0
M  V30 352 H 34.4423 -3.90707 0.6453 0
M  V30 353 H 35.6163 -3.11769 3.39318 0
M  V30 354 H 33.9313 -2.93174 2.95699 0
M  V30 355 H 36.5283 -5.18119 1.32123 0
M  V30 356 H 36.8713 -4.16263 -0.0554308 0
M  V30 357 H 37.4043 -3.65668 1.56625 0
M  V30 358 H 34.1433 -4.98945 4.25128 0
M  V30 359 H 33.6633 -5.4095 2.591 0
M  V30 360 H 35.3423 -5.66337 3.12845 0
M  V30 361 N 35.4744 -0.807222 -1.35358 0
M  V30 362 C 36.7224 -0.387122 -1.98358 0
M  V30 363 C 37.0434 1.04942 -1.64354 0
M  V30 364 O 36.3134 1.72615 -0.926339 0
M  V30 365 H 34.8934 -0.140154 -0.733734 0
M  V30 366 H 37.5554 -1.0332 -1.6526 0
M  V30 367 H 36.6514 -0.493352 -3.08176 0
M  V30 368 N 36.9525 1.47285 -0.560781 0
M  V30 369 C 38.2295 1.9558 0.0277798 0
M  V30 370 C 38.6095 1.5034 1.48192 0
M  V30 371 O 37.9575 0.743882 2.16052 0
M  V30 372 C 38.1675 3.48789 -0.121418 0
M  V30 373 C 39.5155 4.24594 0.0220912 0
M  V30 374 O 40.5395 3.56166 -0.0491439 0
M  V30 375 O 39.3985 5.46217 0.175958 0
M  V30 376 H 36.4925 0.824663 0.0621342 0
M  V30 377 H 39.0385 1.5767 -0.627556 0
M  V30 378 H 37.8105 3.74533 -1.13316 0
M  V30 379 H 37.4335 3.93473 0.571366 0
M  V30 380 N 38.4306 0.297415 1.54768 0
M  V30 381 C 39.6786 -0.312295 1.99673 0
M  V30 382 C 39.9996 -1.54686 1.18732 0
M  V30 383 O 39.2696 -1.93854 0.282382 0
M  V30 384 H 37.8496 -0.118381 0.73756 0
M  V30 385 H 40.5116 0.407915 1.90583 0
M  V30 386 H 39.6076 -0.586813 3.06534 0
M  V30 387 N 39.9087 -1.5758 0.0250728 0
M  V30 388 C 41.1337 -1.96337 -0.668317 0
M  V30 389 C 41.5587 -0.901314 -1.651 0
M  V30 390 O 40.9167 0.138187 -1.80773 0
M  V30 391 C 40.9647 -3.34191 -1.35457 0
M  V30 392 O 40.0687 -3.30269 -2.46974 0
M  V30 393 H 39.4097 -0.640281 -0.175887 0
M  V30 394 H 41.9397 -2.0442 0.0857224 0
M  V30 395 H 41.9497 -3.70331 -1.71228 0
M  V30 396 H 40.6247 -4.11036 -0.634218 0
M  V30 397 H 39.2017 -3.05841 -2.13344 0
M  V30 398 N 41.3868 0.248026 -1.55636 0
M  V30 399 C 42.6338 0.976224 -1.77415 0
M  V30 400 C 42.9618 1.85361 -0.589193 0
M  V30 401 O 42.2168 1.90973 0.427529 0
M  V30 402 C 42.5158 1.86819 -3.04686 0
M  V30 403 C 42.1818 1.14625 -4.36087 0
M  V30 404 C 40.8438 0.946723 -4.71795 0
M  V30 405 C 43.1958 0.634463 -5.17324 0
M  V30 406 C 40.5238 0.223091 -5.86276 0
M  V30 407 C 42.8758 -0.0756959 -6.32555 0
M  V30 408 C 41.5398 -0.286711 -6.66884 0
M  V30 409 H 40.8098 0.357226 -0.649208 0
M  V30 410 H 43.4568 0.246415 -1.89908 0
M  V30 411 H 41.7618 2.66502 -2.872 0
M  V30 412 H 43.4588 2.43329 -3.18735 0
M  V30 413 H 40.0488 1.3117 -4.08035 0
M  V30 414 H 44.2328 0.77616 -4.90193 0
M  V30 415 H 39.4888 0.0491185 -6.1138 0
M  V30 416 H 43.6628 -0.479899 -6.94745 0
M  V30 417 H 41.2898 -0.849389 -7.5544 0
M  V30 418 N 42.8649 1.48995 0.513639 0
M  V30 419 C 43.7949 1.67636 1.62544 0
M  V30 420 C 44.7759 0.525087 1.61793 0
M  V30 421 O 45.9609 0.759502 1.78732 0
M  V30 422 C 43.0909 1.73114 3.01079 0
M  V30 423 C 42.0449 2.87905 3.16693 0
M  V30 424 C 41.3709 2.78486 4.56453 0
M  V30 425 C 42.6709 4.29005 2.97913 0
M  V30 426 H 44.3649 2.60716 1.47198 0
M  V30 427 H 41.9109 1.25465 0.706714 0
M  V30 428 H 43.8639 1.84742 3.78746 0
M  V30 429 H 42.5879 0.766241 3.17484 0
M  V30 430 H 41.2469 2.75859 2.41448 0
M  V30 431 H 40.8949 1.7993 4.69717 0
M  V30 432 H 40.5949 3.55523 4.67843 0
M  V30 433 H 42.1189 2.92104 5.36197 0
M  V30 434 H 43.5329 4.41798 3.65359 0
M  V30 435 H 41.9299 5.07166 3.20785 0
M  V30 436 H 42.9999 4.44329 1.94165 0
M  V30 437 N 44.343 -0.763751 1.37857 0
M  V30 438 C 45.592 -1.51789 1.32827 0
M  V30 439 C 45.905 -1.95426 -0.0823719 0
M  V30 440 O 47.111 -2.70298 -0.255172 0
M  V30 441 C 45.567 -2.74133 2.33193 0
M  V30 442 C 45.175 -2.37562 3.79827 0
M  V30 443 C 46.919 -3.52054 2.37188 0
M  V30 444 C 44.826 -3.56456 4.71904 0
M  V30 445 H 43.756 -0.569896 0.493695 0
M  V30 446 H 46.407 -0.835822 1.63359 0
M  V30 447 H 44.789 -3.4427 1.9569 0
M  V30 448 H 45.963 -1.75157 4.26212 0
M  V30 449 H 44.278 -1.72798 3.78853 0
M  V30 450 H 46.875 -4.40437 3.03182 0
M  V30 451 H 47.218 -3.92486 1.38782 0
M  V30 452 H 47.751 -2.88921 2.7344 0
M  V30 453 H 44.49 -3.21099 5.71468 0
M  V30 454 H 44.01 -4.17938 4.30218 0
M  V30 455 H 45.689 -4.23168 4.89426 0
M  V30 456 N 45.8211 -1.22559 -0.990812 0
M  V30 457 C 47.0491 -1.07779 -1.76611 0
M  V30 458 C 47.4641 0.371513 -1.85109 0
M  V30 459 O 46.8211 1.25737 -1.32274 0
M  V30 460 C 46.8721 -1.68512 -3.19822 0
M  V30 461 O 46.5931 -3.07774 -3.1178 0
M  V30 462 C 48.0941 -1.59035 -4.13791 0
M  V30 463 H 45.3141 -0.377729 -0.554583 0
M  V30 464 H 47.8581 -1.62195 -1.24551 0
M  V30 465 H 46.0131 -1.18154 -3.68942 0
M  V30 466 H 46.4271 -3.37062 -4.01858 0
M  V30 467 H 47.9011 -2.0625 -5.1202 0
M  V30 468 H 48.3781 -0.547273 -4.35777 0
M  V30 469 H 48.9841 -2.08709 -3.70568 0
M  V30 470 N 47.2992 1.18797 -1.03562 0
M  V30 471 C 48.2292 2.24472 -0.643019 0
M  V30 472 C 49.2102 1.66433 0.351283 0
M  V30 473 O 50.3952 1.92803 0.232505 0
M  V30 474 C 47.5252 3.473 4.24935e-05 0
M  V30 475 C 46.4792 4.18055 -0.917257 0
M  V30 476 C 45.8052 5.34519 -0.138941 0
M  V30 477 C 47.1052 4.72109 -2.23407 0
M  V30 478 H 48.7992 2.57566 -1.52643 0
M  V30 479 H 46.3452 1.23806 -0.735394 0
M  V30 480 H 48.2982 4.20426 0.286383 0
M  V30 481 H 47.0222 3.13424 0.918299 0
M  V30 482 H 45.6812 3.46821 -1.1879 0
M  V30 483 H 45.3292 4.96891 0.781562 0
M  V30 484 H 45.0292 5.82794 -0.750005 0
M  V30 485 H 46.5532 6.10438 0.1405 0
M  V30 486 H 47.9672 5.36955 -2.00879 0
M  V30 487 H 46.3642 5.30897 -2.79765 0
M  V30 488 H 47.4342 3.89807 -2.88407 0
M  V30 489 N 48.7773 0.814389 1.34928 0
M  V30 490 C 49.6873 0.231978 2.3345 0
M  V30 491 C 50.7033 -0.629139 1.62228 0
M  V30 492 O 51.8793 -0.539052 1.94052 0
M  V30 493 C 48.9443 -0.603482 3.41407 0
M  V30 494 C 48.0053 0.279037 4.28392 0
M  V30 495 C 47.2383 -0.516643 5.31193 0
M  V30 496 O 47.4613 -1.75068 5.4287 0
M  V30 497 O 46.3953 0.0965652 6.01823 0
M  V30 498 H 50.2213 1.04721 2.85074 0
M  V30 499 H 47.8063 0.576343 1.37836 0
M  V30 500 H 49.6883 -1.07908 4.0735 0
M  V30 501 H 48.3633 -1.39618 2.92042 0
M  V30 502 H 47.2703 0.801948 3.65403 0
M  V30 503 H 48.6033 1.03588 4.81176 0
M  V30 504 N 50.2554 -1.46986 0.568584 0
M  V30 505 C 51.2024 -2.30153 -0.172707 0
M  V30 506 C 52.1724 -1.39759 -0.897586 0
M  V30 507 O 53.3574 -1.68716 -0.891044 0
M  V30 508 C 50.4974 -3.23952 -1.1895 0
M  V30 509 C 49.6104 -4.29441 -0.469517 0
M  V30 510 C 48.7454 -5.1038 -1.47259 0
M  V30 511 C 47.7844 -6.07632 -0.738225 0
M  V30 512 N 46.9214 -6.8149 -1.68868 0
M  V30 513 H 51.7614 -2.93019 0.542596 0
M  V30 514 H 49.2984 -1.44422 0.279401 0
M  V30 515 H 51.2564 -3.76767 -1.79173 0
M  V30 516 H 49.8864 -2.62926 -1.87269 0
M  V30 517 H 48.9384 -3.79594 0.247467 0
M  V30 518 H 50.2504 -4.98689 0.105241 0
M  V30 519 H 49.4044 -5.67402 -2.14803 0
M  V30 520 H 48.1434 -4.4106 -2.08128 0
M  V30 521 H 47.1484 -5.49778 -0.0489293 0
M  V30 522 H 48.3734 -6.78966 -0.135129 0
M  V30 523 H 46.3194 -6.14891 -2.28573 0
M  V30 524 H 46.2364 -7.46948 -1.16636 0
M  V30 525 H 47.5044 -7.43078 -2.3549 0
M  V30 526 N 51.7335 -0.305618 -1.54608 0
M  V30 527 C 53.1495 0.0476228 -1.59529 0
M  V30 528 C 53.3495 1.52025 -1.32252 0
M  V30 529 O 52.4055 2.27368 -1.09818 0
M  V30 530 C 53.7185 -0.354471 -2.98603 0
M  V30 531 C 55.2665 -0.303622 -3.11524 0
M  V30 532 C 55.7415 -0.680608 -4.52915 0
M  V30 533 N 57.2325 -0.63332 -4.5885 0
M  V30 534 C 57.9675 -0.897432 -5.66334 0
M  V30 535 N 57.4635 -1.22775 -6.81834 0
M  V30 536 N 59.2565 -0.824186 -5.56025 0
M  V30 537 H 51.4075 -1.2653 -1.70599 0
M  V30 538 H 53.6705 -0.513291 -0.797017 0
M  V30 539 H 53.3765 -1.3798 -3.23503 0
M  V30 540 H 53.2505 0.289568 -3.76087 0
M  V30 541 H 55.6375 0.712472 -2.8637 0
M  V30 542 H 55.7185 -0.982348 -2.36185 0
M  V30 543 H 55.3625 -1.69453 -4.78799 0
M  V30 544 H 55.2925 0.0202385 -5.26596 0
M  V30 545 H 57.7835 -0.389138 -3.75891 0
M  V30 546 H 58.0965 -1.41513 -7.59733 0
M  V30 547 H 56.4415 -1.26583 -6.83375 0
M  V30 548 H 59.6325 -0.565748 -4.64669 0
M  V30 549 H 59.8055 -1.03338 -6.39707 0
M  V30 550 N 53.2116 1.57565 -0.0334293 0
M  V30 551 C 54.4596 1.91598 0.642999 0
M  V30 552 C 54.7806 0.910847 1.7242 0
M  V30 553 O 54.0506 -0.0469931 1.95844 0
M  V30 554 H 52.6306 0.707228 0.240496 0
M  V30 555 H 55.2926 1.94726 -0.0822488 0
M  V30 556 H 54.3886 2.92336 1.09298 0
M  V30 557 N 54.6897 -0.239769 1.55765 0
M  V30 558 C 55.9197 -0.982743 1.8173 0
M  V30 559 C 56.3277 -1.7917 0.607835 0
M  V30 560 O 55.6707 -1.78525 -0.432973 0
M  V30 561 C 55.7327 -1.96332 3.01155 0
M  V30 562 C 55.3967 -1.34062 4.36894 0
M  V30 563 C 56.3937 -0.739539 5.14613 0
M  V30 564 C 54.0787 -1.35784 4.83599 0
M  V30 565 C 56.0727 -0.163989 6.37189 0
M  V30 566 C 53.7597 -0.778441 6.06122 0
M  V30 567 C 54.7577 -0.182548 6.82756 0
M  V30 568 O 54.4457 0.387887 8.02964 0
M  V30 569 H 54.1777 -0.294481 0.608487 0
M  V30 570 H 56.7317 -0.26572 2.03674 0
M  V30 571 H 54.9617 -2.71884 2.74984 0
M  V30 572 H 56.6507 -2.57032 3.14149 0
M  V30 573 H 57.4167 -0.718687 4.79646 0
M  V30 574 H 53.2957 -1.81105 4.23936 0
M  V30 575 H 56.8397 0.301753 6.96947 0
M  V30 576 H 52.7367 -0.796645 6.40565 0
M  V30 577 H 53.5047 0.28044 8.18019 0
M  V30 578 N 56.1678 -1.49265 -0.50573 0
M  V30 579 C 57.4138 -1.58748 -1.26202 0
M  V30 580 C 57.7468 -0.271227 -1.92297 0
M  V30 581 O 57.0218 0.724831 -1.80489 0
M  V30 582 C 57.3048 -2.74332 -2.33268 0
M  V30 583 C 57.1578 -4.15737 -1.71705 0
M  V30 584 C 58.4768 -2.85576 -3.34865 0
M  V30 585 H 55.5958 -0.577826 -0.457478 0
M  V30 586 H 58.2378 -1.81532 -0.560897 0
M  V30 587 H 56.3878 -2.55036 -2.93068 0
M  V30 588 H 58.0598 -4.46537 -1.15769 0
M  V30 589 H 56.3028 -4.21605 -1.02135 0
M  V30 590 H 56.9738 -4.92477 -2.49341 0
M  V30 591 H 59.4498 -3.03127 -2.8505 0
M  V30 592 H 58.3258 -3.68135 -4.07146 0
M  V30 593 H 58.5868 -1.94732 -3.96903 0
M  V30 594 N 57.6459 0.756429 -1.3826 0
M  V30 595 C 58.5929 1.87011 -1.35261 0
M  V30 596 C 59.5629 1.64695 -0.215616 0
M  V30 597 O 60.7479 1.864 -0.407399 0
M  V30 598 C 57.8879 3.24275 -1.18068 0
M  V30 599 C 57.0009 3.58442 -2.41129 0
M  V30 600 C 56.1359 4.84994 -2.16689 0
M  V30 601 C 55.1749 5.11939 -3.35537 0
M  V30 602 N 54.3119 6.29685 -3.10549 0
M  V30 603 H 59.1519 1.8891 -2.30472 0
M  V30 604 H 56.6889 0.923373 -1.14509 0
M  V30 605 H 58.6469 4.03479 -1.06116 0
M  V30 606 H 57.2769 3.21711 -0.264973 0
M  V30 607 H 56.3289 2.74103 -2.63764 0
M  V30 608 H 57.6409 3.74283 -3.29717 0
M  V30 609 H 56.7949 5.72135 -2.01857 0
M  V30 610 H 55.5339 4.71286 -1.25462 0
M  V30 611 H 54.5389 4.23268 -3.50891 0
M  V30 612 H 55.7639 5.27546 -4.27635 0
M  V30 613 H 53.7099 6.17306 -2.21967 0
M  V30 614 H 53.6269 6.46014 -3.92686 0
M  V30 615 H 54.8949 7.19722 -2.99367 0
M  V30 616 N 59.124 1.23083 0.984299 0
M  V30 617 C 60.087 1.00979 2.05757 0
M  V30 618 C 61.087 -0.0269573 1.60777 0
M  V30 619 O 62.277 0.212403 1.729 0
M  V30 620 C 59.409 0.527072 3.36801 0
M  V30 621 H 60.602 1.9622 2.26799 0
M  V30 622 H 58.155 1.05072 1.15714 0
M  V30 623 H 58.89 -0.429294 3.21446 0
M  V30 624 H 58.675 1.27515 3.70786 0
M  V30 625 H 60.165 0.392942 4.15747 0
M  V30 626 N 60.6021 -1.18246 1.0419 0
M  V30 627 C 61.8501 -1.87886 0.744543 0
M  V30 628 C 62.1711 -1.8082 -0.730006 0
M  V30 629 O 61.4411 -1.22736 -1.52685 0
M  V30 630 H 60.0211 -0.695556 0.272417 0
M  V30 631 H 62.6831 -1.43494 1.31892 0
M  V30 632 H 61.7791 -2.9389 1.05049 0
M  V30 633 N 62.0802 -0.821533 -1.34494 0
M  V30 634 C 63.0102 -0.257138 -2.3208 0
M  V30 635 C 63.9912 0.625645 -1.58176 0
M  V30 636 O 65.1762 0.552811 -1.86166 0
M  V30 637 C 62.3062 0.582958 -3.42372 0
M  V30 638 C 61.2602 -0.202571 -4.2752 0
M  V30 639 C 60.5862 0.760179 -5.29269 0
M  V30 640 C 61.8862 -1.40998 -5.02908 0
M  V30 641 H 63.5802 -1.07247 -2.79532 0
M  V30 642 H 61.1262 -0.517163 -1.34393 0
M  V30 643 H 63.0792 0.987972 -4.09655 0
M  V30 644 H 61.8032 1.43133 -2.93565 0
M  V30 645 H 60.4622 -0.588936 -3.61838 0
M  V30 646 H 60.1102 1.60447 -4.76724 0
M  V30 647 H 59.8102 0.238809 -5.87115 0
M  V30 648 H 61.3342 1.16308 -5.9942 0
M  V30 649 H 62.7482 -1.07905 -5.63054 0
M  V30 650 H 61.1452 -1.86689 -5.70322 0
M  V30 651 H 62.2152 -2.1889 -4.32684 0
M  V30 652 N 63.5583 1.46682 -0.576371 0
M  V30 653 C 64.8043 2.03287 -0.0679305 0
M  V30 654 C 65.1593 1.44063 1.27529 0
M  V30 655 O 64.4523 0.593973 1.82161 0
M  V30 656 C 64.6463 3.57345 0.062886 0
M  V30 657 C 64.4753 4.31509 -1.26611 0
M  V30 658 C 63.2453 4.70664 -1.83856 0
M  V30 659 C 65.4433 4.65444 -2.18783 0
M  V30 660 N 63.4253 5.29552 -3.10561 0
M  V30 661 C 64.7963 5.24835 -3.30072 0
M  V30 662 C 66.8513 4.47375 -2.18542 0
M  V30 663 C 65.5543 5.68063 -4.41244 0
M  V30 664 C 67.5803 4.91614 -3.28739 0
M  V30 665 C 66.9423 5.51071 -4.38748 0
M  V30 666 H 63.0413 0.779083 -0.0674836 0
M  V30 667 H 65.6253 1.78918 -0.767877 0
M  V30 668 H 63.7963 3.8144 0.731988 0
M  V30 669 H 65.5283 4.00592 0.575134 0
M  V30 670 H 62.2833 4.53224 -1.37424 0
M  V30 671 H 62.7073 5.63523 -3.75195 0
M  V30 672 H 67.3493 4.00747 -1.34765 0
M  V30 673 H 65.0673 6.13672 -5.25768 0
M  V30 674 H 68.6533 4.79389 -3.29662 0
M  V30 675 H 67.5333 5.84678 -5.22611 0
M  V30 676 N 65.0364 0.313813 1.54444 0
M  V30 677 C 66.2644 -0.293918 2.04802 0
M  V30 678 C 66.6794 -1.46537 1.19047 0
M  V30 679 O 66.0364 -1.81182 0.218939 0
M  V30 680 C 66.0874 -0.737806 3.53891 0
M  V30 681 O 65.8084 0.387038 4.36387 0
M  V30 682 C 67.3094 -1.40936 4.203 0
M  V30 683 H 64.5294 -0.0620057 0.668129 0
M  V30 684 H 67.0734 0.457169 1.99324 0
M  V30 685 H 65.2284 -1.43889 3.59687 0
M  V30 686 H 65.6424 0.0391274 5.24485 0
M  V30 687 H 67.1164 -1.67099 5.26101 0
M  V30 688 H 67.5934 -2.35355 3.70816 0
M  V30 689 H 68.1994 -0.751117 4.18615 0
M  V30 690 N 66.5145 -1.57545 0.0417849 0
M  V30 691 C 67.9255 -1.80011 -0.495259 0
M  V30 692 C 68.2765 -0.953199 -1.71489 0
M  V30 693 O 67.4015 -0.167138 -2.15754 0
M  V30 694 C 67.9965 -3.26482 -0.905265 0
M  V30 695 C 66.5555 -3.499 -1.38734 0
M  V30 696 C 65.7025 -2.74979 -0.358056 0
M  V30 697 H 68.6535 -1.56425 0.267736 0
M  V30 698 H 68.6745 -3.36887 -1.76882 0
M  V30 699 H 68.1865 -3.88096 -0.017401 0
M  V30 700 H 66.2875 -2.93553 -2.29471 0
M  V30 701 H 66.4005 -4.58615 -1.38598 0
M  V30 702 H 64.7645 -2.40834 -0.828912 0
M  V30 703 H 65.5475 -3.39315 0.521561 0
M  V30 704 N 67.9926 0.231505 -1.5589 0
M  V30 705 C 68.9026 1.308 -1.94752 0
M  V30 706 C 69.9186 1.51826 -0.849989 0
M  V30 707 O 71.0946 1.6515 -1.15271 0
M  V30 708 C 68.1596 2.63968 -2.24771 0
M  V30 709 C 67.2206 2.51331 -3.48039 0
M  V30 710 C 66.4536 3.78148 -3.76616 0
M  V30 711 O 66.6766 4.80722 -3.07022 0
M  V30 712 O 65.6106 3.75857 -4.70123 0
M  V30 713 H 69.4366 1.0083 -2.86474 0
M  V30 714 H 67.0216 0.433547 -1.42971 0
M  V30 715 H 68.9036 3.42633 -2.45318 0
M  V30 716 H 67.5786 2.9364 -1.36225 0
M  V30 717 H 66.4856 1.709 -3.32782 0
M  V30 718 H 67.8186 2.26601 -4.36936 0
M  V30 719 N 69.4707 1.49531 0.497807 0
M  V30 720 C 70.4337 1.65916 1.58128 0
M  V30 721 C 71.4337 0.530825 1.51786 0
M  V30 722 O 72.6237 0.797342 1.54881 0
M  V30 723 C 69.7557 1.65951 2.9778 0
M  V30 724 H 70.9487 2.62556 1.44929 0
M  V30 725 H 68.5017 1.38611 0.722275 0
M  V30 726 H 69.2367 0.709065 3.16453 0
M  V30 727 H 69.0217 2.47897 3.03792 0
M  V30 728 H 70.5117 1.80673 3.76493 0
M  V30 729 N 70.9488 -0.749086 1.3866 0
M  V30 730 C 72.1948 -1.51056 1.35314 0
M  V30 731 C 72.5278 -1.94121 -0.0553751 0
M  V30 732 O 71.8028 -1.65763 -1.01749 0
M  V30 733 C 72.0858 -2.76003 2.31288 0
M  V30 734 C 71.9388 -2.39047 3.8102 0
M  V30 735 C 73.2578 -3.78046 2.2532 0
M  V30 736 H 70.3768 -0.547972 0.492844 0
M  V30 737 H 73.0188 -0.857628 1.69543 0
M  V30 738 H 71.1688 -3.31716 2.02229 0
M  V30 739 H 72.8408 -1.89074 4.20771 0
M  V30 740 H 71.0838 -1.71449 3.98482 0
M  V30 741 H 71.7548 -3.28462 4.4364 0
M  V30 742 H 74.2308 -3.31884 2.50983 0
M  V30 743 H 73.1068 -4.63159 2.94576 0
M  V30 744 H 73.3678 -4.23957 1.25352 0
M  V30 745 N 72.4269 -1.23603 -0.977757 0
M  V30 746 C 73.6759 -1.06377 -1.71368 0
M  V30 747 C 73.9889 0.399062 -1.91486 0
M  V30 748 O 75.1949 0.691312 -2.62551 0
M  V30 749 C 73.6509 -1.85512 -3.08404 0
M  V30 750 C 73.2589 -3.36141 -2.96164 0
M  V30 751 C 75.0029 -1.76783 -3.85938 0
M  V30 752 C 72.9099 -4.07659 -4.28449 0
M  V30 753 H 71.8399 -0.394452 -0.642591 0
M  V30 754 H 74.4909 -1.47594 -1.09034 0
M  V30 755 H 72.8729 -1.37103 -3.71509 0
M  V30 756 H 74.0469 -3.92056 -2.42133 0
M  V30 757 H 72.3619 -3.45712 -2.32104 0
M  V30 758 H 74.9589 -2.27526 -4.83876 0
M  V30 759 H 75.3019 -0.731116 -4.0983 0
M  V30 760 H 75.8349 -2.22818 -3.2954 0
M  V30 761 H 72.5739 -5.11648 -4.09752 0
M  V30 762 H 72.0939 -3.5653 -4.82334 0
M  V30 763 H 73.7729 -4.141 -4.97122 0
M  V30 764 N 73.905 1.17692 -1.04816 0
M  V30 765 C 74.815 2.25229 -0.65643 0
M  V30 766 C 75.831 1.71018 0.320761 0
M  V30 767 O 77.007 2.00649 0.173805 0
M  V30 768 C 74.072 3.46684 -0.0332629 0
M  V30 769 C 73.133 4.15997 -1.06042 0
M  V30 770 C 72.366 5.31654 -0.466893 0
M  V30 771 O 72.589 5.65777 0.724758 0
M  V30 772 O 71.523 5.89831 -1.1993 0
M  V30 773 H 75.349 2.61016 -1.55255 0
M  V30 774 H 72.934 1.24919 -0.81949 0
M  V30 775 H 74.816 4.20234 0.313256 0
M  V30 776 H 73.491 3.12703 0.836566 0
M  V30 777 H 72.398 3.44482 -1.45886 0
M  V30 778 H 73.731 4.53996 -1.90127 0
M  V30 779 N 75.3831 0.828654 1.34056 0
M  V30 780 C 76.3331 0.226828 2.26869 0
M  V30 781 C 77.3171 -0.612243 1.48796 0
M  V30 782 O 78.5091 -0.465884 1.70759 0
M  V30 783 C 75.6381 -0.605654 3.37915 0
M  V30 784 C 74.7241 0.244361 4.23395 0
M  V30 785 N 75.1151 1.31815 4.88322 0
M  V30 786 C 73.4131 0.0296616 4.4599 0
M  V30 787 C 74.1141 1.83895 5.51867 0
M  V30 788 N 73.0901 1.14196 5.3147 0
M  V30 789 H 76.8921 1.04811 2.74576 0
M  V30 790 H 74.4061 0.67205 1.47842 0
M  V30 791 H 76.4031 -1.05302 4.03382 0
M  V30 792 H 75.0631 -1.42504 2.91758 0
M  V30 793 H 76.0741 1.70099 4.8917 0
M  V30 794 H 72.7511 -0.757097 4.10578 0
M  V30 795 H 74.1411 2.7376 6.136 0
M  V30 796 N 76.8612 -1.46375 0.584142 0
M  V30 797 C 78.2722 -1.86031 0.157959 0
M  V30 798 C 78.6232 -1.48753 -1.27933 0
M  V30 799 O 77.7482 -0.903098 -1.96655 0
M  V30 800 C 78.3432 -3.37642 0.279892 0
M  V30 801 C 76.9022 -3.76289 -0.09143 0
M  V30 802 C 76.0492 -2.7039 0.615178 0
M  V30 803 H 79.0002 -1.37509 0.792274 0
M  V30 804 H 79.0212 -3.77275 -0.494364 0
M  V30 805 H 78.5332 -3.64742 1.32607 0
M  V30 806 H 76.6342 -3.54806 -1.13769 0
M  V30 807 H 76.7472 -4.78246 0.285886 0
M  V30 808 H 75.1112 -2.5464 0.0552833 0
M  V30 809 H 75.8942 -3.0033 1.66303 0
M  V30 810 N 78.3393 -0.321999 -1.54275 0
M  V30 811 C 79.6163 0.335232 -1.92706 0
M  V30 812 C 79.9963 1.70006 -1.25145 0
M  V30 813 O 79.3443 2.25067 -0.394596 0
M  V30 814 C 79.5543 0.429008 -3.46353 0
M  V30 815 C 80.9023 0.690029 -4.18956 0
M  V30 816 O 81.9263 0.511992 -3.52501 0
M  V30 817 O 80.7853 1.03338 -5.36641 0
M  V30 818 H 77.8793 0.191143 -0.804608 0
M  V30 819 H 80.4253 -0.3716 -1.65581 0
M  V30 820 H 79.1973 -0.529611 -3.87699 0
M  V30 821 H 78.8203 1.18348 -3.79578 0
M  V30 822 N 79.8174 1.5752 -0.0501392 0
M  V30 823 C 80.7804 2.1037 0.909786 0
M  V30 824 C 81.7804 1.02308 1.24056 0
M  V30 825 O 82.9704 1.28385 1.17741 0
M  V30 826 C 80.1024 2.58708 2.21998 0
M  V30 827 H 81.2954 2.96479 0.451665 0
M  V30 828 H 78.8484 1.55038 0.198248 0
M  V30 829 H 79.5834 1.75989 2.72394 0
M  V30 830 H 79.3684 3.37675 1.99295 0
M  V30 831 H 80.8584 2.99747 2.9076 0
M  V30 832 N 81.2955 -0.223234 1.56011 0
M  V30 833 C 82.5415 -0.949279 1.79211 0
M  V30 834 C 82.8745 -1.84054 0.619494 0
M  V30 835 O 82.1495 -1.90726 -0.381317 0
M  V30 836 C 82.4325 -1.78965 3.12479 0
M  V30 837 C 82.2855 -0.924997 4.40186 0
M  V30 838 C 83.6045 -2.76774 3.42175 0
M  V30 839 H 80.7235 -0.343676 0.651963 0
M  V30 840 H 83.3655 -0.218253 1.88742 0
M  V30 841 H 81.5155 -2.41291 3.04485 0
M  V30 842 H 83.1875 -0.318615 4.60198 0
M  V30 843 H 81.4305 -0.230344 4.33188 0
M  V30 844 H 82.1015 -1.54735 5.29869 0
M  V30 845 H 84.5775 -2.24584 3.50287 0
M  V30 846 H 83.4535 -3.32678 4.36597 0
M  V30 847 H 83.7145 -3.54429 2.64258 0
M  V30 848 N 82.7736 -1.49793 -0.48987 0
M  V30 849 C 84.1896 -1.36803 -0.822022 0
M  V30 850 C 84.3896 -0.409652 -1.97292 0
M  V30 851 O 83.4456 0.154614 -2.52026 0
M  V30 852 C 84.7586 -2.77768 -1.15175 0
M  V30 853 C 86.3066 -2.86549 -1.25931 0
M  V30 854 C 86.7816 -4.28306 -1.62228 0
M  V30 855 N 88.2726 -4.31169 -1.69256 0
M  V30 856 C 89.0076 -5.37832 -1.98807 0
M  V30 857 N 88.5036 -6.54726 -2.26507 0
M  V30 858 N 90.2966 -5.25258 -2.00152 0
M  V30 859 H 82.4476 -2.10691 0.268881 0
M  V30 860 H 84.7106 -0.946241 0.057728 0
M  V30 861 H 84.4166 -3.49648 -0.379335 0
M  V30 862 H 84.2906 -3.13836 -2.09253 0
M  V30 863 H 86.6776 -2.14899 -2.02243 0
M  V30 864 H 86.7586 -2.54049 -0.298776 0
M  V30 865 H 86.4026 -5.00486 -0.864622 0
M  V30 866 H 86.3326 -4.58279 -2.594 0
M  V30 867 H 88.8236 -3.4687 -1.49965 0
M  V30 868 H 89.1366 -7.31833 -2.48276 0
M  V30 869 H 87.4816 -6.57933 -2.23939 0
M  V30 870 H 90.6726 -4.32938 -1.77996 0
M  V30 871 H 90.8456 -6.08476 -2.22848 0
M  V30 872 N 84.2517 0.741722 -1.39055 0
M  V30 873 C 85.1837 1.8657 -1.33133 0
M  V30 874 C 86.1967 1.61001 -0.241329 0
M  V30 875 O 87.3857 1.7136 -0.499784 0
M  V30 876 C 84.4857 3.22457 -1.04283 0
M  V30 877 C 83.6587 3.75435 -2.24427 0
M  V30 878 C 82.7177 4.89867 -1.92138 0
M  V30 879 O 81.7437 5.03879 -2.64754 0
M  V30 880 N 82.9457 5.73738 -0.88347 0
M  V30 881 H 85.7107 1.92156 -2.29991 0
M  V30 882 H 83.2717 0.922172 -1.3307 0
M  V30 883 H 85.2637 3.9657 -0.807128 0
M  V30 884 H 83.8337 3.12181 -0.161807 0
M  V30 885 H 83.0537 2.92751 -2.6399 0
M  V30 886 H 84.3417 4.07563 -3.04581 0
M  V30 887 H 83.7397 5.64999 -0.281517 0
M  V30 888 H 82.2967 6.47947 -0.707662 0
M  V30 889 N 85.7298 1.2412 0.971189 0
M  V30 890 C 86.6598 1.05508 2.08304 0
M  V30 891 C 87.6408 -0.0308864 1.70072 0
M  V30 892 O 88.8258 0.135521 1.93727 0
M  V30 893 C 85.9558 0.655365 3.4106 0
M  V30 894 C 84.9098 1.68971 3.93234 0
M  V30 895 C 84.2358 1.14516 5.22293 0
M  V30 896 C 85.5358 3.08487 4.21465 0
M  V30 897 H 87.2298 1.98507 2.24132 0
M  V30 898 H 84.7758 0.955821 1.07704 0
M  V30 899 H 86.7288 0.51217 4.18276 0
M  V30 900 H 85.4528 -0.31032 3.25122 0
M  V30 901 H 84.1118 1.82106 3.18171 0
M  V30 902 H 83.7598 0.170189 5.02712 0
M  V30 903 H 83.4598 1.83635 5.58168 0
M  V30 904 H 84.9838 1.01401 6.02121 0
M  V30 905 H 86.3978 2.98601 4.89398 0
M  V30 906 H 84.7948 3.74926 4.68562 0
M  V30 907 H 85.8648 3.56787 3.28376 0
M  V30 908 N 87.2079 -1.17134 1.05439 0
M  V30 909 C 88.1579 -2.1919 0.627675 0
M  V30 910 C 89.1419 -1.57328 -0.337147 0
M  V30 911 O 90.3339 -1.76329 -0.153976 0
M  V30 912 C 87.4629 -3.43299 0.00651435 0
M  V30 913 C 86.5489 -4.12255 0.995312 0
M  V30 914 N 86.9399 -4.56997 2.16765 0
M  V30 915 C 85.2379 -4.38316 0.824336 0
M  V30 916 C 85.9389 -5.10239 2.7934 0
M  V30 917 N 84.9149 -5.02595 2.07122 0
M  V30 918 H 88.7169 -2.5149 1.52086 0
M  V30 919 H 86.2309 -1.33491 0.924868 0
M  V30 920 H 88.2279 -4.15693 -0.316965 0
M  V30 921 H 86.8879 -3.1249 -0.882033 0
M  V30 922 H 87.8989 -4.51006 2.54587 0
M  V30 923 H 84.5759 -4.17498 -0.0129526 0
M  V30 924 H 85.9659 -5.54961 3.78772 0
M  V30 925 N 88.686 -0.835752 -1.33615 0
M  V30 926 C 89.619 -0.211815 -2.27215 0
M  V30 927 C 90.597 0.639249 -1.49507 0
M  V30 928 O 91.781 0.600193 -1.78689 0
M  V30 929 C 88.908 0.702893 -3.31326 0
M  V30 930 C 87.954 -0.0723049 -4.26439 0
M  V30 931 S 88.787 -1.42811 -5.16106 0
M  V30 932 C 89.943 -0.518613 -6.23748 0
M  V30 933 H 90.176 -1.00533 -2.79786 0
M  V30 934 H 87.709 -0.632336 -1.40858 0
M  V30 935 H 89.667 1.22505 -3.91794 0
M  V30 936 H 88.328 1.47004 -2.77576 0
M  V30 937 H 87.521 0.62359 -5.00127 0
M  V30 938 H 87.123 -0.525424 -3.70291 0
M  V30 939 H 89.415 0.284778 -6.76901 0
M  V30 940 H 90.358 -1.22556 -6.97413 0
M  V30 941 H 90.766 -0.101344 -5.64409 0
M  V30 942 N 90.1641 1.46063 -0.591896 0
M  V30 943 C 91.0741 2.34192 0.13831 0
M  V30 944 C 92.0901 1.50305 0.876608 0
M  V30 945 O 93.2661 1.8315 0.837728 0
M  V30 946 C 90.3311 3.27656 1.13326 0
M  V30 947 C 89.3921 4.27445 0.39863 0
M  V30 948 C 88.6251 5.16443 1.34618 0
M  V30 949 O 88.8481 5.08553 2.58321 0
M  V30 950 O 87.7821 5.95843 0.851768 0
M  V30 951 H 91.6081 2.98002 -0.58552 0
M  V30 952 H 89.1931 1.45188 -0.352239 0
M  V30 953 H 91.0751 3.85291 1.70671 0
M  V30 954 H 89.7501 2.6643 1.83839 0
M  V30 955 H 88.6571 3.73471 -0.216895 0
M  V30 956 H 89.9901 4.91482 -0.265709 0
M  V30 957 N 91.6422 0.330177 1.54103 0
M  V30 958 C 92.8892 -0.270405 2.00686 0
M  V30 959 C 93.2172 -1.51621 1.21825 0
M  V30 960 O 92.4722 -1.93536 0.29025 0
M  V30 961 C 92.7712 -0.643134 3.51566 0
M  V30 962 C 92.4372 0.504251 4.48072 0
M  V30 963 C 91.0992 0.819163 4.74176 0
M  V30 964 C 93.4512 1.27465 5.05373 0
M  V30 965 C 90.7792 1.90708 5.5484 0
M  V30 966 C 93.1312 2.35271 5.87223 0
M  V30 967 C 91.7952 2.67336 6.11627 0
M  V30 968 H 91.0652 -0.0989482 0.734364 0
M  V30 969 H 93.7122 0.455324 1.86008 0
M  V30 970 H 92.0172 -1.44938 3.64006 0
M  V30 971 H 93.7142 -1.11949 3.85056 0
M  V30 972 H 90.3042 0.248733 4.27878 0
M  V30 973 H 94.4882 1.04462 4.85182 0
M  V30 974 H 89.7442 2.15991 5.71977 0
M  V30 975 H 93.9182 2.95405 6.30641 0
M  V30 976 H 91.5452 3.51763 6.73919 0
M  V30 977 N 93.1203 -1.57491 0.0584922 0
M  V30 978 C 94.0503 -2.14988 -0.911178 0
M  V30 979 C 95.0313 -1.07343 -1.31952 0
M  V30 980 O 96.2163 -1.35318 -1.39294 0
M  V30 981 C 93.3463 -2.70078 -2.18347 0
M  V30 982 C 92.3003 -3.82771 -1.91495 0
M  V30 983 C 91.6263 -4.24408 -3.25241 0
M  V30 984 C 92.9263 -5.07592 -1.23075 0
M  V30 985 H 94.6203 -2.96263 -0.432246 0
M  V30 986 H 92.1663 -1.42512 -0.206469 0
M  V30 987 H 94.1193 -3.08943 -2.86587 0
M  V30 988 H 92.8433 -1.86005 -2.68458 0
M  V30 989 H 91.5023 -3.44389 -1.25664 0
M  V30 990 H 91.1503 -3.37275 -3.73168 0
M  V30 991 H 90.8503 -5.00366 -3.08071 0
M  V30 992 H 92.3743 -4.65879 -3.94701 0
M  V30 993 H 93.7883 -5.43857 -1.81362 0
M  V30 994 H 92.1853 -5.88741 -1.16207 0
M  V30 995 H 93.2553 -4.84454 -0.207847 0
M  V30 996 N 94.5984 0.214957 -1.56127 0
M  V30 997 C 96.0144 0.564948 -1.49267 0
M  V30 998 C 96.2144 1.86827 -0.754838 0
M  V30 999 O 95.2704 2.50745 -0.297198 0
M  V30 1000 C 96.5834 0.638071 -2.93852 0
M  V30 1001 C 98.1314 0.728253 -3.0441 0
M  V30 1002 C 98.6064 0.832663 -4.50367 0
M  V30 1003 N 100.097 0.896712 -4.54437 0
M  V30 1004 C 100.832 0.997324 -5.6466 0
M  V30 1005 N 100.328 1.06147 -6.8462 0
M  V30 1006 N 102.121 1.03297 -5.52527 0
M  V30 1007 H 94.2724 -0.640211 -2.02522 0
M  V30 1008 H 96.5354 -0.225507 -0.920788 0
M  V30 1009 H 96.2414 -0.250126 -3.50809 0
M  V30 1010 H 96.1154 1.49947 -3.46115 0
M  V30 1011 H 98.5024 1.60689 -2.47514 0
M  V30 1012 H 98.5834 -0.158952 -2.55306 0
M  V30 1013 H 98.2274 -0.0415417 -5.07883 0
M  V30 1014 H 98.1574 1.73538 -4.97184 0
M  V30 1015 H 100.648 0.857188 -3.6805 0
M  V30 1016 H 100.961 1.1382 -7.64372 0
M  V30 1017 H 99.3064 1.03049 -6.87318 0
M  V30 1018 H 102.497 0.979558 -4.57736 0
M  V30 1019 H 102.67 1.10793 -6.38458 0
M  V30 1020 N 96.0765 1.50051 0.48192 0
M  V30 1021 C 97.0395 1.67584 1.5636 0
M  V30 1022 C 98.0395 0.546894 1.51214 0
M  V30 1023 O 99.2295 0.813725 1.54026 0
M  V30 1024 C 96.3615 1.691 2.96003 0
M  V30 1025 H 97.5545 2.64078 1.42136 0
M  V30 1026 H 95.1075 1.39369 0.707533 0
M  V30 1027 H 95.8425 0.742589 3.15684 0
M  V30 1028 H 95.6275 2.51105 3.01146 0
M  V30 1029 H 97.1175 1.84656 3.74556 0
M  V30 1030 N 97.5546 -0.734337 1.39446 0
M  V30 1031 C 98.8026 -1.49096 1.36436 0
M  V30 1032 C 99.1236 -1.94961 -0.0388255 0
M  V30 1033 O 98.3936 -1.69033 -0.990191 0
M  V30 1034 H 96.9736 -0.5531 0.502085 0
M  V30 1035 H 99.6356 -0.871725 1.74319 0
M  V30 1036 H 98.7316 -2.37276 2.02747 0
M  V30 1037 N 99.0327 -1.24633 -0.964593 0
M  V30 1038 C 100.258 -1.11596 -1.74818 0
M  V30 1039 C 100.683 0.32723 -1.85232 0
M  V30 1040 O 100.041 1.23695 -1.32549 0
M  V30 1041 C 100.089 -1.76397 -3.1451 0
M  V30 1042 O 99.1927 -1.03685 -3.99153 0
M  V30 1043 H 98.5337 -0.390196 -0.537255 0
M  V30 1044 H 101.064 -1.65002 -1.20977 0
M  V30 1045 H 101.074 -1.8228 -3.65018 0
M  V30 1046 H 99.7487 -2.81401 -3.06246 0
M  V30 1047 H 98.3257 -1.05611 -3.57632 0
M  V30 1048 N 100.511 1.16574 -1.06058 0
M  V30 1049 C 101.459 2.22941 -0.663343 0
M  V30 1050 C 102.453 1.66358 0.319593 0
M  V30 1051 O 103.659 1.7905 0.184713 0
M  V30 1052 H 100.034 0.725907 -0.196376 0
M  V30 1053 H 102.005 2.53736 -1.57037 0
M  V30 1054 C 100.754 3.47642 -0.0632808 0
M  V30 1055 H 100.077 3.91493 -0.810733 0
M  V30 1056 H 101.517 4.2363 0.177177 0
M  V30 1057 C 99.9758 3.1509 1.19248 0
M  V30 1058 O 100.506 3.30673 2.28075 0
M  V30 1059 N 98.7118 2.6924 1.09353 0
M  V30 1060 H 98.2588 2.5676 0.207912 0
M  V30 1061 H 98.2168 2.47833 1.93458 0
M  V30 1062 N 101.989 0.842826 1.3317 0
M  V30 1063 C 103.235 0.441099 1.97945 0
M  V30 1064 C 103.568 -0.998024 1.66593 0
M  V30 1065 O 102.843 -1.69839 0.947898 0
M  V30 1066 C 103.126 0.666841 3.53872 0
M  V30 1067 C 102.979 2.15352 3.94897 0
M  V30 1068 C 104.298 0.115544 4.39948 0
M  V30 1069 H 101.417 0.161739 0.719034 0
M  V30 1070 H 104.059 1.05907 1.57746 0
M  V30 1071 H 102.209 0.140828 3.88245 0
M  V30 1072 H 103.881 2.7447 3.70761 0
M  V30 1073 H 102.124 2.63653 3.44484 0
M  V30 1074 H 102.795 2.26221 5.03516 0
M  V30 1075 H 105.271 0.565213 4.12243 0
M  V30 1076 H 104.147 0.303152 5.48062 0
M  V30 1077 H 104.408 -0.980935 4.3108 0
M  V30 1078 N 103.467 -1.45747 0.599634 0
M  V30 1079 C 104.4 -2.27547 -0.172552 0
M  V30 1080 C 105.378 -1.36657 -0.881116 0
M  V30 1081 O 106.562 -1.66081 -0.891595 0
M  V30 1082 C 103.689 -3.14829 -1.24903 0
M  V30 1083 C 102.735 -4.21603 -0.644465 0
M  V30 1084 S 103.568 -5.32754 0.541606 0
M  V30 1085 C 104.724 -6.23604 -0.535656 0
M  V30 1086 H 104.957 -2.92691 0.521468 0
M  V30 1087 H 102.49 -1.49473 0.386947 0
M  V30 1088 H 104.448 -3.65675 -1.86527 0
M  V30 1089 H 103.109 -2.48965 -1.91508 0
M  V30 1090 H 102.302 -4.82566 -1.45417 0
M  V30 1091 H 101.904 -3.73857 -0.103534 0
M  V30 1092 H 104.196 -6.62519 -1.41686 0
M  V30 1093 H 105.139 -7.0809 0.0376246 0
M  V30 1094 H 105.547 -5.58103 -0.84741 0
M  V30 1095 N 104.945 -0.338344 -1.53925 0
M  V30 1096 C 105.877 0.555117 -2.22376 0
M  V30 1097 C 106.89 1.06812 -1.22862 0
M  V30 1098 O 108.079 0.979163 -1.49247 0
M  V30 1099 C 105.179 1.77609 -2.88631 0
M  V30 1100 C 104.352 1.39927 -4.14414 0
M  V30 1101 C 103.411 2.47936 -4.64127 0
M  V30 1102 O 102.437 2.11461 -5.28463 0
M  V30 1103 N 103.639 3.79107 -4.39612 0
M  V30 1104 H 106.404 -0.0310778 -2.99684 0
M  V30 1105 H 103.965 -0.162226 -1.61085 0
M  V30 1106 H 105.957 2.49287 -3.18807 0
M  V30 1107 H 104.527 2.26978 -2.14941 0
M  V30 1108 H 103.747 0.513481 -3.90841 0
M  V30 1109 H 105.035 1.12341 -4.96243 0
M  V30 1110 H 104.433 4.11531 -3.88148 0
M  V30 1111 H 102.99 4.4697 -4.74406 0
M  V30 1112 N 106.423 1.57458 -0.0668435 0
M  V30 1113 C 107.651 1.97624 0.612565 0
M  V30 1114 C 108.066 0.94502 1.63447 0
M  V30 1115 O 107.423 -0.0689276 1.8237 0
M  V30 1116 C 107.474 3.37869 1.28555 0
M  V30 1117 O 107.195 4.3704 0.304557 0
M  V30 1118 C 108.696 3.92882 2.05325 0
M  V30 1119 H 105.916 0.650045 0.166381 0
M  V30 1120 H 108.46 2.04035 -0.137782 0
M  V30 1121 H 106.615 3.3256 1.98702 0
M  V30 1122 H 107.029 5.18565 0.786779 0
M  V30 1123 H 108.503 4.93247 2.47812 0
M  V30 1124 H 108.98 3.29156 2.9078 0
M  V30 1125 H 109.586 4.01577 1.40056 0
M  V30 1126 N 107.901 -0.206675 1.56239 0
M  V30 1127 C 109.148 -0.928842 1.79941 0
M  V30 1128 C 109.476 -1.83734 0.638131 0
M  V30 1129 O 108.731 -1.92039 -0.376746 0
M  V30 1130 C 109.03 -1.78675 3.09532 0
M  V30 1131 C 108.696 -1.03022 4.38973 0
M  V30 1132 C 107.358 -0.821302 4.74139 0
M  V30 1133 C 109.71 -0.497081 5.18824 0
M  V30 1134 C 107.038 -0.0675719 5.86661 0
M  V30 1135 C 109.39 0.24338 6.32132 0
M  V30 1136 C 108.054 0.463422 6.65889 0
M  V30 1137 H 107.324 -0.339887 0.658451 0
M  V30 1138 H 109.971 -0.195977 1.90495 0
M  V30 1139 H 108.276 -2.58794 2.94165 0
M  V30 1140 H 109.973 -2.34792 3.25075 0
M  V30 1141 H 106.563 -1.20306 4.11369 0
M  V30 1142 H 110.747 -0.645921 4.92079 0
M  V30 1143 H 106.003 0.112995 6.11296 0
M  V30 1144 H 110.177 0.66393 6.93228 0
M  V30 1145 H 107.804 1.04938 7.52922 0
M  V30 1146 N 109.379 -1.50304 -0.473955 0
M  V30 1147 C 110.607 -1.64902 -1.24959 0
M  V30 1148 C 111.022 -0.331198 -1.85872 0
M  V30 1149 O 110.379 0.68652 -1.69095 0
M  V30 1150 C 110.43 -2.73803 -2.36038 0
M  V30 1151 O 110.151 -4.00477 -1.77624 0
M  V30 1152 C 111.652 -2.99349 -3.26964 0
M  V30 1153 H 108.872 -0.554383 -0.378022 0
M  V30 1154 H 111.416 -1.9651 -0.566054 0
M  V30 1155 H 109.571 -2.44898 -3.00173 0
M  V30 1156 H 109.985 -4.60678 -2.5075 0
M  V30 1157 H 111.459 -3.79217 -4.01121 0
M  V30 1158 H 111.936 -2.10307 -3.85574 0
M  V30 1159 H 112.542 -3.29774 -2.68569 0
M  V30 1160 N 110.857 0.726932 -1.39834 0
M  V30 1161 C 112.104 1.48664 -1.37496 0
M  V30 1162 C 112.432 1.94482 0.0264678 0
M  V30 1163 O 111.687 1.67692 1.00886 0
M  V30 1164 C 111.986 2.73495 -2.30077 0
M  V30 1165 C 111.652 2.46502 -3.77555 0
M  V30 1166 C 110.314 2.3885 -4.17737 0
M  V30 1167 C 112.666 2.23604 -4.70798 0
M  V30 1168 C 109.994 2.06352 -5.49214 0
M  V30 1169 C 112.346 1.92622 -6.02561 0
M  V30 1170 C 111.01 1.83444 -6.41798 0
M  V30 1171 H 110.28 0.544001 -0.503135 0
M  V30 1172 H 112.927 0.833657 -1.72402 0
M  V30 1173 H 111.232 3.43575 -1.88317 0
M  V30 1174 H 112.929 3.31549 -2.25558 0
M  V30 1175 H 109.519 2.5334 -3.45712 0
M  V30 1176 H 113.703 2.28479 -4.40581 0
M  V30 1177 H 108.959 1.97776 -5.78528 0
M  V30 1178 H 113.133 1.73914 -6.74334 0
M  V30 1179 H 110.76 1.58029 -7.43593 0
M  V30 1180 N 112.336 1.25143 0.95797 0
M  V30 1181 C 113.561 1.12521 1.74223 0
M  V30 1182 C 113.986 -0.317402 1.85403 0
M  V30 1183 O 113.344 -1.2299 1.33204 0
M  V30 1184 C 113.392 1.78062 3.1357 0
M  V30 1185 O 112.496 1.058 3.98598 0
M  V30 1186 H 111.837 0.39304 0.535178 0
M  V30 1187 H 114.367 1.65641 1.201 0
M  V30 1188 H 114.377 1.84213 3.64046 0
M  V30 1189 H 113.052 2.83021 3.04749 0
M  V30 1190 H 111.629 1.07506 3.57067 0
M  V30 1191 N 113.814 -1.1601 1.06675 0
M  V30 1192 C 114.777 -2.18724 0.685001 0
M  V30 1193 C 115.777 -1.58496 -0.271246 0
M  V30 1194 O 116.967 -1.74119 -0.0531156 0
M  V30 1195 C 114.099 -3.40899 0.00853648 0
M  V30 1196 H 115.292 -2.54011 1.59431 0
M  V30 1197 H 112.845 -1.30352 0.862441 0
M  V30 1198 H 113.58 -3.11173 -0.913337 0
M  V30 1199 H 113.365 -3.8587 0.696204 0
M  V30 1200 H 114.855 -4.16886 -0.24414 0
M  V30 1201 N 115.292 -0.849877 -1.32721 0
M  V30 1202 C 116.517 -0.463856 -2.02146 0
M  V30 1203 C 116.942 0.930449 -1.63476 0
M  V30 1204 O 116.3 1.61033 -0.832952 0
M  V30 1205 C 116.348 -0.604955 -3.55489 0
M  V30 1206 O 115.452 0.36425 -4.10788 0
M  V30 1207 H 114.793 -0.187046 -0.637111 0
M  V30 1208 H 117.323 -1.14775 -1.69375 0
M  V30 1209 H 117.333 -0.490696 -4.05038 0
M  V30 1210 H 116.008 -1.62174 -3.82978 0
M  V30 1211 H 114.585 0.206628 -3.72327 0
M  V30 1212 N 116.77 1.45427 -0.607355 0
M  V30 1213 C 117.68 2.34325 0.113463 0
M  V30 1214 C 118.696 1.51226 0.860617 0
M  V30 1215 O 119.872 1.84029 0.818255 0
M  V30 1216 C 116.937 3.28839 1.09844 0
M  V30 1217 C 115.998 4.27844 0.353271 0
M  V30 1218 C 115.231 5.17842 1.29133 0
M  V30 1219 O 115.454 5.11264 2.52913 0
M  V30 1220 O 114.388 5.96713 0.788523 0
M  V30 1221 H 118.214 2.97364 -0.617094 0
M  V30 1222 H 115.799 1.44807 -0.367619 0
M  V30 1223 H 117.681 3.8708 1.66575 0
M  V30 1224 H 116.356 2.68365 1.81003 0
M  V30 1225 H 115.263 3.7322 -0.256494 0
M  V30 1226 H 116.596 4.91173 -0.317822 0
M  V30 1227 N 118.248 0.346503 1.53744 0
M  V30 1228 C 119.525 -0.304532 1.93215 0
M  V30 1229 C 119.905 -1.67993 1.27834 0
M  V30 1230 O 119.253 -2.24411 0.430352 0
M  V30 1231 C 119.463 -0.373852 3.46992 0
M  V30 1232 C 120.811 -0.62329 4.2 0
M  V30 1233 O 121.835 -0.455847 3.53271 0
M  V30 1234 O 120.694 -0.947879 5.38217 0
M  V30 1235 H 117.788 -0.178318 0.807547 0
M  V30 1236 H 120.334 0.397895 1.64969 0
M  V30 1237 H 119.106 0.591224 3.86808 0
M  V30 1238 H 118.729 -1.12294 3.81413 0
M  V30 1239 N 119.726 -1.57421 0.075193 0
M  V30 1240 C 120.674 -2.14124 -0.908508 0
M  V30 1241 C 121.668 -1.07898 -1.30592 0
M  V30 1242 O 122.874 -1.26273 -1.28277 0
M  V30 1243 H 119.249 -0.684707 -0.310935 0
M  V30 1244 H 121.22 -2.95634 -0.405374 0
M  V30 1245 C 119.969 -2.72044 -2.16535 0
M  V30 1246 H 119.292 -3.53456 -1.86839 0
M  V30 1247 H 120.732 -3.15311 -2.83469 0
M  V30 1248 C 119.191 -1.66968 -2.92615 0
M  V30 1249 O 119.721 -1.0967 -3.86439 0
M  V30 1250 N 117.927 -1.37923 -2.55784 0
M  V30 1251 H 117.474 -1.84706 -1.79559 0
M  V30 1252 H 117.432 -0.67852 -3.06991 0
M  V30 1253 N 121.204 0.198386 -1.56346 0
M  V30 1254 C 122.137 1.27381 -1.89339 0
M  V30 1255 C 123.115 1.44106 -0.753134 0
M  V30 1256 O 124.299 1.59549 -1.00381 0
M  V30 1257 C 121.426 2.6409 -2.12071 0
M  V30 1258 C 120.472 2.64253 -3.34772 0
M  V30 1259 S 121.305 2.16013 -4.89999 0
M  V30 1260 C 122.461 3.54553 -5.15794 0
M  V30 1261 H 122.694 0.992058 -2.8026 0
M  V30 1262 H 120.227 0.401726 -1.49082 0
M  V30 1263 H 122.185 3.42786 -2.2585 0
M  V30 1264 H 120.846 2.89478 -1.21906 0
M  V30 1265 H 120.039 3.64768 -3.47794 0
M  V30 1266 H 119.641 1.93637 -3.1997 0
M  V30 1267 H 121.933 4.50396 -5.06112 0
M  V30 1268 H 122.876 3.46428 -6.1757 0
M  V30 1269 H 123.284 3.49313 -4.43442 0
M  V30 1270 N 122.682 1.50554 0.465978 0
M  V30 1271 C 123.592 1.72585 1.58907 0
M  V30 1272 C 124.608 0.60911 1.6299 0
M  V30 1273 O 125.784 0.88804 1.80765 0
M  V30 1274 C 122.849 1.81995 2.95091 0
M  V30 1275 C 121.91 3.05751 3.01355 0
M  V30 1276 C 121.143 3.14702 4.31043 0
M  V30 1277 O 121.366 2.30313 5.21835 0
M  V30 1278 O 120.3 4.07468 4.43005 0
M  V30 1279 H 124.126 2.67799 1.43239 0
M  V30 1280 H 121.711 1.34711 0.646013 0
M  V30 1281 H 123.593 1.90335 3.75966 0
M  V30 1282 H 122.268 0.899659 3.10947 0
M  V30 1283 H 121.175 3.02908 2.19539 0
M  V30 1284 H 122.508 3.97375 2.90437 0
M  V30 1285 N 124.16 -0.719506 1.40217 0
M  V30 1286 C 125.385 -1.51371 1.4178 0
M  V30 1287 C 125.81 -1.88091 0.0182355 0
M  V30 1288 O 125.168 -1.52997 -0.972707 0
M  V30 1289 C 125.216 -2.768 2.31115 0
M  V30 1290 O 124.32 -3.73349 1.7517 0
M  V30 1291 H 123.661 -0.456529 0.482159 0
M  V30 1292 H 126.191 -0.88644 1.844 0
M  V30 1293 H 126.201 -3.25371 2.46167 0
M  V30 1294 H 124.876 -2.49407 3.3282 0
M  V30 1295 H 123.453 -3.32179 1.69444 0
M  V30 1296 N 125.638 -1.25649 -0.95132 0
M  V30 1297 C 126.585 -1.06323 -2.04851 0
M  V30 1298 C 127.555 0.0286491 -1.66075 0
M  V30 1299 O 128.74 -0.12917 -1.90362 0
M  V30 1300 C 125.88 -0.691529 -3.381 0
M  V30 1301 C 124.993 -1.85861 -3.89974 0
M  V30 1302 C 124.128 -1.43096 -5.11563 0
M  V30 1303 C 123.167 -2.56696 -5.55674 0
M  V30 1304 N 122.304 -2.14684 -6.68472 0
M  V30 1305 H 127.144 -2.00222 -2.20715 0
M  V30 1306 H 124.681 -0.997027 -1.08156 0
M  V30 1307 H 126.639 -0.456963 -4.1469 0
M  V30 1308 H 125.269 0.210474 -3.22113 0
M  V30 1309 H 124.321 -2.20639 -3.09875 0
M  V30 1310 H 125.633 -2.71161 -4.18657 0
M  V30 1311 H 124.787 -1.15624 -5.9558 0
M  V30 1312 H 123.526 -0.548722 -4.84603 0
M  V30 1313 H 122.531 -2.84909 -4.7022 0
M  V30 1314 H 123.756 -3.45503 -5.8464 0
M  V30 1315 H 121.702 -1.28881 -6.43215 0
M  V30 1316 H 121.619 -2.9353 -6.96689 0
M  V30 1317 H 122.887 -1.90397 -7.5589 0
M  V30 1318 N 127.117 1.15442 -1.07289 0
M  V30 1319 C 128.363 1.8672 -0.806679 0
M  V30 1320 C 128.718 1.80723 0.660084 0
M  V30 1321 O 128.011 1.21902 1.47819 0
M  V30 1322 C 128.205 3.3489 -1.24834 0
M  V30 1323 C 128.034 3.55313 -2.7565 0
M  V30 1324 C 126.804 3.7082 -3.4325 0
M  V30 1325 C 129.002 3.53188 -3.73848 0
M  V30 1326 N 126.984 3.7929 -4.82713 0
M  V30 1327 C 128.355 3.67765 -4.99149 0
M  V30 1328 C 130.41 3.36459 -3.67015 0
M  V30 1329 C 129.113 3.6734 -6.18428 0
M  V30 1330 C 131.139 3.37333 -4.85758 0
M  V30 1331 C 130.501 3.52438 -6.09891 0
M  V30 1332 H 126.6 0.700433 -0.347733 0
M  V30 1333 H 129.184 1.38441 -1.36902 0
M  V30 1334 H 127.355 3.81786 -0.713713 0
M  V30 1335 H 129.087 3.93875 -0.929745 0
M  V30 1336 H 125.842 3.71568 -2.93656 0
M  V30 1337 H 126.266 3.8727 -5.55294 0
M  V30 1338 H 130.908 3.237 -2.71989 0
M  V30 1339 H 128.626 3.78878 -7.13777 0
M  V30 1340 H 132.212 3.25617 -4.82146 0
M  V30 1341 H 131.092 3.53047 -7.00234 0
M  V30 1342 N 128.595 0.856903 1.32268 0
M  V30 1343 C 129.505 0.306131 2.32594 0
M  V30 1344 C 130.521 -0.577209 1.64147 0
M  V30 1345 O 131.697 -0.477043 1.95669 0
M  V30 1346 C 128.762 -0.494561 3.43154 0
M  V30 1347 C 127.823 0.415186 4.27288 0
M  V30 1348 C 127.056 -0.347387 5.32568 0
M  V30 1349 O 127.279 -1.57708 5.48165 0
M  V30 1350 O 126.213 0.287982 6.01211 0
M  V30 1351 H 130.039 1.13737 2.81598 0
M  V30 1352 H 127.624 0.619902 1.35932 0
M  V30 1353 H 129.506 -0.948944 4.10576 0
M  V30 1354 H 128.181 -1.30257 2.96336 0
M  V30 1355 H 127.088 0.917793 3.62667 0
M  V30 1356 H 128.421 1.18844 4.77637 0
M  V30 1357 N 130.073 -1.45103 0.615059 0
M  V30 1358 C 131.35 -1.95549 0.0448276 0
M  V30 1359 C 131.73 -1.55737 -1.4251 0
M  V30 1360 O 131.078 -0.823556 -2.13143 0
M  V30 1361 C 131.288 -3.48098 0.250785 0
M  V30 1362 C 132.636 -4.24384 0.135509 0
M  V30 1363 O 133.66 -3.55738 0.181299 0
M  V30 1364 O 132.519 -5.46493 0.0268878 0
M  V30 1365 H 129.613 -0.8264 -0.0314845 0
M  V30 1366 H 132.159 -1.55232 0.685642 0
M  V30 1367 H 130.931 -3.7007 1.27139 0
M  V30 1368 H 130.554 -3.95323 -0.424937 0
M  V30 1369 N 131.551 -0.354651 -1.53558 0
M  V30 1370 C 132.797 0.238797 -2.01389 0
M  V30 1371 C 133.13 1.49309 -1.2418 0
M  V30 1372 O 132.405 1.91638 -0.332457 0
M  V30 1373 C 132.688 0.541771 -3.56001 0
M  V30 1374 C 132.541 -0.725388 -4.43912 0
M  V30 1375 C 133.86 1.34685 -4.18984 0
M  V30 1376 H 130.979 0.0853177 -0.732045 0
M  V30 1377 H 133.621 -0.477384 -1.83905 0
M  V30 1378 H 131.771 1.15189 -3.71031 0
M  V30 1379 H 133.443 -1.36313 -4.407 0
M  V30 1380 H 131.686 -1.34801 -4.12324 0
M  V30 1381 H 132.357 -0.468505 -5.50008 0
M  V30 1382 H 134.833 0.830837 -4.07721 0
M  V30 1383 H 133.709 1.52759 -5.27215 0
M  V30 1384 H 133.97 2.35221 -3.74331 0
M  V30 1385 N 133.029 1.57378 -0.0835403 0
M  V30 1386 C 133.977 2.14602 0.89714 0
M  V30 1387 C 134.971 1.08589 1.30018 0
M  V30 1388 O 136.177 1.26952 1.27606 0
M  V30 1389 H 132.552 0.686346 0.3073 0
M  V30 1390 H 134.523 2.95845 0.38969 0
M  V30 1391 C 133.272 2.73188 2.15089 0
M  V30 1392 H 132.595 3.54442 1.84962 0
M  V30 1393 H 134.035 3.1681 2.81793 0
M  V30 1394 C 132.494 1.68517 2.91725 0
M  V30 1395 O 133.024 1.11718 3.85852 0
M  V30 1396 N 131.23 1.39277 2.55049 0
M  V30 1397 H 130.777 1.85655 1.78577 0
M  V30 1398 H 130.735 0.694791 3.06627 0
M  V30 1399 N 134.507 -0.190092 1.56449 0
M  V30 1400 C 135.47 -1.21925 1.9408 0
M  V30 1401 C 136.47 -1.38176 0.822431 0
M  V30 1402 O 137.66 -1.35903 1.08977 0
M  V30 1403 C 134.792 -2.58773 2.21922 0
M  V30 1404 H 135.985 -0.897464 2.86157 0
M  V30 1405 H 133.538 -0.43181 1.50217 0
M  V30 1406 H 134.273 -2.95998 1.32499 0
M  V30 1407 H 134.058 -2.48348 3.03424 0
M  V30 1408 H 135.548 -3.32978 2.52022 0
M  V30 1409 N 135.985 -1.50799 -0.457987 0
M  V30 1410 C 136.948 -1.7005 -1.53674 0
M  V30 1411 C 137.948 -0.570881 -1.50325 0
M  V30 1412 O 139.138 -0.838126 -1.52712 0
M  V30 1413 C 136.27 -1.73788 -2.93276 0
M  V30 1414 H 137.463 -2.66306 -1.37917 0
M  V30 1415 H 135.016 -1.40477 -0.685271 0
M  V30 1416 H 135.751 -0.792717 -3.14462 0
M  V30 1417 H 135.536 -2.55864 -2.97113 0
M  V30 1418 H 137.026 -1.90591 -3.71571 0
M  V30 1419 N 137.463 0.71206 -1.40597 0
M  V30 1420 C 138.426 1.80785 -1.40888 0
M  V30 1421 C 139.426 1.57937 -0.302103 0
M  V30 1422 O 140.616 1.64913 -0.561182 0
M  V30 1423 C 137.748 3.18927 -1.20409 0
M  V30 1424 H 138.941 1.81924 -2.38419 0
M  V30 1425 H 136.494 0.91805 -1.26497 0
M  V30 1426 H 137.229 3.23436 -0.236522 0
M  V30 1427 H 137.014 3.36911 -2.00582 0
M  V30 1428 H 138.504 3.98949 -1.23408 0
M  V30 1429 N 138.941 1.26152 0.944643 0
M  V30 1430 C 140.181 1.12708 1.70517 0
M  V30 1431 C 140.545 -0.324727 1.89234 0
M  V30 1432 O 141.746 -0.581211 2.62441 0
M  V30 1433 C 140.017 1.8713 3.04495 0
M  V30 1434 S 141.576 1.89698 3.95677 0
M  V30 1435 H 138.394 0.402665 0.585988 0
M  V30 1436 H 140.996 1.59821 1.12594 0
M  V30 1437 H 139.7 2.91833 2.88551 0
M  V30 1438 H 139.231 1.40444 3.67477 0
M  V30 1439 H 141.246 0.981198 4.86402 0
M  V30 1440 N 140.419 -1.14872 1.07899 0
M  V30 1441 C 141.696 -1.81928 0.71845 0
M  V30 1442 C 142.076 -1.95417 -0.798455 0
M  V30 1443 O 141.424 -1.50997 -1.715 0
M  V30 1444 C 141.634 -3.17937 1.43935 0
M  V30 1445 C 142.982 -3.93501 1.59506 0
M  V30 1446 O 144.006 -3.27509 1.40058 0
M  V30 1447 O 142.865 -5.1183 1.91551 0
M  V30 1448 H 139.959 -0.78628 0.256305 0
M  V30 1449 H 142.505 -1.21934 1.18026 0
M  V30 1450 H 141.277 -3.0325 2.47295 0
M  V30 1451 H 140.9 -3.85619 0.968687 0
M  V30 1452 N 141.898 -0.863906 -1.31812 0
M  V30 1453 C 142.828 -0.330843 -2.31144 0
M  V30 1454 C 143.809 0.575005 -1.60087 0
M  V30 1455 O 144.994 0.493304 -1.8783 0
M  V30 1456 C 142.124 0.47374 -3.44054 0
M  V30 1457 C 141.078 -0.338481 -4.26659 0
M  V30 1458 C 140.404 0.591412 -5.31419 0
M  V30 1459 C 141.704 -1.56926 -4.98168 0
M  V30 1460 H 143.398 -1.16086 -2.75979 0
M  V30 1461 H 140.944 -0.559657 -1.32679 0
M  V30 1462 H 142.897 0.857143 -4.12591 0
M  V30 1463 H 141.621 1.33721 -2.9797 0
M  V30 1464 H 140.28 -0.703754 -3.59782 0
M  V30 1465 H 139.928 1.45199 -4.81587 0
M  V30 1466 H 139.628 0.0519022 -5.87577 0
M  V30 1467 H 141.152 0.97179 -6.02817 0
M  V30 1468 H 142.566 -1.25764 -5.59336 0
M  V30 1469 H 140.963 -2.04739 -5.64094 0
M  V30 1470 H 142.033 -2.32544 -4.25501 0
M  V30 1471 N 143.376 1.44774 -0.622745 0
M  V30 1472 C 144.339 2.29069 0.0774015 0
M  V30 1473 C 145.339 1.4059 0.780461 0
M  V30 1474 O 146.529 1.62551 0.626322 0
M  V30 1475 C 143.661 3.21974 1.12006 0
M  V30 1476 H 144.854 2.92459 -0.663901 0
M  V30 1477 H 142.407 1.51548 -0.382486 0
M  V30 1478 H 143.142 2.63417 1.89162 0
M  V30 1479 H 142.927 3.87168 0.619951 0
M  V30 1480 H 144.417 3.85318 1.60995 0
M  V30 1481 N 144.854 0.36279 1.53368 0
M  V30 1482 C 146.27 0.0116182 1.59596 0
M  V30 1483 C 146.47 -1.47012 1.37803 0
M  V30 1484 O 145.526 -2.23136 1.18181 0
M  V30 1485 C 146.839 0.465052 2.97082 0
M  V30 1486 C 148.387 0.419033 3.10182 0
M  V30 1487 C 148.862 0.848235 4.50077 0
M  V30 1488 N 150.353 0.803183 4.56183 0
M  V30 1489 C 151.088 1.107 5.62613 0
M  V30 1490 N 150.584 1.47996 6.76808 0
M  V30 1491 N 152.377 1.02998 5.52583 0
M  V30 1492 H 144.528 1.32775 1.65785 0
M  V30 1493 H 146.791 0.542518 0.777417 0
M  V30 1494 H 146.497 1.49892 3.18159 0
M  V30 1495 H 146.371 -0.149786 3.76902 0
M  V30 1496 H 148.758 -0.605696 2.88817 0
M  V30 1497 H 148.839 1.06933 2.32377 0
M  V30 1498 H 148.483 1.87107 4.7218 0
M  V30 1499 H 148.413 0.175218 5.26308 0
M  V30 1500 H 150.904 0.52838 3.74188 0
M  V30 1501 H 151.217 1.69613 7.53957 0
M  V30 1502 H 149.562 1.51859 6.78206 0
M  V30 1503 H 152.753 0.737817 4.62249 0
M  V30 1504 H 152.926 1.2701 6.35431 0
M  V30 1505 N 146.332 -1.57332 0.0918853 0
M  V30 1506 C 147.242 -2.17368 -0.882505 0
M  V30 1507 C 148.258 -1.14226 -1.31257 0
M  V30 1508 O 149.434 -1.46582 -1.38115 0
M  V30 1509 C 146.499 -2.73962 -2.12476 0
M  V30 1510 C 145.56 -3.92048 -1.7492 0
M  V30 1511 C 144.793 -4.45933 -2.93223 0
M  V30 1512 O 145.016 -3.98764 -4.07852 0
M  V30 1513 O 143.95 -5.36999 -2.71875 0
M  V30 1514 H 147.776 -3.01031 -0.40172 0
M  V30 1515 H 145.361 -1.48813 -0.132291 0
M  V30 1516 H 147.243 -3.10147 -2.85283 0
M  V30 1517 H 145.918 -1.93347 -2.59613 0
M  V30 1518 H 144.825 -3.6068 -0.993025 0
M  V30 1519 H 146.158 -4.74017 -1.32548 0
M  V30 1520 N 147.81 0.181792 -1.56548 0
M  V30 1521 C 149.056 0.901431 -1.81665 0
M  V30 1522 C 149.389 1.82347 -0.668075 0
M  V30 1523 O 148.664 1.91669 0.330615 0
M  V30 1524 C 148.947 1.70618 -3.17115 0
M  V30 1525 C 148.8 0.807964 -4.42484 0
M  V30 1526 C 150.119 2.67605 -3.49393 0
M  V30 1527 H 147.238 0.32627 -0.660846 0
M  V30 1528 H 149.88 0.168134 -1.89255 0
M  V30 1529 H 148.03 2.33133 -3.10775 0
M  V30 1530 H 149.702 0.19649 -4.60881 0
M  V30 1531 H 147.945 0.115411 -4.33646 0
M  V30 1532 H 148.616 1.40632 -5.33785 0
M  V30 1533 H 151.092 2.15218 -3.56118 0
M  V30 1534 H 149.968 3.20985 -4.45264 0
M  V30 1535 H 150.229 3.47298 -2.73563 0
M  V30 1536 N 149.288 1.51039 0.449983 0
M  V30 1537 C 150.251 1.70863 1.5277 0
M  V30 1538 C 151.251 0.578846 1.5002 0
M  V30 1539 O 152.441 0.846213 1.52266 0
M  V30 1540 C 149.573 1.75341 2.9235 0
M  V30 1541 H 150.766 2.67034 1.36502 0
M  V30 1542 H 148.319 1.40838 0.677812 0
M  V30 1543 H 149.054 0.809383 3.14037 0
M  V30 1544 H 148.839 2.57436 2.95752 0
M  V30 1545 H 150.329 1.92559 3.70555 0
M  V30 1546 N 150.766 -0.704594 1.40972 0
M  V30 1547 C 152.014 -1.46169 1.39568 0
M  V30 1548 C 152.335 -1.95 0.00253745 0
M  V30 1549 O 151.605 -1.71095 -0.954114 0
M  V30 1550 H 150.185 -0.542326 0.513704 0
M  V30 1551 H 152.847 -0.834553 1.76128 0
M  V30 1552 H 151.943 -2.32922 2.07735 0
M  V30 1553 N 152.244 -1.26651 -0.937939 0
M  V30 1554 C 153.191 -1.0849 -2.03712 0
M  V30 1555 C 154.161 0.011033 -1.66096 0
M  V30 1556 O 155.346 -0.149353 -1.90215 0
M  V30 1557 C 152.486 -0.72735 -3.37348 0
M  V30 1558 C 151.599 -1.89986 -3.87981 0
M  V30 1559 C 150.734 -1.48513 -5.10017 0
M  V30 1560 C 149.773 -2.62575 -5.5292 0
M  V30 1561 N 148.91 -2.21762 -6.66158 0
M  V30 1562 H 153.75 -2.02551 -2.18579 0
M  V30 1563 H 151.287 -1.00844 -1.07093 0
M  V30 1564 H 153.245 -0.50092 -4.14182 0
M  V30 1565 H 151.875 0.176298 -3.22318 0
M  V30 1566 H 150.927 -2.23913 -3.07518 0
M  V30 1567 H 152.239 -2.75586 -4.15757 0
M  V30 1568 H 151.393 -1.21934 -5.94321 0
M  V30 1569 H 150.132 -0.60009 -4.83994 0
M  V30 1570 H 149.137 -2.8988 -4.67172 0
M  V30 1571 H 150.362 -3.51685 -5.80943 0
M  V30 1572 H 148.308 -1.35696 -6.41812 0
M  V30 1573 H 148.225 -3.00903 -6.93537 0
M  V30 1574 H 149.493 -1.98403 -7.53828 0
M  V30 1575 N 153.722 1.14298 -1.08507 0
M  V30 1576 C 154.97 1.84993 -0.813763 0
M  V30 1577 C 155.291 1.83405 0.662393 0
M  V30 1578 O 154.561 1.28319 1.48024 0
M  V30 1579 H 153.141 0.684966 -0.298045 0
M  V30 1580 H 155.803 1.385 -1.37126 0
M  V30 1581 H 154.899 2.89788 -1.15884 0
M  V30 1582 N 155.201 0.870884 1.31352 0
M  V30 1583 C 156.478 0.402907 1.91405 0
M  V30 1584 C 156.858 -1.11512 1.79244 0
M  V30 1585 O 156.206 -1.94411 1.2007 0
M  V30 1586 C 156.416 0.885301 3.37585 0
M  V30 1587 C 157.764 0.911971 4.14691 0
M  V30 1588 O 158.788 0.831016 3.46371 0
M  V30 1589 O 157.647 1.02927 5.3672 0
M  V30 1590 H 154.741 0.120698 0.818145 0
M  V30 1591 H 157.287 0.958857 1.40014 0
M  V30 1592 H 156.059 1.92889 3.40455 0
M  V30 1593 H 155.682 0.307714 3.96407 0
M  V30 1594 N 156.679 -1.44442 0.630414 0
M  V30 1595 C 157.642 -2.29107 -0.0652523 0
M  V30 1596 C 158.642 -1.41002 -0.772995 0
M  V30 1597 O 159.832 -1.62881 -0.617692 0
M  V30 1598 C 156.964 -3.22564 -1.10296 0
M  V30 1599 H 158.157 -2.92103 0.679401 0
M  V30 1600 H 155.71 -1.51343 0.390517 0
M  V30 1601 H 156.445 -2.64416 -1.87762 0
M  V30 1602 H 156.23 -3.87491 -0.59941 0
M  V30 1603 H 157.72 -3.86167 -1.5895 0
M  V30 1604 N 158.157 -0.370918 -1.53173 0
M  V30 1605 C 159.087 0.464847 -2.28826 0
M  V30 1606 C 160.068 1.07936 -1.31468 0
M  V30 1607 O 161.253 1.0956 -1.60344 0
M  V30 1608 C 158.383 1.60196 -3.08147 0
M  V30 1609 C 157.337 1.11443 -4.13237 0
M  V30 1610 C 156.663 2.3422 -4.80672 0
M  V30 1611 C 157.963 0.195384 -5.21934 0
M  V30 1612 H 159.657 -0.166329 -2.98938 0
M  V30 1613 H 157.203 -0.0814359 -1.4377 0
M  V30 1614 H 159.156 2.19332 -3.59822 0
M  V30 1615 H 157.88 2.26045 -2.35735 0
M  V30 1616 H 156.539 0.545727 -3.62515 0
M  V30 1617 H 156.187 2.98537 -4.04827 0
M  V30 1618 H 155.887 2.02269 -5.51689 0
M  V30 1619 H 157.411 2.94032 -5.35143 0
M  V30 1620 H 158.825 0.694375 -5.69079 0
M  V30 1621 H 157.222 -0.0335027 -6.00091 0
M  V30 1622 H 158.292 -0.760961 -4.78892 0
M  V30 1623 N 159.635 1.57281 -0.100228 0
M  V30 1624 C 160.881 1.94826 0.563101 0
M  V30 1625 C 161.214 0.982475 1.67514 0
M  V30 1626 O 160.489 0.0164069 1.94493 0
M  V30 1627 C 160.772 3.42453 1.11346 0
M  V30 1628 C 160.625 4.498 0.00612081 0
M  V30 1629 C 161.944 3.91506 2.01024 0
M  V30 1630 H 159.063 0.708428 0.203221 0
M  V30 1631 H 161.705 1.8922 -0.171979 0
M  V30 1632 H 159.855 3.47361 1.7399 0
M  V30 1633 H 161.527 4.57 -0.628357 0
M  V30 1634 H 159.77 4.28756 -0.659581 0
M  V30 1635 H 160.441 5.50306 0.432109 0
M  V30 1636 H 162.917 3.88784 1.48278 0
M  V30 1637 H 161.793 4.95358 2.36457 0
M  V30 1638 H 162.054 3.31099 2.92961 0
M  V30 1639 N 161.113 -0.173488 1.56642 0
M  V30 1640 C 162.076 -1.19859 1.95362 0
M  V30 1641 C 163.076 -1.37296 0.83704 0
M  V30 1642 O 164.266 -1.34739 1.10413 0
M  V30 1643 C 161.398 -2.56405 2.24654 0
M  V30 1644 H 162.591 -0.867062 2.87092 0
M  V30 1645 H 160.144 -0.415853 1.50666 0
M  V30 1646 H 160.879 -2.94576 1.35631 0
M  V30 1647 H 160.664 -2.45115 3.06041 0
M  V30 1648 H 162.154 -3.30287 2.5554 0
M  V30 1649 N 162.591 -1.51276 -0.441967 0
M  V30 1650 C 163.839 -1.63392 -1.18943 0
M  V30 1651 C 164.16 -0.350159 -1.9183 0
M  V30 1652 O 163.43 0.633784 -1.85364 0
M  V30 1653 H 162.01 -0.602164 -0.442049 0
M  V30 1654 H 164.672 -1.88186 -0.507165 0
M  V30 1655 H 163.768 -2.45934 -1.92154 0
M  V30 1656 N 164.069 0.697108 -1.41344 0
M  V30 1657 C 165.317 1.45426 -1.40341 0
M  V30 1658 C 165.638 1.94996 -0.0128787 0
M  V30 1659 O 164.908 1.71599 0.945027 0
M  V30 1660 H 163.488 0.539594 -0.516573 0
M  V30 1661 H 166.15 0.825201 -1.76569 0
M  V30 1662 H 165.246 2.31817 -2.08967 0
M  V30 1663 N 165.547 1.27147 0.931209 0
M  V30 1664 C 166.796 1.12664 1.67302 0
M  V30 1665 C 167.109 -0.327718 1.92835 0
M  V30 1666 O 168.315 -0.593392 2.64936 0
M  V30 1667 C 166.771 1.9683 3.01307 0
M  V30 1668 C 166.379 3.46901 2.83485 0
M  V30 1669 C 168.123 1.90985 3.79111 0
M  V30 1670 C 166.03 4.23279 4.13024 0
M  V30 1671 H 164.96 0.41803 0.627509 0
M  V30 1672 H 167.611 1.51539 1.03481 0
M  V30 1673 H 165.993 1.50797 3.66164 0
M  V30 1674 H 167.167 4.00773 2.27415 0
M  V30 1675 H 165.482 3.54088 2.19113 0
M  V30 1676 H 168.079 2.45328 4.75098 0
M  V30 1677 H 168.422 0.882718 4.06834 0
M  V30 1678 H 168.955 2.34895 3.21044 0
M  V30 1679 H 165.694 5.26503 3.90481 0
M  V30 1680 H 165.214 3.74186 4.6877 0
M  V30 1681 H 166.893 4.32265 4.81411 0
M  V30 1682 N 167.025 -1.13721 1.09112 0
M  V30 1683 C 168.265 -1.86576 0.834801 0
M  V30 1684 C 168.629 -1.81435 -0.628122 0
M  V30 1685 O 169.83 -2.49497 -1.00024 0
M  V30 1686 C 168.101 -3.30872 1.35124 0
M  V30 1687 S 169.66 -4.21257 1.22832 0
M  V30 1688 H 166.478 -0.643666 0.302017 0
M  V30 1689 H 169.08 -1.37085 1.39385 0
M  V30 1690 H 167.784 -3.32166 2.41027 0
M  V30 1691 H 167.315 -3.85423 0.788185 0
M  V30 1692 H 169.33 -4.95884 0.177191 0
M  V30 1693 N 168.503 -0.877838 -1.30888 0
M  V30 1694 C 169.435 -0.296607 -2.27273 0
M  V30 1695 C 170.448 0.544799 -1.53414 0
M  V30 1696 O 171.637 0.365511 -1.74718 0
M  V30 1697 C 168.737 0.597481 -3.33592 0
M  V30 1698 C 167.91 -0.213251 -4.3688 0
M  V30 1699 C 166.969 0.610208 -5.2265 0
M  V30 1700 O 165.995 0.035441 -5.69189 0
M  V30 1701 N 167.197 1.92071 -5.47804 0
M  V30 1702 H 169.962 -1.12492 -2.77787 0
M  V30 1703 H 167.523 -0.740105 -1.43993 0
M  V30 1704 H 169.515 1.15425 -3.87891 0
M  V30 1705 H 168.085 1.32647 -2.83061 0
M  V30 1706 H 167.305 -0.951466 -3.82545 0
M  V30 1707 H 168.593 -0.769262 -5.02951 0
M  V30 1708 H 167.991 2.4107 -5.11763 0
M  V30 1709 H 166.548 2.42508 -6.05007 0
M  V30 1710 N 169.982 1.44106 -0.638065 0
M  V30 1711 C 171.21 2.06336 -0.152615 0
M  V30 1712 C 171.625 1.47731 1.17563 0
M  V30 1713 O 170.982 0.602806 1.72257 0
M  V30 1714 C 171.033 3.61479 -0.0391491 0
M  V30 1715 O 170.754 4.17903 -1.31487 0
M  V30 1716 C 172.255 4.40757 0.474176 0
M  V30 1717 H 169.475 0.665862 -0.0828776 0
M  V30 1718 H 172.019 1.84862 -0.87443 0
M  V30 1719 H 170.174 3.82191 0.633142 0
M  V30 1720 H 170.588 5.11416 -1.16421 0
M  V30 1721 H 172.062 5.49707 0.502562 0
M  V30 1722 H 172.539 4.12697 1.50258 0
M  V30 1723 H 173.145 4.24979 -0.165102 0
M  V30 1724 N 171.46 0.379036 1.52974 0
M  V30 1725 C 172.685 -0.209353 2.06341 0
M  V30 1726 C 173.11 -1.40583 1.24972 0
M  V30 1727 O 172.468 -1.79246 0.272155 0
M  V30 1728 C 172.516 -0.567786 3.56102 0
M  V30 1729 O 171.62 -1.66318 3.77375 0
M  V30 1730 H 170.961 -0.0272919 0.663439 0
M  V30 1731 H 173.491 0.543536 1.97248 0
M  V30 1732 H 173.501 -0.835003 3.99364 0
M  V30 1733 H 172.176 0.307013 4.14765 0
M  V30 1734 H 170.753 -1.39048 3.46006 0
M  V30 1735 N 172.938 -1.57226 0.108567 0
M  V30 1736 C 174.187 -1.94008 -0.551703 0
M  V30 1737 C 174.5 -0.993442 -1.68494 0
M  V30 1738 O 175.706 -1.25551 -2.40726 0
M  V30 1739 C 174.162 -3.44763 -1.03279 0
M  V30 1740 C 173.77 -4.47943 0.0714193 0
M  V30 1741 C 175.514 -3.90483 -1.66503 0
M  V30 1742 C 173.421 -5.89865 -0.425779 0
M  V30 1743 H 172.351 -0.724206 -0.209863 0
M  V30 1744 H 175.002 -1.82547 0.186741 0
M  V30 1745 H 173.384 -3.51422 -1.82533 0
M  V30 1746 H 174.558 -4.52942 0.847365 0
M  V30 1747 H 172.873 -4.11913 0.609669 0
M  V30 1748 H 175.47 -4.93925 -2.04798 0
M  V30 1749 H 175.813 -3.29877 -2.53942 0
M  V30 1750 H 176.346 -3.86581 -0.938074 0
M  V30 1751 H 173.085 -6.54202 0.412316 0
M  V30 1752 H 172.605 -5.88309 -1.16843 0
M  V30 1753 H 174.284 -6.40844 -0.890397 0
M  V30 1754 N 174.416 0.165178 -1.56732 0
M  V30 1755 C 175.646 0.894919 -1.86212 0
M  V30 1756 C 176.054 1.76066 -0.692627 0
M  V30 1757 O 175.397 1.80387 0.347303 0
M  V30 1758 C 175.459 1.8174 -3.10179 0
M  V30 1759 C 175.123 1.13064 -4.42793 0
M  V30 1760 C 176.12 0.493169 -5.17556 0
M  V30 1761 C 173.805 1.12556 -4.89527 0
M  V30 1762 C 175.799 -0.140209 -6.37246 0
M  V30 1763 C 173.486 0.488366 -6.09145 0
M  V30 1764 C 174.484 -0.143411 -6.82849 0
M  V30 1765 O 174.172 -0.77055 -8.00199 0
M  V30 1766 H 173.904 0.265114 -0.621844 0
M  V30 1767 H 176.458 0.168242 -2.0471 0
M  V30 1768 H 174.688 2.58455 -2.87642 0
M  V30 1769 H 176.377 2.4175 -3.26055 0
M  V30 1770 H 177.143 0.489023 -4.82528 0
M  V30 1771 H 173.022 1.60672 -4.32094 0
M  V30 1772 H 176.566 -0.633932 -6.94714 0
M  V30 1773 H 172.463 0.490116 -6.43637 0
M  V30 1774 H 173.231 -0.670408 -8.1575 0
M  V30 1775 N 175.894 1.51508 0.433938 0
M  V30 1776 C 176.841 1.73068 1.52696 0
M  V30 1777 C 177.811 0.572441 1.55924 0
M  V30 1778 O 178.996 0.807253 1.72882 0
M  V30 1779 C 176.136 1.86474 2.90381 0
M  V30 1780 C 175.249 3.14037 2.96656 0
M  V30 1781 C 174.384 3.18019 4.25485 0
M  V30 1782 C 173.423 4.39882 4.2564 0
M  V30 1783 N 172.56 4.41394 5.45999 0
M  V30 1784 H 177.4 2.66366 1.33615 0
M  V30 1785 H 174.937 1.32008 0.649018 0
M  V30 1786 H 176.895 1.92229 3.70275 0
M  V30 1787 H 175.525 0.965809 3.08013 0
M  V30 1788 H 174.577 3.17575 2.09404 0
M  V30 1789 H 175.889 4.0394 2.92633 0
M  V30 1790 H 175.043 3.22708 5.13755 0
M  V30 1791 H 173.782 2.2601 4.3217 0
M  V30 1792 H 172.787 4.35366 3.35763 0
M  V30 1793 H 174.012 5.33159 4.20617 0
M  V30 1794 H 171.958 3.52258 5.53399 0
M  V30 1795 H 171.875 5.25111 5.4387 0
M  V30 1796 H 173.143 4.50281 6.36292 0
M  V30 1797 N 177.372 -0.689602 1.41712 0
M  V30 1798 C 178.602 -1.47613 1.44548 0
M  V30 1799 C 179.01 -1.89132 0.0509034 0
M  V30 1800 O 178.353 -1.57741 -0.94146 0
M  V30 1801 C 178.415 -2.76596 2.2964 0
M  V30 1802 C 178.079 -2.57245 3.77722 0
M  V30 1803 C 179.076 -2.22804 4.69739 0
M  V30 1804 C 176.761 -2.727 4.2183 0
M  V30 1805 C 178.755 -2.04064 6.03851 0
M  V30 1806 C 176.442 -2.53576 5.56006 0
M  V30 1807 C 177.44 -2.1931 6.46832 0
M  V30 1808 O 177.128 -2.00359 7.78532 0
M  V30 1809 H 176.86 -0.461227 0.494212 0
M  V30 1810 H 179.414 -0.856045 1.86711 0
M  V30 1811 H 177.644 -3.41033 1.82301 0
M  V30 1812 H 179.333 -3.38424 2.24107 0
M  V30 1813 H 180.099 -2.10473 4.36951 0
M  V30 1814 H 175.978 -2.98353 3.51435 0
M  V30 1815 H 179.522 -1.77241 6.74708 0
M  V30 1816 H 175.419 -2.65499 5.88371 0
M  V30 1817 H 176.187 -2.15075 7.89737 0
M  V30 1818 N 178.85 -1.27639 -0.924453 0
M  V30 1819 C 179.782 -1.06442 -2.02985 0
M  V30 1820 C 180.795 -0.0194771 -1.62788 0
M  V30 1821 O 181.984 -0.261388 -1.76576 0
M  V30 1822 C 179.084 -0.59327 -3.33667 0
M  V30 1823 C 178.257 -1.71123 -4.02537 0
M  V30 1824 C 177.316 -1.23527 -5.11495 0
M  V30 1825 O 176.342 -1.93553 -5.35281 0
M  V30 1826 N 177.544 -0.0926678 -5.80426 0
M  V30 1827 H 180.309 -2.01633 -2.2173 0
M  V30 1828 H 177.87 -1.19248 -1.09505 0
M  V30 1829 H 179.862 -0.258686 -4.03872 0
M  V30 1830 H 178.432 0.265502 -3.1147 0
M  V30 1831 H 177.652 -2.21593 -3.26022 0
M  V30 1832 H 178.94 -2.46145 -4.45298 0
M  V30 1833 H 178.338 0.491741 -5.63559 0
M  V30 1834 H 176.895 0.182714 -6.51544 0
M  V30 1835 N 180.328 1.1314 -1.09713 0
M  V30 1836 C 181.275 2.18642 -0.739196 0
M  V30 1837 C 182.245 1.63706 0.280978 0
M  V30 1838 O 183.43 1.90111 0.161946 0
M  V30 1839 C 180.57 3.44685 -0.169102 0
M  V30 1840 C 179.683 4.13711 -1.24367 0
M  V30 1841 C 178.818 5.27379 -0.636019 0
M  V30 1842 C 177.857 5.88259 -1.69169 0
M  V30 1843 N 176.994 6.93352 -1.10485 0
M  V30 1844 H 181.834 2.48607 -1.64312 0
M  V30 1845 H 179.371 1.22066 -0.820875 0
M  V30 1846 H 181.329 4.16815 0.179256 0
M  V30 1847 H 179.959 3.15161 0.698079 0
M  V30 1848 H 179.011 3.39835 -1.70927 0
M  V30 1849 H 180.323 4.55037 -2.04311 0
M  V30 1850 H 179.477 6.06238 -0.236677 0
M  V30 1851 H 178.216 4.8731 0.194928 0
M  V30 1852 H 177.221 5.08092 -2.10055 0
M  V30 1853 H 178.446 6.30399 -2.52536 0
M  V30 1854 H 176.392 6.55335 -0.295234 0
M  V30 1855 H 176.309 7.33236 -1.84121 0
M  V30 1856 H 177.577 7.76057 -0.73181 0
M  V30 1857 N 181.806 0.884767 1.30421 0
M  V30 1858 C 183.083 0.423185 1.90967 0
M  V30 1859 C 183.463 -1.09605 1.80416 0
M  V30 1860 O 182.811 -1.93126 1.22125 0
M  V30 1861 C 183.021 0.921056 3.36627 0
M  V30 1862 C 184.369 0.955903 4.137 0
M  V30 1863 O 185.393 0.867706 3.4547 0
M  V30 1864 O 184.252 1.08614 5.35598 0
M  V30 1865 H 181.346 0.129369 0.816819 0
M  V30 1866 H 183.892 0.973653 1.3899 0
M  V30 1867 H 182.664 1.96489 3.3839 0
M  V30 1868 H 182.287 0.349741 3.96059 0
M  V30 1869 N 183.284 -1.43765 0.645699 0
M  V30 1870 C 184.194 -2.34544 -0.0512957 0
M  V30 1871 C 185.21 -1.53455 -0.82022 0
M  V30 1872 O 186.386 -1.86133 -0.769176 0
M  V30 1873 C 183.451 -3.31636 -1.01087 0
M  V30 1874 C 182.512 -4.2863 -0.239712 0
M  V30 1875 C 181.745 -5.21084 -1.15358 0
M  V30 1876 O 181.968 -5.1779 -2.39269 0
M  V30 1877 O 180.902 -5.98593 -0.630038 0
M  V30 1878 H 184.728 -2.95624 0.695718 0
M  V30 1879 H 182.313 -1.43781 0.405882 0
M  V30 1880 H 184.195 -3.9136 -1.56254 0
M  V30 1881 H 182.87 -2.73069 -1.73824 0
M  V30 1882 H 181.777 -3.72408 0.355356 0
M  V30 1883 H 183.11 -4.90157 0.447936 0
M  V30 1884 N 184.763 -0.387143 -1.52771 0
M  V30 1885 C 185.726 0.436939 -2.24997 0
M  V30 1886 C 186.726 0.991991 -1.26555 0
M  V30 1887 O 187.916 0.874335 -1.50669 0
M  V30 1888 C 185.048 1.61281 -3.00335 0
M  V30 1889 H 186.241 -0.195365 -2.99263 0
M  V30 1890 H 183.794 -0.139218 -1.55679 0
M  V30 1891 H 184.529 2.2826 -2.30364 0
M  V30 1892 H 184.314 1.22154 -3.72587 0
M  V30 1893 H 185.804 2.19629 -3.5518 0
M  V30 1894 N 186.241 1.57166 -0.116904 0
M  V30 1895 C 187.657 1.5779 0.239693 0
M  V30 1896 C 187.857 1.1295 1.66867 0
M  V30 1897 O 186.913 0.81592 2.38954 0
M  V30 1898 C 188.226 3.00699 0.00828202 0
M  V30 1899 C 189.774 3.12912 0.0743438 0
M  V30 1900 C 190.249 4.57817 -0.129348 0
M  V30 1901 N 191.74 4.63139 -0.075247 0
M  V30 1902 C 192.475 5.73023 -0.207788 0
M  V30 1903 N 191.971 6.91665 -0.396382 0
M  V30 1904 N 193.764 5.61906 -0.14751 0
M  V30 1905 H 185.915 1.84615 -1.05029 0
M  V30 1906 H 188.178 0.85311 -0.41341 0
M  V30 1907 H 187.884 3.37784 -0.979531 0
M  V30 1908 H 187.758 3.69848 0.741077 0
M  V30 1909 H 190.145 2.75686 1.05268 0
M  V30 1910 H 190.226 2.4631 -0.690297 0
M  V30 1911 H 189.87 4.95742 -1.10465 0
M  V30 1912 H 189.8 5.22507 0.655253 0
M  V30 1913 H 192.291 3.7784 0.0670898 0
M  V30 1914 H 192.604 7.71255 -0.488437 0
M  V30 1915 H 190.949 6.93654 -0.432329 0
M  V30 1916 H 194.14 4.681 -0.00115036 0
M  V30 1917 H 194.313 6.47501 -0.254247 0
M  V30 1918 N 187.719 -0.156864 1.56817 0
M  V30 1919 C 188.968 -0.869504 1.81996 0
M  V30 1920 C 189.281 -1.82777 0.696545 0
M  V30 1921 O 190.487 -2.58384 0.833658 0
M  V30 1922 C 188.943 -1.59679 3.22538 0
M  V30 1923 C 188.551 -0.681431 4.42787 0
M  V30 1924 C 190.295 -2.2968 3.56997 0
M  V30 1925 C 188.202 -1.40978 5.74351 0
M  V30 1926 H 187.132 -0.328438 0.678708 0
M  V30 1927 H 189.783 -0.1223 1.83092 0
M  V30 1928 H 188.165 -2.38927 3.158 0
M  V30 1929 H 189.339 0.0751166 4.60739 0
M  V30 1930 H 187.654 -0.0903431 4.16302 0
M  V30 1931 H 190.251 -2.84794 4.52544 0
M  V30 1932 H 190.594 -3.05707 2.82576 0
M  V30 1933 H 191.127 -1.57361 3.65352 0
M  V30 1934 H 187.866 -0.691561 6.51842 0
M  V30 1935 H 187.386 -2.13929 5.60352 0
M  V30 1936 H 189.065 -1.95337 6.16808 0
M  V30 1937 N 189.197 -1.51736 -0.425897 0
M  V30 1938 C 190.144 -1.73875 -1.51776 0
M  V30 1939 C 191.114 -0.580702 -1.55618 0
M  V30 1940 O 192.299 -0.81641 -1.72451 0
M  V30 1941 C 189.439 -1.88012 -2.89388 0
M  V30 1942 C 188.552 -3.15606 -2.94986 0
M  V30 1943 C 187.687 -3.20271 -4.23793 0
M  V30 1944 C 186.726 -4.42134 -4.23302 0
M  V30 1945 N 185.863 -4.44284 -5.43651 0
M  V30 1946 H 190.703 -2.67071 -1.32201 0
M  V30 1947 H 188.24 -1.32351 -0.642008 0
M  V30 1948 H 190.198 -1.9419 -3.69251 0
M  V30 1949 H 188.828 -0.98213 -3.07496 0
M  V30 1950 H 187.88 -3.18681 -2.07717 0
M  V30 1951 H 189.192 -4.05486 -2.90486 0
M  V30 1952 H 188.346 -3.25428 -5.12036 0
M  V30 1953 H 187.085 -2.28299 -4.30965 0
M  V30 1954 H 186.09 -4.3714 -3.3345 0
M  V30 1955 H 187.315 -5.35382 -4.17783 0
M  V30 1956 H 185.261 -3.55188 -5.51523 0
M  V30 1957 H 185.178 -5.27988 -5.41078 0
M  V30 1958 H 186.446 -4.53649 -6.33895 0
M  V30 1959 N 190.675 0.682077 -1.42076 0
M  V30 1960 C 191.622 1.79578 -1.44984 0
M  V30 1961 C 192.592 1.6332 -0.302614 0
M  V30 1962 O 193.777 1.83978 -0.505633 0
M  V30 1963 C 190.917 3.1756 -1.35091 0
M  V30 1964 C 190.03 3.45156 -2.59791 0
M  V30 1965 C 189.165 4.72826 -2.42093 0
M  V30 1966 C 188.204 4.93433 -3.62202 0
M  V30 1967 N 187.341 6.12338 -3.43491 0
M  V30 1968 H 192.181 1.76427 -2.40161 0
M  V30 1969 H 189.718 0.861376 -1.19242 0
M  V30 1970 H 191.676 3.97287 -1.27354 0
M  V30 1971 H 190.306 3.19854 -0.435133 0
M  V30 1972 H 189.358 2.59736 -2.77923 0
M  V30 1973 H 190.67 3.5628 -3.49094 0
M  V30 1974 H 189.824 5.60631 -2.319 0
M  V30 1975 H 188.563 4.63973 -1.50268 0
M  V30 1976 H 187.568 4.04073 -3.72834 0
M  V30 1977 H 188.793 5.04136 -4.54998 0
M  V30 1978 H 186.739 6.04672 -2.54377 0
M  V30 1979 H 186.656 6.2429 -4.26377 0
M  V30 1980 H 187.924 7.02841 -3.37097 0
M  V30 1981 N 192.153 1.28127 0.917671 0
M  V30 1982 C 193.083 1.14248 2.03641 0
M  V30 1983 C 194.064 0.0412748 1.7005 0
M  V30 1984 O 195.249 0.217566 1.92977 0
M  V30 1985 C 192.379 0.799431 3.37974 0
M  V30 1986 C 191.333 1.85497 3.85713 0
M  V30 1987 C 190.659 1.36565 5.16966 0
M  V30 1988 C 191.959 3.26085 4.08002 0
M  V30 1989 H 193.653 2.07835 2.15511 0
M  V30 1990 H 191.199 1.00064 1.03553 0
M  V30 1991 H 193.152 0.689114 4.15727 0
M  V30 1992 H 191.876 -0.172145 3.26146 0
M  V30 1993 H 190.535 1.95437 3.10161 0
M  V30 1994 H 190.183 0.383253 5.01538 0
M  V30 1995 H 189.883 2.07143 5.49878 0
M  V30 1996 H 191.407 1.26848 5.97279 0
M  V30 1997 H 192.821 3.19089 4.76293 0
M  V30 1998 H 191.218 3.94462 4.52238 0
M  V30 1999 H 192.288 3.70394 3.12948 0
M  V30 2000 N 193.631 -1.12557 1.10312 0
M  V30 2001 C 194.878 -1.84038 0.844759 0
M  V30 2002 C 195.206 -1.84026 -0.629668 0
M  V30 2003 O 194.461 -1.28026 -1.48013 0
M  V30 2004 C 194.76 -3.31462 1.33669 0
M  V30 2005 C 194.426 -3.51647 2.82232 0
M  V30 2006 C 193.088 -3.56864 3.22802 0
M  V30 2007 C 195.44 -3.58867 3.77974 0
M  V30 2008 C 192.768 -3.66844 4.57867 0
M  V30 2009 C 195.12 -3.70375 5.1284 0
M  V30 2010 C 193.784 -3.73848 5.52986 0
M  V30 2011 H 193.054 -0.673444 0.309119 0
M  V30 2012 H 195.701 -1.32824 1.37949 0
M  V30 2013 H 194.006 -3.85091 0.721949 0
M  V30 2014 H 195.703 -3.85236 1.11329 0
M  V30 2015 H 192.293 -3.48249 2.49842 0
M  V30 2016 H 196.477 -3.54107 3.47738 0
M  V30 2017 H 191.733 -3.67804 4.88396 0
M  V30 2018 H 195.907 -3.74904 5.86873 0
M  V30 2019 H 193.534 -3.81333 6.57639 0
M  V30 2020 N 195.109 -0.891671 -1.2995 0
M  V30 2021 C 196.525 -0.58662 -1.48428 0
M  V30 2022 C 196.725 0.873951 -1.81561 0
M  V30 2023 O 195.781 1.65471 -1.90724 0
M  V30 2024 C 197.094 -1.50553 -2.60296 0
M  V30 2025 C 198.642 -1.50988 -2.74175 0
M  V30 2026 C 199.117 -2.41488 -3.89163 0
M  V30 2027 N 200.608 -2.39489 -3.96483 0
M  V30 2028 C 201.343 -3.06223 -4.84784 0
M  V30 2029 N 200.839 -3.82206 -5.77833 0
M  V30 2030 N 202.632 -2.95421 -4.78208 0
M  V30 2031 H 194.783 -1.83644 -1.06718 0
M  V30 2032 H 197.046 -0.786455 -0.529332 0
M  V30 2033 H 196.752 -2.54581 -2.42654 0
M  V30 2034 H 196.626 -1.22008 -3.56923 0
M  V30 2035 H 199.013 -0.47708 -2.91218 0
M  V30 2036 H 199.094 -1.83567 -1.78148 0
M  V30 2037 H 198.738 -3.44857 -3.72876 0
M  V30 2038 H 198.668 -2.06222 -4.84541 0
M  V30 2039 H 201.159 -1.84278 -3.29924 0
M  V30 2040 H 201.472 -4.302 -6.41988 0
M  V30 2041 H 199.817 -3.86313 -5.77743 0
M  V30 2042 H 203.008 -2.35581 -4.04499 0
M  V30 2043 H 203.181 -3.47704 -5.46814 0
M  V30 2044 N 196.587 1.43421 -0.653314 0
M  V30 2045 C 197.519 2.29071 0.0769134 0
M  V30 2046 C 198.532 1.42513 0.787017 0
M  V30 2047 O 199.721 1.66449 0.644757 0
M  V30 2048 C 196.821 3.19436 1.13199 0
M  V30 2049 C 195.994 4.34533 0.500006 0
M  V30 2050 C 195.053 5.05771 1.45198 0
M  V30 2051 O 194.079 5.61037 0.960538 0
M  V30 2052 N 195.281 5.0928 2.78594 0
M  V30 2053 H 198.046 2.92382 -0.658235 0
M  V30 2054 H 195.607 1.54112 -0.496104 0
M  V30 2055 H 197.599 3.63958 1.76964 0
M  V30 2056 H 196.169 2.57724 1.7691 0
M  V30 2057 H 195.389 3.92925 -0.316738 0
M  V30 2058 H 196.677 5.08766 0.0588345 0
M  V30 2059 H 196.075 4.65751 3.2108 0
M  V30 2060 H 194.632 5.57519 3.37662 0
M  V30 2061 N 198.065 0.39524 1.52563 0
M  V30 2062 C 198.997 -0.472201 2.24283 0
M  V30 2063 C 200.01 -1.02178 1.26742 0
M  V30 2064 O 201.199 -0.923097 1.52778 0
M  V30 2065 C 198.299 -1.66775 2.95024 0
M  V30 2066 C 197.472 -1.2445 4.19322 0
M  V30 2067 C 196.531 -2.30539 4.7301 0
M  V30 2068 O 195.557 -1.91702 5.35947 0
M  V30 2069 N 196.759 -3.6253 4.53379 0
M  V30 2070 H 199.524 0.142282 2.99362 0
M  V30 2071 H 197.085 0.2219 1.60372 0
M  V30 2072 H 199.077 -2.37283 3.27839 0
M  V30 2073 H 197.647 -2.18845 2.23217 0
M  V30 2074 H 196.867 -0.368069 3.92478 0
M  V30 2075 H 198.155 -0.938457 5.0007 0
M  V30 2076 H 197.553 -3.96841 4.03154 0
M  V30 2077 H 196.11 -4.29055 4.90668 0
M  V30 2078 N 199.544 -1.57102 0.125237 0
M  V30 2079 C 200.474 -2.18659 -0.819174 0
M  V30 2080 C 201.455 -1.12843 -1.27281 0
M  V30 2081 O 202.64 -1.41104 -1.33429 0
M  V30 2082 C 199.77 -2.79096 -2.06695 0
M  V30 2083 C 198.724 -3.90548 -1.75088 0
M  V30 2084 C 198.05 -4.37821 -3.06948 0
M  V30 2085 C 199.35 -5.12356 -1.01435 0
M  V30 2086 H 201.044 -2.9783 -0.306202 0
M  V30 2087 H 198.59 -1.4326 -0.145839 0
M  V30 2088 H 200.543 -3.2082 -2.73226 0
M  V30 2089 H 199.267 -1.97223 -2.60328 0
M  V30 2090 H 197.926 -3.49409 -1.10944 0
M  V30 2091 H 197.574 -3.52799 -3.58527 0
M  V30 2092 H 197.274 -5.12982 -2.86571 0
M  V30 2093 H 198.798 -4.822 -3.74587 0
M  V30 2094 H 200.212 -5.5106 -1.58132 0
M  V30 2095 H 198.609 -5.9314 -0.911319 0
M  V30 2096 H 199.679 -4.849 -0.00218681 0
M  V30 2097 N 201.022 0.148545 -1.56898 0
M  V30 2098 C 201.932 1.20293 -2.01412 0
M  V30 2099 C 202.948 1.47107 -0.929273 0
M  V30 2100 O 204.124 1.58807 -1.23863 0
M  V30 2101 C 201.189 2.51682 -2.38447 0
M  V30 2102 C 200.25 2.32529 -3.60872 0
M  V30 2103 C 199.483 3.57653 -3.96132 0
M  V30 2104 O 199.706 4.63771 -3.32073 0
M  V30 2105 O 198.64 3.50408 -4.89385 0
M  V30 2106 H 202.466 0.855025 -2.91416 0
M  V30 2107 H 200.051 0.357151 -1.45068 0
M  V30 2108 H 201.933 3.29147 -2.63135 0
M  V30 2109 H 200.608 2.86006 -1.51599 0
M  V30 2110 H 199.515 1.53019 -3.41373 0
M  V30 2111 H 200.848 2.03121 -4.48333 0
M  V30 2112 N 202.5 1.5196 0.417844 0
M  V30 2113 C 203.746 1.65836 1.16732 0
M  V30 2114 C 204.079 0.382881 1.90388 0
M  V30 2115 O 203.354 -0.618368 1.84408 0
M  V30 2116 C 203.637 2.87466 2.16876 0
M  V30 2117 C 203.49 4.25041 1.47174 0
M  V30 2118 C 204.809 3.04613 3.17646 0
M  V30 2119 H 201.928 0.603515 0.423011 0
M  V30 2120 H 204.57 1.84494 0.454105 0
M  V30 2121 H 202.72 2.71689 2.777 0
M  V30 2122 H 204.392 4.52527 0.895376 0
M  V30 2123 H 202.635 4.26843 0.773806 0
M  V30 2124 H 203.306 5.06176 2.20204 0
M  V30 2125 H 205.782 3.1923 2.66892 0
M  V30 2126 H 204.658 3.91247 3.8499 0
M  V30 2127 H 204.919 2.17541 3.84874 0
M  V30 2128 N 203.978 -0.674533 1.42435 0
M  V30 2129 C 205.225 -1.43459 1.42919 0
M  V30 2130 C 205.553 -1.94446 0.0457312 0
M  V30 2131 O 204.808 -1.7132 -0.94593 0
M  V30 2132 C 205.107 -2.64767 2.40069 0
M  V30 2133 C 204.773 -2.3232 3.86443 0
M  V30 2134 C 203.435 -2.23182 4.26314 0
M  V30 2135 C 205.787 -2.05977 4.78773 0
M  V30 2136 C 203.115 -1.85827 5.56494 0
M  V30 2137 C 205.467 -1.70125 6.09295 0
M  V30 2138 C 204.131 -1.59498 6.48164 0
M  V30 2139 H 203.401 -0.524952 0.522978 0
M  V30 2140 H 206.048 -0.769097 1.75377 0
M  V30 2141 H 204.353 -3.36349 2.00939 0
M  V30 2142 H 206.05 -3.22949 2.37707 0
M  V30 2143 H 202.64 -2.40334 3.54877 0
M  V30 2144 H 206.824 -2.11969 4.48757 0
M  V30 2145 H 202.08 -1.76168 5.8547 0
M  V30 2146 H 206.254 -1.48767 6.80324 0
M  V30 2147 H 203.881 -1.30322 7.48946 0
M  V30 2148 N 205.456 -1.28612 -0.910864 0
M  V30 2149 C 206.419 -1.12803 -1.9952 0
M  V30 2150 C 207.419 -0.0668264 -1.60661 0
M  V30 2151 O 208.609 -0.312847 -1.71368 0
M  V30 2152 C 205.741 -0.72254 -3.33155 0
M  V30 2153 H 206.934 -2.09109 -2.14973 0
M  V30 2154 H 204.487 -1.11639 -1.09391 0
M  V30 2155 H 205.222 0.241152 -3.23402 0
M  V30 2156 H 205.007 -1.48916 -3.62721 0
M  V30 2157 H 206.497 -0.634666 -4.12749 0
M  V30 2158 N 206.934 1.1197 -1.10907 0
M  V30 2159 C 208.18 1.84059 -0.865674 0
M  V30 2160 C 208.535 1.82731 0.602254 0
M  V30 2161 O 207.828 1.26543 1.43866 0
M  V30 2162 C 208.022 3.30749 -1.35425 0
M  V30 2163 C 207.851 3.46363 -2.86815 0
M  V30 2164 C 206.621 3.59712 -3.54874 0
M  V30 2165 C 208.819 3.41116 -3.84895 0
M  V30 2166 N 206.801 3.63741 -4.94536 0
M  V30 2167 C 208.172 3.51698 -5.10596 0
M  V30 2168 C 210.227 3.24612 -3.77533 0
M  V30 2169 C 208.93 3.4748 -6.29802 0
M  V30 2170 C 210.956 3.21708 -4.96244 0
M  V30 2171 C 210.318 3.32856 -6.20795 0
M  V30 2172 H 206.417 0.689015 -0.369841 0
M  V30 2173 H 209.001 1.34016 -1.41237 0
M  V30 2174 H 207.172 3.79322 -0.834814 0
M  V30 2175 H 208.904 3.90718 -1.05458 0
M  V30 2176 H 205.659 3.62038 -3.05329 0
M  V30 2177 H 206.083 3.69408 -5.67333 0
M  V30 2178 H 210.725 3.14883 -2.8215 0
M  V30 2179 H 208.443 3.55978 -7.25469 0
M  V30 2180 H 212.029 3.10113 -4.92261 0
M  V30 2181 H 210.909 3.3059 -7.11112 0
M  V30 2182 N 208.412 0.89855 1.29475 0
M  V30 2183 C 209.359 0.373819 2.27753 0
M  V30 2184 C 210.329 -0.543444 1.56958 0
M  V30 2185 O 211.514 -0.468934 1.84948 0
M  V30 2186 C 208.654 -0.393648 3.42848 0
M  V30 2187 C 207.767 0.554379 4.28428 0
M  V30 2188 C 206.902 -0.230026 5.30702 0
M  V30 2189 C 205.941 0.712599 6.07938 0
M  V30 2190 N 205.078 -0.0373283 7.0209 0
M  V30 2191 H 209.918 1.21699 2.72017 0
M  V30 2192 H 207.455 0.611456 1.33789 0
M  V30 2193 H 209.413 -0.85466 4.08352 0
M  V30 2194 H 208.043 -1.20128 2.99615 0
M  V30 2195 H 207.095 1.13391 3.63107 0
M  V30 2196 H 208.407 1.27597 4.82204 0
M  V30 2197 H 207.561 -0.752288 6.02018 0
M  V30 2198 H 206.3 -0.984758 4.77654 0
M  V30 2199 H 205.305 1.24637 5.35486 0
M  V30 2200 H 206.53 1.46664 6.63074 0
M  V30 2201 H 204.476 -0.774348 6.51414 0
M  V30 2202 H 204.393 0.624374 7.53417 0
M  V30 2203 H 205.661 -0.539891 7.77628 0
M  V30 2204 N 209.89 -1.43072 0.660911 0
M  V30 2205 C 210.838 -2.32569 -0.0378199 0
M  V30 2206 C 211.832 -1.49046 -0.805092 0
M  V30 2207 O 213.038 -1.65206 -0.714624 0
M  V30 2208 H 209.413 -0.75136 -0.031019 0
M  V30 2209 H 211.384 -2.89216 0.734609 0
M  V30 2210 C 210.133 -3.33453 -0.985124 0
M  V30 2211 H 209.456 -3.97752 -0.404147 0
M  V30 2212 H 210.896 -3.98691 -1.44297 0
M  V30 2213 C 209.355 -2.64642 -2.08486 0
M  V30 2214 O 209.885 -2.46776 -3.16961 0
M  V30 2215 N 208.091 -2.23891 -1.8526 0
M  V30 2216 H 207.638 -2.38621 -0.970449 0
M  V30 2217 H 207.596 -1.78181 -2.59034 0
M  V30 2218 N 211.368 -0.403325 -1.52352 0
M  V30 2219 C 212.614 0.174605 -2.02047 0
M  V30 2220 C 212.947 1.45282 -1.28867 0
M  V30 2221 O 212.222 1.90483 -0.393257 0
M  V30 2222 C 212.505 0.428238 -3.57545 0
M  V30 2223 C 212.358 -0.866248 -4.4138 0
M  V30 2224 C 213.677 1.21287 -4.23057 0
M  V30 2225 H 210.796 0.0619851 -0.734389 0
M  V30 2226 H 213.438 -0.53565 -1.82293 0
M  V30 2227 H 211.588 1.03327 -3.74507 0
M  V30 2228 H 213.26 -1.50265 -4.3614 0
M  V30 2229 H 211.503 -1.47851 -4.07827 0
M  V30 2230 H 212.174 -0.643249 -5.48239 0
M  V30 2231 H 214.65 0.700703 -4.10158 0
M  V30 2232 H 213.526 1.35909 -5.31808 0
M  V30 2233 H 213.787 2.23193 -3.81625 0
M  V30 2234 N 212.846 1.57033 -0.133567 0
M  V30 2235 C 214.123 1.87256 0.56522 0
M  V30 2236 C 214.503 1.03726 1.83859 0
M  V30 2237 O 213.851 0.120247 2.28183 0
M  V30 2238 C 214.061 3.3865 0.843636 0
M  V30 2239 C 215.409 4.07574 1.19032 0
M  V30 2240 O 216.433 3.43752 0.933429 0
M  V30 2241 O 215.292 5.20259 1.67312 0
M  V30 2242 H 212.386 0.775678 0.286796 0
M  V30 2243 H 214.932 1.68855 -0.169168 0
M  V30 2244 H 213.704 3.91257 -0.0581149 0
M  V30 2245 H 213.327 3.62532 1.63268 0
M  V30 2246 N 214.325 -0.140222 1.56975 0
M  V30 2247 C 215.572 -0.851687 1.83719 0
M  V30 2248 C 215.9 -1.80862 0.715485 0
M  V30 2249 O 215.155 -1.93464 -0.294956 0
M  V30 2250 C 215.454 -1.65386 3.16832 0
M  V30 2251 C 215.12 -0.843112 4.42947 0
M  V30 2252 C 213.782 -0.619464 4.77196 0
M  V30 2253 C 216.134 -0.276582 5.20466 0
M  V30 2254 C 213.462 0.181312 5.8642 0
M  V30 2255 C 215.814 0.51127 6.30531 0
M  V30 2256 C 214.478 0.745432 6.63325 0
M  V30 2257 H 213.748 -0.311654 0.672274 0
M  V30 2258 H 216.395 -0.115006 1.91154 0
M  V30 2259 H 214.7 -2.46084 3.04877 0
M  V30 2260 H 216.397 -2.20793 3.34741 0
M  V30 2261 H 212.987 -1.0275 4.16101 0
M  V30 2262 H 217.171 -0.436632 4.94376 0
M  V30 2263 H 212.427 0.372165 6.10266 0
M  V30 2264 H 216.601 0.957354 6.89788 0
M  V30 2265 H 214.228 1.36778 7.47794 0
M  V30 2266 N 215.803 -1.52179 -0.40978 0
M  V30 2267 C 216.733 -1.78435 -1.5061 0
M  V30 2268 C 217.714 -0.635295 -1.57791 0
M  V30 2269 O 218.899 -0.880823 -1.73076 0
M  V30 2270 C 216.029 -1.93444 -2.88439 0
M  V30 2271 C 214.983 -3.09038 -2.96108 0
M  V30 2272 C 214.309 -3.09268 -4.36185 0
M  V30 2273 C 215.609 -4.48508 -2.67652 0
M  V30 2274 H 217.303 -2.70237 -1.28889 0
M  V30 2275 H 214.849 -1.30036 -0.618605 0
M  V30 2276 H 216.802 -2.10394 -3.65119 0
M  V30 2277 H 215.526 -0.983129 -3.11452 0
M  V30 2278 H 214.185 -2.91837 -2.21872 0
M  V30 2279 H 213.833 -2.11861 -4.56206 0
M  V30 2280 H 213.533 -3.86907 -4.42241 0
M  V30 2281 H 215.057 -3.28348 -5.14801 0
M  V30 2282 H 216.471 -4.65918 -3.34056 0
M  V30 2283 H 214.868 -5.28059 -2.85085 0
M  V30 2284 H 215.938 -4.56649 -1.63095 0
M  V30 2285 N 217.281 0.66697 -1.42791 0
M  V30 2286 C 218.53 1.42278 -1.42968 0
M  V30 2287 C 218.843 1.9553 -0.0524489 0
M  V30 2288 O 220.049 2.71414 0.068363 0
M  V30 2289 C 218.505 2.57418 -2.51524 0
M  V30 2290 C 218.113 2.10832 -3.9529 0
M  V30 2291 C 219.857 3.34878 -2.60877 0
M  V30 2292 C 217.764 3.23101 -4.95338 0
M  V30 2293 H 216.694 0.534533 -0.531781 0
M  V30 2294 H 219.345 0.721302 -1.68729 0
M  V30 2295 H 217.727 3.29971 -2.18941 0
M  V30 2296 H 218.901 1.4538 -4.37266 0
M  V30 2297 H 217.216 1.46289 -3.89857 0
M  V30 2298 H 219.813 4.18505 -3.32802 0
M  V30 2299 H 220.156 3.81993 -1.6549 0
M  V30 2300 H 220.689 2.69398 -2.92693 0
M  V30 2301 H 217.428 2.80969 -5.9223 0
M  V30 2302 H 216.948 3.87309 -4.57987 0
M  V30 2303 H 218.627 3.88447 -5.17415 0
M  V30 2304 N 218.759 1.29093 0.90403 0
M  V30 2305 C 219.722 1.1386 1.98919 0
M  V30 2306 C 220.722 0.0753457 1.60623 0
M  V30 2307 O 221.912 0.321931 1.71199 0
M  V30 2308 C 219.044 0.740198 3.32767 0
M  V30 2309 H 220.237 2.10246 2.13861 0
M  V30 2310 H 217.79 1.12218 1.08797 0
M  V30 2311 H 218.525 -0.223997 3.23525 0
M  V30 2312 H 218.31 1.50838 3.61926 0
M  V30 2313 H 219.8 0.656546 4.12407 0
M  V30 2314 N 220.237 -1.11381 1.11499 0
M  V30 2315 C 221.147 -2.21019 0.786628 0
M  V30 2316 C 222.163 -1.72597 -0.220507 0
M  V30 2317 O 223.339 -2.01321 -0.0565251 0
M  V30 2318 C 220.404 -3.459 0.235333 0
M  V30 2319 C 219.465 -4.09107 1.30115 0
M  V30 2320 C 218.698 -5.28027 0.776068 0
M  V30 2321 O 218.921 -5.6904 -0.393661 0
M  V30 2322 O 217.855 -5.81835 1.54114 0
M  V30 2323 H 221.681 -2.51521 1.70209 0
M  V30 2324 H 219.266 -1.19928 0.890928 0
M  V30 2325 H 221.148 -4.21346 -0.067715 0
M  V30 2326 H 219.823 -3.17049 -0.652828 0
M  V30 2327 H 218.73 -3.35391 1.65722 0
M  V30 2328 H 220.063 -4.42139 2.16273 0
M  V30 2329 N 221.715 -0.905404 -1.28997 0
M  V30 2330 C 222.945 -0.549049 -1.99171 0
M  V30 2331 C 223.353 0.87203 -1.67906 0
M  V30 2332 O 222.696 1.58796 -0.923561 0
M  V30 2333 C 222.758 -0.668306 -3.53234 0
M  V30 2334 C 222.422 -2.0574 -4.08069 0
M  V30 2335 C 223.419 -3.0292 -4.22534 0
M  V30 2336 C 221.104 -2.36833 -4.42962 0
M  V30 2337 C 223.098 -4.29314 -4.71135 0
M  V30 2338 C 220.785 -3.63467 -4.91258 0
M  V30 2339 C 221.783 -4.59522 -5.053 0
M  V30 2340 O 221.471 -5.83907 -5.52546 0
M  V30 2341 H 221.203 -0.208784 -0.64295 0
M  V30 2342 H 223.757 -1.21836 -1.65363 0
M  V30 2343 H 221.987 0.0580547 -3.86656 0
M  V30 2344 H 223.676 -0.320273 -4.04634 0
M  V30 2345 H 224.442 -2.80216 -3.95859 0
M  V30 2346 H 220.321 -1.62824 -4.31288 0
M  V30 2347 H 223.865 -5.04293 -4.8201 0
M  V30 2348 H 219.762 -3.86 -5.17372 0
M  V30 2349 H 220.53 -5.86578 -5.70849 0
M  V30 2350 N 223.193 1.4272 -0.668489 0
M  V30 2351 C 224.44 2.01624 -0.18814 0
M  V30 2352 C 224.768 1.5282 1.20317 0
M  V30 2353 O 224.023 0.718323 1.8204 0
M  V30 2354 C 224.322 3.57021 -0.164499 0
M  V30 2355 C 223.988 4.25232 -1.49962 0
M  V30 2356 C 222.65 4.4358 -1.8652 0
M  V30 2357 C 225.002 4.63727 -2.37921 0
M  V30 2358 C 222.33 4.97694 -3.10674 0
M  V30 2359 C 224.682 5.19218 -3.6138 0
M  V30 2360 C 223.346 5.3578 -3.98115 0
M  V30 2361 H 222.616 0.737795 -0.0688454 0
M  V30 2362 H 225.263 1.70991 -0.862225 0
M  V30 2363 H 223.568 3.87285 0.593079 0
M  V30 2364 H 225.265 4.00372 0.224271 0
M  V30 2365 H 221.855 4.11306 -1.20522 0
M  V30 2366 H 226.039 4.4923 -2.10964 0
M  V30 2367 H 221.295 5.08702 -3.39164 0
M  V30 2368 H 225.469 5.4799 -4.29743 0
M  V30 2369 H 223.096 5.77475 -4.94395 0
M  V30 2370 N 224.671 0.411399 1.52136 0
M  V30 2371 C 225.581 -0.419774 2.30814 0
M  V30 2372 C 226.597 -1.0515 1.38634 0
M  V30 2373 O 227.773 -1.05252 1.71709 0
M  V30 2374 C 224.838 -1.52019 3.11594 0
M  V30 2375 C 223.899 -0.91129 4.19516 0
M  V30 2376 C 223.132 -1.95927 4.96436 0
M  V30 2377 O 223.355 -3.17775 4.73683 0
M  V30 2378 O 222.289 -1.56423 5.81219 0
M  V30 2379 H 226.115 0.221805 3.02889 0
M  V30 2380 H 223.7 0.174547 1.48377 0
M  V30 2381 H 225.582 -2.15898 3.61892 0
M  V30 2382 H 224.257 -2.14633 2.42311 0
M  V30 2383 H 223.164 -0.235157 3.7336 0
M  V30 2384 H 224.497 -0.32904 4.91099 0
M  V30 2385 N 226.149 -1.5696 0.141893 0
M  V30 2386 C 227.099 -2.13074 -0.811383 0
M  V30 2387 C 228.083 -1.05726 -1.21288 0
M  V30 2388 O 229.275 -1.31914 -1.18015 0
M  V30 2389 C 226.404 -2.75186 -2.0525 0
M  V30 2390 C 225.49 -3.8965 -1.67432 0
M  V30 2391 N 225.881 -4.95733 -1.0041 0
M  V30 2392 C 224.179 -4.00262 -1.96739 0
M  V30 2393 C 224.88 -5.75858 -0.822345 0
M  V30 2394 N 223.856 -5.26452 -1.3546 0
M  V30 2395 H 227.658 -2.92465 -0.290031 0
M  V30 2396 H 225.172 -1.6229 -0.0598218 0
M  V30 2397 H 227.169 -3.13745 -2.74535 0
M  V30 2398 H 225.829 -1.97266 -2.57907 0
M  V30 2399 H 226.84 -5.13607 -0.665441 0
M  V30 2400 H 223.517 -3.33412 -2.51282 0
M  V30 2401 H 224.907 -6.71254 -0.294496 0
M  V30 2402 N 227.627 0.131896 -1.57047 0
M  V30 2403 C 228.873 0.843179 -1.84441 0
M  V30 2404 C 229.206 1.80129 -0.725749 0
M  V30 2405 O 228.481 1.92624 0.269469 0
M  V30 2406 C 228.764 1.60442 -3.22382 0
M  V30 2407 C 228.617 0.666782 -4.4483 0
M  V30 2408 C 229.936 2.56354 -3.5773 0
M  V30 2409 H 227.055 0.305081 -0.670891 0
M  V30 2410 H 229.697 0.107839 -1.89694 0
M  V30 2411 H 227.847 2.23128 -3.18035 0
M  V30 2412 H 229.519 0.0497646 -4.61273 0
M  V30 2413 H 227.762 -0.022609 -4.33794 0
M  V30 2414 H 228.433 1.23579 -5.37989 0
M  V30 2415 H 230.909 2.0378 -3.62785 0
M  V30 2416 H 229.785 3.06657 -4.5525 0
M  V30 2417 H 230.046 3.38419 -2.84473 0
M  V30 2418 N 229.106 1.52395 0.401703 0
M  V30 2419 C 230.016 1.7917 1.51444 0
M  V30 2420 C 231.032 0.677691 1.6026 0
M  V30 2421 O 232.208 0.963909 1.76835 0
M  V30 2422 C 229.273 1.94347 2.87107 0
M  V30 2423 C 228.334 3.18257 2.88116 0
M  V30 2424 C 227.567 3.32701 4.17308 0
M  V30 2425 O 227.79 2.52238 5.11598 0
M  V30 2426 O 226.724 4.25891 4.25324 0
M  V30 2427 H 230.55 2.73633 1.31752 0
M  V30 2428 H 228.135 1.3733 0.588296 0
M  V30 2429 H 230.017 2.06109 3.67555 0
M  V30 2430 H 228.692 1.03073 3.06851 0
M  V30 2431 H 227.599 3.11947 2.06494 0
M  V30 2432 H 228.932 4.09336 2.73322 0
M  V30 2433 N 230.584 -0.659388 1.43143 0
M  V30 2434 C 231.494 -1.80167 1.50256 0
M  V30 2435 C 232.51 -1.69571 0.390106 0
M  V30 2436 O 233.686 -1.90849 0.643319 0
M  V30 2437 C 230.751 -3.16409 1.41725 0
M  V30 2438 C 229.812 -3.38848 2.63591 0
M  V30 2439 C 229.045 -4.68591 2.55458 0
M  V30 2440 O 229.268 -5.47532 1.59891 0
M  V30 2441 O 228.202 -4.92614 3.45854 0
M  V30 2442 H 232.028 -1.77121 2.46702 0
M  V30 2443 H 229.613 -0.817092 1.25076 0
M  V30 2444 H 231.495 -3.9768 1.39387 0
M  V30 2445 H 230.17 -3.20059 0.484118 0
M  V30 2446 H 229.077 -2.57366 2.71502 0
M  V30 2447 H 230.41 -3.4004 3.55856 0
M  V30 2448 N 232.062 -1.29571 -0.897171 0
M  V30 2449 C 233.025 -1.14913 -1.98312 0
M  V30 2450 C 234.025 -0.0838629 -1.60581 0
M  V30 2451 O 235.215 -0.331006 -1.71026 0
M  V30 2452 C 232.347 -0.757835 -3.3237 0
M  V30 2453 H 233.54 -2.11377 -2.12743 0
M  V30 2454 H 231.093 -1.12793 -1.08201 0
M  V30 2455 H 231.828 0.206837 -3.2364 0
M  V30 2456 H 231.613 -1.52755 -3.61121 0
M  V30 2457 H 233.103 -0.678408 -4.12053 0
M  V30 2458 N 233.54 1.10788 -1.12088 0
M  V30 2459 C 234.786 1.82942 -0.875226 0
M  V30 2460 C 235.119 1.84779 0.597538 0
M  V30 2461 O 234.394 1.30578 1.44152 0
M  V30 2462 C 234.677 3.29789 -1.44606 0
M  V30 2463 C 234.53 3.36307 -2.98693 0
M  V30 2464 C 235.849 4.26064 -1.10261 0
M  V30 2465 H 232.968 0.664195 -0.319397 0
M  V30 2466 H 235.61 1.29867 -1.38689 0
M  V30 2467 H 233.76 3.75118 -1.01089 0
M  V30 2468 H 235.432 2.99487 -3.50864 0
M  V30 2469 H 233.675 2.76318 -3.34411 0
M  V30 2470 H 234.346 4.39694 -3.33726 0
M  V30 2471 H 236.822 3.88951 -1.4784 0
M  V30 2472 H 235.698 5.27183 -1.52869 0
M  V30 2473 H 235.959 4.42098 -0.0142953 0
M  V30 2474 N 235.018 0.912232 1.28515 0
M  V30 2475 C 236.264 0.554851 1.95686 0
M  V30 2476 C 236.619 -0.89138 1.70506 0
M  V30 2477 O 235.912 -1.62529 1.01464 0
M  V30 2478 C 236.106 0.798392 3.48368 0
M  V30 2479 C 235.935 2.26674 3.88393 0
M  V30 2480 C 234.705 2.91657 4.12631 0
M  V30 2481 C 236.903 3.24303 3.99164 0
M  V30 2482 N 234.885 4.28805 4.39317 0
M  V30 2483 C 236.256 4.4661 4.30046 0
M  V30 2484 C 238.311 3.19723 3.81683 0
M  V30 2485 C 237.014 5.64915 4.45268 0
M  V30 2486 C 239.04 4.37325 3.98121 0
M  V30 2487 C 238.402 5.58406 4.29375 0
M  V30 2488 H 234.501 0.252876 0.739985 0
M  V30 2489 H 237.085 1.17565 1.55199 0
M  V30 2490 H 235.256 0.20688 3.87849 0
M  V30 2491 H 236.988 0.405193 4.02666 0
M  V30 2492 H 233.743 2.42393 4.06869 0
M  V30 2493 H 234.167 4.99712 4.56746 0
M  V30 2494 H 238.809 2.27191 3.56573 0
M  V30 2495 H 236.527 6.57927 4.6921 0
M  V30 2496 H 240.113 4.35282 3.86033 0
M  V30 2497 H 238.993 6.47889 4.41825 0
M  V30 2498 N 236.496 -1.42363 0.676048 0
M  V30 2499 C 237.459 -2.29199 0.00766941 0
M  V30 2500 C 238.459 -1.43389 -0.727745 0
M  V30 2501 O 239.649 -1.64764 -0.56556 0
M  V30 2502 C 236.781 -3.2591 -0.999785 0
M  V30 2503 H 237.974 -2.89794 0.771988 0
M  V30 2504 H 235.527 -1.50024 0.438468 0
M  V30 2505 H 236.262 -2.70256 -1.79255 0
M  V30 2506 H 236.047 -3.89202 -0.475829 0
M  V30 2507 H 237.537 -3.91028 -1.46583 0
M  V30 2508 N 237.974 -0.419461 -1.51915 0
M  V30 2509 C 239.22 0.153166 -2.02221 0
M  V30 2510 C 239.553 1.43907 -1.30401 0
M  V30 2511 O 238.828 1.90055 -0.413438 0
M  V30 2512 C 239.111 0.390291 -3.57979 0
M  V30 2513 C 238.964 -0.913014 -4.40436 0
M  V30 2514 C 240.283 1.16794 -4.2432 0
M  V30 2515 H 237.402 0.0541924 -0.735005 0
M  V30 2516 H 240.044 -0.554955 -1.81715 0
M  V30 2517 H 238.194 0.993491 -3.75582 0
M  V30 2518 H 239.866 -1.54882 -4.34522 0
M  V30 2519 H 238.109 -1.52168 -4.06236 0
M  V30 2520 H 238.78 -0.701361 -5.47526 0
M  V30 2521 H 241.256 0.657161 -4.10878 0
M  V30 2522 H 240.132 1.3026 -5.3322 0
M  V30 2523 H 240.393 2.19132 -3.83971 0
M  V30 2524 N 239.452 1.56882 -0.150215 0
M  V30 2525 C 240.362 2.20494 0.801222 0
M  V30 2526 C 241.378 1.19019 1.26927 0
M  V30 2527 O 242.554 1.51607 1.32579 0
M  V30 2528 C 239.619 2.81659 2.02161 0
M  V30 2529 C 238.68 3.9827 1.60249 0
M  V30 2530 C 237.913 4.56508 2.7647 0
M  V30 2531 O 238.136 4.13627 3.92771 0
M  V30 2532 O 237.07 5.46719 2.51757 0
M  V30 2533 H 240.896 3.02315 0.289717 0
M  V30 2534 H 238.481 1.49202 0.0769684 0
M  V30 2535 H 240.363 3.20522 2.73576 0
M  V30 2536 H 239.038 2.02849 2.52258 0
M  V30 2537 H 237.945 3.64117 0.858477 0
M  V30 2538 H 239.278 4.78609 1.14864 0
M  V30 2539 N 240.93 -0.123565 1.57115 0
M  V30 2540 C 242.176 -0.833386 1.84885 0
M  V30 2541 C 242.509 -1.79742 0.735292 0
M  V30 2542 O 241.784 -1.92764 -0.25925 0
M  V30 2543 C 242.067 -1.5873 3.23228 0
M  V30 2544 C 241.92 -0.643183 4.45178 0
M  V30 2545 C 243.239 -2.54453 3.59085 0
M  V30 2546 H 240.358 -0.301518 0.6725 0
M  V30 2547 H 243 -0.097778 1.89748 0
M  V30 2548 H 241.15 -2.21438 3.19214 0
M  V30 2549 H 242.822 -0.0253015 4.61293 0
M  V30 2550 H 241.065 0.0456139 4.33776 0
M  V30 2551 H 241.736 -1.20724 5.38637 0
M  V30 2552 H 244.212 -2.01853 3.63861 0
M  V30 2553 H 243.088 -3.04238 4.5687 0
M  V30 2554 H 243.349 -3.36906 2.86264 0
M  V30 2555 N 242.408 -1.52605 -0.393616 0
M  V30 2556 C 243.338 -1.80022 -1.48709 0
M  V30 2557 C 244.319 -0.651995 -1.57108 0
M  V30 2558 O 245.504 -0.89913 -1.72132 0
M  V30 2559 C 242.634 -1.96492 -2.86371 0
M  V30 2560 C 241.588 -3.12161 -2.92813 0
M  V30 2561 C 240.914 -3.13877 -4.3288 0
M  V30 2562 C 242.214 -4.51322 -2.6288 0
M  V30 2563 H 243.908 -2.71589 -1.26015 0
M  V30 2564 H 241.454 -1.30684 -0.604778 0
M  V30 2565 H 243.407 -2.14255 -3.62867 0
M  V30 2566 H 242.131 -1.01611 -3.10391 0
M  V30 2567 H 240.79 -2.94173 -2.18764 0
M  V30 2568 H 240.438 -2.16687 -4.53933 0
M  V30 2569 H 240.138 -3.91576 -4.38112 0
M  V30 2570 H 241.662 -3.33789 -5.1129 0
M  V30 2571 H 243.076 -4.69435 -3.29096 0
M  V30 2572 H 241.473 -5.31053 -2.79468 0
M  V30 2573 H 242.543 -4.58353 -1.58242 0
M  V30 2574 N 243.887 0.651787 -1.4349 0
M  V30 2575 C 244.834 1.76462 -1.4876 0
M  V30 2576 C 245.804 1.62641 -0.337189 0
M  V30 2577 O 246.989 1.82864 -0.544544 0
M  V30 2578 C 244.129 3.14623 -1.41796 0
M  V30 2579 C 243.242 3.39568 -2.67053 0
M  V30 2580 C 242.377 4.67585 -2.52068 0
M  V30 2581 C 241.416 4.85639 -3.72587 0
M  V30 2582 N 240.553 6.04915 -3.56402 0
M  V30 2583 H 245.393 1.71293 -2.43849 0
M  V30 2584 H 242.93 0.835889 -1.21043 0
M  V30 2585 H 244.888 3.94496 -1.35753 0
M  V30 2586 H 243.518 3.18859 -0.50288 0
M  V30 2587 H 242.57 2.53783 -2.8337 0
M  V30 2588 H 243.882 3.48795 -3.56572 0
M  V30 2589 H 243.036 5.55586 -2.4374 0
M  V30 2590 H 241.775 4.60681 -1.60075 0
M  V30 2591 H 240.78 3.96073 -3.81321 0
M  V30 2592 H 242.005 4.94372 -4.65589 0
M  V30 2593 H 239.951 5.9914 -2.67146 0
M  V30 2594 H 239.868 6.15106 -4.39524 0
M  V30 2595 H 241.136 6.95533 -3.51929 0
M  V30 2596 N 245.365 1.30045 0.890287 0
M  V30 2597 C 246.275 1.17885 2.02831 0
M  V30 2598 C 247.291 0.0999609 1.73713 0
M  V30 2599 O 248.467 0.313867 1.98939 0
M  V30 2600 C 245.532 0.866079 3.35708 0
M  V30 2601 C 244.593 2.02979 3.78283 0
M  V30 2602 C 243.826 1.73184 5.0482 0
M  V30 2603 O 244.049 0.657237 5.66601 0
M  V30 2604 O 242.983 2.58267 5.43674 0
M  V30 2605 H 246.809 2.13474 2.16015 0
M  V30 2606 H 244.394 1.09587 1.01543 0
M  V30 2607 H 246.276 0.706623 4.15433 0
M  V30 2608 H 244.951 -0.0599443 3.23644 0
M  V30 2609 H 243.858 2.24454 2.99285 0
M  V30 2610 H 245.191 2.93734 3.94944 0
M  V30 2611 N 246.843 -1.10192 1.12674 0
M  V30 2612 C 248.068 -1.86523 0.906853 0
M  V30 2613 C 248.493 -1.80221 -0.538711 0
M  V30 2614 O 247.851 -1.17396 -1.38158 0
M  V30 2615 C 247.899 -3.32758 1.3894 0
M  V30 2616 O 247.003 -4.08449 0.5695 0
M  V30 2617 H 246.344 -0.578678 0.325619 0
M  V30 2618 H 248.874 -1.39203 1.49946 0
M  V30 2619 H 248.884 -3.83608 1.38958 0
M  V30 2620 H 247.559 -3.36661 2.44197 0
M  V30 2621 H 246.136 -3.67427 0.636528 0
M  V30 2622 N 248.321 -0.919034 -1.28029 0
M  V30 2623 C 249.598 -0.473668 -1.89778 0
M  V30 2624 C 249.978 1.04783 -1.83259 0
M  V30 2625 O 249.326 1.8982 -1.27202 0
M  V30 2626 C 249.536 -1.00998 -3.34066 0
M  V30 2627 C 250.884 -1.06525 -4.1102 0
M  V30 2628 O 251.908 -0.958996 -3.43048 0
M  V30 2629 O 250.767 -1.22776 -5.3253 0
M  V30 2630 H 247.861 -0.15098 -0.813101 0
M  V30 2631 H 250.407 -1.01016 -1.36359 0
M  V30 2632 H 249.179 -2.05392 -3.33061 0
M  V30 2633 H 248.802 -0.454626 -3.94992 0
M  V30 2634 N 249.799 1.42003 -0.683588 0
M  V30 2635 C 251.215 1.55625 -0.353976 0
M  V30 2636 C 251.415 1.66151 1.14 0
M  V30 2637 O 250.471 1.63329 1.92561 0
M  V30 2638 C 251.784 2.80171 -1.092 0
M  V30 2639 C 253.332 2.93954 -1.07518 0
M  V30 2640 C 253.807 4.21372 -1.79471 0
M  V30 2641 N 255.298 4.28303 -1.76381 0
M  V30 2642 C 256.033 5.25729 -2.28904 0
M  V30 2643 N 255.529 6.29254 -2.89846 0
M  V30 2644 N 257.322 5.17586 -2.19228 0
M  V30 2645 H 249.473 1.33415 -1.6527 0
M  V30 2646 H 251.736 0.64282 -0.696769 0
M  V30 2647 H 251.442 2.78561 -2.14701 0
M  V30 2648 H 251.316 3.7133 -0.662862 0
M  V30 2649 H 253.703 2.95086 -0.028475 0
M  V30 2650 H 253.784 2.04002 -1.54328 0
M  V30 2651 H 253.428 4.21001 -2.84114 0
M  V30 2652 H 253.358 5.10275 -1.30104 0
M  V30 2653 H 255.849 3.54119 -1.31939 0
M  V30 2654 H 256.162 6.99964 -3.27522 0
M  V30 2655 H 254.507 6.29791 -2.93919 0
M  V30 2656 H 257.698 4.35631 -1.71299 0
M  V30 2657 H 257.871 5.93348 -2.60466 0
M  V30 2658 N 251.277 0.427512 1.51691 0
M  V30 2659 C 252.688 -0.0378867 1.86662 0
M  V30 2660 C 253.039 -1.42819 1.34525 0
M  V30 2661 O 252.164 -2.05037 0.692014 0
M  V30 2662 C 252.759 -0.0755266 3.38716 0
M  V30 2663 C 251.318 -0.485309 3.73258 0
M  V30 2664 C 250.465 0.328399 2.75349 0
M  V30 2665 H 253.416 0.64379 1.45055 0
M  V30 2666 H 253.437 -0.887056 3.70016 0
M  V30 2667 H 252.949 0.936487 3.76632 0
M  V30 2668 H 251.05 -1.50329 3.40928 0
M  V30 2669 H 251.163 -0.21693 4.78609 0
M  V30 2670 H 249.527 -0.211905 2.53817 0
M  V30 2671 H 250.31 1.3391 3.16106 0
M  V30 2672 N 252.755 -1.56801 0.158532 0
M  V30 2673 C 254.001 -1.96781 -0.490405 0
M  V30 2674 C 254.334 -1.04397 -1.63753 0
M  V30 2675 O 253.609 -0.0885805 -1.94298 0
M  V30 2676 C 253.892 -3.4635 -0.985594 0
M  V30 2677 C 253.745 -4.49512 0.160824 0
M  V30 2678 C 255.064 -3.98697 -1.86355 0
M  V30 2679 H 252.183 -0.715482 -0.176788 0
M  V30 2680 H 254.825 -1.88451 0.242088 0
M  V30 2681 H 252.975 -3.53579 -1.60978 0
M  V30 2682 H 254.647 -4.54353 0.797537 0
M  V30 2683 H 252.89 -4.26013 0.818256 0
M  V30 2684 H 253.561 -5.51531 -0.227569 0
M  V30 2685 H 256.037 -3.94019 -1.33746 0
M  V30 2686 H 254.913 -5.03792 -2.17909 0
M  V30 2687 H 255.174 -3.41744 -2.8047 0
M  V30 2688 N 254.233 0.115231 -1.57178 0
M  V30 2689 C 255.196 1.12526 -1.99676 0
M  V30 2690 C 256.196 1.34095 -0.88742 0
M  V30 2691 O 257.386 1.30548 -1.15337 0
M  V30 2692 C 254.518 2.4789 -2.34015 0
M  V30 2693 H 255.711 0.759912 -2.90113 0
M  V30 2694 H 253.264 0.359648 -1.52106 0
M  V30 2695 H 253.999 2.89339 -1.4647 0
M  V30 2696 H 253.784 2.33588 -3.14927 0
M  V30 2697 H 255.274 3.20575 -2.67622 0
M  V30 2698 N 255.711 1.52812 0.385517 0
M  V30 2699 C 256.957 1.68275 1.13188 0
M  V30 2700 C 257.29 0.423179 1.89533 0
M  V30 2701 O 256.565 -0.579113 1.85679 0
M  V30 2702 C 256.848 2.92001 2.1073 0
M  V30 2703 C 256.701 4.28067 1.38125 0
M  V30 2704 C 258.02 3.11283 3.11113 0
M  V30 2705 H 255.139 0.612352 0.410115 0
M  V30 2706 H 257.781 1.85415 0.414869 0
M  V30 2707 H 255.931 2.77519 2.71874 0
M  V30 2708 H 257.603 4.54324 0.799187 0
M  V30 2709 H 255.846 4.28388 0.683092 0
M  V30 2710 H 256.517 5.10733 2.09417 0
M  V30 2711 H 258.993 3.2482 2.6006 0
M  V30 2712 H 257.869 3.99325 3.76605 0
M  V30 2713 H 258.13 2.25656 3.80173 0
M  V30 2714 N 257.189 -0.644168 1.43834 0
M  V30 2715 C 258.417 -1.43147 1.49387 0
M  V30 2716 C 258.832 -1.88452 0.114583 0
M  V30 2717 O 258.189 -1.60047 -0.876989 0
M  V30 2718 C 258.24 -2.66046 2.44748 0
M  V30 2719 O 257.961 -2.22633 3.77314 0
M  V30 2720 C 259.462 -3.59311 2.59635 0
M  V30 2721 H 256.682 -0.439447 0.507077 0
M  V30 2722 H 259.226 -0.78895 1.88669 0
M  V30 2723 H 257.381 -3.26418 2.08638 0
M  V30 2724 H 257.795 -3.02216 4.28679 0
M  V30 2725 H 259.269 -4.42187 3.30416 0
M  V30 2726 H 259.746 -4.07259 1.64427 0
M  V30 2727 H 260.352 -3.04816 2.96593 0
M  V30 2728 N 258.668 -1.30515 -0.883378 0
M  V30 2729 C 259.601 -1.11359 -1.99184 0
M  V30 2730 C 260.579 -0.0207858 -1.62587 0
M  V30 2731 O 261.763 -0.174646 -1.87689 0
M  V30 2732 C 258.89 -0.69871 -3.31415 0
M  V30 2733 C 257.936 -1.79261 -3.86998 0
M  V30 2734 S 258.769 -3.39536 -4.14096 0
M  V30 2735 C 259.925 -2.99954 -5.49344 0
M  V30 2736 H 260.158 -2.052 -2.15128 0
M  V30 2737 H 257.691 -1.14847 -1.03196 0
M  V30 2738 H 259.649 -0.466075 -4.07846 0
M  V30 2739 H 258.31 0.220368 -3.13326 0
M  V30 2740 H 257.503 -1.45464 -4.82552 0
M  V30 2741 H 257.105 -1.97961 -3.17313 0
M  V30 2742 H 259.397 -2.48013 -6.30473 0
M  V30 2743 H 260.34 -3.9442 -5.8808 0
M  V30 2744 H 260.748 -2.37775 -5.1198 0
M  V30 2745 N 260.146 1.09593 -1.13257 0
M  V30 2746 C 261.386 1.83349 -0.903472 0
M  V30 2747 C 261.75 1.83641 0.560351 0
M  V30 2748 O 262.951 2.53037 0.906947 0
M  V30 2749 C 261.222 3.25629 -1.47311 0
M  V30 2750 S 262.781 4.16408 -1.38382 0
M  V30 2751 H 259.599 0.632014 -0.325699 0
M  V30 2752 H 262.201 1.31817 -1.44376 0
M  V30 2753 H 260.905 3.22991 -2.53189 0
M  V30 2754 H 260.436 3.82233 -0.930689 0
M  V30 2755 H 262.451 4.94884 -0.361113 0
M  V30 2756 N 261.624 0.925811 1.2754 0
M  V30 2757 C 262.873 0.561084 1.93739 0
M  V30 2758 C 263.186 -0.901685 1.73577 0
M  V30 2759 O 264.392 -1.37511 2.34101 0
M  V30 2760 C 262.848 0.952668 3.47062 0
M  V30 2761 C 262.456 2.43599 3.75983 0
M  V30 2762 C 264.2 0.659103 4.19352 0
M  V30 2763 C 262.107 2.76707 5.22673 0
M  V30 2764 H 261.037 0.206122 0.725279 0
M  V30 2765 H 263.688 1.12637 1.44863 0
M  V30 2766 H 262.07 0.316053 3.94737 0
M  V30 2767 H 263.244 3.12035 3.39073 0
M  V30 2768 H 261.559 2.70125 3.16893 0
M  V30 2769 H 264.156 0.882985 5.27359 0
M  V30 2770 H 264.499 -0.403607 4.14339 0
M  V30 2771 H 265.032 1.25473 3.77494 0
M  V30 2772 H 261.771 3.8188 5.32774 0
M  V30 2773 H 261.291 2.12919 5.60737 0
M  V30 2774 H 262.97 2.6435 5.90532 0
M  V30 2775 N 263.102 -1.41638 0.69111 0
M  V30 2776 C 264.35 -2.00902 0.219758 0
M  V30 2777 C 264.671 -1.54994 -1.18329 0
M  V30 2778 O 263.941 -0.778628 -1.79762 0
M  V30 2779 H 262.521 -0.74289 0.0782558 0
M  V30 2780 H 265.183 -1.73327 0.891271 0
M  V30 2781 H 264.279 -3.11224 0.233708 0
M  V30 2782 N 264.58 -0.43555 -1.51462 0
M  V30 2783 C 265.991 0.0279871 -1.86679 0
M  V30 2784 C 266.342 1.42104 -1.35281 0
M  V30 2785 O 265.467 2.04667 -0.702878 0
M  V30 2786 C 266.062 0.0575626 -3.38751 0
M  V30 2787 C 264.621 0.465507 -3.7351 0
M  V30 2788 C 263.768 -0.342996 -2.75171 0
M  V30 2789 H 266.719 -0.651473 -1.44712 0
M  V30 2790 H 266.74 0.867421 -3.70481 0
M  V30 2791 H 266.252 -0.956448 -3.7613 0
M  V30 2792 H 264.353 1.48519 -3.41721 0
M  V30 2793 H 264.466 0.191546 -4.78717 0
M  V30 2794 H 262.83 0.198442 -2.53926 0
M  V30 2795 H 263.613 -1.35585 -3.15391 0
M  V30 2796 N 266.058 1.56714 -0.166846 0
M  V30 2797 C 266.968 2.21331 0.777791 0
M  V30 2798 C 267.984 1.20358 1.25658 0
M  V30 2799 O 269.16 1.53005 1.30964 0
M  V30 2800 C 266.225 2.83787 1.99163 0
M  V30 2801 C 265.286 3.99947 1.56016 0
M  V30 2802 C 264.519 4.59415 2.71613 0
M  V30 2803 O 264.742 4.17769 3.88362 0
M  V30 2804 O 263.676 5.49359 2.45945 0
M  V30 2805 H 267.502 3.02605 0.257636 0
M  V30 2806 H 265.087 1.49275 0.0611393 0
M  V30 2807 H 266.969 3.23405 2.70161 0
M  V30 2808 H 265.644 2.05513 2.50092 0
M  V30 2809 H 264.551 3.65007 0.819809 0
M  V30 2810 H 265.884 4.79801 1.09782 0
M  V30 2811 N 267.536 -0.106894 1.57237 0
M  V30 2812 C 268.784 -0.810921 1.85117 0
M  V30 2813 C 269.105 -1.7984 0.753827 0
M  V30 2814 O 268.375 -1.94649 -0.221056 0
M  V30 2815 H 266.955 -0.302466 0.683025 0
M  V30 2816 H 269.617 -0.0913324 1.94686 0
M  V30 2817 H 268.713 -1.34875 2.81452 0
M  V30 2818 N 269.014 -1.53014 -0.377408 0
M  V30 2819 C 270.291 -1.59215 -1.13622 0
M  V30 2820 C 270.671 -0.392407 -2.07421 0
M  V30 2821 O 270.019 0.618342 -2.19975 0
M  V30 2822 C 270.229 -2.93669 -1.88573 0
M  V30 2823 C 271.577 -3.47822 -2.43526 0
M  V30 2824 O 272.601 -2.9562 -1.98715 0
M  V30 2825 O 271.46 -4.39055 -3.25412 0
M  V30 2826 H 268.554 -0.642625 -0.52054 0
M  V30 2827 H 271.1 -1.65353 -0.381625 0
M  V30 2828 H 269.872 -3.7243 -1.20048 0
M  V30 2829 H 269.495 -2.90968 -2.70968 0
M  V30 2830 N 270.492 0.636531 -1.44174 0
M  V30 2831 C 271.425 1.76139 -1.45087 0
M  V30 2832 C 272.403 1.59611 -0.310326 0
M  V30 2833 O 273.587 1.81568 -0.506477 0
M  V30 2834 C 270.714 3.13648 -1.27839 0
M  V30 2835 C 269.76 3.48838 -2.45386 0
M  V30 2836 S 270.593 3.46927 -4.07924 0
M  V30 2837 C 271.749 4.87064 -3.9309 0
M  V30 2838 H 271.982 1.75096 -2.40268 0
M  V30 2839 H 269.515 0.810666 -1.31406 0
M  V30 2840 H 271.473 3.93002 -1.18575 0
M  V30 2841 H 270.134 3.12235 -0.341787 0
M  V30 2842 H 269.327 4.48886 -2.29167 0
M  V30 2843 H 268.929 2.76935 -2.51362 0
M  V30 2844 H 271.221 5.76153 -3.56446 0
M  V30 2845 H 272.164 5.08337 -4.92949 0
M  V30 2846 H 272.572 4.61384 -3.25246 0
M  V30 2847 N 271.97 1.30982 0.876444 0
M  V30 2848 C 272.92 1.14688 1.97055 0
M  V30 2849 C 273.904 0.0596593 1.60789 0
M  V30 2850 O 275.096 0.283892 1.74708 0
M  V30 2851 C 272.225 0.849627 3.3262 0
M  V30 2852 C 271.311 1.97752 3.75173 0
M  V30 2853 N 271.702 3.22384 3.89746 0
M  V30 2854 C 270 1.8758 4.04635 0
M  V30 2855 C 270.701 3.96121 4.25985 0
M  V30 2856 N 269.677 3.24237 4.36315 0
M  V30 2857 H 273.479 2.09204 2.06424 0
M  V30 2858 H 270.993 1.22445 1.06682 0
M  V30 2859 H 272.99 0.713895 4.10742 0
M  V30 2860 H 271.65 -0.087376 3.24582 0
M  V30 2861 H 272.661 3.57575 3.74647 0
M  V30 2862 H 269.338 1.01303 4.05024 0
M  V30 2863 H 270.728 5.03491 4.44911 0
M  V30 2864 N 273.449 -1.08991 1.13837 0
M  V30 2865 C 274.726 -1.77863 0.813876 0
M  V30 2866 C 275.106 -1.99375 -0.693746 0
M  V30 2867 O 274.454 -1.59875 -1.63255 0
M  V30 2868 C 274.664 -3.0986 1.60586 0
M  V30 2869 C 276.012 -3.84493 1.8014 0
M  V30 2870 O 277.036 -3.19624 1.57222 0
M  V30 2871 O 275.895 -5.00957 2.18413 0
M  V30 2872 H 272.989 -0.771589 0.297624 0
M  V30 2873 H 275.535 -1.15507 1.24323 0
M  V30 2874 H 274.307 -2.89715 2.63022 0
M  V30 2875 H 273.93 -3.79942 1.17173 0
M  V30 2876 N 274.927 -0.932562 -1.27047 0
M  V30 2877 C 276.176 -0.571351 -1.93439 0
M  V30 2878 C 276.489 0.892467 -1.74053 0
M  V30 2879 O 277.695 1.36267 -2.34826 0
M  V30 2880 C 276.151 -0.97106 -3.46552 0
M  V30 2881 C 275.759 -2.4559 -3.74686 0
M  V30 2882 C 277.503 -0.681333 -4.18997 0
M  V30 2883 C 275.41 -2.79475 -5.21198 0
M  V30 2884 H 274.34 -0.209966 -0.724176 0
M  V30 2885 H 276.991 -1.13403 -1.44263 0
M  V30 2886 H 275.373 -0.336983 -3.94564 0
M  V30 2887 H 276.547 -3.13829 -3.37414 0
M  V30 2888 H 274.862 -2.71802 -3.15456 0
M  V30 2889 H 277.459 -0.910939 -5.26883 0
M  V30 2890 H 277.802 0.381628 -4.14547 0
M  V30 2891 H 278.335 -1.27473 -3.76823 0
M  V30 2892 H 275.074 -3.847 -5.30741 0
M  V30 2893 H 274.594 -2.1589 -5.596 0
M  V30 2894 H 276.273 -2.67478 -5.89122 0
M  V30 2895 N 276.405 1.4127 -0.698611 0
M  V30 2896 C 277.633 2.05503 -0.239992 0
M  V30 2897 C 278.048 1.52584 1.11191 0
M  V30 2898 O 277.405 0.675323 1.69545 0
M  V30 2899 C 277.456 3.60987 -0.192429 0
M  V30 2900 O 277.177 4.1195 -1.49094 0
M  V30 2901 C 278.678 4.42371 0.28681 0
M  V30 2902 H 275.898 0.661748 -0.111045 0
M  V30 2903 H 278.442 1.80987 -0.95205 0
M  V30 2904 H 276.597 3.84533 0.470472 0
M  V30 2905 H 277.011 5.06018 -1.38007 0
M  V30 2906 H 278.485 5.51344 0.26896 0
M  V30 2907 H 278.962 4.18699 1.32619 0
M  V30 2908 H 279.568 4.23897 -0.345201 0
M  V30 2909 N 277.883 0.443576 1.51229 0
M  V30 2910 C 279.294 -0.0180867 1.86691 0
M  V30 2911 C 279.645 -1.41384 1.36033 0
M  V30 2912 O 278.77 -2.04291 0.713722 0
M  V30 2913 C 279.365 -0.039597 3.38777 0
M  V30 2914 C 277.924 -0.445692 3.73752 0
M  V30 2915 C 277.071 0.357584 2.74985 0
M  V30 2916 H 280.022 0.659138 1.44364 0
M  V30 2917 H 280.043 -0.847761 3.70936 0
M  V30 2918 H 279.555 0.976382 3.75617 0
M  V30 2919 H 277.656 -1.46704 3.42503 0
M  V30 2920 H 277.769 -0.166155 4.78812 0
M  V30 2921 H 276.133 -0.184973 2.54027 0
M  V30 2922 H 276.916 1.37256 3.14668 0
M  V30 2923 N 279.361 -1.56624 0.175154 0
M  V30 2924 C 280.609 -1.96609 -0.467885 0
M  V30 2925 C 280.93 -1.06238 -1.63519 0
M  V30 2926 O 280.2 -0.129523 -1.95471 0
M  V30 2927 H 278.78 -0.726008 -0.175845 0
M  V30 2928 H 281.442 -1.93195 0.257234 0
M  V30 2929 H 280.538 -3.00989 -0.825342 0
M  V30 2930 N 280.839 0.0985539 -1.57292 0
M  V30 2931 C 281.749 1.13824 -2.05137 0
M  V30 2932 C 282.765 1.44076 -0.975604 0
M  V30 2933 O 283.941 1.54786 -1.28853 0
M  V30 2934 C 281.006 2.43969 -2.46333 0
M  V30 2935 C 280.067 2.2093 -3.68087 0
M  V30 2936 C 279.3 3.44869 -4.0731 0
M  V30 2937 O 279.523 4.52972 -3.46659 0
M  V30 2938 O 278.457 3.34661 -5.00285 0
M  V30 2939 H 282.283 0.761881 -2.93988 0
M  V30 2940 H 279.868 0.310818 -1.46131 0
M  V30 2941 H 281.75 3.20609 -2.73473 0
M  V30 2942 H 280.425 2.81038 -1.60621 0
M  V30 2943 H 279.332 1.42081 -3.46069 0
M  V30 2944 H 280.665 1.88755 -4.54568 0
M  V30 2945 N 282.317 1.53212 0.369288 0
M  V30 2946 C 283.557 1.70915 1.12105 0
M  V30 2947 C 283.921 0.449444 1.86665 0
M  V30 2948 O 285.122 0.503105 2.6405 0
M  V30 2949 C 283.393 2.9222 2.05772 0
M  V30 2950 S 284.952 3.30609 2.88519 0
M  V30 2951 H 281.77 0.601445 0.379189 0
M  V30 2952 H 284.372 1.91306 0.402794 0
M  V30 2953 H 283.076 3.82103 1.49752 0
M  V30 2954 H 282.607 2.7422 2.82076 0
M  V30 2955 H 284.622 2.82333 4.08047 0
M  V30 2956 N 283.795 -0.628877 1.44509 0
M  V30 2957 C 284.758 -1.72263 1.51188 0
M  V30 2958 C 285.758 -1.55907 0.39367 0
M  V30 2959 O 286.948 -1.61361 0.656377 0
M  V30 2960 C 284.08 -3.11365 1.38798 0
M  V30 2961 H 285.273 -1.67714 2.4862 0
M  V30 2962 H 282.826 -0.842737 1.31634 0
M  V30 2963 H 283.561 -3.21507 0.424693 0
M  V30 2964 H 283.346 -3.24644 2.19884 0
M  V30 2965 H 284.836 -3.91075 1.46458 0
M  V30 2966 N 285.273 -1.31445 -0.869486 0
M  V30 2967 C 286.519 -1.21337 -1.62496 0
M  V30 2968 C 286.852 0.227872 -1.92858 0
M  V30 2969 O 286.127 1.16094 -1.56053 0
M  V30 2970 C 286.41 -2.05814 -2.95487 0
M  V30 2971 C 286.263 -3.5824 -2.72 0
M  V30 2972 C 287.582 -1.9079 -3.96594 0
M  V30 2973 H 284.701 -0.442135 -0.589649 0
M  V30 2974 H 287.343 -1.6124 -1.00507 0
M  V30 2975 H 285.493 -1.71913 -3.48394 0
M  V30 2976 H 287.165 -4.0228 -2.25762 0
M  V30 2977 H 285.408 -3.81647 -2.06224 0
M  V30 2978 H 286.079 -4.12657 -3.66631 0
M  V30 2979 H 288.555 -2.20459 -3.52898 0
M  V30 2980 H 287.431 -2.52199 -4.87531 0
M  V30 2981 H 287.692 -0.871341 -4.33428 0
M  V30 2982 N 286.751 1.08385 -1.14413 0
M  V30 2983 C 288.167 1.32844 -0.884563 0
M  V30 2984 C 288.367 1.95841 0.474181 0
M  V30 2985 O 287.423 2.21158 1.21842 0
M  V30 2986 C 288.736 2.22978 -2.01745 0
M  V30 2987 C 290.284 2.36458 -2.05077 0
M  V30 2988 C 290.759 3.29934 -3.1766 0
M  V30 2989 N 292.25 3.37511 -3.17239 0
M  V30 2990 C 292.985 4.09871 -4.0099 0
M  V30 2991 N 292.481 4.84936 -4.94781 0
M  V30 2992 N 294.274 4.05704 -3.89051 0
M  V30 2993 H 286.425 0.658756 -2.01926 0
M  V30 2994 H 288.688 0.352821 -0.879899 0
M  V30 2995 H 288.394 1.83934 -2.99769 0
M  V30 2996 H 288.268 3.23441 -1.94077 0
M  V30 2997 H 290.655 2.7476 -1.0766 0
M  V30 2998 H 290.736 1.35736 -2.16816 0
M  V30 2999 H 290.38 2.92352 -4.15322 0
M  V30 3000 H 290.31 4.30584 -3.03158 0
M  V30 3001 H 292.801 2.83996 -2.49308 0
M  V30 3002 H 293.114 5.37612 -5.55151 0
M  V30 3003 H 291.459 4.83988 -4.98779 0
M  V30 3004 H 294.65 3.46167 -3.15097 0
M  V30 3005 H 294.823 4.61834 -4.54547 0
M  V30 3006 N 288.23 0.939286 1.26551 0
M  V30 3007 C 289.16 0.465044 2.28822 0
M  V30 3008 C 290.141 -0.480692 1.63167 0
M  V30 3009 O 291.326 -0.382955 1.90387 0
M  V30 3010 C 288.456 -0.27234 3.46231 0
M  V30 3011 C 287.41 0.58666 4.2396 0
M  V30 3012 C 286.736 -0.280573 5.33963 0
M  V30 3013 C 288.036 1.85704 4.88171 0
M  V30 3014 H 289.73 1.31979 2.68741 0
M  V30 3015 H 287.276 0.636061 1.29191 0
M  V30 3016 H 289.229 -0.615133 4.16886 0
M  V30 3017 H 287.953 -1.16121 3.0526 0
M  V30 3018 H 286.612 0.91232 3.55067 0
M  V30 3019 H 286.26 -1.16874 4.89234 0
M  V30 3020 H 285.96 0.29076 5.8688 0
M  V30 3021 H 287.484 -0.618678 6.07458 0
M  V30 3022 H 288.898 1.58161 5.51052 0
M  V30 3023 H 287.295 2.37279 5.51197 0
M  V30 3024 H 288.365 2.56957 4.11219 0
M  V30 3025 N 289.708 -1.40897 0.706093 0
M  V30 3026 C 290.954 -2.01352 0.241889 0
M  V30 3027 C 291.287 -1.55832 -1.15888 0
M  V30 3028 O 290.562 -0.774145 -1.7843 0
M  V30 3029 C 290.845 -3.58752 0.311311 0
M  V30 3030 C 290.698 -4.1437 1.74978 0
M  V30 3031 C 292.017 -4.38914 -0.322922 0
M  V30 3032 H 289.136 -0.731562 0.0893687 0
M  V30 3033 H 291.778 -1.67504 0.896802 0
M  V30 3034 H 289.928 -3.87718 -0.246302 0
M  V30 3035 H 291.6 -3.96239 2.36205 0
M  V30 3036 H 289.843 -3.69016 2.28057 0
M  V30 3037 H 290.514 -5.23532 1.74981 0
M  V30 3038 H 292.99 -4.15822 0.152089 0
M  V30 3039 H 291.866 -5.48358 -0.243855 0
M  V30 3040 H 292.127 -4.19176 -1.40513 0
M  V30 3041 N 291.186 -0.45159 -1.50991 0
M  V30 3042 C 292.133 0.352625 -2.2809 0
M  V30 3043 C 293.103 1.0044 -1.32291 0
M  V30 3044 O 294.288 1.02058 -1.6121 0
M  V30 3045 C 291.428 1.43983 -3.13629 0
M  V30 3046 C 290.541 0.804772 -4.24438 0
M  V30 3047 C 289.676 1.86822 -4.97263 0
M  V30 3048 C 288.715 1.21236 -5.99973 0
M  V30 3049 N 287.852 2.2178 -6.66152 0
M  V30 3050 H 292.692 -0.311186 -2.96371 0
M  V30 3051 H 290.229 -0.165308 -1.46168 0
M  V30 3052 H 292.187 2.08161 -3.61559 0
M  V30 3053 H 290.817 2.07307 -2.47434 0
M  V30 3054 H 289.869 0.0509129 -3.80366 0
M  V30 3055 H 291.181 0.286076 -4.97979 0
M  V30 3056 H 290.335 2.58628 -5.48813 0
M  V30 3057 H 289.074 2.42068 -4.23385 0
M  V30 3058 H 288.079 0.479828 -5.47702 0
M  V30 3059 H 289.304 0.667051 -6.75816 0
M  V30 3060 H 287.25 2.76079 -5.95077 0
M  V30 3061 H 287.167 1.74841 -7.35504 0
M  V30 3062 H 288.435 2.93026 -7.22327 0
M  V30 3063 N 292.664 1.56529 -0.183458 0
M  V30 3064 C 293.627 2.17324 0.728223 0
M  V30 3065 C 294.627 1.12453 1.14939 0
M  V30 3066 O 295.817 1.37902 1.06437 0
M  V30 3067 C 292.949 2.76591 1.99274 0
M  V30 3068 H 294.142 2.99241 0.198772 0
M  V30 3069 H 291.695 1.5616 0.0661391 0
M  V30 3070 H 292.43 1.98441 2.56499 0
M  V30 3071 H 292.215 3.5335 1.69959 0
M  V30 3072 H 293.705 3.23311 2.6431 0
M  V30 3073 N 294.142 -0.090211 1.57342 0
M  V30 3074 C 295.39 -0.791241 1.85967 0
M  V30 3075 C 295.711 -1.7903 0.772859 0
M  V30 3076 O 294.981 -1.94872 -0.200398 0
M  V30 3077 H 293.561 -0.295205 0.686195 0
M  V30 3078 H 296.223 -0.0706782 1.94772 0
M  V30 3079 H 295.319 -1.31882 2.82867 0
M  V30 3080 N 295.62 -1.53406 -0.361157 0
M  V30 3081 C 296.583 -1.79479 -1.42548 0
M  V30 3082 C 297.583 -0.665327 -1.4639 0
M  V30 3083 O 298.773 -0.933549 -1.47073 0
M  V30 3084 C 295.905 -1.92087 -2.8163 0
M  V30 3085 H 297.098 -2.74538 -1.20701 0
M  V30 3086 H 294.651 -1.4455 -0.594546 0
M  V30 3087 H 295.386 -0.991099 -3.08784 0
M  V30 3088 H 295.171 -2.74241 -2.80239 0
M  V30 3089 H 296.661 -2.13836 -3.58697 0
M  V30 3090 N 297.098 0.621204 -1.44841 0
M  V30 3091 C 298.323 1.41244 -1.51871 0
M  V30 3092 C 298.748 1.87519 -0.147764 0
M  V30 3093 O 298.106 1.59334 0.865 0
M  V30 3094 C 298.154 2.60221 -2.49634 0
M  V30 3095 O 297.258 3.60395 -2.00473 0
M  V30 3096 H 296.599 0.42223 -0.512463 0
M  V30 3097 H 299.129 0.757305 -1.90069 0
M  V30 3098 H 299.139 3.0764 -2.67996 0
M  V30 3099 H 297.814 2.25887 -3.4921 0
M  V30 3100 H 296.391 3.19717 -1.91925 0
M  V30 3101 N 298.576 1.31904 0.862503 0
M  V30 3102 C 299.825 1.21373 1.61094 0
M  V30 3103 C 300.138 -0.22504 1.94301 0
M  V30 3104 O 301.344 -0.452121 2.67709 0
M  V30 3105 C 299.8 2.12525 2.9045 0
M  V30 3106 C 299.408 3.61441 2.64697 0
M  V30 3107 C 301.152 2.10813 3.68454 0
M  V30 3108 C 299.059 4.44578 3.90006 0
M  V30 3109 H 297.989 0.450705 0.604468 0
M  V30 3110 H 300.64 1.56811 0.953027 0
M  V30 3111 H 299.022 1.69994 3.57656 0
M  V30 3112 H 300.196 4.12264 2.05851 0
M  V30 3113 H 298.511 3.65205 2.00036 0
M  V30 3114 H 301.108 2.70167 4.61426 0
M  V30 3115 H 301.451 1.09713 4.01583 0
M  V30 3116 H 301.984 2.51583 3.08141 0
M  V30 3117 H 298.723 5.46461 3.62023 0
M  V30 3118 H 298.243 3.98508 4.48276 0
M  V30 3119 H 299.922 4.57176 4.5782 0
M  V30 3120 N 300.054 -1.07777 1.14986 0
M  V30 3121 C 301.3 -1.80557 0.923422 0
M  V30 3122 C 301.633 -1.86298 -0.548337 0
M  V30 3123 O 300.908 -1.34354 -1.40639 0
M  V30 3124 C 301.191 -3.25839 1.53299 0
M  V30 3125 C 301.044 -3.28269 3.07505 0
M  V30 3126 C 302.363 -4.22991 1.21518 0
M  V30 3127 H 299.482 -0.655493 0.336894 0
M  V30 3128 H 302.124 -1.26144 1.42083 0
M  V30 3129 H 300.274 -3.72306 1.10999 0
M  V30 3130 H 301.946 -2.90079 3.58681 0
M  V30 3131 H 300.189 -2.67355 3.4162 0
M  V30 3132 H 300.86 -4.30691 3.45266 0
M  V30 3133 H 303.336 -3.84894 1.581 0
M  V30 3134 H 302.212 -5.22945 1.66793 0
M  V30 3135 H 302.473 -4.41904 0.131505 0
M  V30 3136 N 301.532 -0.945985 -1.26051 0
M  V30 3137 C 302.78 -0.594941 -1.93145 0
M  V30 3138 C 303.101 0.86953 -1.7454 0
M  V30 3139 O 302.371 1.61838 -1.10387 0
M  V30 3140 H 300.951 -0.217044 -0.714773 0
M  V30 3141 H 303.613 -1.20235 -1.53393 0
M  V30 3142 H 302.709 -0.816835 -3.01221 0
M  V30 3143 N 303.011 1.40521 -0.713556 0
M  V30 3144 C 304.257 2.01221 -0.252564 0
M  V30 3145 C 304.59 1.56444 1.1506 0
M  V30 3146 O 303.865 0.783597 1.78017 0
M  V30 3147 C 304.148 3.58582 -0.330332 0
M  V30 3148 C 304.001 4.13437 -1.77173 0
M  V30 3149 C 305.32 4.39079 0.299641 0
M  V30 3150 H 302.439 0.731077 -0.0932471 0
M  V30 3151 H 305.081 1.67026 -0.905673 0
M  V30 3152 H 303.231 3.87844 0.225737 0
M  V30 3153 H 304.903 3.9498 -2.38303 0
M  V30 3154 H 303.146 3.67801 -2.3001 0
M  V30 3155 H 303.817 5.22597 -1.77755 0
M  V30 3156 H 306.293 4.15735 -0.174139 0
M  V30 3157 H 305.169 5.4848 0.214771 0
M  V30 3158 H 305.43 4.19915 1.38288 0
M  V30 3159 N 304.489 0.459591 1.5075 0
M  V30 3160 C 305.437 -0.354678 2.2988 0
M  V30 3161 C 306.431 -1.00086 1.36672 0
M  V30 3162 O 307.637 -0.933277 1.53915 0
M  V30 3163 H 304.012 -0.13321 0.740107 0
M  V30 3164 H 305.983 0.333269 2.96533 0
M  V30 3165 C 304.732 -1.43073 3.169 0
M  V30 3166 H 304.055 -0.942882 3.88523 0
M  V30 3167 H 305.495 -1.97328 3.75284 0
M  V30 3168 C 303.954 -2.42633 2.33732 0
M  V30 3169 O 304.484 -3.47658 2.01238 0
M  V30 3170 N 302.69 -2.14066 1.9653 0
M  V30 3171 H 302.237 -1.28685 2.23155 0
M  V30 3172 H 302.195 -2.80917 1.41185 0
M  V30 3173 N 305.967 -1.56429 0.191757 0
M  V30 3174 C 307.207 -1.99383 -0.450099 0
M  V30 3175 C 307.571 -1.07581 -1.59029 0
M  V30 3176 O 308.772 -1.39758 -2.29611 0
M  V30 3177 C 307.043 -3.45841 -0.901611 0
M  V30 3178 S 308.602 -4.10822 -1.54177 0
M  V30 3179 H 305.42 -0.696253 -0.144057 0
M  V30 3180 H 308.022 -1.93276 0.294036 0
M  V30 3181 H 306.726 -4.10354 -0.0616596 0
M  V30 3182 H 306.257 -3.55757 -1.67929 0
M  V30 3183 H 308.272 -4.07553 -2.83046 0
M  V30 3184 N 307.445 0.0818655 -1.57387 0
M  V30 3185 C 308.861 0.436412 -1.53517 0
M  V30 3186 C 309.061 1.79758 -0.910459 0
M  V30 3187 O 308.117 2.47324 -0.508636 0
M  V30 3188 C 309.43 0.386734 -2.98203 0
M  V30 3189 C 310.978 0.467644 -3.09487 0
M  V30 3190 C 311.453 0.447978 -4.55804 0
M  V30 3191 N 312.944 0.508348 -4.60402 0
M  V30 3192 C 313.679 0.515184 -5.71081 0
M  V30 3193 N 313.175 0.477435 -6.91153 0
M  V30 3194 N 314.968 0.560988 -5.59294 0
M  V30 3195 H 307.119 -0.809546 -1.96367 0
M  V30 3196 H 309.382 -0.302733 -0.898363 0
M  V30 3197 H 309.088 -0.546539 -3.47427 0
M  V30 3198 H 308.962 1.20075 -3.57578 0
M  V30 3199 H 311.349 1.39134 -2.60242 0
M  V30 3200 H 311.43 -0.374753 -2.5304 0
M  V30 3201 H 311.074 -0.471826 -5.05704 0
M  V30 3202 H 311.004 1.30777 -5.10103 0
M  V30 3203 H 313.495 0.54218 -3.7399 0
M  V30 3204 H 313.808 0.486299 -7.71268 0
M  V30 3205 H 312.153 0.444278 -6.93579 0
M  V30 3206 H 315.344 0.5881 -4.64391 0
M  V30 3207 H 315.517 0.562846 -6.45551 0
M  V30 3208 N 308.923 1.53595 0.353017 0
M  V30 3209 C 310.17 1.70385 1.09431 0
M  V30 3210 C 310.498 0.462113 1.88931 0
M  V30 3211 O 309.753 -0.556074 1.87633 0
M  V30 3212 C 310.052 2.91313 2.07054 0
M  V30 3213 C 309.718 4.27308 1.43939 0
M  V30 3214 C 308.38 4.64287 1.26454 0
M  V30 3215 C 310.732 5.11829 0.983883 0
M  V30 3216 C 308.06 5.83412 0.620226 0
M  V30 3217 C 310.412 6.31611 0.353516 0
M  V30 3218 C 309.076 6.67293 0.166272 0
M  V30 3219 H 308.346 0.623484 0.400436 0
M  V30 3220 H 310.993 1.87799 0.374655 0
M  V30 3221 H 309.298 2.68463 2.85368 0
M  V30 3222 H 310.995 3.01497 2.64387 0
M  V30 3223 H 307.585 3.98198 1.58543 0
M  V30 3224 H 311.769 4.838 1.10685 0
M  V30 3225 H 307.025 6.09639 0.463681 0
M  V30 3226 H 311.199 6.964 -0.00757555 0
M  V30 3227 H 308.826 7.59461 -0.335047 0
M  V30 3228 N 310.401 -0.613514 1.45168 0
M  V30 3229 C 311.649 -1.36997 1.48581 0
M  V30 3230 C 311.97 -1.94589 0.126545 0
M  V30 3231 O 311.24 -1.76816 -0.843372 0
M  V30 3232 H 309.82 -0.508558 0.547154 0
M  V30 3233 H 312.482 -0.720853 1.81079 0
M  V30 3234 H 311.578 -2.1924 2.22127 0
M  V30 3235 N 311.879 -1.3236 -0.855495 0
M  V30 3236 C 313.29 -1.2056 -1.42556 0
M  V30 3237 C 313.641 0.182209 -1.95352 0
M  V30 3238 O 312.766 1.08088 -1.87472 0
M  V30 3239 C 313.361 -2.1826 -2.59129 0
M  V30 3240 C 311.92 -2.10351 -3.12137 0
M  V30 3241 C 311.067 -2.06674 -1.84882 0
M  V30 3242 H 314.018 -1.442 -0.662727 0
M  V30 3243 H 314.039 -1.78064 -3.36264 0
M  V30 3244 H 313.551 -3.19257 -2.20673 0
M  V30 3245 H 311.652 -1.12599 -3.55179 0
M  V30 3246 H 311.765 -3.00135 -3.73438 0
M  V30 3247 H 310.129 -1.51901 -2.04446 0
M  V30 3248 H 310.912 -3.09451 -1.48643 0
M  V30 3249 N 313.357 1.07166 -1.15556 0
M  V30 3250 C 314.634 1.76546 -0.842069 0
M  V30 3251 C 315.014 2.00453 0.661939 0
M  V30 3252 O 314.362 1.62452 1.60691 0
M  V30 3253 C 314.572 3.07266 -1.65495 0
M  V30 3254 C 315.92 3.81578 -1.86234 0
M  V30 3255 O 316.944 3.17083 -1.62287 0
M  V30 3256 O 315.803 4.97419 -2.26355 0
M  V30 3257 H 312.897 0.766756 -0.309862 0
M  V30 3258 H 315.443 1.13514 -1.26145 0
M  V30 3259 H 314.215 2.85494 -2.67598 0
M  V30 3260 H 313.838 3.7803 -1.23203 0
M  V30 3261 N 314.835 0.952656 1.25548 0
M  V30 3262 C 316.063 0.623496 1.97282 0
M  V30 3263 C 316.478 -0.803987 1.70826 0
M  V30 3264 O 315.835 -1.53755 0.983147 0
M  V30 3265 C 315.886 0.870209 3.5087 0
M  V30 3266 O 315.607 2.24156 3.76412 0
M  V30 3267 C 317.108 0.553164 4.39835 0
M  V30 3268 H 314.328 0.233931 0.628902 0
M  V30 3269 H 316.872 1.27649 1.59768 0
M  V30 3270 H 315.027 0.263652 3.86502 0
M  V30 3271 H 315.441 2.31021 4.70882 0
M  V30 3272 H 316.915 0.776342 5.46513 0
M  V30 3273 H 317.392 -0.512215 4.36203 0
M  V30 3274 H 317.998 1.13896 4.09766 0
M  V30 3275 N 316.313 -1.40141 0.720998 0
M  V30 3276 C 317.538 -2.05618 0.271258 0
M  V30 3277 C 317.963 -1.53978 -1.08039 0
M  V30 3278 O 317.321 -0.677463 -1.68167 0
M  V30 3279 C 317.369 -3.59609 0.267197 0
M  V30 3280 O 316.473 -4.05526 -0.749814 0
M  V30 3281 H 315.814 -0.651904 0.126162 0
M  V30 3282 H 318.344 -1.79439 0.982997 0
M  V30 3283 H 318.354 -4.0786 0.106744 0
M  V30 3284 H 317.029 -3.96559 1.25354 0
M  V30 3285 H 315.606 -3.68722 -0.556644 0
M  V30 3286 N 317.792 -0.46758 -1.50504 0
M  V30 3287 C 318.722 0.318381 -2.31319 0
M  V30 3288 C 319.703 0.993564 -1.38066 0
M  V30 3289 O 320.888 0.991411 -1.66987 0
M  V30 3290 C 318.018 1.40275 -3.17711 0
M  V30 3291 C 316.972 0.849373 -4.19487 0
M  V30 3292 C 316.298 2.03177 -4.94594 0
M  V30 3293 C 317.598 -0.136942 -5.2212 0
M  V30 3294 H 319.292 -0.356106 -2.97275 0
M  V30 3295 H 316.838 -0.172703 -1.42961 0
M  V30 3296 H 318.791 1.96004 -3.73042 0
M  V30 3297 H 317.515 2.10596 -2.49634 0
M  V30 3298 H 316.174 0.314076 -3.65252 0
M  V30 3299 H 315.822 2.72187 -4.22993 0
M  V30 3300 H 315.522 1.66774 -5.63436 0
M  V30 3301 H 317.046 2.59403 -5.52759 0
M  V30 3302 H 318.46 0.331056 -5.72343 0
M  V30 3303 H 316.857 -0.41507 -5.98663 0
M  V30 3304 H 317.927 -1.06398 -4.73083 0
M  V30 3305 N 319.27 1.56325 -0.20005 0
M  V30 3306 C 320.217 2.1932 0.718833 0
M  V30 3307 C 321.187 1.14198 1.20615 0
M  V30 3308 O 322.372 1.42469 1.26914 0
M  V30 3309 C 319.512 2.86041 1.93066 0
M  V30 3310 C 318.625 4.05702 1.48425 0
M  V30 3311 C 317.76 4.60266 2.65196 0
M  V30 3312 C 316.799 5.72273 2.17185 0
M  V30 3313 N 315.936 6.21221 3.27152 0
M  V30 3314 H 320.776 2.97486 0.17489 0
M  V30 3315 H 318.313 1.46911 0.0745794 0
M  V30 3316 H 320.271 3.22897 2.64184 0
M  V30 3317 H 318.901 2.1043 2.44783 0
M  V30 3318 H 317.953 3.74475 0.668755 0
M  V30 3319 H 319.265 4.86699 1.09204 0
M  V30 3320 H 318.419 4.99453 3.4443 0
M  V30 3321 H 317.158 3.78386 3.07693 0
M  V30 3322 H 316.163 5.3261 1.36407 0
M  V30 3323 H 317.388 6.55974 1.75713 0
M  V30 3324 H 315.334 5.42263 3.69171 0
M  V30 3325 H 315.251 6.97284 2.92116 0
M  V30 3326 H 316.519 6.65063 4.06585 0
M  V30 3327 N 320.748 -0.0735177 1.57428 0
M  V30 3328 C 321.976 -0.785969 1.9139 0
M  V30 3329 C 322.391 -1.71207 0.795847 0
M  V30 3330 O 321.748 -1.81033 -0.230915 0
M  V30 3331 C 321.799 -1.58107 3.25091 0
M  V30 3332 O 321.52 -0.6922 4.32597 0
M  V30 3333 C 323.021 -2.39467 3.73055 0
M  V30 3334 H 320.241 -0.223558 0.632663 0
M  V30 3335 H 322.785 -0.044302 2.04452 0
M  V30 3336 H 320.94 -2.27503 3.13562 0
M  V30 3337 H 321.354 -1.24504 5.09508 0
M  V30 3338 H 322.828 -2.90716 4.69242 0
M  V30 3339 H 323.305 -3.18913 3.01979 0
M  V30 3340 H 323.911 -1.7523 3.87523 0
M  V30 3341 N 322.226 -1.5378 -0.344866 0
M  V30 3342 C 323.159 -1.7649 -1.4466 0
M  V30 3343 C 324.137 -0.613954 -1.50563 0
M  V30 3344 O 325.321 -0.84896 -1.683 0
M  V30 3345 C 322.448 -1.86235 -2.82903 0
M  V30 3346 C 321.494 -3.08375 -2.94631 0
M  V30 3347 S 322.327 -4.67457 -2.61236 0
M  V30 3348 C 323.483 -4.80079 -4.0159 0
M  V30 3349 H 323.716 -2.69661 -1.2518 0
M  V30 3350 H 321.249 -1.44632 -0.540455 0
M  V30 3351 H 323.207 -1.92535 -3.62547 0
M  V30 3352 H 321.868 -0.940786 -2.9968 0
M  V30 3353 H 321.061 -3.11865 -3.95925 0
M  V30 3354 H 320.663 -3.00294 -2.22934 0
M  V30 3355 H 322.955 -4.61407 -4.96094 0
M  V30 3356 H 323.898 -5.82168 -4.03095 0
M  V30 3357 H 324.306 -4.08544 -3.89554 0
M  V30 3358 N 323.704 0.605807 -1.45491 0
M  V30 3359 C 324.614 1.74466 -1.56839 0
M  V30 3360 C 325.63 1.68006 -0.452772 0
M  V30 3361 O 326.806 1.8833 -0.713708 0
M  V30 3362 C 323.871 3.10931 -1.53371 0
M  V30 3363 C 322.932 3.28832 -2.75986 0
M  V30 3364 C 322.165 4.58787 -2.72673 0
M  V30 3365 O 322.388 5.4122 -1.80102 0
M  V30 3366 O 321.322 4.79438 -3.63899 0
M  V30 3367 H 325.148 1.67843 -2.53106 0
M  V30 3368 H 322.733 0.770108 -1.28022 0
M  V30 3369 H 324.615 3.92233 -1.54051 0
M  V30 3370 H 323.29 3.18042 -0.602572 0
M  V30 3371 H 322.197 2.47112 -2.80867 0
M  V30 3372 H 323.53 3.26599 -3.68231 0
M  V30 3373 N 325.182 1.32811 0.848464 0
M  V30 3374 C 326.112 1.24882 1.97299 0
M  V30 3375 C 327.093 0.131357 1.69592 0
M  V30 3376 O 328.278 0.319553 1.91553 0
M  V30 3377 C 325.408 0.97746 3.33261 0
M  V30 3378 C 324.362 2.05682 3.75338 0
M  V30 3379 C 323.688 1.63777 5.09 0
M  V30 3380 C 324.988 3.47254 3.90144 0
M  V30 3381 H 326.682 2.18966 2.04191 0
M  V30 3382 H 324.228 1.05413 0.981029 0
M  V30 3383 H 326.181 0.908513 4.1149 0
M  V30 3384 H 324.905 0.000980011 3.266 0
M  V30 3385 H 323.564 2.11603 2.99366 0
M  V30 3386 H 323.212 0.648569 4.98801 0
M  V30 3387 H 322.912 2.36 5.38124 0
M  V30 3388 H 324.436 1.5833 5.89715 0
M  V30 3389 H 325.85 3.43888 4.58709 0
M  V30 3390 H 324.247 4.1788 4.30693 0
M  V30 3391 H 325.317 3.86462 2.92874 0
M  V30 3392 N 326.66 -1.06551 1.16123 0
M  V30 3393 C 327.593 -2.13382 0.80892 0
M  V30 3394 C 328.571 -1.61128 -0.21827 0
M  V30 3395 O 329.755 -1.88219 -0.102952 0
M  V30 3396 C 326.882 -3.38083 0.204303 0
M  V30 3397 C 325.928 -4.09133 1.20469 0
M  V30 3398 S 326.761 -4.5948 2.75024 0
M  V30 3399 C 327.917 -5.87446 2.16005 0
M  V30 3400 H 328.15 -2.42937 1.71373 0
M  V30 3401 H 325.683 -1.18947 0.984428 0
M  V30 3402 H 327.641 -4.10268 -0.138081 0
M  V30 3403 H 326.302 -3.0669 -0.678234 0
M  V30 3404 H 325.495 -4.98685 0.730019 0
M  V30 3405 H 325.097 -3.4295 1.49202 0
M  V30 3406 H 327.389 -6.60065 1.5271 0
M  V30 3407 H 328.332 -6.39639 3.03756 0
M  V30 3408 H 328.74 -5.41354 1.59989 0
M  V30 3409 N 328.138 -0.959301 -1.25041 0
M  V30 3410 C 329.085 -0.482057 -2.2571 0
M  V30 3411 C 330.055 0.467939 -1.59372 0
M  V30 3412 O 331.24 0.380159 -1.86974 0
M  V30 3413 C 328.38 0.229623 -3.44335 0
M  V30 3414 C 327.493 -0.758156 -4.25295 0
M  V30 3415 C 326.628 -0.0234403 -5.31195 0
M  V30 3416 C 325.667 -1.00184 -6.03846 0
M  V30 3417 N 324.804 -0.29769 -7.01469 0
M  V30 3418 H 329.644 -1.34538 -2.65901 0
M  V30 3419 H 327.181 -0.674592 -1.3072 0
M  V30 3420 H 329.139 0.658856 -4.11965 0
M  V30 3421 H 327.769 1.05696 -3.05005 0
M  V30 3422 H 326.821 -1.30586 -3.57284 0
M  V30 3423 H 328.133 -1.50458 -4.75567 0
M  V30 3424 H 327.287 0.464201 -6.04922 0
M  V30 3425 H 326.026 0.755741 -4.81809 0
M  V30 3426 H 325.031 -1.50044 -5.2893 0
M  V30 3427 H 326.256 -1.78133 -6.55321 0
M  V30 3428 H 324.202 0.462668 -6.54366 0
M  V30 3429 H 324.119 -0.983128 -7.4958 0
M  V30 3430 H 325.387 0.16826 -7.79318 0
M  V30 3431 N 329.616 1.39756 -0.72842 0
M  V30 3432 C 330.526 2.34444 -0.0855374 0
M  V30 3433 C 331.542 1.57976 0.729356 0
M  V30 3434 O 332.718 1.90301 0.659346 0
M  V30 3435 C 329.783 3.36965 0.815798 0
M  V30 3436 C 328.844 4.29299 -0.0105996 0
M  V30 3437 C 328.077 5.26923 0.84781 0
M  V30 3438 O 328.3 5.30859 2.08673 0
M  V30 3439 O 327.234 6.01249 0.279969 0
M  V30 3440 H 331.06 2.91065 -0.866892 0
M  V30 3441 H 328.645 1.4117 -0.48902 0
M  V30 3442 H 330.527 3.99804 1.33171 0
M  V30 3443 H 329.202 2.82739 1.57608 0
M  V30 3444 H 328.109 3.69703 -0.571877 0
M  V30 3445 H 329.442 4.86712 -0.73295 0
M  V30 3446 N 331.094 0.475555 1.50254 0
M  V30 3447 C 332.342 -0.077738 2.0195 0
M  V30 3448 C 332.663 -1.39813 1.35931 0
M  V30 3449 O 331.933 -1.89249 0.506123 0
M  V30 3450 H 330.513 -0.031719 0.746326 0
M  V30 3451 H 333.175 0.626995 1.84539 0
M  V30 3452 H 332.271 -0.225995 3.11281 0
M  V30 3453 N 332.573 -1.56217 0.208337 0
M  V30 3454 C 333.503 -2.22694 -0.702116 0
M  V30 3455 C 334.484 -1.19432 -1.2112 0
M  V30 3456 O 335.669 -1.47978 -1.25762 0
M  V30 3457 C 332.799 -2.8966 -1.9161 0
M  V30 3458 C 331.753 -3.9928 -1.5414 0
M  V30 3459 C 331.079 -4.53476 -2.83308 0
M  V30 3460 C 332.379 -5.17012 -0.741339 0
M  V30 3461 H 334.073 -2.99034 -0.147898 0
M  V30 3462 H 331.619 -1.43831 -0.0696951 0
M  V30 3463 H 333.572 -3.34852 -2.55836 0
M  V30 3464 H 332.296 -2.10746 -2.49507 0
M  V30 3465 H 330.955 -3.54799 -0.922668 0
M  V30 3466 H 330.603 -3.71308 -3.39322 0
M  V30 3467 H 330.303 -5.27451 -2.58976 0
M  V30 3468 H 331.827 -5.01378 -3.485 0
M  V30 3469 H 333.241 -5.58667 -1.28699 0
M  V30 3470 H 331.638 -5.97137 -0.595627 0
M  V30 3471 H 332.708 -4.8423 0.254851 0
M  V30 3472 N 334.051 0.0651679 -1.57465 0
M  V30 3473 C 334.961 1.09448 -2.07505 0
M  V30 3474 C 335.977 1.41974 -1.00595 0
M  V30 3475 O 337.153 1.52018 -1.32107 0
M  V30 3476 C 334.218 2.38689 -2.51453 0
M  V30 3477 C 333.279 2.13073 -3.72691 0
M  V30 3478 C 332.512 3.36152 -4.14533 0
M  V30 3479 O 332.735 4.45517 -3.56189 0
M  V30 3480 O 331.669 3.23974 -5.07272 0
M  V30 3481 H 335.495 0.69935 -2.95538 0
M  V30 3482 H 333.08 0.279752 -1.46757 0
M  V30 3483 H 334.962 3.14736 -2.80212 0
M  V30 3484 H 333.637 2.77568 -1.66546 0
M  V30 3485 H 332.544 1.34709 -3.49005 0
M  V30 3486 H 333.877 1.79071 -4.5847 0
M  V30 3487 N 335.529 1.53961 0.336706 0
M  V30 3488 C 336.775 1.7273 1.07406 0
M  V30 3489 C 337.13 0.488095 1.86106 0
M  V30 3490 O 336.423 -0.519379 1.84426 0
M  V30 3491 C 336.617 2.93493 2.03953 0
M  V30 3492 C 336.446 4.29039 1.34744 0
M  V30 3493 C 335.216 4.93416 1.08942 0
M  V30 3494 C 337.414 5.08501 0.770115 0
M  V30 3495 N 335.396 6.12821 0.363864 0
M  V30 3496 C 336.767 6.19752 0.175472 0
M  V30 3497 C 338.822 4.93349 0.671633 0
M  V30 3498 C 337.525 7.17503 -0.508081 0
M  V30 3499 C 339.551 5.914 0.0018076 0
M  V30 3500 C 338.913 7.01993 -0.581835 0
M  V30 3501 H 335.012 0.685026 0.377177 0
M  V30 3502 H 337.596 1.91403 0.356815 0
M  V30 3503 H 335.767 2.76308 2.72962 0
M  V30 3504 H 337.499 3.00949 2.70577 0
M  V30 3505 H 334.254 4.53099 1.37833 0
M  V30 3506 H 334.678 6.76998 0.0156092 0
M  V30 3507 H 339.32 4.08007 1.1086 0
M  V30 3508 H 337.038 8.02414 -0.956918 0
M  V30 3509 H 340.624 5.81753 -0.0738538 0
M  V30 3510 H 339.504 7.76561 -1.09192 0
M  V30 3511 N 337.007 -0.598083 1.45811 0
M  V30 3512 C 337.97 -1.69018 1.54808 0
M  V30 3513 C 338.97 -1.55037 0.426652 0
M  V30 3514 O 340.16 -1.59932 0.690456 0
M  V30 3515 C 337.292 -3.0835 1.45371 0
M  V30 3516 H 338.485 -1.62403 2.52121 0
M  V30 3517 H 336.038 -0.814626 1.33392 0
M  V30 3518 H 336.773 -3.20534 0.492793 0
M  V30 3519 H 336.558 -3.19907 2.26721 0
M  V30 3520 H 338.048 -3.8788 1.54721 0
M  V30 3521 N 338.485 -1.33259 -0.841409 0
M  V30 3522 C 339.733 -1.24326 -1.59334 0
M  V30 3523 C 340.054 0.191564 -1.94057 0
M  V30 3524 O 339.324 1.11967 -1.60749 0
M  V30 3525 H 337.904 -0.457174 -0.590763 0
M  V30 3526 H 340.566 -1.66947 -1.00571 0
M  V30 3527 H 339.662 -1.8352 -2.52442 0
M  V30 3528 N 339.963 1.05934 -1.16686 0
M  V30 3529 C 340.893 2.1546 -0.899949 0
M  V30 3530 C 341.874 1.69391 0.155154 0
M  V30 3531 O 343.059 1.94199 0.00648693 0
M  V30 3532 C 340.189 3.44939 -0.404241 0
M  V30 3533 C 339.143 4.04536 -1.39767 0
M  V30 3534 C 338.469 5.29268 -0.760216 0
M  V30 3535 C 339.769 4.42893 -2.76845 0
M  V30 3536 H 341.463 2.38046 -1.81588 0
M  V30 3537 H 339.009 1.14404 -0.874514 0
M  V30 3538 H 340.962 4.20901 -0.204971 0
M  V30 3539 H 339.686 3.21983 0.547206 0
M  V30 3540 H 338.345 3.30635 -1.58355 0
M  V30 3541 H 337.993 5.02611 0.197831 0
M  V30 3542 H 337.693 5.70101 -1.42332 0
M  V30 3543 H 339.217 6.07924 -0.57105 0
M  V30 3544 H 340.631 5.09921 -2.62019 0
M  V30 3545 H 339.028 4.94721 -3.39663 0
M  V30 3546 H 340.098 3.53584 -3.31823 0
M  V30 3547 N 341.441 0.965919 1.2453 0
M  V30 3548 C 342.388 0.49402 2.25451 0
M  V30 3549 C 343.358 -0.45948 1.59618 0
M  V30 3550 O 344.543 -0.370238 1.87173 0
M  V30 3551 C 341.683 -0.211359 3.44452 0
M  V30 3552 C 340.796 0.7807 4.24887 0
M  V30 3553 C 339.931 0.0516105 5.31175 0
M  V30 3554 C 338.97 1.03385 6.03306 0
M  V30 3555 N 338.107 0.334887 7.01301 0
M  V30 3556 H 342.947 1.35946 2.65184 0
M  V30 3557 H 340.484 0.681515 1.3036 0
M  V30 3558 H 342.442 -0.637 4.12308 0
M  V30 3559 H 341.072 -1.04077 3.05562 0
M  V30 3560 H 340.124 1.32479 3.56586 0
M  V30 3561 H 341.436 1.52978 4.74762 0
M  V30 3562 H 340.59 -0.432114 6.05159 0
M  V30 3563 H 339.329 -0.730179 4.82203 0
M  V30 3564 H 338.334 1.52847 5.28127 0
M  V30 3565 H 339.559 1.81606 6.54367 0
M  V30 3566 H 337.505 -0.427959 6.54603 0
M  V30 3567 H 337.422 1.02287 7.49048 0
M  V30 3568 H 338.69 -0.126928 7.79397 0
M  V30 3569 N 342.919 -1.39368 0.735821 0
M  V30 3570 C 343.882 -2.2896 0.104874 0
M  V30 3571 C 344.882 -1.46347 -0.666274 0
M  V30 3572 O 346.072 -1.67014 -0.49517 0
M  V30 3573 C 343.204 -3.29857 -0.860656 0
M  V30 3574 H 344.397 -2.86259 0.894205 0
M  V30 3575 H 341.95 -1.48029 0.501704 0
M  V30 3576 H 342.685 -2.77615 -1.67631 0
M  V30 3577 H 342.47 -3.9087 -0.310327 0
M  V30 3578 H 343.96 -3.96893 -1.29867 0
M  V30 3579 N 344.397 -0.483516 -1.5 0
M  V30 3580 C 345.347 0.32306 -2.257 0
M  V30 3581 C 346.331 0.950755 -1.29805 0
M  V30 3582 O 347.523 0.861247 -1.54634 0
M  V30 3583 C 344.652 1.39724 -3.13579 0
M  V30 3584 C 343.738 0.776663 -4.16928 0
M  V30 3585 N 344.129 -0.1104 -5.0568 0
M  V30 3586 C 342.427 1.03922 -4.33724 0
M  V30 3587 C 343.128 -0.46387 -5.79848 0
M  V30 3588 N 342.104 0.163987 -5.43353 0
M  V30 3589 H 345.906 -0.360086 -2.91686 0
M  V30 3590 H 343.42 -0.298456 -1.59634 0
M  V30 3591 H 345.417 1.98837 -3.66428 0
M  V30 3592 H 344.077 2.08225 -2.49143 0
M  V30 3593 H 345.088 -0.480069 -5.1567 0
M  V30 3594 H 341.765 1.71829 -3.80501 0
M  V30 3595 H 343.155 -1.18854 -6.61304 0
M  V30 3596 N 345.875 1.56104 -0.216619 0
M  V30 3597 C 346.805 2.23063 0.690296 0
M  V30 3598 C 347.786 1.20072 1.20485 0
M  V30 3599 O 348.971 1.48643 1.24976 0
M  V30 3600 C 346.101 2.90672 1.90072 0
M  V30 3601 C 345.055 4.00092 1.5202 0
M  V30 3602 C 344.381 4.54972 2.80899 0
M  V30 3603 C 345.681 5.17398 0.71391 0
M  V30 3604 H 347.375 2.99109 0.132038 0
M  V30 3605 H 344.921 1.43866 0.0620664 0
M  V30 3606 H 346.874 3.36204 2.54057 0
M  V30 3607 H 345.598 2.12066 2.48386 0
M  V30 3608 H 344.257 3.55283 0.903839 0
M  V30 3609 H 343.905 3.73102 3.37348 0
M  V30 3610 H 343.605 5.28817 2.56176 0
M  V30 3611 H 345.129 5.0322 3.45836 0
M  V30 3612 H 346.543 5.59342 1.25735 0
M  V30 3613 H 344.94 5.97444 0.563951 0
M  V30 3614 H 346.01 4.84088 -0.280527 0
M  V30 3615 N 347.353 -0.0568162 1.57498 0
M  V30 3616 C 348.286 -1.09817 2.00039 0
M  V30 3617 C 349.264 -1.3674 0.879819 0
M  V30 3618 O 350.448 -1.49863 1.14338 0
M  V30 3619 C 347.575 -2.43924 2.34986 0
M  V30 3620 C 346.621 -2.33039 3.57204 0
M  V30 3621 S 347.454 -1.7102 5.07457 0
M  V30 3622 C 348.61 -3.06674 5.45621 0
M  V30 3623 H 348.843 -0.735701 2.88053 0
M  V30 3624 H 346.376 -0.265871 1.52094 0
M  V30 3625 H 348.334 -3.2106 2.55795 0
M  V30 3626 H 346.995 -2.77327 1.47474 0
M  V30 3627 H 346.188 -3.31973 3.79223 0
M  V30 3628 H 345.79 -1.64043 3.36104 0
M  V30 3629 H 348.082 -4.03 5.44608 0
M  V30 3630 H 349.025 -2.8942 6.46252 0
M  V30 3631 H 349.433 -3.07969 4.73091 0
M  V30 3632 N 348.832 -1.54138 -0.328536 0
M  V30 3633 C 350.078 -1.7236 -1.06865 0
M  V30 3634 C 350.411 -0.493231 -1.87832 0
M  V30 3635 O 349.686 0.5098 -1.877 0
M  V30 3636 C 349.969 -2.99621 -1.99747 0
M  V30 3637 C 349.822 -4.32899 -1.22143 0
M  V30 3638 C 351.141 -3.22615 -2.99345 0
M  V30 3639 H 348.26 -0.627151 -0.387105 0
M  V30 3640 H 350.902 -1.86827 -0.345767 0
M  V30 3641 H 349.052 -2.87418 -2.61387 0
M  V30 3642 H 350.724 -4.56978 -0.630017 0
M  V30 3643 H 348.967 -4.30628 -0.523628 0
M  V30 3644 H 349.638 -5.18154 -1.90318 0
M  V30 3645 H 352.114 -3.34248 -2.47826 0
M  V30 3646 H 350.99 -4.13027 -3.61524 0
M  V30 3647 H 351.251 -2.3961 -3.71536 0
M  V30 3648 N 350.31 0.590341 -1.46126 0
M  V30 3649 C 351.242 1.71427 -1.52136 0
M  V30 3650 C 352.255 1.57542 -0.41042 0
M  V30 3651 O 353.444 1.65106 -0.678389 0
M  V30 3652 C 350.544 3.09605 -1.37834 0
M  V30 3653 C 349.717 3.49566 -2.62912 0
M  V30 3654 C 348.776 4.66773 -2.42918 0
M  V30 3655 O 347.802 4.73019 -3.1661 0
M  V30 3656 N 349.004 5.61161 -1.4859 0
M  V30 3657 H 351.769 1.66728 -2.49042 0
M  V30 3658 H 349.33 0.776113 -1.42085 0
M  V30 3659 H 351.322 3.85796 -1.22243 0
M  V30 3660 H 349.892 3.08714 -0.491393 0
M  V30 3661 H 349.112 2.63158 -2.93499 0
M  V30 3662 H 350.4 3.73028 -3.46017 0
M  V30 3663 H 349.798 5.58844 -0.87808 0
M  V30 3664 H 348.355 6.36814 -1.38965 0
M  V30 3665 N 351.788 1.33704 0.83433 0
M  V30 3666 C 353.199 1.22813 1.4062 0
M  V30 3667 C 353.55 -0.151107 1.95617 0
M  V30 3668 O 352.675 -1.05092 1.89168 0
M  V30 3669 C 353.27 2.22355 2.55624 0
M  V30 3670 C 351.829 2.1529 3.08751 0
M  V30 3671 C 350.976 2.09589 1.8157 0
M  V30 3672 H 353.927 1.45236 0.639702 0
M  V30 3673 H 353.948 1.83391 3.33389 0
M  V30 3674 H 353.46 3.22728 2.15566 0
M  V30 3675 H 351.561 1.18235 3.53343 0
M  V30 3676 H 351.674 3.06038 3.68616 0
M  V30 3677 H 350.038 1.55134 2.02004 0
M  V30 3678 H 350.821 3.11777 1.43701 0
M  V30 3679 N 353.266 -1.05314 1.17247 0
M  V30 3680 C 354.196 -2.1498 0.911362 0
M  V30 3681 C 355.177 -1.69471 -0.146169 0
M  V30 3682 O 356.362 -1.942 0.003812 0
M  V30 3683 C 353.492 -3.4472 0.422528 0
M  V30 3684 C 352.446 -4.03789 1.4191 0
M  V30 3685 C 351.772 -5.28858 0.788274 0
M  V30 3686 C 353.072 -4.41418 2.7919 0
M  V30 3687 H 354.766 -2.3708 1.82848 0
M  V30 3688 H 352.312 -1.13938 0.880569 0
M  V30 3689 H 354.265 -4.20787 0.227289 0
M  V30 3690 H 352.989 -3.22269 -0.530123 0
M  V30 3691 H 351.648 -3.2979 1.60106 0
M  V30 3692 H 351.296 -5.02709 -0.171173 0
M  V30 3693 H 350.996 -5.69338 1.45353 0
M  V30 3694 H 352.52 -6.07612 0.603282 0
M  V30 3695 H 353.934 -5.08524 2.64719 0
M  V30 3696 H 352.331 -4.92913 3.42282 0
M  V30 3697 H 353.401 -3.51819 3.33693 0
M  V30 3698 N 354.744 -0.972509 -1.24016 0
M  V30 3699 C 355.992 -0.635776 -1.91839 0
M  V30 3700 C 356.313 0.832312 -1.76345 0
M  V30 3701 O 355.583 1.5946 -1.13795 0
M  V30 3702 H 354.163 -0.232157 -0.710009 0
M  V30 3703 H 356.825 -1.23462 -1.50809 0
M  V30 3704 H 355.921 -0.880545 -2.99421 0
M  V30 3705 N 356.222 1.38976 -0.743202 0
M  V30 3706 C 357.469 2.00343 -0.294752 0
M  V30 3707 C 357.797 1.58983 1.12047 0
M  V30 3708 O 357.052 0.813809 1.77977 0
M  V30 3709 C 357.351 3.55647 -0.353517 0
M  V30 3710 C 357.017 4.16685 -1.72292 0
M  V30 3711 C 355.679 4.3307 -2.09771 0
M  V30 3712 C 358.031 4.50464 -2.62168 0
M  V30 3713 C 355.359 4.80526 -3.36618 0
M  V30 3714 C 357.711 4.99332 -3.88395 0
M  V30 3715 C 356.375 5.13924 -4.25956 0
M  V30 3716 H 355.645 0.733108 -0.107857 0
M  V30 3717 H 358.292 1.6618 -0.951651 0
M  V30 3718 H 356.597 3.89884 0.386954 0
M  V30 3719 H 358.294 4.00998 0.0117269 0
M  V30 3720 H 354.884 4.04339 -1.42155 0
M  V30 3721 H 359.068 4.37416 -2.3448 0
M  V30 3722 H 354.324 4.90008 -3.65653 0
M  V30 3723 H 358.498 5.2444 -4.58187 0
M  V30 3724 H 356.125 5.50457 -5.2431 0
M  V30 3725 N 357.7 0.491464 1.49741 0
M  V30 3726 C 358.65 -0.311086 2.25868 0
M  V30 3727 C 359.634 -0.943857 1.30308 0
M  V30 3728 O 360.826 -0.853035 1.55088 0
M  V30 3729 C 357.955 -1.38059 3.14316 0
M  V30 3730 C 357.041 -0.754541 4.17334 0
M  V30 3731 N 357.432 0.137216 5.05614 0
M  V30 3732 C 355.73 -1.01621 4.34269 0
M  V30 3733 C 356.431 0.494614 5.79593 0
M  V30 3734 N 355.407 -0.135169 5.43432 0
M  V30 3735 H 359.209 0.37555 2.91491 0
M  V30 3736 H 356.723 0.306917 1.59473 0
M  V30 3737 H 358.72 -1.96891 3.67477 0
M  V30 3738 H 357.38 -2.06901 2.50244 0
M  V30 3739 H 358.391 0.50741 5.15408 0
M  V30 3740 H 355.068 -1.69808 3.81407 0
M  V30 3741 H 356.458 1.2236 6.60665 0
M  V30 3742 N 359.178 -1.55987 0.224894 0
M  V30 3743 C 360.141 -2.19178 -0.670348 0
M  V30 3744 C 361.141 -1.15461 -1.11917 0
M  V30 3745 O 362.331 -1.40675 -1.02743 0
M  V30 3746 C 359.463 -2.81777 -1.9187 0
M  V30 3747 H 360.656 -2.99662 -0.119364 0
M  V30 3748 H 358.209 -1.5628 -0.0247128 0
M  V30 3749 H 358.944 -2.05172 -2.51147 0
M  V30 3750 H 358.729 -3.57732 -1.60531 0
M  V30 3751 H 360.219 -3.30205 -2.55645 0
M  V30 3752 N 360.656 0.0484629 -1.57525 0
M  V30 3753 C 362.067 0.597486 -1.76881 0
M  V30 3754 C 362.418 1.76664 -0.853475 0
M  V30 3755 O 361.543 2.16357 -0.0433656 0
M  V30 3756 C 362.138 1.09066 -3.20765 0
M  V30 3757 C 360.697 1.58535 -3.41385 0
M  V30 3758 C 359.844 0.514868 -2.72478 0
M  V30 3759 H 362.795 -0.177758 -1.57701 0
M  V30 3760 H 362.816 1.95875 -3.2621 0
M  V30 3761 H 362.328 0.239521 -3.8736 0
M  V30 3762 H 360.429 2.45898 -2.79937 0
M  V30 3763 H 360.542 1.64622 -4.49929 0
M  V30 3764 H 358.906 0.965407 -2.35695 0
M  V30 3765 H 359.689 -0.32648 -3.41744 0
M  V30 3766 N 362.134 1.5431 0.320358 0
M  V30 3767 C 363.411 1.63322 1.07635 0
M  V30 3768 C 363.791 0.46912 2.05821 0
M  V30 3769 O 363.139 -0.536274 2.22118 0
M  V30 3770 C 363.349 3.00465 1.77544 0
M  V30 3771 C 364.697 3.56621 2.30449 0
M  V30 3772 O 365.721 3.02791 1.87606 0
M  V30 3773 O 364.58 4.5083 3.08892 0
M  V30 3774 H 361.674 0.661502 0.496331 0
M  V30 3775 H 364.22 1.66656 0.319992 0
M  V30 3776 H 362.992 3.76629 1.06143 0
M  V30 3777 H 362.615 3.00824 2.59982 0
M  V30 3778 N 363.613 -0.582584 1.46437 0
M  V30 3779 C 364.853 -1.35184 1.53312 0
M  V30 3780 C 365.217 -1.9115 0.180508 0
M  V30 3781 O 366.418 -2.68514 0.124017 0
M  V30 3782 C 364.689 -2.45089 2.60127 0
M  V30 3783 S 366.248 -3.32439 2.86408 0
M  V30 3784 H 363.066 -0.460559 0.54167 0
M  V30 3785 H 365.668 -0.669709 1.83671 0
M  V30 3786 H 364.372 -2.02366 3.57038 0
M  V30 3787 H 363.903 -3.18074 2.315 0
M  V30 3788 H 365.918 -4.43924 2.21688 0
M  V30 3789 N 365.091 -1.34144 -0.827227 0
M  V30 3790 C 366.339 -1.26009 -1.58007 0
M  V30 3791 C 366.66 0.170971 -1.94249 0
M  V30 3792 O 365.93 1.10256 -1.61927 0
M  V30 3793 H 364.51 -0.463414 -0.585881 0
M  V30 3794 H 367.172 -1.68005 -0.987951 0
M  V30 3795 H 366.268 -1.86187 -2.50481 0
M  V30 3796 N 366.569 1.04691 -1.17803 0
M  V30 3797 C 367.516 2.12557 -0.899343 0
M  V30 3798 C 368.486 1.65339 0.158771 0
M  V30 3799 O 369.671 1.90789 0.0204797 0
M  V30 3800 C 366.811 3.42481 -0.424315 0
M  V30 3801 C 365.924 4.03346 -1.54713 0
M  V30 3802 C 365.059 5.21208 -1.02546 0
M  V30 3803 C 364.098 5.74089 -2.12339 0
M  V30 3804 N 363.235 6.83247 -1.61612 0
M  V30 3805 H 368.075 2.35734 -1.823 0
M  V30 3806 H 365.612 1.1564 -0.909159 0
M  V30 3807 H 367.57 4.16996 -0.130421 0
M  V30 3808 H 366.2 3.19471 0.462377 0
M  V30 3809 H 365.252 3.2622 -1.95664 0
M  V30 3810 H 366.564 4.38628 -2.37501 0
M  V30 3811 H 365.718 6.02812 -0.685718 0
M  V30 3812 H 364.457 4.87414 -0.167084 0
M  V30 3813 H 363.462 4.91111 -2.47165 0
M  V30 3814 H 364.687 6.0993 -2.98601 0
M  V30 3815 H 362.633 6.5134 -0.780533 0
M  V30 3816 H 362.55 7.17559 -2.38003 0
M  V30 3817 H 363.818 7.68491 -1.30545 0
M  V30 3818 N 368.047 0.979072 1.23499 0
M  V30 3819 C 368.957 0.526431 2.28617 0
M  V30 3820 C 369.973 -0.418126 1.68901 0
M  V30 3821 O 371.149 -0.288372 1.99325 0
M  V30 3822 C 368.214 -0.165235 3.46306 0
M  V30 3823 C 367.275 0.82056 4.21385 0
M  V30 3824 C 366.508 0.161807 5.33455 0
M  V30 3825 O 366.731 -1.04742 5.60701 0
M  V30 3826 O 365.665 0.859708 5.95729 0
M  V30 3827 H 369.491 1.4006 2.69475 0
M  V30 3828 H 367.076 0.746643 1.29405 0
M  V30 3829 H 368.958 -0.553287 4.17752 0
M  V30 3830 H 367.633 -1.01419 3.07402 0
M  V30 3831 H 366.54 1.25929 3.52268 0
M  V30 3832 H 367.873 1.63828 4.64135 0
M  V30 3833 N 369.525 -1.3858 0.750561 0
M  V30 3834 C 370.773 -1.99789 0.30477 0
M  V30 3835 C 371.094 -1.59874 -1.11649 0
M  V30 3836 O 370.364 -0.85417 -1.76297 0
M  V30 3837 H 368.944 -0.738902 0.109694 0
M  V30 3838 H 371.606 -1.69391 0.963983 0
M  V30 3839 H 370.702 -3.09952 0.365499 0
M  V30 3840 N 371.003 -0.499398 -1.49478 0
M  V30 3841 C 372.25 0.0456899 -2.02448 0
M  V30 3842 C 372.578 1.37142 -1.37921 0
M  V30 3843 O 371.833 1.89111 -0.503544 0
M  V30 3844 C 372.132 0.248424 -3.56536 0
M  V30 3845 C 371.798 -0.999107 -4.39692 0
M  V30 3846 C 370.46 -1.34108 -4.62135 0
M  V30 3847 C 372.812 -1.82842 -4.88076 0
M  V30 3848 C 370.14 -2.51191 -5.30208 0
M  V30 3849 C 372.492 -2.99076 -5.57437 0
M  V30 3850 C 371.156 -3.33655 -5.78127 0
M  V30 3851 H 370.426 0.0167191 -0.740811 0
M  V30 3852 H 373.073 -0.65923 -1.79795 0
M  V30 3853 H 371.378 1.03586 -3.77859 0
M  V30 3854 H 373.075 0.684605 -3.95113 0
M  V30 3855 H 369.665 -0.722729 -4.22463 0
M  V30 3856 H 373.849 -1.57737 -4.70566 0
M  V30 3857 H 369.105 -2.78221 -5.44429 0
M  V30 3858 H 373.279 -3.63664 -5.93904 0
M  V30 3859 H 370.906 -4.24483 -6.30649 0
M  V30 3860 N 372.481 1.55866 -0.233164 0
M  V30 3861 C 373.727 1.98897 0.395959 0
M  V30 3862 C 374.06 1.12091 1.58585 0
M  V30 3863 O 373.335 0.181182 1.93654 0
M  V30 3864 C 373.618 3.50658 0.819224 0
M  V30 3865 C 373.471 4.48233 -0.375109 0
M  V30 3866 C 374.79 4.07135 1.67121 0
M  V30 3867 H 371.909 0.723102 0.142451 0
M  V30 3868 H 374.551 1.87082 -0.331725 0
M  V30 3869 H 372.701 3.60857 1.43925 0
M  V30 3870 H 374.373 4.50031 -1.01341 0
M  V30 3871 H 372.616 4.21624 -1.02058 0
M  V30 3872 H 373.287 5.51988 -0.0358328 0
M  V30 3873 H 375.763 3.99952 1.14795 0
M  V30 3874 H 374.639 5.13615 1.93625 0
M  V30 3875 H 374.9 3.54736 2.63846 0
M  V30 3876 N 373.959 -0.0401083 1.57549 0
M  V30 3877 C 375.236 -0.767917 1.79896 0
M  V30 3878 C 375.616 -1.9416 0.82856 0
M  V30 3879 O 374.964 -2.2812 -0.131671 0
M  V30 3880 C 375.174 -1.2113 3.27305 0
M  V30 3881 C 376.522 -1.63175 3.91994 0
M  V30 3882 O 377.546 -1.30616 3.31388 0
M  V30 3883 O 376.405 -2.23565 4.98679 0
M  V30 3884 H 373.499 -0.370441 0.739393 0
M  V30 3885 H 376.045 -0.017737 1.69691 0
M  V30 3886 H 374.817 -0.372937 3.89519 0
M  V30 3887 H 374.44 -2.02183 3.42356 0
M  V30 3888 N 375.437 -1.54477 -0.31217 0
M  V30 3889 C 376.367 -1.87652 -1.38957 0
M  V30 3890 C 377.348 -0.734358 -1.53431 0
M  V30 3891 O 378.533 -0.98911 -1.67123 0
M  V30 3892 C 375.663 -2.11396 -2.75552 0
M  V30 3893 C 374.617 -3.27243 -2.75855 0
M  V30 3894 C 373.943 -3.36382 -4.15633 0
M  V30 3895 C 375.243 -4.64622 -2.38587 0
M  V30 3896 H 376.937 -2.77887 -1.11442 0
M  V30 3897 H 374.483 -1.33707 -0.534655 0
M  V30 3898 H 376.436 -2.33189 -3.51 0
M  V30 3899 H 375.16 -1.17921 -3.04569 0
M  V30 3900 H 373.819 -3.05356 -2.02863 0
M  V30 3901 H 373.467 -2.40445 -4.41809 0
M  V30 3902 H 373.167 -4.14249 -4.1674 0
M  V30 3903 H 374.691 -3.60422 -4.92877 0
M  V30 3904 H 376.105 -4.86219 -3.03749 0
M  V30 3905 H 374.502 -5.45121 -2.50925 0
M  V30 3906 H 375.572 -4.66097 -1.33723 0
M  V30 3907 N 376.915 0.57481 -1.46744 0
M  V30 3908 C 378.326 1.15695 -1.46532 0
M  V30 3909 C 378.677 1.95068 -0.210425 0
M  V30 3910 O 377.802 2.05241 0.685944 0
M  V30 3911 C 378.397 2.1048 -2.65487 0
M  V30 3912 C 376.956 2.64002 -2.68291 0
M  V30 3913 C 376.103 1.40026 -2.39349 0
M  V30 3914 H 379.054 0.362325 -1.54509 0
M  V30 3915 H 379.075 2.94074 -2.41455 0
M  V30 3916 H 378.587 1.52683 -3.56805 0
M  V30 3917 H 376.688 3.25646 -1.81067 0
M  V30 3918 H 376.801 3.06197 -3.68483 0
M  V30 3919 H 375.165 1.70106 -1.89568 0
M  V30 3920 H 375.948 0.840485 -3.32852 0
M  V30 3921 N 378.394 1.34581 0.820102 0
M  V30 3922 C 379.304 1.28471 1.96297 0
M  V30 3923 C 380.32 0.191902 1.72939 0
M  V30 3924 O 381.496 0.418879 1.96996 0
M  V30 3925 C 378.561 1.04281 3.30645 0
M  V30 3926 C 377.622 2.22745 3.66992 0
M  V30 3927 C 376.855 1.997 4.9493 0
M  V30 3928 O 377.078 0.956656 5.6232 0
M  V30 3929 O 376.012 2.86723 5.2922 0
M  V30 3930 H 379.838 2.24624 2.04396 0
M  V30 3931 H 377.423 1.14816 0.955913 0
M  V30 3932 H 379.305 0.925841 4.11104 0
M  V30 3933 H 377.98 0.111697 3.23507 0
M  V30 3934 H 376.887 2.40003 2.86966 0
M  V30 3935 H 378.22 3.14257 3.78819 0
M  V30 3936 N 379.872 -1.04064 1.18357 0
M  V30 3937 C 381.102 -1.80654 1.00238 0
M  V30 3938 C 381.51 -1.83713 -0.452362 0
M  V30 3939 O 380.853 -1.27135 -1.32599 0
M  V30 3940 C 380.915 -3.27582 1.48088 0
M  V30 3941 C 380.579 -3.48184 2.96002 0
M  V30 3942 C 381.576 -3.39372 3.93856 0
M  V30 3943 C 379.261 -3.7478 3.34433 0
M  V30 3944 C 381.255 -3.5686 5.28138 0
M  V30 3945 C 378.942 -3.91915 4.68877 0
M  V30 3946 C 379.94 -3.82956 5.65539 0
M  V30 3947 O 379.628 -3.996 6.97549 0
M  V30 3948 H 379.36 -0.575751 0.354241 0
M  V30 3949 H 381.914 -1.32044 1.57333 0
M  V30 3950 H 380.144 -3.77161 0.853588 0
M  V30 3951 H 381.833 -3.8573 1.2636 0
M  V30 3952 H 382.599 -3.18789 3.65511 0
M  V30 3953 H 378.478 -3.80852 2.59756 0
M  V30 3954 H 382.022 -3.49783 6.03571 0
M  V30 3955 H 377.919 -4.11992 4.96923 0
M  V30 3956 H 378.687 -4.1676 7.04452 0
M  V30 3957 N 381.35 -0.985608 -1.22978 0
M  V30 3958 C 382.761 -0.693593 -1.73338 0
M  V30 3959 C 383.112 0.789935 -1.79595 0
M  V30 3960 O 382.237 1.61771 -1.43733 0
M  V30 3961 C 382.832 -1.25235 -3.14804 0
M  V30 3962 C 381.391 -1.00987 -3.626 0
M  V30 3963 C 380.538 -1.37695 -2.40698 0
M  V30 3964 H 383.489 -1.15884 -1.08428 0
M  V30 3965 H 383.51 -0.627329 -3.75293 0
M  V30 3966 H 383.022 -2.33209 -3.10218 0
M  V30 3967 H 381.123 0.0535565 -3.72562 0
M  V30 3968 H 381.236 -1.66812 -4.49122 0
M  V30 3969 H 379.6 -0.795459 -2.4196 0
M  V30 3970 H 380.383 -2.46657 -2.38779 0
M  V30 3971 N 382.828 1.3818 -0.7579 0
M  V30 3972 C 384.075 2.00019 -0.315985 0
M  V30 3973 C 384.403 1.60163 1.10355 0
M  V30 3974 O 383.658 0.83264 1.77103 0
M  V30 3975 C 383.957 3.55252 -0.391218 0
M  V30 3976 C 383.623 4.14834 -1.76702 0
M  V30 3977 C 382.285 4.30821 -2.14353 0
M  V30 3978 C 384.637 4.47658 -2.66931 0
M  V30 3979 C 381.965 4.76928 -3.41696 0
M  V30 3980 C 384.317 4.95184 -3.93669 0
M  V30 3981 C 382.981 5.09377 -4.31383 0
M  V30 3982 H 382.251 0.731923 -0.115627 0
M  V30 3983 H 384.898 1.65161 -0.969223 0
M  V30 3984 H 383.203 3.90273 0.34558 0
M  V30 3985 H 384.9 4.00988 -0.030805 0
M  V30 3986 H 381.49 4.02808 -1.46435 0
M  V30 3987 H 385.674 4.34904 -2.39106 0
M  V30 3988 H 380.93 4.86103 -3.70829 0
M  V30 3989 H 385.104 5.19551 -4.63724 0
M  V30 3990 H 382.731 5.44865 -5.30119 0
M  V30 3991 N 384.306 0.507319 1.49211 0
M  V30 3992 C 385.554 -0.0348839 2.0207 0
M  V30 3993 C 385.875 -1.36898 1.38866 0
M  V30 3994 O 385.145 -1.88133 0.546151 0
M  V30 3995 H 383.725 -0.0158812 0.746831 0
M  V30 3996 H 386.387 0.665998 1.83168 0
M  V30 3997 H 385.483 -0.159917 3.1169 0
M  V30 3998 N 385.784 -1.5574 0.241426 0
M  V30 3999 C 386.714 -2.24133 -0.654722 0
M  V30 4000 C 387.695 -1.21974 -1.1856 0
M  V30 4001 O 388.88 -1.50612 -1.22595 0
M  V30 4002 C 386.01 -2.93659 -1.85423 0
M  V30 4003 C 384.964 -4.0246 -1.45636 0
M  V30 4004 C 384.29 -4.59383 -2.73626 0
M  V30 4005 C 385.59 -5.18468 -0.631506 0
M  V30 4006 H 387.284 -2.99281 -0.0844353 0
M  V30 4007 H 384.83 -1.43947 -0.0391707 0
M  V30 4008 H 386.783 -3.40203 -2.48676 0
M  V30 4009 H 385.507 -2.15991 -2.44981 0
M  V30 4010 H 384.166 -3.56676 -0.847202 0
M  V30 4011 H 383.814 -3.78422 -3.3137 0
M  V30 4012 H 383.514 -5.32826 -2.4773 0
M  V30 4013 H 385.038 -5.08658 -3.37786 0
M  V30 4014 H 386.452 -5.61272 -1.1682 0
M  V30 4015 H 384.849 -5.98266 -0.468831 0
M  V30 4016 H 385.919 -4.8358 0.357506 0
M  V30 4017 N 387.262 0.0317525 -1.57568 0
M  V30 4018 C 388.172 1.05021 -2.0978 0
M  V30 4019 C 389.188 1.39809 -1.03583 0
M  V30 4020 O 390.364 1.49182 -1.35302 0
M  V30 4021 C 387.429 2.33301 -2.56459 0
M  V30 4022 C 386.49 2.0512 -3.77127 0
M  V30 4023 C 385.723 3.27283 -4.2157 0
M  V30 4024 O 385.946 4.37861 -3.65559 0
M  V30 4025 O 384.88 3.13141 -5.14029 0
M  V30 4026 H 388.706 0.636505 -2.96955 0
M  V30 4027 H 386.291 0.248559 -1.47318 0
M  V30 4028 H 388.173 3.08722 -2.86825 0
M  V30 4029 H 386.848 2.73973 -1.72397 0
M  V30 4030 H 385.755 1.27276 -3.51784 0
M  V30 4031 H 387.088 1.69305 -4.62165 0
M  V30 4032 N 388.74 1.54641 0.303973 0
M  V30 4033 C 389.965 1.78092 1.06292 0
M  V30 4034 C 390.39 0.537342 1.80262 0
M  V30 4035 O 389.748 -0.511993 1.7392 0
M  V30 4036 C 389.796 2.98612 2.02147 0
M  V30 4037 O 388.9 2.71528 3.10397 0
M  V30 4038 H 388.241 0.589548 0.305497 0
M  V30 4039 H 390.771 2.01716 0.3423 0
M  V30 4040 H 390.781 3.265 2.44667 0
M  V30 4041 H 389.456 3.88785 1.47714 0
M  V30 4042 H 388.033 2.54648 2.72413 0
M  V30 4043 N 390.218 -0.567019 1.47046 0
M  V30 4044 C 391.634 -0.891975 1.32348 0
M  V30 4045 C 391.834 -1.99154 0.306616 0
M  V30 4046 O 390.89 -2.50883 -0.28532 0
M  V30 4047 C 392.203 -1.29449 2.7141 0
M  V30 4048 C 393.751 -1.40646 2.79621 0
M  V30 4049 C 394.226 -1.84257 4.19301 0
M  V30 4050 N 395.717 -1.91424 4.21795 0
M  V30 4051 C 396.452 -2.26476 5.26779 0
M  V30 4052 N 395.948 -2.60211 6.42077 0
M  V30 4053 N 397.741 -2.27166 5.14152 0
M  V30 4054 H 389.892 0.159074 2.11803 0
M  V30 4055 H 392.155 0.00849752 0.947962 0
M  V30 4056 H 391.861 -0.560448 3.47206 0
M  V30 4057 H 391.735 -2.25273 3.02542 0
M  V30 4058 H 394.122 -2.13133 2.04104 0
M  V30 4059 H 394.203 -0.430339 2.52154 0
M  V30 4060 H 393.847 -1.12343 4.95319 0
M  V30 4061 H 393.777 -2.82855 4.44185 0
M  V30 4062 H 396.268 -1.6778 3.38612 0
M  V30 4063 H 396.581 -2.85956 7.17948 0
M  V30 4064 H 394.926 -2.57813 6.45413 0
M  V30 4065 H 398.117 -2.00244 4.23107 0
M  V30 4066 H 398.29 -2.54154 5.96079 0
M  V30 4067 N 391.696 -1.35014 -0.812953 0
M  V30 4068 C 392.942 -1.2812 -1.57204 0
M  V30 4069 C 393.275 0.145869 -1.93651 0
M  V30 4070 O 392.55 1.0937 -1.60836 0
M  V30 4071 C 392.833 -2.18162 -2.86492 0
M  V30 4072 C 392.686 -3.69454 -2.56561 0
M  V30 4073 C 394.005 -2.07439 -3.88145 0
M  V30 4074 H 391.124 -0.466746 -0.570366 0
M  V30 4075 H 393.766 -1.65357 -0.935783 0
M  V30 4076 H 391.916 -1.86535 -3.40789 0
M  V30 4077 H 393.588 -4.11493 -2.08497 0
M  V30 4078 H 391.831 -3.9005 -1.89851 0
M  V30 4079 H 392.502 -4.27835 -3.48799 0
M  V30 4080 H 394.978 -2.35228 -3.4323 0
M  V30 4081 H 393.854 -2.7265 -4.76396 0
M  V30 4082 H 394.115 -1.05439 -4.29343 0
M  V30 4083 N 393.175 1.03435 -1.18907 0
M  V30 4084 C 394.138 2.09756 -0.923844 0
M  V30 4085 C 395.138 1.60528 0.093416 0
M  V30 4086 O 396.328 1.73631 -0.140727 0
M  V30 4087 C 393.46 3.38692 -0.387354 0
M  V30 4088 H 394.653 2.34719 -1.86674 0
M  V30 4089 H 392.206 1.19959 -1.00197 0
M  V30 4090 H 392.941 3.19396 0.561845 0
M  V30 4091 H 392.726 3.75742 -1.12074 0
M  V30 4092 H 394.216 4.17016 -0.220694 0
M  V30 4093 N 394.653 0.992116 1.22453 0
M  V30 4094 C 395.881 0.685944 1.95198 0
M  V30 4095 C 396.296 -0.749233 1.73297 0
M  V30 4096 O 395.653 -1.50549 1.03156 0
M  V30 4097 C 395.704 0.981395 3.47924 0
M  V30 4098 O 395.425 2.36018 3.6909 0
M  V30 4099 C 396.926 0.692815 4.37853 0
M  V30 4100 H 394.146 0.253821 0.621141 0
M  V30 4101 H 396.69 1.32668 1.55626 0
M  V30 4102 H 394.845 0.386481 3.85467 0
M  V30 4103 H 395.259 2.45884 4.63294 0
M  V30 4104 H 396.733 0.949818 5.43767 0
M  V30 4105 H 397.21 -0.373181 4.37612 0
M  V30 4106 H 397.816 1.26874 4.05935 0
M  V30 4107 N 396.131 -1.37776 0.765217 0
M  V30 4108 C 397.547 -1.53297 0.444108 0
M  V30 4109 C 397.747 -1.72515 -1.04119 0
M  V30 4110 O 396.803 -1.74278 -1.82711 0
M  V30 4111 C 398.116 -2.73328 1.25349 0
M  V30 4112 C 399.664 -2.87185 1.24473 0
M  V30 4113 C 400.139 -4.10191 2.03733 0
M  V30 4114 N 401.63 -4.17291 2.01053 0
M  V30 4115 C 402.365 -5.11488 2.59166 0
M  V30 4116 N 401.861 -6.11285 3.26041 0
M  V30 4117 N 403.654 -5.03924 2.49032 0
M  V30 4118 H 395.805 -1.23552 1.72768 0
M  V30 4119 H 398.068 -0.601103 0.733062 0
M  V30 4120 H 397.774 -2.6557 2.30577 0
M  V30 4121 H 397.648 -3.66834 0.87823 0
M  V30 4122 H 400.035 -2.94418 0.20047 0
M  V30 4123 H 400.116 -1.94657 1.65959 0
M  V30 4124 H 399.76 -4.0372 3.08176 0
M  V30 4125 H 399.69 -5.01821 1.59633 0
M  V30 4126 H 402.181 -3.45825 1.5236 0
M  V30 4127 H 402.494 -6.79678 3.67774 0
M  V30 4128 H 400.839 -6.11583 3.30138 0
M  V30 4129 H 404.03 -4.24902 1.96407 0
M  V30 4130 H 404.203 -5.77152 2.94617 0
M  V30 4131 N 397.609 -0.515225 -1.4894 0
M  V30 4132 C 398.855 0.016187 -2.03394 0
M  V30 4133 C 399.21 1.33377 -1.38666 0
M  V30 4134 O 398.503 1.84461 -0.518141 0
M  V30 4135 C 398.697 0.210595 -3.56779 0
M  V30 4136 C 398.526 -1.08659 -4.36375 0
M  V30 4137 C 397.296 -1.64237 -4.77864 0
M  V30 4138 C 399.494 -1.9935 -4.74093 0
M  V30 4139 N 397.476 -2.88398 -5.41941 0
M  V30 4140 C 398.847 -3.08088 -5.38035 0
M  V30 4141 C 400.902 -1.99856 -4.56029 0
M  V30 4142 C 399.605 -4.17377 -5.85823 0
M  V30 4143 C 401.631 -3.08129 -5.04787 0
M  V30 4144 C 400.993 -4.15586 -5.68742 0
M  V30 4145 H 397.092 -0.0352107 -0.781207 0
M  V30 4146 H 399.676 -0.693237 -1.8194 0
M  V30 4147 H 397.847 0.889088 -3.78087 0
M  V30 4148 H 399.579 0.740287 -3.97872 0
M  V30 4149 H 396.334 -1.18566 -4.58518 0
M  V30 4150 H 396.758 -3.51572 -5.78555 0
M  V30 4151 H 401.4 -1.18079 -4.05977 0
M  V30 4152 H 399.118 -4.99943 -6.34888 0
M  V30 4153 H 402.704 -3.09557 -4.92611 0
M  V30 4154 H 401.584 -4.97987 -6.05787 0
M  V30 4155 N 399.087 1.5561 -0.249682 0
M  V30 4156 C 400.364 1.90932 0.424761 0
M  V30 4157 C 400.744 1.17078 1.75658 0
M  V30 4158 O 400.092 0.289176 2.26663 0
M  V30 4159 C 400.302 3.43975 0.590109 0
M  V30 4160 C 401.65 4.15281 0.884714 0
M  V30 4161 O 402.674 3.49729 0.67587 0
M  V30 4162 O 401.533 5.31236 1.28259 0
M  V30 4163 H 398.627 0.794815 0.228468 0
M  V30 4164 H 401.173 1.67135 -0.293954 0
M  V30 4165 H 399.945 3.89748 -0.34818 0
M  V30 4166 H 399.568 3.73644 1.35926 0
M  V30 4167 N 400.565 -0.0233959 1.57583 0
M  V30 4168 C 401.814 -0.712133 1.8871 0
M  V30 4169 C 402.127 -1.76217 0.848944 0
M  V30 4170 O 403.333 -2.50389 1.04964 0
M  V30 4171 C 401.789 -1.3177 3.3491 0
M  V30 4172 C 401.397 -0.303715 4.46969 0
M  V30 4173 C 403.141 -1.98598 3.75179 0
M  V30 4174 C 401.048 -0.917945 5.84233 0
M  V30 4175 H 399.978 -0.269735 0.704101 0
M  V30 4176 H 402.629 0.0333114 1.8347 0
M  V30 4177 H 401.011 -2.11304 3.34913 0
M  V30 4178 H 402.185 0.465325 4.58445 0
M  V30 4179 H 400.5 0.2628 4.1557 0
M  V30 4180 H 403.097 -2.45416 4.75053 0
M  V30 4181 H 403.44 -2.80659 3.07468 0
M  V30 4182 H 403.973 -1.25831 3.77374 0
M  V30 4183 H 400.712 -0.136633 6.55358 0
M  V30 4184 H 400.232 -1.65669 5.76467 0
M  V30 4185 H 401.911 -1.4236 6.31144 0
M  V30 4186 N 402.043 -1.548 -0.295768 0
M  V30 4187 C 402.975 -1.82492 -1.3867 0
M  V30 4188 C 403.988 -0.708134 -1.46592 0
M  V30 4189 O 405.177 -0.985686 -1.48817 0
M  V30 4190 C 402.277 -1.95256 -2.76999 0
M  V30 4191 C 401.45 -3.25709 -2.91946 0
M  V30 4192 C 400.509 -3.28824 -4.10806 0
M  V30 4193 O 399.535 -4.02328 -4.02643 0
M  V30 4194 N 400.737 -2.5459 -5.21694 0
M  V30 4195 H 403.502 -2.76646 -1.15269 0
M  V30 4196 H 401.063 -1.54438 -0.485849 0
M  V30 4197 H 403.055 -1.94736 -3.54768 0
M  V30 4198 H 401.625 -1.08072 -2.93324 0
M  V30 4199 H 400.845 -3.38959 -2.01247 0
M  V30 4200 H 402.133 -4.11786 -2.98847 0
M  V30 4201 H 401.531 -1.94512 -5.31208 0
M  V30 4202 H 400.088 -2.59818 -5.97778 0
M  V30 4203 N 403.521 0.559213 -1.47345 0
M  V30 4204 C 404.468 1.66645 -1.59682 0
M  V30 4205 C 405.438 1.60168 -0.43994 0
M  V30 4206 O 406.623 1.79031 -0.659736 0
M  V30 4207 C 403.763 3.04969 -1.61518 0
M  V30 4208 C 402.876 3.21897 -2.88108 0
M  V30 4209 C 402.011 4.50608 -2.81294 0
M  V30 4210 C 401.05 4.60961 -4.02717 0
M  V30 4211 N 400.187 5.81024 -3.94151 0
M  V30 4212 H 405.027 1.55439 -2.54249 0
M  V30 4213 H 402.564 0.757219 -1.26113 0
M  V30 4214 H 404.522 3.85064 -1.60566 0
M  V30 4215 H 403.152 3.15015 -0.704645 0
M  V30 4216 H 402.204 2.35248 -2.98936 0
M  V30 4217 H 403.516 3.25412 -3.78032 0
M  V30 4218 H 402.67 5.3896 -2.7858 0
M  V30 4219 H 401.409 4.49568 -1.89049 0
M  V30 4220 H 400.414 3.71021 -4.05738 0
M  V30 4221 H 401.639 4.63761 -4.96087 0
M  V30 4222 H 399.585 5.80938 -3.04708 0
M  V30 4223 H 399.502 5.85909 -4.77752 0
M  V30 4224 H 400.77 6.71744 -3.9545 0
M  V30 4225 N 404.999 1.35443 0.805782 0
M  V30 4226 C 406.229 1.31687 1.59192 0
M  V30 4227 C 406.637 -0.10756 1.88894 0
M  V30 4228 O 405.98 -1.07017 1.49309 0
M  V30 4229 C 406.042 2.05686 2.94845 0
M  V30 4230 C 405.706 3.54868 2.87954 0
M  V30 4231 C 406.703 4.49444 2.61335 0
M  V30 4232 C 404.388 3.97528 3.07046 0
M  V30 4233 C 406.382 5.84655 2.53885 0
M  V30 4234 C 404.069 5.32833 2.99219 0
M  V30 4235 C 405.067 6.26209 2.72674 0
M  V30 4236 O 404.755 7.59032 2.64811 0
M  V30 4237 H 404.487 0.453878 0.50097 0
M  V30 4238 H 407.041 1.78892 1.0093 0
M  V30 4239 H 405.271 1.5312 3.55093 0
M  V30 4240 H 406.96 1.94998 3.55993 0
M  V30 4241 H 407.726 4.17804 2.46303 0
M  V30 4242 H 403.605 3.25233 3.26718 0
M  V30 4243 H 407.149 6.57508 2.33086 0
M  V30 4244 H 403.046 5.64087 3.13809 0
M  V30 4245 H 403.814 7.68967 2.80413 0
M  V30 4246 N 406.477 -1.02803 1.19454 0
M  V30 4247 C 407.44 -2.09264 0.934955 0
M  V30 4248 C 408.44 -1.60576 -0.0849015 0
M  V30 4249 O 409.63 -1.73554 0.149933 0
M  V30 4250 C 406.762 -3.38482 0.40531 0
M  V30 4251 H 407.955 -2.33726 1.87916 0
M  V30 4252 H 405.508 -1.19426 1.00832 0
M  V30 4253 H 406.243 -3.19689 -0.544899 0
M  V30 4254 H 406.028 -3.75142 1.14065 0
M  V30 4255 H 407.518 -4.16894 0.242806 0
M  V30 4256 N 407.956 -0.998596 -1.21925 0
M  V30 4257 C 409.372 -0.710303 -1.42923 0
M  V30 4258 C 409.572 0.716933 -1.88314 0
M  V30 4259 O 408.628 1.48712 -2.04062 0
M  V30 4260 C 409.941 -1.72072 -2.466 0
M  V30 4261 C 411.489 -1.73681 -2.60392 0
M  V30 4262 C 411.964 -2.73601 -3.67296 0
M  V30 4263 N 413.455 -2.7223 -3.7476 0
M  V30 4264 C 414.19 -3.46206 -4.57087 0
M  V30 4265 N 413.686 -4.29802 -5.43362 0
M  V30 4266 N 415.479 -3.34886 -4.51451 0
M  V30 4267 H 407.63 -1.92028 -0.9077 0
M  V30 4268 H 409.893 -0.828487 -0.460775 0
M  V30 4269 H 409.599 -2.74231 -2.20206 0
M  V30 4270 H 409.473 -1.51818 -3.45299 0
M  V30 4271 H 411.86 -0.722173 -2.86127 0
M  V30 4272 H 411.941 -1.98005 -1.61949 0
M  V30 4273 H 411.585 -3.75217 -3.42307 0
M  V30 4274 H 411.515 -2.46545 -4.65321 0
M  V30 4275 H 414.006 -2.11576 -3.1312 0
M  V30 4276 H 414.319 -4.83061 -6.03218 0
M  V30 4277 H 412.664 -4.33887 -5.42925 0
M  V30 4278 H 415.855 -2.69015 -3.83078 0
M  V30 4279 H 416.028 -3.92796 -5.15379 0
M  V30 4280 N 409.434 1.37368 -0.772513 0
M  V30 4281 C 410.344 2.34053 -0.160081 0
M  V30 4282 C 411.36 1.60216 0.678728 0
M  V30 4283 O 412.536 1.92303 0.59847 0
M  V30 4284 C 409.601 3.3939 0.708182 0
M  V30 4285 C 408.662 4.29048 -0.147172 0
M  V30 4286 C 407.895 5.29354 0.679744 0
M  V30 4287 O 408.118 5.3723 1.91678 0
M  V30 4288 O 407.052 6.01835 0.0885444 0
M  V30 4289 H 410.878 2.88159 -0.959053 0
M  V30 4290 H 408.463 1.39543 -0.533685 0
M  V30 4291 H 410.345 4.03839 1.20384 0
M  V30 4292 H 409.02 2.8761 1.48533 0
M  V30 4293 H 407.927 3.67697 -0.689205 0
M  V30 4294 H 409.26 4.84134 -0.887423 0
M  V30 4295 N 410.912 0.523116 1.48665 0
M  V30 4296 C 411.875 -0.232592 2.28017 0
M  V30 4297 C 412.875 -0.874021 1.34972 0
M  V30 4298 O 414.065 -0.735132 1.57929 0
M  V30 4299 C 411.197 -1.33586 3.13636 0
M  V30 4300 H 412.39 0.464008 2.96289 0
M  V30 4301 H 409.943 0.278816 1.53793 0
M  V30 4302 H 410.678 -2.06593 2.4998 0
M  V30 4303 H 410.463 -0.881125 3.82071 0
M  V30 4304 H 411.953 -1.86759 3.73511 0
M  V30 4305 N 412.39 -1.55475 0.257931 0
M  V30 4306 C 413.62 -2.03314 -0.367026 0
M  V30 4307 C 414.028 -1.13625 -1.51281 0
M  V30 4308 O 413.371 -0.145334 -1.83124 0
M  V30 4309 C 413.433 -3.47362 -0.926284 0
M  V30 4310 C 413.097 -4.56914 0.0886584 0
M  V30 4311 C 414.094 -5.12013 0.902123 0
M  V30 4312 C 411.779 -5.01827 0.217936 0
M  V30 4313 C 413.773 -6.10529 1.83122 0
M  V30 4314 C 411.46 -6.00172 1.15052 0
M  V30 4315 C 412.458 -6.54402 1.95568 0
M  V30 4316 O 412.146 -7.50827 2.87253 0
M  V30 4317 H 411.878 -0.669976 -0.0900443 0
M  V30 4318 H 414.432 -2.01804 0.382673 0
M  V30 4319 H 412.662 -3.46056 -1.72575 0
M  V30 4320 H 414.351 -3.78637 -1.46249 0
M  V30 4321 H 415.117 -4.78139 0.812891 0
M  V30 4322 H 410.996 -4.59272 -0.398721 0
M  V30 4323 H 414.54 -6.52783 2.46008 0
M  V30 4324 H 410.437 -6.33465 1.24064 0
M  V30 4325 H 411.205 -7.68483 2.81739 0
M  V30 4326 N 413.868 0.0150385 -1.57593 0
M  V30 4327 C 414.816 1.02958 -2.08572 0
M  V30 4328 C 415.81 1.36554 -1.00246 0
M  V30 4329 O 417.016 1.35295 -1.18724 0
M  V30 4330 H 413.391 0.349619 -0.665786 0
M  V30 4331 H 415.362 0.573932 -2.92829 0
M  V30 4332 C 414.111 2.31752 -2.59203 0
M  V30 4333 H 413.434 2.06765 -3.42182 0
M  V30 4334 H 414.874 3.01053 -2.98568 0
M  V30 4335 C 413.333 3.01692 -1.49945 0
M  V30 4336 O 413.863 3.92083 -0.873704 0
M  V30 4337 N 412.069 2.6326 -1.23056 0
M  V30 4338 H 411.616 1.89838 -1.74125 0
M  V30 4339 H 411.574 3.10372 -0.501685 0
M  V30 4340 N 415.346 1.54954 0.287554 0
M  V30 4341 C 416.276 1.89839 1.35954 0
M  V30 4342 C 417.257 0.758675 1.52244 0
M  V30 4343 O 418.442 1.01557 1.65529 0
M  V30 4344 C 415.572 2.15753 2.72154 0
M  V30 4345 C 414.526 3.3159 2.70614 0
M  V30 4346 C 413.852 3.42952 4.10229 0
M  V30 4347 C 415.152 4.68359 2.31165 0
M  V30 4348 H 416.846 2.79625 1.07007 0
M  V30 4349 H 414.392 1.3454 0.513316 0
M  V30 4350 H 416.345 2.38743 3.47246 0
M  V30 4351 H 415.069 1.22752 3.02654 0
M  V30 4352 H 413.728 3.08545 1.97979 0
M  V30 4353 H 413.376 2.47443 4.37928 0
M  V30 4354 H 413.076 4.20826 4.10097 0
M  V30 4355 H 414.6 3.68218 4.87081 0
M  V30 4356 H 416.014 4.9099 2.95976 0
M  V30 4357 H 414.411 5.49044 2.42221 0
M  V30 4358 H 415.481 4.68165 1.26291 0
M  V30 4359 N 416.824 -0.551391 1.4764 0
M  V30 4360 C 418.072 -1.30572 1.54258 0
M  V30 4361 C 418.393 -1.93877 0.208963 0
M  V30 4362 O 417.663 -1.80234 -0.767619 0
M  V30 4363 H 416.243 -0.484894 0.568231 0
M  V30 4364 H 418.905 -0.643402 1.83974 0
M  V30 4365 H 418.001 -2.09621 2.31226 0
M  V30 4366 N 418.302 -1.35869 -0.798587 0
M  V30 4367 C 419.548 -1.2978 -1.55836 0
M  V30 4368 C 419.881 0.125322 -1.93795 0
M  V30 4369 O 419.156 1.07658 -1.61987 0
M  V30 4370 C 419.439 -2.21188 -2.84162 0
M  V30 4371 C 419.292 -3.72155 -2.52628 0
M  V30 4372 C 420.611 -2.11545 -3.85923 0
M  V30 4373 H 417.73 -0.472769 -0.565383 0
M  V30 4374 H 420.372 -1.66341 -0.918192 0
M  V30 4375 H 418.522 -1.90139 -3.38791 0
M  V30 4376 H 420.194 -4.13682 -2.04121 0
M  V30 4377 H 418.437 -3.92042 -1.85704 0
M  V30 4378 H 419.108 -4.31511 -3.44242 0
M  V30 4379 H 421.584 -2.38855 -3.40716 0
M  V30 4380 H 420.46 -2.77688 -4.73477 0
M  V30 4381 H 420.721 -1.09987 -4.282 0
M  V30 4382 N 419.78 1.02168 -1.19998 0
M  V30 4383 C 421.196 1.27969 -0.953737 0
M  V30 4384 C 421.396 1.98079 0.369703 0
M  V30 4385 O 420.452 2.27306 1.09947 0
M  V30 4386 C 421.765 2.11971 -2.13281 0
M  V30 4387 C 423.313 2.25255 -2.17323 0
M  V30 4388 C 423.788 3.12632 -3.34702 0
M  V30 4389 N 425.279 3.2022 -3.34684 0
M  V30 4390 C 426.014 3.88039 -4.22153 0
M  V30 4391 N 425.51 4.58027 -5.19791 0
M  V30 4392 N 427.303 3.84511 -4.10009 0
M  V30 4393 H 419.454 0.550794 -2.05134 0
M  V30 4394 H 421.717 0.305683 -0.897364 0
M  V30 4395 H 421.423 1.67785 -3.09097 0
M  V30 4396 H 421.297 3.12699 -2.10949 0
M  V30 4397 H 423.684 2.68667 -1.22073 0
M  V30 4398 H 423.765 1.24053 -2.23706 0
M  V30 4399 H 423.409 2.69926 -4.30235 0
M  V30 4400 H 423.339 4.13909 -3.25556 0
M  V30 4401 H 425.83 2.70382 -2.64012 0
M  V30 4402 H 426.143 5.07429 -5.82868 0
M  V30 4403 H 424.488 4.56869 -5.23733 0
M  V30 4404 H 427.679 3.28978 -3.33003 0
M  V30 4405 H 427.852 4.3709 -4.78389 0
M  V30 4406 N 421.258 1.00505 1.21394 0
M  V30 4407 C 422.488 0.705584 1.94178 0
M  V30 4408 C 422.896 -0.735846 1.74304 0
M  V30 4409 O 422.239 -1.50954 1.04683 0
M  V30 4410 C 422.301 0.94689 3.46806 0
M  V30 4411 C 421.965 2.37517 3.90429 0
M  V30 4412 C 422.962 3.35539 3.97127 0
M  V30 4413 C 420.647 2.71284 4.22742 0
M  V30 4414 C 422.641 4.65395 4.3553 0
M  V30 4415 C 420.328 4.01356 4.60822 0
M  V30 4416 C 421.326 4.98223 4.67186 0
M  V30 4417 O 421.014 6.25969 5.04399 0
M  V30 4418 H 420.746 0.259216 0.624326 0
M  V30 4419 H 423.3 1.34592 1.55159 0
M  V30 4420 H 421.53 0.249386 3.85895 0
M  V30 4421 H 423.219 0.640804 4.0081 0
M  V30 4422 H 423.985 3.10786 3.7234 0
M  V30 4423 H 419.864 1.96581 4.16985 0
M  V30 4424 H 423.408 5.41002 4.40412 0
M  V30 4425 H 419.305 4.25893 4.85063 0
M  V30 4426 H 420.073 6.30085 5.22431 0
M  V30 4427 N 422.737 -1.36956 0.779787 0
M  V30 4428 C 423.986 -1.98738 0.344405 0
M  V30 4429 C 424.299 -1.62596 -1.08728 0
M  V30 4430 O 425.505 -2.1754 -1.62445 0
M  V30 4431 C 423.961 -3.5544 0.564829 0
M  V30 4432 C 423.569 -4.00514 2.0073 0
M  V30 4433 C 425.313 -4.24059 0.193471 0
M  V30 4434 C 423.22 -5.49957 2.17489 0
M  V30 4435 H 422.15 -0.743561 0.12503 0
M  V30 4436 H 424.801 -1.56381 0.960057 0
M  V30 4437 H 423.183 -3.95817 -0.120397 0
M  V30 4438 H 424.357 -3.71362 2.72814 0
M  V30 4439 H 422.672 -3.44703 2.336 0
M  V30 4440 H 425.269 -5.33874 0.297097 0
M  V30 4441 H 425.612 -4.07378 -0.857263 0
M  V30 4442 H 426.145 -3.89012 0.831556 0
M  V30 4443 H 422.884 -5.71574 3.2091 0
M  V30 4444 H 422.404 -5.80767 1.49899 0
M  V30 4445 H 424.083 -6.16043 1.97738 0
M  V30 4446 N 424.215 -0.530993 -1.48385 0
M  V30 4447 C 425.463 0.00273189 -2.021 0
M  V30 4448 C 425.784 1.34672 -1.41027 0
M  V30 4449 O 425.054 1.8724 -0.576012 0
M  V30 4450 H 423.634 0.00399774 -0.746989 0
M  V30 4451 H 426.296 -0.695054 -1.82085 0
M  V30 4452 H 425.392 0.11031 -3.11905 0
M  V30 4453 N 425.693 1.55336 -0.266172 0
M  V30 4454 C 426.941 1.99003 0.35246 0
M  V30 4455 C 427.262 1.15591 1.57047 0
M  V30 4456 O 426.532 0.243268 1.94384 0
M  V30 4457 H 425.112 0.735025 0.133217 0
M  V30 4458 H 427.774 1.91367 -0.369434 0
M  V30 4459 H 426.87 3.05289 0.648453 0
M  V30 4460 N 427.171 -0.0066808 1.57599 0
M  V30 4461 C 428.411 -0.697501 1.92131 0
M  V30 4462 C 428.775 -1.71306 0.867071 0
M  V30 4463 O 429.976 -2.45377 1.09743 0
M  V30 4464 C 428.247 -1.32978 3.3174 0
M  V30 4465 S 429.806 -2.04665 3.88146 0
M  V30 4466 H 426.624 -0.230555 0.672581 0
M  V30 4467 H 429.226 0.0484026 1.9544 0
M  V30 4468 H 427.93 -0.57772 4.06313 0
M  V30 4469 H 427.461 -2.11376 3.31789 0
M  V30 4470 H 429.476 -3.32097 3.68682 0
M  V30 4471 N 428.649 -1.55105 -0.279332 0
M  V30 4472 C 429.889 -1.7716 -1.01949 0
M  V30 4473 C 430.253 -0.557511 -1.83728 0
M  V30 4474 O 431.454 -0.656198 -2.60667 0
M  V30 4475 C 429.725 -3.0372 -1.88385 0
M  V30 4476 S 431.284 -3.46868 -2.68752 0
M  V30 4477 H 428.102 -0.62253 -0.343478 0
M  V30 4478 H 430.704 -1.93329 -0.290572 0
M  V30 4479 H 429.408 -3.90184 -1.2722 0
M  V30 4480 H 428.939 -2.902 -2.65608 0
M  V30 4481 H 430.954 -3.05643 -3.90892 0
M  V30 4482 N 430.127 0.543554 -1.4793 0
M  V30 4483 C 431.375 1.29752 -1.54948 0
M  V30 4484 C 431.696 1.93764 -0.219242 0
M  V30 4485 O 430.966 1.80639 0.75805 0
M  V30 4486 H 429.546 0.481874 -0.570795 0
M  V30 4487 H 432.208 0.633636 -1.84312 0
M  V30 4488 H 431.304 2.08392 -2.32334 0
M  V30 4489 N 431.605 1.3629 0.791371 0
M  V30 4490 C 432.852 1.30412 1.54916 0
M  V30 4491 C 433.18 -0.117162 1.94147 0
M  V30 4492 O 432.435 -1.08599 1.62803 0
M  V30 4493 C 432.734 2.17068 2.8393 0
M  V30 4494 C 432.4 3.65645 2.63846 0
M  V30 4495 C 431.062 4.0614 2.58077 0
M  V30 4496 C 433.414 4.59855 2.45322 0
M  V30 4497 C 430.742 5.3899 2.31748 0
M  V30 4498 C 433.094 5.9292 2.2052 0
M  V30 4499 C 431.758 6.32542 2.13183 0
M  V30 4500 H 431.028 0.47721 0.566879 0
M  V30 4501 H 433.675 1.68325 0.913172 0
M  V30 4502 H 431.98 1.72085 3.51986 0
M  V30 4503 H 433.677 2.09846 3.4171 0
M  V30 4504 H 430.267 3.33518 2.69191 0
M  V30 4505 H 434.451 4.29443 2.48782 0
M  V30 4506 H 429.707 5.68672 2.24548 0
M  V30 4507 H 433.881 6.65487 2.05182 0
M  V30 4508 H 431.508 7.35412 1.92544 0
M  V30 4509 N 433.083 -1.0153 1.20538 0
M  V30 4510 C 433.993 -2.13557 0.971113 0
M  V30 4511 C 435.009 -1.73845 -0.0734366 0
M  V30 4512 O 436.185 -2.01075 0.114299 0
M  V30 4513 C 433.25 -3.42661 0.527639 0
M  V30 4514 C 432.311 -3.96608 1.64319 0
M  V30 4515 C 431.544 -5.1955 1.22078 0
M  V30 4516 O 431.767 -5.70329 0.0900198 0
M  V30 4517 O 430.701 -5.66681 2.02871 0
M  V30 4518 H 434.527 -2.3619 1.90913 0
M  V30 4519 H 432.112 -1.11946 0.989362 0
M  V30 4520 H 433.994 -4.20404 0.289621 0
M  V30 4521 H 432.669 -3.21441 -0.381779 0
M  V30 4522 H 431.576 -3.20139 1.93551 0
M  V30 4523 H 432.909 -4.22219 2.52966 0
M  V30 4524 N 434.561 -1.01147 -1.20859 0
M  V30 4525 C 435.972 -0.730205 -1.71828 0
M  V30 4526 C 436.323 0.751662 -1.8123 0
M  V30 4527 O 435.448 1.58686 -1.47132 0
M  V30 4528 C 436.043 -1.31885 -3.12077 0
M  V30 4529 C 434.602 -1.08656 -3.60376 0
M  V30 4530 C 433.749 -1.42769 -2.37723 0
M  V30 4531 H 436.7 -1.18158 -1.05945 0
M  V30 4532 H 436.721 -0.706793 -3.73878 0
M  V30 4533 H 436.233 -2.39737 -3.05201 0
M  V30 4534 H 434.334 -0.0254814 -3.72591 0
M  V30 4535 H 434.447 -1.76301 -4.45483 0
M  V30 4536 H 432.811 -0.846603 -2.40218 0
M  V30 4537 H 433.594 -2.51666 -2.33493 0
M  V30 4538 N 436.039 1.36541 -0.78704 0
M  V30 4539 C 437.269 2.03266 -0.369662 0
M  V30 4540 C 437.677 1.59481 1.01796 0
M  V30 4541 O 437.02 0.778612 1.66383 0
M  V30 4542 C 437.082 3.57779 -0.351371 0
M  V30 4543 C 436.746 4.24756 -1.68617 0
M  V30 4544 C 437.743 4.47811 -2.64124 0
M  V30 4545 C 435.428 4.62277 -1.96481 0
M  V30 4546 C 437.422 5.07464 -3.85693 0
M  V30 4547 C 435.109 5.21649 -3.18317 0
M  V30 4548 C 436.107 5.44182 -4.12741 0
M  V30 4549 O 435.795 6.02307 -5.32429 0
M  V30 4550 H 435.527 0.658977 -0.150751 0
M  V30 4551 H 438.081 1.75548 -1.0664 0
M  V30 4552 H 436.311 3.84606 0.401847 0
M  V30 4553 H 438 4.05879 0.0410147 0
M  V30 4554 H 438.766 4.19221 -2.43883 0
M  V30 4555 H 434.645 4.44065 -1.23805 0
M  V30 4556 H 438.189 5.24968 -4.59407 0
M  V30 4557 H 434.086 5.49664 -3.38437 0
M  V30 4558 H 434.854 6.20775 -5.33461 0
M  V30 4559 N 437.518 0.538854 1.48102 0
M  V30 4560 C 438.468 -0.23907 2.26743 0
M  V30 4561 C 439.452 -0.901923 1.33245 0
M  V30 4562 O 440.644 -0.803263 1.57723 0
M  V30 4563 C 437.773 -1.2799 3.18549 0
M  V30 4564 C 436.859 -0.621388 4.19523 0
M  V30 4565 N 437.25 0.298004 5.04921 0
M  V30 4566 C 435.548 -0.877533 4.37282 0
M  V30 4567 C 436.249 0.678757 5.77726 0
M  V30 4568 N 435.225 0.0377881 5.43587 0
M  V30 4569 H 439.027 0.468096 2.90148 0
M  V30 4570 H 436.541 0.357497 1.58416 0
M  V30 4571 H 438.538 -1.851 3.73555 0
M  V30 4572 H 437.198 -1.98835 2.567 0
M  V30 4573 H 438.209 0.671126 5.13533 0
M  V30 4574 H 434.886 -1.57588 3.86616 0
M  V30 4575 H 436.276 1.43316 6.56437 0
M  V30 4576 N 438.996 -1.55193 0.274407 0
M  V30 4577 C 440.245 -1.98758 -0.343213 0
M  V30 4578 C 440.558 -1.16624 -1.5703 0
M  V30 4579 O 441.764 -1.5033 -2.26082 0
M  V30 4580 C 440.22 -3.53759 -0.661996 0
M  V30 4581 C 439.828 -4.4467 0.54524 0
M  V30 4582 C 441.572 -4.05916 -1.24228 0
M  V30 4583 C 439.479 -5.91058 0.201084 0
M  V30 4584 H 438.409 -0.742353 -0.132014 0
M  V30 4585 H 441.06 -1.79545 0.378948 0
M  V30 4586 H 439.442 -3.68772 -1.44304 0
M  V30 4587 H 440.616 -4.41426 1.32212 0
M  V30 4588 H 438.931 -4.03143 1.04232 0
M  V30 4589 H 441.528 -5.12831 -1.51357 0
M  V30 4590 H 441.871 -3.54908 -2.17592 0
M  V30 4591 H 442.404 -3.9434 -0.523542 0
M  V30 4592 H 439.143 -6.46161 1.10258 0
M  V30 4593 H 438.663 -5.97373 -0.539045 0
M  V30 4594 H 440.342 -6.46669 -0.206954 0
M  V30 4595 N 440.474 -0.00167713 -1.576 0
M  V30 4596 C 441.89 0.354422 -1.55615 0
M  V30 4597 C 442.09 1.74679 -1.00447 0
M  V30 4598 O 441.146 2.4428 -0.639022 0
M  V30 4599 C 442.459 0.22812 -2.99833 0
M  V30 4600 C 444.007 0.302934 -3.11531 0
M  V30 4601 C 444.482 0.205737 -4.57538 0
M  V30 4602 N 445.973 0.263584 -4.62449 0
M  V30 4603 C 446.708 0.211742 -5.73009 0
M  V30 4604 N 446.204 0.110399 -6.92712 0
M  V30 4605 N 447.997 0.263729 -5.61481 0
M  V30 4606 H 440.148 -0.912498 -1.918 0
M  V30 4607 H 442.411 -0.349928 -0.881053 0
M  V30 4608 H 442.117 -0.729934 -3.44042 0
M  V30 4609 H 441.991 1.00951 -3.6344 0
M  V30 4610 H 444.378 1.25143 -2.67251 0
M  V30 4611 H 444.459 -0.508357 -2.50698 0
M  V30 4612 H 444.103 -0.739225 -5.02492 0
M  V30 4613 H 444.033 1.03554 -5.16318 0
M  V30 4614 H 446.524 0.343173 -3.76339 0
M  V30 4615 H 446.837 0.0767828 -7.72762 0
M  V30 4616 H 445.182 0.0760025 -6.94958 0
M  V30 4617 H 448.373 0.34111 -4.66855 0
M  V30 4618 H 448.546 0.219862 -6.47627 0
M  V30 4619 N 441.952 1.55251 0.271103 0
M  V30 4620 C 442.915 1.87484 1.31842 0
M  V30 4621 C 443.915 0.749545 1.42262 0
M  V30 4622 O 445.105 1.01771 1.4138 0
M  V30 4623 C 442.237 2.0818 2.69951 0
M  V30 4624 H 443.43 2.81108 1.0449 0
M  V30 4625 H 440.983 1.47771 0.509258 0
M  V30 4626 H 441.718 1.16944 3.02481 0
M  V30 4627 H 441.503 2.90114 2.63774 0
M  V30 4628 H 442.993 2.34385 3.4562 0
M  V30 4629 N 443.43 -0.535701 1.48216 0
M  V30 4630 C 444.679 -1.28828 1.55197 0
M  V30 4631 C 444.992 -1.94263 0.228278 0
M  V30 4632 O 446.198 -2.70927 0.176278 0
M  V30 4633 C 444.654 -2.33727 2.73678 0
M  V30 4634 C 444.262 -1.74386 4.12666 0
M  V30 4635 C 446.006 -3.1003 2.89968 0
M  V30 4636 C 443.913 -2.77192 5.22416 0
M  V30 4637 H 442.843 -0.484484 0.577747 0
M  V30 4638 H 445.494 -0.56646 1.74538 0
M  V30 4639 H 443.876 -3.08919 2.4776 0
M  V30 4640 H 445.05 -1.05421 4.48579 0
M  V30 4641 H 443.365 -1.10595 4.01445 0
M  V30 4642 H 445.962 -3.86842 3.6913 0
M  V30 4643 H 446.305 -3.65542 1.9921 0
M  V30 4644 H 446.838 -2.41952 3.15759 0
M  V30 4645 H 443.577 -2.26507 6.15122 0
M  V30 4646 H 443.097 -3.44502 4.90998 0
M  V30 4647 H 444.776 -3.40285 5.50286 0
M  V30 4648 N 444.908 -1.36708 -0.784132 0
M  V30 4649 C 445.871 -1.31307 -1.87859 0
M  V30 4650 C 446.871 -0.219654 -1.59293 0
M  V30 4651 O 448.061 -0.47476 -1.67606 0
M  V30 4652 C 445.193 -1.03679 -3.24751 0
M  V30 4653 H 446.386 -2.28647 -1.94064 0
M  V30 4654 H 443.939 -1.21558 -0.98252 0
M  V30 4655 H 444.674 -0.0681936 -3.24228 0
M  V30 4656 H 444.459 -1.82811 -3.46876 0
M  V30 4657 H 445.949 -1.02518 -4.04821 0
M  V30 4658 N 446.386 1.0089 -1.21074 0
M  V30 4659 C 447.296 2.13039 -0.982425 0
M  V30 4660 C 448.312 1.73881 0.0642161 0
M  V30 4661 O 449.488 2.01012 -0.12496 0
M  V30 4662 C 446.553 3.42377 -0.545803 0
M  V30 4663 C 445.614 3.95731 -1.6642 0
M  V30 4664 C 444.847 5.18896 -1.24832 0
M  V30 4665 O 445.07 5.70273 -0.120265 0
M  V30 4666 O 444.004 5.65597 -2.05873 0
M  V30 4667 H 447.83 2.35175 -1.92163 0
M  V30 4668 H 445.415 1.1142 -0.995285 0
M  V30 4669 H 447.297 4.20244 -0.311912 0
M  V30 4670 H 445.972 3.21639 0.364727 0
M  V30 4671 H 444.879 3.19108 -1.95246 0
M  V30 4672 H 446.212 4.20872 -2.55201 0
M  V30 4673 N 447.864 1.01787 1.20321 0
M  V30 4674 C 448.774 0.598898 2.26827 0
M  V30 4675 C 449.79 -0.36418 1.70146 0
M  V30 4676 O 450.966 -0.224812 2.00141 0
M  V30 4677 C 448.031 -0.0549769 3.46656 0
M  V30 4678 C 447.092 0.954205 4.18561 0
M  V30 4679 C 446.325 0.331439 5.3267 0
M  V30 4680 O 446.548 -0.86851 5.63749 0
M  V30 4681 O 445.482 1.0488 5.92692 0
M  V30 4682 H 449.308 1.48562 2.64883 0
M  V30 4683 H 446.893 0.787434 1.26964 0
M  V30 4684 H 448.775 -0.420102 4.19301 0
M  V30 4685 H 447.45 -0.915876 3.10473 0
M  V30 4686 H 446.357 1.37072 3.48083 0
M  V30 4687 H 447.69 1.78511 4.58688 0
M  V30 4688 N 449.342 -1.36122 0.79427 0
M  V30 4689 C 450.272 -2.32551 0.210328 0
M  V30 4690 C 451.253 -1.56884 -0.657386 0
M  V30 4691 O 452.438 -1.85014 -0.590207 0
M  V30 4692 C 449.568 -3.41128 -0.651819 0
M  V30 4693 C 448.522 -4.27842 0.116395 0
M  V30 4694 C 447.848 -5.2763 -0.86666 0
M  V30 4695 C 449.148 -5.05647 1.30837 0
M  V30 4696 H 450.842 -2.81636 1.01594 0
M  V30 4697 H 448.388 -1.35407 0.489981 0
M  V30 4698 H 450.341 -4.07581 -1.07031 0
M  V30 4699 H 449.065 -2.90622 -1.49019 0
M  V30 4700 H 447.724 -3.62952 0.515915 0
M  V30 4701 H 447.372 -4.73395 -1.70019 0
M  V30 4702 H 447.072 -5.86514 -0.35705 0
M  V30 4703 H 448.596 -5.96955 -1.28361 0
M  V30 4704 H 450.01 -5.65113 0.965393 0
M  V30 4705 H 448.407 -5.73967 1.75161 0
M  V30 4706 H 449.477 -4.37006 2.10128 0
M  V30 4707 N 450.82 -0.546701 -1.47814 0
M  V30 4708 C 451.783 0.196287 -2.28358 0
M  V30 4709 C 452.783 0.852437 -1.36346 0
M  V30 4710 O 453.973 0.709913 -1.59078 0
M  V30 4711 C 451.105 1.28579 -3.15722 0
M  V30 4712 H 452.298 -0.511086 -2.95513 0
M  V30 4713 H 449.851 -0.303248 -1.5333 0
M  V30 4714 H 450.586 2.0259 -2.53235 0
M  V30 4715 H 450.371 0.820229 -3.83425 0
M  V30 4716 H 451.861 1.80793 -3.76435 0
M  V30 4717 N 452.299 1.55045 -0.282633 0
M  V30 4718 C 453.71 1.85473 0.213655 0
M  V30 4719 C 454.061 1.20465 1.54863 0
M  V30 4720 O 453.186 0.495676 2.10647 0
M  V30 4721 C 453.781 3.36496 0.394445 0
M  V30 4722 C 452.34 3.67022 0.834961 0
M  V30 4723 C 451.487 2.77218 -0.0674081 0
M  V30 4724 H 454.438 1.50478 -0.504202 0
M  V30 4725 H 454.459 3.60007 1.23186 0
M  V30 4726 H 453.971 3.83782 -0.577326 0
M  V30 4727 H 452.072 3.25241 1.81794 0
M  V30 4728 H 452.185 4.74433 0.667075 0
M  V30 4729 H 450.549 2.5069 0.450196 0
M  V30 4730 H 451.332 3.2732 -1.0352 0
M  V30 4731 N 453.777 0.010035 1.57597 0
M  V30 4732 C 454.687 -0.994226 2.12491 0
M  V30 4733 C 455.703 -1.37013 1.07254 0
M  V30 4734 O 456.879 -1.45542 1.3921 0
M  V30 4735 C 453.944 -2.2642 2.62555 0
M  V30 4736 C 453.005 -1.95049 3.82432 0
M  V30 4737 C 452.238 -3.15991 4.30099 0
M  V30 4738 O 452.461 -4.28015 3.7704 0
M  V30 4739 O 451.395 -2.99403 5.22151 0
M  V30 4740 H 455.221 -0.557549 2.98538 0
M  V30 4741 H 452.806 -0.209413 1.47925 0
M  V30 4742 H 454.688 -3.01009 2.9491 0
M  V30 4743 H 453.363 -2.69306 1.796 0
M  V30 4744 H 452.27 -1.17904 3.55034 0
M  V30 4745 H 453.603 -1.56992 4.66491 0
M  V30 4746 N 455.255 -1.55392 -0.262866 0
M  V30 4747 C 456.671 -1.47459 -0.610582 0
M  V30 4748 C 456.871 -0.697031 -1.8906 0
M  V30 4749 O 455.927 -0.219952 -2.5154 0
M  V30 4750 C 457.24 -2.91751 -0.728131 0
M  V30 4751 C 458.788 -3.02027 -0.821517 0
M  V30 4752 C 459.263 -4.47594 -0.97076 0
M  V30 4753 N 460.754 -4.51465 -1.03603 0
M  V30 4754 C 461.489 -5.61326 -1.17049 0
M  V30 4755 N 460.985 -6.81032 -1.2715 0
M  V30 4756 N 462.778 -5.49089 -1.20239 0
M  V30 4757 H 454.929 -2.04395 0.577632 0
M  V30 4758 H 457.192 -0.927287 0.197086 0
M  V30 4759 H 456.898 -3.51413 0.142132 0
M  V30 4760 H 456.772 -3.4134 -1.6052 0
M  V30 4761 H 459.159 -2.42456 -1.68224 0
M  V30 4762 H 459.24 -2.55674 0.0803688 0
M  V30 4763 H 458.884 -5.07771 -0.114655 0
M  V30 4764 H 458.814 -4.91613 -1.88745 0
M  V30 4765 H 461.305 -3.6524 -0.96996 0
M  V30 4766 H 461.618 -7.60511 -1.37271 0
M  V30 4767 H 459.963 -6.83824 -1.24136 0
M  V30 4768 H 463.154 -4.54507 -1.11985 0
M  V30 4769 H 463.327 -6.34749 -1.30373 0
M  V30 4770 N 456.733 0.527833 -1.48498 0
M  V30 4771 C 457.981 1.28101 -1.56316 0
M  V30 4772 C 458.302 1.9352 -0.239781 0
M  V30 4773 O 457.572 1.81433 0.738849 0
M  V30 4774 H 456.152 0.475793 -0.575873 0
M  V30 4775 H 458.814 0.614052 -1.84974 0
M  V30 4776 H 457.91 2.05916 -2.34532 0
M  V30 4777 N 458.211 1.37122 0.776871 0
M  V30 4778 C 459.458 1.32047 1.53524 0
M  V30 4779 C 459.786 -0.0965631 1.9426 0
M  V30 4780 O 459.041 -1.06866 1.63945 0
M  V30 4781 C 459.34 2.20068 2.81611 0
M  V30 4782 C 459.006 3.68423 2.59953 0
M  V30 4783 C 457.668 4.08854 2.53755 0
M  V30 4784 C 460.02 4.62431 2.40431 0
M  V30 4785 C 457.348 5.41417 2.26018 0
M  V30 4786 C 459.7 5.95225 2.14219 0
M  V30 4787 C 458.364 6.34767 2.06462 0
M  V30 4788 H 457.634 0.483196 0.561785 0
M  V30 4789 H 460.281 1.69284 0.895268 0
M  V30 4790 H 458.586 1.75809 3.50141 0
M  V30 4791 H 460.283 2.13458 3.39465 0
M  V30 4792 H 456.873 3.36354 2.65638 0
M  V30 4793 H 461.057 4.32057 2.44213 0
M  V30 4794 H 456.313 5.71022 2.18504 0
M  V30 4795 H 460.487 6.67626 1.98112 0
M  V30 4796 H 458.114 7.37413 1.84733 0
M  V30 4797 N 459.689 -1.00246 1.21608 0
M  V30 4798 C 460.619 -2.10921 1.00172 0
M  V30 4799 C 461.6 -1.69938 -0.0741587 0
M  V30 4800 O 462.785 -1.94009 0.0861753 0
M  V30 4801 C 459.915 -3.42618 0.568355 0
M  V30 4802 C 458.869 -3.97407 1.58909 0
M  V30 4803 C 458.195 -5.25038 1.01187 0
M  V30 4804 C 459.495 -4.2918 2.97661 0
M  V30 4805 H 461.189 -2.29112 1.92739 0
M  V30 4806 H 458.735 -1.10101 0.928102 0
M  V30 4807 H 460.688 -4.19444 0.405555 0
M  V30 4808 H 459.412 -3.24227 -0.392961 0
M  V30 4809 H 458.071 -3.22703 1.73949 0
M  V30 4810 H 457.719 -5.02982 0.0421965 0
M  V30 4811 H 457.419 -5.62661 1.6937 0
M  V30 4812 H 458.943 -6.04507 0.860448 0
M  V30 4813 H 460.357 -4.96839 2.86049 0
M  V30 4814 H 458.754 -4.77952 3.6288 0
M  V30 4815 H 459.824 -3.3735 3.48315 0
M  V30 4816 N 461.167 -1.02423 -1.1978 0
M  V30 4817 C 462.578 -0.748389 -1.71044 0
M  V30 4818 C 462.929 0.732398 -1.82017 0
M  V30 4819 O 462.054 1.57116 -1.48807 0
M  V30 4820 C 462.649 -1.35187 -3.1066 0
M  V30 4821 C 461.208 -1.12472 -3.59203 0
M  V30 4822 C 460.355 -1.45283 -2.36195 0
M  V30 4823 H 463.306 -1.19275 -1.04686 0
M  V30 4824 H 463.327 -0.746408 -3.73107 0
M  V30 4825 H 462.839 -2.4296 -3.02642 0
M  V30 4826 H 460.94 -0.0649983 -3.72543 0
M  V30 4827 H 461.053 -1.81016 -4.43588 0
M  V30 4828 H 459.417 -0.872034 -2.39307 0
M  V30 4829 H 460.2 -2.54129 -2.30811 0
M  V30 4830 N 462.645 1.35699 -0.801477 0
M  V30 4831 C 464.056 1.81415 -0.441073 0
M  V30 4832 C 464.407 1.66595 1.03636 0
M  V30 4833 O 463.532 1.19369 1.80499 0
M  V30 4834 C 464.127 3.29369 -0.793819 0
M  V30 4835 C 462.686 3.73248 -0.486083 0
M  V30 4836 C 461.833 2.57775 -1.02213 0
M  V30 4837 H 464.784 1.23749 -0.993572 0
M  V30 4838 H 464.805 3.80395 -0.0894158 0
M  V30 4839 H 464.317 3.40123 -1.86917 0
M  V30 4840 H 462.418 3.68046 0.580735 0
M  V30 4841 H 462.531 4.68222 -1.01513 0
M  V30 4842 H 460.895 2.50788 -0.444712 0
M  V30 4843 H 461.678 2.71309 -2.10348 0
M  V30 4844 N 464.123 0.554532 1.47522 0
M  V30 4845 C 465.086 -0.184174 2.28459 0
M  V30 4846 C 466.086 -0.845195 1.36796 0
M  V30 4847 O 467.276 -0.701467 1.59452 0
M  V30 4848 C 464.408 -1.26903 3.16399 0
M  V30 4849 H 465.601 0.526751 2.95238 0
M  V30 4850 H 463.154 0.311375 1.53167 0
M  V30 4851 H 463.889 -2.01244 2.54306 0
M  V30 4852 H 463.674 -0.799883 3.83854 0
M  V30 4853 H 465.164 -1.78794 3.77389 0
M  V30 4854 N 465.601 -1.54893 0.290851 0
M  V30 4855 C 466.826 -2.04804 -0.32712 0
M  V30 4856 C 467.251 -1.16721 -1.47506 0
M  V30 4857 O 466.609 -0.169107 -1.8051 0
M  V30 4858 C 466.657 -3.52268 -0.770689 0
M  V30 4859 O 465.761 -3.67236 -1.87647 0
M  V30 4860 H 465.102 -0.660789 -0.0652227 0
M  V30 4861 H 467.632 -2.00036 0.429739 0
M  V30 4862 H 467.642 -3.9393 -1.06223 0
M  V30 4863 H 466.317 -4.15843 0.069096 0
M  V30 4864 H 464.894 -3.37479 -1.58626 0
M  V30 4865 N 467.08 -0.0183926 -1.57589 0
M  V30 4866 C 467.99 0.982943 -2.13015 0
M  V30 4867 C 469.006 1.36443 -1.07979 0
M  V30 4868 O 470.182 1.44802 -1.3998 0
M  V30 4869 C 467.247 2.25024 -2.63752 0
M  V30 4870 C 466.308 1.93018 -3.83461 0
M  V30 4871 C 465.541 3.13706 -4.31769 0
M  V30 4872 O 465.764 4.2601 -3.79305 0
M  V30 4873 O 464.698 2.96629 -5.23732 0
M  V30 4874 H 468.524 0.541709 -2.9883 0
M  V30 4875 H 466.109 0.201565 -1.48034 0
M  V30 4876 H 467.991 2.99441 -2.96502 0
M  V30 4877 H 466.666 2.68349 -1.81026 0
M  V30 4878 H 465.573 1.16019 -3.55655 0
M  V30 4879 H 466.906 1.54516 -4.67317 0
M  V30 4880 N 468.558 1.5553 0.254621 0
M  V30 4881 C 469.505 1.89666 1.31512 0
M  V30 4882 C 470.475 0.750057 1.482 0
M  V30 4883 O 471.66 1.00301 1.62309 0
M  V30 4884 C 468.8 2.19009 2.667 0
M  V30 4885 C 467.913 3.46435 2.58083 0
M  V30 4886 C 467.048 3.65386 3.85573 0
M  V30 4887 C 466.087 4.8644 3.71541 0
M  V30 4888 N 465.224 5.01952 4.90906 0
M  V30 4889 H 470.064 2.80109 1.017 0
M  V30 4890 H 467.601 1.38666 0.490938 0
M  V30 4891 H 469.559 2.34025 3.45381 0
M  V30 4892 H 468.189 1.31779 2.94676 0
M  V30 4893 H 467.241 3.39792 1.71013 0
M  V30 4894 H 468.553 4.35258 2.43622 0
M  V30 4895 H 467.707 3.80319 4.72697 0
M  V30 4896 H 466.446 2.74781 4.02922 0
M  V30 4897 H 465.451 4.71491 2.82801 0
M  V30 4898 H 466.676 5.78497 3.55694 0
M  V30 4899 H 464.622 4.14283 5.08631 0
M  V30 4900 H 464.539 5.84851 4.79046 0
M  V30 4901 H 465.807 5.21289 5.7955 0
M  V30 4902 N 470.036 -0.519951 1.48776 0
M  V30 4903 C 470.986 -1.61995 1.60442 0
M  V30 4904 C 471.97 -1.54155 0.460991 0
M  V30 4905 O 473.162 -1.62006 0.712965 0
M  V30 4906 C 470.291 -3.00683 1.65664 0
M  V30 4907 C 469.377 -3.1359 2.8552 0
M  V30 4908 N 469.768 -2.96441 4.09825 0
M  V30 4909 C 468.066 -3.44662 2.83062 0
M  V30 4910 C 468.767 -3.1303 4.90293 0
M  V30 4911 N 467.743 -3.41058 4.23297 0
M  V30 4912 H 471.545 -1.47362 2.54287 0
M  V30 4913 H 469.059 -0.725649 1.45286 0
M  V30 4914 H 471.056 -3.79712 1.72117 0
M  V30 4915 H 469.716 -3.16401 0.729425 0
M  V30 4916 H 470.727 -2.72999 4.40104 0
M  V30 4917 H 467.404 -3.66675 1.9964 0
M  V30 4918 H 468.794 -3.04424 5.98979 0
M  V30 4919 N 471.514 -1.37532 -0.769588 0
M  V30 4920 C 472.762 -1.32597 -1.5252 0
M  V30 4921 C 473.083 0.0884294 -1.94799 0
M  V30 4922 O 472.353 1.03289 -1.66458 0
M  V30 4923 H 470.933 -0.487846 -0.565699 0
M  V30 4924 H 473.595 -1.72044 -0.915806 0
M  V30 4925 H 472.691 -1.96643 -2.42359 0
M  V30 4926 N 472.992 0.995999 -1.22138 0
M  V30 4927 C 474.217 1.77601 -1.0711 0
M  V30 4928 C 474.642 1.84339 0.374264 0
M  V30 4929 O 474 1.29359 1.27028 0
M  V30 4930 C 474.048 3.18897 -1.68336 0
M  V30 4931 O 473.152 4.01663 -0.934928 0
M  V30 4932 H 472.493 0.547011 -0.376397 0
M  V30 4933 H 475.023 1.25137 -1.6187 0
M  V30 4934 H 475.033 3.69539 -1.72931 0
M  V30 4935 H 473.708 3.13308 -2.73516 0
M  V30 4936 H 472.285 3.60204 -0.964751 0
M  V30 4937 N 474.47 1.03057 1.19235 0
M  V30 4938 C 475.716 0.738841 1.89506 0
M  V30 4939 C 476.071 -0.724807 1.78225 0
M  V30 4940 O 475.364 -1.52118 1.16494 0
M  V30 4941 C 475.558 1.1268 3.39172 0
M  V30 4942 C 475.387 2.62662 3.65019 0
M  V30 4943 C 474.157 3.29658 3.82954 0
M  V30 4944 C 476.355 3.60873 3.66436 0
M  V30 4945 N 474.337 4.68726 3.96446 0
M  V30 4946 C 475.708 4.85566 3.8552 0
M  V30 4947 C 477.763 3.54647 3.49471 0
M  V30 4948 C 476.466 6.04783 3.89397 0
M  V30 4949 C 478.492 4.73281 3.54625 0
M  V30 4950 C 477.854 5.96789 3.74196 0
M  V30 4951 H 473.953 0.322256 0.712513 0
M  V30 4952 H 476.537 1.31822 1.43287 0
M  V30 4953 H 474.708 0.575612 3.84111 0
M  V30 4954 H 476.44 0.787145 3.96971 0
M  V30 4955 H 473.195 2.8007 3.81913 0
M  V30 4956 H 473.619 5.40971 4.07037 0
M  V30 4957 H 478.261 2.60143 3.33295 0
M  V30 4958 H 475.979 6.99654 4.04364 0
M  V30 4959 H 479.565 4.70094 3.42787 0
M  V30 4960 H 478.445 6.87051 3.78061 0
M  V30 4961 N 475.948 -1.35272 0.808662 0
M  V30 4962 C 477.196 -1.98316 0.389233 0
M  V30 4963 C 477.517 -1.64465 -1.04767 0
M  V30 4964 O 476.787 -0.928175 -1.72516 0
M  V30 4965 H 475.367 -0.733585 0.140935 0
M  V30 4966 H 478.029 -1.6515 1.03496 0
M  V30 4967 H 477.125 -3.08123 0.496631 0
M  V30 4968 N 477.426 -0.562348 -1.47226 0
M  V30 4969 C 478.651 -0.0432632 -2.07355 0
M  V30 4970 C 479.076 1.24332 -1.41149 0
M  V30 4971 O 478.434 1.74603 -0.488226 0
M  V30 4972 C 478.482 0.130288 -3.60365 0
M  V30 4973 O 477.586 1.19166 -3.94808 0
M  V30 4974 H 476.927 -0.0536334 -0.66183 0
M  V30 4975 H 479.457 -0.779495 -1.89169 0
M  V30 4976 H 479.467 0.342881 -4.06557 0
M  V30 4977 H 478.142 -0.809389 -4.07948 0
M  V30 4978 H 476.719 0.959153 -3.60354 0
M  V30 4979 N 478.904 1.54736 -0.299062 0
M  V30 4980 C 480.152 1.99706 0.31017 0
M  V30 4981 C 480.473 1.18896 1.54559 0
M  V30 4982 O 479.743 0.284445 1.93824 0
M  V30 4983 H 478.323 0.737686 0.117596 0
M  V30 4984 H 480.985 1.9054 -0.409943 0
M  V30 4985 H 480.081 3.06596 0.58355 0
M  V30 4986 N 480.382 0.0267497 1.57577 0
M  V30 4987 C 481.312 -0.954308 2.13108 0
M  V30 4988 C 482.293 -1.34088 1.04663 0
M  V30 4989 O 483.478 -1.41992 1.32484 0
M  V30 4990 C 480.608 -2.23744 2.65624 0
M  V30 4991 C 479.562 -1.99168 3.78835 0
M  V30 4992 C 478.888 -3.33726 4.17769 0
M  V30 4993 C 480.188 -1.33277 5.0501 0
M  V30 4994 H 481.882 -0.491848 2.95332 0
M  V30 4995 H 479.428 -0.23514 1.42067 0
M  V30 4996 H 481.381 -2.92754 3.03106 0
M  V30 4997 H 480.105 -2.72151 1.80558 0
M  V30 4998 H 478.764 -1.32577 3.41788 0
M  V30 4999 H 478.412 -3.79888 3.29688 0
M  V30 5000 H 478.112 -3.18089 4.94058 0
M  V30 5001 H 479.636 -4.04008 4.57832 0
M  V30 5002 H 481.05 -1.92283 5.40093 0
M  V30 5003 H 479.447 -1.28045 5.8628 0
M  V30 5004 H 480.517 -0.305411 4.83937 0
M  V30 5005 N 481.861 -1.55662 -0.24637 0
M  V30 5006 C 483.138 -1.68272 -0.997198 0
M  V30 5007 C 483.518 -0.566785 -2.03349 0
M  V30 5008 O 482.866 0.429688 -2.24424 0
M  V30 5009 C 483.076 -3.08594 -1.63006 0
M  V30 5010 C 484.424 -3.6721 -2.13171 0
M  V30 5011 O 485.448 -3.11397 -1.72946 0
M  V30 5012 O 484.307 -4.65054 -2.87031 0
M  V30 5013 H 481.401 -0.684429 -0.464205 0
M  V30 5014 H 483.947 -1.67993 -0.240114 0
M  V30 5015 H 482.719 -3.81264 -0.880527 0
M  V30 5016 H 482.342 -3.12886 -2.45333 0
M  V30 5017 N 483.339 0.512053 -1.4905 0
M  V30 5018 C 484.272 1.63209 -1.59493 0
M  V30 5019 C 485.25 1.56407 -0.444481 0
M  V30 5020 O 486.434 1.76623 -0.658535 0
M  V30 5021 C 483.561 3.01685 -1.53961 0
M  V30 5022 C 482.607 3.26786 -2.74068 0
M  V30 5023 S 483.44 3.11107 -4.35859 0
M  V30 5024 C 484.596 4.51997 -4.32954 0
M  V30 5025 H 484.829 1.54104 -2.54243 0
M  V30 5026 H 482.362 0.696382 -1.37804 0
M  V30 5027 H 484.32 3.81538 -1.51455 0
M  V30 5028 H 482.981 3.08215 -0.605178 0
M  V30 5029 H 482.174 4.27849 -2.66386 0
M  V30 5030 H 481.776 2.54635 -2.73928 0
M  V30 5031 H 484.068 5.43871 -4.03993 0
M  V30 5032 H 485.011 4.64731 -5.34257 0
M  V30 5033 H 485.419 4.32159 -3.63178 0
M  V30 5034 N 484.817 1.37938 0.762283 0
M  V30 5035 C 485.767 1.30976 1.86626 0
M  V30 5036 C 486.751 0.195714 1.59705 0
M  V30 5037 O 487.943 0.430937 1.71674 0
M  V30 5038 C 485.072 1.12847 3.24223 0
M  V30 5039 C 484.158 2.28836 3.57064 0
M  V30 5040 N 484.549 3.54256 3.61022 0
M  V30 5041 C 482.847 2.21198 3.87282 0
M  V30 5042 C 483.548 4.30798 3.90881 0
M  V30 5043 N 482.524 3.60049 4.07266 0
M  V30 5044 H 486.326 2.25946 1.87951 0
M  V30 5045 H 483.84 1.31046 0.959206 0
M  V30 5046 H 485.837 1.05943 4.03214 0
M  V30 5047 H 484.497 0.188024 3.24155 0
M  V30 5048 H 485.508 3.8804 3.42995 0
M  V30 5049 H 482.185 1.35264 3.94981 0
M  V30 5050 H 483.575 5.39386 4.00639 0
M  V30 5051 N 486.295 -0.989507 1.22664 0
M  V30 5052 C 487.523 -1.76496 1.07967 0
M  V30 5053 C 487.938 -1.85148 -0.369543 0
M  V30 5054 O 487.295 -1.32408 -1.25596 0
M  V30 5055 C 487.346 -3.19642 1.68853 0
M  V30 5056 O 487.067 -3.11453 3.08105 0
M  V30 5057 C 488.568 -4.13621 1.59475 0
M  V30 5058 H 485.788 -0.55418 0.378319 0
M  V30 5059 H 488.332 -1.24378 1.62328 0
M  V30 5060 H 486.487 -3.68816 1.18547 0
M  V30 5061 H 486.901 -4.01499 3.37489 0
M  V30 5062 H 488.375 -5.11801 2.06795 0
M  V30 5063 H 488.852 -4.35718 0.55191 0
M  V30 5064 H 489.458 -3.70346 2.09103 0
M  V30 5065 N 487.773 -1.03688 -1.18687 0
M  V30 5066 C 488.72 -0.624624 -2.22187 0
M  V30 5067 C 489.69 0.365636 -1.62026 0
M  V30 5068 O 490.875 0.260481 -1.89014 0
M  V30 5069 C 488.015 0.0101738 -3.45099 0
M  V30 5070 C 487.128 -1.02709 -4.19613 0
M  V30 5071 C 486.263 -0.361213 -5.2997 0
M  V30 5072 C 485.302 -1.38384 -5.96252 0
M  V30 5073 N 484.439 -0.743196 -6.98155 0
M  V30 5074 H 489.279 -1.51176 -2.56807 0
M  V30 5075 H 486.816 -0.75636 -1.26165 0
M  V30 5076 H 488.774 0.395528 -4.15321 0
M  V30 5077 H 487.404 0.860848 -3.1111 0
M  V30 5078 H 486.456 -1.53043 -3.48256 0
M  V30 5079 H 487.768 -1.80398 -4.65036 0
M  V30 5080 H 486.922 0.0785537 -6.06649 0
M  V30 5081 H 485.661 0.447799 -4.8564 0
M  V30 5082 H 484.666 -1.83378 -5.18317 0
M  V30 5083 H 485.891 -2.19448 -6.42666 0
M  V30 5084 H 483.837 0.0455789 -6.55984 0
M  V30 5085 H 483.754 -1.45784 -7.41811 0
M  V30 5086 H 485.022 -0.327698 -7.78811 0
M  V30 5087 N 489.251 1.34841 -0.815825 0
M  V30 5088 C 490.662 1.80937 -0.46029 0
M  V30 5089 C 491.013 1.67685 1.01863 0
M  V30 5090 O 490.138 1.21277 1.79223 0
M  V30 5091 C 490.733 3.28509 -0.828708 0
M  V30 5092 C 489.292 3.72712 -0.525644 0
M  V30 5093 C 488.439 2.56676 -1.04941 0
M  V30 5094 H 491.39 1.22688 -1.00664 0
M  V30 5095 H 491.411 3.80279 -0.129757 0
M  V30 5096 H 490.923 3.38122 -1.90513 0
M  V30 5097 H 489.024 3.68642 0.541666 0
M  V30 5098 H 489.137 4.67119 -1.06474 0
M  V30 5099 H 487.501 2.50302 -0.471286 0
M  V30 5100 H 488.284 2.69063 -2.13214 0
M  V30 5101 N 490.729 0.570148 1.46925 0
M  V30 5102 C 491.975 0.0593124 2.03314 0
M  V30 5103 C 492.33 -1.28139 1.43521 0
M  V30 5104 O 491.623 -1.82411 0.586245 0
M  V30 5105 C 491.817 -0.0780336 3.57315 0
M  V30 5106 C 491.646 1.2478 4.32042 0
M  V30 5107 C 490.416 1.81859 4.7144 0
M  V30 5108 C 492.614 2.16808 4.66368 0
M  V30 5109 N 490.596 3.08313 5.30864 0
M  V30 5110 C 491.967 3.27845 5.2623 0
M  V30 5111 C 494.022 2.16643 4.48297 0
M  V30 5112 C 492.725 4.38832 5.69929 0
M  V30 5113 C 494.751 3.26652 4.93004 0
M  V30 5114 C 494.113 4.36408 5.52926 0
M  V30 5115 H 490.212 0.0641804 0.779362 0
M  V30 5116 H 492.796 0.760285 1.79242 0
M  V30 5117 H 490.967 -0.748151 3.81126 0
M  V30 5118 H 492.699 -0.59211 4.00345 0
M  V30 5119 H 489.454 1.35502 4.53802 0
M  V30 5120 H 489.878 3.72802 5.65108 0
M  V30 5121 H 494.52 1.33065 4.01315 0
M  V30 5122 H 492.238 5.23162 6.15896 0
M  V30 5123 H 495.824 3.27627 4.80782 0
M  V30 5124 H 494.704 5.20127 5.86888 0
M  V30 5125 N 492.207 -1.54576 0.307264 0
M  V30 5126 C 493.456 -1.99442 -0.300976 0
M  V30 5127 C 493.769 -1.19928 -1.5452 0
M  V30 5128 O 494.975 -1.55092 -2.22842 0
M  V30 5129 C 493.431 -3.55084 -0.586809 0
M  V30 5130 C 493.039 -4.43413 0.639438 0
M  V30 5131 C 494.783 -4.0846 -1.1559 0
M  V30 5132 C 492.69 -5.90499 0.326411 0
M  V30 5133 H 491.62 -0.744986 -0.116238 0
M  V30 5134 H 494.271 -1.787 0.416947 0
M  V30 5135 H 492.653 -3.71749 -1.36449 0
M  V30 5136 H 493.827 -4.38522 1.41545 0
M  V30 5137 H 492.142 -4.00842 1.1276 0
M  V30 5138 H 494.739 -5.15926 -1.40445 0
M  V30 5139 H 495.082 -3.59443 -2.10015 0
M  V30 5140 H 495.615 -3.95362 -0.439778 0
M  V30 5141 H 492.354 -6.43676 1.23939 0
M  V30 5142 H 491.874 -5.98382 -0.412212 0
M  V30 5143 H 493.553 -6.46962 -0.0697393 0
M  V30 5144 N 493.685 -0.035106 -1.57561 0
M  V30 5145 C 495.101 0.321334 -1.56332 0
M  V30 5146 C 495.301 1.72509 -1.04129 0
M  V30 5147 O 494.357 2.4287 -0.690694 0
M  V30 5148 C 495.67 0.164469 -3.0025 0
M  V30 5149 C 497.218 0.236786 -3.12103 0
M  V30 5150 C 497.693 0.10864 -4.57871 0
M  V30 5151 N 499.184 0.165433 -4.62904 0
M  V30 5152 C 499.919 0.0901506 -5.73329 0
M  V30 5153 N 499.415 -0.0365606 -6.9279 0
M  V30 5154 N 501.208 0.144572 -5.61914 0
M  V30 5155 H 493.359 -0.952976 -1.89821 0
M  V30 5156 H 495.622 -0.368537 -0.873432 0
M  V30 5157 H 495.328 -0.802746 -3.42416 0
M  V30 5158 H 495.202 0.932194 -3.655 0
M  V30 5159 H 497.589 1.19446 -2.69845 0
M  V30 5160 H 497.67 -0.561419 -2.49563 0
M  V30 5161 H 497.314 -0.845644 -5.00811 0
M  V30 5162 H 497.244 0.925786 -5.18398 0
M  V30 5163 H 499.735 0.263269 -3.76982 0
M  V30 5164 H 500.048 -0.0871487 -7.72751 0
M  V30 5165 H 498.393 -0.0714256 -6.94963 0
M  V30 5166 H 501.584 0.242006 -4.67474 0
M  V30 5167 H 501.757 0.0824413 -6.47948 0
M  V30 5168 N 495.163 1.55791 0.238111 0
M  V30 5169 C 496.126 1.90239 1.27835 0
M  V30 5170 C 497.126 0.779552 1.4064 0
M  V30 5171 O 498.316 1.04747 1.3919 0
M  V30 5172 C 495.448 2.13859 2.65475 0
M  V30 5173 H 496.641 2.83262 0.985034 0
M  V30 5174 H 494.194 1.48818 0.477799 0
M  V30 5175 H 494.929 1.23334 2.99932 0
M  V30 5176 H 494.714 2.95643 2.57561 0
M  V30 5177 H 496.204 2.41664 3.40571 0
M  V30 5178 N 496.642 -0.504142 1.49319 0
M  V30 5179 C 498.058 -0.835039 1.36012 0
M  V30 5180 C 498.258 -1.97674 0.390808 0
M  V30 5181 O 497.314 -2.51867 -0.178655 0
M  V30 5182 C 498.627 -1.17821 2.76656 0
M  V30 5183 C 500.175 -1.2866 2.85334 0
M  V30 5184 C 500.65 -1.66307 4.26739 0
M  V30 5185 N 502.141 -1.73362 4.29534 0
M  V30 5186 C 502.876 -2.0393 5.35911 0
M  V30 5187 N 502.372 -2.32744 6.52535 0
M  V30 5188 N 504.165 -2.05155 5.23324 0
M  V30 5189 H 496.316 0.248764 2.10938 0
M  V30 5190 H 498.579 0.0486962 0.946748 0
M  V30 5191 H 498.285 -0.412682 3.4927 0
M  V30 5192 H 498.159 -2.12239 3.11825 0
M  V30 5193 H 500.546 -2.04285 2.1296 0
M  V30 5194 H 500.627 -0.323004 2.53752 0
M  V30 5195 H 500.271 -0.91234 4.99639 0
M  V30 5196 H 500.201 -2.63761 4.55782 0
M  V30 5197 H 502.692 -1.53268 3.45424 0
M  V30 5198 H 503.005 -2.55248 7.2943 0
M  V30 5199 H 501.35 -2.30207 6.55767 0
M  V30 5200 H 504.541 -1.82119 4.3122 0
M  V30 5201 H 504.714 -2.28644 6.06322 0
M  V30 5202 N 498.12 -1.38341 -0.754957 0
M  V30 5203 C 499.083 -1.35262 -1.85032 0
M  V30 5204 C 500.083 -0.253393 -1.58791 0
M  V30 5205 O 501.273 -0.510205 -1.66561 0
M  V30 5206 C 498.405 -1.10544 -3.22479 0
M  V30 5207 H 499.598 -2.32712 -1.8917 0
M  V30 5208 H 497.151 -1.23614 -0.956515 0
M  V30 5209 H 497.886 -0.136952 -3.24011 0
M  V30 5210 H 497.671 -1.90127 -3.4292 0
M  V30 5211 H 499.161 -1.11082 -4.02555 0
M  V30 5212 N 499.598 0.982988 -1.23187 0
M  V30 5213 C 501.014 1.2487 -0.993967 0
M  V30 5214 C 501.214 1.99155 0.306498 0
M  V30 5215 O 500.27 2.30688 1.0266 0
M  V30 5216 C 501.583 2.05078 -2.19917 0
M  V30 5217 C 503.131 2.18227 -2.2438 0
M  V30 5218 C 503.606 3.01825 -3.44479 0
M  V30 5219 N 505.097 3.09411 -3.44702 0
M  V30 5220 C 505.832 3.74412 -4.34285 0
M  V30 5221 N 505.328 4.41259 -5.341 0
M  V30 5222 N 507.121 3.71273 -4.22035 0
M  V30 5223 H 499.272 0.485253 -2.06783 0
M  V30 5224 H 501.535 0.276979 -0.906635 0
M  V30 5225 H 501.241 1.57867 -3.14279 0
M  V30 5226 H 501.115 3.05829 -2.2079 0
M  V30 5227 H 503.502 2.64648 -1.30559 0
M  V30 5228 H 503.583 1.16873 -2.2754 0
M  V30 5229 H 503.227 2.56102 -4.38605 0
M  V30 5230 H 503.157 4.03342 -3.38559 0
M  V30 5231 H 505.648 2.61845 -2.7248 0
M  V30 5232 H 505.961 4.88629 -5.98717 0
M  V30 5233 H 504.306 4.39975 -5.38002 0
M  V30 5234 H 507.497 3.18217 -3.43301 0
M  V30 5235 H 507.67 4.21649 -4.92053 0
M  V30 5236 N 501.076 1.04316 1.18135 0
M  V30 5237 C 502.492 0.762858 1.40188 0
M  V30 5238 C 502.692 -0.646547 1.90846 0
M  V30 5239 O 501.748 -1.41036 2.0944 0
M  V30 5240 C 503.061 1.81106 2.40044 0
M  V30 5241 C 504.609 1.83226 2.53766 0
M  V30 5242 C 505.084 2.87044 3.56889 0
M  V30 5243 N 506.575 2.85951 3.64398 0
M  V30 5244 C 507.31 3.62932 4.43923 0
M  V30 5245 N 506.806 4.49672 5.27036 0
M  V30 5246 N 508.599 3.51411 4.38711 0
M  V30 5247 H 500.75 1.95264 0.835805 0
M  V30 5248 H 503.013 0.845017 0.429709 0
M  V30 5249 H 502.719 2.82214 2.09876 0
M  V30 5250 H 502.593 1.64529 3.39426 0
M  V30 5251 H 504.98 0.827869 2.8325 0
M  V30 5252 H 505.061 2.03879 1.54489 0
M  V30 5253 H 504.705 3.87663 3.28145 0
M  V30 5254 H 504.635 2.63645 4.5585 0
M  V30 5255 H 507.126 2.23051 3.05052 0
M  V30 5256 H 507.439 5.05116 5.84874 0
M  V30 5257 H 505.784 4.53738 5.26447 0
M  V30 5258 H 508.975 2.83047 3.72829 0
M  V30 5259 H 509.148 4.11654 5.00445 0
M  V30 5260 N 502.554 -1.34406 0.822964 0
M  V30 5261 C 503.464 -2.33298 0.246838 0
M  V30 5262 C 504.48 -1.62625 -0.618797 0
M  V30 5263 O 505.656 -1.94391 -0.526685 0
M  V30 5264 C 502.721 -3.41785 -0.581731 0
M  V30 5265 C 501.782 -4.28206 0.306309 0
M  V30 5266 C 501.015 -5.31512 -0.48281 0
M  V30 5267 O 501.238 -5.43973 -1.71607 0
M  V30 5268 O 500.172 -6.01749 0.134884 0
M  V30 5269 H 503.998 -2.84401 1.06534 0
M  V30 5270 H 501.583 -1.37466 0.585108 0
M  V30 5271 H 503.465 -4.08028 -1.05313 0
M  V30 5272 H 502.14 -2.92925 -1.37756 0
M  V30 5273 H 501.047 -3.64885 0.825199 0
M  V30 5274 H 502.38 -4.80507 1.06649 0
M  V30 5275 N 504.032 -0.577932 -1.46621 0
M  V30 5276 C 505.262 -0.0670668 -2.06491 0
M  V30 5277 C 505.67 1.24119 -1.42798 0
M  V30 5278 O 505.013 1.76016 -0.525759 0
M  V30 5279 C 505.075 0.177995 -3.59059 0
M  V30 5280 C 504.739 -1.04394 -4.44917 0
M  V30 5281 C 505.736 -1.95479 -4.81751 0
M  V30 5282 C 503.421 -1.26444 -4.86125 0
M  V30 5283 C 505.415 -3.06965 -5.58615 0
M  V30 5284 C 503.102 -2.38237 -5.62749 0
M  V30 5285 C 504.1 -3.28327 -5.98908 0
M  V30 5286 O 503.788 -4.38179 -6.73984 0
M  V30 5287 H 503.52 -0.0523159 -0.673973 0
M  V30 5288 H 506.074 -0.796966 -1.89308 0
M  V30 5289 H 504.304 0.962451 -3.74531 0
M  V30 5290 H 505.993 0.636782 -4.00874 0
M  V30 5291 H 506.759 -1.79657 -4.50498 0
M  V30 5292 H 502.638 -0.572316 -4.57434 0
M  V30 5293 H 506.182 -3.77309 -5.86757 0
M  V30 5294 H 502.079 -2.54023 -5.93416 0
M  V30 5295 H 502.847 -4.36486 -6.92403 0
M  V30 5296 N 505.51 1.54411 -0.315457 0
M  V30 5297 C 506.756 2.01425 0.282775 0
M  V30 5298 C 507.111 1.19978 1.5041 0
M  V30 5299 O 506.404 0.271766 1.89663 0
M  V30 5300 C 506.598 3.50936 0.676652 0
M  V30 5301 C 506.427 4.46856 -0.504954 0
M  V30 5302 C 505.197 4.95275 -1.00152 0
M  V30 5303 C 507.395 4.96141 -1.35456 0
M  V30 5304 N 505.377 5.75081 -2.14838 0
M  V30 5305 C 506.748 5.73791 -2.3487 0
M  V30 5306 C 508.803 4.78299 -1.38327 0
M  V30 5307 C 507.506 6.35498 -3.36949 0
M  V30 5308 C 509.532 5.40836 -2.39271 0
M  V30 5309 C 508.894 6.1833 -3.37413 0
M  V30 5310 H 504.993 0.779078 0.0675398 0
M  V30 5311 H 507.577 1.8946 -0.448656 0
M  V30 5312 H 505.748 3.63162 1.37723 0
M  V30 5313 H 507.48 3.84728 1.25566 0
M  V30 5314 H 504.235 4.70107 -0.574123 0
M  V30 5315 H 504.659 6.19664 -2.72665 0
M  V30 5316 H 509.301 4.17956 -0.638196 0
M  V30 5317 H 507.019 6.94967 -4.12367 0
M  V30 5318 H 510.605 5.28952 -2.42284 0
M  V30 5319 H 509.485 6.65861 -4.14244 0
M  V30 5320 N 506.988 0.0434614 1.5754 0
M  V30 5321 C 507.898 -0.94893 2.14552 0
M  V30 5322 C 508.914 -1.34707 1.10136 0
M  V30 5323 O 510.09 -1.42557 1.42266 0
M  V30 5324 C 507.155 -2.208 2.67298 0
M  V30 5325 C 506.216 -1.86893 3.86484 0
M  V30 5326 C 505.449 -3.06797 4.36705 0
M  V30 5327 O 505.672 -4.19921 3.86034 0
M  V30 5328 O 504.606 -2.8826 5.28384 0
M  V30 5329 H 508.432 -0.494099 2.99654 0
M  V30 5330 H 506.017 -0.177989 1.48336 0
M  V30 5331 H 507.899 -2.94686 3.01228 0
M  V30 5332 H 506.574 -2.65436 1.85272 0
M  V30 5333 H 505.481 -1.10347 3.57455 0
M  V30 5334 H 506.814 -1.47062 4.69716 0
M  V30 5335 N 508.466 -1.55915 -0.229846 0
M  V30 5336 C 509.414 -1.9258 -1.30444 0
M  V30 5337 C 510.408 -0.806839 -1.48951 0
M  V30 5338 O 511.614 -0.991606 -1.50224 0
M  V30 5339 H 507.989 -0.611878 -0.437161 0
M  V30 5340 H 509.96 -2.82264 -0.96797 0
M  V30 5341 C 508.709 -2.25171 -2.6494 0
M  V30 5342 H 508.032 -3.10782 -2.51504 0
M  V30 5343 H 509.472 -2.54716 -3.38963 0
M  V30 5344 C 507.931 -1.07394 -3.19324 0
M  V30 5345 O 508.461 -0.330759 -4.00336 0
M  V30 5346 N 506.667 -0.859984 -2.77584 0
M  V30 5347 H 506.214 -1.46605 -2.11813 0
M  V30 5348 H 506.172 -0.0736671 -3.14314 0
M  V30 5349 N 509.944 0.496216 -1.49584 0
M  V30 5350 C 510.874 1.60576 -1.69521 0
M  V30 5351 C 511.855 1.61169 -0.543933 0
M  V30 5352 O 513.04 1.77834 -0.78031 0
M  V30 5353 C 510.17 2.99038 -1.76616 0
M  V30 5354 C 509.124 3.13312 -2.91581 0
M  V30 5355 C 508.45 4.53172 -2.83794 0
M  V30 5356 C 509.75 2.92886 -4.32452 0
M  V30 5357 H 511.444 1.44146 -2.62416 0
M  V30 5358 H 508.99 0.692024 -1.26282 0
M  V30 5359 H 510.943 3.76564 -1.8915 0
M  V30 5360 H 509.667 3.16568 -0.80324 0
M  V30 5361 H 508.326 2.38213 -2.78658 0
M  V30 5362 H 507.974 4.67585 -1.854 0
M  V30 5363 H 507.674 4.63662 -3.60958 0
M  V30 5364 H 509.198 5.32752 -2.98342 0
M  V30 5365 H 510.612 3.60178 -4.46032 0
M  V30 5366 H 509.009 3.14844 -5.10875 0
M  V30 5367 H 510.079 1.88966 -4.46565 0
M  V30 5368 N 511.423 1.38739 0.74761 0
M  V30 5369 C 512.353 1.39173 1.87492 0
M  V30 5370 C 513.334 0.256794 1.6815 0
M  V30 5371 O 514.519 0.460762 1.88655 0
M  V30 5372 C 511.649 1.22197 3.25093 0
M  V30 5373 C 510.603 2.32957 3.59047 0
M  V30 5374 C 509.929 2.01082 4.95449 0
M  V30 5375 C 511.229 3.75237 3.6331 0
M  V30 5376 H 512.923 2.3351 1.87386 0
M  V30 5377 H 510.469 1.12399 0.900134 0
M  V30 5378 H 512.422 1.21124 4.03617 0
M  V30 5379 H 511.146 0.243241 3.25693 0
M  V30 5380 H 509.805 2.33226 2.82845 0
M  V30 5381 H 509.453 1.01678 4.92616 0
M  V30 5382 H 509.153 2.75267 5.19136 0
M  V30 5383 H 510.677 2.01638 5.76346 0
M  V30 5384 H 512.091 3.76966 4.31937 0
M  V30 5385 H 510.488 4.48677 3.98509 0
M  V30 5386 H 511.558 4.07122 2.634 0
M  V30 5387 N 512.901 -0.976442 1.23707 0
M  V30 5388 C 514.312 -1.53284 1.06587 0
M  V30 5389 C 514.663 -1.92765 -0.365526 0
M  V30 5390 O 513.788 -1.7645 -1.25277 0
M  V30 5391 C 514.383 -2.78548 1.92864 0
M  V30 5392 C 512.942 -3.30574 1.79994 0
M  V30 5393 C 512.089 -2.03538 1.88328 0
M  V30 5394 H 515.04 -0.795692 1.37311 0
M  V30 5395 H 515.061 -3.5155 1.45577 0
M  V30 5396 H 514.573 -2.49782 2.97037 0
M  V30 5397 H 512.674 -3.64211 0.786202 0
M  V30 5398 H 512.787 -4.00065 2.636 0
M  V30 5399 H 511.151 -2.17853 1.31954 0
M  V30 5400 H 511.934 -1.77149 2.94063 0
M  V30 5401 N 514.379 -1.04941 -1.1758 0
M  V30 5402 C 515.342 -0.652456 -2.19717 0
M  V30 5403 C 516.342 0.294745 -1.58076 0
M  V30 5404 O 517.532 0.0789579 -1.74021 0
M  V30 5405 C 514.664 0.0420712 -3.40874 0
M  V30 5406 H 515.857 -1.55642 -2.5635 0
M  V30 5407 H 513.41 -0.842995 -1.31618 0
M  V30 5408 H 514.145 0.95943 -3.09783 0
M  V30 5409 H 513.93 -0.638844 -3.86861 0
M  V30 5410 H 515.42 0.306 -4.16477 0
M  V30 5411 N 515.857 1.33968 -0.830081 0
M  V30 5412 C 517.082 2.02813 -0.433796 0
M  V30 5413 C 517.507 1.62076 0.954614 0
M  V30 5414 O 516.865 0.808955 1.62252 0
M  V30 5415 C 516.913 3.56348 -0.552115 0
M  V30 5416 O 516.017 4.10202 0.425191 0
M  V30 5417 H 515.358 0.639817 -0.177567 0
M  V30 5418 H 517.888 1.7106 -1.12248 0
M  V30 5419 H 517.898 4.05722 -0.430513 0
M  V30 5420 H 516.573 3.85344 -1.56471 0
M  V30 5421 H 515.15 3.71979 0.261878 0
M  V30 5422 N 517.335 0.585699 1.46312 0
M  V30 5423 C 518.583 0.072278 2.01971 0
M  V30 5424 C 518.904 -1.29345 1.45928 0
M  V30 5425 O 518.174 -1.84973 0.645109 0
M  V30 5426 H 516.754 0.023729 0.746623 0
M  V30 5427 H 519.416 0.762155 1.7938 0
M  V30 5428 H 518.512 0.00552767 3.121 0
M  V30 5429 N 518.813 -1.54241 0.323641 0
M  V30 5430 C 520.229 -1.59574 -0.0290018 0
M  V30 5431 C 520.429 -1.34017 -1.50472 0
M  V30 5432 O 519.485 -1.12464 -2.26071 0
M  V30 5433 C 520.798 -2.98169 0.389295 0
M  V30 5434 C 522.346 -3.11148 0.339958 0
M  V30 5435 C 522.821 -4.5209 0.733418 0
M  V30 5436 N 524.312 -4.5808 0.686827 0
M  V30 5437 C 525.047 -5.65248 0.963464 0
M  V30 5438 N 524.543 -6.80355 1.30724 0
M  V30 5439 N 526.336 -5.55025 0.88902 0
M  V30 5440 H 518.487 -1.6911 1.28512 0
M  V30 5441 H 520.75 -0.790972 0.522558 0
M  V30 5442 H 520.456 -3.21871 1.41746 0
M  V30 5443 H 520.33 -3.76399 -0.245657 0
M  V30 5444 H 522.717 -2.87182 -0.679002 0
M  V30 5445 H 522.798 -2.35023 1.00985 0
M  V30 5446 H 522.442 -4.76788 1.75029 0
M  V30 5447 H 522.372 -5.26584 0.0412189 0
M  V30 5448 H 524.863 -3.75411 0.43298 0
M  V30 5449 H 525.176 -7.58029 1.5037 0
M  V30 5450 H 523.521 -6.81851 1.3455 0
M  V30 5451 H 526.712 -4.63977 0.619939 0
M  V30 5452 H 526.885 -6.38458 1.10797 0
M  V30 5453 N 520.291 -0.0518155 -1.57515 0
M  V30 5454 C 521.702 0.483787 -1.80323 0
M  V30 5455 C 522.053 1.70879 -0.964099 0
M  V30 5456 O 521.178 2.15643 -0.180872 0
M  V30 5457 C 521.773 0.884459 -3.27052 0
M  V30 5458 C 520.332 1.36504 -3.50776 0
M  V30 5459 C 519.479 0.340539 -2.75201 0
M  V30 5460 H 522.43 -0.277691 -1.56252 0
M  V30 5461 H 522.451 1.74733 -3.38007 0
M  V30 5462 H 521.963 -0.00731093 -3.88099 0
M  V30 5463 H 520.064 2.27598 -2.95009 0
M  V30 5464 H 520.177 1.35675 -4.59488 0
M  V30 5465 H 518.541 0.81356 -2.41357 0
M  V30 5466 H 519.324 -0.543156 -3.38976 0
M  V30 5467 N 521.769 1.56035 0.221574 0
M  V30 5468 C 523.016 1.79047 0.94597 0
M  V30 5469 C 523.344 0.62057 1.84334 0
M  V30 5470 O 522.599 -0.395053 1.91671 0
M  V30 5471 C 522.898 3.07813 1.8162 0
M  V30 5472 C 522.564 4.3797 1.07206 0
M  V30 5473 C 521.226 4.73334 0.866508 0
M  V30 5474 C 523.578 5.18326 0.546565 0
M  V30 5475 C 520.906 5.8657 0.123549 0
M  V30 5476 C 523.258 6.32335 -0.18305 0
M  V30 5477 C 521.922 6.66301 -0.399861 0
M  V30 5478 H 521.192 0.655178 0.346155 0
M  V30 5479 H 523.839 1.90299 0.214146 0
M  V30 5480 H 522.144 2.91682 2.61589 0
M  V30 5481 H 523.841 3.2282 2.37884 0
M  V30 5482 H 520.431 4.10202 1.24226 0
M  V30 5483 H 524.615 4.9144 0.692847 0
M  V30 5484 H 519.871 6.11376 -0.0546591 0
M  V30 5485 H 524.045 6.9383 -0.59775 0
M  V30 5486 H 521.672 7.53889 -0.977489 0
M  V30 5487 N 523.247 -0.488276 1.49845 0
M  V30 5488 C 524.487 -1.2516 1.61599 0
M  V30 5489 C 524.851 -1.89615 0.301706 0
M  V30 5490 O 526.052 -2.67182 0.29453 0
M  V30 5491 C 524.323 -2.2805 2.75187 0
M  V30 5492 S 525.882 -3.13552 3.0697 0
M  V30 5493 H 522.7 -0.425178 0.569864 0
M  V30 5494 H 525.302 -0.551545 1.87559 0
M  V30 5495 H 524.006 -1.7925 3.69185 0
M  V30 5496 H 523.537 -3.02708 2.5126 0
M  V30 5497 H 525.552 -4.28927 2.49471 0
M  V30 5498 N 524.725 -1.39134 -0.740242 0
M  V30 5499 C 526.136 -1.32208 -1.31825 0
M  V30 5500 C 526.487 0.0159919 -1.96193 0
M  V30 5501 O 525.612 0.918111 -1.95958 0
M  V30 5502 C 526.207 -2.39436 -2.39699 0
M  V30 5503 C 524.766 -2.36048 -2.93187 0
M  V30 5504 C 523.913 -2.21599 -1.66701 0
M  V30 5505 H 526.864 -1.49298 -0.538133 0
M  V30 5506 H 526.885 -2.05922 -3.19963 0
M  V30 5507 H 526.397 -3.36811 -1.92821 0
M  V30 5508 H 524.498 -1.42295 -3.44359 0
M  V30 5509 H 524.611 -3.30704 -3.46658 0
M  V30 5510 H 522.975 -1.68681 -1.90837 0
M  V30 5511 H 523.758 -3.20936 -1.21882 0
M  V30 5512 N 526.204 0.969867 -1.24223 0
M  V30 5513 C 527.429 1.75289 -1.10853 0
M  V30 5514 C 527.854 1.85091 0.335079 0
M  V30 5515 O 527.212 1.32024 1.24255 0
M  V30 5516 C 527.26 3.15255 -1.75062 0
M  V30 5517 O 526.364 3.99589 -1.01992 0
M  V30 5518 H 525.705 0.538904 -0.387915 0
M  V30 5519 H 528.235 1.21675 -1.64488 0
M  V30 5520 H 528.245 3.65787 -1.80731 0
M  V30 5521 H 526.92 3.07436 -2.801 0
M  V30 5522 H 525.497 3.58077 -1.04094 0
M  V30 5523 N 527.682 1.05563 1.17022 0
M  V30 5524 C 528.612 0.681026 2.23348 0
M  V30 5525 C 529.593 -0.322983 1.67005 0
M  V30 5526 O 530.778 -0.199746 1.9317 0
M  V30 5527 C 527.908 0.0589053 3.4725 0
M  V30 5528 C 526.862 0.988082 4.16438 0
M  V30 5529 C 526.188 0.229646 5.34207 0
M  V30 5530 C 527.488 2.31388 4.68249 0
M  V30 5531 H 529.182 1.56993 2.54938 0
M  V30 5532 H 526.728 0.756302 1.2254 0
M  V30 5533 H 528.681 -0.214982 4.20851 0
M  V30 5534 H 527.405 -0.864968 3.14938 0
M  V30 5535 H 526.064 1.24659 3.44754 0
M  V30 5536 H 525.712 -0.697111 4.98146 0
M  V30 5537 H 525.412 0.848815 5.81437 0
M  V30 5538 H 526.936 -0.0368694 6.10589 0
M  V30 5539 H 528.35 2.09964 5.33468 0
M  V30 5540 H 526.747 2.88736 5.26072 0
M  V30 5541 H 527.817 2.94982 3.84855 0
M  V30 5542 N 529.16 -1.33526 0.837174 0
M  V30 5543 C 530.385 -2.0258 0.444545 0
M  V30 5544 C 530.81 -1.6258 -0.946006 0
M  V30 5545 O 530.168 -0.817548 -1.6182 0
M  V30 5546 C 530.216 -3.5605 0.571006 0
M  V30 5547 O 529.32 -4.10422 -0.403431 0
M  V30 5548 H 528.661 -0.638866 0.180958 0
M  V30 5549 H 531.191 -1.70462 1.13154 0
M  V30 5550 H 531.201 -4.05488 0.452024 0
M  V30 5551 H 529.876 -3.84509 1.58512 0
M  V30 5552 H 528.453 -3.72113 -0.242147 0
M  V30 5553 N 530.638 -0.59345 -1.46 0
M  V30 5554 C 531.585 0.133618 -2.30413 0
M  V30 5555 C 532.555 0.873736 -1.41262 0
M  V30 5556 O 533.74 0.862279 -1.70204 0
M  V30 5557 C 530.88 1.13434 -3.25924 0
M  V30 5558 C 529.993 0.39656 -4.30176 0
M  V30 5559 C 529.128 1.38575 -5.12806 0
M  V30 5560 C 528.167 0.634984 -6.08797 0
M  V30 5561 N 527.304 1.57276 -6.84258 0
M  V30 5562 H 532.144 -0.592252 -2.92055 0
M  V30 5563 H 529.681 -0.303874 -1.43927 0
M  V30 5564 H 531.639 1.72752 -3.79753 0
M  V30 5565 H 530.269 1.82779 -2.66067 0
M  V30 5566 H 529.321 -0.311861 -3.79119 0
M  V30 5567 H 530.633 -0.189869 -4.98438 0
M  V30 5568 H 529.787 2.05141 -5.70966 0
M  V30 5569 H 528.526 2.00611 -4.44529 0
M  V30 5570 H 527.531 -0.0443925 -5.49782 0
M  V30 5571 H 528.756 0.0198678 -6.79097 0
M  V30 5572 H 526.702 2.18103 -6.18682 0
M  V30 5573 H 526.619 1.03941 -7.48821 0
M  V30 5574 H 527.887 2.22844 -7.46968 0
M  V30 5575 N 532.116 1.54067 -0.331816 0
M  V30 5576 C 533.527 1.86059 0.15454 0
M  V30 5577 C 533.878 1.25331 1.50952 0
M  V30 5578 O 533.003 0.562441 2.08963 0
M  V30 5579 C 533.598 3.37581 0.287192 0
M  V30 5580 C 532.157 3.69493 0.717773 0
M  V30 5581 C 531.304 2.76863 -0.155569 0
M  V30 5582 H 534.255 1.48797 -0.55182 0
M  V30 5583 H 534.276 3.63744 1.11671 0
M  V30 5584 H 533.788 3.81751 -0.699131 0
M  V30 5585 H 531.889 3.3086 1.71354 0
M  V30 5586 H 532.002 4.76315 0.5158 0
M  V30 5587 H 530.366 2.51995 0.370213 0
M  V30 5588 H 531.149 3.23861 -1.13881 0
M  V30 5589 N 533.594 0.0601682 1.57485 0
M  V30 5590 C 534.871 -0.651956 1.84415 0
M  V30 5591 C 535.251 -1.88498 0.950361 0
M  V30 5592 O 534.599 -2.28496 0.0136719 0
M  V30 5593 C 534.809 -1.00069 3.34346 0
M  V30 5594 C 536.157 -1.37915 4.01578 0
M  V30 5595 O 537.181 -1.09277 3.39024 0
M  V30 5596 O 536.04 -1.91399 5.11887 0
M  V30 5597 H 533.134 -0.322668 0.761455 0
M  V30 5598 H 535.68 0.0902159 1.6946 0
M  V30 5599 H 534.452 -0.124463 3.91102 0
M  V30 5600 H 534.075 -1.80001 3.54521 0
M  V30 5601 N 535.072 -1.5615 -0.213296 0
M  V30 5602 C 536.319 -1.79546 -0.936462 0
M  V30 5603 C 536.647 -0.630337 -1.84003 0
M  V30 5604 O 535.902 0.384883 -1.91878 0
M  V30 5605 C 536.201 -3.08772 -1.79985 0
M  V30 5606 C 535.867 -4.38532 -1.04882 0
M  V30 5607 C 534.529 -4.73787 -0.841393 0
M  V30 5608 C 536.881 -5.18609 -0.51907 0
M  V30 5609 C 534.209 -5.86627 -0.0924403 0
M  V30 5610 C 536.561 -6.32229 0.216581 0
M  V30 5611 C 535.225 -6.6608 0.435191 0
M  V30 5612 H 534.495 -0.657004 -0.342676 0
M  V30 5613 H 537.142 -1.9041 -0.204051 0
M  V30 5614 H 535.447 -2.93065 -2.60038 0
M  V30 5615 H 537.144 -3.24077 -2.36168 0
M  V30 5616 H 533.734 -4.10855 -1.22048 0
M  V30 5617 H 537.918 -4.91801 -0.666775 0
M  V30 5618 H 533.174 -6.11338 0.087081 0
M  V30 5619 H 537.348 -6.93503 0.634538 0
M  V30 5620 H 534.975 -7.5336 1.01746 0
M  V30 5621 O 536.589 0.35868 -1.57467 0
M  V30 5622 H 537.28 1.00907 -1.6534 0
M  V30 END ATOM
M  V30 BEGIN BOND
M  V30 END BOND
M  V30 END CTAB
M  END
$$$$
