drugbank_target|Q9H3Y6 Tyrosine-protein kinase Srms (DB12010)
 OpenBabel12092121193D

  0  0  0     0  0            999 V3000
M  V30 BEGIN CTAB
M  V30 COUNTS 7671 7779 0 0 0
M  V30 BEGIN ATOM
M  V30 1 H -0.908 1.98254 -0.117106 0
M  V30 2 N 0 1.576 0 0
M  V30 3 C 0.933 2.03868 1.02534 0
M  V30 4 C 1.911 0.928543 1.3348 0
M  V30 5 O 3.095 1.19667 1.45644 0
M  V30 6 C 0.222 2.43627 2.35294 0
M  V30 7 C -0.732 3.65373 2.2001 0
M  V30 8 S 0.101 5.13292 1.52614 0
M  V30 9 C 1.257 5.56322 2.86805 0
M  V30 10 H 1.49 2.90518 0.631377 0
M  V30 11 H -0.977 1.52953 0.210867 0
M  V30 12 H 0.981 2.67203 3.11629 0
M  V30 13 H -0.358 1.57376 2.7183 0
M  V30 14 H -1.165 3.90944 3.18086 0
M  V30 15 H -1.563 3.418 1.51819 0
M  V30 16 H 0.729 5.58782 3.83104 0
M  V30 17 H 1.672 6.56266 2.65933 0
M  V30 18 H 2.08 4.83886 2.90714 0
M  V30 19 N 1.4781 -0.272755 1.55222 0
M  V30 20 C 2.3881 -1.35918 1.91216 0
M  V30 21 C 3.4041 -1.54026 0.809436 0
M  V30 22 O 4.5801 -1.68148 1.10852 0
M  V30 23 C 1.6451 -2.69834 2.17693 0
M  V30 24 C 0.7061 -2.6047 3.41253 0
M  V30 25 C -0.0609 -3.88 3.66458 0
M  V30 26 O 0.1621 -4.88693 2.94169 0
M  V30 27 O -0.9039 -3.88189 4.59992 0
M  V30 28 H 2.9221 -1.0839 2.83699 0
M  V30 29 H 0.5071 -0.471301 1.41771 0
M  V30 30 H 2.3891 -3.49017 2.36147 0
M  V30 31 H 1.0641 -2.97148 1.28392 0
M  V30 32 H -0.0289 -1.79663 3.28134 0
M  V30 33 H 1.3041 -2.38106 4.30774 0
M  V30 34 N 2.9562 -1.48159 -0.537278 0
M  V30 35 C 4.3672 -1.49429 -1.11928 0
M  V30 36 C 4.7182 -0.26 -1.9447 0
M  V30 37 O 3.8432 0.633489 -2.0692 0
M  V30 38 C 4.4382 -2.70758 -2.03656 0
M  V30 39 C 2.9972 -2.74923 -2.57088 0
M  V30 40 C 2.1442 -2.42835 -1.3389 0
M  V30 41 H 5.0952 -1.55381 -0.322886 0
M  V30 42 H 5.1162 -2.48861 -2.87834 0
M  V30 43 H 4.6282 -3.60575 -1.43553 0
M  V30 44 H 2.7292 -1.89296 -3.20933 0
M  V30 45 H 2.8422 -3.76157 -2.9672 0
M  V30 46 H 1.2062 -1.93836 -1.65226 0
M  V30 47 H 1.9892 -3.34884 -0.755504 0
M  V30 48 N 4.4343 0.785586 -1.36625 0
M  V30 49 C 5.6813 1.54362 -1.31067 0
M  V30 50 C 6.0093 1.94195 0.10893 0
M  V30 51 O 5.2643 1.63262 1.07908 0
M  V30 52 C 5.5633 2.83007 -2.1827 0
M  V30 53 C 5.2293 2.62294 -3.6676 0
M  V30 54 C 3.8913 2.56353 -4.0723 0
M  V30 55 C 6.2433 2.43371 -4.6089 0
M  V30 56 C 3.5713 2.29461 -5.39967 0
M  V30 57 C 5.9233 2.18005 -5.93849 0
M  V30 58 C 4.5873 2.105 -6.3344 0
M  V30 59 H 3.8573 0.564851 -0.479609 0
M  V30 60 H 6.5043 0.906028 -1.68711 0
M  V30 61 H 4.8093 3.51253 -1.73576 0
M  V30 62 H 6.5063 3.40817 -2.11292 0
M  V30 63 H 3.0963 2.67774 -3.34656 0
M  V30 64 H 7.2803 2.46959 -4.30494 0
M  V30 65 H 2.5363 2.22135 -5.69619 0
M  V30 66 H 6.7103 2.02359 -6.66351 0
M  V30 67 H 4.3373 1.89425 -7.36222 0
M  V30 68 N 5.9124 1.20967 1.01018 0
M  V30 69 C 6.8424 0.988272 2.11555 0
M  V30 70 C 7.8234 -0.0849778 1.69888 0
M  V30 71 O 9.0084 0.0738202 1.9406 0
M  V30 72 C 6.1384 0.546528 3.42973 0
M  V30 73 C 5.0924 1.56375 3.9841 0
M  V30 74 C 4.4184 0.97842 5.25672 0
M  V30 75 C 5.7184 2.94922 4.31066 0
M  V30 76 H 7.4124 1.91276 2.30334 0
M  V30 77 H 4.9584 0.921073 1.1069 0
M  V30 78 H 6.9114 0.378839 4.19694 0
M  V30 79 H 5.6354 -0.413598 3.23971 0
M  V30 80 H 4.2944 1.71891 3.23804 0
M  V30 81 H 3.9424 0.0101688 5.02999 0
M  V30 82 H 3.6424 1.65784 5.63728 0
M  V30 83 H 5.1664 0.821939 6.05043 0
M  V30 84 H 6.5804 2.8288 4.9865 0
M  V30 85 H 4.9774 3.5983 4.80253 0
M  V30 86 H 6.0474 3.4616 3.39561 0
M  V30 87 N 7.3905 -1.2043 1.01659 0
M  V30 88 C 8.8065 -1.41852 0.731442 0
M  V30 89 C 9.0065 -1.89358 -0.688898 0
M  V30 90 O 8.0625 -2.06247 -1.45666 0
M  V30 91 C 9.3755 -2.44019 1.75714 0
M  V30 92 C 10.9235 -2.57785 1.77527 0
M  V30 93 C 11.3985 -3.63194 2.79023 0
M  V30 94 N 12.8895 -3.70678 2.77763 0
M  V30 95 C 13.6245 -4.51897 3.52954 0
M  V30 96 N 13.1205 -5.36921 4.37821 0
M  V30 97 N 14.9135 -4.4643 3.41551 0
M  V30 98 H 7.0645 -0.879093 1.93354 0
M  V30 99 H 9.3275 -0.448425 0.835236 0
M  V30 100 H 9.0335 -2.1611 2.77469 0
M  V30 101 H 8.9075 -3.43007 1.56927 0
M  V30 102 H 11.2945 -2.85023 0.764569 0
M  V30 103 H 11.3755 -1.58992 2.00387 0
M  V30 104 H 11.0195 -3.36699 3.80258 0
M  V30 105 H 10.9495 -4.61609 2.53425 0
M  V30 106 H 13.4405 -3.09944 2.16201 0
M  V30 107 H 13.7535 -5.95981 4.91962 0
M  V30 108 H 12.0985 -5.36424 4.41899 0
M  V30 109 H 15.2895 -3.79042 2.74672 0
M  V30 110 H 15.4625 -5.09491 4.00404 0
M  V30 111 N 8.8686 -0.792821 -1.36206 0
M  V30 112 C 10.2846 -0.474903 -1.52371 0
M  V30 113 C 10.4846 1.00622 -1.74578 0
M  V30 114 O 9.5406 1.79162 -1.77924 0
M  V30 115 C 10.8536 -1.3083 -2.70747 0
M  V30 116 C 12.4016 -1.30234 -2.84619 0
M  V30 117 C 12.8766 -2.11956 -4.06004 0
M  V30 118 N 14.3676 -2.09419 -4.13156 0
M  V30 119 C 15.1026 -2.69419 -5.06163 0
M  V30 120 N 14.5986 -3.3829 -6.04592 0
M  V30 121 N 16.3916 -2.59134 -4.98804 0
M  V30 122 H 8.5426 -1.75222 -1.20046 0
M  V30 123 H 10.8056 -0.745024 -0.586211 0
M  V30 124 H 10.5116 -2.35881 -2.6087 0
M  V30 125 H 10.3856 -0.95196 -3.6499 0
M  V30 126 H 12.7726 -0.259748 -2.93955 0
M  V30 127 H 12.8536 -1.69847 -1.91274 0
M  V30 128 H 12.4976 -3.16248 -3.97429 0
M  V30 129 H 12.4276 -1.69711 -4.98503 0
M  V30 130 H 14.9186 -1.59297 -3.42685 0
M  V30 131 H 15.2316 -3.81394 -6.7213 0
M  V30 132 H 13.5766 -3.42393 -6.04807 0
M  V30 133 H 16.7676 -2.04927 -4.20859 0
M  V30 134 H 16.9406 -3.06185 -5.711 0
M  V30 135 N 10.3467 1.47872 -0.545128 0
M  V30 136 C 11.7627 1.5829 -0.204032 0
M  V30 137 C 11.9627 1.54529 1.29317 0
M  V30 138 O 11.0187 1.44232 2.07252 0
M  V30 139 C 12.3317 2.89304 -0.819987 0
M  V30 140 C 13.8797 3.02864 -0.790105 0
M  V30 141 C 14.3547 4.3656 -1.38491 0
M  V30 142 N 15.8457 4.43165 -1.34755 0
M  V30 143 C 16.5807 5.45153 -1.77753 0
M  V30 144 N 16.0767 6.54016 -2.2855 0
M  V30 145 N 17.8697 5.36125 -1.68897 0
M  V30 146 H 10.0207 1.4856 -1.51802 0
M  V30 147 H 12.2837 0.706305 -0.632327 0
M  V30 148 H 11.9897 2.97757 -1.87173 0
M  V30 149 H 11.8637 3.75957 -0.305915 0
M  V30 150 H 14.2507 2.94014 0.252913 0
M  V30 151 H 14.3317 2.17782 -1.34181 0
M  V30 152 H 13.9757 4.46164 -2.42693 0
M  V30 153 H 13.9057 5.20353 -0.808754 0
M  V30 154 H 16.3967 3.65083 -0.975855 0
M  V30 155 H 16.7097 7.27994 -2.59314 0
M  V30 156 H 15.0547 6.54938 -2.32553 0
M  V30 157 H 18.2457 4.49975 -1.28998 0
M  V30 158 H 18.4187 6.15472 -2.02726 0
M  V30 159 N 11.8248 0.280983 1.55075 0
M  V30 160 C 12.7548 -0.597469 2.25727 0
M  V30 161 C 13.7358 -1.15417 1.24952 0
M  V30 162 O 14.9208 -1.18722 1.53684 0
M  V30 163 C 12.0508 -1.7789 2.98283 0
M  V30 164 C 11.0048 -1.35347 4.06036 0
M  V30 165 C 10.3308 -2.61846 4.66198 0
M  V30 166 C 11.6308 -0.499354 5.19907 0
M  V30 167 H 13.3248 -0.00824265 2.99399 0
M  V30 168 H 10.8708 -0.0025244 1.44 0
M  V30 169 H 12.8238 -2.39937 3.46422 0
M  V30 170 H 11.5478 -2.39405 2.22155 0
M  V30 171 H 10.2068 -0.756156 3.58717 0
M  V30 172 H 9.8548 -3.21632 3.86732 0
M  V30 173 H 9.5548 -2.3409 5.38958 0
M  V30 174 H 11.0788 -3.24732 5.1709 0
M  V30 175 H 12.4928 -1.02498 5.64063 0
M  V30 176 H 10.8898 -0.316424 5.99265 0
M  V30 177 H 11.9598 0.480459 4.82514 0
M  V30 178 N 13.3029 -1.57598 0.00835791 0
M  V30 179 C 14.2659 -2.07884 -0.965242 0
M  V30 180 C 15.2659 -0.989825 -1.26725 0
M  V30 181 O 16.4559 -1.25218 -1.21104 0
M  V30 182 C 13.5879 -2.52731 -2.28779 0
M  V30 183 H 14.7809 -2.95178 -0.530112 0
M  V30 184 H 12.3339 -1.54458 -0.239283 0
M  V30 185 H 13.0689 -1.68705 -2.76964 0
M  V30 186 H 12.8539 -3.32272 -2.08177 0
M  V30 187 H 14.3439 -2.91933 -2.98605 0
M  V30 188 N 14.781 0.264519 -1.55364 0
M  V30 189 C 16.028 0.994986 -1.7637 0
M  V30 190 C 16.356 1.85976 -0.5695 0
M  V30 191 O 15.611 1.90509 0.44776 0
M  V30 192 C 15.91 1.9004 -3.02687 0
M  V30 193 C 15.576 1.19243 -4.34847 0
M  V30 194 C 14.238 0.996709 -4.70764 0
M  V30 195 C 16.59 0.689296 -5.16622 0
M  V30 196 C 13.918 0.285261 -5.86006 0
M  V30 197 C 16.27 -0.00860079 -6.32599 0
M  V30 198 C 14.934 -0.215963 -6.67151 0
M  V30 199 H 14.204 0.364091 -0.645383 0
M  V30 200 H 16.851 0.266543 -1.89636 0
M  V30 201 H 15.156 2.69533 -2.84357 0
M  V30 202 H 16.853 2.46695 -3.16137 0
M  V30 203 H 13.443 1.3549 -4.06621 0
M  V30 204 H 17.627 0.828108 -4.89342 0
M  V30 205 H 12.883 0.113961 -6.11294 0
M  V30 206 H 17.057 -0.406186 -6.95214 0
M  V30 207 H 14.684 -0.769217 -7.56298 0
M  V30 208 N 16.2591 1.48442 0.529413 0
M  V30 209 C 17.1891 1.65902 1.64313 0
M  V30 210 C 18.1701 0.507897 1.6234 0
M  V30 211 O 19.3551 0.740503 1.79528 0
M  V30 212 C 16.4851 1.69911 3.02898 0
M  V30 213 C 15.4391 2.8453 3.19729 0
M  V30 214 C 14.7651 2.73629 4.59381 0
M  V30 215 C 16.0651 4.25821 3.02447 0
M  V30 216 H 17.7591 2.5914 1.49955 0
M  V30 217 H 15.3051 1.24709 0.719982 0
M  V30 218 H 17.2581 1.80715 3.80684 0
M  V30 219 H 15.9821 0.732524 3.18279 0
M  V30 220 H 14.6411 2.73283 2.44361 0
M  V30 221 H 14.2891 1.74938 4.71599 0
M  V30 222 H 13.9891 3.50541 4.71588 0
M  V30 223 H 15.5131 2.86401 5.39265 0
M  V30 224 H 16.9271 4.37898 3.70024 0
M  V30 225 H 15.3241 5.03735 3.26146 0
M  V30 226 H 16.3941 4.42244 1.98867 0
M  V30 227 N 17.7372 -0.778329 1.37039 0
M  V30 228 C 18.9622 -1.57248 1.35233 0
M  V30 229 C 19.3872 -1.87999 -0.0615568 0
M  V30 230 O 18.7452 -1.48734 -1.03672 0
M  V30 231 C 18.7932 -2.86353 2.19167 0
M  V30 232 O 17.8972 -3.80442 1.59178 0
M  V30 233 H 17.2382 -0.476569 0.462362 0
M  V30 234 H 19.7682 -0.963853 1.80474 0
M  V30 235 H 19.7782 -3.35519 2.32145 0
M  V30 236 H 18.4532 -2.63299 3.21942 0
M  V30 237 H 17.0302 -3.39067 1.55203 0
M  V30 238 N 19.2153 -1.21501 -1.00376 0
M  V30 239 C 20.4623 -1.03299 -1.74171 0
M  V30 240 C 20.7903 0.433326 -1.89612 0
M  V30 241 O 20.0453 1.33779 -1.42834 0
M  V30 242 C 20.3443 -1.67673 -3.15627 0
M  V30 243 C 20.0103 -3.17533 -3.2013 0
M  V30 244 C 18.6723 -3.58427 -3.21067 0
M  V30 245 C 21.0243 -4.13504 -3.17275 0
M  V30 246 C 18.3523 -4.93794 -3.16835 0
M  V30 247 C 20.7043 -5.48834 -3.14585 0
M  V30 248 C 19.3683 -5.89123 -3.13831 0
M  V30 249 H 18.6383 -0.377999 -0.637336 0
M  V30 250 H 21.2853 -1.51111 -1.17634 0
M  V30 251 H 19.5903 -1.12158 -3.75404 0
M  V30 252 H 21.2873 -1.51091 -3.71446 0
M  V30 253 H 17.8773 -2.84965 -3.20145 0
M  V30 254 H 22.0613 -3.82936 -3.15711 0
M  V30 255 H 17.3173 -5.24255 -3.1459 0
M  V30 256 H 21.4913 -6.22934 -3.1133 0
M  V30 257 H 19.1183 -6.93984 -3.10307 0
M  V30 258 N 20.6934 1.19889 -1.02296 0
M  V30 259 C 21.9404 1.8942 -0.715972 0
M  V30 260 C 22.2684 1.79251 0.754944 0
M  V30 261 O 21.5234 1.17526 1.56481 0
M  V30 262 C 21.8224 3.39883 -1.10518 0
M  V30 263 C 21.4884 3.70254 -2.57337 0
M  V30 264 C 20.1504 3.78254 -2.97452 0
M  V30 265 C 22.5024 3.84052 -3.52354 0
M  V30 266 C 19.8304 3.97514 -4.31509 0
M  V30 267 C 22.1824 4.04824 -4.86108 0
M  V30 268 C 20.8464 4.11054 -5.25919 0
M  V30 269 H 20.1164 0.693138 -0.261993 0
M  V30 270 H 22.7634 1.42012 -1.28472 0
M  V30 271 H 21.0684 3.8915 -0.454953 0
M  V30 272 H 22.7654 3.9199 -0.845261 0
M  V30 273 H 19.3554 3.64632 -2.25258 0
M  V30 274 H 23.5394 3.77221 -3.22518 0
M  V30 275 H 18.7954 4.00574 -4.61898 0
M  V30 276 H 22.9694 4.14442 -5.59653 0
M  V30 277 H 20.5964 4.2573 -6.29808 0
M  V30 278 N 22.1715 0.800033 1.35784 0
M  V30 279 C 23.4175 0.38701 1.99684 0
M  V30 280 C 23.7725 -1.03268 1.62338 0
M  V30 281 O 23.0655 -1.70543 0.87325 0
M  V30 282 C 23.2595 0.500276 3.53881 0
M  V30 283 C 23.0885 1.92942 4.06206 0
M  V30 284 C 21.8585 2.55637 4.35865 0
M  V30 285 C 24.0565 2.89307 4.25213 0
M  V30 286 N 22.0385 3.9003 4.74078 0
M  V30 287 C 23.4095 4.08556 4.66349 0
M  V30 288 C 25.4645 2.86225 4.07406 0
M  V30 289 C 24.1675 5.25146 4.91543 0
M  V30 290 C 26.1935 4.02011 4.33752 0
M  V30 291 C 25.5555 5.20007 4.75155 0
M  V30 292 H 21.6545 0.189252 0.758754 0
M  V30 293 H 24.2385 1.03988 1.64604 0
M  V30 294 H 22.4095 -0.122568 3.88207 0
M  V30 295 H 24.1415 0.0624733 4.04652 0
M  V30 296 H 20.8965 2.07039 4.25948 0
M  V30 297 H 21.3205 4.59205 4.97454 0
M  V30 298 H 25.9625 1.96154 3.74544 0
M  V30 299 H 23.6805 6.15794 5.23281 0
M  V30 300 H 27.2665 4.00999 4.21534 0
M  V30 301 H 26.1465 6.08113 4.95145 0
M  V30 302 N 23.6496 -1.47581 0.552962 0
M  V30 303 C 24.9266 -1.95563 -0.0381515 0
M  V30 304 C 25.3066 -1.49552 -1.48988 0
M  V30 305 O 24.6546 -0.732414 -2.16444 0
M  V30 306 C 24.8646 -3.48848 0.102919 0
M  V30 307 C 26.2126 -4.24577 -0.0446082 0
M  V30 308 O 27.2366 -3.56187 0.0302548 0
M  V30 309 O 26.0956 -5.46116 -0.204923 0
M  V30 310 H 23.1896 -0.824321 -0.0665067 0
M  V30 311 H 25.7356 -1.58001 0.619186 0
M  V30 312 H 24.5076 -3.75129 1.11328 0
M  V30 313 H 24.1306 -3.93165 -0.592224 0
M  V30 314 N 25.1277 -0.289203 -1.54924 0
M  V30 315 C 26.0747 0.592115 -2.23075 0
M  V30 316 C 27.0447 1.13881 -1.20915 0
M  V30 317 O 28.2297 1.18551 -1.495 0
M  V30 318 C 25.3697 1.76376 -2.96623 0
M  V30 319 C 24.4827 1.24959 -4.13533 0
M  V30 320 C 23.6177 2.38416 -4.74691 0
M  V30 321 C 22.6567 1.84072 -5.83767 0
M  V30 322 N 21.7937 2.91057 -6.38929 0
M  V30 323 H 26.6337 0.00432038 -2.98 0
M  V30 324 H 24.1707 -0.00963529 -1.47097 0
M  V30 325 H 26.1287 2.45268 -3.3749 0
M  V30 326 H 24.7587 2.32337 -2.24097 0
M  V30 327 H 23.8107 0.453307 -3.77689 0
M  V30 328 H 25.1227 0.811662 -4.92152 0
M  V30 329 H 24.2767 3.15276 -5.18349 0
M  V30 330 H 23.0157 2.8553 -3.95378 0
M  V30 331 H 22.0207 1.05697 -5.39545 0
M  V30 332 H 23.2457 1.37877 -6.64956 0
M  V30 333 H 21.1917 3.37526 -5.62505 0
M  V30 334 H 21.1087 2.51724 -7.12861 0
M  V30 335 H 22.3767 3.6785 -6.87246 0
M  V30 336 N 26.6058 1.57591 -0.0167156 0
M  V30 337 C 27.8548 1.90461 0.663877 0
M  V30 338 C 28.1678 0.893515 1.73999 0
M  V30 339 O 29.3738 1.11302 2.47637 0
M  V30 340 C 27.8298 3.38155 1.23204 0
M  V30 341 C 27.4378 4.47597 0.189866 0
M  V30 342 C 29.1818 3.80111 1.88986 0
M  V30 343 C 27.0888 5.86379 0.768964 0
M  V30 344 H 26.0188 0.710738 0.251729 0
M  V30 345 H 28.6698 1.83326 -0.0799926 0
M  V30 346 H 27.0518 3.40182 2.02712 0
M  V30 347 H 28.2258 4.57112 -0.581846 0
M  V30 348 H 26.5408 4.14766 -0.368475 0
M  V30 349 H 29.1378 4.81145 2.33247 0
M  V30 350 H 29.4808 3.14511 2.72743 0
M  V30 351 H 30.0138 3.80454 1.16187 0
M  V30 352 H 26.7528 6.55493 -0.0301957 0
M  V30 353 H 26.2728 5.80496 1.50945 0
M  V30 354 H 27.9518 6.34563 1.26251 0
M  V30 355 N 28.0839 -0.256276 1.55502 0
M  V30 356 C 29.3299 -0.982884 1.78076 0
M  V30 357 C 29.6849 -1.83319 0.584109 0
M  V30 358 O 28.9779 -1.86875 -0.422877 0
M  V30 359 C 29.1719 -1.88432 3.03691 0
M  V30 360 C 29.0009 -1.12276 4.35459 0
M  V30 361 C 27.7709 -0.831647 4.98409 0
M  V30 362 C 29.9689 -0.504933 5.11815 0
M  V30 363 N 27.9509 -0.0450423 6.13883 0
M  V30 364 C 29.3219 0.146696 6.19826 0
M  V30 365 C 31.3769 -0.414455 4.96172 0
M  V30 366 C 30.0799 0.880103 7.13895 0
M  V30 367 C 32.1059 0.305398 5.90611 0
M  V30 368 C 31.4679 0.945701 6.98023 0
M  V30 369 H 27.5669 -0.341084 0.703694 0
M  V30 370 H 30.1509 -0.256909 1.92998 0
M  V30 371 H 28.3219 -2.58241 2.90114 0
M  V30 372 H 30.0539 -2.54579 3.14598 0
M  V30 373 H 26.8089 -1.14111 4.59647 0
M  V30 374 H 27.2329 0.336079 6.76165 0
M  V30 375 H 31.8749 -0.895163 4.13215 0
M  V30 376 H 29.5929 1.37244 7.9636 0
M  V30 377 H 33.1789 0.375946 5.80584 0
M  V30 378 H 32.0589 1.49383 7.6984 0
M  V30 379 N 29.562 -1.4872 -0.521534 0
M  V30 380 C 30.973 -1.50607 -1.10337 0
M  V30 381 C 31.324 -0.280612 -1.94183 0
M  V30 382 O 30.449 0.611507 -2.0758 0
M  V30 383 C 31.044 -2.72903 -2.00772 0
M  V30 384 C 29.603 -2.77634 -2.54158 0
M  V30 385 C 28.75 -2.44241 -1.31307 0
M  V30 386 H 31.701 -1.55714 -0.306388 0
M  V30 387 H 31.722 -2.519 -2.85178 0
M  V30 388 H 31.234 -3.62077 -1.39721 0
M  V30 389 H 29.335 -1.92689 -3.18907 0
M  V30 390 H 29.448 -3.79283 -2.92714 0
M  V30 391 H 27.812 -1.95577 -1.63161 0
M  V30 392 H 28.595 -3.35666 -0.719943 0
M  V30 393 N 31.0401 0.771051 -1.3745 0
M  V30 394 C 32.0031 1.86598 -1.33093 0
M  V30 395 C 33.0031 1.59076 -0.234845 0
M  V30 396 O 34.1931 1.67145 -0.490732 0
M  V30 397 C 31.3251 3.23747 -1.06773 0
M  V30 398 H 32.5181 1.91873 -2.30488 0
M  V30 399 H 30.0711 0.970876 -1.2249 0
M  V30 400 H 30.8061 3.24148 -0.099129 0
M  V30 401 H 30.5911 3.45115 -1.86112 0
M  V30 402 H 32.0811 4.03824 -1.06377 0
M  V30 403 N 32.5182 1.22032 0.997298 0
M  V30 404 C 33.7662 1.04016 1.73278 0
M  V30 405 C 34.0872 -0.426255 1.90284 0
M  V30 406 O 33.3572 -1.30694 1.45931 0
M  V30 407 H 31.9372 0.381897 0.642 0
M  V30 408 H 34.5992 1.5347 1.20137 0
M  V30 409 H 33.6952 1.51441 2.72896 0
M  V30 410 N 33.9963 -1.19345 1.0293 0
M  V30 411 C 35.2443 -1.88665 0.724574 0
M  V30 412 C 35.5653 -1.80036 -0.749144 0
M  V30 413 O 34.8353 -1.2111 -1.53978 0
M  V30 414 H 33.4153 -0.698406 0.265025 0
M  V30 415 H 36.0773 -1.44885 1.30362 0
M  V30 416 H 35.1733 -2.94987 1.01926 0
M  V30 417 N 35.4744 -0.807222 -1.35358 0
M  V30 418 C 36.3844 -0.219594 -2.3357 0
M  V30 419 C 37.4004 0.637734 -1.61892 0
M  V30 420 O 38.5764 0.549336 -1.93763 0
M  V30 421 C 35.6414 0.62158 -3.41083 0
M  V30 422 C 34.7024 -0.256315 -4.28534 0
M  V30 423 C 33.9354 0.544807 -5.30912 0
M  V30 424 O 34.1584 1.77944 -5.41934 0
M  V30 425 O 33.0924 -0.0646478 -6.01865 0
M  V30 426 H 36.9184 -1.03208 -2.85625 0
M  V30 427 H 34.5034 -0.569025 -1.38139 0
M  V30 428 H 36.3854 1.10067 -4.06772 0
M  V30 429 H 35.0604 1.41165 -2.91297 0
M  V30 430 H 33.9674 -0.782559 -3.65823 0
M  V30 431 H 35.3004 -1.01034 -4.81719 0
M  V30 432 N 36.9525 1.47285 -0.560781 0
M  V30 433 C 38.3635 1.86258 -0.128343 0
M  V30 434 C 38.7145 1.46699 1.30284 0
M  V30 435 O 37.8395 0.871698 1.98067 0
M  V30 436 C 38.4345 3.38044 -0.22614 0
M  V30 437 C 36.9935 3.76096 0.151283 0
M  V30 438 C 36.1405 2.71335 -0.572084 0
M  V30 439 H 39.0915 1.38752 -0.770297 0
M  V30 440 H 39.1125 3.76441 0.554322 0
M  V30 441 H 38.6245 3.66806 -1.26788 0
M  V30 442 H 36.7255 3.52951 1.19399 0
M  V30 443 H 36.8385 4.78641 -0.209765 0
M  V30 444 H 35.2025 2.54696 -0.0147653 0
M  V30 445 H 35.9855 3.02938 -1.61504 0
M  V30 446 N 38.4306 0.297415 1.54768 0
M  V30 447 C 39.7076 -0.365847 1.92148 0
M  V30 448 C 40.0876 -1.71975 1.22424 0
M  V30 449 O 39.4356 -2.25666 0.358739 0
M  V30 450 C 39.6456 -0.484056 3.45627 0
M  V30 451 C 40.9936 -0.756594 4.17805 0
M  V30 452 O 42.0176 -0.568007 3.51642 0
M  V30 453 O 40.8766 -1.11863 5.34929 0
M  V30 454 H 37.9706 -0.203919 0.801465 0
M  V30 455 H 40.5166 0.34521 1.66152 0
M  V30 456 H 39.2886 0.467865 3.88493 0
M  V30 457 H 38.9116 -1.24372 3.77647 0
M  V30 458 N 39.9087 -1.5758 0.0250728 0
M  V30 459 C 40.8587 -2.06468 -0.967201 0
M  V30 460 C 41.8427 -0.964376 -1.28797 0
M  V30 461 O 43.0347 -1.22797 -1.27475 0
M  V30 462 C 40.1637 -2.59203 -2.25097 0
M  V30 463 C 39.2497 -3.76157 -1.95874 0
M  V30 464 N 39.6407 -4.86919 -1.36905 0
M  V30 465 C 37.9387 -3.84566 -2.25887 0
M  V30 466 C 38.6397 -5.68172 -1.24724 0
M  V30 467 N 37.6157 -5.14953 -1.74138 0
M  V30 468 H 41.4177 -2.89508 -0.506176 0
M  V30 469 H 38.9317 -1.61399 -0.18004 0
M  V30 470 H 40.9287 -2.92517 -2.97052 0
M  V30 471 H 39.5887 -1.77592 -2.71829 0
M  V30 472 H 40.5997 -5.07256 -1.04459 0
M  V30 473 H 37.2767 -3.13854 -2.75321 0
M  V30 474 H 38.6667 -6.67221 -0.791605 0
M  V30 475 N 41.3868 0.248026 -1.55636 0
M  V30 476 C 42.6348 0.974295 -1.77065 0
M  V30 477 C 42.9558 1.85897 -0.588849 0
M  V30 478 O 42.2258 1.91868 0.395407 0
M  V30 479 H 40.8058 0.362733 -0.653019 0
M  V30 480 H 43.4678 0.266244 -1.93073 0
M  V30 481 H 42.5638 1.59667 -2.68166 0
M  V30 482 N 42.8649 1.48995 0.513639 0
M  V30 483 C 44.0929 1.61531 1.29288 0
M  V30 484 C 44.5079 0.281801 1.86685 0
M  V30 485 O 43.8649 -0.731111 1.67215 0
M  V30 486 C 43.9159 2.67449 2.43215 0
M  V30 487 O 43.6369 3.95626 1.88179 0
M  V30 488 C 45.1379 2.90575 3.34785 0
M  V30 489 H 42.3579 0.544165 0.392588 0
M  V30 490 H 44.9019 1.9494 0.617956 0
M  V30 491 H 43.0569 2.36853 3.0656 0
M  V30 492 H 43.4709 4.53868 2.62876 0
M  V30 493 H 44.9449 3.68449 4.11035 0
M  V30 494 H 45.4219 2.00011 3.91015 0
M  V30 495 H 46.0279 3.22538 2.77218 0
M  V30 496 N 44.343 -0.763751 1.37857 0
M  V30 497 C 45.754 -1.3405 1.29952 0
M  V30 498 C 46.105 -1.96138 -0.0492898 0
M  V30 499 O 45.23 -1.94372 -0.951239 0
M  V30 500 C 45.825 -2.43729 2.35333 0
M  V30 501 C 44.384 -2.97151 2.31037 0
M  V30 502 C 43.531 -1.70438 2.18738 0
M  V30 503 H 46.482 -0.563396 1.48363 0
M  V30 504 H 46.503 -3.23412 2.00462 0
M  V30 505 H 46.015 -1.9851 3.33489 0
M  V30 506 H 44.116 -3.46724 1.3643 0
M  V30 507 H 44.229 -3.52221 3.24772 0
M  V30 508 H 42.593 -1.93673 1.65418 0
M  V30 509 H 43.376 -1.27312 3.18821 0
M  V30 510 N 45.8211 -1.22559 -0.990812 0
M  V30 511 C 47.0691 -1.04933 -1.72724 0
M  V30 512 C 47.3901 0.416158 -1.90508 0
M  V30 513 O 46.6601 1.29918 -1.46622 0
M  V30 514 H 45.2401 -0.385296 -0.639965 0
M  V30 515 H 47.9021 -1.54105 -1.19322 0
M  V30 516 H 46.9981 -1.52886 -2.72089 0
M  V30 517 N 47.2992 1.18797 -1.03562 0
M  V30 518 C 48.5242 1.9314 -0.755764 0
M  V30 519 C 48.9492 1.7537 0.68022 0
M  V30 520 O 48.3072 1.06046 1.47051 0
M  V30 521 C 48.3552 3.42747 -1.12058 0
M  V30 522 O 47.4592 4.11683 -0.243124 0
M  V30 523 H 46.8002 0.602724 -0.278604 0
M  V30 524 H 49.3302 1.50678 -1.3841 0
M  V30 525 H 49.3402 3.93437 -1.08035 0
M  V30 526 H 48.0152 3.55002 -2.16672 0
M  V30 527 H 46.5922 3.71323 -0.342539 0
M  V30 528 N 48.7773 0.814389 1.34928 0
M  V30 529 C 49.7073 0.244827 2.32213 0
M  V30 530 C 50.6883 -0.634024 1.57842 0
M  V30 531 O 51.8733 -0.562676 1.8587 0
M  V30 532 C 49.0033 -0.601106 3.42058 0
M  V30 533 C 47.9573 0.179896 4.27622 0
M  V30 534 C 47.2833 -0.788237 5.28858 0
M  V30 535 C 48.5833 1.38329 5.03649 0
M  V30 536 H 50.2773 1.05763 2.80097 0
M  V30 537 H 47.8233 0.510029 1.34665 0
M  V30 538 H 49.7763 -1.00968 4.09125 0
M  V30 539 H 48.5003 -1.44688 2.92802 0
M  V30 540 H 47.1593 0.569739 3.62146 0
M  V30 541 H 46.8073 -1.62973 4.75866 0
M  V30 542 H 46.5073 -0.269942 5.8698 0
M  V30 543 H 48.0313 -1.19485 5.98795 0
M  V30 544 H 49.4453 1.04918 5.63618 0
M  V30 545 H 47.8423 1.83662 5.71304 0
M  V30 546 H 48.9123 2.16592 4.33839 0
M  V30 547 N 50.2554 -1.46986 0.568584 0
M  V30 548 C 51.5324 -1.95592 -0.0174074 0
M  V30 549 C 51.9124 -1.51124 -1.47393 0
M  V30 550 O 51.2604 -0.755329 -2.15655 0
M  V30 551 C 51.4704 -3.48719 0.139913 0
M  V30 552 C 52.8184 -4.246 0.000426376 0
M  V30 553 O 53.8424 -3.56135 0.0680316 0
M  V30 554 O 52.7014 -5.46302 -0.146988 0
M  V30 555 H 49.7954 -0.82498 -0.0577599 0
M  V30 556 H 52.3414 -1.57335 0.635909 0
M  V30 557 H 51.1134 -3.73927 1.15301 0
M  V30 558 H 50.7364 -3.93771 -0.550491 0
M  V30 559 N 51.7335 -0.305618 -1.54608 0
M  V30 560 C 53.1445 0.186098 -1.8577 0
M  V30 561 C 53.4955 1.53058 -1.22751 0
M  V30 562 O 52.6205 2.09888 -0.526893 0
M  V30 563 C 53.2155 0.344449 -3.37044 0
M  V30 564 C 51.7745 0.780384 -3.68221 0
M  V30 565 C 50.9215 -0.108554 -2.77087 0
M  V30 566 H 53.8725 -0.526485 -1.49712 0
M  V30 567 H 53.8935 1.17828 -3.61796 0
M  V30 568 H 53.4055 -0.634235 -3.82883 0
M  V30 569 H 51.5065 1.76945 -3.27904 0
M  V30 570 H 51.6195 0.596572 -4.75371 0
M  V30 571 H 49.9835 0.412931 -2.5133 0
M  V30 572 H 50.7665 -1.08368 -3.25747 0
M  V30 573 N 53.2116 1.57565 -0.0334293 0
M  V30 574 C 54.1596 2.1164 0.96496 0
M  V30 575 C 55.1536 1.04398 1.33407 0
M  V30 576 O 56.3596 1.22828 1.3158 0
M  V30 577 H 52.7346 0.676222 0.32898 0
M  V30 578 H 54.7056 2.94455 0.483614 0
M  V30 579 C 53.4546 2.66207 2.23672 0
M  V30 580 H 52.7776 3.48378 1.96145 0
M  V30 581 H 54.2176 3.07685 2.9173 0
M  V30 582 C 52.6766 1.59151 2.96939 0
M  V30 583 O 53.2066 0.993858 3.89211 0
M  V30 584 N 51.4126 1.31093 2.59351 0
M  V30 585 H 50.9596 1.7988 1.84393 0
M  V30 586 H 50.9176 0.596889 3.08682 0
M  V30 587 N 54.6897 -0.239769 1.55765 0
M  V30 588 C 55.9177 -0.98417 1.81994 0
M  V30 589 C 56.3327 -1.7867 0.610124 0
M  V30 590 O 55.6897 -1.77571 -0.421271 0
M  V30 591 C 55.7407 -1.91635 3.06526 0
M  V30 592 O 55.4617 -1.14629 4.22838 0
M  V30 593 C 56.9627 -2.77616 3.45607 0
M  V30 594 H 54.1827 -0.28928 0.605441 0
M  V30 595 H 56.7267 -0.260499 2.02834 0
M  V30 596 H 54.8817 -2.5942 2.87715 0
M  V30 597 H 55.2957 -1.77745 4.93464 0
M  V30 598 H 56.7697 -3.38759 4.35828 0
M  V30 599 H 57.2467 -3.4909 2.6652 0
M  V30 600 H 57.8527 -2.15271 3.66795 0
M  V30 601 N 56.1678 -1.49265 -0.50573 0
M  V30 602 C 57.4448 -1.49012 -1.26707 0
M  V30 603 C 57.8248 -0.215205 -2.1 0
M  V30 604 O 57.1728 0.802547 -2.13943 0
M  V30 605 C 57.3828 -2.7663 -2.12783 0
M  V30 606 C 58.7308 -3.25932 -2.72127 0
M  V30 607 O 59.7548 -2.77715 -2.23054 0
M  V30 608 O 58.6138 -4.09897 -3.61451 0
M  V30 609 H 55.7078 -0.596197 -0.57313 0
M  V30 610 H 58.2538 -1.61524 -0.52039 0
M  V30 611 H 57.0258 -3.60916 -1.5118 0
M  V30 612 H 56.6488 -2.66956 -2.94653 0
M  V30 613 N 57.6459 0.756429 -1.3826 0
M  V30 614 C 59.0569 1.33359 -1.30661 0
M  V30 615 C 59.4079 1.96161 0.0388875 0
M  V30 616 O 58.5329 1.94874 0.940918 0
M  V30 617 C 59.1279 2.42477 -2.36622 0
M  V30 618 C 57.6869 2.95922 -2.3261 0
M  V30 619 C 56.8339 1.69275 -2.19639 0
M  V30 620 H 59.7849 0.55552 -1.4866 0
M  V30 621 H 59.8059 3.22345 -2.02174 0
M  V30 622 H 59.3179 1.96739 -3.34538 0
M  V30 623 H 57.4189 3.45996 -1.38267 0
M  V30 624 H 57.5319 3.50494 -3.26636 0
M  V30 625 H 55.8959 1.92793 -1.66442 0
M  V30 626 H 56.6789 1.25619 -3.19491 0
M  V30 627 N 59.124 1.23083 0.984299 0
M  V30 628 C 60.37 1.06214 1.72761 0
M  V30 629 C 60.703 -0.400584 1.90024 0
M  V30 630 O 59.978 -1.29672 1.44967 0
M  V30 631 C 60.261 1.78375 3.12817 0
M  V30 632 C 60.114 3.32296 3.03149 0
M  V30 633 C 61.433 1.54309 4.12161 0
M  V30 634 H 58.552 0.387251 0.627061 0
M  V30 635 H 61.194 1.51536 1.14616 0
M  V30 636 H 59.344 1.39848 3.62457 0
M  V30 637 H 61.016 3.8032 2.61064 0
M  V30 638 H 59.259 3.6153 2.39747 0
M  V30 639 H 59.93 3.77972 4.02295 0
M  V30 640 H 62.406 1.87791 3.71314 0
M  V30 641 H 61.282 2.07281 5.08258 0
M  V30 642 H 61.543 0.477572 4.39513 0
M  V30 643 N 60.6021 -1.18246 1.0419 0
M  V30 644 C 62.0131 -1.69914 0.773698 0
M  V30 645 C 62.3641 -1.83085 -0.705297 0
M  V30 646 O 61.4891 -1.51123 -1.5489 0
M  V30 647 C 62.0841 -3.08619 1.39784 0
M  V30 648 C 60.6431 -3.57494 1.17792 0
M  V30 649 C 59.7901 -2.34013 1.48773 0
M  V30 650 H 62.7411 -1.02904 1.20816 0
M  V30 651 H 62.7621 -3.71958 0.801714 0
M  V30 652 H 62.2741 -2.99001 2.47426 0
M  V30 653 H 60.3751 -3.72406 0.120295 0
M  V30 654 H 60.4881 -4.40852 1.87581 0
M  V30 655 H 58.8521 -2.37986 0.907463 0
M  V30 656 H 59.6351 -2.27013 2.57527 0
M  V30 657 N 62.0802 -0.821533 -1.34494 0
M  V30 658 C 63.3082 -0.421884 -2.02553 0
M  V30 659 C 63.7232 0.971745 -1.61872 0
M  V30 660 O 63.0802 1.62864 -0.823496 0
M  V30 661 C 63.1312 -0.51285 -3.57844 0
M  V30 662 O 62.8522 -1.85155 -3.97051 0
M  V30 663 C 64.3532 -0.107921 -4.43169 0
M  V30 664 H 61.5732 -0.169482 -0.649243 0
M  V30 665 H 64.1172 -1.1093 -1.71798 0
M  V30 666 H 62.2722 0.126474 -3.87193 0
M  V30 667 H 62.6862 -1.82482 -4.91732 0
M  V30 668 H 64.1602 -0.222657 -5.51551 0
M  V30 669 H 64.6372 0.948401 -4.28838 0
M  V30 670 H 65.2432 -0.720989 -4.19144 0
M  V30 671 N 63.5583 1.46682 -0.576371 0
M  V30 672 C 64.4883 2.33028 0.148397 0
M  V30 673 C 65.4693 1.44961 0.889956 0
M  V30 674 O 66.6543 1.73789 0.866662 0
M  V30 675 C 63.7843 3.27117 1.1667 0
M  V30 676 C 62.7383 4.24575 0.540386 0
M  V30 677 C 62.0643 5.08126 1.6647 0
M  V30 678 C 63.3643 5.19722 -0.518331 0
M  V30 679 H 65.0583 2.93875 -0.572509 0
M  V30 680 H 62.6043 1.41315 -0.276768 0
M  V30 681 H 64.5573 3.86374 1.68204 0
M  V30 682 H 63.2813 2.64364 1.9178 0
M  V30 683 H 61.9403 3.66571 0.0461769 0
M  V30 684 H 61.5883 4.41762 2.40531 0
M  V30 685 H 61.2883 5.74122 1.25131 0
M  V30 686 H 62.8123 5.70246 2.18293 0
M  V30 687 H 64.2263 5.73232 -0.0883058 0
M  V30 688 H 62.6233 5.94026 -0.851679 0
M  V30 689 H 63.6933 4.64037 -1.40703 0
M  V30 690 N 65.0364 0.313813 1.54444 0
M  V30 691 C 66.4474 -0.176243 1.85866 0
M  V30 692 C 66.7984 -1.52405 1.23561 0
M  V30 693 O 65.9234 -2.09605 0.538016 0
M  V30 694 C 66.5184 -0.32657 3.37222 0
M  V30 695 C 65.0774 -0.760846 3.6863 0
M  V30 696 C 64.2244 0.123247 2.77026 0
M  V30 697 H 67.1754 0.534418 1.49431 0
M  V30 698 H 67.1964 -1.15908 3.62416 0
M  V30 699 H 66.7084 0.654531 3.82541 0
M  V30 700 H 64.8094 -1.75204 3.28838 0
M  V30 701 H 64.9224 -0.571353 4.75681 0
M  V30 702 H 63.2864 -0.399597 2.51546 0
M  V30 703 H 64.0694 1.10094 3.25168 0
M  V30 704 N 66.5145 -1.57545 0.0417849 0
M  V30 705 C 67.4775 -2.09885 -0.92093 0
M  V30 706 C 68.4775 -1.01648 -1.24596 0
M  V30 707 O 69.6675 -1.27759 -1.1842 0
M  V30 708 C 66.7995 -2.57527 -2.23367 0
M  V30 709 H 67.9925 -2.96236 -0.467382 0
M  V30 710 H 65.5455 -1.5493 -0.206467 0
M  V30 711 H 66.2805 -1.74542 -2.73323 0
M  V30 712 H 66.0655 -3.36613 -2.01083 0
M  V30 713 H 67.5555 -2.98201 -2.92346 0
M  V30 714 N 67.9926 0.231505 -1.5589 0
M  V30 715 C 68.9026 1.308 -1.94752 0
M  V30 716 C 69.9186 1.51826 -0.849989 0
M  V30 717 O 71.0946 1.6515 -1.15271 0
M  V30 718 C 68.1596 2.63968 -2.24771 0
M  V30 719 C 67.2206 2.51331 -3.48039 0
M  V30 720 C 66.4536 3.78148 -3.76616 0
M  V30 721 O 66.6766 4.80722 -3.07022 0
M  V30 722 O 65.6106 3.75857 -4.70123 0
M  V30 723 H 69.4366 1.0083 -2.86474 0
M  V30 724 H 67.0216 0.433547 -1.42971 0
M  V30 725 H 68.9036 3.42633 -2.45318 0
M  V30 726 H 67.5786 2.9364 -1.36225 0
M  V30 727 H 66.4856 1.709 -3.32782 0
M  V30 728 H 67.8186 2.26601 -4.36936 0
M  V30 729 N 69.4707 1.49531 0.497807 0
M  V30 730 C 70.8817 1.52344 1.07927 0
M  V30 731 C 71.2327 0.311469 1.93712 0
M  V30 732 O 70.3577 -0.578405 2.08527 0
M  V30 733 C 70.9527 2.76062 1.96405 0
M  V30 734 C 69.5117 2.81643 2.49709 0
M  V30 735 C 68.6587 2.46299 1.27404 0
M  V30 736 H 71.6097 1.56182 0.281576 0
M  V30 737 H 71.6307 2.56405 2.81135 0
M  V30 738 H 71.1427 3.64254 1.33943 0
M  V30 739 H 69.2437 1.97739 3.15801 0
M  V30 740 H 69.3567 3.83891 2.86643 0
M  V30 741 H 67.7207 1.98148 1.60029 0
M  V30 742 H 68.5037 3.36769 0.66645 0
M  V30 743 N 70.9488 -0.749086 1.3866 0
M  V30 744 C 72.1888 -1.52112 1.36534 0
M  V30 745 C 72.5528 -1.91951 -0.0432316 0
M  V30 746 O 73.7538 -2.68132 -0.189396 0
M  V30 747 C 72.0248 -2.73704 2.29828 0
M  V30 748 S 73.5838 -3.63519 2.45763 0
M  V30 749 H 70.4018 -0.520482 0.484375 0
M  V30 750 H 73.0038 -0.878963 1.74627 0
M  V30 751 H 71.7078 -2.42552 3.31054 0
M  V30 752 H 71.2388 -3.4286 1.929 0
M  V30 753 H 73.2538 -4.66712 1.68505 0
M  V30 754 N 72.4269 -1.23603 -0.977757 0
M  V30 755 C 73.6519 -1.09735 -1.75991 0
M  V30 756 C 74.0769 0.346858 -1.84874 0
M  V30 757 O 73.4349 1.25093 -1.3123 0
M  V30 758 C 73.4829 -1.73051 -3.16363 0
M  V30 759 O 72.5869 -0.994452 -4.0023 0
M  V30 760 H 71.9279 -0.384476 -0.541364 0
M  V30 761 H 74.4579 -1.6371 -1.2272 0
M  V30 762 H 74.4679 -1.78398 -3.66931 0
M  V30 763 H 73.1429 -2.78137 -3.09213 0
M  V30 764 H 71.7199 -1.01812 -3.58732 0
M  V30 765 N 73.905 1.17692 -1.04816 0
M  V30 766 C 75.316 1.69501 -0.782698 0
M  V30 767 C 75.667 1.83456 0.695577 0
M  V30 768 O 74.792 1.51942 1.54086 0
M  V30 769 C 75.387 3.07874 -1.41419 0
M  V30 770 C 73.946 3.56864 -1.19686 0
M  V30 771 C 73.093 2.3322 -1.50012 0
M  V30 772 H 76.044 1.02262 -1.2136 0
M  V30 773 H 76.065 3.71528 -0.821428 0
M  V30 774 H 75.577 2.97685 -2.49009 0
M  V30 775 H 73.678 3.72337 -0.140043 0
M  V30 776 H 73.791 4.39851 -1.89916 0
M  V30 777 H 72.155 2.37501 -0.920071 0
M  V30 778 H 72.938 2.25644 -2.58727 0
M  V30 779 N 75.3831 0.828654 1.34056 0
M  V30 780 C 76.6301 0.419458 1.98108 0
M  V30 781 C 76.9581 -1.01886 1.65679 0
M  V30 782 O 76.2131 -1.72539 0.923512 0
M  V30 783 C 76.5121 0.575226 3.52741 0
M  V30 784 C 76.1781 1.98012 4.05095 0
M  V30 785 C 74.8401 2.36442 4.19104 0
M  V30 786 C 77.1921 2.89824 4.33188 0
M  V30 787 C 74.5201 3.66009 4.58535 0
M  V30 788 C 76.8721 4.1886 4.74066 0
M  V30 789 C 75.5361 4.5726 4.86281 0
M  V30 790 H 74.8061 0.153491 0.724929 0
M  V30 791 H 77.4531 1.05371 1.59904 0
M  V30 792 H 75.7581 -0.142385 3.91541 0
M  V30 793 H 77.4551 0.239057 4.00287 0
M  V30 794 H 74.0451 1.67162 3.94658 0
M  V30 795 H 78.2291 2.61375 4.21897 0
M  V30 796 H 73.4851 3.95579 4.66184 0
M  V30 797 H 77.6591 4.90086 4.94761 0
M  V30 798 H 75.2861 5.57707 5.16592 0
M  V30 799 N 76.8612 -1.46375 0.584142 0
M  V30 800 C 78.2722 -1.86031 0.157959 0
M  V30 801 C 78.6232 -1.48753 -1.27933 0
M  V30 802 O 77.7482 -0.903098 -1.96655 0
M  V30 803 C 78.3432 -3.37642 0.279892 0
M  V30 804 C 76.9022 -3.76289 -0.09143 0
M  V30 805 C 76.0492 -2.7039 0.615178 0
M  V30 806 H 79.0002 -1.37509 0.792274 0
M  V30 807 H 79.0212 -3.77275 -0.494364 0
M  V30 808 H 78.5332 -3.64742 1.32607 0
M  V30 809 H 76.6342 -3.54806 -1.13769 0
M  V30 810 H 76.7472 -4.78246 0.285886 0
M  V30 811 H 75.1112 -2.5464 0.0552833 0
M  V30 812 H 75.8942 -3.0033 1.66303 0
M  V30 813 N 78.3393 -0.321999 -1.54275 0
M  V30 814 C 79.2713 0.578671 -2.21775 0
M  V30 815 C 80.2843 1.08109 -1.21722 0
M  V30 816 O 81.4733 0.994938 -1.482 0
M  V30 817 C 78.5733 1.80661 -2.86731 0
M  V30 818 C 77.7463 1.44314 -4.12907 0
M  V30 819 C 76.8053 2.52845 -4.61472 0
M  V30 820 O 75.8313 2.17054 -5.2619 0
M  V30 821 N 77.0333 3.83748 -4.35566 0
M  V30 822 H 79.7983 0.000709447 -2.997 0
M  V30 823 H 77.3593 -0.145132 -1.61248 0
M  V30 824 H 79.3513 2.52655 -3.16145 0
M  V30 825 H 77.9213 2.29245 -2.12521 0
M  V30 826 H 77.1413 0.554906 -3.90275 0
M  V30 827 H 78.4293 1.17598 -4.95023 0
M  V30 828 H 77.8273 4.15625 -3.83761 0
M  V30 829 H 76.3843 4.51977 -4.69638 0
M  V30 830 N 79.8174 1.5752 -0.0501392 0
M  V30 831 C 80.7474 2.14502 0.922566 0
M  V30 832 C 81.7284 1.06642 1.3252 0
M  V30 833 O 82.9134 1.34577 1.4001 0
M  V30 834 C 80.0434 2.68916 2.19776 0
M  V30 835 C 78.9974 3.8175 1.93523 0
M  V30 836 C 78.3234 4.22677 3.27487 0
M  V30 837 C 79.6234 5.06932 1.25765 0
M  V30 838 H 81.3174 2.9603 0.447952 0
M  V30 839 H 78.8634 1.42401 0.214024 0
M  V30 840 H 80.8164 3.07419 2.88222 0
M  V30 841 H 79.5404 1.84578 2.69441 0
M  V30 842 H 78.1994 3.43718 1.27489 0
M  V30 843 H 77.8474 3.35291 3.74952 0
M  V30 844 H 77.5474 4.98725 3.1072 0
M  V30 845 H 79.0714 4.63779 3.97166 0
M  V30 846 H 80.4854 5.42888 1.84244 0
M  V30 847 H 78.8824 5.88116 1.19328 0
M  V30 848 H 79.9524 4.84337 0.233536 0
M  V30 849 N 81.2955 -0.223234 1.56011 0
M  V30 850 C 82.5425 -0.947875 1.78946 0
M  V30 851 C 82.8705 -1.844 0.618608 0
M  V30 852 O 82.1255 -1.91629 -0.397093 0
M  V30 853 C 82.4245 -1.81948 3.0762 0
M  V30 854 C 82.0905 -1.07672 4.37856 0
M  V30 855 C 80.7525 -0.871544 4.73242 0
M  V30 856 C 83.1045 -0.552081 5.18268 0
M  V30 857 C 80.4325 -0.129791 5.86556 0
M  V30 858 C 82.7845 0.17632 6.32354 0
M  V30 859 C 81.4485 0.39277 6.66343 0
M  V30 860 H 80.7185 -0.346852 0.654809 0
M  V30 861 H 83.3655 -0.216171 1.90276 0
M  V30 862 H 81.6705 -2.61899 2.91404 0
M  V30 863 H 83.3675 -2.38227 3.22566 0
M  V30 864 H 79.9575 -1.24662 4.1007 0
M  V30 865 H 84.1415 -0.698076 4.91366 0
M  V30 866 H 79.3975 0.048153 6.11381 0
M  V30 867 H 83.5715 0.590367 6.93893 0
M  V30 868 H 81.1985 0.969466 7.53993 0
M  V30 869 N 82.7736 -1.49793 -0.48987 0
M  V30 870 C 83.7036 -1.70201 -1.59856 0
M  V30 871 C 84.6846 -0.55076 -1.60937 0
M  V30 872 O 85.8696 -0.787841 -1.77501 0
M  V30 873 C 82.9996 -1.77882 -2.98287 0
M  V30 874 C 81.9536 -2.92907 -3.12073 0
M  V30 875 C 81.2796 -2.85712 -4.51965 0
M  V30 876 C 82.5796 -4.3369 -2.91051 0
M  V30 877 H 84.2736 -2.63025 -1.43032 0
M  V30 878 H 81.8196 -1.26574 -0.686664 0
M  V30 879 H 83.7726 -1.90744 -3.75759 0
M  V30 880 H 82.4966 -0.816653 -3.16225 0
M  V30 881 H 81.1556 -2.79665 -2.37029 0
M  V30 882 H 80.8036 -1.8738 -4.66795 0
M  V30 883 H 80.5036 -3.62921 -4.62128 0
M  V30 884 H 82.0276 -3.00598 -5.31482 0
M  V30 885 H 83.4416 -4.47555 -3.58284 0
M  V30 886 H 81.8386 -5.12205 -3.12675 0
M  V30 887 H 82.9086 -4.47362 -1.87071 0
M  V30 888 N 84.2517 0.741722 -1.39055 0
M  V30 889 C 85.2147 1.83733 -1.37021 0
M  V30 890 C 86.2147 1.58542 -0.268534 0
M  V30 891 O 87.4047 1.66067 -0.526076 0
M  V30 892 C 84.5367 3.2141 -1.13617 0
M  V30 893 H 85.7297 1.86941 -2.34506 0
M  V30 894 H 83.2827 0.944676 -1.24521 0
M  V30 895 H 84.0177 3.23865 -0.167863 0
M  V30 896 H 83.8027 3.4109 -1.93391 0
M  V30 897 H 85.2927 4.01477 -1.14918 0
M  V30 898 N 85.7298 1.2412 0.971189 0
M  V30 899 C 86.6598 1.05508 2.08304 0
M  V30 900 C 87.6408 -0.0308864 1.70072 0
M  V30 901 O 88.8258 0.135521 1.93727 0
M  V30 902 C 85.9558 0.655365 3.4106 0
M  V30 903 C 84.9098 1.68971 3.93234 0
M  V30 904 C 84.2358 1.14516 5.22293 0
M  V30 905 C 85.5358 3.08487 4.21465 0
M  V30 906 H 87.2298 1.98507 2.24132 0
M  V30 907 H 84.7758 0.955821 1.07704 0
M  V30 908 H 86.7288 0.51217 4.18276 0
M  V30 909 H 85.4528 -0.31032 3.25122 0
M  V30 910 H 84.1118 1.82106 3.18171 0
M  V30 911 H 83.7598 0.170189 5.02712 0
M  V30 912 H 83.4598 1.83635 5.58168 0
M  V30 913 H 84.9838 1.01401 6.02121 0
M  V30 914 H 86.3978 2.98601 4.89398 0
M  V30 915 H 84.7948 3.74926 4.68562 0
M  V30 916 H 85.8648 3.56787 3.28376 0
M  V30 917 N 87.2079 -1.17134 1.05439 0
M  V30 918 C 88.4379 -1.91094 0.785274 0
M  V30 919 C 88.8459 -1.77198 -0.663142 0
M  V30 920 O 88.1889 -1.10835 -1.46497 0
M  V30 921 C 88.2509 -3.42594 1.08949 0
M  V30 922 C 87.9149 -3.80274 2.53458 0
M  V30 923 C 88.9119 -3.82912 3.51673 0
M  V30 924 C 86.5969 -4.11162 2.88532 0
M  V30 925 C 88.5909 -4.15913 4.83006 0
M  V30 926 C 86.2779 -4.43831 4.20068 0
M  V30 927 C 87.2759 -4.46185 5.17115 0
M  V30 928 O 86.9639 -4.78083 6.46291 0
M  V30 929 H 86.6959 -0.613073 0.284811 0
M  V30 930 H 89.2499 -1.49461 1.40893 0
M  V30 931 H 87.4799 -3.84534 0.408741 0
M  V30 932 H 89.1689 -3.97817 0.805991 0
M  V30 933 H 89.9349 -3.5917 3.25917 0
M  V30 934 H 85.8139 -4.085 2.13656 0
M  V30 935 H 89.3579 -4.17665 5.5875 0
M  V30 936 H 85.2549 -4.67037 4.45586 0
M  V30 937 H 86.0229 -4.9593 6.51149 0
M  V30 938 N 88.686 -0.835752 -1.33615 0
M  V30 939 C 89.963 -0.352017 -1.92406 0
M  V30 940 C 90.343 1.16225 -1.76224 0
M  V30 941 O 89.691 1.97526 -1.14873 0
M  V30 942 C 89.901 -0.795485 -3.39813 0
M  V30 943 C 91.249 -0.801703 -4.16963 0
M  V30 944 O 92.273 -0.738889 -3.48452 0
M  V30 945 O 91.132 -0.886607 -5.3926 0
M  V30 946 H 88.226 -0.0989641 -0.821057 0
M  V30 947 H 90.772 -0.921397 -1.42507 0
M  V30 948 H 89.544 -1.83795 -3.45449 0
M  V30 949 H 89.167 -0.202505 -3.97084 0
M  V30 950 N 90.1641 1.46063 -0.591896 0
M  V30 951 C 91.4111 2.02338 -0.0809991 0
M  V30 952 C 91.7391 1.46228 1.28249 0
M  V30 953 O 90.9941 0.620818 1.85592 0
M  V30 954 C 91.2931 3.57391 0.0249813 0
M  V30 955 C 90.9591 4.32583 -1.27211 0
M  V30 956 C 89.6211 4.52844 -1.62745 0
M  V30 957 C 91.9731 4.75687 -2.13005 0
M  V30 958 C 89.3011 5.13462 -2.83855 0
M  V30 959 C 91.6531 5.37644 -3.3335 0
M  V30 960 C 90.3171 5.5613 -3.69155 0
M  V30 961 H 89.5871 0.740407 -0.0296397 0
M  V30 962 H 92.2341 1.75321 -0.770374 0
M  V30 963 H 90.5391 3.83597 0.797537 0
M  V30 964 H 92.2361 3.98621 0.436184 0
M  V30 965 H 88.8261 4.17116 -0.985499 0
M  V30 966 H 93.0101 4.59782 -1.86855 0
M  V30 967 H 88.2661 5.25965 -3.11722 0
M  V30 968 H 92.4401 5.7 -4.00092 0
M  V30 969 H 90.0671 6.0287 -4.63089 0
M  V30 970 N 91.6422 0.330177 1.54103 0
M  V30 971 C 92.8702 -0.272179 2.05102 0
M  V30 972 C 93.2852 -1.45267 1.20595 0
M  V30 973 O 92.6422 -1.8094 0.238144 0
M  V30 974 C 92.6932 -0.70023 3.54653 0
M  V30 975 O 92.4142 0.433301 4.35952 0
M  V30 976 C 93.9152 -1.3647 4.21771 0
M  V30 977 H 91.1352 -0.0549159 0.668749 0
M  V30 978 H 93.6792 0.478285 1.98828 0
M  V30 979 H 91.8342 -1.40066 3.61193 0
M  V30 980 H 92.2482 0.0947539 5.24414 0
M  V30 981 H 93.7222 -1.61509 5.27843 0
M  V30 982 H 94.1992 -2.31409 3.73292 0
M  V30 983 H 94.8052 -0.706675 4.19388 0
M  V30 984 N 93.1203 -1.57491 0.0584922 0
M  V30 985 C 94.0833 -2.1085 -0.898617 0
M  V30 986 C 95.0833 -1.02964 -1.23511 0
M  V30 987 O 96.2733 -1.29007 -1.17059 0
M  V30 988 C 93.4053 -2.59881 -2.20623 0
M  V30 989 H 94.5983 -2.96715 -0.435936 0
M  V30 990 H 92.1513 -1.55141 -0.190023 0
M  V30 991 H 92.8863 -1.77431 -2.71457 0
M  V30 992 H 92.6713 -3.38727 -1.97501 0
M  V30 993 H 94.1613 -3.01285 -2.89166 0
M  V30 994 N 94.5984 0.214957 -1.56127 0
M  V30 995 C 96.0144 0.564948 -1.49267 0
M  V30 996 C 96.2144 1.86827 -0.754838 0
M  V30 997 O 95.2704 2.50745 -0.297198 0
M  V30 998 C 96.5834 0.638071 -2.93852 0
M  V30 999 C 98.1314 0.728253 -3.0441 0
M  V30 1000 C 98.6064 0.832663 -4.50367 0
M  V30 1001 N 100.097 0.896712 -4.54437 0
M  V30 1002 C 100.832 0.997324 -5.6466 0
M  V30 1003 N 100.328 1.06147 -6.8462 0
M  V30 1004 N 102.121 1.03297 -5.52527 0
M  V30 1005 H 94.2724 -0.640211 -2.02522 0
M  V30 1006 H 96.5354 -0.225507 -0.920788 0
M  V30 1007 H 96.2414 -0.250126 -3.50809 0
M  V30 1008 H 96.1154 1.49947 -3.46115 0
M  V30 1009 H 98.5024 1.60689 -2.47514 0
M  V30 1010 H 98.5834 -0.158952 -2.55306 0
M  V30 1011 H 98.2274 -0.0415417 -5.07883 0
M  V30 1012 H 98.1574 1.73538 -4.97184 0
M  V30 1013 H 100.648 0.857188 -3.6805 0
M  V30 1014 H 100.961 1.1382 -7.64372 0
M  V30 1015 H 99.3064 1.03049 -6.87318 0
M  V30 1016 H 102.497 0.979558 -4.57736 0
M  V30 1017 H 102.67 1.10793 -6.38458 0
M  V30 1018 N 96.0765 1.50051 0.48192 0
M  V30 1019 C 97.3165 1.62128 1.24474 0
M  V30 1020 C 97.6805 0.309742 1.89485 0
M  V30 1021 O 98.8815 0.305854 2.67054 0
M  V30 1022 C 97.1525 2.76151 2.26882 0
M  V30 1023 S 98.7115 3.08297 3.12247 0
M  V30 1024 H 95.5295 0.571661 0.422759 0
M  V30 1025 H 98.1315 1.87791 0.54359 0
M  V30 1026 H 96.8355 3.69942 1.77683 0
M  V30 1027 H 96.3665 2.52541 3.0164 0
M  V30 1028 H 98.3815 2.51287 4.27866 0
M  V30 1029 N 97.5546 -0.734337 1.39446 0
M  V30 1030 C 98.8026 -1.49096 1.36436 0
M  V30 1031 C 99.1236 -1.94961 -0.0388255 0
M  V30 1032 O 98.3936 -1.69033 -0.990191 0
M  V30 1033 H 96.9736 -0.5531 0.502085 0
M  V30 1034 H 99.6356 -0.871725 1.74319 0
M  V30 1035 H 98.7316 -2.37276 2.02747 0
M  V30 1036 N 99.0327 -1.24633 -0.964593 0
M  V30 1037 C 100.281 -1.08573 -1.70459 0
M  V30 1038 C 100.602 0.375655 -1.91347 0
M  V30 1039 O 99.8717 1.26779 -1.49345 0
M  V30 1040 H 98.4517 -0.398784 -0.631649 0
M  V30 1041 H 101.114 -1.56601 -1.16026 0
M  V30 1042 H 100.21 -1.58623 -2.68785 0
M  V30 1043 N 100.511 1.16574 -1.06058 0
M  V30 1044 C 101.421 2.2452 -0.680282 0
M  V30 1045 C 102.437 1.71348 0.302604 0
M  V30 1046 O 103.613 2.00822 0.152513 0
M  V30 1047 C 100.678 3.46629 -0.0700315 0
M  V30 1048 C 99.7388 4.14849 -1.10448 0
M  V30 1049 C 98.9718 5.31129 -0.523256 0
M  V30 1050 O 99.1948 5.66514 0.664709 0
M  V30 1051 O 98.1288 5.88526 -1.26179 0
M  V30 1052 H 101.955 2.59355 -1.58015 0
M  V30 1053 H 99.5398 1.24043 -0.832694 0
M  V30 1054 H 101.422 4.20543 0.268667 0
M  V30 1055 H 100.097 3.13573 0.803353 0
M  V30 1056 H 99.0038 3.42916 -1.49532 0
M  V30 1057 H 100.337 4.51954 -1.94931 0
M  V30 1058 N 101.989 0.842826 1.3317 0
M  V30 1059 C 102.919 0.294028 2.31641 0
M  V30 1060 C 103.9 -0.600401 1.59151 0
M  V30 1061 O 105.085 -0.523124 1.87022 0
M  V30 1062 C 102.215 -0.528416 3.43257 0
M  V30 1063 C 101.169 0.27056 4.27144 0
M  V30 1064 C 100.495 -0.675881 5.30411 0
M  V30 1065 C 101.795 1.48981 5.00602 0
M  V30 1066 H 103.489 1.11681 2.77791 0
M  V30 1067 H 101.035 0.538478 1.33553 0
M  V30 1068 H 102.988 -0.922674 4.11175 0
M  V30 1069 H 101.712 -1.38445 2.95805 0
M  V30 1070 H 100.371 0.646427 3.60856 0
M  V30 1071 H 100.019 -1.52842 4.79216 0
M  V30 1072 H 99.7189 -0.145374 5.8742 0
M  V30 1073 H 101.243 -1.06757 6.01195 0
M  V30 1074 H 102.657 1.16849 5.61266 0
M  V30 1075 H 101.054 1.95739 5.6728 0
M  V30 1076 H 102.124 2.25746 4.29147 0
M  V30 1077 N 103.467 -1.45747 0.599634 0
M  V30 1078 C 104.692 -2.07178 0.0960198 0
M  V30 1079 C 105.117 -1.44268 -1.207 0
M  V30 1080 O 104.475 -0.532503 -1.73303 0
M  V30 1081 C 104.523 -3.60579 -0.0385348 0
M  V30 1082 O 103.627 -3.97713 -1.0908 0
M  V30 1083 H 102.968 -0.660251 0.0704593 0
M  V30 1084 H 105.498 -1.87124 0.827385 0
M  V30 1085 H 105.508 -4.07298 -0.239304 0
M  V30 1086 H 104.183 -4.05756 0.912947 0
M  V30 1087 H 102.76 -3.62678 -0.867135 0
M  V30 1088 N 104.945 -0.338344 -1.53925 0
M  V30 1089 C 106.191 0.260143 -2.01125 0
M  V30 1090 C 106.524 1.50617 -1.22589 0
M  V30 1091 O 105.799 1.91979 -0.312113 0
M  V30 1092 C 106.082 0.579499 -3.55407 0
M  V30 1093 C 105.935 -0.678264 -4.44657 0
M  V30 1094 C 107.254 1.39122 -4.17532 0
M  V30 1095 H 104.373 0.0930772 -0.731099 0
M  V30 1096 H 107.015 -0.457852 -1.84401 0
M  V30 1097 H 105.165 1.19118 -3.69788 0
M  V30 1098 H 106.837 -1.31631 -4.42121 0
M  V30 1099 H 105.08 -1.3042 -4.13731 0
M  V30 1100 H 105.751 -0.410143 -5.50474 0
M  V30 1101 H 108.227 0.874035 -4.06817 0
M  V30 1102 H 107.103 1.58342 -5.25565 0
M  V30 1103 H 107.364 2.39178 -3.71815 0
M  V30 1104 N 106.423 1.57458 -0.0668435 0
M  V30 1105 C 107.839 1.56947 0.289772 0
M  V30 1106 C 108.039 1.07584 1.70376 0
M  V30 1107 O 107.095 0.739486 2.41429 0
M  V30 1108 C 108.408 3.0052 0.103943 0
M  V30 1109 C 109.956 3.12517 0.173857 0
M  V30 1110 C 110.431 4.57997 0.0163682 0
M  V30 1111 N 111.922 4.63144 0.0721352 0
M  V30 1112 C 112.657 5.73394 -0.0253794 0
M  V30 1113 N 112.153 6.92576 -0.176133 0
M  V30 1114 N 113.946 5.62091 0.0313305 0
M  V30 1115 H 106.097 1.87863 -0.991027 0
M  V30 1116 H 108.36 0.86583 -0.38606 0
M  V30 1117 H 108.066 3.40729 -0.871572 0
M  V30 1118 H 107.94 3.67304 0.858366 0
M  V30 1119 H 110.327 2.72197 1.13985 0
M  V30 1120 H 110.408 2.48381 -0.611586 0
M  V30 1121 H 110.052 4.99005 -0.946374 0
M  V30 1122 H 109.982 5.20158 0.821153 0
M  V30 1123 H 112.473 3.77436 0.187263 0
M  V30 1124 H 112.786 7.72418 -0.242821 0
M  V30 1125 H 111.131 6.94678 -0.211429 0
M  V30 1126 H 114.322 4.67867 0.147773 0
M  V30 1127 H 114.495 6.47982 -0.048121 0
M  V30 1128 N 107.901 -0.206675 1.56239 0
M  V30 1129 C 109.317 -0.557025 1.49564 0
M  V30 1130 C 109.517 -1.86424 0.764735 0
M  V30 1131 O 108.573 -2.50584 0.310491 0
M  V30 1132 C 109.886 -0.622478 2.94186 0
M  V30 1133 C 111.434 -0.712099 3.04792 0
M  V30 1134 C 111.909 -0.808767 4.50803 0
M  V30 1135 N 113.4 -0.8726 4.54907 0
M  V30 1136 C 114.135 -0.967365 5.65181 0
M  V30 1137 N 113.631 -1.02515 6.85173 0
M  V30 1138 N 115.424 -1.00366 5.53067 0
M  V30 1139 H 107.575 0.650943 2.02179 0
M  V30 1140 H 109.838 0.230387 0.919579 0
M  V30 1141 H 109.544 0.268727 3.50672 0
M  V30 1142 H 109.418 -1.4811 3.46905 0
M  V30 1143 H 111.805 -1.59374 2.48363 0
M  V30 1144 H 111.886 0.172489 2.55218 0
M  V30 1145 H 111.53 0.0684754 5.07854 0
M  V30 1146 H 111.46 -1.70899 4.98098 0
M  V30 1147 H 113.951 -0.837657 3.68499 0
M  V30 1148 H 114.264 -1.09765 7.64965 0
M  V30 1149 H 112.609 -0.994026 6.87855 0
M  V30 1150 H 115.8 -0.95527 4.58249 0
M  V30 1151 H 115.973 -1.07405 6.39037 0
M  V30 1152 N 109.379 -1.50304 -0.473955 0
M  V30 1153 C 110.627 -1.60832 -1.22382 0
M  V30 1154 C 110.948 -0.30939 -1.9253 0
M  V30 1155 O 110.218 0.67296 -1.83978 0
M  V30 1156 H 108.798 -0.592652 -0.454723 0
M  V30 1157 H 111.46 -1.87068 -0.546968 0
M  V30 1158 H 110.556 -2.41803 -1.97327 0
M  V30 1159 N 110.857 0.726932 -1.39834 0
M  V30 1160 C 112.134 1.47902 -1.28001 0
M  V30 1161 C 112.514 2.1083 0.106789 0
M  V30 1162 O 111.862 1.99242 1.11869 0
M  V30 1163 C 112.072 2.52392 -2.41038 0
M  V30 1164 C 113.42 3.18546 -2.80737 0
M  V30 1165 O 114.444 2.62708 -2.40547 0
M  V30 1166 O 113.303 4.19604 -3.50135 0
M  V30 1167 H 110.397 0.657163 -0.502062 0
M  V30 1168 H 112.943 0.760071 -1.51727 0
M  V30 1169 H 111.715 2.04329 -3.33715 0
M  V30 1170 H 111.338 3.31837 -2.19021 0
M  V30 1171 N 112.336 1.25143 0.95797 0
M  V30 1172 C 113.752 1.01892 1.22842 0
M  V30 1173 C 113.952 -0.266311 1.99732 0
M  V30 1174 O 113.008 -0.979913 2.3271 0
M  V30 1175 C 114.321 2.24004 2.00606 0
M  V30 1176 C 115.869 2.28731 2.13662 0
M  V30 1177 C 116.344 3.5049 2.94823 0
M  V30 1178 N 117.835 3.50866 3.02403 0
M  V30 1179 C 118.57 4.4174 3.65586 0
M  V30 1180 N 118.066 5.42882 4.30408 0
M  V30 1181 N 119.859 4.29429 3.62694 0
M  V30 1182 H 112.01 2.07718 0.443493 0
M  V30 1183 H 114.273 0.912031 0.258657 0
M  V30 1184 H 113.979 3.17395 1.51503 0
M  V30 1185 H 113.853 2.26907 3.01319 0
M  V30 1186 H 116.24 1.35865 2.61963 0
M  V30 1187 H 116.321 2.29848 1.12265 0
M  V30 1188 H 115.965 4.43676 2.47213 0
M  V30 1189 H 115.895 3.46617 3.96439 0
M  V30 1190 H 118.386 2.777 2.56302 0
M  V30 1191 H 118.699 6.0844 4.76467 0
M  V30 1192 H 117.044 5.46758 4.29047 0
M  V30 1193 H 120.235 3.49643 3.11236 0
M  V30 1194 H 120.408 5.00448 4.1165 0
M  V30 1195 N 113.814 -1.1601 1.06675 0
M  V30 1196 C 114.744 -2.22688 0.702307 0
M  V30 1197 C 115.725 -1.67306 -0.307032 0
M  V30 1198 O 116.91 -1.93352 -0.181305 0
M  V30 1199 C 114.04 -3.47178 0.092038 0
M  V30 1200 C 112.994 -4.15477 1.02777 0
M  V30 1201 C 112.32 -5.33963 0.28061 0
M  V30 1202 C 113.62 -4.66019 2.35846 0
M  V30 1203 H 115.314 -2.53429 1.59419 0
M  V30 1204 H 112.86 -1.21813 0.767961 0
M  V30 1205 H 114.813 -4.21037 -0.174814 0
M  V30 1206 H 113.537 -3.15749 -0.834877 0
M  V30 1207 H 112.196 -3.43549 1.27944 0
M  V30 1208 H 111.844 -4.98788 -0.649545 0
M  V30 1209 H 111.544 -5.806 0.904258 0
M  V30 1210 H 113.068 -6.10596 0.021396 0
M  V30 1211 H 114.482 -5.3144 2.15045 0
M  V30 1212 H 112.879 -5.23293 2.93743 0
M  V30 1213 H 113.949 -3.82023 2.98641 0
M  V30 1214 N 115.292 -0.849877 -1.32721 0
M  V30 1215 C 116.532 -0.457146 -1.99222 0
M  V30 1216 C 116.896 0.968038 -1.6581 0
M  V30 1217 O 118.097 1.46507 -2.25364 0
M  V30 1218 C 116.368 -0.683966 -3.50794 0
M  V30 1219 S 117.927 -0.388095 -4.3708 0
M  V30 1220 H 114.745 -0.171464 -0.690015 0
M  V30 1221 H 117.347 -1.10155 -1.61512 0
M  V30 1222 H 116.051 -1.72038 -3.726 0
M  V30 1223 H 115.582 -0.0258086 -3.93392 0
M  V30 1224 H 117.597 0.787791 -4.89906 0
M  V30 1225 N 116.77 1.45427 -0.607355 0
M  V30 1226 C 117.733 2.28974 0.101693 0
M  V30 1227 C 118.733 1.39754 0.795329 0
M  V30 1228 O 119.923 1.61878 0.643527 0
M  V30 1229 C 117.055 3.20768 1.15414 0
M  V30 1230 H 118.248 2.93147 -0.632844 0
M  V30 1231 H 115.801 1.51945 -0.366391 0
M  V30 1232 H 116.536 2.61395 1.91945 0
M  V30 1233 H 116.321 3.86489 0.66098 0
M  V30 1234 H 117.811 3.83589 1.65073 0
M  V30 1235 N 118.248 0.346503 1.53744 0
M  V30 1236 C 119.178 -0.501193 2.28058 0
M  V30 1237 C 120.159 -1.10014 1.29734 0
M  V30 1238 O 121.344 -1.12097 1.58581 0
M  V30 1239 C 118.474 -1.65078 3.05559 0
M  V30 1240 C 117.428 -1.18003 4.11411 0
M  V30 1241 C 116.754 -2.41837 4.76884 0
M  V30 1242 C 118.054 -0.278394 5.21558 0
M  V30 1243 H 119.748 0.11875 2.99164 0
M  V30 1244 H 117.294 0.0585531 1.43881 0
M  V30 1245 H 119.247 -2.25028 3.56287 0
M  V30 1246 H 117.971 -2.29767 2.32109 0
M  V30 1247 H 116.63 -0.603331 3.61601 0
M  V30 1248 H 116.278 -3.0494 4.00026 0
M  V30 1249 H 115.978 -2.1102 5.48402 0
M  V30 1250 H 117.502 -3.02508 5.30397 0
M  V30 1251 H 118.916 -0.784823 5.67903 0
M  V30 1252 H 117.313 -0.0619707 6.00068 0
M  V30 1253 H 118.383 0.684677 4.80042 0
M  V30 1254 N 119.726 -1.57421 0.075193 0
M  V30 1255 C 120.636 -2.1642 -0.905511 0
M  V30 1256 C 121.652 -1.12828 -1.32461 0
M  V30 1257 O 122.828 -1.45109 -1.39661 0
M  V30 1258 C 119.893 -2.71693 -2.15369 0
M  V30 1259 C 118.954 -3.90171 -1.79068 0
M  V30 1260 C 118.187 -4.42798 -2.97936 0
M  V30 1261 O 118.41 -3.94416 -4.12058 0
M  V30 1262 O 117.344 -5.34085 -2.77555 0
M  V30 1263 H 121.17 -3.00588 -0.433626 0
M  V30 1264 H 118.755 -1.48664 -0.148067 0
M  V30 1265 H 120.637 -3.07104 -2.88557 0
M  V30 1266 H 119.312 -1.90582 -2.61649 0
M  V30 1267 H 118.219 -3.59606 -1.03122 0
M  V30 1268 H 119.552 -4.72584 -1.37569 0
M  V30 1269 N 121.204 0.198386 -1.56346 0
M  V30 1270 C 122.114 1.2664 -1.97483 0
M  V30 1271 C 123.13 1.49989 -0.882002 0
M  V30 1272 O 124.306 1.62668 -1.18748 0
M  V30 1273 C 121.371 2.59141 -2.30319 0
M  V30 1274 C 120.432 2.43892 -3.53292 0
M  V30 1275 C 119.665 3.70074 -3.84553 0
M  V30 1276 O 119.888 4.74101 -3.1715 0
M  V30 1277 O 118.822 3.658 -4.7799 0
M  V30 1278 H 122.648 0.947304 -2.88548 0
M  V30 1279 H 120.233 0.403123 -1.43859 0
M  V30 1280 H 122.115 3.37352 -2.5253 0
M  V30 1281 H 120.79 2.90684 -1.42423 0
M  V30 1282 H 119.697 1.63803 -3.36332 0
M  V30 1283 H 121.03 2.17282 -4.41644 0
M  V30 1284 N 122.682 1.50554 0.465978 0
M  V30 1285 C 123.93 1.61479 1.21528 0
M  V30 1286 C 124.251 0.319596 1.92363 0
M  V30 1287 O 123.521 -0.663194 1.84333 0
M  V30 1288 H 122.101 0.595055 0.451573 0
M  V30 1289 H 124.763 1.87355 0.53704 0
M  V30 1290 H 123.859 2.42846 1.96042 0
M  V30 1291 N 124.16 -0.719506 1.40217 0
M  V30 1292 C 125.408 -1.47641 1.3801 0
M  V30 1293 C 125.729 -1.94992 -0.018145 0
M  V30 1294 O 124.999 -1.70073 -0.972207 0
M  V30 1295 H 123.579 -0.547744 0.507923 0
M  V30 1296 H 126.241 -0.853187 1.75233 0
M  V30 1297 H 125.337 -2.35112 2.05253 0
M  V30 1298 N 125.638 -1.25649 -0.95132 0
M  V30 1299 C 126.886 -1.10375 -1.69298 0
M  V30 1300 C 127.207 0.355339 -1.91735 0
M  V30 1301 O 126.477 1.25188 -1.50681 0
M  V30 1302 H 125.057 -0.405461 -0.627384 0
M  V30 1303 H 127.719 -1.57823 -1.14358 0
M  V30 1304 H 126.815 -1.61465 -2.67087 0
M  V30 1305 N 127.117 1.15442 -1.07289 0
M  V30 1306 C 128.347 1.89821 -0.815576 0
M  V30 1307 C 128.755 1.7823 0.634867 0
M  V30 1308 O 128.098 1.13152 1.44715 0
M  V30 1309 C 128.16 3.40817 -1.14385 0
M  V30 1310 C 127.824 3.76193 -2.59476 0
M  V30 1311 C 128.821 3.77269 -3.57721 0
M  V30 1312 C 126.506 4.0652 -2.95037 0
M  V30 1313 C 128.5 4.08176 -4.89562 0
M  V30 1314 C 126.187 4.37092 -4.27076 0
M  V30 1315 C 127.185 4.37902 -5.24148 0
M  V30 1316 O 126.873 4.67741 -6.53815 0
M  V30 1317 H 126.605 0.608465 -0.294528 0
M  V30 1318 H 129.159 1.472 -1.43252 0
M  V30 1319 H 127.389 3.83835 -0.469865 0
M  V30 1320 H 129.078 3.96485 -0.869179 0
M  V30 1321 H 129.844 3.5394 -3.3159 0
M  V30 1322 H 125.723 4.05049 -2.20128 0
M  V30 1323 H 129.267 4.08723 -5.65324 0
M  V30 1324 H 125.164 4.59889 -4.5296 0
M  V30 1325 H 125.932 4.85509 -6.58957 0
M  V30 1326 N 128.595 0.856903 1.32268 0
M  V30 1327 C 129.844 0.457599 1.96441 0
M  V30 1328 C 130.157 -0.992426 1.68553 0
M  V30 1329 O 131.363 -1.49727 2.26482 0
M  V30 1330 C 129.819 0.767358 3.51624 0
M  V30 1331 C 129.427 2.23326 3.88367 0
M  V30 1332 C 131.171 0.435887 4.22256 0
M  V30 1333 C 129.078 2.48613 5.36606 0
M  V30 1334 H 128.008 0.167387 0.735185 0
M  V30 1335 H 130.659 1.048 1.5063 0
M  V30 1336 H 129.041 0.106367 3.95857 0
M  V30 1337 H 130.215 2.93623 3.55137 0
M  V30 1338 H 128.53 2.52948 3.30766 0
M  V30 1339 H 131.127 0.602202 5.31298 0
M  V30 1340 H 131.47 -0.622672 4.11617 0
M  V30 1341 H 132.003 1.05286 3.83614 0
M  V30 1342 H 128.742 3.53101 5.52268 0
M  V30 1343 H 128.262 1.82896 5.71235 0
M  V30 1344 H 129.941 2.32676 6.03714 0
M  V30 1345 N 130.073 -1.45103 0.615059 0
M  V30 1346 C 131.32 -2.02183 0.113179 0
M  V30 1347 C 131.648 -1.48249 -1.25906 0
M  V30 1348 O 130.903 -0.650265 -1.84581 0
M  V30 1349 C 131.202 -3.57386 0.0318797 0
M  V30 1350 C 130.868 -4.30505 1.34077 0
M  V30 1351 C 129.53 -4.50197 1.69929 0
M  V30 1352 C 131.882 -4.72238 2.20546 0
M  V30 1353 C 129.21 -5.08881 2.91988 0
M  V30 1354 C 131.562 -5.32272 3.41861 0
M  V30 1355 C 130.226 -5.50187 3.77956 0
M  V30 1356 H 129.496 -0.739842 0.0414151 0
M  V30 1357 H 132.143 -1.74073 0.798168 0
M  V30 1358 H 130.448 -3.84817 -0.736409 0
M  V30 1359 H 132.145 -3.99264 -0.372712 0
M  V30 1360 H 128.735 -4.15496 1.05173 0
M  V30 1361 H 132.919 -4.56751 1.94146 0
M  V30 1362 H 128.175 -5.20939 3.2005 0
M  V30 1363 H 132.349 -5.63563 4.09109 0
M  V30 1364 H 129.976 -5.95427 4.72622 0
M  V30 1365 N 131.551 -0.354651 -1.53558 0
M  V30 1366 C 132.514 0.484566 -2.24019 0
M  V30 1367 C 133.514 1.01861 -1.24422 0
M  V30 1368 O 134.704 0.906097 -1.4878 0
M  V30 1369 C 131.836 1.67615 -2.96847 0
M  V30 1370 H 133.029 -0.131843 -2.9961 0
M  V30 1371 H 130.582 -0.106165 -1.55939 0
M  V30 1372 H 131.317 2.33095 -2.25471 0
M  V30 1373 H 131.102 1.30029 -3.69912 0
M  V30 1374 H 132.592 2.27114 -3.50441 0
M  V30 1375 N 133.029 1.57378 -0.0835403 0
M  V30 1376 C 134.445 1.57246 0.273109 0
M  V30 1377 C 134.645 1.09385 1.69225 0
M  V30 1378 O 133.701 0.765051 2.40631 0
M  V30 1379 C 135.014 3.00614 0.0720628 0
M  V30 1380 C 136.562 3.12684 0.1407 0
M  V30 1381 C 137.037 4.57989 -0.0322094 0
M  V30 1382 N 138.528 4.63194 0.0230085 0
M  V30 1383 C 139.263 5.73335 -0.0861941 0
M  V30 1384 N 138.759 6.9235 -0.24958 0
M  V30 1385 N 140.552 5.62093 -0.0282886 0
M  V30 1386 H 132.703 1.86801 -1.0109 0
M  V30 1387 H 134.966 0.861687 -0.395222 0
M  V30 1388 H 134.672 3.39786 -0.907662 0
M  V30 1389 H 134.546 3.68193 0.81936 0
M  V30 1390 H 136.933 2.73391 1.11092 0
M  V30 1391 H 137.014 2.47719 -0.637896 0
M  V30 1392 H 136.658 4.97973 -0.999247 0
M  V30 1393 H 136.588 5.21 0.765937 0
M  V30 1394 H 139.079 3.77613 0.14722 0
M  V30 1395 H 139.392 7.72117 -0.324733 0
M  V30 1396 H 137.737 6.94415 -0.285097 0
M  V30 1397 H 140.928 4.67997 0.0981408 0
M  V30 1398 H 141.101 6.47895 -0.116845 0
M  V30 1399 N 134.507 -0.190092 1.56449 0
M  V30 1400 C 135.923 -0.54113 1.50146 0
M  V30 1401 C 136.123 -1.85603 0.784465 0
M  V30 1402 O 135.179 -2.5024 0.337051 0
M  V30 1403 C 136.492 -0.591241 2.9483 0
M  V30 1404 C 138.04 -0.679732 3.0553 0
M  V30 1405 C 138.515 -0.760908 4.51635 0
M  V30 1406 N 140.006 -0.824302 4.55806 0
M  V30 1407 C 140.741 -0.907365 5.66175 0
M  V30 1408 N 140.237 -0.952422 6.86222 0
M  V30 1409 N 142.03 -0.94494 5.541 0
M  V30 1410 H 134.181 0.67235 2.01478 0
M  V30 1411 H 136.444 0.240127 0.917084 0
M  V30 1412 H 136.15 0.305905 3.50367 0
M  V30 1413 H 136.024 -1.44422 3.48457 0
M  V30 1414 H 138.411 -1.56731 2.50039 0
M  V30 1415 H 138.492 0.199549 2.5502 0
M  V30 1416 H 138.136 0.122336 5.07753 0
M  V30 1417 H 138.066 -1.65606 4.99882 0
M  V30 1418 H 140.557 -0.798526 3.69367 0
M  V30 1419 H 140.87 -1.01645 7.66086 0
M  V30 1420 H 139.215 -0.921014 6.8887 0
M  V30 1421 H 142.406 -0.906612 4.59236 0
M  V30 1422 H 142.579 -1.00622 6.4014 0
M  V30 1423 N 135.985 -1.50799 -0.457987 0
M  V30 1424 C 136.915 -1.73553 -1.5621 0
M  V30 1425 C 137.896 -0.584774 -1.59732 0
M  V30 1426 O 139.081 -0.825314 -1.7579 0
M  V30 1427 C 136.211 -1.84169 -2.94447 0
M  V30 1428 C 135.165 -2.99461 -3.0579 0
M  V30 1429 C 134.491 -2.95235 -4.45803 0
M  V30 1430 C 135.791 -4.39766 -2.81786 0
M  V30 1431 H 137.485 -2.66 -1.37421 0
M  V30 1432 H 135.031 -1.28002 -0.659662 0
M  V30 1433 H 136.984 -1.98672 -3.71628 0
M  V30 1434 H 135.708 -0.883545 -3.14422 0
M  V30 1435 H 134.367 -2.8463 -2.31044 0
M  V30 1436 H 134.015 -1.97239 -4.62715 0
M  V30 1437 H 133.715 -3.72642 -4.54326 0
M  V30 1438 H 135.239 -3.11803 -5.24987 0
M  V30 1439 H 136.653 -4.55054 -3.4871 0
M  V30 1440 H 135.05 -5.18722 -3.0174 0
M  V30 1441 H 136.12 -4.51229 -1.7754 0
M  V30 1442 N 137.463 0.71206 -1.40597 0
M  V30 1443 C 138.688 1.50617 -1.42581 0
M  V30 1444 C 139.113 1.88079 -0.0282102 0
M  V30 1445 O 138.471 1.53511 0.964579 0
M  V30 1446 C 138.519 2.7557 -2.3258 0
M  V30 1447 O 137.623 3.72414 -1.77148 0
M  V30 1448 H 136.964 0.453966 -0.484573 0
M  V30 1449 H 139.494 0.876649 -1.84868 0
M  V30 1450 H 139.504 3.2406 -2.47889 0
M  V30 1451 H 138.179 2.47639 -3.34138 0
M  V30 1452 H 136.756 3.31276 -1.71204 0
M  V30 1453 N 138.941 1.26152 0.944643 0
M  V30 1454 C 140.189 1.11271 1.6871 0
M  V30 1455 C 140.51 -0.345166 1.91921 0
M  V30 1456 O 139.78 -1.24387 1.51343 0
M  V30 1457 H 138.36 0.408783 0.625224 0
M  V30 1458 H 141.022 1.58427 1.1352 0
M  V30 1459 H 140.118 1.62879 2.66227 0
M  V30 1460 N 140.419 -1.14872 1.07899 0
M  V30 1461 C 141.351 -2.19425 0.662231 0
M  V30 1462 C 142.364 -1.60231 -0.288079 0
M  V30 1463 O 143.553 -1.78336 -0.076534 0
M  V30 1464 C 140.653 -3.38867 -0.0470695 0
M  V30 1465 C 139.826 -4.27597 0.920831 0
M  V30 1466 C 138.885 -5.25616 0.247805 0
M  V30 1467 O 137.911 -5.62189 0.890599 0
M  V30 1468 N 139.113 -5.71746 -1.00435 0
M  V30 1469 H 141.878 -2.55797 1.56166 0
M  V30 1470 H 139.439 -1.30042 0.964404 0
M  V30 1471 H 141.431 -4.01497 -0.50813 0
M  V30 1472 H 140.001 -3.00864 -0.848523 0
M  V30 1473 H 139.221 -3.61982 1.56087 0
M  V30 1474 H 140.509 -4.83748 1.57688 0
M  V30 1475 H 139.907 -5.44153 -1.54642 0
M  V30 1476 H 138.464 -6.36389 -1.40899 0
M  V30 1477 N 141.898 -0.863906 -1.31812 0
M  V30 1478 C 143.309 -0.52522 -1.7916 0
M  V30 1479 C 143.66 0.957518 -1.71248 0
M  V30 1480 O 142.785 1.74734 -1.27659 0
M  V30 1481 C 143.38 -0.9466 -3.25307 0
M  V30 1482 C 141.939 -0.659668 -3.70574 0
M  V30 1483 C 141.086 -1.14126 -2.52726 0
M  V30 1484 H 144.037 -1.05022 -1.1898 0
M  V30 1485 H 144.058 -0.266766 -3.79564 0
M  V30 1486 H 143.57 -2.02579 -3.31034 0
M  V30 1487 H 141.671 0.408416 -3.70355 0
M  V30 1488 H 141.784 -1.23245 -4.62977 0
M  V30 1489 H 140.148 -0.561216 -2.4844 0
M  V30 1490 H 140.931 -2.22775 -2.61201 0
M  V30 1491 N 143.376 1.44774 -0.622745 0
M  V30 1492 C 144.601 2.06999 -0.128968 0
M  V30 1493 C 145.026 1.4617 1.1839 0
M  V30 1494 O 144.384 0.560007 1.72434 0
M  V30 1495 C 144.432 3.60595 -0.0188351 0
M  V30 1496 O 143.536 3.99398 1.02739 0
M  V30 1497 H 142.877 0.659047 -0.0809544 0
M  V30 1498 H 145.407 1.85784 -0.85705 0
M  V30 1499 H 145.417 4.07627 0.174476 0
M  V30 1500 H 144.092 4.04252 -0.977384 0
M  V30 1501 H 142.669 3.64011 0.809326 0
M  V30 1502 N 144.854 0.36279 1.53368 0
M  V30 1503 C 145.817 -0.472679 2.24273 0
M  V30 1504 C 146.817 -1.012 1.24961 0
M  V30 1505 O 148.007 -0.898194 1.49259 0
M  V30 1506 C 145.139 -1.66039 2.97731 0
M  V30 1507 H 146.332 0.14773 2.99536 0
M  V30 1508 H 143.885 0.114434 1.55881 0
M  V30 1509 H 144.62 -2.31896 2.26704 0
M  V30 1510 H 144.405 -1.28066 3.70596 0
M  V30 1511 H 145.895 -2.25252 3.51641 0
M  V30 1512 N 146.332 -1.57332 0.0918853 0
M  V30 1513 C 147.58 -1.93853 -0.571446 0
M  V30 1514 C 147.901 -0.974212 -1.6892 0
M  V30 1515 O 147.171 -0.0257254 -1.95883 0
M  V30 1516 H 145.751 -0.715666 -0.214082 0
M  V30 1517 H 148.413 -1.94287 0.154464 0
M  V30 1518 H 147.509 -2.96191 -0.983729 0
M  V30 1519 N 147.81 0.181792 -1.56548 0
M  V30 1520 C 148.74 1.22765 -1.98623 0
M  V30 1521 C 149.721 1.46747 -0.860189 0
M  V30 1522 O 150.906 1.58259 -1.12551 0
M  V30 1523 C 148.036 2.56894 -2.33715 0
M  V30 1524 C 146.99 2.475 -3.49182 0
M  V30 1525 C 146.316 3.86023 -3.69986 0
M  V30 1526 C 147.616 1.98866 -4.82959 0
M  V30 1527 H 149.31 0.877942 -2.86239 0
M  V30 1528 H 146.856 0.42088 -1.37712 0
M  V30 1529 H 148.809 3.30253 -2.61746 0
M  V30 1530 H 147.533 2.93632 -1.42997 0
M  V30 1531 H 146.192 1.76596 -3.21262 0
M  V30 1532 H 145.84 4.20136 -2.76576 0
M  V30 1533 H 145.54 3.80609 -4.47672 0
M  V30 1534 H 147.064 4.60984 -4.00407 0
M  V30 1535 H 148.478 2.61992 -5.09934 0
M  V30 1536 H 146.875 2.04424 -5.64208 0
M  V30 1537 H 147.945 0.942465 -4.75653 0
M  V30 1538 N 149.288 1.51039 0.449983 0
M  V30 1539 C 150.534 1.63322 1.20223 0
M  V30 1540 C 150.867 0.34241 1.91158 0
M  V30 1541 O 150.142 -0.657344 1.83055 0
M  V30 1542 C 150.425 2.82801 2.22925 0
M  V30 1543 C 150.278 4.21823 1.56157 0
M  V30 1544 C 151.597 2.97807 3.24035 0
M  V30 1545 H 148.716 0.594407 0.435718 0
M  V30 1546 H 151.358 1.83489 0.493136 0
M  V30 1547 H 149.508 2.65738 2.834 0
M  V30 1548 H 151.18 4.50526 0.991162 0
M  V30 1549 H 149.423 4.25105 0.864172 0
M  V30 1550 H 150.094 5.01391 2.30891 0
M  V30 1551 H 152.57 3.13497 2.73603 0
M  V30 1552 H 151.446 3.82992 3.93202 0
M  V30 1553 H 151.707 2.09328 3.89402 0
M  V30 1554 N 150.766 -0.704594 1.40972 0
M  V30 1555 C 152.177 -1.28418 1.3552 0
M  V30 1556 C 152.528 -1.96171 0.0339434 0
M  V30 1557 O 151.653 -1.98231 -0.867944 0
M  V30 1558 C 152.248 -2.33528 2.45459 0
M  V30 1559 C 150.807 -2.87085 2.43433 0
M  V30 1560 C 149.954 -1.61007 2.2577 0
M  V30 1561 H 152.905 -0.499963 1.50619 0
M  V30 1562 H 152.926 -3.14619 2.13998 0
M  V30 1563 H 152.438 -1.84187 3.41609 0
M  V30 1564 H 150.539 -3.40626 1.51013 0
M  V30 1565 H 150.652 -3.3813 3.39419 0
M  V30 1566 H 149.016 -1.86482 1.73483 0
M  V30 1567 H 149.799 -1.13675 3.23933 0
M  V30 1568 N 152.244 -1.26651 -0.937939 0
M  V30 1569 C 153.493 -1.11775 -1.67897 0
M  V30 1570 C 153.806 0.33794 -1.92659 0
M  V30 1571 O 155.012 0.607434 -2.64618 0
M  V30 1572 C 153.468 -1.9523 -3.02346 0
M  V30 1573 C 153.076 -3.45393 -2.8532 0
M  V30 1574 C 154.82 -1.88972 -3.80118 0
M  V30 1575 C 152.727 -4.21083 -4.15263 0
M  V30 1576 H 151.657 -0.414696 -0.629717 0
M  V30 1577 H 154.308 -1.50988 -1.04283 0
M  V30 1578 H 152.69 -1.48853 -3.66959 0
M  V30 1579 H 153.864 -3.99561 -2.29537 0
M  V30 1580 H 152.179 -3.52921 -2.20988 0
M  V30 1581 H 154.776 -2.42805 -4.76392 0
M  V30 1582 H 155.119 -0.86113 -4.07296 0
M  V30 1583 H 155.652 -2.33189 -3.22285 0
M  V30 1584 H 152.391 -5.24425 -3.93267 0
M  V30 1585 H 151.911 -3.71695 -4.70747 0
M  V30 1586 H 153.59 -4.29706 -4.83696 0
M  V30 1587 N 153.722 1.14298 -1.08507 0
M  V30 1588 C 154.95 1.89219 -0.836876 0
M  V30 1589 C 155.365 1.78638 0.611054 0
M  V30 1590 O 154.722 1.14643 1.41998 0
M  V30 1591 C 154.773 3.39158 -1.25116 0
M  V30 1592 O 154.494 3.49449 -2.64229 0
M  V30 1593 C 155.995 4.31073 -1.03398 0
M  V30 1594 H 153.215 0.599328 -0.301739 0
M  V30 1595 H 155.759 1.44746 -1.44461 0
M  V30 1596 H 153.914 3.81251 -0.687514 0
M  V30 1597 H 154.328 4.42589 -2.81452 0
M  V30 1598 H 155.802 5.34646 -1.37323 0
M  V30 1599 H 156.279 4.3919 0.0289259 0
M  V30 1600 H 156.885 3.94738 -1.58311 0
M  V30 1601 N 155.201 0.870884 1.31352 0
M  V30 1602 C 156.151 0.298889 2.26032 0
M  V30 1603 C 157.135 -0.564595 1.50669 0
M  V30 1604 O 158.327 -0.411323 1.72154 0
M  V30 1605 C 155.456 -0.497842 3.39671 0
M  V30 1606 C 154.542 0.378937 4.22404 0
M  V30 1607 N 154.933 1.47284 4.83881 0
M  V30 1608 C 153.231 0.171535 4.4567 0
M  V30 1609 C 153.932 2.01359 5.45738 0
M  V30 1610 N 152.908 1.31047 5.27568 0
M  V30 1611 H 156.71 1.13494 2.71102 0
M  V30 1612 H 154.224 0.718745 1.45629 0
M  V30 1613 H 156.221 -0.924155 4.06528 0
M  V30 1614 H 154.881 -1.33149 2.96144 0
M  V30 1615 H 155.892 1.85575 4.8351 0
M  V30 1616 H 152.569 -0.626091 4.12779 0
M  V30 1617 H 153.959 2.93143 6.0458 0
M  V30 1618 N 156.679 -1.44442 0.630414 0
M  V30 1619 C 157.925 -2.02351 0.134816 0
M  V30 1620 C 158.258 -1.4947 -1.23986 0
M  V30 1621 O 157.533 -0.678475 -1.82283 0
M  V30 1622 C 157.816 -3.59898 0.120707 0
M  V30 1623 C 157.669 -4.23063 1.52767 0
M  V30 1624 C 158.988 -4.36585 -0.555127 0
M  V30 1625 H 156.107 -0.73527 0.0504646 0
M  V30 1626 H 158.749 -1.72022 0.806751 0
M  V30 1627 H 156.899 -3.85868 -0.451477 0
M  V30 1628 H 158.571 -4.08202 2.14869 0
M  V30 1629 H 156.814 -3.80586 2.08175 0
M  V30 1630 H 157.485 -5.32071 1.46984 0
M  V30 1631 H 159.961 -4.16044 -0.0685429 0
M  V30 1632 H 158.837 -5.46294 -0.534185 0
M  V30 1633 H 159.098 -4.11138 -1.62535 0
M  V30 1634 N 158.157 -0.370918 -1.53173 0
M  V30 1635 C 159.12 0.460778 -2.24521 0
M  V30 1636 C 160.12 1.00536 -1.25496 0
M  V30 1637 O 161.31 0.890266 -1.49733 0
M  V30 1638 C 158.442 1.64457 -2.98608 0
M  V30 1639 H 159.635 -0.163613 -2.99453 0
M  V30 1640 H 157.188 -0.122699 -1.55818 0
M  V30 1641 H 157.923 2.30691 -2.2793 0
M  V30 1642 H 157.708 1.26099 -3.7127 0
M  V30 1643 H 159.198 2.23384 -3.5283 0
M  V30 1644 N 159.635 1.57281 -0.100228 0
M  V30 1645 C 160.582 2.14305 0.856858 0
M  V30 1646 C 161.552 1.06296 1.27634 0
M  V30 1647 O 162.737 1.34109 1.35718 0
M  V30 1648 C 159.877 2.73184 2.10866 0
M  V30 1649 C 158.99 3.95442 1.73925 0
M  V30 1650 C 158.125 4.42468 2.93931 0
M  V30 1651 C 157.164 5.57303 2.5314 0
M  V30 1652 N 156.301 5.99158 3.65997 0
M  V30 1653 H 161.141 2.95772 0.363726 0
M  V30 1654 H 158.678 1.46139 0.167858 0
M  V30 1655 H 160.636 3.05442 2.84185 0
M  V30 1656 H 159.266 1.94437 2.57671 0
M  V30 1657 H 158.318 3.69464 0.905554 0
M  V30 1658 H 159.63 4.78769 1.39935 0
M  V30 1659 H 158.784 4.76537 3.75496 0
M  V30 1660 H 157.523 3.58052 3.31134 0
M  V30 1661 H 156.528 5.22857 1.70003 0
M  V30 1662 H 157.753 6.43471 2.17075 0
M  V30 1663 H 155.699 5.17687 4.02909 0
M  V30 1664 H 155.616 6.77295 3.35869 0
M  V30 1665 H 156.884 6.3786 4.48057 0
M  V30 1666 N 161.113 -0.173488 1.56642 0
M  V30 1667 C 162.076 -1.19859 1.95362 0
M  V30 1668 C 163.076 -1.37296 0.83704 0
M  V30 1669 O 164.266 -1.34739 1.10413 0
M  V30 1670 C 161.398 -2.56405 2.24654 0
M  V30 1671 H 162.591 -0.867062 2.87092 0
M  V30 1672 H 160.144 -0.415853 1.50666 0
M  V30 1673 H 160.879 -2.94576 1.35631 0
M  V30 1674 H 160.664 -2.45115 3.06041 0
M  V30 1675 H 162.154 -3.30287 2.5554 0
M  V30 1676 N 162.591 -1.51276 -0.441967 0
M  V30 1677 C 163.816 -1.67799 -1.21895 0
M  V30 1678 C 164.241 -0.372864 -1.84367 0
M  V30 1679 O 163.599 0.666501 -1.68604 0
M  V30 1680 C 163.647 -2.79199 -2.28211 0
M  V30 1681 O 162.751 -2.42479 -3.33583 0
M  V30 1682 H 162.092 -0.559649 -0.357336 0
M  V30 1683 H 164.622 -1.97815 -0.522522 0
M  V30 1684 H 164.632 -3.03146 -2.73069 0
M  V30 1685 H 163.307 -3.73906 -1.82118 0
M  V30 1686 H 161.884 -2.29087 -2.94234 0
M  V30 1687 N 164.069 0.697108 -1.41344 0
M  V30 1688 C 165.48 1.27697 -1.36199 0
M  V30 1689 C 165.831 1.9615 -0.0443463 0
M  V30 1690 O 164.956 1.98689 0.857419 0
M  V30 1691 C 165.551 2.32223 -2.46694 0
M  V30 1692 C 164.11 2.8579 -2.44952 0
M  V30 1693 C 163.257 1.59807 -2.26621 0
M  V30 1694 H 166.208 0.491968 -1.50882 0
M  V30 1695 H 166.229 3.1348 -2.15664 0
M  V30 1696 H 165.741 1.82373 -3.42581 0
M  V30 1697 H 163.842 3.3982 -1.52817 0
M  V30 1698 H 163.955 3.36325 -3.41207 0
M  V30 1699 H 162.319 1.8556 -1.7447 0
M  V30 1700 H 163.102 1.11956 -3.24532 0
M  V30 1701 N 165.547 1.27147 0.931209 0
M  V30 1702 C 166.457 1.11372 2.06478 0
M  V30 1703 C 167.473 0.044645 1.73943 0
M  V30 1704 O 168.649 0.250417 1.99837 0
M  V30 1705 C 165.714 0.758838 3.38294 0
M  V30 1706 C 164.775 1.90841 3.84549 0
M  V30 1707 C 164.008 1.57036 5.10074 0
M  V30 1708 O 164.231 0.476645 5.68405 0
M  V30 1709 O 163.165 2.40839 5.51616 0
M  V30 1710 H 166.991 2.06493 2.22698 0
M  V30 1711 H 164.576 1.06301 1.04978 0
M  V30 1712 H 166.458 0.574098 4.17471 0
M  V30 1713 H 165.133 -0.162879 3.2329 0
M  V30 1714 H 164.04 2.14819 3.06274 0
M  V30 1715 H 165.373 2.81021 4.04089 0
M  V30 1716 N 167.025 -1.13721 1.09112 0
M  V30 1717 C 168.253 -1.88773 0.846899 0
M  V30 1718 C 168.668 -1.7896 -0.601572 0
M  V30 1719 O 168.025 -1.15394 -1.41388 0
M  V30 1720 C 168.076 -3.3849 1.26913 0
M  V30 1721 O 167.797 -3.48043 2.66079 0
M  V30 1722 C 169.298 -4.30518 1.05682 0
M  V30 1723 H 166.518 -0.59772 0.304914 0
M  V30 1724 H 169.062 -1.43977 1.45227 0
M  V30 1725 H 167.217 -3.80881 0.707723 0
M  V30 1726 H 167.631 -4.4109 2.83795 0
M  V30 1727 H 169.105 -5.3391 1.40156 0
M  V30 1728 H 169.582 -4.392 -0.00563416 0
M  V30 1729 H 170.188 -3.93893 1.60402 0
M  V30 1730 N 168.503 -0.877838 -1.30888 0
M  V30 1731 C 169.433 -0.35534 -2.3078 0
M  V30 1732 C 170.414 0.557994 -1.60687 0
M  V30 1733 O 171.599 0.473355 -1.88343 0
M  V30 1734 C 168.729 0.437221 -3.44537 0
M  V30 1735 C 167.683 -0.383715 -4.26276 0
M  V30 1736 C 167.009 0.535014 -5.32017 0
M  V30 1737 C 168.309 -1.62201 -4.96476 0
M  V30 1738 H 170.003 -1.19007 -2.74732 0
M  V30 1739 H 167.549 -0.573698 -1.32078 0
M  V30 1740 H 169.502 0.813334 -4.13477 0
M  V30 1741 H 168.226 1.30553 -2.99372 0
M  V30 1742 H 166.885 -0.741874 -3.59015 0
M  V30 1743 H 166.533 1.40083 -4.831 0
M  V30 1744 H 166.233 -0.0104211 -5.87599 0
M  V30 1745 H 167.757 0.907799 -6.03814 0
M  V30 1746 H 169.171 -1.31689 -5.5797 0
M  V30 1747 H 167.568 -2.10711 -5.61891 0
M  V30 1748 H 168.638 -2.37044 -4.23011 0
M  V30 1749 N 169.982 1.44106 -0.638065 0
M  V30 1750 C 171.207 2.0685 -0.150916 0
M  V30 1751 C 171.632 1.47417 1.16833 0
M  V30 1752 O 170.99 0.578264 1.71831 0
M  V30 1753 C 171.038 3.60555 -0.05708 0
M  V30 1754 O 170.142 4.00465 0.984972 0
M  V30 1755 H 169.483 0.658151 -0.0879399 0
M  V30 1756 H 172.013 1.84865 -0.876707 0
M  V30 1757 H 172.023 4.07789 0.131232 0
M  V30 1758 H 170.698 4.03193 -1.02021 0
M  V30 1759 H 169.275 3.64849 0.770672 0
M  V30 1760 N 171.46 0.379036 1.52974 0
M  V30 1761 C 172.737 -0.263479 1.93817 0
M  V30 1762 C 173.117 -1.65244 1.31368 0
M  V30 1763 O 172.465 -2.23448 0.477856 0
M  V30 1764 C 172.675 -0.300166 3.47707 0
M  V30 1765 C 174.023 -0.534061 4.21228 0
M  V30 1766 O 175.047 -0.38081 3.54159 0
M  V30 1767 O 173.906 -0.833501 5.40106 0
M  V30 1768 H 171 -0.161149 0.811147 0
M  V30 1769 H 173.546 0.432798 1.64088 0
M  V30 1770 H 172.318 0.673138 3.85467 0
M  V30 1771 H 171.941 -1.04179 3.83709 0
M  V30 1772 N 172.938 -1.57226 0.108567 0
M  V30 1773 C 173.87 -2.11809 -0.875752 0
M  V30 1774 C 174.883 -1.05839 -1.23701 0
M  V30 1775 O 176.072 -1.33245 -1.18778 0
M  V30 1776 C 173.172 -2.59411 -2.18081 0
M  V30 1777 C 172.345 -3.89364 -1.99284 0
M  V30 1778 C 171.404 -4.22672 -3.13424 0
M  V30 1779 O 170.43 -4.91668 -2.86795 0
M  V30 1780 N 171.632 -3.79154 -4.3957 0
M  V30 1781 H 174.397 -2.9689 -0.409477 0
M  V30 1782 H 171.958 -1.61721 -0.076158 0
M  V30 1783 H 173.95 -2.7873 -2.93414 0
M  V30 1784 H 172.52 -1.79268 -2.5609 0
M  V30 1785 H 171.74 -3.79059 -1.08203 0
M  V30 1786 H 173.028 -4.74358 -1.84017 0
M  V30 1787 H 172.426 -3.23486 -4.64083 0
M  V30 1788 H 170.983 -4.03602 -5.11809 0
M  V30 1789 N 174.416 0.165178 -1.56732 0
M  V30 1790 C 175.827 0.727046 -1.71962 0
M  V30 1791 C 176.178 1.82508 -0.720078 0
M  V30 1792 O 175.303 2.16082 0.117242 0
M  V30 1793 C 175.898 1.32559 -3.11791 0
M  V30 1794 C 174.457 1.83422 -3.28684 0
M  V30 1795 C 173.604 0.715567 -2.67908 0
M  V30 1796 H 176.555 -0.0602896 -1.58585 0
M  V30 1797 H 176.576 2.19533 -3.10782 0
M  V30 1798 H 176.088 0.526195 -3.84516 0
M  V30 1799 H 174.189 2.65986 -2.60926 0
M  V30 1800 H 174.302 1.97543 -4.36478 0
M  V30 1801 H 172.666 1.13758 -2.27884 0
M  V30 1802 H 173.449 -0.0720836 -3.43224 0
M  V30 1803 N 175.894 1.51508 0.433938 0
M  V30 1804 C 177.14 1.65549 1.18173 0
M  V30 1805 C 177.495 0.368751 1.88833 0
M  V30 1806 O 176.788 -0.635616 1.8075 0
M  V30 1807 C 176.982 2.79928 2.22205 0
M  V30 1808 C 176.811 4.19601 1.61756 0
M  V30 1809 C 175.581 4.85489 1.40101 0
M  V30 1810 C 177.779 5.02574 1.09194 0
M  V30 1811 N 175.761 6.09266 0.752859 0
M  V30 1812 C 177.132 6.17381 0.569255 0
M  V30 1813 C 179.187 4.88079 0.984025 0
M  V30 1814 C 177.89 7.19282 -0.0507472 0
M  V30 1815 C 179.916 5.90191 0.377912 0
M  V30 1816 C 179.278 7.04272 -0.134216 0
M  V30 1817 H 175.377 0.659653 0.419979 0
M  V30 1818 H 177.961 1.88746 0.477818 0
M  V30 1819 H 176.132 2.5839 2.89982 0
M  V30 1820 H 177.864 2.83132 2.89168 0
M  V30 1821 H 174.619 4.43417 1.66369 0
M  V30 1822 H 175.043 6.75528 0.446123 0
M  V30 1823 H 179.685 4.00131 1.36583 0
M  V30 1824 H 177.403 8.06876 -0.444676 0
M  V30 1825 H 180.989 5.81045 0.296269 0
M  V30 1826 H 179.869 7.81933 -0.59585 0
M  V30 1827 N 177.372 -0.689602 1.41712 0
M  V30 1828 C 178.602 -1.47613 1.44548 0
M  V30 1829 C 179.01 -1.89132 0.0509034 0
M  V30 1830 O 178.353 -1.57741 -0.94146 0
M  V30 1831 C 178.415 -2.76596 2.2964 0
M  V30 1832 C 178.079 -2.57245 3.77722 0
M  V30 1833 C 179.076 -2.22804 4.69739 0
M  V30 1834 C 176.761 -2.727 4.2183 0
M  V30 1835 C 178.755 -2.04064 6.03851 0
M  V30 1836 C 176.442 -2.53576 5.56006 0
M  V30 1837 C 177.44 -2.1931 6.46832 0
M  V30 1838 O 177.128 -2.00359 7.78532 0
M  V30 1839 H 176.86 -0.461227 0.494212 0
M  V30 1840 H 179.414 -0.856045 1.86711 0
M  V30 1841 H 177.644 -3.41033 1.82301 0
M  V30 1842 H 179.333 -3.38424 2.24107 0
M  V30 1843 H 180.099 -2.10473 4.36951 0
M  V30 1844 H 175.978 -2.98353 3.51435 0
M  V30 1845 H 179.522 -1.77241 6.74708 0
M  V30 1846 H 175.419 -2.65499 5.88371 0
M  V30 1847 H 176.187 -2.15075 7.89737 0
M  V30 1848 N 178.85 -1.27639 -0.924453 0
M  V30 1849 C 180.097 -1.14167 -1.67249 0
M  V30 1850 C 180.425 0.311863 -1.91984 0
M  V30 1851 O 179.68 1.24425 -1.51053 0
M  V30 1852 C 179.979 -1.87407 -3.04325 0
M  V30 1853 C 179.645 -3.37249 -2.99289 0
M  V30 1854 C 178.307 -3.7812 -2.97622 0
M  V30 1855 C 180.659 -4.32845 -2.90336 0
M  V30 1856 C 177.987 -5.12944 -2.8479 0
M  V30 1857 C 180.339 -5.6773 -2.79045 0
M  V30 1858 C 179.003 -6.07889 -2.7573 0
M  V30 1859 H 178.273 -0.417766 -0.612007 0
M  V30 1860 H 180.92 -1.58286 -1.07786 0
M  V30 1861 H 179.225 -1.35805 -3.67511 0
M  V30 1862 H 180.922 -1.74408 -3.61086 0
M  V30 1863 H 177.512 -3.04748 -3.01374 0
M  V30 1864 H 181.696 -4.02239 -2.90719 0
M  V30 1865 H 176.952 -5.432 -2.80612 0
M  V30 1866 H 181.126 -6.41472 -2.71083 0
M  V30 1867 H 178.753 -7.12314 -2.65544 0
M  V30 1868 N 180.328 1.1314 -1.09713 0
M  V30 1869 C 181.553 1.88862 -0.857081 0
M  V30 1870 C 181.978 1.78729 0.586304 0
M  V30 1871 O 181.336 1.13692 1.41222 0
M  V30 1872 C 181.384 3.36325 -1.30069 0
M  V30 1873 O 180.488 4.09815 -0.461007 0
M  V30 1874 H 179.829 0.587108 -0.310162 0
M  V30 1875 H 182.359 1.43129 -1.46203 0
M  V30 1876 H 182.369 3.87157 -1.28738 0
M  V30 1877 H 181.044 3.43017 -2.35185 0
M  V30 1878 H 179.621 3.68986 -0.538888 0
M  V30 1879 N 181.806 0.884767 1.30421 0
M  V30 1880 C 183.054 0.502112 1.95763 0
M  V30 1881 C 183.375 -0.951815 1.70192 0
M  V30 1882 O 182.645 -1.6692 1.0254 0
M  V30 1883 H 181.225 0.182694 0.724315 0
M  V30 1884 H 183.887 1.1278 1.58955 0
M  V30 1885 H 182.983 0.672188 3.04775 0
M  V30 1886 N 183.284 -1.43765 0.645699 0
M  V30 1887 C 184.53 -2.02197 0.156271 0
M  V30 1888 C 184.863 -1.50776 -1.22393 0
M  V30 1889 O 184.138 -0.697771 -1.81553 0
M  V30 1890 C 184.421 -3.59749 0.158872 0
M  V30 1891 C 184.274 -4.21419 1.57245 0
M  V30 1892 C 185.593 -4.37149 -0.50879 0
M  V30 1893 H 182.712 -0.734694 0.0582602 0
M  V30 1894 H 185.354 -1.71157 0.824951 0
M  V30 1895 H 183.504 -3.86325 -0.410525 0
M  V30 1896 H 185.176 -4.059 2.19186 0
M  V30 1897 H 183.419 -3.78356 2.122 0
M  V30 1898 H 184.09 -5.30482 1.52619 0
M  V30 1899 H 186.566 -4.16093 -0.024412 0
M  V30 1900 H 185.442 -5.4683 -0.476213 0
M  V30 1901 H 185.703 -4.12839 -1.58165 0
M  V30 1902 N 184.763 -0.387143 -1.52771 0
M  V30 1903 C 185.988 0.198407 -2.06449 0
M  V30 1904 C 186.413 1.39918 -1.25716 0
M  V30 1905 O 185.771 1.79099 -0.281657 0
M  V30 1906 C 185.819 0.548893 -3.56398 0
M  V30 1907 O 184.923 1.64315 -3.78252 0
M  V30 1908 H 184.264 0.0237731 -0.663574 0
M  V30 1909 H 186.794 -0.553989 -1.96957 0
M  V30 1910 H 186.804 0.813812 -3.99801 0
M  V30 1911 H 185.479 -0.329005 -4.14597 0
M  V30 1912 H 184.056 1.37211 -3.46738 0
M  V30 1913 N 186.241 1.57166 -0.116904 0
M  V30 1914 C 187.657 1.5779 0.239693 0
M  V30 1915 C 187.857 1.1295 1.66867 0
M  V30 1916 O 186.913 0.81592 2.38954 0
M  V30 1917 C 188.226 3.00699 0.00828202 0
M  V30 1918 C 189.774 3.12912 0.0743438 0
M  V30 1919 C 190.249 4.57817 -0.129348 0
M  V30 1920 N 191.74 4.63139 -0.075247 0
M  V30 1921 C 192.475 5.73023 -0.207788 0
M  V30 1922 N 191.971 6.91665 -0.396382 0
M  V30 1923 N 193.764 5.61906 -0.14751 0
M  V30 1924 H 185.915 1.84615 -1.05029 0
M  V30 1925 H 188.178 0.85311 -0.41341 0
M  V30 1926 H 187.884 3.37784 -0.979531 0
M  V30 1927 H 187.758 3.69848 0.741077 0
M  V30 1928 H 190.145 2.75686 1.05268 0
M  V30 1929 H 190.226 2.4631 -0.690297 0
M  V30 1930 H 189.87 4.95742 -1.10465 0
M  V30 1931 H 189.8 5.22507 0.655253 0
M  V30 1932 H 192.291 3.7784 0.0670898 0
M  V30 1933 H 192.604 7.71255 -0.488437 0
M  V30 1934 H 190.949 6.93654 -0.432329 0
M  V30 1935 H 194.14 4.681 -0.00115036 0
M  V30 1936 H 194.313 6.47501 -0.254247 0
M  V30 1937 N 187.719 -0.156864 1.56817 0
M  V30 1938 C 188.947 -0.886316 1.86955 0
M  V30 1939 C 189.362 -1.75185 0.703975 0
M  V30 1940 O 188.719 -1.79555 -0.326552 0
M  V30 1941 C 188.77 -1.75117 3.16253 0
M  V30 1942 O 188.491 -0.920537 4.2832 0
M  V30 1943 C 189.992 -2.58905 3.59837 0
M  V30 1944 H 187.212 -0.25678 0.619923 0
M  V30 1945 H 189.756 -0.152615 2.0393 0
M  V30 1946 H 187.911 -2.43805 3.01062 0
M  V30 1947 H 188.325 -1.51337 5.02192 0
M  V30 1948 H 189.799 -3.1518 4.53172 0
M  V30 1949 H 190.276 -3.34472 2.84649 0
M  V30 1950 H 190.882 -1.95526 3.7769 0
M  V30 1951 N 189.197 -1.51736 -0.425897 0
M  V30 1952 C 190.129 -1.70083 -1.53638 0
M  V30 1953 C 191.142 -0.581349 -1.52066 0
M  V30 1954 O 192.331 -0.856017 -1.56635 0
M  V30 1955 C 189.431 -1.71078 -2.9255 0
M  V30 1956 C 188.604 -2.99795 -3.185 0
M  V30 1957 C 187.663 -2.92825 -4.37196 0
M  V30 1958 O 186.689 -3.66756 -4.35291 0
M  V30 1959 N 187.891 -2.0946 -5.41393 0
M  V30 1960 H 190.656 -2.65882 -1.383 0
M  V30 1961 H 188.217 -1.49765 -0.614988 0
M  V30 1962 H 190.209 -1.63969 -3.69995 0
M  V30 1963 H 188.779 -0.828242 -3.01428 0
M  V30 1964 H 187.999 -3.20684 -2.2925 0
M  V30 1965 H 189.287 -3.84977 -3.32671 0
M  V30 1966 H 188.685 -1.48792 -5.45781 0
M  V30 1967 H 187.242 -2.08221 -6.17647 0
M  V30 1968 N 190.675 0.682077 -1.42076 0
M  V30 1969 C 191.638 1.77756 -1.44691 0
M  V30 1970 C 192.638 1.5726 -0.335535 0
M  V30 1971 O 193.828 1.63686 -0.596037 0
M  V30 1972 C 190.96 3.16301 -1.27146 0
M  V30 1973 H 192.153 1.76826 -2.42224 0
M  V30 1974 H 189.706 0.891012 -1.28416 0
M  V30 1975 H 190.441 3.22862 -0.305075 0
M  V30 1976 H 190.226 3.32581 -2.07683 0
M  V30 1977 H 191.716 3.96241 -1.31843 0
M  V30 1978 N 192.153 1.28127 0.917671 0
M  V30 1979 C 193.085 1.07517 2.02417 0
M  V30 1980 C 194.098 0.0281099 1.62776 0
M  V30 1981 O 195.287 0.270748 1.76435 0
M  V30 1982 C 192.387 0.610957 3.33347 0
M  V30 1983 C 191.56 1.73255 4.01624 0
M  V30 1984 C 190.619 1.26238 5.10833 0
M  V30 1985 O 189.645 1.96389 5.34247 0
M  V30 1986 N 190.847 0.123448 5.80369 0
M  V30 1987 H 193.612 2.02806 2.20658 0
M  V30 1988 H 191.173 1.19827 1.08871 0
M  V30 1989 H 193.165 0.280101 4.0373 0
M  V30 1990 H 191.735 -0.24898 3.11607 0
M  V30 1991 H 190.955 2.23319 3.24842 0
M  V30 1992 H 192.243 2.48503 4.43986 0
M  V30 1993 H 191.641 -0.461847 5.63812 0
M  V30 1994 H 190.198 -0.148158 6.51632 0
M  V30 1995 N 193.631 -1.12557 1.10312 0
M  V30 1996 C 194.563 -2.17971 0.708625 0
M  V30 1997 C 195.576 -1.60806 -0.254027 0
M  V30 1998 O 196.765 -1.78458 -0.0386891 0
M  V30 1999 C 193.865 -3.38891 0.0248198 0
M  V30 2000 C 193.038 -4.25548 1.01132 0
M  V30 2001 C 192.097 -5.24972 0.35924 0
M  V30 2002 O 191.123 -5.60174 1.00965 0
M  V30 2003 N 192.325 -5.73747 -0.882847 0
M  V30 2004 H 195.09 -2.52427 1.61557 0
M  V30 2005 H 192.651 -1.27967 0.991771 0
M  V30 2006 H 194.643 -4.02485 -0.422852 0
M  V30 2007 H 193.213 -3.02596 -0.784514 0
M  V30 2008 H 192.433 -3.58589 1.6373 0
M  V30 2009 H 193.721 -4.80294 1.67914 0
M  V30 2010 H 193.119 -5.4731 -1.43065 0
M  V30 2011 H 191.676 -6.39234 -1.27369 0
M  V30 2012 N 195.109 -0.891671 -1.2995 0
M  V30 2013 C 196.039 -0.379797 -2.30391 0
M  V30 2014 C 197.02 0.540919 -1.6127 0
M  V30 2015 O 198.205 0.453352 -1.88834 0
M  V30 2016 C 195.335 0.400654 -3.44981 0
M  V30 2017 C 194.289 -0.428905 -4.25846 0
M  V30 2018 C 193.615 0.478557 -5.32554 0
M  V30 2019 C 194.915 -1.67458 -4.94727 0
M  V30 2020 H 196.609 -1.21914 -2.73454 0
M  V30 2021 H 194.155 -0.587675 -1.31462 0
M  V30 2022 H 196.108 0.769434 -4.14316 0
M  V30 2023 H 194.832 1.27371 -3.0074 0
M  V30 2024 H 193.491 -0.779911 -3.58208 0
M  V30 2025 H 193.139 1.34951 -4.84559 0
M  V30 2026 H 192.839 -0.0727433 -5.87555 0
M  V30 2027 H 194.363 0.843705 -6.04743 0
M  V30 2028 H 195.777 -1.376 -5.56542 0
M  V30 2029 H 194.174 -2.16659 -5.59624 0
M  V30 2030 H 195.244 -2.41518 -4.20473 0
M  V30 2031 N 196.587 1.43421 -0.653314 0
M  V30 2032 C 197.517 2.33487 0.0246656 0
M  V30 2033 C 198.498 1.49475 0.811863 0
M  V30 2034 O 199.683 1.78139 0.773322 0
M  V30 2035 C 196.813 3.32841 0.99166 0
M  V30 2036 C 195.767 4.26842 0.314568 0
M  V30 2037 C 195.093 5.16236 1.39302 0
M  V30 2038 C 196.393 5.16243 -0.793095 0
M  V30 2039 H 198.087 2.90427 -0.727481 0
M  V30 2040 H 195.633 1.39649 -0.351287 0
M  V30 2041 H 197.586 3.94747 1.47487 0
M  V30 2042 H 196.31 2.74158 1.77497 0
M  V30 2043 H 194.969 3.663 -0.148199 0
M  V30 2044 H 194.617 4.53891 2.16776 0
M  V30 2045 H 194.317 5.79948 0.945223 0
M  V30 2046 H 195.841 5.81015 1.87759 0
M  V30 2047 H 197.255 5.71958 -0.392039 0
M  V30 2048 H 195.652 5.88676 -1.16536 0
M  V30 2049 H 196.722 4.55927 -1.65103 0
M  V30 2050 N 198.065 0.39524 1.52563 0
M  V30 2051 C 198.995 -0.428384 2.29537 0
M  V30 2052 C 199.976 -1.05831 1.33169 0
M  V30 2053 O 201.161 -1.06995 1.62067 0
M  V30 2054 C 198.291 -1.55274 3.10656 0
M  V30 2055 C 197.245 -1.04855 4.14957 0
M  V30 2056 C 196.571 -2.26543 4.84337 0
M  V30 2057 C 197.871 -0.112324 5.22179 0
M  V30 2058 H 199.565 0.213867 2.98635 0
M  V30 2059 H 197.111 0.104298 1.43622 0
M  V30 2060 H 199.064 -2.1358 3.63265 0
M  V30 2061 H 197.788 -2.22266 2.39302 0
M  V30 2062 H 196.447 -0.487985 3.63338 0
M  V30 2063 H 196.095 -2.92059 4.09525 0
M  V30 2064 H 195.795 -1.93466 5.54837 0
M  V30 2065 H 197.319 -2.85481 5.39753 0
M  V30 2066 H 198.733 -0.603752 5.70112 0
M  V30 2067 H 197.13 0.128968 5.99961 0
M  V30 2068 H 198.2 0.837052 4.77621 0
M  V30 2069 N 199.544 -1.57102 0.125237 0
M  V30 2070 C 200.769 -2.0019 -0.542101 0
M  V30 2071 C 201.194 -1.00449 -1.59034 0
M  V30 2072 O 200.552 0.0229423 -1.81285 0
M  V30 2073 C 200.6 -3.42129 -1.13929 0
M  V30 2074 O 199.704 -3.45307 -2.2547 0
M  V30 2075 H 199.045 -0.650171 -0.134812 0
M  V30 2076 H 201.575 -2.03461 0.215553 0
M  V30 2077 H 201.585 -3.80471 -1.4733 0
M  V30 2078 H 200.26 -4.14237 -0.371531 0
M  V30 2079 H 198.837 -3.1879 -1.93462 0
M  V30 2080 N 201.022 0.148545 -1.56898 0
M  V30 2081 C 202.433 0.708766 -1.72723 0
M  V30 2082 C 202.784 1.81734 -0.739395 0
M  V30 2083 O 201.909 2.16194 0.0943169 0
M  V30 2084 C 202.504 1.29245 -3.13179 0
M  V30 2085 C 201.063 1.79925 -3.30611 0
M  V30 2086 C 200.21 0.687111 -2.68652 0
M  V30 2087 H 203.161 -0.0771063 -1.58513 0
M  V30 2088 H 203.182 2.16224 -3.13093 0
M  V30 2089 H 202.694 0.485382 -3.85053 0
M  V30 2090 H 200.795 2.63203 -2.63732 0
M  V30 2091 H 200.908 1.92903 -4.38549 0
M  V30 2092 H 199.272 1.11335 -2.29078 0
M  V30 2093 H 200.055 -0.108483 -3.43129 0
M  V30 2094 N 202.5 1.5196 0.417844 0
M  V30 2095 C 203.911 1.57851 0.997 0
M  V30 2096 C 204.262 0.413714 1.91789 0
M  V30 2097 O 203.387 -0.467057 2.113 0
M  V30 2098 C 203.982 2.86085 1.81496 0
M  V30 2099 C 202.541 2.94483 2.34428 0
M  V30 2100 C 201.688 2.52707 1.14169 0
M  V30 2101 H 204.639 1.57455 0.198392 0
M  V30 2102 H 204.66 2.70947 2.67148 0
M  V30 2103 H 204.172 3.70842 1.14446 0
M  V30 2104 H 202.273 2.142 3.04875 0
M  V30 2105 H 202.386 3.98546 2.65891 0
M  V30 2106 H 200.75 2.06353 1.49301 0
M  V30 2107 H 201.533 3.39828 0.486999 0
M  V30 2108 N 203.978 -0.674533 1.42435 0
M  V30 2109 C 204.926 -1.80934 1.46169 0
M  V30 2110 C 205.92 -1.66006 0.3374 0
M  V30 2111 O 207.126 -1.72611 0.510425 0
M  V30 2112 H 203.501 -0.596594 0.457798 0
M  V30 2113 H 205.472 -1.74903 2.41767 0
M  V30 2114 C 204.221 -3.19088 1.38123 0
M  V30 2115 H 203.544 -3.31203 2.23931 0
M  V30 2116 H 204.984 -3.9851 1.44797 0
M  V30 2117 C 203.443 -3.36763 0.0960517 0
M  V30 2118 O 203.973 -3.92581 -0.851073 0
M  V30 2119 N 202.179 -2.90597 0.0131186 0
M  V30 2120 H 201.726 -2.45359 0.784639 0
M  V30 2121 H 201.684 -3.028 -0.846133 0
M  V30 2122 N 205.456 -1.28612 -0.910864 0
M  V30 2123 C 206.366 -1.14643 -2.0468 0
M  V30 2124 C 207.382 -0.0723121 -1.7385 0
M  V30 2125 O 208.558 -0.282178 -1.99413 0
M  V30 2126 C 205.623 -0.812561 -3.37044 0
M  V30 2127 C 204.684 -1.96935 -3.81465 0
M  V30 2128 C 203.917 -1.65131 -5.07511 0
M  V30 2129 O 204.14 -0.567013 -5.67575 0
M  V30 2130 O 203.074 -2.49585 -5.47714 0
M  V30 2131 H 206.9 -2.1001 -2.19384 0
M  V30 2132 H 204.485 -1.07958 -1.03274 0
M  V30 2133 H 206.367 -0.640441 -4.16505 0
M  V30 2134 H 205.042 0.111426 -3.23508 0
M  V30 2135 H 203.949 -2.19664 -3.02818 0
M  V30 2136 H 205.282 -2.87414 -3.99567 0
M  V30 2137 N 206.934 1.1197 -1.10907 0
M  V30 2138 C 208.345 1.65114 -0.871446 0
M  V30 2139 C 208.696 1.86885 0.597353 0
M  V30 2140 O 207.821 1.59896 1.45816 0
M  V30 2141 C 208.416 2.99944 -1.5754 0
M  V30 2142 C 206.975 3.50018 -1.38435 0
M  V30 2143 C 206.122 2.24941 -1.62164 0
M  V30 2144 H 209.073 0.956851 -1.2661 0
M  V30 2145 H 209.094 3.66651 -1.01721 0
M  V30 2146 H 208.606 2.84067 -2.64438 0
M  V30 2147 H 206.707 3.71071 -0.337214 0
M  V30 2148 H 206.82 4.29165 -2.12965 0
M  V30 2149 H 205.184 2.3229 -1.04467 0
M  V30 2150 H 205.967 2.11612 -2.70324 0
M  V30 2151 N 208.412 0.89855 1.29475 0
M  V30 2152 C 209.66 0.522847 1.9522 0
M  V30 2153 C 209.981 -0.93371 1.71192 0
M  V30 2154 O 209.251 -1.65823 1.04305 0
M  V30 2155 H 207.831 0.190366 0.722336 0
M  V30 2156 H 210.493 1.14459 1.5775 0
M  V30 2157 H 209.589 0.704476 3.04045 0
M  V30 2158 N 209.89 -1.43072 0.660911 0
M  V30 2159 C 210.853 -2.29194 -0.0166406 0
M  V30 2160 C 211.853 -1.42609 -0.742912 0
M  V30 2161 O 213.043 -1.64155 -0.583004 0
M  V30 2162 C 210.175 -3.24831 -1.0343 0
M  V30 2163 H 211.368 -2.90596 0.741208 0
M  V30 2164 H 208.921 -1.5048 0.422532 0
M  V30 2165 H 209.656 -2.68339 -1.82111 0
M  V30 2166 H 209.441 -3.88676 -0.517082 0
M  V30 2167 H 210.931 -3.89451 -1.50723 0
M  V30 2168 N 211.368 -0.403325 -1.52352 0
M  V30 2169 C 212.615 0.174347 -2.01748 0
M  V30 2170 C 212.943 1.45636 -1.2892 0
M  V30 2171 O 212.198 1.9193 -0.382258 0
M  V30 2172 C 212.497 0.474665 -3.54234 0
M  V30 2173 C 212.163 -0.717458 -4.45155 0
M  V30 2174 C 210.825 -1.04447 -4.69728 0
M  V30 2175 C 213.177 -1.51432 -4.98716 0
M  V30 2176 C 210.505 -2.16963 -5.45109 0
M  V30 2177 C 212.857 -2.6302 -5.75329 0
M  V30 2178 C 211.521 -2.96213 -5.98175 0
M  V30 2179 H 210.791 0.0637981 -0.738248 0
M  V30 2180 H 213.438 -0.543553 -1.83624 0
M  V30 2181 H 211.743 1.27406 -3.70506 0
M  V30 2182 H 213.44 0.934496 -3.89959 0
M  V30 2183 H 210.03 -0.452596 -4.26204 0
M  V30 2184 H 214.214 -1.27491 -4.79645 0
M  V30 2185 H 209.47 -2.43034 -5.61021 0
M  V30 2186 H 213.644 -3.25158 -6.15829 0
M  V30 2187 H 211.271 -3.83516 -6.56368 0
M  V30 2188 N 212.846 1.57033 -0.133567 0
M  V30 2189 C 213.776 2.1909 0.807567 0
M  V30 2190 C 214.757 1.13517 1.26681 0
M  V30 2191 O 215.942 1.41809 1.32679 0
M  V30 2192 C 213.072 2.80188 2.05212 0
M  V30 2193 C 212.026 3.91471 1.73015 0
M  V30 2194 C 211.352 4.39443 3.04622 0
M  V30 2195 C 212.652 5.12886 0.987168 0
M  V30 2196 H 214.346 2.97988 0.290403 0
M  V30 2197 H 211.892 1.43335 0.138239 0
M  V30 2198 H 213.845 3.22264 2.71521 0
M  V30 2199 H 212.569 1.98601 2.59278 0
M  V30 2200 H 211.228 3.49993 1.0909 0
M  V30 2201 H 210.876 3.54695 3.56651 0
M  V30 2202 H 210.576 5.14495 2.83847 0
M  V30 2203 H 212.1 4.8418 3.72024 0
M  V30 2204 H 213.514 5.51891 1.55208 0
M  V30 2205 H 211.911 5.93615 0.87985 0
M  V30 2206 H 212.981 4.84894 -0.0235286 0
M  V30 2207 N 214.325 -0.140222 1.56975 0
M  V30 2208 C 215.574 -0.850152 1.82908 0
M  V30 2209 C 215.887 -1.82028 0.715892 0
M  V30 2210 O 217.093 -2.57485 0.861016 0
M  V30 2211 C 215.549 -1.5625 3.24213 0
M  V30 2212 C 215.157 -0.63443 4.43485 0
M  V30 2213 C 216.901 -2.25881 3.59413 0
M  V30 2214 C 214.808 -1.34879 5.75814 0
M  V30 2215 H 213.738 -0.321221 0.682153 0
M  V30 2216 H 216.389 -0.102874 1.83211 0
M  V30 2217 H 214.771 -2.35565 3.18316 0
M  V30 2218 H 215.945 0.12398 4.60633 0
M  V30 2219 H 214.26 -0.0461836 4.16374 0
M  V30 2220 H 216.857 -2.79978 4.5554 0
M  V30 2221 H 217.2 -3.02693 2.85802 0
M  V30 2222 H 217.733 -1.53477 3.67001 0
M  V30 2223 H 214.472 -0.622385 6.52539 0
M  V30 2224 H 213.992 -2.07974 5.6259 0
M  V30 2225 H 215.671 -1.88784 6.18845 0
M  V30 2226 N 215.803 -1.52179 -0.40978 0
M  V30 2227 C 217.219 -1.40968 -0.74835 0
M  V30 2228 C 217.419 -0.513657 -1.94843 0
M  V30 2229 O 216.475 0.0208026 -2.52491 0
M  V30 2230 C 217.788 -2.83483 -1.0029 0
M  V30 2231 C 219.336 -2.92821 -1.10565 0
M  V30 2232 C 219.811 -4.36303 -1.39296 0
M  V30 2233 N 221.302 -4.39535 -1.46162 0
M  V30 2234 C 222.037 -5.47614 -1.70018 0
M  V30 2235 N 221.533 -6.65812 -1.91483 0
M  V30 2236 N 223.326 -5.35129 -1.72027 0
M  V30 2237 H 215.477 -2.0897 0.380186 0
M  V30 2238 H 217.74 -0.94185 0.107805 0
M  V30 2239 H 217.446 -3.51168 -0.193461 0
M  V30 2240 H 217.32 -3.24487 -1.92323 0
M  V30 2241 H 219.707 -2.25318 -1.90568 0
M  V30 2242 H 219.788 -2.55276 -0.16369 0
M  V30 2243 H 219.432 -5.04366 -0.598109 0
M  V30 2244 H 219.362 -4.71385 -2.34743 0
M  V30 2245 H 221.853 -3.54332 -1.31367 0
M  V30 2246 H 222.166 -7.43964 -2.09134 0
M  V30 2247 H 220.511 -6.68879 -1.88749 0
M  V30 2248 H 223.702 -4.41764 -1.54796 0
M  V30 2249 H 223.875 -6.19433 -1.9028 0
M  V30 2250 N 217.281 0.66697 -1.42791 0
M  V30 2251 C 218.692 1.2478 -1.38877 0
M  V30 2252 C 219.043 1.96012 -0.0859426 0
M  V30 2253 O 218.168 2.00463 0.815081 0
M  V30 2254 C 218.763 2.26938 -2.51564 0
M  V30 2255 C 217.322 2.80529 -2.50959 0
M  V30 2256 C 216.469 1.54965 -2.29959 0
M  V30 2257 H 219.42 0.459853 -1.51892 0
M  V30 2258 H 219.441 3.08834 -2.22265 0
M  V30 2259 H 218.953 1.75065 -3.46372 0
M  V30 2260 H 217.054 3.36502 -1.59991 0
M  V30 2261 H 217.167 3.29012 -3.48265 0
M  V30 2262 H 215.531 1.81817 -1.78366 0
M  V30 2263 H 216.314 1.05047 -3.26833 0
M  V30 2264 N 218.759 1.29093 0.90403 0
M  V30 2265 C 219.984 1.19809 1.69294 0
M  V30 2266 C 220.409 -0.238481 1.86582 0
M  V30 2267 O 219.767 -1.1723 1.383 0
M  V30 2268 C 219.815 1.91202 3.05736 0
M  V30 2269 O 218.919 1.22611 3.93752 0
M  V30 2270 H 218.26 0.415385 0.518027 0
M  V30 2271 H 220.79 1.70586 1.12967 0
M  V30 2272 H 220.8 1.99487 3.55906 0
M  V30 2273 H 219.475 2.95692 2.92471 0
M  V30 2274 H 218.052 1.22554 3.52186 0
M  V30 2275 N 220.237 -1.11381 1.11499 0
M  V30 2276 C 221.147 -2.21019 0.786628 0
M  V30 2277 C 222.163 -1.72597 -0.220507 0
M  V30 2278 O 223.339 -2.01321 -0.0565251 0
M  V30 2279 C 220.404 -3.459 0.235333 0
M  V30 2280 C 219.465 -4.09107 1.30115 0
M  V30 2281 C 218.698 -5.28027 0.776068 0
M  V30 2282 O 218.921 -5.6904 -0.393661 0
M  V30 2283 O 217.855 -5.81835 1.54114 0
M  V30 2284 H 221.681 -2.51521 1.70209 0
M  V30 2285 H 219.266 -1.19928 0.890928 0
M  V30 2286 H 221.148 -4.21346 -0.067715 0
M  V30 2287 H 219.823 -3.17049 -0.652828 0
M  V30 2288 H 218.73 -3.35391 1.65722 0
M  V30 2289 H 220.063 -4.42139 2.16273 0
M  V30 2290 N 221.715 -0.905404 -1.28997 0
M  V30 2291 C 222.94 -0.549175 -1.99997 0
M  V30 2292 C 223.365 0.860276 -1.67275 0
M  V30 2293 O 222.723 1.57355 -0.900502 0
M  V30 2294 C 222.771 -0.755185 -3.52604 0
M  V30 2295 O 221.875 0.189692 -4.11964 0
M  V30 2296 H 221.216 -0.213899 -0.628604 0
M  V30 2297 H 223.746 -1.21856 -1.64354 0
M  V30 2298 H 223.756 -0.662045 -4.02593 0
M  V30 2299 H 222.431 -1.78271 -3.75755 0
M  V30 2300 H 221.008 0.0485257 -3.72868 0
M  V30 2301 N 223.193 1.4272 -0.668489 0
M  V30 2302 C 224.418 2.06484 -0.194758 0
M  V30 2303 C 224.843 1.49862 1.13679 0
M  V30 2304 O 224.201 0.614582 1.70565 0
M  V30 2305 C 224.249 3.60353 -0.133546 0
M  V30 2306 O 223.353 4.02464 0.899806 0
M  V30 2307 H 222.694 0.656137 -0.10188 0
M  V30 2308 H 225.224 1.82964 -0.915722 0
M  V30 2309 H 225.234 4.07976 0.0447041 0
M  V30 2310 H 223.909 4.00938 -1.1055 0
M  V30 2311 H 222.486 3.66402 0.693109 0
M  V30 2312 N 224.671 0.411399 1.52136 0
M  V30 2313 C 225.601 -0.404015 2.29978 0
M  V30 2314 C 226.582 -1.04412 1.34284 0
M  V30 2315 O 227.767 -1.0527 1.63192 0
M  V30 2316 C 224.897 -1.5197 3.12286 0
M  V30 2317 C 223.851 -1.00448 4.16046 0
M  V30 2318 C 223.177 -2.21393 4.86712 0
M  V30 2319 C 224.477 -0.0569336 5.22269 0
M  V30 2320 H 226.171 0.245529 2.98392 0
M  V30 2321 H 223.717 0.119525 1.43503 0
M  V30 2322 H 225.67 -2.09715 3.6551 0
M  V30 2323 H 224.394 -2.19716 2.41646 0
M  V30 2324 H 223.053 -0.449421 3.63835 0
M  V30 2325 H 222.701 -2.87699 4.12599 0
M  V30 2326 H 222.401 -1.87571 5.56858 0
M  V30 2327 H 223.925 -2.7974 5.4275 0
M  V30 2328 H 225.339 -0.54325 5.7072 0
M  V30 2329 H 223.736 0.192594 5.99791 0
M  V30 2330 H 224.806 0.887663 4.76706 0
M  V30 2331 N 226.149 -1.5696 0.141893 0
M  V30 2332 C 227.397 -1.95573 -0.509484 0
M  V30 2333 C 227.718 -1.02746 -1.65736 0
M  V30 2334 O 226.988 -0.0880311 -1.95702 0
M  V30 2335 H 225.568 -0.722115 -0.191205 0
M  V30 2336 H 228.23 -1.93697 0.216196 0
M  V30 2337 H 227.326 -2.99171 -0.889 0
M  V30 2338 N 227.627 0.131896 -1.57047 0
M  V30 2339 C 228.875 0.840269 -1.83804 0
M  V30 2340 C 229.196 1.81017 -0.72512 0
M  V30 2341 O 228.466 1.94272 0.251995 0
M  V30 2342 H 227.046 0.313294 -0.678127 0
M  V30 2343 H 229.708 0.122294 -1.94516 0
M  V30 2344 H 228.804 1.39335 -2.79271 0
M  V30 2345 N 229.106 1.52395 0.401703 0
M  V30 2346 C 230.336 1.70429 1.1678 0
M  V30 2347 C 230.744 0.416702 1.84554 0
M  V30 2348 O 230.087 -0.617697 1.73003 0
M  V30 2349 C 230.149 2.78919 2.26814 0
M  V30 2350 C 229.813 4.20437 1.79113 0
M  V30 2351 C 230.81 5.04028 1.27482 0
M  V30 2352 C 228.495 4.66704 1.85722 0
M  V30 2353 C 230.489 6.31961 0.830913 0
M  V30 2354 C 228.176 5.94625 1.40942 0
M  V30 2355 C 229.174 6.77082 0.897128 0
M  V30 2356 O 228.862 8.02607 0.455822 0
M  V30 2357 H 228.594 0.574272 0.356634 0
M  V30 2358 H 231.148 1.99767 0.477724 0
M  V30 2359 H 229.378 2.44973 2.99207 0
M  V30 2360 H 231.067 2.8548 2.88541 0
M  V30 2361 H 231.833 4.69471 1.21744 0
M  V30 2362 H 227.712 4.0262 2.24539 0
M  V30 2363 H 231.256 6.96271 0.430368 0
M  V30 2364 H 227.153 6.28688 1.46362 0
M  V30 2365 H 227.921 8.16453 0.578457 0
M  V30 2366 N 230.584 -0.659388 1.43143 0
M  V30 2367 C 231.809 -1.45221 1.48073 0
M  V30 2368 C 232.234 -1.87845 0.097995 0
M  V30 2369 O 231.592 -1.56985 -0.90694 0
M  V30 2370 C 231.64 -2.66748 2.42647 0
M  V30 2371 O 230.744 -3.65583 1.90848 0
M  V30 2372 H 230.085 -0.435669 0.501088 0
M  V30 2373 H 232.615 -0.807432 1.87994 0
M  V30 2374 H 232.625 -3.14637 2.59745 0
M  V30 2375 H 231.3 -2.35067 3.43098 0
M  V30 2376 H 229.877 -3.24693 1.83381 0
M  V30 2377 N 232.062 -1.29571 -0.897171 0
M  V30 2378 C 232.992 -1.17473 -2.01798 0
M  V30 2379 C 233.973 -0.068323 -1.69963 0
M  V30 2380 O 235.158 -0.248239 -1.92607 0
M  V30 2381 C 232.288 -0.853099 -3.36659 0
M  V30 2382 C 231.242 -1.9161 -3.82713 0
M  V30 2383 C 230.568 -1.44773 -5.14728 0
M  V30 2384 C 231.868 -3.32535 -4.02763 0
M  V30 2385 H 233.562 -2.11237 -2.12177 0
M  V30 2386 H 231.108 -1.01699 -1.01948 0
M  V30 2387 H 233.061 -0.755165 -4.14578 0
M  V30 2388 H 231.785 0.120236 -3.26379 0
M  V30 2389 H 230.444 -2.00346 -3.07013 0
M  V30 2390 H 230.092 -0.462995 -5.00865 0
M  V30 2391 H 229.792 -2.15865 -5.46513 0
M  V30 2392 H 231.316 -1.36334 -5.95185 0
M  V30 2393 H 232.73 -3.26626 -4.71156 0
M  V30 2394 H 231.127 -4.01607 -4.45905 0
M  V30 2395 H 232.197 -3.75326 -3.07016 0
M  V30 2396 N 233.54 1.10788 -1.12088 0
M  V30 2397 C 234.765 1.87002 -0.896949 0
M  V30 2398 C 235.19 1.79933 0.548261 0
M  V30 2399 O 234.548 1.16662 1.38779 0
M  V30 2400 C 234.596 3.3349 -1.37174 0
M  V30 2401 O 233.7 4.08745 -0.547831 0
M  V30 2402 H 233.041 0.580397 -0.322545 0
M  V30 2403 H 235.571 1.39996 -1.49206 0
M  V30 2404 H 235.581 3.84339 -1.36922 0
M  V30 2405 H 234.256 3.37951 -2.42408 0
M  V30 2406 H 232.833 3.6776 -0.617034 0
M  V30 2407 N 235.018 0.912232 1.28515 0
M  V30 2408 C 236.264 0.545405 1.95328 0
M  V30 2409 C 236.597 -0.908313 1.71649 0
M  V30 2410 O 235.872 -1.64575 1.03659 0
M  V30 2411 C 236.155 0.853483 3.4984 0
M  V30 2412 C 236.008 2.35982 3.82926 0
M  V30 2413 C 237.327 0.348589 4.38717 0
M  V30 2414 H 234.446 0.199626 0.709449 0
M  V30 2415 H 237.088 1.1412 1.5191 0
M  V30 2416 H 235.238 0.34643 3.86952 0
M  V30 2417 H 236.91 2.93738 3.55691 0
M  V30 2418 H 235.153 2.81543 3.30024 0
M  V30 2419 H 235.824 2.52593 4.90816 0
M  V30 2420 H 238.3 0.78294 4.08668 0
M  V30 2421 H 237.176 0.593242 5.45685 0
M  V30 2422 H 237.437 -0.751049 4.35674 0
M  V30 2423 N 236.496 -1.42363 0.676048 0
M  V30 2424 C 237.912 -1.55811 0.345718 0
M  V30 2425 C 238.112 -1.65544 -1.14879 0
M  V30 2426 O 237.168 -1.62306 -1.93424 0
M  V30 2427 C 238.481 -2.80746 1.07713 0
M  V30 2428 C 240.029 -2.9452 1.05958 0
M  V30 2429 C 240.504 -4.22318 1.77233 0
M  V30 2430 N 241.995 -4.29233 1.74108 0
M  V30 2431 C 242.73 -5.26935 2.26113 0
M  V30 2432 N 242.226 -6.30783 2.86505 0
M  V30 2433 N 244.019 -5.18741 2.1648 0
M  V30 2434 H 236.17 -1.34289 1.6456 0
M  V30 2435 H 238.433 -0.646506 0.69335 0
M  V30 2436 H 238.139 -2.79696 2.13221 0
M  V30 2437 H 238.013 -3.71676 0.64316 0
M  V30 2438 H 240.4 -2.95097 0.0128255 0
M  V30 2439 H 240.481 -2.04817 1.53244 0
M  V30 2440 H 240.125 -4.22502 2.81877 0
M  V30 2441 H 240.055 -5.10958 1.27396 0
M  V30 2442 H 242.546 -3.54814 1.30059 0
M  V30 2443 H 242.859 -7.01691 3.23805 0
M  V30 2444 H 241.204 -6.31341 2.90575 0
M  V30 2445 H 244.395 -4.36533 1.68987 0
M  V30 2446 H 244.568 -5.94721 2.57316 0
M  V30 2447 N 237.974 -0.419461 -1.51915 0
M  V30 2448 C 238.937 0.389116 -2.25873 0
M  V30 2449 C 239.937 0.964924 -1.28631 0
M  V30 2450 O 241.127 0.842179 -1.52489 0
M  V30 2451 C 238.259 1.54874 -3.03689 0
M  V30 2452 H 239.452 -0.258799 -2.98781 0
M  V30 2453 H 237.005 -0.172209 -1.55348 0
M  V30 2454 H 237.74 2.23323 -2.35154 0
M  V30 2455 H 237.525 1.14223 -3.75094 0
M  V30 2456 H 239.015 2.12046 -3.59759 0
M  V30 2457 N 239.452 1.56882 -0.150215 0
M  V30 2458 C 240.384 2.14057 0.819286 0
M  V30 2459 C 241.397 1.09082 1.20851 0
M  V30 2460 O 242.586 1.36347 1.15203 0
M  V30 2461 C 239.686 2.65102 2.11127 0
M  V30 2462 C 238.859 3.94511 1.88891 0
M  V30 2463 C 237.918 4.30834 3.02107 0
M  V30 2464 O 236.944 4.99099 2.73659 0
M  V30 2465 N 238.146 3.90676 4.29363 0
M  V30 2466 H 240.911 2.97871 0.330618 0
M  V30 2467 H 238.472 1.61866 0.0332538 0
M  V30 2468 H 240.464 2.86411 2.85921 0
M  V30 2469 H 239.034 1.85994 2.51247 0
M  V30 2470 H 238.254 3.81795 0.981152 0
M  V30 2471 H 239.542 4.7907 1.71376 0
M  V30 2472 H 238.94 3.35677 4.55343 0
M  V30 2473 H 237.497 4.1703 5.00928 0
M  V30 2474 N 240.93 -0.123565 1.57115 0
M  V30 2475 C 241.893 -1.13583 1.99076 0
M  V30 2476 C 242.893 -1.34564 0.880296 0
M  V30 2477 O 244.083 -1.31158 1.14644 0
M  V30 2478 C 241.215 -2.49128 2.32698 0
M  V30 2479 H 242.408 -0.775287 2.89706 0
M  V30 2480 H 239.961 -0.36771 1.51913 0
M  V30 2481 H 240.696 -2.90111 1.44934 0
M  V30 2482 H 240.481 -2.35255 3.13684 0
M  V30 2483 H 241.971 -3.2199 2.65918 0
M  V30 2484 N 242.408 -1.52605 -0.393616 0
M  V30 2485 C 243.355 -1.77055 -1.48054 0
M  V30 2486 C 244.325 -0.61358 -1.54352 0
M  V30 2487 O 245.51 -0.852806 -1.70681 0
M  V30 2488 C 242.65 -1.94108 -2.85335 0
M  V30 2489 C 241.763 -3.21792 -2.88226 0
M  V30 2490 C 240.898 -3.29188 -4.16904 0
M  V30 2491 C 239.937 -4.51013 -4.13828 0
M  V30 2492 N 239.074 -4.55716 -5.34105 0
M  V30 2493 H 243.914 -2.69815 -1.26506 0
M  V30 2494 H 241.451 -1.33683 -0.61379 0
M  V30 2495 H 243.409 -2.01979 -3.65049 0
M  V30 2496 H 242.039 -1.04713 -3.05344 0
M  V30 2497 H 241.091 -3.23015 -2.00911 0
M  V30 2498 H 242.403 -4.11557 -2.8182 0
M  V30 2499 H 241.557 -3.36216 -5.05018 0
M  V30 2500 H 240.296 -2.37389 -4.26026 0
M  V30 2501 H 239.301 -4.44115 -3.24102 0
M  V30 2502 H 240.526 -5.44123 -4.06333 0
M  V30 2503 H 238.472 -3.66807 -5.43865 0
M  V30 2504 H 238.389 -5.39346 -5.29756 0
M  V30 2505 H 239.657 -4.66993 -6.2413 0
M  V30 2506 N 243.887 0.651787 -1.4349 0
M  V30 2507 C 245.133 1.41376 -1.45398 0
M  V30 2508 C 245.466 1.94041 -0.0784823 0
M  V30 2509 O 244.741 1.72379 0.900878 0
M  V30 2510 C 245.024 2.59414 -2.49752 0
M  V30 2511 C 244.877 2.12232 -3.96582 0
M  V30 2512 C 246.196 3.61626 -2.50827 0
M  V30 2513 H 243.315 0.512719 -0.529422 0
M  V30 2514 H 245.957 0.738796 -1.75048 0
M  V30 2515 H 244.107 3.16997 -2.246 0
M  V30 2516 H 245.779 1.59639 -4.32797 0
M  V30 2517 H 244.022 1.43592 -4.09346 0
M  V30 2518 H 244.693 2.9712 -4.65214 0
M  V30 2519 H 247.169 3.13805 -2.7325 0
M  V30 2520 H 246.045 4.41766 -3.25783 0
M  V30 2521 H 246.306 4.14314 -1.5426 0
M  V30 2522 N 245.365 1.30045 0.890287 0
M  V30 2523 C 246.605 1.19839 1.65584 0
M  V30 2524 C 246.969 -0.244175 1.90441 0
M  V30 2525 O 248.17 -0.469378 2.6467 0
M  V30 2526 C 246.441 1.99876 2.96284 0
M  V30 2527 S 248 2.06309 3.87275 0
M  V30 2528 H 244.818 0.427157 0.568382 0
M  V30 2529 H 247.42 1.64453 1.05715 0
M  V30 2530 H 246.124 3.03809 2.75913 0
M  V30 2531 H 245.655 1.55903 3.61189 0
M  V30 2532 H 247.67 1.18661 4.81803 0
M  V30 2533 N 246.843 -1.10192 1.12674 0
M  V30 2534 C 247.793 -2.14754 0.765801 0
M  V30 2535 C 248.777 -1.59154 -0.236409 0
M  V30 2536 O 249.969 -1.76951 -0.0415261 0
M  V30 2537 C 247.098 -3.42563 0.224827 0
M  V30 2538 C 246.184 -4.05091 1.25548 0
M  V30 2539 N 246.575 -4.42287 2.4539 0
M  V30 2540 C 244.873 -4.32186 1.10142 0
M  V30 2541 C 245.574 -4.91441 3.11224 0
M  V30 2542 N 244.55 -4.88405 2.38666 0
M  V30 2543 H 248.352 -2.41309 1.67772 0
M  V30 2544 H 245.866 -1.27339 1.00789 0
M  V30 2545 H 247.863 -4.16868 -0.0519578 0
M  V30 2546 H 246.523 -3.17467 -0.681515 0
M  V30 2547 H 247.534 -4.33902 2.82754 0
M  V30 2548 H 244.211 -4.16735 0.252587 0
M  V30 2549 H 245.601 -5.29749 4.13298 0
M  V30 2550 N 248.321 -0.919034 -1.28029 0
M  V30 2551 C 249.551 -0.570143 -1.98577 0
M  V30 2552 C 249.959 0.854172 -1.68821 0
M  V30 2553 O 249.302 1.57807 -0.940351 0
M  V30 2554 C 249.364 -0.705734 -3.52505 0
M  V30 2555 C 249.028 -2.10057 -4.05863 0
M  V30 2556 C 250.025 -3.07385 -4.19298 0
M  V30 2557 C 247.71 -2.41517 -4.40426 0
M  V30 2558 C 249.704 -4.34287 -4.66555 0
M  V30 2559 C 247.391 -3.68657 -4.87376 0
M  V30 2560 C 248.389 -4.64856 -5.00398 0
M  V30 2561 O 248.077 -5.89735 -5.46322 0
M  V30 2562 H 247.809 -0.215592 -0.6407 0
M  V30 2563 H 250.363 -1.23583 -1.64062 0
M  V30 2564 H 248.593 0.0170414 -3.86696 0
M  V30 2565 H 250.282 -0.363172 -4.04272 0
M  V30 2566 H 251.048 -2.84398 -3.92865 0
M  V30 2567 H 246.927 -1.67389 -4.29537 0
M  V30 2568 H 250.471 -5.09377 -4.76635 0
M  V30 2569 H 246.368 -3.91466 -5.13249 0
M  V30 2570 H 247.136 -5.92599 -5.64596 0
M  V30 2571 N 249.799 1.42003 -0.683588 0
M  V30 2572 C 251.215 1.55625 -0.353976 0
M  V30 2573 C 251.415 1.66151 1.14 0
M  V30 2574 O 250.471 1.63329 1.92561 0
M  V30 2575 C 251.784 2.80171 -1.092 0
M  V30 2576 C 253.332 2.93954 -1.07518 0
M  V30 2577 C 253.807 4.21372 -1.79471 0
M  V30 2578 N 255.298 4.28303 -1.76381 0
M  V30 2579 C 256.033 5.25729 -2.28904 0
M  V30 2580 N 255.529 6.29254 -2.89846 0
M  V30 2581 N 257.322 5.17586 -2.19228 0
M  V30 2582 H 249.473 1.33415 -1.6527 0
M  V30 2583 H 251.736 0.64282 -0.696769 0
M  V30 2584 H 251.442 2.78561 -2.14701 0
M  V30 2585 H 251.316 3.7133 -0.662862 0
M  V30 2586 H 253.703 2.95086 -0.028475 0
M  V30 2587 H 253.784 2.04002 -1.54328 0
M  V30 2588 H 253.428 4.21001 -2.84114 0
M  V30 2589 H 253.358 5.10275 -1.30104 0
M  V30 2590 H 255.849 3.54119 -1.31939 0
M  V30 2591 H 256.162 6.99964 -3.27522 0
M  V30 2592 H 254.507 6.29791 -2.93919 0
M  V30 2593 H 257.698 4.35631 -1.71299 0
M  V30 2594 H 257.871 5.93348 -2.60466 0
M  V30 2595 N 251.277 0.427512 1.51691 0
M  V30 2596 C 252.523 -0.142439 2.02299 0
M  V30 2597 C 252.856 -1.43214 1.31162 0
M  V30 2598 O 252.131 -1.89833 0.423511 0
M  V30 2599 C 252.414 -0.371301 3.58181 0
M  V30 2600 C 252.267 0.936358 4.39946 0
M  V30 2601 C 253.586 -1.14542 4.24933 0
M  V30 2602 H 250.705 -0.0502937 0.735282 0
M  V30 2603 H 253.347 0.564584 1.81418 0
M  V30 2604 H 251.497 -0.973559 3.76104 0
M  V30 2605 H 253.169 1.57184 4.33694 0
M  V30 2606 H 251.412 1.5432 4.05423 0
M  V30 2607 H 252.083 0.730388 5.47147 0
M  V30 2608 H 254.559 -0.635362 4.11221 0
M  V30 2609 H 253.435 -1.27431 5.33903 0
M  V30 2610 H 253.696 -2.17093 3.85127 0
M  V30 2611 N 252.755 -1.56801 0.158532 0
M  V30 2612 C 253.98 -2.01295 -0.499516 0
M  V30 2613 C 254.405 -1.03799 -1.56867 0
M  V30 2614 O 253.763 -0.0155162 -1.81293 0
M  V30 2615 C 253.811 -3.44469 -1.06647 0
M  V30 2616 O 252.915 -3.50012 -2.18095 0
M  V30 2617 H 252.256 -0.652884 -0.12099 0
M  V30 2618 H 254.786 -2.02958 0.258661 0
M  V30 2619 H 254.796 -3.8351 -1.39227 0
M  V30 2620 H 253.471 -4.14932 -0.283581 0
M  V30 2621 H 252.048 -3.22822 -1.86656 0
M  V30 2622 N 254.233 0.115231 -1.57178 0
M  V30 2623 C 255.166 1.17166 -1.95825 0
M  V30 2624 C 256.144 1.39912 -0.828463 0
M  V30 2625 O 257.328 1.54004 -1.08697 0
M  V30 2626 C 254.455 2.52478 -2.25771 0
M  V30 2627 C 253.501 2.46136 -3.48309 0
M  V30 2628 S 254.334 1.89736 -5.0076 0
M  V30 2629 C 255.49 3.26713 -5.33863 0
M  V30 2630 H 255.723 0.842103 -2.85124 0
M  V30 2631 H 253.256 0.322136 -1.51002 0
M  V30 2632 H 255.214 3.30332 -2.43702 0
M  V30 2633 H 253.875 2.82609 -1.37079 0
M  V30 2634 H 253.068 3.45819 -3.66641 0
M  V30 2635 H 252.67 1.76404 -3.29784 0
M  V30 2636 H 254.962 4.22935 -5.29275 0
M  V30 2637 H 255.905 3.13205 -6.35065 0
M  V30 2638 H 256.313 3.25316 -4.61335 0
M  V30 2639 N 255.711 1.52812 0.385517 0
M  V30 2640 C 256.674 1.77188 1.45386 0
M  V30 2641 C 257.674 0.641953 1.4743 0
M  V30 2642 O 258.864 0.910033 1.4854 0
M  V30 2643 C 255.996 1.87582 2.8465 0
M  V30 2644 H 257.189 2.72583 1.25054 0
M  V30 2645 H 254.742 1.43586 0.617467 0
M  V30 2646 H 255.477 0.941849 3.10322 0
M  V30 2647 H 255.262 2.69748 2.84567 0
M  V30 2648 H 256.752 2.08102 3.62054 0
M  V30 2649 N 257.189 -0.644168 1.43834 0
M  V30 2650 C 258.152 -1.73857 1.49353 0
M  V30 2651 C 259.152 -1.56315 0.377112 0
M  V30 2652 O 260.342 -1.62048 0.639226 0
M  V30 2653 C 257.474 -3.12819 1.35488 0
M  V30 2654 H 258.667 -1.70342 2.46827 0
M  V30 2655 H 256.22 -0.856652 1.30733 0
M  V30 2656 H 256.955 -3.2194 0.390569 0
M  V30 2657 H 256.74 -3.26958 2.16428 0
M  V30 2658 H 258.23 -3.92606 1.42302 0
M  V30 2659 N 258.668 -1.30515 -0.883378 0
M  V30 2660 C 259.945 -1.10086 -1.6168 0
M  V30 2661 C 260.325 0.349269 -2.08191 0
M  V30 2662 O 259.673 1.34105 -1.85008 0
M  V30 2663 C 259.883 -2.10315 -2.78511 0
M  V30 2664 C 261.231 -2.42119 -3.48803 0
M  V30 2665 O 262.255 -2.08638 -2.88702 0
M  V30 2666 O 261.114 -2.99396 -4.57192 0
M  V30 2667 H 258.208 -0.422907 -0.710689 0
M  V30 2668 H 260.754 -1.41947 -0.930015 0
M  V30 2669 H 259.526 -3.07917 -2.41459 0
M  V30 2670 H 259.149 -1.79282 -3.54886 0
M  V30 2671 N 260.146 1.09593 -1.13257 0
M  V30 2672 C 261.394 1.81375 -0.891492 0
M  V30 2673 C 261.715 1.86049 0.584009 0
M  V30 2674 O 260.985 1.34481 1.42449 0
M  V30 2675 H 259.565 0.671708 -0.326828 0
M  V30 2676 H 262.227 1.3256 -1.42877 0
M  V30 2677 H 261.323 2.84612 -1.28071 0
M  V30 2678 N 261.624 0.925811 1.2754 0
M  V30 2679 C 262.849 0.580924 1.99098 0
M  V30 2680 C 263.274 -0.833555 1.68622 0
M  V30 2681 O 262.632 -1.55903 0.925422 0
M  V30 2682 C 262.68 0.811186 3.51358 0
M  V30 2683 O 261.784 -0.124129 4.12213 0
M  V30 2684 H 261.125 0.223873 0.625122 0
M  V30 2685 H 263.655 1.24455 1.62395 0
M  V30 2686 H 263.665 0.72601 4.01489 0
M  V30 2687 H 262.34 1.84227 3.72872 0
M  V30 2688 H 260.917 0.0108006 3.72898 0
M  V30 2689 N 263.102 -1.41638 0.69111 0
M  V30 2690 C 264.032 -2.3347 0.037248 0
M  V30 2691 C 265.013 -1.51575 -0.771947 0
M  V30 2692 O 266.198 -1.80126 -0.72582 0
M  V30 2693 C 263.328 -3.35354 -0.903064 0
M  V30 2694 C 262.282 -4.27526 -0.201288 0
M  V30 2695 C 261.608 -5.19747 -1.25565 0
M  V30 2696 C 262.908 -5.13959 0.929689 0
M  V30 2697 H 264.602 -2.88397 0.804227 0
M  V30 2698 H 262.148 -1.38669 0.388189 0
M  V30 2699 H 264.101 -3.98519 -1.36969 0
M  V30 2700 H 262.825 -2.78767 -1.70166 0
M  V30 2701 H 261.484 -3.65779 0.245265 0
M  V30 2702 H 261.132 -4.59479 -2.04666 0
M  V30 2703 H 260.832 -5.8225 -0.791128 0
M  V30 2704 H 262.356 -5.85789 -1.72288 0
M  V30 2705 H 263.77 -5.70718 0.543546 0
M  V30 2706 H 262.167 -5.85379 1.32103 0
M  V30 2707 H 263.237 -4.51389 1.77133 0
M  V30 2708 N 264.58 -0.43555 -1.51462 0
M  V30 2709 C 265.81 0.130053 -2.0619 0
M  V30 2710 C 266.218 1.37164 -1.30317 0
M  V30 2711 O 265.561 1.80225 -0.355598 0
M  V30 2712 C 265.623 0.519418 -3.55728 0
M  V30 2713 C 265.287 -0.615119 -4.52841 0
M  V30 2714 C 266.284 -1.48671 -4.9819 0
M  V30 2715 C 263.969 -0.795341 -4.95963 0
M  V30 2716 C 265.963 -2.52324 -5.8533 0
M  V30 2717 C 263.65 -1.83514 -5.82894 0
M  V30 2718 C 264.648 -2.69748 -6.27475 0
M  V30 2719 O 264.336 -3.71944 -7.1268 0
M  V30 2720 H 264.068 0.0121612 -0.675891 0
M  V30 2721 H 266.622 -0.6129 -1.96043 0
M  V30 2722 H 264.852 1.31505 -3.63653 0
M  V30 2723 H 266.541 1.01597 -3.92979 0
M  V30 2724 H 267.307 -1.359 -4.65571 0
M  V30 2725 H 263.186 -0.133713 -4.60806 0
M  V30 2726 H 266.73 -3.19665 -6.20048 0
M  V30 2727 H 262.627 -1.96306 -6.14926 0
M  V30 2728 H 263.395 -3.68503 -7.30854 0
M  V30 2729 N 266.058 1.56714 -0.166846 0
M  V30 2730 C 266.988 2.20754 0.760913 0
M  V30 2731 C 267.969 1.16178 1.24244 0
M  V30 2732 O 269.154 1.44592 1.29641 0
M  V30 2733 C 266.284 2.84478 1.99223 0
M  V30 2734 C 265.238 3.95053 1.64672 0
M  V30 2735 C 264.564 4.45805 2.95232 0
M  V30 2736 C 265.864 5.14865 0.878155 0
M  V30 2737 H 267.558 2.98537 0.22713 0
M  V30 2738 H 265.104 1.43596 0.107805 0
M  V30 2739 H 267.057 3.27951 2.64624 0
M  V30 2740 H 265.781 2.04056 2.55007 0
M  V30 2741 H 264.44 3.52228 1.01641 0
M  V30 2742 H 264.088 3.62181 3.49047 0
M  V30 2743 H 263.788 5.204 2.7287 0
M  V30 2744 H 265.312 4.91962 3.6167 0
M  V30 2745 H 266.726 5.55059 1.43466 0
M  V30 2746 H 265.123 5.95348 0.753738 0
M  V30 2747 H 266.193 4.84735 -0.126377 0
M  V30 2748 N 267.536 -0.106894 1.57237 0
M  V30 2749 C 268.468 -1.15646 1.97885 0
M  V30 2750 C 269.481 -1.36981 0.879779 0
M  V30 2751 O 270.67 -1.35841 1.15799 0
M  V30 2752 C 267.77 -2.51425 2.27241 0
M  V30 2753 C 266.943 -2.50529 3.58545 0
M  V30 2754 C 266.002 -3.68145 3.75973 0
M  V30 2755 O 265.028 -3.51176 4.47956 0
M  V30 2756 N 266.23 -4.87177 3.15656 0
M  V30 2757 H 268.995 -0.81059 2.8853 0
M  V30 2758 H 266.556 -0.296024 1.59171 0
M  V30 2759 H 268.548 -3.28689 2.36105 0
M  V30 2760 H 267.118 -2.78147 1.42663 0
M  V30 2761 H 266.338 -1.58894 3.60758 0
M  V30 2762 H 267.626 -2.46997 4.44826 0
M  V30 2763 H 267.024 -5.03868 2.57165 0
M  V30 2764 H 265.581 -5.62075 3.30023 0
M  V30 2765 N 269.014 -1.53014 -0.377408 0
M  V30 2766 C 269.961 -1.78616 -1.46168 0
M  V30 2767 C 270.931 -0.629917 -1.53692 0
M  V30 2768 O 272.116 -0.870861 -1.69766 0
M  V30 2769 C 269.256 -1.97123 -2.8326 0
M  V30 2770 C 268.369 -3.24831 -2.84796 0
M  V30 2771 C 267.504 -3.33591 -4.13389 0
M  V30 2772 C 266.543 -4.55377 -4.09021 0
M  V30 2773 N 265.68 -4.61355 -5.29241 0
M  V30 2774 H 270.52 -2.71142 -1.23637 0
M  V30 2775 H 268.057 -1.34326 -0.599577 0
M  V30 2776 H 270.015 -2.05839 -3.62886 0
M  V30 2777 H 268.645 -1.07946 -3.04216 0
M  V30 2778 H 267.697 -3.25128 -1.97474 0
M  V30 2779 H 269.009 -4.14523 -2.77439 0
M  V30 2780 H 268.163 -3.41554 -5.01424 0
M  V30 2781 H 266.902 -2.41894 -4.23484 0
M  V30 2782 H 265.907 -4.47527 -3.19373 0
M  V30 2783 H 267.132 -5.48402 -4.00539 0
M  V30 2784 H 265.078 -3.72554 -5.39944 0
M  V30 2785 H 264.995 -5.44935 -5.24006 0
M  V30 2786 H 266.263 -4.73586 -6.19141 0
M  V30 2787 N 270.492 0.636531 -1.44174 0
M  V30 2788 C 271.74 1.39343 -1.46383 0
M  V30 2789 C 272.061 1.94766 -0.0955715 0
M  V30 2790 O 271.331 1.75452 0.871395 0
M  V30 2791 H 269.911 0.517199 -0.538994 0
M  V30 2792 H 272.573 0.74957 -1.7991 0
M  V30 2793 H 271.669 2.22746 -2.18611 0
M  V30 2794 N 271.97 1.30982 0.876444 0
M  V30 2795 C 273.386 1.09498 1.16113 0
M  V30 2796 C 273.586 -0.13875 2.01022 0
M  V30 2797 O 272.642 -0.829935 2.38471 0
M  V30 2798 C 273.955 2.36308 1.85954 0
M  V30 2799 C 275.503 2.41856 1.98683 0
M  V30 2800 C 275.978 3.6853 2.71937 0
M  V30 2801 N 277.469 3.69387 2.79477 0
M  V30 2802 C 278.204 4.64096 3.36753 0
M  V30 2803 N 277.7 5.69155 3.95012 0
M  V30 2804 N 279.493 4.51626 3.3465 0
M  V30 2805 H 271.644 2.10118 0.310494 0
M  V30 2806 H 273.907 0.926634 0.200131 0
M  V30 2807 H 273.613 3.26388 1.31011 0
M  V30 2808 H 273.487 2.4561 2.86278 0
M  V30 2809 H 275.874 1.52249 2.52793 0
M  V30 2810 H 275.955 2.36523 0.9742 0
M  V30 2811 H 275.599 4.58499 2.18496 0
M  V30 2812 H 275.529 3.71127 3.73593 0
M  V30 2813 H 278.02 2.93438 2.38123 0
M  V30 2814 H 278.333 6.3751 4.36808 0
M  V30 2815 H 276.678 5.72937 3.93406 0
M  V30 2816 H 279.869 3.68728 2.8837 0
M  V30 2817 H 280.042 5.25614 3.7899 0
M  V30 2818 N 273.449 -1.08991 1.13837 0
M  V30 2819 C 274.379 -2.17771 0.842507 0
M  V30 2820 C 275.36 -1.6892 -0.20001 0
M  V30 2821 O 276.545 -1.94113 -0.0579731 0
M  V30 2822 C 273.675 -3.4589 0.312644 0
M  V30 2823 C 272.629 -4.08099 1.28992 0
M  V30 2824 C 271.955 -5.31098 0.619623 0
M  V30 2825 C 273.255 -4.50077 2.65005 0
M  V30 2826 H 274.949 -2.42777 1.75213 0
M  V30 2827 H 272.495 -1.16682 0.843875 0
M  V30 2828 H 274.448 -4.21297 0.0933043 0
M  V30 2829 H 273.172 -3.20419 -0.632382 0
M  V30 2830 H 271.831 -3.34717 1.49533 0
M  V30 2831 H 271.479 -5.0191 -0.33102 0
M  V30 2832 H 271.179 -5.73674 1.27167 0
M  V30 2833 H 272.703 -6.09224 0.409669 0
M  V30 2834 H 274.117 -5.16688 2.48407 0
M  V30 2835 H 272.514 -5.03553 3.26427 0
M  V30 2836 H 273.584 -3.62257 3.22332 0
M  V30 2837 N 274.927 -0.932562 -1.27047 0
M  V30 2838 C 276.174 -0.575559 -1.94148 0
M  V30 2839 C 276.502 0.883984 -1.73251 0
M  V30 2840 O 275.757 1.64655 -1.0577 0
M  V30 2841 C 276.056 -0.853713 -3.47054 0
M  V30 2842 C 275.722 -2.29577 -3.88079 0
M  V30 2843 C 274.384 -2.68999 -3.9899 0
M  V30 2844 C 276.736 -3.23331 -4.08787 0
M  V30 2845 C 274.064 -4.01289 -4.28 0
M  V30 2846 C 276.416 -4.55207 -4.39282 0
M  V30 2847 C 275.08 -4.94457 -4.48407 0
M  V30 2848 H 274.35 -0.210612 -0.710439 0
M  V30 2849 H 276.997 -1.17744 -1.51025 0
M  V30 2850 H 275.302 -0.169204 -3.91434 0
M  V30 2851 H 276.999 -0.55639 -3.97121 0
M  V30 2852 H 273.589 -1.97994 -3.80127 0
M  V30 2853 H 277.773 -2.94074 -3.99793 0
M  V30 2854 H 273.029 -4.31374 -4.33275 0
M  V30 2855 H 277.203 -5.27852 -4.54252 0
M  V30 2856 H 274.83 -5.96994 -4.7064 0
M  V30 2857 N 276.405 1.4127 -0.698611 0
M  V30 2858 C 277.816 1.84187 -0.305289 0
M  V30 2859 C 278.167 1.58449 1.15708 0
M  V30 2860 O 277.292 1.05651 1.88856 0
M  V30 2861 C 277.887 3.3435 -0.547314 0
M  V30 2862 C 276.446 3.75826 -0.207878 0
M  V30 2863 C 275.593 2.64647 -0.828099 0
M  V30 2864 H 278.544 1.30778 -0.89904 0
M  V30 2865 H 278.565 3.8001 0.192998 0
M  V30 2866 H 278.077 3.53051 -1.61172 0
M  V30 2867 H 276.178 3.62725 0.852143 0
M  V30 2868 H 276.291 4.74462 -0.665021 0
M  V30 2869 H 274.655 2.53395 -0.257458 0
M  V30 2870 H 275.438 2.86165 -1.89643 0
M  V30 2871 N 277.883 0.443576 1.51229 0
M  V30 2872 C 279.131 -0.120557 2.0174 0
M  V30 2873 C 279.452 -1.42665 1.32935 0
M  V30 2874 O 278.722 -1.9028 0.465866 0
M  V30 2875 H 277.302 -0.0475426 0.745486 0
M  V30 2876 H 279.964 0.587711 1.85828 0
M  V30 2877 H 279.06 -0.291972 3.10731 0
M  V30 2878 N 279.361 -1.56624 0.175154 0
M  V30 2879 C 280.291 -2.21155 -0.749195 0
M  V30 2880 C 281.272 -1.16836 -1.23626 0
M  V30 2881 O 282.457 -1.45277 -1.28873 0
M  V30 2882 C 279.587 -2.8553 -1.97711 0
M  V30 2883 C 278.541 -3.95921 -1.62575 0
M  V30 2884 C 277.867 -4.47365 -2.92864 0
M  V30 2885 C 279.167 -5.15323 -0.850838 0
M  V30 2886 H 280.861 -2.98653 -0.211295 0
M  V30 2887 H 278.407 -1.43651 -0.100188 0
M  V30 2888 H 280.36 -3.2935 -2.62881 0
M  V30 2889 H 279.084 -2.05406 -2.53921 0
M  V30 2890 H 277.743 -3.52762 -0.997719 0
M  V30 2891 H 277.391 -3.64027 -3.47122 0
M  V30 2892 H 277.091 -5.21839 -2.70106 0
M  V30 2893 H 278.615 -4.93873 -3.59056 0
M  V30 2894 H 280.029 -5.55812 -1.40521 0
M  V30 2895 H 278.426 -5.95739 -0.722154 0
M  V30 2896 H 279.496 -4.84661 0.152082 0
M  V30 2897 N 280.839 0.0985539 -1.57292 0
M  V30 2898 C 281.749 1.13824 -2.05137 0
M  V30 2899 C 282.765 1.44076 -0.975604 0
M  V30 2900 O 283.941 1.54786 -1.28853 0
M  V30 2901 C 281.006 2.43969 -2.46333 0
M  V30 2902 C 280.067 2.2093 -3.68087 0
M  V30 2903 C 279.3 3.44869 -4.0731 0
M  V30 2904 O 279.523 4.52972 -3.46659 0
M  V30 2905 O 278.457 3.34661 -5.00285 0
M  V30 2906 H 282.283 0.761881 -2.93988 0
M  V30 2907 H 279.868 0.310818 -1.46131 0
M  V30 2908 H 281.75 3.20609 -2.73473 0
M  V30 2909 H 280.425 2.81038 -1.60621 0
M  V30 2910 H 279.332 1.42081 -3.46069 0
M  V30 2911 H 280.665 1.88755 -4.54568 0
M  V30 2912 N 282.317 1.53212 0.369288 0
M  V30 2913 C 283.227 1.82342 1.47609 0
M  V30 2914 C 284.243 0.711532 1.58787 0
M  V30 2915 O 285.419 1.0012 1.74751 0
M  V30 2916 C 282.484 2.00393 2.8292 0
M  V30 2917 C 281.545 3.24297 2.81301 0
M  V30 2918 C 280.778 3.41478 4.10157 0
M  V30 2919 O 281.001 2.63033 5.06132 0
M  V30 2920 O 279.935 4.34817 4.16194 0
M  V30 2921 H 283.761 2.76366 1.25918 0
M  V30 2922 H 281.346 1.38547 0.559034 0
M  V30 2923 H 283.228 2.13859 3.63101 0
M  V30 2924 H 281.903 1.09559 3.04596 0
M  V30 2925 H 280.81 3.16257 1.99831 0
M  V30 2926 H 282.143 4.15041 2.64578 0
M  V30 2927 N 283.795 -0.628877 1.44509 0
M  V30 2928 C 284.725 -1.75187 1.54376 0
M  V30 2929 C 285.706 -1.65411 0.396618 0
M  V30 2930 O 286.891 -1.84137 0.617031 0
M  V30 2931 C 284.021 -3.13725 1.48976 0
M  V30 2932 C 282.975 -3.38291 2.62189 0
M  V30 2933 C 282.301 -4.76883 2.41841 0
M  V30 2934 C 283.601 -3.30632 4.04326 0
M  V30 2935 H 285.295 -1.67187 2.48373 0
M  V30 2936 H 282.841 -0.802909 1.19538 0
M  V30 2937 H 284.794 -3.92064 1.54478 0
M  V30 2938 H 283.518 -3.22515 0.514961 0
M  V30 2939 H 282.177 -2.62334 2.56079 0
M  V30 2940 H 281.825 -4.82378 1.42548 0
M  V30 2941 H 281.525 -4.94278 3.17747 0
M  V30 2942 H 283.049 -5.57449 2.49165 0
M  V30 2943 H 284.463 -3.98873 4.11793 0
M  V30 2944 H 282.86 -3.59561 4.80454 0
M  V30 2945 H 283.93 -2.28404 4.27738 0
M  V30 2946 N 285.273 -1.31445 -0.869486 0
M  V30 2947 C 286.203 -1.21727 -1.99261 0
M  V30 2948 C 287.184 -0.104359 -1.6978 0
M  V30 2949 O 288.369 -0.289038 -1.92037 0
M  V30 2950 C 285.499 -0.924317 -3.34774 0
M  V30 2951 C 284.453 -1.99685 -3.78563 0
M  V30 2952 C 283.779 -1.55658 -5.11541 0
M  V30 2953 C 285.079 -3.41003 -3.95619 0
M  V30 2954 H 286.773 -2.1569 -2.07649 0
M  V30 2955 H 284.319 -1.03839 -0.997675 0
M  V30 2956 H 286.272 -0.842934 -4.12883 0
M  V30 2957 H 284.996 0.0509793 -3.2656 0
M  V30 2958 H 283.655 -2.06813 -3.02694 0
M  V30 2959 H 283.303 -0.569132 -4.9977 0
M  V30 2960 H 283.003 -2.27409 -5.41811 0
M  V30 2961 H 284.527 -1.48928 -5.92159 0
M  V30 2962 H 285.941 -3.36547 -4.64122 0
M  V30 2963 H 284.338 -4.10975 -4.37286 0
M  V30 2964 H 285.408 -3.81754 -2.98985 0
M  V30 2965 N 286.751 1.08385 -1.14413 0
M  V30 2966 C 287.979 1.84517 -0.936001 0
M  V30 2967 C 288.394 1.81626 0.515503 0
M  V30 2968 O 287.751 1.22008 1.35721 0
M  V30 2969 C 287.802 3.32049 -1.42918 0
M  V30 2970 O 287.523 3.34951 -2.82381 0
M  V30 2971 C 289.024 4.24986 -1.26103 0
M  V30 2972 H 286.244 0.582491 -0.333084 0
M  V30 2973 H 288.788 1.36885 -1.5193 0
M  V30 2974 H 286.943 3.7707 -0.888641 0
M  V30 2975 H 287.357 4.27048 -3.04517 0
M  V30 2976 H 288.831 5.26615 -1.6547 0
M  V30 2977 H 289.308 4.38726 -0.20392 0
M  V30 2978 H 289.914 3.85791 -1.79012 0
M  V30 2979 N 288.23 0.939286 1.26551 0
M  V30 2980 C 289.46 0.601663 1.97645 0
M  V30 2981 C 289.868 -0.827206 1.70159 0
M  V30 2982 O 289.211 -1.56291 0.965338 0
M  V30 2983 C 289.273 0.761725 3.51337 0
M  V30 2984 C 288.937 2.16487 4.0247 0
M  V30 2985 C 289.934 3.14016 4.14355 0
M  V30 2986 C 287.619 2.48494 4.36527 0
M  V30 2987 C 289.613 4.41654 4.59587 0
M  V30 2988 C 287.3 3.76364 4.81449 0
M  V30 2989 C 288.298 4.72758 4.92939 0
M  V30 2990 O 287.986 5.98352 5.36871 0
M  V30 2991 H 287.718 0.225758 0.637189 0
M  V30 2992 H 290.272 1.26178 1.62075 0
M  V30 2993 H 288.502 0.0444808 3.86674 0
M  V30 2994 H 290.191 0.427442 4.03643 0
M  V30 2995 H 290.957 2.90613 3.8829 0
M  V30 2996 H 286.836 1.74202 4.26819 0
M  V30 2997 H 290.38 5.16896 4.68471 0
M  V30 2998 H 286.277 3.99582 5.06956 0
M  V30 2999 H 287.045 6.01507 5.55096 0
M  V30 3000 N 289.708 -1.40897 0.706093 0
M  V30 3001 C 290.938 -2.05075 0.250523 0
M  V30 3002 C 291.346 -1.53275 -1.10921 0
M  V30 3003 O 290.689 -0.680281 -1.7064 0
M  V30 3004 C 290.751 -3.59219 0.142178 0
M  V30 3005 C 290.415 -4.33864 1.43566 0
M  V30 3006 C 291.412 -4.62448 2.37566 0
M  V30 3007 C 289.097 -4.72946 1.69195 0
M  V30 3008 C 291.091 -5.29088 3.5545 0
M  V30 3009 C 288.778 -5.3932 2.87362 0
M  V30 3010 C 289.776 -5.6732 3.80312 0
M  V30 3011 O 289.464 -6.32325 4.96408 0
M  V30 3012 H 289.196 -0.666645 0.112074 0
M  V30 3013 H 291.75 -1.81467 0.962239 0
M  V30 3014 H 289.98 -3.81609 -0.6254 0
M  V30 3015 H 291.669 -4.0495 -0.277584 0
M  V30 3016 H 292.435 -4.32727 2.19027 0
M  V30 3017 H 288.314 -4.50527 0.977042 0
M  V30 3018 H 291.858 -5.50859 4.28018 0
M  V30 3019 H 287.755 -5.68461 3.05814 0
M  V30 3020 H 288.523 -6.50821 4.9636 0
M  V30 3021 N 291.186 -0.45159 -1.50991 0
M  V30 3022 C 292.133 0.352625 -2.2809 0
M  V30 3023 C 293.103 1.0044 -1.32291 0
M  V30 3024 O 294.288 1.02058 -1.6121 0
M  V30 3025 C 291.428 1.43983 -3.13629 0
M  V30 3026 C 290.541 0.804772 -4.24438 0
M  V30 3027 C 289.676 1.86822 -4.97263 0
M  V30 3028 C 288.715 1.21236 -5.99973 0
M  V30 3029 N 287.852 2.2178 -6.66152 0
M  V30 3030 H 292.692 -0.311186 -2.96371 0
M  V30 3031 H 290.229 -0.165308 -1.46168 0
M  V30 3032 H 292.187 2.08161 -3.61559 0
M  V30 3033 H 290.817 2.07307 -2.47434 0
M  V30 3034 H 289.869 0.0509129 -3.80366 0
M  V30 3035 H 291.181 0.286076 -4.97979 0
M  V30 3036 H 290.335 2.58628 -5.48813 0
M  V30 3037 H 289.074 2.42068 -4.23385 0
M  V30 3038 H 288.079 0.479828 -5.47702 0
M  V30 3039 H 289.304 0.667051 -6.75816 0
M  V30 3040 H 287.25 2.76079 -5.95077 0
M  V30 3041 H 287.167 1.74841 -7.35504 0
M  V30 3042 H 288.435 2.93026 -7.22327 0
M  V30 3043 N 292.664 1.56529 -0.183458 0
M  V30 3044 C 293.627 2.17324 0.728223 0
M  V30 3045 C 294.627 1.12453 1.14939 0
M  V30 3046 O 295.817 1.37902 1.06437 0
M  V30 3047 C 292.949 2.76591 1.99274 0
M  V30 3048 H 294.142 2.99241 0.198772 0
M  V30 3049 H 291.695 1.5616 0.0661391 0
M  V30 3050 H 292.43 1.98441 2.56499 0
M  V30 3051 H 292.215 3.5335 1.69959 0
M  V30 3052 H 293.705 3.23311 2.6431 0
M  V30 3053 N 294.142 -0.090211 1.57342 0
M  V30 3054 C 295.09 -1.12792 2.03422 0
M  V30 3055 C 296.084 -1.41182 0.936166 0
M  V30 3056 O 297.29 -1.40805 1.12133 0
M  V30 3057 H 293.665 -0.380986 0.648347 0
M  V30 3058 H 295.636 -0.71299 2.89757 0
M  V30 3059 C 294.385 -2.43855 2.47851 0
M  V30 3060 H 293.708 -2.22855 3.31927 0
M  V30 3061 H 295.148 -3.14955 2.83865 0
M  V30 3062 C 293.607 -3.08503 1.3538 0
M  V30 3063 O 294.137 -3.95805 0.685641 0
M  V30 3064 N 292.343 -2.68831 1.10355 0
M  V30 3065 H 291.89 -1.97929 1.64869 0
M  V30 3066 H 291.848 -3.12412 0.353031 0
M  V30 3067 N 295.62 -1.53406 -0.361157 0
M  V30 3068 C 296.866 -1.70999 -1.1014 0
M  V30 3069 C 297.221 -0.458425 -1.86859 0
M  V30 3070 O 296.514 0.548654 -1.83577 0
M  V30 3071 C 296.708 -2.90211 -2.08596 0
M  V30 3072 C 296.537 -4.26841 -1.41553 0
M  V30 3073 C 295.307 -4.91621 -1.16778 0
M  V30 3074 C 297.505 -5.07212 -0.850915 0
M  V30 3075 N 295.487 -6.12164 -0.461312 0
M  V30 3076 C 296.858 -6.19394 -0.274046 0
M  V30 3077 C 298.913 -4.92218 -0.750036 0
M  V30 3078 C 297.616 -7.18221 0.393868 0
M  V30 3079 C 299.642 -5.91322 -0.095894 0
M  V30 3080 C 299.004 -7.0283 0.470081 0
M  V30 3081 H 295.103 -0.678939 -0.388028 0
M  V30 3082 H 297.687 -1.90811 -0.38722 0
M  V30 3083 H 295.858 -2.71931 -2.77323 0
M  V30 3084 H 297.59 -2.96606 -2.7533 0
M  V30 3085 H 294.345 -4.50849 -1.45024 0
M  V30 3086 H 294.769 -6.76888 -0.123312 0
M  V30 3087 H 299.411 -4.06192 -1.17337 0
M  V30 3088 H 297.129 -8.03835 0.82914 0
M  V30 3089 H 300.715 -5.81797 -0.0187075 0
M  V30 3090 H 299.595 -7.782 0.968241 0
M  V30 3091 N 297.098 0.621204 -1.44841 0
M  V30 3092 C 298.045 1.73267 -1.5247 0
M  V30 3093 C 299.015 1.6189 -0.371611 0
M  V30 3094 O 300.2 1.81668 -0.58321 0
M  V30 3095 C 297.34 3.11545 -1.48438 0
M  V30 3096 C 296.453 3.33827 -2.74196 0
M  V30 3097 C 295.588 4.62133 -2.61929 0
M  V30 3098 C 294.627 4.77627 -3.82804 0
M  V30 3099 N 293.764 5.97219 -3.69153 0
M  V30 3100 H 298.604 1.66082 -2.47428 0
M  V30 3101 H 296.141 0.810026 -1.22788 0
M  V30 3102 H 298.099 3.91528 -1.4409 0
M  V30 3103 H 296.729 3.1772 -0.570402 0
M  V30 3104 H 295.781 2.47715 -2.88689 0
M  V30 3105 H 297.093 3.41153 -3.6389 0
M  V30 3106 H 296.247 5.50291 -2.5547 0
M  V30 3107 H 294.986 4.57182 -1.69811 0
M  V30 3108 H 293.991 3.87896 -3.89637 0
M  V30 3109 H 295.216 4.84385 -4.75971 0
M  V30 3110 H 293.162 5.93339 -2.79794 0
M  V30 3111 H 293.079 6.05644 -4.52472 0
M  V30 3112 H 294.347 6.87912 -3.66603 0
M  V30 3113 N 298.576 1.31904 0.862503 0
M  V30 3114 C 299.506 1.22782 1.98612 0
M  V30 3115 C 300.487 0.113362 1.69722 0
M  V30 3116 O 301.672 0.299218 1.91881 0
M  V30 3117 C 298.802 0.942058 3.34279 0
M  V30 3118 C 297.756 2.0169 3.77499 0
M  V30 3119 C 297.082 1.58369 5.10709 0
M  V30 3120 C 298.382 3.43096 3.93805 0
M  V30 3121 H 300.076 2.16788 2.06502 0
M  V30 3122 H 297.622 1.04366 0.992154 0
M  V30 3123 H 299.575 0.864818 4.1243 0
M  V30 3124 H 298.299 -0.0336603 3.26583 0
M  V30 3125 H 296.958 2.08416 3.01593 0
M  V30 3126 H 296.606 0.595628 4.99461 0
M  V30 3127 H 296.306 2.30279 5.40597 0
M  V30 3128 H 297.83 1.52067 5.91361 0
M  V30 3129 H 299.244 3.39003 4.62331 0
M  V30 3130 H 297.641 4.13288 4.35101 0
M  V30 3131 H 298.711 3.83334 2.96957 0
M  V30 3132 N 300.054 -1.07777 1.14986 0
M  V30 3133 C 301.303 -1.79669 0.916617 0
M  V30 3134 C 301.616 -1.87474 -0.557917 0
M  V30 3135 O 302.822 -2.55845 -0.908617 0
M  V30 3136 C 301.278 -3.22848 1.59051 0
M  V30 3137 C 300.886 -3.23257 3.10176 0
M  V30 3138 C 302.63 -3.99379 1.43864 0
M  V30 3139 C 300.537 -4.61063 3.70372 0
M  V30 3140 H 299.467 -0.673349 0.33929 0
M  V30 3141 H 302.118 -1.21003 1.37951 0
M  V30 3142 H 300.5 -3.8168 1.0553 0
M  V30 3143 H 301.674 -2.74095 3.70417 0
M  V30 3144 H 299.989 -2.60222 3.25074 0
M  V30 3145 H 302.586 -5.0122 1.86232 0
M  V30 3146 H 302.929 -4.14511 0.385564 0
M  V30 3147 H 303.462 -3.47032 1.94457 0
M  V30 3148 H 300.201 -4.51135 4.7556 0
M  V30 3149 H 299.721 -5.1048 3.14913 0
M  V30 3150 H 301.4 -5.30034 3.71043 0
M  V30 3151 N 301.532 -0.945985 -1.26051 0
M  V30 3152 C 302.464 -0.416662 -2.25381 0
M  V30 3153 C 303.477 0.462712 -1.56086 0
M  V30 3154 O 304.666 0.272383 -1.7641 0
M  V30 3155 C 301.766 0.419812 -3.3629 0
M  V30 3156 C 300.939 -0.444531 -4.35135 0
M  V30 3157 C 299.998 0.332305 -5.2515 0
M  V30 3158 O 299.024 -0.266324 -5.68577 0
M  V30 3159 N 300.226 1.62763 -5.57215 0
M  V30 3160 H 302.991 -1.27059 -2.71433 0
M  V30 3161 H 300.552 -0.815392 -1.39868 0
M  V30 3162 H 302.544 0.947013 -3.93464 0
M  V30 3163 H 301.114 1.17456 -2.89694 0
M  V30 3164 H 300.334 -1.15291 -3.76964 0
M  V30 3165 H 301.622 -1.03478 -4.98166 0
M  V30 3166 H 301.02 2.13603 -5.23823 0
M  V30 3167 H 299.577 2.10097 -6.17011 0
M  V30 3168 N 303.011 1.40521 -0.713556 0
M  V30 3169 C 303.959 2.32549 -0.0485227 0
M  V30 3170 C 304.953 1.51931 0.74922 0
M  V30 3171 O 306.159 1.67745 0.652816 0
M  V30 3172 H 302.534 0.751994 0.00311138 0
M  V30 3173 H 304.505 2.86291 -0.841443 0
M  V30 3174 C 303.254 3.36879 0.860687 0
M  V30 3175 H 302.577 3.98978 0.256246 0
M  V30 3176 H 304.017 4.03772 1.294 0
M  V30 3177 C 302.476 2.72197 1.9852 0
M  V30 3178 O 303.006 2.5837 3.07584 0
M  V30 3179 N 301.212 2.30612 1.76823 0
M  V30 3180 H 300.759 2.42059 0.881217 0
M  V30 3181 H 300.717 1.87672 2.52243 0
M  V30 3182 N 304.489 0.459591 1.5075 0
M  V30 3183 C 305.9 0.00171547 1.867 0
M  V30 3184 C 306.251 -1.39934 1.37525 0
M  V30 3185 O 305.376 -2.03523 0.735349 0
M  V30 3186 C 305.971 -0.00366298 3.388 0
M  V30 3187 C 304.53 -0.406026 3.74204 0
M  V30 3188 C 303.677 0.38673 2.7459 0
M  V30 3189 H 306.628 0.674413 1.43657 0
M  V30 3190 H 306.649 -0.808371 3.71814 0
M  V30 3191 H 306.161 1.01617 3.74561 0
M  V30 3192 H 304.262 -1.43063 3.4404 0
M  V30 3193 H 304.375 -0.115362 4.78961 0
M  V30 3194 H 302.739 -0.158019 2.54209 0
M  V30 3195 H 303.522 1.40585 3.13194 0
M  V30 3196 N 305.967 -1.56429 0.191757 0
M  V30 3197 C 306.897 -2.21937 -0.725696 0
M  V30 3198 C 307.878 -1.1814 -1.2238 0
M  V30 3199 O 309.063 -1.46636 -1.27325 0
M  V30 3200 C 306.193 -2.87611 -1.94672 0
M  V30 3201 C 305.147 -3.97623 -1.58366 0
M  V30 3202 C 304.473 -4.50446 -2.88102 0
M  V30 3203 C 305.773 -5.16197 -0.796133 0
M  V30 3204 H 307.467 -2.98861 -0.179606 0
M  V30 3205 H 305.013 -1.43749 -0.0849464 0
M  V30 3206 H 306.966 -3.3212 -2.59373 0
M  V30 3207 H 305.69 -2.08087 -2.51728 0
M  V30 3208 H 304.349 -3.53801 -0.960247 0
M  V30 3209 H 303.997 -3.67688 -3.43241 0
M  V30 3210 H 303.697 -5.24675 -2.64556 0
M  V30 3211 H 305.221 -4.97654 -3.53798 0
M  V30 3212 H 306.635 -5.57271 -1.34618 0
M  V30 3213 H 305.032 -5.96471 -0.658928 0
M  V30 3214 H 306.102 -4.84473 0.203478 0
M  V30 3215 N 307.445 0.0818655 -1.57387 0
M  V30 3216 C 308.375 1.09885 -2.06028 0
M  V30 3217 C 309.356 1.4098 -0.951774 0
M  V30 3218 O 310.541 1.50781 -1.22387 0
M  V30 3219 C 307.671 2.4151 -2.4958 0
M  V30 3220 C 306.625 2.24792 -3.64215 0
M  V30 3221 C 305.951 3.61712 -3.93787 0
M  V30 3222 C 307.251 1.67749 -4.94629 0
M  V30 3223 H 308.945 0.694128 -2.91243 0
M  V30 3224 H 306.491 0.332448 -1.4011 0
M  V30 3225 H 308.444 3.12939 -2.82219 0
M  V30 3226 H 307.168 2.83943 -1.61381 0
M  V30 3227 H 305.827 1.55807 -3.31843 0
M  V30 3228 H 305.475 4.01697 -3.02735 0
M  V30 3229 H 305.175 3.51368 -4.70971 0
M  V30 3230 H 306.699 4.34587 -4.28913 0
M  V30 3231 H 308.113 2.29032 -5.25564 0
M  V30 3232 H 306.51 1.68128 -5.76067 0
M  V30 3233 H 307.58 0.638059 -4.80684 0
M  V30 3234 N 308.923 1.53595 0.353017 0
M  V30 3235 C 309.855 1.77219 1.45348 0
M  V30 3236 C 310.868 0.65324 1.49119 0
M  V30 3237 O 312.057 0.929775 1.52373 0
M  V30 3238 C 309.157 1.84841 2.84055 0
M  V30 3239 C 308.33 3.14649 3.03833 0
M  V30 3240 C 307.389 3.13351 4.22727 0
M  V30 3241 O 306.415 3.87107 4.17297 0
M  V30 3242 N 307.617 2.35052 5.30783 0
M  V30 3243 H 310.382 2.72178 1.25457 0
M  V30 3244 H 307.943 1.52528 0.542833 0
M  V30 3245 H 309.935 1.81435 3.61751 0
M  V30 3246 H 308.505 0.971114 2.97133 0
M  V30 3247 H 307.725 3.31256 2.13689 0
M  V30 3248 H 309.013 4.00411 3.13925 0
M  V30 3249 H 308.411 1.74663 5.38061 0
M  V30 3250 H 306.968 2.37453 6.07009 0
M  V30 3251 N 310.401 -0.613514 1.45168 0
M  V30 3252 C 311.812 -1.19539 1.43413 0
M  V30 3253 C 312.163 -1.95558 0.158632 0
M  V30 3254 O 311.288 -2.0335 -0.740119 0
M  V30 3255 C 311.883 -2.17445 2.59813 0
M  V30 3256 C 310.442 -2.71022 2.61197 0
M  V30 3257 C 309.589 -1.46323 2.35552 0
M  V30 3258 H 312.54 -0.403163 1.53494 0
M  V30 3259 H 312.561 -3.00373 2.33574 0
M  V30 3260 H 312.073 -1.62089 3.52631 0
M  V30 3261 H 310.174 -3.30332 1.7237 0
M  V30 3262 H 310.287 -3.15859 3.60236 0
M  V30 3263 H 308.651 -1.75072 1.84992 0
M  V30 3264 H 309.434 -0.92844 3.30507 0
M  V30 3265 N 311.879 -1.3236 -0.855495 0
M  V30 3266 C 313.119 -1.24187 -1.62348 0
M  V30 3267 C 313.483 0.193597 -1.91021 0
M  V30 3268 O 314.684 0.39904 -2.65822 0
M  V30 3269 C 312.955 -2.07661 -2.90881 0
M  V30 3270 S 314.514 -2.16505 -3.81669 0
M  V30 3271 H 311.332 -0.442076 -0.556857 0
M  V30 3272 H 313.934 -1.67198 -1.01317 0
M  V30 3273 H 312.638 -3.11018 -2.67761 0
M  V30 3274 H 312.169 -1.65425 -3.56929 0
M  V30 3275 H 314.184 -1.31394 -4.78487 0
M  V30 3276 N 313.357 1.07166 -1.15556 0
M  V30 3277 C 314.29 2.13808 -0.797593 0
M  V30 3278 C 315.268 1.6101 0.226812 0
M  V30 3279 O 316.452 1.88161 0.112932 0
M  V30 3280 C 313.579 3.38187 -0.186371 0
M  V30 3281 C 312.625 4.09766 -1.18297 0
M  V30 3282 S 313.458 4.60932 -2.72584 0
M  V30 3283 C 314.614 5.88583 -2.12886 0
M  V30 3284 H 314.847 2.43843 -1.70083 0
M  V30 3285 H 312.38 1.19467 -0.978106 0
M  V30 3286 H 314.338 4.10189 0.159837 0
M  V30 3287 H 312.999 3.06326 0.694489 0
M  V30 3288 H 312.192 4.99065 -0.703562 0
M  V30 3289 H 311.794 3.43736 -1.47381 0
M  V30 3290 H 314.086 6.60866 -1.49208 0
M  V30 3291 H 315.029 6.41241 -3.0036 0
M  V30 3292 H 315.437 5.42194 -1.57116 0
M  V30 3293 N 314.835 0.952656 1.25548 0
M  V30 3294 C 316.246 0.647392 1.75116 0
M  V30 3295 C 316.597 -0.837274 1.77438 0
M  V30 3296 O 315.722 -1.65525 1.39393 0
M  V30 3297 C 316.317 1.16845 3.18014 0
M  V30 3298 C 314.876 0.913382 3.6515 0
M  V30 3299 C 314.023 1.31265 2.44264 0
M  V30 3300 H 316.974 1.12968 1.11462 0
M  V30 3301 H 316.995 0.527606 3.76824 0
M  V30 3302 H 316.507 2.24902 3.16292 0
M  V30 3303 H 314.608 -0.152316 3.72289 0
M  V30 3304 H 314.721 1.54845 4.53387 0
M  V30 3305 H 313.085 0.731028 2.43984 0
M  V30 3306 H 313.868 2.40239 2.45234 0
M  V30 3307 N 316.313 -1.40141 0.720998 0
M  V30 3308 C 317.245 -2.29177 0.0324669 0
M  V30 3309 C 318.258 -1.46105 -0.718126 0
M  V30 3310 O 319.447 -1.69335 -0.564608 0
M  V30 3311 C 316.547 -3.24473 -0.978292 0
M  V30 3312 C 315.72 -4.36423 -0.292115 0
M  V30 3313 C 314.779 -5.12122 -1.20901 0
M  V30 3314 O 313.805 -5.64981 -0.691766 0
M  V30 3315 N 315.007 -5.21992 -2.53978 0
M  V30 3316 H 317.772 -2.88909 0.796984 0
M  V30 3317 H 315.333 -1.51569 0.569068 0
M  V30 3318 H 317.325 -3.71987 -1.59398 0
M  V30 3319 H 315.895 -2.65871 -1.64413 0
M  V30 3320 H 315.115 -3.90967 0.503847 0
M  V30 3321 H 316.403 -5.08467 0.183971 0
M  V30 3322 H 315.801 -4.8054 -2.98493 0
M  V30 3323 H 314.358 -5.72995 -3.10677 0
M  V30 3324 N 317.792 -0.46758 -1.50504 0
M  V30 3325 C 318.739 0.328413 -2.28452 0
M  V30 3326 C 319.709 0.990313 -1.33349 0
M  V30 3327 O 320.894 1.00343 -1.62284 0
M  V30 3328 C 318.034 1.40648 -3.15138 0
M  V30 3329 C 317.147 0.759709 -4.25267 0
M  V30 3330 C 316.282 1.81537 -4.99217 0
M  V30 3331 C 315.321 1.14866 -6.01226 0
M  V30 3332 N 314.458 2.14702 -6.68467 0
M  V30 3333 H 319.298 -0.342603 -2.96024 0
M  V30 3334 H 316.835 -0.180801 -1.45985 0
M  V30 3335 H 318.793 2.04315 -3.63746 0
M  V30 3336 H 317.423 2.04671 -2.49619 0
M  V30 3337 H 316.475 0.0105671 -3.80399 0
M  V30 3338 H 317.787 0.233243 -4.98254 0
M  V30 3339 H 316.941 2.52793 -5.51526 0
M  V30 3340 H 315.68 2.37564 -4.25928 0
M  V30 3341 H 314.685 0.42171 -5.4818 0
M  V30 3342 H 315.91 0.595334 -6.76485 0
M  V30 3343 H 313.856 2.69752 -5.97972 0
M  V30 3344 H 313.773 1.6703 -7.37317 0
M  V30 3345 H 315.041 2.85348 -7.25394 0
M  V30 3346 N 319.27 1.56325 -0.20005 0
M  V30 3347 C 320.233 2.18084 0.705132 0
M  V30 3348 C 321.233 1.13666 1.1374 0
M  V30 3349 O 322.423 1.39023 1.04968 0
M  V30 3350 C 319.555 2.78689 1.96329 0
M  V30 3351 H 320.748 2.99435 0.167023 0
M  V30 3352 H 318.301 1.56221 0.0495725 0
M  V30 3353 H 319.036 2.0115 2.5438 0
M  V30 3354 H 318.821 3.55133 1.66202 0
M  V30 3355 H 320.311 3.26096 2.60866 0
M  V30 3356 N 320.748 -0.0735177 1.57428 0
M  V30 3357 C 322.159 -0.625551 1.75908 0
M  V30 3358 C 322.51 -1.78 0.825261 0
M  V30 3359 O 321.635 -2.16398 0.00893964 0
M  V30 3360 C 322.23 -1.14155 3.18989 0
M  V30 3361 C 320.789 -1.63946 3.38819 0
M  V30 3362 C 319.936 -0.558151 2.71625 0
M  V30 3363 H 322.887 0.152647 1.57964 0
M  V30 3364 H 322.908 -2.0104 3.23053 0
M  V30 3365 H 322.42 -0.301116 3.8693 0
M  V30 3366 H 320.521 -2.50321 2.7599 0
M  V30 3367 H 320.634 -1.71759 4.47253 0
M  V30 3368 H 318.998 -1.00278 2.34129 0
M  V30 3369 H 319.781 0.272071 3.4222 0
M  V30 3370 N 322.226 -1.5378 -0.344866 0
M  V30 3371 C 323.642 -1.44015 -0.687888 0
M  V30 3372 C 323.842 -0.595834 -1.92489 0
M  V30 3373 O 322.898 -0.0863064 -2.52352 0
M  V30 3374 C 324.211 -2.87481 -0.881758 0
M  V30 3375 C 325.759 -2.97247 -0.980459 0
M  V30 3376 C 326.234 -4.41819 -1.20665 0
M  V30 3377 N 327.725 -4.45339 -1.27389 0
M  V30 3378 C 328.46 -5.54333 -1.46639 0
M  V30 3379 N 327.956 -6.73335 -1.63071 0
M  V30 3380 N 329.749 -5.41944 -1.49176 0
M  V30 3381 H 321.9 -2.07169 0.468475 0
M  V30 3382 H 324.163 -0.93643 0.147655 0
M  V30 3383 H 323.869 -3.51672 -0.0443444 0
M  V30 3384 H 323.743 -3.32352 -1.78388 0
M  V30 3385 H 326.13 -2.33197 -1.8084 0
M  V30 3386 H 326.211 -2.5574 -0.0552713 0
M  V30 3387 H 325.855 -5.06449 -0.383652 0
M  V30 3388 H 325.785 -4.80917 -2.14539 0
M  V30 3389 H 328.276 -3.59585 -1.1622 0
M  V30 3390 H 328.589 -7.52165 -1.77391 0
M  V30 3391 H 326.934 -6.76282 -1.60209 0
M  V30 3392 H 330.125 -4.47932 -1.3592 0
M  V30 3393 H 330.298 -6.26946 -1.63837 0
M  V30 3394 N 323.704 0.605807 -1.45491 0
M  V30 3395 C 324.636 1.73031 -1.5031 0
M  V30 3396 C 325.649 1.57968 -0.393687 0
M  V30 3397 O 326.838 1.65817 -0.660839 0
M  V30 3398 C 323.938 3.11049 -1.34543 0
M  V30 3399 C 323.111 3.52334 -2.59189 0
M  V30 3400 C 322.17 4.69323 -2.37954 0
M  V30 3401 O 321.196 4.7635 -3.11575 0
M  V30 3402 N 322.398 5.62705 -1.4263 0
M  V30 3403 H 325.163 1.6936 -2.4726 0
M  V30 3404 H 322.724 0.79114 -1.41254 0
M  V30 3405 H 324.716 3.87071 -1.18144 0
M  V30 3406 H 323.286 3.09217 -0.458623 0
M  V30 3407 H 322.506 2.66256 -2.90691 0
M  V30 3408 H 323.794 3.76677 -3.42041 0
M  V30 3409 H 323.192 5.59744 -0.818758 0
M  V30 3410 H 321.749 6.38252 -1.32202 0
M  V30 3411 N 325.182 1.32811 0.848464 0
M  V30 3412 C 326.459 1.14334 1.58704 0
M  V30 3413 C 326.839 -0.293948 2.09043 0
M  V30 3414 O 326.187 -1.29153 1.88499 0
M  V30 3415 C 326.397 2.17626 2.72837 0
M  V30 3416 C 327.745 2.51282 3.42261 0
M  V30 3417 O 328.769 2.16219 2.83068 0
M  V30 3418 O 327.628 3.11413 4.49093 0
M  V30 3419 H 324.722 0.441601 0.699226 0
M  V30 3420 H 327.268 1.44362 0.892053 0
M  V30 3421 H 326.04 3.14211 2.3321 0
M  V30 3422 H 325.663 1.88628 3.50008 0
M  V30 3423 N 326.66 -1.06551 1.16123 0
M  V30 3424 C 327.906 -1.79567 0.94252 0
M  V30 3425 C 328.239 -1.86869 -0.528547 0
M  V30 3426 O 327.514 -1.35838 -1.39206 0
M  V30 3427 C 327.797 -3.24195 1.56747 0
M  V30 3428 C 327.65 -3.24989 3.10969 0
M  V30 3429 C 328.969 -4.21678 1.25998 0
M  V30 3430 H 326.088 -0.651883 0.343828 0
M  V30 3431 H 328.73 -1.2463 1.43413 0
M  V30 3432 H 326.88 -3.71107 1.14942 0
M  V30 3433 H 328.552 -2.86258 3.61737 0
M  V30 3434 H 326.795 -2.63716 3.44436 0
M  V30 3435 H 327.466 -4.27005 3.49815 0
M  V30 3436 H 329.942 -3.83196 1.62174 0
M  V30 3437 H 328.818 -5.21146 1.7233 0
M  V30 3438 H 329.079 -4.4174 0.178367 0
M  V30 3439 N 328.138 -0.959301 -1.25041 0
M  V30 3440 C 329.384 -0.627096 -1.93492 0
M  V30 3441 C 329.739 0.827484 -1.73696 0
M  V30 3442 O 329.032 1.58651 -1.07427 0
M  V30 3443 C 329.226 -0.927136 -3.45165 0
M  V30 3444 C 329.055 -2.40933 -3.79712 0
M  V30 3445 C 327.825 -3.0677 -4.01522 0
M  V30 3446 C 330.023 -3.38894 -3.86853 0
M  V30 3447 N 328.005 -4.44815 -4.231 0
M  V30 3448 C 329.376 -4.62263 -4.13174 0
M  V30 3449 C 331.431 -3.33668 -3.69554 0
M  V30 3450 C 330.134 -5.81052 -4.23995 0
M  V30 3451 C 332.16 -4.518 -3.81616 0
M  V30 3452 C 331.522 -5.73957 -4.08354 0
M  V30 3453 H 327.621 -0.280166 -0.73009 0
M  V30 3454 H 330.205 -1.23244 -1.50729 0
M  V30 3455 H 328.376 -0.350685 -3.86814 0
M  V30 3456 H 330.108 -0.554361 -4.00885 0
M  V30 3457 H 326.863 -2.57327 -3.97593 0
M  V30 3458 H 327.287 -5.16319 -4.37885 0
M  V30 3459 H 331.929 -2.40268 -3.47895 0
M  V30 3460 H 329.647 -6.74888 -4.44468 0
M  V30 3461 H 333.233 -4.49309 -3.69612 0
M  V30 3462 H 332.113 -6.6384 -4.17475 0
M  V30 3463 N 329.616 1.39756 -0.72842 0
M  V30 3464 C 330.526 2.34444 -0.0855374 0
M  V30 3465 C 331.542 1.57976 0.729356 0
M  V30 3466 O 332.718 1.90301 0.659346 0
M  V30 3467 C 329.783 3.36965 0.815798 0
M  V30 3468 C 328.844 4.29299 -0.0105996 0
M  V30 3469 C 328.077 5.26923 0.84781 0
M  V30 3470 O 328.3 5.30859 2.08673 0
M  V30 3471 O 327.234 6.01249 0.279969 0
M  V30 3472 H 331.06 2.91065 -0.866892 0
M  V30 3473 H 328.645 1.4117 -0.48902 0
M  V30 3474 H 330.527 3.99804 1.33171 0
M  V30 3475 H 329.202 2.82739 1.57608 0
M  V30 3476 H 328.109 3.69703 -0.571877 0
M  V30 3477 H 329.442 4.86712 -0.73295 0
M  V30 3478 N 331.094 0.475555 1.50254 0
M  V30 3479 C 332.51 0.12997 1.5907 0
M  V30 3480 C 332.71 -1.36385 1.48328 0
M  V30 3481 O 331.766 -2.13754 1.34407 0
M  V30 3482 C 333.079 0.684139 2.92814 0
M  V30 3483 C 334.627 0.647965 3.0622 0
M  V30 3484 C 335.102 1.17975 4.42545 0
M  V30 3485 N 336.593 1.13936 4.48969 0
M  V30 3486 C 337.328 1.52129 5.52851 0
M  V30 3487 N 336.824 1.97793 6.63965 0
M  V30 3488 N 338.617 1.43704 5.4342 0
M  V30 3489 H 330.768 1.44706 1.55479 0
M  V30 3490 H 333.031 0.598691 0.735033 0
M  V30 3491 H 332.737 1.73079 3.06164 0
M  V30 3492 H 332.611 0.130204 3.76975 0
M  V30 3493 H 334.998 -0.38979 2.92514 0
M  V30 3494 H 335.079 1.23876 2.23805 0
M  V30 3495 H 334.723 2.21616 4.57 0
M  V30 3496 H 334.653 0.565138 5.23559 0
M  V30 3497 H 337.144 0.804488 3.69238 0
M  V30 3498 H 337.457 2.25072 7.39299 0
M  V30 3499 H 335.802 2.01749 6.65073 0
M  V30 3500 H 338.993 1.07867 4.55502 0
M  V30 3501 H 339.166 1.73794 6.24259 0
M  V30 3502 N 332.573 -1.56217 0.208337 0
M  V30 3503 C 333.984 -1.84243 -0.301904 0
M  V30 3504 C 334.335 -1.12939 -1.60434 0
M  V30 3505 O 333.46 -0.39461 -2.12772 0
M  V30 3506 C 334.055 -3.34231 -0.554543 0
M  V30 3507 C 332.614 -3.62621 -1.00912 0
M  V30 3508 C 331.761 -2.77224 -0.064933 0
M  V30 3509 H 334.712 -1.52712 0.431833 0
M  V30 3510 H 334.733 -3.5372 -1.40223 0
M  V30 3511 H 334.245 -3.86099 0.393561 0
M  V30 3512 H 332.346 -3.16197 -1.97104 0
M  V30 3513 H 332.459 -4.7071 -0.892674 0
M  V30 3514 H 330.823 -2.48256 -0.56929 0
M  V30 3515 H 331.606 -3.31887 0.877851 0
M  V30 3516 N 334.051 0.0651679 -1.57465 0
M  V30 3517 C 335.001 1.0838 -2.00594 0
M  V30 3518 C 335.985 1.34106 -0.889071 0
M  V30 3519 O 337.177 1.34295 -1.15299 0
M  V30 3520 C 334.306 2.39565 -2.45894 0
M  V30 3521 C 333.392 2.17085 -3.64328 0
M  V30 3522 N 333.783 1.64553 -4.78285 0
M  V30 3523 C 332.081 2.4753 -3.71006 0
M  V30 3524 C 332.782 1.57042 -5.60101 0
M  V30 3525 N 331.758 2.03328 -5.04141 0
M  V30 3526 H 335.56 0.671062 -2.86136 0
M  V30 3527 H 333.074 0.27213 -1.60104 0
M  V30 3528 H 335.071 3.13308 -2.75034 0
M  V30 3529 H 333.731 2.81549 -1.61741 0
M  V30 3530 H 334.742 1.33323 -5.00445 0
M  V30 3531 H 331.419 2.92835 -2.9758 0
M  V30 3532 H 332.809 1.17223 -6.61595 0
M  V30 3533 N 335.529 1.53961 0.336706 0
M  V30 3534 C 336.754 1.75797 1.10046 0
M  V30 3535 C 337.179 0.498985 1.81361 0
M  V30 3536 O 336.537 -0.548769 1.72795 0
M  V30 3537 C 336.585 2.94257 2.08436 0
M  V30 3538 O 335.689 2.64883 3.16087 0
M  V30 3539 H 335.03 0.582936 0.317934 0
M  V30 3540 H 337.56 2.00945 0.38501 0
M  V30 3541 H 337.57 3.21237 2.51537 0
M  V30 3542 H 336.245 3.85564 1.55927 0
M  V30 3543 H 334.822 2.48812 2.77753 0
M  V30 3544 N 337.007 -0.598083 1.45811 0
M  V30 3545 C 337.917 -1.73632 1.57763 0
M  V30 3546 C 338.933 -1.67763 0.461676 0
M  V30 3547 O 340.109 -1.87949 0.723685 0
M  V30 3548 C 337.174 -3.10114 1.55018 0
M  V30 3549 C 336.235 -3.27364 2.77726 0
M  V30 3550 C 335.468 -4.57334 2.75102 0
M  V30 3551 O 335.691 -5.40258 1.8297 0
M  V30 3552 O 334.625 -4.77502 3.66437 0
M  V30 3553 H 338.451 -1.66498 2.53992 0
M  V30 3554 H 336.036 -0.763308 1.28429 0
M  V30 3555 H 337.918 -3.9141 1.56129 0
M  V30 3556 H 336.593 -3.17718 0.619431 0
M  V30 3557 H 335.5 -2.45619 2.82174 0
M  V30 3558 H 336.833 -3.24641 3.69958 0
M  V30 3559 N 338.485 -1.33259 -0.841409 0
M  V30 3560 C 339.732 -1.24572 -1.5965 0
M  V30 3561 C 340.06 0.189137 -1.93578 0
M  V30 3562 O 339.315 1.14566 -1.5866 0
M  V30 3563 C 339.614 -2.06381 -2.9179 0
M  V30 3564 C 339.28 -3.556 -2.77235 0
M  V30 3565 C 337.942 -3.96282 -2.72973 0
M  V30 3566 C 340.294 -4.50433 -2.62221 0
M  V30 3567 C 337.622 -5.30017 -2.51592 0
M  V30 3568 C 339.974 -5.84327 -2.42374 0
M  V30 3569 C 338.638 -6.24194 -2.36512 0
M  V30 3570 H 337.908 -0.455842 -0.5842 0
M  V30 3571 H 340.555 -1.6482 -0.975016 0
M  V30 3572 H 338.86 -1.58903 -3.5813 0
M  V30 3573 H 340.557 -1.97019 -3.49263 0
M  V30 3574 H 337.147 -3.23298 -2.81384 0
M  V30 3575 H 341.331 -4.19914 -2.64549 0
M  V30 3576 H 336.587 -5.59947 -2.45499 0
M  V30 3577 H 340.761 -6.57414 -2.29739 0
M  V30 3578 H 338.388 -7.27759 -2.19706 0
M  V30 3579 N 339.963 1.05934 -1.16686 0
M  V30 3580 C 340.926 2.11669 -0.879144 0
M  V30 3581 C 341.926 1.60294 0.127445 0
M  V30 3582 O 343.116 1.7389 -0.103865 0
M  V30 3583 C 340.248 3.39438 -0.315425 0
M  V30 3584 H 341.441 2.38626 -1.81653 0
M  V30 3585 H 338.994 1.22058 -0.976299 0
M  V30 3586 H 339.729 3.18132 0.629468 0
M  V30 3587 H 339.514 3.78034 -1.04079 0
M  V30 3588 H 341.004 4.17391 -0.132189 0
M  V30 3589 N 341.441 0.965919 1.2453 0
M  V30 3590 C 342.371 0.513476 2.27784 0
M  V30 3591 C 343.352 -0.445974 1.6415 0
M  V30 3592 O 344.537 -0.342485 1.91156 0
M  V30 3593 C 341.667 -0.198839 3.4673 0
M  V30 3594 C 340.621 0.676456 4.2262 0
M  V30 3595 C 339.947 -0.167248 5.34438 0
M  V30 3596 C 341.247 1.96017 4.84123 0
M  V30 3597 H 342.941 1.3765 2.65881 0
M  V30 3598 H 340.487 0.663321 1.27813 0
M  V30 3599 H 342.44 -0.526567 4.18097 0
M  V30 3600 H 341.164 -1.0962 3.07654 0
M  V30 3601 H 339.823 0.98743 3.53052 0
M  V30 3602 H 339.471 -1.0647 4.91603 0
M  V30 3603 H 339.171 0.415181 5.86131 0
M  V30 3604 H 340.695 -0.489688 6.08633 0
M  V30 3605 H 342.109 1.69814 5.47573 0
M  V30 3606 H 340.506 2.48918 5.4604 0
M  V30 3607 H 341.576 2.65622 4.05676 0
M  V30 3608 N 342.919 -1.39368 0.735821 0
M  V30 3609 C 344.167 -2.00101 0.283562 0
M  V30 3610 C 344.488 -1.5868 -1.13338 0
M  V30 3611 O 343.758 -0.835423 -1.77193 0
M  V30 3612 H 342.338 -0.740024 0.101851 0
M  V30 3613 H 345 -1.70404 0.945962 0
M  V30 3614 H 344.096 -3.10323 0.332604 0
M  V30 3615 N 344.397 -0.483516 -1.5 0
M  V30 3616 C 345.813 -0.138404 -1.58999 0
M  V30 3617 C 346.013 1.35597 -1.4905 0
M  V30 3618 O 345.069 2.13039 -1.35539 0
M  V30 3619 C 346.382 -0.699658 -2.92447 0
M  V30 3620 C 347.93 -0.664195 -3.05872 0
M  V30 3621 C 348.405 -1.20321 -4.41913 0
M  V30 3622 N 349.896 -1.16315 -4.48358 0
M  V30 3623 C 350.631 -1.55058 -5.52037 0
M  V30 3624 N 350.127 -2.01311 -6.62907 0
M  V30 3625 N 351.92 -1.46584 -5.42651 0
M  V30 3626 H 344.071 -1.45529 -1.5471 0
M  V30 3627 H 346.334 -0.60258 -0.731848 0
M  V30 3628 H 346.04 -1.747 -3.05242 0
M  V30 3629 H 345.914 -0.150194 -3.76901 0
M  V30 3630 H 348.301 0.374272 -2.92717 0
M  V30 3631 H 348.382 -1.25061 -2.23144 0
M  V30 3632 H 348.026 -2.24037 -4.55818 0
M  V30 3633 H 347.956 -0.592896 -5.23252 0
M  V30 3634 H 350.447 -0.824058 -3.68806 0
M  V30 3635 H 350.76 -2.2899 -7.38095 0
M  V30 3636 H 349.105 -2.05273 -6.63994 0
M  V30 3637 H 352.296 -1.10281 -4.54924 0
M  V30 3638 H 352.469 -1.77103 -6.23329 0
M  V30 3639 N 345.875 1.56104 -0.216619 0
M  V30 3640 C 346.822 2.2007 0.695531 0
M  V30 3641 C 347.792 1.15471 1.19397 0
M  V30 3642 O 348.977 1.43807 1.25396 0
M  V30 3643 C 346.117 2.88073 1.90021 0
M  V30 3644 C 345.23 4.07253 1.44113 0
M  V30 3645 C 344.365 4.63052 2.603 0
M  V30 3646 C 343.404 5.74545 2.11103 0
M  V30 3647 N 342.541 6.24656 3.20545 0
M  V30 3648 H 347.381 2.97655 0.143327 0
M  V30 3649 H 344.918 1.46982 0.0589934 0
M  V30 3650 H 346.876 3.25681 2.60745 0
M  V30 3651 H 345.506 2.13015 2.42538 0
M  V30 3652 H 344.558 3.75164 0.628999 0
M  V30 3653 H 345.87 4.8783 1.04036 0
M  V30 3654 H 345.024 5.03078 3.39113 0
M  V30 3655 H 343.763 3.81628 3.03663 0
M  V30 3656 H 342.768 5.34027 1.3075 0
M  V30 3657 H 343.993 6.57801 1.68746 0
M  V30 3658 H 341.939 5.46148 3.63399 0
M  V30 3659 H 341.856 7.00343 2.84704 0
M  V30 3660 H 343.124 6.69338 3.99508 0
M  V30 3661 N 347.353 -0.0568162 1.57498 0
M  V30 3662 C 348.283 -1.06593 2.0775 0
M  V30 3663 C 349.264 -1.39448 0.974082 0
M  V30 3664 O 350.449 -1.48815 1.24771 0
M  V30 3665 C 347.579 -2.37509 2.5339 0
M  V30 3666 C 346.533 -2.1897 3.67745 0
M  V30 3667 C 345.859 -3.55402 3.99492 0
M  V30 3668 C 347.159 -1.59859 4.97235 0
M  V30 3669 H 348.853 -0.647706 2.9231 0
M  V30 3670 H 346.399 -0.310116 1.40621 0
M  V30 3671 H 348.352 -3.08409 2.87162 0
M  V30 3672 H 347.076 -2.8134 1.65878 0
M  V30 3673 H 345.735 -1.50508 3.3428 0
M  V30 3674 H 345.383 -3.9683 3.09088 0
M  V30 3675 H 345.083 -3.43831 4.76502 0
M  V30 3676 H 346.607 -4.27708 4.35773 0
M  V30 3677 H 348.021 -2.20642 5.29141 0
M  V30 3678 H 346.418 -1.58942 5.78669 0
M  V30 3679 H 347.488 -0.561506 4.81638 0
M  V30 3680 N 348.832 -1.54138 -0.328536 0
M  V30 3681 C 350.08 -1.71765 -1.06496 0
M  V30 3682 C 350.401 -0.49149 -1.88704 0
M  V30 3683 O 349.671 0.494539 -1.89555 0
M  V30 3684 H 348.251 -0.633295 -0.396164 0
M  V30 3685 H 350.913 -1.91429 -0.366176 0
M  V30 3686 H 350.009 -2.5951 -1.73381 0
M  V30 3687 N 350.31 0.590341 -1.46126 0
M  V30 3688 C 351.22 1.72793 -1.58681 0
M  V30 3689 C 352.236 1.67516 -0.470566 0
M  V30 3690 O 353.412 1.87562 -0.733642 0
M  V30 3691 C 350.477 3.09287 -1.5666 0
M  V30 3692 C 349.538 3.25886 -2.79458 0
M  V30 3693 C 348.771 4.55869 -2.77524 0
M  V30 3694 O 348.994 5.3928 -1.85832 0
M  V30 3695 O 347.928 4.75552 -3.68964 0
M  V30 3696 H 351.754 1.65149 -2.54872 0
M  V30 3697 H 349.339 0.756486 -1.28832 0
M  V30 3698 H 351.221 3.90577 -1.58202 0
M  V30 3699 H 349.896 3.17385 -0.636271 0
M  V30 3700 H 348.803 2.44119 -2.83472 0
M  V30 3701 H 350.136 3.22675 -3.71674 0
M  V30 3702 N 351.788 1.33704 0.83433 0
M  V30 3703 C 353.036 1.25169 1.58673 0
M  V30 3704 C 353.357 -0.18127 1.94156 0
M  V30 3705 O 352.627 -1.11113 1.6134 0
M  V30 3706 H 351.207 0.4603 0.58833 0
M  V30 3707 H 353.869 1.67478 0.996847 0
M  V30 3708 H 352.965 1.84856 2.51465 0
M  V30 3709 N 353.266 -1.05314 1.17247 0
M  V30 3710 C 354.496 -1.81707 0.983166 0
M  V30 3711 C 354.904 -1.83222 -0.471822 0
M  V30 3712 O 354.247 -1.25721 -1.3394 0
M  V30 3713 C 354.309 -3.29134 1.44606 0
M  V30 3714 C 353.973 -3.51304 2.92292 0
M  V30 3715 C 354.97 -3.4353 3.90235 0
M  V30 3716 C 352.655 -3.78306 3.30439 0
M  V30 3717 C 354.649 -3.62442 5.24323 0
M  V30 3718 C 352.336 -3.96866 4.64694 0
M  V30 3719 C 353.334 -3.88933 5.61445 0
M  V30 3720 O 353.022 -4.06976 6.93272 0
M  V30 3721 H 352.754 -0.579476 0.348114 0
M  V30 3722 H 355.308 -1.33705 1.55924 0
M  V30 3723 H 353.538 -3.78046 0.813537 0
M  V30 3724 H 355.227 -3.87049 1.22262 0
M  V30 3725 H 355.993 -3.22648 3.62109 0
M  V30 3726 H 351.872 -3.83585 2.55702 0
M  V30 3727 H 355.416 -3.56165 5.99827 0
M  V30 3728 H 351.313 -4.1724 4.92525 0
M  V30 3729 H 352.081 -4.24209 6.99992 0
M  V30 3730 N 354.744 -0.972509 -1.24016 0
M  V30 3731 C 355.991 -0.637034 -1.92219 0
M  V30 3732 C 356.319 0.828418 -1.75976 0
M  V30 3733 O 355.574 1.61206 -1.10955 0
M  V30 3734 C 355.873 -0.963694 -3.44162 0
M  V30 3735 C 355.539 -2.41807 -3.80579 0
M  V30 3736 C 354.201 -2.81556 -3.9023 0
M  V30 3737 C 356.553 -3.36172 -3.98293 0
M  V30 3738 C 353.881 -4.14702 -4.15017 0
M  V30 3739 C 356.233 -4.68952 -4.24578 0
M  V30 3740 C 354.897 -5.08472 -4.32449 0
M  V30 3741 H 354.167 -0.233107 -0.703379 0
M  V30 3742 H 356.814 -1.2249 -1.47202 0
M  V30 3743 H 355.119 -0.29365 -3.90698 0
M  V30 3744 H 356.816 -0.682449 -3.9515 0
M  V30 3745 H 353.406 -2.09988 -3.73635 0
M  V30 3746 H 357.59 -3.06644 -3.90234 0
M  V30 3747 H 352.846 -4.4494 -4.19331 0
M  V30 3748 H 357.02 -5.42037 -4.37229 0
M  V30 3749 H 354.647 -6.11665 -4.51409 0
M  V30 3750 N 356.222 1.38976 -0.743202 0
M  V30 3751 C 357.47 1.99948 -0.29417 0
M  V30 3752 C 357.791 1.59279 1.12495 0
M  V30 3753 O 357.061 0.844808 1.76748 0
M  V30 3754 H 355.641 0.739473 -0.105774 0
M  V30 3755 H 358.303 1.699 -0.954986 0
M  V30 3756 H 357.399 3.10142 -0.349056 0
M  V30 3757 N 357.7 0.491464 1.49741 0
M  V30 3758 C 358.61 -0.296835 2.32715 0
M  V30 3759 C 359.626 -0.976536 1.44013 0
M  V30 3760 O 360.802 -0.960023 1.77047 0
M  V30 3761 C 357.867 -1.35288 3.19215 0
M  V30 3762 C 356.928 -0.687632 4.23757 0
M  V30 3763 C 356.161 -1.69336 5.06123 0
M  V30 3764 O 356.384 -2.92219 4.89861 0
M  V30 3765 O 355.318 -1.25394 5.88693 0
M  V30 3766 H 359.144 0.382048 3.01287 0
M  V30 3767 H 356.729 0.252953 1.47243 0
M  V30 3768 H 358.611 -1.96411 3.72828 0
M  V30 3769 H 357.286 -2.01487 2.53347 0
M  V30 3770 H 356.193 -0.0369159 3.74082 0
M  V30 3771 H 357.526 -0.0682566 4.92153 0
M  V30 3772 N 359.178 -1.55987 0.224894 0
M  V30 3773 C 360.424 -1.98684 -0.406502 0
M  V30 3774 C 360.757 -1.11248 -1.59177 0
M  V30 3775 O 360.032 -0.170909 -1.93748 0
M  V30 3776 C 360.315 -3.50218 -0.837808 0
M  V30 3777 C 360.168 -4.48426 0.351332 0
M  V30 3778 C 361.487 -4.06243 -1.69278 0
M  V30 3779 H 358.606 -0.722337 -0.146283 0
M  V30 3780 H 361.248 -1.87255 0.321799 0
M  V30 3781 H 359.398 -3.60089 -1.45837 0
M  V30 3782 H 361.07 -4.50562 0.989526 0
M  V30 3783 H 359.313 -4.22159 0.998207 0
M  V30 3784 H 359.984 -5.52 0.00655905 0
M  V30 3785 H 362.46 -3.99337 -1.16914 0
M  V30 3786 H 361.336 -5.12581 -1.96346 0
M  V30 3787 H 361.597 -3.53332 -2.65723 0
M  V30 3788 N 360.656 0.0484629 -1.57525 0
M  V30 3789 C 361.902 0.738854 -1.89506 0
M  V30 3790 C 362.257 1.73989 -0.821319 0
M  V30 3791 O 361.55 1.90825 0.172129 0
M  V30 3792 C 361.744 1.46632 -3.25935 0
M  V30 3793 C 361.573 0.537254 -4.46479 0
M  V30 3794 C 360.343 0.165484 -5.05029 0
M  V30 3795 C 362.541 -0.176085 -5.13998 0
M  V30 3796 N 360.523 -0.766868 -6.09091 0
M  V30 3797 C 361.894 -0.96478 -6.12448 0
M  V30 3798 C 363.949 -0.24509 -4.97296 0
M  V30 3799 C 362.652 -1.8161 -6.95996 0
M  V30 3800 C 364.678 -1.08347 -5.81391 0
M  V30 3801 C 364.04 -1.86014 -6.79395 0
M  V30 3802 H 360.139 0.245067 -0.742608 0
M  V30 3803 H 362.723 -0.000476161 -1.947 0
M  V30 3804 H 360.894 2.17623 -3.21706 0
M  V30 3805 H 362.626 2.10757 -3.45491 0
M  V30 3806 H 359.381 0.523466 -4.70698 0
M  V30 3807 H 359.805 -1.22698 -6.65788 0
M  V30 3808 H 364.447 0.341063 -4.21422 0
M  V30 3809 H 362.165 -2.41313 -7.71229 0
M  V30 3810 H 365.751 -1.14014 -5.70519 0
M  V30 3811 H 364.631 -2.4984 -7.43337 0
M  V30 3812 N 362.134 1.5431 0.320358 0
M  V30 3813 C 363.044 1.86946 1.41734 0
M  V30 3814 C 364.06 0.761689 1.56443 0
M  V30 3815 O 365.236 1.05629 1.71477 0
M  V30 3816 C 362.301 2.09293 2.76401 0
M  V30 3817 C 361.362 3.33082 2.70841 0
M  V30 3818 C 360.595 3.54353 3.99086 0
M  V30 3819 O 360.818 2.79002 4.97508 0
M  V30 3820 O 359.752 4.47838 4.0215 0
M  V30 3821 H 363.578 2.80232 1.17062 0
M  V30 3822 H 361.163 1.40255 0.514673 0
M  V30 3823 H 363.045 2.25303 3.56113 0
M  V30 3824 H 361.72 1.19194 3.00956 0
M  V30 3825 H 360.627 3.22454 1.89668 0
M  V30 3826 H 361.96 4.23249 2.5124 0
M  V30 3827 N 363.613 -0.582584 1.46437 0
M  V30 3828 C 364.861 -1.33814 1.51453 0
M  V30 3829 C 365.182 -1.94277 0.167792 0
M  V30 3830 O 364.452 -1.78566 -0.805677 0
M  V30 3831 H 363.032 -0.496838 0.557818 0
M  V30 3832 H 365.694 -0.682281 1.82568 0
M  V30 3833 H 364.79 -2.14479 2.26728 0
M  V30 3834 N 365.091 -1.34144 -0.827227 0
M  V30 3835 C 366.021 -1.28005 -1.95287 0
M  V30 3836 C 367.002 -0.158321 -1.69362 0
M  V30 3837 O 368.187 -0.349987 -1.9102 0
M  V30 3838 C 365.317 -1.03036 -3.31664 0
M  V30 3839 C 364.271 -2.11628 -3.72019 0
M  V30 3840 C 363.597 -1.71854 -5.0633 0
M  V30 3841 C 364.897 -3.53417 -3.8457 0
M  V30 3842 H 366.591 -2.22187 -2.00682 0
M  V30 3843 H 364.137 -1.0696 -0.964135 0
M  V30 3844 H 366.09 -0.973863 -4.09993 0
M  V30 3845 H 364.814 -0.0529391 -3.26557 0
M  V30 3846 H 363.473 -2.16339 -2.95961 0
M  V30 3847 H 363.121 -0.727841 -4.97706 0
M  V30 3848 H 362.821 -2.44531 -5.34302 0
M  V30 3849 H 364.345 -1.67692 -5.87122 0
M  V30 3850 H 365.759 -3.51142 -4.5318 0
M  V30 3851 H 364.156 -4.24679 -4.2399 0
M  V30 3852 H 365.226 -3.91072 -2.86689 0
M  V30 3853 N 366.569 1.04691 -1.17803 0
M  V30 3854 C 367.815 1.78181 -0.980977 0
M  V30 3855 C 368.17 1.86191 0.484825 0
M  V30 3856 O 367.463 1.35436 1.35527 0
M  V30 3857 C 367.657 3.21467 -1.56186 0
M  V30 3858 C 367.486 3.27422 -3.08261 0
M  V30 3859 C 366.256 3.36415 -3.77032 0
M  V30 3860 C 368.454 3.15947 -4.0581 0
M  V30 3861 N 366.436 3.31554 -5.16667 0
M  V30 3862 C 367.807 3.18514 -5.31929 0
M  V30 3863 C 369.862 2.99945 -3.97413 0
M  V30 3864 C 368.565 3.06723 -6.50625 0
M  V30 3865 C 370.591 2.89497 -5.15699 0
M  V30 3866 C 369.953 2.92702 -6.40706 0
M  V30 3867 H 366.052 0.6641 -0.412911 0
M  V30 3868 H 368.636 1.24762 -1.49474 0
M  V30 3869 H 366.807 3.73245 -1.07436 0
M  V30 3870 H 368.539 3.8322 -1.30093 0
M  V30 3871 H 365.294 3.41887 -3.27735 0
M  V30 3872 H 365.718 3.3258 -5.89678 0
M  V30 3873 H 370.36 2.96302 -3.01604 0
M  V30 3874 H 368.078 3.0912 -7.46639 0
M  V30 3875 H 371.664 2.78179 -5.10987 0
M  V30 3876 H 370.544 2.84697 -7.30696 0
M  V30 3877 N 368.047 0.979072 1.23499 0
M  V30 3878 C 368.977 0.537606 2.27227 0
M  V30 3879 C 369.958 -0.428539 1.64613 0
M  V30 3880 O 371.143 -0.322191 1.91509 0
M  V30 3881 C 368.273 -0.162052 3.46922 0
M  V30 3882 C 367.227 0.721242 4.21879 0
M  V30 3883 C 366.553 -0.110555 5.34586 0
M  V30 3884 C 367.853 2.01141 4.82016 0
M  V30 3885 H 369.547 1.40462 2.64406 0
M  V30 3886 H 367.093 0.67684 1.27102 0
M  V30 3887 H 369.046 -0.482192 4.18632 0
M  V30 3888 H 367.77 -1.06351 3.08799 0
M  V30 3889 H 366.429 1.02482 3.51984 0
M  V30 3890 H 366.077 -1.0125 4.92704 0
M  V30 3891 H 365.777 0.477325 5.85658 0
M  V30 3892 H 367.301 -0.425107 6.09118 0
M  V30 3893 H 368.715 1.75612 5.45741 0
M  V30 3894 H 367.112 2.54695 5.43369 0
M  V30 3895 H 368.182 2.69909 4.02836 0
M  V30 3896 N 369.525 -1.3858 0.750561 0
M  V30 3897 C 370.773 -1.99789 0.30477 0
M  V30 3898 C 371.094 -1.59874 -1.11649 0
M  V30 3899 O 370.364 -0.85417 -1.76297 0
M  V30 3900 H 368.944 -0.738902 0.109694 0
M  V30 3901 H 371.606 -1.69391 0.963983 0
M  V30 3902 H 370.702 -3.09952 0.365499 0
M  V30 3903 N 371.003 -0.499398 -1.49478 0
M  V30 3904 C 372.228 0.044722 -2.07352 0
M  V30 3905 C 372.653 1.30207 -1.35749 0
M  V30 3906 O 372.011 1.76516 -0.413732 0
M  V30 3907 C 372.059 0.283013 -3.59488 0
M  V30 3908 O 371.163 1.35804 -3.89398 0
M  V30 3909 H 370.504 -0.0255147 -0.66351 0
M  V30 3910 H 373.034 -0.698561 -1.92305 0
M  V30 3911 H 373.044 0.515007 -4.04737 0
M  V30 3912 H 371.719 -0.635636 -4.11014 0
M  V30 3913 H 370.296 1.11113 -3.55961 0
M  V30 3914 N 372.481 1.55866 -0.233164 0
M  V30 3915 C 373.411 2.23783 0.666599 0
M  V30 3916 C 374.392 1.21343 1.19205 0
M  V30 3917 O 375.577 1.4996 1.23392 0
M  V30 3918 C 372.707 2.92671 1.86978 0
M  V30 3919 C 371.661 4.01682 1.47768 0
M  V30 3920 C 370.987 4.57926 2.76058 0
M  V30 3921 C 372.287 5.18126 0.658993 0
M  V30 3922 H 373.981 2.99232 0.100306 0
M  V30 3923 H 371.527 1.43924 0.046804 0
M  V30 3924 H 373.48 3.3888 2.50476 0
M  V30 3925 H 372.204 2.14688 2.46123 0
M  V30 3926 H 370.863 3.56222 0.866106 0
M  V30 3927 H 370.511 3.76659 3.33372 0
M  V30 3928 H 370.211 5.31505 2.50552 0
M  V30 3929 H 371.735 5.06859 3.40479 0
M  V30 3930 H 373.149 5.60644 1.19795 0
M  V30 3931 H 371.546 5.98009 0.500552 0
M  V30 3932 H 372.616 4.83763 -0.331856 0
M  V30 3933 N 373.959 -0.0401083 1.57549 0
M  V30 3934 C 375.37 -0.588097 1.77196 0
M  V30 3935 C 375.721 -1.76209 0.862832 0
M  V30 3936 O 374.846 -2.16331 0.0548389 0
M  V30 3937 C 375.441 -1.07363 3.21339 0
M  V30 3938 C 374 -1.56723 3.42221 0
M  V30 3939 C 373.147 -0.50041 2.72747 0
M  V30 3940 H 376.098 0.186119 1.57605 0
M  V30 3941 H 376.119 -1.94143 3.27244 0
M  V30 3942 H 375.631 -0.218975 3.87482 0
M  V30 3943 H 373.732 -2.4441 2.81237 0
M  V30 3944 H 373.845 -1.62234 4.50796 0
M  V30 3945 H 372.209 -0.952894 2.36203 0
M  V30 3946 H 372.992 0.344599 3.41566 0
M  V30 3947 N 375.437 -1.54477 -0.31217 0
M  V30 3948 C 376.683 -1.73483 -1.0503 0
M  V30 3949 C 377.016 -0.513125 -1.87298 0
M  V30 3950 O 376.291 0.489864 -1.8823 0
M  V30 3951 C 376.574 -3.01723 -1.96558 0
M  V30 3952 C 376.427 -4.3417 -1.17545 0
M  V30 3953 C 377.746 -3.25772 -2.95907 0
M  V30 3954 H 374.865 -0.631222 -0.380432 0
M  V30 3955 H 377.507 -1.87184 -0.325932 0
M  V30 3956 H 375.657 -2.90174 -2.58324 0
M  V30 3957 H 377.329 -4.5762 -0.581513 0
M  V30 3958 H 375.572 -4.31159 -0.477925 0
M  V30 3959 H 376.243 -5.20143 -1.84811 0
M  V30 3960 H 378.719 -3.36857 -2.44267 0
M  V30 3961 H 377.595 -4.16838 -3.57123 0
M  V30 3962 H 377.856 -2.43537 -3.68974 0
M  V30 3963 N 376.915 0.57481 -1.46744 0
M  V30 3964 C 377.878 1.66533 -1.57478 0
M  V30 3965 C 378.878 1.54338 -0.451263 0
M  V30 3966 O 380.068 1.58814 -0.715813 0
M  V30 3967 C 377.2 3.05999 -1.50259 0
M  V30 3968 H 378.393 1.58372 -2.54673 0
M  V30 3969 H 375.946 0.793301 -1.34672 0
M  V30 3970 H 376.681 3.19709 -0.543725 0
M  V30 3971 H 376.466 3.16259 -2.31781 0
M  V30 3972 H 377.956 3.8537 -1.60872 0
M  V30 3973 N 378.394 1.34581 0.820102 0
M  V30 3974 C 379.643 1.26437 1.57151 0
M  V30 3975 C 379.956 -0.163111 1.94919 0
M  V30 3976 O 381.162 -0.366722 2.69012 0
M  V30 3977 C 379.618 2.21658 2.83541 0
M  V30 3978 C 379.226 3.69679 2.53065 0
M  V30 3979 C 380.97 2.22428 3.61561 0
M  V30 3980 C 378.877 4.56761 3.75664 0
M  V30 3981 H 377.807 0.469707 0.589823 0
M  V30 3982 H 380.458 1.59763 0.902656 0
M  V30 3983 H 378.84 1.81287 3.52067 0
M  V30 3984 H 380.014 4.18605 1.92631 0
M  V30 3985 H 378.329 3.71384 1.88316 0
M  V30 3986 H 380.926 2.8471 4.52597 0
M  V30 3987 H 381.269 1.22434 3.97889 0
M  V30 3988 H 381.802 2.61259 2.99981 0
M  V30 3989 H 378.541 5.57702 3.44454 0
M  V30 3990 H 378.061 4.12568 4.35371 0
M  V30 3991 H 379.74 4.71509 4.43044 0
M  V30 3992 N 379.872 -1.04064 1.18357 0
M  V30 3993 C 380.819 -2.12077 0.910603 0
M  V30 3994 C 381.789 -1.65421 -0.15 0
M  V30 3995 O 382.974 -1.90797 -0.0103614 0
M  V30 3996 C 380.114 -3.42252 0.442472 0
M  V30 3997 C 379.227 -4.0252 1.5685 0
M  V30 3998 C 378.362 -5.20657 1.05309 0
M  V30 3999 C 377.401 -5.72955 2.1538 0
M  V30 4000 N 376.538 -6.8238 1.65233 0
M  V30 4001 H 381.378 -2.34764 1.83548 0
M  V30 4002 H 378.915 -1.15157 0.915279 0
M  V30 4003 H 380.873 -4.16921 0.152534 0
M  V30 4004 H 379.503 -3.19712 -0.445428 0
M  V30 4005 H 378.555 -3.25178 1.97391 0
M  V30 4006 H 379.867 -4.37362 2.39824 0
M  V30 4007 H 379.021 -6.0244 0.717677 0
M  V30 4008 H 377.76 -4.87318 0.19293 0
M  V30 4009 H 376.765 -4.89793 2.49766 0
M  V30 4010 H 377.99 -6.08337 3.01832 0
M  V30 4011 H 375.936 -6.50917 0.815064 0
M  V30 4012 H 375.853 -7.16286 2.41805 0
M  V30 4013 H 377.121 -7.67788 1.34619 0
M  V30 4014 N 381.35 -0.985608 -1.22978 0
M  V30 4015 C 382.596 -0.65836 -1.91816 0
M  V30 4016 C 382.929 0.806692 -1.76653 0
M  V30 4017 O 382.204 1.58252 -1.13078 0
M  V30 4018 C 382.487 -1.056 -3.44268 0
M  V30 4019 C 382.34 -2.57906 -3.68516 0
M  V30 4020 C 383.659 -0.603781 -4.35939 0
M  V30 4021 H 380.778 -0.24065 -0.696604 0
M  V30 4022 H 383.42 -1.22783 -1.44998 0
M  V30 4023 H 381.57 -0.571445 -3.84274 0
M  V30 4024 H 383.242 -3.13976 -3.3796 0
M  V30 4025 H 381.485 -3.00305 -3.13048 0
M  V30 4026 H 382.156 -2.80779 -4.75255 0
M  V30 4027 H 384.632 -1.01987 -4.03408 0
M  V30 4028 H 383.508 -0.910383 -5.41298 0
M  V30 4029 H 383.769 0.495761 -4.39312 0
M  V30 4030 N 382.828 1.3818 -0.7579 0
M  V30 4031 C 384.077 1.99261 -0.312744 0
M  V30 4032 C 384.39 1.60846 1.11301 0
M  V30 4033 O 385.596 2.14929 1.65885 0
M  V30 4034 C 384.052 3.56294 -0.50821 0
M  V30 4035 C 383.66 4.03657 -1.94333 0
M  V30 4036 C 385.404 4.24313 -0.125982 0
M  V30 4037 C 383.311 5.53347 -2.08712 0
M  V30 4038 H 382.241 0.745456 -0.113185 0
M  V30 4039 H 384.892 1.57889 -0.935056 0
M  V30 4040 H 383.274 3.95575 0.183353 0
M  V30 4041 H 384.448 3.75655 -2.66871 0
M  V30 4042 H 382.763 3.48376 -2.28086 0
M  V30 4043 H 385.36 5.34279 -0.212125 0
M  V30 4044 H 385.703 4.05962 0.921964 0
M  V30 4045 H 386.236 3.90285 -0.769563 0
M  V30 4046 H 382.975 5.76607 -3.11777 0
M  V30 4047 H 382.495 5.83078 -1.4064 0
M  V30 4048 H 384.174 6.19111 -1.87912 0
M  V30 4049 N 384.306 0.507319 1.49211 0
M  V30 4050 C 385.253 -0.267728 2.29242 0
M  V30 4051 C 386.223 -0.954609 1.35928 0
M  V30 4052 O 387.408 -0.960046 1.64887 0
M  V30 4053 C 384.548 -1.32243 3.18756 0
M  V30 4054 C 383.661 -0.64669 4.27132 0
M  V30 4055 C 382.796 -1.68238 5.03855 0
M  V30 4056 C 381.835 -0.98885 6.0406 0
M  V30 4057 N 380.972 -1.96903 6.73924 0
M  V30 4058 H 385.812 0.420968 2.95012 0
M  V30 4059 H 383.349 0.219443 1.45454 0
M  V30 4060 H 385.307 -1.94599 3.69036 0
M  V30 4061 H 383.937 -1.97981 2.54958 0
M  V30 4062 H 382.989 0.0902926 3.80293 0
M  V30 4063 H 384.301 -0.101058 4.98698 0
M  V30 4064 H 383.455 -2.38081 5.58034 0
M  V30 4065 H 382.194 -2.26187 4.32077 0
M  V30 4066 H 381.199 -0.276222 5.49106 0
M  V30 4067 H 382.424 -0.415767 6.77826 0
M  V30 4068 H 380.37 -2.53803 6.04913 0
M  V30 4069 H 380.287 -1.47423 7.41487 0
M  V30 4070 H 381.555 -2.66015 7.32705 0
M  V30 4071 N 385.784 -1.5574 0.241426 0
M  V30 4072 C 387.009 -2.0366 -0.392111 0
M  V30 4073 C 387.434 -1.11969 -1.51144 0
M  V30 4074 O 386.792 -0.111594 -1.80956 0
M  V30 4075 C 386.84 -3.49638 -0.882371 0
M  V30 4076 O 385.944 -3.6108 -1.99235 0
M  V30 4077 H 385.285 -0.658379 -0.0862122 0
M  V30 4078 H 387.815 -2.01302 0.365881 0
M  V30 4079 H 387.825 -3.90351 -1.18702 0
M  V30 4080 H 386.5 -4.15852 -0.0632361 0
M  V30 4081 H 385.077 -3.32262 -1.69282 0
M  V30 4082 N 387.262 0.0317525 -1.57568 0
M  V30 4083 C 388.225 1.01783 -2.0536 0
M  V30 4084 C 389.225 1.29203 -0.957253 0
M  V30 4085 O 390.415 1.24251 -1.22095 0
M  V30 4086 C 387.547 2.35137 -2.46827 0
M  V30 4087 H 388.74 0.605062 -2.93733 0
M  V30 4088 H 386.293 0.278514 -1.53799 0
M  V30 4089 H 387.028 2.81168 -1.61602 0
M  V30 4090 H 386.813 2.16566 -3.26866 0
M  V30 4091 H 388.303 3.05938 -2.84239 0
M  V30 4092 N 388.74 1.54641 0.303973 0
M  V30 4093 C 389.688 1.86137 1.39484 0
M  V30 4094 C 390.682 0.734854 1.52631 0
M  V30 4095 O 391.888 0.918803 1.54784 0
M  V30 4096 H 388.263 0.590324 0.465856 0
M  V30 4097 H 390.234 2.77324 1.10154 0
M  V30 4098 C 388.983 2.12274 2.75382 0
M  V30 4099 H 388.306 2.98429 2.66046 0
M  V30 4100 H 389.746 2.38254 3.5073 0
M  V30 4101 C 388.205 0.920365 3.24085 0
M  V30 4102 O 388.735 0.139377 4.01458 0
M  V30 4103 N 386.941 0.726566 2.81371 0
M  V30 4104 H 386.488 1.36332 2.18567 0
M  V30 4105 H 386.446 -0.0763799 3.14307 0
M  V30 4106 N 390.218 -0.567019 1.47046 0
M  V30 4107 C 391.151 -1.69016 1.53326 0
M  V30 4108 C 392.129 -1.57949 0.386126 0
M  V30 4109 O 393.313 -1.78945 0.592529 0
M  V30 4110 C 390.44 -3.07191 1.42658 0
M  V30 4111 C 389.486 -3.36733 2.6175 0
M  V30 4112 S 390.319 -3.27069 4.24012 0
M  V30 4113 C 391.475 -4.67755 4.1588 0
M  V30 4114 H 391.708 -1.63434 2.48348 0
M  V30 4115 H 389.241 -0.747048 1.35124 0
M  V30 4116 H 391.199 -3.86897 1.37191 0
M  V30 4117 H 389.86 -3.10249 0.490369 0
M  V30 4118 H 389.053 -4.37441 2.50323 0
M  V30 4119 H 388.655 -2.64627 2.64289 0
M  V30 4120 H 390.947 -5.58491 3.83529 0
M  V30 4121 H 391.89 -4.84239 5.16641 0
M  V30 4122 H 392.298 -4.45341 3.46889 0
M  V30 4123 N 391.696 -1.35014 -0.812953 0
M  V30 4124 C 392.643 -1.27412 -1.92444 0
M  V30 4125 C 393.613 -0.14733 -1.65445 0
M  V30 4126 O 394.798 -0.329974 -1.87925 0
M  V30 4127 C 391.938 -1.04558 -3.28879 0
M  V30 4128 C 391.051 -2.26101 -3.68106 0
M  V30 4129 C 390.186 -1.96449 -4.9354 0
M  V30 4130 C 389.225 -3.14081 -5.25376 0
M  V30 4131 N 388.362 -2.84246 -6.41988 0
M  V30 4132 H 393.202 -2.22463 -1.98278 0
M  V30 4133 H 390.739 -1.10593 -0.969933 0
M  V30 4134 H 392.697 -0.893413 -4.07522 0
M  V30 4135 H 391.327 -0.131719 -3.22531 0
M  V30 4136 H 390.379 -2.52204 -2.84775 0
M  V30 4137 H 391.691 -3.13959 -3.87597 0
M  V30 4138 H 390.845 -1.78026 -5.79993 0
M  V30 4139 H 389.584 -1.05867 -4.76071 0
M  V30 4140 H 388.589 -3.33089 -4.37415 0
M  V30 4141 H 389.814 -4.05455 -5.44778 0
M  V30 4142 H 387.76 -1.96252 -6.25956 0
M  V30 4143 H 387.677 -3.65637 -6.61699 0
M  V30 4144 H 388.945 -2.6935 -7.31485 0
M  V30 4145 N 393.175 1.03435 -1.18907 0
M  V30 4146 C 394.105 2.13503 -0.945448 0
M  V30 4147 C 395.086 1.69682 0.119189 0
M  V30 4148 O 396.271 1.94169 -0.034707 0
M  V30 4149 C 393.401 3.44004 -0.477316 0
M  V30 4150 C 392.355 4.0148 -1.48316 0
M  V30 4151 C 391.681 5.27537 -0.872311 0
M  V30 4152 C 392.981 4.36921 -2.86177 0
M  V30 4153 H 394.675 2.34141 -1.86597 0
M  V30 4154 H 392.221 1.12523 -0.898584 0
M  V30 4155 H 394.174 4.20372 -0.294204 0
M  V30 4156 H 392.898 3.23072 0.478786 0
M  V30 4157 H 391.557 3.27201 -1.65332 0
M  V30 4158 H 391.205 5.02917 0.0911752 0
M  V30 4159 H 390.905 5.66954 -1.54393 0
M  V30 4160 H 392.429 6.06576 -0.699871 0
M  V30 4161 H 393.843 5.04248 -2.72776 0
M  V30 4162 H 392.24 4.87405 -3.50081 0
M  V30 4163 H 393.31 3.46466 -3.39248 0
M  V30 4164 N 394.653 0.992116 1.22453 0
M  V30 4165 C 395.881 0.685944 1.95198 0
M  V30 4166 C 396.296 -0.749233 1.73297 0
M  V30 4167 O 395.653 -1.50549 1.03156 0
M  V30 4168 C 395.704 0.981395 3.47924 0
M  V30 4169 O 395.425 2.36018 3.6909 0
M  V30 4170 C 396.926 0.692815 4.37853 0
M  V30 4171 H 394.146 0.253821 0.621141 0
M  V30 4172 H 396.69 1.32668 1.55626 0
M  V30 4173 H 394.845 0.386481 3.85467 0
M  V30 4174 H 395.259 2.45884 4.63294 0
M  V30 4175 H 396.733 0.949818 5.43767 0
M  V30 4176 H 397.21 -0.373181 4.37612 0
M  V30 4177 H 397.816 1.26874 4.05935 0
M  V30 4178 N 396.131 -1.37776 0.765217 0
M  V30 4179 C 397.408 -1.93975 0.251596 0
M  V30 4180 C 397.788 -1.69949 -1.25222 0
M  V30 4181 O 397.136 -1.04457 -2.03226 0
M  V30 4182 C 397.346 -3.43487 0.617895 0
M  V30 4183 C 398.694 -4.20564 0.584029 0
M  V30 4184 O 399.718 -3.5182 0.556888 0
M  V30 4185 O 398.577 -5.43138 0.605291 0
M  V30 4186 H 395.671 -0.82509 0.0561806 0
M  V30 4187 H 398.217 -1.47101 0.846128 0
M  V30 4188 H 396.989 -3.5453 1.65602 0
M  V30 4189 H 396.612 -3.976 -0.00403411 0
M  V30 4190 N 397.609 -0.515225 -1.4894 0
M  V30 4191 C 398.539 0.244628 -2.32215 0
M  V30 4192 C 399.52 0.949136 -1.41157 0
M  V30 4193 O 400.705 0.937783 -1.70057 0
M  V30 4194 C 397.835 1.30096 -3.22013 0
M  V30 4195 C 396.789 0.715486 -4.21977 0
M  V30 4196 C 396.115 1.87339 -5.00808 0
M  V30 4197 C 397.415 -0.302982 -5.2142 0
M  V30 4198 H 399.109 -0.450501 -2.95991 0
M  V30 4199 H 396.655 -0.218098 -1.42339 0
M  V30 4200 H 398.608 1.84037 -3.79089 0
M  V30 4201 H 397.332 2.02547 -2.56207 0
M  V30 4202 H 395.991 0.197715 -3.66066 0
M  V30 4203 H 395.639 2.58592 -4.31438 0
M  V30 4204 H 395.339 1.48764 -5.68457 0
M  V30 4205 H 396.863 2.41686 -5.60732 0
M  V30 4206 H 398.277 0.148802 -5.73107 0
M  V30 4207 H 396.674 -0.60532 -5.97039 0
M  V30 4208 H 397.744 -1.21395 -4.69459 0
M  V30 4209 N 399.087 1.5561 -0.249682 0
M  V30 4210 C 400.05 2.20217 0.635394 0
M  V30 4211 C 401.05 1.17227 1.10066 0
M  V30 4212 O 402.24 1.42292 1.00492 0
M  V30 4213 C 399.372 2.84794 1.87363 0
M  V30 4214 H 400.565 2.99814 0.0716752 0
M  V30 4215 H 398.118 1.563 -0.000153234 0
M  V30 4216 H 398.853 2.09142 2.47851 0
M  V30 4217 H 398.638 3.60241 1.5482 0
M  V30 4218 H 400.128 3.3423 2.5036 0
M  V30 4219 N 400.565 -0.0233959 1.57583 0
M  V30 4220 C 401.512 -1.02224 2.06927 0
M  V30 4221 C 402.482 -1.35575 0.959617 0
M  V30 4222 O 403.667 -1.45815 1.23055 0
M  V30 4223 C 400.807 -2.31636 2.5581 0
M  V30 4224 C 399.92 -2.04394 3.80588 0
M  V30 4225 C 399.055 -3.27717 4.18061 0
M  V30 4226 C 398.094 -2.96056 5.3574 0
M  V30 4227 N 397.231 -4.11847 5.68618 0
M  V30 4228 H 402.071 -0.594504 2.9201 0
M  V30 4229 H 399.608 -0.281921 1.44373 0
M  V30 4230 H 401.566 -3.07258 2.82221 0
M  V30 4231 H 400.196 -2.72122 1.73636 0
M  V30 4232 H 399.248 -1.19244 3.61227 0
M  V30 4233 H 400.56 -1.77042 4.66323 0
M  V30 4234 H 399.714 -4.11702 4.4563 0
M  V30 4235 H 398.453 -3.58188 3.30988 0
M  V30 4236 H 397.458 -2.10474 5.07918 0
M  V30 4237 H 398.683 -2.66857 6.24471 0
M  V30 4238 H 396.629 -4.42258 4.84504 0
M  V30 4239 H 396.546 -3.87938 6.48876 0
M  V30 4240 H 397.814 -4.96689 6.00766 0
M  V30 4241 N 402.043 -1.548 -0.295768 0
M  V30 4242 C 402.953 -1.89177 -1.38742 0
M  V30 4243 C 403.969 -0.786481 -1.55211 0
M  V30 4244 O 405.145 -1.08344 -1.69775 0
M  V30 4245 C 402.21 -2.13663 -2.73036 0
M  V30 4246 C 401.271 -3.37349 -2.65508 0
M  V30 4247 C 400.504 -3.60658 -3.93398 0
M  V30 4248 O 400.727 -2.86882 -4.93006 0
M  V30 4249 O 399.661 -4.54179 -3.94975 0
M  V30 4250 H 403.487 -2.82059 -1.12589 0
M  V30 4251 H 401.072 -1.41056 -0.492295 0
M  V30 4252 H 402.954 -2.3094 -3.52484 0
M  V30 4253 H 401.629 -1.23967 -2.99022 0
M  V30 4254 H 400.536 -3.25431 -1.84514 0
M  V30 4255 H 401.869 -4.27192 -2.44474 0
M  V30 4256 N 403.521 0.559213 -1.47345 0
M  V30 4257 C 404.77 1.31281 -1.53128 0
M  V30 4258 C 405.083 1.94602 -0.197344 0
M  V30 4259 O 406.289 2.71173 -0.133154 0
M  V30 4260 C 404.745 2.38051 -2.69925 0
M  V30 4261 C 404.353 1.8093 -4.0984 0
M  V30 4262 C 406.097 3.14604 -2.84999 0
M  V30 4263 C 404.004 2.85468 -5.1794 0
M  V30 4264 H 402.934 0.493614 -0.569966 0
M  V30 4265 H 405.585 0.594155 -1.73615 0
M  V30 4266 H 403.967 3.12822 -2.42814 0
M  V30 4267 H 405.141 1.12544 -4.46845 0
M  V30 4268 H 403.456 1.16967 -3.99634 0
M  V30 4269 H 406.053 3.92666 -3.62929 0
M  V30 4270 H 406.396 3.68665 -1.93369 0
M  V30 4271 H 406.929 2.46945 -3.1187 0
M  V30 4272 H 403.668 2.36264 -6.1144 0
M  V30 4273 H 403.188 3.52269 -4.85455 0
M  V30 4274 H 404.867 3.48996 -5.44803 0
M  V30 4275 N 404.999 1.35443 0.805782 0
M  V30 4276 C 405.931 1.24285 1.92577 0
M  V30 4277 C 406.944 0.165962 1.61952 0
M  V30 4278 O 408.133 0.419303 1.73505 0
M  V30 4279 C 405.233 0.891272 3.2697 0
M  V30 4280 C 404.406 2.06669 3.85495 0
M  V30 4281 C 403.465 1.69077 4.98297 0
M  V30 4282 O 402.491 2.4096 5.15681 0
M  V30 4283 N 403.693 0.614869 5.77234 0
M  V30 4284 H 406.458 2.20777 2.02676 0
M  V30 4285 H 404.019 1.28623 0.983243 0
M  V30 4286 H 406.011 0.621256 3.99903 0
M  V30 4287 H 404.581 0.016004 3.12596 0
M  V30 4288 H 403.801 2.50046 3.04747 0
M  V30 4289 H 405.089 2.85237 4.21328 0
M  V30 4290 H 404.487 0.017648 5.65697 0
M  V30 4291 H 403.044 0.404636 6.50543 0
M  V30 4292 N 406.477 -1.02803 1.19454 0
M  V30 4293 C 407.705 -1.79841 1.02297 0
M  V30 4294 C 408.12 -1.83879 -0.428259 0
M  V30 4295 O 407.477 -1.28345 -1.29745 0
M  V30 4296 C 407.528 -3.24852 1.58598 0
M  V30 4297 O 407.249 -3.21097 2.98041 0
M  V30 4298 C 408.75 -4.18485 1.46236 0
M  V30 4299 H 405.97 -0.565936 0.360496 0
M  V30 4300 H 408.514 -1.2948 1.58288 0
M  V30 4301 H 406.669 -3.72401 1.06753 0
M  V30 4302 H 407.083 -4.12033 3.24545 0
M  V30 4303 H 408.557 -5.18121 1.90407 0
M  V30 4304 H 409.034 -4.37254 0.41301 0
M  V30 4305 H 409.64 -3.76811 1.97215 0
M  V30 4306 N 407.956 -0.998596 -1.21925 0
M  V30 4307 C 408.886 -0.573688 -2.26343 0
M  V30 4308 C 409.867 0.402296 -1.65274 0
M  V30 4309 O 411.052 0.291683 -1.91997 0
M  V30 4310 C 408.182 0.106839 -3.47136 0
M  V30 4311 C 407.136 -0.788269 -4.20678 0
M  V30 4312 C 406.462 0.0254927 -5.34694 0
M  V30 4313 C 407.762 -2.08784 -4.78755 0
M  V30 4314 H 409.456 -1.44651 -2.62138 0
M  V30 4315 H 407.002 -0.696975 -1.26009 0
M  V30 4316 H 408.955 0.415531 -4.19346 0
M  V30 4317 H 407.679 1.01424 -3.10452 0
M  V30 4318 H 406.338 -1.08069 -3.50309 0
M  V30 4319 H 405.986 0.933989 -4.94253 0
M  V30 4320 H 405.686 -0.570437 -5.84825 0
M  V30 4321 H 407.21 0.328147 -6.09718 0
M  V30 4322 H 408.624 -1.84272 -5.42878 0
M  V30 4323 H 407.021 -2.63307 -5.39249 0
M  V30 4324 H 408.091 -2.76284 -3.98491 0
M  V30 4325 N 409.434 1.37368 -0.772513 0
M  V30 4326 C 410.381 2.30262 -0.157488 0
M  V30 4327 C 411.351 1.51137 0.688965 0
M  V30 4328 O 412.536 1.79704 0.641168 0
M  V30 4329 C 409.676 3.37611 0.715045 0
M  V30 4330 C 408.789 4.31746 -0.148098 0
M  V30 4331 C 407.924 5.26171 0.729213 0
M  V30 4332 C 406.963 6.11948 -0.136418 0
M  V30 4333 N 406.1 6.98613 0.698914 0
M  V30 4334 H 410.94 2.82277 -0.955179 0
M  V30 4335 H 408.477 1.38957 -0.482631 0
M  V30 4336 H 410.435 3.98479 1.23575 0
M  V30 4337 H 409.065 2.86959 1.47833 0
M  V30 4338 H 408.117 3.72178 -0.786613 0
M  V30 4339 H 409.429 4.92084 -0.81579 0
M  V30 4340 H 408.583 5.92247 1.31637 0
M  V30 4341 H 407.322 4.66246 1.43059 0
M  V30 4342 H 406.327 5.4485 -0.736102 0
M  V30 4343 H 407.552 6.73945 -0.835134 0
M  V30 4344 H 405.498 6.41215 1.38489 0
M  V30 4345 H 405.415 7.55948 0.0885358 0
M  V30 4346 H 406.683 7.69077 1.27044 0
M  V30 4347 N 410.912 0.523116 1.48665 0
M  V30 4348 C 412.16 -0.0134497 2.02096 0
M  V30 4349 C 412.481 -1.35418 1.40311 0
M  V30 4350 O 411.751 -1.87543 0.566074 0
M  V30 4351 H 410.331 -0.00795915 0.746958 0
M  V30 4352 H 412.993 0.685388 1.82451 0
M  V30 4353 H 412.089 -0.126849 3.11842 0
M  V30 4354 N 412.39 -1.55475 0.257931 0
M  V30 4355 C 413.32 -2.24815 -0.630912 0
M  V30 4356 C 414.301 -1.23224 -1.17259 0
M  V30 4357 O 415.486 -1.51904 -1.20991 0
M  V30 4358 C 412.616 -2.95609 -1.82298 0
M  V30 4359 C 411.57 -4.03982 -1.41359 0
M  V30 4360 C 410.896 -4.6226 -2.68738 0
M  V30 4361 C 412.196 -5.19109 -0.57648 0
M  V30 4362 H 413.89 -2.99354 -0.0526878 0
M  V30 4363 H 411.436 -1.4398 -0.023901 0
M  V30 4364 H 413.389 -3.42822 -2.45054 0
M  V30 4365 H 412.113 -2.18577 -2.42676 0
M  V30 4366 H 410.772 -3.57555 -0.809324 0
M  V30 4367 H 410.42 -3.81915 -3.27338 0
M  V30 4368 H 410.12 -5.35424 -2.42065 0
M  V30 4369 H 411.644 -5.12212 -3.32372 0
M  V30 4370 H 413.058 -5.62479 -1.10861 0
M  V30 4371 H 411.455 -5.98729 -0.405351 0
M  V30 4372 H 412.525 -4.83174 0.408776 0
M  V30 4373 N 413.868 0.0150385 -1.57593 0
M  V30 4374 C 415.284 0.370907 -1.5523 0
M  V30 4375 C 415.484 1.75735 -0.985882 0
M  V30 4376 O 414.54 2.44944 -0.613077 0
M  V30 4377 C 415.853 0.259908 -2.99575 0
M  V30 4378 C 417.401 0.335959 -3.11192 0
M  V30 4379 C 417.876 0.254253 -4.57294 0
M  V30 4380 N 419.367 0.312618 -4.62144 0
M  V30 4381 C 420.102 0.272505 -5.72752 0
M  V30 4382 N 419.598 0.183864 -6.92556 0
M  V30 4383 N 421.391 0.323267 -5.6117 0
M  V30 4384 H 413.542 -0.892104 -1.92757 0
M  V30 4385 H 415.805 -0.340563 -0.884715 0
M  V30 4386 H 415.511 -0.693403 -3.44797 0
M  V30 4387 H 415.385 1.048 -3.62349 0
M  V30 4388 H 417.772 1.27971 -2.65909 0
M  V30 4389 H 417.853 -0.481739 -2.51223 0
M  V30 4390 H 417.497 -0.685887 -5.03247 0
M  V30 4391 H 417.427 1.09024 -5.15191 0
M  V30 4392 H 419.918 0.38307 -3.75953 0
M  V30 4393 H 420.231 0.15874 -7.72637 0
M  V30 4394 H 418.576 0.149708 -6.94839 0
M  V30 4395 H 421.767 0.390607 -4.66467 0
M  V30 4396 H 421.94 0.288539 -6.47357 0
M  V30 4397 N 415.346 1.54954 0.287554 0
M  V30 4398 C 416.296 1.8322 1.357 0
M  V30 4399 C 417.28 0.690152 1.45347 0
M  V30 4400 O 418.472 0.951137 1.49273 0
M  V30 4401 C 415.601 2.09481 2.71979 0
M  V30 4402 C 414.687 3.29906 2.66502 0
M  V30 4403 N 415.078 4.50154 2.30641 0
M  V30 4404 C 413.376 3.32203 2.97585 0
M  V30 4405 C 414.077 5.32209 2.34794 0
M  V30 4406 N 413.053 4.70258 2.72688 0
M  V30 4407 H 416.855 2.73746 1.0696 0
M  V30 4408 H 414.369 1.54635 0.496167 0
M  V30 4409 H 416.366 2.27882 3.49107 0
M  V30 4410 H 415.026 1.2023 3.0162 0
M  V30 4411 H 416.037 4.76515 2.02865 0
M  V30 4412 H 412.714 2.53101 3.32034 0
M  V30 4413 H 414.104 6.38321 2.09753 0
M  V30 4414 N 416.824 -0.551391 1.4764 0
M  V30 4415 C 417.734 -1.68525 1.63207 0
M  V30 4416 C 418.75 -1.6621 0.514815 0
M  V30 4417 O 419.926 -1.85551 0.783113 0
M  V30 4418 C 416.991 -3.05025 1.64805 0
M  V30 4419 C 416.052 -3.18362 2.88 0
M  V30 4420 C 415.285 -4.4835 2.89513 0
M  V30 4421 O 415.508 -5.34163 2.00065 0
M  V30 4422 O 414.442 -4.65602 3.81443 0
M  V30 4423 H 418.268 -1.58333 2.59161 0
M  V30 4424 H 415.853 -0.722063 1.30792 0
M  V30 4425 H 417.735 -3.86245 1.68502 0
M  V30 4426 H 416.41 -3.15587 0.720197 0
M  V30 4427 H 415.317 -2.36518 2.89845 0
M  V30 4428 H 416.65 -3.12707 3.80099 0
M  V30 4429 N 418.302 -1.35869 -0.798587 0
M  V30 4430 C 419.718 -1.16082 -1.09532 0
M  V30 4431 C 419.918 0.0213124 -2.01489 0
M  V30 4432 O 418.974 0.689488 -2.42904 0
M  V30 4433 C 420.287 -2.46748 -1.7186 0
M  V30 4434 C 421.835 -2.53028 -1.84244 0
M  V30 4435 C 422.31 -3.83758 -2.49988 0
M  V30 4436 N 423.801 -3.85053 -2.57465 0
M  V30 4437 C 424.536 -4.8294 -3.09122 0
M  V30 4438 N 424.032 -5.91217 -3.61157 0
M  V30 4439 N 425.825 -4.70369 -3.0775 0
M  V30 4440 H 417.976 -2.11571 -0.187461 0
M  V30 4441 H 420.239 -0.936726 -0.145765 0
M  V30 4442 H 419.945 -3.33471 -1.11759 0
M  V30 4443 H 419.819 -2.61883 -2.71472 0
M  V30 4444 H 422.206 -1.66729 -2.43486 0
M  V30 4445 H 422.287 -2.418 -0.834643 0
M  V30 4446 H 421.931 -4.70459 -1.91393 0
M  V30 4447 H 421.861 -3.92278 -3.5132 0
M  V30 4448 H 424.352 -3.06822 -2.20609 0
M  V30 4449 H 424.665 -6.61892 -3.98896 0
M  V30 4450 H 423.01 -5.94899 -3.59333 0
M  V30 4451 H 426.201 -3.84914 -2.66381 0
M  V30 4452 H 426.374 -5.46816 -3.47701 0
M  V30 4453 N 419.78 1.02168 -1.19998 0
M  V30 4454 C 420.71 2.12488 -0.96804 0
M  V30 4455 C 421.691 1.69799 0.101185 0
M  V30 4456 O 422.876 1.94121 -0.0552993 0
M  V30 4457 C 420.006 3.43479 -0.513776 0
M  V30 4458 C 418.96 3.99884 -1.52566 0
M  V30 4459 C 418.286 5.26582 -0.928214 0
M  V30 4460 C 419.586 4.33861 -2.90795 0
M  V30 4461 H 421.28 2.32149 -1.89069 0
M  V30 4462 H 418.826 1.11564 -0.910468 0
M  V30 4463 H 420.779 4.20036 -0.338774 0
M  V30 4464 H 419.503 3.23561 0.444493 0
M  V30 4465 H 418.162 3.25429 -1.68794 0
M  V30 4466 H 417.81 5.02986 0.0378289 0
M  V30 4467 H 417.51 5.65284 -1.60397 0
M  V30 4468 H 419.034 6.05799 -0.764167 0
M  V30 4469 H 420.448 5.01327 -2.78109 0
M  V30 4470 H 418.845 4.83664 -3.55231 0
M  V30 4471 H 419.915 3.42848 -3.42904 0
M  V30 4472 N 421.258 1.00505 1.21394 0
M  V30 4473 C 422.507 0.683159 1.89778 0
M  V30 4474 C 422.82 -0.789471 1.7896 0
M  V30 4475 O 424.026 -1.22344 2.42372 0
M  V30 4476 C 422.482 1.17146 3.40301 0
M  V30 4477 C 422.09 2.67017 3.5973 0
M  V30 4478 C 423.834 0.924461 4.14311 0
M  V30 4479 C 421.741 3.09387 5.04017 0
M  V30 4480 H 420.671 0.25183 0.710702 0
M  V30 4481 H 423.322 1.21622 1.37406 0
M  V30 4482 H 421.704 0.566451 3.91928 0
M  V30 4483 H 422.878 3.32968 3.18542 0
M  V30 4484 H 421.193 2.89732 2.99073 0
M  V30 4485 H 423.79 1.21658 5.20676 0
M  V30 4486 H 424.133 -0.139286 4.16067 0
M  V30 4487 H 424.666 1.49226 3.6875 0
M  V30 4488 H 421.405 4.14989 5.07409 0
M  V30 4489 H 420.925 2.48149 5.46061 0
M  V30 4490 H 422.604 3.01371 5.72525 0
M  V30 4491 N 422.737 -1.36956 0.779787 0
M  V30 4492 C 424.153 -1.52817 0.460342 0
M  V30 4493 C 424.353 -1.7361 -1.02283 0
M  V30 4494 O 423.409 -1.76207 -1.80852 0
M  V30 4495 C 424.722 -2.71983 1.28241 0
M  V30 4496 C 426.27 -2.85849 1.27512 0
M  V30 4497 C 426.745 -4.08008 2.08072 0
M  V30 4498 N 428.236 -4.15135 2.05467 0
M  V30 4499 C 428.971 -5.08711 2.64577 0
M  V30 4500 N 428.467 -6.07792 3.32506 0
M  V30 4501 N 430.26 -5.01254 2.54363 0
M  V30 4502 H 422.411 -1.21713 1.74068 0
M  V30 4503 H 424.674 -0.593294 0.739396 0
M  V30 4504 H 424.38 -2.63109 2.33381 0
M  V30 4505 H 424.254 -3.65882 0.917088 0
M  V30 4506 H 426.641 -2.94189 0.231686 0
M  V30 4507 H 426.722 -1.92886 1.68014 0
M  V30 4508 H 426.366 -4.00429 3.12441 0
M  V30 4509 H 426.296 -5.001 1.64947 0
M  V30 4510 H 428.787 -3.44189 1.5602 0
M  V30 4511 H 429.1 -6.75739 3.74963 0
M  V30 4512 H 427.445 -6.08047 3.36606 0
M  V30 4513 H 430.636 -4.22795 2.00902 0
M  V30 4514 H 430.809 -5.73995 3.00722 0
M  V30 4515 N 424.215 -0.530993 -1.48385 0
M  V30 4516 C 425.145 0.219985 -2.32461 0
M  V30 4517 C 426.126 0.934111 -1.42156 0
M  V30 4518 O 427.311 0.919694 -1.71042 0
M  V30 4519 C 424.441 1.26674 -3.23375 0
M  V30 4520 C 423.395 0.67069 -4.22712 0
M  V30 4521 C 422.721 1.82017 -5.02766 0
M  V30 4522 C 424.021 -0.358268 -5.2107 0
M  V30 4523 H 425.715 -0.48187 -2.95497 0
M  V30 4524 H 423.261 -0.233182 -1.42099 0
M  V30 4525 H 425.214 1.80006 -3.81019 0
M  V30 4526 H 423.938 1.99818 -2.58341 0
M  V30 4527 H 422.597 0.158878 -3.66256 0
M  V30 4528 H 422.245 2.54002 -4.34157 0
M  V30 4529 H 421.945 1.42727 -5.70003 0
M  V30 4530 H 423.469 2.35725 -5.63264 0
M  V30 4531 H 424.883 0.0880081 -5.73232 0
M  V30 4532 H 423.28 -0.66861 -5.96364 0
M  V30 4533 H 424.35 -1.26367 -4.68145 0
M  V30 4534 N 425.693 1.55336 -0.266172 0
M  V30 4535 C 426.643 2.18848 0.639497 0
M  V30 4536 C 427.627 1.1503 1.12503 0
M  V30 4537 O 428.819 1.40875 1.0716 0
M  V30 4538 C 425.948 2.90626 1.82733 0
M  V30 4539 C 425.034 4.01723 1.35939 0
M  V30 4540 N 425.425 5.02145 0.606988 0
M  V30 4541 C 423.723 4.1463 1.6431 0
M  V30 4542 C 424.424 5.80572 0.362138 0
M  V30 4543 N 423.4 5.35551 0.931971 0
M  V30 4544 H 427.202 2.93845 0.0567057 0
M  V30 4545 H 424.716 1.62252 -0.0693312 0
M  V30 4546 H 426.713 3.34569 2.48735 0
M  V30 4547 H 425.373 2.17137 2.41416 0
M  V30 4548 H 426.384 5.17271 0.255198 0
M  V30 4549 H 423.061 3.52326 2.23993 0
M  V30 4550 H 424.451 6.71472 -0.239848 0
M  V30 4551 N 427.171 -0.0066808 1.57599 0
M  V30 4552 C 428.134 -0.985035 2.06953 0
M  V30 4553 C 429.134 -1.27663 0.977687 0
M  V30 4554 O 430.324 -1.22293 1.24057 0
M  V30 4555 C 427.456 -2.3118 2.50536 0
M  V30 4556 H 428.649 -0.558255 2.94658 0
M  V30 4557 H 426.202 -0.254011 1.54222 0
M  V30 4558 H 426.937 -2.78561 1.66054 0
M  V30 4559 H 426.722 -2.11338 3.3027 0
M  V30 4560 H 428.212 -3.01377 2.8907 0
M  V30 4561 N 428.649 -1.55105 -0.279332 0
M  V30 4562 C 429.895 -1.75672 -1.01327 0
M  V30 4563 C 430.228 -0.552739 -1.86168 0
M  V30 4564 O 429.503 0.449827 -1.89227 0
M  V30 4565 C 429.786 -3.05825 -1.90114 0
M  V30 4566 C 429.639 -4.36565 -1.08309 0
M  V30 4567 C 430.958 -3.31975 -2.8893 0
M  V30 4568 H 428.077 -0.639149 -0.366957 0
M  V30 4569 H 430.719 -1.87833 -0.286154 0
M  V30 4570 H 428.869 -2.95588 -2.52111 0
M  V30 4571 H 430.541 -4.58751 -0.484314 0
M  V30 4572 H 428.784 -4.32076 -0.386362 0
M  V30 4573 H 429.455 -5.23946 -1.73737 0
M  V30 4574 H 431.931 -3.41963 -2.37067 0
M  V30 4575 H 430.807 -4.2432 -3.48201 0
M  V30 4576 H 431.068 -2.51309 -3.63725 0
M  V30 4577 N 430.127 0.543554 -1.4793 0
M  V30 4578 C 431.367 1.31072 -1.56843 0
M  V30 4579 C 431.731 1.90604 -0.231124 0
M  V30 4580 O 432.932 2.68091 -0.195165 0
M  V30 4581 C 431.203 2.38106 -2.66533 0
M  V30 4582 S 432.762 3.24729 -2.95122 0
M  V30 4583 H 429.58 0.446035 -0.553691 0
M  V30 4584 H 432.182 0.620777 -1.85382 0
M  V30 4585 H 430.886 1.92828 -3.62278 0
M  V30 4586 H 430.417 3.11824 -2.39852 0
M  V30 4587 H 432.432 4.37891 -2.3338 0
M  V30 4588 N 431.605 1.3629 0.791371 0
M  V30 4589 C 432.83 1.33726 1.58531 0
M  V30 4590 C 433.255 -0.0794933 1.87932 0
M  V30 4591 O 432.613 -1.05087 1.47738 0
M  V30 4592 C 432.661 2.16425 2.88431 0
M  V30 4593 O 431.765 1.5554 3.81944 0
M  V30 4594 H 431.106 0.457793 0.480959 0
M  V30 4595 H 433.636 1.79547 0.981031 0
M  V30 4596 H 433.646 2.28933 3.37718 0
M  V30 4597 H 432.321 3.19415 2.66359 0
M  V30 4598 H 430.898 1.51961 3.40532 0
M  V30 4599 N 433.083 -1.0153 1.20538 0
M  V30 4600 C 434.331 -1.74803 1.01432 0
M  V30 4601 C 434.652 -1.8963 -0.454456 0
M  V30 4602 O 433.922 -1.43975 -1.32846 0
M  V30 4603 H 432.502 -0.647598 0.372324 0
M  V30 4604 H 435.164 -1.22402 1.5167 0
M  V30 4605 H 434.26 -2.75114 1.47373 0
M  V30 4606 N 434.561 -1.01147 -1.20859 0
M  V30 4607 C 435.809 -0.696486 -1.89719 0
M  V30 4608 C 436.13 0.775788 -1.78904 0
M  V30 4609 O 435.4 1.55759 -1.18811 0
M  V30 4610 H 433.98 -0.254628 -0.702263 0
M  V30 4611 H 436.642 -1.28197 -1.46804 0
M  V30 4612 H 435.738 -0.975357 -2.96468 0
M  V30 4613 N 436.039 1.36541 -0.78704 0
M  V30 4614 C 436.949 2.3387 -0.184896 0
M  V30 4615 C 437.965 1.60927 0.661697 0
M  V30 4616 O 439.141 1.92927 0.57804 0
M  V30 4617 C 436.206 3.40122 0.672145 0
M  V30 4618 C 435.267 4.28867 -0.19267 0
M  V30 4619 C 434.5 5.30045 0.623561 0
M  V30 4620 O 434.723 5.39232 1.8597 0
M  V30 4621 O 433.657 6.01895 0.0247068 0
M  V30 4622 H 437.483 2.87126 -0.989562 0
M  V30 4623 H 435.068 1.38969 -0.548455 0
M  V30 4624 H 436.95 4.05093 1.16094 0
M  V30 4625 H 435.625 2.89169 1.45474 0
M  V30 4626 H 434.532 3.66945 -0.728166 0
M  V30 4627 H 435.865 4.83165 -0.938722 0
M  V30 4628 N 437.518 0.538854 1.48102 0
M  V30 4629 C 438.929 0.100679 1.86428 0
M  V30 4630 C 439.28 -1.32447 1.44749 0
M  V30 4631 O 438.405 -1.99339 0.842199 0
M  V30 4632 C 439 0.175933 3.38343 0
M  V30 4633 C 437.559 -0.207098 3.7583 0
M  V30 4634 C 436.706 0.531741 2.72154 0
M  V30 4635 H 439.657 0.749614 1.3988 0
M  V30 4636 H 439.678 -0.610144 3.75576 0
M  V30 4637 H 439.19 1.21328 3.68648 0
M  V30 4638 H 437.291 -1.24626 3.5114 0
M  V30 4639 H 437.404 0.138687 4.78899 0
M  V30 4640 H 435.768 -0.0230462 2.5469 0
M  V30 4641 H 436.551 1.56989 3.05302 0
M  V30 4642 N 438.996 -1.55193 0.274407 0
M  V30 4643 C 440.242 -1.99877 -0.343086 0
M  V30 4644 C 440.575 -1.16256 -1.55558 0
M  V30 4645 O 439.85 -0.232462 -1.93106 0
M  V30 4646 C 440.133 -3.52706 -0.725965 0
M  V30 4647 C 439.986 -4.47081 0.493818 0
M  V30 4648 C 441.305 -4.11422 -1.56268 0
M  V30 4649 H 438.424 -0.726625 -0.123229 0
M  V30 4650 H 441.066 -1.86136 0.38121 0
M  V30 4651 H 439.216 -3.64546 -1.34307 0
M  V30 4652 H 440.888 -4.47186 1.13237 0
M  V30 4653 H 439.131 -4.1877 1.13201 0
M  V30 4654 H 439.802 -5.51699 0.18217 0
M  V30 4655 H 442.278 -4.02855 -1.04151 0
M  V30 4656 H 441.154 -5.18568 -1.79939 0
M  V30 4657 H 441.415 -3.61607 -2.54348 0
M  V30 4658 N 440.474 -0.00167713 -1.576 0
M  V30 4659 C 441.704 0.692754 -1.94639 0
M  V30 4660 C 442.112 1.67744 -0.87513 0
M  V30 4661 O 441.455 1.8305 0.154382 0
M  V30 4662 C 441.517 1.47881 -3.27676 0
M  V30 4663 C 441.181 0.655518 -4.52274 0
M  V30 4664 C 442.178 -0.0575214 -5.19868 0
M  V30 4665 C 439.863 0.600994 -4.98692 0
M  V30 4666 C 441.857 -0.814052 -6.3218 0
M  V30 4667 C 439.544 -0.15926 -6.10892 0
M  V30 4668 C 440.542 -0.865515 -6.77494 0
M  V30 4669 O 440.23 -1.61336 -7.87544 0
M  V30 4670 H 439.962 0.197792 -0.646417 0
M  V30 4671 H 442.516 -0.049423 -2.05341 0
M  V30 4672 H 440.746 2.2655 -3.13388 0
M  V30 4673 H 442.435 2.05874 -3.49816 0
M  V30 4674 H 443.201 -0.0245611 -4.84994 0
M  V30 4675 H 439.08 1.14025 -4.46676 0
M  V30 4676 H 442.624 -1.36584 -6.84098 0
M  V30 4677 H 438.521 -0.194035 -6.45208 0
M  V30 4678 H 439.289 -1.53025 -8.04068 0
M  V30 4679 N 441.952 1.55251 0.271103 0
M  V30 4680 C 443.201 1.75151 1.00025 0
M  V30 4681 C 443.514 0.561041 1.87381 0
M  V30 4682 O 444.72 0.642506 2.63788 0
M  V30 4683 C 443.176 3.09999 1.82835 0
M  V30 4684 C 442.784 4.3662 1.00336 0
M  V30 4685 C 444.528 3.39249 2.55168 0
M  V30 4686 C 442.435 5.62506 1.82595 0
M  V30 4687 H 441.365 0.652877 0.377183 0
M  V30 4688 H 444.016 1.81708 0.255843 0
M  V30 4689 H 442.398 2.97485 2.61378 0
M  V30 4690 H 443.572 4.60055 0.261959 0
M  V30 4691 H 441.887 4.14527 0.394486 0
M  V30 4692 H 444.484 4.3051 3.1712 0
M  V30 4693 H 444.827 2.59467 3.2555 0
M  V30 4694 H 445.36 3.52869 1.83653 0
M  V30 4695 H 442.099 6.45041 1.16631 0
M  V30 4696 H 441.619 5.43211 2.54327 0
M  V30 4697 H 443.298 6.00875 2.39913 0
M  V30 4698 N 443.43 -0.535701 1.48216 0
M  V30 4699 C 444.676 -1.29375 1.56173 0
M  V30 4700 C 445.009 -1.92804 0.232429 0
M  V30 4701 O 444.284 -1.78992 -0.761048 0
M  V30 4702 C 444.567 -2.38747 2.69577 0
M  V30 4703 C 444.42 -1.80046 4.12193 0
M  V30 4704 C 445.739 -3.40551 2.78771 0
M  V30 4705 H 442.858 -0.469027 0.568491 0
M  V30 4706 H 445.5 -0.597358 1.80365 0
M  V30 4707 H 443.65 -2.98147 2.4908 0
M  V30 4708 H 445.322 -1.24742 4.44114 0
M  V30 4709 H 443.565 -1.10609 4.19462 0
M  V30 4710 H 444.236 -2.59212 4.87353 0
M  V30 4711 H 446.712 -2.91099 2.97322 0
M  V30 4712 H 445.588 -4.1448 3.59857 0
M  V30 4713 H 445.849 -4.00746 1.86696 0
M  V30 4714 N 444.908 -1.36708 -0.784132 0
M  V30 4715 C 446.136 -1.34398 -1.57305 0
M  V30 4716 C 446.551 0.0735577 -1.88657 0
M  V30 4717 O 445.908 1.03193 -1.50524 0
M  V30 4718 C 445.959 -2.17053 -2.89085 0
M  V30 4719 O 445.68 -3.53281 -2.59083 0
M  V30 4720 C 447.181 -2.22583 -3.83369 0
M  V30 4721 H 444.401 -0.460819 -0.487736 0
M  V30 4722 H 446.945 -1.79879 -0.972819 0
M  V30 4723 H 445.1 -1.75113 -3.45564 0
M  V30 4724 H 445.514 -3.9647 -3.43383 0
M  V30 4725 H 446.988 -2.84763 -4.72878 0
M  V30 4726 H 447.465 -1.23075 -4.21603 0
M  V30 4727 H 448.071 -2.64781 -3.32823 0
M  V30 4728 N 446.386 1.0089 -1.21074 0
M  V30 4729 C 447.296 2.13039 -0.982425 0
M  V30 4730 C 448.312 1.73881 0.0642161 0
M  V30 4731 O 449.488 2.01012 -0.12496 0
M  V30 4732 C 446.553 3.42377 -0.545803 0
M  V30 4733 C 445.614 3.95731 -1.6642 0
M  V30 4734 C 444.847 5.18896 -1.24832 0
M  V30 4735 O 445.07 5.70273 -0.120265 0
M  V30 4736 O 444.004 5.65597 -2.05873 0
M  V30 4737 H 447.83 2.35175 -1.92163 0
M  V30 4738 H 445.415 1.1142 -0.995285 0
M  V30 4739 H 447.297 4.20244 -0.311912 0
M  V30 4740 H 445.972 3.21639 0.364727 0
M  V30 4741 H 444.879 3.19108 -1.95246 0
M  V30 4742 H 446.212 4.20872 -2.55201 0
M  V30 4743 N 447.864 1.01787 1.20321 0
M  V30 4744 C 448.794 0.609625 2.25401 0
M  V30 4745 C 449.775 -0.375951 1.65893 0
M  V30 4746 O 450.96 -0.261101 1.92437 0
M  V30 4747 C 448.09 -0.0515995 3.47262 0
M  V30 4748 C 447.044 0.855095 4.19371 0
M  V30 4749 C 446.37 0.0595757 5.34667 0
M  V30 4750 C 447.67 2.16374 4.75373 0
M  V30 4751 H 449.364 1.48803 2.59804 0
M  V30 4752 H 446.91 0.716934 1.24884 0
M  V30 4753 H 448.863 -0.348764 4.19954 0
M  V30 4754 H 447.587 -0.964726 3.12027 0
M  V30 4755 H 446.246 1.13628 3.48546 0
M  V30 4756 H 445.894 -0.85524 4.95676 0
M  V30 4757 H 445.594 0.663406 5.83843 0
M  V30 4758 H 447.118 -0.231105 6.10162 0
M  V30 4759 H 448.532 1.92885 5.39878 0
M  V30 4760 H 446.929 2.71853 5.34991 0
M  V30 4761 H 447.999 2.82589 3.94045 0
M  V30 4762 N 449.342 -1.36122 0.79427 0
M  V30 4763 C 450.275 -2.27759 0.141845 0
M  V30 4764 C 451.253 -1.47471 -0.684921 0
M  V30 4765 O 452.437 -1.76759 -0.654857 0
M  V30 4766 C 449.564 -3.29008 -0.804446 0
M  V30 4767 C 448.61 -4.26459 -0.0588617 0
M  V30 4768 S 449.443 -5.20253 1.26873 0
M  V30 4769 C 450.599 -6.25048 0.326562 0
M  V30 4770 H 450.832 -2.82746 0.918818 0
M  V30 4771 H 448.365 -1.42736 0.588722 0
M  V30 4772 H 450.323 -3.87842 -1.34495 0
M  V30 4773 H 448.984 -2.72924 -1.5547 0
M  V30 4774 H 448.177 -4.97973 -0.777087 0
M  V30 4775 H 447.779 -3.71731 0.411309 0
M  V30 4776 H 450.071 -6.75705 -0.492795 0
M  V30 4777 H 451.014 -7.00852 1.01053 0
M  V30 4778 H 451.422 -5.64454 -0.0722627 0
M  V30 4779 N 450.82 -0.546701 -1.47814 0
M  V30 4780 C 452.236 -0.205717 -1.58269 0
M  V30 4781 C 452.436 1.29153 -1.54667 0
M  V30 4782 O 451.492 2.07098 -1.44453 0
M  V30 4783 C 452.805 -0.823065 -2.89216 0
M  V30 4784 C 454.353 -0.793328 -3.02779 0
M  V30 4785 C 454.828 -1.38955 -4.36412 0
M  V30 4786 N 456.319 -1.35227 -4.43021 0
M  V30 4787 C 457.054 -1.78333 -5.44963 0
M  V30 4788 N 456.55 -2.29246 -6.53772 0
M  V30 4789 N 458.343 -1.69467 -5.35945 0
M  V30 4790 H 450.494 -1.5196 -1.48398 0
M  V30 4791 H 452.757 -0.633078 -0.705632 0
M  V30 4792 H 452.463 -1.8749 -2.97558 0
M  V30 4793 H 452.337 -0.309915 -3.75925 0
M  V30 4794 H 454.724 0.249784 -2.94041 0
M  V30 4795 H 454.805 -1.34412 -2.17639 0
M  V30 4796 H 454.449 -2.43168 -4.45906 0
M  V30 4797 H 454.379 -0.814291 -5.20266 0
M  V30 4798 H 456.87 -0.979739 -3.64979 0
M  V30 4799 H 457.183 -2.60089 -7.27718 0
M  V30 4800 H 455.528 -2.3325 -6.5469 0
M  V30 4801 H 458.719 -1.29477 -4.49837 0
M  V30 4802 H 458.892 -2.03381 -6.15256 0
M  V30 4803 N 452.299 1.55045 -0.282633 0
M  V30 4804 C 453.246 2.22822 0.601566 0
M  V30 4805 C 454.216 1.20431 1.14392 0
M  V30 4806 O 455.401 1.48996 1.19184 0
M  V30 4807 C 452.541 2.95873 1.77632 0
M  V30 4808 C 451.654 4.12999 1.26711 0
M  V30 4809 C 450.789 4.73676 2.40426 0
M  V30 4810 C 449.828 5.82981 1.86545 0
M  V30 4811 N 448.965 6.3769 2.93762 0
M  V30 4812 H 453.805 2.97995 0.0169528 0
M  V30 4813 H 451.342 1.471 -0.00339964 0
M  V30 4814 H 453.3 3.36447 2.46697 0
M  V30 4815 H 451.93 2.2311 2.33285 0
M  V30 4816 H 450.982 3.77494 0.469314 0
M  V30 4817 H 452.294 4.91803 0.832518 0
M  V30 4818 H 451.448 5.17008 3.17471 0
M  V30 4819 H 450.187 3.94164 2.87203 0
M  V30 4820 H 449.192 5.39092 1.07983 0
M  V30 4821 H 450.417 6.64366 1.40694 0
M  V30 4822 H 448.363 5.61069 3.39908 0
M  V30 4823 H 448.28 7.11788 2.54744 0
M  V30 4824 H 449.548 6.8568 3.7076 0
M  V30 4825 N 453.777 0.010035 1.57597 0
M  V30 4826 C 455.025 -0.671371 1.90623 0
M  V30 4827 C 455.346 -1.73753 0.885151 0
M  V30 4828 O 454.616 -1.95752 -0.0760611 0
M  V30 4829 H 453.196 -0.250968 0.703579 0
M  V30 4830 H 455.858 0.0533325 1.94827 0
M  V30 4831 H 454.954 -1.13626 2.90681 0
M  V30 4832 N 455.255 -1.55392 -0.262866 0
M  V30 4833 C 456.203 -1.8977 -1.345 0
M  V30 4834 C 457.197 -0.775063 -1.50629 0
M  V30 4835 O 458.403 -0.959519 -1.52293 0
M  V30 4836 H 454.778 -0.602467 -0.450041 0
M  V30 4837 H 456.749 -2.80147 -1.02762 0
M  V30 4838 C 455.498 -2.19501 -2.69657 0
M  V30 4839 H 454.821 -3.05378 -2.5804 0
M  V30 4840 H 456.261 -2.47469 -3.44289 0
M  V30 4841 C 454.72 -1.00597 -3.21531 0
M  V30 4842 O 455.25 -0.245768 -4.00947 0
M  V30 4843 N 453.456 -0.800911 -2.79345 0
M  V30 4844 H 453.003 -1.42079 -2.14875 0
M  V30 4845 H 452.961 -0.00697996 -3.14399 0
M  V30 4846 N 456.733 0.527833 -1.48498 0
M  V30 4847 C 457.663 1.64136 -1.66077 0
M  V30 4848 C 458.644 1.62286 -0.509625 0
M  V30 4849 O 459.829 1.79449 -0.742413 0
M  V30 4850 C 456.959 3.02717 -1.70234 0
M  V30 4851 C 455.913 3.19426 -2.8487 0
M  V30 4852 C 455.239 4.5909 -2.74118 0
M  V30 4853 C 456.539 3.01993 -4.26142 0
M  V30 4854 H 458.233 1.4968 -2.593 0
M  V30 4855 H 455.779 0.718654 -1.24785 0
M  V30 4856 H 457.732 3.80491 -1.8112 0
M  V30 4857 H 456.456 3.18201 -0.735911 0
M  V30 4858 H 455.115 2.4407 -2.73542 0
M  V30 4859 H 454.763 4.71413 -1.7544 0
M  V30 4860 H 454.463 4.71214 -3.51042 0
M  V30 4861 H 455.987 5.3896 -2.86974 0
M  V30 4862 H 457.401 3.69558 -4.38292 0
M  V30 4863 H 455.798 3.2561 -5.04082 0
M  V30 4864 H 456.868 1.98396 -4.42456 0
M  V30 4865 N 458.211 1.37122 0.776871 0
M  V30 4866 C 459.143 1.28342 1.89897 0
M  V30 4867 C 460.156 0.200277 1.61563 0
M  V30 4868 O 461.345 0.456012 1.72577 0
M  V30 4869 C 458.445 0.960427 3.25006 0
M  V30 4870 C 457.618 2.148 3.81025 0
M  V30 4871 C 456.677 1.79608 4.94598 0
M  V30 4872 O 455.703 2.51845 5.10454 0
M  V30 4873 N 456.905 0.737171 5.758 0
M  V30 4874 H 459.67 2.25027 1.97947 0
M  V30 4875 H 457.231 1.3068 0.955739 0
M  V30 4876 H 459.223 0.705942 3.98495 0
M  V30 4877 H 457.793 0.0823066 3.12492 0
M  V30 4878 H 457.013 2.56454 2.99374 0
M  V30 4879 H 458.301 2.9411 4.15183 0
M  V30 4880 H 457.699 0.137637 5.65533 0
M  V30 4881 H 456.256 0.542534 6.49538 0
M  V30 4882 N 459.689 -1.00246 1.21608 0
M  V30 4883 C 460.652 -2.07233 0.979133 0
M  V30 4884 C 461.652 -1.6072 -0.0508219 0
M  V30 4885 O 462.842 -1.73196 0.186712 0
M  V30 4886 C 459.974 -3.37546 0.477016 0
M  V30 4887 H 461.167 -2.29687 1.92831 0
M  V30 4888 H 458.72 -1.17261 1.03342 0
M  V30 4889 H 459.455 -3.20773 -0.476966 0
M  V30 4890 H 459.24 -3.72638 1.21997 0
M  V30 4891 H 460.73 -4.16285 0.331181 0
M  V30 4892 N 461.167 -1.02423 -1.1978 0
M  V30 4893 C 462.414 -0.717988 -1.89344 0
M  V30 4894 C 462.742 0.753036 -1.79331 0
M  V30 4895 O 461.997 1.56355 -1.17692 0
M  V30 4896 C 462.296 -1.1088 -3.39765 0
M  V30 4897 C 461.962 -2.57731 -3.6998 0
M  V30 4898 C 460.624 -2.97854 -3.77937 0
M  V30 4899 C 462.976 -3.52763 -3.83677 0
M  V30 4900 C 460.304 -4.31931 -3.97054 0
M  V30 4901 C 462.656 -4.86538 -4.04306 0
M  V30 4902 C 461.32 -5.26356 -4.10494 0
M  V30 4903 H 460.59 -0.26273 -0.692859 0
M  V30 4904 H 463.237 -1.28623 -1.41875 0
M  V30 4905 H 461.542 -0.459094 -3.89101 0
M  V30 4906 H 463.239 -0.849432 -3.919 0
M  V30 4907 H 459.829 -2.25646 -3.64393 0
M  V30 4908 H 464.013 -3.2292 -3.76877 0
M  V30 4909 H 459.269 -4.62324 -4.00083 0
M  V30 4910 H 463.443 -5.60093 -4.13846 0
M  V30 4911 H 461.07 -6.3026 -4.2506 0
M  V30 4912 N 462.645 1.35699 -0.801477 0
M  V30 4913 C 463.575 2.32436 -0.222658 0
M  V30 4914 C 464.556 1.5723 0.649057 0
M  V30 4915 O 465.741 1.85324 0.580387 0
M  V30 4916 C 462.871 3.41469 0.633719 0
M  V30 4917 C 461.825 4.27774 -0.139083 0
M  V30 4918 C 461.151 5.28082 0.838666 0
M  V30 4919 C 462.451 5.04946 -1.33517 0
M  V30 4920 H 464.145 2.81094 -1.03086 0
M  V30 4921 H 461.691 1.35146 -0.497155 0
M  V30 4922 H 463.644 4.08143 1.04868 0
M  V30 4923 H 462.368 2.91408 1.47475 0
M  V30 4924 H 461.027 3.62673 -0.535156 0
M  V30 4925 H 460.675 4.7429 1.67506 0
M  V30 4926 H 460.375 5.86695 0.32594 0
M  V30 4927 H 461.899 5.97628 1.25194 0
M  V30 4928 H 463.313 5.64593 -0.995349 0
M  V30 4929 H 461.71 5.7303 -1.78202 0
M  V30 4930 H 462.78 4.35886 -2.12442 0
M  V30 4931 N 464.123 0.554532 1.47522 0
M  V30 4932 C 465.371 0.0294208 2.02079 0
M  V30 4933 C 465.692 -1.32411 1.43151 0
M  V30 4934 O 464.962 -1.863 0.605728 0
M  V30 4935 H 463.542 0.00788672 0.746958 0
M  V30 4936 H 466.204 0.723934 1.80956 0
M  V30 4937 H 465.3 -0.0606745 3.12041 0
M  V30 4938 N 465.601 -1.54893 0.290851 0
M  V30 4939 C 466.829 -2.04343 -0.324288 0
M  V30 4940 C 467.244 -1.16859 -1.48289 0
M  V30 4941 O 466.601 -0.192018 -1.81487 0
M  V30 4942 C 466.652 -3.52756 -0.79026 0
M  V30 4943 O 466.373 -4.36913 0.322213 0
M  V30 4944 C 467.874 -4.18161 -1.4716 0
M  V30 4945 H 465.094 -0.667135 -0.0719173 0
M  V30 4946 H 467.638 -1.99981 0.427529 0
M  V30 4947 H 465.793 -3.57511 -1.49213 0
M  V30 4948 H 466.207 -5.24486 -0.0387372 0
M  V30 4949 H 467.681 -5.23562 -1.7489 0
M  V30 4950 H 468.158 -3.67282 -2.40834 0
M  V30 4951 H 468.764 -4.17454 -0.813178 0
M  V30 4952 N 467.08 -0.0183926 -1.57589 0
M  V30 4953 C 468.491 0.521927 -1.79256 0
M  V30 4954 C 468.842 1.72885 -0.927636 0
M  V30 4955 O 467.967 2.15978 -0.135091 0
M  V30 4956 C 468.562 0.953632 -3.25102 0
M  V30 4957 C 467.121 1.43913 -3.47801 0
M  V30 4958 C 466.268 0.398837 -2.74417 0
M  V30 4959 H 469.219 -0.244485 -1.56805 0
M  V30 4960 H 469.24 1.81863 -3.34224 0
M  V30 4961 H 468.752 0.0750123 -3.88028 0
M  V30 4962 H 466.853 2.33804 -2.90115 0
M  V30 4963 H 466.966 1.45391 -4.56507 0
M  V30 4964 H 465.33 0.864572 -2.39577 0
M  V30 4965 H 466.113 -0.471132 -3.40052 0
M  V30 4966 N 468.558 1.5553 0.254621 0
M  V30 4967 C 469.468 1.92789 1.33677 0
M  V30 4968 C 470.484 0.827356 1.53071 0
M  V30 4969 O 471.66 1.12807 1.66843 0
M  V30 4970 C 468.725 2.20827 2.67275 0
M  V30 4971 C 467.786 3.4427 2.5647 0
M  V30 4972 C 467.019 3.70961 3.83697 0
M  V30 4973 O 467.242 2.99852 4.85227 0
M  V30 4974 O 466.176 4.64491 3.82794 0
M  V30 4975 H 470.002 2.84945 1.05071 0
M  V30 4976 H 467.587 1.42312 0.454723 0
M  V30 4977 H 469.469 2.40204 3.46237 0
M  V30 4978 H 468.144 1.31851 2.9563 0
M  V30 4979 H 467.051 3.30209 1.75821 0
M  V30 4980 H 468.384 4.33524 2.33062 0
M  V30 4981 N 470.036 -0.519951 1.48776 0
M  V30 4982 C 471.284 -1.2727 1.56993 0
M  V30 4983 C 471.605 -1.9339 0.25004 0
M  V30 4984 O 470.875 -1.81822 -0.729216 0
M  V30 4985 H 469.455 -0.472732 0.578389 0
M  V30 4986 H 472.117 -0.604234 1.85297 0
M  V30 4987 H 471.213 -2.04669 2.3562 0
M  V30 4988 N 471.514 -1.37532 -0.769588 0
M  V30 4989 C 472.93 -1.18379 -1.07045 0
M  V30 4990 C 473.13 -0.0214312 -2.01489 0
M  V30 4991 O 472.186 0.637809 -2.44312 0
M  V30 4992 C 473.499 -2.50338 -1.66588 0
M  V30 4993 C 475.047 -2.56879 -1.78835 0
M  V30 4994 C 475.522 -3.88974 -2.41792 0
M  V30 4995 N 477.013 -3.90428 -2.4924 0
M  V30 4996 C 477.748 -4.89388 -2.98809 0
M  V30 4997 N 477.244 -5.98745 -3.48535 0
M  V30 4998 N 479.037 -4.76791 -2.97703 0
M  V30 4999 H 471.188 -2.11921 -0.142541 0
M  V30 5000 H 473.451 -0.939608 -0.125863 0
M  V30 5001 H 473.157 -3.35767 -1.0466 0
M  V30 5002 H 473.031 -2.67583 -2.65856 0
M  V30 5003 H 475.418 -1.71856 -2.39895 0
M  V30 5004 H 475.499 -2.43516 -0.783166 0
M  V30 5005 H 475.143 -4.74412 -1.81371 0
M  V30 5006 H 475.073 -3.99641 -3.4292 0
M  V30 5007 H 477.564 -3.11433 -2.14052 0
M  V30 5008 H 477.877 -6.70205 -3.84767 0
M  V30 5009 H 476.222 -6.02387 -3.46634 0
M  V30 5010 H 479.413 -3.90478 -2.58157 0
M  V30 5011 H 479.586 -5.54069 -3.36024 0
M  V30 5012 N 472.992 0.995999 -1.22138 0
M  V30 5013 C 473.955 2.06711 -0.990109 0
M  V30 5014 C 474.955 1.60744 0.0422978 0
M  V30 5015 O 476.145 1.73095 -0.195895 0
M  V30 5016 C 473.277 3.37288 -0.49491 0
M  V30 5017 H 474.47 2.28661 -1.94047 0
M  V30 5018 H 472.023 1.16711 -1.03963 0
M  V30 5019 H 472.758 3.21022 0.459948 0
M  V30 5020 H 472.543 3.71986 -1.23971 0
M  V30 5021 H 474.033 4.16103 -0.353253 0
M  V30 5022 N 474.47 1.03057 1.19235 0
M  V30 5023 C 475.4 0.633497 2.24742 0
M  V30 5024 C 476.381 -0.358335 1.66283 0
M  V30 5025 O 477.566 -0.240676 1.92703 0
M  V30 5026 C 474.696 -0.0147648 3.47297 0
M  V30 5027 C 473.65 0.899527 4.18441 0
M  V30 5028 C 472.976 0.116281 5.34574 0
M  V30 5029 C 474.276 2.21404 4.73051 0
M  V30 5030 H 475.97 1.5155 2.58211 0
M  V30 5031 H 473.516 0.73014 1.24117 0
M  V30 5032 H 475.469 -0.304202 4.20301 0
M  V30 5033 H 474.193 -0.931577 3.13032 0
M  V30 5034 H 472.852 1.17319 3.47321 0
M  V30 5035 H 472.5 -0.802619 4.96555 0
M  V30 5036 H 472.2 0.725293 5.83107 0
M  V30 5037 H 473.724 -0.166376 6.10373 0
M  V30 5038 H 475.138 1.98601 5.37802 0
M  V30 5039 H 473.535 2.77512 5.32078 0
M  V30 5040 H 474.605 2.86752 3.91026 0
M  V30 5041 N 475.948 -1.35272 0.808662 0
M  V30 5042 C 477.364 -1.51806 0.492653 0
M  V30 5043 C 477.564 -1.7574 -0.985778 0
M  V30 5044 O 476.62 -1.80003 -1.77074 0
M  V30 5045 C 477.933 -2.69202 1.33981 0
M  V30 5046 C 479.481 -2.8308 1.33547 0
M  V30 5047 C 479.956 -4.03502 2.16679 0
M  V30 5048 N 481.447 -4.10684 2.14227 0
M  V30 5049 C 482.182 -5.02984 2.75308 0
M  V30 5050 N 481.678 -6.00603 3.45323 0
M  V30 5051 N 483.471 -4.95746 2.64938 0
M  V30 5052 H 475.622 -1.17993 1.76611 0
M  V30 5053 H 477.885 -0.577476 0.751814 0
M  V30 5054 H 477.591 -2.581 2.38909 0
M  V30 5055 H 477.465 -3.63854 0.994491 0
M  V30 5056 H 479.852 -2.93631 0.294036 0
M  V30 5057 H 479.933 -1.89278 1.72068 0
M  V30 5058 H 479.577 -3.93711 3.20864 0
M  V30 5059 H 479.507 -4.96489 1.75517 0
M  V30 5060 H 481.998 -3.40802 1.63285 0
M  V30 5061 H 482.311 -6.67633 3.89212 0
M  V30 5062 H 480.656 -6.0077 3.49428 0
M  V30 5063 H 483.847 -4.18439 2.09825 0
M  V30 5064 H 484.02 -5.67487 3.12829 0
M  V30 5065 N 477.426 -0.562348 -1.47226 0
M  V30 5066 C 478.356 0.170627 -2.32876 0
M  V30 5067 C 479.337 0.903748 -1.44106 0
M  V30 5068 O 480.522 0.883206 -1.72954 0
M  V30 5069 C 477.652 1.19786 -3.25989 0
M  V30 5070 C 476.606 0.580875 -4.2404 0
M  V30 5071 C 475.932 1.71311 -5.06514 0
M  V30 5072 C 477.232 -0.468714 -5.20193 0
M  V30 5073 H 478.926 -0.544441 -2.94408 0
M  V30 5074 H 476.472 -0.263271 -1.41573 0
M  V30 5075 H 478.425 1.71884 -3.84752 0
M  V30 5076 H 477.149 1.94294 -2.62521 0
M  V30 5077 H 475.808 0.0811538 -3.6651 0
M  V30 5078 H 475.456 2.44736 -4.39447 0
M  V30 5079 H 475.156 1.30604 -5.72902 0
M  V30 5080 H 476.68 2.23725 -5.68137 0
M  V30 5081 H 478.094 -0.0336028 -5.7329 0
M  V30 5082 H 476.491 -0.794957 -5.94811 0
M  V30 5083 H 477.561 -1.36269 -4.65359 0
M  V30 5084 N 478.904 1.54736 -0.299062 0
M  V30 5085 C 480.315 1.8569 0.193971 0
M  V30 5086 C 480.666 1.22101 1.53577 0
M  V30 5087 O 479.791 0.51799 2.10109 0
M  V30 5088 C 480.386 3.36895 0.358733 0
M  V30 5089 C 478.945 3.67887 0.795986 0
M  V30 5090 C 478.092 2.77131 -0.096807 0
M  V30 5091 H 481.043 1.49934 -0.520134 0
M  V30 5092 H 481.064 3.61294 1.19361 0
M  V30 5093 H 480.576 3.83148 -0.617998 0
M  V30 5094 H 478.677 3.27151 1.78334 0
M  V30 5095 H 478.79 4.75114 0.616718 0
M  V30 5096 H 477.154 2.51153 0.423581 0
M  V30 5097 H 477.937 3.26204 -1.06986 0
M  V30 5098 N 480.382 0.0267497 1.57577 0
M  V30 5099 C 481.793 -0.512413 1.79531 0
M  V30 5100 C 482.144 -1.72391 0.936791 0
M  V30 5101 O 481.269 -2.15903 0.146543 0
M  V30 5102 C 481.864 -0.936378 3.25603 0
M  V30 5103 C 480.423 -1.42067 3.4856 0
M  V30 5104 C 479.57 -0.384278 2.74624 0
M  V30 5105 H 482.521 0.252797 1.56674 0
M  V30 5106 H 482.542 -1.80088 3.35184 0
M  V30 5107 H 482.054 -0.0544332 3.88062 0
M  V30 5108 H 480.155 -2.32262 2.9135 0
M  V30 5109 H 480.268 -1.42968 4.57271 0
M  V30 5110 H 478.632 -0.851855 2.40032 0
M  V30 5111 H 479.415 0.489159 3.39797 0
M  V30 5112 N 481.861 -1.55662 -0.24637 0
M  V30 5113 C 482.791 -1.93377 -1.30873 0
M  V30 5114 C 483.772 -0.798773 -1.50179 0
M  V30 5115 O 484.957 -1.0591 -1.62778 0
M  V30 5116 C 482.087 -2.22893 -2.66338 0
M  V30 5117 C 481.041 -3.38649 -2.61727 0
M  V30 5118 C 480.367 -3.53708 -4.00992 0
M  V30 5119 C 481.667 -4.74323 -2.18666 0
M  V30 5120 H 483.361 -2.82363 -0.995552 0
M  V30 5121 H 480.907 -1.35854 -0.477464 0
M  V30 5122 H 482.86 -2.47866 -3.40794 0
M  V30 5123 H 481.584 -1.30733 -2.99293 0
M  V30 5124 H 480.243 -3.13685 -1.89729 0
M  V30 5125 H 479.891 -2.58967 -4.31214 0
M  V30 5126 H 479.591 -4.31551 -3.98795 0
M  V30 5127 H 481.115 -3.81003 -4.77147 0
M  V30 5128 H 482.529 -4.98665 -2.82854 0
M  V30 5129 H 480.926 -5.55273 -2.27579 0
M  V30 5130 H 481.996 -4.71349 -1.13834 0
M  V30 5131 N 483.339 0.512053 -1.4905 0
M  V30 5132 C 484.269 1.62365 -1.67809 0
M  V30 5133 C 485.25 1.61737 -0.526809 0
M  V30 5134 O 486.435 1.78651 -0.761404 0
M  V30 5135 C 483.565 3.00895 -1.73435 0
M  V30 5136 C 482.519 3.16387 -2.88242 0
M  V30 5137 C 481.845 4.56157 -2.78971 0
M  V30 5138 C 483.145 2.97457 -4.29321 0
M  V30 5139 H 484.839 1.46921 -2.60873 0
M  V30 5140 H 482.385 0.705379 -1.2554 0
M  V30 5141 H 484.338 3.78549 -1.85145 0
M  V30 5142 H 483.062 3.17403 -0.769619 0
M  V30 5143 H 481.721 2.41155 -2.76116 0
M  V30 5144 H 481.369 4.69525 -1.8043 0
M  V30 5145 H 481.069 4.67465 -3.5602 0
M  V30 5146 H 482.593 5.35886 -2.92675 0
M  V30 5147 H 484.007 3.64888 -4.42187 0
M  V30 5148 H 482.404 3.20245 -5.07507 0
M  V30 5149 H 483.474 1.93692 -4.44535 0
M  V30 5150 N 484.817 1.37938 0.762283 0
M  V30 5151 C 486.065 1.33404 1.51815 0
M  V30 5152 C 486.386 -0.0780975 1.94844 0
M  V30 5153 O 485.656 -1.02405 1.67003 0
M  V30 5154 H 484.236 0.490839 0.563104 0
M  V30 5155 H 486.898 1.72527 0.906669 0
M  V30 5156 H 485.994 1.97926 2.41313 0
M  V30 5157 N 486.295 -0.989507 1.22664 0
M  V30 5158 C 487.542 -1.72953 1.05325 0
M  V30 5159 C 487.87 -1.90104 -0.411168 0
M  V30 5160 O 487.125 -1.44386 -1.32103 0
M  V30 5161 C 487.424 -3.13649 1.71345 0
M  V30 5162 C 487.09 -3.16403 3.21248 0
M  V30 5163 C 485.752 -3.16862 3.62149 0
M  V30 5164 C 488.104 -3.12428 4.17179 0
M  V30 5165 C 485.432 -3.11051 4.97458 0
M  V30 5166 C 487.784 -3.08159 5.52468 0
M  V30 5167 C 486.448 -3.06935 5.92746 0
M  V30 5168 H 485.718 -0.632881 0.385412 0
M  V30 5169 H 488.365 -1.15863 1.52473 0
M  V30 5170 H 486.67 -3.74069 1.16532 0
M  V30 5171 H 488.367 -3.69658 1.55416 0
M  V30 5172 H 484.957 -3.16798 2.88682 0
M  V30 5173 H 489.141 -3.11221 3.86595 0
M  V30 5174 H 484.397 -3.0845 5.27891 0
M  V30 5175 H 488.571 -3.04039 6.26525 0
M  V30 5176 H 486.198 -3.02186 6.97558 0
M  V30 5177 N 487.773 -1.03688 -1.18687 0
M  V30 5178 C 488.736 -0.629115 -2.20397 0
M  V30 5179 C 489.736 0.311495 -1.57754 0
M  V30 5180 O 490.926 0.0974107 -1.73927 0
M  V30 5181 C 488.058 0.0782231 -3.4081 0
M  V30 5182 H 489.251 -1.52915 -2.57987 0
M  V30 5183 H 486.804 -0.828988 -1.32505 0
M  V30 5184 H 487.539 0.992233 -3.08748 0
M  V30 5185 H 487.324 -0.597776 -3.87517 0
M  V30 5186 H 488.814 0.350156 -4.16129 0
M  V30 5187 N 489.251 1.34841 -0.815825 0
M  V30 5188 C 490.491 2.00321 -0.406297 0
M  V30 5189 C 490.855 1.63293 1.00992 0
M  V30 5190 O 492.056 2.21563 1.52195 0
M  V30 5191 C 490.327 3.52421 -0.594469 0
M  V30 5192 S 491.886 4.37926 -0.276735 0
M  V30 5193 H 488.704 0.694155 -0.153848 0
M  V30 5194 H 491.306 1.64263 -1.06009 0
M  V30 5195 H 490.01 3.76858 -1.625 0
M  V30 5196 H 489.541 3.9333 0.0743157 0
M  V30 5197 H 491.556 4.87743 0.912215 0
M  V30 5198 N 490.729 0.570148 1.46925 0
M  V30 5199 C 491.661 -0.207909 2.28255 0
M  V30 5200 C 492.674 -0.867301 1.37774 0
M  V30 5201 O 493.863 -0.738976 1.62485 0
M  V30 5202 C 490.963 -1.31298 3.12433 0
M  V30 5203 C 490.136 -0.747915 4.30958 0
M  V30 5204 C 489.195 -1.7391 4.9663 0
M  V30 5205 O 488.221 -1.2801 5.54619 0
M  V30 5206 N 489.423 -3.07288 4.92498 0
M  V30 5207 H 492.188 0.489794 2.95671 0
M  V30 5208 H 489.749 0.407076 1.56699 0
M  V30 5209 H 491.741 -1.97507 3.53232 0
M  V30 5210 H 490.311 -1.91373 2.47175 0
M  V30 5211 H 489.531 0.0913066 3.94094 0
M  V30 5212 H 490.819 -0.349958 5.07595 0
M  V30 5213 H 490.217 -3.47213 4.46609 0
M  V30 5214 H 488.774 -3.69021 5.37277 0
M  V30 5215 N 492.207 -1.54576 0.307264 0
M  V30 5216 C 493.453 -2.0056 -0.300612 0
M  V30 5217 C 493.786 -1.1953 -1.53057 0
M  V30 5218 O 493.061 -0.27337 -1.92569 0
M  V30 5219 C 493.344 -3.54167 -0.650987 0
M  V30 5220 C 493.197 -4.45933 0.588539 0
M  V30 5221 C 494.516 -4.14645 -1.47506 0
M  V30 5222 H 491.635 -0.729075 -0.107788 0
M  V30 5223 H 494.277 -1.85286 0.420606 0
M  V30 5224 H 492.427 -3.67313 -1.26544 0
M  V30 5225 H 494.099 -4.44683 1.22697 0
M  V30 5226 H 492.342 -4.16274 1.22058 0
M  V30 5227 H 493.013 -5.51189 0.299153 0
M  V30 5228 H 495.489 -4.04973 -0.955821 0
M  V30 5229 H 494.365 -5.22269 -1.68899 0
M  V30 5230 H 494.626 -3.66921 -2.4662 0
M  V30 5231 N 493.685 -0.035106 -1.57561 0
M  V30 5232 C 494.648 0.929819 -2.09492 0
M  V30 5233 C 495.648 1.25026 -1.01119 0
M  V30 5234 O 496.838 1.18961 -1.27255 0
M  V30 5235 C 493.97 2.24457 -2.56577 0
M  V30 5236 H 495.163 0.479935 -2.96035 0
M  V30 5237 H 492.716 0.213033 -1.54841 0
M  V30 5238 H 493.451 2.74061 -1.73382 0
M  V30 5239 H 493.236 2.02508 -3.35757 0
M  V30 5240 H 494.726 2.93607 -2.96959 0
M  V30 5241 N 495.163 1.55791 0.238111 0
M  V30 5242 C 496.073 1.94196 1.31625 0
M  V30 5243 C 497.089 0.843545 1.52185 0
M  V30 5244 O 498.265 1.1457 1.65637 0
M  V30 5245 C 495.33 2.2365 2.64918 0
M  V30 5246 C 494.391 3.46971 2.52804 0
M  V30 5247 C 493.624 3.7501 3.79741 0
M  V30 5248 O 493.847 3.04982 4.82019 0
M  V30 5249 O 492.781 4.68525 3.77846 0
M  V30 5250 H 496.607 2.86044 1.02043 0
M  V30 5251 H 494.192 1.42786 0.439603 0
M  V30 5252 H 496.074 2.43863 3.4367 0
M  V30 5253 H 494.749 1.34979 2.94215 0
M  V30 5254 H 493.656 3.32055 1.72309 0
M  V30 5255 H 494.989 4.35971 2.28451 0
M  V30 5256 N 496.642 -0.504142 1.49319 0
M  V30 5257 C 497.89 -1.25598 1.58334 0
M  V30 5258 C 498.211 -1.93114 0.270538 0
M  V30 5259 O 497.481 -1.82585 -0.709891 0
M  V30 5260 H 496.061 -0.466571 0.58337 0
M  V30 5261 H 498.723 -0.584547 1.85928 0
M  V30 5262 H 497.819 -2.02159 2.37778 0
M  V30 5263 N 498.12 -1.38341 -0.754957 0
M  V30 5264 C 499.053 -1.29837 -1.87663 0
M  V30 5265 C 500.031 -0.175659 -1.61648 0
M  V30 5266 O 501.215 -0.352745 -1.8517 0
M  V30 5267 C 498.342 -1.01141 -3.23246 0
M  V30 5268 C 497.388 -2.15331 -3.6815 0
M  V30 5269 S 498.221 -3.77459 -3.79849 0
M  V30 5270 C 499.377 -3.50948 -5.18253 0
M  V30 5271 H 499.61 -2.24771 -1.9459 0
M  V30 5272 H 497.143 -1.24161 -0.917796 0
M  V30 5273 H 499.101 -0.852687 -4.01546 0
M  V30 5274 H 497.762 -0.0792784 -3.14 0
M  V30 5275 H 496.955 -1.90795 -4.6649 0
M  V30 5276 H 496.557 -2.27304 -2.97 0
M  V30 5277 H 498.849 -3.06977 -6.03963 0
M  V30 5278 H 499.792 -4.48677 -5.47809 0
M  V30 5279 H 500.2 -2.85492 -4.86985 0
M  V30 5280 N 499.598 0.982988 -1.23187 0
M  V30 5281 C 500.823 1.76455 -1.08988 0
M  V30 5282 C 501.248 1.84726 0.354691 0
M  V30 5283 O 500.606 1.30699 1.25649 0
M  V30 5284 C 500.654 3.17094 -1.71708 0
M  V30 5285 O 499.758 4.00648 -0.977477 0
M  V30 5286 H 499.099 0.542988 -0.382177 0
M  V30 5287 H 501.629 1.23413 -1.63188 0
M  V30 5288 H 501.639 3.67684 -1.76841 0
M  V30 5289 H 500.314 3.10389 -2.76823 0
M  V30 5290 H 498.891 3.59161 -1.0029 0
M  V30 5291 N 501.076 1.04316 1.18135 0
M  V30 5292 C 502.306 0.767003 1.91835 0
M  V30 5293 C 502.714 -0.68002 1.76557 0
M  V30 5294 O 502.057 -1.47548 1.09432 0
M  V30 5295 C 502.119 1.05674 3.43618 0
M  V30 5296 C 501.783 2.49818 3.82675 0
M  V30 5297 C 502.78 3.48003 3.86251 0
M  V30 5298 C 500.465 2.84596 4.13897 0
M  V30 5299 C 502.459 4.79016 4.20503 0
M  V30 5300 C 500.146 4.15813 4.4782 0
M  V30 5301 C 501.144 5.12834 4.51099 0
M  V30 5302 O 500.832 6.41699 4.84229 0
M  V30 5303 H 500.564 0.278948 0.615763 0
M  V30 5304 H 503.118 1.3946 1.50798 0
M  V30 5305 H 501.348 0.372029 3.84906 0
M  V30 5306 H 503.037 0.767994 3.98568 0
M  V30 5307 H 503.803 3.22475 3.62264 0
M  V30 5308 H 499.682 2.09748 4.1052 0
M  V30 5309 H 503.226 5.54739 4.22978 0
M  V30 5310 H 499.123 4.41109 4.71268 0
M  V30 5311 H 499.891 6.46387 5.02121 0
M  V30 5312 N 502.554 -1.34406 0.822964 0
M  V30 5313 C 503.484 -2.32052 0.259608 0
M  V30 5314 C 504.465 -1.58243 -0.623961 0
M  V30 5315 O 505.65 -1.86224 -0.55083 0
M  V30 5316 C 502.78 -3.42434 -0.579314 0
M  V30 5317 C 501.734 -4.27499 0.20712 0
M  V30 5318 C 501.06 -5.29349 -0.754547 0
M  V30 5319 C 502.36 -5.02758 1.41533 0
M  V30 5320 H 504.054 -2.79418 1.07545 0
M  V30 5321 H 501.6 -1.34338 0.518593 0
M  V30 5322 H 503.553 -4.0976 -0.983612 0
M  V30 5323 H 502.277 -2.93717 -1.4282 0
M  V30 5324 H 500.936 -3.61776 0.592787 0
M  V30 5325 H 500.584 -4.76895 -1.59939 0
M  V30 5326 H 500.284 -5.8714 -0.232561 0
M  V30 5327 H 501.808 -5.99544 -1.1567 0
M  V30 5328 H 503.222 -5.62938 1.08504 0
M  V30 5329 H 501.619 -5.70123 1.87296 0
M  V30 5330 H 502.689 -4.32451 2.1935 0
M  V30 5331 N 504.032 -0.577932 -1.46621 0
M  V30 5332 C 504.942 0.160651 -2.34049 0
M  V30 5333 C 505.958 0.890911 -1.49462 0
M  V30 5334 O 507.134 0.855166 -1.82343 0
M  V30 5335 C 504.199 1.16447 -3.26559 0
M  V30 5336 C 503.26 0.4394 -4.27045 0
M  V30 5337 C 502.493 1.3954 -5.15135 0
M  V30 5338 O 502.716 2.63162 -5.06065 0
M  V30 5339 O 501.65 0.908585 -5.95003 0
M  V30 5340 H 505.476 -0.557057 -2.98547 0
M  V30 5341 H 503.061 -0.338369 -1.45518 0
M  V30 5342 H 504.943 1.7434 -3.83645 0
M  V30 5343 H 503.618 1.86373 -2.64663 0
M  V30 5344 H 502.525 -0.181247 -3.73661 0
M  V30 5345 H 503.858 -0.218799 -4.91713 0
M  V30 5346 N 505.51 1.54411 -0.315457 0
M  V30 5347 C 506.42 2.27737 0.56329 0
M  V30 5348 C 507.436 1.31787 1.13614 0
M  V30 5349 O 508.612 1.64791 1.15784 0
M  V30 5350 C 505.677 3.01478 1.71207 0
M  V30 5351 C 504.738 4.12997 1.17185 0
M  V30 5352 C 503.971 4.83212 2.26588 0
M  V30 5353 O 504.194 4.52884 3.46775 0
M  V30 5354 O 503.128 5.70299 1.92463 0
M  V30 5355 H 506.954 3.03683 -0.0319614 0
M  V30 5356 H 504.539 1.49178 -0.0814188 0
M  V30 5357 H 506.421 3.47683 2.38106 0
M  V30 5358 H 505.096 2.28414 2.29366 0
M  V30 5359 H 504.003 3.71159 0.468174 0
M  V30 5360 H 505.336 4.8808 0.635501 0
M  V30 5361 N 506.988 0.0434614 1.5754 0
M  V30 5362 C 507.92 -0.962586 2.08007 0
M  V30 5363 C 508.933 -1.27972 1.00634 0
M  V30 5364 O 510.122 -1.24186 1.28219 0
M  V30 5365 C 507.222 -2.28621 2.50171 0
M  V30 5366 C 506.395 -2.15214 3.80791 0
M  V30 5367 C 505.454 -3.30633 4.09351 0
M  V30 5368 O 504.48 -3.0688 4.79388 0
M  V30 5369 N 505.682 -4.54873 3.60654 0
M  V30 5370 H 508.447 -0.531891 2.94942 0
M  V30 5371 H 506.008 -0.142965 1.61268 0
M  V30 5372 H 508 -3.04689 2.66359 0
M  V30 5373 H 506.57 -2.63283 1.68525 0
M  V30 5374 H 505.79 -1.23785 3.74261 0
M  V30 5375 H 507.078 -2.03475 4.66343 0
M  V30 5376 H 506.476 -4.77063 3.04019 0
M  V30 5377 H 505.033 -5.2806 3.82094 0
M  V30 5378 N 508.466 -1.55915 -0.229846 0
M  V30 5379 C 509.882 -1.48721 -0.579166 0
M  V30 5380 C 510.082 -0.736976 -1.87539 0
M  V30 5381 O 509.138 -0.273258 -2.51017 0
M  V30 5382 C 510.451 -2.9323 -0.666082 0
M  V30 5383 C 511.999 -3.03701 -0.757267 0
M  V30 5384 C 512.474 -4.49552 -0.8756 0
M  V30 5385 N 513.965 -4.53561 -0.940035 0
M  V30 5386 C 514.7 -5.63683 -1.05116 0
M  V30 5387 N 514.196 -6.83576 -1.12675 0
M  V30 5388 N 515.989 -5.51516 -1.08565 0
M  V30 5389 H 508.14 -2.03123 0.620857 0
M  V30 5390 H 510.403 -0.922898 0.21671 0
M  V30 5391 H 510.109 -3.51032 0.21664 0
M  V30 5392 H 509.983 -3.44668 -1.53243 0
M  V30 5393 H 512.37 -2.45969 -1.63043 0
M  V30 5394 H 512.451 -2.55446 0.134583 0
M  V30 5395 H 512.095 -5.079 -0.00692351 0
M  V30 5396 H 512.025 -4.95506 -1.78274 0
M  V30 5397 H 514.516 -3.67215 -0.892269 0
M  V30 5398 H 514.829 -7.63251 -1.21109 0
M  V30 5399 H 513.174 -6.86303 -1.09603 0
M  V30 5400 H 516.365 -4.5678 -1.02319 0
M  V30 5401 H 516.538 -6.37372 -1.1688 0
M  V30 5402 N 509.944 0.496216 -1.49584 0
M  V30 5403 C 511.19 1.25189 -1.59548 0
M  V30 5404 C 511.523 1.9212 -0.283466 0
M  V30 5405 O 510.798 1.80947 0.713324 0
M  V30 5406 C 511.081 2.31516 -2.75812 0
M  V30 5407 C 510.934 1.69054 -4.16822 0
M  V30 5408 C 512.253 3.3304 -2.87702 0
M  V30 5409 H 509.372 0.45379 -0.580727 0
M  V30 5410 H 512.014 0.549327 -1.81886 0
M  V30 5411 H 510.164 2.91438 -2.56897 0
M  V30 5412 H 511.836 1.12923 -4.47265 0
M  V30 5413 H 510.079 0.994485 -4.22247 0
M  V30 5414 H 510.75 2.462 -4.94054 0
M  V30 5415 H 513.226 2.83114 -3.04936 0
M  V30 5416 H 512.102 4.04794 -3.7072 0
M  V30 5417 H 512.363 3.95655 -1.97255 0
M  V30 5418 N 511.423 1.38739 0.74761 0
M  V30 5419 C 512.669 1.35475 1.50912 0
M  V30 5420 C 513.002 -0.0533093 1.94127 0
M  V30 5421 O 512.277 -1.01572 1.65871 0
M  V30 5422 C 512.56 2.31582 2.75757 0
M  V30 5423 C 512.413 3.81274 2.38642 0
M  V30 5424 C 513.732 2.25722 3.77806 0
M  V30 5425 H 510.851 0.493427 0.547447 0
M  V30 5426 H 513.493 1.69634 0.855823 0
M  V30 5427 H 511.643 2.02582 3.31501 0
M  V30 5428 H 513.315 4.20972 1.88626 0
M  V30 5429 H 511.558 3.98664 1.71025 0
M  V30 5430 H 512.229 4.4399 3.27989 0
M  V30 5431 H 514.705 2.51336 3.31616 0
M  V30 5432 H 513.581 2.95069 4.62845 0
M  V30 5433 H 513.842 1.25803 4.23823 0
M  V30 5434 N 512.901 -0.976442 1.23707 0
M  V30 5435 C 513.851 -2.0544 0.988851 0
M  V30 5436 C 514.835 -1.60762 -0.0665901 0
M  V30 5437 O 516.027 -1.76396 0.14604 0
M  V30 5438 C 513.156 -3.38258 0.586223 0
M  V30 5439 C 512.242 -3.89523 1.67728 0
M  V30 5440 N 512.633 -4.13823 2.90834 0
M  V30 5441 C 510.931 -4.18097 1.55277 0
M  V30 5442 C 511.632 -4.55731 3.61502 0
M  V30 5443 N 510.608 -4.60394 2.8903 0
M  V30 5444 H 514.41 -2.22191 1.92376 0
M  V30 5445 H 511.924 -1.15954 1.13704 0
M  V30 5446 H 513.921 -4.15075 0.389658 0
M  V30 5447 H 512.581 -3.22898 -0.341594 0
M  V30 5448 H 513.592 -4.01529 3.271 0
M  V30 5449 H 510.269 -4.11719 0.692351 0
M  V30 5450 H 511.659 -4.83018 4.67059 0
M  V30 5451 N 514.379 -1.04941 -1.1758 0
M  V30 5452 C 515.795 -0.770282 -1.39781 0
M  V30 5453 C 515.995 0.636417 -1.91186 0
M  V30 5454 O 515.051 1.39923 -2.10185 0
M  V30 5455 C 516.364 -1.82376 -2.3908 0
M  V30 5456 C 517.912 -1.84569 -2.52791 0
M  V30 5457 C 518.387 -2.88933 -3.55361 0
M  V30 5458 N 519.878 -2.8788 -3.62877 0
M  V30 5459 C 520.613 -3.65282 -4.41992 0
M  V30 5460 N 520.109 -4.52461 -5.24643 0
M  V30 5461 N 521.902 -3.53732 -4.36841 0
M  V30 5462 H 514.053 -1.95705 -0.825438 0
M  V30 5463 H 516.316 -0.847284 -0.425222 0
M  V30 5464 H 516.022 -2.83323 -2.08376 0
M  V30 5465 H 515.896 -1.66327 -3.38549 0
M  V30 5466 H 518.283 -0.842879 -2.82807 0
M  V30 5467 H 518.364 -2.04696 -1.53406 0
M  V30 5468 H 518.008 -3.89398 -3.26085 0
M  V30 5469 H 517.938 -2.66059 -4.54445 0
M  V30 5470 H 520.429 -2.24666 -3.03864 0
M  V30 5471 H 520.742 -5.08211 -5.82187 0
M  V30 5472 H 519.087 -4.56524 -5.24033 0
M  V30 5473 H 522.278 -2.85021 -3.71323 0
M  V30 5474 H 522.451 -4.14302 -4.98255 0
M  V30 5475 N 515.857 1.33968 -0.830081 0
M  V30 5476 C 517.134 1.92554 -0.343858 0
M  V30 5477 C 517.514 1.7573 1.16971 0
M  V30 5478 O 516.862 1.14035 1.98011 0
M  V30 5479 C 517.072 3.40147 -0.781073 0
M  V30 5480 C 518.42 4.17299 -0.78402 0
M  V30 5481 O 519.444 3.48762 -0.724112 0
M  V30 5482 O 518.303 5.39631 -0.863739 0
M  V30 5483 H 515.397 0.821469 -0.0954827 0
M  V30 5484 H 517.943 1.42897 -0.915348 0
M  V30 5485 H 516.715 3.46225 -1.82329 0
M  V30 5486 H 516.338 3.97166 -0.18567 0
M  V30 5487 N 517.335 0.585699 1.46312 0
M  V30 5488 C 518.265 -0.133556 2.33118 0
M  V30 5489 C 519.246 -0.880707 1.45525 0
M  V30 5490 O 520.431 -0.855579 1.74337 0
M  V30 5491 C 517.561 -1.14585 3.27853 0
M  V30 5492 C 516.515 -0.513341 4.2491 0
M  V30 5493 C 515.841 -1.63231 5.09175 0
M  V30 5494 C 517.141 0.551413 5.19381 0
M  V30 5495 H 518.835 0.59121 2.93505 0
M  V30 5496 H 516.381 0.285761 1.41136 0
M  V30 5497 H 518.334 -1.65741 3.87438 0
M  V30 5498 H 517.058 -1.90093 2.65579 0
M  V30 5499 H 515.717 -0.0228349 3.66593 0
M  V30 5500 H 515.365 -2.37713 4.43285 0
M  V30 5501 H 515.065 -1.21473 5.74907 0
M  V30 5502 H 516.589 -2.14658 5.71624 0
M  V30 5503 H 518.003 0.124804 5.73164 0
M  V30 5504 H 516.4 0.889486 5.93471 0
M  V30 5505 H 517.47 1.43655 4.63132 0
M  V30 5506 N 518.813 -1.54241 0.323641 0
M  V30 5507 C 519.776 -2.22997 -0.529602 0
M  V30 5508 C 520.776 -1.22345 -1.04347 0
M  V30 5509 O 521.966 -1.46924 -0.935889 0
M  V30 5510 C 519.098 -2.93409 -1.73562 0
M  V30 5511 H 520.291 -2.99815 0.0714518 0
M  V30 5512 H 517.844 -1.56121 0.0747258 0
M  V30 5513 H 518.579 -2.20729 -2.37591 0
M  V30 5514 H 518.364 -3.67217 -1.37456 0
M  V30 5515 H 519.854 -3.45794 -2.34128 0
M  V30 5516 N 520.291 -0.0518155 -1.57515 0
M  V30 5517 C 521.254 0.907547 -2.10467 0
M  V30 5518 C 522.254 1.23947 -1.02439 0
M  V30 5519 O 523.444 1.17604 -1.2851 0
M  V30 5520 C 520.576 2.21723 -2.58944 0
M  V30 5521 H 521.769 0.44851 -2.96527 0
M  V30 5522 H 519.322 0.196598 -1.55059 0
M  V30 5523 H 520.057 2.72206 -1.76279 0
M  V30 5524 H 519.842 1.98935 -3.37886 0
M  V30 5525 H 521.332 2.90441 -3.00056 0
M  V30 5526 N 521.769 1.56035 0.221574 0
M  V30 5527 C 523.185 1.49026 0.571271 0
M  V30 5528 C 523.385 0.746912 1.87146 0
M  V30 5529 O 522.441 0.286566 2.50869 0
M  V30 5530 C 523.754 2.93579 0.650522 0
M  V30 5531 C 525.302 3.04099 0.741151 0
M  V30 5532 C 525.777 4.5001 0.851747 0
M  V30 5533 N 527.268 4.54053 0.915968 0
M  V30 5534 C 528.003 5.64232 1.02125 0
M  V30 5535 N 527.499 6.84164 1.09049 0
M  V30 5536 N 529.292 5.52084 1.05639 0
M  V30 5537 H 521.443 2.02791 -0.63162 0
M  V30 5538 H 523.706 0.921736 -0.221602 0
M  V30 5539 H 523.412 3.50912 -0.235253 0
M  V30 5540 H 523.286 3.45476 1.51413 0
M  V30 5541 H 525.673 2.4683 1.61737 0
M  V30 5542 H 525.754 2.55371 -0.148128 0
M  V30 5543 H 525.398 5.07896 -0.0200117 0
M  V30 5544 H 525.328 4.96444 1.75644 0
M  V30 5545 H 527.819 3.67683 0.872782 0
M  V30 5546 H 528.132 7.63883 1.1706 0
M  V30 5547 H 526.477 6.86875 1.05962 0
M  V30 5548 H 529.668 4.57317 0.998953 0
M  V30 5549 H 529.841 6.37983 1.13498 0
M  V30 5550 N 523.247 -0.488276 1.49845 0
M  V30 5551 C 524.195 -1.60917 1.67954 0
M  V30 5552 C 525.189 -1.6038 0.54539 0
M  V30 5553 O 526.395 -1.64736 0.7254 0
M  V30 5554 H 522.77 -0.533658 0.529824 0
M  V30 5555 H 524.741 -1.428 2.62013 0
M  V30 5556 C 523.49 -2.98975 1.77509 0
M  V30 5557 H 522.813 -3.00099 2.6416 0
M  V30 5558 H 524.253 -3.76906 1.9421 0
M  V30 5559 C 522.712 -3.3282 0.522745 0
M  V30 5560 O 523.242 -4.00208 -0.345866 0
M  V30 5561 N 521.448 -2.8808 0.381882 0
M  V30 5562 H 520.995 -2.33415 1.08974 0
M  V30 5563 H 520.953 -3.11091 -0.454929 0
M  V30 5564 N 524.725 -1.39134 -0.740242 0
M  V30 5565 C 525.971 -1.36273 -1.50192 0
M  V30 5566 C 526.304 0.0430136 -1.94152 0
M  V30 5567 O 525.579 1.00691 -1.66408 0
M  V30 5568 C 525.862 -2.33041 -2.74525 0
M  V30 5569 C 525.715 -3.82535 -2.36617 0
M  V30 5570 C 527.034 -2.27723 -3.76604 0
M  V30 5571 H 524.153 -0.496323 -0.544823 0
M  V30 5572 H 526.795 -1.70085 -0.846815 0
M  V30 5573 H 524.945 -2.04337 -3.30422 0
M  V30 5574 H 526.617 -4.21967 -1.86391 0
M  V30 5575 H 524.86 -3.99565 -1.68909 0
M  V30 5576 H 525.531 -4.45723 -3.2563 0
M  V30 5577 H 528.007 -2.53091 -3.30279 0
M  V30 5578 H 526.883 -2.97519 -4.61274 0
M  V30 5579 H 527.144 -1.28049 -4.2315 0
M  V30 5580 N 526.204 0.969867 -1.24223 0
M  V30 5581 C 527.134 2.08191 -1.05729 0
M  V30 5582 C 528.115 1.70075 0.0290765 0
M  V30 5583 O 529.3 1.93712 -0.137583 0
M  V30 5584 C 526.43 3.40991 -0.658995 0
M  V30 5585 C 525.384 3.93054 -1.69389 0
M  V30 5586 C 524.71 5.22171 -1.15072 0
M  V30 5587 C 526.01 4.21137 -3.08935 0
M  V30 5588 H 527.704 2.23921 -1.98746 0
M  V30 5589 H 525.25 1.07602 -0.956967 0
M  V30 5590 H 527.203 4.18221 -0.51662 0
M  V30 5591 H 525.927 3.25155 0.30686 0
M  V30 5592 H 524.586 3.17977 -1.82444 0
M  V30 5593 H 524.234 5.02694 -0.175539 0
M  V30 5594 H 523.934 5.57973 -1.84229 0
M  V30 5595 H 525.458 6.02013 -1.02042 0
M  V30 5596 H 526.872 4.8908 -2.99121 0
M  V30 5597 H 525.269 4.68163 -3.75425 0
M  V30 5598 H 526.339 3.27996 -3.57137 0
M  V30 5599 N 527.682 1.05563 1.17022 0
M  V30 5600 C 528.928 0.769074 1.87652 0
M  V30 5601 C 529.261 -0.702326 1.81055 0
M  V30 5602 O 528.536 -1.5139 1.22112 0
M  V30 5603 C 528.819 1.25492 3.37526 0
M  V30 5604 C 528.672 2.78953 3.52853 0
M  V30 5605 C 529.991 0.856919 4.31677 0
M  V30 5606 H 527.11 0.280854 0.681388 0
M  V30 5607 H 529.752 1.31027 1.37593 0
M  V30 5608 H 527.902 0.794516 3.80289 0
M  V30 5609 H 529.574 3.33146 3.19079 0
M  V30 5610 H 527.817 3.18046 2.95007 0
M  V30 5611 H 528.488 3.08011 4.58076 0
M  V30 5612 H 530.964 1.25334 3.96775 0
M  V30 5613 H 529.84 1.22443 5.35069 0
M  V30 5614 H 530.101 -0.238787 4.41455 0
M  V30 5615 N 529.16 -1.33526 0.837174 0
M  V30 5616 C 530.437 -1.92369 0.354065 0
M  V30 5617 C 530.817 -1.76348 -1.16038 0
M  V30 5618 O 530.165 -1.15083 -1.97403 0
M  V30 5619 C 530.375 -3.39728 0.799101 0
M  V30 5620 C 531.723 -4.16877 0.806139 0
M  V30 5621 O 532.747 -3.48373 0.742597 0
M  V30 5622 O 531.606 -5.39166 0.892345 0
M  V30 5623 H 528.7 -0.820952 0.0998378 0
M  V30 5624 H 531.246 -1.42409 0.922913 0
M  V30 5625 H 530.018 -3.45254 1.84162 0
M  V30 5626 H 529.641 -3.97062 0.206731 0
M  V30 5627 N 530.638 -0.59345 -1.46 0
M  V30 5628 C 531.915 -0.0157933 -1.95594 0
M  V30 5629 C 532.295 1.44807 -1.53604 0
M  V30 5630 O 531.643 2.14342 -0.791824 0
M  V30 5631 C 531.853 -0.199081 -3.48432 0
M  V30 5632 C 533.201 -0.0724943 -4.24538 0
M  V30 5633 O 534.225 -0.128469 -3.55968 0
M  V30 5634 O 533.084 0.0542426 -5.46473 0
M  V30 5635 H 530.178 0.043749 -0.825842 0
M  V30 5636 H 532.724 -0.662522 -1.56233 0
M  V30 5637 H 531.496 -1.21631 -3.71916 0
M  V30 5638 H 531.119 0.483576 -3.94648 0
M  V30 5639 N 532.116 1.54067 -0.331816 0
M  V30 5640 C 533.364 2.00319 0.267739 0
M  V30 5641 C 533.685 1.22148 1.52003 0
M  V30 5642 O 532.955 0.325494 1.93177 0
M  V30 5643 H 531.535 0.740014 0.101922 0
M  V30 5644 H 534.197 1.89628 -0.450267 0
M  V30 5645 H 533.293 3.07765 0.518385 0
M  V30 5646 N 533.594 0.0601682 1.57485 0
M  V30 5647 C 534.524 -0.90889 2.15085 0
M  V30 5648 C 535.505 -1.31838 1.07484 0
M  V30 5649 O 536.69 -1.3915 1.35466 0
M  V30 5650 C 533.82 -2.18059 2.7031 0
M  V30 5651 C 532.774 -1.91088 3.82974 0
M  V30 5652 C 532.1 -3.24789 4.24754 0
M  V30 5653 C 533.4 -1.22535 5.07723 0
M  V30 5654 H 535.094 -0.429093 2.96309 0
M  V30 5655 H 532.64 -0.204952 1.42534 0
M  V30 5656 H 534.593 -2.86258 3.09248 0
M  V30 5657 H 533.317 -2.6826 1.8629 0
M  V30 5658 H 531.976 -1.25297 3.44523 0
M  V30 5659 H 531.624 -3.72809 3.37672 0
M  V30 5660 H 531.324 -3.07538 5.00694 0
M  V30 5661 H 532.848 -3.94205 4.66299 0
M  V30 5662 H 534.262 -1.80783 5.4405 0
M  V30 5663 H 532.659 -1.1558 5.88864 0
M  V30 5664 H 533.729 -0.202692 4.84476 0
M  V30 5665 N 535.072 -1.5615 -0.213296 0
M  V30 5666 C 536.035 -1.92249 -1.24792 0
M  V30 5667 C 537.035 -0.801828 -1.39382 0
M  V30 5668 O 538.225 -1.06948 -1.37506 0
M  V30 5669 C 535.357 -2.18056 -2.62039 0
M  V30 5670 H 536.55 -2.84793 -0.939845 0
M  V30 5671 H 534.103 -1.49559 -0.454062 0
M  V30 5672 H 534.838 -1.2809 -2.97932 0
M  V30 5673 H 534.623 -2.99703 -2.52825 0
M  V30 5674 H 536.113 -2.47051 -3.36683 0
M  V30 5675 N 536.55 0.480323 -1.50102 0
M  V30 5676 C 537.79 1.24301 -1.62261 0
M  V30 5677 C 538.154 1.89452 -0.311758 0
M  V30 5678 O 539.355 2.67022 -0.308696 0
M  V30 5679 C 537.626 2.26588 -2.76392 0
M  V30 5680 S 539.185 3.11919 -3.08629 0
M  V30 5681 H 536.003 0.42215 -0.57211 0
M  V30 5682 H 538.605 0.541591 -1.87848 0
M  V30 5683 H 537.309 1.7729 -3.70131 0
M  V30 5684 H 536.84 3.01371 -2.52862 0
M  V30 5685 H 538.855 4.27598 -2.51742 0
M  V30 5686 N 538.028 1.39524 0.732853 0
M  V30 5687 C 538.975 1.38416 1.84688 0
M  V30 5688 C 539.945 0.243539 1.64305 0
M  V30 5689 O 541.13 0.438979 1.85681 0
M  V30 5690 C 538.27 1.23555 3.22224 0
M  V30 5691 C 537.383 2.47179 3.54298 0
M  V30 5692 C 536.518 2.2489 4.81246 0
M  V30 5693 C 535.557 3.44178 5.0617 0
M  V30 5694 N 534.694 3.21192 6.24323 0
M  V30 5695 H 539.534 2.33645 1.84971 0
M  V30 5696 H 537.071 1.16059 0.903804 0
M  V30 5697 H 539.029 1.12949 4.0162 0
M  V30 5698 H 537.659 0.31954 3.21215 0
M  V30 5699 H 536.711 2.68379 2.69587 0
M  V30 5700 H 538.023 3.36022 3.68633 0
M  V30 5701 H 537.177 2.11538 5.68627 0
M  V30 5702 H 535.916 1.33443 4.69089 0
M  V30 5703 H 534.921 3.58025 4.17251 0
M  V30 5704 H 536.146 4.36528 5.20212 0
M  V30 5705 H 534.092 2.32413 6.1345 0
M  V30 5706 H 534.009 4.03594 6.39256 0
M  V30 5707 H 535.277 3.1154 7.14537 0
M  V30 5708 N 539.506 -0.963266 1.24736 0
M  V30 5709 C 540.752 -1.70933 1.09131 0
M  V30 5710 C 541.085 -1.90676 -0.368273 0
M  V30 5711 O 540.36 -1.47147 -1.27193 0
M  V30 5712 C 540.643 -3.09744 1.83658 0
M  V30 5713 C 540.496 -2.97465 3.37394 0
M  V30 5714 C 541.815 -4.09483 1.61282 0
M  V30 5715 H 538.934 -0.620398 0.397838 0
M  V30 5716 H 541.576 -1.12028 1.53459 0
M  V30 5717 H 539.726 -3.60031 1.4598 0
M  V30 5718 H 541.398 -2.54571 3.84696 0
M  V30 5719 H 539.641 -2.33576 3.65547 0
M  V30 5720 H 540.312 -3.95822 3.84745 0
M  V30 5721 H 542.788 -3.68073 1.94066 0
M  V30 5722 H 541.664 -5.04666 2.15878 0
M  V30 5723 H 541.925 -4.38639 0.552102 0
M  V30 5724 N 540.985 -1.06182 -1.16461 0
M  V30 5725 C 541.948 -0.675723 -2.19013 0
M  V30 5726 C 542.948 0.277963 -1.58379 0
M  V30 5727 O 544.138 0.0604962 -1.74095 0
M  V30 5728 C 541.27 0.00591459 -3.40899 0
M  V30 5729 H 542.463 -1.58353 -2.54685 0
M  V30 5730 H 540.016 -0.856908 -1.30716 0
M  V30 5731 H 540.751 0.92652 -3.10783 0
M  V30 5732 H 540.536 -0.67984 -3.86161 0
M  V30 5733 H 542.026 0.26181 -4.16778 0
M  V30 5734 N 542.463 1.3308 -0.844243 0
M  V30 5735 C 543.74 1.92178 -0.364261 0
M  V30 5736 C 544.12 1.76961 1.15101 0
M  V30 5737 O 543.468 1.16128 1.9679 0
M  V30 5738 C 543.678 3.393 -0.817106 0
M  V30 5739 C 545.026 4.16444 -0.828236 0
M  V30 5740 O 546.05 3.47975 -0.761062 0
M  V30 5741 O 544.909 5.38685 -0.920926 0
M  V30 5742 H 542.003 0.820411 -0.10419 0
M  V30 5743 H 544.549 1.41918 -0.930453 0
M  V30 5744 H 543.321 3.44272 -1.85991 0
M  V30 5745 H 542.944 3.96947 -0.227785 0
M  V30 5746 N 543.941 0.601185 1.45683 0
M  V30 5747 C 545.188 0.0938811 2.02282 0
M  V30 5748 C 545.516 -1.27315 1.47041 0
M  V30 5749 O 544.771 -1.85193 0.632623 0
M  V30 5750 C 545.07 -0.00222425 3.574 0
M  V30 5751 C 544.736 1.29963 4.31764 0
M  V30 5752 C 543.398 1.65625 4.51798 0
M  V30 5753 C 545.75 2.1603 4.74321 0
M  V30 5754 C 543.078 2.87119 5.11644 0
M  V30 5755 C 545.43 3.36766 5.3551 0
M  V30 5756 C 544.094 3.72689 5.53768 0
M  V30 5757 H 543.364 0.0343535 0.740203 0
M  V30 5758 H 546.011 0.781522 1.74827 0
M  V30 5759 H 544.316 -0.773096 3.84097 0
M  V30 5760 H 546.013 -0.410794 3.9889 0
M  V30 5761 H 542.603 1.01204 4.1648 0
M  V30 5762 H 546.787 1.89778 4.58582 0
M  V30 5763 H 542.043 3.15065 5.2397 0
M  V30 5764 H 546.217 4.03713 5.67441 0
M  V30 5765 H 543.844 4.66918 5.99909 0
M  V30 5766 N 545.419 -1.53889 0.339982 0
M  V30 5767 C 546.667 -2.00458 -0.257112 0
M  V30 5768 C 546.988 -1.22953 -1.51353 0
M  V30 5769 O 546.258 -0.335734 -1.93002 0
M  V30 5770 H 544.838 -0.740544 -0.0979965 0
M  V30 5771 H 547.5 -1.89386 0.460317 0
M  V30 5772 H 546.596 -3.08035 -0.502057 0
M  V30 5773 N 546.897 -0.0685191 -1.57451 0
M  V30 5774 C 547.827 0.89747 -2.15564 0
M  V30 5775 C 548.808 1.31266 -1.08181 0
M  V30 5776 O 549.993 1.38429 -1.36202 0
M  V30 5777 C 547.123 2.16623 -2.71463 0
M  V30 5778 C 546.077 1.89054 -3.83982 0
M  V30 5779 C 545.403 3.22532 -4.26471 0
M  V30 5780 C 546.703 1.1984 -5.08366 0
M  V30 5781 H 548.397 0.413373 -2.96533 0
M  V30 5782 H 545.943 0.197391 -1.42641 0
M  V30 5783 H 547.896 2.84614 -3.10761 0
M  V30 5784 H 546.62 2.67269 -1.8771 0
M  V30 5785 H 545.279 1.23469 -3.45183 0
M  V30 5786 H 544.927 3.71013 -3.39644 0
M  V30 5787 H 544.627 3.04879 -5.02317 0
M  V30 5788 H 546.151 3.91727 -4.68383 0
M  V30 5789 H 547.565 1.77896 -5.45001 0
M  V30 5790 H 545.962 1.12456 -5.89469 0
M  V30 5791 H 547.032 0.176996 -4.84577 0
M  V30 5792 N 548.375 1.56261 0.205012 0
M  V30 5793 C 549.338 1.92908 1.23771 0
M  V30 5794 C 550.338 0.809208 1.38955 0
M  V30 5795 O 551.528 1.07676 1.36936 0
M  V30 5796 C 548.66 2.19442 2.60879 0
M  V30 5797 H 549.853 2.85287 0.924728 0
M  V30 5798 H 547.406 1.49798 0.446125 0
M  V30 5799 H 548.141 1.29668 2.97248 0
M  V30 5800 H 547.926 3.0104 2.51232 0
M  V30 5801 H 549.416 2.48833 3.35368 0
M  V30 5802 N 549.853 -0.472356 1.50355 0
M  V30 5803 C 551.269 -0.806001 1.37753 0
M  V30 5804 C 551.469 -1.968 0.432649 0
M  V30 5805 O 550.525 -2.52189 -0.12519 0
M  V30 5806 C 551.838 -1.11926 2.79093 0
M  V30 5807 C 553.386 -1.22579 2.87999 0
M  V30 5808 C 553.861 -1.57218 4.3017 0
M  V30 5809 N 555.352 -1.64212 4.33115 0
M  V30 5810 C 556.087 -1.92517 5.40116 0
M  V30 5811 N 555.583 -2.1885 6.57325 0
M  V30 5812 N 557.376 -1.94008 5.27558 0
M  V30 5813 H 549.527 0.293451 2.10363 0
M  V30 5814 H 551.79 0.0687672 0.945503 0
M  V30 5815 H 551.496 -0.338504 3.50067 0
M  V30 5816 H 551.37 -2.05577 3.16256 0
M  V30 5817 H 553.757 -1.99722 2.17245 0
M  V30 5818 H 553.838 -0.269107 2.54381 0
M  V30 5819 H 553.482 -0.806154 5.01461 0
M  V30 5820 H 553.412 -2.54034 4.61275 0
M  V30 5821 H 555.903 -1.45906 3.48597 0
M  V30 5822 H 556.216 -2.39718 7.3468 0
M  V30 5823 H 554.561 -2.16245 6.60502 0
M  V30 5824 H 557.752 -1.72931 4.34986 0
M  V30 5825 H 557.925 -2.15731 6.11035 0
M  V30 5826 N 551.331 -1.39911 -0.725443 0
M  V30 5827 C 552.261 -1.42138 -1.85254 0
M  V30 5828 C 553.242 -0.283513 -1.67721 0
M  V30 5829 O 554.427 -0.490717 -1.87898 0
M  V30 5830 C 551.557 -1.27354 -3.23107 0
M  V30 5831 C 550.511 -2.3864 -3.55296 0
M  V30 5832 C 549.837 -2.08939 -4.92188 0
M  V30 5833 C 551.137 -3.8097 -3.57295 0
M  V30 5834 H 552.831 -2.36461 -1.83648 0
M  V30 5835 H 550.377 -1.13817 -0.882138 0
M  V30 5836 H 552.33 -1.2753 -4.01639 0
M  V30 5837 H 551.054 -0.295025 -3.25265 0
M  V30 5838 H 549.713 -2.37696 -2.79099 0
M  V30 5839 H 549.361 -1.09502 -4.90936 0
M  V30 5840 H 549.061 -2.83491 -5.14691 0
M  V30 5841 H 550.585 -2.10781 -5.73065 0
M  V30 5842 H 551.999 -3.8379 -4.25885 0
M  V30 5843 H 550.396 -4.5496 -3.9132 0
M  V30 5844 H 551.466 -4.11261 -2.5689 0
M  V30 5845 N 552.809 0.956637 -1.25245 0
M  V30 5846 C 553.739 2.07058 -1.07931 0
M  V30 5847 C 554.72 1.70096 0.0110361 0
M  V30 5848 O 555.905 1.93555 -0.158121 0
M  V30 5849 C 553.035 3.40272 -0.695124 0
M  V30 5850 C 551.989 3.91235 -1.73549 0
M  V30 5851 C 551.315 5.20921 -1.20604 0
M  V30 5852 C 552.615 4.17837 -3.13385 0
M  V30 5853 H 554.309 2.218 -2.01109 0
M  V30 5854 H 551.855 1.06581 -0.968326 0
M  V30 5855 H 553.808 4.1765 -0.560949 0
M  V30 5856 H 552.532 3.25462 0.272355 0
M  V30 5857 H 551.191 3.16025 -1.85807 0
M  V30 5858 H 550.839 5.02479 -0.228846 0
M  V30 5859 H 550.539 5.55987 -1.90136 0
M  V30 5860 H 552.063 6.00897 -1.08421 0
M  V30 5861 H 553.477 4.8588 -3.04292 0
M  V30 5862 H 551.874 4.64154 -3.80369 0
M  V30 5863 H 552.944 3.2419 -3.60595 0
M  V30 5864 N 554.287 1.06798 1.15896 0
M  V30 5865 C 555.234 0.683314 2.20453 0
M  V30 5866 C 556.204 -0.32255 1.62938 0
M  V30 5867 O 557.389 -0.210276 1.89638 0
M  V30 5868 C 554.529 0.0813266 3.45004 0
M  V30 5869 C 553.642 1.13799 4.16742 0
M  V30 5870 C 552.777 0.501598 5.28826 0
M  V30 5871 C 551.816 1.54144 5.92373 0
M  V30 5872 N 550.953 0.928038 6.9594 0
M  V30 5873 H 555.793 1.57932 2.52708 0
M  V30 5874 H 553.33 0.789544 1.24115 0
M  V30 5875 H 555.288 -0.285274 4.16224 0
M  V30 5876 H 553.918 -0.77806 3.13283 0
M  V30 5877 H 552.97 1.62223 3.44075 0
M  V30 5878 H 554.282 1.92664 4.60089 0
M  V30 5879 H 553.436 0.0823162 6.06644 0
M  V30 5880 H 552.175 -0.318883 4.86656 0
M  V30 5881 H 551.18 1.97056 5.13273 0
M  V30 5882 H 552.405 2.3641 6.36621 0
M  V30 5883 H 550.351 0.12836 6.55874 0
M  V30 5884 H 550.268 1.65401 7.37685 0
M  V30 5885 H 551.536 0.534071 7.77668 0
M  V30 5886 N 555.766 -1.3263 0.851289 0
M  V30 5887 C 557.043 -1.91982 0.374448 0
M  V30 5888 C 557.423 -1.77568 -1.14161 0
M  V30 5889 O 556.771 -1.1717 -1.96172 0
M  V30 5890 C 556.981 -3.38862 0.835088 0
M  V30 5891 C 558.329 -4.15999 0.850309 0
M  V30 5892 O 559.353 -3.47566 0.779505 0
M  V30 5893 O 558.212 -5.38189 0.949481 0
M  V30 5894 H 555.306 -0.819846 0.10854 0
M  V30 5895 H 557.852 -1.41422 0.937966 0
M  V30 5896 H 556.624 -3.43281 1.87814 0
M  V30 5897 H 556.247 -3.96821 0.248833 0
M  V30 5898 N 557.244 -0.608902 -1.45362 0
M  V30 5899 C 558.521 -0.0365378 -1.95566 0
M  V30 5900 C 558.901 1.43169 -1.55131 0
M  V30 5901 O 558.249 2.1349 -0.814513 0
M  V30 5902 C 558.459 -0.236026 -3.48201 0
M  V30 5903 C 559.807 -0.117518 -4.24437 0
M  V30 5904 O 560.831 -0.166217 -3.55812 0
M  V30 5905 O 559.69 -0.00372127 -5.465 0
M  V30 5906 H 556.784 0.0349874 -0.82626 0
M  V30 5907 H 559.33 -0.679055 -1.55521 0
M  V30 5908 H 558.102 -1.25569 -3.70605 0
M  V30 5909 H 557.725 0.441691 -3.95139 0
M  V30 5910 N 558.722 1.53707 -0.348139 0
M  V30 5911 C 559.971 2.0017 0.247992 0
M  V30 5912 C 560.284 1.23983 1.51286 0
M  V30 5913 O 561.49 1.60946 2.18652 0
M  V30 5914 C 559.946 3.56515 0.492459 0
M  V30 5915 C 559.554 4.41562 -0.756777 0
M  V30 5916 C 561.298 4.11381 1.0472 0
M  V30 5917 C 559.205 5.89426 -0.482856 0
M  V30 5918 H 558.135 0.747806 0.0964452 0
M  V30 5919 H 560.786 1.77532 -0.464179 0
M  V30 5920 H 559.168 3.75236 1.26545 0
M  V30 5921 H 560.342 4.34615 -1.53122 0
M  V30 5922 H 558.657 3.97711 -1.23348 0
M  V30 5923 H 561.254 5.19468 1.26717 0
M  V30 5924 H 561.597 3.64885 2.00411 0
M  V30 5925 H 562.13 3.96389 0.334801 0
M  V30 5926 H 558.869 6.40164 -1.40962 0
M  V30 5927 H 558.389 5.99264 0.253416 0
M  V30 5928 H 560.068 6.4692 -0.101816 0
M  V30 5929 N 560.2 0.0768682 1.57412 0
M  V30 5930 C 561.43 -0.5991 1.97723 0
M  V30 5931 C 561.838 -1.63378 0.954166 0
M  V30 5932 O 561.181 -1.83578 -0.0668706 0
M  V30 5933 C 561.243 -1.32078 3.34358 0
M  V30 5934 C 560.907 -0.438985 4.54887 0
M  V30 5935 C 561.904 0.305492 5.19002 0
M  V30 5936 C 559.589 -0.362378 5.00991 0
M  V30 5937 C 561.583 1.11475 6.27576 0
M  V30 5938 C 559.27 0.450543 6.09437 0
M  V30 5939 C 560.268 1.18777 6.72593 0
M  V30 5940 O 559.956 1.98727 7.7895 0
M  V30 5941 H 559.688 -0.166725 0.655117 0
M  V30 5942 H 562.242 0.147337 2.04871 0
M  V30 5943 H 560.472 -2.1134 3.2384 0
M  V30 5944 H 562.161 -1.88949 3.5924 0
M  V30 5945 H 562.927 0.25593 4.84324 0
M  V30 5946 H 558.806 -0.925832 4.51608 0
M  V30 5947 H 562.35 1.69068 6.76803 0
M  V30 5948 H 558.247 0.501651 6.43548 0
M  V30 5949 H 559.015 1.91214 7.95851 0
M  V30 5950 N 561.678 -1.56367 -0.196722 0
M  V30 5951 C 562.903 -1.84991 -0.937714 0
M  V30 5952 C 563.328 -0.660244 -1.76132 0
M  V30 5953 O 562.686 0.390967 -1.77034 0
M  V30 5954 C 562.734 -3.11828 -1.81096 0
M  V30 5955 O 561.838 -2.92266 -2.90955 0
M  V30 5956 H 561.179 -0.609193 -0.264159 0
M  V30 5957 H 563.709 -2.03595 -0.202529 0
M  V30 5958 H 563.719 -3.42579 -2.21594 0
M  V30 5959 H 562.394 -3.98037 -1.2058 0
M  V30 5960 H 560.971 -2.72809 -2.54224 0
M  V30 5961 N 563.156 0.464375 -1.50603 0
M  V30 5962 C 564.567 1.04507 -1.5471 0
M  V30 5963 C 564.918 1.9297 -0.354542 0
M  V30 5964 O 564.043 2.09763 0.531812 0
M  V30 5965 C 564.638 1.90207 -2.80369 0
M  V30 5966 C 563.197 2.43373 -2.87135 0
M  V30 5967 C 562.344 1.21886 -2.49076 0
M  V30 5968 H 565.295 0.246716 -1.56771 0
M  V30 5969 H 565.316 2.75353 -2.62604 0
M  V30 5970 H 564.828 1.25796 -3.67147 0
M  V30 5971 H 562.929 3.11318 -2.04724 0
M  V30 5972 H 563.042 2.7802 -3.90181 0
M  V30 5973 H 561.406 1.55575 -2.01664 0
M  V30 5974 H 562.189 0.591268 -3.3817 0
M  V30 5975 N 564.634 1.40294 0.718013 0
M  V30 5976 C 565.859 1.41941 1.5122 0
M  V30 5977 C 566.284 0.0202371 1.88089 0
M  V30 5978 O 565.642 -0.971078 1.53101 0
M  V30 5979 C 565.69 2.3141 2.76554 0
M  V30 5980 O 564.794 1.75567 3.73162 0
M  V30 5981 H 564.135 0.482644 0.456016 0
M  V30 5982 H 566.665 1.84494 0.884478 0
M  V30 5983 H 566.675 2.46513 3.25108 0
M  V30 5984 H 565.35 3.33085 2.49053 0
M  V30 5985 H 563.927 1.69798 3.31999 0
M  V30 5986 N 566.112 -0.949982 1.2575 0
M  V30 5987 C 567.337 -1.73503 1.13628 0
M  V30 5988 C 567.762 -1.85601 -0.30559 0
M  V30 5989 O 567.12 -1.33984 -1.22139 0
M  V30 5990 C 567.168 -3.1243 1.80055 0
M  V30 5991 O 566.272 -3.97916 1.08336 0
M  V30 5992 H 565.613 -0.532665 0.396439 0
M  V30 5993 H 568.143 -1.19043 1.66403 0
M  V30 5994 H 568.153 -3.62866 1.86527 0
M  V30 5995 H 566.828 -3.02941 2.84956 0
M  V30 5996 H 565.405 -3.56375 1.09777 0
M  V30 5997 N 567.59 -1.07411 -1.15328 0
M  V30 5998 C 568.815 -0.818856 -1.90551 0
M  V30 5999 C 569.24 0.622194 -1.77512 0
M  V30 6000 O 568.598 1.43484 -1.10824 0
M  V30 6001 C 568.646 -1.23267 -3.38877 0
M  V30 6002 O 567.75 -0.378345 -4.10661 0
M  V30 6003 H 567.091 -0.29827 -0.593238 0
M  V30 6004 H 569.621 -1.43289 -1.46046 0
M  V30 6005 H 569.631 -1.20912 -3.89672 0
M  V30 6006 H 568.306 -2.28226 -3.47686 0
M  V30 6007 H 566.883 -0.464437 -3.69996 0
M  V30 6008 N 569.068 1.32177 -0.85831 0
M  V30 6009 C 570.293 2.01847 -0.476718 0
M  V30 6010 C 570.718 1.64065 0.920021 0
M  V30 6011 O 570.076 0.843189 1.60499 0
M  V30 6012 C 570.124 3.55097 -0.627578 0
M  V30 6013 O 569.228 4.11012 0.338086 0
M  V30 6014 H 568.569 0.635907 -0.191099 0
M  V30 6015 H 571.099 1.68641 -1.15851 0
M  V30 6016 H 571.109 4.04718 -0.516476 0
M  V30 6017 H 569.784 3.81938 -1.64609 0
M  V30 6018 H 568.361 3.72451 0.182917 0
M  V30 6019 N 570.547 0.616602 1.45037 0
M  V30 6020 C 571.494 -0.0969439 2.30596 0
M  V30 6021 C 572.464 -0.851151 1.42635 0
M  V30 6022 O 573.649 -0.835092 1.71554 0
M  V30 6023 C 570.789 -1.08234 3.27688 0
M  V30 6024 C 569.902 -0.328072 4.30752 0
M  V30 6025 C 569.037 -1.30399 5.14946 0
M  V30 6026 C 568.076 -0.538049 6.09731 0
M  V30 6027 N 567.213 -1.46371 6.86673 0
M  V30 6028 H 572.053 0.63864 2.91076 0
M  V30 6029 H 569.59 0.326733 1.43425 0
M  V30 6030 H 571.548 -1.66688 3.82454 0
M  V30 6031 H 570.178 -1.78523 2.68941 0
M  V30 6032 H 569.23 0.372136 3.78575 0
M  V30 6033 H 570.542 0.269142 4.98073 0
M  V30 6034 H 569.696 -1.96032 5.74157 0
M  V30 6035 H 568.435 -1.93514 4.47665 0
M  V30 6036 H 567.44 0.131852 5.49642 0
M  V30 6037 H 568.665 0.0881732 6.79043 0
M  V30 6038 H 566.611 -2.08233 6.22073 0
M  V30 6039 H 566.528 -0.920152 7.50379 0
M  V30 6040 H 567.796 -2.10932 7.50418 0
M  V30 6041 N 572.025 -1.5352 0.356285 0
M  V30 6042 C 573.274 -2.00298 -0.237373 0
M  V30 6043 C 573.587 -1.24784 -1.50627 0
M  V30 6044 O 574.793 -1.62103 -2.17795 0
M  V30 6045 C 573.249 -3.56771 -0.473545 0
M  V30 6046 C 572.857 -4.41154 0.780183 0
M  V30 6047 C 574.601 -4.1193 -1.02537 0
M  V30 6048 C 572.508 -5.89161 0.514108 0
M  V30 6049 H 571.438 -0.748307 -0.092478 0
M  V30 6050 H 574.089 -1.77283 0.473588 0
M  V30 6051 H 572.471 -3.75902 -1.24553 0
M  V30 6052 H 573.645 -4.33797 1.55425 0
M  V30 6053 H 571.96 -3.97052 1.25455 0
M  V30 6054 H 574.557 -5.20133 -1.2396 0
M  V30 6055 H 574.9 -3.65943 -1.98473 0
M  V30 6056 H 575.433 -3.96561 -0.313775 0
M  V30 6057 H 572.172 -6.39408 1.44355 0
M  V30 6058 H 571.692 -5.9939 -0.221632 0
M  V30 6059 H 573.371 -6.46857 0.136122 0
M  V30 6060 N 573.503 -0.0852151 -1.57369 0
M  V30 6061 C 574.914 0.445428 -1.81309 0
M  V30 6062 C 575.265 1.68795 -1.00013 0
M  V30 6063 O 574.39 2.15211 -0.226573 0
M  V30 6064 C 574.985 0.814887 -3.28854 0
M  V30 6065 C 573.544 1.29032 -3.53592 0
M  V30 6066 C 572.691 0.282089 -2.75861 0
M  V30 6067 H 575.642 -0.310771 -1.55627 0
M  V30 6068 H 575.663 1.67524 -3.41637 0
M  V30 6069 H 575.175 -0.0896309 -3.87996 0
M  V30 6070 H 573.276 2.21289 -2.9977 0
M  V30 6071 H 573.389 1.25898 -4.62262 0
M  V30 6072 H 571.753 0.762182 -2.43029 0
M  V30 6073 H 572.536 -0.614936 -3.37748 0
M  V30 6074 N 574.981 1.5647 0.188427 0
M  V30 6075 C 576.227 1.81281 0.909124 0
M  V30 6076 C 576.56 0.66034 1.82628 0
M  V30 6077 O 575.835 -0.338737 1.91528 0
M  V30 6078 C 576.118 3.16388 1.7196 0
M  V30 6079 C 575.971 4.42137 0.826714 0
M  V30 6080 C 577.29 3.48256 2.69083 0
M  V30 6081 H 574.409 0.659457 0.329068 0
M  V30 6082 H 577.051 1.89182 0.176156 0
M  V30 6083 H 575.201 3.09784 2.34448 0
M  V30 6084 H 576.873 4.60794 0.216025 0
M  V30 6085 H 575.116 4.33594 0.133792 0
M  V30 6086 H 575.787 5.33184 1.42893 0
M  V30 6087 H 578.263 3.55203 2.16726 0
M  V30 6088 H 577.139 4.43899 3.2287 0
M  V30 6089 H 577.4 2.72088 3.48455 0
M  V30 6090 N 576.459 -0.456382 1.50847 0
M  V30 6091 C 577.406 -1.55249 1.70782 0
M  V30 6092 C 578.376 -1.56757 0.549231 0
M  V30 6093 O 579.561 -1.74061 0.7815 0
M  V30 6094 C 576.701 -2.93118 1.82143 0
M  V30 6095 C 575.814 -3.01285 3.09598 0
M  V30 6096 C 574.949 -4.30159 3.11667 0
M  V30 6097 C 573.988 -4.32124 4.33515 0
M  V30 6098 N 573.125 -5.52492 4.3324 0
M  V30 6099 H 577.965 -1.37555 2.64353 0
M  V30 6100 H 575.502 -0.668543 1.3103 0
M  V30 6101 H 577.46 -3.73088 1.86711 0
M  V30 6102 H 576.09 -3.09413 0.919978 0
M  V30 6103 H 575.142 -2.14096 3.14431 0
M  V30 6104 H 576.454 -2.98597 3.99551 0
M  V30 6105 H 575.608 -5.18489 3.15046 0
M  V30 6106 H 574.347 -4.35477 2.1957 0
M  V30 6107 H 573.352 -3.42189 4.30333 0
M  V30 6108 H 574.577 -4.28485 5.26856 0
M  V30 6109 H 572.523 -5.58567 3.44004 0
M  V30 6110 H 572.44 -5.51605 5.16979 0
M  V30 6111 H 573.708 -6.42906 4.40786 0
M  V30 6112 N 577.937 -1.40673 -0.710563 0
M  V30 6113 C 579.183 -1.4043 -1.47142 0
M  V30 6114 C 579.538 -0.00781557 -1.92398 0
M  V30 6115 O 578.831 0.963535 -1.6561 0
M  V30 6116 C 579.025 -2.33253 -2.70791 0
M  V30 6117 C 578.854 -3.81789 -2.37629 0
M  V30 6118 C 577.624 -4.5057 -2.28724 0
M  V30 6119 C 579.822 -4.73152 -2.01572 0
M  V30 6120 N 577.804 -5.84312 -1.88289 0
M  V30 6121 C 579.175 -5.95728 -1.71778 0
M  V30 6122 C 581.23 -4.6094 -1.88252 0
M  V30 6123 C 579.933 -7.07454 -1.30003 0
M  V30 6124 C 581.959 -5.72613 -1.47881 0
M  V30 6125 C 581.321 -6.94278 -1.18987 0
M  V30 6126 H 577.42 -0.569115 -0.536314 0
M  V30 6127 H 580.004 -1.76425 -0.823547 0
M  V30 6128 H 578.175 -1.99378 -3.33321 0
M  V30 6129 H 579.907 -2.23833 -3.37166 0
M  V30 6130 H 576.662 -4.04315 -2.46629 0
M  V30 6131 H 577.086 -6.55153 -1.70596 0
M  V30 6132 H 581.728 -3.67389 -2.09249 0
M  V30 6133 H 579.446 -8.00884 -1.07749 0
M  V30 6134 H 583.032 -5.65161 -1.38145 0
M  V30 6135 H 581.912 -7.79222 -0.88219 0
M  V30 6136 N 579.415 0.9433 -1.26252 0
M  V30 6137 C 580.643 1.72367 -1.14443 0
M  V30 6138 C 581.058 1.86392 0.300572 0
M  V30 6139 O 580.415 1.36978 1.20596 0
M  V30 6140 C 580.466 3.13155 -1.806 0
M  V30 6141 O 580.187 2.99803 -3.19452 0
M  V30 6142 C 581.688 4.07417 -1.74717 0
M  V30 6143 H 578.908 0.539758 -0.398626 0
M  V30 6144 H 581.452 1.18268 -1.66832 0
M  V30 6145 H 579.607 3.64162 -1.32154 0
M  V30 6146 H 580.021 3.88697 -3.52158 0
M  V30 6147 H 581.495 5.03773 -2.25647 0
M  V30 6148 H 581.972 4.3337 -0.713244 0
M  V30 6149 H 582.578 3.6233 -2.22704 0
M  V30 6150 N 580.893 1.08022 1.14757 0
M  V30 6151 C 581.856 0.71048 2.1791 0
M  V30 6152 C 582.856 -0.252731 1.58801 0
M  V30 6153 O 584.046 -0.0327915 1.74169 0
M  V30 6154 C 581.178 0.0483203 3.40866 0
M  V30 6155 H 582.371 1.62384 2.52134 0
M  V30 6156 H 579.924 0.877595 1.29337 0
M  V30 6157 H 580.659 -0.876959 3.12218 0
M  V30 6158 H 580.444 0.741189 3.85031 0
M  V30 6159 H 581.934 -0.195471 4.17142 0
M  V30 6160 N 582.371 -1.3172 0.865308 0
M  V30 6161 C 583.782 -1.79104 0.527126 0
M  V30 6162 C 584.133 -1.7135 -0.955695 0
M  V30 6163 O 583.258 -1.27845 -1.74598 0
M  V30 6164 C 583.853 -3.25207 0.950061 0
M  V30 6165 C 582.412 -3.70504 0.663611 0
M  V30 6166 C 581.559 -2.52605 1.14395 0
M  V30 6167 H 584.51 -1.18868 1.05148 0
M  V30 6168 H 584.531 -3.79535 0.270805 0
M  V30 6169 H 584.043 -3.30818 2.02931 0
M  V30 6170 H 582.144 -3.70398 -0.404474 0
M  V30 6171 H 582.257 -4.62845 1.23737 0
M  V30 6172 H 580.621 -2.4838 0.563859 0
M  V30 6173 H 581.404 -2.60964 2.23053 0
M  V30 6174 N 583.85 -0.624285 -1.44708 0
M  V30 6175 C 584.76 0.0861083 -2.34442 0
M  V30 6176 C 585.776 0.84291 -1.5222 0
M  V30 6177 O 586.952 0.796723 -1.84971 0
M  V30 6178 C 584.017 1.05999 -3.30099 0
M  V30 6179 C 583.077 0.303316 -4.28227 0
M  V30 6180 C 582.311 1.23081 -5.19314 0
M  V30 6181 O 582.534 2.46929 -5.14181 0
M  V30 6182 O 581.468 0.71883 -5.97592 0
M  V30 6183 H 585.293 -0.651756 -2.96624 0
M  V30 6184 H 582.879 -0.384493 -1.44368 0
M  V30 6185 H 584.76 1.62046 -3.88997 0
M  V30 6186 H 583.436 1.77859 -2.70459 0
M  V30 6187 H 582.343 -0.300033 -3.72895 0
M  V30 6188 H 583.676 -0.375123 -4.90768 0
M  V30 6189 N 585.328 1.53329 -0.364422 0
M  V30 6190 C 586.291 2.24323 0.470292 0
M  V30 6191 C 587.291 1.25068 1.01067 0
M  V30 6192 O 588.481 1.49354 0.896605 0
M  V30 6193 C 585.613 2.97908 1.65722 0
M  V30 6194 H 586.806 2.9952 -0.150917 0
M  V30 6195 H 584.359 1.55868 -0.116092 0
M  V30 6196 H 585.094 2.2695 2.31655 0
M  V30 6197 H 584.879 3.70732 1.27671 0
M  V30 6198 H 586.369 3.5188 2.24878 0
M  V30 6199 N 586.806 0.0935595 1.57322 0
M  V30 6200 C 587.769 -0.851426 2.12799 0
M  V30 6201 C 588.769 -1.21187 1.0569 0
M  V30 6202 O 589.959 -1.14156 1.31583 0
M  V30 6203 C 587.091 -2.14779 2.64731 0
M  V30 6204 H 588.284 -0.369733 2.97612 0
M  V30 6205 H 585.837 -0.155417 1.55525 0
M  V30 6206 H 586.572 -2.67437 1.83434 0
M  V30 6207 H 586.357 -1.89907 3.43042 0
M  V30 6208 H 587.847 -2.82383 3.07651 0
M  V30 6209 N 588.284 -1.56567 -0.180126 0
M  V30 6210 C 589.232 -1.96632 -1.24251 0
M  V30 6211 C 590.226 -0.853818 -1.46309 0
M  V30 6212 O 591.432 -1.0389 -1.46993 0
M  V30 6213 H 587.807 -0.625476 -0.417473 0
M  V30 6214 H 589.778 -2.85201 -0.877679 0
M  V30 6215 C 588.527 -2.33486 -2.57642 0
M  V30 6216 H 587.85 -3.18626 -2.4149 0
M  V30 6217 H 589.29 -2.65371 -3.30688 0
M  V30 6218 C 587.749 -1.17499 -3.15746 0
M  V30 6219 O 588.279 -0.457956 -3.99081 0
M  V30 6220 N 586.485 -0.94786 -2.74707 0
M  V30 6221 H 586.032 -1.53269 -2.07042 0
M  V30 6222 H 585.99 -0.173626 -3.1392 0
M  V30 6223 N 589.762 0.448376 -1.51087 0
M  V30 6224 C 590.992 1.21965 -1.66757 0
M  V30 6225 C 591.4 1.85748 -0.359753 0
M  V30 6226 O 590.743 1.71022 0.670604 0
M  V30 6227 C 590.805 2.35284 -2.71812 0
M  V30 6228 C 590.469 1.91957 -4.1473 0
M  V30 6229 C 591.466 1.42921 -4.9987 0
M  V30 6230 C 589.151 1.99985 -4.60772 0
M  V30 6231 C 591.145 1.02485 -6.29107 0
M  V30 6232 C 588.832 1.5916 -5.90009 0
M  V30 6233 C 589.83 1.10491 -6.74004 0
M  V30 6234 O 589.518 0.702413 -8.00825 0
M  V30 6235 H 589.25 0.374125 -0.563034 0
M  V30 6236 H 591.804 0.538927 -1.98204 0
M  V30 6237 H 590.034 3.06599 -2.35657 0
M  V30 6238 H 591.723 2.97184 -2.76472 0
M  V30 6239 H 592.489 1.36123 -4.65506 0
M  V30 6240 H 588.368 2.36814 -3.95525 0
M  V30 6241 H 591.912 0.644271 -6.94619 0
M  V30 6242 H 587.809 1.65626 -6.2389 0
M  V30 6243 H 588.577 0.829248 -8.14288 0
M  V30 6244 N 591.24 1.41047 0.703093 0
M  V30 6245 C 592.656 1.23351 1.01275 0
M  V30 6246 C 592.856 0.11754 2.01157 0
M  V30 6247 O 591.912 -0.520518 2.47077 0
M  V30 6248 C 593.225 2.58001 1.54454 0
M  V30 6249 C 594.773 2.65119 1.66376 0
M  V30 6250 C 595.248 4.00067 2.22958 0
M  V30 6251 N 596.739 4.01875 2.30328 0
M  V30 6252 C 597.474 5.03087 2.75119 0
M  V30 6253 N 596.97 6.14692 3.19571 0
M  V30 6254 N 598.763 4.90451 2.74616 0
M  V30 6255 H 590.914 2.1236 0.0412686 0
M  V30 6256 H 593.177 0.944543 0.08089 0
M  V30 6257 H 592.883 3.40378 0.88521 0
M  V30 6258 H 592.757 2.79962 2.52786 0
M  V30 6259 H 595.144 1.83106 2.31422 0
M  V30 6260 H 595.225 2.46975 0.666089 0
M  V30 6261 H 594.869 4.82526 1.58529 0
M  V30 6262 H 594.799 4.15547 3.23462 0
M  V30 6263 H 597.29 3.21291 1.98949 0
M  V30 6264 H 597.603 6.87799 3.52352 0
M  V30 6265 H 595.948 6.18239 3.17498 0
M  V30 6266 H 599.139 4.0235 2.39233 0
M  V30 6267 H 599.312 5.6947 3.09206 0
M  V30 6268 N 592.718 -0.936591 1.26751 0
M  V30 6269 C 593.964 -1.6858 1.12733 0
M  V30 6270 C 594.297 -1.91414 -0.327745 0
M  V30 6271 O 593.572 -1.49812 -1.24043 0
M  V30 6272 C 593.855 -3.05779 1.90187 0
M  V30 6273 C 593.708 -2.90242 3.43627 0
M  V30 6274 C 595.027 -4.0597 1.69931 0
M  V30 6275 H 592.146 -0.61182 0.410908 0
M  V30 6276 H 594.788 -1.08747 1.55801 0
M  V30 6277 H 592.938 -3.56853 1.53584 0
M  V30 6278 H 594.61 -2.46354 3.9001 0
M  V30 6279 H 592.853 -2.2577 3.70419 0
M  V30 6280 H 593.524 -3.87572 3.93055 0
M  V30 6281 H 596 -3.63874 2.0183 0
M  V30 6282 H 594.876 -4.99974 2.26534 0
M  V30 6283 H 595.137 -4.37369 0.64502 0
M  V30 6284 N 594.196 -1.08629 -1.14182 0
M  V30 6285 C 595.443 -0.817345 -1.85272 0
M  V30 6286 C 595.771 0.656917 -1.83071 0
M  V30 6287 O 595.026 1.49897 -1.25815 0
M  V30 6288 C 595.325 -1.28734 -3.3341 0
M  V30 6289 C 594.991 -2.76981 -3.55798 0
M  V30 6290 C 593.653 -3.17469 -3.61617 0
M  V30 6291 C 596.005 -3.72605 -3.64438 0
M  V30 6292 C 593.333 -4.52371 -3.736 0
M  V30 6293 C 595.685 -5.07286 -3.77947 0
M  V30 6294 C 594.349 -5.47376 -3.82016 0
M  V30 6295 H 593.619 -0.299088 -0.677958 0
M  V30 6296 H 596.266 -1.35962 -1.34857 0
M  V30 6297 H 594.571 -0.664702 -3.8612 0
M  V30 6298 H 596.268 -1.05598 -3.86846 0
M  V30 6299 H 592.858 -2.44644 -3.51919 0
M  V30 6300 H 597.042 -3.42443 -3.5923 0
M  V30 6301 H 592.298 -4.82882 -3.75013 0
M  V30 6302 H 596.472 -5.81243 -3.83575 0
M  V30 6303 H 594.099 -6.51906 -3.91054 0
M  V30 6304 N 595.674 1.31259 -0.872281 0
M  V30 6305 C 596.899 2.0133 -0.498099 0
M  V30 6306 C 597.324 1.65031 0.902568 0
M  V30 6307 O 596.682 0.860164 1.59596 0
M  V30 6308 C 596.73 3.54411 -0.665205 0
M  V30 6309 O 595.834 4.11347 0.294473 0
M  V30 6310 H 595.175 0.633844 -0.197832 0
M  V30 6311 H 597.705 1.67402 -1.17633 0
M  V30 6312 H 597.715 4.04147 -0.559373 0
M  V30 6313 H 596.39 3.80171 -1.68651 0
M  V30 6314 H 594.967 3.72624 0.143403 0
M  V30 6315 N 597.152 0.631951 1.44375 0
M  V30 6316 C 598.084 -0.110911 2.28931 0
M  V30 6317 C 599.097 -0.808086 1.41329 0
M  V30 6318 O 600.286 -0.669396 1.65473 0
M  V30 6319 C 597.386 -1.17928 3.1772 0
M  V30 6320 C 596.559 -0.564458 4.33743 0
M  V30 6321 C 595.618 -1.5269 5.0356 0
M  V30 6322 O 594.644 -1.04372 5.59549 0
M  V30 6323 N 595.846 -2.86123 5.05088 0
M  V30 6324 H 598.611 0.614758 2.93327 0
M  V30 6325 H 596.172 0.473171 1.54831 0
M  V30 6326 H 598.164 -1.82348 3.61291 0
M  V30 6327 H 596.734 -1.80717 2.55069 0
M  V30 6328 H 595.954 0.258373 3.93352 0
M  V30 6329 H 597.242 -0.134355 5.08623 0
M  V30 6330 H 596.64 -3.27959 4.60933 0
M  V30 6331 H 595.197 -3.45901 5.52445 0
M  V30 6332 N 598.631 -1.53133 0.372548 0
M  V30 6333 C 599.578 -2.25951 -0.470631 0
M  V30 6334 C 600.548 -1.26895 -1.07176 0
M  V30 6335 O 601.733 -1.55691 -1.10294 0
M  V30 6336 C 598.873 -3.05726 -1.6008 0
M  V30 6337 C 597.986 -4.19684 -1.02416 0
M  V30 6338 C 597.121 -4.86888 -2.124 0
M  V30 6339 C 596.16 -5.92866 -1.52238 0
M  V30 6340 N 595.297 -6.53732 -2.56084 0
M  V30 6341 H 600.137 -2.97587 0.156816 0
M  V30 6342 H 597.674 -1.4683 0.0891571 0
M  V30 6343 H 599.632 -3.50258 -2.26661 0
M  V30 6344 H 598.262 -2.36331 -2.1988 0
M  V30 6345 H 597.314 -3.79588 -0.248426 0
M  V30 6346 H 598.626 -4.95821 -0.544366 0
M  V30 6347 H 597.78 -5.34638 -2.86787 0
M  V30 6348 H 596.519 -4.10239 -2.63734 0
M  V30 6349 H 595.524 -5.4447 -0.763685 0
M  V30 6350 H 596.749 -6.71439 -1.0172 0
M  V30 6351 H 594.695 -5.79932 -3.06618 0
M  V30 6352 H 594.612 -7.25429 -2.12811 0
M  V30 6353 H 595.88 -7.0613 -3.30152 0
M  V30 6354 N 600.109 -0.101901 -1.5727 0
M  V30 6355 C 601.334 0.571759 -1.99363 0
M  V30 6356 C 601.759 1.60507 -0.980768 0
M  V30 6357 O 601.117 1.81231 0.0498517 0
M  V30 6358 C 601.165 1.18996 -3.404 0
M  V30 6359 O 600.269 2.30572 -3.41922 0
M  V30 6360 H 599.61 0.144449 -0.648098 0
M  V30 6361 H 602.14 -0.185325 -2.03759 0
M  V30 6362 H 602.15 1.52962 -3.78241 0
M  V30 6363 H 600.825 0.432984 -4.1364 0
M  V30 6364 H 599.402 1.98173 -3.15883 0
M  V30 6365 N 601.587 1.56661 0.17182 0
M  V30 6366 C 602.864 1.72838 0.915778 0
M  V30 6367 C 603.244 0.66316 2.00413 0
M  V30 6368 O 602.592 -0.322123 2.26218 0
M  V30 6369 C 602.802 3.16019 1.48097 0
M  V30 6370 C 604.15 3.76962 1.95408 0
M  V30 6371 O 605.174 3.19294 1.57892 0
M  V30 6372 O 604.033 4.78219 2.64516 0
M  V30 6373 H 601.127 0.705797 0.431021 0
M  V30 6374 H 603.673 1.68947 0.159689 0
M  V30 6375 H 602.445 3.85031 0.697618 0
M  V30 6376 H 602.068 3.24234 2.30126 0
M  V30 6377 N 603.065 -0.440357 1.51323 0
M  V30 6378 C 604.311 -1.19181 1.64085 0
M  V30 6379 C 604.644 -1.90936 0.354575 0
M  V30 6380 O 603.919 -1.8347 -0.645675 0
M  V30 6381 C 604.202 -2.2112 2.84215 0
M  V30 6382 C 604.055 -1.53468 4.22809 0
M  V30 6383 C 605.374 -3.22133 2.99864 0
M  V30 6384 H 602.493 -0.431924 0.597169 0
M  V30 6385 H 605.135 -0.481443 1.83799 0
M  V30 6386 H 603.285 -2.81703 2.67537 0
M  V30 6387 H 604.957 -0.962455 4.51148 0
M  V30 6388 H 603.2 -0.837086 4.25647 0
M  V30 6389 H 603.871 -2.27694 5.02852 0
M  V30 6390 H 606.347 -2.71601 3.15233 0
M  V30 6391 H 605.223 -3.90756 3.85488 0
M  V30 6392 H 605.484 -3.88061 2.11804 0
M  V30 6393 N 604.543 -1.41418 -0.695603 0
M  V30 6394 C 605.789 -1.41983 -1.45645 0
M  V30 6395 C 606.144 -0.0282216 -1.92379 0
M  V30 6396 O 605.437 0.945916 -1.66622 0
M  V30 6397 C 605.631 -2.36112 -2.68302 0
M  V30 6398 C 605.46 -3.84288 -2.33566 0
M  V30 6399 C 604.23 -4.52971 -2.23932 0
M  V30 6400 C 606.428 -4.75264 -1.96543 0
M  V30 6401 N 604.41 -5.86276 -1.82081 0
M  V30 6402 C 605.781 -5.97517 -1.6545 0
M  V30 6403 C 607.836 -4.62911 -1.83352 0
M  V30 6404 C 606.539 -7.08793 -1.22492 0
M  V30 6405 C 608.565 -5.74149 -1.41799 0
M  V30 6406 C 607.927 -6.95501 -1.11617 0
M  V30 6407 H 604.026 -0.574771 -0.530247 0
M  V30 6408 H 606.61 -1.77289 -0.804788 0
M  V30 6409 H 604.781 -2.02902 -3.31188 0
M  V30 6410 H 606.513 -2.27397 -3.34773 0
M  V30 6411 H 603.268 -4.06909 -2.42327 0
M  V30 6412 H 603.692 -6.56926 -1.63638 0
M  V30 6413 H 608.334 -3.69588 -2.05341 0
M  V30 6414 H 606.052 -8.01982 -0.992482 0
M  V30 6415 H 609.638 -5.66595 -1.32143 0
M  V30 6416 H 608.518 -7.80114 -0.799493 0
M  V30 6417 N 606.021 0.929856 -1.27246 0
M  V30 6418 C 607.246 1.71674 -1.16374 0
M  V30 6419 C 607.671 1.86064 0.276024 0
M  V30 6420 O 607.029 1.3591 1.19992 0
M  V30 6421 C 607.077 3.09526 -1.85003 0
M  V30 6422 O 606.181 3.96142 -1.14653 0
M  V30 6423 H 605.522 0.52629 -0.404863 0
M  V30 6424 H 608.052 1.16381 -1.68276 0
M  V30 6425 H 608.062 3.59852 -1.92276 0
M  V30 6426 H 606.737 2.98369 -2.89739 0
M  V30 6427 H 605.314 3.54584 -1.15433 0
M  V30 6428 N 607.499 1.09233 1.13605 0
M  V30 6429 C 608.746 0.827159 1.84836 0
M  V30 6430 C 609.074 -0.647199 1.83416 0
M  V30 6431 O 608.329 -1.49228 1.26608 0
M  V30 6432 C 608.628 1.305 3.32723 0
M  V30 6433 C 608.294 2.78864 3.54325 0
M  V30 6434 C 606.956 3.19382 3.59928 0
M  V30 6435 C 609.308 3.74532 3.62457 0
M  V30 6436 C 606.636 4.54346 3.71196 0
M  V30 6437 C 608.988 5.09283 3.75252 0
M  V30 6438 C 607.652 5.49394 3.79108 0
M  V30 6439 H 606.922 0.302679 0.676363 0
M  V30 6440 H 609.569 1.36676 1.34134 0
M  V30 6441 H 607.874 0.68517 3.85762 0
M  V30 6442 H 609.571 1.07648 3.86281 0
M  V30 6443 H 606.161 2.46507 3.50617 0
M  V30 6444 H 610.345 3.44343 3.57409 0
M  V30 6445 H 605.601 4.84864 3.72447 0
M  V30 6446 H 609.775 5.83269 3.80487 0
M  V30 6447 H 607.402 6.5397 3.87591 0
M  V30 6448 N 608.977 -1.30795 0.87923 0
M  V30 6449 C 610.225 -1.95974 0.493809 0
M  V30 6450 C 610.546 -1.69787 -0.959021 0
M  V30 6451 O 609.816 -1.01832 -1.67353 0
M  V30 6452 H 608.396 -0.725083 0.179622 0
M  V30 6453 H 611.058 -1.59432 1.12105 0
M  V30 6454 H 610.154 -3.05058 0.659263 0
M  V30 6455 N 610.455 -0.639598 -1.44038 0
M  V30 6456 C 611.701 -0.147698 -2.02261 0
M  V30 6457 C 612.034 1.23031 -1.50256 0
M  V30 6458 O 611.309 1.81847 -0.690068 0
M  V30 6459 C 611.592 -0.14362 -3.59813 0
M  V30 6460 C 611.445 -1.55458 -4.22082 0
M  V30 6461 C 612.764 0.527317 -4.36929 0
M  V30 6462 H 609.883 -0.0551453 -0.734934 0
M  V30 6463 H 612.525 -0.817688 -1.71505 0
M  V30 6464 H 610.675 0.426898 -3.86147 0
M  V30 6465 H 612.347 -2.17464 -4.06826 0
M  V30 6466 H 610.59 -2.10594 -3.79253 0
M  V30 6467 H 611.261 -1.50369 -5.31124 0
M  V30 6468 H 613.737 0.0420504 -4.16079 0
M  V30 6469 H 612.613 0.499389 -5.46624 0
M  V30 6470 H 612.874 1.59914 -4.12165 0
M  V30 6471 N 611.933 1.52934 -0.380664 0
M  V30 6472 C 612.863 2.29118 0.450268 0
M  V30 6473 C 613.844 1.32153 1.07096 0
M  V30 6474 O 615.029 1.61038 1.08537 0
M  V30 6475 C 612.159 3.09161 1.58231 0
M  V30 6476 C 611.113 4.13938 1.0881 0
M  V30 6477 C 610.439 4.82153 2.31155 0
M  V30 6478 C 611.739 5.22048 0.162146 0
M  V30 6479 H 613.433 2.98826 -0.185361 0
M  V30 6480 H 610.979 1.43715 -0.0905886 0
M  V30 6481 H 612.932 3.61211 2.17036 0
M  V30 6482 H 611.656 2.3717 2.2454 0
M  V30 6483 H 610.315 3.62855 0.522633 0
M  V30 6484 H 609.963 4.06719 2.95953 0
M  V30 6485 H 609.663 5.52966 1.98752 0
M  V30 6486 H 611.187 5.37004 2.90618 0
M  V30 6487 H 612.601 5.6951 0.658126 0
M  V30 6488 H 610.998 6.00057 -0.0717122 0
M  V30 6489 H 612.068 4.78398 -0.791438 0
M  V30 6490 N 613.412 0.11024 1.57214 0
M  V30 6491 C 614.342 -0.840002 2.17867 0
M  V30 6492 C 615.323 -1.28352 1.11624 0
M  V30 6493 O 616.508 -1.3477 1.39824 0
M  V30 6494 C 613.638 -2.09349 2.77111 0
M  V30 6495 C 612.592 -1.78807 3.8886 0
M  V30 6496 C 611.918 -3.11112 4.34872 0
M  V30 6497 C 613.218 -1.0632 5.11364 0
M  V30 6498 H 614.912 -0.334608 2.97524 0
M  V30 6499 H 612.458 -0.159502 1.43114 0
M  V30 6500 H 614.411 -2.76275 3.18198 0
M  V30 6501 H 613.135 -2.62198 1.9473 0
M  V30 6502 H 611.794 -1.14273 3.48335 0
M  V30 6503 H 611.442 -3.61877 3.49362 0
M  V30 6504 H 611.142 -2.91453 5.10224 0
M  V30 6505 H 612.666 -3.79171 4.78604 0
M  V30 6506 H 614.08 -1.63383 5.49526 0
M  V30 6507 H 612.477 -0.967876 5.92243 0
M  V30 6508 H 613.547 -0.0484569 4.84876 0
M  V30 6509 N 614.89 -1.56749 -0.16351 0
M  V30 6510 C 615.84 -1.93424 -1.20712 0
M  V30 6511 C 616.824 -0.803469 -1.39403 0
M  V30 6512 O 618.016 -1.06675 -1.41243 0
M  V30 6513 C 615.145 -2.30431 -2.54473 0
M  V30 6514 C 614.231 -3.5004 -2.39443 0
M  V30 6515 N 614.622 -4.67058 -1.9414 0
M  V30 6516 C 612.92 -3.548 -2.70246 0
M  V30 6517 C 613.621 -5.49184 -1.9176 0
M  V30 6518 N 612.597 -4.9044 -2.34457 0
M  V30 6519 H 616.399 -2.8138 -0.848681 0
M  V30 6520 H 613.913 -1.58089 -0.371717 0
M  V30 6521 H 615.91 -2.54903 -3.29894 0
M  V30 6522 H 614.57 -1.43818 -2.91112 0
M  V30 6523 H 615.581 -4.91128 -1.64357 0
M  V30 6524 H 612.258 -2.78685 -3.10871 0
M  V30 6525 H 613.648 -6.5297 -1.58366 0
M  V30 6526 N 616.368 0.432326 -1.51554 0
M  V30 6527 C 617.278 1.55023 -1.76082 0
M  V30 6528 C 618.294 1.61593 -0.645265 0
M  V30 6529 O 619.47 1.78742 -0.928086 0
M  V30 6530 C 616.535 2.90964 -1.88523 0
M  V30 6531 C 615.596 2.9447 -3.12388 0
M  V30 6532 C 614.829 4.23926 -3.24225 0
M  V30 6533 O 615.052 5.16576 -2.4188 0
M  V30 6534 O 613.986 4.33818 -4.17235 0
M  V30 6535 H 617.812 1.37238 -2.70923 0
M  V30 6536 H 615.397 0.615845 -1.36117 0
M  V30 6537 H 617.279 3.71633 -1.98662 0
M  V30 6538 H 615.954 3.08865 -0.9687 0
M  V30 6539 H 614.861 2.12737 -3.07723 0
M  V30 6540 H 616.194 2.81514 -4.03746 0
M  V30 6541 N 617.846 1.41785 0.688094 0
M  V30 6542 C 619.092 1.41753 1.4503 0
M  V30 6543 C 619.425 0.0290745 1.94178 0
M  V30 6544 O 618.7 -0.944456 1.7003 0
M  V30 6545 C 618.983 2.43069 2.65686 0
M  V30 6546 C 618.836 3.91053 2.22256 0
M  V30 6547 C 620.155 2.41543 3.67893 0
M  V30 6548 H 617.274 0.516202 0.526027 0
M  V30 6549 H 619.916 1.73111 0.783105 0
M  V30 6550 H 618.066 2.1646 3.2261 0
M  V30 6551 H 619.738 4.28594 1.70602 0
M  V30 6552 H 617.981 4.05559 1.53963 0
M  V30 6553 H 618.652 4.57501 3.08863 0
M  V30 6554 H 621.128 2.65175 3.20658 0
M  V30 6555 H 620.004 3.14434 4.49914 0
M  V30 6556 H 620.265 1.43666 4.18106 0
M  V30 6557 N 619.324 -0.923095 1.27737 0
M  V30 6558 C 620.571 -1.67127 1.14345 0
M  V30 6559 C 620.899 -1.92017 -0.30982 0
M  V30 6560 O 620.154 -1.51185 -1.24264 0
M  V30 6561 C 620.453 -3.04125 1.8773 0
M  V30 6562 C 620.119 -2.98929 3.37568 0
M  V30 6563 C 618.781 -2.9722 3.78436 0
M  V30 6564 C 621.133 -2.89875 4.33154 0
M  V30 6565 C 618.461 -2.84244 5.13247 0
M  V30 6566 C 620.813 -2.7844 5.68026 0
M  V30 6567 C 619.477 -2.75083 6.08182 0
M  V30 6568 H 618.747 -0.611562 0.418417 0
M  V30 6569 H 621.394 -1.07618 1.584 0
M  V30 6570 H 619.699 -3.67366 1.36196 0
M  V30 6571 H 621.396 -3.609 1.74792 0
M  V30 6572 H 617.986 -3.0105 3.05069 0
M  V30 6573 H 622.17 -2.9029 4.02548 0
M  V30 6574 H 617.426 -2.80034 5.43499 0
M  V30 6575 H 621.6 -2.70401 6.4176 0
M  V30 6576 H 619.227 -2.64786 7.12596 0
M  V30 6577 N 620.802 -1.09834 -1.13024 0
M  V30 6578 C 622.03 -0.858902 -1.8823 0
M  V30 6579 C 622.445 0.590164 -1.79339 0
M  V30 6580 O 621.802 1.4065 -1.16292 0
M  V30 6581 C 621.853 -1.29066 -3.37675 0
M  V30 6582 O 621.574 -2.6829 -3.46341 0
M  V30 6583 C 623.075 -1.08421 -4.29837 0
M  V30 6584 H 620.295 -0.308713 -0.595766 0
M  V30 6585 H 622.839 -1.4614 -1.4305 0
M  V30 6586 H 620.994 -0.731961 -3.80422 0
M  V30 6587 H 621.408 -2.86598 -4.39274 0
M  V30 6588 H 622.882 -1.43553 -5.33007 0
M  V30 6589 H 623.359 -0.0223315 -4.39194 0
M  V30 6590 H 623.965 -1.62907 -3.92863 0
M  V30 6591 N 622.28 1.30327 -0.886154 0
M  V30 6592 C 623.51 1.99964 -0.519421 0
M  V30 6593 C 623.918 1.66593 0.89686 0
M  V30 6594 O 623.261 0.899886 1.60149 0
M  V30 6595 C 623.323 3.54187 -0.615795 0
M  V30 6596 C 622.987 4.11078 -1.9966 0
M  V30 6597 C 623.984 4.26985 -2.96614 0
M  V30 6598 C 621.669 4.46429 -2.30231 0
M  V30 6599 C 623.663 4.77456 -4.22273 0
M  V30 6600 C 621.35 4.966 -3.56135 0
M  V30 6601 C 622.348 5.12066 -4.5197 0
M  V30 6602 O 622.036 5.61154 -5.7564 0
M  V30 6603 H 621.768 0.645979 -0.199217 0
M  V30 6604 H 624.322 1.67154 -1.19368 0
M  V30 6605 H 622.552 3.86528 0.115448 0
M  V30 6606 H 624.241 4.05065 -0.26017 0
M  V30 6607 H 625.007 3.99975 -2.74308 0
M  V30 6608 H 620.886 4.33658 -1.56404 0
M  V30 6609 H 624.43 4.89444 -4.97082 0
M  V30 6610 H 620.327 5.23045 -3.78277 0
M  V30 6611 H 621.095 5.79494 -5.78039 0
M  V30 6612 N 623.758 0.647228 1.43697 0
M  V30 6613 C 625.006 0.157876 2.01482 0
M  V30 6614 C 625.327 -1.23039 1.51282 0
M  V30 6615 O 624.597 -1.82071 0.722982 0
M  V30 6616 H 623.177 0.0553745 0.744945 0
M  V30 6617 H 625.839 0.83755 1.75986 0
M  V30 6618 H 624.935 0.137895 3.11795 0
M  V30 6619 N 625.236 -1.5273 0.388769 0
M  V30 6620 C 626.168 -2.24081 -0.481704 0
M  V30 6621 C 627.181 -1.26307 -1.02715 0
M  V30 6622 O 628.37 -1.52386 -0.929565 0
M  V30 6623 C 625.47 -2.94315 -1.68024 0
M  V30 6624 C 624.643 -4.18791 -1.26226 0
M  V30 6625 C 623.702 -4.72028 -2.32542 0
M  V30 6626 O 622.728 -5.35129 -1.93972 0
M  V30 6627 N 623.93 -4.51838 -3.64448 0
M  V30 6628 H 626.695 -2.9942 0.129591 0
M  V30 6629 H 624.256 -1.60465 0.2151 0
M  V30 6630 H 626.248 -3.26831 -2.38671 0
M  V30 6631 H 624.818 -2.22287 -2.19789 0
M  V30 6632 H 624.038 -3.92318 -0.384703 0
M  V30 6633 H 625.326 -4.99668 -0.959647 0
M  V30 6634 H 624.724 -4.01468 -3.98547 0
M  V30 6635 H 623.281 -4.88845 -4.31131 0
M  V30 6636 N 626.714 -0.118576 -1.57153 0
M  V30 6637 C 627.954 0.542618 -1.97066 0
M  V30 6638 C 628.318 1.63874 -1.00046 0
M  V30 6639 O 629.519 2.3588 -1.28895 0
M  V30 6640 C 627.79 1.06196 -3.41258 0
M  V30 6641 S 629.349 1.73174 -4.03183 0
M  V30 6642 H 626.167 0.17638 -0.688775 0
M  V30 6643 H 628.769 -0.203556 -1.94437 0
M  V30 6644 H 627.473 0.253016 -4.09619 0
M  V30 6645 H 627.004 1.84342 -3.47536 0
M  V30 6646 H 629.019 3.01749 -3.93906 0
M  V30 6647 N 628.193 1.56834 0.155195 0
M  V30 6648 C 629.604 1.72421 0.716082 0
M  V30 6649 C 629.955 0.731685 1.82046 0
M  V30 6650 O 629.08 -0.103481 2.16152 0
M  V30 6651 C 629.675 3.12629 1.30571 0
M  V30 6652 C 628.234 3.29846 1.81325 0
M  V30 6653 C 627.381 2.68359 0.698494 0
M  V30 6654 H 630.332 1.58544 -0.0703861 0
M  V30 6655 H 630.353 3.12174 2.1755 0
M  V30 6656 H 629.865 3.84844 0.501701 0
M  V30 6657 H 627.966 2.62614 2.64319 0
M  V30 6658 H 628.079 4.37727 1.9476 0
M  V30 6659 H 626.443 2.28604 1.12305 0
M  V30 6660 H 627.226 3.43171 -0.0939366 0
M  V30 6661 N 629.671 -0.424282 1.51781 0
M  V30 6662 C 630.901 -1.19297 1.68677 0
M  V30 6663 C 631.309 -1.85152 0.389258 0
M  V30 6664 O 630.652 -1.72067 -0.643311 0
M  V30 6665 C 630.714 -2.30929 2.75521 0
M  V30 6666 C 630.378 -1.85335 4.17732 0
M  V30 6667 C 631.375 -1.34951 5.0208 0
M  V30 6668 C 629.06 -1.92629 4.63896 0
M  V30 6669 C 631.054 -0.924636 6.30658 0
M  V30 6670 C 628.741 -1.49754 5.92467 0
M  V30 6671 C 629.739 -0.997543 6.75676 0
M  V30 6672 O 629.427 -0.57492 8.01842 0
M  V30 6673 H 629.159 -0.36512 0.568914 0
M  V30 6674 H 631.713 -0.507327 1.99036 0
M  V30 6675 H 629.943 -3.02811 2.40505 0
M  V30 6676 H 631.632 -2.92748 2.81165 0
M  V30 6677 H 632.398 -1.287 4.67612 0
M  V30 6678 H 628.277 -2.30491 3.99243 0
M  V30 6679 H 631.821 -0.533682 6.95556 0
M  V30 6680 H 627.718 -1.55679 6.26446 0
M  V30 6681 H 628.486 -0.699597 8.15505 0
M  V30 6682 N 631.149 -1.42148 -0.680565 0
M  V30 6683 C 632.059 -1.47565 -1.82378 0
M  V30 6684 C 633.075 -0.36489 -1.70131 0
M  V30 6685 O 634.251 -0.614916 -1.91783 0
M  V30 6686 C 631.316 -1.37013 -3.18478 0
M  V30 6687 C 630.377 -2.58532 -3.42724 0
M  V30 6688 C 629.61 -2.48473 -4.72331 0
M  V30 6689 O 629.833 -1.51745 -5.49845 0
M  V30 6690 O 628.767 -3.38503 -4.97694 0
M  V30 6691 H 632.593 -2.44045 -1.80764 0
M  V30 6692 H 630.178 -1.23849 -0.835569 0
M  V30 6693 H 632.06 -1.33468 -3.99705 0
M  V30 6694 H 630.735 -0.436552 -3.20743 0
M  V30 6695 H 629.642 -2.67652 -2.61368 0
M  V30 6696 H 630.975 -3.50769 -3.45286 0
M  V30 6697 N 632.627 0.916307 -1.28225 0
M  V30 6698 C 633.875 1.6619 -1.15002 0
M  V30 6699 C 634.196 1.92642 0.302329 0
M  V30 6700 O 633.466 1.54076 1.20985 0
M  V30 6701 H 632.046 0.615964 -0.422608 0
M  V30 6702 H 634.708 1.09963 -1.60917 0
M  V30 6703 H 633.804 2.62533 -1.68769 0
M  V30 6704 N 634.105 1.10431 1.1244 0
M  V30 6705 C 635.038 0.696987 2.17296 0
M  V30 6706 C 636.016 -0.301673 1.59777 0
M  V30 6707 O 637.2 -0.200583 1.8743 0
M  V30 6708 C 634.327 0.0284094 3.38688 0
M  V30 6709 C 633.373 0.990536 4.14838 0
M  V30 6710 S 634.206 2.50785 4.73146 0
M  V30 6711 C 635.362 1.85198 5.97873 0
M  V30 6712 H 635.595 1.58523 2.51511 0
M  V30 6713 H 633.128 0.921312 1.239 0
M  V30 6714 H 635.086 -0.351009 4.08997 0
M  V30 6715 H 633.747 -0.836629 3.02753 0
M  V30 6716 H 632.94 0.469991 5.01804 0
M  V30 6717 H 632.542 1.31186 3.50237 0
M  V30 6718 H 634.834 1.18217 6.67106 0
M  V30 6719 H 635.777 2.7012 6.54554 0
M  V30 6720 H 636.185 1.31653 5.48933 0
M  V30 6721 N 635.583 -1.29855 0.893053 0
M  V30 6722 C 636.811 -1.99976 0.530788 0
M  V30 6723 C 637.226 -1.66889 -0.882799 0
M  V30 6724 O 636.583 -0.910352 -1.58173 0
M  V30 6725 C 636.634 -3.54547 0.705587 0
M  V30 6726 O 636.355 -3.86458 2.06353 0
M  V30 6727 C 637.856 -4.41937 0.347387 0
M  V30 6728 H 635.076 -0.639129 0.204339 0
M  V30 6729 H 637.62 -1.65549 1.20057 0
M  V30 6730 H 635.775 -3.87311 0.0830685 0
M  V30 6731 H 636.189 -4.81146 2.08803 0
M  V30 6732 H 637.663 -5.4954 0.520557 0
M  V30 6733 H 638.14 -4.33339 -0.715139 0
M  V30 6734 H 638.746 -4.14633 0.946567 0
M  V30 6735 N 637.061 -0.65484 -1.43351 0
M  V30 6736 C 638.009 0.0476784 -2.32551 0
M  V30 6737 C 639.003 0.811403 -1.48703 0
M  V30 6738 O 640.209 0.721621 -1.64902 0
M  V30 6739 H 636.584 0.0342038 -0.751222 0
M  V30 6740 H 638.555 -0.722342 -2.89525 0
M  V30 6741 C 637.304 0.999251 -3.33032 0
M  V30 6742 H 636.627 0.421005 -3.97577 0
M  V30 6743 H 638.067 1.45986 -3.98076 0
M  V30 6744 C 636.526 2.09606 -2.63756 0
M  V30 6745 O 637.056 3.18004 -2.4543 0
M  V30 6746 N 635.262 1.86207 -2.23103 0
M  V30 6747 H 634.809 0.980555 -2.38208 0
M  V30 6748 H 634.767 2.59787 -1.77081 0
M  V30 6749 N 638.539 1.52521 -0.396863 0
M  V30 6750 C 639.489 2.2348 0.451722 0
M  V30 6751 C 640.473 1.2415 1.0235 0
M  V30 6752 O 641.665 1.4945 0.948348 0
M  V30 6753 C 638.794 3.05067 1.57445 0
M  V30 6754 C 637.88 4.11799 1.01404 0
M  V30 6755 N 638.271 5.05482 0.179234 0
M  V30 6756 C 636.569 4.27064 1.28578 0
M  V30 6757 C 637.27 5.81552 -0.131202 0
M  V30 6758 N 636.246 5.41523 0.474735 0
M  V30 6759 H 640.048 2.93269 -0.192534 0
M  V30 6760 H 637.562 1.61081 -0.206591 0
M  V30 6761 H 639.559 3.54446 2.19485 0
M  V30 6762 H 638.219 2.36816 2.22145 0
M  V30 6763 H 639.23 5.17573 -0.18411 0
M  V30 6764 H 635.907 3.70042 1.93327 0
M  V30 6765 H 637.297 6.67023 -0.808061 0
M  V30 6766 N 640.017 0.126909 1.57088 0
M  V30 6767 C 640.927 -0.833867 2.1928 0
M  V30 6768 C 641.943 -1.2868 1.17122 0
M  V30 6769 O 643.119 -1.34815 1.49622 0
M  V30 6770 C 640.184 -2.0632 2.78627 0
M  V30 6771 C 639.245 -1.66143 3.95847 0
M  V30 6772 C 638.478 -2.83217 4.52354 0
M  V30 6773 O 638.701 -3.98868 4.0775 0
M  V30 6774 O 637.635 -2.59846 5.42922 0
M  V30 6775 H 641.461 -0.334564 3.01852 0
M  V30 6776 H 639.046 -0.0991091 1.49071 0
M  V30 6777 H 640.928 -2.78304 3.16425 0
M  V30 6778 H 639.603 -2.55242 1.99082 0
M  V30 6779 H 638.51 -0.912435 3.62802 0
M  V30 6780 H 639.843 -1.21957 4.76852 0
M  V30 6781 N 641.495 -1.56914 -0.146875 0
M  V30 6782 C 642.723 -1.87515 -0.874394 0
M  V30 6783 C 643.138 -0.715116 -1.74733 0
M  V30 6784 O 642.495 0.315113 -1.79759 0
M  V30 6785 C 642.546 -3.17362 -1.731 0
M  V30 6786 O 642.267 -4.28897 -0.893245 0
M  V30 6787 C 643.768 -3.61479 -2.56609 0
M  V30 6788 H 640.988 -0.621546 -0.252827 0
M  V30 6789 H 643.532 -2.04023 -0.139627 0
M  V30 6790 H 641.687 -3.02608 -2.41883 0
M  V30 6791 H 642.101 -5.03146 -1.48137 0
M  V30 6792 H 643.575 -4.5517 -3.12289 0
M  V30 6793 H 644.052 -2.86773 -3.32653 0
M  V30 6794 H 644.658 -3.78927 -1.93117 0
M  V30 6795 N 642.974 0.416227 -1.52004 0
M  V30 6796 C 643.904 1.51365 -1.77795 0
M  V30 6797 C 644.885 1.58059 -0.628601 0
M  V30 6798 O 646.07 1.73447 -0.873478 0
M  V30 6799 C 643.2 2.89256 -1.92219 0
M  V30 6800 C 642.154 2.97415 -3.0778 0
M  V30 6801 C 641.48 4.37492 -3.07417 0
M  V30 6802 C 642.78 2.69551 -4.47369 0
M  V30 6803 H 644.474 1.30033 -2.69688 0
M  V30 6804 H 642.02 0.624112 -1.29772 0
M  V30 6805 H 643.973 3.66008 -2.08845 0
M  V30 6806 H 642.697 3.11866 -0.969917 0
M  V30 6807 H 641.356 2.23107 -2.90893 0
M  V30 6808 H 641.004 4.571 -2.09925 0
M  V30 6809 H 640.704 4.43877 -3.85029 0
M  V30 6810 H 642.228 5.16188 -3.26162 0
M  V30 6811 H 643.642 3.36028 -4.64497 0
M  V30 6812 H 642.039 2.87321 -5.26846 0
M  V30 6813 H 643.109 1.65029 -4.55953 0
M  V30 6814 N 644.452 1.42507 0.673017 0
M  V30 6815 C 645.384 1.42074 1.79854 0
M  V30 6816 C 646.397 0.319569 1.59633 0
M  V30 6817 O 647.586 0.582769 1.68719 0
M  V30 6818 C 644.686 1.19886 3.16987 0
M  V30 6819 C 643.859 2.42471 3.64042 0
M  V30 6820 C 642.918 2.15802 4.79913 0
M  V30 6821 O 641.944 2.89015 4.90366 0
M  V30 6822 N 643.146 1.16225 5.68746 0
M  V30 6823 H 645.911 2.3909 1.8071 0
M  V30 6824 H 643.472 1.37409 0.856171 0
M  V30 6825 H 645.464 0.999591 3.92161 0
M  V30 6826 H 644.034 0.313879 3.1102 0
M  V30 6827 H 643.254 2.77954 2.79526 0
M  V30 6828 H 644.542 3.24097 3.92223 0
M  V30 6829 H 643.94 0.556756 5.62954 0
M  V30 6830 H 642.497 1.02285 6.43724 0
M  V30 6831 N 645.93 -0.909495 1.28709 0
M  V30 6832 C 646.862 -2.01729 1.08804 0
M  V30 6833 C 647.875 -1.62755 0.0384739 0
M  V30 6834 O 649.064 -1.76259 0.281977 0
M  V30 6835 C 646.164 -3.32952 0.63217 0
M  V30 6836 C 645.337 -4.00512 1.75809 0
M  V30 6837 C 644.396 -5.10019 1.29488 0
M  V30 6838 O 643.422 -5.32986 1.99787 0
M  V30 6839 N 644.624 -5.80278 0.1604 0
M  V30 6840 H 647.389 -2.19362 2.04207 0
M  V30 6841 H 644.95 -1.08106 1.20518 0
M  V30 6842 H 646.942 -4.03543 0.305802 0
M  V30 6843 H 645.512 -3.11759 -0.229134 0
M  V30 6844 H 644.732 -3.23413 2.25383 0
M  V30 6845 H 646.02 -4.42395 2.51325 0
M  V30 6846 H 645.418 -5.64094 -0.425937 0
M  V30 6847 H 643.975 -6.51713 -0.106663 0
M  V30 6848 N 647.408 -1.11026 -1.11852 0
M  V30 6849 C 648.657 -0.851249 -1.82857 0
M  V30 6850 C 648.97 0.62514 -1.85341 0
M  V30 6851 O 650.176 1.00026 -2.52403 0
M  V30 6852 C 648.632 -1.47309 -3.28372 0
M  V30 6853 C 648.24 -2.9832 -3.34229 0
M  V30 6854 C 649.984 -1.29373 -4.04306 0
M  V30 6855 C 647.891 -3.53509 -4.74115 0
M  V30 6856 H 646.821 -0.314794 -0.685143 0
M  V30 6857 H 649.472 -1.33499 -1.25898 0
M  V30 6858 H 647.854 -0.917017 -3.85236 0
M  V30 6859 H 649.028 -3.60295 -2.87271 0
M  V30 6860 H 647.343 -3.15482 -2.71772 0
M  V30 6861 H 649.94 -1.68042 -5.07608 0
M  V30 6862 H 650.283 -0.235879 -4.15631 0
M  V30 6863 H 650.816 -1.8182 -3.53817 0
M  V30 6864 H 647.555 -4.58987 -4.67986 0
M  V30 6865 H 647.075 -2.96305 -5.21501 0
M  V30 6866 H 648.754 -3.51693 -5.43066 0
M  V30 6867 N 648.886 1.2938 -0.899927 0
M  V30 6868 C 649.819 2.25911 -0.322386 0
M  V30 6869 C 650.797 1.52447 0.565567 0
M  V30 6870 O 651.981 1.81404 0.512324 0
M  V30 6871 C 649.108 3.3436 0.540455 0
M  V30 6872 C 648.154 4.25579 -0.280211 0
M  V30 6873 S 648.987 5.08526 -1.67814 0
M  V30 6874 C 650.143 6.20476 -0.822224 0
M  V30 6875 H 650.376 2.7455 -1.1406 0
M  V30 6876 H 647.909 1.37606 -0.700285 0
M  V30 6877 H 649.867 3.97303 1.0325 0
M  V30 6878 H 648.528 2.84416 1.33291 0
M  V30 6879 H 647.721 5.02574 0.378915 0
M  V30 6880 H 647.323 3.67287 -0.705405 0
M  V30 6881 H 649.615 6.77485 -0.0457138 0
M  V30 6882 H 650.558 6.90606 -1.56426 0
M  V30 6883 H 650.966 5.63243 -0.37651 0
M  V30 6884 N 650.364 0.662433 1.43002 0
M  V30 6885 C 651.78 0.330835 1.56133 0
M  V30 6886 C 651.98 -1.16454 1.64441 0
M  V30 6887 O 651.036 -1.94964 1.60453 0
M  V30 6888 C 652.349 1.05029 2.81761 0
M  V30 6889 C 653.897 1.03142 2.95518 0
M  V30 6890 C 654.372 1.73196 4.2399 0
M  V30 6891 N 655.863 1.70004 4.30875 0
M  V30 6892 C 656.598 2.21074 5.29069 0
M  V30 6893 N 656.094 2.80473 6.33488 0
M  V30 6894 N 657.887 2.1152 5.20784 0
M  V30 6895 H 650.038 1.63272 1.35853 0
M  V30 6896 H 652.301 0.687149 0.653092 0
M  V30 6897 H 652.007 2.10542 2.81718 0
M  V30 6898 H 651.881 0.607664 3.72273 0
M  V30 6899 H 654.268 -0.0153339 2.95096 0
M  V30 6900 H 654.349 1.51282 2.0627 0
M  V30 6901 H 653.993 2.77833 4.25172 0
M  V30 6902 H 653.923 1.22515 5.1215 0
M  V30 6903 H 656.414 1.26667 3.56039 0
M  V30 6904 H 656.727 3.17094 7.04749 0
M  V30 6905 H 655.072 2.84538 6.34085 0
M  V30 6906 H 658.263 1.64814 4.38126 0
M  V30 6907 H 658.436 2.51629 5.97149 0
M  V30 6908 N 651.842 -1.52309 0.404946 0
M  V30 6909 C 653.09 -2.01368 -0.17186 0
M  V30 6910 C 653.411 -1.29261 -1.46002 0
M  V30 6911 O 652.681 -0.41729 -1.91404 0
M  V30 6912 H 651.261 -0.744034 -0.0664993 0
M  V30 6913 H 653.923 -1.87263 0.540228 0
M  V30 6914 H 653.019 -3.09888 -0.370957 0
M  V30 6915 N 653.32 -0.135238 -1.57019 0
M  V30 6916 C 654.55 0.525303 -1.9981 0
M  V30 6917 C 654.958 1.59724 -1.01415 0
M  V30 6918 O 654.301 1.837 -0.00130938 0
M  V30 6919 C 654.363 1.19578 -3.3903 0
M  V30 6920 C 654.027 0.269855 -4.56203 0
M  V30 6921 C 655.024 -0.497905 -5.1751 0
M  V30 6922 C 652.709 0.176188 -5.01991 0
M  V30 6923 C 654.703 -1.3469 -6.23007 0
M  V30 6924 C 652.39 -0.676422 -6.07345 0
M  V30 6925 C 653.388 -1.43658 -6.67721 0
M  V30 6926 O 653.076 -2.27501 -7.71037 0
M  V30 6927 H 652.808 0.142296 -0.660854 0
M  V30 6928 H 655.362 -0.223272 -2.04183 0
M  V30 6929 H 653.592 1.99176 -3.3146 0
M  V30 6930 H 655.281 1.75486 -3.66005 0
M  V30 6931 H 656.047 -0.435507 -4.83041 0
M  V30 6932 H 651.926 0.757583 -4.54733 0
M  V30 6933 H 655.47 -1.9407 -6.70062 0
M  V30 6934 H 651.367 -0.740154 -6.41243 0
M  V30 6935 H 652.135 -2.20619 -7.88206 0
M  V30 6936 N 654.798 1.5699 0.138552 0
M  V30 6937 C 656.214 1.51844 0.491472 0
M  V30 6938 C 656.414 0.845063 1.82923 0
M  V30 6939 O 655.47 0.419143 2.48997 0
M  V30 6940 C 656.783 2.96615 0.493987 0
M  V30 6941 C 658.331 3.076 0.578913 0
M  V30 6942 C 658.806 4.53893 0.612009 0
M  V30 6943 N 660.297 4.5827 0.673997 0
M  V30 6944 C 661.032 5.68852 0.720729 0
M  V30 6945 N 660.528 6.88982 0.726292 0
M  V30 6946 N 662.321 5.56908 0.762253 0
M  V30 6947 H 654.472 1.99158 -0.738228 0
M  V30 6948 H 656.735 0.908693 -0.270149 0
M  V30 6949 H 656.441 3.49172 -0.420933 0
M  V30 6950 H 656.315 3.53017 1.32887 0
M  V30 6951 H 658.702 2.55057 1.48425 0
M  V30 6952 H 658.783 2.54227 -0.283286 0
M  V30 6953 H 658.427 5.07076 -0.289208 0
M  V30 6954 H 658.357 5.05057 1.49082 0
M  V30 6955 H 660.848 3.71793 0.676654 0
M  V30 6956 H 661.161 7.69014 0.764032 0
M  V30 6957 H 659.506 6.91526 0.69403 0
M  V30 6958 H 662.697 4.61969 0.755135 0
M  V30 6959 H 662.87 6.43102 0.795207 0
M  V30 6960 N 656.276 -0.40816 1.52223 0
M  V30 6961 C 657.206 -1.5042 1.78595 0
M  V30 6962 C 658.187 -1.57723 0.636974 0
M  V30 6963 O 659.372 -1.72982 0.882664 0
M  V30 6964 C 656.502 -2.88232 1.93751 0
M  V30 6965 C 655.456 -2.95779 3.09352 0
M  V30 6966 C 654.782 -4.35855 3.09732 0
M  V30 6967 C 656.082 -2.67175 4.48793 0
M  V30 6968 H 657.776 -1.28601 2.70374 0
M  V30 6969 H 655.322 -0.617221 1.30101 0
M  V30 6970 H 657.275 -3.64895 2.10783 0
M  V30 6971 H 655.999 -3.11347 0.986443 0
M  V30 6972 H 654.658 -2.21561 2.92072 0
M  V30 6973 H 654.306 -4.55981 2.12346 0
M  V30 6974 H 654.006 -4.41829 3.87377 0
M  V30 6975 H 655.53 -5.14451 3.28895 0
M  V30 6976 H 656.944 -3.3356 4.66273 0
M  V30 6977 H 655.341 -2.84523 5.28362 0
M  V30 6978 H 656.411 -1.62609 4.56822 0
M  V30 6979 N 657.755 -1.42862 -0.66545 0
M  V30 6980 C 659.166 -1.3901 -1.24632 0
M  V30 6981 C 659.517 -0.0880285 -1.96002 0
M  V30 6982 O 658.642 0.812947 -2.0055 0
M  V30 6983 C 659.237 -2.51806 -2.2667 0
M  V30 6984 C 657.796 -2.51257 -2.80262 0
M  V30 6985 C 656.943 -2.30124 -1.5472 0
M  V30 6986 H 659.894 -1.5194 -0.458237 0
M  V30 6987 H 659.915 -2.22593 -3.08598 0
M  V30 6988 H 659.427 -3.46558 -1.74697 0
M  V30 6989 H 657.528 -1.60349 -3.36332 0
M  V30 6990 H 657.641 -3.48614 -3.28641 0
M  V30 6991 H 656.005 -1.7856 -1.81627 0
M  V30 6992 H 656.788 -3.26945 -1.04699 0
M  V30 6993 N 659.233 0.902656 -1.29189 0
M  V30 6994 C 660.649 1.18296 -1.07137 0
M  V30 6995 C 660.849 2.00701 0.179223 0
M  V30 6996 O 659.905 2.3675 0.877812 0
M  V30 6997 C 661.218 1.90677 -2.32514 0
M  V30 6998 C 662.766 2.03515 -2.37804 0
M  V30 6999 C 663.241 2.79307 -3.62976 0
M  V30 7000 N 664.732 2.86862 -3.63681 0
M  V30 7001 C 665.467 3.46035 -4.57217 0
M  V30 7002 N 664.963 4.06399 -5.61081 0
M  V30 7003 N 666.756 3.43681 -4.44792 0
M  V30 7004 H 658.907 0.352765 -2.0945 0
M  V30 7005 H 661.17 0.21876 -0.922414 0
M  V30 7006 H 660.876 1.3756 -3.23682 0
M  V30 7007 H 660.75 2.91169 -2.39793 0
M  V30 7008 H 663.137 2.55809 -1.47125 0
M  V30 7009 H 663.218 1.02166 -2.34512 0
M  V30 7010 H 662.862 2.2769 -4.54004 0
M  V30 7011 H 662.792 3.80995 -3.63525 0
M  V30 7012 H 665.283 2.43987 -2.88581 0
M  V30 7013 H 665.596 4.49564 -6.2858 0
M  V30 7014 H 663.941 4.0487 -5.64894 0
M  V30 7015 H 667.132 2.9574 -3.62843 0
M  V30 7016 H 667.305 3.89503 -5.17872 0
M  V30 7017 N 660.711 1.11618 1.11262 0
M  V30 7018 C 662.122 0.881942 1.64556 0
M  V30 7019 C 662.473 -0.585442 1.87262 0
M  V30 7020 O 661.598 -1.44795 1.60821 0
M  V30 7021 C 662.193 1.59446 2.98935 0
M  V30 7022 C 660.752 1.40661 3.4913 0
M  V30 7023 C 659.899 1.63593 2.23903 0
M  V30 7024 H 662.85 1.27217 0.94877 0
M  V30 7025 H 662.871 1.04054 3.65996 0
M  V30 7026 H 662.383 2.66241 2.82378 0
M  V30 7027 H 660.484 0.360835 3.70849 0
M  V30 7028 H 660.597 2.15693 4.27801 0
M  V30 7029 H 658.961 1.05944 2.3162 0
M  V30 7030 H 659.744 2.71666 2.09886 0
M  V30 7031 N 662.189 -1.289 0.906776 0
M  V30 7032 C 663.152 -2.25777 0.394656 0
M  V30 7033 C 664.152 -1.53621 -0.475119 0
M  V30 7034 O 665.342 -1.71949 -0.279165 0
M  V30 7035 C 662.474 -3.38113 -0.43499 0
M  V30 7036 H 663.667 -2.72592 1.25033 0
M  V30 7037 H 661.22 -1.40463 0.685547 0
M  V30 7038 H 661.955 -2.96648 -1.31036 0
M  V30 7039 H 661.74 -3.91647 0.188334 0
M  V30 7040 H 663.23 -4.10168 -0.784365 0
M  V30 7041 N 663.667 -0.670007 -1.42649 0
M  V30 7042 C 664.63 0.00204659 -2.292 0
M  V30 7043 C 665.63 0.733817 -1.4308 0
M  V30 7044 O 666.82 0.57254 -1.64522 0
M  V30 7045 C 663.952 1.01359 -3.25483 0
M  V30 7046 H 665.145 -0.759696 -2.90118 0
M  V30 7047 H 662.698 -0.432105 -1.50208 0
M  V30 7048 H 663.433 1.80399 -2.69493 0
M  V30 7049 H 663.218 0.492323 -3.88997 0
M  V30 7050 H 664.708 1.4824 -3.90403 0
M  V30 7051 N 665.145 1.52092 -0.413018 0
M  V30 7052 C 666.385 2.03765 0.160975 0
M  V30 7053 C 666.749 1.29174 1.4205 0
M  V30 7054 O 667.95 1.71093 2.07318 0
M  V30 7055 C 666.221 3.55167 0.398871 0
M  V30 7056 S 667.78 4.28619 0.939755 0
M  V30 7057 H 664.598 0.709685 0.0432281 0
M  V30 7058 H 667.2 1.87102 -0.566831 0
M  V30 7059 H 665.904 4.07034 -0.524544 0
M  V30 7060 H 665.435 3.7608 1.15444 0
M  V30 7061 H 667.45 4.43773 2.21991 0
M  V30 7062 N 666.623 0.143563 1.56945 0
M  V30 7063 C 668.034 -0.37783 1.82837 0
M  V30 7064 C 668.385 -1.64967 1.06209 0
M  V30 7065 O 667.51 -2.14221 0.306291 0
M  V30 7066 C 668.105 -0.692274 3.31652 0
M  V30 7067 C 666.664 -1.1582 3.58138 0
M  V30 7068 C 665.811 -0.17951 2.76718 0
M  V30 7069 H 668.762 0.368317 1.54367 0
M  V30 7070 H 668.783 -1.54729 3.47619 0
M  V30 7071 H 668.295 0.233572 3.87397 0
M  V30 7072 H 666.396 -2.10011 3.07776 0
M  V30 7073 H 666.509 -1.08655 4.66616 0
M  V30 7074 H 664.873 -0.671458 2.4569 0
M  V30 7075 H 665.656 0.739865 3.35233 0
M  V30 7076 N 668.101 -1.57061 -0.130224 0
M  V30 7077 C 669.064 -1.98593 -1.14426 0
M  V30 7078 C 670.064 -0.874584 -1.34936 0
M  V30 7079 O 671.254 -1.14086 -1.31643 0
M  V30 7080 C 668.386 -2.31639 -2.50112 0
M  V30 7081 H 669.579 -2.89374 -0.787561 0
M  V30 7082 H 667.132 -1.51756 -0.374146 0
M  V30 7083 H 667.867 -1.43703 -2.90723 0
M  V30 7084 H 667.652 -3.12684 -2.36583 0
M  V30 7085 H 669.142 -2.64551 -3.23114 0
M  V30 7086 N 669.579 0.400081 -1.52437 0
M  V30 7087 C 670.489 1.51253 -1.79331 0
M  V30 7088 C 671.505 1.60188 -0.679396 0
M  V30 7089 O 672.681 1.76733 -0.965791 0
M  V30 7090 C 669.746 2.869 -1.94652 0
M  V30 7091 C 668.807 2.87777 -3.18564 0
M  V30 7092 C 668.04 4.16954 -3.33145 0
M  V30 7093 O 668.263 5.11329 -2.52783 0
M  V30 7094 O 667.197 4.2487 -4.26343 0
M  V30 7095 H 671.023 1.31461 -2.73773 0
M  V30 7096 H 668.608 0.586834 -1.37392 0
M  V30 7097 H 670.49 3.67336 -2.065 0
M  V30 7098 H 669.165 3.06741 -1.034 0
M  V30 7099 H 668.072 2.06162 -3.12167 0
M  V30 7100 H 669.405 2.72886 -4.09627 0
M  V30 7101 N 671.057 1.43213 0.657864 0
M  V30 7102 C 672.303 1.44798 1.41991 0
M  V30 7103 C 672.636 0.070256 1.94073 0
M  V30 7104 O 671.911 -0.908177 1.71995 0
M  V30 7105 C 672.194 2.4865 2.60471 0
M  V30 7106 C 672.047 3.95679 2.13911 0
M  V30 7107 C 673.366 2.49292 3.62686 0
M  V30 7108 H 670.485 0.527244 0.514959 0
M  V30 7109 H 673.127 1.74733 0.74621 0
M  V30 7110 H 671.277 2.23254 3.17946 0
M  V30 7111 H 672.949 4.32116 1.61472 0
M  V30 7112 H 671.192 4.08733 1.45325 0
M  V30 7113 H 671.863 4.6395 2.99089 0
M  V30 7114 H 674.339 2.71917 3.14961 0
M  V30 7115 H 673.215 3.23907 4.43143 0
M  V30 7116 H 673.476 1.52502 4.14964 0
M  V30 7117 N 672.536 -0.895792 1.29666 0
M  V30 7118 C 673.766 -1.67757 1.20586 0
M  V30 7119 C 674.174 -1.87729 -0.235432 0
M  V30 7120 O 673.517 -1.41706 -1.16898 0
M  V30 7121 C 673.579 -3.08117 1.85215 0
M  V30 7122 C 673.243 -3.1136 3.3452 0
M  V30 7123 C 674.24 -2.91217 4.30684 0
M  V30 7124 C 671.925 -3.33302 3.75786 0
M  V30 7125 C 673.919 -2.92955 5.66089 0
M  V30 7126 C 671.606 -3.3467 5.11311 0
M  V30 7127 C 672.604 -3.14519 6.06273 0
M  V30 7128 O 672.292 -3.15684 7.39323 0
M  V30 7129 H 672.024 -0.530601 0.418854 0
M  V30 7130 H 674.578 -1.12831 1.71634 0
M  V30 7131 H 672.808 -3.64661 1.28683 0
M  V30 7132 H 674.497 -3.68399 1.70403 0
M  V30 7133 H 675.263 -2.74074 4.00136 0
M  V30 7134 H 671.142 -3.48025 3.02324 0
M  V30 7135 H 674.686 -2.77145 6.40185 0
M  V30 7136 H 670.583 -3.51346 5.41504 0
M  V30 7137 H 671.351 -3.31924 7.48177 0
M  V30 7138 N 674.014 -1.12206 -1.10668 0
M  V30 7139 C 675.26 -0.877172 -1.82848 0
M  V30 7140 C 675.593 0.595571 -1.84842 0
M  V30 7141 O 674.868 1.44013 -1.30731 0
M  V30 7142 C 675.151 -1.44957 -3.29635 0
M  V30 7143 C 675.004 -2.99051 -3.35989 0
M  V30 7144 C 676.323 -1.10714 -4.25946 0
M  V30 7145 H 673.442 -0.320103 -0.663854 0
M  V30 7146 H 676.084 -1.38827 -1.2972 0
M  V30 7147 H 674.234 -1.01488 -3.7501 0
M  V30 7148 H 675.906 -3.51182 -2.99113 0
M  V30 7149 H 674.149 -3.34705 -2.75962 0
M  V30 7150 H 674.82 -3.34194 -4.39339 0
M  V30 7151 H 677.296 -1.48254 -3.88793 0
M  V30 7152 H 676.172 -1.5343 -5.2702 0
M  V30 7153 H 676.433 -0.019 -4.42096 0
M  V30 7154 N 675.492 1.28418 -0.913599 0
M  V30 7155 C 676.422 2.29713 -0.418847 0
M  V30 7156 C 677.403 1.62165 0.513469 0
M  V30 7157 O 678.588 1.89576 0.421235 0
M  V30 7158 C 675.718 3.45612 0.342042 0
M  V30 7159 C 674.672 4.25056 -0.501123 0
M  V30 7160 C 673.998 5.3329 0.388097 0
M  V30 7161 C 675.298 4.91814 -1.75831 0
M  V30 7162 H 676.992 2.71346 -1.26538 0
M  V30 7163 H 674.538 1.30446 -0.609903 0
M  V30 7164 H 676.491 4.15562 0.699 0
M  V30 7165 H 675.215 3.02858 1.22248 0
M  V30 7166 H 673.874 3.56833 -0.840598 0
M  V30 7167 H 673.522 4.8678 1.26707 0
M  V30 7168 H 673.222 5.87347 -0.172459 0
M  V30 7169 H 674.746 6.06088 0.74094 0
M  V30 7170 H 676.16 5.54126 -1.47026 0
M  V30 7171 H 674.557 5.55866 -2.26126 0
M  V30 7172 H 675.627 4.16313 -2.4862 0
M  V30 7173 N 676.97 0.677563 1.42291 0
M  V30 7174 C 677.903 -0.0492638 2.28147 0
M  V30 7175 C 678.881 -0.805936 1.41221 0
M  V30 7176 O 680.065 -0.80049 1.70659 0
M  V30 7177 C 677.192 -1.07697 3.21122 0
M  V30 7178 C 676.238 -0.41556 4.24471 0
M  V30 7179 S 677.071 0.828876 5.29046 0
M  V30 7180 C 678.227 -0.197687 6.25588 0
M  V30 7181 H 678.46 0.678965 2.89443 0
M  V30 7182 H 675.993 0.467201 1.47162 0
M  V30 7183 H 677.951 -1.66482 3.75225 0
M  V30 7184 H 676.612 -1.77766 2.58956 0
M  V30 7185 H 675.805 -1.19112 4.89723 0
M  V30 7186 H 675.407 0.0987632 3.7387 0
M  V30 7187 H 677.699 -1.05656 6.69211 0
M  V30 7188 H 678.642 0.420437 7.06851 0
M  V30 7189 H 679.05 -0.544401 5.61869 0
M  V30 7190 N 678.448 -1.51871 0.421078 0
M  V30 7191 C 679.378 -2.30231 -0.389363 0
M  V30 7192 C 680.359 -1.34946 -1.03555 0
M  V30 7193 O 681.544 -1.63859 -1.04229 0
M  V30 7194 C 678.674 -3.13247 -1.49979 0
M  V30 7195 C 677.628 -4.16677 -0.977966 0
M  V30 7196 C 676.954 -4.88112 -2.1829 0
M  V30 7197 C 678.254 -5.22295 -0.0236775 0
M  V30 7198 H 679.948 -2.98229 0.264524 0
M  V30 7199 H 677.494 -1.43424 0.12866 0
M  V30 7200 H 679.447 -3.66838 -2.07383 0
M  V30 7201 H 678.171 -2.4304 -2.18173 0
M  V30 7202 H 676.83 -3.64114 -0.426245 0
M  V30 7203 H 676.478 -4.14423 -2.85066 0
M  V30 7204 H 676.178 -5.58041 -1.84021 0
M  V30 7205 H 677.702 -5.44521 -2.76278 0
M  V30 7206 H 679.116 -5.71055 -0.506899 0
M  V30 7207 H 677.513 -5.99656 0.230782 0
M  V30 7208 H 678.583 -4.76131 0.917999 0
M  V30 7209 N 679.926 -0.151884 -1.56866 0
M  V30 7210 C 680.836 0.798876 -2.20579 0
M  V30 7211 C 681.852 1.268 -1.19154 0
M  V30 7212 O 683.028 1.32418 -1.51748 0
M  V30 7213 C 680.093 2.01861 -2.81874 0
M  V30 7214 C 679.154 1.59825 -3.9844 0
M  V30 7215 C 678.387 2.75984 -4.56802 0
M  V30 7216 O 678.61 3.92331 -4.14044 0
M  V30 7217 O 677.544 2.51175 -5.46987 0
M  V30 7218 H 681.37 0.2865 -3.02346 0
M  V30 7219 H 678.955 0.0753806 -1.4921 0
M  V30 7220 H 680.837 2.73235 -3.20813 0
M  V30 7221 H 679.512 2.52042 -2.03117 0
M  V30 7222 H 678.419 0.854601 -3.64208 0
M  V30 7223 H 679.752 1.14355 -4.78731 0
M  V30 7224 N 681.404 1.57128 0.121893 0
M  V30 7225 C 682.644 1.86517 0.836113 0
M  V30 7226 C 683.008 0.739497 1.77188 0
M  V30 7227 O 684.209 0.91508 2.52744 0
M  V30 7228 C 682.48 3.21129 1.56878 0
M  V30 7229 S 684.039 3.72143 2.32497 0
M  V30 7230 H 680.857 0.653923 0.279115 0
M  V30 7231 H 683.459 1.95271 0.0946254 0
M  V30 7232 H 682.163 4.01002 0.873255 0
M  V30 7233 H 681.694 3.15446 2.35069 0
M  V30 7234 H 683.709 3.43413 3.58164 0
M  V30 7235 N 682.882 -0.391992 1.52647 0
M  V30 7236 C 684.128 -1.13563 1.68745 0
M  V30 7237 C 684.483 -1.87745 0.420685 0
M  V30 7238 O 683.776 -1.82434 -0.585529 0
M  V30 7239 C 683.97 -2.14401 2.85949 0
M  V30 7240 C 683.799 -1.50124 4.23902 0
M  V30 7241 C 682.569 -1.2666 4.89168 0
M  V30 7242 C 684.767 -0.952933 5.05395 0
M  V30 7243 N 682.749 -0.584555 6.11111 0
M  V30 7244 C 684.12 -0.398784 6.18716 0
M  V30 7245 C 686.175 -0.849053 4.90607 0
M  V30 7246 C 684.878 0.249084 7.18869 0
M  V30 7247 C 686.904 -0.215011 5.91009 0
M  V30 7248 C 686.266 0.328382 7.03634 0
M  V30 7249 H 682.365 -0.401628 0.670984 0
M  V30 7250 H 684.949 -0.425585 1.89992 0
M  V30 7251 H 683.12 -2.82746 2.66288 0
M  V30 7252 H 684.852 -2.8125 2.90999 0
M  V30 7253 H 681.607 -1.54078 4.47836 0
M  V30 7254 H 682.031 -0.259663 6.76502 0
M  V30 7255 H 686.673 -1.25497 4.03745 0
M  V30 7256 H 684.391 0.667019 8.05342 0
M  V30 7257 H 687.977 -0.135921 5.81641 0
M  V30 7258 H 686.857 0.811257 7.79992 0
M  V30 7259 N 684.36 -1.4356 -0.65026 0
M  V30 7260 C 685.776 -1.27025 -0.966269 0
M  V30 7261 C 685.976 -0.192117 -2.00582 0
M  V30 7262 O 685.032 0.428459 -2.48838 0
M  V30 7263 C 686.345 -2.63556 -1.44772 0
M  V30 7264 C 687.893 -2.71111 -1.56421 0
M  V30 7265 C 688.368 -4.08067 -2.07956 0
M  V30 7266 N 689.859 -4.10146 -2.15254 0
M  V30 7267 C 690.594 -5.12952 -2.56258 0
M  V30 7268 N 690.09 -6.26129 -2.96537 0
M  V30 7269 N 691.883 -5.00306 -2.56224 0
M  V30 7270 H 684.034 -2.12367 0.0375758 0
M  V30 7271 H 686.297 -0.946894 -0.0457782 0
M  V30 7272 H 686.003 -3.43429 -0.758271 0
M  V30 7273 H 685.877 -2.89152 -2.42221 0
M  V30 7274 H 688.264 -1.91569 -2.24467 0
M  V30 7275 H 688.345 -2.49277 -0.573967 0
M  V30 7276 H 687.989 -4.88077 -1.40511 0
M  V30 7277 H 687.919 -4.27266 -3.07817 0
M  V30 7278 H 690.41 -3.28453 -1.86887 0
M  V30 7279 H 690.723 -7.00403 -3.26582 0
M  V30 7280 H 689.068 -6.29597 -2.94334 0
M  V30 7281 H 692.259 -4.10952 -2.24135 0
M  V30 7282 H 692.432 -5.80553 -2.87857 0
M  V30 7283 N 685.838 0.888903 -1.30139 0
M  V30 7284 C 687.063 1.67884 -1.21777 0
M  V30 7285 C 687.488 1.86848 0.216689 0
M  V30 7286 O 686.846 1.39659 1.15608 0
M  V30 7287 C 686.894 3.03483 -1.94757 0
M  V30 7288 O 685.998 3.92294 -1.27198 0
M  V30 7289 H 685.339 0.513144 -0.421402 0
M  V30 7290 H 687.869 1.10968 -1.71893 0
M  V30 7291 H 687.879 3.53553 -2.03627 0
M  V30 7292 H 686.554 2.89 -2.99085 0
M  V30 7293 H 685.131 3.50732 -1.26655 0
M  V30 7294 N 687.317 1.12792 1.10072 0
M  V30 7295 C 688.542 0.908838 1.86427 0
M  V30 7296 C 688.967 -0.536793 1.80278 0
M  V30 7297 O 688.325 -1.38033 1.17543 0
M  V30 7298 C 688.373 1.39295 3.3261 0
M  V30 7299 O 687.477 0.573846 4.08388 0
M  V30 7300 H 686.818 0.326234 0.578331 0
M  V30 7301 H 689.348 1.50094 1.39043 0
M  V30 7302 H 689.358 1.39366 3.83459 0
M  V30 7303 H 688.033 2.44555 3.36401 0
M  V30 7304 H 686.61 0.640438 3.67359 0
M  V30 7305 N 688.795 -1.27931 0.920396 0
M  V30 7306 C 690.206 -1.76707 0.602616 0
M  V30 7307 C 690.557 -1.75249 -0.882159 0
M  V30 7308 O 689.682 -1.35135 -1.69019 0
M  V30 7309 C 690.277 -3.20884 1.08714 0
M  V30 7310 C 688.836 -3.67356 0.820157 0
M  V30 7311 C 687.983 -2.47525 1.25006 0
M  V30 7312 H 690.934 -1.14301 1.10095 0
M  V30 7313 H 690.955 -3.78045 0.431535 0
M  V30 7314 H 690.467 -3.21913 2.1678 0
M  V30 7315 H 688.568 -3.7178 -0.247012 0
M  V30 7316 H 688.681 -4.57181 1.43257 0
M  V30 7317 H 687.045 -2.45765 0.668698 0
M  V30 7318 H 687.828 -2.51269 2.3392 0
M  V30 7319 N 690.273 -0.685099 -1.4193 0
M  V30 7320 C 691.183 -0.013404 -2.34596 0
M  V30 7321 C 692.199 0.777589 -1.55658 0
M  V30 7322 O 693.375 0.717553 -1.88184 0
M  V30 7323 C 690.44 0.919031 -3.34297 0
M  V30 7324 C 689.501 0.121417 -4.29128 0
M  V30 7325 C 688.734 1.00944 -5.24067 0
M  V30 7326 O 688.957 2.24898 -5.24192 0
M  V30 7327 O 687.891 0.464724 -6.00103 0
M  V30 7328 H 691.717 -0.776978 -2.93593 0
M  V30 7329 H 689.302 -0.445379 -1.42607 0
M  V30 7330 H 691.184 1.45402 -3.9552 0
M  V30 7331 H 689.859 1.66228 -2.77759 0
M  V30 7332 H 688.766 -0.45792 -3.71287 0
M  V30 7333 H 690.099 -0.582937 -4.88736 0
M  V30 7334 N 691.751 1.51645 -0.429126 0
M  V30 7335 C 692.661 2.31288 0.392809 0
M  V30 7336 C 693.677 1.39852 1.03525 0
M  V30 7337 O 694.853 1.72926 1.03241 0
M  V30 7338 C 691.918 3.13347 1.48372 0
M  V30 7339 C 690.979 4.20551 0.862268 0
M  V30 7340 C 690.212 4.98688 1.9012 0
M  V30 7341 O 690.435 4.77359 3.12225 0
M  V30 7342 O 689.369 5.83005 1.4963 0
M  V30 7343 H 693.195 3.02609 -0.257138 0
M  V30 7344 H 690.78 1.48163 -0.191851 0
M  V30 7345 H 692.662 3.64387 2.1166 0
M  V30 7346 H 691.337 2.44799 2.1179 0
M  V30 7347 H 690.244 3.73609 0.191568 0
M  V30 7348 H 691.577 4.91449 0.271704 0
M  V30 7349 N 693.229 0.160201 1.56784 0
M  V30 7350 C 694.645 -0.196089 1.58391 0
M  V30 7351 C 694.845 -1.63689 1.17508 0
M  V30 7352 O 693.901 -2.36613 0.881506 0
M  V30 7353 C 695.214 0.0746449 3.00607 0
M  V30 7354 C 696.762 0.0119762 3.12998 0
M  V30 7355 C 697.237 0.255551 4.57286 0
M  V30 7356 N 698.728 0.202938 4.62755 0
M  V30 7357 C 699.463 0.365731 5.72232 0
M  V30 7358 N 698.959 0.586972 6.90309 0
M  V30 7359 N 700.752 0.302411 5.61286 0
M  V30 7360 H 692.903 1.1008 1.81648 0
M  V30 7361 H 695.166 0.436779 0.841384 0
M  V30 7362 H 694.872 1.07231 3.34954 0
M  V30 7363 H 694.746 -0.638802 3.71751 0
M  V30 7364 H 697.133 -0.976254 2.78484 0
M  V30 7365 H 697.214 0.75796 2.44313 0
M  V30 7366 H 696.858 1.24094 4.92507 0
M  V30 7367 H 696.788 -0.510912 5.24116 0
M  V30 7368 H 699.279 0.0371328 3.77882 0
M  V30 7369 H 699.592 0.700941 7.69615 0
M  V30 7370 H 697.937 0.623453 6.92198 0
M  V30 7371 H 701.128 0.130238 4.67919 0
M  V30 7372 H 701.301 0.432712 6.46554 0
M  V30 7373 N 694.707 -1.5719 -0.113559 0
M  V30 7374 C 696.118 -1.74259 -0.670116 0
M  V30 7375 C 696.469 -0.779694 -1.80042 0
M  V30 7376 O 695.594 0.0461353 -2.16351 0
M  V30 7377 C 696.189 -3.15981 -1.22236 0
M  V30 7378 C 694.748 -3.34537 -1.72516 0
M  V30 7379 C 693.895 -2.70116 -0.627098 0
M  V30 7380 H 696.846 -1.58301 0.112396 0
M  V30 7381 H 696.867 -3.17832 -2.09197 0
M  V30 7382 H 696.379 -3.86038 -0.39949 0
M  V30 7383 H 694.48 -2.6953 -2.57263 0
M  V30 7384 H 694.593 -4.42737 -1.83086 0
M  V30 7385 H 692.957 -2.31501 -1.06204 0
M  V30 7386 H 693.74 -3.42802 0.184889 0
M  V30 7387 N 696.185 0.383891 -1.52853 0
M  V30 7388 C 697.41 1.154 -1.7233 0
M  V30 7389 C 697.835 1.82809 -0.44298 0
M  V30 7390 O 697.193 1.71026 0.601645 0
M  V30 7391 C 697.241 2.17386 -2.87708 0
M  V30 7392 O 696.345 3.24082 -2.55038 0
M  V30 7393 H 695.686 0.335709 -0.572883 0
M  V30 7394 H 698.216 0.44662 -1.99666 0
M  V30 7395 H 698.226 2.61296 -3.1335 0
M  V30 7396 H 696.901 1.6771 -3.80587 0
M  V30 7397 H 695.478 2.85273 -2.40153 0
M  V30 7398 N 697.663 1.43903 0.642637 0
M  V30 7399 C 698.91 1.46079 1.40239 0
M  V30 7400 C 699.238 0.0890335 1.94296 0
M  V30 7401 O 698.493 -0.907533 1.73385 0
M  V30 7402 C 698.792 2.45907 2.59354 0
M  V30 7403 C 698.458 3.91522 2.23654 0
M  V30 7404 C 697.12 4.31179 2.1363 0
M  V30 7405 C 699.472 4.83242 1.95261 0
M  V30 7406 C 696.8 5.60495 1.73384 0
M  V30 7407 C 699.152 6.12933 1.56511 0
M  V30 7408 C 697.816 6.51556 1.4502 0
M  V30 7409 H 697.086 0.534542 0.513172 0
M  V30 7410 H 699.733 1.77047 0.72984 0
M  V30 7411 H 698.038 2.08381 3.3179 0
M  V30 7412 H 699.735 2.44842 3.17574 0
M  V30 7413 H 696.325 3.60142 2.32369 0
M  V30 7414 H 700.509 4.53367 2.0192 0
M  V30 7415 H 695.765 5.89249 1.63082 0
M  V30 7416 H 699.939 6.83469 1.33576 0
M  V30 7417 H 697.566 7.51663 1.13606 0
M  V30 7418 N 699.141 -0.881989 1.30609 0
M  V30 7419 C 700.104 -1.96957 1.1722 0
M  V30 7420 C 701.104 -1.60472 0.102598 0
M  V30 7421 O 702.294 -1.70628 0.350943 0
M  V30 7422 C 699.426 -3.31463 0.796572 0
M  V30 7423 H 700.619 -2.10262 2.13846 0
M  V30 7424 H 698.172 -1.06877 1.14048 0
M  V30 7425 H 698.907 -3.23859 -0.169053 0
M  V30 7426 H 698.692 -3.59314 1.56959 0
M  V30 7427 H 700.182 -4.11233 0.72645 0
M  V30 7428 N 700.619 -1.13374 -1.09472 0
M  V30 7429 C 701.847 -0.918351 -1.85402 0
M  V30 7430 C 702.262 0.53281 -1.81126 0
M  V30 7431 O 701.619 1.36879 -1.20708 0
M  V30 7432 C 701.67 -1.39743 -3.33398 0
M  V30 7433 O 701.391 -2.79172 -3.37631 0
M  V30 7434 C 702.892 -1.22042 -4.2617 0
M  V30 7435 H 700.112 -0.327511 -0.585643 0
M  V30 7436 H 702.656 -1.50617 -1.38328 0
M  V30 7437 H 700.811 -0.852619 -3.77901 0
M  V30 7438 H 701.225 -3.00428 -4.29934 0
M  V30 7439 H 702.699 -1.60438 -5.2817 0
M  V30 7440 H 703.176 -0.162047 -4.38901 0
M  V30 7441 H 703.782 -1.75323 -3.87482 0
M  V30 7442 N 702.098 1.27442 -0.927168 0
M  V30 7443 C 703.028 2.29256 -0.443188 0
M  V30 7444 C 704.009 1.62701 0.49624 0
M  V30 7445 O 705.194 1.90013 0.401105 0
M  V30 7446 C 702.324 3.45955 0.305366 0
M  V30 7447 C 701.278 4.24501 -0.546178 0
M  V30 7448 C 700.604 5.33671 0.331512 0
M  V30 7449 C 701.904 4.89921 -1.81037 0
M  V30 7450 H 703.598 2.69988 -1.29409 0
M  V30 7451 H 701.144 1.29792 -0.623705 0
M  V30 7452 H 703.097 4.1628 0.654885 0
M  V30 7453 H 701.821 3.04138 1.19029 0
M  V30 7454 H 700.48 3.55921 -0.878398 0
M  V30 7455 H 700.128 4.88096 1.21537 0
M  V30 7456 H 699.828 5.87131 -0.234746 0
M  V30 7457 H 701.352 6.0684 0.676614 0
M  V30 7458 H 702.766 5.52536 -1.52895 0
M  V30 7459 H 701.163 5.53436 -2.32009 0
M  V30 7460 H 702.233 4.13652 -2.53021 0
M  V30 7461 N 703.576 0.692616 1.41565 0
M  V30 7462 C 704.992 0.363878 1.55397 0
M  V30 7463 C 705.192 -1.1294 1.66874 0
M  V30 7464 O 704.248 -1.91517 1.64552 0
M  V30 7465 C 705.561 1.10982 2.7947 0
M  V30 7466 C 707.109 1.09387 2.93263 0
M  V30 7467 C 707.584 1.8215 4.20221 0
M  V30 7468 N 709.075 1.79105 4.27172 0
M  V30 7469 C 709.81 2.32247 5.2426 0
M  V30 7470 N 709.306 2.93847 6.27396 0
M  V30 7471 N 711.099 2.22519 5.1618 0
M  V30 7472 H 703.25 1.66116 1.3236 0
M  V30 7473 H 705.513 0.700848 0.63837 0
M  V30 7474 H 705.219 2.1647 2.77188 0
M  V30 7475 H 705.093 0.686492 3.709 0
M  V30 7476 H 707.48 0.0472638 2.95062 0
M  V30 7477 H 707.561 1.55623 2.03015 0
M  V30 7478 H 707.205 2.86789 4.19183 0
M  V30 7479 H 707.135 1.33351 5.09436 0
M  V30 7480 H 709.626 1.34191 3.53272 0
M  V30 7481 H 709.939 3.31972 6.97864 0
M  V30 7482 H 708.284 2.97924 6.27906 0
M  V30 7483 H 711.475 1.7407 4.34531 0
M  V30 7484 H 711.648 2.64239 5.91677 0
M  V30 7485 N 705.054 -1.51416 0.437162 0
M  V30 7486 C 705.964 -2.31493 -0.380537 0
M  V30 7487 C 706.98 -1.40399 -1.02782 0
M  V30 7488 O 708.156 -1.73471 -1.02323 0
M  V30 7489 C 705.221 -3.1413 -1.46709 0
M  V30 7490 C 704.282 -4.21003 -0.839953 0
M  V30 7491 C 703.515 -4.9969 -1.87473 0
M  V30 7492 O 703.738 -4.79008 -3.09689 0
M  V30 7493 O 702.672 -5.8379 -1.46536 0
M  V30 7494 H 706.498 -3.02469 0.273183 0
M  V30 7495 H 704.083 -1.48059 0.199706 0
M  V30 7496 H 705.965 -3.65505 -2.09724 0
M  V30 7497 H 704.64 -2.45919 -2.10489 0
M  V30 7498 H 703.547 -3.73706 -0.171752 0
M  V30 7499 H 704.88 -4.91587 -0.245638 0
M  V30 7500 N 706.532 -0.168513 -1.56696 0
M  V30 7501 C 707.479 0.762875 -2.17828 0
M  V30 7502 C 708.449 1.22892 -1.11745 0
M  V30 7503 O 709.634 1.29759 -1.39883 0
M  V30 7504 C 706.774 1.9879 -2.82093 0
M  V30 7505 C 705.887 1.56568 -4.02629 0
M  V30 7506 C 705.022 2.74416 -4.54829 0
M  V30 7507 C 704.061 2.28671 -5.67782 0
M  V30 7508 N 703.198 3.39602 -6.14504 0
M  V30 7509 H 708.038 0.23479 -2.97074 0
M  V30 7510 H 705.575 0.104163 -1.46731 0
M  V30 7511 H 707.533 2.70636 -3.17509 0
M  V30 7512 H 706.163 2.48973 -2.05456 0
M  V30 7513 H 705.215 0.744067 -3.73052 0
M  V30 7514 H 706.527 1.18988 -4.844 0
M  V30 7515 H 705.681 3.54423 -4.92412 0
M  V30 7516 H 704.42 3.15254 -3.7211 0
M  V30 7517 H 703.425 1.4711 -5.29753 0
M  V30 7518 H 704.65 1.88894 -6.52301 0
M  V30 7519 H 702.596 3.80021 -5.34715 0
M  V30 7520 H 702.513 3.06105 -6.91257 0
M  V30 7521 H 703.781 4.19902 -6.56737 0
M  V30 7522 N 708.01 1.57248 0.105221 0
M  V30 7523 C 708.94 2.04374 1.12931 0
M  V30 7524 C 709.921 0.93074 1.42377 0
M  V30 7525 O 711.106 1.20136 1.52581 0
M  V30 7526 C 708.236 2.45967 2.45189 0
M  V30 7527 C 707.19 3.60838 2.30174 0
M  V30 7528 C 706.516 3.88374 3.67518 0
M  V30 7529 C 707.816 4.92084 1.75073 0
M  V30 7530 H 709.51 2.9018 0.737287 0
M  V30 7531 H 707.056 1.39601 0.353211 0
M  V30 7532 H 709.009 2.77542 3.17094 0
M  V30 7533 H 707.733 1.57148 2.86308 0
M  V30 7534 H 706.392 3.29493 1.60716 0
M  V30 7535 H 706.04 2.96739 4.06147 0
M  V30 7536 H 705.74 4.65703 3.58321 0
M  V30 7537 H 707.264 4.22415 4.40906 0
M  V30 7538 H 708.678 5.22106 2.36809 0
M  V30 7539 H 707.075 5.73507 1.76662 0
M  V30 7540 H 708.145 4.79684 0.709347 0
M  V30 7541 N 709.488 -0.375779 1.53054 0
M  V30 7542 C 710.438 -1.45965 1.75152 0
M  V30 7543 C 711.422 -1.49059 0.605823 0
M  V30 7544 O 712.614 -1.54472 0.864133 0
M  V30 7545 C 709.743 -2.83524 1.93569 0
M  V30 7546 C 708.829 -2.84949 3.1411 0
M  V30 7547 N 709.22 -2.56029 4.36214 0
M  V30 7548 C 707.518 -3.16113 3.14625 0
M  V30 7549 C 708.219 -2.64873 5.17897 0
M  V30 7550 N 707.195 -2.99159 4.53878 0
M  V30 7551 H 710.997 -1.22454 2.67175 0
M  V30 7552 H 708.511 -0.583867 1.51541 0
M  V30 7553 H 710.508 -3.61578 2.07525 0
M  V30 7554 H 709.168 -3.08008 1.02768 0
M  V30 7555 H 710.179 -2.29808 4.64121 0
M  V30 7556 H 706.856 -3.45977 2.3368 0
M  V30 7557 H 708.246 -2.45947 6.25268 0
M  V30 7558 N 710.966 -1.44241 -0.634997 0
M  V30 7559 C 711.929 -1.50457 -1.72903 0
M  V30 7560 C 712.929 -0.387058 -1.56072 0
M  V30 7561 O 714.119 -0.649531 -1.61638 0
M  V30 7562 C 711.251 -1.37477 -3.1195 0
M  V30 7563 H 712.444 -2.47907 -1.68767 0
M  V30 7564 H 709.997 -1.31276 -0.84831 0
M  V30 7565 H 710.732 -0.41106 -3.21684 0
M  V30 7566 H 710.517 -2.18506 -3.25573 0
M  V30 7567 H 712.007 -1.44799 -3.91692 0
M  V30 7568 N 712.444 0.87505 -1.31075 0
M  V30 7569 C 713.693 1.62245 -1.19831 0
M  V30 7570 C 714.006 1.94078 0.24357 0
M  V30 7571 O 715.212 2.67265 0.477646 0
M  V30 7572 C 713.668 2.92464 -2.09744 0
M  V30 7573 C 713.276 2.68134 -3.58898 0
M  V30 7574 C 715.02 3.70449 -2.07287 0
M  V30 7575 C 712.927 3.9423 -4.40836 0
M  V30 7576 H 711.857 0.608741 -0.444916 0
M  V30 7577 H 714.508 0.967947 -1.55894 0
M  V30 7578 H 712.89 3.59262 -1.66574 0
M  V30 7579 H 714.064 2.09776 -4.10281 0
M  V30 7580 H 712.379 2.03511 -3.6328 0
M  V30 7581 H 714.976 4.63983 -2.65752 0
M  V30 7582 H 715.319 4.02611 -1.05876 0
M  V30 7583 H 715.852 3.10528 -2.48631 0
M  V30 7584 H 712.591 3.67221 -5.42982 0
M  V30 7585 H 712.111 4.52058 -3.94213 0
M  V30 7586 H 713.79 4.62162 -4.52786 0
M  V30 7587 N 713.922 1.13953 1.08869 0
M  V30 7588 C 714.872 0.790812 2.13846 0
M  V30 7589 C 715.856 -0.217819 1.59419 0
M  V30 7590 O 717.048 -0.0208723 1.76988 0
M  V30 7591 C 714.177 0.26479 3.42277 0
M  V30 7592 C 713.263 1.30267 4.03598 0
M  V30 7593 N 713.654 2.50535 4.39393 0
M  V30 7594 C 711.952 1.15178 4.30871 0
M  V30 7595 C 712.653 3.16938 4.87776 0
M  V30 7596 N 711.629 2.44349 4.85587 0
M  V30 7597 H 715.431 1.70577 2.39334 0
M  V30 7598 H 712.945 1.02268 1.26154 0
M  V30 7599 H 714.942 -0.00330398 4.169 0
M  V30 7600 H 713.602 -0.644419 3.18241 0
M  V30 7601 H 714.613 2.87798 4.30572 0
M  V30 7602 H 711.29 0.301204 4.16412 0
M  V30 7603 H 712.68 4.19453 5.2489 0
M  V30 7604 N 715.4 -1.26948 0.933913 0
M  V30 7605 C 716.816 -1.46419 0.635103 0
M  V30 7606 C 717.016 -1.84336 -0.813785 0
M  V30 7607 O 716.072 -1.96061 -1.59111 0
M  V30 7608 C 717.385 -2.55206 1.5903 0
M  V30 7609 C 718.933 -2.69062 1.5992 0
M  V30 7610 C 719.408 -3.81013 2.54152 0
M  V30 7611 N 720.899 -3.88395 2.52395 0
M  V30 7612 C 721.634 -4.74454 3.21996 0
M  V30 7613 N 721.13 -5.64954 4.00997 0
M  V30 7614 N 722.923 -4.68237 3.10983 0
M  V30 7615 H 715.074 -1.00622 1.87053 0
M  V30 7616 H 717.337 -0.503189 0.803433 0
M  V30 7617 H 717.043 -2.34153 2.62422 0
M  V30 7618 H 716.917 -3.52719 1.33677 0
M  V30 7619 H 719.304 -2.89492 0.572569 0
M  V30 7620 H 719.385 -1.72016 1.89325 0
M  V30 7621 H 719.029 -3.61336 3.5693 0
M  V30 7622 H 718.959 -4.77499 2.22041 0
M  V30 7623 H 721.45 -3.23687 1.95025 0
M  V30 7624 H 721.763 -6.27496 4.51074 0
M  V30 7625 H 720.108 -5.6473 4.05099 0
M  V30 7626 H 723.299 -3.96535 2.48753 0
M  V30 7627 H 723.472 -5.35087 3.65494 0
M  V30 7628 N 716.879 -0.700114 -1.41195 0
M  V30 7629 C 718.119 -0.237223 -2.03019 0
M  V30 7630 C 718.483 1.14304 -1.54268 0
M  V30 7631 O 719.684 1.70204 -2.08048 0
M  V30 7632 C 717.955 -0.297442 -3.5616 0
M  V30 7633 S 719.514 0.0907367 -4.38706 0
M  V30 7634 H 716.332 -0.0952147 -0.704596 0
M  V30 7635 H 718.934 -0.918901 -1.72559 0
M  V30 7636 H 717.638 -1.30391 -3.89135 0
M  V30 7637 H 717.169 0.403233 -3.91328 0
M  V30 7638 H 719.184 1.31721 -4.78397 0
M  V30 7639 N 718.357 1.51182 -0.445186 0
M  V30 7640 C 719.307 2.24804 0.380394 0
M  V30 7641 C 720.291 1.27344 0.983482 0
M  V30 7642 O 721.483 1.52392 0.900322 0
M  V30 7643 C 718.612 3.09922 1.4766 0
M  V30 7644 C 717.698 4.14816 0.882517 0
M  V30 7645 N 718.089 5.05797 0.0183278 0
M  V30 7646 C 716.387 4.30938 1.14927 0
M  V30 7647 C 717.088 5.8084 -0.316152 0
M  V30 7648 N 716.064 5.42759 0.302214 0
M  V30 7649 H 719.866 2.92508 -0.285737 0
M  V30 7650 H 717.38 1.60342 -0.257733 0
M  V30 7651 H 719.377 3.61249 2.08098 0
M  V30 7652 H 718.037 2.43763 2.14498 0
M  V30 7653 H 719.048 5.16725 -0.348679 0
M  V30 7654 H 715.725 3.76005 1.81457 0
M  V30 7655 H 717.115 6.64115 -1.01986 0
M  V30 7656 N 719.835 0.176821 1.56605 0
M  V30 7657 C 721.246 -0.338963 1.83597 0
M  V30 7658 C 721.597 -1.62677 1.09684 0
M  V30 7659 O 720.722 -2.13524 0.351661 0
M  V30 7660 C 721.317 -0.62177 3.33046 0
M  V30 7661 C 719.876 -1.08198 3.60514 0
M  V30 7662 C 719.023 -0.120774 2.77037 0
M  V30 7663 H 721.974 0.400978 1.53551 0
M  V30 7664 H 721.995 -1.47321 3.50823 0
M  V30 7665 H 721.507 0.315692 3.86814 0
M  V30 7666 H 719.608 -2.03435 3.12162 0
M  V30 7667 H 719.721 -0.987329 4.68816 0
M  V30 7668 H 718.085 -0.619192 2.47059 0
M  V30 7669 H 718.868 0.810806 3.33588 0
M  V30 7670 O 721.352 -1.61453 0.0391262 0
M  V30 7671 H 722.043 -1.85062 -0.571999 0
M  V30 END ATOM
M  V30 BEGIN BOND
M  V30 END BOND
M  V30 END CTAB
M  END
$$$$
