drugbank_target|Q9H4G4 Golgi-associated plant pathogenesis-related protein 1 (DB03661)
 OpenBabel12092120283D

  0  0  0     0  0            999 V3000
M  V30 BEGIN CTAB
M  V30 COUNTS 6179 6623 0 0 0
M  V30 BEGIN ATOM
M  V30 1 H -1.547 9.37743 -1.21644 0
M  V30 2 O -1.44 8.89599 -0.40059 0
M  V30 3 P 0 8.91 0 0
M  V30 4 O 0.22 10.1746 0.733838 0
M  V30 5 O 0.79 8.73346 -1.23964 0
M  V30 6 O 0.25 7.66872 0.971405 0
M  V30 7 C -0.69 7.42405 2.04668 0
M  V30 8 C 0.04 6.86059 3.24661 0
M  V30 9 O 0.25 5.42934 3.03695 0
M  V30 10 C 1.44 7.41287 3.50796 0
M  V30 11 O 1.83 7.27073 4.86816 0
M  V30 12 C 2.32 6.5273 2.63741 0
M  V30 13 C 1.61 5.1842 2.73198 0
M  V30 14 N 1.66 4.38762 1.4784 0
M  V30 15 H -1.178 8.36899 2.3252 0
M  V30 16 H -1.45 6.70391 1.71179 0
M  V30 17 H -0.582 7.03638 4.13219 0
M  V30 18 H 2.073 4.59931 3.54016 0
M  V30 19 H 2.353 6.88995 1.59871 0
M  V30 20 H 3.344 6.4684 3.0373 0
M  V30 21 H 1.51 8.47002 3.20749 0
M  V30 22 P 3.37998 7.20834 5.23717 0
M  V30 23 O 3.59998 7.79853 6.57286 0
M  V30 24 O 4.16998 7.79239 4.12957 0
M  V30 25 O 3.62998 5.63315 5.29344 0
M  V30 26 C 2.68998 4.80255 6.01876 0
M  V30 27 C 3.41998 3.64202 6.65911 0
M  V30 28 O 3.62998 2.60694 5.64732 0
M  V30 29 C 4.81998 3.93473 7.1943 0
M  V30 30 O 5.20998 3.02071 8.21205 0
M  V30 31 C 5.69998 3.73047 5.97036 0
M  V30 32 C 4.98998 2.58828 5.25741 0
M  V30 33 N 5.03998 2.68068 3.77503 0
M  V30 34 C 4.95998 3.79715 2.96723 0
M  V30 35 N 5.03998 3.5377 1.68852 0
M  V30 36 C 5.17998 2.15054 1.63254 0
M  V30 37 C 5.30998 1.28964 0.518571 0
M  V30 38 O 5.32998 1.56826 -0.679156 0
M  V30 39 N 5.42998 -0.0538097 0.918425 0
M  V30 40 C 5.42998 -0.494275 2.22578 0
M  V30 41 N 5.55998 -1.81086 2.40434 0
M  V30 42 N 5.29998 0.313645 3.27502 0
M  V30 43 C 5.17998 1.61829 2.91033 0
M  V30 44 H 2.20098 5.40332 6.79951 0
M  V30 45 H 1.93098 4.41613 5.32378 0
M  V30 46 H 2.79798 3.26331 7.47797 0
M  V30 47 H 5.45298 1.63422 5.56814 0
M  V30 48 H 5.73198 4.63374 5.34244 0
M  V30 49 H 6.72398 3.44728 6.25838 0
M  V30 50 H 4.88998 4.96652 7.57263 0
M  V30 51 H 4.84098 4.80617 3.3614 0
M  V30 52 H 5.52298 -0.742702 0.199384 0
M  V30 53 H 5.55998 -2.20598 3.35588 0
M  V30 54 H 5.66098 -2.43518 1.58945 0
M  V30 55 P 6.75996 2.75334 8.47391 0
M  V30 56 O 6.97996 2.44571 9.90142 0
M  V30 57 O 7.54996 3.87688 7.92115 0
M  V30 58 O 7.00996 1.4459 7.59357 0
M  V30 59 C 6.06996 0.347608 7.69215 0
M  V30 60 C 6.79996 -0.96767 7.52806 0
M  V30 61 O 7.00996 -1.21036 6.1011 0
M  V30 62 C 8.19996 -1.04544 8.13308 0
M  V30 63 O 8.58996 -2.38311 8.41922 0
M  V30 64 C 9.07996 -0.491279 7.02284 0
M  V30 65 C 8.36996 -0.996264 5.77469 0
M  V30 66 N 8.41996 -0.0501916 4.62973 0
M  V30 67 H 5.58096 0.374722 8.67691 0
M  V30 68 H 5.31096 0.443485 6.90277 0
M  V30 69 H 6.17796 -1.75537 7.96793 0
M  V30 70 P 10.1399 -2.75334 8.47391 0
M  V30 71 O 10.3599 -3.84128 9.44797 0
M  V30 72 O 10.9299 -1.51947 8.68712 0
M  V30 73 O 10.3899 -3.29363 6.99321 0
M  V30 74 C 9.44994 -4.24011 6.4274 0
M  V30 75 C 10.1799 -5.20775 5.52155 0
M  V30 76 O 10.3899 -4.56534 4.22446 0
M  V30 77 C 11.5799 -5.62629 5.96531 0
M  V30 78 O 11.9699 -6.87667 5.41053 0
M  V30 79 C 12.4599 -4.52537 5.39283 0
M  V30 80 C 11.7499 -4.20027 4.08623 0
M  V30 81 N 11.7999 -2.76189 3.71603 0
M  V30 82 H 8.96094 -4.797 7.24003 0
M  V30 83 H 8.69094 -3.69856 5.84513 0
M  V30 84 H 9.55794 -6.10356 5.41441 0
M  V30 85 P 13.5199 -7.20834 5.23717 0
M  V30 86 O 13.7399 -8.66274 5.38678 0
M  V30 87 O 14.3099 -6.33687 6.13629 0
M  V30 88 O 13.7699 -6.7751 3.72168 0
M  V30 89 C 12.8299 -7.20919 2.70795 0
M  V30 90 C 13.5599 -7.45864 1.40599 0
M  V30 91 O 13.7699 -6.17751 0.734343 0
M  V30 92 C 14.9599 -8.05906 1.51917 0
M  V30 93 O 15.3499 -8.74358 0.335205 0
M  V30 94 C 15.8399 -6.83093 1.70294 0
M  V30 95 C 15.1299 -5.79992 0.836974 0
M  V30 96 N 15.1799 -4.41864 1.38293 0
M  V30 97 C 15.0999 -4.02089 2.69407 0
M  V30 98 N 15.1699 -2.73403 2.85089 0
M  V30 99 C 15.3199 -2.25086 1.5642 0
M  V30 100 C 15.4499 -0.942887 1.04836 0
M  V30 101 N 15.4599 0.150999 1.80369 0
M  V30 102 N 15.5699 -0.812565 -0.28167 0
M  V30 103 C 15.5599 -1.90572 -1.03784 0
M  V30 104 N 15.4399 -3.167 -0.683905 0
M  V30 105 C 15.3199 -3.26538 0.652815 0
M  V30 106 H 12.3419 -8.13738 3.03804 0
M  V30 107 H 12.0699 -6.42974 2.55559 0
M  V30 108 H 12.9379 -8.12139 0.792866 0
M  V30 109 H 15.5929 -5.80178 -0.160643 0
M  V30 110 H 15.8729 -6.51379 2.75643 0
M  V30 111 H 16.8639 -7.01832 1.3448 0
M  V30 112 H 15.0299 -8.73771 2.38364 0
M  V30 113 H 14.9889 -4.7189 3.52311 0
M  V30 114 H 15.3699 0.0721434 2.82608 0
M  V30 115 H 15.5589 1.0785 1.36544 0
M  V30 116 H 15.6669 -1.73207 -2.10241 0
M  V30 117 P 16.8999 -8.91 1.09116e-15 0
M  V30 118 O 17.1199 -10.1726 -0.733694 0
M  V30 119 O 17.6899 -8.73148 1.23936 0
M  V30 120 O 17.1499 -7.66872 -0.971405 0
M  V30 121 C 16.2099 -7.42309 -2.04641 0
M  V30 122 C 16.9399 -6.86059 -3.24661 0
M  V30 123 O 17.1499 -5.42847 -3.03646 0
M  V30 124 C 18.3399 -7.41196 -3.50753 0
M  V30 125 O 18.7299 -7.27073 -4.86816 0
M  V30 126 C 19.2199 -6.5273 -2.63741 0
M  V30 127 C 18.5099 -5.1842 -2.73198 0
M  V30 128 N 18.5599 -4.38762 -1.4784 0
M  V30 129 H 15.7209 -8.36803 -2.32493 0
M  V30 130 H 15.4509 -6.70197 -1.71129 0
M  V30 131 H 16.3179 -7.03551 -4.13168 0
M  V30 132 P 20.2799 -7.20834 -5.23717 0
M  V30 133 O 20.4999 -7.79853 -6.57286 0
M  V30 134 O 21.0699 -7.79239 -4.12957 0
M  V30 135 O 20.5299 -5.63315 -5.29344 0
M  V30 136 C 19.5899 -4.80255 -6.01876 0
M  V30 137 C 20.3199 -3.64202 -6.65911 0
M  V30 138 O 20.5299 -2.60694 -5.64732 0
M  V30 139 C 21.7199 -3.93473 -7.1943 0
M  V30 140 O 22.1099 -3.02071 -8.21205 0
M  V30 141 C 22.5999 -3.73047 -5.97036 0
M  V30 142 C 21.8899 -2.58828 -5.25741 0
M  V30 143 N 21.9399 -2.68068 -3.77503 0
M  V30 144 H 19.1009 -5.40332 -6.79951 0
M  V30 145 H 18.8309 -4.41613 -5.32378 0
M  V30 146 H 19.6979 -3.26331 -7.47797 0
M  V30 147 P 23.6599 -2.75334 -8.47391 0
M  V30 148 O 23.8799 -2.44571 -9.90142 0
M  V30 149 O 24.4499 -3.87688 -7.92115 0
M  V30 150 O 23.9099 -1.4459 -7.59357 0
M  V30 151 C 22.9699 -0.347608 -7.69215 0
M  V30 152 C 23.6999 0.96767 -7.52806 0
M  V30 153 O 23.9099 1.21036 -6.1011 0
M  V30 154 C 25.0999 1.04544 -8.13308 0
M  V30 155 O 25.4899 2.38311 -8.41922 0
M  V30 156 C 25.9799 0.491279 -7.02284 0
M  V30 157 C 25.2699 0.996264 -5.77469 0
M  V30 158 N 25.3199 0.0501916 -4.62973 0
M  V30 159 H 22.4809 -0.374722 -8.67691 0
M  V30 160 H 22.2109 -0.443485 -6.90277 0
M  V30 161 H 23.0779 1.75537 -7.96793 0
M  V30 162 P 27.0398 2.75334 -8.47391 0
M  V30 163 O 27.2598 3.84128 -9.44797 0
M  V30 164 O 27.8298 1.51947 -8.68712 0
M  V30 165 O 27.2898 3.29363 -6.99321 0
M  V30 166 C 26.3498 4.24011 -6.4274 0
M  V30 167 C 27.0798 5.20775 -5.52155 0
M  V30 168 O 27.2898 4.56534 -4.22446 0
M  V30 169 C 28.4798 5.62629 -5.96531 0
M  V30 170 O 28.8698 6.87667 -5.41053 0
M  V30 171 C 29.3598 4.52537 -5.39283 0
M  V30 172 C 28.6498 4.20027 -4.08623 0
M  V30 173 N 28.6998 2.76189 -3.71603 0
M  V30 174 H 25.8608 4.797 -7.24003 0
M  V30 175 H 25.5908 3.69856 -5.84513 0
M  V30 176 H 26.4578 6.10356 -5.41441 0
M  V30 177 P 30.4198 7.20834 -5.23717 0
M  V30 178 O 30.6398 8.66274 -5.38678 0
M  V30 179 O 31.2098 6.33687 -6.13629 0
M  V30 180 O 30.6698 6.7751 -3.72168 0
M  V30 181 C 29.7298 7.20919 -2.70795 0
M  V30 182 C 30.4598 7.45864 -1.40599 0
M  V30 183 O 30.6698 6.17751 -0.734343 0
M  V30 184 C 31.8598 8.05906 -1.51917 0
M  V30 185 O 32.2498 8.74358 -0.335205 0
M  V30 186 C 32.7398 6.83093 -1.70294 0
M  V30 187 C 32.0298 5.79992 -0.836974 0
M  V30 188 N 32.0798 4.41864 -1.38293 0
M  V30 189 H 29.2418 8.13738 -3.03804 0
M  V30 190 H 28.9698 6.42974 -2.55559 0
M  V30 191 H 29.8378 8.12139 -0.792866 0
M  V30 192 H 32.4928 5.80178 0.160643 0
M  V30 193 H 32.7728 6.51379 -2.75643 0
M  V30 194 H 33.7638 7.01832 -1.3448 0
M  V30 195 H 31.9298 8.73771 -2.38364 0
M  V30 196 P 33.7998 8.91 -2.18232e-15 0
M  V30 197 O 34.0198 10.1726 0.733694 0
M  V30 198 O 34.5898 8.73148 -1.23936 0
M  V30 199 O 34.0498 7.66872 0.971405 0
M  V30 200 C 33.1098 7.42309 2.04641 0
M  V30 201 C 33.8398 6.86059 3.24661 0
M  V30 202 O 34.0498 5.42847 3.03646 0
M  V30 203 C 35.2398 7.41196 3.50753 0
M  V30 204 O 35.6298 7.27073 4.86816 0
M  V30 205 C 36.1198 6.5273 2.63741 0
M  V30 206 C 35.4098 5.1842 2.73198 0
M  V30 207 N 35.4598 4.38762 1.4784 0
M  V30 208 H 32.6208 8.36803 2.32493 0
M  V30 209 H 32.3508 6.70197 1.71129 0
M  V30 210 H 33.2178 7.03551 4.13168 0
M  V30 211 P 37.1798 7.20834 5.23717 0
M  V30 212 O 37.3998 7.79853 6.57286 0
M  V30 213 O 37.9698 7.79239 4.12957 0
M  V30 214 O 37.4298 5.63315 5.29344 0
M  V30 215 C 36.4898 4.80255 6.01876 0
M  V30 216 C 37.2198 3.64202 6.65911 0
M  V30 217 O 37.4298 2.60694 5.64732 0
M  V30 218 C 38.6198 3.93473 7.1943 0
M  V30 219 O 39.0098 3.02071 8.21205 0
M  V30 220 C 39.4998 3.73047 5.97036 0
M  V30 221 C 38.7898 2.58828 5.25741 0
M  V30 222 N 38.8398 2.68068 3.77503 0
M  V30 223 H 36.0008 5.40332 6.79951 0
M  V30 224 H 35.7308 4.41613 5.32378 0
M  V30 225 H 36.5978 3.26331 7.47797 0
M  V30 226 P 40.5598 2.75334 8.47391 0
M  V30 227 O 40.7798 2.44571 9.90142 0
M  V30 228 O 41.3498 3.87688 7.92115 0
M  V30 229 O 40.8098 1.4459 7.59357 0
M  V30 230 C 39.8698 0.347608 7.69215 0
M  V30 231 C 40.5998 -0.96767 7.52806 0
M  V30 232 O 40.8098 -1.21036 6.1011 0
M  V30 233 C 41.9998 -1.04544 8.13308 0
M  V30 234 O 42.3898 -2.38311 8.41922 0
M  V30 235 C 42.8798 -0.491279 7.02284 0
M  V30 236 C 42.1698 -0.996264 5.77469 0
M  V30 237 N 42.2198 -0.0501916 4.62973 0
M  V30 238 H 39.3808 0.374722 8.67691 0
M  V30 239 H 39.1108 0.443485 6.90277 0
M  V30 240 H 39.9778 -1.75537 7.96793 0
M  V30 241 P 43.9397 -2.75334 8.47391 0
M  V30 242 O 44.1597 -3.84128 9.44797 0
M  V30 243 O 44.7297 -1.51947 8.68712 0
M  V30 244 O 44.1897 -3.29363 6.99321 0
M  V30 245 C 43.2497 -4.24011 6.4274 0
M  V30 246 C 43.9797 -5.20775 5.52155 0
M  V30 247 O 44.1897 -4.56534 4.22446 0
M  V30 248 C 45.3797 -5.62629 5.96531 0
M  V30 249 O 45.7697 -6.87667 5.41053 0
M  V30 250 C 46.2597 -4.52537 5.39283 0
M  V30 251 C 45.5497 -4.20027 4.08623 0
M  V30 252 N 45.5997 -2.76189 3.71603 0
M  V30 253 H 42.7607 -4.797 7.24003 0
M  V30 254 H 42.4907 -3.69856 5.84513 0
M  V30 255 H 43.3577 -6.10356 5.41441 0
M  V30 256 P 47.3197 -7.20834 5.23717 0
M  V30 257 O 47.5397 -8.66104 5.38572 0
M  V30 258 O 48.1097 -6.33544 6.1349 0
M  V30 259 O 47.5697 -6.7751 3.72168 0
M  V30 260 C 46.6297 -7.20825 2.7076 0
M  V30 261 C 47.3597 -7.45864 1.40599 0
M  V30 262 O 47.5697 -6.17651 0.734225 0
M  V30 263 C 48.7597 -8.05808 1.51899 0
M  V30 264 O 49.1497 -8.74358 0.335205 0
M  V30 265 C 49.6397 -6.83093 1.70294 0
M  V30 266 C 48.9297 -5.79992 0.836974 0
M  V30 267 N 48.9797 -4.41864 1.38293 0
M  V30 268 H 46.1407 -8.13644 3.0377 0
M  V30 269 H 45.8707 -6.42788 2.55485 0
M  V30 270 H 46.7377 -8.12039 0.792769 0
M  V30 271 P 50.6997 -8.91 3.27348e-15 0
M  V30 272 O 50.9197 -10.1746 -0.733838 0
M  V30 273 O 51.4897 -8.73346 1.23964 0
M  V30 274 O 50.9497 -7.66872 -0.971405 0
M  V30 275 C 50.0097 -7.42405 -2.04668 0
M  V30 276 C 50.7397 -6.86059 -3.24661 0
M  V30 277 O 50.9497 -5.42934 -3.03695 0
M  V30 278 C 52.1397 -7.41287 -3.50796 0
M  V30 279 O 52.5297 -7.27073 -4.86816 0
M  V30 280 C 53.0197 -6.5273 -2.63741 0
M  V30 281 C 52.3097 -5.1842 -2.73198 0
M  V30 282 N 52.3597 -4.38762 -1.4784 0
M  V30 283 C 52.2797 -4.83651 -0.183876 0
M  V30 284 N 52.3497 -3.88759 0.699393 0
M  V30 285 C 52.4997 -2.7404 -0.0575568 0
M  V30 286 C 52.6297 -1.37902 0.293928 0
M  V30 287 N 52.6397 -0.938021 1.54797 0
M  V30 288 N 52.7497 -0.491817 -0.70549 0
M  V30 289 C 52.7397 -0.931735 -1.95979 0
M  V30 290 N 52.6197 -2.16017 -2.41481 0
M  V30 291 C 52.4997 -3.02547 -1.39121 0
M  V30 292 H 49.5217 -8.36899 -2.3252 0
M  V30 293 H 49.2497 -6.70391 -1.71179 0
M  V30 294 H 50.1177 -7.03638 -4.13219 0
M  V30 295 H 52.7727 -4.59931 -3.54016 0
M  V30 296 H 53.0527 -6.88995 -1.59871 0
M  V30 297 H 54.0437 -6.4684 -3.0373 0
M  V30 298 H 52.2097 -8.47002 -3.20749 0
M  V30 299 H 52.1687 -5.8885 0.0765548 0
M  V30 300 H 52.5497 -1.60276 2.32875 0
M  V30 301 H 52.7387 0.0699355 1.73859 0
M  V30 302 H 52.8467 -0.165507 -2.71897 0
M  V30 303 P 54.0797 -7.20834 -5.23717 0
M  V30 304 O 54.2997 -7.80006 -6.57415 0
M  V30 305 O 54.8697 -7.79416 -4.13051 0
M  V30 306 O 54.3297 -5.63315 -5.29344 0
M  V30 307 C 53.3897 -4.80318 -6.01954 0
M  V30 308 C 54.1197 -3.64202 -6.65911 0
M  V30 309 O 54.3297 -2.60736 -5.64823 0
M  V30 310 C 55.5197 -3.93521 -7.19518 0
M  V30 311 O 55.9097 -3.02071 -8.21205 0
M  V30 312 C 56.3997 -3.73047 -5.97036 0
M  V30 313 C 55.6897 -2.58828 -5.25741 0
M  V30 314 N 55.7397 -2.68068 -3.77503 0
M  V30 315 H 52.9017 -5.40394 -6.8003 0
M  V30 316 H 52.6297 -4.41741 -5.32532 0
M  V30 317 H 53.4977 -3.26371 -7.47889 0
M  V30 318 H 56.1527 -1.64007 -5.56746 0
M  V30 319 H 56.4327 -4.63439 -5.3432 0
M  V30 320 H 57.4237 -3.44776 -6.25925 0
M  V30 321 H 55.5897 -4.96707 -7.57347 0
M  V30 322 P 57.4597 -2.75334 -8.47391 0
M  V30 323 O 57.6797 -2.44571 -9.90142 0
M  V30 324 O 58.2497 -3.87688 -7.92115 0
M  V30 325 O 57.7097 -1.4459 -7.59357 0
M  V30 326 C 56.7697 -0.347608 -7.69215 0
M  V30 327 C 57.4997 0.96767 -7.52806 0
M  V30 328 O 57.7097 1.21036 -6.1011 0
M  V30 329 C 58.8997 1.04544 -8.13308 0
M  V30 330 O 59.2897 2.38311 -8.41922 0
M  V30 331 C 59.7797 0.491279 -7.02284 0
M  V30 332 C 59.0697 0.996264 -5.77469 0
M  V30 333 N 59.1197 0.0501916 -4.62973 0
M  V30 334 H 56.2807 -0.374722 -8.67691 0
M  V30 335 H 56.0107 -0.443485 -6.90277 0
M  V30 336 H 56.8777 1.75537 -7.96793 0
M  V30 337 P 60.8396 2.75334 -8.47391 0
M  V30 338 O 61.0596 3.84128 -9.44797 0
M  V30 339 O 61.6296 1.51947 -8.68712 0
M  V30 340 O 61.0896 3.29363 -6.99321 0
M  V30 341 C 60.1496 4.24011 -6.4274 0
M  V30 342 C 60.8796 5.20775 -5.52155 0
M  V30 343 O 61.0896 4.56534 -4.22446 0
M  V30 344 C 62.2796 5.62629 -5.96531 0
M  V30 345 O 62.6696 6.87667 -5.41053 0
M  V30 346 C 63.1596 4.52537 -5.39283 0
M  V30 347 C 62.4496 4.20027 -4.08623 0
M  V30 348 N 62.4996 2.76189 -3.71603 0
M  V30 349 H 59.6606 4.797 -7.24003 0
M  V30 350 H 59.3906 3.69856 -5.84513 0
M  V30 351 H 60.2576 6.10356 -5.41441 0
M  V30 352 P 64.2196 7.20834 -5.23717 0
M  V30 353 O 64.4396 8.66189 -5.38625 0
M  V30 354 O 65.0096 6.33615 -6.1356 0
M  V30 355 O 64.4696 6.7751 -3.72168 0
M  V30 356 C 63.5296 7.20732 -2.70725 0
M  V30 357 C 64.2596 7.45864 -1.40599 0
M  V30 358 O 64.4696 6.17651 -0.734225 0
M  V30 359 C 65.6596 8.05808 -1.51899 0
M  V30 360 O 66.0496 8.74358 -0.335205 0
M  V30 361 C 66.5396 6.83093 -1.70294 0
M  V30 362 C 65.8296 5.79992 -0.836974 0
M  V30 363 N 65.8796 4.41769 -1.38263 0
M  V30 364 C 66.0296 3.38591 -0.481702 0
M  V30 365 O 66.1196 3.56839 0.718452 0
M  V30 366 N 66.0696 2.1206 -1.03569 0
M  V30 367 C 65.9796 1.80696 -2.36966 0
M  V30 368 C 65.8296 2.94845 -3.23898 0
M  V30 369 C 65.7796 4.19803 -2.73435 0
M  V30 370 H 63.0396 8.13644 -3.0377 0
M  V30 371 H 62.7706 6.42695 -2.55448 0
M  V30 372 H 63.6376 8.12039 -0.792769 0
M  V30 373 H 66.2926 5.79978 0.160587 0
M  V30 374 H 66.5716 6.51379 -2.75643 0
M  V30 375 H 67.5636 7.01734 -1.34462 0
M  V30 376 H 65.7296 8.73674 -2.38337 0
M  V30 377 H 65.6586 5.04492 -3.4095 0
M  V30 378 P 67.5996 8.91 -4.36464e-15 0
M  V30 379 O 67.8196 10.1726 0.733694 0
M  V30 380 O 68.3896 8.73148 -1.23936 0
M  V30 381 O 67.8496 7.66872 0.971405 0
M  V30 382 C 66.9096 7.42309 2.04641 0
M  V30 383 C 67.6396 6.86059 3.24661 0
M  V30 384 O 67.8496 5.42847 3.03646 0
M  V30 385 C 69.0396 7.41196 3.50753 0
M  V30 386 O 69.4296 7.27073 4.86816 0
M  V30 387 C 69.9196 6.5273 2.63741 0
M  V30 388 C 69.2096 5.1842 2.73198 0
M  V30 389 N 69.2596 4.38762 1.4784 0
M  V30 390 C 69.1796 4.81605 0.168631 0
M  V30 391 N 69.2596 3.85454 -0.713363 0
M  V30 392 C 69.3996 2.6994 0.0566958 0
M  V30 393 C 69.5296 1.34815 -0.338502 0
M  V30 394 N 69.6496 0.496304 0.77465 0
M  V30 395 C 69.6496 0.908403 2.09122 0
M  V30 396 N 69.7796 -0.0517805 3.00955 0
M  V30 397 N 69.5196 2.17875 2.46519 0
M  V30 398 C 69.3996 3.01988 1.4033 0
M  V30 399 H 66.4206 8.36803 2.32493 0
M  V30 400 H 66.1506 6.70197 1.71129 0
M  V30 401 H 67.0176 7.03551 4.13168 0
M  V30 402 P 70.9796 7.20834 5.23717 0
M  V30 403 O 71.1996 7.79853 6.57286 0
M  V30 404 O 71.7696 7.79239 4.12957 0
M  V30 405 O 71.2296 5.63315 5.29344 0
M  V30 406 C 70.2896 4.80255 6.01876 0
M  V30 407 C 71.0196 3.64202 6.65911 0
M  V30 408 O 71.2296 2.60694 5.64732 0
M  V30 409 C 72.4196 3.93473 7.1943 0
M  V30 410 O 72.8096 3.02071 8.21205 0
M  V30 411 C 73.2996 3.73047 5.97036 0
M  V30 412 C 72.5896 2.58828 5.25741 0
M  V30 413 N 72.6396 2.68068 3.77503 0
M  V30 414 H 69.8006 5.40332 6.79951 0
M  V30 415 H 69.5306 4.41613 5.32378 0
M  V30 416 H 70.3976 3.26331 7.47797 0
M  V30 417 P 74.3596 2.75334 8.47391 0
M  V30 418 O 74.5796 2.44571 9.90142 0
M  V30 419 O 75.1496 3.87688 7.92115 0
M  V30 420 O 74.6096 1.4459 7.59357 0
M  V30 421 C 73.6696 0.347608 7.69215 0
M  V30 422 C 74.3996 -0.96767 7.52806 0
M  V30 423 O 74.6096 -1.21036 6.1011 0
M  V30 424 C 75.7996 -1.04544 8.13308 0
M  V30 425 O 76.1896 -2.38311 8.41922 0
M  V30 426 C 76.6796 -0.491279 7.02284 0
M  V30 427 C 75.9696 -0.996264 5.77469 0
M  V30 428 N 76.0196 -0.0501916 4.62973 0
M  V30 429 H 73.1806 0.374722 8.67691 0
M  V30 430 H 72.9106 0.443485 6.90277 0
M  V30 431 H 73.7776 -1.75537 7.96793 0
M  V30 432 P 77.7395 -2.75334 8.47391 0
M  V30 433 O 77.9595 -3.84204 9.44982 0
M  V30 434 O 78.5295 -1.51982 8.68909 0
M  V30 435 O 77.9895 -3.29363 6.99321 0
M  V30 436 C 77.0495 -4.24066 6.42823 0
M  V30 437 C 77.7795 -5.20775 5.52155 0
M  V30 438 O 77.9895 -4.56607 4.22514 0
M  V30 439 C 79.1795 -5.62697 5.96604 0
M  V30 440 O 79.5695 -6.87667 5.41053 0
M  V30 441 C 80.0595 -4.52537 5.39283 0
M  V30 442 C 79.3495 -4.20027 4.08623 0
M  V30 443 N 79.3995 -2.76189 3.71603 0
M  V30 444 H 76.5615 -4.79756 7.24086 0
M  V30 445 H 76.2895 -3.69963 5.84682 0
M  V30 446 H 77.1575 -6.10431 5.41508 0
M  V30 447 H 79.8125 -4.78816 3.28024 0
M  V30 448 H 80.0925 -3.64957 6.05871 0
M  V30 449 H 81.0835 -4.88748 5.21323 0
M  V30 450 H 79.2495 -5.66789 7.0643 0
M  V30 451 P 81.1195 -7.20834 5.23717 0
M  V30 452 O 81.3395 -8.66104 5.38572 0
M  V30 453 O 81.9095 -6.33544 6.1349 0
M  V30 454 O 81.3695 -6.7751 3.72168 0
M  V30 455 C 80.4295 -7.20825 2.7076 0
M  V30 456 C 81.1595 -7.45864 1.40599 0
M  V30 457 O 81.3695 -6.17651 0.734225 0
M  V30 458 C 82.5595 -8.05808 1.51899 0
M  V30 459 O 82.9495 -8.74358 0.335205 0
M  V30 460 C 83.4395 -6.83093 1.70294 0
M  V30 461 C 82.7295 -5.79992 0.836974 0
M  V30 462 N 82.7795 -4.41864 1.38293 0
M  V30 463 C 82.6995 -3.99538 2.69438 0
M  V30 464 N 82.7795 -2.69909 2.84277 0
M  V30 465 C 82.9195 -2.21719 1.5408 0
M  V30 466 C 83.0495 -0.891712 1.06628 0
M  V30 467 O 83.0695 0.161298 1.70137 0
M  V30 468 N 83.1695 -0.856846 -0.334985 0
M  V30 469 C 83.1695 -1.9641 -1.15789 0
M  V30 470 N 83.2995 -1.72708 -2.46522 0
M  V30 471 N 83.0395 -3.21165 -0.713741 0
M  V30 472 C 82.9195 -3.26797 0.639748 0
M  V30 473 H 79.9405 -8.13644 3.0377 0
M  V30 474 H 79.6705 -6.42788 2.55485 0
M  V30 475 H 80.5375 -8.12039 0.792769 0
M  V30 476 H 83.1925 -5.80061 -0.166416 0
M  V30 477 H 83.4715 -6.51287 2.75604 0
M  V30 478 H 84.4635 -7.01734 1.34462 0
M  V30 479 H 82.6295 -8.73674 2.38337 0
M  V30 480 H 82.5805 -4.68207 3.53221 0
M  V30 481 H 83.2625 0.0398818 -0.767965 0
M  V30 482 H 83.2995 -2.50995 -3.13503 0
M  V30 483 H 83.4005 -0.759148 -2.80716 0
M  V30 484 P 84.4995 -8.91 5.4558e-15 0
M  V30 485 O 84.7195 -10.1726 -0.733694 0
M  V30 486 O 85.2895 -8.73148 1.23936 0
M  V30 487 O 84.7495 -7.66872 -0.971405 0
M  V30 488 C 83.8095 -7.42309 -2.04641 0
M  V30 489 C 84.5395 -6.86059 -3.24661 0
M  V30 490 O 84.7495 -5.42847 -3.03646 0
M  V30 491 C 85.9395 -7.41196 -3.50753 0
M  V30 492 O 86.3295 -7.27073 -4.86816 0
M  V30 493 C 86.8195 -6.5273 -2.63741 0
M  V30 494 C 86.1095 -5.1842 -2.73198 0
M  V30 495 N 86.1595 -4.38762 -1.4784 0
M  V30 496 H 83.3205 -8.36803 -2.32493 0
M  V30 497 H 83.0505 -6.70197 -1.71129 0
M  V30 498 H 83.9175 -7.03551 -4.13168 0
M  V30 499 P 87.8795 -7.20834 -5.23717 0
M  V30 500 O 88.0995 -7.79853 -6.57286 0
M  V30 501 O 88.6695 -7.79239 -4.12957 0
M  V30 502 O 88.1295 -5.63315 -5.29344 0
M  V30 503 C 87.1895 -4.80255 -6.01876 0
M  V30 504 C 87.9195 -3.64202 -6.65911 0
M  V30 505 O 88.1295 -2.60694 -5.64732 0
M  V30 506 C 89.3195 -3.93473 -7.1943 0
M  V30 507 O 89.7095 -3.02071 -8.21205 0
M  V30 508 C 90.1995 -3.73047 -5.97036 0
M  V30 509 C 89.4895 -2.58828 -5.25741 0
M  V30 510 N 89.5395 -2.68068 -3.77503 0
M  V30 511 H 86.7005 -5.40332 -6.79951 0
M  V30 512 H 86.4305 -4.41613 -5.32378 0
M  V30 513 H 87.2975 -3.26331 -7.47797 0
M  V30 514 P 91.2595 -2.75334 -8.47391 0
M  V30 515 O 91.4795 -2.44571 -9.90142 0
M  V30 516 O 92.0495 -3.87688 -7.92115 0
M  V30 517 O 91.5095 -1.4459 -7.59357 0
M  V30 518 C 90.5695 -0.347608 -7.69215 0
M  V30 519 C 91.2995 0.96767 -7.52806 0
M  V30 520 O 91.5095 1.21036 -6.1011 0
M  V30 521 C 92.6995 1.04544 -8.13308 0
M  V30 522 O 93.0895 2.38311 -8.41922 0
M  V30 523 C 93.5795 0.491279 -7.02284 0
M  V30 524 C 92.8695 0.996264 -5.77469 0
M  V30 525 N 92.9195 0.0501916 -4.62973 0
M  V30 526 H 90.0805 -0.374722 -8.67691 0
M  V30 527 H 89.8105 -0.443485 -6.90277 0
M  V30 528 H 90.6775 1.75537 -7.96793 0
M  V30 529 P 94.6394 2.75334 -8.47391 0
M  V30 530 O 94.8594 3.84128 -9.44797 0
M  V30 531 O 95.4294 1.51947 -8.68712 0
M  V30 532 O 94.8894 3.29363 -6.99321 0
M  V30 533 C 93.9494 4.24011 -6.4274 0
M  V30 534 C 94.6794 5.20775 -5.52155 0
M  V30 535 O 94.8894 4.56534 -4.22446 0
M  V30 536 C 96.0794 5.62629 -5.96531 0
M  V30 537 O 96.4694 6.87667 -5.41053 0
M  V30 538 C 96.9594 4.52537 -5.39283 0
M  V30 539 C 96.2494 4.20027 -4.08623 0
M  V30 540 N 96.2994 2.76189 -3.71603 0
M  V30 541 H 93.4604 4.797 -7.24003 0
M  V30 542 H 93.1904 3.69856 -5.84513 0
M  V30 543 H 94.0574 6.10356 -5.41441 0
M  V30 544 P 98.0194 7.20834 -5.23717 0
M  V30 545 O 98.2394 8.66104 -5.38572 0
M  V30 546 O 98.8094 6.33544 -6.1349 0
M  V30 547 O 98.2694 6.7751 -3.72168 0
M  V30 548 C 97.3294 7.20825 -2.7076 0
M  V30 549 C 98.0594 7.45864 -1.40599 0
M  V30 550 O 98.2694 6.17651 -0.734225 0
M  V30 551 C 99.4594 8.05808 -1.51899 0
M  V30 552 O 99.8494 8.74358 -0.335205 0
M  V30 553 C 100.339 6.83093 -1.70294 0
M  V30 554 C 99.6294 5.79992 -0.836974 0
M  V30 555 N 99.6794 4.41864 -1.38293 0
M  V30 556 H 96.8404 8.13644 -3.0377 0
M  V30 557 H 96.5704 6.42788 -2.55485 0
M  V30 558 H 97.4374 8.12039 -0.792769 0
M  V30 559 P 101.399 8.91 -6.54696e-15 0
M  V30 560 O 101.619 10.1726 0.733694 0
M  V30 561 O 102.189 8.73148 -1.23936 0
M  V30 562 O 101.649 7.66872 0.971405 0
M  V30 563 C 100.709 7.42309 2.04641 0
M  V30 564 C 101.439 6.86059 3.24661 0
M  V30 565 O 101.649 5.42847 3.03646 0
M  V30 566 C 102.839 7.41196 3.50753 0
M  V30 567 O 103.229 7.27073 4.86816 0
M  V30 568 C 103.719 6.5273 2.63741 0
M  V30 569 C 103.009 5.1842 2.73198 0
M  V30 570 N 103.059 4.38762 1.4784 0
M  V30 571 H 100.22 8.36803 2.32493 0
M  V30 572 H 99.9504 6.70197 1.71129 0
M  V30 573 H 100.817 7.03551 4.13168 0
M  V30 574 P 104.779 7.20834 5.23717 0
M  V30 575 O 104.999 7.7993 6.57351 0
M  V30 576 O 105.569 7.79328 4.13004 0
M  V30 577 O 105.029 5.63315 5.29344 0
M  V30 578 C 104.089 4.80255 6.01876 0
M  V30 579 C 104.819 3.64202 6.65911 0
M  V30 580 O 105.029 2.60694 5.64732 0
M  V30 581 C 106.219 3.93473 7.1943 0
M  V30 582 O 106.609 3.02071 8.21205 0
M  V30 583 C 107.099 3.73047 5.97036 0
M  V30 584 C 106.389 2.58828 5.25741 0
M  V30 585 N 106.439 2.6801 3.77422 0
M  V30 586 C 106.589 1.50173 3.05038 0
M  V30 587 O 106.679 0.428832 3.665 0
M  V30 588 N 106.639 1.70922 1.55541 0
M  V30 589 C 106.539 2.7407 1.06402 0
M  V30 590 N 106.589 2.74764 -0.260931 0
M  V30 591 C 106.389 3.96781 1.78296 0
M  V30 592 C 106.339 3.87909 3.13891 0
M  V30 593 H 103.599 5.4027 6.79873 0
M  V30 594 H 103.33 4.41549 5.32301 0
M  V30 595 H 104.197 3.26371 7.47889 0
M  V30 596 H 106.852 1.63978 5.5665 0
M  V30 597 H 107.131 4.63439 5.3432 0
M  V30 598 H 108.123 3.44728 6.25838 0
M  V30 599 H 106.289 4.96652 7.57263 0
M  V30 600 H 106.217 4.78425 3.73088 0
M  V30 601 H 106.319 4.92593 1.26997 0
M  V30 602 H 106.707 1.86285 -0.77595 0
M  V30 603 H 106.51 3.63657 -0.773896 0
M  V30 604 P 108.159 2.75334 8.47391 0
M  V30 605 O 108.379 2.44571 9.90142 0
M  V30 606 O 108.949 3.87688 7.92115 0
M  V30 607 O 108.409 1.4459 7.59357 0
M  V30 608 C 107.469 0.347608 7.69215 0
M  V30 609 C 108.199 -0.96767 7.52806 0
M  V30 610 O 108.409 -1.21036 6.1011 0
M  V30 611 C 109.599 -1.04544 8.13308 0
M  V30 612 O 109.989 -2.38311 8.41922 0
M  V30 613 C 110.479 -0.491279 7.02284 0
M  V30 614 C 109.769 -0.996264 5.77469 0
M  V30 615 N 109.819 -0.0501916 4.62973 0
M  V30 616 H 106.98 0.374722 8.67691 0
M  V30 617 H 106.71 0.443485 6.90277 0
M  V30 618 H 107.577 -1.75537 7.96793 0
M  V30 619 P 111.539 -2.75334 8.47391 0
M  V30 620 O 111.759 -3.84128 9.44797 0
M  V30 621 O 112.329 -1.51947 8.68712 0
M  V30 622 O 111.789 -3.29363 6.99321 0
M  V30 623 C 110.849 -4.24011 6.4274 0
M  V30 624 C 111.579 -5.20775 5.52155 0
M  V30 625 O 111.789 -4.56534 4.22446 0
M  V30 626 C 112.979 -5.62629 5.96531 0
M  V30 627 O 113.369 -6.87667 5.41053 0
M  V30 628 C 113.859 -4.52537 5.39283 0
M  V30 629 C 113.149 -4.20027 4.08623 0
M  V30 630 N 113.199 -2.76189 3.71603 0
M  V30 631 H 110.36 -4.797 7.24003 0
M  V30 632 H 110.09 -3.69856 5.84513 0
M  V30 633 H 110.957 -6.10356 5.41441 0
M  V30 634 P 114.919 -7.20834 5.23717 0
M  V30 635 O 115.139 -8.66104 5.38572 0
M  V30 636 O 115.709 -6.33544 6.1349 0
M  V30 637 O 115.169 -6.7751 3.72168 0
M  V30 638 C 114.229 -7.20825 2.7076 0
M  V30 639 C 114.959 -7.45864 1.40599 0
M  V30 640 O 115.169 -6.17651 0.734225 0
M  V30 641 C 116.359 -8.05808 1.51899 0
M  V30 642 O 116.749 -8.74358 0.335205 0
M  V30 643 C 117.239 -6.83093 1.70294 0
M  V30 644 C 116.529 -5.79992 0.836974 0
M  V30 645 N 116.579 -4.41864 1.38293 0
M  V30 646 H 113.74 -8.13644 3.0377 0
M  V30 647 H 113.47 -6.42788 2.55485 0
M  V30 648 H 114.337 -8.12039 0.792769 0
M  V30 649 P 118.299 -8.91 7.63812e-15 0
M  V30 650 O 118.519 -10.1726 -0.733694 0
M  V30 651 O 119.089 -8.73148 1.23936 0
M  V30 652 O 118.549 -7.66872 -0.971405 0
M  V30 653 C 117.609 -7.42309 -2.04641 0
M  V30 654 C 118.339 -6.86059 -3.24661 0
M  V30 655 O 118.549 -5.42847 -3.03646 0
M  V30 656 C 119.739 -7.41196 -3.50753 0
M  V30 657 O 120.129 -7.27073 -4.86816 0
M  V30 658 C 120.619 -6.5273 -2.63741 0
M  V30 659 C 119.909 -5.1842 -2.73198 0
M  V30 660 N 119.959 -4.38762 -1.4784 0
M  V30 661 H 117.12 -8.36803 -2.32493 0
M  V30 662 H 116.85 -6.70197 -1.71129 0
M  V30 663 H 117.717 -7.03551 -4.13168 0
M  V30 664 P 121.679 -7.20834 -5.23717 0
M  V30 665 O 121.899 -7.79853 -6.57286 0
M  V30 666 O 122.469 -7.79239 -4.12957 0
M  V30 667 O 121.929 -5.63315 -5.29344 0
M  V30 668 C 120.989 -4.80255 -6.01876 0
M  V30 669 C 121.719 -3.64202 -6.65911 0
M  V30 670 O 121.929 -2.60694 -5.64732 0
M  V30 671 C 123.119 -3.93473 -7.1943 0
M  V30 672 O 123.509 -3.02071 -8.21205 0
M  V30 673 C 123.999 -3.73047 -5.97036 0
M  V30 674 C 123.289 -2.58828 -5.25741 0
M  V30 675 N 123.339 -2.68068 -3.77503 0
M  V30 676 C 123.259 -3.79715 -2.96723 0
M  V30 677 N 123.339 -3.5377 -1.68852 0
M  V30 678 C 123.479 -2.15054 -1.63254 0
M  V30 679 C 123.609 -1.28964 -0.518571 0
M  V30 680 N 123.729 0.0538097 -0.918425 0
M  V30 681 C 123.729 0.494275 -2.22578 0
M  V30 682 N 123.859 1.81086 -2.40434 0
M  V30 683 N 123.599 -0.313645 -3.27502 0
M  V30 684 C 123.479 -1.61829 -2.91033 0
M  V30 685 H 120.5 -5.40332 -6.79951 0
M  V30 686 H 120.23 -4.41613 -5.32378 0
M  V30 687 H 121.097 -3.26331 -7.47797 0
M  V30 688 P 125.059 -2.75334 -8.47391 0
M  V30 689 O 125.279 -2.44571 -9.90142 0
M  V30 690 O 125.849 -3.87688 -7.92115 0
M  V30 691 O 125.309 -1.4459 -7.59357 0
M  V30 692 C 124.369 -0.347608 -7.69215 0
M  V30 693 C 125.099 0.96767 -7.52806 0
M  V30 694 O 125.309 1.21036 -6.1011 0
M  V30 695 C 126.499 1.04544 -8.13308 0
M  V30 696 O 126.889 2.38311 -8.41922 0
M  V30 697 C 127.379 0.491279 -7.02284 0
M  V30 698 C 126.669 0.996264 -5.77469 0
M  V30 699 N 126.719 0.0501916 -4.62973 0
M  V30 700 H 123.88 -0.374722 -8.67691 0
M  V30 701 H 123.61 -0.443485 -6.90277 0
M  V30 702 H 124.477 1.75537 -7.96793 0
M  V30 703 P 128.439 2.75334 -8.47391 0
M  V30 704 O 128.659 3.84204 -9.44982 0
M  V30 705 O 129.229 1.51982 -8.68909 0
M  V30 706 O 128.689 3.29363 -6.99321 0
M  V30 707 C 127.749 4.24066 -6.42823 0
M  V30 708 C 128.479 5.20775 -5.52155 0
M  V30 709 O 128.689 4.56607 -4.22514 0
M  V30 710 C 129.879 5.62697 -5.96604 0
M  V30 711 O 130.269 6.87667 -5.41053 0
M  V30 712 C 130.759 4.52537 -5.39283 0
M  V30 713 C 130.049 4.20027 -4.08623 0
M  V30 714 N 130.099 2.76189 -3.71603 0
M  V30 715 C 130.019 1.66944 -4.54297 0
M  V30 716 N 130.089 0.536169 -3.91344 0
M  V30 717 C 130.239 0.901569 -2.58849 0
M  V30 718 C 130.369 0.146599 -1.40236 0
M  V30 719 N 130.379 -1.18234 -1.37046 0
M  V30 720 N 130.489 0.822941 -0.249738 0
M  V30 721 C 130.479 2.15179 -0.280525 0
M  V30 722 N 130.359 2.96414 -1.30822 0
M  V30 723 C 130.239 2.25804 -2.44748 0
M  V30 724 H 127.261 4.79756 -7.24086 0
M  V30 725 H 126.989 3.69963 -5.84682 0
M  V30 726 H 127.857 6.10431 -5.41508 0
M  V30 727 H 130.512 4.78816 -3.28024 0
M  V30 728 H 130.792 3.64957 -6.05871 0
M  V30 729 H 131.783 4.88748 -5.21323 0
M  V30 730 H 129.949 5.66789 -7.0643 0
M  V30 731 H 129.908 1.74684 -5.62396 0
M  V30 732 H 130.289 -1.71949 -2.24394 0
M  V30 733 H 130.478 -1.67511 -0.470742 0
M  V30 734 H 130.586 2.63704 0.6828 0
M  V30 735 P 131.819 7.20834 -5.23717 0
M  V30 736 O 132.039 8.66104 -5.38572 0
M  V30 737 O 132.609 6.33544 -6.1349 0
M  V30 738 O 132.069 6.7751 -3.72168 0
M  V30 739 C 131.129 7.20825 -2.7076 0
M  V30 740 C 131.859 7.45864 -1.40599 0
M  V30 741 O 132.069 6.17651 -0.734225 0
M  V30 742 C 133.259 8.05808 -1.51899 0
M  V30 743 O 133.649 8.74358 -0.335205 0
M  V30 744 C 134.139 6.83093 -1.70294 0
M  V30 745 C 133.429 5.79992 -0.836974 0
M  V30 746 N 133.479 4.41864 -1.38293 0
M  V30 747 H 130.64 8.13644 -3.0377 0
M  V30 748 H 130.37 6.42788 -2.55485 0
M  V30 749 H 131.237 8.12039 -0.792769 0
M  V30 750 P 135.199 8.91 -8.72928e-15 0
M  V30 751 O 135.419 10.1726 0.733694 0
M  V30 752 O 135.989 8.73148 -1.23936 0
M  V30 753 O 135.449 7.66872 0.971405 0
M  V30 754 C 134.509 7.42309 2.04641 0
M  V30 755 C 135.239 6.86059 3.24661 0
M  V30 756 O 135.449 5.42847 3.03646 0
M  V30 757 C 136.639 7.41196 3.50753 0
M  V30 758 O 137.029 7.27073 4.86816 0
M  V30 759 C 137.519 6.5273 2.63741 0
M  V30 760 C 136.809 5.1842 2.73198 0
M  V30 761 N 136.859 4.38762 1.4784 0
M  V30 762 H 134.02 8.36803 2.32493 0
M  V30 763 H 133.75 6.70197 1.71129 0
M  V30 764 H 134.617 7.03551 4.13168 0
M  V30 765 P 138.579 7.20834 5.23717 0
M  V30 766 O 138.799 7.7993 6.57351 0
M  V30 767 O 139.369 7.79328 4.13004 0
M  V30 768 O 138.829 5.63315 5.29344 0
M  V30 769 C 137.889 4.80193 6.01798 0
M  V30 770 C 138.619 3.64202 6.65911 0
M  V30 771 O 138.829 2.60694 5.64732 0
M  V30 772 C 140.019 3.93473 7.1943 0
M  V30 773 O 140.409 3.02071 8.21205 0
M  V30 774 C 140.899 3.73047 5.97036 0
M  V30 775 C 140.189 2.58828 5.25741 0
M  V30 776 N 140.239 2.6801 3.77422 0
M  V30 777 C 140.389 1.50443 3.07133 0
M  V30 778 O 140.479 0.419406 3.61576 0
M  V30 779 N 140.429 1.6403 1.69677 0
M  V30 780 C 140.339 2.81206 0.986255 0
M  V30 781 C 140.189 3.99158 1.80325 0
M  V30 782 C 140.139 3.89779 3.1476 0
M  V30 783 H 137.399 5.40332 6.79951 0
M  V30 784 H 137.13 4.41549 5.32301 0
M  V30 785 H 137.997 3.26331 7.47797 0
M  V30 786 H 140.652 1.6395 5.56554 0
M  V30 787 H 140.931 4.63439 5.3432 0
M  V30 788 H 141.923 3.44728 6.25838 0
M  V30 789 H 140.089 4.96652 7.57263 0
M  V30 790 H 140.018 4.80159 3.74441 0
M  V30 791 P 141.959 2.75334 8.47391 0
M  V30 792 O 142.179 2.44571 9.90142 0
M  V30 793 O 142.749 3.87688 7.92115 0
M  V30 794 O 142.209 1.4459 7.59357 0
M  V30 795 C 141.269 0.347608 7.69215 0
M  V30 796 C 141.999 -0.96767 7.52806 0
M  V30 797 O 142.209 -1.21036 6.1011 0
M  V30 798 C 143.399 -1.04544 8.13308 0
M  V30 799 O 143.789 -2.38311 8.41922 0
M  V30 800 C 144.279 -0.491279 7.02284 0
M  V30 801 C 143.569 -0.996264 5.77469 0
M  V30 802 N 143.619 -0.0501916 4.62973 0
M  V30 803 H 140.78 0.374722 8.67691 0
M  V30 804 H 140.51 0.443485 6.90277 0
M  V30 805 H 141.377 -1.75537 7.96793 0
M  V30 806 P 145.339 -2.75334 8.47391 0
M  V30 807 O 145.559 -3.84128 9.44797 0
M  V30 808 O 146.129 -1.51947 8.68712 0
M  V30 809 O 145.589 -3.29363 6.99321 0
M  V30 810 C 144.649 -4.24011 6.4274 0
M  V30 811 C 145.379 -5.20775 5.52155 0
M  V30 812 O 145.589 -4.56534 4.22446 0
M  V30 813 C 146.779 -5.62629 5.96531 0
M  V30 814 O 147.169 -6.87667 5.41053 0
M  V30 815 C 147.659 -4.52537 5.39283 0
M  V30 816 C 146.949 -4.20027 4.08623 0
M  V30 817 N 146.999 -2.76189 3.71603 0
M  V30 818 H 144.16 -4.797 7.24003 0
M  V30 819 H 143.89 -3.69856 5.84513 0
M  V30 820 H 144.757 -6.10356 5.41441 0
M  V30 821 P 148.719 -7.20834 5.23717 0
M  V30 822 O 148.939 -8.66274 5.38678 0
M  V30 823 O 149.509 -6.33687 6.13629 0
M  V30 824 O 148.969 -6.7751 3.72168 0
M  V30 825 C 148.029 -7.20919 2.70795 0
M  V30 826 C 148.759 -7.45864 1.40599 0
M  V30 827 O 148.969 -6.17751 0.734343 0
M  V30 828 C 150.159 -8.05906 1.51917 0
M  V30 829 O 150.549 -8.74358 0.335205 0
M  V30 830 C 151.039 -6.83093 1.70294 0
M  V30 831 C 150.329 -5.79992 0.836974 0
M  V30 832 N 150.379 -4.41864 1.38293 0
M  V30 833 C 150.299 -4.02089 2.69407 0
M  V30 834 N 150.369 -2.73403 2.85089 0
M  V30 835 C 150.519 -2.25086 1.5642 0
M  V30 836 C 150.649 -0.942887 1.04836 0
M  V30 837 N 150.659 0.150999 1.80369 0
M  V30 838 N 150.769 -0.812565 -0.28167 0
M  V30 839 C 150.759 -1.90572 -1.03784 0
M  V30 840 N 150.639 -3.167 -0.683905 0
M  V30 841 C 150.519 -3.26538 0.652815 0
M  V30 842 H 147.541 -8.13738 3.03804 0
M  V30 843 H 147.269 -6.42974 2.55559 0
M  V30 844 H 148.137 -8.12139 0.792866 0
M  V30 845 H 150.792 -5.80178 -0.160643 0
M  V30 846 H 151.072 -6.51379 2.75643 0
M  V30 847 H 152.063 -7.01832 1.3448 0
M  V30 848 H 150.229 -8.73771 2.38364 0
M  V30 849 H 150.188 -4.7189 3.52311 0
M  V30 850 H 150.569 0.0721434 2.82608 0
M  V30 851 H 150.758 1.0785 1.36544 0
M  V30 852 H 150.866 -1.73207 -2.10241 0
M  V30 853 P 152.099 -8.91 9.82044e-15 0
M  V30 854 O 152.319 -10.1726 -0.733694 0
M  V30 855 O 152.889 -8.73148 1.23936 0
M  V30 856 O 152.349 -7.66872 -0.971405 0
M  V30 857 C 151.409 -7.42309 -2.04641 0
M  V30 858 C 152.139 -6.86059 -3.24661 0
M  V30 859 O 152.349 -5.42847 -3.03646 0
M  V30 860 C 153.539 -7.41196 -3.50753 0
M  V30 861 O 153.929 -7.27073 -4.86816 0
M  V30 862 C 154.419 -6.5273 -2.63741 0
M  V30 863 C 153.709 -5.1842 -2.73198 0
M  V30 864 N 153.759 -4.38762 -1.4784 0
M  V30 865 H 150.92 -8.36803 -2.32493 0
M  V30 866 H 150.65 -6.70197 -1.71129 0
M  V30 867 H 151.517 -7.03551 -4.13168 0
M  V30 868 P 155.479 -7.20834 -5.23717 0
M  V30 869 O 155.699 -7.80006 -6.57415 0
M  V30 870 O 156.269 -7.79416 -4.13051 0
M  V30 871 O 155.729 -5.63315 -5.29344 0
M  V30 872 C 154.789 -4.80318 -6.01954 0
M  V30 873 C 155.519 -3.64202 -6.65911 0
M  V30 874 O 155.729 -2.60736 -5.64823 0
M  V30 875 C 156.919 -3.93521 -7.19518 0
M  V30 876 O 157.309 -3.02071 -8.21205 0
M  V30 877 C 157.799 -3.73047 -5.97036 0
M  V30 878 C 157.089 -2.58828 -5.25741 0
M  V30 879 N 157.139 -2.68068 -3.77503 0
M  V30 880 C 157.059 -3.80474 -2.99159 0
M  V30 881 N 157.129 -3.55622 -1.71925 0
M  V30 882 C 157.279 -2.1832 -1.65733 0
M  V30 883 C 157.409 -1.28842 -0.572777 0
M  V30 884 N 157.419 -1.66875 0.70098 0
M  V30 885 N 157.529 0.016788 -0.859836 0
M  V30 886 C 157.519 0.398145 -2.13316 0
M  V30 887 N 157.399 -0.328224 -3.22333 0
M  V30 888 C 157.279 -1.62992 -2.90383 0
M  V30 889 H 154.301 -5.40394 -6.8003 0
M  V30 890 H 154.029 -4.41741 -5.32532 0
M  V30 891 H 154.897 -3.26371 -7.47889 0
M  V30 892 H 157.552 -1.64007 -5.56746 0
M  V30 893 H 157.832 -4.63439 -5.3432 0
M  V30 894 H 158.823 -3.44776 -6.25925 0
M  V30 895 H 156.989 -4.96707 -7.57347 0
M  V30 896 H 156.948 -4.8089 -3.39924 0
M  V30 897 H 157.329 -2.66547 0.941919 0
M  V30 898 H 157.518 -0.965341 1.44766 0
M  V30 899 H 157.626 1.46427 -2.29697 0
M  V30 900 P 158.859 -2.75334 -8.47391 0
M  V30 901 O 159.079 -2.44571 -9.90142 0
M  V30 902 O 159.649 -3.87688 -7.92115 0
M  V30 903 O 159.109 -1.4459 -7.59357 0
M  V30 904 C 158.169 -0.347608 -7.69215 0
M  V30 905 C 158.899 0.96767 -7.52806 0
M  V30 906 O 159.109 1.21036 -6.1011 0
M  V30 907 C 160.299 1.04544 -8.13308 0
M  V30 908 O 160.689 2.38311 -8.41922 0
M  V30 909 C 161.179 0.491279 -7.02284 0
M  V30 910 C 160.469 0.996264 -5.77469 0
M  V30 911 N 160.519 0.0501916 -4.62973 0
M  V30 912 H 157.68 -0.374722 -8.67691 0
M  V30 913 H 157.41 -0.443485 -6.90277 0
M  V30 914 H 158.277 1.75537 -7.96793 0
M  V30 915 P 162.239 2.75334 -8.47391 0
M  V30 916 O 162.459 3.84166 -9.4489 0
M  V30 917 O 163.029 1.51964 -8.6881 0
M  V30 918 O 162.489 3.29363 -6.99321 0
M  V30 919 C 161.549 4.23956 -6.42656 0
M  V30 920 C 162.279 5.20775 -5.52155 0
M  V30 921 O 162.489 4.56534 -4.22446 0
M  V30 922 C 163.679 5.62629 -5.96531 0
M  V30 923 O 164.069 6.87667 -5.41053 0
M  V30 924 C 164.559 4.52537 -5.39283 0
M  V30 925 C 163.849 4.20027 -4.08623 0
M  V30 926 N 163.899 2.7613 -3.71522 0
M  V30 927 C 164.049 2.45612 -2.37989 0
M  V30 928 O 164.139 3.30919 -1.51621 0
M  V30 929 N 164.089 1.10684 -2.08435 0
M  V30 930 C 163.999 0.0690084 -2.9792 0
M  V30 931 O 164.049 -1.10553 -2.59426 0
M  V30 932 C 163.849 0.481522 -4.35345 0
M  V30 933 C 163.739 -0.618778 -5.36443 0
M  V30 934 C 163.799 1.78906 -4.67968 0
M  V30 935 H 161.059 4.797 -7.24003 0
M  V30 936 H 160.79 3.69802 -5.84429 0
M  V30 937 H 161.657 6.10356 -5.41441 0
M  V30 938 H 164.312 4.78651 -3.27911 0
M  V30 939 H 164.591 3.64957 -6.05871 0
M  V30 940 H 165.583 4.8868 -5.2125 0
M  V30 941 H 163.749 5.66726 -7.06352 0
M  V30 942 H 163.678 2.07737 -5.72367 0
M  V30 943 H 164.708 -0.754375 -5.86871 0
M  V30 944 H 162.971 -0.359721 -6.10641 0
M  V30 945 H 163.459 -1.55533 -4.8581 0
M  V30 946 H 164.195 0.862651 -1.12037 0
M  V30 947 P 165.619 7.20834 -5.23717 0
M  V30 948 O 165.839 8.66104 -5.38572 0
M  V30 949 O 166.409 6.33544 -6.1349 0
M  V30 950 O 165.869 6.7751 -3.72168 0
M  V30 951 C 164.929 7.20825 -2.7076 0
M  V30 952 C 165.659 7.45864 -1.40599 0
M  V30 953 O 165.869 6.17651 -0.734225 0
M  V30 954 C 167.059 8.05808 -1.51899 0
M  V30 955 O 167.449 8.74358 -0.335205 0
M  V30 956 C 167.939 6.83093 -1.70294 0
M  V30 957 C 167.229 5.79992 -0.836974 0
M  V30 958 N 167.279 4.41864 -1.38293 0
M  V30 959 C 167.199 3.99538 -2.69438 0
M  V30 960 N 167.279 2.69909 -2.84277 0
M  V30 961 C 167.419 2.21719 -1.5408 0
M  V30 962 C 167.549 0.891712 -1.06628 0
M  V30 963 N 167.669 0.856846 0.334985 0
M  V30 964 C 167.669 1.9641 1.15789 0
M  V30 965 N 167.799 1.72708 2.46522 0
M  V30 966 N 167.539 3.21165 0.713741 0
M  V30 967 C 167.419 3.26797 -0.639748 0
M  V30 968 H 164.44 8.13644 -3.0377 0
M  V30 969 H 164.17 6.42788 -2.55485 0
M  V30 970 H 165.037 8.12039 -0.792769 0
M  V30 971 P 168.999 8.91 -1.09116e-14 0
M  V30 972 O 169.219 10.1726 0.733694 0
M  V30 973 O 169.789 8.73148 -1.23936 0
M  V30 974 O 169.249 7.66872 0.971405 0
M  V30 975 C 168.309 7.42309 2.04641 0
M  V30 976 C 169.039 6.86059 3.24661 0
M  V30 977 O 169.249 5.42847 3.03646 0
M  V30 978 C 170.439 7.41196 3.50753 0
M  V30 979 O 170.829 7.27073 4.86816 0
M  V30 980 C 171.319 6.5273 2.63741 0
M  V30 981 C 170.609 5.1842 2.73198 0
M  V30 982 N 170.659 4.38762 1.4784 0
M  V30 983 H 167.82 8.36803 2.32493 0
M  V30 984 H 167.55 6.70197 1.71129 0
M  V30 985 H 168.417 7.03551 4.13168 0
M  V30 986 P 172.379 7.20834 5.23717 0
M  V30 987 O 172.599 7.79853 6.57286 0
M  V30 988 O 173.169 7.79239 4.12957 0
M  V30 989 O 172.629 5.63315 5.29344 0
M  V30 990 C 171.689 4.80255 6.01876 0
M  V30 991 C 172.419 3.64202 6.65911 0
M  V30 992 O 172.629 2.60694 5.64732 0
M  V30 993 C 173.819 3.93473 7.1943 0
M  V30 994 O 174.209 3.02071 8.21205 0
M  V30 995 C 174.699 3.73047 5.97036 0
M  V30 996 C 173.989 2.58828 5.25741 0
M  V30 997 N 174.039 2.68068 3.77503 0
M  V30 998 H 171.2 5.40332 6.79951 0
M  V30 999 H 170.93 4.41613 5.32378 0
M  V30 1000 H 171.797 3.26331 7.47797 0
M  V30 1001 P 175.759 2.75334 8.47391 0
M  V30 1002 O 175.979 2.44571 9.90142 0
M  V30 1003 O 176.549 3.87688 7.92115 0
M  V30 1004 O 176.009 1.4459 7.59357 0
M  V30 1005 C 175.069 0.347608 7.69215 0
M  V30 1006 C 175.799 -0.96767 7.52806 0
M  V30 1007 O 176.009 -1.21036 6.1011 0
M  V30 1008 C 177.199 -1.04544 8.13308 0
M  V30 1009 O 177.589 -2.38311 8.41922 0
M  V30 1010 C 178.079 -0.491279 7.02284 0
M  V30 1011 C 177.369 -0.996264 5.77469 0
M  V30 1012 N 177.419 -0.0501916 4.62973 0
M  V30 1013 H 174.58 0.374722 8.67691 0
M  V30 1014 H 174.31 0.443485 6.90277 0
M  V30 1015 H 175.177 -1.75537 7.96793 0
M  V30 1016 P 179.139 -2.75334 8.47391 0
M  V30 1017 O 179.359 -3.84204 9.44982 0
M  V30 1018 O 179.929 -1.51982 8.68909 0
M  V30 1019 O 179.389 -3.29363 6.99321 0
M  V30 1020 C 178.449 -4.24066 6.42823 0
M  V30 1021 C 179.179 -5.20775 5.52155 0
M  V30 1022 O 179.389 -4.56607 4.22514 0
M  V30 1023 C 180.579 -5.62697 5.96604 0
M  V30 1024 O 180.969 -6.87667 5.41053 0
M  V30 1025 C 181.459 -4.52537 5.39283 0
M  V30 1026 C 180.749 -4.20027 4.08623 0
M  V30 1027 N 180.799 -2.76189 3.71603 0
M  V30 1028 H 177.961 -4.79756 7.24086 0
M  V30 1029 H 177.689 -3.69963 5.84682 0
M  V30 1030 H 178.557 -6.10431 5.41508 0
M  V30 1031 H 181.212 -4.78816 3.28024 0
M  V30 1032 H 181.492 -3.64957 6.05871 0
M  V30 1033 H 182.483 -4.88748 5.21323 0
M  V30 1034 H 180.649 -5.66789 7.0643 0
M  V30 1035 P 182.519 -7.20834 5.23717 0
M  V30 1036 O 182.739 -8.66104 5.38572 0
M  V30 1037 O 183.309 -6.33544 6.1349 0
M  V30 1038 O 182.769 -6.7751 3.72168 0
M  V30 1039 C 181.829 -7.20825 2.7076 0
M  V30 1040 C 182.559 -7.45864 1.40599 0
M  V30 1041 O 182.769 -6.17651 0.734225 0
M  V30 1042 C 183.959 -8.05808 1.51899 0
M  V30 1043 O 184.349 -8.74358 0.335205 0
M  V30 1044 C 184.839 -6.83093 1.70294 0
M  V30 1045 C 184.129 -5.79992 0.836974 0
M  V30 1046 N 184.179 -4.41864 1.38293 0
M  V30 1047 H 181.34 -8.13644 3.0377 0
M  V30 1048 H 181.07 -6.42788 2.55485 0
M  V30 1049 H 181.937 -8.12039 0.792769 0
M  V30 1050 P 185.899 -8.91 -8.29613e-14 0
M  V30 1051 O 186.119 -10.1726 -0.733694 0
M  V30 1052 O 186.689 -8.73148 1.23936 0
M  V30 1053 O 186.149 -7.66872 -0.971405 0
M  V30 1054 C 185.209 -7.42309 -2.04641 0
M  V30 1055 C 185.939 -6.86059 -3.24661 0
M  V30 1056 O 186.149 -5.42847 -3.03646 0
M  V30 1057 C 187.339 -7.41196 -3.50753 0
M  V30 1058 O 187.729 -7.27073 -4.86816 0
M  V30 1059 C 188.219 -6.5273 -2.63741 0
M  V30 1060 C 187.509 -5.1842 -2.73198 0
M  V30 1061 N 187.559 -4.38762 -1.4784 0
M  V30 1062 H 184.72 -8.36803 -2.32493 0
M  V30 1063 H 184.45 -6.70197 -1.71129 0
M  V30 1064 H 185.317 -7.03551 -4.13168 0
M  V30 1065 P 189.279 -7.20834 -5.23717 0
M  V30 1066 O 189.499 -7.79853 -6.57286 0
M  V30 1067 O 190.069 -7.79239 -4.12957 0
M  V30 1068 O 189.529 -5.63315 -5.29344 0
M  V30 1069 C 188.589 -4.80255 -6.01876 0
M  V30 1070 C 189.319 -3.64202 -6.65911 0
M  V30 1071 O 189.529 -2.60694 -5.64732 0
M  V30 1072 C 190.719 -3.93473 -7.1943 0
M  V30 1073 O 191.109 -3.02071 -8.21205 0
M  V30 1074 C 191.599 -3.73047 -5.97036 0
M  V30 1075 C 190.889 -2.58828 -5.25741 0
M  V30 1076 N 190.939 -2.68068 -3.77503 0
M  V30 1077 H 188.1 -5.40332 -6.79951 0
M  V30 1078 H 187.83 -4.41613 -5.32378 0
M  V30 1079 H 188.697 -3.26331 -7.47797 0
M  V30 1080 P 192.659 -2.75334 -8.47391 0
M  V30 1081 O 192.879 -2.44571 -9.90142 0
M  V30 1082 O 193.449 -3.87688 -7.92115 0
M  V30 1083 O 192.909 -1.4459 -7.59357 0
M  V30 1084 C 191.969 -0.347608 -7.69215 0
M  V30 1085 C 192.699 0.96767 -7.52806 0
M  V30 1086 O 192.909 1.21036 -6.1011 0
M  V30 1087 C 194.099 1.04544 -8.13308 0
M  V30 1088 O 194.489 2.38311 -8.41922 0
M  V30 1089 C 194.979 0.491279 -7.02284 0
M  V30 1090 C 194.269 0.996264 -5.77469 0
M  V30 1091 N 194.319 0.0501916 -4.62973 0
M  V30 1092 H 191.48 -0.374722 -8.67691 0
M  V30 1093 H 191.21 -0.443485 -6.90277 0
M  V30 1094 H 192.077 1.75537 -7.96793 0
M  V30 1095 P 196.039 2.75334 -8.47391 0
M  V30 1096 O 196.259 3.84128 -9.44797 0
M  V30 1097 O 196.829 1.51947 -8.68712 0
M  V30 1098 O 196.289 3.29363 -6.99321 0
M  V30 1099 C 195.349 4.24011 -6.4274 0
M  V30 1100 C 196.079 5.20775 -5.52155 0
M  V30 1101 O 196.289 4.56534 -4.22446 0
M  V30 1102 C 197.479 5.62629 -5.96531 0
M  V30 1103 O 197.869 6.87667 -5.41053 0
M  V30 1104 C 198.359 4.52537 -5.39283 0
M  V30 1105 C 197.649 4.20027 -4.08623 0
M  V30 1106 N 197.699 2.76189 -3.71603 0
M  V30 1107 H 194.86 4.797 -7.24003 0
M  V30 1108 H 194.59 3.69856 -5.84513 0
M  V30 1109 H 195.457 6.10356 -5.41441 0
M  V30 1110 P 199.419 7.20834 -5.23717 0
M  V30 1111 O 199.639 8.66104 -5.38572 0
M  V30 1112 O 200.209 6.33544 -6.1349 0
M  V30 1113 O 199.669 6.7751 -3.72168 0
M  V30 1114 C 198.729 7.20825 -2.7076 0
M  V30 1115 C 199.459 7.45864 -1.40599 0
M  V30 1116 O 199.669 6.17651 -0.734225 0
M  V30 1117 C 200.859 8.05808 -1.51899 0
M  V30 1118 O 201.249 8.74358 -0.335205 0
M  V30 1119 C 201.739 6.83093 -1.70294 0
M  V30 1120 C 201.029 5.79992 -0.836974 0
M  V30 1121 N 201.079 4.41864 -1.38293 0
M  V30 1122 C 200.999 3.99538 -2.69438 0
M  V30 1123 N 201.079 2.69909 -2.84277 0
M  V30 1124 C 201.219 2.21719 -1.5408 0
M  V30 1125 C 201.349 0.891712 -1.06628 0
M  V30 1126 N 201.469 0.856846 0.334985 0
M  V30 1127 C 201.469 1.9641 1.15789 0
M  V30 1128 N 201.599 1.72708 2.46522 0
M  V30 1129 N 201.339 3.21165 0.713741 0
M  V30 1130 C 201.219 3.26797 -0.639748 0
M  V30 1131 H 198.24 8.13644 -3.0377 0
M  V30 1132 H 197.97 6.42788 -2.55485 0
M  V30 1133 H 198.837 8.12039 -0.792769 0
M  V30 1134 P 202.799 8.91 2.40144e-13 0
M  V30 1135 O 203.019 10.1726 0.733694 0
M  V30 1136 O 203.589 8.73148 -1.23936 0
M  V30 1137 O 203.049 7.66872 0.971405 0
M  V30 1138 C 202.109 7.42309 2.04641 0
M  V30 1139 C 202.839 6.86059 3.24661 0
M  V30 1140 O 203.049 5.42847 3.03646 0
M  V30 1141 C 204.239 7.41196 3.50753 0
M  V30 1142 O 204.629 7.27073 4.86816 0
M  V30 1143 C 205.119 6.5273 2.63741 0
M  V30 1144 C 204.409 5.1842 2.73198 0
M  V30 1145 N 204.459 4.38762 1.4784 0
M  V30 1146 C 204.379 4.81605 0.168631 0
M  V30 1147 N 204.459 3.85454 -0.713363 0
M  V30 1148 C 204.599 2.6994 0.0566958 0
M  V30 1149 C 204.729 1.34815 -0.338502 0
M  V30 1150 O 204.749 0.869548 -1.47125 0
M  V30 1151 N 204.849 0.496304 0.77465 0
M  V30 1152 C 204.849 0.908403 2.09122 0
M  V30 1153 N 204.979 -0.0517805 3.00955 0
M  V30 1154 N 204.719 2.17875 2.46519 0
M  V30 1155 C 204.599 3.01988 1.4033 0
M  V30 1156 H 201.62 8.36803 2.32493 0
M  V30 1157 H 201.35 6.70197 1.71129 0
M  V30 1158 H 202.217 7.03551 4.13168 0
M  V30 1159 H 204.872 4.59498 3.54415 0
M  V30 1160 H 205.151 6.88898 1.59848 0
M  V30 1161 H 206.143 6.46749 3.03687 0
M  V30 1162 H 204.309 8.46908 3.20714 0
M  V30 1163 H 204.26 5.86405 -0.105564 0
M  V30 1164 H 204.942 -0.483664 0.597855 0
M  V30 1165 H 204.979 0.187865 4.0116 0
M  V30 1166 H 205.08 -1.03585 2.71726 0
M  V30 1167 P 206.179 7.20834 5.23717 0
M  V30 1168 O 206.399 7.79853 6.57286 0
M  V30 1169 O 206.969 7.79239 4.12957 0
M  V30 1170 O 206.429 5.63315 5.29344 0
M  V30 1171 C 205.489 4.80255 6.01876 0
M  V30 1172 C 206.219 3.64202 6.65911 0
M  V30 1173 O 206.429 2.60694 5.64732 0
M  V30 1174 C 207.619 3.93473 7.1943 0
M  V30 1175 O 208.009 3.02071 8.21205 0
M  V30 1176 C 208.499 3.73047 5.97036 0
M  V30 1177 C 207.789 2.58828 5.25741 0
M  V30 1178 N 207.839 2.68068 3.77503 0
M  V30 1179 H 205 5.40332 6.79951 0
M  V30 1180 H 204.73 4.41613 5.32378 0
M  V30 1181 H 205.597 3.26331 7.47797 0
M  V30 1182 P 209.559 2.75334 8.47391 0
M  V30 1183 O 209.779 2.44595 9.90239 0
M  V30 1184 O 210.349 3.87732 7.92204 0
M  V30 1185 O 209.809 1.4459 7.59357 0
M  V30 1186 C 208.869 0.347608 7.69215 0
M  V30 1187 C 209.599 -0.96767 7.52806 0
M  V30 1188 O 209.809 -1.21036 6.1011 0
M  V30 1189 C 210.999 -1.04544 8.13308 0
M  V30 1190 O 211.389 -2.38311 8.41922 0
M  V30 1191 C 211.879 -0.491279 7.02284 0
M  V30 1192 C 211.169 -0.996264 5.77469 0
M  V30 1193 N 211.219 -0.0501808 4.62873 0
M  V30 1194 C 211.369 -0.578037 3.3505 0
M  V30 1195 O 211.459 -1.8073 3.21711 0
M  V30 1196 N 211.419 0.468541 2.263 0
M  V30 1197 C 211.319 1.59186 2.47176 0
M  V30 1198 N 211.369 2.37626 1.40392 0
M  V30 1199 C 211.169 2.16203 3.77467 0
M  V30 1200 C 211.119 1.29324 4.8195 0
M  V30 1201 H 208.379 0.374679 8.67591 0
M  V30 1202 H 208.11 0.443421 6.90177 0
M  V30 1203 H 208.977 -1.75559 7.96891 0
M  V30 1204 H 211.632 -1.94529 5.46723 0
M  V30 1205 H 211.911 0.608651 7.04676 0
M  V30 1206 H 212.903 -0.889672 7.08939 0
M  V30 1207 H 211.069 -0.43308 9.04564 0
M  V30 1208 H 210.997 1.67758 5.83046 0
M  V30 1209 H 211.099 3.23869 3.92281 0
M  V30 1210 H 211.487 1.96317 0.467202 0
M  V30 1211 H 211.29 3.39693 1.51142 0
M  V30 1212 P 212.939 -2.75334 8.47391 0
M  V30 1213 O 213.159 -3.84128 9.44797 0
M  V30 1214 O 213.729 -1.51947 8.68712 0
M  V30 1215 O 213.189 -3.29363 6.99321 0
M  V30 1216 C 212.249 -4.24011 6.4274 0
M  V30 1217 C 212.979 -5.20775 5.52155 0
M  V30 1218 O 213.189 -4.56534 4.22446 0
M  V30 1219 C 214.379 -5.62629 5.96531 0
M  V30 1220 O 214.769 -6.87667 5.41053 0
M  V30 1221 C 215.259 -4.52537 5.39283 0
M  V30 1222 C 214.549 -4.20027 4.08623 0
M  V30 1223 N 214.599 -2.76189 3.71603 0
M  V30 1224 C 214.519 -1.64862 4.52822 0
M  V30 1225 N 214.599 -0.512671 3.88633 0
M  V30 1226 C 214.739 -0.888083 2.54977 0
M  V30 1227 C 214.869 -0.094668 1.38677 0
M  V30 1228 O 214.889 1.13053 1.28163 0
M  V30 1229 N 214.989 -0.890102 0.232633 0
M  V30 1230 C 214.989 -2.26958 0.21772 0
M  V30 1231 N 215.119 -2.84626 -0.97925 0
M  V30 1232 N 214.859 -3.0178 1.31033 0
M  V30 1233 C 214.739 -2.26781 2.43843 0
M  V30 1234 H 211.76 -4.797 7.24003 0
M  V30 1235 H 211.49 -3.69856 5.84513 0
M  V30 1236 H 212.357 -6.10356 5.41441 0
M  V30 1237 H 215.012 -4.79061 3.27488 0
M  V30 1238 H 215.291 -3.64906 6.05785 0
M  V30 1239 H 216.283 -4.8868 5.2125 0
M  V30 1240 H 214.449 -5.66726 7.06352 0
M  V30 1241 H 214.4 -1.71169 5.60966 0
M  V30 1242 H 215.082 -0.419134 -0.644739 0
M  V30 1243 H 215.119 -3.87332 -1.06098 0
M  V30 1244 H 215.22 -2.26417 -1.82483 0
M  V30 1245 P 216.319 -7.20834 5.23717 0
M  V30 1246 O 216.539 -8.66104 5.38572 0
M  V30 1247 O 217.109 -6.33544 6.1349 0
M  V30 1248 O 216.569 -6.7751 3.72168 0
M  V30 1249 C 215.629 -7.20825 2.7076 0
M  V30 1250 C 216.359 -7.45864 1.40599 0
M  V30 1251 O 216.569 -6.17651 0.734225 0
M  V30 1252 C 217.759 -8.05808 1.51899 0
M  V30 1253 O 218.149 -8.74358 0.335205 0
M  V30 1254 C 218.639 -6.83093 1.70294 0
M  V30 1255 C 217.929 -5.79992 0.836974 0
M  V30 1256 N 217.979 -4.41864 1.38293 0
M  V30 1257 H 215.14 -8.13644 3.0377 0
M  V30 1258 H 214.87 -6.42788 2.55485 0
M  V30 1259 H 215.737 -8.12039 0.792769 0
M  V30 1260 P 219.699 -8.91 -3.97326e-13 0
M  V30 1261 O 219.919 -10.1726 -0.733694 0
M  V30 1262 O 220.489 -8.73148 1.23936 0
M  V30 1263 O 219.949 -7.66872 -0.971405 0
M  V30 1264 C 219.009 -7.42309 -2.04641 0
M  V30 1265 C 219.739 -6.86059 -3.24661 0
M  V30 1266 O 219.949 -5.42847 -3.03646 0
M  V30 1267 C 221.139 -7.41196 -3.50753 0
M  V30 1268 O 221.529 -7.27073 -4.86816 0
M  V30 1269 C 222.019 -6.5273 -2.63741 0
M  V30 1270 C 221.309 -5.1842 -2.73198 0
M  V30 1271 N 221.359 -4.38762 -1.4784 0
M  V30 1272 H 218.52 -8.36803 -2.32493 0
M  V30 1273 H 218.25 -6.70197 -1.71129 0
M  V30 1274 H 219.117 -7.03551 -4.13168 0
M  V30 1275 P 223.079 -7.20834 -5.23717 0
M  V30 1276 O 223.299 -7.79853 -6.57286 0
M  V30 1277 O 223.869 -7.79239 -4.12957 0
M  V30 1278 O 223.329 -5.63315 -5.29344 0
M  V30 1279 C 222.389 -4.80255 -6.01876 0
M  V30 1280 C 223.119 -3.64202 -6.65911 0
M  V30 1281 O 223.329 -2.60694 -5.64732 0
M  V30 1282 C 224.519 -3.93473 -7.1943 0
M  V30 1283 O 224.909 -3.02071 -8.21205 0
M  V30 1284 C 225.399 -3.73047 -5.97036 0
M  V30 1285 C 224.689 -2.58828 -5.25741 0
M  V30 1286 N 224.739 -2.68068 -3.77503 0
M  V30 1287 H 221.9 -5.40332 -6.79951 0
M  V30 1288 H 221.63 -4.41613 -5.32378 0
M  V30 1289 H 222.497 -3.26331 -7.47797 0
M  V30 1290 P 226.459 -2.75334 -8.47391 0
M  V30 1291 O 226.679 -2.44619 -9.90336 0
M  V30 1292 O 227.249 -3.87776 -7.92294 0
M  V30 1293 O 226.709 -1.4459 -7.59357 0
M  V30 1294 C 225.769 -0.347653 -7.69315 0
M  V30 1295 C 226.499 0.96767 -7.52806 0
M  V30 1296 O 226.709 1.21055 -6.10208 0
M  V30 1297 C 227.899 1.04557 -8.13408 0
M  V30 1298 O 228.289 2.38311 -8.41922 0
M  V30 1299 C 228.779 0.491279 -7.02284 0
M  V30 1300 C 228.069 0.996264 -5.77469 0
M  V30 1301 N 228.119 0.0501916 -4.62973 0
M  V30 1302 C 228.039 -1.31969 -4.65661 0
M  V30 1303 N 228.109 -1.86649 -3.48119 0
M  V30 1304 C 228.259 -0.792089 -2.62406 0
M  V30 1305 C 228.389 -0.705684 -1.2207 0
M  V30 1306 N 228.399 -1.76207 -0.413762 0
M  V30 1307 N 228.509 0.518981 -0.685754 0
M  V30 1308 C 228.499 1.57595 -1.49174 0
M  V30 1309 N 228.379 1.62909 -2.80066 0
M  V30 1310 C 228.259 0.388195 -3.3073 0
M  V30 1311 H 225.281 -0.374765 -8.67791 0
M  V30 1312 H 225.009 -0.443613 -6.90476 0
M  V30 1313 H 225.877 1.75559 -7.96891 0
M  V30 1314 H 228.532 1.94563 -5.46818 0
M  V30 1315 H 228.812 -0.608651 -7.04676 0
M  V30 1316 H 229.803 0.889796 -7.09039 0
M  V30 1317 H 227.969 0.433128 -9.04664 0
M  V30 1318 H 227.928 -1.89246 -5.57664 0
M  V30 1319 H 228.309 -2.71005 -0.804694 0
M  V30 1320 H 228.498 -1.63189 0.603768 0
M  V30 1321 H 228.606 2.53475 -0.997614 0
M  V30 1322 P 229.839 2.75334 -8.47391 0
M  V30 1323 O 230.059 3.84204 -9.44982 0
M  V30 1324 O 230.629 1.51982 -8.68909 0
M  V30 1325 O 230.089 3.29363 -6.99321 0
M  V30 1326 C 229.149 4.24066 -6.42823 0
M  V30 1327 C 229.879 5.20775 -5.52155 0
M  V30 1328 O 230.089 4.56607 -4.22514 0
M  V30 1329 C 231.279 5.62697 -5.96604 0
M  V30 1330 O 231.669 6.87667 -5.41053 0
M  V30 1331 C 232.159 4.52537 -5.39283 0
M  V30 1332 C 231.449 4.20027 -4.08623 0
M  V30 1333 N 231.499 2.76189 -3.71603 0
M  V30 1334 H 228.661 4.79756 -7.24086 0
M  V30 1335 H 228.389 3.69963 -5.84682 0
M  V30 1336 H 229.257 6.10431 -5.41508 0
M  V30 1337 H 231.912 4.78816 -3.28024 0
M  V30 1338 H 232.192 3.64957 -6.05871 0
M  V30 1339 H 233.183 4.88748 -5.21323 0
M  V30 1340 H 231.349 5.66789 -7.0643 0
M  V30 1341 P 233.219 7.20834 -5.23717 0
M  V30 1342 O 233.439 8.66274 -5.38678 0
M  V30 1343 O 234.009 6.33687 -6.13629 0
M  V30 1344 O 233.469 6.7751 -3.72168 0
M  V30 1345 C 232.529 7.20919 -2.70795 0
M  V30 1346 C 233.259 7.45864 -1.40599 0
M  V30 1347 O 233.469 6.17751 -0.734343 0
M  V30 1348 C 234.659 8.05906 -1.51917 0
M  V30 1349 O 235.049 8.74358 -0.335205 0
M  V30 1350 C 235.539 6.83093 -1.70294 0
M  V30 1351 C 234.829 5.79992 -0.836974 0
M  V30 1352 N 234.879 4.41864 -1.38293 0
M  V30 1353 C 234.799 4.02089 -2.69407 0
M  V30 1354 N 234.869 2.73403 -2.85089 0
M  V30 1355 C 235.019 2.25086 -1.5642 0
M  V30 1356 C 235.149 0.942887 -1.04836 0
M  V30 1357 N 235.159 -0.150999 -1.80369 0
M  V30 1358 N 235.269 0.812565 0.28167 0
M  V30 1359 C 235.259 1.90572 1.03784 0
M  V30 1360 N 235.139 3.167 0.683905 0
M  V30 1361 C 235.019 3.26538 -0.652815 0
M  V30 1362 H 232.041 8.13738 -3.03804 0
M  V30 1363 H 231.769 6.42974 -2.55559 0
M  V30 1364 H 232.637 8.12139 -0.792866 0
M  V30 1365 H 235.292 5.80178 0.160643 0
M  V30 1366 H 235.572 6.51379 -2.75643 0
M  V30 1367 H 236.563 7.01832 -1.3448 0
M  V30 1368 H 234.729 8.73771 -2.38364 0
M  V30 1369 H 234.688 4.7189 -3.52311 0
M  V30 1370 H 235.069 -0.0721434 -2.82608 0
M  V30 1371 H 235.258 -1.0785 -1.36544 0
M  V30 1372 H 235.366 1.73207 2.10241 0
M  V30 1373 P 236.599 8.91 5.54508e-13 0
M  V30 1374 O 236.819 10.1726 0.733694 0
M  V30 1375 O 237.389 8.73148 -1.23936 0
M  V30 1376 O 236.849 7.66872 0.971405 0
M  V30 1377 C 235.909 7.42309 2.04641 0
M  V30 1378 C 236.639 6.86059 3.24661 0
M  V30 1379 O 236.849 5.42847 3.03646 0
M  V30 1380 C 238.039 7.41196 3.50753 0
M  V30 1381 O 238.429 7.27073 4.86816 0
M  V30 1382 C 238.919 6.5273 2.63741 0
M  V30 1383 C 238.209 5.1842 2.73198 0
M  V30 1384 N 238.259 4.38762 1.4784 0
M  V30 1385 H 235.42 8.36803 2.32493 0
M  V30 1386 H 235.15 6.70197 1.71129 0
M  V30 1387 H 236.017 7.03551 4.13168 0
M  V30 1388 P 239.979 7.20834 5.23717 0
M  V30 1389 O 240.199 7.7993 6.57351 0
M  V30 1390 O 240.769 7.79328 4.13004 0
M  V30 1391 O 240.229 5.63315 5.29344 0
M  V30 1392 C 239.289 4.80193 6.01798 0
M  V30 1393 C 240.019 3.64202 6.65911 0
M  V30 1394 O 240.229 2.60694 5.64732 0
M  V30 1395 C 241.419 3.93473 7.1943 0
M  V30 1396 O 241.809 3.02071 8.21205 0
M  V30 1397 C 242.299 3.73047 5.97036 0
M  V30 1398 C 241.589 2.58828 5.25741 0
M  V30 1399 N 241.639 2.6801 3.77422 0
M  V30 1400 C 241.789 1.50443 3.07133 0
M  V30 1401 O 241.879 0.419406 3.61576 0
M  V30 1402 N 241.829 1.6403 1.69677 0
M  V30 1403 C 241.739 2.81206 0.986255 0
M  V30 1404 C 241.589 3.99158 1.80325 0
M  V30 1405 C 241.539 3.89779 3.1476 0
M  V30 1406 H 238.799 5.40332 6.79951 0
M  V30 1407 H 238.53 4.41549 5.32301 0
M  V30 1408 H 239.397 3.26331 7.47797 0
M  V30 1409 H 242.052 1.6395 5.56554 0
M  V30 1410 H 242.331 4.63439 5.3432 0
M  V30 1411 H 243.323 3.44728 6.25838 0
M  V30 1412 H 241.489 4.96652 7.57263 0
M  V30 1413 H 241.418 4.80159 3.74441 0
M  V30 1414 P 243.359 2.75334 8.47391 0
M  V30 1415 O 243.579 2.44571 9.90142 0
M  V30 1416 O 244.149 3.87688 7.92115 0
M  V30 1417 O 243.609 1.4459 7.59357 0
M  V30 1418 C 242.669 0.347608 7.69215 0
M  V30 1419 C 243.399 -0.96767 7.52806 0
M  V30 1420 O 243.609 -1.21036 6.1011 0
M  V30 1421 C 244.799 -1.04544 8.13308 0
M  V30 1422 O 245.189 -2.38311 8.41922 0
M  V30 1423 C 245.679 -0.491279 7.02284 0
M  V30 1424 C 244.969 -0.996264 5.77469 0
M  V30 1425 N 245.019 -0.0501916 4.62973 0
M  V30 1426 H 242.18 0.374722 8.67691 0
M  V30 1427 H 241.91 0.443485 6.90277 0
M  V30 1428 H 242.777 -1.75537 7.96793 0
M  V30 1429 P 246.739 -2.75334 8.47391 0
M  V30 1430 O 246.959 -3.84128 9.44797 0
M  V30 1431 O 247.529 -1.51947 8.68712 0
M  V30 1432 O 246.989 -3.29363 6.99321 0
M  V30 1433 C 246.049 -4.24011 6.4274 0
M  V30 1434 C 246.779 -5.20775 5.52155 0
M  V30 1435 O 246.989 -4.56534 4.22446 0
M  V30 1436 C 248.179 -5.62629 5.96531 0
M  V30 1437 O 248.569 -6.87667 5.41053 0
M  V30 1438 C 249.059 -4.52537 5.39283 0
M  V30 1439 C 248.349 -4.20027 4.08623 0
M  V30 1440 N 248.399 -2.76189 3.71603 0
M  V30 1441 H 245.56 -4.797 7.24003 0
M  V30 1442 H 245.29 -3.69856 5.84513 0
M  V30 1443 H 246.157 -6.10356 5.41441 0
M  V30 1444 P 250.119 -7.20834 5.23717 0
M  V30 1445 O 250.339 -8.66189 5.38625 0
M  V30 1446 O 250.909 -6.33615 6.1356 0
M  V30 1447 O 250.369 -6.7751 3.72168 0
M  V30 1448 C 249.429 -7.20732 2.70725 0
M  V30 1449 C 250.159 -7.45864 1.40599 0
M  V30 1450 O 250.369 -6.17651 0.734225 0
M  V30 1451 C 251.559 -8.05808 1.51899 0
M  V30 1452 O 251.949 -8.74358 0.335205 0
M  V30 1453 C 252.439 -6.83093 1.70294 0
M  V30 1454 C 251.729 -5.79992 0.836974 0
M  V30 1455 N 251.779 -4.41769 1.38263 0
M  V30 1456 C 251.929 -3.38591 0.481702 0
M  V30 1457 O 252.019 -3.56839 -0.718452 0
M  V30 1458 N 251.969 -2.1206 1.03569 0
M  V30 1459 C 251.879 -1.80696 2.36966 0
M  V30 1460 O 251.929 -0.630473 2.74862 0
M  V30 1461 C 251.729 -2.94845 3.23898 0
M  V30 1462 C 251.619 -2.65253 4.70362 0
M  V30 1463 C 251.679 -4.19803 2.73435 0
M  V30 1464 H 248.939 -8.13644 3.0377 0
M  V30 1465 H 248.67 -6.42695 2.55448 0
M  V30 1466 H 249.537 -8.12039 0.792769 0
M  V30 1467 H 252.192 -5.79978 -0.160587 0
M  V30 1468 H 252.471 -6.51379 2.75643 0
M  V30 1469 H 253.463 -7.01734 1.34462 0
M  V30 1470 H 251.629 -8.73674 2.38337 0
M  V30 1471 H 251.558 -5.04492 3.4095 0
M  V30 1472 H 252.588 -2.83924 5.1913 0
M  V30 1473 H 250.851 -3.29824 5.15163 0
M  V30 1474 H 251.339 -1.59723 4.84449 0
M  V30 1475 H 252.075 -1.35644 0.399345 0
M  V30 1476 P 253.498 -8.91 -7.1169e-13 0
M  V30 1477 O 253.718 -10.1726 -0.733694 0
M  V30 1478 O 254.288 -8.73148 1.23936 0
M  V30 1479 O 253.748 -7.66872 -0.971405 0
M  V30 1480 C 252.808 -7.42309 -2.04641 0
M  V30 1481 C 253.538 -6.86059 -3.24661 0
M  V30 1482 O 253.748 -5.42847 -3.03646 0
M  V30 1483 C 254.938 -7.41196 -3.50753 0
M  V30 1484 O 255.328 -7.27073 -4.86816 0
M  V30 1485 C 255.818 -6.5273 -2.63741 0
M  V30 1486 C 255.108 -5.1842 -2.73198 0
M  V30 1487 N 255.158 -4.38762 -1.4784 0
M  V30 1488 C 255.078 -4.81605 -0.168631 0
M  V30 1489 N 255.158 -3.85454 0.713363 0
M  V30 1490 C 255.298 -2.6994 -0.0566958 0
M  V30 1491 C 255.428 -1.34815 0.338502 0
M  V30 1492 O 255.448 -0.869548 1.47125 0
M  V30 1493 N 255.548 -0.496304 -0.77465 0
M  V30 1494 C 255.548 -0.908403 -2.09122 0
M  V30 1495 N 255.678 0.0517805 -3.00955 0
M  V30 1496 N 255.418 -2.17875 -2.46519 0
M  V30 1497 C 255.298 -3.01988 -1.4033 0
M  V30 1498 H 252.319 -8.36803 -2.32493 0
M  V30 1499 H 252.049 -6.70197 -1.71129 0
M  V30 1500 H 252.916 -7.03551 -4.13168 0
M  V30 1501 H 255.571 -4.59498 -3.54415 0
M  V30 1502 H 255.85 -6.88898 -1.59848 0
M  V30 1503 H 256.842 -6.46749 -3.03687 0
M  V30 1504 H 255.008 -8.46908 -3.20714 0
M  V30 1505 H 254.959 -5.86405 0.105564 0
M  V30 1506 H 255.641 0.483664 -0.597855 0
M  V30 1507 H 255.678 -0.187865 -4.0116 0
M  V30 1508 H 255.779 1.03585 -2.71726 0
M  V30 1509 P 256.878 -7.20834 -5.23717 0
M  V30 1510 O 257.098 -7.79853 -6.57286 0
M  V30 1511 O 257.668 -7.79239 -4.12957 0
M  V30 1512 O 257.128 -5.63315 -5.29344 0
M  V30 1513 C 256.188 -4.80255 -6.01876 0
M  V30 1514 C 256.918 -3.64202 -6.65911 0
M  V30 1515 O 257.128 -2.60694 -5.64732 0
M  V30 1516 C 258.318 -3.93473 -7.1943 0
M  V30 1517 O 258.708 -3.02071 -8.21205 0
M  V30 1518 C 259.198 -3.73047 -5.97036 0
M  V30 1519 C 258.488 -2.58828 -5.25741 0
M  V30 1520 N 258.538 -2.68068 -3.77503 0
M  V30 1521 H 255.699 -5.40332 -6.79951 0
M  V30 1522 H 255.429 -4.41613 -5.32378 0
M  V30 1523 H 256.296 -3.26331 -7.47797 0
M  V30 1524 P 260.258 -2.75334 -8.47391 0
M  V30 1525 O 260.478 -2.44571 -9.90142 0
M  V30 1526 O 261.048 -3.87688 -7.92115 0
M  V30 1527 O 260.508 -1.4459 -7.59357 0
M  V30 1528 C 259.568 -0.347608 -7.69215 0
M  V30 1529 C 260.298 0.96767 -7.52806 0
M  V30 1530 O 260.508 1.21036 -6.1011 0
M  V30 1531 C 261.698 1.04544 -8.13308 0
M  V30 1532 O 262.088 2.38311 -8.41922 0
M  V30 1533 C 262.578 0.491279 -7.02284 0
M  V30 1534 C 261.868 0.996264 -5.77469 0
M  V30 1535 N 261.918 0.0501916 -4.62973 0
M  V30 1536 H 259.079 -0.374722 -8.67691 0
M  V30 1537 H 258.809 -0.443485 -6.90277 0
M  V30 1538 H 259.676 1.75537 -7.96793 0
M  V30 1539 P 263.638 2.75334 -8.47391 0
M  V30 1540 O 263.858 3.84128 -9.44797 0
M  V30 1541 O 264.428 1.51947 -8.68712 0
M  V30 1542 O 263.888 3.29363 -6.99321 0
M  V30 1543 C 262.948 4.24011 -6.4274 0
M  V30 1544 C 263.678 5.20775 -5.52155 0
M  V30 1545 O 263.888 4.56534 -4.22446 0
M  V30 1546 C 265.078 5.62629 -5.96531 0
M  V30 1547 O 265.468 6.87667 -5.41053 0
M  V30 1548 C 265.958 4.52537 -5.39283 0
M  V30 1549 C 265.248 4.20027 -4.08623 0
M  V30 1550 N 265.298 2.76189 -3.71603 0
M  V30 1551 H 262.459 4.797 -7.24003 0
M  V30 1552 H 262.189 3.69856 -5.84513 0
M  V30 1553 H 263.056 6.10356 -5.41441 0
M  V30 1554 P 267.018 7.20834 -5.23717 0
M  V30 1555 O 267.238 8.66274 -5.38678 0
M  V30 1556 O 267.808 6.33687 -6.13629 0
M  V30 1557 O 267.268 6.7751 -3.72168 0
M  V30 1558 C 266.328 7.20919 -2.70795 0
M  V30 1559 C 267.058 7.45864 -1.40599 0
M  V30 1560 O 267.268 6.17751 -0.734343 0
M  V30 1561 C 268.458 8.05906 -1.51917 0
M  V30 1562 O 268.848 8.74358 -0.335205 0
M  V30 1563 C 269.338 6.83093 -1.70294 0
M  V30 1564 C 268.628 5.79992 -0.836974 0
M  V30 1565 N 268.678 4.41864 -1.38293 0
M  V30 1566 C 268.598 4.02089 -2.69407 0
M  V30 1567 N 268.668 2.73403 -2.85089 0
M  V30 1568 C 268.818 2.25086 -1.5642 0
M  V30 1569 C 268.948 0.942887 -1.04836 0
M  V30 1570 N 268.958 -0.150999 -1.80369 0
M  V30 1571 N 269.068 0.812565 0.28167 0
M  V30 1572 C 269.058 1.90572 1.03784 0
M  V30 1573 N 268.938 3.167 0.683905 0
M  V30 1574 C 268.818 3.26538 -0.652815 0
M  V30 1575 H 265.84 8.13738 -3.03804 0
M  V30 1576 H 265.568 6.42974 -2.55559 0
M  V30 1577 H 266.436 8.12139 -0.792866 0
M  V30 1578 H 269.091 5.80178 0.160643 0
M  V30 1579 H 269.371 6.51379 -2.75643 0
M  V30 1580 H 270.362 7.01832 -1.3448 0
M  V30 1581 H 268.528 8.73771 -2.38364 0
M  V30 1582 H 268.487 4.7189 -3.52311 0
M  V30 1583 H 268.868 -0.0721434 -2.82608 0
M  V30 1584 H 269.057 -1.0785 -1.36544 0
M  V30 1585 H 269.165 1.73207 2.10241 0
M  V30 1586 P 270.398 8.91 8.68872e-13 0
M  V30 1587 O 270.618 10.1726 0.733694 0
M  V30 1588 O 271.188 8.73148 -1.23936 0
M  V30 1589 O 270.648 7.66872 0.971405 0
M  V30 1590 C 269.708 7.42309 2.04641 0
M  V30 1591 C 270.438 6.86059 3.24661 0
M  V30 1592 O 270.648 5.42847 3.03646 0
M  V30 1593 C 271.838 7.41196 3.50753 0
M  V30 1594 O 272.228 7.27073 4.86816 0
M  V30 1595 C 272.718 6.5273 2.63741 0
M  V30 1596 C 272.008 5.1842 2.73198 0
M  V30 1597 N 272.058 4.38762 1.4784 0
M  V30 1598 H 269.219 8.36803 2.32493 0
M  V30 1599 H 268.949 6.70197 1.71129 0
M  V30 1600 H 269.816 7.03551 4.13168 0
M  V30 1601 P 273.778 7.20834 5.23717 0
M  V30 1602 O 273.998 7.79853 6.57286 0
M  V30 1603 O 274.568 7.79239 4.12957 0
M  V30 1604 O 274.028 5.63315 5.29344 0
M  V30 1605 C 273.088 4.80255 6.01876 0
M  V30 1606 C 273.818 3.64202 6.65911 0
M  V30 1607 O 274.028 2.60694 5.64732 0
M  V30 1608 C 275.218 3.93473 7.1943 0
M  V30 1609 O 275.608 3.02071 8.21205 0
M  V30 1610 C 276.098 3.73047 5.97036 0
M  V30 1611 C 275.388 2.58828 5.25741 0
M  V30 1612 N 275.438 2.68068 3.77503 0
M  V30 1613 C 275.358 3.79715 2.96723 0
M  V30 1614 N 275.438 3.5377 1.68852 0
M  V30 1615 C 275.578 2.15054 1.63254 0
M  V30 1616 C 275.708 1.28964 0.518571 0
M  V30 1617 N 275.828 -0.0538097 0.918425 0
M  V30 1618 C 275.828 -0.494275 2.22578 0
M  V30 1619 N 275.958 -1.81086 2.40434 0
M  V30 1620 N 275.698 0.313645 3.27502 0
M  V30 1621 C 275.578 1.61829 2.91033 0
M  V30 1622 H 272.599 5.40332 6.79951 0
M  V30 1623 H 272.329 4.41613 5.32378 0
M  V30 1624 H 273.196 3.26331 7.47797 0
M  V30 1625 P 277.158 2.75334 8.47391 0
M  V30 1626 O 277.378 2.44619 9.90336 0
M  V30 1627 O 277.948 3.87776 7.92294 0
M  V30 1628 O 277.408 1.4459 7.59357 0
M  V30 1629 C 276.468 0.347653 7.69315 0
M  V30 1630 C 277.198 -0.96767 7.52806 0
M  V30 1631 O 277.408 -1.21055 6.10208 0
M  V30 1632 C 278.598 -1.04557 8.13408 0
M  V30 1633 O 278.988 -2.38311 8.41922 0
M  V30 1634 C 279.478 -0.491279 7.02284 0
M  V30 1635 C 278.768 -0.996264 5.77469 0
M  V30 1636 N 278.818 -0.0501916 4.62973 0
M  V30 1637 H 275.98 0.374765 8.67791 0
M  V30 1638 H 275.708 0.443613 6.90476 0
M  V30 1639 H 276.576 -1.75559 7.96891 0
M  V30 1640 H 279.231 -1.94563 5.46818 0
M  V30 1641 H 279.511 0.608651 7.04676 0
M  V30 1642 H 280.502 -0.889796 7.09039 0
M  V30 1643 H 278.668 -0.433128 9.04664 0
M  V30 1644 P 280.538 -2.75334 8.47391 0
M  V30 1645 O 280.758 -3.84166 9.4489 0
M  V30 1646 O 281.328 -1.51964 8.6881 0
M  V30 1647 O 280.788 -3.29363 6.99321 0
M  V30 1648 C 279.848 -4.23956 6.42656 0
M  V30 1649 C 280.578 -5.20775 5.52155 0
M  V30 1650 O 280.788 -4.56534 4.22446 0
M  V30 1651 C 281.978 -5.62629 5.96531 0
M  V30 1652 O 282.368 -6.87667 5.41053 0
M  V30 1653 C 282.858 -4.52537 5.39283 0
M  V30 1654 C 282.148 -4.20027 4.08623 0
M  V30 1655 N 282.198 -2.7613 3.71522 0
M  V30 1656 C 282.348 -2.45612 2.37989 0
M  V30 1657 O 282.438 -3.30919 1.51621 0
M  V30 1658 N 282.388 -1.10684 2.08435 0
M  V30 1659 C 282.298 -0.0690084 2.9792 0
M  V30 1660 C 282.148 -0.481522 4.35345 0
M  V30 1661 C 282.098 -1.78906 4.67968 0
M  V30 1662 H 279.358 -4.797 7.24003 0
M  V30 1663 H 279.089 -3.69802 5.84429 0
M  V30 1664 H 279.956 -6.10356 5.41441 0
M  V30 1665 H 282.611 -4.78651 3.27911 0
M  V30 1666 H 282.89 -3.64957 6.05871 0
M  V30 1667 H 283.882 -4.8868 5.2125 0
M  V30 1668 H 282.048 -5.66726 7.06352 0
M  V30 1669 H 281.977 -2.07737 5.72367 0
M  V30 1670 P 283.918 -7.20834 5.23717 0
M  V30 1671 O 284.138 -8.66104 5.38572 0
M  V30 1672 O 284.708 -6.33544 6.1349 0
M  V30 1673 O 284.168 -6.7751 3.72168 0
M  V30 1674 C 283.228 -7.20825 2.7076 0
M  V30 1675 C 283.958 -7.45864 1.40599 0
M  V30 1676 O 284.168 -6.17651 0.734225 0
M  V30 1677 C 285.358 -8.05808 1.51899 0
M  V30 1678 O 285.748 -8.74358 0.335205 0
M  V30 1679 C 286.238 -6.83093 1.70294 0
M  V30 1680 C 285.528 -5.79992 0.836974 0
M  V30 1681 N 285.578 -4.41864 1.38293 0
M  V30 1682 H 282.739 -8.13644 3.0377 0
M  V30 1683 H 282.469 -6.42788 2.55485 0
M  V30 1684 H 283.336 -8.12039 0.792769 0
M  V30 1685 P 287.298 -8.91 -1.02605e-12 0
M  V30 1686 O 287.518 -10.1726 -0.733694 0
M  V30 1687 O 288.088 -8.73148 1.23936 0
M  V30 1688 O 287.548 -7.66872 -0.971405 0
M  V30 1689 C 286.608 -7.42309 -2.04641 0
M  V30 1690 C 287.338 -6.86059 -3.24661 0
M  V30 1691 O 287.548 -5.42847 -3.03646 0
M  V30 1692 C 288.738 -7.41196 -3.50753 0
M  V30 1693 O 289.128 -7.27073 -4.86816 0
M  V30 1694 C 289.618 -6.5273 -2.63741 0
M  V30 1695 C 288.908 -5.1842 -2.73198 0
M  V30 1696 N 288.958 -4.38762 -1.4784 0
M  V30 1697 H 286.119 -8.36803 -2.32493 0
M  V30 1698 H 285.849 -6.70197 -1.71129 0
M  V30 1699 H 286.716 -7.03551 -4.13168 0
M  V30 1700 P 290.678 -7.20834 -5.23717 0
M  V30 1701 O 290.898 -7.79853 -6.57286 0
M  V30 1702 O 291.468 -7.79239 -4.12957 0
M  V30 1703 O 290.928 -5.63315 -5.29344 0
M  V30 1704 C 289.988 -4.80255 -6.01876 0
M  V30 1705 C 290.718 -3.64202 -6.65911 0
M  V30 1706 O 290.928 -2.60694 -5.64732 0
M  V30 1707 C 292.118 -3.93473 -7.1943 0
M  V30 1708 O 292.508 -3.02071 -8.21205 0
M  V30 1709 C 292.998 -3.73047 -5.97036 0
M  V30 1710 C 292.288 -2.58828 -5.25741 0
M  V30 1711 N 292.338 -2.68068 -3.77503 0
M  V30 1712 H 289.499 -5.40332 -6.79951 0
M  V30 1713 H 289.229 -4.41613 -5.32378 0
M  V30 1714 H 290.096 -3.26331 -7.47797 0
M  V30 1715 P 294.058 -2.75334 -8.47391 0
M  V30 1716 O 294.278 -2.44571 -9.90142 0
M  V30 1717 O 294.848 -3.87688 -7.92115 0
M  V30 1718 O 294.308 -1.4459 -7.59357 0
M  V30 1719 C 293.368 -0.347608 -7.69215 0
M  V30 1720 C 294.098 0.96767 -7.52806 0
M  V30 1721 O 294.308 1.21036 -6.1011 0
M  V30 1722 C 295.498 1.04544 -8.13308 0
M  V30 1723 O 295.888 2.38311 -8.41922 0
M  V30 1724 C 296.378 0.491279 -7.02284 0
M  V30 1725 C 295.668 0.996264 -5.77469 0
M  V30 1726 N 295.718 0.0501916 -4.62973 0
M  V30 1727 H 292.879 -0.374722 -8.67691 0
M  V30 1728 H 292.609 -0.443485 -6.90277 0
M  V30 1729 H 293.476 1.75537 -7.96793 0
M  V30 1730 P 297.438 2.75334 -8.47391 0
M  V30 1731 O 297.658 3.84128 -9.44797 0
M  V30 1732 O 298.228 1.51947 -8.68712 0
M  V30 1733 O 297.688 3.29363 -6.99321 0
M  V30 1734 C 296.748 4.24011 -6.4274 0
M  V30 1735 C 297.478 5.20775 -5.52155 0
M  V30 1736 O 297.688 4.56534 -4.22446 0
M  V30 1737 C 298.878 5.62629 -5.96531 0
M  V30 1738 O 299.268 6.87667 -5.41053 0
M  V30 1739 C 299.758 4.52537 -5.39283 0
M  V30 1740 C 299.048 4.20027 -4.08623 0
M  V30 1741 N 299.098 2.76189 -3.71603 0
M  V30 1742 H 296.259 4.797 -7.24003 0
M  V30 1743 H 295.989 3.69856 -5.84513 0
M  V30 1744 H 296.856 6.10356 -5.41441 0
M  V30 1745 P 300.818 7.20834 -5.23717 0
M  V30 1746 O 301.038 8.66189 -5.38625 0
M  V30 1747 O 301.608 6.33615 -6.1356 0
M  V30 1748 O 301.068 6.7751 -3.72168 0
M  V30 1749 C 300.128 7.20732 -2.70725 0
M  V30 1750 C 300.858 7.45864 -1.40599 0
M  V30 1751 O 301.068 6.17651 -0.734225 0
M  V30 1752 C 302.258 8.05808 -1.51899 0
M  V30 1753 O 302.648 8.74358 -0.335205 0
M  V30 1754 C 303.138 6.83093 -1.70294 0
M  V30 1755 C 302.428 5.79992 -0.836974 0
M  V30 1756 N 302.478 4.41769 -1.38263 0
M  V30 1757 C 302.628 3.38591 -0.481702 0
M  V30 1758 O 302.718 3.56839 0.718452 0
M  V30 1759 N 302.668 2.1206 -1.03569 0
M  V30 1760 C 302.578 1.80696 -2.36966 0
M  V30 1761 C 302.428 2.94845 -3.23898 0
M  V30 1762 C 302.378 4.19803 -2.73435 0
M  V30 1763 H 299.638 8.13644 -3.0377 0
M  V30 1764 H 299.369 6.42695 -2.55448 0
M  V30 1765 H 300.236 8.12039 -0.792769 0
M  V30 1766 H 302.891 5.79978 0.160587 0
M  V30 1767 H 303.17 6.51379 -2.75643 0
M  V30 1768 H 304.162 7.01734 -1.34462 0
M  V30 1769 H 302.328 8.73674 -2.38337 0
M  V30 1770 H 302.257 5.04492 -3.4095 0
M  V30 1771 P 304.198 8.91 1.18324e-12 0
M  V30 1772 O 304.418 10.1726 0.733694 0
M  V30 1773 O 304.988 8.73148 -1.23936 0
M  V30 1774 O 304.448 7.66872 0.971405 0
M  V30 1775 C 303.508 7.42309 2.04641 0
M  V30 1776 C 304.238 6.86059 3.24661 0
M  V30 1777 O 304.448 5.42847 3.03646 0
M  V30 1778 C 305.638 7.41196 3.50753 0
M  V30 1779 O 306.028 7.27073 4.86816 0
M  V30 1780 C 306.518 6.5273 2.63741 0
M  V30 1781 C 305.808 5.1842 2.73198 0
M  V30 1782 N 305.858 4.38762 1.4784 0
M  V30 1783 H 303.019 8.36803 2.32493 0
M  V30 1784 H 302.749 6.70197 1.71129 0
M  V30 1785 H 303.616 7.03551 4.13168 0
M  V30 1786 P 307.578 7.20834 5.23717 0
M  V30 1787 O 307.798 7.79853 6.57286 0
M  V30 1788 O 308.368 7.79239 4.12957 0
M  V30 1789 O 307.828 5.63315 5.29344 0
M  V30 1790 C 306.888 4.80255 6.01876 0
M  V30 1791 C 307.618 3.64202 6.65911 0
M  V30 1792 O 307.828 2.60694 5.64732 0
M  V30 1793 C 309.018 3.93473 7.1943 0
M  V30 1794 O 309.408 3.02071 8.21205 0
M  V30 1795 C 309.898 3.73047 5.97036 0
M  V30 1796 C 309.188 2.58828 5.25741 0
M  V30 1797 N 309.238 2.68068 3.77503 0
M  V30 1798 H 306.399 5.40332 6.79951 0
M  V30 1799 H 306.129 4.41613 5.32378 0
M  V30 1800 H 306.996 3.26331 7.47797 0
M  V30 1801 P 310.958 2.75334 8.47391 0
M  V30 1802 O 311.178 2.44571 9.90142 0
M  V30 1803 O 311.748 3.87688 7.92115 0
M  V30 1804 O 311.208 1.4459 7.59357 0
M  V30 1805 C 310.268 0.347608 7.69215 0
M  V30 1806 C 310.998 -0.96767 7.52806 0
M  V30 1807 O 311.208 -1.21036 6.1011 0
M  V30 1808 C 312.398 -1.04544 8.13308 0
M  V30 1809 O 312.788 -2.38311 8.41922 0
M  V30 1810 C 313.278 -0.491279 7.02284 0
M  V30 1811 C 312.568 -0.996264 5.77469 0
M  V30 1812 N 312.618 -0.0501916 4.62973 0
M  V30 1813 H 309.779 0.374722 8.67691 0
M  V30 1814 H 309.509 0.443485 6.90277 0
M  V30 1815 H 310.376 -1.75537 7.96793 0
M  V30 1816 P 314.338 -2.75334 8.47391 0
M  V30 1817 O 314.558 -3.84128 9.44797 0
M  V30 1818 O 315.128 -1.51947 8.68712 0
M  V30 1819 O 314.588 -3.29363 6.99321 0
M  V30 1820 C 313.648 -4.24011 6.4274 0
M  V30 1821 C 314.378 -5.20775 5.52155 0
M  V30 1822 O 314.588 -4.56534 4.22446 0
M  V30 1823 C 315.778 -5.62629 5.96531 0
M  V30 1824 O 316.168 -6.87667 5.41053 0
M  V30 1825 C 316.658 -4.52537 5.39283 0
M  V30 1826 C 315.948 -4.20027 4.08623 0
M  V30 1827 N 315.998 -2.76189 3.71603 0
M  V30 1828 H 313.159 -4.797 7.24003 0
M  V30 1829 H 312.889 -3.69856 5.84513 0
M  V30 1830 H 313.756 -6.10356 5.41441 0
M  V30 1831 P 317.718 -7.20834 5.23717 0
M  V30 1832 O 317.938 -8.66104 5.38572 0
M  V30 1833 O 318.508 -6.33544 6.1349 0
M  V30 1834 O 317.968 -6.7751 3.72168 0
M  V30 1835 C 317.028 -7.20825 2.7076 0
M  V30 1836 C 317.758 -7.45864 1.40599 0
M  V30 1837 O 317.968 -6.17651 0.734225 0
M  V30 1838 C 319.158 -8.05808 1.51899 0
M  V30 1839 O 319.548 -8.74358 0.335205 0
M  V30 1840 C 320.038 -6.83093 1.70294 0
M  V30 1841 C 319.328 -5.79992 0.836974 0
M  V30 1842 N 319.378 -4.41864 1.38293 0
M  V30 1843 H 316.539 -8.13644 3.0377 0
M  V30 1844 H 316.269 -6.42788 2.55485 0
M  V30 1845 H 317.136 -8.12039 0.792769 0
M  V30 1846 P 321.098 -8.91 -1.34042e-12 0
M  V30 1847 O 321.318 -10.1726 -0.733694 0
M  V30 1848 O 321.888 -8.73148 1.23936 0
M  V30 1849 O 321.348 -7.66872 -0.971405 0
M  V30 1850 C 320.408 -7.42309 -2.04641 0
M  V30 1851 C 321.138 -6.86059 -3.24661 0
M  V30 1852 O 321.348 -5.42847 -3.03646 0
M  V30 1853 C 322.538 -7.41196 -3.50753 0
M  V30 1854 O 322.928 -7.27073 -4.86816 0
M  V30 1855 C 323.418 -6.5273 -2.63741 0
M  V30 1856 C 322.708 -5.1842 -2.73198 0
M  V30 1857 N 322.758 -4.38762 -1.4784 0
M  V30 1858 C 322.678 -4.81605 -0.168631 0
M  V30 1859 N 322.758 -3.85454 0.713363 0
M  V30 1860 C 322.898 -2.6994 -0.0566958 0
M  V30 1861 C 323.028 -1.34815 0.338502 0
M  V30 1862 O 323.048 -0.869548 1.47125 0
M  V30 1863 N 323.148 -0.496304 -0.77465 0
M  V30 1864 C 323.148 -0.908403 -2.09122 0
M  V30 1865 N 323.278 0.0517805 -3.00955 0
M  V30 1866 N 323.018 -2.17875 -2.46519 0
M  V30 1867 C 322.898 -3.01988 -1.4033 0
M  V30 1868 H 319.919 -8.36803 -2.32493 0
M  V30 1869 H 319.649 -6.70197 -1.71129 0
M  V30 1870 H 320.516 -7.03551 -4.13168 0
M  V30 1871 H 323.171 -4.59498 -3.54415 0
M  V30 1872 H 323.45 -6.88898 -1.59848 0
M  V30 1873 H 324.442 -6.46749 -3.03687 0
M  V30 1874 H 322.608 -8.46908 -3.20714 0
M  V30 1875 H 322.559 -5.86405 0.105564 0
M  V30 1876 H 323.241 0.483664 -0.597855 0
M  V30 1877 H 323.278 -0.187865 -4.0116 0
M  V30 1878 H 323.379 1.03585 -2.71726 0
M  V30 1879 P 324.478 -7.20834 -5.23717 0
M  V30 1880 O 324.698 -7.79853 -6.57286 0
M  V30 1881 O 325.268 -7.79239 -4.12957 0
M  V30 1882 O 324.728 -5.63315 -5.29344 0
M  V30 1883 C 323.788 -4.80255 -6.01876 0
M  V30 1884 C 324.518 -3.64202 -6.65911 0
M  V30 1885 O 324.728 -2.60694 -5.64732 0
M  V30 1886 C 325.918 -3.93473 -7.1943 0
M  V30 1887 O 326.308 -3.02071 -8.21205 0
M  V30 1888 C 326.798 -3.73047 -5.97036 0
M  V30 1889 C 326.088 -2.58828 -5.25741 0
M  V30 1890 N 326.138 -2.68068 -3.77503 0
M  V30 1891 H 323.299 -5.40332 -6.79951 0
M  V30 1892 H 323.029 -4.41613 -5.32378 0
M  V30 1893 H 323.896 -3.26331 -7.47797 0
M  V30 1894 P 327.858 -2.75334 -8.47391 0
M  V30 1895 O 328.078 -2.44595 -9.90239 0
M  V30 1896 O 328.648 -3.87732 -7.92204 0
M  V30 1897 O 328.108 -1.4459 -7.59357 0
M  V30 1898 C 327.168 -0.347563 -7.69115 0
M  V30 1899 C 327.898 0.96767 -7.52806 0
M  V30 1900 O 328.108 1.21036 -6.1011 0
M  V30 1901 C 329.298 1.04544 -8.13308 0
M  V30 1902 O 329.688 2.38311 -8.41922 0
M  V30 1903 C 330.178 0.491279 -7.02284 0
M  V30 1904 C 329.468 0.996264 -5.77469 0
M  V30 1905 N 329.518 0.0501808 -4.62873 0
M  V30 1906 C 329.668 0.588177 -3.36904 0
M  V30 1907 O 329.758 1.78598 -3.17173 0
M  V30 1908 N 329.708 -0.329694 -2.33686 0
M  V30 1909 C 329.618 -1.6953 -2.45079 0
M  V30 1910 O 329.668 -2.41926 -1.44899 0
M  V30 1911 C 329.468 -2.16933 -3.80505 0
M  V30 1912 C 329.358 -3.65373 -3.97621 0
M  V30 1913 C 329.418 -1.30326 -4.83752 0
M  V30 1914 H 326.678 -0.374722 -8.67691 0
M  V30 1915 H 326.409 -0.443421 -6.90177 0
M  V30 1916 H 327.276 1.75537 -7.96793 0
M  V30 1917 H 329.931 1.94496 -5.46629 0
M  V30 1918 H 330.21 -0.608651 -7.04676 0
M  V30 1919 H 331.202 0.889672 -7.08939 0
M  V30 1920 H 329.368 0.43308 -9.04564 0
M  V30 1921 H 329.297 -1.68366 -5.8516 0
M  V30 1922 H 330.327 -4.05985 -4.30448 0
M  V30 1923 H 328.59 -3.88028 -4.72875 0
M  V30 1924 H 329.078 -4.11381 -3.01609 0
M  V30 1925 H 329.814 0.0393617 -1.41345 0
M  V30 1926 P 331.238 2.75334 -8.47391 0
M  V30 1927 O 331.458 3.84128 -9.44797 0
M  V30 1928 O 332.028 1.51947 -8.68712 0
M  V30 1929 O 331.488 3.29363 -6.99321 0
M  V30 1930 C 330.548 4.24011 -6.4274 0
M  V30 1931 C 331.278 5.20775 -5.52155 0
M  V30 1932 O 331.488 4.56534 -4.22446 0
M  V30 1933 C 332.678 5.62629 -5.96531 0
M  V30 1934 O 333.068 6.87667 -5.41053 0
M  V30 1935 C 333.558 4.52537 -5.39283 0
M  V30 1936 C 332.848 4.20027 -4.08623 0
M  V30 1937 N 332.898 2.76189 -3.71603 0
M  V30 1938 H 330.059 4.797 -7.24003 0
M  V30 1939 H 329.789 3.69856 -5.84513 0
M  V30 1940 H 330.656 6.10356 -5.41441 0
M  V30 1941 P 334.618 7.20834 -5.23717 0
M  V30 1942 O 334.838 8.66104 -5.38572 0
M  V30 1943 O 335.408 6.33544 -6.1349 0
M  V30 1944 O 334.868 6.7751 -3.72168 0
M  V30 1945 C 333.928 7.20825 -2.7076 0
M  V30 1946 C 334.658 7.45864 -1.40599 0
M  V30 1947 O 334.868 6.17651 -0.734225 0
M  V30 1948 C 336.058 8.05808 -1.51899 0
M  V30 1949 O 336.448 8.74358 -0.335205 0
M  V30 1950 C 336.938 6.83093 -1.70294 0
M  V30 1951 C 336.228 5.79992 -0.836974 0
M  V30 1952 N 336.278 4.41864 -1.38293 0
M  V30 1953 C 336.198 3.99538 -2.69438 0
M  V30 1954 N 336.278 2.69909 -2.84277 0
M  V30 1955 C 336.418 2.21719 -1.5408 0
M  V30 1956 C 336.548 0.891712 -1.06628 0
M  V30 1957 O 336.568 -0.161298 -1.70137 0
M  V30 1958 N 336.668 0.856846 0.334985 0
M  V30 1959 C 336.668 1.9641 1.15789 0
M  V30 1960 N 336.798 1.72708 2.46522 0
M  V30 1961 N 336.538 3.21165 0.713741 0
M  V30 1962 C 336.418 3.26797 -0.639748 0
M  V30 1963 H 333.439 8.13644 -3.0377 0
M  V30 1964 H 333.169 6.42788 -2.55485 0
M  V30 1965 H 334.036 8.12039 -0.792769 0
M  V30 1966 H 336.691 5.80061 0.166416 0
M  V30 1967 H 336.97 6.51287 -2.75604 0
M  V30 1968 H 337.962 7.01734 -1.34462 0
M  V30 1969 H 336.128 8.73674 -2.38337 0
M  V30 1970 H 336.079 4.68207 -3.53221 0
M  V30 1971 H 336.761 -0.0398818 0.767965 0
M  V30 1972 H 336.798 2.50995 3.13503 0
M  V30 1973 H 336.899 0.759148 2.80716 0
M  V30 1974 P 337.998 8.91 1.4976e-12 0
M  V30 1975 O 338.218 10.1736 0.733766 0
M  V30 1976 O 338.788 8.73247 -1.2395 0
M  V30 1977 O 338.248 7.66872 0.971405 0
M  V30 1978 C 337.308 7.42212 2.04614 0
M  V30 1979 C 338.038 6.86059 3.24661 0
M  V30 1980 O 338.248 5.42847 3.03646 0
M  V30 1981 C 339.438 7.41196 3.50753 0
M  V30 1982 O 339.828 7.27073 4.86816 0
M  V30 1983 C 340.318 6.5273 2.63741 0
M  V30 1984 C 339.608 5.1842 2.73198 0
M  V30 1985 N 339.658 4.38668 1.47808 0
M  V30 1986 C 339.808 3.02239 1.60048 0
M  V30 1987 O 339.898 2.46459 2.67869 0
M  V30 1988 N 339.848 2.32436 0.408571 0
M  V30 1989 C 339.758 2.85471 -0.854993 0
M  V30 1990 O 339.808 2.12566 -1.8531 0
M  V30 1991 C 339.608 4.28918 -0.887335 0
M  V30 1992 C 339.498 4.91066 -2.24619 0
M  V30 1993 C 339.558 5.00349 0.255399 0
M  V30 1994 H 336.818 8.36803 2.32493 0
M  V30 1995 H 336.549 6.701 1.71105 0
M  V30 1996 H 337.416 7.03551 4.13168 0
M  V30 1997 H 340.071 4.59773 3.53894 0
M  V30 1998 H 340.35 6.88995 1.59871 0
M  V30 1999 H 341.342 6.46749 3.03687 0
M  V30 2000 H 339.508 8.46908 3.20714 0
M  V30 2001 H 339.437 6.08548 0.206986 0
M  V30 2002 H 340.467 5.34836 -2.53099 0
M  V30 2003 H 338.73 5.69638 -2.2291 0
M  V30 2004 H 339.218 4.13971 -2.98044 0
M  V30 2005 H 339.954 1.33211 0.474216 0
M  V30 2006 P 341.378 7.20834 5.23717 0
M  V30 2007 O 341.598 7.79853 6.57286 0
M  V30 2008 O 342.168 7.79239 4.12957 0
M  V30 2009 O 341.628 5.63315 5.29344 0
M  V30 2010 C 340.688 4.80255 6.01876 0
M  V30 2011 C 341.418 3.64202 6.65911 0
M  V30 2012 O 341.628 2.60694 5.64732 0
M  V30 2013 C 342.818 3.93473 7.1943 0
M  V30 2014 O 343.208 3.02071 8.21205 0
M  V30 2015 C 343.698 3.73047 5.97036 0
M  V30 2016 C 342.988 2.58828 5.25741 0
M  V30 2017 N 343.038 2.68068 3.77503 0
M  V30 2018 C 342.958 3.79715 2.96723 0
M  V30 2019 N 343.038 3.5377 1.68852 0
M  V30 2020 C 343.178 2.15054 1.63254 0
M  V30 2021 C 343.308 1.28964 0.518571 0
M  V30 2022 O 343.328 1.56826 -0.679156 0
M  V30 2023 N 343.428 -0.0538097 0.918425 0
M  V30 2024 C 343.428 -0.494275 2.22578 0
M  V30 2025 N 343.558 -1.81086 2.40434 0
M  V30 2026 N 343.298 0.313645 3.27502 0
M  V30 2027 C 343.178 1.61829 2.91033 0
M  V30 2028 H 340.199 5.40332 6.79951 0
M  V30 2029 H 339.929 4.41613 5.32378 0
M  V30 2030 H 340.796 3.26331 7.47797 0
M  V30 2031 H 343.451 1.63422 5.56814 0
M  V30 2032 H 343.73 4.63374 5.34244 0
M  V30 2033 H 344.722 3.44728 6.25838 0
M  V30 2034 H 342.888 4.96652 7.57263 0
M  V30 2035 H 342.839 4.80617 3.3614 0
M  V30 2036 H 343.521 -0.742702 0.199384 0
M  V30 2037 H 343.558 -2.20598 3.35588 0
M  V30 2038 H 343.659 -2.43518 1.58945 0
M  V30 2039 P 344.758 2.75334 8.47391 0
M  V30 2040 O 344.978 2.44619 9.90336 0
M  V30 2041 O 345.548 3.87776 7.92294 0
M  V30 2042 O 345.008 1.4459 7.59357 0
M  V30 2043 C 344.068 0.347653 7.69315 0
M  V30 2044 C 344.798 -0.96767 7.52806 0
M  V30 2045 O 345.008 -1.21055 6.10208 0
M  V30 2046 C 346.198 -1.04557 8.13408 0
M  V30 2047 O 346.588 -2.38311 8.41922 0
M  V30 2048 C 347.078 -0.491279 7.02284 0
M  V30 2049 C 346.368 -0.996264 5.77469 0
M  V30 2050 N 346.418 -0.0501916 4.62973 0
M  V30 2051 H 343.58 0.374765 8.67791 0
M  V30 2052 H 343.308 0.443613 6.90476 0
M  V30 2053 H 344.176 -1.75559 7.96891 0
M  V30 2054 H 346.831 -1.94563 5.46818 0
M  V30 2055 H 347.111 0.608651 7.04676 0
M  V30 2056 H 348.102 -0.889796 7.09039 0
M  V30 2057 H 346.268 -0.433128 9.04664 0
M  V30 2058 P 348.138 -2.75334 8.47391 0
M  V30 2059 O 348.358 -3.84128 9.44797 0
M  V30 2060 O 348.928 -1.51947 8.68712 0
M  V30 2061 O 348.388 -3.29363 6.99321 0
M  V30 2062 C 347.448 -4.24011 6.4274 0
M  V30 2063 C 348.178 -5.20775 5.52155 0
M  V30 2064 O 348.388 -4.56534 4.22446 0
M  V30 2065 C 349.578 -5.62629 5.96531 0
M  V30 2066 O 349.968 -6.87667 5.41053 0
M  V30 2067 C 350.458 -4.52537 5.39283 0
M  V30 2068 C 349.748 -4.20027 4.08623 0
M  V30 2069 N 349.798 -2.76189 3.71603 0
M  V30 2070 H 346.959 -4.797 7.24003 0
M  V30 2071 H 346.689 -3.69856 5.84513 0
M  V30 2072 H 347.556 -6.10356 5.41441 0
M  V30 2073 P 351.518 -7.20834 5.23717 0
M  V30 2074 O 351.738 -8.66189 5.38625 0
M  V30 2075 O 352.308 -6.33615 6.1356 0
M  V30 2076 O 351.768 -6.7751 3.72168 0
M  V30 2077 C 350.828 -7.20732 2.70725 0
M  V30 2078 C 351.558 -7.45864 1.40599 0
M  V30 2079 O 351.768 -6.17651 0.734225 0
M  V30 2080 C 352.958 -8.05808 1.51899 0
M  V30 2081 O 353.348 -8.74358 0.335205 0
M  V30 2082 C 353.838 -6.83093 1.70294 0
M  V30 2083 C 353.128 -5.79992 0.836974 0
M  V30 2084 N 353.178 -4.41769 1.38263 0
M  V30 2085 C 353.328 -3.38591 0.481702 0
M  V30 2086 O 353.418 -3.56839 -0.718452 0
M  V30 2087 N 353.368 -2.1206 1.03569 0
M  V30 2088 C 353.278 -1.80696 2.36966 0
M  V30 2089 O 353.328 -0.630473 2.74862 0
M  V30 2090 C 353.128 -2.94845 3.23898 0
M  V30 2091 C 353.018 -2.65253 4.70362 0
M  V30 2092 C 353.078 -4.19803 2.73435 0
M  V30 2093 H 350.338 -8.13644 3.0377 0
M  V30 2094 H 350.069 -6.42695 2.55448 0
M  V30 2095 H 350.936 -8.12039 0.792769 0
M  V30 2096 H 353.591 -5.79978 -0.160587 0
M  V30 2097 H 353.87 -6.51379 2.75643 0
M  V30 2098 H 354.862 -7.01734 1.34462 0
M  V30 2099 H 353.028 -8.73674 2.38337 0
M  V30 2100 H 352.957 -5.04492 3.4095 0
M  V30 2101 H 353.987 -2.83924 5.1913 0
M  V30 2102 H 352.25 -3.29824 5.15163 0
M  V30 2103 H 352.738 -1.59723 4.84449 0
M  V30 2104 H 353.474 -1.35644 0.399345 0
M  V30 2105 P 354.898 -8.91 -1.65478e-12 0
M  V30 2106 O 355.118 -10.1746 -0.733838 0
M  V30 2107 O 355.688 -8.73346 1.23964 0
M  V30 2108 O 355.148 -7.66872 -0.971405 0
M  V30 2109 C 354.208 -7.42405 -2.04668 0
M  V30 2110 C 354.938 -6.86059 -3.24661 0
M  V30 2111 O 355.148 -5.42934 -3.03695 0
M  V30 2112 C 356.338 -7.41287 -3.50796 0
M  V30 2113 O 356.728 -7.27073 -4.86816 0
M  V30 2114 C 357.218 -6.5273 -2.63741 0
M  V30 2115 C 356.508 -5.1842 -2.73198 0
M  V30 2116 N 356.558 -4.38762 -1.4784 0
M  V30 2117 C 356.478 -4.83651 -0.183876 0
M  V30 2118 N 356.548 -3.88759 0.699393 0
M  V30 2119 C 356.698 -2.7404 -0.0575568 0
M  V30 2120 C 356.828 -1.37902 0.293928 0
M  V30 2121 N 356.838 -0.938021 1.54797 0
M  V30 2122 N 356.948 -0.491817 -0.70549 0
M  V30 2123 C 356.938 -0.931735 -1.95979 0
M  V30 2124 N 356.818 -2.16017 -2.41481 0
M  V30 2125 C 356.698 -3.02547 -1.39121 0
M  V30 2126 H 353.72 -8.36899 -2.3252 0
M  V30 2127 H 353.448 -6.70391 -1.71179 0
M  V30 2128 H 354.316 -7.03638 -4.13219 0
M  V30 2129 H 356.971 -4.59931 -3.54016 0
M  V30 2130 H 357.251 -6.88995 -1.59871 0
M  V30 2131 H 358.242 -6.4684 -3.0373 0
M  V30 2132 H 356.408 -8.47002 -3.20749 0
M  V30 2133 H 356.367 -5.8885 0.0765548 0
M  V30 2134 H 356.748 -1.60276 2.32875 0
M  V30 2135 H 356.937 0.0699355 1.73859 0
M  V30 2136 H 357.045 -0.165507 -2.71897 0
M  V30 2137 P 358.278 -7.20834 -5.23717 0
M  V30 2138 O 358.498 -7.80006 -6.57415 0
M  V30 2139 O 359.068 -7.79416 -4.13051 0
M  V30 2140 O 358.528 -5.63315 -5.29344 0
M  V30 2141 C 357.588 -4.80318 -6.01954 0
M  V30 2142 C 358.318 -3.64202 -6.65911 0
M  V30 2143 O 358.528 -2.60736 -5.64823 0
M  V30 2144 C 359.718 -3.93521 -7.19518 0
M  V30 2145 O 360.108 -3.02071 -8.21205 0
M  V30 2146 C 360.598 -3.73047 -5.97036 0
M  V30 2147 C 359.888 -2.58828 -5.25741 0
M  V30 2148 N 359.938 -2.68068 -3.77503 0
M  V30 2149 H 357.1 -5.40394 -6.8003 0
M  V30 2150 H 356.828 -4.41741 -5.32532 0
M  V30 2151 H 357.696 -3.26371 -7.47889 0
M  V30 2152 H 360.351 -1.64007 -5.56746 0
M  V30 2153 H 360.631 -4.63439 -5.3432 0
M  V30 2154 H 361.622 -3.44776 -6.25925 0
M  V30 2155 H 359.788 -4.96707 -7.57347 0
M  V30 2156 P 361.658 -2.75334 -8.47391 0
M  V30 2157 O 361.878 -2.44571 -9.90142 0
M  V30 2158 O 362.448 -3.87688 -7.92115 0
M  V30 2159 O 361.908 -1.4459 -7.59357 0
M  V30 2160 C 360.968 -0.347608 -7.69215 0
M  V30 2161 C 361.698 0.96767 -7.52806 0
M  V30 2162 O 361.908 1.21036 -6.1011 0
M  V30 2163 C 363.098 1.04544 -8.13308 0
M  V30 2164 O 363.488 2.38311 -8.41922 0
M  V30 2165 C 363.978 0.491279 -7.02284 0
M  V30 2166 C 363.268 0.996264 -5.77469 0
M  V30 2167 N 363.318 0.0501916 -4.62973 0
M  V30 2168 H 360.479 -0.374722 -8.67691 0
M  V30 2169 H 360.209 -0.443485 -6.90277 0
M  V30 2170 H 361.076 1.75537 -7.96793 0
M  V30 2171 P 365.038 2.75334 -8.47391 0
M  V30 2172 O 365.258 3.84204 -9.44982 0
M  V30 2173 O 365.828 1.51982 -8.68909 0
M  V30 2174 O 365.288 3.29363 -6.99321 0
M  V30 2175 C 364.348 4.24066 -6.42823 0
M  V30 2176 C 365.078 5.20775 -5.52155 0
M  V30 2177 O 365.288 4.56607 -4.22514 0
M  V30 2178 C 366.478 5.62697 -5.96604 0
M  V30 2179 O 366.868 6.87667 -5.41053 0
M  V30 2180 C 367.358 4.52537 -5.39283 0
M  V30 2181 C 366.648 4.20027 -4.08623 0
M  V30 2182 N 366.698 2.76189 -3.71603 0
M  V30 2183 H 363.86 4.79756 -7.24086 0
M  V30 2184 H 363.588 3.69963 -5.84682 0
M  V30 2185 H 364.456 6.10431 -5.41508 0
M  V30 2186 H 367.111 4.78816 -3.28024 0
M  V30 2187 H 367.391 3.64957 -6.05871 0
M  V30 2188 H 368.382 4.88748 -5.21323 0
M  V30 2189 H 366.548 5.66789 -7.0643 0
M  V30 2190 P 368.418 7.20834 -5.23717 0
M  V30 2191 O 368.638 8.66104 -5.38572 0
M  V30 2192 O 369.208 6.33544 -6.1349 0
M  V30 2193 O 368.668 6.7751 -3.72168 0
M  V30 2194 C 367.728 7.20825 -2.7076 0
M  V30 2195 C 368.458 7.45864 -1.40599 0
M  V30 2196 O 368.668 6.17651 -0.734225 0
M  V30 2197 C 369.858 8.05808 -1.51899 0
M  V30 2198 O 370.248 8.74358 -0.335205 0
M  V30 2199 C 370.738 6.83093 -1.70294 0
M  V30 2200 C 370.028 5.79992 -0.836974 0
M  V30 2201 N 370.078 4.41864 -1.38293 0
M  V30 2202 H 367.239 8.13644 -3.0377 0
M  V30 2203 H 366.969 6.42788 -2.55485 0
M  V30 2204 H 367.836 8.12039 -0.792769 0
M  V30 2205 P 371.798 8.91 1.81197e-12 0
M  V30 2206 O 372.018 10.1726 0.733694 0
M  V30 2207 O 372.588 8.73148 -1.23936 0
M  V30 2208 O 372.048 7.66872 0.971405 0
M  V30 2209 C 371.108 7.42309 2.04641 0
M  V30 2210 C 371.838 6.86059 3.24661 0
M  V30 2211 O 372.048 5.42847 3.03646 0
M  V30 2212 C 373.238 7.41196 3.50753 0
M  V30 2213 O 373.628 7.27073 4.86816 0
M  V30 2214 C 374.118 6.5273 2.63741 0
M  V30 2215 C 373.408 5.1842 2.73198 0
M  V30 2216 N 373.458 4.38762 1.4784 0
M  V30 2217 H 370.619 8.36803 2.32493 0
M  V30 2218 H 370.349 6.70197 1.71129 0
M  V30 2219 H 371.216 7.03551 4.13168 0
M  V30 2220 P 375.178 7.20834 5.23717 0
M  V30 2221 O 375.398 7.7993 6.57351 0
M  V30 2222 O 375.968 7.79328 4.13004 0
M  V30 2223 O 375.428 5.63315 5.29344 0
M  V30 2224 C 374.488 4.80193 6.01798 0
M  V30 2225 C 375.218 3.64202 6.65911 0
M  V30 2226 O 375.428 2.60694 5.64732 0
M  V30 2227 C 376.618 3.93473 7.1943 0
M  V30 2228 O 377.008 3.02071 8.21205 0
M  V30 2229 C 377.498 3.73047 5.97036 0
M  V30 2230 C 376.788 2.58828 5.25741 0
M  V30 2231 N 376.838 2.6801 3.77422 0
M  V30 2232 C 376.988 1.50443 3.07133 0
M  V30 2233 O 377.078 0.419406 3.61576 0
M  V30 2234 N 377.028 1.6403 1.69677 0
M  V30 2235 C 376.938 2.81206 0.986255 0
M  V30 2236 O 376.988 2.80892 -0.249754 0
M  V30 2237 C 376.788 3.99158 1.80325 0
M  V30 2238 C 376.678 5.29309 1.06921 0
M  V30 2239 C 376.738 3.89779 3.1476 0
M  V30 2240 H 373.998 5.40332 6.79951 0
M  V30 2241 H 373.729 4.41549 5.32301 0
M  V30 2242 H 374.596 3.26331 7.47797 0
M  V30 2243 H 377.251 1.6395 5.56554 0
M  V30 2244 H 377.53 4.63439 5.3432 0
M  V30 2245 H 378.522 3.44728 6.25838 0
M  V30 2246 H 376.688 4.96652 7.57263 0
M  V30 2247 H 376.617 4.80159 3.74441 0
M  V30 2248 H 377.647 5.81459 1.09608 0
M  V30 2249 H 375.91 5.9187 1.54487 0
M  V30 2250 H 376.398 5.10095 0.0220288 0
M  V30 2251 H 377.134 0.798962 1.16664 0
M  V30 2252 P 378.558 2.75334 8.47391 0
M  V30 2253 O 378.778 2.44571 9.90142 0
M  V30 2254 O 379.348 3.87688 7.92115 0
M  V30 2255 O 378.808 1.4459 7.59357 0
M  V30 2256 C 377.868 0.347608 7.69215 0
M  V30 2257 C 378.598 -0.96767 7.52806 0
M  V30 2258 O 378.808 -1.21036 6.1011 0
M  V30 2259 C 379.998 -1.04544 8.13308 0
M  V30 2260 O 380.388 -2.38311 8.41922 0
M  V30 2261 C 380.878 -0.491279 7.02284 0
M  V30 2262 C 380.168 -0.996264 5.77469 0
M  V30 2263 N 380.218 -0.0501916 4.62973 0
M  V30 2264 H 377.379 0.374722 8.67691 0
M  V30 2265 H 377.109 0.443485 6.90277 0
M  V30 2266 H 377.976 -1.75537 7.96793 0
M  V30 2267 P 381.938 -2.75334 8.47391 0
M  V30 2268 O 382.158 -3.84128 9.44797 0
M  V30 2269 O 382.728 -1.51947 8.68712 0
M  V30 2270 O 382.188 -3.29363 6.99321 0
M  V30 2271 C 381.248 -4.24011 6.4274 0
M  V30 2272 C 381.978 -5.20775 5.52155 0
M  V30 2273 O 382.188 -4.56534 4.22446 0
M  V30 2274 C 383.378 -5.62629 5.96531 0
M  V30 2275 O 383.768 -6.87667 5.41053 0
M  V30 2276 C 384.258 -4.52537 5.39283 0
M  V30 2277 C 383.548 -4.20027 4.08623 0
M  V30 2278 N 383.598 -2.76189 3.71603 0
M  V30 2279 H 380.759 -4.797 7.24003 0
M  V30 2280 H 380.489 -3.69856 5.84513 0
M  V30 2281 H 381.356 -6.10356 5.41441 0
M  V30 2282 P 385.318 -7.20834 5.23717 0
M  V30 2283 O 385.538 -8.66274 5.38678 0
M  V30 2284 O 386.108 -6.33687 6.13629 0
M  V30 2285 O 385.568 -6.7751 3.72168 0
M  V30 2286 C 384.628 -7.20919 2.70795 0
M  V30 2287 C 385.358 -7.45864 1.40599 0
M  V30 2288 O 385.568 -6.17751 0.734343 0
M  V30 2289 C 386.758 -8.05906 1.51917 0
M  V30 2290 O 387.148 -8.74358 0.335205 0
M  V30 2291 C 387.638 -6.83093 1.70294 0
M  V30 2292 C 386.928 -5.79992 0.836974 0
M  V30 2293 N 386.978 -4.41864 1.38293 0
M  V30 2294 H 384.14 -8.13738 3.03804 0
M  V30 2295 H 383.868 -6.42974 2.55559 0
M  V30 2296 H 384.736 -8.12139 0.792866 0
M  V30 2297 H 387.391 -5.80178 -0.160643 0
M  V30 2298 H 387.671 -6.51379 2.75643 0
M  V30 2299 H 388.662 -7.01832 1.3448 0
M  V30 2300 H 386.828 -8.73771 2.38364 0
M  V30 2301 P 388.698 -8.91 -1.96915e-12 0
M  V30 2302 O 388.918 -10.1726 -0.733694 0
M  V30 2303 O 389.488 -8.73148 1.23936 0
M  V30 2304 O 388.948 -7.66872 -0.971405 0
M  V30 2305 C 388.008 -7.42309 -2.04641 0
M  V30 2306 C 388.738 -6.86059 -3.24661 0
M  V30 2307 O 388.948 -5.42847 -3.03646 0
M  V30 2308 C 390.138 -7.41196 -3.50753 0
M  V30 2309 O 390.528 -7.27073 -4.86816 0
M  V30 2310 C 391.018 -6.5273 -2.63741 0
M  V30 2311 C 390.308 -5.1842 -2.73198 0
M  V30 2312 N 390.358 -4.38762 -1.4784 0
M  V30 2313 C 390.278 -4.81605 -0.168631 0
M  V30 2314 N 390.358 -3.85454 0.713363 0
M  V30 2315 C 390.498 -2.6994 -0.0566958 0
M  V30 2316 C 390.628 -1.34815 0.338502 0
M  V30 2317 O 390.648 -0.869548 1.47125 0
M  V30 2318 N 390.748 -0.496304 -0.77465 0
M  V30 2319 C 390.748 -0.908403 -2.09122 0
M  V30 2320 N 390.878 0.0517805 -3.00955 0
M  V30 2321 N 390.618 -2.17875 -2.46519 0
M  V30 2322 C 390.498 -3.01988 -1.4033 0
M  V30 2323 H 387.519 -8.36803 -2.32493 0
M  V30 2324 H 387.249 -6.70197 -1.71129 0
M  V30 2325 H 388.116 -7.03551 -4.13168 0
M  V30 2326 H 390.771 -4.59498 -3.54415 0
M  V30 2327 H 391.05 -6.88898 -1.59848 0
M  V30 2328 H 392.042 -6.46749 -3.03687 0
M  V30 2329 H 390.208 -8.46908 -3.20714 0
M  V30 2330 H 390.159 -5.86405 0.105564 0
M  V30 2331 H 390.841 0.483664 -0.597855 0
M  V30 2332 H 390.878 -0.187865 -4.0116 0
M  V30 2333 H 390.979 1.03585 -2.71726 0
M  V30 2334 P 392.078 -7.20834 -5.23717 0
M  V30 2335 O 392.298 -7.79853 -6.57286 0
M  V30 2336 O 392.868 -7.79239 -4.12957 0
M  V30 2337 O 392.328 -5.63315 -5.29344 0
M  V30 2338 C 391.388 -4.80255 -6.01876 0
M  V30 2339 C 392.118 -3.64202 -6.65911 0
M  V30 2340 O 392.328 -2.60694 -5.64732 0
M  V30 2341 C 393.518 -3.93473 -7.1943 0
M  V30 2342 O 393.908 -3.02071 -8.21205 0
M  V30 2343 C 394.398 -3.73047 -5.97036 0
M  V30 2344 C 393.688 -2.58828 -5.25741 0
M  V30 2345 N 393.738 -2.68068 -3.77503 0
M  V30 2346 H 390.899 -5.40332 -6.79951 0
M  V30 2347 H 390.629 -4.41613 -5.32378 0
M  V30 2348 H 391.496 -3.26331 -7.47797 0
M  V30 2349 P 395.458 -2.75334 -8.47391 0
M  V30 2350 O 395.678 -2.44571 -9.90142 0
M  V30 2351 O 396.248 -3.87688 -7.92115 0
M  V30 2352 O 395.708 -1.4459 -7.59357 0
M  V30 2353 C 394.768 -0.347608 -7.69215 0
M  V30 2354 C 395.498 0.96767 -7.52806 0
M  V30 2355 O 395.708 1.21036 -6.1011 0
M  V30 2356 C 396.898 1.04544 -8.13308 0
M  V30 2357 O 397.288 2.38311 -8.41922 0
M  V30 2358 C 397.778 0.491279 -7.02284 0
M  V30 2359 C 397.068 0.996264 -5.77469 0
M  V30 2360 N 397.118 0.0501916 -4.62973 0
M  V30 2361 C 397.038 -1.32786 -4.63244 0
M  V30 2362 N 397.118 -1.86957 -3.44545 0
M  V30 2363 C 397.258 -0.780241 -2.58481 0
M  V30 2364 C 397.388 -0.738536 -1.17757 0
M  V30 2365 O 397.408 -1.66794 -0.372349 0
M  V30 2366 N 397.508 0.58337 -0.711393 0
M  V30 2367 C 397.508 1.70816 -1.51017 0
M  V30 2368 N 397.638 2.87826 -0.880757 0
M  V30 2369 N 397.378 1.67126 -2.8339 0
M  V30 2370 C 397.258 0.401421 -3.30572 0
M  V30 2371 H 394.279 -0.374722 -8.67691 0
M  V30 2372 H 394.009 -0.443485 -6.90277 0
M  V30 2373 H 394.876 1.75537 -7.96793 0
M  V30 2374 H 397.531 1.95076 -5.46529 0
M  V30 2375 H 397.81 -0.608565 -7.04577 0
M  V30 2376 H 398.802 0.889672 -7.08939 0
M  V30 2377 H 396.968 0.43308 -9.04564 0
M  V30 2378 H 396.919 -1.91249 -5.54442 0
M  V30 2379 H 397.601 0.718054 0.275244 0
M  V30 2380 H 397.638 3.75721 -1.41832 0
M  V30 2381 H 397.739 2.90436 0.145468 0
M  V30 2382 P 398.838 2.75334 -8.47391 0
M  V30 2383 O 399.058 3.84128 -9.44797 0
M  V30 2384 O 399.628 1.51947 -8.68712 0
M  V30 2385 O 399.088 3.29363 -6.99321 0
M  V30 2386 C 398.148 4.24011 -6.4274 0
M  V30 2387 C 398.878 5.20775 -5.52155 0
M  V30 2388 O 399.088 4.56534 -4.22446 0
M  V30 2389 C 400.278 5.62629 -5.96531 0
M  V30 2390 O 400.668 6.87667 -5.41053 0
M  V30 2391 C 401.158 4.52537 -5.39283 0
M  V30 2392 C 400.448 4.20027 -4.08623 0
M  V30 2393 N 400.498 2.76189 -3.71603 0
M  V30 2394 H 397.659 4.797 -7.24003 0
M  V30 2395 H 397.389 3.69856 -5.84513 0
M  V30 2396 H 398.256 6.10356 -5.41441 0
M  V30 2397 P 402.218 7.20834 -5.23717 0
M  V30 2398 O 402.438 8.66274 -5.38678 0
M  V30 2399 O 403.008 6.33687 -6.13629 0
M  V30 2400 O 402.468 6.7751 -3.72168 0
M  V30 2401 C 401.528 7.20919 -2.70795 0
M  V30 2402 C 402.258 7.45864 -1.40599 0
M  V30 2403 O 402.468 6.17751 -0.734343 0
M  V30 2404 C 403.658 8.05906 -1.51917 0
M  V30 2405 O 404.048 8.74358 -0.335205 0
M  V30 2406 C 404.538 6.83093 -1.70294 0
M  V30 2407 C 403.828 5.79992 -0.836974 0
M  V30 2408 N 403.878 4.41864 -1.38293 0
M  V30 2409 C 403.798 4.02089 -2.69407 0
M  V30 2410 N 403.868 2.73403 -2.85089 0
M  V30 2411 C 404.018 2.25086 -1.5642 0
M  V30 2412 C 404.148 0.942887 -1.04836 0
M  V30 2413 N 404.158 -0.150999 -1.80369 0
M  V30 2414 N 404.268 0.812565 0.28167 0
M  V30 2415 C 404.258 1.90572 1.03784 0
M  V30 2416 N 404.138 3.167 0.683905 0
M  V30 2417 C 404.018 3.26538 -0.652815 0
M  V30 2418 H 401.04 8.13738 -3.03804 0
M  V30 2419 H 400.768 6.42974 -2.55559 0
M  V30 2420 H 401.636 8.12139 -0.792866 0
M  V30 2421 H 404.291 5.80178 0.160643 0
M  V30 2422 H 404.571 6.51379 -2.75643 0
M  V30 2423 H 405.562 7.01832 -1.3448 0
M  V30 2424 H 403.728 8.73771 -2.38364 0
M  V30 2425 H 403.687 4.7189 -3.52311 0
M  V30 2426 H 404.068 -0.0721434 -2.82608 0
M  V30 2427 H 404.257 -1.0785 -1.36544 0
M  V30 2428 H 404.365 1.73207 2.10241 0
M  V30 2429 P 405.598 8.91 2.12633e-12 0
M  V30 2430 O 405.818 10.1726 0.733694 0
M  V30 2431 O 406.388 8.73148 -1.23936 0
M  V30 2432 O 405.848 7.66872 0.971405 0
M  V30 2433 C 404.908 7.42309 2.04641 0
M  V30 2434 C 405.638 6.86059 3.24661 0
M  V30 2435 O 405.848 5.42847 3.03646 0
M  V30 2436 C 407.038 7.41196 3.50753 0
M  V30 2437 O 407.428 7.27073 4.86816 0
M  V30 2438 C 407.918 6.5273 2.63741 0
M  V30 2439 C 407.208 5.1842 2.73198 0
M  V30 2440 N 407.258 4.38762 1.4784 0
M  V30 2441 H 404.419 8.36803 2.32493 0
M  V30 2442 H 404.149 6.70197 1.71129 0
M  V30 2443 H 405.016 7.03551 4.13168 0
M  V30 2444 P 408.978 7.20834 5.23717 0
M  V30 2445 O 409.198 7.80006 6.57415 0
M  V30 2446 O 409.768 7.79416 4.13051 0
M  V30 2447 O 409.228 5.63315 5.29344 0
M  V30 2448 C 408.288 4.80318 6.01954 0
M  V30 2449 C 409.018 3.64202 6.65911 0
M  V30 2450 O 409.228 2.60736 5.64823 0
M  V30 2451 C 410.418 3.93521 7.19518 0
M  V30 2452 O 410.808 3.02071 8.21205 0
M  V30 2453 C 411.298 3.73047 5.97036 0
M  V30 2454 C 410.588 2.58828 5.25741 0
M  V30 2455 N 410.638 2.68068 3.77503 0
M  V30 2456 C 410.558 3.80474 2.99159 0
M  V30 2457 N 410.628 3.55622 1.71925 0
M  V30 2458 C 410.778 2.1832 1.65733 0
M  V30 2459 C 410.908 1.28842 0.572777 0
M  V30 2460 N 410.918 1.66875 -0.70098 0
M  V30 2461 N 411.028 -0.016788 0.859836 0
M  V30 2462 C 411.018 -0.398145 2.13316 0
M  V30 2463 N 410.898 0.328224 3.22333 0
M  V30 2464 C 410.778 1.62992 2.90383 0
M  V30 2465 H 407.8 5.40394 6.8003 0
M  V30 2466 H 407.528 4.41741 5.32532 0
M  V30 2467 H 408.396 3.26371 7.47889 0
M  V30 2468 H 411.051 1.64007 5.56746 0
M  V30 2469 H 411.331 4.63439 5.3432 0
M  V30 2470 H 412.322 3.44776 6.25925 0
M  V30 2471 H 410.488 4.96707 7.57347 0
M  V30 2472 H 410.447 4.8089 3.39924 0
M  V30 2473 H 410.828 2.66547 -0.941919 0
M  V30 2474 H 411.017 0.965341 -1.44766 0
M  V30 2475 H 411.125 -1.46427 2.29697 0
M  V30 2476 P 412.358 2.75334 8.47391 0
M  V30 2477 O 412.578 2.44571 9.90142 0
M  V30 2478 O 413.148 3.87688 7.92115 0
M  V30 2479 O 412.608 1.4459 7.59357 0
M  V30 2480 C 411.668 0.347608 7.69215 0
M  V30 2481 C 412.398 -0.96767 7.52806 0
M  V30 2482 O 412.608 -1.21036 6.1011 0
M  V30 2483 C 413.798 -1.04544 8.13308 0
M  V30 2484 O 414.188 -2.38311 8.41922 0
M  V30 2485 C 414.678 -0.491279 7.02284 0
M  V30 2486 C 413.968 -0.996264 5.77469 0
M  V30 2487 N 414.018 -0.0501916 4.62973 0
M  V30 2488 H 411.179 0.374722 8.67691 0
M  V30 2489 H 410.909 0.443485 6.90277 0
M  V30 2490 H 411.776 -1.75537 7.96793 0
M  V30 2491 P 415.738 -2.75334 8.47391 0
M  V30 2492 O 415.958 -3.84128 9.44797 0
M  V30 2493 O 416.528 -1.51947 8.68712 0
M  V30 2494 O 415.988 -3.29363 6.99321 0
M  V30 2495 C 415.048 -4.24011 6.4274 0
M  V30 2496 C 415.778 -5.20775 5.52155 0
M  V30 2497 O 415.988 -4.56534 4.22446 0
M  V30 2498 C 417.178 -5.62629 5.96531 0
M  V30 2499 O 417.568 -6.87667 5.41053 0
M  V30 2500 C 418.058 -4.52537 5.39283 0
M  V30 2501 C 417.348 -4.20027 4.08623 0
M  V30 2502 N 417.398 -2.76189 3.71603 0
M  V30 2503 H 414.559 -4.797 7.24003 0
M  V30 2504 H 414.289 -3.69856 5.84513 0
M  V30 2505 H 415.156 -6.10356 5.41441 0
M  V30 2506 P 419.118 -7.20834 5.23717 0
M  V30 2507 O 419.338 -8.66104 5.38572 0
M  V30 2508 O 419.908 -6.33544 6.1349 0
M  V30 2509 O 419.368 -6.7751 3.72168 0
M  V30 2510 C 418.428 -7.20825 2.7076 0
M  V30 2511 C 419.158 -7.45864 1.40599 0
M  V30 2512 O 419.368 -6.17651 0.734225 0
M  V30 2513 C 420.558 -8.05808 1.51899 0
M  V30 2514 O 420.948 -8.74358 0.335205 0
M  V30 2515 C 421.438 -6.83093 1.70294 0
M  V30 2516 C 420.728 -5.79992 0.836974 0
M  V30 2517 N 420.778 -4.41864 1.38293 0
M  V30 2518 C 420.698 -3.99538 2.69438 0
M  V30 2519 N 420.778 -2.69909 2.84277 0
M  V30 2520 C 420.918 -2.21719 1.5408 0
M  V30 2521 C 421.048 -0.891712 1.06628 0
M  V30 2522 O 421.068 0.161298 1.70137 0
M  V30 2523 N 421.168 -0.856846 -0.334985 0
M  V30 2524 C 421.168 -1.9641 -1.15789 0
M  V30 2525 N 421.298 -1.72708 -2.46522 0
M  V30 2526 N 421.038 -3.21165 -0.713741 0
M  V30 2527 C 420.918 -3.26797 0.639748 0
M  V30 2528 H 417.939 -8.13644 3.0377 0
M  V30 2529 H 417.669 -6.42788 2.55485 0
M  V30 2530 H 418.536 -8.12039 0.792769 0
M  V30 2531 H 421.191 -5.80061 -0.166416 0
M  V30 2532 H 421.47 -6.51287 2.75604 0
M  V30 2533 H 422.462 -7.01734 1.34462 0
M  V30 2534 H 420.628 -8.73674 2.38337 0
M  V30 2535 H 420.579 -4.68207 3.53221 0
M  V30 2536 H 421.261 0.0398818 -0.767965 0
M  V30 2537 H 421.298 -2.50995 -3.13503 0
M  V30 2538 H 421.399 -0.759148 -2.80716 0
M  V30 2539 P 422.497 -8.91 -2.28351e-12 0
M  V30 2540 O 422.717 -10.1726 -0.733694 0
M  V30 2541 O 423.287 -8.73148 1.23936 0
M  V30 2542 O 422.747 -7.66872 -0.971405 0
M  V30 2543 C 421.807 -7.42309 -2.04641 0
M  V30 2544 C 422.537 -6.86059 -3.24661 0
M  V30 2545 O 422.747 -5.42847 -3.03646 0
M  V30 2546 C 423.937 -7.41196 -3.50753 0
M  V30 2547 O 424.327 -7.27073 -4.86816 0
M  V30 2548 C 424.817 -6.5273 -2.63741 0
M  V30 2549 C 424.107 -5.1842 -2.73198 0
M  V30 2550 N 424.157 -4.38762 -1.4784 0
M  V30 2551 H 421.318 -8.36803 -2.32493 0
M  V30 2552 H 421.048 -6.70197 -1.71129 0
M  V30 2553 H 421.915 -7.03551 -4.13168 0
M  V30 2554 P 425.877 -7.20834 -5.23717 0
M  V30 2555 O 426.097 -7.79853 -6.57286 0
M  V30 2556 O 426.667 -7.79239 -4.12957 0
M  V30 2557 O 426.127 -5.63315 -5.29344 0
M  V30 2558 C 425.187 -4.80255 -6.01876 0
M  V30 2559 C 425.917 -3.64202 -6.65911 0
M  V30 2560 O 426.127 -2.60694 -5.64732 0
M  V30 2561 C 427.317 -3.93473 -7.1943 0
M  V30 2562 O 427.707 -3.02071 -8.21205 0
M  V30 2563 C 428.197 -3.73047 -5.97036 0
M  V30 2564 C 427.487 -2.58828 -5.25741 0
M  V30 2565 N 427.537 -2.68068 -3.77503 0
M  V30 2566 H 424.698 -5.40332 -6.79951 0
M  V30 2567 H 424.428 -4.41613 -5.32378 0
M  V30 2568 H 425.295 -3.26331 -7.47797 0
M  V30 2569 P 429.257 -2.75334 -8.47391 0
M  V30 2570 O 429.477 -2.44571 -9.90142 0
M  V30 2571 O 430.047 -3.87688 -7.92115 0
M  V30 2572 O 429.507 -1.4459 -7.59357 0
M  V30 2573 C 428.567 -0.347608 -7.69215 0
M  V30 2574 C 429.297 0.96767 -7.52806 0
M  V30 2575 O 429.507 1.21036 -6.1011 0
M  V30 2576 C 430.697 1.04544 -8.13308 0
M  V30 2577 O 431.087 2.38311 -8.41922 0
M  V30 2578 C 431.577 0.491279 -7.02284 0
M  V30 2579 C 430.867 0.996264 -5.77469 0
M  V30 2580 N 430.917 0.0501916 -4.62973 0
M  V30 2581 H 428.078 -0.374722 -8.67691 0
M  V30 2582 H 427.808 -0.443485 -6.90277 0
M  V30 2583 H 428.675 1.75537 -7.96793 0
M  V30 2584 P 432.637 2.75334 -8.47391 0
M  V30 2585 O 432.857 3.84128 -9.44797 0
M  V30 2586 O 433.427 1.51947 -8.68712 0
M  V30 2587 O 432.887 3.29363 -6.99321 0
M  V30 2588 C 431.947 4.24011 -6.4274 0
M  V30 2589 C 432.677 5.20775 -5.52155 0
M  V30 2590 O 432.887 4.56534 -4.22446 0
M  V30 2591 C 434.077 5.62629 -5.96531 0
M  V30 2592 O 434.467 6.87667 -5.41053 0
M  V30 2593 C 434.957 4.52537 -5.39283 0
M  V30 2594 C 434.247 4.20027 -4.08623 0
M  V30 2595 N 434.297 2.76189 -3.71603 0
M  V30 2596 H 431.458 4.797 -7.24003 0
M  V30 2597 H 431.188 3.69856 -5.84513 0
M  V30 2598 H 432.055 6.10356 -5.41441 0
M  V30 2599 P 436.017 7.20834 -5.23717 0
M  V30 2600 O 436.237 8.66104 -5.38572 0
M  V30 2601 O 436.807 6.33544 -6.1349 0
M  V30 2602 O 436.267 6.7751 -3.72168 0
M  V30 2603 C 435.327 7.20825 -2.7076 0
M  V30 2604 C 436.057 7.45864 -1.40599 0
M  V30 2605 O 436.267 6.17651 -0.734225 0
M  V30 2606 C 437.457 8.05808 -1.51899 0
M  V30 2607 O 437.847 8.74358 -0.335205 0
M  V30 2608 C 438.337 6.83093 -1.70294 0
M  V30 2609 C 437.627 5.79992 -0.836974 0
M  V30 2610 N 437.677 4.41864 -1.38293 0
M  V30 2611 H 434.838 8.13644 -3.0377 0
M  V30 2612 H 434.568 6.42788 -2.55485 0
M  V30 2613 H 435.435 8.12039 -0.792769 0
M  V30 2614 P 439.397 8.91 2.44069e-12 0
M  V30 2615 O 439.617 10.1746 0.733838 0
M  V30 2616 O 440.187 8.73346 -1.23964 0
M  V30 2617 O 439.647 7.66872 0.971405 0
M  V30 2618 C 438.707 7.42405 2.04668 0
M  V30 2619 C 439.437 6.86059 3.24661 0
M  V30 2620 O 439.647 5.42934 3.03695 0
M  V30 2621 C 440.837 7.41287 3.50796 0
M  V30 2622 O 441.227 7.27073 4.86816 0
M  V30 2623 C 441.717 6.5273 2.63741 0
M  V30 2624 C 441.007 5.1842 2.73198 0
M  V30 2625 N 441.057 4.38762 1.4784 0
M  V30 2626 C 440.977 4.83651 0.183876 0
M  V30 2627 N 441.047 3.88759 -0.699393 0
M  V30 2628 C 441.197 2.7404 0.0575568 0
M  V30 2629 C 441.327 1.37902 -0.293928 0
M  V30 2630 N 441.337 0.938021 -1.54797 0
M  V30 2631 N 441.447 0.491817 0.70549 0
M  V30 2632 C 441.437 0.931735 1.95979 0
M  V30 2633 N 441.317 2.16017 2.41481 0
M  V30 2634 C 441.197 3.02547 1.39121 0
M  V30 2635 H 438.219 8.36899 2.3252 0
M  V30 2636 H 437.947 6.70391 1.71179 0
M  V30 2637 H 438.815 7.03638 4.13219 0
M  V30 2638 H 441.47 4.59931 3.54016 0
M  V30 2639 H 441.75 6.88995 1.59871 0
M  V30 2640 H 442.741 6.4684 3.0373 0
M  V30 2641 H 440.907 8.47002 3.20749 0
M  V30 2642 H 440.866 5.8885 -0.0765548 0
M  V30 2643 H 441.247 1.60276 -2.32875 0
M  V30 2644 H 441.436 -0.0699355 -1.73859 0
M  V30 2645 H 441.544 0.165507 2.71897 0
M  V30 2646 P 442.777 7.20834 5.23717 0
M  V30 2647 O 442.997 7.79853 6.57286 0
M  V30 2648 O 443.567 7.79239 4.12957 0
M  V30 2649 O 443.027 5.63315 5.29344 0
M  V30 2650 C 442.087 4.80255 6.01876 0
M  V30 2651 C 442.817 3.64202 6.65911 0
M  V30 2652 O 443.027 2.60694 5.64732 0
M  V30 2653 C 444.217 3.93473 7.1943 0
M  V30 2654 O 444.607 3.02071 8.21205 0
M  V30 2655 C 445.097 3.73047 5.97036 0
M  V30 2656 C 444.387 2.58828 5.25741 0
M  V30 2657 N 444.437 2.68068 3.77503 0
M  V30 2658 C 444.357 3.79715 2.96723 0
M  V30 2659 N 444.437 3.5377 1.68852 0
M  V30 2660 C 444.577 2.15054 1.63254 0
M  V30 2661 C 444.707 1.28964 0.518571 0
M  V30 2662 N 444.827 -0.0538097 0.918425 0
M  V30 2663 C 444.827 -0.494275 2.22578 0
M  V30 2664 N 444.957 -1.81086 2.40434 0
M  V30 2665 N 444.697 0.313645 3.27502 0
M  V30 2666 C 444.577 1.61829 2.91033 0
M  V30 2667 H 441.598 5.40332 6.79951 0
M  V30 2668 H 441.328 4.41613 5.32378 0
M  V30 2669 H 442.195 3.26331 7.47797 0
M  V30 2670 P 446.157 2.75334 8.47391 0
M  V30 2671 O 446.377 2.44595 9.90239 0
M  V30 2672 O 446.947 3.87732 7.92204 0
M  V30 2673 O 446.407 1.4459 7.59357 0
M  V30 2674 C 445.467 0.347563 7.69115 0
M  V30 2675 C 446.197 -0.96767 7.52806 0
M  V30 2676 O 446.407 -1.21036 6.1011 0
M  V30 2677 C 447.597 -1.04544 8.13308 0
M  V30 2678 O 447.987 -2.38311 8.41922 0
M  V30 2679 C 448.477 -0.491279 7.02284 0
M  V30 2680 C 447.767 -0.996264 5.77469 0
M  V30 2681 N 447.817 -0.0501808 4.62873 0
M  V30 2682 C 447.967 -0.588177 3.36904 0
M  V30 2683 O 448.057 -1.78598 3.17173 0
M  V30 2684 N 448.007 0.329694 2.33686 0
M  V30 2685 C 447.917 1.6953 2.45079 0
M  V30 2686 C 447.767 2.16933 3.80505 0
M  V30 2687 C 447.717 1.30326 4.83752 0
M  V30 2688 H 444.977 0.374722 8.67691 0
M  V30 2689 H 444.708 0.443421 6.90177 0
M  V30 2690 H 445.575 -1.75537 7.96793 0
M  V30 2691 H 448.23 -1.94496 5.46629 0
M  V30 2692 H 448.509 0.608651 7.04676 0
M  V30 2693 H 449.501 -0.889672 7.08939 0
M  V30 2694 H 447.667 -0.43308 9.04564 0
M  V30 2695 H 447.596 1.68366 5.8516 0
M  V30 2696 P 449.537 -2.75334 8.47391 0
M  V30 2697 O 449.757 -3.84128 9.44797 0
M  V30 2698 O 450.327 -1.51947 8.68712 0
M  V30 2699 O 449.787 -3.29363 6.99321 0
M  V30 2700 C 448.847 -4.24011 6.4274 0
M  V30 2701 C 449.577 -5.20775 5.52155 0
M  V30 2702 O 449.787 -4.56534 4.22446 0
M  V30 2703 C 450.977 -5.62629 5.96531 0
M  V30 2704 O 451.367 -6.87667 5.41053 0
M  V30 2705 C 451.857 -4.52537 5.39283 0
M  V30 2706 C 451.147 -4.20027 4.08623 0
M  V30 2707 N 451.197 -2.76189 3.71603 0
M  V30 2708 H 448.358 -4.797 7.24003 0
M  V30 2709 H 448.088 -3.69856 5.84513 0
M  V30 2710 H 448.955 -6.10356 5.41441 0
M  V30 2711 P 452.917 -7.20834 5.23717 0
M  V30 2712 O 453.137 -8.66104 5.38572 0
M  V30 2713 O 453.707 -6.33544 6.1349 0
M  V30 2714 O 453.167 -6.7751 3.72168 0
M  V30 2715 C 452.227 -7.20825 2.7076 0
M  V30 2716 C 452.957 -7.45864 1.40599 0
M  V30 2717 O 453.167 -6.17651 0.734225 0
M  V30 2718 C 454.357 -8.05808 1.51899 0
M  V30 2719 O 454.747 -8.74358 0.335205 0
M  V30 2720 C 455.237 -6.83093 1.70294 0
M  V30 2721 C 454.527 -5.79992 0.836974 0
M  V30 2722 N 454.577 -4.41864 1.38293 0
M  V30 2723 H 451.738 -8.13644 3.0377 0
M  V30 2724 H 451.468 -6.42788 2.55485 0
M  V30 2725 H 452.335 -8.12039 0.792769 0
M  V30 2726 P 456.297 -8.91 -2.59788e-12 0
M  V30 2727 O 456.517 -10.1746 -0.733838 0
M  V30 2728 O 457.087 -8.73346 1.23964 0
M  V30 2729 O 456.547 -7.66872 -0.971405 0
M  V30 2730 C 455.607 -7.42405 -2.04668 0
M  V30 2731 C 456.337 -6.86059 -3.24661 0
M  V30 2732 O 456.547 -5.42934 -3.03695 0
M  V30 2733 C 457.737 -7.41287 -3.50796 0
M  V30 2734 O 458.127 -7.27073 -4.86816 0
M  V30 2735 C 458.617 -6.5273 -2.63741 0
M  V30 2736 C 457.907 -5.1842 -2.73198 0
M  V30 2737 N 457.957 -4.38762 -1.4784 0
M  V30 2738 C 457.877 -4.83651 -0.183876 0
M  V30 2739 N 457.947 -3.88759 0.699393 0
M  V30 2740 C 458.097 -2.7404 -0.0575568 0
M  V30 2741 C 458.227 -1.37902 0.293928 0
M  V30 2742 N 458.237 -0.938021 1.54797 0
M  V30 2743 N 458.347 -0.491817 -0.70549 0
M  V30 2744 C 458.337 -0.931735 -1.95979 0
M  V30 2745 N 458.217 -2.16017 -2.41481 0
M  V30 2746 C 458.097 -3.02547 -1.39121 0
M  V30 2747 H 455.119 -8.36899 -2.3252 0
M  V30 2748 H 454.847 -6.70391 -1.71179 0
M  V30 2749 H 455.715 -7.03638 -4.13219 0
M  V30 2750 H 458.37 -4.59931 -3.54016 0
M  V30 2751 H 458.65 -6.88995 -1.59871 0
M  V30 2752 H 459.641 -6.4684 -3.0373 0
M  V30 2753 H 457.807 -8.47002 -3.20749 0
M  V30 2754 H 457.766 -5.8885 0.0765548 0
M  V30 2755 H 458.147 -1.60276 2.32875 0
M  V30 2756 H 458.336 0.0699355 1.73859 0
M  V30 2757 H 458.444 -0.165507 -2.71897 0
M  V30 2758 P 459.677 -7.20834 -5.23717 0
M  V30 2759 O 459.897 -7.79853 -6.57286 0
M  V30 2760 O 460.467 -7.79239 -4.12957 0
M  V30 2761 O 459.927 -5.63315 -5.29344 0
M  V30 2762 C 458.987 -4.80255 -6.01876 0
M  V30 2763 C 459.717 -3.64202 -6.65911 0
M  V30 2764 O 459.927 -2.60694 -5.64732 0
M  V30 2765 C 461.117 -3.93473 -7.1943 0
M  V30 2766 O 461.507 -3.02071 -8.21205 0
M  V30 2767 C 461.997 -3.73047 -5.97036 0
M  V30 2768 C 461.287 -2.58828 -5.25741 0
M  V30 2769 N 461.337 -2.68068 -3.77503 0
M  V30 2770 C 461.257 -3.79715 -2.96723 0
M  V30 2771 N 461.337 -3.5377 -1.68852 0
M  V30 2772 C 461.477 -2.15054 -1.63254 0
M  V30 2773 C 461.607 -1.28964 -0.518571 0
M  V30 2774 O 461.627 -1.56826 0.679156 0
M  V30 2775 N 461.727 0.0538097 -0.918425 0
M  V30 2776 C 461.727 0.494275 -2.22578 0
M  V30 2777 N 461.857 1.81086 -2.40434 0
M  V30 2778 N 461.597 -0.313645 -3.27502 0
M  V30 2779 C 461.477 -1.61829 -2.91033 0
M  V30 2780 H 458.498 -5.40332 -6.79951 0
M  V30 2781 H 458.228 -4.41613 -5.32378 0
M  V30 2782 H 459.095 -3.26331 -7.47797 0
M  V30 2783 H 461.75 -1.63422 -5.56814 0
M  V30 2784 H 462.029 -4.63374 -5.34244 0
M  V30 2785 H 463.021 -3.44728 -6.25838 0
M  V30 2786 H 461.187 -4.96652 -7.57263 0
M  V30 2787 H 461.138 -4.80617 -3.3614 0
M  V30 2788 H 461.82 0.742702 -0.199384 0
M  V30 2789 H 461.857 2.20598 -3.35588 0
M  V30 2790 H 461.958 2.43518 -1.58945 0
M  V30 2791 P 463.057 -2.75334 -8.47391 0
M  V30 2792 O 463.277 -2.44571 -9.90142 0
M  V30 2793 O 463.847 -3.87688 -7.92115 0
M  V30 2794 O 463.307 -1.4459 -7.59357 0
M  V30 2795 C 462.367 -0.347608 -7.69215 0
M  V30 2796 C 463.097 0.96767 -7.52806 0
M  V30 2797 O 463.307 1.21036 -6.1011 0
M  V30 2798 C 464.497 1.04544 -8.13308 0
M  V30 2799 O 464.887 2.38311 -8.41922 0
M  V30 2800 C 465.377 0.491279 -7.02284 0
M  V30 2801 C 464.667 0.996264 -5.77469 0
M  V30 2802 N 464.717 0.0501916 -4.62973 0
M  V30 2803 H 461.878 -0.374722 -8.67691 0
M  V30 2804 H 461.608 -0.443485 -6.90277 0
M  V30 2805 H 462.475 1.75537 -7.96793 0
M  V30 2806 P 466.437 2.75334 -8.47391 0
M  V30 2807 O 466.657 3.84128 -9.44797 0
M  V30 2808 O 467.227 1.51947 -8.68712 0
M  V30 2809 O 466.687 3.29363 -6.99321 0
M  V30 2810 C 465.747 4.24011 -6.4274 0
M  V30 2811 C 466.477 5.20775 -5.52155 0
M  V30 2812 O 466.687 4.56534 -4.22446 0
M  V30 2813 C 467.877 5.62629 -5.96531 0
M  V30 2814 O 468.267 6.87667 -5.41053 0
M  V30 2815 C 468.757 4.52537 -5.39283 0
M  V30 2816 C 468.047 4.20027 -4.08623 0
M  V30 2817 N 468.097 2.76189 -3.71603 0
M  V30 2818 H 465.258 4.797 -7.24003 0
M  V30 2819 H 464.988 3.69856 -5.84513 0
M  V30 2820 H 465.855 6.10356 -5.41441 0
M  V30 2821 P 469.817 7.20834 -5.23717 0
M  V30 2822 O 470.037 8.66104 -5.38572 0
M  V30 2823 O 470.607 6.33544 -6.1349 0
M  V30 2824 O 470.067 6.7751 -3.72168 0
M  V30 2825 C 469.127 7.20825 -2.7076 0
M  V30 2826 C 469.857 7.45864 -1.40599 0
M  V30 2827 O 470.067 6.17651 -0.734225 0
M  V30 2828 C 471.257 8.05808 -1.51899 0
M  V30 2829 O 471.647 8.74358 -0.335205 0
M  V30 2830 C 472.137 6.83093 -1.70294 0
M  V30 2831 C 471.427 5.79992 -0.836974 0
M  V30 2832 N 471.477 4.41864 -1.38293 0
M  V30 2833 H 468.638 8.13644 -3.0377 0
M  V30 2834 H 468.368 6.42788 -2.55485 0
M  V30 2835 H 469.235 8.12039 -0.792769 0
M  V30 2836 P 473.197 8.91 2.75506e-12 0
M  V30 2837 O 473.417 10.1726 0.733694 0
M  V30 2838 O 473.987 8.73148 -1.23936 0
M  V30 2839 O 473.447 7.66872 0.971405 0
M  V30 2840 C 472.507 7.42309 2.04641 0
M  V30 2841 C 473.237 6.86059 3.24661 0
M  V30 2842 O 473.447 5.42847 3.03646 0
M  V30 2843 C 474.637 7.41196 3.50753 0
M  V30 2844 O 475.027 7.27073 4.86816 0
M  V30 2845 C 475.517 6.5273 2.63741 0
M  V30 2846 C 474.807 5.1842 2.73198 0
M  V30 2847 N 474.857 4.38762 1.4784 0
M  V30 2848 H 472.018 8.36803 2.32493 0
M  V30 2849 H 471.748 6.70197 1.71129 0
M  V30 2850 H 472.615 7.03551 4.13168 0
M  V30 2851 P 476.577 7.20834 5.23717 0
M  V30 2852 O 476.797 7.79853 6.57286 0
M  V30 2853 O 477.367 7.79239 4.12957 0
M  V30 2854 O 476.827 5.63315 5.29344 0
M  V30 2855 C 475.887 4.80255 6.01876 0
M  V30 2856 C 476.617 3.64202 6.65911 0
M  V30 2857 O 476.827 2.60694 5.64732 0
M  V30 2858 C 478.017 3.93473 7.1943 0
M  V30 2859 O 478.407 3.02071 8.21205 0
M  V30 2860 C 478.897 3.73047 5.97036 0
M  V30 2861 C 478.187 2.58828 5.25741 0
M  V30 2862 N 478.237 2.68068 3.77503 0
M  V30 2863 H 475.398 5.40332 6.79951 0
M  V30 2864 H 475.128 4.41613 5.32378 0
M  V30 2865 H 475.995 3.26331 7.47797 0
M  V30 2866 P 479.957 2.75334 8.47391 0
M  V30 2867 O 480.177 2.44571 9.90142 0
M  V30 2868 O 480.747 3.87688 7.92115 0
M  V30 2869 O 480.207 1.4459 7.59357 0
M  V30 2870 C 479.267 0.347608 7.69215 0
M  V30 2871 C 479.997 -0.96767 7.52806 0
M  V30 2872 O 480.207 -1.21036 6.1011 0
M  V30 2873 C 481.397 -1.04544 8.13308 0
M  V30 2874 O 481.787 -2.38311 8.41922 0
M  V30 2875 C 482.277 -0.491279 7.02284 0
M  V30 2876 C 481.567 -0.996264 5.77469 0
M  V30 2877 N 481.617 -0.0501916 4.62973 0
M  V30 2878 C 481.537 1.32786 4.63244 0
M  V30 2879 N 481.617 1.86957 3.44545 0
M  V30 2880 C 481.757 0.780241 2.58481 0
M  V30 2881 C 481.887 0.738536 1.17757 0
M  V30 2882 O 481.907 1.66794 0.372349 0
M  V30 2883 N 482.007 -0.58337 0.711393 0
M  V30 2884 C 482.007 -1.70816 1.51017 0
M  V30 2885 N 482.137 -2.87826 0.880757 0
M  V30 2886 N 481.877 -1.67126 2.8339 0
M  V30 2887 C 481.757 -0.401421 3.30572 0
M  V30 2888 H 478.778 0.374722 8.67691 0
M  V30 2889 H 478.508 0.443485 6.90277 0
M  V30 2890 H 479.375 -1.75537 7.96793 0
M  V30 2891 H 482.03 -1.95076 5.46529 0
M  V30 2892 H 482.309 0.608565 7.04577 0
M  V30 2893 H 483.301 -0.889672 7.08939 0
M  V30 2894 H 481.467 -0.43308 9.04564 0
M  V30 2895 H 481.418 1.91249 5.54442 0
M  V30 2896 H 482.1 -0.718054 -0.275244 0
M  V30 2897 H 482.137 -3.75721 1.41832 0
M  V30 2898 H 482.238 -2.90436 -0.145468 0
M  V30 2899 P 483.337 -2.75334 8.47391 0
M  V30 2900 O 483.557 -3.84128 9.44797 0
M  V30 2901 O 484.127 -1.51947 8.68712 0
M  V30 2902 O 483.587 -3.29363 6.99321 0
M  V30 2903 C 482.647 -4.24011 6.4274 0
M  V30 2904 C 483.377 -5.20775 5.52155 0
M  V30 2905 O 483.587 -4.56534 4.22446 0
M  V30 2906 C 484.777 -5.62629 5.96531 0
M  V30 2907 O 485.167 -6.87667 5.41053 0
M  V30 2908 C 485.657 -4.52537 5.39283 0
M  V30 2909 C 484.947 -4.20027 4.08623 0
M  V30 2910 N 484.997 -2.76189 3.71603 0
M  V30 2911 H 482.158 -4.797 7.24003 0
M  V30 2912 H 481.888 -3.69856 5.84513 0
M  V30 2913 H 482.755 -6.10356 5.41441 0
M  V30 2914 P 486.717 -7.20834 5.23717 0
M  V30 2915 O 486.937 -8.66104 5.38572 0
M  V30 2916 O 487.507 -6.33544 6.1349 0
M  V30 2917 O 486.967 -6.7751 3.72168 0
M  V30 2918 C 486.027 -7.20825 2.7076 0
M  V30 2919 C 486.757 -7.45864 1.40599 0
M  V30 2920 O 486.967 -6.17651 0.734225 0
M  V30 2921 C 488.157 -8.05808 1.51899 0
M  V30 2922 O 488.547 -8.74358 0.335205 0
M  V30 2923 C 489.037 -6.83093 1.70294 0
M  V30 2924 C 488.327 -5.79992 0.836974 0
M  V30 2925 N 488.377 -4.41864 1.38293 0
M  V30 2926 H 485.538 -8.13644 3.0377 0
M  V30 2927 H 485.268 -6.42788 2.55485 0
M  V30 2928 H 486.135 -8.12039 0.792769 0
M  V30 2929 P 490.097 -8.91 -2.91224e-12 0
M  V30 2930 O 490.317 -10.1726 -0.733694 0
M  V30 2931 O 490.887 -8.73148 1.23936 0
M  V30 2932 O 490.347 -7.66872 -0.971405 0
M  V30 2933 C 489.407 -7.42309 -2.04641 0
M  V30 2934 C 490.137 -6.86059 -3.24661 0
M  V30 2935 O 490.347 -5.42847 -3.03646 0
M  V30 2936 C 491.537 -7.41196 -3.50753 0
M  V30 2937 O 491.927 -7.27073 -4.86816 0
M  V30 2938 C 492.417 -6.5273 -2.63741 0
M  V30 2939 C 491.707 -5.1842 -2.73198 0
M  V30 2940 N 491.757 -4.38762 -1.4784 0
M  V30 2941 H 488.918 -8.36803 -2.32493 0
M  V30 2942 H 488.648 -6.70197 -1.71129 0
M  V30 2943 H 489.515 -7.03551 -4.13168 0
M  V30 2944 P 493.477 -7.20834 -5.23717 0
M  V30 2945 O 493.697 -7.79853 -6.57286 0
M  V30 2946 O 494.267 -7.79239 -4.12957 0
M  V30 2947 O 493.727 -5.63315 -5.29344 0
M  V30 2948 C 492.787 -4.80255 -6.01876 0
M  V30 2949 C 493.517 -3.64202 -6.65911 0
M  V30 2950 O 493.727 -2.60694 -5.64732 0
M  V30 2951 C 494.917 -3.93473 -7.1943 0
M  V30 2952 O 495.307 -3.02071 -8.21205 0
M  V30 2953 C 495.797 -3.73047 -5.97036 0
M  V30 2954 C 495.087 -2.58828 -5.25741 0
M  V30 2955 N 495.137 -2.68068 -3.77503 0
M  V30 2956 H 492.298 -5.40332 -6.79951 0
M  V30 2957 H 492.028 -4.41613 -5.32378 0
M  V30 2958 H 492.895 -3.26331 -7.47797 0
M  V30 2959 P 496.857 -2.75334 -8.47391 0
M  V30 2960 O 497.077 -2.44571 -9.90142 0
M  V30 2961 O 497.647 -3.87688 -7.92115 0
M  V30 2962 O 497.107 -1.4459 -7.59357 0
M  V30 2963 C 496.167 -0.347608 -7.69215 0
M  V30 2964 C 496.897 0.96767 -7.52806 0
M  V30 2965 O 497.107 1.21036 -6.1011 0
M  V30 2966 C 498.297 1.04544 -8.13308 0
M  V30 2967 O 498.687 2.38311 -8.41922 0
M  V30 2968 C 499.177 0.491279 -7.02284 0
M  V30 2969 C 498.467 0.996264 -5.77469 0
M  V30 2970 N 498.517 0.0501916 -4.62973 0
M  V30 2971 H 495.678 -0.374722 -8.67691 0
M  V30 2972 H 495.408 -0.443485 -6.90277 0
M  V30 2973 H 496.275 1.75537 -7.96793 0
M  V30 2974 P 500.237 2.75334 -8.47391 0
M  V30 2975 O 500.457 3.84128 -9.44797 0
M  V30 2976 O 501.027 1.51947 -8.68712 0
M  V30 2977 O 500.487 3.29363 -6.99321 0
M  V30 2978 C 499.547 4.24011 -6.4274 0
M  V30 2979 C 500.277 5.20775 -5.52155 0
M  V30 2980 O 500.487 4.56534 -4.22446 0
M  V30 2981 C 501.677 5.62629 -5.96531 0
M  V30 2982 O 502.067 6.87667 -5.41053 0
M  V30 2983 C 502.557 4.52537 -5.39283 0
M  V30 2984 C 501.847 4.20027 -4.08623 0
M  V30 2985 N 501.897 2.76189 -3.71603 0
M  V30 2986 H 499.058 4.797 -7.24003 0
M  V30 2987 H 498.788 3.69856 -5.84513 0
M  V30 2988 H 499.655 6.10356 -5.41441 0
M  V30 2989 P 503.617 7.20834 -5.23717 0
M  V30 2990 O 503.837 8.66104 -5.38572 0
M  V30 2991 O 504.407 6.33544 -6.1349 0
M  V30 2992 O 503.867 6.7751 -3.72168 0
M  V30 2993 C 502.927 7.20825 -2.7076 0
M  V30 2994 C 503.657 7.45864 -1.40599 0
M  V30 2995 O 503.867 6.17651 -0.734225 0
M  V30 2996 C 505.057 8.05808 -1.51899 0
M  V30 2997 O 505.447 8.74358 -0.335205 0
M  V30 2998 C 505.937 6.83093 -1.70294 0
M  V30 2999 C 505.227 5.79992 -0.836974 0
M  V30 3000 N 505.277 4.41864 -1.38293 0
M  V30 3001 H 502.438 8.13644 -3.0377 0
M  V30 3002 H 502.168 6.42788 -2.55485 0
M  V30 3003 H 503.035 8.12039 -0.792769 0
M  V30 3004 P 506.997 8.91 3.06942e-12 0
M  V30 3005 O 507.217 10.1726 0.733694 0
M  V30 3006 O 507.787 8.73148 -1.23936 0
M  V30 3007 O 507.247 7.66872 0.971405 0
M  V30 3008 C 506.307 7.42309 2.04641 0
M  V30 3009 C 507.037 6.86059 3.24661 0
M  V30 3010 O 507.247 5.42847 3.03646 0
M  V30 3011 C 508.437 7.41196 3.50753 0
M  V30 3012 O 508.827 7.27073 4.86816 0
M  V30 3013 C 509.317 6.5273 2.63741 0
M  V30 3014 C 508.607 5.1842 2.73198 0
M  V30 3015 N 508.657 4.38762 1.4784 0
M  V30 3016 H 505.818 8.36803 2.32493 0
M  V30 3017 H 505.548 6.70197 1.71129 0
M  V30 3018 H 506.415 7.03551 4.13168 0
M  V30 3019 P 510.377 7.20834 5.23717 0
M  V30 3020 O 510.597 7.79853 6.57286 0
M  V30 3021 O 511.167 7.79239 4.12957 0
M  V30 3022 O 510.627 5.63315 5.29344 0
M  V30 3023 C 509.687 4.80255 6.01876 0
M  V30 3024 C 510.417 3.64202 6.65911 0
M  V30 3025 O 510.627 2.60694 5.64732 0
M  V30 3026 C 511.817 3.93473 7.1943 0
M  V30 3027 O 512.207 3.02071 8.21205 0
M  V30 3028 C 512.697 3.73047 5.97036 0
M  V30 3029 C 511.987 2.58828 5.25741 0
M  V30 3030 N 512.037 2.68068 3.77503 0
M  V30 3031 H 509.198 5.40332 6.79951 0
M  V30 3032 H 508.928 4.41613 5.32378 0
M  V30 3033 H 509.795 3.26331 7.47797 0
M  V30 3034 P 513.757 2.75334 8.47391 0
M  V30 3035 O 513.977 2.44571 9.90142 0
M  V30 3036 O 514.547 3.87688 7.92115 0
M  V30 3037 O 514.007 1.4459 7.59357 0
M  V30 3038 C 513.067 0.347608 7.69215 0
M  V30 3039 C 513.797 -0.96767 7.52806 0
M  V30 3040 O 514.007 -1.21036 6.1011 0
M  V30 3041 C 515.197 -1.04544 8.13308 0
M  V30 3042 O 515.587 -2.38311 8.41922 0
M  V30 3043 C 516.077 -0.491279 7.02284 0
M  V30 3044 C 515.367 -0.996264 5.77469 0
M  V30 3045 N 515.417 -0.0501916 4.62973 0
M  V30 3046 H 512.578 0.374722 8.67691 0
M  V30 3047 H 512.308 0.443485 6.90277 0
M  V30 3048 H 513.175 -1.75537 7.96793 0
M  V30 3049 P 517.137 -2.75334 8.47391 0
M  V30 3050 O 517.357 -3.84128 9.44797 0
M  V30 3051 O 517.927 -1.51947 8.68712 0
M  V30 3052 O 517.387 -3.29363 6.99321 0
M  V30 3053 C 516.447 -4.24011 6.4274 0
M  V30 3054 C 517.177 -5.20775 5.52155 0
M  V30 3055 O 517.387 -4.56534 4.22446 0
M  V30 3056 C 518.577 -5.62629 5.96531 0
M  V30 3057 O 518.967 -6.87667 5.41053 0
M  V30 3058 C 519.457 -4.52537 5.39283 0
M  V30 3059 C 518.747 -4.20027 4.08623 0
M  V30 3060 N 518.797 -2.76189 3.71603 0
M  V30 3061 H 515.958 -4.797 7.24003 0
M  V30 3062 H 515.688 -3.69856 5.84513 0
M  V30 3063 H 516.555 -6.10356 5.41441 0
M  V30 3064 H 518.836 -6.85814 4.46035 0
M  V30 3065 H 522.858 5.51656 -7.74769 0
M  V30 3066 O 522.738 4.58361 -7.63359 0
M  V30 3067 P 521.297 4.23843 -7.83734 0
M  V30 3068 O 521.077 4.19407 -9.29784 0
M  V30 3069 O 520.507 5.24426 -7.09156 0
M  V30 3070 O 521.047 2.7935 -7.20758 0
M  V30 3071 C 521.987 1.7299 -7.50419 0
M  V30 3072 C 521.257 0.406376 -7.57911 0
M  V30 3073 O 521.047 -0.0897726 -6.21935 0
M  V30 3074 C 519.857 0.447224 -8.1878 0
M  V30 3075 O 519.467 -0.825065 -8.71101 0
M  V30 3076 C 518.977 0.783801 -6.99623 0
M  V30 3077 C 519.687 0.0619192 -5.85967 0
M  V30 3078 N 519.637 0.790462 -4.56202 0
M  V30 3079 H 522.476 1.93423 -8.4679 0
M  V30 3080 H 522.748 1.68852 -6.70877 0
M  V30 3081 H 521.88 -0.289041 -8.15388 0
M  V30 3082 H 519.225 -0.927006 -5.72848 0
M  V30 3083 H 518.945 1.86973 -6.82036 0
M  V30 3084 H 517.954 0.403953 -7.13357 0
M  V30 3085 H 519.788 1.20599 -8.97534 0
M  V30 3086 P 517.917 -1.17771 -8.83182 0
M  V30 3087 O 517.697 -2.07206 -9.98732 0
M  V30 3088 O 517.127 0.0743816 -8.81969 0
M  V30 3089 O 517.667 -1.97652 -7.47304 0
M  V30 3090 C 518.607 -3.01133 -7.08783 0
M  V30 3091 C 517.877 -4.12613 -6.37049 0
M  V30 3092 O 517.667 -3.72827 -4.97879 0
M  V30 3093 C 516.477 -4.45085 -6.88694 0
M  V30 3094 O 516.087 -5.7877 -6.5624 0
M  V30 3095 C 515.597 -3.47817 -6.12078 0
M  V30 3096 C 516.307 -3.39414 -4.77697 0
M  V30 3097 N 516.257 -2.04199 -4.15538 0
M  V30 3098 H 519.096 -3.41248 -7.98759 0
M  V30 3099 H 519.368 -2.57728 -6.42 0
M  V30 3100 H 518.5 -5.02657 -6.42673 0
M  V30 3101 H 515.845 -4.11708 -4.08956 0
M  V30 3102 H 515.565 -2.49626 -6.61679 0
M  V30 3103 H 514.574 -3.8662 -6.00862 0
M  V30 3104 H 516.408 -4.29991 -7.97006 0
M  V30 3105 P 514.537 -6.144 -6.45285 0
M  V30 3106 O 514.317 -7.54673 -6.86199 0
M  V30 3107 O 513.747 -5.12391 -7.179 0
M  V30 3108 O 514.287 -5.99158 -4.88404 0
M  V30 3109 C 515.227 -6.60234 -3.96415 0
M  V30 3110 C 514.497 -7.08259 -2.72856 0
M  V30 3111 O 514.287 -5.9427 -1.83651 0
M  V30 3112 C 513.097 -7.64886 -2.9555 0
M  V30 3113 O 512.707 -8.53963 -1.90717 0
M  V30 3114 C 512.217 -6.4116 -2.90739 0
M  V30 3115 C 512.927 -5.55375 -1.86963 0
M  V30 3116 N 512.877 -4.09664 -2.15742 0
M  V30 3117 H 515.716 -7.45574 -4.45629 0
M  V30 3118 H 515.988 -5.86232 -3.67314 0
M  V30 3119 H 515.12 -7.84412 -2.24479 0
M  V30 3120 P 511.157 -8.7635 -1.60911 0
M  V30 3121 O 510.937 -10.1388 -1.11561 0
M  V30 3122 O 510.367 -8.36503 -2.79617 0
M  V30 3123 O 510.907 -7.71806 -0.42951 0
M  V30 3124 C 511.847 -7.67148 0.673689 0
M  V30 3125 C 511.117 -7.33374 1.95559 0
M  V30 3126 O 510.907 -5.88721 2.00726 0
M  V30 3127 C 509.717 -7.92526 2.10483 0
M  V30 3128 O 509.327 -8.02971 3.47653 0
M  V30 3129 C 508.837 -6.89602 1.41652 0
M  V30 3130 C 509.547 -5.59201 1.75185 0
M  V30 3131 N 509.497 -4.58235 0.662552 0
M  V30 3132 H 512.336 -8.65116 0.777161 0
M  V30 3133 H 512.608 -6.90173 0.474152 0
M  V30 3134 H 511.74 -7.66548 2.79458 0
M  V30 3135 P 507.777 -8.03563 3.84925 0
M  V30 3136 O 507.557 -8.85821 5.0569 0
M  V30 3137 O 506.987 -8.41101 2.65469 0
M  V30 3138 O 507.527 -6.4965 4.18908 0
M  V30 3139 C 508.467 -5.81037 5.05421 0
M  V30 3140 C 507.737 -4.78366 5.89277 0
M  V30 3141 O 507.527 -3.58302 5.08433 0
M  V30 3142 C 506.337 -5.17448 6.36119 0
M  V30 3143 O 505.947 -4.45271 7.53232 0
M  V30 3144 C 505.457 -4.74639 5.19936 0
M  V30 3145 C 506.167 -3.49432 4.70418 0
M  V30 3146 N 506.117 -3.31776 3.22945 0
M  V30 3147 H 508.956 -6.54213 5.71376 0
M  V30 3148 H 509.228 -5.30492 4.44033 0
M  V30 3149 H 508.36 -4.55889 6.76652 0
M  V30 3150 P 504.397 -4.23843 7.83734 0
M  V30 3151 O 504.177 -4.19407 9.29784 0
M  V30 3152 O 503.607 -5.24426 7.09156 0
M  V30 3153 O 504.147 -2.7935 7.20758 0
M  V30 3154 C 505.087 -1.7299 7.50419 0
M  V30 3155 C 504.357 -0.406376 7.57911 0
M  V30 3156 O 504.147 0.0897726 6.21935 0
M  V30 3157 C 502.957 -0.447224 8.1878 0
M  V30 3158 O 502.567 0.825065 8.71101 0
M  V30 3159 C 502.077 -0.783801 6.99623 0
M  V30 3160 C 502.787 -0.0619192 5.85967 0
M  V30 3161 N 502.737 -0.7859 4.56281 0
M  V30 3162 H 505.576 -1.93423 8.4679 0
M  V30 3163 H 505.848 -1.68181 6.71046 0
M  V30 3164 H 504.98 0.289041 8.15388 0
M  V30 3165 P 501.017 1.17771 8.83182 0
M  V30 3166 O 500.797 2.07206 9.98732 0
M  V30 3167 O 500.227 -0.0743816 8.81969 0
M  V30 3168 O 500.767 1.97652 7.47304 0
M  V30 3169 C 501.707 3.01133 7.08783 0
M  V30 3170 C 500.977 4.12613 6.37049 0
M  V30 3171 O 500.767 3.72827 4.97879 0
M  V30 3172 C 499.577 4.45085 6.88694 0
M  V30 3173 O 499.187 5.7877 6.5624 0
M  V30 3174 C 498.697 3.47817 6.12078 0
M  V30 3175 C 499.407 3.39414 4.77697 0
M  V30 3176 N 499.357 2.04615 4.15333 0
M  V30 3177 H 502.196 3.41248 7.98759 0
M  V30 3178 H 502.468 2.5837 6.41742 0
M  V30 3179 H 501.6 5.02657 6.42673 0
M  V30 3180 P 497.637 6.144 6.45285 0
M  V30 3181 O 497.417 7.54673 6.86199 0
M  V30 3182 O 496.847 5.12391 7.179 0
M  V30 3183 O 497.387 5.99158 4.88404 0
M  V30 3184 C 498.327 6.60234 3.96415 0
M  V30 3185 C 497.597 7.08259 2.72856 0
M  V30 3186 O 497.387 5.9427 1.83651 0
M  V30 3187 C 496.197 7.64886 2.9555 0
M  V30 3188 O 495.807 8.53963 1.90717 0
M  V30 3189 C 495.317 6.4116 2.90739 0
M  V30 3190 C 496.027 5.55375 1.86963 0
M  V30 3191 N 495.977 4.09664 2.15742 0
M  V30 3192 H 498.816 7.45574 4.45629 0
M  V30 3193 H 499.088 5.86232 3.67314 0
M  V30 3194 H 498.22 7.84412 2.24479 0
M  V30 3195 P 494.257 8.7635 1.60911 0
M  V30 3196 O 494.037 10.1388 1.11561 0
M  V30 3197 O 493.467 8.36503 2.79617 0
M  V30 3198 O 494.007 7.71806 0.42951 0
M  V30 3199 C 494.947 7.67148 -0.673689 0
M  V30 3200 C 494.217 7.33374 -1.95559 0
M  V30 3201 O 494.007 5.88721 -2.00726 0
M  V30 3202 C 492.817 7.92526 -2.10483 0
M  V30 3203 O 492.427 8.02971 -3.47653 0
M  V30 3204 C 491.937 6.89602 -1.41652 0
M  V30 3205 C 492.647 5.59201 -1.75185 0
M  V30 3206 N 492.597 4.58235 -0.662552 0
M  V30 3207 H 495.436 8.65116 -0.777161 0
M  V30 3208 H 495.708 6.90173 -0.474152 0
M  V30 3209 H 494.84 7.66548 -2.79458 0
M  V30 3210 P 490.877 8.03563 -3.84925 0
M  V30 3211 O 490.657 8.85821 -5.0569 0
M  V30 3212 O 490.087 8.41101 -2.65469 0
M  V30 3213 O 490.627 6.4965 -4.18908 0
M  V30 3214 C 491.567 5.81037 -5.05421 0
M  V30 3215 C 490.837 4.78366 -5.89277 0
M  V30 3216 O 490.627 3.58302 -5.08433 0
M  V30 3217 C 489.437 5.17448 -6.36119 0
M  V30 3218 O 489.047 4.45271 -7.53232 0
M  V30 3219 C 488.557 4.74639 -5.19936 0
M  V30 3220 C 489.267 3.49432 -4.70418 0
M  V30 3221 N 489.217 3.31776 -3.22945 0
M  V30 3222 H 492.056 6.54213 -5.71376 0
M  V30 3223 H 492.328 5.30492 -4.44033 0
M  V30 3224 H 491.46 4.55889 -6.76652 0
M  V30 3225 P 487.497 4.23843 -7.83734 0
M  V30 3226 O 487.277 4.19407 -9.29784 0
M  V30 3227 O 486.707 5.24426 -7.09156 0
M  V30 3228 O 487.247 2.7935 -7.20758 0
M  V30 3229 C 488.187 1.7299 -7.50419 0
M  V30 3230 C 487.457 0.406376 -7.57911 0
M  V30 3231 O 487.247 -0.0897726 -6.21935 0
M  V30 3232 C 486.057 0.447224 -8.1878 0
M  V30 3233 O 485.667 -0.825065 -8.71101 0
M  V30 3234 C 485.177 0.783801 -6.99623 0
M  V30 3235 C 485.887 0.0619192 -5.85967 0
M  V30 3236 N 485.837 0.7859 -4.56281 0
M  V30 3237 H 488.676 1.93423 -8.4679 0
M  V30 3238 H 488.948 1.68181 -6.71046 0
M  V30 3239 H 488.08 -0.289041 -8.15388 0
M  V30 3240 P 484.117 -1.17771 -8.83182 0
M  V30 3241 O 483.897 -2.07206 -9.98732 0
M  V30 3242 O 483.327 0.0743816 -8.81969 0
M  V30 3243 O 483.867 -1.97678 -7.474 0
M  V30 3244 C 484.807 -3.01133 -7.08783 0
M  V30 3245 C 484.077 -4.1203 -6.37546 0
M  V30 3246 O 483.867 -3.72887 -4.9796 0
M  V30 3247 C 482.677 -4.45085 -6.88694 0
M  V30 3248 O 482.287 -5.78836 -6.56315 0
M  V30 3249 C 481.797 -3.47817 -6.12078 0
M  V30 3250 C 482.507 -3.39414 -4.77697 0
M  V30 3251 N 482.457 -2.04615 -4.15333 0
M  V30 3252 C 482.307 -1.96929 -2.77162 0
M  V30 3253 O 482.217 -3.02017 -2.12006 0
M  V30 3254 N 482.257 -0.55485 -2.24237 0
M  V30 3255 C 482.357 0.367808 -2.9169 0
M  V30 3256 N 482.307 1.53426 -2.29427 0
M  V30 3257 C 482.507 0.319148 -4.33828 0
M  V30 3258 C 482.557 -0.920672 -4.90433 0
M  V30 3259 H 485.297 -3.41209 -7.98667 0
M  V30 3260 H 485.567 -2.5837 -6.41742 0
M  V30 3261 H 484.7 -5.02718 -6.42752 0
M  V30 3262 H 482.045 -4.11779 -4.09026 0
M  V30 3263 H 481.765 -2.49661 -6.61772 0
M  V30 3264 H 480.774 -3.86674 -6.00946 0
M  V30 3265 H 482.608 -4.29991 -7.97006 0
M  V30 3266 H 482.68 -1.00589 -5.98303 0
M  V30 3267 H 482.578 1.22639 -4.93799 0
M  V30 3268 H 482.19 1.56819 -1.27167 0
M  V30 3269 H 482.386 2.41062 -2.83063 0
M  V30 3270 P 480.737 -6.144 -6.45285 0
M  V30 3271 O 480.517 -7.54673 -6.86199 0
M  V30 3272 O 479.947 -5.12391 -7.179 0
M  V30 3273 O 480.487 -5.99158 -4.88404 0
M  V30 3274 C 481.427 -6.60234 -3.96415 0
M  V30 3275 C 480.697 -7.08259 -2.72856 0
M  V30 3276 O 480.487 -5.9427 -1.83651 0
M  V30 3277 C 479.297 -7.64886 -2.9555 0
M  V30 3278 O 478.907 -8.53963 -1.90717 0
M  V30 3279 C 478.417 -6.4116 -2.90739 0
M  V30 3280 C 479.127 -5.55375 -1.86963 0
M  V30 3281 N 479.077 -4.09664 -2.15742 0
M  V30 3282 H 481.916 -7.45574 -4.45629 0
M  V30 3283 H 482.188 -5.86232 -3.67314 0
M  V30 3284 H 481.32 -7.84412 -2.24479 0
M  V30 3285 P 477.357 -8.7635 -1.60911 0
M  V30 3286 O 477.137 -10.1388 -1.11561 0
M  V30 3287 O 476.567 -8.36503 -2.79617 0
M  V30 3288 O 477.107 -7.71806 -0.42951 0
M  V30 3289 C 478.047 -7.67148 0.673689 0
M  V30 3290 C 477.317 -7.33374 1.95559 0
M  V30 3291 O 477.107 -5.88721 2.00726 0
M  V30 3292 C 475.917 -7.92526 2.10483 0
M  V30 3293 O 475.527 -8.02971 3.47653 0
M  V30 3294 C 475.037 -6.89602 1.41652 0
M  V30 3295 C 475.747 -5.59201 1.75185 0
M  V30 3296 N 475.697 -4.58235 0.662552 0
M  V30 3297 H 478.536 -8.65116 0.777161 0
M  V30 3298 H 478.808 -6.90173 0.474152 0
M  V30 3299 H 477.94 -7.66548 2.79458 0
M  V30 3300 P 473.977 -8.03563 3.84925 0
M  V30 3301 O 473.757 -8.85821 5.0569 0
M  V30 3302 O 473.187 -8.41101 2.65469 0
M  V30 3303 O 473.727 -6.4965 4.18908 0
M  V30 3304 C 474.667 -5.81037 5.05421 0
M  V30 3305 C 473.937 -4.78366 5.89277 0
M  V30 3306 O 473.727 -3.58302 5.08433 0
M  V30 3307 C 472.537 -5.17448 6.36119 0
M  V30 3308 O 472.147 -4.45271 7.53232 0
M  V30 3309 C 471.657 -4.74639 5.19936 0
M  V30 3310 C 472.367 -3.49432 4.70418 0
M  V30 3311 N 472.317 -3.31776 3.22945 0
M  V30 3312 H 475.156 -6.54213 5.71376 0
M  V30 3313 H 475.428 -5.30492 4.44033 0
M  V30 3314 H 474.56 -4.55889 6.76652 0
M  V30 3315 P 470.597 -4.23843 7.83734 0
M  V30 3316 O 470.377 -4.19407 9.29784 0
M  V30 3317 O 469.807 -5.24426 7.09156 0
M  V30 3318 O 470.347 -2.7935 7.20758 0
M  V30 3319 C 471.287 -1.7299 7.50419 0
M  V30 3320 C 470.557 -0.406376 7.57911 0
M  V30 3321 O 470.347 0.0897726 6.21935 0
M  V30 3322 C 469.157 -0.447224 8.1878 0
M  V30 3323 O 468.767 0.825065 8.71101 0
M  V30 3324 C 468.277 -0.783801 6.99623 0
M  V30 3325 C 468.987 -0.0619192 5.85967 0
M  V30 3326 N 468.937 -0.7859 4.56281 0
M  V30 3327 H 471.776 -1.93423 8.4679 0
M  V30 3328 H 472.048 -1.68181 6.71046 0
M  V30 3329 H 471.18 0.289041 8.15388 0
M  V30 3330 P 467.217 1.17771 8.83182 0
M  V30 3331 O 466.997 2.07206 9.98732 0
M  V30 3332 O 466.427 -0.0743816 8.81969 0
M  V30 3333 O 466.967 1.97652 7.47304 0
M  V30 3334 C 467.907 3.01133 7.08783 0
M  V30 3335 C 467.177 4.12613 6.37049 0
M  V30 3336 O 466.967 3.72827 4.97879 0
M  V30 3337 C 465.777 4.45085 6.88694 0
M  V30 3338 O 465.387 5.7877 6.5624 0
M  V30 3339 C 464.897 3.47817 6.12078 0
M  V30 3340 C 465.607 3.39414 4.77697 0
M  V30 3341 N 465.557 2.04615 4.15333 0
M  V30 3342 H 468.396 3.41248 7.98759 0
M  V30 3343 H 468.668 2.5837 6.41742 0
M  V30 3344 H 467.8 5.02657 6.42673 0
M  V30 3345 P 463.837 6.144 6.45285 0
M  V30 3346 O 463.617 7.54673 6.86199 0
M  V30 3347 O 463.047 5.12391 7.179 0
M  V30 3348 O 463.587 5.99236 4.88467 0
M  V30 3349 C 464.527 6.60234 3.96415 0
M  V30 3350 C 463.797 7.08079 2.736 0
M  V30 3351 O 463.587 5.94365 1.8368 0
M  V30 3352 C 462.397 7.64886 2.9555 0
M  V30 3353 O 462.007 8.5406 1.90739 0
M  V30 3354 C 461.517 6.4116 2.90739 0
M  V30 3355 C 462.227 5.55375 1.86963 0
M  V30 3356 N 462.177 4.09664 2.15742 0
M  V30 3357 C 462.027 3.22231 1.08477 0
M  V30 3358 O 461.937 3.68951 -0.0600489 0
M  V30 3359 N 461.977 1.76692 1.48799 0
M  V30 3360 C 462.077 1.41695 2.57602 0
M  V30 3361 N 462.027 0.107296 2.75791 0
M  V30 3362 C 462.227 2.29178 3.69733 0
M  V30 3363 C 462.277 3.62753 3.42653 0
M  V30 3364 H 465.017 7.45488 4.45578 0
M  V30 3365 H 465.287 5.86232 3.67314 0
M  V30 3366 H 464.42 7.84508 2.24507 0
M  V30 3367 H 461.765 5.73556 0.888715 0
M  V30 3368 H 461.485 5.9096 3.88638 0
M  V30 3369 H 460.494 6.66053 2.58894 0
M  V30 3370 H 462.328 8.16339 3.92049 0
M  V30 3371 H 462.4 4.33052 4.24913 0
M  V30 3372 H 462.298 1.9103 4.71577 0
M  V30 3373 H 461.91 -0.521221 1.95056 0
M  V30 3374 H 462.106 -0.286429 3.70695 0
M  V30 3375 P 460.457 8.7635 1.60911 0
M  V30 3376 O 460.237 10.1388 1.11561 0
M  V30 3377 O 459.667 8.36503 2.79617 0
M  V30 3378 O 460.207 7.71806 0.42951 0
M  V30 3379 C 461.147 7.66948 -0.673514 0
M  V30 3380 C 460.417 7.33374 -1.95559 0
M  V30 3381 O 460.207 5.88721 -2.00726 0
M  V30 3382 C 459.017 7.92218 -2.1125 0
M  V30 3383 O 458.627 8.02971 -3.47653 0
M  V30 3384 C 458.137 6.89504 -1.41631 0
M  V30 3385 C 458.847 5.59106 -1.75155 0
M  V30 3386 N 458.797 4.58136 -0.662409 0
M  V30 3387 C 458.647 3.26059 -1.02863 0
M  V30 3388 O 458.557 2.90743 -2.19009 0
M  V30 3389 N 458.607 2.35995 0.0155585 0
M  V30 3390 C 458.697 2.65248 1.35603 0
M  V30 3391 O 458.647 1.75605 2.20651 0
M  V30 3392 C 458.847 4.05747 1.64698 0
M  V30 3393 C 458.957 4.42345 3.09553 0
M  V30 3394 C 458.897 4.96734 0.652411 0
M  V30 3395 H 461.638 8.64917 -0.776982 0
M  V30 3396 H 461.907 6.89974 -0.474015 0
M  V30 3397 H 461.04 7.66548 -2.79458 0
M  V30 3398 H 458.385 5.16076 -2.65138 0
M  V30 3399 H 458.106 7.06433 -0.329384 0
M  V30 3400 H 457.114 6.90829 -1.81996 0
M  V30 3401 H 458.948 8.90774 -1.62639 0
M  V30 3402 H 459.019 6.02181 0.895285 0
M  V30 3403 H 457.989 4.80252 3.45468 0
M  V30 3404 H 459.726 5.20015 3.22119 0
M  V30 3405 H 459.238 3.53269 3.67833 0
M  V30 3406 H 458.502 1.39558 -0.227499 0
M  V30 3407 P 457.077 8.03563 -3.84925 0
M  V30 3408 O 456.857 8.85821 -5.0569 0
M  V30 3409 O 456.287 8.41101 -2.65469 0
M  V30 3410 O 456.827 6.4965 -4.18908 0
M  V30 3411 C 457.767 5.81037 -5.05421 0
M  V30 3412 C 457.037 4.78366 -5.89277 0
M  V30 3413 O 456.827 3.58302 -5.08433 0
M  V30 3414 C 455.637 5.17448 -6.36119 0
M  V30 3415 O 455.247 4.45271 -7.53232 0
M  V30 3416 C 454.757 4.74639 -5.19936 0
M  V30 3417 C 455.467 3.49432 -4.70418 0
M  V30 3418 N 455.417 3.31776 -3.22945 0
M  V30 3419 H 458.256 6.54213 -5.71376 0
M  V30 3420 H 458.528 5.30492 -4.44033 0
M  V30 3421 H 457.66 4.55889 -6.76652 0
M  V30 3422 P 453.697 4.23843 -7.83734 0
M  V30 3423 O 453.477 4.19407 -9.29784 0
M  V30 3424 O 452.907 5.24426 -7.09156 0
M  V30 3425 O 453.447 2.7935 -7.20758 0
M  V30 3426 C 454.387 1.7299 -7.50419 0
M  V30 3427 C 453.657 0.406376 -7.57911 0
M  V30 3428 O 453.447 -0.0897726 -6.21935 0
M  V30 3429 C 452.257 0.447224 -8.1878 0
M  V30 3430 O 451.867 -0.825065 -8.71101 0
M  V30 3431 C 451.377 0.783801 -6.99623 0
M  V30 3432 C 452.087 0.0619192 -5.85967 0
M  V30 3433 N 452.037 0.7859 -4.56281 0
M  V30 3434 H 454.876 1.93423 -8.4679 0
M  V30 3435 H 455.148 1.68181 -6.71046 0
M  V30 3436 H 454.28 -0.289041 -8.15388 0
M  V30 3437 P 450.317 -1.17771 -8.83182 0
M  V30 3438 O 450.097 -2.07206 -9.98732 0
M  V30 3439 O 449.527 0.0743816 -8.81969 0
M  V30 3440 O 450.067 -1.97652 -7.47304 0
M  V30 3441 C 451.007 -3.01133 -7.08783 0
M  V30 3442 C 450.277 -4.12613 -6.37049 0
M  V30 3443 O 450.067 -3.72827 -4.97879 0
M  V30 3444 C 448.877 -4.45085 -6.88694 0
M  V30 3445 O 448.487 -5.7877 -6.5624 0
M  V30 3446 C 447.997 -3.47817 -6.12078 0
M  V30 3447 C 448.707 -3.39414 -4.77697 0
M  V30 3448 N 448.657 -2.04615 -4.15333 0
M  V30 3449 C 448.737 -0.803897 -4.75249 0
M  V30 3450 N 448.657 0.197615 -3.91502 0
M  V30 3451 C 448.517 -0.413002 -2.66823 0
M  V30 3452 C 448.387 0.157221 -1.38007 0
M  V30 3453 N 448.267 -0.833136 -0.390236 0
M  V30 3454 C 448.267 -2.19402 -0.623885 0
M  V30 3455 N 448.137 -2.97622 0.449677 0
M  V30 3456 N 448.397 -2.73005 -1.83601 0
M  V30 3457 C 448.517 -1.78786 -2.80935 0
M  V30 3458 H 451.496 -3.41248 -7.98759 0
M  V30 3459 H 451.768 -2.5837 -6.41742 0
M  V30 3460 H 450.9 -5.02657 -6.42673 0
M  V30 3461 P 446.937 -6.144 -6.45285 0
M  V30 3462 O 446.717 -7.54673 -6.86199 0
M  V30 3463 O 446.147 -5.12391 -7.179 0
M  V30 3464 O 446.687 -5.99158 -4.88404 0
M  V30 3465 C 447.627 -6.60062 -3.96313 0
M  V30 3466 C 446.897 -7.08259 -2.72856 0
M  V30 3467 O 446.687 -5.9427 -1.83651 0
M  V30 3468 C 445.497 -7.65087 -2.94749 0
M  V30 3469 O 445.107 -8.53963 -1.90717 0
M  V30 3470 C 444.617 -6.41069 -2.90698 0
M  V30 3471 C 445.327 -5.5528 -1.86931 0
M  V30 3472 N 445.277 -4.09575 -2.15696 0
M  V30 3473 C 445.127 -3.24249 -1.08435 0
M  V30 3474 O 445.037 -3.63946 0.0628747 0
M  V30 3475 N 445.087 -1.90009 -1.39973 0
M  V30 3476 C 445.177 -1.34884 -2.65614 0
M  V30 3477 C 445.327 -2.3145 -3.71736 0
M  V30 3478 C 445.377 -3.63518 -3.44754 0
M  V30 3479 H 448.118 -7.45402 -4.45526 0
M  V30 3480 H 448.387 -5.86062 -3.67208 0
M  V30 3481 H 447.52 -7.84412 -2.24479 0
M  V30 3482 H 444.865 -5.73358 -0.888409 0
M  V30 3483 H 444.586 -5.90877 -3.88583 0
M  V30 3484 H 443.594 -6.65867 -2.58821 0
M  V30 3485 H 445.428 -8.16248 -3.92006 0
M  V30 3486 H 445.499 -4.34551 -4.26383 0
M  V30 3487 P 443.557 -8.7635 -1.60911 0
M  V30 3488 O 443.337 -10.1388 -1.11561 0
M  V30 3489 O 442.767 -8.36503 -2.79617 0
M  V30 3490 O 443.307 -7.71806 -0.42951 0
M  V30 3491 C 444.247 -7.66948 0.673514 0
M  V30 3492 C 443.517 -7.33374 1.95559 0
M  V30 3493 O 443.307 -5.88721 2.00726 0
M  V30 3494 C 442.117 -7.92218 2.1125 0
M  V30 3495 O 441.727 -8.02971 3.47653 0
M  V30 3496 C 441.237 -6.89504 1.41631 0
M  V30 3497 C 441.947 -5.59106 1.75155 0
M  V30 3498 N 441.897 -4.58136 0.662409 0
M  V30 3499 C 441.747 -3.26059 1.02863 0
M  V30 3500 O 441.657 -2.90743 2.19009 0
M  V30 3501 N 441.707 -2.35995 -0.0155585 0
M  V30 3502 C 441.797 -2.65248 -1.35603 0
M  V30 3503 O 441.747 -1.75605 -2.20651 0
M  V30 3504 C 441.947 -4.05747 -1.64698 0
M  V30 3505 C 442.057 -4.42345 -3.09553 0
M  V30 3506 C 441.997 -4.96734 -0.652411 0
M  V30 3507 H 444.738 -8.64917 0.776982 0
M  V30 3508 H 445.007 -6.89974 0.474015 0
M  V30 3509 H 444.14 -7.66548 2.79458 0
M  V30 3510 H 441.485 -5.16076 2.65138 0
M  V30 3511 H 441.206 -7.06433 0.329384 0
M  V30 3512 H 440.214 -6.90829 1.81996 0
M  V30 3513 H 442.048 -8.90774 1.62639 0
M  V30 3514 H 442.119 -6.02181 -0.895285 0
M  V30 3515 H 441.089 -4.80252 -3.45468 0
M  V30 3516 H 442.826 -5.20015 -3.22119 0
M  V30 3517 H 442.338 -3.53269 -3.67833 0
M  V30 3518 H 441.602 -1.39558 0.227499 0
M  V30 3519 P 440.177 -8.03563 3.84925 0
M  V30 3520 O 439.957 -8.85821 5.0569 0
M  V30 3521 O 439.387 -8.41101 2.65469 0
M  V30 3522 O 439.927 -6.4965 4.18908 0
M  V30 3523 C 440.867 -5.81037 5.05421 0
M  V30 3524 C 440.137 -4.78366 5.89277 0
M  V30 3525 O 439.927 -3.58302 5.08433 0
M  V30 3526 C 438.737 -5.17448 6.36119 0
M  V30 3527 O 438.347 -4.45271 7.53232 0
M  V30 3528 C 437.857 -4.74639 5.19936 0
M  V30 3529 C 438.567 -3.49432 4.70418 0
M  V30 3530 N 438.517 -3.31776 3.22945 0
M  V30 3531 H 441.356 -6.54213 5.71376 0
M  V30 3532 H 441.628 -5.30492 4.44033 0
M  V30 3533 H 440.76 -4.55889 6.76652 0
M  V30 3534 P 436.797 -4.23843 7.83734 0
M  V30 3535 O 436.577 -4.19407 9.29784 0
M  V30 3536 O 436.007 -5.24426 7.09156 0
M  V30 3537 O 436.547 -2.7935 7.20758 0
M  V30 3538 C 437.487 -1.7299 7.50419 0
M  V30 3539 C 436.757 -0.406376 7.57911 0
M  V30 3540 O 436.547 0.0897726 6.21935 0
M  V30 3541 C 435.357 -0.447224 8.1878 0
M  V30 3542 O 434.967 0.825065 8.71101 0
M  V30 3543 C 434.477 -0.783801 6.99623 0
M  V30 3544 C 435.187 -0.0619192 5.85967 0
M  V30 3545 N 435.137 -0.7859 4.56281 0
M  V30 3546 H 437.976 -1.93423 8.4679 0
M  V30 3547 H 438.248 -1.68181 6.71046 0
M  V30 3548 H 437.38 0.289041 8.15388 0
M  V30 3549 P 433.417 1.17771 8.83182 0
M  V30 3550 O 433.197 2.07206 9.98732 0
M  V30 3551 O 432.627 -0.0743816 8.81969 0
M  V30 3552 O 433.167 1.97652 7.47304 0
M  V30 3553 C 434.107 3.01133 7.08783 0
M  V30 3554 C 433.377 4.12613 6.37049 0
M  V30 3555 O 433.167 3.72827 4.97879 0
M  V30 3556 C 431.977 4.45085 6.88694 0
M  V30 3557 O 431.587 5.7877 6.5624 0
M  V30 3558 C 431.097 3.47817 6.12078 0
M  V30 3559 C 431.807 3.39414 4.77697 0
M  V30 3560 N 431.757 2.04615 4.15333 0
M  V30 3561 H 434.596 3.41248 7.98759 0
M  V30 3562 H 434.868 2.5837 6.41742 0
M  V30 3563 H 434 5.02657 6.42673 0
M  V30 3564 P 430.037 6.144 6.45285 0
M  V30 3565 O 429.817 7.54673 6.86199 0
M  V30 3566 O 429.247 5.12391 7.179 0
M  V30 3567 O 429.787 5.99158 4.88404 0
M  V30 3568 C 430.727 6.60234 3.96415 0
M  V30 3569 C 429.997 7.08259 2.72856 0
M  V30 3570 O 429.787 5.9427 1.83651 0
M  V30 3571 C 428.597 7.64886 2.9555 0
M  V30 3572 O 428.207 8.53963 1.90717 0
M  V30 3573 C 427.717 6.4116 2.90739 0
M  V30 3574 C 428.427 5.55375 1.86963 0
M  V30 3575 N 428.377 4.09448 2.16152 0
M  V30 3576 H 431.216 7.45574 4.45629 0
M  V30 3577 H 431.488 5.85864 3.679 0
M  V30 3578 H 430.62 7.84412 2.24479 0
M  V30 3579 H 427.965 5.73457 0.888562 0
M  V30 3580 H 427.685 5.90877 3.88583 0
M  V30 3581 H 426.694 6.6596 2.58858 0
M  V30 3582 H 428.528 8.16339 3.92049 0
M  V30 3583 P 426.657 8.7635 1.60911 0
M  V30 3584 O 426.437 10.1388 1.11561 0
M  V30 3585 O 425.867 8.36503 2.79617 0
M  V30 3586 O 426.407 7.71806 0.42951 0
M  V30 3587 C 427.347 7.67148 -0.673689 0
M  V30 3588 C 426.617 7.33374 -1.95559 0
M  V30 3589 O 426.407 5.88721 -2.00726 0
M  V30 3590 C 425.217 7.92526 -2.10483 0
M  V30 3591 O 424.827 8.02971 -3.47653 0
M  V30 3592 C 424.337 6.89602 -1.41652 0
M  V30 3593 C 425.047 5.59201 -1.75185 0
M  V30 3594 N 424.997 4.58301 -0.657969 0
M  V30 3595 H 427.836 8.65116 -0.777161 0
M  V30 3596 H 428.108 6.9022 -0.46725 0
M  V30 3597 H 427.24 7.66548 -2.79458 0
M  V30 3598 H 424.585 5.16165 -2.65183 0
M  V30 3599 H 424.305 7.06433 -0.329384 0
M  V30 3600 H 423.314 6.90926 -1.82021 0
M  V30 3601 H 425.148 8.90873 -1.62657 0
M  V30 3602 P 423.278 8.03563 -3.84925 0
M  V30 3603 O 423.058 8.85821 -5.0569 0
M  V30 3604 O 422.488 8.41101 -2.65469 0
M  V30 3605 O 423.028 6.49734 -4.18962 0
M  V30 3606 C 423.968 5.81037 -5.05421 0
M  V30 3607 C 423.238 4.79018 -5.88876 0
M  V30 3608 O 423.028 3.58359 -5.08515 0
M  V30 3609 C 421.838 5.17448 -6.36119 0
M  V30 3610 O 421.448 4.45322 -7.53318 0
M  V30 3611 C 420.958 4.74639 -5.19936 0
M  V30 3612 C 421.668 3.49432 -4.70418 0
M  V30 3613 N 421.618 3.31776 -3.22945 0
M  V30 3614 C 421.468 2.02742 -2.72939 0
M  V30 3615 O 421.378 1.08301 -3.52749 0
M  V30 3616 N 421.418 1.96117 -1.22063 0
M  V30 3617 C 421.518 2.8878 -0.551566 0
M  V30 3618 N 421.468 2.65609 0.750198 0
M  V30 3619 C 421.668 4.22457 -1.03707 0
M  V30 3620 C 421.718 4.37979 -2.39113 0
M  V30 3621 H 424.458 6.54138 -5.7131 0
M  V30 3622 H 424.728 5.30492 -4.44033 0
M  V30 3623 H 423.861 4.55945 -6.76735 0
M  V30 3624 H 421.206 2.6176 -5.18021 0
M  V30 3625 H 420.926 5.52233 -4.41941 0
M  V30 3626 H 419.935 4.52045 -5.53452 0
M  V30 3627 H 421.769 6.25124 -6.55234 0
M  V30 3628 H 421.841 5.37936 -2.80552 0
M  V30 3629 H 421.739 5.07528 -0.359553 0
M  V30 3630 H 421.351 1.69403 1.09847 0
M  V30 3631 H 421.547 3.43701 1.41792 0
M  V30 3632 P 419.898 4.23843 -7.83734 0
M  V30 3633 O 419.678 4.19407 -9.29784 0
M  V30 3634 O 419.108 5.24426 -7.09156 0
M  V30 3635 O 419.648 2.7935 -7.20758 0
M  V30 3636 C 420.588 1.7299 -7.50419 0
M  V30 3637 C 419.858 0.406376 -7.57911 0
M  V30 3638 O 419.648 -0.0897726 -6.21935 0
M  V30 3639 C 418.458 0.447224 -8.1878 0
M  V30 3640 O 418.068 -0.825065 -8.71101 0
M  V30 3641 C 417.578 0.783801 -6.99623 0
M  V30 3642 C 418.288 0.0619192 -5.85967 0
M  V30 3643 N 418.238 0.790462 -4.56202 0
M  V30 3644 H 421.077 1.93423 -8.4679 0
M  V30 3645 H 421.349 1.68852 -6.70877 0
M  V30 3646 H 420.481 -0.289041 -8.15388 0
M  V30 3647 H 417.826 -0.927006 -5.72848 0
M  V30 3648 H 417.546 1.86973 -6.82036 0
M  V30 3649 H 416.555 0.403953 -7.13357 0
M  V30 3650 H 418.389 1.20599 -8.97534 0
M  V30 3651 P 416.518 -1.17771 -8.83182 0
M  V30 3652 O 416.298 -2.07206 -9.98732 0
M  V30 3653 O 415.728 0.0743816 -8.81969 0
M  V30 3654 O 416.268 -1.97652 -7.47304 0
M  V30 3655 C 417.208 -3.01133 -7.08783 0
M  V30 3656 C 416.478 -4.12613 -6.37049 0
M  V30 3657 O 416.268 -3.72827 -4.97879 0
M  V30 3658 C 415.078 -4.45085 -6.88694 0
M  V30 3659 O 414.688 -5.7877 -6.5624 0
M  V30 3660 C 414.198 -3.47817 -6.12078 0
M  V30 3661 C 414.908 -3.39414 -4.77697 0
M  V30 3662 N 414.858 -2.04199 -4.15538 0
M  V30 3663 H 417.697 -3.41248 -7.98759 0
M  V30 3664 H 417.969 -2.57728 -6.42 0
M  V30 3665 H 417.101 -5.02657 -6.42673 0
M  V30 3666 H 414.446 -4.11708 -4.08956 0
M  V30 3667 H 414.166 -2.49626 -6.61679 0
M  V30 3668 H 413.175 -3.8662 -6.00862 0
M  V30 3669 H 415.009 -4.29991 -7.97006 0
M  V30 3670 P 413.138 -6.144 -6.45285 0
M  V30 3671 O 412.918 -7.54673 -6.86199 0
M  V30 3672 O 412.348 -5.12391 -7.179 0
M  V30 3673 O 412.888 -5.99158 -4.88404 0
M  V30 3674 C 413.828 -6.60062 -3.96313 0
M  V30 3675 C 413.098 -7.08259 -2.72856 0
M  V30 3676 O 412.888 -5.9427 -1.83651 0
M  V30 3677 C 411.698 -7.65087 -2.94749 0
M  V30 3678 O 411.308 -8.53963 -1.90717 0
M  V30 3679 C 410.818 -6.41069 -2.90698 0
M  V30 3680 C 411.528 -5.5528 -1.86931 0
M  V30 3681 N 411.478 -4.09575 -2.15696 0
M  V30 3682 C 411.328 -3.24249 -1.08435 0
M  V30 3683 O 411.238 -3.63946 0.0628747 0
M  V30 3684 N 411.288 -1.90009 -1.39973 0
M  V30 3685 C 411.378 -1.34884 -2.65614 0
M  V30 3686 O 411.328 -0.123716 -2.81728 0
M  V30 3687 C 411.528 -2.3145 -3.71736 0
M  V30 3688 C 411.638 -1.75913 -5.10438 0
M  V30 3689 C 411.578 -3.63518 -3.44754 0
M  V30 3690 H 414.319 -7.45402 -4.45526 0
M  V30 3691 H 414.588 -5.86062 -3.67208 0
M  V30 3692 H 413.721 -7.84412 -2.24479 0
M  V30 3693 H 411.066 -5.73358 -0.888409 0
M  V30 3694 H 410.787 -5.90877 -3.88583 0
M  V30 3695 H 409.795 -6.65867 -2.58821 0
M  V30 3696 H 411.629 -8.16248 -3.92006 0
M  V30 3697 H 411.7 -4.34551 -4.26383 0
M  V30 3698 H 410.67 -1.85471 -5.61775 0
M  V30 3699 H 412.407 -2.31364 -5.66257 0
M  V30 3700 H 411.919 -0.695936 -5.05229 0
M  V30 3701 H 411.183 -1.26277 -0.63625 0
M  V30 3702 P 409.758 -8.7635 -1.60911 0
M  V30 3703 O 409.538 -10.1388 -1.11561 0
M  V30 3704 O 408.968 -8.36503 -2.79617 0
M  V30 3705 O 409.508 -7.71806 -0.42951 0
M  V30 3706 C 410.448 -7.67148 0.673689 0
M  V30 3707 C 409.718 -7.33374 1.95559 0
M  V30 3708 O 409.508 -5.88721 2.00726 0
M  V30 3709 C 408.318 -7.92526 2.10483 0
M  V30 3710 O 407.928 -8.02971 3.47653 0
M  V30 3711 C 407.438 -6.89602 1.41652 0
M  V30 3712 C 408.148 -5.59201 1.75185 0
M  V30 3713 N 408.098 -4.58301 0.657969 0
M  V30 3714 H 410.937 -8.65116 0.777161 0
M  V30 3715 H 411.209 -6.9022 0.46725 0
M  V30 3716 H 410.341 -7.66548 2.79458 0
M  V30 3717 H 407.686 -5.16165 2.65183 0
M  V30 3718 H 407.406 -7.06433 0.329384 0
M  V30 3719 H 406.415 -6.90926 1.82021 0
M  V30 3720 H 408.249 -8.90873 1.62657 0
M  V30 3721 P 406.378 -8.03563 3.84925 0
M  V30 3722 O 406.158 -8.85821 5.0569 0
M  V30 3723 O 405.588 -8.41101 2.65469 0
M  V30 3724 O 406.128 -6.4965 4.18908 0
M  V30 3725 C 407.068 -5.80886 5.05289 0
M  V30 3726 C 406.338 -4.78366 5.89277 0
M  V30 3727 O 406.128 -3.58302 5.08433 0
M  V30 3728 C 404.938 -5.16748 6.36559 0
M  V30 3729 O 404.548 -4.45271 7.53232 0
M  V30 3730 C 404.058 -4.74572 5.19863 0
M  V30 3731 C 404.768 -3.49373 4.70338 0
M  V30 3732 N 404.718 -3.31704 3.22876 0
M  V30 3733 C 404.568 -2.03326 2.74871 0
M  V30 3734 O 404.478 -1.06486 3.48076 0
M  V30 3735 N 404.528 -1.91838 1.37456 0
M  V30 3736 C 404.618 -2.94295 0.462035 0
M  V30 3737 O 404.568 -2.71763 -0.752928 0
M  V30 3738 C 404.768 -4.25064 1.05249 0
M  V30 3739 C 404.878 -5.39815 0.095697 0
M  V30 3740 C 404.818 -4.40214 2.39192 0
M  V30 3741 H 407.559 -6.54063 5.71245 0
M  V30 3742 H 407.828 -5.30339 4.43905 0
M  V30 3743 H 406.961 -4.55889 6.76652 0
M  V30 3744 H 404.306 -2.6167 5.17842 0
M  V30 3745 H 404.027 -5.52155 4.41878 0
M  V30 3746 H 403.035 -4.51918 5.53297 0
M  V30 3747 H 404.869 -6.25055 6.55162 0
M  V30 3748 H 404.94 -5.39798 2.81523 0
M  V30 3749 H 403.91 -5.91593 0.0279582 0
M  V30 3750 H 405.647 -6.10038 0.450573 0
M  V30 3751 H 405.159 -5.02007 -0.89937 0
M  V30 3752 H 404.423 -0.995326 1.00435 0
M  V30 3753 P 402.998 -4.23843 7.83734 0
M  V30 3754 O 402.778 -4.19407 9.29784 0
M  V30 3755 O 402.208 -5.24426 7.09156 0
M  V30 3756 O 402.748 -2.7935 7.20758 0
M  V30 3757 C 403.688 -1.7299 7.50419 0
M  V30 3758 C 402.958 -0.406376 7.57911 0
M  V30 3759 O 402.748 0.0897726 6.21935 0
M  V30 3760 C 401.558 -0.447224 8.1878 0
M  V30 3761 O 401.168 0.825065 8.71101 0
M  V30 3762 C 400.678 -0.783801 6.99623 0
M  V30 3763 C 401.388 -0.0619192 5.85967 0
M  V30 3764 N 401.338 -0.790462 4.56202 0
M  V30 3765 H 404.177 -1.93423 8.4679 0
M  V30 3766 H 404.449 -1.68852 6.70877 0
M  V30 3767 H 403.581 0.289041 8.15388 0
M  V30 3768 H 400.926 0.927006 5.72848 0
M  V30 3769 H 400.646 -1.86973 6.82036 0
M  V30 3770 H 399.655 -0.403953 7.13357 0
M  V30 3771 H 401.489 -1.20599 8.97534 0
M  V30 3772 P 399.618 1.17771 8.83182 0
M  V30 3773 O 399.398 2.07206 9.98732 0
M  V30 3774 O 398.828 -0.0743816 8.81969 0
M  V30 3775 O 399.368 1.97678 7.474 0
M  V30 3776 C 400.308 3.01133 7.08783 0
M  V30 3777 C 399.578 4.1203 6.37546 0
M  V30 3778 O 399.368 3.72887 4.9796 0
M  V30 3779 C 398.178 4.45085 6.88694 0
M  V30 3780 O 397.788 5.78836 6.56315 0
M  V30 3781 C 397.298 3.47817 6.12078 0
M  V30 3782 C 398.008 3.39414 4.77697 0
M  V30 3783 N 397.958 2.04615 4.15333 0
M  V30 3784 C 397.808 1.96929 2.77162 0
M  V30 3785 O 397.718 3.02017 2.12006 0
M  V30 3786 N 397.758 0.55485 2.24237 0
M  V30 3787 C 397.858 -0.367808 2.9169 0
M  V30 3788 N 397.808 -1.53426 2.29427 0
M  V30 3789 C 398.008 -0.319148 4.33828 0
M  V30 3790 C 398.058 0.920672 4.90433 0
M  V30 3791 H 400.798 3.41209 7.98667 0
M  V30 3792 H 401.068 2.5837 6.41742 0
M  V30 3793 H 400.201 5.02718 6.42752 0
M  V30 3794 H 397.546 4.11779 4.09026 0
M  V30 3795 H 397.266 2.49661 6.61772 0
M  V30 3796 H 396.275 3.86674 6.00946 0
M  V30 3797 H 398.109 4.29991 7.97006 0
M  V30 3798 H 398.181 1.00589 5.98303 0
M  V30 3799 H 398.079 -1.22639 4.93799 0
M  V30 3800 H 397.691 -1.56819 1.27167 0
M  V30 3801 H 397.887 -2.41062 2.83063 0
M  V30 3802 P 396.238 6.144 6.45285 0
M  V30 3803 O 396.018 7.54673 6.86199 0
M  V30 3804 O 395.448 5.12391 7.179 0
M  V30 3805 O 395.988 5.99158 4.88404 0
M  V30 3806 C 396.928 6.60234 3.96415 0
M  V30 3807 C 396.198 7.08259 2.72856 0
M  V30 3808 O 395.988 5.9427 1.83651 0
M  V30 3809 C 394.798 7.64886 2.9555 0
M  V30 3810 O 394.408 8.53963 1.90717 0
M  V30 3811 C 393.918 6.4116 2.90739 0
M  V30 3812 C 394.628 5.55375 1.86963 0
M  V30 3813 N 394.578 4.09664 2.15742 0
M  V30 3814 H 397.417 7.45574 4.45629 0
M  V30 3815 H 397.689 5.86232 3.67314 0
M  V30 3816 H 396.821 7.84412 2.24479 0
M  V30 3817 P 392.858 8.7635 1.60911 0
M  V30 3818 O 392.638 10.1388 1.11561 0
M  V30 3819 O 392.068 8.36503 2.79617 0
M  V30 3820 O 392.608 7.71906 0.429565 0
M  V30 3821 C 393.548 7.67148 -0.673689 0
M  V30 3822 C 392.818 7.33666 -1.94851 0
M  V30 3823 O 392.608 5.88816 -2.00759 0
M  V30 3824 C 391.418 7.92526 -2.10483 0
M  V30 3825 O 391.028 8.03063 -3.47693 0
M  V30 3826 C 390.538 6.89602 -1.41652 0
M  V30 3827 C 391.248 5.59201 -1.75185 0
M  V30 3828 N 391.198 4.58235 -0.662552 0
M  V30 3829 C 391.048 3.24451 -1.01643 0
M  V30 3830 O 390.958 2.94958 -2.21722 0
M  V30 3831 N 390.998 2.30408 0.165238 0
M  V30 3832 C 391.098 2.66048 1.25118 0
M  V30 3833 N 391.048 1.70787 2.16813 0
M  V30 3834 C 391.248 4.02732 1.64413 0
M  V30 3835 C 391.298 4.9488 0.63991 0
M  V30 3836 H 394.038 8.65017 -0.777072 0
M  V30 3837 H 394.308 6.90173 -0.474152 0
M  V30 3838 H 393.441 7.66642 -2.79492 0
M  V30 3839 H 390.786 5.16254 -2.65229 0
M  V30 3840 H 390.506 7.06532 -0.329431 0
M  V30 3841 H 389.515 6.91023 -1.82047 0
M  V30 3842 H 391.349 8.90873 -1.62657 0
M  V30 3843 H 391.421 6.00104 0.892197 0
M  V30 3844 H 391.319 4.31733 2.69229 0
M  V30 3845 H 390.931 0.724835 1.8844 0
M  V30 3846 H 391.127 1.94716 3.16734 0
M  V30 3847 P 389.478 8.03563 -3.84925 0
M  V30 3848 O 389.258 8.85821 -5.0569 0
M  V30 3849 O 388.688 8.41101 -2.65469 0
M  V30 3850 O 389.228 6.4965 -4.18908 0
M  V30 3851 C 390.168 5.81037 -5.05421 0
M  V30 3852 C 389.438 4.78366 -5.89277 0
M  V30 3853 O 389.228 3.58302 -5.08433 0
M  V30 3854 C 388.038 5.17448 -6.36119 0
M  V30 3855 O 387.648 4.45271 -7.53232 0
M  V30 3856 C 387.158 4.74639 -5.19936 0
M  V30 3857 C 387.868 3.49432 -4.70418 0
M  V30 3858 N 387.818 3.31776 -3.22945 0
M  V30 3859 H 390.657 6.54213 -5.71376 0
M  V30 3860 H 390.929 5.30492 -4.44033 0
M  V30 3861 H 390.061 4.55889 -6.76652 0
M  V30 3862 P 386.098 4.23843 -7.83734 0
M  V30 3863 O 385.878 4.19407 -9.29784 0
M  V30 3864 O 385.308 5.24426 -7.09156 0
M  V30 3865 O 385.848 2.7935 -7.20758 0
M  V30 3866 C 386.788 1.7299 -7.50419 0
M  V30 3867 C 386.058 0.406376 -7.57911 0
M  V30 3868 O 385.848 -0.0897726 -6.21935 0
M  V30 3869 C 384.658 0.447224 -8.1878 0
M  V30 3870 O 384.268 -0.825065 -8.71101 0
M  V30 3871 C 383.778 0.783801 -6.99623 0
M  V30 3872 C 384.488 0.0619192 -5.85967 0
M  V30 3873 N 384.438 0.790462 -4.56202 0
M  V30 3874 H 387.277 1.93423 -8.4679 0
M  V30 3875 H 387.549 1.68852 -6.70877 0
M  V30 3876 H 386.681 -0.289041 -8.15388 0
M  V30 3877 H 384.026 -0.927006 -5.72848 0
M  V30 3878 H 383.746 1.86973 -6.82036 0
M  V30 3879 H 382.755 0.403953 -7.13357 0
M  V30 3880 H 384.589 1.20599 -8.97534 0
M  V30 3881 P 382.718 -1.17771 -8.83182 0
M  V30 3882 O 382.498 -2.07206 -9.98732 0
M  V30 3883 O 381.928 0.0743816 -8.81969 0
M  V30 3884 O 382.468 -1.97652 -7.47304 0
M  V30 3885 C 383.408 -3.01133 -7.08783 0
M  V30 3886 C 382.678 -4.12613 -6.37049 0
M  V30 3887 O 382.468 -3.72827 -4.97879 0
M  V30 3888 C 381.278 -4.45085 -6.88694 0
M  V30 3889 O 380.888 -5.7877 -6.5624 0
M  V30 3890 C 380.398 -3.47817 -6.12078 0
M  V30 3891 C 381.108 -3.39414 -4.77697 0
M  V30 3892 N 381.058 -2.04199 -4.15538 0
M  V30 3893 H 383.897 -3.41248 -7.98759 0
M  V30 3894 H 384.169 -2.57728 -6.42 0
M  V30 3895 H 383.301 -5.02657 -6.42673 0
M  V30 3896 H 380.646 -4.11708 -4.08956 0
M  V30 3897 H 380.366 -2.49626 -6.61679 0
M  V30 3898 H 379.375 -3.8662 -6.00862 0
M  V30 3899 H 381.209 -4.29991 -7.97006 0
M  V30 3900 P 379.338 -6.144 -6.45285 0
M  V30 3901 O 379.118 -7.54673 -6.86199 0
M  V30 3902 O 378.548 -5.12391 -7.179 0
M  V30 3903 O 379.088 -5.99158 -4.88404 0
M  V30 3904 C 380.028 -6.60234 -3.96415 0
M  V30 3905 C 379.298 -7.08259 -2.72856 0
M  V30 3906 O 379.088 -5.9427 -1.83651 0
M  V30 3907 C 377.898 -7.64886 -2.9555 0
M  V30 3908 O 377.508 -8.53963 -1.90717 0
M  V30 3909 C 377.018 -6.4116 -2.90739 0
M  V30 3910 C 377.728 -5.55375 -1.86963 0
M  V30 3911 N 377.678 -4.09448 -2.16152 0
M  V30 3912 C 377.758 -3.46824 -3.37593 0
M  V30 3913 N 377.688 -2.17422 -3.29777 0
M  V30 3914 C 377.538 -1.93065 -1.94427 0
M  V30 3915 C 377.408 -0.738053 -1.20141 0
M  V30 3916 N 377.398 0.474256 -1.74676 0
M  V30 3917 N 377.288 -0.850049 0.13045 0
M  V30 3918 C 377.298 -2.06169 0.676992 0
M  V30 3919 N 377.418 -3.23842 0.101312 0
M  V30 3920 C 377.538 -3.09402 -1.23122 0
M  V30 3921 H 380.517 -7.45574 -4.45629 0
M  V30 3922 H 380.789 -5.85864 -3.679 0
M  V30 3923 H 379.921 -7.84412 -2.24479 0
M  V30 3924 H 377.266 -5.73457 -0.888562 0
M  V30 3925 H 376.986 -5.90877 -3.88583 0
M  V30 3926 H 375.995 -6.6596 -2.58858 0
M  V30 3927 H 377.829 -8.16339 -3.92049 0
M  V30 3928 H 377.87 -4.00505 -4.3174 0
M  V30 3929 H 377.489 0.581337 -2.76658 0
M  V30 3930 H 377.3 1.30811 -1.14888 0
M  V30 3931 H 377.192 -2.08295 1.75542 0
M  V30 3932 P 375.958 -8.7635 -1.60911 0
M  V30 3933 O 375.738 -10.1388 -1.11561 0
M  V30 3934 O 375.168 -8.36503 -2.79617 0
M  V30 3935 O 375.708 -7.71806 -0.42951 0
M  V30 3936 C 376.648 -7.67148 0.673689 0
M  V30 3937 C 375.918 -7.33374 1.95559 0
M  V30 3938 O 375.708 -5.88721 2.00726 0
M  V30 3939 C 374.518 -7.92526 2.10483 0
M  V30 3940 O 374.128 -8.02971 3.47653 0
M  V30 3941 C 373.638 -6.89602 1.41652 0
M  V30 3942 C 374.348 -5.59201 1.75185 0
M  V30 3943 N 374.298 -4.58235 0.662552 0
M  V30 3944 H 377.137 -8.65116 0.777161 0
M  V30 3945 H 377.409 -6.90173 0.474152 0
M  V30 3946 H 376.541 -7.66548 2.79458 0
M  V30 3947 P 372.578 -8.03563 3.84925 0
M  V30 3948 O 372.358 -8.85821 5.0569 0
M  V30 3949 O 371.788 -8.41101 2.65469 0
M  V30 3950 O 372.328 -6.4965 4.18908 0
M  V30 3951 C 373.268 -5.81037 5.05421 0
M  V30 3952 C 372.538 -4.78366 5.89277 0
M  V30 3953 O 372.328 -3.58302 5.08433 0
M  V30 3954 C 371.138 -5.17448 6.36119 0
M  V30 3955 O 370.748 -4.45271 7.53232 0
M  V30 3956 C 370.258 -4.74639 5.19936 0
M  V30 3957 C 370.968 -3.49432 4.70418 0
M  V30 3958 N 370.918 -3.32099 3.22613 0
M  V30 3959 H 373.757 -6.54213 5.71376 0
M  V30 3960 H 374.029 -5.30936 4.43503 0
M  V30 3961 H 373.161 -4.55889 6.76652 0
M  V30 3962 H 370.506 -2.61715 5.17932 0
M  V30 3963 H 370.226 -5.52155 4.41878 0
M  V30 3964 H 369.235 -4.51981 5.53374 0
M  V30 3965 H 371.069 -6.25124 6.55234 0
M  V30 3966 P 369.198 -4.23843 7.83734 0
M  V30 3967 O 368.978 -4.19407 9.29784 0
M  V30 3968 O 368.408 -5.24426 7.09156 0
M  V30 3969 O 368.948 -2.7935 7.20758 0
M  V30 3970 C 369.888 -1.7299 7.50419 0
M  V30 3971 C 369.158 -0.406376 7.57911 0
M  V30 3972 O 368.948 0.0897726 6.21935 0
M  V30 3973 C 367.758 -0.447224 8.1878 0
M  V30 3974 O 367.368 0.825065 8.71101 0
M  V30 3975 C 366.878 -0.783801 6.99623 0
M  V30 3976 C 367.588 -0.0619192 5.85967 0
M  V30 3977 N 367.538 -0.7859 4.56281 0
M  V30 3978 H 370.377 -1.93423 8.4679 0
M  V30 3979 H 370.649 -1.68181 6.71046 0
M  V30 3980 H 369.781 0.289041 8.15388 0
M  V30 3981 P 365.818 1.17771 8.83182 0
M  V30 3982 O 365.598 2.07206 9.98732 0
M  V30 3983 O 365.028 -0.0743816 8.81969 0
M  V30 3984 O 365.568 1.97652 7.47304 0
M  V30 3985 C 366.508 3.01133 7.08783 0
M  V30 3986 C 365.778 4.12613 6.37049 0
M  V30 3987 O 365.568 3.72827 4.97879 0
M  V30 3988 C 364.378 4.45085 6.88694 0
M  V30 3989 O 363.988 5.7877 6.5624 0
M  V30 3990 C 363.498 3.47817 6.12078 0
M  V30 3991 C 364.208 3.39414 4.77697 0
M  V30 3992 N 364.158 2.04615 4.15333 0
M  V30 3993 H 366.997 3.41248 7.98759 0
M  V30 3994 H 367.269 2.5837 6.41742 0
M  V30 3995 H 366.401 5.02657 6.42673 0
M  V30 3996 P 362.438 6.144 6.45285 0
M  V30 3997 O 362.218 7.54673 6.86199 0
M  V30 3998 O 361.648 5.12391 7.179 0
M  V30 3999 O 362.188 5.99158 4.88404 0
M  V30 4000 C 363.128 6.60234 3.96415 0
M  V30 4001 C 362.398 7.08259 2.72856 0
M  V30 4002 O 362.188 5.9427 1.83651 0
M  V30 4003 C 360.998 7.64886 2.9555 0
M  V30 4004 O 360.608 8.53963 1.90717 0
M  V30 4005 C 360.118 6.4116 2.90739 0
M  V30 4006 C 360.828 5.55375 1.86963 0
M  V30 4007 N 360.778 4.09664 2.15742 0
M  V30 4008 H 363.617 7.45574 4.45629 0
M  V30 4009 H 363.889 5.86232 3.67314 0
M  V30 4010 H 363.021 7.84412 2.24479 0
M  V30 4011 P 359.058 8.7635 1.60911 0
M  V30 4012 O 358.838 10.1388 1.11561 0
M  V30 4013 O 358.268 8.36503 2.79617 0
M  V30 4014 O 358.808 7.71806 0.42951 0
M  V30 4015 C 359.748 7.66948 -0.673514 0
M  V30 4016 C 359.018 7.33374 -1.95559 0
M  V30 4017 O 358.808 5.88721 -2.00726 0
M  V30 4018 C 357.618 7.92218 -2.1125 0
M  V30 4019 O 357.228 8.02971 -3.47653 0
M  V30 4020 C 356.738 6.89504 -1.41631 0
M  V30 4021 C 357.448 5.59106 -1.75155 0
M  V30 4022 N 357.398 4.58136 -0.662409 0
M  V30 4023 C 357.248 3.26059 -1.02863 0
M  V30 4024 O 357.158 2.90743 -2.19009 0
M  V30 4025 N 357.208 2.35995 0.0155585 0
M  V30 4026 C 357.298 2.65248 1.35603 0
M  V30 4027 O 357.248 1.75605 2.20651 0
M  V30 4028 C 357.448 4.05747 1.64698 0
M  V30 4029 C 357.558 4.42345 3.09553 0
M  V30 4030 C 357.498 4.96734 0.652411 0
M  V30 4031 H 360.239 8.64917 -0.776982 0
M  V30 4032 H 360.508 6.89974 -0.474015 0
M  V30 4033 H 359.641 7.66548 -2.79458 0
M  V30 4034 H 356.986 5.16076 -2.65138 0
M  V30 4035 H 356.707 7.06433 -0.329384 0
M  V30 4036 H 355.715 6.90829 -1.81996 0
M  V30 4037 H 357.549 8.90774 -1.62639 0
M  V30 4038 H 357.62 6.02181 0.895285 0
M  V30 4039 H 356.59 4.80252 3.45468 0
M  V30 4040 H 358.327 5.20015 3.22119 0
M  V30 4041 H 357.839 3.53269 3.67833 0
M  V30 4042 H 357.103 1.39558 -0.227499 0
M  V30 4043 P 355.678 8.03563 -3.84925 0
M  V30 4044 O 355.458 8.85821 -5.0569 0
M  V30 4045 O 354.888 8.41101 -2.65469 0
M  V30 4046 O 355.428 6.4965 -4.18908 0
M  V30 4047 C 356.368 5.81037 -5.05421 0
M  V30 4048 C 355.638 4.78366 -5.89277 0
M  V30 4049 O 355.428 3.58302 -5.08433 0
M  V30 4050 C 354.238 5.17448 -6.36119 0
M  V30 4051 O 353.848 4.45271 -7.53232 0
M  V30 4052 C 353.358 4.74639 -5.19936 0
M  V30 4053 C 354.068 3.49432 -4.70418 0
M  V30 4054 N 354.018 3.32099 -3.22613 0
M  V30 4055 C 354.098 4.28245 -2.25527 0
M  V30 4056 N 354.028 3.80823 -1.04874 0
M  V30 4057 C 353.878 2.44571 -1.23535 0
M  V30 4058 C 353.748 1.37068 -0.330675 0
M  V30 4059 N 353.738 1.51472 0.990824 0
M  V30 4060 N 353.628 0.138614 -0.848756 0
M  V30 4061 C 353.638 -0.00675923 -2.16999 0
M  V30 4062 N 353.758 0.904372 -3.11122 0
M  V30 4063 C 353.878 2.12707 -2.56212 0
M  V30 4064 H 356.857 6.54213 -5.71376 0
M  V30 4065 H 357.129 5.30936 -4.43503 0
M  V30 4066 H 356.261 4.55889 -6.76652 0
M  V30 4067 H 353.606 2.61715 -5.17932 0
M  V30 4068 H 353.326 5.52155 -4.41878 0
M  V30 4069 H 352.335 4.51981 -5.53374 0
M  V30 4070 H 354.169 6.25124 -6.55234 0
M  V30 4071 H 354.21 5.34372 -2.47488 0
M  V30 4072 H 353.829 2.45153 1.4078 0
M  V30 4073 H 353.64 0.688422 1.59911 0
M  V30 4074 H 353.532 -1.02584 -2.52346 0
M  V30 4075 P 352.298 4.23843 -7.83734 0
M  V30 4076 O 352.078 4.19407 -9.29784 0
M  V30 4077 O 351.508 5.24426 -7.09156 0
M  V30 4078 O 352.048 2.7935 -7.20758 0
M  V30 4079 C 352.988 1.7299 -7.50419 0
M  V30 4080 C 352.258 0.406376 -7.57911 0
M  V30 4081 O 352.048 -0.0897726 -6.21935 0
M  V30 4082 C 350.858 0.447224 -8.1878 0
M  V30 4083 O 350.468 -0.825065 -8.71101 0
M  V30 4084 C 349.978 0.783801 -6.99623 0
M  V30 4085 C 350.688 0.0619192 -5.85967 0
M  V30 4086 N 350.638 0.7859 -4.56281 0
M  V30 4087 H 353.477 1.93423 -8.4679 0
M  V30 4088 H 353.749 1.68181 -6.71046 0
M  V30 4089 H 352.881 -0.289041 -8.15388 0
M  V30 4090 P 348.918 -1.17771 -8.83182 0
M  V30 4091 O 348.698 -2.07206 -9.98732 0
M  V30 4092 O 348.128 0.0743816 -8.81969 0
M  V30 4093 O 348.668 -1.97652 -7.47304 0
M  V30 4094 C 349.608 -3.01133 -7.08783 0
M  V30 4095 C 348.878 -4.12613 -6.37049 0
M  V30 4096 O 348.668 -3.72827 -4.97879 0
M  V30 4097 C 347.478 -4.45085 -6.88694 0
M  V30 4098 O 347.088 -5.7877 -6.5624 0
M  V30 4099 C 346.598 -3.47817 -6.12078 0
M  V30 4100 C 347.308 -3.39414 -4.77697 0
M  V30 4101 N 347.258 -2.04615 -4.15333 0
M  V30 4102 H 350.097 -3.41248 -7.98759 0
M  V30 4103 H 350.369 -2.5837 -6.41742 0
M  V30 4104 H 349.501 -5.02657 -6.42673 0
M  V30 4105 P 345.538 -6.144 -6.45285 0
M  V30 4106 O 345.318 -7.54673 -6.86199 0
M  V30 4107 O 344.748 -5.12391 -7.179 0
M  V30 4108 O 345.288 -5.99236 -4.88467 0
M  V30 4109 C 346.228 -6.60234 -3.96415 0
M  V30 4110 C 345.498 -7.08079 -2.736 0
M  V30 4111 O 345.288 -5.94365 -1.8368 0
M  V30 4112 C 344.098 -7.64886 -2.9555 0
M  V30 4113 O 343.708 -8.5406 -1.90739 0
M  V30 4114 C 343.218 -6.4116 -2.90739 0
M  V30 4115 C 343.928 -5.55375 -1.86963 0
M  V30 4116 N 343.878 -4.09664 -2.15742 0
M  V30 4117 C 343.728 -3.22231 -1.08477 0
M  V30 4118 O 343.638 -3.68951 0.0600489 0
M  V30 4119 N 343.678 -1.76692 -1.48799 0
M  V30 4120 C 343.778 -1.41695 -2.57602 0
M  V30 4121 N 343.728 -0.107296 -2.75791 0
M  V30 4122 C 343.928 -2.29178 -3.69733 0
M  V30 4123 C 343.978 -3.62753 -3.42653 0
M  V30 4124 H 346.718 -7.45488 -4.45578 0
M  V30 4125 H 346.988 -5.86232 -3.67314 0
M  V30 4126 H 346.121 -7.84508 -2.24507 0
M  V30 4127 H 343.466 -5.73556 -0.888715 0
M  V30 4128 H 343.186 -5.9096 -3.88638 0
M  V30 4129 H 342.195 -6.66053 -2.58894 0
M  V30 4130 H 344.029 -8.16339 -3.92049 0
M  V30 4131 H 344.101 -4.33052 -4.24913 0
M  V30 4132 H 343.999 -1.9103 -4.71577 0
M  V30 4133 H 343.611 0.521221 -1.95056 0
M  V30 4134 H 343.807 0.286429 -3.70695 0
M  V30 4135 P 342.158 -8.7635 -1.60911 0
M  V30 4136 O 341.938 -10.1388 -1.11561 0
M  V30 4137 O 341.368 -8.36503 -2.79617 0
M  V30 4138 O 341.908 -7.71806 -0.42951 0
M  V30 4139 C 342.848 -7.67148 0.673689 0
M  V30 4140 C 342.118 -7.33374 1.95559 0
M  V30 4141 O 341.908 -5.88721 2.00726 0
M  V30 4142 C 340.718 -7.92526 2.10483 0
M  V30 4143 O 340.328 -8.02971 3.47653 0
M  V30 4144 C 339.838 -6.89602 1.41652 0
M  V30 4145 C 340.548 -5.59201 1.75185 0
M  V30 4146 N 340.498 -4.58301 0.657969 0
M  V30 4147 C 340.578 -4.79019 -0.692603 0
M  V30 4148 N 340.508 -3.69736 -1.38998 0
M  V30 4149 C 340.358 -2.70474 -0.438135 0
M  V30 4150 C 340.228 -1.30327 -0.538142 0
M  V30 4151 N 340.218 -0.64304 -1.69192 0
M  V30 4152 N 340.108 -0.611027 0.605183 0
M  V30 4153 C 340.118 -1.27002 1.75953 0
M  V30 4154 N 340.238 -2.56038 1.98546 0
M  V30 4155 C 340.358 -3.22681 0.822541 0
M  V30 4156 H 343.337 -8.65116 0.777161 0
M  V30 4157 H 343.609 -6.9022 0.46725 0
M  V30 4158 H 342.741 -7.66548 2.79458 0
M  V30 4159 H 340.086 -5.16165 2.65183 0
M  V30 4160 H 339.806 -7.06433 0.329384 0
M  V30 4161 H 338.815 -6.90926 1.82021 0
M  V30 4162 H 340.649 -8.90873 1.62657 0
M  V30 4163 H 340.69 -5.77785 -1.13874 0
M  V30 4164 H 340.309 -1.15585 -2.57991 0
M  V30 4165 H 340.12 0.382989 -1.69835 0
M  V30 4166 H 340.012 -0.653331 2.64449 0
M  V30 4167 P 338.778 -8.03563 3.84925 0
M  V30 4168 O 338.558 -8.85821 5.0569 0
M  V30 4169 O 337.988 -8.41101 2.65469 0
M  V30 4170 O 338.528 -6.49734 4.18962 0
M  V30 4171 C 339.468 -5.81037 5.05421 0
M  V30 4172 C 338.738 -4.79018 5.88876 0
M  V30 4173 O 338.528 -3.58359 5.08515 0
M  V30 4174 C 337.338 -5.17448 6.36119 0
M  V30 4175 O 336.948 -4.45322 7.53318 0
M  V30 4176 C 336.458 -4.74639 5.19936 0
M  V30 4177 C 337.168 -3.49432 4.70418 0
M  V30 4178 N 337.118 -3.31776 3.22945 0
M  V30 4179 C 336.968 -2.02742 2.72939 0
M  V30 4180 O 336.878 -1.08301 3.52749 0
M  V30 4181 N 336.918 -1.96117 1.22063 0
M  V30 4182 C 337.018 -2.8878 0.551566 0
M  V30 4183 N 336.968 -2.65609 -0.750198 0
M  V30 4184 C 337.168 -4.22457 1.03707 0
M  V30 4185 C 337.218 -4.37979 2.39113 0
M  V30 4186 H 339.958 -6.54138 5.7131 0
M  V30 4187 H 340.228 -5.30492 4.44033 0
M  V30 4188 H 339.361 -4.55945 6.76735 0
M  V30 4189 H 336.706 -2.6176 5.18021 0
M  V30 4190 H 336.426 -5.52233 4.41941 0
M  V30 4191 H 335.435 -4.52045 5.53452 0
M  V30 4192 H 337.269 -6.25124 6.55234 0
M  V30 4193 H 337.341 -5.37936 2.80552 0
M  V30 4194 H 337.239 -5.07528 0.359553 0
M  V30 4195 H 336.851 -1.69403 -1.09847 0
M  V30 4196 H 337.047 -3.43701 -1.41792 0
M  V30 4197 P 335.398 -4.23843 7.83734 0
M  V30 4198 O 335.178 -4.19407 9.29784 0
M  V30 4199 O 334.608 -5.24426 7.09156 0
M  V30 4200 O 335.148 -2.7935 7.20758 0
M  V30 4201 C 336.088 -1.7299 7.50419 0
M  V30 4202 C 335.358 -0.406376 7.57911 0
M  V30 4203 O 335.148 0.0897726 6.21935 0
M  V30 4204 C 333.958 -0.447224 8.1878 0
M  V30 4205 O 333.568 0.825065 8.71101 0
M  V30 4206 C 333.078 -0.783801 6.99623 0
M  V30 4207 C 333.788 -0.0619192 5.85967 0
M  V30 4208 N 333.738 -0.790462 4.56202 0
M  V30 4209 H 336.577 -1.93423 8.4679 0
M  V30 4210 H 336.849 -1.68852 6.70877 0
M  V30 4211 H 335.981 0.289041 8.15388 0
M  V30 4212 H 333.326 0.927006 5.72848 0
M  V30 4213 H 333.046 -1.86973 6.82036 0
M  V30 4214 H 332.055 -0.403953 7.13357 0
M  V30 4215 H 333.889 -1.20599 8.97534 0
M  V30 4216 P 332.018 1.17771 8.83182 0
M  V30 4217 O 331.798 2.07206 9.98732 0
M  V30 4218 O 331.228 -0.0743816 8.81969 0
M  V30 4219 O 331.768 1.97652 7.47304 0
M  V30 4220 C 332.708 3.01133 7.08783 0
M  V30 4221 C 331.978 4.12613 6.37049 0
M  V30 4222 O 331.768 3.72827 4.97879 0
M  V30 4223 C 330.578 4.45085 6.88694 0
M  V30 4224 O 330.188 5.7877 6.5624 0
M  V30 4225 C 329.698 3.47817 6.12078 0
M  V30 4226 C 330.408 3.39414 4.77697 0
M  V30 4227 N 330.358 2.04199 4.15538 0
M  V30 4228 C 330.438 0.821545 4.76977 0
M  V30 4229 N 330.368 -0.1794 3.94592 0
M  V30 4230 C 330.218 0.419121 2.70776 0
M  V30 4231 C 330.088 -0.109072 1.40577 0
M  V30 4232 N 330.078 -1.4104 1.1344 0
M  V30 4233 N 329.968 0.764381 0.39411 0
M  V30 4234 C 329.978 2.06587 0.664135 0
M  V30 4235 N 330.098 2.67948 1.82153 0
M  V30 4236 C 330.218 1.77942 2.8147 0
M  V30 4237 H 333.197 3.41248 7.98759 0
M  V30 4238 H 333.469 2.57728 6.42 0
M  V30 4239 H 332.601 5.02657 6.42673 0
M  V30 4240 H 329.946 4.11708 4.08956 0
M  V30 4241 H 329.666 2.49626 6.61679 0
M  V30 4242 H 328.675 3.8662 6.00862 0
M  V30 4243 H 330.509 4.29991 7.97006 0
M  V30 4244 H 330.55 0.702451 5.84696 0
M  V30 4245 H 330.169 -2.09647 1.89651 0
M  V30 4246 H 329.98 -1.73358 0.160575 0
M  V30 4247 H 329.872 2.71695 -0.195838 0
M  V30 4248 P 328.638 6.144 6.45285 0
M  V30 4249 O 328.418 7.54673 6.86199 0
M  V30 4250 O 327.848 5.12391 7.179 0
M  V30 4251 O 328.388 5.99158 4.88404 0
M  V30 4252 C 329.328 6.60234 3.96415 0
M  V30 4253 C 328.598 7.08259 2.72856 0
M  V30 4254 O 328.388 5.9427 1.83651 0
M  V30 4255 C 327.198 7.64886 2.9555 0
M  V30 4256 O 326.808 8.53963 1.90717 0
M  V30 4257 C 326.318 6.4116 2.90739 0
M  V30 4258 C 327.028 5.55375 1.86963 0
M  V30 4259 N 326.978 4.09664 2.15742 0
M  V30 4260 H 329.817 7.45574 4.45629 0
M  V30 4261 H 330.089 5.86232 3.67314 0
M  V30 4262 H 329.221 7.84412 2.24479 0
M  V30 4263 P 325.258 8.7635 1.60911 0
M  V30 4264 O 325.038 10.1388 1.11561 0
M  V30 4265 O 324.468 8.36503 2.79617 0
M  V30 4266 O 325.008 7.71906 0.429565 0
M  V30 4267 C 325.948 7.67148 -0.673689 0
M  V30 4268 C 325.218 7.33666 -1.94851 0
M  V30 4269 O 325.008 5.88816 -2.00759 0
M  V30 4270 C 323.818 7.92526 -2.10483 0
M  V30 4271 O 323.428 8.03063 -3.47693 0
M  V30 4272 C 322.938 6.89602 -1.41652 0
M  V30 4273 C 323.648 5.59201 -1.75185 0
M  V30 4274 N 323.598 4.58235 -0.662552 0
M  V30 4275 C 323.448 3.24451 -1.01643 0
M  V30 4276 O 323.358 2.94958 -2.21722 0
M  V30 4277 N 323.398 2.30408 0.165238 0
M  V30 4278 C 323.498 2.66048 1.25118 0
M  V30 4279 N 323.448 1.70787 2.16813 0
M  V30 4280 C 323.648 4.02732 1.64413 0
M  V30 4281 C 323.698 4.9488 0.63991 0
M  V30 4282 H 326.438 8.65017 -0.777072 0
M  V30 4283 H 326.708 6.90173 -0.474152 0
M  V30 4284 H 325.841 7.66642 -2.79492 0
M  V30 4285 H 323.186 5.16254 -2.65229 0
M  V30 4286 H 322.906 7.06532 -0.329431 0
M  V30 4287 H 321.915 6.91023 -1.82047 0
M  V30 4288 H 323.749 8.90873 -1.62657 0
M  V30 4289 H 323.821 6.00104 0.892197 0
M  V30 4290 H 323.719 4.31733 2.69229 0
M  V30 4291 H 323.331 0.724835 1.8844 0
M  V30 4292 H 323.527 1.94716 3.16734 0
M  V30 4293 P 321.878 8.03563 -3.84925 0
M  V30 4294 O 321.658 8.85821 -5.0569 0
M  V30 4295 O 321.088 8.41101 -2.65469 0
M  V30 4296 O 321.628 6.4965 -4.18908 0
M  V30 4297 C 322.568 5.81037 -5.05421 0
M  V30 4298 C 321.838 4.78366 -5.89277 0
M  V30 4299 O 321.628 3.58302 -5.08433 0
M  V30 4300 C 320.438 5.17448 -6.36119 0
M  V30 4301 O 320.048 4.45271 -7.53232 0
M  V30 4302 C 319.558 4.74639 -5.19936 0
M  V30 4303 C 320.268 3.49432 -4.70418 0
M  V30 4304 N 320.218 3.31776 -3.22945 0
M  V30 4305 H 323.057 6.54213 -5.71376 0
M  V30 4306 H 323.329 5.30492 -4.44033 0
M  V30 4307 H 322.461 4.55889 -6.76652 0
M  V30 4308 P 318.498 4.23843 -7.83734 0
M  V30 4309 O 318.278 4.19407 -9.29784 0
M  V30 4310 O 317.708 5.24426 -7.09156 0
M  V30 4311 O 318.248 2.7935 -7.20758 0
M  V30 4312 C 319.188 1.7299 -7.50419 0
M  V30 4313 C 318.458 0.406376 -7.57911 0
M  V30 4314 O 318.248 -0.0897726 -6.21935 0
M  V30 4315 C 317.058 0.447224 -8.1878 0
M  V30 4316 O 316.668 -0.825065 -8.71101 0
M  V30 4317 C 316.178 0.783801 -6.99623 0
M  V30 4318 C 316.888 0.0619192 -5.85967 0
M  V30 4319 N 316.838 0.7859 -4.56281 0
M  V30 4320 H 319.677 1.93423 -8.4679 0
M  V30 4321 H 319.949 1.68181 -6.71046 0
M  V30 4322 H 319.081 -0.289041 -8.15388 0
M  V30 4323 P 315.118 -1.17771 -8.83182 0
M  V30 4324 O 314.898 -2.07206 -9.98732 0
M  V30 4325 O 314.328 0.0743816 -8.81969 0
M  V30 4326 O 314.868 -1.97652 -7.47304 0
M  V30 4327 C 315.808 -3.01133 -7.08783 0
M  V30 4328 C 315.078 -4.12613 -6.37049 0
M  V30 4329 O 314.868 -3.72827 -4.97879 0
M  V30 4330 C 313.678 -4.45085 -6.88694 0
M  V30 4331 O 313.288 -5.7877 -6.5624 0
M  V30 4332 C 312.798 -3.47817 -6.12078 0
M  V30 4333 C 313.508 -3.39414 -4.77697 0
M  V30 4334 N 313.458 -2.04615 -4.15333 0
M  V30 4335 H 316.297 -3.41248 -7.98759 0
M  V30 4336 H 316.569 -2.5837 -6.41742 0
M  V30 4337 H 315.701 -5.02657 -6.42673 0
M  V30 4338 P 311.738 -6.144 -6.45285 0
M  V30 4339 O 311.518 -7.54673 -6.86199 0
M  V30 4340 O 310.948 -5.12391 -7.179 0
M  V30 4341 O 311.488 -5.99158 -4.88404 0
M  V30 4342 C 312.428 -6.60234 -3.96415 0
M  V30 4343 C 311.698 -7.08259 -2.72856 0
M  V30 4344 O 311.488 -5.9427 -1.83651 0
M  V30 4345 C 310.298 -7.64886 -2.9555 0
M  V30 4346 O 309.908 -8.53963 -1.90717 0
M  V30 4347 C 309.418 -6.4116 -2.90739 0
M  V30 4348 C 310.128 -5.55375 -1.86963 0
M  V30 4349 N 310.078 -4.09664 -2.15742 0
M  V30 4350 H 312.917 -7.45574 -4.45629 0
M  V30 4351 H 313.189 -5.86232 -3.67314 0
M  V30 4352 H 312.321 -7.84412 -2.24479 0
M  V30 4353 P 308.358 -8.7635 -1.60911 0
M  V30 4354 O 308.138 -10.1388 -1.11561 0
M  V30 4355 O 307.568 -8.36503 -2.79617 0
M  V30 4356 O 308.108 -7.71806 -0.42951 0
M  V30 4357 C 309.048 -7.67148 0.673689 0
M  V30 4358 C 308.318 -7.33374 1.95559 0
M  V30 4359 O 308.108 -5.88721 2.00726 0
M  V30 4360 C 306.918 -7.92526 2.10483 0
M  V30 4361 O 306.528 -8.02971 3.47653 0
M  V30 4362 C 306.038 -6.89602 1.41652 0
M  V30 4363 C 306.748 -5.59201 1.75185 0
M  V30 4364 N 306.698 -4.58235 0.662552 0
M  V30 4365 H 309.537 -8.65116 0.777161 0
M  V30 4366 H 309.809 -6.90173 0.474152 0
M  V30 4367 H 308.941 -7.66548 2.79458 0
M  V30 4368 P 304.978 -8.03563 3.84925 0
M  V30 4369 O 304.758 -8.85821 5.0569 0
M  V30 4370 O 304.188 -8.41101 2.65469 0
M  V30 4371 O 304.728 -6.4965 4.18908 0
M  V30 4372 C 305.668 -5.81037 5.05421 0
M  V30 4373 C 304.938 -4.78366 5.89277 0
M  V30 4374 O 304.728 -3.58302 5.08433 0
M  V30 4375 C 303.538 -5.17448 6.36119 0
M  V30 4376 O 303.148 -4.45271 7.53232 0
M  V30 4377 C 302.658 -4.74639 5.19936 0
M  V30 4378 C 303.368 -3.49432 4.70418 0
M  V30 4379 N 303.318 -3.31776 3.22945 0
M  V30 4380 C 303.398 -4.27147 2.23315 0
M  V30 4381 N 303.318 -3.78447 1.02186 0
M  V30 4382 C 303.178 -2.41001 1.21732 0
M  V30 4383 C 303.048 -1.36111 0.27694 0
M  V30 4384 N 302.928 -0.113683 0.912949 0
M  V30 4385 C 302.928 0.0846396 2.27943 0
M  V30 4386 N 302.798 1.34737 2.6916 0
M  V30 4387 N 303.058 -0.902521 3.16379 0
M  V30 4388 C 303.178 -2.11937 2.56849 0
M  V30 4389 H 306.157 -6.54213 5.71376 0
M  V30 4390 H 306.429 -5.30492 4.44033 0
M  V30 4391 H 305.561 -4.55889 6.76652 0
M  V30 4392 P 301.598 -4.23843 7.83734 0
M  V30 4393 O 301.378 -4.19407 9.29784 0
M  V30 4394 O 300.808 -5.24426 7.09156 0
M  V30 4395 O 301.348 -2.7935 7.20758 0
M  V30 4396 C 302.288 -1.7299 7.50419 0
M  V30 4397 C 301.558 -0.406376 7.57911 0
M  V30 4398 O 301.348 0.0897726 6.21935 0
M  V30 4399 C 300.158 -0.447224 8.1878 0
M  V30 4400 O 299.768 0.825065 8.71101 0
M  V30 4401 C 299.278 -0.783801 6.99623 0
M  V30 4402 C 299.988 -0.0619192 5.85967 0
M  V30 4403 N 299.938 -0.7859 4.56281 0
M  V30 4404 H 302.777 -1.93423 8.4679 0
M  V30 4405 H 303.049 -1.68181 6.71046 0
M  V30 4406 H 302.181 0.289041 8.15388 0
M  V30 4407 P 298.218 1.17771 8.83182 0
M  V30 4408 O 297.998 2.07206 9.98732 0
M  V30 4409 O 297.428 -0.0743816 8.81969 0
M  V30 4410 O 297.968 1.97652 7.47304 0
M  V30 4411 C 298.908 3.01133 7.08783 0
M  V30 4412 C 298.178 4.12613 6.37049 0
M  V30 4413 O 297.968 3.72827 4.97879 0
M  V30 4414 C 296.778 4.45085 6.88694 0
M  V30 4415 O 296.388 5.7877 6.5624 0
M  V30 4416 C 295.898 3.47817 6.12078 0
M  V30 4417 C 296.608 3.39414 4.77697 0
M  V30 4418 N 296.558 2.04199 4.15538 0
M  V30 4419 H 299.397 3.41248 7.98759 0
M  V30 4420 H 299.669 2.57728 6.42 0
M  V30 4421 H 298.801 5.02657 6.42673 0
M  V30 4422 H 296.146 4.11708 4.08956 0
M  V30 4423 H 295.866 2.49626 6.61679 0
M  V30 4424 H 294.875 3.8662 6.00862 0
M  V30 4425 H 296.709 4.29991 7.97006 0
M  V30 4426 P 294.838 6.144 6.45285 0
M  V30 4427 O 294.618 7.54673 6.86199 0
M  V30 4428 O 294.048 5.12391 7.179 0
M  V30 4429 O 294.588 5.99158 4.88404 0
M  V30 4430 C 295.528 6.60234 3.96415 0
M  V30 4431 C 294.798 7.08259 2.72856 0
M  V30 4432 O 294.588 5.9427 1.83651 0
M  V30 4433 C 293.398 7.64886 2.9555 0
M  V30 4434 O 293.008 8.53963 1.90717 0
M  V30 4435 C 292.518 6.4116 2.90739 0
M  V30 4436 C 293.228 5.55375 1.86963 0
M  V30 4437 N 293.178 4.09664 2.15742 0
M  V30 4438 H 296.017 7.45574 4.45629 0
M  V30 4439 H 296.289 5.86232 3.67314 0
M  V30 4440 H 295.421 7.84412 2.24479 0
M  V30 4441 P 291.458 8.7635 1.60911 0
M  V30 4442 O 291.238 10.1388 1.11561 0
M  V30 4443 O 290.668 8.36503 2.79617 0
M  V30 4444 O 291.208 7.71806 0.42951 0
M  V30 4445 C 292.148 7.67148 -0.673689 0
M  V30 4446 C 291.418 7.33374 -1.95559 0
M  V30 4447 O 291.208 5.88721 -2.00726 0
M  V30 4448 C 290.018 7.92526 -2.10483 0
M  V30 4449 O 289.628 8.02971 -3.47653 0
M  V30 4450 C 289.138 6.89602 -1.41652 0
M  V30 4451 C 289.848 5.59201 -1.75185 0
M  V30 4452 N 289.798 4.58235 -0.662552 0
M  V30 4453 H 292.637 8.65116 -0.777161 0
M  V30 4454 H 292.909 6.90173 -0.474152 0
M  V30 4455 H 292.041 7.66548 -2.79458 0
M  V30 4456 P 288.078 8.03563 -3.84925 0
M  V30 4457 O 287.858 8.85821 -5.0569 0
M  V30 4458 O 287.288 8.41101 -2.65469 0
M  V30 4459 O 287.828 6.4965 -4.18908 0
M  V30 4460 C 288.768 5.81037 -5.05421 0
M  V30 4461 C 288.038 4.78366 -5.89277 0
M  V30 4462 O 287.828 3.58302 -5.08433 0
M  V30 4463 C 286.638 5.17448 -6.36119 0
M  V30 4464 O 286.248 4.45271 -7.53232 0
M  V30 4465 C 285.758 4.74639 -5.19936 0
M  V30 4466 C 286.468 3.49432 -4.70418 0
M  V30 4467 N 286.418 3.32099 -3.22613 0
M  V30 4468 H 289.257 6.54213 -5.71376 0
M  V30 4469 H 289.529 5.30936 -4.43503 0
M  V30 4470 H 288.661 4.55889 -6.76652 0
M  V30 4471 H 286.006 2.61715 -5.17932 0
M  V30 4472 H 285.726 5.52155 -4.41878 0
M  V30 4473 H 284.735 4.51981 -5.53374 0
M  V30 4474 H 286.569 6.25124 -6.55234 0
M  V30 4475 P 284.698 4.23843 -7.83734 0
M  V30 4476 O 284.478 4.19407 -9.29784 0
M  V30 4477 O 283.908 5.24426 -7.09156 0
M  V30 4478 O 284.448 2.7935 -7.20758 0
M  V30 4479 C 285.388 1.7299 -7.50419 0
M  V30 4480 C 284.658 0.406376 -7.57911 0
M  V30 4481 O 284.448 -0.0897726 -6.21935 0
M  V30 4482 C 283.258 0.447224 -8.1878 0
M  V30 4483 O 282.868 -0.825065 -8.71101 0
M  V30 4484 C 282.378 0.783801 -6.99623 0
M  V30 4485 C 283.088 0.0619192 -5.85967 0
M  V30 4486 N 283.038 0.7859 -4.56281 0
M  V30 4487 C 283.118 2.14308 -4.31736 0
M  V30 4488 N 283.038 2.46106 -3.05116 0
M  V30 4489 C 282.898 1.23422 -2.4014 0
M  V30 4490 C 282.768 0.938381 -1.02409 0
M  V30 4491 N 282.648 -0.444647 -0.805413 0
M  V30 4492 C 282.648 -1.40829 -1.79435 0
M  V30 4493 N 282.518 -2.67213 -1.38558 0
M  V30 4494 N 282.778 -1.12947 -3.09005 0
M  V30 4495 C 282.898 0.204887 -3.32369 0
M  V30 4496 H 285.877 1.93423 -8.4679 0
M  V30 4497 H 286.149 1.68181 -6.71046 0
M  V30 4498 H 285.281 -0.289041 -8.15388 0
M  V30 4499 P 281.318 -1.17771 -8.83182 0
M  V30 4500 O 281.098 -2.07206 -9.98732 0
M  V30 4501 O 280.528 0.0743816 -8.81969 0
M  V30 4502 O 281.068 -1.97652 -7.47304 0
M  V30 4503 C 282.008 -3.01133 -7.08783 0
M  V30 4504 C 281.278 -4.12613 -6.37049 0
M  V30 4505 O 281.068 -3.72827 -4.97879 0
M  V30 4506 C 279.878 -4.45085 -6.88694 0
M  V30 4507 O 279.488 -5.7877 -6.5624 0
M  V30 4508 C 278.998 -3.47817 -6.12078 0
M  V30 4509 C 279.708 -3.39414 -4.77697 0
M  V30 4510 N 279.658 -2.04615 -4.15333 0
M  V30 4511 H 282.497 -3.41248 -7.98759 0
M  V30 4512 H 282.769 -2.5837 -6.41742 0
M  V30 4513 H 281.901 -5.02657 -6.42673 0
M  V30 4514 P 277.938 -6.144 -6.45285 0
M  V30 4515 O 277.718 -7.54673 -6.86199 0
M  V30 4516 O 277.148 -5.12391 -7.179 0
M  V30 4517 O 277.688 -5.99158 -4.88404 0
M  V30 4518 C 278.628 -6.60062 -3.96313 0
M  V30 4519 C 277.898 -7.08259 -2.72856 0
M  V30 4520 O 277.688 -5.9427 -1.83651 0
M  V30 4521 C 276.498 -7.65087 -2.94749 0
M  V30 4522 O 276.108 -8.53963 -1.90717 0
M  V30 4523 C 275.618 -6.41069 -2.90698 0
M  V30 4524 C 276.328 -5.5528 -1.86931 0
M  V30 4525 N 276.278 -4.09575 -2.15696 0
M  V30 4526 C 276.128 -3.24249 -1.08435 0
M  V30 4527 O 276.038 -3.63946 0.0628747 0
M  V30 4528 N 276.088 -1.90009 -1.39973 0
M  V30 4529 C 276.178 -1.34884 -2.65614 0
M  V30 4530 C 276.328 -2.3145 -3.71736 0
M  V30 4531 C 276.378 -3.63518 -3.44754 0
M  V30 4532 H 279.119 -7.45402 -4.45526 0
M  V30 4533 H 279.388 -5.86062 -3.67208 0
M  V30 4534 H 278.521 -7.84412 -2.24479 0
M  V30 4535 H 275.866 -5.73358 -0.888409 0
M  V30 4536 H 275.587 -5.90877 -3.88583 0
M  V30 4537 H 274.595 -6.65867 -2.58821 0
M  V30 4538 H 276.429 -8.16248 -3.92006 0
M  V30 4539 H 276.5 -4.34551 -4.26383 0
M  V30 4540 P 274.558 -8.7635 -1.60911 0
M  V30 4541 O 274.338 -10.1388 -1.11561 0
M  V30 4542 O 273.768 -8.36503 -2.79617 0
M  V30 4543 O 274.308 -7.71806 -0.42951 0
M  V30 4544 C 275.248 -7.67148 0.673689 0
M  V30 4545 C 274.518 -7.33374 1.95559 0
M  V30 4546 O 274.308 -5.88721 2.00726 0
M  V30 4547 C 273.118 -7.92526 2.10483 0
M  V30 4548 O 272.728 -8.02971 3.47653 0
M  V30 4549 C 272.238 -6.89602 1.41652 0
M  V30 4550 C 272.948 -5.59201 1.75185 0
M  V30 4551 N 272.898 -4.58301 0.657969 0
M  V30 4552 H 275.737 -8.65116 0.777161 0
M  V30 4553 H 276.009 -6.9022 0.46725 0
M  V30 4554 H 275.141 -7.66548 2.79458 0
M  V30 4555 H 272.486 -5.16165 2.65183 0
M  V30 4556 H 272.206 -7.06433 0.329384 0
M  V30 4557 H 271.215 -6.90926 1.82021 0
M  V30 4558 H 273.049 -8.90873 1.62657 0
M  V30 4559 P 271.178 -8.03563 3.84925 0
M  V30 4560 O 270.958 -8.85821 5.0569 0
M  V30 4561 O 270.388 -8.41101 2.65469 0
M  V30 4562 O 270.928 -6.4965 4.18908 0
M  V30 4563 C 271.868 -5.80886 5.05289 0
M  V30 4564 C 271.138 -4.78366 5.89277 0
M  V30 4565 O 270.928 -3.58302 5.08433 0
M  V30 4566 C 269.738 -5.16748 6.36559 0
M  V30 4567 O 269.348 -4.45271 7.53232 0
M  V30 4568 C 268.858 -4.74572 5.19863 0
M  V30 4569 C 269.568 -3.49373 4.70338 0
M  V30 4570 N 269.518 -3.31704 3.22876 0
M  V30 4571 C 269.368 -2.03326 2.74871 0
M  V30 4572 O 269.278 -1.06486 3.48076 0
M  V30 4573 N 269.328 -1.91838 1.37456 0
M  V30 4574 C 269.418 -2.94295 0.462035 0
M  V30 4575 O 269.368 -2.71763 -0.752928 0
M  V30 4576 C 269.568 -4.25064 1.05249 0
M  V30 4577 C 269.678 -5.39815 0.095697 0
M  V30 4578 C 269.618 -4.40214 2.39192 0
M  V30 4579 H 272.359 -6.54063 5.71245 0
M  V30 4580 H 272.628 -5.30339 4.43905 0
M  V30 4581 H 271.761 -4.55889 6.76652 0
M  V30 4582 H 269.106 -2.6167 5.17842 0
M  V30 4583 H 268.827 -5.52155 4.41878 0
M  V30 4584 H 267.835 -4.51918 5.53297 0
M  V30 4585 H 269.669 -6.25055 6.55162 0
M  V30 4586 H 269.74 -5.39798 2.81523 0
M  V30 4587 H 268.71 -5.91593 0.0279582 0
M  V30 4588 H 270.447 -6.10038 0.450573 0
M  V30 4589 H 269.959 -5.02007 -0.89937 0
M  V30 4590 H 269.223 -0.995326 1.00435 0
M  V30 4591 P 267.798 -4.23843 7.83734 0
M  V30 4592 O 267.578 -4.19407 9.29784 0
M  V30 4593 O 267.008 -5.24426 7.09156 0
M  V30 4594 O 267.548 -2.7935 7.20758 0
M  V30 4595 C 268.488 -1.7299 7.50419 0
M  V30 4596 C 267.758 -0.406376 7.57911 0
M  V30 4597 O 267.548 0.0897726 6.21935 0
M  V30 4598 C 266.358 -0.447224 8.1878 0
M  V30 4599 O 265.968 0.825065 8.71101 0
M  V30 4600 C 265.478 -0.783801 6.99623 0
M  V30 4601 C 266.188 -0.0619192 5.85967 0
M  V30 4602 N 266.138 -0.7859 4.56281 0
M  V30 4603 H 268.977 -1.93423 8.4679 0
M  V30 4604 H 269.249 -1.68181 6.71046 0
M  V30 4605 H 268.381 0.289041 8.15388 0
M  V30 4606 P 264.418 1.17771 8.83182 0
M  V30 4607 O 264.198 2.07206 9.98732 0
M  V30 4608 O 263.628 -0.0743816 8.81969 0
M  V30 4609 O 264.168 1.97652 7.47304 0
M  V30 4610 C 265.108 3.01133 7.08783 0
M  V30 4611 C 264.378 4.12613 6.37049 0
M  V30 4612 O 264.168 3.72827 4.97879 0
M  V30 4613 C 262.978 4.45085 6.88694 0
M  V30 4614 O 262.588 5.7877 6.5624 0
M  V30 4615 C 262.098 3.47817 6.12078 0
M  V30 4616 C 262.808 3.39414 4.77697 0
M  V30 4617 N 262.758 2.04615 4.15333 0
M  V30 4618 H 265.597 3.41248 7.98759 0
M  V30 4619 H 265.869 2.5837 6.41742 0
M  V30 4620 H 265.001 5.02657 6.42673 0
M  V30 4621 P 261.038 6.144 6.45285 0
M  V30 4622 O 260.818 7.54673 6.86199 0
M  V30 4623 O 260.248 5.12391 7.179 0
M  V30 4624 O 260.788 5.99158 4.88404 0
M  V30 4625 C 261.728 6.60234 3.96415 0
M  V30 4626 C 260.998 7.08259 2.72856 0
M  V30 4627 O 260.788 5.9427 1.83651 0
M  V30 4628 C 259.598 7.64886 2.9555 0
M  V30 4629 O 259.208 8.53963 1.90717 0
M  V30 4630 C 258.718 6.4116 2.90739 0
M  V30 4631 C 259.428 5.55375 1.86963 0
M  V30 4632 N 259.378 4.09448 2.16152 0
M  V30 4633 H 262.217 7.45574 4.45629 0
M  V30 4634 H 262.489 5.85864 3.679 0
M  V30 4635 H 261.621 7.84412 2.24479 0
M  V30 4636 H 258.966 5.73457 0.888562 0
M  V30 4637 H 258.686 5.90877 3.88583 0
M  V30 4638 H 257.695 6.6596 2.58858 0
M  V30 4639 H 259.529 8.16339 3.92049 0
M  V30 4640 P 257.658 8.7635 1.60911 0
M  V30 4641 O 257.438 10.1388 1.11561 0
M  V30 4642 O 256.868 8.36503 2.79617 0
M  V30 4643 O 257.408 7.71906 0.429565 0
M  V30 4644 C 258.348 7.67148 -0.673689 0
M  V30 4645 C 257.618 7.33666 -1.94851 0
M  V30 4646 O 257.408 5.88816 -2.00759 0
M  V30 4647 C 256.218 7.92526 -2.10483 0
M  V30 4648 O 255.828 8.03063 -3.47693 0
M  V30 4649 C 255.338 6.89602 -1.41652 0
M  V30 4650 C 256.048 5.59201 -1.75185 0
M  V30 4651 N 255.998 4.58235 -0.662552 0
M  V30 4652 C 255.848 3.24451 -1.01643 0
M  V30 4653 O 255.758 2.94958 -2.21722 0
M  V30 4654 N 255.798 2.30408 0.165238 0
M  V30 4655 C 255.898 2.66048 1.25118 0
M  V30 4656 N 255.848 1.70787 2.16813 0
M  V30 4657 C 256.048 4.02732 1.64413 0
M  V30 4658 C 256.098 4.9488 0.63991 0
M  V30 4659 H 258.838 8.65017 -0.777072 0
M  V30 4660 H 259.108 6.90173 -0.474152 0
M  V30 4661 H 258.241 7.66642 -2.79492 0
M  V30 4662 H 255.586 5.16254 -2.65229 0
M  V30 4663 H 255.306 7.06532 -0.329431 0
M  V30 4664 H 254.315 6.91023 -1.82047 0
M  V30 4665 H 256.149 8.90873 -1.62657 0
M  V30 4666 H 256.221 6.00104 0.892197 0
M  V30 4667 H 256.119 4.31733 2.69229 0
M  V30 4668 H 255.731 0.724835 1.8844 0
M  V30 4669 H 255.927 1.94716 3.16734 0
M  V30 4670 P 254.279 8.03563 -3.84925 0
M  V30 4671 O 254.059 8.85821 -5.0569 0
M  V30 4672 O 253.489 8.41101 -2.65469 0
M  V30 4673 O 254.029 6.4965 -4.18908 0
M  V30 4674 C 254.969 5.81037 -5.05421 0
M  V30 4675 C 254.239 4.78366 -5.89277 0
M  V30 4676 O 254.029 3.58302 -5.08433 0
M  V30 4677 C 252.839 5.17448 -6.36119 0
M  V30 4678 O 252.449 4.45271 -7.53232 0
M  V30 4679 C 251.959 4.74639 -5.19936 0
M  V30 4680 C 252.669 3.49432 -4.70418 0
M  V30 4681 N 252.619 3.32099 -3.22613 0
M  V30 4682 C 252.699 4.28245 -2.25527 0
M  V30 4683 N 252.629 3.80823 -1.04874 0
M  V30 4684 C 252.479 2.44571 -1.23535 0
M  V30 4685 C 252.349 1.37068 -0.330675 0
M  V30 4686 N 252.339 1.51472 0.990824 0
M  V30 4687 N 252.229 0.138614 -0.848756 0
M  V30 4688 C 252.239 -0.00675923 -2.16999 0
M  V30 4689 N 252.359 0.904372 -3.11122 0
M  V30 4690 C 252.479 2.12707 -2.56212 0
M  V30 4691 H 255.458 6.54213 -5.71376 0
M  V30 4692 H 255.73 5.30936 -4.43503 0
M  V30 4693 H 254.862 4.55889 -6.76652 0
M  V30 4694 H 252.207 2.61715 -5.17932 0
M  V30 4695 H 251.927 5.52155 -4.41878 0
M  V30 4696 H 250.936 4.51981 -5.53374 0
M  V30 4697 H 252.77 6.25124 -6.55234 0
M  V30 4698 H 252.811 5.34372 -2.47488 0
M  V30 4699 H 252.43 2.45153 1.4078 0
M  V30 4700 H 252.241 0.688422 1.59911 0
M  V30 4701 H 252.133 -1.02584 -2.52346 0
M  V30 4702 P 250.899 4.23843 -7.83734 0
M  V30 4703 O 250.679 4.19407 -9.29784 0
M  V30 4704 O 250.109 5.24426 -7.09156 0
M  V30 4705 O 250.649 2.7935 -7.20758 0
M  V30 4706 C 251.589 1.7299 -7.50419 0
M  V30 4707 C 250.859 0.406376 -7.57911 0
M  V30 4708 O 250.649 -0.0897726 -6.21935 0
M  V30 4709 C 249.459 0.447224 -8.1878 0
M  V30 4710 O 249.069 -0.825065 -8.71101 0
M  V30 4711 C 248.579 0.783801 -6.99623 0
M  V30 4712 C 249.289 0.0619192 -5.85967 0
M  V30 4713 N 249.239 0.7859 -4.56281 0
M  V30 4714 H 252.078 1.93423 -8.4679 0
M  V30 4715 H 252.35 1.68181 -6.71046 0
M  V30 4716 H 251.482 -0.289041 -8.15388 0
M  V30 4717 P 247.519 -1.17771 -8.83182 0
M  V30 4718 O 247.299 -2.07206 -9.98732 0
M  V30 4719 O 246.729 0.0743816 -8.81969 0
M  V30 4720 O 247.269 -1.97652 -7.47304 0
M  V30 4721 C 248.209 -3.01133 -7.08783 0
M  V30 4722 C 247.479 -4.12613 -6.37049 0
M  V30 4723 O 247.269 -3.72827 -4.97879 0
M  V30 4724 C 246.079 -4.45085 -6.88694 0
M  V30 4725 O 245.689 -5.7877 -6.5624 0
M  V30 4726 C 245.199 -3.47817 -6.12078 0
M  V30 4727 C 245.909 -3.39414 -4.77697 0
M  V30 4728 N 245.859 -2.04199 -4.15538 0
M  V30 4729 H 248.698 -3.41248 -7.98759 0
M  V30 4730 H 248.97 -2.57728 -6.42 0
M  V30 4731 H 248.102 -5.02657 -6.42673 0
M  V30 4732 H 245.447 -4.11708 -4.08956 0
M  V30 4733 H 245.167 -2.49626 -6.61679 0
M  V30 4734 H 244.176 -3.8662 -6.00862 0
M  V30 4735 H 246.01 -4.29991 -7.97006 0
M  V30 4736 P 244.139 -6.144 -6.45285 0
M  V30 4737 O 243.919 -7.54673 -6.86199 0
M  V30 4738 O 243.349 -5.12391 -7.179 0
M  V30 4739 O 243.889 -5.99158 -4.88404 0
M  V30 4740 C 244.829 -6.60234 -3.96415 0
M  V30 4741 C 244.099 -7.08259 -2.72856 0
M  V30 4742 O 243.889 -5.9427 -1.83651 0
M  V30 4743 C 242.699 -7.64886 -2.9555 0
M  V30 4744 O 242.309 -8.53963 -1.90717 0
M  V30 4745 C 241.819 -6.4116 -2.90739 0
M  V30 4746 C 242.529 -5.55375 -1.86963 0
M  V30 4747 N 242.479 -4.09664 -2.15742 0
M  V30 4748 C 242.559 -3.44381 -3.37233 0
M  V30 4749 N 242.479 -2.14131 -3.28347 0
M  V30 4750 C 242.339 -1.90247 -1.91588 0
M  V30 4751 C 242.209 -0.683992 -1.20892 0
M  V30 4752 N 242.089 -0.903396 0.173998 0
M  V30 4753 C 242.089 -2.14171 0.784879 0
M  V30 4754 N 241.959 -2.1435 2.11317 0
M  V30 4755 N 242.219 -3.28784 0.119316 0
M  V30 4756 C 242.339 -3.0977 -1.22194 0
M  V30 4757 H 245.318 -7.45574 -4.45629 0
M  V30 4758 H 245.59 -5.86232 -3.67314 0
M  V30 4759 H 244.722 -7.84412 -2.24479 0
M  V30 4760 P 240.759 -8.7635 -1.60911 0
M  V30 4761 O 240.539 -10.1388 -1.11561 0
M  V30 4762 O 239.969 -8.36503 -2.79617 0
M  V30 4763 O 240.509 -7.71806 -0.42951 0
M  V30 4764 C 241.449 -7.67148 0.673689 0
M  V30 4765 C 240.719 -7.33374 1.95559 0
M  V30 4766 O 240.509 -5.88721 2.00726 0
M  V30 4767 C 239.319 -7.92526 2.10483 0
M  V30 4768 O 238.929 -8.02971 3.47653 0
M  V30 4769 C 238.439 -6.89602 1.41652 0
M  V30 4770 C 239.149 -5.59201 1.75185 0
M  V30 4771 N 239.099 -4.58301 0.657969 0
M  V30 4772 H 241.938 -8.65116 0.777161 0
M  V30 4773 H 242.21 -6.9022 0.46725 0
M  V30 4774 H 241.342 -7.66548 2.79458 0
M  V30 4775 H 238.687 -5.16165 2.65183 0
M  V30 4776 H 238.407 -7.06433 0.329384 0
M  V30 4777 H 237.416 -6.90926 1.82021 0
M  V30 4778 H 239.25 -8.90873 1.62657 0
M  V30 4779 P 237.379 -8.03563 3.84925 0
M  V30 4780 O 237.159 -8.85821 5.0569 0
M  V30 4781 O 236.589 -8.41101 2.65469 0
M  V30 4782 O 237.129 -6.4965 4.18908 0
M  V30 4783 C 238.069 -5.80886 5.05289 0
M  V30 4784 C 237.339 -4.78366 5.89277 0
M  V30 4785 O 237.129 -3.58302 5.08433 0
M  V30 4786 C 235.939 -5.16748 6.36559 0
M  V30 4787 O 235.549 -4.45271 7.53232 0
M  V30 4788 C 235.059 -4.74572 5.19863 0
M  V30 4789 C 235.769 -3.49373 4.70338 0
M  V30 4790 N 235.719 -3.31704 3.22876 0
M  V30 4791 C 235.569 -2.03326 2.74871 0
M  V30 4792 O 235.479 -1.06486 3.48076 0
M  V30 4793 N 235.529 -1.91838 1.37456 0
M  V30 4794 C 235.619 -2.94295 0.462035 0
M  V30 4795 O 235.569 -2.71763 -0.752928 0
M  V30 4796 C 235.769 -4.25064 1.05249 0
M  V30 4797 C 235.879 -5.39815 0.095697 0
M  V30 4798 C 235.819 -4.40214 2.39192 0
M  V30 4799 H 238.56 -6.54063 5.71245 0
M  V30 4800 H 238.829 -5.30339 4.43905 0
M  V30 4801 H 237.962 -4.55889 6.76652 0
M  V30 4802 H 235.307 -2.6167 5.17842 0
M  V30 4803 H 235.028 -5.52155 4.41878 0
M  V30 4804 H 234.036 -4.51918 5.53297 0
M  V30 4805 H 235.87 -6.25055 6.55162 0
M  V30 4806 H 235.941 -5.39798 2.81523 0
M  V30 4807 H 234.911 -5.91593 0.0279582 0
M  V30 4808 H 236.648 -6.10038 0.450573 0
M  V30 4809 H 236.16 -5.02007 -0.89937 0
M  V30 4810 H 235.424 -0.995326 1.00435 0
M  V30 4811 P 233.999 -4.23843 7.83734 0
M  V30 4812 O 233.779 -4.19407 9.29784 0
M  V30 4813 O 233.209 -5.24426 7.09156 0
M  V30 4814 O 233.749 -2.7935 7.20758 0
M  V30 4815 C 234.689 -1.7299 7.50419 0
M  V30 4816 C 233.959 -0.406376 7.57911 0
M  V30 4817 O 233.749 0.0897726 6.21935 0
M  V30 4818 C 232.559 -0.447224 8.1878 0
M  V30 4819 O 232.169 0.825065 8.71101 0
M  V30 4820 C 231.679 -0.783801 6.99623 0
M  V30 4821 C 232.389 -0.0619192 5.85967 0
M  V30 4822 N 232.339 -0.7859 4.56281 0
M  V30 4823 H 235.178 -1.93423 8.4679 0
M  V30 4824 H 235.45 -1.68181 6.71046 0
M  V30 4825 H 234.582 0.289041 8.15388 0
M  V30 4826 P 230.619 1.17771 8.83182 0
M  V30 4827 O 230.399 2.07206 9.98732 0
M  V30 4828 O 229.829 -0.0743816 8.81969 0
M  V30 4829 O 230.369 1.97652 7.47304 0
M  V30 4830 C 231.309 3.01055 7.08599 0
M  V30 4831 C 230.579 4.12613 6.37049 0
M  V30 4832 O 230.369 3.72827 4.97879 0
M  V30 4833 C 229.179 4.45719 6.88164 0
M  V30 4834 O 228.789 5.7877 6.5624 0
M  V30 4835 C 228.299 3.47768 6.11991 0
M  V30 4836 C 229.009 3.39356 4.77615 0
M  V30 4837 N 228.959 2.04571 4.15244 0
M  V30 4838 C 228.809 1.98587 2.78314 0
M  V30 4839 O 228.719 2.98134 2.08835 0
M  V30 4840 N 228.769 0.714467 2.24925 0
M  V30 4841 C 228.859 -0.470001 2.94169 0
M  V30 4842 O 228.809 -1.55587 2.35195 0
M  V30 4843 C 229.009 -0.312541 4.36783 0
M  V30 4844 C 229.119 -1.57711 5.16352 0
M  V30 4845 C 229.059 0.914512 4.92583 0
M  V30 4846 H 231.8 3.41169 7.98575 0
M  V30 4847 H 232.069 2.58295 6.41556 0
M  V30 4848 H 231.202 5.02657 6.42673 0
M  V30 4849 H 228.547 4.11637 4.08885 0
M  V30 4850 H 228.268 2.49626 6.61679 0
M  V30 4851 H 227.276 3.86566 6.00778 0
M  V30 4852 H 229.11 4.29943 7.96918 0
M  V30 4853 H 229.181 1.00937 6.00374 0
M  V30 4854 H 228.151 -1.80153 5.63503 0
M  V30 4855 H 229.888 -1.4566 5.94104 0
M  V30 4856 H 229.4 -2.40664 4.49645 0
M  V30 4857 H 228.664 0.647622 1.25697 0
M  V30 4858 P 227.239 6.144 6.45285 0
M  V30 4859 O 227.019 7.54673 6.86199 0
M  V30 4860 O 226.449 5.12391 7.179 0
M  V30 4861 O 226.989 5.99158 4.88404 0
M  V30 4862 C 227.929 6.60234 3.96415 0
M  V30 4863 C 227.199 7.08259 2.72856 0
M  V30 4864 O 226.989 5.9427 1.83651 0
M  V30 4865 C 225.799 7.64886 2.9555 0
M  V30 4866 O 225.409 8.53963 1.90717 0
M  V30 4867 C 224.919 6.4116 2.90739 0
M  V30 4868 C 225.629 5.55375 1.86963 0
M  V30 4869 N 225.579 4.09664 2.15742 0
M  V30 4870 H 228.418 7.45574 4.45629 0
M  V30 4871 H 228.69 5.86232 3.67314 0
M  V30 4872 H 227.822 7.84412 2.24479 0
M  V30 4873 P 223.859 8.7635 1.60911 0
M  V30 4874 O 223.639 10.1388 1.11561 0
M  V30 4875 O 223.069 8.36503 2.79617 0
M  V30 4876 O 223.609 7.71806 0.42951 0
M  V30 4877 C 224.549 7.67148 -0.673689 0
M  V30 4878 C 223.819 7.33374 -1.95559 0
M  V30 4879 O 223.609 5.88721 -2.00726 0
M  V30 4880 C 222.419 7.92526 -2.10483 0
M  V30 4881 O 222.029 8.02971 -3.47653 0
M  V30 4882 C 221.539 6.89602 -1.41652 0
M  V30 4883 C 222.249 5.59201 -1.75185 0
M  V30 4884 N 222.199 4.58235 -0.662552 0
M  V30 4885 H 225.038 8.65116 -0.777161 0
M  V30 4886 H 225.31 6.90173 -0.474152 0
M  V30 4887 H 224.442 7.66548 -2.79458 0
M  V30 4888 P 220.479 8.03563 -3.84925 0
M  V30 4889 O 220.259 8.85821 -5.0569 0
M  V30 4890 O 219.689 8.41101 -2.65469 0
M  V30 4891 O 220.229 6.4965 -4.18908 0
M  V30 4892 C 221.169 5.81037 -5.05421 0
M  V30 4893 C 220.439 4.78366 -5.89277 0
M  V30 4894 O 220.229 3.58302 -5.08433 0
M  V30 4895 C 219.039 5.17448 -6.36119 0
M  V30 4896 O 218.649 4.45271 -7.53232 0
M  V30 4897 C 218.159 4.74639 -5.19936 0
M  V30 4898 C 218.869 3.49432 -4.70418 0
M  V30 4899 N 218.819 3.31776 -3.22945 0
M  V30 4900 H 221.658 6.54213 -5.71376 0
M  V30 4901 H 221.93 5.30492 -4.44033 0
M  V30 4902 H 221.062 4.55889 -6.76652 0
M  V30 4903 P 217.099 4.23843 -7.83734 0
M  V30 4904 O 216.879 4.19407 -9.29784 0
M  V30 4905 O 216.309 5.24426 -7.09156 0
M  V30 4906 O 216.849 2.79386 -7.20852 0
M  V30 4907 C 217.789 1.7299 -7.50419 0
M  V30 4908 C 217.059 0.41401 -7.5797 0
M  V30 4909 O 216.849 -0.089787 -6.22035 0
M  V30 4910 C 215.659 0.447224 -8.1878 0
M  V30 4911 O 215.269 -0.825159 -8.71201 0
M  V30 4912 C 214.779 0.783801 -6.99623 0
M  V30 4913 C 215.489 0.0619192 -5.85967 0
M  V30 4914 N 215.439 0.7859 -4.56281 0
M  V30 4915 C 215.289 0.0359258 -3.39981 0
M  V30 4916 O 215.199 -1.19723 -3.49038 0
M  V30 4917 N 215.239 0.869151 -2.14025 0
M  V30 4918 C 215.339 2.01207 -2.14363 0
M  V30 4919 N 215.289 2.58978 -0.954287 0
M  V30 4920 C 215.489 2.80817 -3.32215 0
M  V30 4921 C 215.539 2.13785 -4.50884 0
M  V30 4922 H 218.279 1.93401 -8.46693 0
M  V30 4923 H 218.549 1.68181 -6.71046 0
M  V30 4924 H 217.682 -0.289076 -8.15488 0
M  V30 4925 H 215.027 -0.927166 -5.72947 0
M  V30 4926 H 214.747 1.87 -6.82132 0
M  V30 4927 H 213.756 0.404009 -7.13457 0
M  V30 4928 H 215.59 1.20599 -8.97534 0
M  V30 4929 H 215.662 2.70295 -5.43162 0
M  V30 4930 H 215.56 3.89465 -3.27406 0
M  V30 4931 H 215.172 2.01616 -0.107046 0
M  V30 4932 H 215.368 3.61403 -0.873101 0
M  V30 4933 P 213.719 -1.17771 -8.83182 0
M  V30 4934 O 213.499 -2.07206 -9.98732 0
M  V30 4935 O 212.929 0.0743816 -8.81969 0
M  V30 4936 O 213.469 -1.97652 -7.47304 0
M  V30 4937 C 214.409 -3.01133 -7.08783 0
M  V30 4938 C 213.679 -4.12613 -6.37049 0
M  V30 4939 O 213.469 -3.72827 -4.97879 0
M  V30 4940 C 212.279 -4.45085 -6.88694 0
M  V30 4941 O 211.889 -5.7877 -6.5624 0
M  V30 4942 C 211.399 -3.47817 -6.12078 0
M  V30 4943 C 212.109 -3.39414 -4.77697 0
M  V30 4944 N 212.059 -2.04615 -4.15333 0
M  V30 4945 C 212.139 -0.803897 -4.75249 0
M  V30 4946 N 212.059 0.197615 -3.91502 0
M  V30 4947 C 211.919 -0.413002 -2.66823 0
M  V30 4948 C 211.789 0.157221 -1.38007 0
M  V30 4949 O 211.769 1.34419 -1.057 0
M  V30 4950 N 211.669 -0.833136 -0.390236 0
M  V30 4951 C 211.669 -2.19402 -0.623885 0
M  V30 4952 N 211.539 -2.97622 0.449677 0
M  V30 4953 N 211.799 -2.73005 -1.83601 0
M  V30 4954 C 211.919 -1.78786 -2.80935 0
M  V30 4955 H 214.898 -3.41248 -7.98759 0
M  V30 4956 H 215.17 -2.5837 -6.41742 0
M  V30 4957 H 214.302 -5.02657 -6.42673 0
M  V30 4958 H 211.647 -4.11779 -4.09026 0
M  V30 4959 H 211.367 -2.49661 -6.61772 0
M  V30 4960 H 210.376 -3.86674 -6.00946 0
M  V30 4961 H 212.21 -4.30038 -7.97094 0
M  V30 4962 H 212.259 -0.670579 -5.82754 0
M  V30 4963 H 211.577 -0.528446 0.557287 0
M  V30 4964 H 211.54 -4.00117 0.344773 0
M  V30 4965 H 211.439 -2.55448 1.38544 0
M  V30 4966 P 210.339 -6.144 -6.45285 0
M  V30 4967 O 210.119 -7.54673 -6.86199 0
M  V30 4968 O 209.549 -5.12391 -7.179 0
M  V30 4969 O 210.089 -5.99158 -4.88404 0
M  V30 4970 C 211.029 -6.60234 -3.96415 0
M  V30 4971 C 210.299 -7.08259 -2.72856 0
M  V30 4972 O 210.089 -5.9427 -1.83651 0
M  V30 4973 C 208.899 -7.64886 -2.9555 0
M  V30 4974 O 208.509 -8.53963 -1.90717 0
M  V30 4975 C 208.019 -6.4116 -2.90739 0
M  V30 4976 C 208.729 -5.55375 -1.86963 0
M  V30 4977 N 208.679 -4.09664 -2.15742 0
M  V30 4978 H 211.518 -7.45574 -4.45629 0
M  V30 4979 H 211.79 -5.86232 -3.67314 0
M  V30 4980 H 210.922 -7.84412 -2.24479 0
M  V30 4981 P 206.959 -8.7635 -1.60911 0
M  V30 4982 O 206.739 -10.1388 -1.11561 0
M  V30 4983 O 206.169 -8.36503 -2.79617 0
M  V30 4984 O 206.709 -7.71906 -0.429565 0
M  V30 4985 C 207.649 -7.67148 0.673689 0
M  V30 4986 C 206.919 -7.33666 1.94851 0
M  V30 4987 O 206.709 -5.88816 2.00759 0
M  V30 4988 C 205.519 -7.92526 2.10483 0
M  V30 4989 O 205.129 -8.03063 3.47693 0
M  V30 4990 C 204.639 -6.89602 1.41652 0
M  V30 4991 C 205.349 -5.59201 1.75185 0
M  V30 4992 N 205.299 -4.58235 0.662552 0
M  V30 4993 C 205.149 -3.24451 1.01643 0
M  V30 4994 O 205.059 -2.94958 2.21722 0
M  V30 4995 N 205.099 -2.30408 -0.165238 0
M  V30 4996 C 205.199 -2.66048 -1.25118 0
M  V30 4997 N 205.149 -1.70787 -2.16813 0
M  V30 4998 C 205.349 -4.02732 -1.64413 0
M  V30 4999 C 205.399 -4.9488 -0.63991 0
M  V30 5000 H 208.139 -8.65017 0.777072 0
M  V30 5001 H 208.409 -6.90173 0.474152 0
M  V30 5002 H 207.542 -7.66642 2.79492 0
M  V30 5003 H 204.887 -5.16254 2.65229 0
M  V30 5004 H 204.607 -7.06532 0.329431 0
M  V30 5005 H 203.616 -6.91023 1.82047 0
M  V30 5006 H 205.45 -8.90873 1.62657 0
M  V30 5007 H 205.522 -6.00104 -0.892197 0
M  V30 5008 H 205.42 -4.31733 -2.69229 0
M  V30 5009 H 205.032 -0.724835 -1.8844 0
M  V30 5010 H 205.228 -1.94716 -3.16734 0
M  V30 5011 P 203.579 -8.03563 3.84925 0
M  V30 5012 O 203.359 -8.85821 5.0569 0
M  V30 5013 O 202.789 -8.41101 2.65469 0
M  V30 5014 O 203.329 -6.4965 4.18908 0
M  V30 5015 C 204.269 -5.80886 5.05289 0
M  V30 5016 C 203.539 -4.78366 5.89277 0
M  V30 5017 O 203.329 -3.58302 5.08433 0
M  V30 5018 C 202.139 -5.16748 6.36559 0
M  V30 5019 O 201.749 -4.45271 7.53232 0
M  V30 5020 C 201.259 -4.74572 5.19863 0
M  V30 5021 C 201.969 -3.49373 4.70338 0
M  V30 5022 N 201.919 -3.31704 3.22876 0
M  V30 5023 C 201.769 -2.03326 2.74871 0
M  V30 5024 O 201.679 -1.06486 3.48076 0
M  V30 5025 N 201.729 -1.91838 1.37456 0
M  V30 5026 C 201.819 -2.94295 0.462035 0
M  V30 5027 C 201.969 -4.25064 1.05249 0
M  V30 5028 C 202.019 -4.40214 2.39192 0
M  V30 5029 H 204.76 -6.54063 5.71245 0
M  V30 5030 H 205.029 -5.30339 4.43905 0
M  V30 5031 H 204.162 -4.55889 6.76652 0
M  V30 5032 H 201.507 -2.6167 5.17842 0
M  V30 5033 H 201.228 -5.52155 4.41878 0
M  V30 5034 H 200.236 -4.51918 5.53297 0
M  V30 5035 H 202.07 -6.25055 6.55162 0
M  V30 5036 H 202.141 -5.39798 2.81523 0
M  V30 5037 P 200.199 -4.23843 7.83734 0
M  V30 5038 O 199.979 -4.19407 9.29784 0
M  V30 5039 O 199.409 -5.24426 7.09156 0
M  V30 5040 O 199.949 -2.7935 7.20758 0
M  V30 5041 C 200.889 -1.7299 7.50419 0
M  V30 5042 C 200.159 -0.406376 7.57911 0
M  V30 5043 O 199.949 0.0897726 6.21935 0
M  V30 5044 C 198.759 -0.447224 8.1878 0
M  V30 5045 O 198.369 0.825065 8.71101 0
M  V30 5046 C 197.879 -0.783801 6.99623 0
M  V30 5047 C 198.589 -0.0619192 5.85967 0
M  V30 5048 N 198.539 -0.790462 4.56202 0
M  V30 5049 H 201.378 -1.93423 8.4679 0
M  V30 5050 H 201.65 -1.68852 6.70877 0
M  V30 5051 H 200.782 0.289041 8.15388 0
M  V30 5052 H 198.127 0.927006 5.72848 0
M  V30 5053 H 197.847 -1.86973 6.82036 0
M  V30 5054 H 196.856 -0.403953 7.13357 0
M  V30 5055 H 198.69 -1.20599 8.97534 0
M  V30 5056 P 196.819 1.17771 8.83182 0
M  V30 5057 O 196.599 2.07206 9.98732 0
M  V30 5058 O 196.029 -0.0743816 8.81969 0
M  V30 5059 O 196.569 1.97652 7.47304 0
M  V30 5060 C 197.509 3.01133 7.08783 0
M  V30 5061 C 196.779 4.12613 6.37049 0
M  V30 5062 O 196.569 3.72827 4.97879 0
M  V30 5063 C 195.379 4.45085 6.88694 0
M  V30 5064 O 194.989 5.7877 6.5624 0
M  V30 5065 C 194.499 3.47817 6.12078 0
M  V30 5066 C 195.209 3.39414 4.77697 0
M  V30 5067 N 195.159 2.04199 4.15538 0
M  V30 5068 H 197.998 3.41248 7.98759 0
M  V30 5069 H 198.27 2.57728 6.42 0
M  V30 5070 H 197.402 5.02657 6.42673 0
M  V30 5071 H 194.747 4.11708 4.08956 0
M  V30 5072 H 194.467 2.49626 6.61679 0
M  V30 5073 H 193.476 3.8662 6.00862 0
M  V30 5074 H 195.31 4.29991 7.97006 0
M  V30 5075 P 193.439 6.144 6.45285 0
M  V30 5076 O 193.219 7.54673 6.86199 0
M  V30 5077 O 192.649 5.12391 7.179 0
M  V30 5078 O 193.189 5.99158 4.88404 0
M  V30 5079 C 194.129 6.60234 3.96415 0
M  V30 5080 C 193.399 7.08259 2.72856 0
M  V30 5081 O 193.189 5.9427 1.83651 0
M  V30 5082 C 191.999 7.64886 2.9555 0
M  V30 5083 O 191.609 8.53963 1.90717 0
M  V30 5084 C 191.119 6.4116 2.90739 0
M  V30 5085 C 191.829 5.55375 1.86963 0
M  V30 5086 N 191.779 4.09664 2.15742 0
M  V30 5087 H 194.618 7.45574 4.45629 0
M  V30 5088 H 194.89 5.86232 3.67314 0
M  V30 5089 H 194.022 7.84412 2.24479 0
M  V30 5090 P 190.059 8.7635 1.60911 0
M  V30 5091 O 189.839 10.1388 1.11561 0
M  V30 5092 O 189.269 8.36503 2.79617 0
M  V30 5093 O 189.809 7.71806 0.42951 0
M  V30 5094 C 190.749 7.67148 -0.673689 0
M  V30 5095 C 190.019 7.33374 -1.95559 0
M  V30 5096 O 189.809 5.88721 -2.00726 0
M  V30 5097 C 188.619 7.92526 -2.10483 0
M  V30 5098 O 188.229 8.02971 -3.47653 0
M  V30 5099 C 187.739 6.89602 -1.41652 0
M  V30 5100 C 188.449 5.59201 -1.75185 0
M  V30 5101 N 188.399 4.58235 -0.662552 0
M  V30 5102 H 191.238 8.65116 -0.777161 0
M  V30 5103 H 191.51 6.90173 -0.474152 0
M  V30 5104 H 190.642 7.66548 -2.79458 0
M  V30 5105 P 186.679 8.03563 -3.84925 0
M  V30 5106 O 186.459 8.85821 -5.0569 0
M  V30 5107 O 185.889 8.41101 -2.65469 0
M  V30 5108 O 186.429 6.4965 -4.18908 0
M  V30 5109 C 187.369 5.81037 -5.05421 0
M  V30 5110 C 186.639 4.78366 -5.89277 0
M  V30 5111 O 186.429 3.58302 -5.08433 0
M  V30 5112 C 185.239 5.17448 -6.36119 0
M  V30 5113 O 184.849 4.45271 -7.53232 0
M  V30 5114 C 184.359 4.74639 -5.19936 0
M  V30 5115 C 185.069 3.49432 -4.70418 0
M  V30 5116 N 185.019 3.32099 -3.22613 0
M  V30 5117 H 187.858 6.54213 -5.71376 0
M  V30 5118 H 188.13 5.30936 -4.43503 0
M  V30 5119 H 187.262 4.55889 -6.76652 0
M  V30 5120 H 184.607 2.61715 -5.17932 0
M  V30 5121 H 184.327 5.52155 -4.41878 0
M  V30 5122 H 183.336 4.51981 -5.53374 0
M  V30 5123 H 185.17 6.25124 -6.55234 0
M  V30 5124 P 183.299 4.23843 -7.83734 0
M  V30 5125 O 183.079 4.19407 -9.29784 0
M  V30 5126 O 182.509 5.24426 -7.09156 0
M  V30 5127 O 183.049 2.7935 -7.20758 0
M  V30 5128 C 183.989 1.7299 -7.50419 0
M  V30 5129 C 183.259 0.406376 -7.57911 0
M  V30 5130 O 183.049 -0.0897726 -6.21935 0
M  V30 5131 C 181.859 0.447224 -8.1878 0
M  V30 5132 O 181.469 -0.825065 -8.71101 0
M  V30 5133 C 180.979 0.783801 -6.99623 0
M  V30 5134 C 181.689 0.0619192 -5.85967 0
M  V30 5135 N 181.639 0.7859 -4.56281 0
M  V30 5136 H 184.478 1.93423 -8.4679 0
M  V30 5137 H 184.75 1.68181 -6.71046 0
M  V30 5138 H 183.882 -0.289041 -8.15388 0
M  V30 5139 P 179.919 -1.17771 -8.83182 0
M  V30 5140 O 179.699 -2.07206 -9.98732 0
M  V30 5141 O 179.129 0.0743816 -8.81969 0
M  V30 5142 O 179.669 -1.97652 -7.47304 0
M  V30 5143 C 180.609 -3.01133 -7.08783 0
M  V30 5144 C 179.879 -4.12613 -6.37049 0
M  V30 5145 O 179.669 -3.72827 -4.97879 0
M  V30 5146 C 178.479 -4.45085 -6.88694 0
M  V30 5147 O 178.089 -5.7877 -6.5624 0
M  V30 5148 C 177.599 -3.47817 -6.12078 0
M  V30 5149 C 178.309 -3.39414 -4.77697 0
M  V30 5150 N 178.259 -2.04199 -4.15538 0
M  V30 5151 H 181.098 -3.41248 -7.98759 0
M  V30 5152 H 181.37 -2.57728 -6.42 0
M  V30 5153 H 180.502 -5.02657 -6.42673 0
M  V30 5154 H 177.847 -4.11708 -4.08956 0
M  V30 5155 H 177.567 -2.49626 -6.61679 0
M  V30 5156 H 176.576 -3.8662 -6.00862 0
M  V30 5157 H 178.41 -4.29991 -7.97006 0
M  V30 5158 P 176.539 -6.144 -6.45285 0
M  V30 5159 O 176.319 -7.54673 -6.86199 0
M  V30 5160 O 175.749 -5.12391 -7.179 0
M  V30 5161 O 176.289 -5.99158 -4.88404 0
M  V30 5162 C 177.229 -6.60234 -3.96415 0
M  V30 5163 C 176.499 -7.08259 -2.72856 0
M  V30 5164 O 176.289 -5.9427 -1.83651 0
M  V30 5165 C 175.099 -7.64886 -2.9555 0
M  V30 5166 O 174.709 -8.53963 -1.90717 0
M  V30 5167 C 174.219 -6.4116 -2.90739 0
M  V30 5168 C 174.929 -5.55375 -1.86963 0
M  V30 5169 N 174.879 -4.09664 -2.15742 0
M  V30 5170 H 177.718 -7.45574 -4.45629 0
M  V30 5171 H 177.99 -5.86232 -3.67314 0
M  V30 5172 H 177.122 -7.84412 -2.24479 0
M  V30 5173 P 173.159 -8.7635 -1.60911 0
M  V30 5174 O 172.939 -10.1388 -1.11561 0
M  V30 5175 O 172.369 -8.36503 -2.79617 0
M  V30 5176 O 172.909 -7.71806 -0.42951 0
M  V30 5177 C 173.849 -7.67148 0.673689 0
M  V30 5178 C 173.119 -7.33374 1.95559 0
M  V30 5179 O 172.909 -5.88721 2.00726 0
M  V30 5180 C 171.719 -7.92526 2.10483 0
M  V30 5181 O 171.329 -8.02971 3.47653 0
M  V30 5182 C 170.839 -6.89602 1.41652 0
M  V30 5183 C 171.549 -5.59201 1.75185 0
M  V30 5184 N 171.499 -4.58235 0.662552 0
M  V30 5185 H 174.338 -8.65116 0.777161 0
M  V30 5186 H 174.61 -6.90173 0.474152 0
M  V30 5187 H 173.742 -7.66548 2.79458 0
M  V30 5188 P 169.779 -8.03563 3.84925 0
M  V30 5189 O 169.559 -8.85821 5.0569 0
M  V30 5190 O 168.989 -8.41101 2.65469 0
M  V30 5191 O 169.529 -6.4965 4.18908 0
M  V30 5192 C 170.469 -5.80886 5.05289 0
M  V30 5193 C 169.739 -4.78366 5.89277 0
M  V30 5194 O 169.529 -3.58302 5.08433 0
M  V30 5195 C 168.339 -5.16748 6.36559 0
M  V30 5196 O 167.949 -4.45271 7.53232 0
M  V30 5197 C 167.459 -4.74572 5.19863 0
M  V30 5198 C 168.169 -3.49373 4.70338 0
M  V30 5199 N 168.119 -3.31704 3.22876 0
M  V30 5200 C 167.969 -2.03326 2.74871 0
M  V30 5201 O 167.879 -1.06486 3.48076 0
M  V30 5202 N 167.929 -1.91838 1.37456 0
M  V30 5203 C 168.019 -2.94295 0.462035 0
M  V30 5204 C 168.169 -4.25064 1.05249 0
M  V30 5205 C 168.219 -4.40214 2.39192 0
M  V30 5206 H 170.96 -6.54063 5.71245 0
M  V30 5207 H 171.229 -5.30339 4.43905 0
M  V30 5208 H 170.362 -4.55889 6.76652 0
M  V30 5209 H 167.707 -2.6167 5.17842 0
M  V30 5210 H 167.428 -5.52155 4.41878 0
M  V30 5211 H 166.436 -4.51918 5.53297 0
M  V30 5212 H 168.27 -6.25055 6.55162 0
M  V30 5213 H 168.341 -5.39798 2.81523 0
M  V30 5214 P 166.399 -4.23843 7.83734 0
M  V30 5215 O 166.179 -4.19407 9.29784 0
M  V30 5216 O 165.609 -5.24426 7.09156 0
M  V30 5217 O 166.149 -2.7935 7.20758 0
M  V30 5218 C 167.089 -1.7299 7.50419 0
M  V30 5219 C 166.359 -0.406376 7.57911 0
M  V30 5220 O 166.149 0.0897726 6.21935 0
M  V30 5221 C 164.959 -0.447224 8.1878 0
M  V30 5222 O 164.569 0.825065 8.71101 0
M  V30 5223 C 164.079 -0.783801 6.99623 0
M  V30 5224 C 164.789 -0.0619192 5.85967 0
M  V30 5225 N 164.739 -0.790462 4.56202 0
M  V30 5226 C 164.819 -2.13895 4.34171 0
M  V30 5227 N 164.749 -2.46449 3.08687 0
M  V30 5228 C 164.599 -1.2525 2.43697 0
M  V30 5229 C 164.469 -0.914535 1.07318 0
M  V30 5230 N 164.459 -1.80782 0.0887348 0
M  V30 5231 N 164.349 0.386745 0.768133 0
M  V30 5232 C 164.359 1.28096 1.75159 0
M  V30 5233 N 164.479 1.09708 3.04861 0
M  V30 5234 C 164.599 -0.214857 3.32306 0
M  V30 5235 H 167.578 -1.93423 8.4679 0
M  V30 5236 H 167.85 -1.68852 6.70877 0
M  V30 5237 H 166.982 0.289041 8.15388 0
M  V30 5238 H 164.327 0.927006 5.72848 0
M  V30 5239 H 164.047 -1.86973 6.82036 0
M  V30 5240 H 163.056 -0.403953 7.13357 0
M  V30 5241 H 164.89 -1.20599 8.97534 0
M  V30 5242 H 164.931 -2.86846 5.14318 0
M  V30 5243 H 164.55 -2.81082 0.302037 0
M  V30 5244 H 164.361 -1.49688 -0.889064 0
M  V30 5245 H 164.253 2.31317 1.43855 0
M  V30 5246 P 163.019 1.17771 8.83182 0
M  V30 5247 O 162.799 2.07206 9.98732 0
M  V30 5248 O 162.229 -0.0743816 8.81969 0
M  V30 5249 O 162.769 1.97652 7.47304 0
M  V30 5250 C 163.709 3.01133 7.08783 0
M  V30 5251 C 162.979 4.12613 6.37049 0
M  V30 5252 O 162.769 3.72827 4.97879 0
M  V30 5253 C 161.579 4.45085 6.88694 0
M  V30 5254 O 161.189 5.7877 6.5624 0
M  V30 5255 C 160.699 3.47817 6.12078 0
M  V30 5256 C 161.409 3.39414 4.77697 0
M  V30 5257 N 161.359 2.04199 4.15538 0
M  V30 5258 H 164.198 3.41248 7.98759 0
M  V30 5259 H 164.47 2.57728 6.42 0
M  V30 5260 H 163.602 5.02657 6.42673 0
M  V30 5261 H 160.947 4.11708 4.08956 0
M  V30 5262 H 160.667 2.49626 6.61679 0
M  V30 5263 H 159.676 3.8662 6.00862 0
M  V30 5264 H 161.51 4.29991 7.97006 0
M  V30 5265 P 159.639 6.144 6.45285 0
M  V30 5266 O 159.419 7.54673 6.86199 0
M  V30 5267 O 158.849 5.12391 7.179 0
M  V30 5268 O 159.389 5.99158 4.88404 0
M  V30 5269 C 160.329 6.60062 3.96313 0
M  V30 5270 C 159.599 7.08259 2.72856 0
M  V30 5271 O 159.389 5.9427 1.83651 0
M  V30 5272 C 158.199 7.65087 2.94749 0
M  V30 5273 O 157.809 8.53963 1.90717 0
M  V30 5274 C 157.319 6.41069 2.90698 0
M  V30 5275 C 158.029 5.5528 1.86931 0
M  V30 5276 N 157.979 4.09575 2.15696 0
M  V30 5277 C 157.829 3.24249 1.08435 0
M  V30 5278 O 157.739 3.63946 -0.0628747 0
M  V30 5279 N 157.789 1.90009 1.39973 0
M  V30 5280 C 157.879 1.34884 2.65614 0
M  V30 5281 O 157.829 0.123716 2.81728 0
M  V30 5282 C 158.029 2.3145 3.71736 0
M  V30 5283 C 158.139 1.75913 5.10438 0
M  V30 5284 C 158.079 3.63518 3.44754 0
M  V30 5285 H 160.82 7.45402 4.45526 0
M  V30 5286 H 161.089 5.86062 3.67208 0
M  V30 5287 H 160.222 7.84412 2.24479 0
M  V30 5288 H 157.567 5.73358 0.888409 0
M  V30 5289 H 157.288 5.90877 3.88583 0
M  V30 5290 H 156.296 6.65867 2.58821 0
M  V30 5291 H 158.13 8.16248 3.92006 0
M  V30 5292 H 158.201 4.34551 4.26383 0
M  V30 5293 H 157.171 1.85471 5.61775 0
M  V30 5294 H 158.908 2.31364 5.66257 0
M  V30 5295 H 158.42 0.695936 5.05229 0
M  V30 5296 H 157.684 1.26277 0.63625 0
M  V30 5297 P 156.259 8.7635 1.60911 0
M  V30 5298 O 156.039 10.1388 1.11561 0
M  V30 5299 O 155.469 8.36503 2.79617 0
M  V30 5300 O 156.009 7.71806 0.42951 0
M  V30 5301 C 156.949 7.67148 -0.673689 0
M  V30 5302 C 156.219 7.33374 -1.95559 0
M  V30 5303 O 156.009 5.88721 -2.00726 0
M  V30 5304 C 154.819 7.92526 -2.10483 0
M  V30 5305 O 154.429 8.02971 -3.47653 0
M  V30 5306 C 153.939 6.89602 -1.41652 0
M  V30 5307 C 154.649 5.59201 -1.75185 0
M  V30 5308 N 154.599 4.58235 -0.662552 0
M  V30 5309 H 157.438 8.65116 -0.777161 0
M  V30 5310 H 157.71 6.90173 -0.474152 0
M  V30 5311 H 156.842 7.66548 -2.79458 0
M  V30 5312 P 152.879 8.03563 -3.84925 0
M  V30 5313 O 152.659 8.85821 -5.0569 0
M  V30 5314 O 152.089 8.41101 -2.65469 0
M  V30 5315 O 152.629 6.4965 -4.18908 0
M  V30 5316 C 153.569 5.80886 -5.05289 0
M  V30 5317 C 152.839 4.78366 -5.89277 0
M  V30 5318 O 152.629 3.58302 -5.08433 0
M  V30 5319 C 151.439 5.16748 -6.36559 0
M  V30 5320 O 151.049 4.45271 -7.53232 0
M  V30 5321 C 150.559 4.74572 -5.19863 0
M  V30 5322 C 151.269 3.49373 -4.70338 0
M  V30 5323 N 151.219 3.31704 -3.22876 0
M  V30 5324 C 151.069 2.03326 -2.74871 0
M  V30 5325 O 150.979 1.06486 -3.48076 0
M  V30 5326 N 151.029 1.91838 -1.37456 0
M  V30 5327 C 151.119 2.94295 -0.462035 0
M  V30 5328 O 151.069 2.71763 0.752928 0
M  V30 5329 C 151.269 4.25064 -1.05249 0
M  V30 5330 C 151.379 5.39815 -0.095697 0
M  V30 5331 C 151.319 4.40214 -2.39192 0
M  V30 5332 H 154.06 6.54063 -5.71245 0
M  V30 5333 H 154.329 5.30339 -4.43905 0
M  V30 5334 H 153.462 4.55889 -6.76652 0
M  V30 5335 H 150.807 2.6167 -5.17842 0
M  V30 5336 H 150.528 5.52155 -4.41878 0
M  V30 5337 H 149.536 4.51918 -5.53297 0
M  V30 5338 H 151.37 6.25055 -6.55162 0
M  V30 5339 H 151.441 5.39798 -2.81523 0
M  V30 5340 H 150.411 5.91593 -0.0279582 0
M  V30 5341 H 152.148 6.10038 -0.450573 0
M  V30 5342 H 151.66 5.02007 0.89937 0
M  V30 5343 H 150.924 0.995326 -1.00435 0
M  V30 5344 P 149.499 4.23843 -7.83734 0
M  V30 5345 O 149.279 4.19407 -9.29784 0
M  V30 5346 O 148.709 5.24426 -7.09156 0
M  V30 5347 O 149.249 2.7935 -7.20758 0
M  V30 5348 C 150.189 1.7299 -7.50419 0
M  V30 5349 C 149.459 0.406376 -7.57911 0
M  V30 5350 O 149.249 -0.0897726 -6.21935 0
M  V30 5351 C 148.059 0.447224 -8.1878 0
M  V30 5352 O 147.669 -0.825065 -8.71101 0
M  V30 5353 C 147.179 0.783801 -6.99623 0
M  V30 5354 C 147.889 0.0619192 -5.85967 0
M  V30 5355 N 147.839 0.7859 -4.56281 0
M  V30 5356 H 150.678 1.93423 -8.4679 0
M  V30 5357 H 150.95 1.68181 -6.71046 0
M  V30 5358 H 150.082 -0.289041 -8.15388 0
M  V30 5359 P 146.119 -1.17771 -8.83182 0
M  V30 5360 O 145.899 -2.07206 -9.98732 0
M  V30 5361 O 145.329 0.0743816 -8.81969 0
M  V30 5362 O 145.869 -1.97652 -7.47304 0
M  V30 5363 C 146.809 -3.01133 -7.08783 0
M  V30 5364 C 146.079 -4.12613 -6.37049 0
M  V30 5365 O 145.869 -3.72827 -4.97879 0
M  V30 5366 C 144.679 -4.45085 -6.88694 0
M  V30 5367 O 144.289 -5.7877 -6.5624 0
M  V30 5368 C 143.799 -3.47817 -6.12078 0
M  V30 5369 C 144.509 -3.39414 -4.77697 0
M  V30 5370 N 144.459 -2.04199 -4.15538 0
M  V30 5371 H 147.298 -3.41248 -7.98759 0
M  V30 5372 H 147.57 -2.57728 -6.42 0
M  V30 5373 H 146.702 -5.02657 -6.42673 0
M  V30 5374 H 144.047 -4.11708 -4.08956 0
M  V30 5375 H 143.767 -2.49626 -6.61679 0
M  V30 5376 H 142.776 -3.8662 -6.00862 0
M  V30 5377 H 144.61 -4.29991 -7.97006 0
M  V30 5378 P 142.739 -6.144 -6.45285 0
M  V30 5379 O 142.519 -7.54673 -6.86199 0
M  V30 5380 O 141.949 -5.12391 -7.179 0
M  V30 5381 O 142.489 -5.99158 -4.88404 0
M  V30 5382 C 143.429 -6.60234 -3.96415 0
M  V30 5383 C 142.699 -7.08259 -2.72856 0
M  V30 5384 O 142.489 -5.9427 -1.83651 0
M  V30 5385 C 141.299 -7.64886 -2.9555 0
M  V30 5386 O 140.909 -8.53963 -1.90717 0
M  V30 5387 C 140.419 -6.4116 -2.90739 0
M  V30 5388 C 141.129 -5.55375 -1.86963 0
M  V30 5389 N 141.079 -4.09664 -2.15742 0
M  V30 5390 C 141.159 -3.44381 -3.37233 0
M  V30 5391 N 141.079 -2.14131 -3.28347 0
M  V30 5392 C 140.939 -1.90247 -1.91588 0
M  V30 5393 C 140.809 -0.683992 -1.20892 0
M  V30 5394 N 140.689 -0.903396 0.173998 0
M  V30 5395 C 140.689 -2.14171 0.784879 0
M  V30 5396 N 140.559 -2.1435 2.11317 0
M  V30 5397 N 140.819 -3.28784 0.119316 0
M  V30 5398 C 140.939 -3.0977 -1.22194 0
M  V30 5399 H 143.918 -7.45574 -4.45629 0
M  V30 5400 H 144.19 -5.86232 -3.67314 0
M  V30 5401 H 143.322 -7.84412 -2.24479 0
M  V30 5402 P 139.359 -8.7635 -1.60911 0
M  V30 5403 O 139.139 -10.1388 -1.11561 0
M  V30 5404 O 138.569 -8.36503 -2.79617 0
M  V30 5405 O 139.109 -7.71806 -0.42951 0
M  V30 5406 C 140.049 -7.67148 0.673689 0
M  V30 5407 C 139.319 -7.33374 1.95559 0
M  V30 5408 O 139.109 -5.88721 2.00726 0
M  V30 5409 C 137.919 -7.92526 2.10483 0
M  V30 5410 O 137.529 -8.02971 3.47653 0
M  V30 5411 C 137.039 -6.89602 1.41652 0
M  V30 5412 C 137.749 -5.59201 1.75185 0
M  V30 5413 N 137.699 -4.58235 0.662552 0
M  V30 5414 H 140.538 -8.65116 0.777161 0
M  V30 5415 H 140.81 -6.90173 0.474152 0
M  V30 5416 H 139.942 -7.66548 2.79458 0
M  V30 5417 P 135.979 -8.03563 3.84925 0
M  V30 5418 O 135.759 -8.85821 5.0569 0
M  V30 5419 O 135.189 -8.41101 2.65469 0
M  V30 5420 O 135.729 -6.4965 4.18908 0
M  V30 5421 C 136.669 -5.81037 5.05421 0
M  V30 5422 C 135.939 -4.78366 5.89277 0
M  V30 5423 O 135.729 -3.58302 5.08433 0
M  V30 5424 C 134.539 -5.17448 6.36119 0
M  V30 5425 O 134.149 -4.45271 7.53232 0
M  V30 5426 C 133.659 -4.74639 5.19936 0
M  V30 5427 C 134.369 -3.49432 4.70418 0
M  V30 5428 N 134.319 -3.31776 3.22945 0
M  V30 5429 H 137.158 -6.54213 5.71376 0
M  V30 5430 H 137.43 -5.30492 4.44033 0
M  V30 5431 H 136.562 -4.55889 6.76652 0
M  V30 5432 P 132.599 -4.23843 7.83734 0
M  V30 5433 O 132.379 -4.19407 9.29784 0
M  V30 5434 O 131.809 -5.24426 7.09156 0
M  V30 5435 O 132.349 -2.7935 7.20758 0
M  V30 5436 C 133.289 -1.72945 7.50224 0
M  V30 5437 C 132.559 -0.406376 7.57911 0
M  V30 5438 O 132.349 0.0897726 6.21935 0
M  V30 5439 C 131.159 -0.438983 8.18724 0
M  V30 5440 O 130.769 0.825065 8.71101 0
M  V30 5441 C 130.279 -0.783689 6.99524 0
M  V30 5442 C 130.989 -0.0619086 5.85867 0
M  V30 5443 N 130.939 -0.78573 4.56183 0
M  V30 5444 C 130.789 -0.0292889 3.41887 0
M  V30 5445 O 130.699 1.18445 3.4419 0
M  V30 5446 N 130.749 -0.744061 2.23964 0
M  V30 5447 C 130.839 -2.10932 2.10362 0
M  V30 5448 O 130.789 -2.64117 0.98825 0
M  V30 5449 C 130.989 -2.8202 3.34994 0
M  V30 5450 C 131.099 -4.31095 3.25037 0
M  V30 5451 C 131.039 -2.15547 4.52261 0
M  V30 5452 H 133.78 -1.93379 8.46595 0
M  V30 5453 H 134.049 -1.68132 6.70852 0
M  V30 5454 H 133.182 0.289041 8.15388 0
M  V30 5455 H 130.527 0.926847 5.72749 0
M  V30 5456 H 130.248 -1.86973 6.82036 0
M  V30 5457 H 129.256 -0.403896 7.13257 0
M  V30 5458 H 131.09 -1.20585 8.97435 0
M  V30 5459 H 131.161 -2.71231 5.45042 0
M  V30 5460 H 130.131 -4.76966 3.49992 0
M  V30 5461 H 131.868 -4.67047 3.95024 0
M  V30 5462 H 131.38 -4.58996 2.22312 0
M  V30 5463 H 130.644 -0.214893 1.39758 0
M  V30 5464 P 129.219 1.17771 8.83182 0
M  V30 5465 O 128.999 2.07206 9.98732 0
M  V30 5466 O 128.429 -0.0743816 8.81969 0
M  V30 5467 O 128.969 1.97652 7.47304 0
M  V30 5468 C 129.909 3.01133 7.08783 0
M  V30 5469 C 129.179 4.12613 6.37049 0
M  V30 5470 O 128.969 3.72827 4.97879 0
M  V30 5471 C 127.779 4.45085 6.88694 0
M  V30 5472 O 127.389 5.7877 6.5624 0
M  V30 5473 C 126.899 3.47817 6.12078 0
M  V30 5474 C 127.609 3.39414 4.77697 0
M  V30 5475 N 127.559 2.04615 4.15333 0
M  V30 5476 H 130.398 3.41248 7.98759 0
M  V30 5477 H 130.67 2.5837 6.41742 0
M  V30 5478 H 129.802 5.02657 6.42673 0
M  V30 5479 P 125.839 6.144 6.45285 0
M  V30 5480 O 125.619 7.54673 6.86199 0
M  V30 5481 O 125.049 5.12391 7.179 0
M  V30 5482 O 125.589 5.99158 4.88404 0
M  V30 5483 C 126.529 6.60062 3.96313 0
M  V30 5484 C 125.799 7.08259 2.72856 0
M  V30 5485 O 125.589 5.9427 1.83651 0
M  V30 5486 C 124.399 7.65087 2.94749 0
M  V30 5487 O 124.009 8.53963 1.90717 0
M  V30 5488 C 123.519 6.41069 2.90698 0
M  V30 5489 C 124.229 5.5528 1.86931 0
M  V30 5490 N 124.179 4.09575 2.15696 0
M  V30 5491 C 124.029 3.24249 1.08435 0
M  V30 5492 O 123.939 3.63946 -0.0628747 0
M  V30 5493 N 123.989 1.90009 1.39973 0
M  V30 5494 C 124.079 1.34884 2.65614 0
M  V30 5495 C 124.229 2.3145 3.71736 0
M  V30 5496 C 124.279 3.63518 3.44754 0
M  V30 5497 H 127.02 7.45402 4.45526 0
M  V30 5498 H 127.289 5.86062 3.67208 0
M  V30 5499 H 126.422 7.84412 2.24479 0
M  V30 5500 H 123.767 5.73358 0.888409 0
M  V30 5501 H 123.488 5.90877 3.88583 0
M  V30 5502 H 122.496 6.65867 2.58821 0
M  V30 5503 H 124.33 8.16248 3.92006 0
M  V30 5504 H 124.401 4.34551 4.26383 0
M  V30 5505 P 122.459 8.7635 1.60911 0
M  V30 5506 O 122.239 10.1388 1.11561 0
M  V30 5507 O 121.669 8.36503 2.79617 0
M  V30 5508 O 122.209 7.71806 0.42951 0
M  V30 5509 C 123.149 7.67148 -0.673689 0
M  V30 5510 C 122.419 7.33374 -1.95559 0
M  V30 5511 O 122.209 5.88721 -2.00726 0
M  V30 5512 C 121.019 7.92526 -2.10483 0
M  V30 5513 O 120.629 8.02971 -3.47653 0
M  V30 5514 C 120.139 6.89602 -1.41652 0
M  V30 5515 C 120.849 5.59201 -1.75185 0
M  V30 5516 N 120.799 4.58235 -0.662552 0
M  V30 5517 H 123.638 8.65116 -0.777161 0
M  V30 5518 H 123.91 6.90173 -0.474152 0
M  V30 5519 H 123.042 7.66548 -2.79458 0
M  V30 5520 P 119.079 8.03563 -3.84925 0
M  V30 5521 O 118.859 8.85821 -5.0569 0
M  V30 5522 O 118.289 8.41101 -2.65469 0
M  V30 5523 O 118.829 6.4965 -4.18908 0
M  V30 5524 C 119.769 5.81037 -5.05421 0
M  V30 5525 C 119.039 4.78366 -5.89277 0
M  V30 5526 O 118.829 3.58302 -5.08433 0
M  V30 5527 C 117.639 5.17448 -6.36119 0
M  V30 5528 O 117.249 4.45271 -7.53232 0
M  V30 5529 C 116.759 4.74639 -5.19936 0
M  V30 5530 C 117.469 3.49432 -4.70418 0
M  V30 5531 N 117.419 3.31776 -3.22945 0
M  V30 5532 H 120.258 6.54213 -5.71376 0
M  V30 5533 H 120.53 5.30492 -4.44033 0
M  V30 5534 H 119.662 4.55889 -6.76652 0
M  V30 5535 P 115.699 4.23843 -7.83734 0
M  V30 5536 O 115.479 4.19407 -9.29784 0
M  V30 5537 O 114.909 5.24426 -7.09156 0
M  V30 5538 O 115.449 2.7935 -7.20758 0
M  V30 5539 C 116.389 1.7299 -7.50419 0
M  V30 5540 C 115.659 0.406376 -7.57911 0
M  V30 5541 O 115.449 -0.0897726 -6.21935 0
M  V30 5542 C 114.259 0.447224 -8.1878 0
M  V30 5543 O 113.869 -0.825065 -8.71101 0
M  V30 5544 C 113.379 0.783801 -6.99623 0
M  V30 5545 C 114.089 0.0619192 -5.85967 0
M  V30 5546 N 114.039 0.7859 -4.56281 0
M  V30 5547 H 116.878 1.93423 -8.4679 0
M  V30 5548 H 117.15 1.68181 -6.71046 0
M  V30 5549 H 116.282 -0.289041 -8.15388 0
M  V30 5550 P 112.319 -1.17771 -8.83182 0
M  V30 5551 O 112.099 -2.07206 -9.98732 0
M  V30 5552 O 111.529 0.0743816 -8.81969 0
M  V30 5553 O 112.069 -1.97652 -7.47304 0
M  V30 5554 C 113.009 -3.01133 -7.08783 0
M  V30 5555 C 112.279 -4.12613 -6.37049 0
M  V30 5556 O 112.069 -3.72827 -4.97879 0
M  V30 5557 C 110.879 -4.45085 -6.88694 0
M  V30 5558 O 110.489 -5.7877 -6.5624 0
M  V30 5559 C 109.999 -3.47817 -6.12078 0
M  V30 5560 C 110.709 -3.39414 -4.77697 0
M  V30 5561 N 110.659 -2.04199 -4.15538 0
M  V30 5562 H 113.498 -3.41248 -7.98759 0
M  V30 5563 H 113.77 -2.57728 -6.42 0
M  V30 5564 H 112.902 -5.02657 -6.42673 0
M  V30 5565 H 110.247 -4.11708 -4.08956 0
M  V30 5566 H 109.967 -2.49626 -6.61679 0
M  V30 5567 H 108.976 -3.8662 -6.00862 0
M  V30 5568 H 110.81 -4.29991 -7.97006 0
M  V30 5569 P 108.939 -6.144 -6.45285 0
M  V30 5570 O 108.719 -7.54673 -6.86199 0
M  V30 5571 O 108.149 -5.12391 -7.179 0
M  V30 5572 O 108.689 -5.99158 -4.88404 0
M  V30 5573 C 109.629 -6.60234 -3.96415 0
M  V30 5574 C 108.899 -7.08259 -2.72856 0
M  V30 5575 O 108.689 -5.9427 -1.83651 0
M  V30 5576 C 107.499 -7.64886 -2.9555 0
M  V30 5577 O 107.109 -8.53963 -1.90717 0
M  V30 5578 C 106.619 -6.4116 -2.90739 0
M  V30 5579 C 107.329 -5.55375 -1.86963 0
M  V30 5580 N 107.279 -4.09664 -2.15742 0
M  V30 5581 C 107.359 -3.44381 -3.37233 0
M  V30 5582 N 107.279 -2.14131 -3.28347 0
M  V30 5583 C 107.139 -1.90247 -1.91588 0
M  V30 5584 C 107.009 -0.683992 -1.20892 0
M  V30 5585 O 106.989 0.46618 -1.64523 0
M  V30 5586 N 106.889 -0.903396 0.173998 0
M  V30 5587 C 106.889 -2.14171 0.784879 0
M  V30 5588 N 106.759 -2.1435 2.11317 0
M  V30 5589 N 107.019 -3.28784 0.119316 0
M  V30 5590 C 107.139 -3.0977 -1.22194 0
M  V30 5591 H 110.118 -7.45574 -4.45629 0
M  V30 5592 H 110.39 -5.86232 -3.67314 0
M  V30 5593 H 109.522 -7.84412 -2.24479 0
M  V30 5594 H 106.867 -5.73556 -0.888715 0
M  V30 5595 H 106.587 -5.9096 -3.88638 0
M  V30 5596 H 105.596 -6.66053 -2.58894 0
M  V30 5597 H 107.43 -8.16429 -3.92093 0
M  V30 5598 H 107.479 -3.96785 -4.32043 0
M  V30 5599 H 106.797 -0.0999567 0.761467 0
M  V30 5600 H 106.76 -3.03436 2.63076 0
M  V30 5601 H 106.659 -1.25228 2.62233 0
M  V30 5602 P 105.559 -8.7635 -1.60911 0
M  V30 5603 O 105.339 -10.1388 -1.11561 0
M  V30 5604 O 104.769 -8.36503 -2.79617 0
M  V30 5605 O 105.309 -7.71806 -0.42951 0
M  V30 5606 C 106.249 -7.67148 0.673689 0
M  V30 5607 C 105.519 -7.33374 1.95559 0
M  V30 5608 O 105.309 -5.88721 2.00726 0
M  V30 5609 C 104.119 -7.92526 2.10483 0
M  V30 5610 O 103.729 -8.02971 3.47653 0
M  V30 5611 C 103.239 -6.89602 1.41652 0
M  V30 5612 C 103.949 -5.59201 1.75185 0
M  V30 5613 N 103.899 -4.58235 0.662552 0
M  V30 5614 H 106.738 -8.65116 0.777161 0
M  V30 5615 H 107.01 -6.90173 0.474152 0
M  V30 5616 H 106.142 -7.66548 2.79458 0
M  V30 5617 P 102.179 -8.03563 3.84925 0
M  V30 5618 O 101.959 -8.85821 5.0569 0
M  V30 5619 O 101.389 -8.41101 2.65469 0
M  V30 5620 O 101.929 -6.4965 4.18908 0
M  V30 5621 C 102.869 -5.81037 5.05421 0
M  V30 5622 C 102.139 -4.78366 5.89277 0
M  V30 5623 O 101.929 -3.58302 5.08433 0
M  V30 5624 C 100.739 -5.17448 6.36119 0
M  V30 5625 O 100.349 -4.45271 7.53232 0
M  V30 5626 C 99.8594 -4.74639 5.19936 0
M  V30 5627 C 100.569 -3.49432 4.70418 0
M  V30 5628 N 100.519 -3.32099 3.22613 0
M  V30 5629 H 103.358 -6.54213 5.71376 0
M  V30 5630 H 103.63 -5.30936 4.43503 0
M  V30 5631 H 102.762 -4.55889 6.76652 0
M  V30 5632 H 100.107 -2.61715 5.17932 0
M  V30 5633 H 99.8274 -5.52155 4.41878 0
M  V30 5634 H 98.8364 -4.51981 5.53374 0
M  V30 5635 H 100.67 -6.25124 6.55234 0
M  V30 5636 P 98.7994 -4.23843 7.83734 0
M  V30 5637 O 98.5794 -4.19407 9.29784 0
M  V30 5638 O 98.0094 -5.24426 7.09156 0
M  V30 5639 O 98.5494 -2.7935 7.20758 0
M  V30 5640 C 99.4894 -1.7299 7.50419 0
M  V30 5641 C 98.7594 -0.406376 7.57911 0
M  V30 5642 O 98.5494 0.0897726 6.21935 0
M  V30 5643 C 97.3594 -0.447224 8.1878 0
M  V30 5644 O 96.9694 0.825065 8.71101 0
M  V30 5645 C 96.4794 -0.783801 6.99623 0
M  V30 5646 C 97.1894 -0.0619192 5.85967 0
M  V30 5647 N 97.1394 -0.7859 4.56281 0
M  V30 5648 H 99.9784 -1.93423 8.4679 0
M  V30 5649 H 100.25 -1.68181 6.71046 0
M  V30 5650 H 99.3824 0.289041 8.15388 0
M  V30 5651 P 95.4195 1.17771 8.83182 0
M  V30 5652 O 95.1995 2.07206 9.98732 0
M  V30 5653 O 94.6295 -0.0743816 8.81969 0
M  V30 5654 O 95.1695 1.97652 7.47304 0
M  V30 5655 C 96.1095 3.01133 7.08783 0
M  V30 5656 C 95.3795 4.12613 6.37049 0
M  V30 5657 O 95.1695 3.72827 4.97879 0
M  V30 5658 C 93.9795 4.45085 6.88694 0
M  V30 5659 O 93.5895 5.7877 6.5624 0
M  V30 5660 C 93.0995 3.47817 6.12078 0
M  V30 5661 C 93.8095 3.39414 4.77697 0
M  V30 5662 N 93.7595 2.04615 4.15333 0
M  V30 5663 H 96.5985 3.41248 7.98759 0
M  V30 5664 H 96.8705 2.5837 6.41742 0
M  V30 5665 H 96.0025 5.02657 6.42673 0
M  V30 5666 P 92.0395 6.144 6.45285 0
M  V30 5667 O 91.8195 7.54673 6.86199 0
M  V30 5668 O 91.2495 5.12391 7.179 0
M  V30 5669 O 91.7895 5.99158 4.88404 0
M  V30 5670 C 92.7295 6.60234 3.96415 0
M  V30 5671 C 91.9995 7.08259 2.72856 0
M  V30 5672 O 91.7895 5.9427 1.83651 0
M  V30 5673 C 90.5995 7.64886 2.9555 0
M  V30 5674 O 90.2095 8.53963 1.90717 0
M  V30 5675 C 89.7195 6.4116 2.90739 0
M  V30 5676 C 90.4295 5.55375 1.86963 0
M  V30 5677 N 90.3795 4.09664 2.15742 0
M  V30 5678 H 93.2185 7.45574 4.45629 0
M  V30 5679 H 93.4905 5.86232 3.67314 0
M  V30 5680 H 92.6225 7.84412 2.24479 0
M  V30 5681 P 88.6595 8.7635 1.60911 0
M  V30 5682 O 88.4395 10.1388 1.11561 0
M  V30 5683 O 87.8695 8.36503 2.79617 0
M  V30 5684 O 88.4095 7.71806 0.42951 0
M  V30 5685 C 89.3495 7.67148 -0.673689 0
M  V30 5686 C 88.6195 7.33374 -1.95559 0
M  V30 5687 O 88.4095 5.88721 -2.00726 0
M  V30 5688 C 87.2195 7.92526 -2.10483 0
M  V30 5689 O 86.8295 8.02971 -3.47653 0
M  V30 5690 C 86.3395 6.89602 -1.41652 0
M  V30 5691 C 87.0495 5.59201 -1.75185 0
M  V30 5692 N 86.9995 4.58235 -0.662552 0
M  V30 5693 H 89.8385 8.65116 -0.777161 0
M  V30 5694 H 90.1105 6.90173 -0.474152 0
M  V30 5695 H 89.2425 7.66548 -2.79458 0
M  V30 5696 P 85.2795 8.03563 -3.84925 0
M  V30 5697 O 85.0595 8.85821 -5.0569 0
M  V30 5698 O 84.4895 8.41101 -2.65469 0
M  V30 5699 O 85.0295 6.49734 -4.18962 0
M  V30 5700 C 85.9695 5.81037 -5.05421 0
M  V30 5701 C 85.2395 4.79018 -5.88876 0
M  V30 5702 O 85.0295 3.58359 -5.08515 0
M  V30 5703 C 83.8395 5.17448 -6.36119 0
M  V30 5704 O 83.4495 4.45322 -7.53318 0
M  V30 5705 C 82.9595 4.74639 -5.19936 0
M  V30 5706 C 83.6695 3.49432 -4.70418 0
M  V30 5707 N 83.6195 3.31776 -3.22945 0
M  V30 5708 C 83.4695 2.02742 -2.72939 0
M  V30 5709 O 83.3795 1.08301 -3.52749 0
M  V30 5710 N 83.4195 1.96117 -1.22063 0
M  V30 5711 C 83.5195 2.8878 -0.551566 0
M  V30 5712 N 83.4695 2.65609 0.750198 0
M  V30 5713 C 83.6695 4.22457 -1.03707 0
M  V30 5714 C 83.7195 4.37979 -2.39113 0
M  V30 5715 H 86.4595 6.54138 -5.7131 0
M  V30 5716 H 86.7295 5.30492 -4.44033 0
M  V30 5717 H 85.8625 4.55945 -6.76735 0
M  V30 5718 H 83.2075 2.6176 -5.18021 0
M  V30 5719 H 82.9275 5.52233 -4.41941 0
M  V30 5720 H 81.9365 4.52045 -5.53452 0
M  V30 5721 H 83.7705 6.25124 -6.55234 0
M  V30 5722 H 83.8425 5.37936 -2.80552 0
M  V30 5723 H 83.7405 5.07528 -0.359553 0
M  V30 5724 H 83.3525 1.69403 1.09847 0
M  V30 5725 H 83.5485 3.43701 1.41792 0
M  V30 5726 P 81.8995 4.23843 -7.83734 0
M  V30 5727 O 81.6795 4.19407 -9.29784 0
M  V30 5728 O 81.1095 5.24426 -7.09156 0
M  V30 5729 O 81.6495 2.7935 -7.20758 0
M  V30 5730 C 82.5895 1.7299 -7.50419 0
M  V30 5731 C 81.8595 0.406376 -7.57911 0
M  V30 5732 O 81.6495 -0.0897726 -6.21935 0
M  V30 5733 C 80.4595 0.447224 -8.1878 0
M  V30 5734 O 80.0695 -0.825065 -8.71101 0
M  V30 5735 C 79.5795 0.783801 -6.99623 0
M  V30 5736 C 80.2895 0.0619192 -5.85967 0
M  V30 5737 N 80.2395 0.7859 -4.56281 0
M  V30 5738 H 83.0785 1.93423 -8.4679 0
M  V30 5739 H 83.3505 1.68181 -6.71046 0
M  V30 5740 H 82.4825 -0.289041 -8.15388 0
M  V30 5741 P 78.5196 -1.17771 -8.83182 0
M  V30 5742 O 78.2996 -2.07206 -9.98732 0
M  V30 5743 O 77.7296 0.0743816 -8.81969 0
M  V30 5744 O 78.2696 -1.97652 -7.47304 0
M  V30 5745 C 79.2096 -3.01133 -7.08783 0
M  V30 5746 C 78.4796 -4.12613 -6.37049 0
M  V30 5747 O 78.2696 -3.72827 -4.97879 0
M  V30 5748 C 77.0796 -4.45085 -6.88694 0
M  V30 5749 O 76.6896 -5.7877 -6.5624 0
M  V30 5750 C 76.1996 -3.47817 -6.12078 0
M  V30 5751 C 76.9096 -3.39414 -4.77697 0
M  V30 5752 N 76.8596 -2.04199 -4.15538 0
M  V30 5753 H 79.6986 -3.41248 -7.98759 0
M  V30 5754 H 79.9706 -2.57728 -6.42 0
M  V30 5755 H 79.1026 -5.02657 -6.42673 0
M  V30 5756 H 76.4476 -4.11708 -4.08956 0
M  V30 5757 H 76.1676 -2.49626 -6.61679 0
M  V30 5758 H 75.1766 -3.8662 -6.00862 0
M  V30 5759 H 77.0106 -4.29991 -7.97006 0
M  V30 5760 P 75.1396 -6.144 -6.45285 0
M  V30 5761 O 74.9196 -7.54673 -6.86199 0
M  V30 5762 O 74.3496 -5.12391 -7.179 0
M  V30 5763 O 74.8896 -5.99158 -4.88404 0
M  V30 5764 C 75.8296 -6.60234 -3.96415 0
M  V30 5765 C 75.0996 -7.08259 -2.72856 0
M  V30 5766 O 74.8896 -5.9427 -1.83651 0
M  V30 5767 C 73.6996 -7.64886 -2.9555 0
M  V30 5768 O 73.3096 -8.53963 -1.90717 0
M  V30 5769 C 72.8196 -6.4116 -2.90739 0
M  V30 5770 C 73.5296 -5.55375 -1.86963 0
M  V30 5771 N 73.4796 -4.09664 -2.15742 0
M  V30 5772 H 76.3186 -7.45574 -4.45629 0
M  V30 5773 H 76.5906 -5.86232 -3.67314 0
M  V30 5774 H 75.7226 -7.84412 -2.24479 0
M  V30 5775 P 71.7596 -8.7635 -1.60911 0
M  V30 5776 O 71.5396 -10.1388 -1.11561 0
M  V30 5777 O 70.9696 -8.36503 -2.79617 0
M  V30 5778 O 71.5096 -7.71806 -0.42951 0
M  V30 5779 C 72.4496 -7.66948 0.673514 0
M  V30 5780 C 71.7196 -7.33374 1.95559 0
M  V30 5781 O 71.5096 -5.88721 2.00726 0
M  V30 5782 C 70.3196 -7.92218 2.1125 0
M  V30 5783 O 69.9296 -8.02971 3.47653 0
M  V30 5784 C 69.4396 -6.89504 1.41631 0
M  V30 5785 C 70.1496 -5.59106 1.75155 0
M  V30 5786 N 70.0996 -4.58136 0.662409 0
M  V30 5787 C 69.9496 -3.26059 1.02863 0
M  V30 5788 O 69.8596 -2.90743 2.19009 0
M  V30 5789 N 69.9096 -2.35995 -0.0155585 0
M  V30 5790 C 69.9996 -2.65248 -1.35603 0
M  V30 5791 C 70.1496 -4.05747 -1.64698 0
M  V30 5792 C 70.1996 -4.96734 -0.652411 0
M  V30 5793 H 72.9406 -8.64917 0.776982 0
M  V30 5794 H 73.2096 -6.89974 0.474015 0
M  V30 5795 H 72.3426 -7.66548 2.79458 0
M  V30 5796 H 69.6876 -5.16076 2.65138 0
M  V30 5797 H 69.4086 -7.06433 0.329384 0
M  V30 5798 H 68.4166 -6.90829 1.81996 0
M  V30 5799 H 70.2506 -8.90774 1.62639 0
M  V30 5800 H 70.3216 -6.02181 -0.895285 0
M  V30 5801 P 68.3796 -8.03563 3.84925 0
M  V30 5802 O 68.1596 -8.85821 5.0569 0
M  V30 5803 O 67.5896 -8.41101 2.65469 0
M  V30 5804 O 68.1296 -6.4965 4.18908 0
M  V30 5805 C 69.0696 -5.81037 5.05421 0
M  V30 5806 C 68.3396 -4.78366 5.89277 0
M  V30 5807 O 68.1296 -3.58302 5.08433 0
M  V30 5808 C 66.9396 -5.17448 6.36119 0
M  V30 5809 O 66.5496 -4.45271 7.53232 0
M  V30 5810 C 66.0596 -4.74639 5.19936 0
M  V30 5811 C 66.7696 -3.49432 4.70418 0
M  V30 5812 N 66.7196 -3.31776 3.22945 0
M  V30 5813 C 66.7996 -4.27147 2.23315 0
M  V30 5814 N 66.7196 -3.78447 1.02186 0
M  V30 5815 C 66.5796 -2.41001 1.21732 0
M  V30 5816 C 66.4496 -1.36111 0.27694 0
M  V30 5817 N 66.3296 -0.113683 0.912949 0
M  V30 5818 C 66.3296 0.0846396 2.27943 0
M  V30 5819 N 66.1996 1.34737 2.6916 0
M  V30 5820 N 66.4596 -0.902521 3.16379 0
M  V30 5821 C 66.5796 -2.11937 2.56849 0
M  V30 5822 H 69.5586 -6.54213 5.71376 0
M  V30 5823 H 69.8306 -5.30492 4.44033 0
M  V30 5824 H 68.9626 -4.55889 6.76652 0
M  V30 5825 P 64.9996 -4.23843 7.83734 0
M  V30 5826 O 64.7796 -4.19407 9.29784 0
M  V30 5827 O 64.2096 -5.24426 7.09156 0
M  V30 5828 O 64.7496 -2.7935 7.20758 0
M  V30 5829 C 65.6896 -1.7299 7.50419 0
M  V30 5830 C 64.9596 -0.406376 7.57911 0
M  V30 5831 O 64.7496 0.0897726 6.21935 0
M  V30 5832 C 63.5596 -0.447224 8.1878 0
M  V30 5833 O 63.1696 0.825065 8.71101 0
M  V30 5834 C 62.6796 -0.783801 6.99623 0
M  V30 5835 C 63.3896 -0.0619192 5.85967 0
M  V30 5836 N 63.3396 -0.7859 4.56281 0
M  V30 5837 H 66.1786 -1.93423 8.4679 0
M  V30 5838 H 66.4506 -1.68181 6.71046 0
M  V30 5839 H 65.5826 0.289041 8.15388 0
M  V30 5840 P 61.6197 1.17771 8.83182 0
M  V30 5841 O 61.3997 2.07206 9.98732 0
M  V30 5842 O 60.8297 -0.0743816 8.81969 0
M  V30 5843 O 61.3697 1.97652 7.47304 0
M  V30 5844 C 62.3097 3.01133 7.08783 0
M  V30 5845 C 61.5797 4.12613 6.37049 0
M  V30 5846 O 61.3697 3.72827 4.97879 0
M  V30 5847 C 60.1797 4.45085 6.88694 0
M  V30 5848 O 59.7897 5.7877 6.5624 0
M  V30 5849 C 59.2997 3.47817 6.12078 0
M  V30 5850 C 60.0097 3.39414 4.77697 0
M  V30 5851 N 59.9597 2.04615 4.15333 0
M  V30 5852 H 62.7987 3.41248 7.98759 0
M  V30 5853 H 63.0707 2.5837 6.41742 0
M  V30 5854 H 62.2027 5.02657 6.42673 0
M  V30 5855 P 58.2397 6.144 6.45285 0
M  V30 5856 O 58.0197 7.54673 6.86199 0
M  V30 5857 O 57.4497 5.12391 7.179 0
M  V30 5858 O 57.9897 5.99158 4.88404 0
M  V30 5859 C 58.9297 6.60234 3.96415 0
M  V30 5860 C 58.1997 7.08259 2.72856 0
M  V30 5861 O 57.9897 5.9427 1.83651 0
M  V30 5862 C 56.7997 7.64886 2.9555 0
M  V30 5863 O 56.4097 8.53963 1.90717 0
M  V30 5864 C 55.9197 6.4116 2.90739 0
M  V30 5865 C 56.6297 5.55375 1.86963 0
M  V30 5866 N 56.5797 4.09664 2.15742 0
M  V30 5867 H 59.4187 7.45574 4.45629 0
M  V30 5868 H 59.6907 5.86232 3.67314 0
M  V30 5869 H 58.8227 7.84412 2.24479 0
M  V30 5870 P 54.8597 8.7635 1.60911 0
M  V30 5871 O 54.6397 10.1388 1.11561 0
M  V30 5872 O 54.0697 8.36503 2.79617 0
M  V30 5873 O 54.6097 7.71806 0.42951 0
M  V30 5874 C 55.5497 7.66948 -0.673514 0
M  V30 5875 C 54.8197 7.33374 -1.95559 0
M  V30 5876 O 54.6097 5.88721 -2.00726 0
M  V30 5877 C 53.4197 7.92218 -2.1125 0
M  V30 5878 O 53.0297 8.02971 -3.47653 0
M  V30 5879 C 52.5397 6.89504 -1.41631 0
M  V30 5880 C 53.2497 5.59106 -1.75155 0
M  V30 5881 N 53.1997 4.58136 -0.662409 0
M  V30 5882 C 53.0497 3.26059 -1.02863 0
M  V30 5883 O 52.9597 2.90743 -2.19009 0
M  V30 5884 N 53.0097 2.35995 0.0155585 0
M  V30 5885 C 53.0997 2.65248 1.35603 0
M  V30 5886 O 53.0497 1.75605 2.20651 0
M  V30 5887 C 53.2497 4.05747 1.64698 0
M  V30 5888 C 53.3597 4.42345 3.09553 0
M  V30 5889 C 53.2997 4.96734 0.652411 0
M  V30 5890 H 56.0407 8.64917 -0.776982 0
M  V30 5891 H 56.3097 6.89974 -0.474015 0
M  V30 5892 H 55.4427 7.66548 -2.79458 0
M  V30 5893 H 52.7877 5.16076 -2.65138 0
M  V30 5894 H 52.5087 7.06433 -0.329384 0
M  V30 5895 H 51.5167 6.90829 -1.81996 0
M  V30 5896 H 53.3507 8.90774 -1.62639 0
M  V30 5897 H 53.4217 6.02181 0.895285 0
M  V30 5898 H 52.3917 4.80252 3.45468 0
M  V30 5899 H 54.1287 5.20015 3.22119 0
M  V30 5900 H 53.6407 3.53269 3.67833 0
M  V30 5901 H 52.9047 1.39558 -0.227499 0
M  V30 5902 P 51.4797 8.03563 -3.84925 0
M  V30 5903 O 51.2597 8.85821 -5.0569 0
M  V30 5904 O 50.6897 8.41101 -2.65469 0
M  V30 5905 O 51.2297 6.4965 -4.18908 0
M  V30 5906 C 52.1697 5.81037 -5.05421 0
M  V30 5907 C 51.4397 4.78366 -5.89277 0
M  V30 5908 O 51.2297 3.58302 -5.08433 0
M  V30 5909 C 50.0397 5.17448 -6.36119 0
M  V30 5910 O 49.6497 4.45271 -7.53232 0
M  V30 5911 C 49.1597 4.74639 -5.19936 0
M  V30 5912 C 49.8697 3.49432 -4.70418 0
M  V30 5913 N 49.8197 3.32099 -3.22613 0
M  V30 5914 H 52.6587 6.54213 -5.71376 0
M  V30 5915 H 52.9307 5.30936 -4.43503 0
M  V30 5916 H 52.0627 4.55889 -6.76652 0
M  V30 5917 H 49.4077 2.61715 -5.17932 0
M  V30 5918 H 49.1277 5.52155 -4.41878 0
M  V30 5919 H 48.1367 4.51981 -5.53374 0
M  V30 5920 H 49.9707 6.25124 -6.55234 0
M  V30 5921 P 48.0997 4.23843 -7.83734 0
M  V30 5922 O 47.8797 4.19407 -9.29784 0
M  V30 5923 O 47.3097 5.24426 -7.09156 0
M  V30 5924 O 47.8497 2.7935 -7.20758 0
M  V30 5925 C 48.7897 1.7299 -7.50419 0
M  V30 5926 C 48.0597 0.406376 -7.57911 0
M  V30 5927 O 47.8497 -0.0897726 -6.21935 0
M  V30 5928 C 46.6597 0.447224 -8.1878 0
M  V30 5929 O 46.2697 -0.825065 -8.71101 0
M  V30 5930 C 45.7797 0.783801 -6.99623 0
M  V30 5931 C 46.4897 0.0619192 -5.85967 0
M  V30 5932 N 46.4397 0.7859 -4.56281 0
M  V30 5933 H 49.2787 1.93423 -8.4679 0
M  V30 5934 H 49.5507 1.68181 -6.71046 0
M  V30 5935 H 48.6827 -0.289041 -8.15388 0
M  V30 5936 P 44.7198 -1.17771 -8.83182 0
M  V30 5937 O 44.4998 -2.07206 -9.98732 0
M  V30 5938 O 43.9298 0.0743816 -8.81969 0
M  V30 5939 O 44.4698 -1.97652 -7.47304 0
M  V30 5940 C 45.4098 -3.01133 -7.08783 0
M  V30 5941 C 44.6798 -4.12613 -6.37049 0
M  V30 5942 O 44.4698 -3.72827 -4.97879 0
M  V30 5943 C 43.2798 -4.45085 -6.88694 0
M  V30 5944 O 42.8898 -5.7877 -6.5624 0
M  V30 5945 C 42.3998 -3.47817 -6.12078 0
M  V30 5946 C 43.1098 -3.39414 -4.77697 0
M  V30 5947 N 43.0598 -2.04615 -4.15333 0
M  V30 5948 H 45.8988 -3.41248 -7.98759 0
M  V30 5949 H 46.1708 -2.5837 -6.41742 0
M  V30 5950 H 45.3028 -5.02657 -6.42673 0
M  V30 5951 P 41.3398 -6.144 -6.45285 0
M  V30 5952 O 41.1198 -7.54673 -6.86199 0
M  V30 5953 O 40.5498 -5.12391 -7.179 0
M  V30 5954 O 41.0898 -5.99158 -4.88404 0
M  V30 5955 C 42.0298 -6.60234 -3.96415 0
M  V30 5956 C 41.2998 -7.08259 -2.72856 0
M  V30 5957 O 41.0898 -5.9427 -1.83651 0
M  V30 5958 C 39.8998 -7.64886 -2.9555 0
M  V30 5959 O 39.5098 -8.53963 -1.90717 0
M  V30 5960 C 39.0198 -6.4116 -2.90739 0
M  V30 5961 C 39.7298 -5.55375 -1.86963 0
M  V30 5962 N 39.6798 -4.09664 -2.15742 0
M  V30 5963 H 42.5188 -7.45574 -4.45629 0
M  V30 5964 H 42.7908 -5.86232 -3.67314 0
M  V30 5965 H 41.9228 -7.84412 -2.24479 0
M  V30 5966 P 37.9598 -8.7635 -1.60911 0
M  V30 5967 O 37.7398 -10.1388 -1.11561 0
M  V30 5968 O 37.1698 -8.36503 -2.79617 0
M  V30 5969 O 37.7098 -7.71806 -0.42951 0
M  V30 5970 C 38.6498 -7.67148 0.673689 0
M  V30 5971 C 37.9198 -7.33374 1.95559 0
M  V30 5972 O 37.7098 -5.88721 2.00726 0
M  V30 5973 C 36.5198 -7.92526 2.10483 0
M  V30 5974 O 36.1298 -8.02971 3.47653 0
M  V30 5975 C 35.6398 -6.89602 1.41652 0
M  V30 5976 C 36.3498 -5.59201 1.75185 0
M  V30 5977 N 36.2998 -4.58235 0.662552 0
M  V30 5978 H 39.1388 -8.65116 0.777161 0
M  V30 5979 H 39.4108 -6.90173 0.474152 0
M  V30 5980 H 38.5428 -7.66548 2.79458 0
M  V30 5981 P 34.5798 -8.03563 3.84925 0
M  V30 5982 O 34.3598 -8.85821 5.0569 0
M  V30 5983 O 33.7898 -8.41101 2.65469 0
M  V30 5984 O 34.3298 -6.4965 4.18908 0
M  V30 5985 C 35.2698 -5.81037 5.05421 0
M  V30 5986 C 34.5398 -4.78366 5.89277 0
M  V30 5987 O 34.3298 -3.58302 5.08433 0
M  V30 5988 C 33.1398 -5.17448 6.36119 0
M  V30 5989 O 32.7498 -4.45271 7.53232 0
M  V30 5990 C 32.2598 -4.74639 5.19936 0
M  V30 5991 C 32.9698 -3.49432 4.70418 0
M  V30 5992 N 32.9198 -3.31776 3.22945 0
M  V30 5993 H 35.7588 -6.54213 5.71376 0
M  V30 5994 H 36.0308 -5.30492 4.44033 0
M  V30 5995 H 35.1628 -4.55889 6.76652 0
M  V30 5996 P 31.1998 -4.23843 7.83734 0
M  V30 5997 O 30.9798 -4.19407 9.29784 0
M  V30 5998 O 30.4098 -5.24426 7.09156 0
M  V30 5999 O 30.9498 -2.7935 7.20758 0
M  V30 6000 C 31.8898 -1.7299 7.50419 0
M  V30 6001 C 31.1598 -0.406376 7.57911 0
M  V30 6002 O 30.9498 0.0897726 6.21935 0
M  V30 6003 C 29.7598 -0.447224 8.1878 0
M  V30 6004 O 29.3698 0.825065 8.71101 0
M  V30 6005 C 28.8798 -0.783801 6.99623 0
M  V30 6006 C 29.5898 -0.0619192 5.85967 0
M  V30 6007 N 29.5398 -0.7859 4.56281 0
M  V30 6008 H 32.3788 -1.93423 8.4679 0
M  V30 6009 H 32.6508 -1.68181 6.71046 0
M  V30 6010 H 31.7828 0.289041 8.15388 0
M  V30 6011 P 27.8199 1.17771 8.83182 0
M  V30 6012 O 27.5999 2.07206 9.98732 0
M  V30 6013 O 27.0299 -0.0743816 8.81969 0
M  V30 6014 O 27.5699 1.97652 7.47304 0
M  V30 6015 C 28.5099 3.01133 7.08783 0
M  V30 6016 C 27.7799 4.12613 6.37049 0
M  V30 6017 O 27.5699 3.72827 4.97879 0
M  V30 6018 C 26.3799 4.45085 6.88694 0
M  V30 6019 O 25.9899 5.7877 6.5624 0
M  V30 6020 C 25.4999 3.47817 6.12078 0
M  V30 6021 C 26.2099 3.39414 4.77697 0
M  V30 6022 N 26.1599 2.04615 4.15333 0
M  V30 6023 H 28.9989 3.41248 7.98759 0
M  V30 6024 H 29.2709 2.5837 6.41742 0
M  V30 6025 H 28.4029 5.02657 6.42673 0
M  V30 6026 P 24.4399 6.144 6.45285 0
M  V30 6027 O 24.2199 7.54673 6.86199 0
M  V30 6028 O 23.6499 5.12391 7.179 0
M  V30 6029 O 24.1899 5.99158 4.88404 0
M  V30 6030 C 25.1299 6.60234 3.96415 0
M  V30 6031 C 24.3999 7.08259 2.72856 0
M  V30 6032 O 24.1899 5.9427 1.83651 0
M  V30 6033 C 22.9999 7.64886 2.9555 0
M  V30 6034 O 22.6099 8.53963 1.90717 0
M  V30 6035 C 22.1199 6.4116 2.90739 0
M  V30 6036 C 22.8299 5.55375 1.86963 0
M  V30 6037 N 22.7799 4.09448 2.16152 0
M  V30 6038 H 25.6189 7.45574 4.45629 0
M  V30 6039 H 25.8909 5.85864 3.679 0
M  V30 6040 H 25.0229 7.84412 2.24479 0
M  V30 6041 H 22.3679 5.73457 0.888562 0
M  V30 6042 H 22.0879 5.90877 3.88583 0
M  V30 6043 H 21.0969 6.6596 2.58858 0
M  V30 6044 H 22.9309 8.16339 3.92049 0
M  V30 6045 P 21.0599 8.7635 1.60911 0
M  V30 6046 O 20.8399 10.1388 1.11561 0
M  V30 6047 O 20.2699 8.36503 2.79617 0
M  V30 6048 O 20.8099 7.71806 0.42951 0
M  V30 6049 C 21.7499 7.67148 -0.673689 0
M  V30 6050 C 21.0199 7.33374 -1.95559 0
M  V30 6051 O 20.8099 5.88721 -2.00726 0
M  V30 6052 C 19.6199 7.92526 -2.10483 0
M  V30 6053 O 19.2299 8.02971 -3.47653 0
M  V30 6054 C 18.7399 6.89602 -1.41652 0
M  V30 6055 C 19.4499 5.59201 -1.75185 0
M  V30 6056 N 19.3999 4.58301 -0.657969 0
M  V30 6057 H 22.2389 8.65116 -0.777161 0
M  V30 6058 H 22.5109 6.9022 -0.46725 0
M  V30 6059 H 21.6429 7.66548 -2.79458 0
M  V30 6060 H 18.9879 5.16165 -2.65183 0
M  V30 6061 H 18.7079 7.06433 -0.329384 0
M  V30 6062 H 17.7169 6.90926 -1.82021 0
M  V30 6063 H 19.5509 8.90873 -1.62657 0
M  V30 6064 P 17.6799 8.03563 -3.84925 0
M  V30 6065 O 17.4599 8.85821 -5.0569 0
M  V30 6066 O 16.8899 8.41101 -2.65469 0
M  V30 6067 O 17.4299 6.4965 -4.18908 0
M  V30 6068 C 18.3699 5.80886 -5.05289 0
M  V30 6069 C 17.6399 4.78366 -5.89277 0
M  V30 6070 O 17.4299 3.58302 -5.08433 0
M  V30 6071 C 16.2399 5.16748 -6.36559 0
M  V30 6072 O 15.8499 4.45271 -7.53232 0
M  V30 6073 C 15.3599 4.74572 -5.19863 0
M  V30 6074 C 16.0699 3.49373 -4.70338 0
M  V30 6075 N 16.0199 3.31704 -3.22876 0
M  V30 6076 C 15.8699 2.03326 -2.74871 0
M  V30 6077 O 15.7799 1.06486 -3.48076 0
M  V30 6078 N 15.8299 1.91838 -1.37456 0
M  V30 6079 C 15.9199 2.94295 -0.462035 0
M  V30 6080 O 15.8699 2.71763 0.752928 0
M  V30 6081 C 16.0699 4.25064 -1.05249 0
M  V30 6082 C 16.1799 5.39815 -0.095697 0
M  V30 6083 C 16.1199 4.40214 -2.39192 0
M  V30 6084 H 18.8609 6.54063 -5.71245 0
M  V30 6085 H 19.1299 5.30339 -4.43905 0
M  V30 6086 H 18.2629 4.55889 -6.76652 0
M  V30 6087 H 15.6079 2.6167 -5.17842 0
M  V30 6088 H 15.3289 5.52155 -4.41878 0
M  V30 6089 H 14.3369 4.51918 -5.53297 0
M  V30 6090 H 16.1709 6.25055 -6.55162 0
M  V30 6091 H 16.2419 5.39798 -2.81523 0
M  V30 6092 H 15.2119 5.91593 -0.0279582 0
M  V30 6093 H 16.9489 6.10038 -0.450573 0
M  V30 6094 H 16.4609 5.02007 0.89937 0
M  V30 6095 H 15.7249 0.995326 -1.00435 0
M  V30 6096 P 14.2999 4.23843 -7.83734 0
M  V30 6097 O 14.0799 4.19407 -9.29784 0
M  V30 6098 O 13.5099 5.24426 -7.09156 0
M  V30 6099 O 14.0499 2.7935 -7.20758 0
M  V30 6100 C 14.9899 1.7299 -7.50419 0
M  V30 6101 C 14.2599 0.406376 -7.57911 0
M  V30 6102 O 14.0499 -0.0897726 -6.21935 0
M  V30 6103 C 12.8599 0.447224 -8.1878 0
M  V30 6104 O 12.4699 -0.825065 -8.71101 0
M  V30 6105 C 11.9799 0.783801 -6.99623 0
M  V30 6106 C 12.6899 0.0619192 -5.85967 0
M  V30 6107 N 12.6399 0.790462 -4.56202 0
M  V30 6108 H 15.4789 1.93423 -8.4679 0
M  V30 6109 H 15.7509 1.68852 -6.70877 0
M  V30 6110 H 14.8829 -0.289041 -8.15388 0
M  V30 6111 H 12.2279 -0.927006 -5.72848 0
M  V30 6112 H 11.9479 1.86973 -6.82036 0
M  V30 6113 H 10.9569 0.403953 -7.13357 0
M  V30 6114 H 12.7909 1.20599 -8.97534 0
M  V30 6115 P 10.92 -1.17771 -8.83182 0
M  V30 6116 O 10.7 -2.07206 -9.98732 0
M  V30 6117 O 10.13 0.0743816 -8.81969 0
M  V30 6118 O 10.67 -1.97652 -7.47304 0
M  V30 6119 C 11.61 -3.01133 -7.08783 0
M  V30 6120 C 10.88 -4.12613 -6.37049 0
M  V30 6121 O 10.67 -3.72827 -4.97879 0
M  V30 6122 C 9.47996 -4.45085 -6.88694 0
M  V30 6123 O 9.08996 -5.7877 -6.5624 0
M  V30 6124 C 8.59996 -3.47817 -6.12078 0
M  V30 6125 C 9.30996 -3.39414 -4.77697 0
M  V30 6126 N 9.25996 -2.04199 -4.15538 0
M  V30 6127 H 12.099 -3.41248 -7.98759 0
M  V30 6128 H 12.371 -2.57728 -6.42 0
M  V30 6129 H 11.503 -5.02657 -6.42673 0
M  V30 6130 H 8.84796 -4.11708 -4.08956 0
M  V30 6131 H 8.56796 -2.49626 -6.61679 0
M  V30 6132 H 7.57696 -3.8662 -6.00862 0
M  V30 6133 H 9.41096 -4.29991 -7.97006 0
M  V30 6134 P 7.53998 -6.144 -6.45285 0
M  V30 6135 O 7.31998 -7.54673 -6.86199 0
M  V30 6136 O 6.74998 -5.12391 -7.179 0
M  V30 6137 O 7.28998 -5.99236 -4.88467 0
M  V30 6138 C 8.22998 -6.60234 -3.96415 0
M  V30 6139 C 7.49998 -7.08079 -2.736 0
M  V30 6140 O 7.28998 -5.94365 -1.8368 0
M  V30 6141 C 6.09998 -7.64886 -2.9555 0
M  V30 6142 O 5.70998 -8.5406 -1.90739 0
M  V30 6143 C 5.21998 -6.4116 -2.90739 0
M  V30 6144 C 5.92998 -5.55375 -1.86963 0
M  V30 6145 N 5.87998 -4.09664 -2.15742 0
M  V30 6146 C 5.72998 -3.22231 -1.08477 0
M  V30 6147 O 5.63998 -3.68951 0.0600489 0
M  V30 6148 N 5.67998 -1.76692 -1.48799 0
M  V30 6149 C 5.77998 -1.41695 -2.57602 0
M  V30 6150 N 5.72998 -0.107296 -2.75791 0
M  V30 6151 C 5.92998 -2.29178 -3.69733 0
M  V30 6152 C 5.97998 -3.62753 -3.42653 0
M  V30 6153 H 8.71998 -7.45488 -4.45578 0
M  V30 6154 H 8.98998 -5.86232 -3.67314 0
M  V30 6155 H 8.12298 -7.84508 -2.24507 0
M  V30 6156 H 5.46798 -5.73556 -0.888715 0
M  V30 6157 H 5.18798 -5.9096 -3.88638 0
M  V30 6158 H 4.19698 -6.66053 -2.58894 0
M  V30 6159 H 6.03098 -8.16339 -3.92049 0
M  V30 6160 H 6.10298 -4.33052 -4.24913 0
M  V30 6161 H 6.00098 -1.9103 -4.71577 0
M  V30 6162 H 5.61298 0.521221 -1.95056 0
M  V30 6163 H 5.80898 0.286429 -3.70695 0
M  V30 6164 P 4.16 -8.7635 -1.60911 0
M  V30 6165 O 3.94 -10.1388 -1.11561 0
M  V30 6166 O 3.37 -8.36503 -2.79617 0
M  V30 6167 O 3.91 -7.71806 -0.42951 0
M  V30 6168 C 4.85 -7.67148 0.673689 0
M  V30 6169 C 4.12 -7.33374 1.95559 0
M  V30 6170 O 3.91 -5.88721 2.00726 0
M  V30 6171 C 2.72 -7.92526 2.10483 0
M  V30 6172 O 2.33 -8.02971 3.47653 0
M  V30 6173 C 1.84 -6.89602 1.41652 0
M  V30 6174 C 2.55 -5.59201 1.75185 0
M  V30 6175 N 2.5 -4.58235 0.662552 0
M  V30 6176 H 5.339 -8.65116 0.777161 0
M  V30 6177 H 5.611 -6.90173 0.474152 0
M  V30 6178 H 4.743 -7.66548 2.79458 0
M  V30 6179 H 1.613 -8.66322 3.55694 0
M  V30 END ATOM
M  V30 BEGIN BOND
M  V30 END BOND
M  V30 END CTAB
M  END
$$$$
