drugbank_target|Q9H4M7 Pleckstrin homology domain-containing family A member 4 (DB01863)
 OpenBabel12092119513D

  0  0  0     0  0            999 V3000
M  V30 BEGIN CTAB
M  V30 COUNTS 11984 12158 0 0 0
M  V30 BEGIN ATOM
M  V30 1 H -0.908 1.98254 -0.117106 0
M  V30 2 N 0 1.576 0 0
M  V30 3 C 0.933 2.03868 1.02534 0
M  V30 4 C 1.911 0.928543 1.3348 0
M  V30 5 O 3.095 1.19667 1.45644 0
M  V30 6 C 0.222 2.43627 2.35294 0
M  V30 7 C -0.732 3.65373 2.2001 0
M  V30 8 S 0.101 5.13292 1.52614 0
M  V30 9 C 1.257 5.56322 2.86805 0
M  V30 10 H 1.49 2.90518 0.631377 0
M  V30 11 H -0.977 1.52953 0.210867 0
M  V30 12 H 0.981 2.67203 3.11629 0
M  V30 13 H -0.358 1.57376 2.7183 0
M  V30 14 H -1.165 3.90944 3.18086 0
M  V30 15 H -1.563 3.418 1.51819 0
M  V30 16 H 0.729 5.58782 3.83104 0
M  V30 17 H 1.672 6.56266 2.65933 0
M  V30 18 H 2.08 4.83886 2.90714 0
M  V30 19 N 1.4781 -0.272755 1.55222 0
M  V30 20 C 2.3881 -1.35918 1.91216 0
M  V30 21 C 3.4041 -1.54026 0.809436 0
M  V30 22 O 4.5801 -1.68148 1.10852 0
M  V30 23 C 1.6451 -2.69834 2.17693 0
M  V30 24 C 0.7061 -2.6047 3.41253 0
M  V30 25 C -0.0609 -3.88 3.66458 0
M  V30 26 O 0.1621 -4.88693 2.94169 0
M  V30 27 O -0.9039 -3.88189 4.59992 0
M  V30 28 H 2.9221 -1.0839 2.83699 0
M  V30 29 H 0.5071 -0.471301 1.41771 0
M  V30 30 H 2.3891 -3.49017 2.36147 0
M  V30 31 H 1.0641 -2.97148 1.28392 0
M  V30 32 H -0.0289 -1.79663 3.28134 0
M  V30 33 H 1.3041 -2.38106 4.30774 0
M  V30 34 N 2.9562 -1.48159 -0.537278 0
M  V30 35 C 4.2042 -1.55497 -1.29094 0
M  V30 36 C 4.5252 -0.227454 -1.93669 0
M  V30 37 O 3.7952 0.750386 -1.80959 0
M  V30 38 H 2.3752 -0.572832 -0.47945 0
M  V30 39 H 5.0372 -1.84579 -0.625818 0
M  V30 40 H 4.1332 -2.33216 -2.07405 0
M  V30 41 N 4.4343 0.785586 -1.36625 0
M  V30 42 C 5.6593 1.57963 -1.34397 0
M  V30 43 C 6.0843 1.87964 0.071526 0
M  V30 44 O 5.4423 1.48182 1.0446 0
M  V30 45 C 5.4903 2.87511 -2.17646 0
M  V30 46 O 4.5943 3.81281 -1.57158 0
M  V30 47 H 3.9353 0.479014 -0.459828 0
M  V30 48 H 6.4653 0.973411 -1.79961 0
M  V30 49 H 6.4753 3.36745 -2.30362 0
M  V30 50 H 5.1503 2.65002 -3.20541 0
M  V30 51 H 3.7273 3.39885 -1.53403 0
M  V30 52 N 5.9124 1.20967 1.01018 0
M  V30 53 C 7.3284 0.965905 1.27053 0
M  V30 54 C 7.5284 -0.350785 1.98423 0
M  V30 55 O 6.5844 -1.07773 2.28344 0
M  V30 56 C 7.8974 2.15294 2.09926 0
M  V30 57 C 9.4454 2.19463 2.23171 0
M  V30 58 C 9.9204 3.3767 3.09424 0
M  V30 59 N 11.4114 3.37724 3.17012 0
M  V30 60 C 12.1464 4.25837 3.83993 0
M  V30 61 N 11.6424 5.24138 4.53047 0
M  V30 62 N 13.4354 4.1366 3.80581 0
M  V30 63 H 5.5864 2.0565 0.531194 0
M  V30 64 H 7.8494 0.90024 0.297106 0
M  V30 65 H 7.5554 3.10684 1.64828 0
M  V30 66 H 7.4294 2.13923 3.10672 0
M  V30 67 H 9.8164 1.24632 2.6749 0
M  V30 68 H 9.8974 2.2488 1.21912 0
M  V30 69 H 9.5414 4.32791 2.65808 0
M  V30 70 H 9.4714 3.29491 4.10784 0
M  V30 71 H 11.9624 2.6658 2.6785 0
M  V30 72 H 12.2754 5.87684 5.01844 0
M  V30 73 H 10.6204 5.28068 4.5185 0
M  V30 74 H 13.8114 3.36127 3.25785 0
M  V30 75 H 13.9844 4.82538 4.32505 0
M  V30 76 N 7.3905 -1.2043 1.01659 0
M  V30 77 C 8.8015 -1.71517 0.737482 0
M  V30 78 C 9.1525 -1.81547 -0.743973 0
M  V30 79 O 8.2775 -1.47803 -1.58061 0
M  V30 80 C 8.8725 -3.11515 1.33206 0
M  V30 81 C 7.4315 -3.59912 1.10183 0
M  V30 82 C 6.5785 -2.37116 1.43776 0
M  V30 83 H 9.5295 -1.05444 1.18606 0
M  V30 84 H 9.5505 -3.73575 0.722636 0
M  V30 85 H 9.0625 -3.04182 2.41028 0
M  V30 86 H 7.1635 -3.72577 0.0412756 0
M  V30 87 H 7.2765 -4.44731 1.78188 0
M  V30 88 H 5.6405 -2.39857 0.856778 0
M  V30 89 H 6.4235 -2.32424 2.52654 0
M  V30 90 N 8.8686 -0.792821 -1.36206 0
M  V30 91 C 10.2846 -0.474903 -1.52371 0
M  V30 92 C 10.4846 1.00622 -1.74578 0
M  V30 93 O 9.5406 1.79162 -1.77924 0
M  V30 94 C 10.8536 -1.3083 -2.70747 0
M  V30 95 C 12.4016 -1.30234 -2.84619 0
M  V30 96 C 12.8766 -2.11956 -4.06004 0
M  V30 97 N 14.3676 -2.09419 -4.13156 0
M  V30 98 C 15.1026 -2.69419 -5.06163 0
M  V30 99 N 14.5986 -3.3829 -6.04592 0
M  V30 100 N 16.3916 -2.59134 -4.98804 0
M  V30 101 H 8.5426 -1.75222 -1.20046 0
M  V30 102 H 10.8056 -0.745024 -0.586211 0
M  V30 103 H 10.5116 -2.35881 -2.6087 0
M  V30 104 H 10.3856 -0.95196 -3.6499 0
M  V30 105 H 12.7726 -0.259748 -2.93955 0
M  V30 106 H 12.8536 -1.69847 -1.91274 0
M  V30 107 H 12.4976 -3.16248 -3.97429 0
M  V30 108 H 12.4276 -1.69711 -4.98503 0
M  V30 109 H 14.9186 -1.59297 -3.42685 0
M  V30 110 H 15.2316 -3.81394 -6.7213 0
M  V30 111 H 13.5766 -3.42393 -6.04807 0
M  V30 112 H 16.7676 -2.04927 -4.20859 0
M  V30 113 H 16.9406 -3.06185 -5.711 0
M  V30 114 N 10.3467 1.47872 -0.545128 0
M  V30 115 C 11.5717 2.07391 -0.0190611 0
M  V30 116 C 11.9967 1.39688 1.25971 0
M  V30 117 O 11.3547 0.467816 1.7516 0
M  V30 118 C 11.4027 3.60188 0.172335 0
M  V30 119 O 10.5067 3.9339 1.23766 0
M  V30 120 H 9.8477 0.662411 -0.0459059 0
M  V30 121 H 12.3777 1.90066 -0.757365 0
M  V30 122 H 12.3877 4.06129 0.390305 0
M  V30 123 H 11.0627 4.08865 -0.761725 0
M  V30 124 H 9.6397 3.5921 1.00114 0
M  V30 125 N 11.8248 0.280983 1.55075 0
M  V30 126 C 13.0498 -0.340154 2.04592 0
M  V30 127 C 13.4748 -1.48246 1.15779 0
M  V30 128 O 12.8328 -1.80614 0.15761 0
M  V30 129 C 12.8808 -0.793104 3.5177 0
M  V30 130 O 11.9848 -1.89981 3.66034 0
M  V30 131 H 11.3258 -0.0694289 0.66036 0
M  V30 132 H 13.8558 0.416993 2.00306 0
M  V30 133 H 13.8658 -1.08729 3.93245 0
M  V30 134 H 12.5408 0.0426163 4.15878 0
M  V30 135 H 11.1178 -1.60771 3.36463 0
M  V30 136 N 13.3029 -1.57598 0.00835791 0
M  V30 137 C 14.2329 -2.1198 -0.979113 0
M  V30 138 C 15.2139 -1.03091 -1.35301 0
M  V30 139 O 16.3989 -1.30818 -1.43528 0
M  V30 140 C 13.5289 -2.62995 -2.26828 0
M  V30 141 C 12.4829 -3.76485 -2.03576 0
M  V30 142 C 11.8089 -4.13846 -3.38579 0
M  V30 143 C 13.1089 -5.0342 -1.39161 0
M  V30 144 H 14.8029 -2.94738 -0.526281 0
M  V30 145 H 12.3489 -1.41783 -0.251704 0
M  V30 146 H 14.3019 -2.99669 -2.96271 0
M  V30 147 H 13.0259 -1.7737 -2.7424 0
M  V30 148 H 11.6849 -3.40217 -1.36557 0
M  V30 149 H 11.3329 -3.25232 -3.83709 0
M  V30 150 H 11.0329 -4.90312 -3.23834 0
M  V30 151 H 12.5569 -4.53086 -4.09323 0
M  V30 152 H 13.9709 -5.37812 -1.98573 0
M  V30 153 H 12.3679 -5.84746 -1.34878 0
M  V30 154 H 13.4379 -4.83548 -0.361868 0
M  V30 155 N 14.781 0.264519 -1.55364 0
M  V30 156 C 16.006 1.01726 -1.80739 0
M  V30 157 C 16.431 1.78836 -0.583044 0
M  V30 158 O 15.789 1.75167 0.467566 0
M  V30 159 C 15.837 1.94482 -3.03659 0
M  V30 160 O 14.941 3.03386 -2.7934 0
M  V30 161 H 14.282 0.290395 -0.597132 0
M  V30 162 H 16.812 0.290854 -2.02522 0
M  V30 163 H 16.822 2.36278 -3.32621 0
M  V30 164 H 15.497 1.37772 -3.92418 0
M  V30 165 H 14.074 2.65844 -2.61498 0
M  V30 166 N 16.2591 1.48442 0.529413 0
M  V30 167 C 17.1891 1.65902 1.64313 0
M  V30 168 C 18.1701 0.507897 1.6234 0
M  V30 169 O 19.3551 0.740503 1.79528 0
M  V30 170 C 16.4851 1.69911 3.02898 0
M  V30 171 C 15.4391 2.8453 3.19729 0
M  V30 172 C 14.7651 2.73629 4.59381 0
M  V30 173 C 16.0651 4.25821 3.02447 0
M  V30 174 H 17.7591 2.5914 1.49955 0
M  V30 175 H 15.3051 1.24709 0.719982 0
M  V30 176 H 17.2581 1.80715 3.80684 0
M  V30 177 H 15.9821 0.732524 3.18279 0
M  V30 178 H 14.6411 2.73283 2.44361 0
M  V30 179 H 14.2891 1.74938 4.71599 0
M  V30 180 H 13.9891 3.50541 4.71588 0
M  V30 181 H 15.5131 2.86401 5.39265 0
M  V30 182 H 16.9271 4.37898 3.70024 0
M  V30 183 H 15.3241 5.03735 3.26146 0
M  V30 184 H 16.3941 4.42244 1.98867 0
M  V30 185 N 17.7372 -0.778329 1.37039 0
M  V30 186 C 18.7002 -1.87301 1.32102 0
M  V30 187 C 19.7002 -1.59198 0.226405 0
M  V30 188 O 20.8902 -1.67403 0.481861 0
M  V30 189 C 18.0222 -3.24309 1.05055 0
M  V30 190 H 19.2152 -1.93093 2.29467 0
M  V30 191 H 16.7682 -0.977358 1.21973 0
M  V30 192 H 17.5032 -3.24196 0.0819373 0
M  V30 193 H 17.2882 -3.46098 1.84279 0
M  V30 194 H 18.7782 -4.04382 1.04234 0
M  V30 195 N 19.2153 -1.21501 -1.00376 0
M  V30 196 C 20.4403 -1.05977 -1.78279 0
M  V30 197 C 20.8653 0.385994 -1.84097 0
M  V30 198 O 20.2233 1.27849 -1.28547 0
M  V30 199 C 20.2713 -1.66302 -3.19963 0
M  V30 200 O 19.3753 -0.909333 -4.0225 0
M  V30 201 H 18.7163 -0.372906 -0.549397 0
M  V30 202 H 21.2463 -1.6107 -1.26165 0
M  V30 203 H 21.2563 -1.70574 -3.70632 0
M  V30 204 H 19.9313 -2.71515 -3.15043 0
M  V30 205 H 18.5083 -0.941795 -3.60811 0
M  V30 206 N 20.6934 1.19889 -1.02296 0
M  V30 207 C 21.9184 1.9393 -0.735237 0
M  V30 208 C 22.3434 1.74639 0.698782 0
M  V30 209 O 21.7014 1.04481 1.48167 0
M  V30 210 C 21.7494 3.43916 -1.08417 0
M  V30 211 O 20.8534 4.11917 -0.199446 0
M  V30 212 H 20.1944 0.605645 -0.272196 0
M  V30 213 H 22.7244 1.52137 -1.36804 0
M  V30 214 H 22.7344 3.9456 -1.03856 0
M  V30 215 H 21.4094 3.5728 -2.12894 0
M  V30 216 H 19.9864 3.71666 -0.303136 0
M  V30 217 N 22.1715 0.800033 1.35784 0
M  V30 218 C 23.1345 0.211565 2.28221 0
M  V30 219 C 24.1345 -0.59728 1.49296 0
M  V30 220 O 25.3245 -0.416721 1.69142 0
M  V30 221 C 22.4565 -0.705846 3.33513 0
M  V30 222 H 23.6495 1.02677 2.81776 0
M  V30 223 H 21.2025 0.570211 1.45528 0
M  V30 224 H 21.9375 -1.54498 2.85133 0
M  V30 225 H 21.7225 -0.127655 3.91892 0
M  V30 226 H 23.2125 -1.11211 4.02519 0
M  V30 227 N 23.6496 -1.47581 0.552962 0
M  V30 228 C 24.8746 -2.07378 0.0300593 0
M  V30 229 C 25.2996 -1.40355 -1.25229 0
M  V30 230 O 24.6576 -0.477099 -1.7491 0
M  V30 231 C 24.7056 -3.60274 -0.153231 0
M  V30 232 O 23.8096 -3.94041 -1.21678 0
M  V30 233 H 23.1506 -0.662158 0.0494182 0
M  V30 234 H 25.6806 -1.89662 0.767434 0
M  V30 235 H 25.6906 -4.0633 -0.368761 0
M  V30 236 H 24.3656 -4.08455 0.783397 0
M  V30 237 H 22.9426 -3.59735 -0.982079 0
M  V30 238 N 25.1277 -0.289203 -1.54924 0
M  V30 239 C 26.3557 0.326463 -2.04308 0
M  V30 240 C 26.7707 1.48413 -1.16701 0
M  V30 241 O 26.1277 1.81507 -0.190087 0
M  V30 242 C 26.1787 0.794014 -3.52672 0
M  V30 243 O 25.8997 -0.317564 -4.36948 0
M  V30 244 C 27.4007 1.47605 -4.18004 0
M  V30 245 H 24.6207 0.0726272 -0.667058 0
M  V30 246 H 27.1647 -0.425401 -2.00026 0
M  V30 247 H 25.3197 1.49593 -3.57352 0
M  V30 248 H 25.7337 0.0443186 -5.24481 0
M  V30 249 H 27.2077 1.75447 -5.23376 0
M  V30 250 H 27.6847 2.41224 -3.67025 0
M  V30 251 H 28.2907 0.81762 -4.17367 0
M  V30 252 N 26.6058 1.57591 -0.0167156 0
M  V30 253 C 27.8548 1.90461 0.663877 0
M  V30 254 C 28.1678 0.893515 1.73999 0
M  V30 255 O 29.3738 1.11302 2.47637 0
M  V30 256 C 27.8298 3.38155 1.23204 0
M  V30 257 C 27.4378 4.47597 0.189866 0
M  V30 258 C 29.1818 3.80111 1.88986 0
M  V30 259 C 27.0888 5.86379 0.768964 0
M  V30 260 H 26.0188 0.710738 0.251729 0
M  V30 261 H 28.6698 1.83326 -0.0799926 0
M  V30 262 H 27.0518 3.40182 2.02712 0
M  V30 263 H 28.2258 4.57112 -0.581846 0
M  V30 264 H 26.5408 4.14766 -0.368475 0
M  V30 265 H 29.1378 4.81145 2.33247 0
M  V30 266 H 29.4808 3.14511 2.72743 0
M  V30 267 H 30.0138 3.80454 1.16187 0
M  V30 268 H 26.7528 6.55493 -0.0301957 0
M  V30 269 H 26.2728 5.80496 1.50945 0
M  V30 270 H 27.9518 6.34563 1.26251 0
M  V30 271 N 28.0839 -0.256276 1.55502 0
M  V30 272 C 29.3089 -1.00766 1.81276 0
M  V30 273 C 29.7339 -1.78524 0.59252 0
M  V30 274 O 29.0919 -1.75413 -0.45827 0
M  V30 275 C 29.1399 -1.92869 3.04687 0
M  V30 276 O 28.2439 -3.019 2.80945 0
M  V30 277 H 27.5849 -0.287224 0.598664 0
M  V30 278 H 30.1149 -0.280109 2.02674 0
M  V30 279 H 30.1249 -2.34511 3.33869 0
M  V30 280 H 28.7999 -1.35689 3.93143 0
M  V30 281 H 27.3769 -2.64454 2.62904 0
M  V30 282 N 29.562 -1.4872 -0.521534 0
M  V30 283 C 30.787 -1.61101 -1.30618 0
M  V30 284 C 31.212 -0.274611 -1.86085 0
M  V30 285 O 30.57 0.754937 -1.64834 0
M  V30 286 C 30.618 -2.66709 -2.4269 0
M  V30 287 O 29.722 -2.24456 -3.45967 0
M  V30 288 H 29.063 -0.539921 -0.386499 0
M  V30 289 H 31.593 -1.94767 -0.626645 0
M  V30 290 H 31.603 -2.88245 -2.88754 0
M  V30 291 H 30.278 -3.63727 -2.01682 0
M  V30 292 H 28.855 -2.13168 -3.05964 0
M  V30 293 N 31.0401 0.771051 -1.3745 0
M  V30 294 C 31.9701 1.89827 -1.3597 0
M  V30 295 C 32.9511 1.68562 -0.228216 0
M  V30 296 O 34.1361 1.8941 -0.428675 0
M  V30 297 C 31.2661 3.2712 -1.16662 0
M  V30 298 C 30.2201 3.6295 -2.2683 0
M  V30 299 C 29.5461 4.98791 -1.92644 0
M  V30 300 C 30.8461 3.69627 -3.69017 0
M  V30 301 H 32.5401 1.91323 -2.30295 0
M  V30 302 H 30.0861 0.919082 -1.10855 0
M  V30 303 H 32.0391 4.05615 -1.14256 0
M  V30 304 H 30.7631 3.26059 -0.187926 0
M  V30 305 H 29.4221 2.86763 -2.28392 0
M  V30 306 H 29.0701 4.94271 -0.933021 0
M  V30 307 H 28.7701 5.23733 -2.66416 0
M  V30 308 H 30.2941 5.79685 -1.91826 0
M  V30 309 H 31.7081 4.38273 -3.69581 0
M  V30 310 H 30.1051 4.06067 -4.41848 0
M  V30 311 H 31.1751 2.70273 -4.02592 0
M  V30 312 N 32.5182 1.22032 0.997298 0
M  V30 313 C 33.7432 1.06921 1.77715 0
M  V30 314 C 34.1682 -0.376226 1.84299 0
M  V30 315 O 33.5262 -1.27165 1.29223 0
M  V30 316 C 33.5742 1.67996 3.19076 0
M  V30 317 O 32.6782 0.930653 4.01762 0
M  V30 318 H 32.0192 0.375814 0.547412 0
M  V30 319 H 34.5492 1.61737 1.25309 0
M  V30 320 H 34.5592 1.72538 3.69723 0
M  V30 321 H 33.2342 2.73182 3.13599 0
M  V30 322 H 31.8112 0.960917 3.60307 0
M  V30 323 N 33.9963 -1.19345 1.0293 0
M  V30 324 C 35.2213 -1.93538 0.745511 0
M  V30 325 C 35.6463 -1.75007 -0.689511 0
M  V30 326 O 35.0043 -1.05265 -1.47611 0
M  V30 327 C 35.0523 -3.43336 1.10239 0
M  V30 328 O 34.1563 -4.11806 0.221289 0
M  V30 329 H 33.4973 -0.604193 0.275404 0
M  V30 330 H 36.0273 -1.5141 1.37609 0
M  V30 331 H 36.0373 -3.94004 1.05947 0
M  V30 332 H 34.7123 -3.56146 2.14786 0
M  V30 333 H 33.2893 -3.715 0.322842 0
M  V30 334 N 35.4744 -0.807222 -1.35358 0
M  V30 335 C 36.4044 -0.232509 -2.3234 0
M  V30 336 C 37.3854 0.642386 -1.57504 0
M  V30 337 O 38.5704 0.572526 -1.85569 0
M  V30 338 C 35.7004 0.619238 -3.41735 0
M  V30 339 C 34.6544 -0.157215 -4.27711 0
M  V30 340 C 33.9804 0.816273 -5.28433 0
M  V30 341 C 35.2804 -1.35656 -5.04376 0
M  V30 342 H 36.9744 -1.04276 -2.80654 0
M  V30 343 H 34.5204 -0.50288 -1.34934 0
M  V30 344 H 36.4734 1.03137 -4.08584 0
M  V30 345 H 35.1974 1.46239 -2.92031 0
M  V30 346 H 33.8564 -0.550525 -3.62443 0
M  V30 347 H 33.5044 1.65494 -4.74996 0
M  V30 348 H 33.2044 0.301067 -5.86828 0
M  V30 349 H 34.7284 1.22659 -5.98153 0
M  V30 350 H 36.1424 -1.01927 -5.64166 0
M  V30 351 H 34.5394 -1.8063 -5.7227 0
M  V30 352 H 35.6094 -2.14288 -4.34981 0
M  V30 353 N 36.9525 1.47285 -0.560781 0
M  V30 354 C 38.1775 2.07359 -0.0410566 0
M  V30 355 C 38.6025 1.41017 1.24483 0
M  V30 356 O 37.9605 0.486368 1.74654 0
M  V30 357 C 38.0085 3.6035 0.134123 0
M  V30 358 O 37.1125 3.94681 1.19587 0
M  V30 359 H 36.4535 0.661887 -0.0529291 0
M  V30 360 H 38.9835 1.89252 -0.777482 0
M  V30 361 H 38.9935 4.0652 0.347207 0
M  V30 362 H 37.6685 4.08034 -0.805047 0
M  V30 363 H 36.2455 3.60251 0.962987 0
M  V30 364 N 38.4306 0.297415 1.54768 0
M  V30 365 C 39.8416 -0.195947 1.85669 0
M  V30 366 C 40.1926 -1.53707 1.21937 0
M  V30 367 O 39.3176 -2.10164 0.515754 0
M  V30 368 C 39.9126 -0.362318 3.36857 0
M  V30 369 C 38.4716 -0.799901 3.67802 0
M  V30 370 C 37.6186 0.0938578 2.77141 0
M  V30 371 H 40.5696 0.518538 1.4999 0
M  V30 372 H 40.5906 -1.19745 3.61167 0
M  V30 373 H 40.1026 0.613921 3.83214 0
M  V30 374 H 38.2036 -1.78682 3.26961 0
M  V30 375 H 38.3166 -0.621773 4.75048 0
M  V30 376 H 36.6806 -0.426254 2.51108 0
M  V30 377 H 37.4636 1.06639 3.26318 0
M  V30 378 N 39.9087 -1.5758 0.0250728 0
M  V30 379 C 40.8557 -2.09973 -0.958129 0
M  V30 380 C 41.8257 -1.00085 -1.3256 0
M  V30 381 O 43.0107 -1.27481 -1.41962 0
M  V30 382 C 40.1507 -2.62812 -2.2366 0
M  V30 383 C 39.2637 -3.86693 -1.92594 0
M  V30 384 C 38.3987 -4.27941 -3.14707 0
M  V30 385 C 37.4377 -5.44591 -2.79442 0
M  V30 386 N 36.5747 -5.81014 -3.94167 0
M  V30 387 H 41.4147 -2.937 -0.504428 0
M  V30 388 H 38.9517 -1.45172 -0.237392 0
M  V30 389 H 40.9097 -2.91536 -2.98434 0
M  V30 390 H 39.5397 -1.81922 -2.66654 0
M  V30 391 H 38.5917 -3.64723 -1.0808 0
M  V30 392 H 39.9037 -4.71547 -1.62619 0
M  V30 393 H 39.0577 -4.58079 -3.97804 0
M  V30 394 H 37.7967 -3.41845 -3.4784 0
M  V30 395 H 36.8017 -5.1415 -1.94755 0
M  V30 396 H 38.0267 -6.32382 -2.47528 0
M  V30 397 H 35.9727 -4.97874 -4.2715 0
M  V30 398 H 35.8897 -6.60498 -3.67801 0
M  V30 399 H 37.1577 -6.15756 -4.7798 0
M  V30 400 N 41.3868 0.248026 -1.55636 0
M  V30 401 C 42.3338 1.30707 -1.90222 0
M  V30 402 C 43.3038 1.47881 -0.756332 0
M  V30 403 O 44.4888 1.61883 -1.00988 0
M  V30 404 C 41.6288 2.65769 -2.20138 0
M  V30 405 C 40.7418 2.56612 -3.47526 0
M  V30 406 C 39.8768 3.8402 -3.67017 0
M  V30 407 C 38.9158 3.69476 -4.8801 0
M  V30 408 N 38.0528 4.88774 -5.04029 0
M  V30 409 H 42.8928 1.00512 -2.80538 0
M  V30 410 H 40.4298 0.485055 -1.38873 0
M  V30 411 H 42.3878 3.44386 -2.35487 0
M  V30 412 H 41.0178 2.94115 -1.33027 0
M  V30 413 H 40.0698 1.69571 -3.40514 0
M  V30 414 H 41.3818 2.41774 -4.36287 0
M  V30 415 H 40.5358 4.7108 -3.8232 0
M  V30 416 H 39.2748 4.01754 -2.76487 0
M  V30 417 H 38.2798 2.80799 -4.72686 0
M  V30 418 H 39.5048 3.53238 -5.8 0
M  V30 419 H 37.4508 5.0687 -4.16435 0
M  V30 420 H 37.3678 4.76562 -5.86877 0
M  V30 421 H 38.6358 5.77335 -5.23741 0
M  V30 422 N 42.8649 1.48995 0.513639 0
M  V30 423 C 44.2759 1.5119 1.09537 0
M  V30 424 C 44.6269 0.290906 1.94031 0
M  V30 425 O 43.7519 -0.60049 2.07902 0
M  V30 426 C 44.3469 2.73964 1.99322 0
M  V30 427 C 42.9059 2.78978 2.52682 0
M  V30 428 C 42.0529 2.44934 1.30009 0
M  V30 429 H 45.0039 1.55875 0.298125 0
M  V30 430 H 45.0249 2.53409 2.83838 0
M  V30 431 H 44.5369 3.62813 1.37799 0
M  V30 432 H 42.6379 1.94378 3.1788 0
M  V30 433 H 42.7509 3.8083 2.90698 0
M  V30 434 H 41.1149 1.9644 1.62122 0
M  V30 435 H 41.8979 3.36043 0.702131 0
M  V30 436 N 44.343 -0.763751 1.37857 0
M  V30 437 C 45.571 -1.55293 1.36718 0
M  V30 438 C 45.986 -1.88745 -0.0455434 0
M  V30 439 O 45.343 -1.52039 -1.00947 0
M  V30 440 C 45.394 -2.85831 2.2132 0
M  V30 441 O 45.115 -2.5381 3.57089 0
M  V30 442 C 46.616 -3.80023 2.28249 0
M  V30 443 H 43.836 -0.480841 0.468009 0
M  V30 444 H 46.38 -0.946009 1.81303 0
M  V30 445 H 44.535 -3.42926 1.80223 0
M  V30 446 H 44.949 -3.37459 4.01524 0
M  V30 447 H 46.423 -4.68599 2.91752 0
M  V30 448 H 46.9 -4.1973 1.2932 0
M  V30 449 H 47.506 -3.28855 2.69693 0
M  V30 450 N 45.8211 -1.22559 -0.990812 0
M  V30 451 C 47.2371 -0.985996 -1.255 0
M  V30 452 C 47.4371 0.319173 -1.98956 0
M  V30 453 O 46.4931 1.04127 -2.3003 0
M  V30 454 C 47.8061 -2.18607 -2.06474 0
M  V30 455 C 49.3541 -2.22985 -2.19651 0
M  V30 456 C 49.8291 -3.4255 -3.04012 0
M  V30 457 N 51.3201 -3.42725 -3.11599 0
M  V30 458 C 52.0551 -4.31892 -3.7717 0
M  V30 459 N 51.5511 -5.31279 -4.44651 0
M  V30 460 N 53.3441 -4.19662 -3.73952 0
M  V30 461 H 45.4951 -2.06469 -0.49841 0
M  V30 462 H 47.7581 -0.904853 -0.282747 0
M  V30 463 H 47.4641 -3.13267 -1.59865 0
M  V30 464 H 47.3381 -2.18838 -3.07229 0
M  V30 465 H 49.7251 -1.28871 -2.65474 0
M  V30 466 H 49.8061 -2.26791 -1.18319 0
M  V30 467 H 49.4501 -4.36965 -2.58889 0
M  V30 468 H 49.3801 -3.35984 -4.0549 0
M  V30 469 H 51.8711 -2.70807 -2.63575 0
M  V30 470 H 52.1841 -5.95593 -4.92431 0
M  V30 471 H 50.5291 -5.3519 -4.43392 0
M  V30 472 H 53.7201 -3.41268 -3.20396 0
M  V30 473 H 53.8931 -4.89358 -4.24774 0
M  V30 474 N 47.2992 1.18797 -1.03562 0
M  V30 475 C 48.2622 2.20464 -0.626769 0
M  V30 476 C 49.2622 1.57721 0.313173 0
M  V30 477 O 50.4522 1.73917 0.0992615 0
M  V30 478 C 47.5842 3.40802 0.0818498 0
M  V30 479 H 48.7772 2.58149 -1.5264 0
M  V30 480 H 46.3302 1.32593 -0.827578 0
M  V30 481 H 47.0652 3.08642 0.995518 0
M  V30 482 H 46.8502 3.8758 -0.593652 0
M  V30 483 H 48.3402 4.16092 0.354584 0
M  V30 484 N 48.7773 0.814389 1.34928 0
M  V30 485 C 50.0233 0.399013 1.98836 0
M  V30 486 C 50.3563 -1.03314 1.64438 0
M  V30 487 O 49.6313 -1.71811 0.911659 0
M  V30 488 C 49.9143 0.591629 3.55207 0
M  V30 489 C 49.7673 2.06928 3.99376 0
M  V30 490 C 51.0863 0.022199 4.40094 0
M  V30 491 H 48.2053 0.146451 0.722303 0
M  V30 492 H 50.8473 1.02537 1.59957 0
M  V30 493 H 48.9973 0.0584441 3.88456 0
M  V30 494 H 50.6693 2.66544 3.76499 0
M  V30 495 H 48.9123 2.56287 3.49999 0
M  V30 496 H 49.5833 2.1549 5.08201 0
M  V30 497 H 52.0593 0.477643 4.13349 0
M  V30 498 H 50.9353 0.186832 5.48582 0
M  V30 499 H 51.1963 -1.07215 4.28902 0
M  V30 500 N 50.2554 -1.46986 0.568584 0
M  V30 501 C 51.2034 -2.31858 -0.185649 0
M  V30 502 C 52.1974 -1.43624 -0.898249 0
M  V30 503 O 53.4034 -1.60327 -0.818242 0
M  V30 504 H 49.7784 -0.747866 -0.0787399 0
M  V30 505 H 51.7494 -2.93303 0.549191 0
M  V30 506 C 50.4984 -3.26513 -1.19519 0
M  V30 507 H 49.8214 -3.94377 -0.656285 0
M  V30 508 H 51.2614 -3.88707 -1.6936 0
M  V30 509 C 49.7204 -2.50847 -2.24894 0
M  V30 510 O 50.2504 -2.26119 -3.32014 0
M  V30 511 N 48.4564 -2.11656 -1.99124 0
M  V30 512 H 48.0034 -2.31966 -1.12024 0
M  V30 513 H 47.9614 -1.61347 -2.69842 0
M  V30 514 N 51.7335 -0.305618 -1.54608 0
M  V30 515 C 52.6805 0.568421 -2.23691 0
M  V30 516 C 53.6505 1.12592 -1.22116 0
M  V30 517 O 54.8355 1.16959 -1.50749 0
M  V30 518 C 51.9755 1.7322 -2.98477 0
M  V30 519 C 51.0885 1.20566 -4.14835 0
M  V30 520 C 50.2235 2.33368 -4.77193 0
M  V30 521 C 49.2625 1.7787 -5.85686 0
M  V30 522 N 48.3995 2.84263 -6.4198 0
M  V30 523 H 53.2395 -0.0272867 -2.97988 0
M  V30 524 H 50.7765 -0.0252363 -1.47078 0
M  V30 525 H 52.7345 2.41675 -3.40072 0
M  V30 526 H 51.3645 2.29947 -2.26548 0
M  V30 527 H 50.4165 0.413223 -3.78149 0
M  V30 528 H 51.7285 0.759417 -4.92985 0
M  V30 529 H 50.8825 3.09761 -5.21664 0
M  V30 530 H 49.6215 2.8132 -3.98385 0
M  V30 531 H 48.6265 0.99968 -5.40635 0
M  V30 532 H 49.8515 1.30816 -6.66381 0
M  V30 533 H 47.7975 3.31541 -5.66053 0
M  V30 534 H 47.7145 2.44149 -7.15491 0
M  V30 535 H 48.9825 3.6054 -6.91109 0
M  V30 536 N 53.2116 1.57565 -0.0334293 0
M  V30 537 C 54.4606 1.91155 0.643639 0
M  V30 538 C 54.7736 0.91192 1.73042 0
M  V30 539 O 55.9796 1.13923 2.46442 0
M  V30 540 C 54.4356 3.39443 1.1961 0
M  V30 541 C 54.0436 4.47774 0.142381 0
M  V30 542 C 55.7876 3.82094 1.84944 0
M  V30 543 C 53.6946 5.87162 0.706727 0
M  V30 544 H 52.6246 0.713368 0.244176 0
M  V30 545 H 55.2756 1.8323 -0.0994323 0
M  V30 546 H 53.6576 3.42313 1.99092 0
M  V30 547 H 54.8316 4.56469 -0.630296 0
M  V30 548 H 53.1466 4.14352 -0.412446 0
M  V30 549 H 55.7436 4.83591 2.2813 0
M  V30 550 H 56.0866 3.17386 2.69392 0
M  V30 551 H 56.6196 3.81665 1.12145 0
M  V30 552 H 53.3586 6.55424 -0.0997178 0
M  V30 553 H 52.8786 5.82064 1.44779 0
M  V30 554 H 54.5576 6.35866 1.19514 0
M  V30 555 N 54.6897 -0.239769 1.55765 0
M  V30 556 C 55.6397 -1.30002 1.87306 0
M  V30 557 C 56.6237 -1.43156 0.73452 0
M  V30 558 O 57.8157 -1.46277 0.99659 0
M  V30 559 C 54.9447 -2.65409 2.17745 0
M  V30 560 C 54.0307 -2.56231 3.37945 0
M  V30 561 N 54.4217 -2.16689 4.57033 0
M  V30 562 C 52.7197 -2.87229 3.41197 0
M  V30 563 C 53.4207 -2.18318 5.39177 0
M  V30 564 N 52.3967 -2.58098 4.78421 0
M  V30 565 H 56.1987 -0.984912 2.76906 0
M  V30 566 H 53.7127 -0.448381 1.56087 0
M  V30 567 H 55.7097 -3.41934 2.38509 0
M  V30 568 H 54.3697 -2.97781 1.29448 0
M  V30 569 H 55.3807 -1.88116 4.82528 0
M  V30 570 H 52.0577 -3.24094 2.63191 0
M  V30 571 H 53.4477 -1.90025 6.44469 0
M  V30 572 N 56.1678 -1.49265 -0.50573 0
M  V30 573 C 57.1308 -1.65075 -1.59006 0
M  V30 574 C 58.1308 -0.522768 -1.52065 0
M  V30 575 O 59.3208 -0.789117 -1.55302 0
M  V30 576 C 56.4528 -1.64369 -2.98656 0
M  V30 577 H 57.6458 -2.61784 -1.46319 0
M  V30 578 H 55.1988 -1.38226 -0.729616 0
M  V30 579 H 55.9338 -0.692272 -3.16825 0
M  V30 580 H 55.7188 -2.46282 -3.05103 0
M  V30 581 H 57.2088 -1.78674 -3.77446 0
M  V30 582 N 57.6459 0.756429 -1.3826 0
M  V30 583 C 58.8929 1.51547 -1.34312 0
M  V30 584 C 59.2209 1.94382 0.0677144 0
M  V30 585 O 58.4759 1.65514 1.04421 0
M  V30 586 C 58.7749 2.78313 -2.24224 0
M  V30 587 C 58.4409 2.54455 -3.72241 0
M  V30 588 C 57.1029 2.47657 -4.12576 0
M  V30 589 C 59.4549 2.3354 -4.65949 0
M  V30 590 C 56.7829 2.17956 -5.44713 0
M  V30 591 C 59.1349 2.05359 -5.9834 0
M  V30 592 C 57.7989 1.97016 -6.37762 0
M  V30 593 H 57.0689 0.55455 -0.491482 0
M  V30 594 H 59.7159 0.870039 -1.70595 0
M  V30 595 H 58.0209 3.47492 -1.80987 0
M  V30 596 H 59.7179 3.36259 -2.18474 0
M  V30 597 H 56.3079 2.60616 -3.40261 0
M  V30 598 H 60.4919 2.37772 -4.35635 0
M  V30 599 H 55.7479 2.10003 -5.74203 0
M  V30 600 H 59.9219 1.88179 -6.70494 0
M  V30 601 H 57.5489 1.73766 -7.40074 0
M  V30 602 N 59.124 1.23083 0.984299 0
M  V30 603 C 60.372 1.05848 1.72165 0
M  V30 604 C 60.693 -0.406049 1.90726 0
M  V30 605 O 59.963 -1.29139 1.47309 0
M  V30 606 H 58.543 0.388685 0.637913 0
M  V30 607 H 61.205 1.54736 1.18503 0
M  V30 608 H 60.301 1.54327 2.71274 0
M  V30 609 N 60.6021 -1.18246 1.0419 0
M  V30 610 C 61.5491 -2.2192 0.634037 0
M  V30 611 C 62.5191 -1.62179 -0.358765 0
M  V30 612 O 63.7041 -1.89122 -0.252466 0
M  V30 613 C 60.8441 -3.451 0.00445535 0
M  V30 614 C 59.9571 -4.19174 1.04487 0
M  V30 615 C 59.0921 -5.29813 0.383676 0
M  V30 616 C 58.1311 -5.9566 1.4091 0
M  V30 617 N 57.2681 -6.97834 0.772784 0
M  V30 618 H 62.1081 -2.56164 1.52263 0
M  V30 619 H 59.6451 -1.25843 0.761701 0
M  V30 620 H 61.6031 -4.15485 -0.377919 0
M  V30 621 H 60.2331 -3.11472 -0.847652 0
M  V30 622 H 59.2851 -3.47604 1.54518 0
M  V30 623 H 60.5971 -4.64267 1.82368 0
M  V30 624 H 59.7511 -6.06677 -0.0528366 0
M  V30 625 H 58.4901 -4.85825 -0.427208 0
M  V30 626 H 57.4951 -5.17535 1.85574 0
M  V30 627 H 58.7201 -6.4173 2.22171 0
M  V30 628 H 56.6661 -6.55998 -0.0177708 0
M  V30 629 H 56.5831 -7.41186 1.48928 0
M  V30 630 H 57.8511 -7.78665 0.36071 0
M  V30 631 N 62.0802 -0.821533 -1.34494 0
M  V30 632 C 63.4962 -0.507117 -1.51329 0
M  V30 633 C 63.6962 0.968964 -1.76673 0
M  V30 634 O 62.7522 1.75348 -1.81685 0
M  V30 635 C 64.0652 -1.36544 -2.67911 0
M  V30 636 C 65.6132 -1.36242 -2.81793 0
M  V30 637 C 66.0882 -2.2052 -4.01416 0
M  V30 638 N 67.5792 -2.18136 -4.08621 0
M  V30 639 C 68.3142 -2.80095 -5.00334 0
M  V30 640 N 67.8102 -3.51039 -5.9728 0
M  V30 641 N 69.6032 -2.69656 -4.93196 0
M  V30 642 H 61.7542 -1.77729 -1.16302 0
M  V30 643 H 64.0172 -0.757291 -0.570276 0
M  V30 644 H 63.7232 -2.41361 -2.55808 0
M  V30 645 H 63.5972 -1.02917 -3.62888 0
M  V30 646 H 65.9842 -0.322041 -2.93338 0
M  V30 647 H 66.0652 -1.73866 -1.87628 0
M  V30 648 H 65.7092 -3.24607 -3.90631 0
M  V30 649 H 65.6392 -1.80247 -4.94791 0
M  V30 650 H 68.1302 -1.6653 -3.39229 0
M  V30 651 H 68.4432 -3.95565 -6.63889 0
M  V30 652 H 66.7882 -3.55145 -5.97409 0
M  V30 653 H 69.9792 -2.13808 -4.16418 0
M  V30 654 H 70.1522 -3.1823 -5.64476 0
M  V30 655 N 63.5583 1.46682 -0.576371 0
M  V30 656 C 64.8063 2.02013 -0.0594163 0
M  V30 657 C 65.1273 1.45101 1.30271 0
M  V30 658 O 64.3973 0.633317 1.8538 0
M  V30 659 H 62.9773 0.746759 -0.0189745 0
M  V30 660 H 65.6393 1.79862 -0.750717 0
M  V30 661 H 64.7353 3.12097 0.014345 0
M  V30 662 N 65.0364 0.313813 1.54444 0
M  V30 663 C 65.9844 -0.572171 2.25453 0
M  V30 664 C 66.9784 -1.12657 1.2651 0
M  V30 665 O 68.1844 -1.07573 1.44319 0
M  V30 666 H 64.5594 -0.203146 0.724041 0
M  V30 667 H 66.5304 0.0491145 2.9836 0
M  V30 668 C 65.2794 -1.72626 3.0182 0
M  V30 669 H 64.6024 -1.30891 3.77767 0
M  V30 670 H 66.0424 -2.32199 3.54767 0
M  V30 671 C 64.5014 -2.63806 2.09542 0
M  V30 672 O 65.0314 -3.65256 1.67185 0
M  V30 673 N 63.2374 -2.31824 1.75232 0
M  V30 674 H 62.7844 -1.49368 2.09873 0
M  V30 675 H 62.7424 -2.93095 1.13767 0
M  V30 676 N 66.5145 -1.57545 0.0417849 0
M  V30 677 C 67.4775 -2.09885 -0.92093 0
M  V30 678 C 68.4775 -1.01648 -1.24596 0
M  V30 679 O 69.6675 -1.27759 -1.1842 0
M  V30 680 C 66.7995 -2.57527 -2.23367 0
M  V30 681 H 67.9925 -2.96236 -0.467382 0
M  V30 682 H 65.5455 -1.5493 -0.206467 0
M  V30 683 H 66.2805 -1.74542 -2.73323 0
M  V30 684 H 66.0655 -3.36613 -2.01083 0
M  V30 685 H 67.5555 -2.98201 -2.92346 0
M  V30 686 N 67.9926 0.231505 -1.5589 0
M  V30 687 C 68.9226 1.29022 -1.94617 0
M  V30 688 C 69.9036 1.4941 -0.813067 0
M  V30 689 O 71.0886 1.6176 -1.07459 0
M  V30 690 C 68.2186 2.64199 -2.25424 0
M  V30 691 C 67.1726 2.58484 -3.41131 0
M  V30 692 C 66.4986 3.97599 -3.57518 0
M  V30 693 C 67.7986 2.1413 -4.76388 0
M  V30 694 H 69.4926 0.968563 -2.83301 0
M  V30 695 H 67.0386 0.464479 -1.36303 0
M  V30 696 H 68.9916 3.38413 -2.51107 0
M  V30 697 H 67.7156 2.98032 -1.33583 0
M  V30 698 H 66.3746 1.86727 -3.15481 0
M  V30 699 H 66.0226 4.28723 -2.6307 0
M  V30 700 H 65.7226 3.94659 -4.35337 0
M  V30 701 H 67.2466 4.7349 -3.85538 0
M  V30 702 H 68.6606 2.78083 -5.01341 0
M  V30 703 H 67.0576 2.2227 -5.57419 0
M  V30 704 H 68.1276 1.09331 -4.72414 0
M  V30 705 N 69.4707 1.49531 0.497807 0
M  V30 706 C 70.8867 1.36365 0.829266 0
M  V30 707 C 71.0867 0.399184 1.97506 0
M  V30 708 O 70.1427 -0.167977 2.51941 0
M  V30 709 C 71.4557 2.77153 1.16647 0
M  V30 710 C 73.0037 2.85877 1.27449 0
M  V30 711 C 73.4787 4.2744 1.64497 0
M  V30 712 N 74.9697 4.30265 1.7154 0
M  V30 713 C 75.7047 5.3677 2.01656 0
M  V30 714 N 75.2007 6.53516 2.29976 0
M  V30 715 N 76.9937 5.24189 2.02934 0
M  V30 716 H 69.1447 2.10831 -0.257703 0
M  V30 717 H 71.4077 0.946534 -0.0527091 0
M  V30 718 H 71.1137 3.49442 0.397872 0
M  V30 719 H 70.9877 3.12722 2.10915 0
M  V30 720 H 73.3747 2.13824 2.0338 0
M  V30 721 H 73.4557 2.53887 0.312244 0
M  V30 722 H 73.0997 5.00021 0.891151 0
M  V30 723 H 73.0297 4.56896 2.61827 0
M  V30 724 H 75.5207 3.4607 1.51802 0
M  V30 725 H 75.8337 7.30506 2.52153 0
M  V30 726 H 74.1787 6.56737 2.27425 0
M  V30 727 H 77.3697 4.31988 1.80289 0
M  V30 728 H 77.5427 6.07286 2.26071 0
M  V30 729 N 70.9488 -0.749086 1.3866 0
M  V30 730 C 72.3648 -1.05276 1.19955 0
M  V30 731 C 72.5648 -2.01435 0.05134 0
M  V30 732 O 71.6208 -2.45232 -0.60147 0
M  V30 733 C 72.9338 -1.62853 2.52783 0
M  V30 734 C 74.4818 -1.75002 2.59506 0
M  V30 735 C 74.9568 -2.35991 3.92521 0
M  V30 736 N 76.4478 -2.43416 3.94085 0
M  V30 737 C 77.1828 -2.91511 4.9377 0
M  V30 738 N 76.6788 -3.39608 6.03853 0
M  V30 739 N 78.4718 -2.90592 4.81157 0
M  V30 740 H 70.6228 -0.111066 2.12109 0
M  V30 741 H 72.8858 -0.111901 0.941373 0
M  V30 742 H 72.5918 -0.99664 3.37283 0
M  V30 743 H 72.4658 -2.61854 2.715 0
M  V30 744 H 74.8528 -2.37317 1.75398 0
M  V30 745 H 74.9338 -0.74693 2.44652 0
M  V30 746 H 74.5778 -1.74308 4.77053 0
M  V30 747 H 74.5078 -3.3695 4.04688 0
M  V30 748 H 76.9988 -2.09405 3.14576 0
M  V30 749 H 77.3118 -3.74775 6.75843 0
M  V30 750 H 75.6568 -3.37653 6.07466 0
M  V30 751 H 78.8478 -2.52332 3.94267 0
M  V30 752 H 79.0208 -3.27762 5.58996 0
M  V30 753 N 72.4269 -1.23603 -0.977757 0
M  V30 754 C 73.7039 -0.977897 -1.69401 0
M  V30 755 C 74.0839 0.502738 -2.05026 0
M  V30 756 O 73.4319 1.47459 -1.74551 0
M  V30 757 C 73.6419 -1.89077 -2.93345 0
M  V30 758 C 74.9899 -2.15579 -3.65802 0
M  V30 759 O 76.0139 -1.86648 -3.03383 0
M  V30 760 O 74.8729 -2.64658 -4.78141 0
M  V30 761 H 71.9669 -0.369025 -0.740101 0
M  V30 762 H 74.5129 -1.34657 -1.03274 0
M  V30 763 H 73.2849 -2.89158 -2.63634 0
M  V30 764 H 72.9079 -1.52463 -3.67207 0
M  V30 765 N 73.905 1.17692 -1.04816 0
M  V30 766 C 75.316 1.69501 -0.782698 0
M  V30 767 C 75.667 1.83456 0.695577 0
M  V30 768 O 74.792 1.51942 1.54086 0
M  V30 769 C 75.387 3.07874 -1.41419 0
M  V30 770 C 73.946 3.56864 -1.19686 0
M  V30 771 C 73.093 2.3322 -1.50012 0
M  V30 772 H 76.044 1.02262 -1.2136 0
M  V30 773 H 76.065 3.71528 -0.821428 0
M  V30 774 H 75.577 2.97685 -2.49009 0
M  V30 775 H 73.678 3.72337 -0.140043 0
M  V30 776 H 73.791 4.39851 -1.89916 0
M  V30 777 H 72.155 2.37501 -0.920071 0
M  V30 778 H 72.938 2.25644 -2.58727 0
M  V30 779 N 75.3831 0.828654 1.34056 0
M  V30 780 C 76.3311 0.242973 2.31327 0
M  V30 781 C 77.3251 -0.61944 1.57668 0
M  V30 782 O 78.5311 -0.51014 1.7262 0
M  V30 783 H 74.9061 0.059834 0.749616 0
M  V30 784 H 76.8771 1.07809 2.78244 0
M  V30 785 C 75.6261 -0.575733 3.429 0
M  V30 786 H 74.9491 0.0785582 3.99723 0
M  V30 787 H 76.3891 -0.951547 4.13185 0
M  V30 788 C 74.8481 -1.75044 2.87856 0
M  V30 789 O 75.3781 -2.84882 2.83205 0
M  V30 790 N 73.5841 -1.56903 2.44602 0
M  V30 791 H 73.1311 -0.675547 2.48584 0
M  V30 792 H 73.0891 -2.35652 2.08124 0
M  V30 793 N 76.8612 -1.46375 0.584142 0
M  V30 794 C 77.7912 -2.33103 -0.136037 0
M  V30 795 C 78.7722 -1.45431 -0.882255 0
M  V30 796 O 79.9572 -1.74246 -0.857434 0
M  V30 797 C 77.0872 -3.27731 -1.14933 0
M  V30 798 C 76.0412 -4.24855 -0.517862 0
M  V30 799 C 75.3672 -5.09001 -1.63773 0
M  V30 800 C 76.6672 -5.19439 0.545886 0
M  V30 801 H 78.3612 -2.93568 0.588086 0
M  V30 802 H 75.9072 -1.41166 0.284259 0
M  V30 803 H 77.8602 -3.87261 -1.66153 0
M  V30 804 H 76.5842 -2.65377 -1.90375 0
M  V30 805 H 75.2432 -3.6659 -0.0267361 0
M  V30 806 H 74.8912 -4.43031 -2.38185 0
M  V30 807 H 74.5912 -5.74777 -1.22085 0
M  V30 808 H 76.1152 -5.71396 -2.15266 0
M  V30 809 H 77.5292 -5.73177 0.118704 0
M  V30 810 H 75.9262 -5.93566 0.88317 0
M  V30 811 H 76.9962 -4.63285 1.43162 0
M  V30 812 N 78.3393 -0.321999 -1.54275 0
M  V30 813 C 79.7503 0.166384 -1.85957 0
M  V30 814 C 80.1013 1.51747 -1.24367 0
M  V30 815 O 79.2263 2.09317 -0.549124 0
M  V30 816 C 79.8213 0.308681 -3.37391 0
M  V30 817 C 78.3803 0.741286 -3.69028 0
M  V30 818 C 77.5273 -0.137937 -2.76957 0
M  V30 819 H 80.4783 -0.542335 -1.49146 0
M  V30 820 H 80.4993 1.13984 -3.63026 0
M  V30 821 H 80.0113 -0.674809 -3.82188 0
M  V30 822 H 78.1123 1.73458 -3.29762 0
M  V30 823 H 78.2253 0.546118 -4.75977 0
M  V30 824 H 76.5893 0.386251 -2.51754 0
M  V30 825 H 77.3723 -1.11816 -3.2458 0
M  V30 826 N 79.8174 1.5752 -0.0501392 0
M  V30 827 C 81.0634 1.92936 0.624798 0
M  V30 828 C 81.3964 0.928685 1.70555 0
M  V30 829 O 80.6714 -0.0454779 1.94447 0
M  V30 830 C 80.9544 3.38737 1.22185 0
M  V30 831 C 80.8074 4.49552 0.149218 0
M  V30 832 C 82.1264 3.84913 2.13378 0
M  V30 833 H 79.2454 0.701604 0.225657 0
M  V30 834 H 81.8874 1.89671 -0.111693 0
M  V30 835 H 80.0374 3.4165 1.84953 0
M  V30 836 H 81.7094 4.58768 -0.482648 0
M  V30 837 H 79.9524 4.30638 -0.522841 0
M  V30 838 H 80.6234 5.48653 0.606966 0
M  V30 839 H 83.0994 3.8387 1.60572 0
M  V30 840 H 81.9754 4.87584 2.52097 0
M  V30 841 H 82.2364 3.21611 3.03346 0
M  V30 842 N 81.2955 -0.223234 1.56011 0
M  V30 843 C 82.2455 -1.28008 1.88674 0
M  V30 844 C 83.2295 -1.42369 0.749663 0
M  V30 845 O 84.4215 -1.45212 1.01205 0
M  V30 846 C 81.5505 -2.63084 2.20548 0
M  V30 847 C 80.6365 -2.52632 3.40643 0
M  V30 848 N 81.0275 -2.11829 4.59306 0
M  V30 849 C 79.3255 -2.83594 3.44224 0
M  V30 850 C 80.0265 -2.12587 5.41463 0
M  V30 851 N 79.0025 -2.5301 4.81131 0
M  V30 852 H 82.8045 -0.955487 2.77935 0
M  V30 853 H 80.3185 -0.431801 1.56554 0
M  V30 854 H 82.3155 -3.39385 2.42122 0
M  V30 855 H 80.9755 -2.96391 1.32599 0
M  V30 856 H 81.9865 -1.82988 4.84496 0
M  V30 857 H 78.6635 -3.21284 2.66614 0
M  V30 858 H 80.0535 -1.83179 6.46448 0
M  V30 859 N 82.7736 -1.49793 -0.48987 0
M  V30 860 C 84.0226 -1.59085 -1.23995 0
M  V30 861 C 84.3356 -0.287907 -1.9347 0
M  V30 862 O 85.5416 -0.259506 -2.70257 0
M  V30 863 C 83.9976 -2.80736 -2.252 0
M  V30 864 C 83.6056 -4.17833 -1.61614 0
M  V30 865 C 85.3496 -2.99364 -3.00967 0
M  V30 866 C 83.2566 -5.30693 -2.60996 0
M  V30 867 H 82.1866 -0.592372 -0.466488 0
M  V30 868 H 84.8376 -1.76197 -0.51252 0
M  V30 869 H 83.2196 -2.57142 -3.01154 0
M  V30 870 H 84.3936 -4.51608 -0.915774 0
M  V30 871 H 82.7086 -4.04656 -0.981977 0
M  V30 872 H 85.3056 -3.80851 -3.75308 0
M  V30 873 H 85.6486 -2.10356 -3.59244 0
M  V30 874 H 86.1816 -3.2305 -2.32128 0
M  V30 875 H 82.9206 -6.21796 -2.07485 0
M  V30 876 H 82.4406 -5.01359 -3.2924 0
M  V30 877 H 84.1196 -5.6049 -3.23202 0
M  V30 878 N 84.2517 0.741722 -1.39055 0
M  V30 879 C 85.6677 1.04638 -1.20512 0
M  V30 880 C 85.8677 2.01405 -0.0620218 0
M  V30 881 O 84.9237 2.45547 0.588457 0
M  V30 882 C 86.2367 1.6151 -2.53643 0
M  V30 883 C 87.7847 1.73623 -2.6043 0
M  V30 884 C 88.2597 2.33906 -3.93767 0
M  V30 885 N 89.7507 2.41323 -3.9537 0
M  V30 886 C 90.4857 2.88888 -4.95309 0
M  V30 887 N 89.9817 3.36401 -6.05645 0
M  V30 888 N 91.7747 2.88037 -4.82692 0
M  V30 889 H 83.9257 0.0998155 -2.12165 0
M  V30 890 H 86.1887 0.106907 -0.941953 0
M  V30 891 H 85.8947 0.978739 -3.37807 0
M  V30 892 H 85.7687 2.60411 -2.72885 0
M  V30 893 H 88.1557 2.36384 -1.76655 0
M  V30 894 H 88.2367 0.733945 -2.45045 0
M  V30 895 H 87.8807 1.71776 -4.7797 0
M  V30 896 H 87.8107 3.34799 -4.06469 0
M  V30 897 H 90.3017 2.07734 -3.15682 0
M  V30 898 H 90.6147 3.71186 -6.77821 0
M  V30 899 H 88.9597 3.34427 -6.09248 0
M  V30 900 H 92.1507 2.50237 -3.95599 0
M  V30 901 H 92.3237 3.24792 -5.60726 0
M  V30 902 N 85.7298 1.2412 0.971189 0
M  V30 903 C 86.9778 1.07668 1.71032 0
M  V30 904 C 87.2988 -0.385797 1.91146 0
M  V30 905 O 86.5688 -1.27569 1.4867 0
M  V30 906 H 85.1488 0.395429 0.633755 0
M  V30 907 H 87.8108 1.55984 1.16855 0
M  V30 908 H 86.9068 1.57195 2.69622 0
M  V30 909 N 87.2079 -1.17134 1.05439 0
M  V30 910 C 88.4539 -1.87979 0.776872 0
M  V30 911 C 88.8089 -1.7965 -0.688751 0
M  V30 912 O 88.1019 -1.19535 -1.4974 0
M  V30 913 C 88.2959 -3.36833 1.19491 0
M  V30 914 C 88.1249 -3.59653 2.69963 0
M  V30 915 C 86.8949 -3.76234 3.37307 0
M  V30 916 C 89.0929 -3.59091 3.68182 0
M  V30 917 N 87.0749 -3.86922 4.76618 0
M  V30 918 C 88.4459 -3.75659 4.93235 0
M  V30 919 C 90.5009 -3.42255 3.61616 0
M  V30 920 C 89.2039 -3.77133 6.12506 0
M  V30 921 C 91.2299 -3.45018 4.8033 0
M  V30 922 C 90.5919 -3.62096 6.04207 0
M  V30 923 H 86.6909 -0.705876 0.336546 0
M  V30 924 H 89.2749 -1.40602 1.34682 0
M  V30 925 H 87.4459 -3.82873 0.652884 0
M  V30 926 H 89.1779 -3.95305 0.866966 0
M  V30 927 H 85.9329 -3.76193 2.87708 0
M  V30 928 H 86.3569 -3.96055 5.49062 0
M  V30 929 H 90.9989 -3.27986 2.66805 0
M  V30 930 H 88.7169 -3.90186 7.07659 0
M  V30 931 H 92.3029 -3.33246 4.76905 0
M  V30 932 H 91.1829 -3.64142 6.94529 0
M  V30 933 N 88.686 -0.835752 -1.33615 0
M  V30 934 C 89.616 -0.281739 -2.31794 0
M  V30 935 C 90.597 0.608833 -1.58831 0
M  V30 936 O 91.782 0.533035 -1.86741 0
M  V30 937 C 88.912 0.546612 -3.42971 0
M  V30 938 C 87.866 -0.247904 -4.27281 0
M  V30 939 C 87.192 0.704001 -5.30045 0
M  V30 940 C 88.492 -1.46324 -5.01385 0
M  V30 941 H 90.186 -1.10206 -2.78379 0
M  V30 942 H 87.732 -0.531388 -1.33837 0
M  V30 943 H 89.685 0.944467 -4.1068 0
M  V30 944 H 88.409 1.40011 -2.95067 0
M  V30 945 H 87.068 -0.627281 -3.61194 0
M  V30 946 H 86.716 1.55381 -4.78399 0
M  V30 947 H 86.416 0.176524 -5.87335 0
M  V30 948 H 87.94 1.09944 -6.0062 0
M  V30 949 H 89.354 -1.13871 -5.61877 0
M  V30 950 H 87.751 -1.92728 -5.6831 0
M  V30 951 H 88.821 -2.23467 -4.30338 0
M  V30 952 N 90.1641 1.46063 -0.591896 0
M  V30 953 C 91.1141 2.27458 0.157172 0
M  V30 954 C 92.0981 1.3641 0.853301 0
M  V30 955 O 93.2901 1.60517 0.74588 0
M  V30 956 C 90.4191 3.22956 1.16423 0
M  V30 957 C 89.5051 4.2149 0.469742 0
M  V30 958 N 89.8961 5.03519 -0.479839 0
M  V30 959 C 88.1941 4.40161 0.719319 0
M  V30 960 C 88.8951 5.74904 -0.886591 0
M  V30 961 N 87.8711 5.43097 -0.233731 0
M  V30 962 H 91.6731 2.88272 -0.572392 0
M  V30 963 H 89.1871 1.57024 -0.414375 0
M  V30 964 H 91.1841 3.79986 1.71513 0
M  V30 965 H 89.8441 2.63701 1.89451 0
M  V30 966 H 90.8551 5.1078 -0.855823 0
M  V30 967 H 87.5321 3.92046 1.43548 0
M  V30 968 H 88.9221 6.50844 -1.66888 0
M  V30 969 N 91.6422 0.330177 1.54103 0
M  V30 970 C 92.5892 -0.532762 2.24567 0
M  V30 971 C 93.5592 -1.10635 1.23892 0
M  V30 972 O 94.7442 -1.14546 1.5259 0
M  V30 973 C 91.8842 -1.6845 3.01195 0
M  V30 974 C 90.9972 -1.13951 4.167 0
M  V30 975 C 90.1322 -2.25746 4.80845 0
M  V30 976 C 89.1712 -1.6853 5.88442 0
M  V30 977 N 88.3082 -2.74014 6.46421 0
M  V30 978 H 93.1482 0.0746905 2.97906 0
M  V30 979 H 90.6852 0.048632 1.4702 0
M  V30 980 H 92.6432 -2.36234 3.43874 0
M  V30 981 H 91.2732 -2.26314 2.30178 0
M  V30 982 H 90.3252 -0.35301 3.78758 0
M  V30 983 H 91.6372 -0.680892 4.94131 0
M  V30 984 H 90.7912 -3.01422 5.26526 0
M  V30 985 H 89.5302 -2.74947 4.0281 0
M  V30 986 H 88.5352 -0.913543 5.42157 0
M  V30 987 H 89.7602 -1.20198 6.68378 0
M  V30 988 H 87.7062 -3.22494 5.71256 0
M  V30 989 H 87.6232 -2.32735 7.19285 0
M  V30 990 H 88.8912 -3.49499 6.96757 0
M  V30 991 N 93.1203 -1.57491 0.0584922 0
M  V30 992 C 94.0523 -2.08916 -0.942694 0
M  V30 993 C 95.0653 -1.0185 -1.27006 0
M  V30 994 O 96.2543 -1.29398 -1.22957 0
M  V30 995 C 93.3543 -2.52341 -2.26224 0
M  V30 996 C 92.5273 -3.82827 -2.1157 0
M  V30 997 C 91.5863 -4.12487 -3.26712 0
M  V30 998 O 90.6123 -4.82295 -3.02292 0
M  V30 999 N 91.8143 -3.64978 -4.5141 0
M  V30 1000 H 94.5793 -2.95437 -0.503722 0
M  V30 1001 H 92.1403 -1.61397 -0.12757 0
M  V30 1002 H 94.1323 -2.69254 -3.02133 0
M  V30 1003 H 92.7023 -1.7103 -2.61663 0
M  V30 1004 H 91.9223 -3.75425 -1.20208 0
M  V30 1005 H 93.2103 -4.68263 -1.99015 0
M  V30 1006 H 92.6083 -3.08558 -4.7414 0
M  V30 1007 H 91.1653 -3.87115 -5.2439 0
M  V30 1008 N 94.5984 0.214957 -1.56127 0
M  V30 1009 C 95.8754 0.963093 -1.70247 0
M  V30 1010 C 96.2554 2.02166 -0.60764 0
M  V30 1011 O 95.6034 2.25244 0.384385 0
M  V30 1012 C 95.8134 1.56756 -3.11815 0
M  V30 1013 C 97.1614 2.0573 -3.7143 0
M  V30 1014 O 98.1854 1.66637 -3.14818 0
M  V30 1015 O 97.0444 2.77603 -4.70743 0
M  V30 1016 H 94.1384 0.450321 -0.693643 0
M  V30 1017 H 96.6844 0.206219 -1.68442 0
M  V30 1018 H 95.4564 0.803533 -3.82961 0
M  V30 1019 H 95.0794 2.3898 -3.17765 0
M  V30 1020 N 96.0765 1.50051 0.48192 0
M  V30 1021 C 97.3015 1.64508 1.26301 0
M  V30 1022 C 97.7265 0.323851 1.85291 0
M  V30 1023 O 97.0845 -0.710969 1.66778 0
M  V30 1024 C 97.1325 2.7305 2.35533 0
M  V30 1025 O 96.2365 2.3355 3.39895 0
M  V30 1026 H 95.5775 0.549978 0.372048 0
M  V30 1027 H 98.1075 1.9636 0.574786 0
M  V30 1028 H 98.1175 2.95799 2.8101 0
M  V30 1029 H 96.7925 3.68946 1.91967 0
M  V30 1030 H 95.3695 2.21205 3.00204 0
M  V30 1031 N 97.5546 -0.734337 1.39446 0
M  V30 1032 C 98.7796 -1.52866 1.40167 0
M  V30 1033 C 99.2046 -1.881 -0.00171513 0
M  V30 1034 O 98.5626 -1.51957 -0.988879 0
M  V30 1035 C 98.6106 -2.79235 2.28167 0
M  V30 1036 O 97.7146 -3.75185 1.71201 0
M  V30 1037 H 97.0556 -0.461618 0.477289 0
M  V30 1038 H 99.5856 -0.905949 1.8345 0
M  V30 1039 H 99.5956 -3.27963 2.42702 0
M  V30 1040 H 98.2706 -2.52923 3.30156 0
M  V30 1041 H 96.8476 -3.33958 1.65912 0
M  V30 1042 N 99.0327 -1.24633 -0.964593 0
M  V30 1043 C 100.281 -1.08573 -1.70459 0
M  V30 1044 C 100.602 0.375655 -1.91347 0
M  V30 1045 O 99.8717 1.26779 -1.49345 0
M  V30 1046 H 98.4517 -0.398784 -0.631649 0
M  V30 1047 H 101.114 -1.56601 -1.16026 0
M  V30 1048 H 100.21 -1.58623 -2.68785 0
M  V30 1049 N 100.511 1.16574 -1.06058 0
M  V30 1050 C 101.441 2.23057 -0.690488 0
M  V30 1051 C 102.422 1.67141 0.315901 0
M  V30 1052 O 103.607 1.93253 0.191556 0
M  V30 1053 C 100.737 3.47222 -0.073625 0
M  V30 1054 C 99.6908 4.16016 -1.00573 0
M  V30 1055 C 99.0168 5.34104 -0.252289 0
M  V30 1056 C 100.317 4.67264 -2.33371 0
M  V30 1057 H 102.011 2.54271 -1.58072 0
M  V30 1058 H 99.5568 1.22218 -0.76149 0
M  V30 1059 H 101.51 4.20939 0.19714 0
M  V30 1060 H 100.234 3.15302 0.85161 0
M  V30 1061 H 98.8928 3.44223 -1.2612 0
M  V30 1062 H 98.5408 4.98437 0.675988 0
M  V30 1063 H 98.2408 5.81072 -0.873455 0
M  V30 1064 H 99.7648 6.10599 0.0109857 0
M  V30 1065 H 101.179 5.32573 -2.12223 0
M  V30 1066 H 99.5758 5.24843 -2.90963 0
M  V30 1067 H 100.646 3.83602 -2.96611 0
M  V30 1068 N 101.989 0.842826 1.3317 0
M  V30 1069 C 103.405 0.531128 1.50503 0
M  V30 1070 C 103.605 -0.940734 1.78192 0
M  V30 1071 O 102.661 -1.72436 1.84451 0
M  V30 1072 C 103.974 1.40789 2.65705 0
M  V30 1073 C 105.522 1.40708 2.79589 0
M  V30 1074 C 105.997 2.26878 3.97857 0
M  V30 1075 N 107.488 2.24609 4.05099 0
M  V30 1076 C 108.223 2.88019 4.95815 0
M  V30 1077 N 107.719 3.60496 5.9162 0
M  V30 1078 N 109.512 2.77469 4.88843 0
M  V30 1079 H 101.663 1.79557 1.1346 0
M  V30 1080 H 103.926 0.766267 0.558156 0
M  V30 1081 H 103.632 2.454 2.51936 0
M  V30 1082 H 103.506 1.08677 3.61205 0
M  V30 1083 H 105.893 0.368668 2.92788 0
M  V30 1084 H 105.974 1.76829 1.84838 0
M  V30 1085 H 105.618 3.3078 3.85418 0
M  V30 1086 H 105.548 1.88096 4.91861 0
M  V30 1087 H 108.039 1.71906 3.36536 0
M  V30 1088 H 108.352 4.06076 6.57512 0
M  V30 1089 H 106.697 3.64604 5.91683 0
M  V30 1090 H 109.888 2.20406 4.12963 0
M  V30 1091 H 110.061 3.2717 5.59342 0
M  V30 1092 N 103.467 -1.45747 0.599634 0
M  V30 1093 C 104.397 -2.33235 -0.111306 0
M  V30 1094 C 105.378 -1.46359 -0.866781 0
M  V30 1095 O 106.563 -1.75146 -0.838904 0
M  V30 1096 C 103.693 -3.28932 -1.11451 0
M  V30 1097 C 102.647 -4.25381 -0.472772 0
M  V30 1098 C 101.973 -5.1071 -1.58365 0
M  V30 1099 C 103.273 -5.18831 0.600948 0
M  V30 1100 H 104.967 -2.92927 0.61919 0
M  V30 1101 H 102.513 -1.40857 0.299215 0
M  V30 1102 H 104.466 -3.89002 -1.62036 0
M  V30 1103 H 103.19 -2.67381 -1.8755 0
M  V30 1104 H 101.849 -3.66598 0.0121472 0
M  V30 1105 H 101.497 -4.45533 -2.33473 0
M  V30 1106 H 101.197 -5.7604 -1.15982 0
M  V30 1107 H 102.721 -5.73647 -2.09194 0
M  V30 1108 H 104.135 -5.73019 0.179491 0
M  V30 1109 H 102.532 -5.92595 0.946076 0
M  V30 1110 H 103.602 -4.6174 1.48068 0
M  V30 1111 N 104.945 -0.338344 -1.53925 0
M  V30 1112 C 106.191 0.252842 -2.01822 0
M  V30 1113 C 106.546 1.48612 -1.22197 0
M  V30 1114 O 105.839 1.89238 -0.299892 0
M  V30 1115 C 106.033 0.62448 -3.51902 0
M  V30 1116 C 105.862 -0.571235 -4.46057 0
M  V30 1117 C 104.632 -1.07493 -4.93734 0
M  V30 1118 C 106.83 -1.42807 -4.94076 0
M  V30 1119 N 104.812 -2.23351 -5.71828 0
M  V30 1120 C 106.183 -2.43362 -5.70241 0
M  V30 1121 C 108.238 -1.45412 -4.76193 0
M  V30 1122 C 106.941 -3.46346 -6.30426 0
M  V30 1123 C 108.967 -2.47274 -5.37224 0
M  V30 1124 C 108.329 -3.46555 -6.13253 0
M  V30 1125 H 104.428 0.0559669 -0.779995 0
M  V30 1126 H 107.012 -0.476732 -1.88773 0
M  V30 1127 H 105.183 1.32317 -3.65167 0
M  V30 1128 H 106.915 1.19841 -3.86549 0
M  V30 1129 H 103.67 -0.643848 -4.69203 0
M  V30 1130 H 104.094 -2.81834 -6.15548 0
M  V30 1131 H 108.736 -0.700171 -4.16962 0
M  V30 1132 H 106.454 -4.22638 -6.88769 0
M  V30 1133 H 110.04 -2.50109 -5.25297 0
M  V30 1134 H 108.92 -4.24083 -6.59638 0
M  V30 1135 N 106.423 1.57458 -0.0668435 0
M  V30 1136 C 107.37 2.12439 0.902122 0
M  V30 1137 C 108.34 1.03565 1.2986 0
M  V30 1138 O 109.525 1.312 1.38532 0
M  V30 1139 C 106.665 2.6865 2.16614 0
M  V30 1140 C 105.778 3.91663 1.82274 0
M  V30 1141 C 104.913 4.36134 3.0325 0
M  V30 1142 C 103.952 5.51808 2.64904 0
M  V30 1143 N 103.089 5.9126 3.78624 0
M  V30 1144 H 107.929 2.94934 0.426382 0
M  V30 1145 H 105.466 1.4575 0.198819 0
M  V30 1146 H 107.424 2.99346 2.90599 0
M  V30 1147 H 106.054 1.88928 2.61737 0
M  V30 1148 H 105.106 3.6746 0.983719 0
M  V30 1149 H 106.418 4.75693 1.50059 0
M  V30 1150 H 105.572 4.68465 3.85519 0
M  V30 1151 H 104.311 3.50948 3.38655 0
M  V30 1152 H 103.316 5.19133 1.81055 0
M  V30 1153 H 104.541 6.38722 2.30675 0
M  V30 1154 H 102.487 5.09024 4.138 0
M  V30 1155 H 102.404 6.70018 3.5016 0
M  V30 1156 H 103.672 6.28212 4.61486 0
M  V30 1157 N 107.901 -0.206675 1.56239 0
M  V30 1158 C 109.317 -0.557025 1.49564 0
M  V30 1159 C 109.517 -1.86424 0.764735 0
M  V30 1160 O 108.573 -2.50584 0.310491 0
M  V30 1161 C 109.886 -0.622478 2.94186 0
M  V30 1162 C 111.434 -0.712099 3.04792 0
M  V30 1163 C 111.909 -0.808767 4.50803 0
M  V30 1164 N 113.4 -0.8726 4.54907 0
M  V30 1165 C 114.135 -0.967365 5.65181 0
M  V30 1166 N 113.631 -1.02515 6.85173 0
M  V30 1167 N 115.424 -1.00366 5.53067 0
M  V30 1168 H 107.575 0.650943 2.02179 0
M  V30 1169 H 109.838 0.230387 0.919579 0
M  V30 1170 H 109.544 0.268727 3.50672 0
M  V30 1171 H 109.418 -1.4811 3.46905 0
M  V30 1172 H 111.805 -1.59374 2.48363 0
M  V30 1173 H 111.886 0.172489 2.55218 0
M  V30 1174 H 111.53 0.0684754 5.07854 0
M  V30 1175 H 111.46 -1.70899 4.98098 0
M  V30 1176 H 113.951 -0.837657 3.68499 0
M  V30 1177 H 114.264 -1.09765 7.64965 0
M  V30 1178 H 112.609 -0.994026 6.87855 0
M  V30 1179 H 115.8 -0.95527 4.58249 0
M  V30 1180 H 115.973 -1.07405 6.39037 0
M  V30 1181 N 109.379 -1.50304 -0.473955 0
M  V30 1182 C 110.795 -1.37667 -0.807466 0
M  V30 1183 C 110.995 -0.430555 -1.96846 0
M  V30 1184 O 110.051 0.127874 -2.52176 0
M  V30 1185 C 111.364 -2.78974 -1.12223 0
M  V30 1186 C 112.912 -2.87868 -1.22885 0
M  V30 1187 C 113.387 -4.30003 -1.57676 0
M  V30 1188 N 114.878 -4.3294 -1.64673 0
M  V30 1189 C 115.613 -5.3991 -1.93091 0
M  V30 1190 N 115.109 -6.57092 -2.1955 0
M  V30 1191 N 116.902 -5.27351 -1.94569 0
M  V30 1192 H 109.053 -2.10394 0.291212 0
M  V30 1193 H 111.316 -0.945575 0.0677609 0
M  V30 1194 H 111.022 -3.50031 -0.342229 0
M  V30 1195 H 110.896 -3.16038 -2.05913 0
M  V30 1196 H 113.283 -2.17032 -1.99953 0
M  V30 1197 H 113.364 -2.54352 -0.271814 0
M  V30 1198 H 113.008 -5.01375 -0.81149 0
M  V30 1199 H 112.938 -4.61004 -2.54525 0
M  V30 1200 H 115.429 -3.48441 -1.46277 0
M  V30 1201 H 115.742 -7.34425 -2.405 0
M  V30 1202 H 114.087 -6.60272 -2.16948 0
M  V30 1203 H 117.278 -4.34801 -1.73394 0
M  V30 1204 H 117.451 -6.10805 -2.16381 0
M  V30 1205 N 110.857 0.726932 -1.39834 0
M  V30 1206 C 112.103 1.48771 -1.38704 0
M  V30 1207 C 112.458 1.92394 0.0146387 0
M  V30 1208 O 111.751 1.64474 0.982797 0
M  V30 1209 C 111.945 2.73495 -2.30077 0
M  V30 1210 C 111.774 2.42068 -3.78989 0
M  V30 1211 C 110.544 2.33966 -4.4787 0
M  V30 1212 C 112.742 2.0708 -4.70768 0
M  V30 1213 N 110.724 1.95095 -5.82075 0
M  V30 1214 C 112.095 1.78719 -5.93683 0
M  V30 1215 C 114.15 1.93618 -4.58712 0
M  V30 1216 C 112.853 1.3825 -7.05889 0
M  V30 1217 C 114.879 1.54553 -5.70848 0
M  V30 1218 C 114.241 1.27082 -6.92842 0
M  V30 1219 H 110.34 0.542919 -0.562817 0
M  V30 1220 H 112.924 0.84408 -1.75452 0
M  V30 1221 H 111.095 3.35625 -1.95474 0
M  V30 1222 H 112.827 3.39755 -2.19883 0
M  V30 1223 H 109.582 2.51331 -4.0141 0
M  V30 1224 H 110.006 1.7823 -6.53118 0
M  V30 1225 H 114.648 2.13522 -3.64922 0
M  V30 1226 H 112.366 1.17088 -7.99572 0
M  V30 1227 H 115.952 1.44731 -5.6351 0
M  V30 1228 H 114.832 0.973069 -7.78139 0
M  V30 1229 N 112.336 1.25143 0.95797 0
M  V30 1230 C 113.583 1.09692 1.70217 0
M  V30 1231 C 113.911 -0.362654 1.91089 0
M  V30 1232 O 113.166 -1.28386 1.47701 0
M  V30 1233 C 113.465 1.79272 3.09187 0
M  V30 1234 C 113.131 3.29196 3.08125 0
M  V30 1235 C 111.793 3.70096 3.07543 0
M  V30 1236 C 114.145 4.24995 3.0171 0
M  V30 1237 C 111.473 5.05213 2.9829 0
M  V30 1238 C 113.825 5.60132 2.93999 0
M  V30 1239 C 112.489 6.00365 2.9175 0
M  V30 1240 H 111.759 0.401393 0.622868 0
M  V30 1241 H 114.406 1.55372 1.11945 0
M  V30 1242 H 112.711 1.26014 3.70982 0
M  V30 1243 H 114.408 1.64773 3.65583 0
M  V30 1244 H 110.998 2.96651 3.09348 0
M  V30 1245 H 115.182 3.9439 3.01281 0
M  V30 1246 H 110.438 5.35569 2.94916 0
M  V30 1247 H 114.612 6.3406 2.87996 0
M  V30 1248 H 112.239 7.05023 2.84336 0
M  V30 1249 N 113.814 -1.1601 1.06675 0
M  V30 1250 C 115.06 -1.86909 0.786945 0
M  V30 1251 C 115.393 -1.81717 -0.685018 0
M  V30 1252 O 114.668 -1.23551 -1.50218 0
M  V30 1253 C 114.951 -3.36313 1.28707 0
M  V30 1254 C 114.804 -3.50175 2.82308 0
M  V30 1255 C 116.123 -4.3084 0.898071 0
M  V30 1256 H 113.242 -0.678677 0.287343 0
M  V30 1257 H 115.884 -1.36336 1.32334 0
M  V30 1258 H 114.034 -3.79513 0.830768 0
M  V30 1259 H 115.706 -3.15886 3.36175 0
M  V30 1260 H 113.949 -2.91959 3.20847 0
M  V30 1261 H 114.62 -4.55116 3.12368 0
M  V30 1262 H 117.096 -3.95561 1.29114 0
M  V30 1263 H 115.972 -5.33876 1.27543 0
M  V30 1264 H 116.233 -4.41662 -0.196651 0
M  V30 1265 N 115.292 -0.849877 -1.32721 0
M  V30 1266 C 116.222 -0.306308 -2.31482 0
M  V30 1267 C 117.203 0.591952 -1.59468 0
M  V30 1268 O 118.388 0.513199 -1.87296 0
M  V30 1269 C 115.518 0.510204 -3.43532 0
M  V30 1270 C 114.472 -0.293209 -4.26994 0
M  V30 1271 C 113.798 0.647743 -5.30762 0
M  V30 1272 C 115.098 -1.51634 -4.99804 0
M  V30 1273 H 116.792 -1.13153 -2.77195 0
M  V30 1274 H 114.338 -0.545553 -1.33266 0
M  V30 1275 H 116.291 0.900856 -4.11658 0
M  V30 1276 H 115.015 1.36874 -2.96535 0
M  V30 1277 H 113.674 -0.665555 -3.60508 0
M  V30 1278 H 113.322 1.50299 -4.8002 0
M  V30 1279 H 113.022 0.11422 -5.87489 0
M  V30 1280 H 114.546 1.03567 -6.01753 0
M  V30 1281 H 115.96 -1.19824 -5.60638 0
M  V30 1282 H 114.357 -1.98745 -5.66234 0
M  V30 1283 H 115.427 -2.28018 -4.27943 0
M  V30 1284 N 116.77 1.45427 -0.607355 0
M  V30 1285 C 117.995 2.07124 -0.107006 0
M  V30 1286 C 118.42 1.44906 1.19933 0
M  V30 1287 O 117.778 0.541687 1.73019 0
M  V30 1288 C 117.826 3.60595 0.0194119 0
M  V30 1289 O 116.93 3.98285 1.0697 0
M  V30 1290 H 116.271 0.659868 -0.0739597 0
M  V30 1291 H 118.801 1.86683 -0.837297 0
M  V30 1292 H 118.811 4.07419 0.2177 0
M  V30 1293 H 117.486 4.05266 -0.934453 0
M  V30 1294 H 116.063 3.63133 0.847889 0
M  V30 1295 N 118.248 0.346503 1.53744 0
M  V30 1296 C 119.496 -0.248612 2.00565 0
M  V30 1297 C 119.817 -1.5083 1.23593 0
M  V30 1298 O 119.087 -1.92858 0.343912 0
M  V30 1299 H 117.667 -0.0948564 0.740953 0
M  V30 1300 H 120.329 0.468341 1.89189 0
M  V30 1301 H 119.425 -0.488994 3.08245 0
M  V30 1302 N 119.726 -1.57421 0.075193 0
M  V30 1303 C 120.676 -2.09441 -0.901025 0
M  V30 1304 C 121.66 -1.00486 -1.25663 0
M  V30 1305 O 122.852 -1.2679 -1.23504 0
M  V30 1306 C 119.981 -2.66233 -2.16737 0
M  V30 1307 C 119.067 -3.82198 -1.83808 0
M  V30 1308 N 119.458 -4.91028 -1.21345 0
M  V30 1309 C 117.756 -3.91558 -2.13538 0
M  V30 1310 C 118.457 -5.71852 -1.06585 0
M  V30 1311 N 117.433 -5.20233 -1.57667 0
M  V30 1312 H 121.235 -2.90972 -0.413815 0
M  V30 1313 H 118.749 -1.6189 -0.128601 0
M  V30 1314 H 120.746 -3.01819 -2.87595 0
M  V30 1315 H 119.406 -1.8615 -2.66042 0
M  V30 1316 H 120.417 -5.10323 -0.88268 0
M  V30 1317 H 117.094 -3.22454 -2.65197 0
M  V30 1318 H 118.484 -6.69401 -0.578933 0
M  V30 1319 N 121.204 0.198386 -1.56346 0
M  V30 1320 C 122.444 0.92609 -1.82217 0
M  V30 1321 C 122.808 1.80584 -0.652195 0
M  V30 1322 O 124.009 2.56907 -0.790716 0
M  V30 1323 C 122.28 1.72354 -3.13096 0
M  V30 1324 S 123.839 2.50371 -3.6036 0
M  V30 1325 H 120.657 0.310677 -0.639532 0
M  V30 1326 H 123.259 0.189755 -1.94577 0
M  V30 1327 H 121.963 1.0678 -3.96265 0
M  V30 1328 H 121.494 2.50175 -3.03605 0
M  V30 1329 H 123.509 3.74488 -3.25535 0
M  V30 1330 N 122.682 1.50554 0.465978 0
M  V30 1331 C 123.612 1.72722 1.57128 0
M  V30 1332 C 124.593 0.576294 1.6004 0
M  V30 1333 O 125.778 0.81598 1.76225 0
M  V30 1334 C 122.908 1.82605 2.95419 0
M  V30 1335 C 121.862 2.97835 3.07373 0
M  V30 1336 C 121.188 2.92867 4.47363 0
M  V30 1337 C 122.488 4.38265 2.84114 0
M  V30 1338 H 124.182 2.65267 1.38829 0
M  V30 1339 H 121.728 1.2765 0.666441 0
M  V30 1340 H 123.681 1.96698 3.72677 0
M  V30 1341 H 122.405 0.866858 3.14886 0
M  V30 1342 H 121.064 2.83401 2.3255 0
M  V30 1343 H 120.712 1.94783 4.63755 0
M  V30 1344 H 120.412 3.70227 4.56296 0
M  V30 1345 H 121.936 3.09015 5.26633 0
M  V30 1346 H 123.35 4.53198 3.51118 0
M  V30 1347 H 121.747 5.17115 3.04487 0
M  V30 1348 H 122.817 4.50281 1.7993 0
M  V30 1349 N 124.16 -0.719506 1.40217 0
M  V30 1350 C 125.407 -1.47933 1.38283 0
M  V30 1351 C 125.735 -1.94493 -0.0161536 0
M  V30 1352 O 124.99 -1.68224 -0.999956 0
M  V30 1353 C 125.289 -2.72271 2.31524 0
M  V30 1354 C 124.955 -2.44496 3.78857 0
M  V30 1355 C 123.617 -2.36631 4.18998 0
M  V30 1356 C 125.969 -2.21104 4.71977 0
M  V30 1357 C 123.297 -2.03437 5.503 0
M  V30 1358 C 125.649 -1.89423 6.03574 0
M  V30 1359 C 124.313 -1.80038 6.42762 0
M  V30 1360 H 123.583 -0.541325 0.506012 0
M  V30 1361 H 126.23 -0.824502 1.72842 0
M  V30 1362 H 124.535 -3.42572 1.90137 0
M  V30 1363 H 126.232 -3.30348 2.27313 0
M  V30 1364 H 122.822 -2.51503 3.47051 0
M  V30 1365 H 127.006 -2.26139 4.41786 0
M  V30 1366 H 122.262 -1.94705 5.79569 0
M  V30 1367 H 126.436 -1.70336 6.75247 0
M  V30 1368 H 124.063 -1.54083 7.44421 0
M  V30 1369 N 125.638 -1.25649 -0.95132 0
M  V30 1370 C 126.868 -1.13179 -1.72841 0
M  V30 1371 C 127.276 0.316827 -1.86528 0
M  V30 1372 O 126.619 1.22948 -1.3649 0
M  V30 1373 C 126.681 -1.71644 -3.15878 0
M  V30 1374 C 126.345 -3.20667 -3.25609 0
M  V30 1375 C 127.342 -4.17616 -3.09666 0
M  V30 1376 C 125.027 -3.6094 -3.49324 0
M  V30 1377 C 127.021 -5.52817 -3.17289 0
M  V30 1378 C 124.708 -4.96278 -3.56584 0
M  V30 1379 C 125.706 -5.92025 -3.40581 0
M  V30 1380 O 125.394 -7.24899 -3.47528 0
M  V30 1381 H 125.126 -0.395389 -0.54831 0
M  V30 1382 H 127.68 -1.66566 -1.20187 0
M  V30 1383 H 125.91 -1.12707 -3.69911 0
M  V30 1384 H 127.599 -1.54225 -3.75459 0
M  V30 1385 H 128.365 -3.87842 -2.91211 0
M  V30 1386 H 124.244 -2.86907 -3.6084 0
M  V30 1387 H 127.788 -6.2753 -3.04716 0
M  V30 1388 H 123.685 -5.25716 -3.74556 0
M  V30 1389 H 124.453 -7.33039 -3.64138 0
M  V30 1390 N 127.117 1.15442 -1.07289 0
M  V30 1391 C 128.347 1.89821 -0.815576 0
M  V30 1392 C 128.755 1.7823 0.634867 0
M  V30 1393 O 128.098 1.13152 1.44715 0
M  V30 1394 C 128.16 3.40817 -1.14385 0
M  V30 1395 C 127.824 3.76193 -2.59476 0
M  V30 1396 C 128.821 3.77269 -3.57721 0
M  V30 1397 C 126.506 4.0652 -2.95037 0
M  V30 1398 C 128.5 4.08176 -4.89562 0
M  V30 1399 C 126.187 4.37092 -4.27076 0
M  V30 1400 C 127.185 4.37902 -5.24148 0
M  V30 1401 O 126.873 4.67741 -6.53815 0
M  V30 1402 H 126.605 0.608465 -0.294528 0
M  V30 1403 H 129.159 1.472 -1.43252 0
M  V30 1404 H 127.389 3.83835 -0.469865 0
M  V30 1405 H 129.078 3.96485 -0.869179 0
M  V30 1406 H 129.844 3.5394 -3.3159 0
M  V30 1407 H 125.723 4.05049 -2.20128 0
M  V30 1408 H 129.267 4.08723 -5.65324 0
M  V30 1409 H 125.164 4.59889 -4.5296 0
M  V30 1410 H 125.932 4.85509 -6.58957 0
M  V30 1411 N 128.595 0.856903 1.32268 0
M  V30 1412 C 129.542 0.301172 2.28827 0
M  V30 1413 C 130.512 -0.593104 1.5515 0
M  V30 1414 O 131.697 -0.527537 1.83362 0
M  V30 1415 C 128.837 -0.502523 3.41422 0
M  V30 1416 C 127.95 0.417797 4.29975 0
M  V30 1417 C 127.085 -0.398749 5.29701 0
M  V30 1418 C 126.124 0.518827 6.09897 0
M  V30 1419 N 125.261 -0.260674 7.01616 0
M  V30 1420 H 130.101 1.12983 2.75751 0
M  V30 1421 H 127.638 0.568582 1.35667 0
M  V30 1422 H 129.596 -0.984141 4.05426 0
M  V30 1423 H 128.226 -1.29599 2.95642 0
M  V30 1424 H 127.278 1.01781 3.66531 0
M  V30 1425 H 128.59 1.12191 4.86019 0
M  V30 1426 H 127.744 -0.943435 5.9932 0
M  V30 1427 H 126.483 -1.13622 4.7428 0
M  V30 1428 H 125.488 1.07538 5.39181 0
M  V30 1429 H 126.713 1.25495 6.67404 0
M  V30 1430 H 124.659 -0.981198 6.4862 0
M  V30 1431 H 124.576 0.384364 7.55022 0
M  V30 1432 H 125.844 -0.787014 7.75517 0
M  V30 1433 N 130.073 -1.45103 0.615059 0
M  V30 1434 C 131.35 -1.95549 0.0448276 0
M  V30 1435 C 131.73 -1.55737 -1.4251 0
M  V30 1436 O 131.078 -0.823556 -2.13143 0
M  V30 1437 C 131.288 -3.48098 0.250785 0
M  V30 1438 C 132.636 -4.24384 0.135509 0
M  V30 1439 O 133.66 -3.55738 0.181299 0
M  V30 1440 O 132.519 -5.46493 0.0268878 0
M  V30 1441 H 129.613 -0.8264 -0.0314845 0
M  V30 1442 H 132.159 -1.55232 0.685642 0
M  V30 1443 H 130.931 -3.7007 1.27139 0
M  V30 1444 H 130.554 -3.95323 -0.424937 0
M  V30 1445 N 131.551 -0.354651 -1.53558 0
M  V30 1446 C 132.776 0.242153 -2.05981 0
M  V30 1447 C 133.201 1.42553 -1.2272 0
M  V30 1448 O 132.559 1.79656 -0.243604 0
M  V30 1449 C 132.607 0.624367 -3.55154 0
M  V30 1450 O 131.711 1.72301 -3.74681 0
M  V30 1451 H 131.052 0.0378432 -0.662921 0
M  V30 1452 H 133.582 -0.512087 -1.98088 0
M  V30 1453 H 133.592 0.898433 -3.97985 0
M  V30 1454 H 132.267 -0.240989 -4.15201 0
M  V30 1455 H 130.844 1.44535 -3.4375 0
M  V30 1456 N 133.029 1.57378 -0.0835403 0
M  V30 1457 C 134.445 1.57246 0.273109 0
M  V30 1458 C 134.645 1.09385 1.69225 0
M  V30 1459 O 133.701 0.765051 2.40631 0
M  V30 1460 C 135.014 3.00614 0.0720628 0
M  V30 1461 C 136.562 3.12684 0.1407 0
M  V30 1462 C 137.037 4.57989 -0.0322094 0
M  V30 1463 N 138.528 4.63194 0.0230085 0
M  V30 1464 C 139.263 5.73335 -0.0861941 0
M  V30 1465 N 138.759 6.9235 -0.24958 0
M  V30 1466 N 140.552 5.62093 -0.0282886 0
M  V30 1467 H 132.703 1.86801 -1.0109 0
M  V30 1468 H 134.966 0.861687 -0.395222 0
M  V30 1469 H 134.672 3.39786 -0.907662 0
M  V30 1470 H 134.546 3.68193 0.81936 0
M  V30 1471 H 136.933 2.73391 1.11092 0
M  V30 1472 H 137.014 2.47719 -0.637896 0
M  V30 1473 H 136.658 4.97973 -0.999247 0
M  V30 1474 H 136.588 5.21 0.765937 0
M  V30 1475 H 139.079 3.77613 0.14722 0
M  V30 1476 H 139.392 7.72117 -0.324733 0
M  V30 1477 H 137.737 6.94415 -0.285097 0
M  V30 1478 H 140.928 4.67997 0.0981408 0
M  V30 1479 H 141.101 6.47895 -0.116845 0
M  V30 1480 N 134.507 -0.190092 1.56449 0
M  V30 1481 C 135.417 -1.25591 1.98152 0
M  V30 1482 C 136.433 -1.49519 0.889944 0
M  V30 1483 O 137.609 -1.62036 1.19609 0
M  V30 1484 C 134.674 -2.57916 2.3169 0
M  V30 1485 C 133.735 -2.42015 3.5458 0
M  V30 1486 C 132.968 -3.6803 3.8651 0
M  V30 1487 O 133.191 -4.72413 3.1966 0
M  V30 1488 O 132.125 -3.6326 4.79923 0
M  V30 1489 H 135.951 -0.931988 2.89046 0
M  V30 1490 H 133.536 -0.395488 1.4407 0
M  V30 1491 H 135.418 -3.36008 2.54316 0
M  V30 1492 H 134.093 -2.89925 1.43963 0
M  V30 1493 H 133 -1.62017 3.37196 0
M  V30 1494 H 134.333 -2.14937 4.4279 0
M  V30 1495 N 135.985 -1.50799 -0.457987 0
M  V30 1496 C 136.895 -1.73426 -1.57989 0
M  V30 1497 C 137.911 -0.617745 -1.62665 0
M  V30 1498 O 139.087 -0.897614 -1.80291 0
M  V30 1499 C 136.152 -1.83557 -2.94122 0
M  V30 1500 C 135.213 -3.07345 -2.99729 0
M  V30 1501 C 134.446 -3.16983 -4.29368 0
M  V30 1502 O 134.669 -2.33077 -5.20607 0
M  V30 1503 O 133.603 -4.09812 -4.40837 0
M  V30 1504 H 137.429 -2.68555 -1.41817 0
M  V30 1505 H 135.014 -1.35052 -0.638859 0
M  V30 1506 H 136.896 -1.92326 -3.74952 0
M  V30 1507 H 135.571 -0.916137 -3.10465 0
M  V30 1508 H 134.478 -3.04068 -2.1793 0
M  V30 1509 H 135.811 -3.9891 -2.88326 0
M  V30 1510 N 137.463 0.71206 -1.40597 0
M  V30 1511 C 138.688 1.50617 -1.42581 0
M  V30 1512 C 139.113 1.88079 -0.0282102 0
M  V30 1513 O 138.471 1.53511 0.964579 0
M  V30 1514 C 138.519 2.7557 -2.3258 0
M  V30 1515 O 137.623 3.72414 -1.77148 0
M  V30 1516 H 136.964 0.453966 -0.484573 0
M  V30 1517 H 139.494 0.876649 -1.84868 0
M  V30 1518 H 139.504 3.2406 -2.47889 0
M  V30 1519 H 138.179 2.47639 -3.34138 0
M  V30 1520 H 136.756 3.31276 -1.71204 0
M  V30 1521 N 138.941 1.26152 0.944643 0
M  V30 1522 C 140.187 1.11657 1.69294 0
M  V30 1523 C 140.52 -0.339926 1.91202 0
M  V30 1524 O 139.795 -1.24994 1.49019 0
M  V30 1525 C 140.078 1.88236 3.06984 0
M  V30 1526 C 139.931 3.41772 2.92424 0
M  V30 1527 C 141.25 1.67343 4.07043 0
M  V30 1528 H 138.369 0.407004 0.614424 0
M  V30 1529 H 141.011 1.55106 1.09737 0
M  V30 1530 H 139.161 1.51308 3.57824 0
M  V30 1531 H 140.833 3.88433 2.48832 0
M  V30 1532 H 139.076 3.68974 2.28124 0
M  V30 1533 H 139.747 3.90579 3.90067 0
M  V30 1534 H 142.223 1.99509 3.65151 0
M  V30 1535 H 141.099 2.23346 5.01406 0
M  V30 1536 H 141.36 0.617158 4.37771 0
M  V30 1537 N 140.419 -1.14872 1.07899 0
M  V30 1538 C 141.349 -2.2193 0.725887 0
M  V30 1539 C 142.33 -1.67622 -0.28927 0
M  V30 1540 O 143.515 -1.93533 -0.160787 0
M  V30 1541 C 140.645 -3.47061 0.128856 0
M  V30 1542 C 139.599 -4.14363 1.07178 0
M  V30 1543 C 138.925 -5.33636 0.337229 0
M  V30 1544 C 140.225 -4.63492 2.40775 0
M  V30 1545 H 141.919 -2.51724 1.62097 0
M  V30 1546 H 139.465 -1.20991 0.780838 0
M  V30 1547 H 141.418 -4.21199 -0.130147 0
M  V30 1548 H 140.142 -3.16617 -0.80134 0
M  V30 1549 H 138.801 -3.42173 1.3158 0
M  V30 1550 H 138.449 -4.99449 -0.596606 0
M  V30 1551 H 138.149 -5.79609 0.965788 0
M  V30 1552 H 139.673 -6.10539 0.0861567 0
M  V30 1553 H 141.087 -5.2913 2.20669 0
M  V30 1554 H 139.484 -5.20148 2.99276 0
M  V30 1555 H 140.554 -3.78834 3.02676 0
M  V30 1556 N 141.898 -0.863906 -1.31812 0
M  V30 1557 C 143.146 -0.470904 -1.96537 0
M  V30 1558 C 143.467 0.978771 -1.68657 0
M  V30 1559 O 142.737 1.6853 -0.998717 0
M  V30 1560 H 141.317 -0.171148 -0.72713 0
M  V30 1561 H 143.979 -1.10236 -1.60729 0
M  V30 1562 H 143.075 -0.623616 -3.05806 0
M  V30 1563 N 143.376 1.44774 -0.622745 0
M  V30 1564 C 144.601 2.06999 -0.128968 0
M  V30 1565 C 145.026 1.4617 1.1839 0
M  V30 1566 O 144.384 0.560007 1.72434 0
M  V30 1567 C 144.432 3.60595 -0.0188351 0
M  V30 1568 O 143.536 3.99398 1.02739 0
M  V30 1569 H 142.877 0.659047 -0.0809544 0
M  V30 1570 H 145.407 1.85784 -0.85705 0
M  V30 1571 H 145.417 4.07627 0.174476 0
M  V30 1572 H 144.092 4.04252 -0.977384 0
M  V30 1573 H 142.669 3.64011 0.809326 0
M  V30 1574 N 144.854 0.36279 1.53368 0
M  V30 1575 C 146.1 -0.228113 2.01513 0
M  V30 1576 C 146.433 -1.48648 1.2497 0
M  V30 1577 O 145.708 -1.91459 0.342616 0
M  V30 1578 C 145.991 -0.522884 3.56284 0
M  V30 1579 C 145.844 0.74892 4.43521 0
M  V30 1580 C 147.163 -1.32461 4.19693 0
M  V30 1581 H 144.282 -0.0814343 0.732487 0
M  V30 1582 H 146.924 0.48713 1.83649 0
M  V30 1583 H 145.074 -1.1322 3.71636 0
M  V30 1584 H 146.746 1.38648 4.39971 0
M  V30 1585 H 144.989 1.36986 4.11603 0
M  V30 1586 H 145.66 0.497667 5.49752 0
M  V30 1587 H 148.136 -0.809203 4.08156 0
M  V30 1588 H 147.012 -1.49961 5.28018 0
M  V30 1589 H 147.273 -2.33232 3.75573 0
M  V30 1590 N 146.332 -1.57332 0.0918853 0
M  V30 1591 C 147.262 -2.16872 -0.865371 0
M  V30 1592 C 148.243 -1.10118 -1.29646 0
M  V30 1593 O 149.428 -1.38242 -1.36392 0
M  V30 1594 C 146.558 -2.74649 -2.12569 0
M  V30 1595 C 145.512 -3.86747 -1.83333 0
M  V30 1596 C 144.838 -4.31212 -3.16166 0
M  V30 1597 C 146.138 -5.10089 -1.1228 0
M  V30 1598 H 147.832 -2.97114 -0.369307 0
M  V30 1599 H 145.378 -1.42918 -0.176194 0
M  V30 1600 H 147.331 -3.14952 -2.7997 0
M  V30 1601 H 146.055 -1.91657 -2.64452 0
M  V30 1602 H 144.714 -3.46978 -1.18331 0
M  V30 1603 H 144.362 -3.45115 -3.6593 0
M  V30 1604 H 144.062 -5.06788 -2.97388 0
M  V30 1605 H 145.586 -4.74146 -3.84731 0
M  V30 1606 H 147 -5.47582 -1.69785 0
M  V30 1607 H 145.397 -5.91073 -1.03693 0
M  V30 1608 H 146.467 -4.84786 -0.105041 0
M  V30 1609 N 147.81 0.181792 -1.56548 0
M  V30 1610 C 148.74 1.22765 -1.98623 0
M  V30 1611 C 149.721 1.46747 -0.860189 0
M  V30 1612 O 150.906 1.58259 -1.12551 0
M  V30 1613 C 148.036 2.56894 -2.33715 0
M  V30 1614 C 146.99 2.475 -3.49182 0
M  V30 1615 C 146.316 3.86023 -3.69986 0
M  V30 1616 C 147.616 1.98866 -4.82959 0
M  V30 1617 H 149.31 0.877942 -2.86239 0
M  V30 1618 H 146.856 0.42088 -1.37712 0
M  V30 1619 H 148.809 3.30253 -2.61746 0
M  V30 1620 H 147.533 2.93632 -1.42997 0
M  V30 1621 H 146.192 1.76596 -3.21262 0
M  V30 1622 H 145.84 4.20136 -2.76576 0
M  V30 1623 H 145.54 3.80609 -4.47672 0
M  V30 1624 H 147.064 4.60984 -4.00407 0
M  V30 1625 H 148.478 2.61992 -5.09934 0
M  V30 1626 H 146.875 2.04424 -5.64208 0
M  V30 1627 H 147.945 0.942465 -4.75653 0
M  V30 1628 N 149.288 1.51039 0.449983 0
M  V30 1629 C 150.699 1.557 1.03026 0
M  V30 1630 C 151.05 0.372939 1.92623 0
M  V30 1631 O 150.175 -0.511771 2.10261 0
M  V30 1632 C 150.77 2.82171 1.87523 0
M  V30 1633 C 149.329 2.89444 2.40622 0
M  V30 1634 C 148.476 2.50228 1.19504 0
M  V30 1635 H 151.427 1.56999 0.231745 0
M  V30 1636 H 151.448 2.65219 2.72835 0
M  V30 1637 H 150.96 3.68331 1.22286 0
M  V30 1638 H 149.061 2.07685 3.0935 0
M  V30 1639 H 149.174 3.92816 2.74285 0
M  V30 1640 H 147.538 2.03139 1.53644 0
M  V30 1641 H 148.321 3.38719 0.558972 0
M  V30 1642 N 150.766 -0.704594 1.40972 0
M  V30 1643 C 151.991 -1.49858 1.43378 0
M  V30 1644 C 152.416 -1.88061 0.038184 0
M  V30 1645 O 151.774 -1.5402 -0.956425 0
M  V30 1646 C 151.822 -2.74333 2.34038 0
M  V30 1647 O 150.926 -3.7147 1.7912 0
M  V30 1648 H 150.267 -0.45139 0.486974 0
M  V30 1649 H 152.797 -0.866832 1.8533 0
M  V30 1650 H 152.807 -3.22741 2.49604 0
M  V30 1651 H 151.482 -2.45863 3.35446 0
M  V30 1652 H 150.059 -3.30363 1.72958 0
M  V30 1653 N 152.244 -1.26651 -0.937939 0
M  V30 1654 C 153.474 -1.15006 -1.71631 0
M  V30 1655 C 153.882 0.297026 -1.86854 0
M  V30 1656 O 153.225 1.21493 -1.37786 0
M  V30 1657 C 153.287 -1.74984 -3.14039 0
M  V30 1658 C 152.951 -3.24103 -3.2219 0
M  V30 1659 C 153.948 -4.20877 -3.05219 0
M  V30 1660 C 151.633 -3.64625 -3.45476 0
M  V30 1661 C 153.627 -5.56151 -3.11408 0
M  V30 1662 C 151.314 -5.00032 -3.513 0
M  V30 1663 C 152.312 -5.95604 -3.34282 0
M  V30 1664 O 152 -7.28545 -3.3982 0
M  V30 1665 H 151.732 -0.401183 -0.544085 0
M  V30 1666 H 154.286 -1.67832 -1.18413 0
M  V30 1667 H 152.516 -1.16624 -3.68695 0
M  V30 1668 H 154.205 -1.58199 -3.73802 0
M  V30 1669 H 154.971 -3.90908 -2.87081 0
M  V30 1670 H 150.85 -2.90718 -3.57777 0
M  V30 1671 H 154.394 -6.30727 -2.98043 0
M  V30 1672 H 150.291 -5.29659 -3.68959 0
M  V30 1673 H 151.059 -7.3686 -3.56343 0
M  V30 1674 N 153.722 1.14298 -1.08507 0
M  V30 1675 C 154.67 2.21483 -0.710483 0
M  V30 1676 C 155.664 1.66998 0.284234 0
M  V30 1677 O 156.87 1.79401 0.146692 0
M  V30 1678 H 153.245 0.721578 -0.211729 0
M  V30 1679 H 155.216 2.50348 -1.62384 0
M  V30 1680 C 153.965 3.4743 -0.137007 0
M  V30 1681 H 153.288 3.89686 -0.893592 0
M  V30 1682 H 154.728 4.2391 0.0872789 0
M  V30 1683 C 153.187 3.17548 1.12538 0
M  V30 1684 O 153.717 3.35437 2.21009 0
M  V30 1685 N 151.923 2.71499 1.03617 0
M  V30 1686 H 151.47 2.57143 0.153403 0
M  V30 1687 H 151.428 2.51881 1.88158 0
M  V30 1688 N 155.201 0.870884 1.31352 0
M  V30 1689 C 156.45 0.478408 1.95944 0
M  V30 1690 C 156.763 -0.974493 1.69597 0
M  V30 1691 O 157.969 -1.47316 2.28058 0
M  V30 1692 C 156.425 0.804609 3.50791 0
M  V30 1693 C 156.033 2.27433 3.85977 0
M  V30 1694 C 157.777 0.480648 4.2177 0
M  V30 1695 C 155.684 2.5429 5.33939 0
M  V30 1696 H 154.614 0.175175 0.733369 0
M  V30 1697 H 157.265 1.06391 1.4951 0
M  V30 1698 H 155.647 0.148347 3.95722 0
M  V30 1699 H 156.821 2.97373 3.52002 0
M  V30 1700 H 155.136 2.56442 3.28065 0
M  V30 1701 H 157.733 0.658519 5.30629 0
M  V30 1702 H 158.076 -0.578979 4.12254 0
M  V30 1703 H 158.609 1.09349 3.82476 0
M  V30 1704 H 155.348 3.58939 5.48491 0
M  V30 1705 H 154.868 1.88945 5.69263 0
M  V30 1706 H 156.547 2.39066 6.01212 0
M  V30 1707 N 156.679 -1.44442 0.630414 0
M  V30 1708 C 158.095 -1.56832 0.295973 0
M  V30 1709 C 158.295 -1.61806 -1.20088 0
M  V30 1710 O 157.351 -1.5607 -1.9849 0
M  V30 1711 C 158.664 -2.84031 0.987264 0
M  V30 1712 C 160.212 -2.97742 0.96534 0
M  V30 1713 C 160.687 -4.27743 1.63708 0
M  V30 1714 N 162.178 -4.34555 1.60364 0
M  V30 1715 C 162.913 -5.33862 2.09234 0
M  V30 1716 N 162.409 -6.39578 2.66292 0
M  V30 1717 N 164.202 -5.25366 1.99867 0
M  V30 1718 H 156.353 -1.39457 1.60205 0
M  V30 1719 H 158.616 -0.668237 0.672431 0
M  V30 1720 H 158.322 -2.86338 2.04215 0
M  V30 1721 H 158.196 -3.73534 0.524588 0
M  V30 1722 H 160.583 -2.94989 -0.0810639 0
M  V30 1723 H 160.664 -2.09589 1.4665 0
M  V30 1724 H 160.308 -4.31255 2.68293 0
M  V30 1725 H 160.238 -5.14752 1.11076 0
M  V30 1726 H 162.729 -3.58772 1.18705 0
M  V30 1727 H 163.042 -7.11637 3.01317 0
M  V30 1728 H 161.387 -6.40265 2.70343 0
M  V30 1729 H 164.578 -4.41688 1.55013 0
M  V30 1730 H 164.751 -6.02606 2.38265 0
M  V30 1731 N 158.157 -0.370918 -1.53173 0
M  V30 1732 C 159.568 0.107139 -1.86392 0
M  V30 1733 C 159.919 1.47714 -1.29132 0
M  V30 1734 O 159.044 2.07464 -0.615439 0
M  V30 1735 C 159.639 0.201187 -3.38202 0
M  V30 1736 C 158.198 0.623507 -3.712 0
M  V30 1737 C 157.345 -0.225978 -2.76378 0
M  V30 1738 H 160.296 -0.58951 -1.47345 0
M  V30 1739 H 160.317 1.02377 -3.66468 0
M  V30 1740 H 159.829 -0.796058 -3.79848 0
M  V30 1741 H 157.93 1.62879 -3.35114 0
M  V30 1742 H 158.043 0.394414 -4.77474 0
M  V30 1743 H 156.407 0.305962 -2.52856 0
M  V30 1744 H 157.19 -1.22086 -3.20858 0
M  V30 1745 N 159.635 1.57281 -0.100228 0
M  V30 1746 C 160.912 1.86014 0.604812 0
M  V30 1747 C 161.292 0.998025 1.86018 0
M  V30 1748 O 160.64 0.0718184 2.28387 0
M  V30 1749 C 160.85 3.36784 0.915278 0
M  V30 1750 C 162.198 4.04957 1.27651 0
M  V30 1751 O 163.222 3.41695 1.00613 0
M  V30 1752 O 162.081 5.16593 1.7831 0
M  V30 1753 H 159.175 0.76942 0.303185 0
M  V30 1754 H 161.721 1.69176 -0.133313 0
M  V30 1755 H 160.493 3.91292 0.0248896 0
M  V30 1756 H 160.116 3.58987 1.70921 0
M  V30 1757 N 161.113 -0.173488 1.56642 0
M  V30 1758 C 162.361 -0.888706 1.81512 0
M  V30 1759 C 162.682 -1.82875 0.676872 0
M  V30 1760 O 161.952 -1.93536 -0.303414 0
M  V30 1761 H 160.532 -0.331164 0.669582 0
M  V30 1762 H 163.194 -0.173823 1.94123 0
M  V30 1763 H 162.29 -1.46691 2.75478 0
M  V30 1764 N 162.591 -1.51276 -0.441967 0
M  V30 1765 C 164.002 -1.56244 -1.02199 0
M  V30 1766 C 164.353 -0.383149 -1.92422 0
M  V30 1767 O 163.478 0.500613 -2.1053 0
M  V30 1768 C 164.073 -2.83162 -1.86024 0
M  V30 1769 C 162.632 -2.90716 -2.39084 0
M  V30 1770 C 161.779 -2.50858 -1.18175 0
M  V30 1771 H 164.73 -1.5712 -0.223416 0
M  V30 1772 H 164.751 -2.66663 -2.71425 0
M  V30 1773 H 164.263 -3.68974 -1.20331 0
M  V30 1774 H 162.364 -2.09323 -3.08244 0
M  V30 1775 H 162.477 -3.94266 -2.72198 0
M  V30 1776 H 160.841 -2.03951 -1.52565 0
M  V30 1777 H 161.624 -3.3901 -0.541001 0
M  V30 1778 N 164.069 0.697108 -1.41344 0
M  V30 1779 C 165.317 1.45426 -1.40341 0
M  V30 1780 C 165.638 1.94996 -0.0128787 0
M  V30 1781 O 164.908 1.71599 0.945027 0
M  V30 1782 H 163.488 0.539594 -0.516573 0
M  V30 1783 H 166.15 0.825201 -1.76569 0
M  V30 1784 H 165.246 2.31817 -2.08967 0
M  V30 1785 N 165.547 1.27147 0.931209 0
M  V30 1786 C 166.51 1.09615 2.01289 0
M  V30 1787 C 167.51 0.0412581 1.60747 0
M  V30 1788 O 168.7 0.285545 1.71844 0
M  V30 1789 C 165.832 0.669447 3.34262 0
M  V30 1790 H 167.025 2.05662 2.18273 0
M  V30 1791 H 164.578 1.09885 1.11153 0
M  V30 1792 H 165.313 -0.292572 3.22978 0
M  V30 1793 H 165.098 1.43127 3.65044 0
M  V30 1794 H 166.588 0.568921 4.13706 0
M  V30 1795 N 167.025 -1.13721 1.09112 0
M  V30 1796 C 168.436 -1.6648 0.845068 0
M  V30 1797 C 168.787 -1.85911 -0.62701 0
M  V30 1798 O 167.912 -1.57556 -1.48341 0
M  V30 1799 C 168.507 -3.02413 1.52748 0
M  V30 1800 C 167.066 -3.52176 1.32849 0
M  V30 1801 C 166.213 -2.27492 1.58564 0
M  V30 1802 H 169.164 -0.976872 1.25072 0
M  V30 1803 H 169.185 -3.68223 0.958752 0
M  V30 1804 H 168.697 -2.88238 2.59885 0
M  V30 1805 H 166.798 -3.7156 0.278137 0
M  V30 1806 H 166.911 -4.32499 2.0611 0
M  V30 1807 H 165.275 -2.33923 1.00758 0
M  V30 1808 H 166.058 -2.15886 2.66924 0
M  V30 1809 N 168.503 -0.877838 -1.30888 0
M  V30 1810 C 169.919 -0.570844 -1.49042 0
M  V30 1811 C 170.119 0.893159 -1.80624 0
M  V30 1812 O 169.175 1.67485 -1.88958 0
M  V30 1813 C 170.488 -1.47784 -2.61878 0
M  V30 1814 C 172.036 -1.48071 -2.75761 0
M  V30 1815 C 172.511 -2.37347 -3.91702 0
M  V30 1816 N 174.002 -2.35271 -3.99001 0
M  V30 1817 C 174.737 -3.01063 -4.88004 0
M  V30 1818 N 174.233 -3.76055 -5.81854 0
M  V30 1819 N 176.026 -2.90332 -4.81315 0
M  V30 1820 H 168.177 -1.82502 -1.0866 0
M  V30 1821 H 170.44 -0.780797 -0.537644 0
M  V30 1822 H 170.146 -2.51993 -2.45341 0
M  V30 1823 H 170.02 -1.18215 -3.58197 0
M  V30 1824 H 172.407 -0.446166 -2.91708 0
M  V30 1825 H 172.488 -1.81668 -1.80085 0
M  V30 1826 H 172.132 -3.40883 -3.76512 0
M  V30 1827 H 172.062 -2.01071 -4.86701 0
M  V30 1828 H 174.553 -1.80768 -3.3186 0
M  V30 1829 H 174.866 -4.23366 -6.46514 0
M  V30 1830 H 173.211 -3.80163 -5.81808 0
M  V30 1831 H 176.402 -2.31278 -4.06974 0
M  V30 1832 H 176.575 -3.41885 -5.50471 0
M  V30 1833 N 169.982 1.44106 -0.638065 0
M  V30 1834 C 171.23 2.01579 -0.145043 0
M  V30 1835 C 171.551 1.50496 1.24 0
M  V30 1836 O 170.821 0.711374 1.82527 0
M  V30 1837 H 169.401 0.745282 -0.05063 0
M  V30 1838 H 172.063 1.76516 -0.826327 0
M  V30 1839 H 171.159 3.11877 -0.118039 0
M  V30 1840 N 171.46 0.379036 1.52974 0
M  V30 1841 C 172.876 0.0285448 1.59574 0
M  V30 1842 C 173.076 -1.45542 1.39355 0
M  V30 1843 O 172.132 -2.2187 1.20541 0
M  V30 1844 C 173.445 0.496535 2.96572 0
M  V30 1845 C 174.993 0.451909 3.0972 0
M  V30 1846 C 175.468 0.895924 4.49152 0
M  V30 1847 N 176.959 0.851522 4.55306 0
M  V30 1848 C 177.694 1.16661 5.61407 0
M  V30 1849 N 177.19 1.55166 6.752 0
M  V30 1850 N 178.983 1.08853 5.51459 0
M  V30 1851 H 171.134 1.34525 1.64367 0
M  V30 1852 H 173.397 0.550733 0.771619 0
M  V30 1853 H 173.103 1.53258 3.16552 0
M  V30 1854 H 172.977 -0.109802 3.7704 0
M  V30 1855 H 175.364 -0.575029 2.89443 0
M  V30 1856 H 175.445 1.09392 2.3123 0
M  V30 1857 H 175.089 1.92104 4.70168 0
M  V30 1858 H 175.019 0.23103 5.26093 0
M  V30 1859 H 177.51 0.568038 3.73606 0
M  V30 1860 H 177.823 1.776 7.52116 0
M  V30 1861 H 176.168 1.59044 6.76557 0
M  V30 1862 H 179.359 0.786803 4.6144 0
M  V30 1863 H 179.532 1.33742 6.34048 0
M  V30 1864 N 172.938 -1.57226 0.108567 0
M  V30 1865 C 174.354 -1.5766 -0.248058 0
M  V30 1866 C 174.554 -1.12063 -1.67464 0
M  V30 1867 O 173.61 -0.803236 -2.39383 0
M  V30 1868 C 174.923 -3.0069 -0.0242287 0
M  V30 1869 C 176.471 -3.12868 -0.0909372 0
M  V30 1870 C 176.946 -4.57879 0.105067 0
M  V30 1871 N 178.437 -4.63172 0.0506846 0
M  V30 1872 C 179.172 -5.73126 0.177396 0
M  V30 1873 N 178.668 -6.91866 0.359696 0
M  V30 1874 N 180.461 -5.61977 0.117709 0
M  V30 1875 H 172.612 -1.85169 1.04049 0
M  V30 1876 H 174.875 -0.85529 0.40888 0
M  V30 1877 H 174.581 -3.38299 0.961604 0
M  V30 1878 H 174.455 -3.6945 -0.76068 0
M  V30 1879 H 176.842 -2.75124 -1.06729 0
M  V30 1880 H 176.923 -2.46672 0.677225 0
M  V30 1881 H 176.567 -4.96321 1.07834 0
M  V30 1882 H 176.497 -5.22153 -0.682954 0
M  V30 1883 H 178.988 -3.778 -0.0871266 0
M  V30 1884 H 179.301 -7.71503 0.447529 0
M  V30 1885 H 177.646 -6.93874 0.395536 0
M  V30 1886 H 180.837 -4.68094 -0.0236741 0
M  V30 1887 H 181.01 -6.47627 0.219905 0
M  V30 1888 N 174.416 0.165178 -1.56732 0
M  V30 1889 C 175.663 0.880807 -1.8234 0
M  V30 1890 C 175.991 1.81977 -0.686621 0
M  V30 1891 O 175.246 1.92971 0.325697 0
M  V30 1892 C 175.545 1.70405 -3.1416 0
M  V30 1893 C 175.211 0.913475 -4.4155 0
M  V30 1894 C 173.873 0.695303 -4.7615 0
M  V30 1895 C 176.225 0.359349 -5.1996 0
M  V30 1896 C 173.553 -0.0879947 -5.86634 0
M  V30 1897 C 175.905 -0.410893 -6.31264 0
M  V30 1898 C 174.569 -0.639808 -6.64427 0
M  V30 1899 H 173.839 0.32231 -0.667231 0
M  V30 1900 H 176.486 0.145402 -1.90947 0
M  V30 1901 H 174.791 2.50903 -3.00923 0
M  V30 1902 H 176.488 2.26091 -3.31186 0
M  V30 1903 H 173.078 1.09357 -4.14414 0
M  V30 1904 H 177.262 0.515228 -4.93618 0
M  V30 1905 H 172.518 -0.27503 -6.10781 0
M  V30 1906 H 176.692 -0.847494 -6.91224 0
M  V30 1907 H 174.319 -1.24864 -7.49875 0
M  V30 1908 N 175.894 1.51508 0.433938 0
M  V30 1909 C 177.122 1.68157 1.20543 0
M  V30 1910 C 177.537 0.380362 1.84929 0
M  V30 1911 O 176.894 -0.641446 1.70856 0
M  V30 1912 C 176.945 2.79965 2.28696 0
M  V30 1913 O 176.666 4.05045 1.66943 0
M  V30 1914 C 178.167 3.07912 3.18912 0
M  V30 1915 H 175.387 0.56421 0.363191 0
M  V30 1916 H 177.931 1.97941 0.513754 0
M  V30 1917 H 176.086 2.5277 2.93574 0
M  V30 1918 H 176.5 4.67165 2.38448 0
M  V30 1919 H 177.974 3.89719 3.90926 0
M  V30 1920 H 178.451 2.20456 3.79863 0
M  V30 1921 H 179.057 3.36779 2.59731 0
M  V30 1922 N 177.372 -0.689602 1.41712 0
M  V30 1923 C 178.619 -1.44966 1.4139 0
M  V30 1924 C 178.947 -1.94484 0.025105 0
M  V30 1925 O 178.202 -1.70307 -0.964048 0
M  V30 1926 C 178.501 -2.67298 2.37247 0
M  V30 1927 C 178.167 -2.36405 3.83958 0
M  V30 1928 C 176.829 -2.27691 4.23923 0
M  V30 1929 C 179.181 -2.11043 4.76561 0
M  V30 1930 C 176.509 -1.91719 5.54492 0
M  V30 1931 C 178.861 -1.76578 6.07456 0
M  V30 1932 C 177.525 -1.66363 6.46436 0
M  V30 1933 H 176.795 -0.53047 0.517381 0
M  V30 1934 H 179.442 -0.787655 1.74552 0
M  V30 1935 H 177.747 -3.38461 1.9736 0
M  V30 1936 H 179.444 -3.25452 2.34269 0
M  V30 1937 H 176.034 -2.44085 3.52308 0
M  V30 1938 H 180.218 -2.16717 4.46483 0
M  V30 1939 H 175.474 -1.82367 5.83568 0
M  V30 1940 H 179.648 -1.55974 6.78708 0
M  V30 1941 H 177.275 -1.38258 7.47522 0
M  V30 1942 N 178.85 -1.27639 -0.924453 0
M  V30 1943 C 180.078 -1.16989 -1.70649 0
M  V30 1944 C 180.493 0.272869 -1.86818 0
M  V30 1945 O 179.85 1.18549 -1.38753 0
M  V30 1946 C 179.901 -1.85229 -3.10439 0
M  V30 1947 O 179.622 -3.23868 -2.95028 0
M  V30 1948 C 181.123 -1.80746 -4.04779 0
M  V30 1949 H 178.343 -0.406595 -0.53378 0
M  V30 1950 H 180.887 -1.68569 -1.15778 0
M  V30 1951 H 179.042 -1.37545 -3.6216 0
M  V30 1952 H 179.456 -3.57889 -3.83426 0
M  V30 1953 H 180.93 -2.33101 -5.00368 0
M  V30 1954 H 181.407 -0.777499 -4.32263 0
M  V30 1955 H 182.013 -2.28059 -3.58984 0
M  V30 1956 N 180.328 1.1314 -1.09713 0
M  V30 1957 C 181.291 2.16831 -0.742751 0
M  V30 1958 C 182.291 1.59159 0.229129 0
M  V30 1959 O 183.481 1.74199 0.00693237 0
M  V30 1960 C 180.613 3.40756 -0.0989168 0
M  V30 1961 H 181.806 2.49695 -1.66109 0
M  V30 1962 H 179.359 1.2802 -0.896699 0
M  V30 1963 H 180.094 3.13485 0.830514 0
M  V30 1964 H 179.879 3.83888 -0.798265 0
M  V30 1965 H 181.369 4.17386 0.133524 0
M  V30 1966 N 181.806 0.884767 1.30421 0
M  V30 1967 C 182.716 0.355398 2.31892 0
M  V30 1968 C 183.732 -0.542261 1.65335 0
M  V30 1969 O 184.908 -0.435432 1.96637 0
M  V30 1970 C 181.973 -0.421661 3.44126 0
M  V30 1971 C 181.034 0.505727 4.26311 0
M  V30 1972 C 180.267 -0.234343 5.33185 0
M  V30 1973 O 180.49 -1.46045 5.51386 0
M  V30 1974 O 179.424 0.415443 6.00465 0
M  V30 1975 H 183.25 1.19685 2.79122 0
M  V30 1976 H 180.835 0.648596 1.34587 0
M  V30 1977 H 182.717 -0.861641 4.12497 0
M  V30 1978 H 181.392 -1.23942 2.99032 0
M  V30 1979 H 180.299 0.994513 3.60639 0
M  V30 1980 H 181.632 1.28948 4.75009 0
M  V30 1981 N 183.284 -1.43765 0.645699 0
M  V30 1982 C 184.234 -2.27884 -0.0726442 0
M  V30 1983 C 185.218 -1.39483 -0.802086 0
M  V30 1984 O 186.41 -1.63174 -0.685791 0
M  V30 1985 C 183.539 -3.27055 -1.04356 0
M  V30 1986 C 182.625 -4.22944 -0.312985 0
M  V30 1987 N 183.016 -5.01391 0.666386 0
M  V30 1988 C 181.314 -4.42528 -0.55546 0
M  V30 1989 C 182.015 -5.71217 1.09935 0
M  V30 1990 N 180.991 -5.41856 0.435137 0
M  V30 1991 H 184.793 -2.85949 0.678988 0
M  V30 1992 H 182.307 -1.55378 0.472368 0
M  V30 1993 H 184.304 -3.86089 -1.57292 0
M  V30 1994 H 182.964 -2.70551 -1.79534 0
M  V30 1995 H 183.975 -5.07252 1.04481 0
M  V30 1996 H 180.652 -3.97104 -1.28899 0
M  V30 1997 H 182.042 -6.44202 1.90929 0
M  V30 1998 N 184.763 -0.387143 -1.52771 0
M  V30 1999 C 186.174 0.0873634 -1.86495 0
M  V30 2000 C 186.525 1.46336 -1.30691 0
M  V30 2001 O 185.65 2.068 -0.637409 0
M  V30 2002 C 186.245 0.165305 -3.38396 0
M  V30 2003 C 184.804 0.584101 -3.7184 0
M  V30 2004 C 183.951 -0.255279 -2.76122 0
M  V30 2005 H 186.902 -0.605104 -1.46711 0
M  V30 2006 H 186.923 0.984848 -3.67534 0
M  V30 2007 H 186.435 -0.836301 -3.78982 0
M  V30 2008 H 184.536 1.59315 -3.36823 0
M  V30 2009 H 184.649 0.343749 -4.77865 0
M  V30 2010 H 183.013 0.279126 -2.53166 0
M  V30 2011 H 183.796 -1.25482 -3.19545 0
M  V30 2012 N 186.241 1.57166 -0.116904 0
M  V30 2013 C 187.489 1.94737 0.540533 0
M  V30 2014 C 187.81 1.00096 1.67349 0
M  V30 2015 O 187.08 0.0568854 1.95817 0
M  V30 2016 H 185.66 0.718981 0.202669 0
M  V30 2017 H 188.322 1.94017 -0.185353 0
M  V30 2018 H 187.418 2.97719 0.936483 0
M  V30 2019 N 187.719 -0.156864 1.56817 0
M  V30 2020 C 188.652 -1.22316 1.9265 0
M  V30 2021 C 189.63 -1.42059 0.791076 0
M  V30 2022 O 190.814 -1.56831 1.04576 0
M  V30 2023 C 187.941 -2.58375 2.18998 0
M  V30 2024 C 186.987 -2.55284 3.41661 0
M  V30 2025 S 187.82 -2.02946 4.95553 0
M  V30 2026 C 188.976 -3.40753 5.25013 0
M  V30 2027 H 189.209 -0.917403 2.82791 0
M  V30 2028 H 186.742 -0.362059 1.50095 0
M  V30 2029 H 188.7 -3.36677 2.34859 0
M  V30 2030 H 187.361 -2.86145 1.29538 0
M  V30 2031 H 186.554 -3.55418 3.57343 0
M  V30 2032 H 186.156 -1.85086 3.24991 0
M  V30 2033 H 188.448 -4.36819 5.17876 0
M  V30 2034 H 189.391 -3.29933 6.26538 0
M  V30 2035 H 189.799 -3.37433 4.52548 0
M  V30 2036 N 189.197 -1.51736 -0.425897 0
M  V30 2037 C 190.613 -1.40166 -0.76326 0
M  V30 2038 C 190.813 -0.492962 -1.95377 0
M  V30 2039 O 189.869 0.0475815 -2.52455 0
M  V30 2040 C 191.182 -2.82403 -1.03291 0
M  V30 2041 C 192.73 -2.91632 -1.13665 0
M  V30 2042 C 193.205 -4.34801 -1.43916 0
M  V30 2043 N 194.696 -4.3796 -1.50816 0
M  V30 2044 C 195.431 -5.4578 -1.75817 0
M  V30 2045 N 194.927 -6.63744 -1.98534 0
M  V30 2046 N 196.72 -5.33274 -1.77694 0
M  V30 2047 H 188.871 -2.09361 0.358 0
M  V30 2048 H 191.134 -0.942941 0.0978094 0
M  V30 2049 H 190.84 -3.50943 -0.230696 0
M  V30 2050 H 190.714 -3.22428 -1.95754 0
M  V30 2051 H 193.101 -2.23284 -1.92947 0
M  V30 2052 H 193.182 -2.55088 -0.190756 0
M  V30 2053 H 192.826 -5.03703 -0.65157 0
M  V30 2054 H 192.756 -4.68868 -2.39729 0
M  V30 2055 H 195.247 -3.52919 -1.35118 0
M  V30 2056 H 195.56 -7.41704 -2.17013 0
M  V30 2057 H 193.905 -6.66839 -1.95832 0
M  V30 2058 H 197.096 -4.40098 -1.59473 0
M  V30 2059 H 197.269 -6.1738 -1.9684 0
M  V30 2060 N 190.675 0.682077 -1.42076 0
M  V30 2061 C 191.903 1.47057 -1.4554 0
M  V30 2062 C 192.318 1.8869 -0.0645779 0
M  V30 2063 O 191.675 1.57666 0.919115 0
M  V30 2064 C 191.726 2.72442 -2.37609 0
M  V30 2065 O 191.447 2.32559 -3.71279 0
M  V30 2066 C 192.948 3.66069 -2.50017 0
M  V30 2067 H 190.168 0.452737 -0.495248 0
M  V30 2068 H 192.712 0.838695 -1.8651 0
M  V30 2069 H 190.867 3.31835 -1.9991 0
M  V30 2070 H 191.281 3.13475 -4.20516 0
M  V30 2071 H 192.755 4.50792 -3.18576 0
M  V30 2072 H 193.232 4.11476 -1.53572 0
M  V30 2073 H 193.838 3.12572 -2.88407 0
M  V30 2074 N 192.153 1.28127 0.917671 0
M  V30 2075 C 193.383 1.17722 1.6978 0
M  V30 2076 C 193.791 -0.267261 1.87303 0
M  V30 2077 O 193.134 -1.19286 1.39702 0
M  V30 2078 C 193.196 1.79958 3.11216 0
M  V30 2079 C 192.86 3.29187 3.16993 0
M  V30 2080 C 193.857 4.25679 2.98485 0
M  V30 2081 C 191.542 3.70075 3.39632 0
M  V30 2082 C 193.536 5.61035 3.02521 0
M  V30 2083 C 191.223 5.05557 3.433 0
M  V30 2084 C 192.221 6.00847 3.24764 0
M  V30 2085 O 191.909 7.33859 3.28187 0
M  V30 2086 H 191.641 0.409788 0.537634 0
M  V30 2087 H 194.195 1.69694 1.15728 0
M  V30 2088 H 192.425 1.22475 3.66793 0
M  V30 2089 H 194.114 1.64125 3.71238 0
M  V30 2090 H 194.88 3.95426 2.80826 0
M  V30 2091 H 190.759 2.96373 3.53106 0
M  V30 2092 H 194.303 6.35388 2.87971 0
M  V30 2093 H 190.2 5.35462 3.60486 0
M  V30 2094 H 190.968 7.42436 3.44575 0
M  V30 2095 N 193.631 -1.12557 1.10312 0
M  V30 2096 C 194.877 -1.84311 0.846011 0
M  V30 2097 C 195.21 -1.83805 -0.626859 0
M  V30 2098 O 194.485 -1.28268 -1.46211 0
M  V30 2099 C 194.768 -3.32048 1.39341 0
M  V30 2100 C 194.621 -3.41016 2.93305 0
M  V30 2101 C 195.94 -4.27764 1.03468 0
M  V30 2102 H 193.059 -0.669192 0.30879 0
M  V30 2103 H 195.701 -1.32057 1.36605 0
M  V30 2104 H 193.851 -3.76678 0.951087 0
M  V30 2105 H 195.523 -3.05031 3.46055 0
M  V30 2106 H 193.766 -2.81603 3.29973 0
M  V30 2107 H 194.437 -4.44948 3.26689 0
M  V30 2108 H 196.913 -3.91253 1.41633 0
M  V30 2109 H 195.789 -5.29549 1.44463 0
M  V30 2110 H 196.05 -4.42064 -0.0560404 0
M  V30 2111 N 195.109 -0.891671 -1.2995 0
M  V30 2112 C 196.039 -0.379797 -2.30391 0
M  V30 2113 C 197.02 0.540919 -1.6127 0
M  V30 2114 O 198.205 0.453352 -1.88834 0
M  V30 2115 C 195.335 0.400654 -3.44981 0
M  V30 2116 C 194.289 -0.428905 -4.25846 0
M  V30 2117 C 193.615 0.478557 -5.32554 0
M  V30 2118 C 194.915 -1.67458 -4.94727 0
M  V30 2119 H 196.609 -1.21914 -2.73454 0
M  V30 2120 H 194.155 -0.587675 -1.31462 0
M  V30 2121 H 196.108 0.769434 -4.14316 0
M  V30 2122 H 194.832 1.27371 -3.0074 0
M  V30 2123 H 193.491 -0.779911 -3.58208 0
M  V30 2124 H 193.139 1.34951 -4.84559 0
M  V30 2125 H 192.839 -0.0727433 -5.87555 0
M  V30 2126 H 194.363 0.843705 -6.04743 0
M  V30 2127 H 195.777 -1.376 -5.56542 0
M  V30 2128 H 194.174 -2.16659 -5.59624 0
M  V30 2129 H 195.244 -2.41518 -4.20473 0
M  V30 2130 N 196.587 1.43421 -0.653314 0
M  V30 2131 C 197.55 2.29182 0.0287951 0
M  V30 2132 C 198.55 1.42213 0.750465 0
M  V30 2133 O 199.74 1.63843 0.591701 0
M  V30 2134 C 196.872 3.24278 1.05151 0
M  V30 2135 H 198.065 2.90985 -0.725786 0
M  V30 2136 H 195.618 1.50702 -0.414545 0
M  V30 2137 H 196.353 2.6737 1.83532 0
M  V30 2138 H 196.138 3.88396 0.537687 0
M  V30 2139 H 197.628 3.88647 1.52786 0
M  V30 2140 N 198.065 0.39524 1.52563 0
M  V30 2141 C 199.028 -0.425001 2.25225 0
M  V30 2142 C 200.028 -0.985266 1.27079 0
M  V30 2143 O 201.218 -0.866332 1.5113 0
M  V30 2144 C 198.35 -1.59686 3.01186 0
M  V30 2145 H 199.543 0.211233 2.99155 0
M  V30 2146 H 197.096 0.147472 1.55603 0
M  V30 2147 H 197.831 -2.27035 2.31572 0
M  V30 2148 H 197.616 -1.20176 3.73229 0
M  V30 2149 H 199.106 -2.17743 3.5634 0
M  V30 2150 N 199.544 -1.57102 0.125237 0
M  V30 2151 C 200.821 -1.86953 -0.575142 0
M  V30 2152 C 201.201 -1.02749 -1.84407 0
M  V30 2153 O 200.549 -0.108144 -2.28244 0
M  V30 2154 C 200.759 -3.38198 -0.861583 0
M  V30 2155 C 202.107 -4.06937 -1.21192 0
M  V30 2156 O 203.131 -3.43252 -0.951645 0
M  V30 2157 O 201.99 -5.19364 -1.70068 0
M  V30 2158 H 199.084 -0.774147 -0.290906 0
M  V30 2159 H 201.63 -1.68942 0.160211 0
M  V30 2160 H 200.402 -3.91282 0.0373647 0
M  V30 2161 H 200.025 -3.61661 -1.65188 0
M  V30 2162 N 201.022 0.148545 -1.56898 0
M  V30 2163 C 202.25 0.876389 -1.87422 0
M  V30 2164 C 202.665 1.74809 -0.713256 0
M  V30 2165 O 202.022 1.79725 0.317025 0
M  V30 2166 C 202.073 1.73438 -3.17178 0
M  V30 2167 O 201.794 0.897809 -4.28802 0
M  V30 2168 C 203.295 2.56993 -3.61205 0
M  V30 2169 H 200.515 0.253489 -0.621277 0
M  V30 2170 H 203.059 0.141798 -2.04008 0
M  V30 2171 H 201.214 2.42205 -3.0235 0
M  V30 2172 H 201.628 1.48672 -5.02988 0
M  V30 2173 H 203.102 3.12773 -4.54838 0
M  V30 2174 H 203.579 3.32958 -2.86419 0
M  V30 2175 H 204.185 1.9352 -3.78722 0
M  V30 2176 N 202.5 1.5196 0.417844 0
M  V30 2177 C 203.43 1.77634 1.51554 0
M  V30 2178 C 204.411 0.626918 1.58126 0
M  V30 2179 O 205.596 0.871632 1.7354 0
M  V30 2180 C 202.726 1.91911 2.8946 0
M  V30 2181 C 201.68 3.07463 2.97743 0
M  V30 2182 C 201.006 3.06951 4.37819 0
M  V30 2183 C 202.306 4.47082 2.70027 0
M  V30 2184 H 204 2.6955 1.3032 0
M  V30 2185 H 201.546 1.29706 0.625492 0
M  V30 2186 H 203.499 2.08455 3.6623 0
M  V30 2187 H 202.223 0.966598 3.11969 0
M  V30 2188 H 200.882 2.90656 2.23416 0
M  V30 2189 H 200.53 2.09438 4.57323 0
M  V30 2190 H 200.23 3.84556 4.44286 0
M  V30 2191 H 201.754 3.25613 5.16535 0
M  V30 2192 H 203.168 4.6414 3.36522 0
M  V30 2193 H 201.565 5.2654 2.87881 0
M  V30 2194 H 202.635 4.55777 1.65514 0
M  V30 2195 N 203.978 -0.674533 1.42435 0
M  V30 2196 C 204.888 -1.81751 1.48337 0
M  V30 2197 C 205.904 -1.69975 0.372099 0
M  V30 2198 O 207.08 -1.91521 0.62304 0
M  V30 2199 C 204.145 -3.17895 1.38361 0
M  V30 2200 C 203.206 -3.41625 2.59982 0
M  V30 2201 C 202.439 -4.71274 2.50473 0
M  V30 2202 O 202.662 -5.49197 1.54075 0
M  V30 2203 O 201.596 -4.96254 3.4061 0
M  V30 2204 H 205.422 -1.79728 2.44809 0
M  V30 2205 H 203.007 -0.830312 1.24202 0
M  V30 2206 H 204.889 -3.99136 1.35161 0
M  V30 2207 H 203.564 -3.20555 0.450144 0
M  V30 2208 H 202.471 -2.60231 2.68757 0
M  V30 2209 H 203.804 -3.43796 3.52229 0
M  V30 2210 N 205.456 -1.28612 -0.910864 0
M  V30 2211 C 206.733 -1.06632 -1.63979 0
M  V30 2212 C 207.113 0.393351 -2.07403 0
M  V30 2213 O 206.461 1.37999 -1.82122 0
M  V30 2214 C 206.671 -2.0436 -2.8291 0
M  V30 2215 C 208.019 -2.34666 -3.5386 0
M  V30 2216 O 209.043 -2.02467 -2.93062 0
M  V30 2217 O 207.902 -2.89631 -4.63439 0
M  V30 2218 H 204.996 -0.407737 -0.7195 0
M  V30 2219 H 207.542 -1.39942 -0.959914 0
M  V30 2220 H 206.314 -3.02727 -2.47936 0
M  V30 2221 H 205.937 -1.71714 -3.58609 0
M  V30 2222 N 206.934 1.1197 -1.10907 0
M  V30 2223 C 207.864 2.19928 -0.784473 0
M  V30 2224 C 208.845 1.6833 0.244726 0
M  V30 2225 O 210.03 1.93892 0.109418 0
M  V30 2226 C 207.16 3.46597 -0.220827 0
M  V30 2227 C 206.114 4.11376 -1.18127 0
M  V30 2228 C 205.44 5.32554 -0.478594 0
M  V30 2229 C 206.74 4.56945 -2.52979 0
M  V30 2230 H 208.434 2.47337 -1.68715 0
M  V30 2231 H 205.98 1.18879 -0.812642 0
M  V30 2232 H 207.933 4.21396 0.0184278 0
M  V30 2233 H 206.657 3.1863 0.717113 0
M  V30 2234 H 205.316 3.38564 -1.40606 0
M  V30 2235 H 204.964 5.00856 0.463976 0
M  V30 2236 H 204.664 5.76844 -1.11912 0
M  V30 2237 H 206.188 6.10096 -0.248 0
M  V30 2238 H 207.602 5.23093 -2.3462 0
M  V30 2239 H 205.999 5.1203 -3.12962 0
M  V30 2240 H 207.069 3.70676 -3.12614 0
M  V30 2241 N 208.412 0.89855 1.29475 0
M  V30 2242 C 209.828 0.594483 1.48115 0
M  V30 2243 C 210.028 -0.86431 1.82022 0
M  V30 2244 O 209.084 -1.64457 1.91599 0
M  V30 2245 C 210.397 1.51932 2.59494 0
M  V30 2246 C 211.945 1.5244 2.7337 0
M  V30 2247 C 212.42 2.43548 3.87877 0
M  V30 2248 N 213.911 2.41589 3.95208 0
M  V30 2249 C 214.646 3.08789 4.83153 0
M  V30 2250 N 214.142 3.85265 5.75798 0
M  V30 2251 N 215.935 2.97952 4.76635 0
M  V30 2252 H 208.086 1.84207 1.05742 0
M  V30 2253 H 210.349 0.789251 0.525154 0
M  V30 2254 H 210.055 2.55865 2.41301 0
M  V30 2255 H 209.929 1.23899 3.56271 0
M  V30 2256 H 212.316 0.492518 2.90961 0
M  V30 2257 H 212.397 1.8451 1.77172 0
M  V30 2258 H 212.041 3.46829 3.71041 0
M  V30 2259 H 211.971 2.08788 4.83441 0
M  V30 2260 H 214.462 1.86025 3.28943 0
M  V30 2261 H 214.775 4.33598 6.39697 0
M  V30 2262 H 213.12 3.89371 5.75687 0
M  V30 2263 H 216.311 2.37723 4.03244 0
M  V30 2264 H 216.484 3.50599 5.44962 0
M  V30 2265 N 209.89 -1.43072 0.660911 0
M  V30 2266 C 211.138 -2.01323 0.177094 0
M  V30 2267 C 211.459 -1.5245 -1.2159 0
M  V30 2268 O 210.729 -0.740322 -1.81373 0
M  V30 2269 H 209.309 -0.744382 0.0624804 0
M  V30 2270 H 211.971 -1.75179 0.854305 0
M  V30 2271 H 211.067 -3.11649 0.167641 0
M  V30 2272 N 211.368 -0.403325 -1.52352 0
M  V30 2273 C 212.614 0.167015 -2.02713 0
M  V30 2274 C 212.969 1.43296 -1.28391 0
M  V30 2275 O 212.262 1.87796 -0.379885 0
M  V30 2276 C 212.456 0.474665 -3.54234 0
M  V30 2277 C 212.285 -0.759909 -4.43233 0
M  V30 2278 C 211.055 -1.28338 -4.88731 0
M  V30 2279 C 213.253 -1.63634 -4.87574 0
M  V30 2280 N 211.235 -2.47404 -5.6184 0
M  V30 2281 C 212.606 -2.67329 -5.59406 0
M  V30 2282 C 214.661 -1.65478 -4.69597 0
M  V30 2283 C 213.364 -3.72773 -6.15169 0
M  V30 2284 C 215.39 -2.69837 -5.26253 0
M  V30 2285 C 214.752 -3.72253 -5.98002 0
M  V30 2286 H 210.851 0.0228343 -0.781667 0
M  V30 2287 H 213.435 -0.556368 -1.86581 0
M  V30 2288 H 211.606 1.16709 -3.7045 0
M  V30 2289 H 213.338 1.03338 -3.91284 0
M  V30 2290 H 210.093 -0.842273 -4.6605 0
M  V30 2291 H 210.517 -3.07688 -6.0304 0
M  V30 2292 H 215.159 -0.876389 -4.13617 0
M  V30 2293 H 212.877 -4.51471 -6.70223 0
M  V30 2294 H 216.463 -2.72164 -5.14216 0
M  V30 2295 H 215.343 -4.51679 -6.41058 0
M  V30 2296 N 212.846 1.57033 -0.133567 0
M  V30 2297 C 213.776 2.1909 0.807567 0
M  V30 2298 C 214.757 1.13517 1.26681 0
M  V30 2299 O 215.942 1.41809 1.32679 0
M  V30 2300 C 213.072 2.80188 2.05212 0
M  V30 2301 C 212.026 3.91471 1.73015 0
M  V30 2302 C 211.352 4.39443 3.04622 0
M  V30 2303 C 212.652 5.12886 0.987168 0
M  V30 2304 H 214.346 2.97988 0.290403 0
M  V30 2305 H 211.892 1.43335 0.138239 0
M  V30 2306 H 213.845 3.22264 2.71521 0
M  V30 2307 H 212.569 1.98601 2.59278 0
M  V30 2308 H 211.228 3.49993 1.0909 0
M  V30 2309 H 210.876 3.54695 3.56651 0
M  V30 2310 H 210.576 5.14495 2.83847 0
M  V30 2311 H 212.1 4.8418 3.72024 0
M  V30 2312 H 213.514 5.51891 1.55208 0
M  V30 2313 H 211.911 5.93615 0.87985 0
M  V30 2314 H 212.981 4.84894 -0.0235286 0
M  V30 2315 N 214.325 -0.140222 1.56975 0
M  V30 2316 C 215.741 -0.493088 1.51792 0
M  V30 2317 C 215.941 -1.83013 0.843116 0
M  V30 2318 O 214.997 -2.49041 0.416493 0
M  V30 2319 C 216.31 -0.497144 2.96562 0
M  V30 2320 C 217.858 -0.582186 3.07538 0
M  V30 2321 C 218.333 -0.616838 4.53827 0
M  V30 2322 N 219.824 -0.678873 4.58198 0
M  V30 2323 C 220.559 -0.726782 5.68775 0
M  V30 2324 N 220.055 -0.733623 6.88905 0
M  V30 2325 N 221.848 -0.768179 5.56826 0
M  V30 2326 H 213.999 0.736108 1.99237 0
M  V30 2327 H 216.262 0.269182 0.90898 0
M  V30 2328 H 215.968 0.417217 3.49217 0
M  V30 2329 H 215.842 -1.33263 3.52875 0
M  V30 2330 H 218.229 -1.48697 2.54899 0
M  V30 2331 H 218.31 0.280581 2.54257 0
M  V30 2332 H 217.954 0.283812 5.07106 0
M  V30 2333 H 217.884 -1.49619 5.04898 0
M  V30 2334 H 220.375 -0.68061 3.7172 0
M  V30 2335 H 220.688 -0.772215 7.68932 0
M  V30 2336 H 219.033 -0.701389 6.91452 0
M  V30 2337 H 222.224 -0.760051 4.61888 0
M  V30 2338 H 222.397 -0.80205 6.43017 0
M  V30 2339 N 215.803 -1.52179 -0.40978 0
M  V30 2340 C 216.766 -1.74853 -1.48186 0
M  V30 2341 C 217.766 -0.618417 -1.48433 0
M  V30 2342 O 218.956 -0.886286 -1.49969 0
M  V30 2343 C 216.088 -1.8303 -2.87598 0
M  V30 2344 H 217.281 -2.70559 -1.29374 0
M  V30 2345 H 214.834 -1.42586 -0.640233 0
M  V30 2346 H 215.569 -0.89236 -3.11781 0
M  V30 2347 H 215.354 -2.65187 -2.88822 0
M  V30 2348 H 216.844 -2.02316 -3.65319 0
M  V30 2349 N 217.281 0.66697 -1.42791 0
M  V30 2350 C 218.211 1.79218 -1.49677 0
M  V30 2351 C 219.192 1.66405 -0.352623 0
M  V30 2352 O 220.377 1.85708 -0.567993 0
M  V30 2353 C 217.507 3.17565 -1.40605 0
M  V30 2354 C 216.461 3.45124 -2.53127 0
M  V30 2355 C 215.787 4.83127 -2.29112 0
M  V30 2356 C 217.087 3.41236 -3.95418 0
M  V30 2357 H 218.781 1.73713 -2.43853 0
M  V30 2358 H 216.327 0.83432 -1.17367 0
M  V30 2359 H 218.28 3.96022 -1.44029 0
M  V30 2360 H 217.004 3.23767 -0.429271 0
M  V30 2361 H 215.663 2.69031 -2.49034 0
M  V30 2362 H 215.311 4.85988 -1.29709 0
M  V30 2363 H 215.011 5.02528 -3.04531 0
M  V30 2364 H 216.535 5.63859 -2.34297 0
M  V30 2365 H 217.949 4.09651 -4.01073 0
M  V30 2366 H 216.346 3.72173 -4.70752 0
M  V30 2367 H 217.416 2.39665 -4.21532 0
M  V30 2368 N 218.759 1.29093 0.90403 0
M  V30 2369 C 220.007 1.16583 1.65085 0
M  V30 2370 C 220.328 -0.283933 1.92922 0
M  V30 2371 O 219.598 -1.19509 1.55224 0
M  V30 2372 H 218.178 0.428467 0.611903 0
M  V30 2373 H 220.84 1.61959 1.08422 0
M  V30 2374 H 219.936 1.71266 2.6091 0
M  V30 2375 N 220.237 -1.11381 1.11499 0
M  V30 2376 C 221.653 -1.35143 0.849031 0
M  V30 2377 C 221.853 -1.94515 -0.525938 0
M  V30 2378 O 220.909 -2.1785 -1.27662 0
M  V30 2379 C 222.222 -2.28249 1.95762 0
M  V30 2380 C 223.77 -2.41812 1.98736 0
M  V30 2381 C 224.245 -3.3824 3.088 0
M  V30 2382 N 225.736 -3.45803 3.08179 0
M  V30 2383 C 226.471 -4.20358 3.89982 0
M  V30 2384 N 225.967 -4.97884 4.8175 0
M  V30 2385 N 227.76 -4.15877 3.78157 0
M  V30 2386 H 219.911 -0.712062 2.00109 0
M  V30 2387 H 222.174 -0.376025 0.870235 0
M  V30 2388 H 221.88 -1.91817 2.94787 0
M  V30 2389 H 221.754 -3.28473 1.85433 0
M  V30 2390 H 224.141 -2.77518 1.00338 0
M  V30 2391 H 224.222 -1.41437 2.13141 0
M  V30 2392 H 223.866 -3.03261 4.07425 0
M  V30 2393 H 223.796 -4.38471 2.91635 0
M  V30 2394 H 226.287 -2.90506 2.41691 0
M  V30 2395 H 226.6 -5.52142 5.40702 0
M  V30 2396 H 224.945 -4.97043 4.85771 0
M  V30 2397 H 228.136 -3.544 3.05808 0
M  V30 2398 H 228.309 -4.73723 4.42143 0
M  V30 2399 N 221.715 -0.905404 -1.28997 0
M  V30 2400 C 222.678 -0.392253 -2.25819 0
M  V30 2401 C 223.678 0.476753 -1.5357 0
M  V30 2402 O 224.868 0.280994 -1.71919 0
M  V30 2403 C 222 0.438588 -3.38067 0
M  V30 2404 H 223.193 -1.24743 -2.72725 0
M  V30 2405 H 220.746 -0.684051 -1.40536 0
M  V30 2406 H 221.481 1.31352 -2.96508 0
M  V30 2407 H 221.266 -0.184167 -3.91667 0
M  V30 2408 H 222.756 0.78873 -4.10084 0
M  V30 2409 N 223.193 1.4272 -0.668489 0
M  V30 2410 C 224.418 2.06484 -0.194758 0
M  V30 2411 C 224.843 1.49862 1.13679 0
M  V30 2412 O 224.201 0.614582 1.70565 0
M  V30 2413 C 224.249 3.60353 -0.133546 0
M  V30 2414 O 223.353 4.02464 0.899806 0
M  V30 2415 H 222.694 0.656137 -0.10188 0
M  V30 2416 H 225.224 1.82964 -0.915722 0
M  V30 2417 H 225.234 4.07976 0.0447041 0
M  V30 2418 H 223.909 4.00938 -1.1055 0
M  V30 2419 H 222.486 3.66402 0.693109 0
M  V30 2420 N 224.671 0.411399 1.52136 0
M  V30 2421 C 226.087 0.0623865 1.59478 0
M  V30 2422 C 226.287 -1.42554 1.4241 0
M  V30 2423 O 225.343 -2.19263 1.2522 0
M  V30 2424 C 226.656 0.559331 2.95452 0
M  V30 2425 C 228.204 0.517503 3.08692 0
M  V30 2426 C 228.679 0.990994 4.4715 0
M  V30 2427 N 230.17 0.947908 4.53397 0
M  V30 2428 C 230.905 1.28544 5.58806 0
M  V30 2429 N 230.401 1.69454 6.71757 0
M  V30 2430 N 232.194 1.20526 5.49026 0
M  V30 2431 H 224.345 1.37982 1.61477 0
M  V30 2432 H 226.608 0.566977 0.759764 0
M  V30 2433 H 226.314 1.59938 3.1323 0
M  V30 2434 H 226.188 -0.0298014 3.77188 0
M  V30 2435 H 228.575 -0.513505 2.90598 0
M  V30 2436 H 228.656 1.14272 2.28857 0
M  V30 2437 H 228.3 2.02034 4.65988 0
M  V30 2438 H 228.23 0.34257 5.25485 0
M  V30 2439 H 230.721 0.647157 3.72317 0
M  V30 2440 H 231.034 1.93513 7.48179 0
M  V30 2441 H 229.379 1.73359 6.73032 0
M  V30 2442 H 232.57 0.884505 4.59667 0
M  V30 2443 H 232.743 1.47161 6.31069 0
M  V30 2444 N 226.149 -1.5696 0.141893 0
M  V30 2445 C 227.112 -2.15316 -0.785587 0
M  V30 2446 C 228.112 -1.09366 -1.1788 0
M  V30 2447 O 229.302 -1.35031 -1.10056 0
M  V30 2448 C 226.434 -2.71211 -2.06537 0
M  V30 2449 H 227.627 -2.98608 -0.278041 0
M  V30 2450 H 225.18 -1.5593 -0.107519 0
M  V30 2451 H 225.915 -1.91571 -2.6167 0
M  V30 2452 H 225.7 -3.4872 -1.79268 0
M  V30 2453 H 227.19 -3.16189 -2.72789 0
M  V30 2454 N 227.627 0.131896 -1.57047 0
M  V30 2455 C 228.537 1.1815 -2.02676 0
M  V30 2456 C 229.553 1.46113 -0.944824 0
M  V30 2457 O 230.729 1.57485 -1.25541 0
M  V30 2458 C 227.794 2.49139 -2.41103 0
M  V30 2459 C 226.855 2.28688 -3.63318 0
M  V30 2460 C 226.088 3.53431 -3.99903 0
M  V30 2461 O 226.311 4.60223 -3.36973 0
M  V30 2462 O 225.245 3.45198 -4.93074 0
M  V30 2463 H 229.071 0.824069 -2.92306 0
M  V30 2464 H 226.656 0.341745 -1.45439 0
M  V30 2465 H 228.538 3.26338 -2.66611 0
M  V30 2466 H 227.213 2.84382 -1.54624 0
M  V30 2467 H 226.12 1.4939 -3.42977 0
M  V30 2468 H 227.453 1.98355 -4.50462 0
M  V30 2469 N 229.106 1.52395 0.401703 0
M  V30 2470 C 230.354 1.66488 1.14569 0
M  V30 2471 C 230.675 0.400897 1.90835 0
M  V30 2472 O 229.945 -0.584415 1.8698 0
M  V30 2473 H 228.525 0.613672 0.425929 0
M  V30 2474 H 231.187 1.89464 0.457093 0
M  V30 2475 H 230.283 2.50942 1.85566 0
M  V30 2476 N 230.584 -0.659388 1.43143 0
M  V30 2477 C 231.861 -1.41627 1.34912 0
M  V30 2478 C 232.241 -2.11099 -0.00607785 0
M  V30 2479 O 231.589 -2.04353 -1.02236 0
M  V30 2480 C 231.799 -2.40604 2.52805 0
M  V30 2481 C 233.147 -3.04789 2.95616 0
M  V30 2482 O 234.171 -2.50932 2.52807 0
M  V30 2483 O 233.03 -4.02421 3.69756 0
M  V30 2484 H 230.124 -0.63246 0.532844 0
M  V30 2485 H 232.67 -0.686814 1.5518 0
M  V30 2486 H 231.442 -1.88174 3.43083 0
M  V30 2487 H 231.065 -3.21009 2.34604 0
M  V30 2488 N 232.062 -1.29571 -0.897171 0
M  V30 2489 C 233.339 -1.08365 -1.62839 0
M  V30 2490 C 233.719 0.371331 -2.07808 0
M  V30 2491 O 233.067 1.3606 -1.83576 0
M  V30 2492 C 233.277 -2.0735 -2.80726 0
M  V30 2493 C 234.625 -2.38406 -3.51351 0
M  V30 2494 O 235.649 -2.05564 -2.90898 0
M  V30 2495 O 234.508 -2.9453 -4.60341 0
M  V30 2496 H 231.602 -0.415345 -0.715134 0
M  V30 2497 H 234.148 -1.40952 -0.945018 0
M  V30 2498 H 232.92 -3.05339 -2.44711 0
M  V30 2499 H 232.543 -1.75507 -3.56767 0
M  V30 2500 N 233.54 1.10788 -1.12088 0
M  V30 2501 C 234.77 1.86191 -0.895351 0
M  V30 2502 C 235.178 1.80763 0.558702 0
M  V30 2503 O 234.521 1.19188 1.39785 0
M  V30 2504 C 234.583 3.35659 -1.28737 0
M  V30 2505 C 234.247 3.64849 -2.75198 0
M  V30 2506 C 235.244 3.61757 -3.734 0
M  V30 2507 C 232.929 3.93641 -3.12013 0
M  V30 2508 C 234.923 3.87045 -5.06434 0
M  V30 2509 C 232.61 4.18585 -4.4523 0
M  V30 2510 C 233.608 4.15277 -5.42249 0
M  V30 2511 O 233.296 4.3959 -6.73065 0
M  V30 2512 H 233.028 0.595425 -0.32007 0
M  V30 2513 H 235.582 1.40992 -1.49367 0
M  V30 2514 H 233.812 3.81497 -0.63224 0
M  V30 2515 H 235.501 3.92441 -1.03656 0
M  V30 2516 H 236.267 3.39557 -3.46303 0
M  V30 2517 H 232.146 3.95348 -2.37109 0
M  V30 2518 H 235.69 3.84378 -5.82151 0
M  V30 2519 H 231.587 4.40264 -4.72057 0
M  V30 2520 H 232.355 4.57123 -6.78956 0
M  V30 2521 N 235.018 0.912232 1.28515 0
M  V30 2522 C 236.266 0.543523 1.94654 0
M  V30 2523 C 236.587 -0.9155 1.72173 0
M  V30 2524 O 235.857 -1.64708 1.06058 0
M  V30 2525 H 234.437 0.198017 0.720277 0
M  V30 2526 H 237.099 1.16126 1.56527 0
M  V30 2527 H 236.195 0.736684 3.03281 0
M  V30 2528 N 236.496 -1.42363 0.676048 0
M  V30 2529 C 237.428 -2.29164 -0.0404605 0
M  V30 2530 C 238.441 -1.43747 -0.764245 0
M  V30 2531 O 239.63 -1.67453 -0.618195 0
M  V30 2532 C 236.73 -3.21196 -1.08103 0
M  V30 2533 C 235.903 -4.35273 -0.430812 0
M  V30 2534 C 234.962 -5.08017 -1.37133 0
M  V30 2535 O 233.988 -5.62494 -0.87116 0
M  V30 2536 N 235.19 -5.13647 -2.70456 0
M  V30 2537 H 237.955 -2.91298 0.704667 0
M  V30 2538 H 235.516 -1.53303 0.520559 0
M  V30 2539 H 237.508 -3.66728 -1.71152 0
M  V30 2540 H 236.078 -2.60505 -1.72788 0
M  V30 2541 H 235.298 -3.92372 0.379209 0
M  V30 2542 H 236.586 -5.08795 0.0221132 0
M  V30 2543 H 235.984 -4.708 -3.1363 0
M  V30 2544 H 234.541 -5.62821 -3.28749 0
M  V30 2545 N 237.974 -0.419461 -1.51915 0
M  V30 2546 C 239.385 0.0477853 -1.86639 0
M  V30 2547 C 239.736 1.43531 -1.33766 0
M  V30 2548 O 238.861 2.05401 -0.68113 0
M  V30 2549 C 239.456 0.0934885 -3.38671 0
M  V30 2550 C 238.015 0.505097 -3.72996 0
M  V30 2551 C 237.162 -0.313792 -2.75519 0
M  V30 2552 H 240.113 -0.636088 -1.45395 0
M  V30 2553 H 240.134 0.906667 -3.6954 0
M  V30 2554 H 239.646 -0.916501 -3.77123 0
M  V30 2555 H 237.747 1.52135 -3.40126 0
M  V30 2556 H 237.86 0.242309 -4.78487 0
M  V30 2557 H 236.224 0.225363 -2.53701 0
M  V30 2558 H 237.007 -1.32232 -3.16812 0
M  V30 2559 N 239.452 1.56882 -0.150215 0
M  V30 2560 C 240.868 1.58263 0.20617 0
M  V30 2561 C 241.068 1.16464 1.64434 0
M  V30 2562 O 240.124 0.866422 2.3717 0
M  V30 2563 C 241.437 3.00649 -0.0555025 0
M  V30 2564 C 242.985 3.12999 0.00795388 0
M  V30 2565 C 243.46 4.5744 -0.226429 0
M  V30 2566 N 244.951 4.62875 -0.173469 0
M  V30 2567 C 245.686 5.72454 -0.329288 0
M  V30 2568 N 245.182 6.90669 -0.543005 0
M  V30 2569 N 246.975 5.61467 -0.266666 0
M  V30 2570 H 239.126 1.82345 -1.08922 0
M  V30 2571 H 241.389 0.844149 -0.431413 0
M  V30 2572 H 241.095 3.3563 -1.05096 0
M  V30 2573 H 240.969 3.71337 0.66246 0
M  V30 2574 H 243.356 2.77857 0.993966 0
M  V30 2575 H 243.437 2.4479 -0.742388 0
M  V30 2576 H 243.081 4.93287 -1.20956 0
M  V30 2577 H 243.011 5.2378 0.544274 0
M  V30 2578 H 245.502 3.77898 -0.0130709 0
M  V30 2579 H 245.815 7.70045 -0.651922 0
M  V30 2580 H 244.16 6.92581 -0.579366 0
M  V30 2581 H 247.351 4.67992 -0.100441 0
M  V30 2582 H 247.524 6.46816 -0.391535 0
M  V30 2583 N 240.93 -0.123565 1.57115 0
M  V30 2584 C 242.155 -0.850398 1.89164 0
M  V30 2585 C 242.58 -1.7286 0.741688 0
M  V30 2586 O 241.938 -1.78665 -0.307958 0
M  V30 2587 C 241.986 -1.66353 3.19936 0
M  V30 2588 O 241.09 -2.77004 3.0552 0
M  V30 2589 H 240.431 -0.235454 0.620852 0
M  V30 2590 H 242.961 -0.107335 2.04318 0
M  V30 2591 H 242.971 -2.05372 3.52543 0
M  V30 2592 H 241.646 -1.01881 4.03228 0
M  V30 2593 H 240.223 -2.41221 2.84371 0
M  V30 2594 N 242.408 -1.52605 -0.393616 0
M  V30 2595 C 243.819 -1.59417 -0.971761 0
M  V30 2596 C 244.17 -0.444173 -1.91106 0
M  V30 2597 O 243.295 0.433382 -2.12016 0
M  V30 2598 C 243.89 -2.88936 -1.76921 0
M  V30 2599 C 242.449 -2.98175 -2.29714 0
M  V30 2600 C 241.596 -2.54491 -1.10135 0
M  V30 2601 H 244.547 -1.57751 -0.173317 0
M  V30 2602 H 244.568 -2.75163 -2.62804 0
M  V30 2603 H 244.08 -3.72616 -1.08532 0
M  V30 2604 H 242.181 -2.19024 -3.01429 0
M  V30 2605 H 242.294 -4.02726 -2.59517 0
M  V30 2606 H 240.658 -2.08702 -1.45999 0
M  V30 2607 H 241.441 -3.4056 -0.432874 0
M  V30 2608 N 243.887 0.651787 -1.4349 0
M  V30 2609 C 244.85 1.74647 -1.48429 0
M  V30 2610 C 245.85 1.56513 -0.368817 0
M  V30 2611 O 247.04 1.62385 -0.630623 0
M  V30 2612 C 244.172 3.13533 -1.33827 0
M  V30 2613 H 245.365 1.71649 -2.4592 0
M  V30 2614 H 242.918 0.863573 -1.30277 0
M  V30 2615 H 243.653 3.22142 -0.37349 0
M  V30 2616 H 243.438 3.28101 -2.14691 0
M  V30 2617 H 244.928 3.93356 -1.40218 0
M  V30 2618 N 245.365 1.30045 0.890287 0
M  V30 2619 C 246.781 1.08261 1.17268 0
M  V30 2620 C 246.981 -0.160063 2.00863 0
M  V30 2621 O 246.037 -0.855181 2.37577 0
M  V30 2622 C 247.35 2.34323 1.8845 0
M  V30 2623 C 248.898 2.39735 2.01237 0
M  V30 2624 C 249.373 3.65625 2.7583 0
M  V30 2625 N 250.864 3.66402 2.83379 0
M  V30 2626 C 251.599 4.60498 3.41657 0
M  V30 2627 N 251.095 5.64933 4.01026 0
M  V30 2628 N 252.888 4.48051 3.39421 0
M  V30 2629 H 245.039 2.09777 0.332762 0
M  V30 2630 H 247.302 0.92446 0.209948 0
M  V30 2631 H 247.008 3.2498 1.34465 0
M  V30 2632 H 246.882 2.4256 2.88867 0
M  V30 2633 H 249.269 1.4956 2.54393 0
M  V30 2634 H 249.35 2.35476 0.999232 0
M  V30 2635 H 248.994 4.56156 2.23347 0
M  V30 2636 H 248.924 3.67144 3.77509 0
M  V30 2637 H 251.415 2.90896 2.41222 0
M  V30 2638 H 251.728 6.32841 4.43545 0
M  V30 2639 H 250.073 5.68732 3.99461 0
M  V30 2640 H 253.264 3.65649 2.92264 0
M  V30 2641 H 253.437 5.21565 3.84544 0
M  V30 2642 N 246.843 -1.10192 1.12674 0
M  V30 2643 C 248.254 -1.63707 0.897604 0
M  V30 2644 C 248.605 -1.87812 -0.567546 0
M  V30 2645 O 247.73 -1.62196 -1.43253 0
M  V30 2646 C 248.325 -2.974 1.62292 0
M  V30 2647 C 246.884 -3.47772 1.43986 0
M  V30 2648 C 246.031 -2.22332 1.65722 0
M  V30 2649 H 248.982 -0.936587 1.28116 0
M  V30 2650 H 249.003 -3.64986 1.07541 0
M  V30 2651 H 248.515 -2.79824 2.68924 0
M  V30 2652 H 246.616 -3.70487 0.396206 0
M  V30 2653 H 246.729 -4.25723 2.19765 0
M  V30 2654 H 245.093 -2.30599 1.08149 0
M  V30 2655 H 245.876 -2.07285 2.73657 0
M  V30 2656 N 248.321 -0.919034 -1.28029 0
M  V30 2657 C 249.253 -0.368762 -2.26214 0
M  V30 2658 C 250.266 0.495716 -1.55069 0
M  V30 2659 O 251.455 0.30974 -1.75792 0
M  V30 2660 C 248.555 0.491049 -3.35324 0
M  V30 2661 C 247.728 -0.352133 -4.3598 0
M  V30 2662 C 246.787 0.443622 -5.24327 0
M  V30 2663 O 245.813 -0.14566 -5.69014 0
M  V30 2664 N 247.015 1.74545 -5.53637 0
M  V30 2665 H 249.78 -1.21273 -2.74068 0
M  V30 2666 H 247.341 -0.785541 -1.41566 0
M  V30 2667 H 249.333 1.03026 -3.91366 0
M  V30 2668 H 247.903 1.23574 -2.87138 0
M  V30 2669 H 247.123 -1.07269 -3.79324 0
M  V30 2670 H 248.411 -0.928883 -5.00249 0
M  V30 2671 H 247.809 2.24666 -5.19174 0
M  V30 2672 H 246.366 2.23138 -6.12416 0
M  V30 2673 N 249.799 1.42003 -0.683588 0
M  V30 2674 C 251.21 1.84501 -0.285736 0
M  V30 2675 C 251.561 1.57213 1.17382 0
M  V30 2676 O 250.686 1.03642 1.89966 0
M  V30 2677 C 251.281 3.34912 -0.511821 0
M  V30 2678 C 249.84 3.76025 -0.168005 0
M  V30 2679 C 248.987 2.6551 -0.799983 0
M  V30 2680 H 251.938 1.31724 -0.885119 0
M  V30 2681 H 251.959 3.79784 0.233292 0
M  V30 2682 H 251.471 3.54741 -1.57418 0
M  V30 2683 H 249.572 3.61801 0.890567 0
M  V30 2684 H 249.685 4.75141 -0.614661 0
M  V30 2685 H 248.049 2.53654 -0.230568 0
M  V30 2686 H 248.832 2.8816 -1.86597 0
M  V30 2687 N 251.277 0.427512 1.51691 0
M  V30 2688 C 252.525 -0.141948 2.01601 0
M  V30 2689 C 252.846 -1.44067 1.31414 0
M  V30 2690 O 252.116 -1.90763 0.445658 0
M  V30 2691 H 250.696 -0.0554468 0.744939 0
M  V30 2692 H 253.358 0.567968 1.86441 0
M  V30 2693 H 252.454 -0.324913 3.10404 0
M  V30 2694 N 252.755 -1.56801 0.158532 0
M  V30 2695 C 253.665 -2.20916 -0.789518 0
M  V30 2696 C 254.681 -1.1969 -1.26294 0
M  V30 2697 O 255.857 -1.52308 -1.31773 0
M  V30 2698 C 252.922 -2.82727 -2.00665 0
M  V30 2699 C 251.983 -3.99114 -1.58134 0
M  V30 2700 C 251.216 -4.57968 -2.74045 0
M  V30 2701 O 251.439 -4.15704 -3.90572 0
M  V30 2702 O 250.373 -5.48047 -2.48855 0
M  V30 2703 H 254.199 -3.02464 -0.273681 0
M  V30 2704 H 251.784 -1.4924 -0.0690548 0
M  V30 2705 H 253.666 -3.21968 -2.71872 0
M  V30 2706 H 252.341 -2.04184 -2.51179 0
M  V30 2707 H 251.248 -3.64567 -0.839155 0
M  V30 2708 H 252.581 -4.79212 -1.12325 0
M  V30 2709 N 254.233 0.115231 -1.57178 0
M  V30 2710 C 255.481 0.820727 -1.84685 0
M  V30 2711 C 255.802 1.80237 -0.744279 0
M  V30 2712 O 255.072 1.94529 0.231375 0
M  V30 2713 H 253.652 0.306084 -0.681411 0
M  V30 2714 H 256.314 0.101656 -1.94635 0
M  V30 2715 H 255.41 1.36366 -2.80733 0
M  V30 2716 N 255.711 1.52812 0.385517 0
M  V30 2717 C 257.122 1.5993 0.963293 0
M  V30 2718 C 257.473 0.454302 1.90868 0
M  V30 2719 O 256.598 -0.422132 2.12243 0
M  V30 2720 C 257.193 2.89871 1.75387 0
M  V30 2721 C 255.752 2.99389 2.28129 0
M  V30 2722 C 254.899 2.55071 1.08783 0
M  V30 2723 H 257.85 1.5784 0.164948 0
M  V30 2724 H 257.871 2.76553 2.61341 0
M  V30 2725 H 257.383 3.73186 1.06554 0
M  V30 2726 H 255.484 2.20619 3.00263 0
M  V30 2727 H 255.597 4.04096 2.57377 0
M  V30 2728 H 253.961 2.09473 1.4489 0
M  V30 2729 H 254.744 3.40785 0.414807 0
M  V30 2730 N 257.189 -0.644168 1.43834 0
M  V30 2731 C 258.437 -1.40117 1.45642 0
M  V30 2732 C 258.758 -1.94814 0.0852413 0
M  V30 2733 O 258.028 -1.74988 -0.880688 0
M  V30 2734 H 256.608 -0.52005 0.536243 0
M  V30 2735 H 259.27 -0.7591 1.7951 0
M  V30 2736 H 258.366 -2.23902 2.17427 0
M  V30 2737 N 258.668 -1.30515 -0.883378 0
M  V30 2738 C 259.916 -1.19194 -1.63209 0
M  V30 2739 C 260.237 0.253205 -1.93349 0
M  V30 2740 O 259.507 1.17025 -1.57105 0
M  V30 2741 H 258.087 -0.438148 -0.605009 0
M  V30 2742 H 260.749 -1.63663 -1.05832 0
M  V30 2743 H 259.845 -1.75396 -2.58153 0
M  V30 2744 N 260.146 1.09593 -1.13257 0
M  V30 2745 C 261.557 1.63229 -0.906274 0
M  V30 2746 C 261.908 1.8811 0.557578 0
M  V30 2747 O 261.033 1.62953 1.42391 0
M  V30 2748 C 261.628 2.96535 -1.63867 0
M  V30 2749 C 260.187 3.47003 -1.45828 0
M  V30 2750 C 259.334 2.2145 -1.66898 0
M  V30 2751 H 262.285 0.92978 -1.28611 0
M  V30 2752 H 262.306 3.64411 -1.09476 0
M  V30 2753 H 261.818 2.78394 -2.70404 0
M  V30 2754 H 259.919 3.70272 -0.415848 0
M  V30 2755 H 260.032 4.24551 -2.2202 0
M  V30 2756 H 258.396 2.30022 -1.09371 0
M  V30 2757 H 259.179 2.0583 -2.74752 0
M  V30 2758 N 261.624 0.925811 1.2754 0
M  V30 2759 C 262.872 0.564138 1.94067 0
M  V30 2760 C 263.193 -0.897188 1.73134 0
M  V30 2761 O 262.463 -1.63573 1.07799 0
M  V30 2762 H 261.043 0.205645 0.718136 0
M  V30 2763 H 263.705 1.1778 1.55287 0
M  V30 2764 H 262.801 0.76881 3.02483 0
M  V30 2765 N 263.102 -1.41638 0.69111 0
M  V30 2766 C 264.35 -2.00902 0.219758 0
M  V30 2767 C 264.671 -1.54994 -1.18329 0
M  V30 2768 O 263.941 -0.778628 -1.79762 0
M  V30 2769 H 262.521 -0.74289 0.0782558 0
M  V30 2770 H 265.183 -1.73327 0.891271 0
M  V30 2771 H 264.279 -3.11224 0.233708 0
M  V30 2772 N 264.58 -0.43555 -1.51462 0
M  V30 2773 C 265.991 0.0279871 -1.86679 0
M  V30 2774 C 266.342 1.42104 -1.35281 0
M  V30 2775 O 265.467 2.04667 -0.702878 0
M  V30 2776 C 266.062 0.0575626 -3.38751 0
M  V30 2777 C 264.621 0.465507 -3.7351 0
M  V30 2778 C 263.768 -0.342996 -2.75171 0
M  V30 2779 H 266.719 -0.651473 -1.44712 0
M  V30 2780 H 266.74 0.867421 -3.70481 0
M  V30 2781 H 266.252 -0.956448 -3.7613 0
M  V30 2782 H 264.353 1.48519 -3.41721 0
M  V30 2783 H 264.466 0.191546 -4.78717 0
M  V30 2784 H 262.83 0.198442 -2.53926 0
M  V30 2785 H 263.613 -1.35585 -3.15391 0
M  V30 2786 N 266.058 1.56714 -0.166846 0
M  V30 2787 C 267.469 1.83378 0.350646 0
M  V30 2788 C 267.82 1.08646 1.63372 0
M  V30 2789 O 266.945 0.338058 2.13743 0
M  V30 2790 C 267.54 3.32643 0.642963 0
M  V30 2791 C 266.099 3.59818 1.10491 0
M  V30 2792 C 265.246 2.76954 0.138411 0
M  V30 2793 H 268.197 1.53803 -0.391193 0
M  V30 2794 H 268.218 3.49878 1.49551 0
M  V30 2795 H 267.73 3.87007 -0.291055 0
M  V30 2796 H 265.831 3.1086 2.05418 0
M  V30 2797 H 265.944 4.68178 1.01716 0
M  V30 2798 H 264.308 2.4666 0.634911 0
M  V30 2799 H 265.091 3.34097 -0.789549 0
M  V30 2800 N 267.536 -0.106894 1.57237 0
M  V30 2801 C 268.446 -1.14911 2.0453 0
M  V30 2802 C 269.462 -1.44592 0.96795 0
M  V30 2803 O 270.638 -1.55468 1.2803 0
M  V30 2804 C 267.703 -2.45272 2.45036 0
M  V30 2805 C 266.764 -2.22879 3.66911 0
M  V30 2806 C 265.997 -3.47024 4.05475 0
M  V30 2807 O 266.22 -4.54804 3.44252 0
M  V30 2808 O 265.154 -3.3731 4.98504 0
M  V30 2809 H 268.98 -0.777461 2.9358 0
M  V30 2810 H 266.565 -0.318563 1.45964 0
M  V30 2811 H 268.447 -3.22055 2.71769 0
M  V30 2812 H 267.122 -2.81886 1.59129 0
M  V30 2813 H 266.029 -1.43915 3.45311 0
M  V30 2814 H 267.362 -1.91163 4.53561 0
M  V30 2815 N 269.014 -1.53014 -0.377408 0
M  V30 2816 C 270.26 -1.68872 -1.12294 0
M  V30 2817 C 270.593 -0.433224 -1.89306 0
M  V30 2818 O 269.868 0.569258 -1.85983 0
M  V30 2819 C 270.151 -2.93115 -2.09179 0
M  V30 2820 C 270.004 -4.28794 -1.35853 0
M  V30 2821 C 271.323 -3.12928 -3.09458 0
M  V30 2822 H 268.442 -0.614518 -0.406862 0
M  V30 2823 H 271.084 -1.85633 -0.40503 0
M  V30 2824 H 269.234 -2.78956 -2.70399 0
M  V30 2825 H 270.906 -4.54742 -0.775082 0
M  V30 2826 H 269.149 -4.28744 -0.660364 0
M  V30 2827 H 269.82 -5.11837 -2.06706 0
M  V30 2828 H 272.296 -3.26194 -2.58334 0
M  V30 2829 H 271.172 -4.01316 -3.74482 0
M  V30 2830 H 271.433 -2.27669 -3.78971 0
M  V30 2831 N 270.492 0.636531 -1.44174 0
M  V30 2832 C 271.717 1.42847 -1.50364 0
M  V30 2833 C 272.142 1.87665 -0.127867 0
M  V30 2834 O 271.5 1.58408 0.88185 0
M  V30 2835 C 271.548 2.62854 -2.4686 0
M  V30 2836 O 270.652 3.62501 -1.9664 0
M  V30 2837 H 269.993 0.427642 -0.507955 0
M  V30 2838 H 272.523 0.777422 -1.89255 0
M  V30 2839 H 272.533 3.10465 -2.64718 0
M  V30 2840 H 271.208 2.29578 -3.46795 0
M  V30 2841 H 269.785 3.21735 -1.88523 0
M  V30 2842 N 271.97 1.30982 0.876444 0
M  V30 2843 C 273.386 1.09498 1.16113 0
M  V30 2844 C 273.586 -0.13875 2.01022 0
M  V30 2845 O 272.642 -0.829935 2.38471 0
M  V30 2846 C 273.955 2.36308 1.85954 0
M  V30 2847 C 275.503 2.41856 1.98683 0
M  V30 2848 C 275.978 3.6853 2.71937 0
M  V30 2849 N 277.469 3.69387 2.79477 0
M  V30 2850 C 278.204 4.64096 3.36753 0
M  V30 2851 N 277.7 5.69155 3.95012 0
M  V30 2852 N 279.493 4.51626 3.3465 0
M  V30 2853 H 271.644 2.10118 0.310494 0
M  V30 2854 H 273.907 0.926634 0.200131 0
M  V30 2855 H 273.613 3.26388 1.31011 0
M  V30 2856 H 273.487 2.4561 2.86278 0
M  V30 2857 H 275.874 1.52249 2.52793 0
M  V30 2858 H 275.955 2.36523 0.9742 0
M  V30 2859 H 275.599 4.58499 2.18496 0
M  V30 2860 H 275.529 3.71127 3.73593 0
M  V30 2861 H 278.02 2.93438 2.38123 0
M  V30 2862 H 278.333 6.3751 4.36808 0
M  V30 2863 H 276.678 5.72937 3.93406 0
M  V30 2864 H 279.869 3.68728 2.8837 0
M  V30 2865 H 280.042 5.25614 3.7899 0
M  V30 2866 N 273.449 -1.08991 1.13837 0
M  V30 2867 C 274.697 -1.80899 0.901098 0
M  V30 2868 C 275.018 -1.86356 -0.574134 0
M  V30 2869 O 274.288 -1.35235 -1.41733 0
M  V30 2870 H 272.868 -0.669966 0.330386 0
M  V30 2871 H 275.53 -1.318 1.43578 0
M  V30 2872 H 274.626 -2.83929 1.29578 0
M  V30 2873 N 274.927 -0.932562 -1.27047 0
M  V30 2874 C 275.837 -0.441219 -2.30414 0
M  V30 2875 C 276.853 0.480525 -1.67233 0
M  V30 2876 O 278.029 0.362151 -1.98117 0
M  V30 2877 C 275.094 0.293651 -3.45454 0
M  V30 2878 C 274.155 -0.663601 -4.2414 0
M  V30 2879 C 273.388 0.0362932 -5.33688 0
M  V30 2880 O 273.611 1.2548 -5.56427 0
M  V30 2881 O 272.545 -0.638015 -5.98509 0
M  V30 2882 H 276.371 -1.29962 -2.74488 0
M  V30 2883 H 273.956 -0.6981 -1.32087 0
M  V30 2884 H 275.838 0.707951 -4.15411 0
M  V30 2885 H 274.513 1.12758 -3.03426 0
M  V30 2886 H 273.42 -1.12768 -3.56699 0
M  V30 2887 H 274.753 -1.46489 -4.69896 0
M  V30 2888 N 276.405 1.4127 -0.698611 0
M  V30 2889 C 277.315 2.34573 -0.0357891 0
M  V30 2890 C 278.331 1.56393 0.762701 0
M  V30 2891 O 279.507 1.8886 0.699564 0
M  V30 2892 C 276.572 3.35159 0.887089 0
M  V30 2893 C 275.633 4.29225 0.0804634 0
M  V30 2894 C 274.866 5.25006 0.959387 0
M  V30 2895 O 275.089 5.26314 2.19886 0
M  V30 2896 O 274.023 6.00519 0.407439 0
M  V30 2897 H 277.849 2.92838 -0.804957 0
M  V30 2898 H 275.434 1.42175 -0.458966 0
M  V30 2899 H 277.316 3.9689 1.41621 0
M  V30 2900 H 275.991 2.79333 1.6357 0
M  V30 2901 H 274.898 3.70833 -0.493328 0
M  V30 2902 H 276.231 4.88157 -0.629547 0
M  V30 2903 N 277.883 0.443576 1.51229 0
M  V30 2904 C 279.131 -0.120557 2.0174 0
M  V30 2905 C 279.452 -1.42665 1.32935 0
M  V30 2906 O 278.722 -1.9028 0.465866 0
M  V30 2907 H 277.302 -0.0475426 0.745486 0
M  V30 2908 H 279.964 0.587711 1.85828 0
M  V30 2909 H 279.06 -0.291972 3.10731 0
M  V30 2910 N 279.361 -1.56624 0.175154 0
M  V30 2911 C 280.777 -1.58571 -0.180966 0
M  V30 2912 C 280.977 -1.19065 -1.6256 0
M  V30 2913 O 280.033 -0.904044 -2.35761 0
M  V30 2914 C 281.346 -3.00522 0.103326 0
M  V30 2915 C 282.894 -3.12972 0.0418426 0
M  V30 2916 C 283.369 -4.57022 0.299175 0
M  V30 2917 N 284.86 -4.62541 0.247086 0
M  V30 2918 C 285.595 -5.71857 0.420318 0
M  V30 2919 N 285.091 -6.89717 0.652816 0
M  V30 2920 N 286.884 -5.60972 0.355957 0
M  V30 2921 H 279.035 -1.80589 1.11809 0
M  V30 2922 H 281.298 -0.837178 0.444788 0
M  V30 2923 H 281.004 -3.33916 1.10422 0
M  V30 2924 H 280.878 -3.72344 -0.603299 0
M  V30 2925 H 283.265 -2.79403 -0.949636 0
M  V30 2926 H 283.346 -2.43578 0.781238 0
M  V30 2927 H 282.99 -4.913 1.28788 0
M  V30 2928 H 282.92 -5.24579 -0.460876 0
M  V30 2929 H 285.411 -3.77829 0.0731895 0
M  V30 2930 H 285.724 -7.68911 0.774347 0
M  V30 2931 H 284.069 -6.91572 0.689476 0
M  V30 2932 H 287.26 -4.67773 0.174882 0
M  V30 2933 H 287.433 -6.46111 0.494388 0
M  V30 2934 N 280.839 0.0985539 -1.57292 0
M  V30 2935 C 282.088 0.801358 -1.85098 0
M  V30 2936 C 282.401 1.80066 -0.763902 0
M  V30 2937 O 283.607 2.55112 -0.928981 0
M  V30 2938 C 282.063 1.47599 -3.28242 0
M  V30 2939 C 281.671 0.516624 -4.45011 0
M  V30 2940 C 283.415 2.16272 -3.65276 0
M  V30 2941 C 281.322 1.19564 -5.79188 0
M  V30 2942 H 280.252 0.303022 -0.69043 0
M  V30 2943 H 282.903 0.0542623 -1.8342 0
M  V30 2944 H 281.285 2.27042 -3.2445 0
M  V30 2945 H 282.459 -0.246065 -4.60143 0
M  V30 2946 H 280.774 -0.064227 -4.1635 0
M  V30 2947 H 283.371 2.67802 -4.62803 0
M  V30 2948 H 283.714 2.95009 -2.93727 0
M  V30 2949 H 284.247 1.43693 -3.70941 0
M  V30 2950 H 280.986 0.449157 -6.53959 0
M  V30 2951 H 280.506 1.92984 -5.67906 0
M  V30 2952 H 282.185 1.7231 -6.23633 0
M  V30 2953 N 282.317 1.53212 0.369288 0
M  V30 2954 C 283.542 1.73423 1.1375 0
M  V30 2955 C 283.967 0.460404 1.82378 0
M  V30 2956 O 283.325 -0.585298 1.71592 0
M  V30 2957 C 283.373 2.89769 2.1463 0
M  V30 2958 O 282.477 2.58119 3.21634 0
M  V30 2959 H 281.818 0.576061 0.330227 0
M  V30 2960 H 284.348 2.00083 0.427547 0
M  V30 2961 H 284.358 3.15829 2.58294 0
M  V30 2962 H 283.033 3.8217 1.64071 0
M  V30 2963 H 281.61 2.42864 2.82969 0
M  V30 2964 N 283.795 -0.628877 1.44509 0
M  V30 2965 C 284.705 -1.7694 1.54044 0
M  V30 2966 C 285.721 -1.68705 0.425987 0
M  V30 2967 O 286.897 -1.89442 0.683656 0
M  V30 2968 C 283.962 -3.13332 1.48405 0
M  V30 2969 C 283.023 -3.33181 2.70719 0
M  V30 2970 C 282.256 -4.63067 2.6534 0
M  V30 2971 O 282.479 -5.44017 1.71469 0
M  V30 2972 O 281.413 -4.85167 3.56226 0
M  V30 2973 H 285.239 -1.71848 2.50403 0
M  V30 2974 H 282.824 -0.790378 1.26781 0
M  V30 2975 H 284.706 -3.94634 1.47791 0
M  V30 2976 H 283.381 -3.1896 0.551898 0
M  V30 2977 H 282.288 -2.51549 2.769 0
M  V30 2978 H 283.621 -3.32416 3.62988 0
M  V30 2979 N 285.273 -1.31445 -0.869486 0
M  V30 2980 C 286.498 -1.24256 -1.66058 0
M  V30 2981 C 286.923 0.188928 -1.87149 0
M  V30 2982 O 286.281 1.13522 -1.4136 0
M  V30 2983 C 286.329 -1.9924 -3.00559 0
M  V30 2984 O 285.433 -1.33007 -3.90362 0
M  V30 2985 H 284.774 -0.428973 -0.506831 0
M  V30 2986 H 287.304 -1.73521 -1.08404 0
M  V30 2987 H 287.314 -2.08854 -3.50491 0
M  V30 2988 H 285.989 -3.03342 -2.84528 0
M  V30 2989 H 284.566 -1.31848 -3.48813 0
M  V30 2990 N 286.751 1.08385 -1.14413 0
M  V30 2991 C 288.162 1.62258 -0.923535 0
M  V30 2992 C 288.513 1.88691 0.537595 0
M  V30 2993 O 287.638 1.64454 1.40655 0
M  V30 2994 C 288.233 2.94781 -1.67002 0
M  V30 2995 C 286.792 3.45437 -1.495 0
M  V30 2996 C 285.939 2.19668 -1.69238 0
M  V30 2997 H 288.89 0.916086 -1.2959 0
M  V30 2998 H 288.911 3.63229 -1.13334 0
M  V30 2999 H 288.423 2.7551 -2.73342 0
M  V30 3000 H 286.524 3.6981 -0.455097 0
M  V30 3001 H 286.637 4.22173 -2.2651 0
M  V30 3002 H 285.001 2.28849 -1.11804 0
M  V30 3003 H 285.784 2.02905 -2.7692 0
M  V30 3004 N 288.23 0.939286 1.26551 0
M  V30 3005 C 289.14 0.453432 2.30176 0
M  V30 3006 C 290.156 -0.471649 1.67486 0
M  V30 3007 O 291.332 -0.35164 1.98306 0
M  V30 3008 C 288.397 -0.275326 3.45605 0
M  V30 3009 C 287.458 0.686084 4.23782 0
M  V30 3010 C 286.691 -0.00798994 5.33699 0
M  V30 3011 O 286.914 -1.22528 5.57085 0
M  V30 3012 O 285.848 0.669746 5.98162 0
M  V30 3013 H 289.674 1.31416 2.73795 0
M  V30 3014 H 287.259 0.705095 1.31715 0
M  V30 3015 H 289.141 -0.685911 4.1578 0
M  V30 3016 H 287.816 -1.11147 3.0402 0
M  V30 3017 H 286.723 1.14658 3.56096 0
M  V30 3018 H 288.056 1.48979 4.69112 0
M  V30 3019 N 289.708 -1.40897 0.706093 0
M  V30 3020 C 290.954 -2.01352 0.241889 0
M  V30 3021 C 291.287 -1.55832 -1.15888 0
M  V30 3022 O 290.562 -0.774145 -1.7843 0
M  V30 3023 C 290.845 -3.58752 0.311311 0
M  V30 3024 C 290.698 -4.1437 1.74978 0
M  V30 3025 C 292.017 -4.38914 -0.322922 0
M  V30 3026 H 289.136 -0.731562 0.0893687 0
M  V30 3027 H 291.778 -1.67504 0.896802 0
M  V30 3028 H 289.928 -3.87718 -0.246302 0
M  V30 3029 H 291.6 -3.96239 2.36205 0
M  V30 3030 H 289.843 -3.69016 2.28057 0
M  V30 3031 H 290.514 -5.23532 1.74981 0
M  V30 3032 H 292.99 -4.15822 0.152089 0
M  V30 3033 H 291.866 -5.48358 -0.243855 0
M  V30 3034 H 292.127 -4.19176 -1.40513 0
M  V30 3035 N 291.186 -0.45159 -1.50991 0
M  V30 3036 C 292.414 0.108334 -2.06616 0
M  V30 3037 C 292.829 1.35224 -1.31757 0
M  V30 3038 O 292.186 1.78475 -0.381174 0
M  V30 3039 C 292.237 0.41619 -3.59096 0
M  V30 3040 O 291.958 -0.778361 -4.3113 0
M  V30 3041 C 293.459 1.02523 -4.31282 0
M  V30 3042 H 290.679 0.00159995 -0.670998 0
M  V30 3043 H 293.223 -0.634771 -1.94399 0
M  V30 3044 H 291.378 1.10921 -3.71181 0
M  V30 3045 H 291.792 -0.511181 -5.22003 0
M  V30 3046 H 293.266 1.19053 -5.39009 0
M  V30 3047 H 293.743 2.01013 -3.905 0
M  V30 3048 H 294.349 0.371173 -4.23677 0
M  V30 3049 N 292.664 1.56529 -0.183458 0
M  V30 3050 C 294.08 1.58664 0.172554 0
M  V30 3051 C 294.28 1.19925 1.61926 0
M  V30 3052 O 293.336 0.916534 2.35278 0
M  V30 3053 C 294.649 3.00463 -0.119262 0
M  V30 3054 C 296.197 3.12945 -0.0584396 0
M  V30 3055 C 296.672 4.56857 -0.323408 0
M  V30 3056 N 298.163 4.62403 -0.271612 0
M  V30 3057 C 298.898 5.71626 -0.450639 0
M  V30 3058 N 298.394 6.89362 -0.689384 0
M  V30 3059 N 300.187 5.60775 -0.385701 0
M  V30 3060 H 292.338 1.79994 -1.12765 0
M  V30 3061 H 294.601 0.834808 -0.449222 0
M  V30 3062 H 294.307 3.33326 -1.12192 0
M  V30 3063 H 294.181 3.72659 0.583544 0
M  V30 3064 H 296.568 2.79902 0.934805 0
M  V30 3065 H 296.649 2.4316 -0.794144 0
M  V30 3066 H 296.293 4.9061 -1.31392 0
M  V30 3067 H 296.223 5.24816 0.43305 0
M  V30 3068 H 298.714 3.77785 -0.0932256 0
M  V30 3069 H 299.027 7.68489 -0.815113 0
M  V30 3070 H 297.372 6.91196 -0.726142 0
M  V30 3071 H 300.563 4.67674 -0.199687 0
M  V30 3072 H 300.736 6.4584 -0.528646 0
M  V30 3073 N 294.142 -0.090211 1.57342 0
M  V30 3074 C 295.072 -1.10976 2.05443 0
M  V30 3075 C 296.053 -1.41482 0.944284 0
M  V30 3076 O 297.238 -1.51428 1.21586 0
M  V30 3077 C 294.368 -2.42831 2.48295 0
M  V30 3078 C 293.322 -2.26721 3.63018 0
M  V30 3079 C 292.648 -3.63796 3.91863 0
M  V30 3080 C 293.948 -1.7037 4.93732 0
M  V30 3081 H 295.642 -0.709564 2.9087 0
M  V30 3082 H 293.188 -0.339874 1.39932 0
M  V30 3083 H 295.141 -3.14431 2.80555 0
M  V30 3084 H 293.865 -2.84795 1.59873 0
M  V30 3085 H 292.524 -1.57565 3.31012 0
M  V30 3086 H 292.172 -4.03297 3.00601 0
M  V30 3087 H 291.872 -3.53861 4.69101 0
M  V30 3088 H 293.396 -4.36855 4.26603 0
M  V30 3089 H 294.81 -2.31816 5.24342 0
M  V30 3090 H 293.207 -1.71181 5.75167 0
M  V30 3091 H 294.277 -0.663542 4.80339 0
M  V30 3092 N 295.62 -1.53406 -0.361157 0
M  V30 3093 C 296.845 -1.74024 -1.12829 0
M  V30 3094 C 297.27 -0.470069 -1.82132 0
M  V30 3095 O 296.628 0.57619 -1.719 0
M  V30 3096 C 296.676 -2.90903 -2.13091 0
M  V30 3097 O 295.78 -2.59821 -3.20261 0
M  V30 3098 H 295.121 -0.577804 -0.327168 0
M  V30 3099 H 297.651 -2.00307 -0.41693 0
M  V30 3100 H 297.661 -3.17194 -2.56616 0
M  V30 3101 H 296.336 -3.83034 -1.62042 0
M  V30 3102 H 294.913 -2.44362 -2.81677 0
M  V30 3103 N 297.098 0.621204 -1.44841 0
M  V30 3104 C 298.514 0.94048 -1.28946 0
M  V30 3105 C 298.714 2.00154 -0.23249 0
M  V30 3106 O 297.77 2.49651 0.378237 0
M  V30 3107 C 299.083 1.39433 -2.66419 0
M  V30 3108 C 300.631 1.50927 -2.74208 0
M  V30 3109 C 301.106 1.99692 -4.12174 0
M  V30 3110 N 302.597 2.06947 -4.144 0
M  V30 3111 C 303.332 2.45871 -5.1801 0
M  V30 3112 N 302.828 2.83862 -6.31977 0
M  V30 3113 N 304.621 2.46092 -5.05366 0
M  V30 3114 H 296.772 -0.0803548 -2.12248 0
M  V30 3115 H 299.035 0.0266913 -0.947624 0
M  V30 3116 H 298.741 0.688925 -3.44887 0
M  V30 3117 H 298.615 2.36347 -2.93973 0
M  V30 3118 H 301.002 2.20561 -1.96053 0
M  V30 3119 H 301.083 0.523627 -2.50383 0
M  V30 3120 H 300.727 1.30649 -4.90809 0
M  V30 3121 H 300.657 2.99146 -4.33381 0
M  V30 3122 H 303.148 1.80232 -3.32152 0
M  V30 3123 H 303.461 3.12405 -7.0684 0
M  V30 3124 H 301.806 2.8159 -6.35399 0
M  V30 3125 H 304.997 2.1581 -4.15384 0
M  V30 3126 H 305.17 2.76102 -5.86235 0
M  V30 3127 N 298.576 1.31904 0.862503 0
M  V30 3128 C 299.824 1.21776 1.61292 0
M  V30 3129 C 300.145 -0.222413 1.93727 0
M  V30 3130 O 299.415 -1.1451 1.58947 0
M  V30 3131 H 297.995 0.447717 0.597962 0
M  V30 3132 H 300.657 1.65326 1.03215 0
M  V30 3133 H 299.753 1.7948 2.5533 0
M  V30 3134 N 300.054 -1.07777 1.14986 0
M  V30 3135 C 301.47 -1.32373 0.891596 0
M  V30 3136 C 301.67 -1.9609 -0.463788 0
M  V30 3137 O 300.726 -2.21801 -1.20667 0
M  V30 3138 C 302.039 -2.21905 2.02925 0
M  V30 3139 C 303.587 -2.35367 2.06329 0
M  V30 3140 C 304.062 -3.28245 3.19405 0
M  V30 3141 N 305.553 -3.35824 3.19024 0
M  V30 3142 C 306.288 -4.07739 4.03158 0
M  V30 3143 N 305.784 -4.82306 4.97346 0
M  V30 3144 N 307.577 -4.03635 3.91197 0
M  V30 3145 H 299.728 -0.648039 2.02273 0
M  V30 3146 H 301.991 -0.348149 0.881757 0
M  V30 3147 H 301.697 -1.82342 3.0074 0
M  V30 3148 H 301.571 -3.22407 1.95789 0
M  V30 3149 H 303.958 -2.74186 1.09116 0
M  V30 3150 H 304.039 -1.34585 2.17533 0
M  V30 3151 H 303.683 -2.90146 4.16867 0
M  V30 3152 H 303.613 -4.28971 3.05437 0
M  V30 3153 H 306.104 -2.8267 2.50811 0
M  V30 3154 H 306.417 -5.34661 5.57994 0
M  V30 3155 H 304.762 -4.81337 5.01338 0
M  V30 3156 H 307.953 -3.44491 3.16928 0
M  V30 3157 H 308.126 -4.59417 4.5699 0
M  V30 3158 N 301.532 -0.945985 -1.26051 0
M  V30 3159 C 302.78 -0.594941 -1.93145 0
M  V30 3160 C 303.101 0.86953 -1.7454 0
M  V30 3161 O 302.371 1.61838 -1.10387 0
M  V30 3162 H 300.951 -0.217044 -0.714773 0
M  V30 3163 H 303.613 -1.20235 -1.53393 0
M  V30 3164 H 302.709 -0.816835 -3.01221 0
M  V30 3165 N 303.011 1.40521 -0.713556 0
M  V30 3166 C 304.427 1.54839 -0.386907 0
M  V30 3167 C 304.627 1.68532 1.1045 0
M  V30 3168 O 303.683 1.67377 1.89053 0
M  V30 3169 C 304.996 2.77792 -1.15118 0
M  V30 3170 C 306.544 2.91607 -1.13729 0
M  V30 3171 C 307.019 4.1747 -1.88368 0
M  V30 3172 N 308.51 4.24466 -1.85427 0
M  V30 3173 C 309.245 5.20755 -2.40004 0
M  V30 3174 N 308.741 6.22965 -3.03129 0
M  V30 3175 N 310.534 5.1282 -2.30158 0
M  V30 3176 H 302.685 1.29879 -1.68063 0
M  V30 3177 H 304.948 0.627896 -0.710247 0
M  V30 3178 H 304.654 2.73944 -2.20561 0
M  V30 3179 H 304.528 3.6984 -0.741477 0
M  V30 3180 H 306.915 2.94959 -0.0910608 0
M  V30 3181 H 306.996 2.00682 -1.5862 0
M  V30 3182 H 306.64 4.1488 -2.9298 0
M  V30 3183 H 306.57 5.074 -1.40898 0
M  V30 3184 H 309.061 3.51241 -1.3942 0
M  V30 3185 H 309.374 6.92859 -3.42295 0
M  V30 3186 H 307.719 6.23415 -3.07212 0
M  V30 3187 H 310.91 4.31899 -1.80501 0
M  V30 3188 H 311.083 5.87689 -2.72993 0
M  V30 3189 N 304.489 0.459591 1.5075 0
M  V30 3190 C 305.9 0.00171547 1.867 0
M  V30 3191 C 306.251 -1.39934 1.37525 0
M  V30 3192 O 305.376 -2.03523 0.735349 0
M  V30 3193 C 305.971 -0.00366298 3.388 0
M  V30 3194 C 304.53 -0.406026 3.74204 0
M  V30 3195 C 303.677 0.38673 2.7459 0
M  V30 3196 H 306.628 0.674413 1.43657 0
M  V30 3197 H 306.649 -0.808371 3.71814 0
M  V30 3198 H 306.161 1.01617 3.74561 0
M  V30 3199 H 304.262 -1.43063 3.4404 0
M  V30 3200 H 304.375 -0.115362 4.78961 0
M  V30 3201 H 302.739 -0.158019 2.54209 0
M  V30 3202 H 303.522 1.40585 3.13194 0
M  V30 3203 N 305.967 -1.56429 0.191757 0
M  V30 3204 C 307.383 -1.58754 -0.164137 0
M  V30 3205 C 307.583 -1.20782 -1.61288 0
M  V30 3206 O 306.639 -0.928999 -2.34789 0
M  V30 3207 C 307.952 -3.00396 0.135195 0
M  V30 3208 C 309.5 -3.1291 0.0750351 0
M  V30 3209 C 309.975 -4.56679 0.347632 0
M  V30 3210 N 311.466 -4.62252 0.296131 0
M  V30 3211 C 312.201 -5.71379 0.480948 0
M  V30 3212 N 311.697 -6.88986 0.725933 0
M  V30 3213 N 313.49 -5.60563 0.415435 0
M  V30 3214 H 305.641 -1.79393 1.13718 0
M  V30 3215 H 307.904 -0.832414 0.453643 0
M  V30 3216 H 307.61 -3.32726 1.13958 0
M  V30 3217 H 307.484 -3.72963 -0.563773 0
M  V30 3218 H 309.871 -2.80394 -0.919948 0
M  V30 3219 H 309.952 -2.42736 0.807029 0
M  V30 3220 H 309.596 -4.89907 1.33992 0
M  V30 3221 H 309.526 -5.25039 -0.405212 0
M  V30 3222 H 312.017 -3.7773 0.113259 0
M  V30 3223 H 312.33 -7.68046 0.855857 0
M  V30 3224 H 310.675 -6.90801 0.762788 0
M  V30 3225 H 313.866 -4.67561 0.224486 0
M  V30 3226 H 314.039 -6.45551 0.562889 0
M  V30 3227 N 307.445 0.0818655 -1.57387 0
M  V30 3228 C 308.375 1.09885 -2.06028 0
M  V30 3229 C 309.356 1.4098 -0.951774 0
M  V30 3230 O 310.541 1.50781 -1.22387 0
M  V30 3231 C 307.671 2.4151 -2.4958 0
M  V30 3232 C 306.625 2.24792 -3.64215 0
M  V30 3233 C 305.951 3.61712 -3.93787 0
M  V30 3234 C 307.251 1.67749 -4.94629 0
M  V30 3235 H 308.945 0.694128 -2.91243 0
M  V30 3236 H 306.491 0.332448 -1.4011 0
M  V30 3237 H 308.444 3.12939 -2.82219 0
M  V30 3238 H 307.168 2.83943 -1.61381 0
M  V30 3239 H 305.827 1.55807 -3.31843 0
M  V30 3240 H 305.475 4.01697 -3.02735 0
M  V30 3241 H 305.175 3.51368 -4.70971 0
M  V30 3242 H 306.699 4.34587 -4.28913 0
M  V30 3243 H 308.113 2.29032 -5.25564 0
M  V30 3244 H 306.51 1.68128 -5.76067 0
M  V30 3245 H 307.58 0.638059 -4.80684 0
M  V30 3246 N 308.923 1.53595 0.353017 0
M  V30 3247 C 309.853 1.83902 1.43883 0
M  V30 3248 C 310.834 0.693421 1.55324 0
M  V30 3249 O 312.019 0.944452 1.69687 0
M  V30 3250 C 309.149 2.04016 2.8106 0
M  V30 3251 C 308.103 3.19814 2.84434 0
M  V30 3252 C 307.429 3.25244 4.24406 0
M  V30 3253 C 308.729 4.58133 2.50822 0
M  V30 3254 H 310.423 2.74835 1.1877 0
M  V30 3255 H 307.969 1.32242 0.569917 0
M  V30 3256 H 309.922 2.238 3.57059 0
M  V30 3257 H 308.646 1.09804 3.07588 0
M  V30 3258 H 307.305 2.9987 2.10887 0
M  V30 3259 H 306.953 2.28646 4.48029 0
M  V30 3260 H 306.653 4.03054 4.27576 0
M  V30 3261 H 308.177 3.47228 5.0226 0
M  V30 3262 H 309.591 4.77995 3.16534 0
M  V30 3263 H 307.988 5.38276 2.6529 0
M  V30 3264 H 309.058 4.62387 1.46034 0
M  V30 3265 N 310.401 -0.613514 1.45168 0
M  V30 3266 C 311.629 -1.39946 1.5239 0
M  V30 3267 C 312.044 -1.88167 0.154531 0
M  V30 3268 O 311.401 -1.61872 -0.842843 0
M  V30 3269 C 311.452 -2.60795 2.50337 0
M  V30 3270 O 311.173 -2.1458 3.81952 0
M  V30 3271 C 312.674 -3.53723 2.67198 0
M  V30 3272 H 309.894 -0.428593 0.516284 0
M  V30 3273 H 312.438 -0.748753 1.903 0
M  V30 3274 H 310.593 -3.21919 2.15515 0
M  V30 3275 H 311.007 -2.93055 4.34993 0
M  V30 3276 H 312.481 -4.35079 3.39721 0
M  V30 3277 H 312.958 -4.0368 1.73029 0
M  V30 3278 H 313.564 -2.98456 3.02992 0
M  V30 3279 N 311.879 -1.3236 -0.855495 0
M  V30 3280 C 313.29 -1.2056 -1.42556 0
M  V30 3281 C 313.641 0.182209 -1.95352 0
M  V30 3282 O 312.766 1.08088 -1.87472 0
M  V30 3283 C 313.361 -2.1826 -2.59129 0
M  V30 3284 C 311.92 -2.10351 -3.12137 0
M  V30 3285 C 311.067 -2.06674 -1.84882 0
M  V30 3286 H 314.018 -1.442 -0.662727 0
M  V30 3287 H 314.039 -1.78064 -3.36264 0
M  V30 3288 H 313.551 -3.19257 -2.20673 0
M  V30 3289 H 311.652 -1.12599 -3.55179 0
M  V30 3290 H 311.765 -3.00135 -3.73438 0
M  V30 3291 H 310.129 -1.51901 -2.04446 0
M  V30 3292 H 310.912 -3.09451 -1.48643 0
M  V30 3293 N 313.357 1.07166 -1.15556 0
M  V30 3294 C 314.582 1.84053 -0.955988 0
M  V30 3295 C 315.007 1.81586 0.490739 0
M  V30 3296 O 314.365 1.21018 1.34997 0
M  V30 3297 C 314.413 3.28957 -1.47714 0
M  V30 3298 O 313.517 4.06795 -0.677593 0
M  V30 3299 H 312.858 0.569842 -0.340847 0
M  V30 3300 H 315.388 1.35178 -1.53584 0
M  V30 3301 H 315.398 3.79788 -1.4908 0
M  V30 3302 H 314.073 3.30068 -2.53037 0
M  V30 3303 H 312.65 3.6561 -0.733721 0
M  V30 3304 N 314.835 0.952656 1.25548 0
M  V30 3305 C 316.246 0.647392 1.75116 0
M  V30 3306 C 316.597 -0.837274 1.77438 0
M  V30 3307 O 315.722 -1.65525 1.39393 0
M  V30 3308 C 316.317 1.16845 3.18014 0
M  V30 3309 C 314.876 0.913382 3.6515 0
M  V30 3310 C 314.023 1.31265 2.44264 0
M  V30 3311 H 316.974 1.12968 1.11462 0
M  V30 3312 H 316.995 0.527606 3.76824 0
M  V30 3313 H 316.507 2.24902 3.16292 0
M  V30 3314 H 314.608 -0.152316 3.72289 0
M  V30 3315 H 314.721 1.54845 4.53387 0
M  V30 3316 H 313.085 0.731028 2.43984 0
M  V30 3317 H 313.868 2.40239 2.45234 0
M  V30 3318 N 316.313 -1.40141 0.720998 0
M  V30 3319 C 317.541 -2.05096 0.272656 0
M  V30 3320 C 317.956 -1.54334 -1.0875 0
M  V30 3321 O 317.313 -0.702211 -1.6845 0
M  V30 3322 C 317.364 -3.60636 0.249835 0
M  V30 3323 O 317.085 -4.09526 1.55629 0
M  V30 3324 C 318.586 -4.42772 -0.216396 0
M  V30 3325 H 315.806 -0.659897 0.121558 0
M  V30 3326 H 318.35 -1.79449 0.980723 0
M  V30 3327 H 316.505 -3.85232 -0.409237 0
M  V30 3328 H 316.919 -5.03758 1.4604 0
M  V30 3329 H 318.393 -5.51702 -0.181212 0
M  V30 3330 H 318.87 -4.20756 -1.25941 0
M  V30 3331 H 319.476 -4.23294 0.412596 0
M  V30 3332 N 317.792 -0.46758 -1.50504 0
M  V30 3333 C 319.02 0.0864133 -2.06719 0
M  V30 3334 C 319.435 1.33819 -1.33184 0
M  V30 3335 O 318.792 1.78061 -0.400083 0
M  V30 3336 C 318.843 0.378079 -3.59517 0
M  V30 3337 O 318.564 -0.824044 -4.3028 0
M  V30 3338 C 320.065 0.979426 -4.32345 0
M  V30 3339 H 317.285 -0.00551697 -0.670977 0
M  V30 3340 H 319.829 -0.655354 -1.93715 0
M  V30 3341 H 317.984 1.06977 -3.72337 0
M  V30 3342 H 318.398 -0.566518 -5.21432 0
M  V30 3343 H 319.872 1.1333 -5.40241 0
M  V30 3344 H 320.349 1.9686 -3.9261 0
M  V30 3345 H 320.955 0.326216 -4.24047 0
M  V30 3346 N 319.27 1.56325 -0.20005 0
M  V30 3347 C 320.547 1.89484 0.48529 0
M  V30 3348 C 320.927 1.1143 1.79294 0
M  V30 3349 O 320.275 0.216919 2.27468 0
M  V30 3350 C 320.485 3.41923 0.699243 0
M  V30 3351 C 321.833 4.12256 1.01638 0
M  V30 3352 O 322.857 3.47402 0.786792 0
M  V30 3353 O 321.716 5.26887 1.45095 0
M  V30 3354 H 318.81 0.787144 0.253639 0
M  V30 3355 H 321.356 1.67985 -0.240633 0
M  V30 3356 H 320.128 3.90658 -0.224008 0
M  V30 3357 H 319.751 3.69131 1.47744 0
M  V30 3358 N 320.748 -0.0735177 1.57428 0
M  V30 3359 C 321.678 -1.0879 2.06608 0
M  V30 3360 C 322.659 -1.40473 0.959237 0
M  V30 3361 O 323.844 -1.5013 1.23185 0
M  V30 3362 C 320.974 -2.40183 2.50857 0
M  V30 3363 C 319.928 -2.22858 3.65402 0
M  V30 3364 C 319.254 -3.59619 3.957 0
M  V30 3365 C 320.554 -1.65123 4.95511 0
M  V30 3366 H 322.248 -0.678673 2.91607 0
M  V30 3367 H 319.794 -0.325013 1.40284 0
M  V30 3368 H 321.747 -3.11437 2.83874 0
M  V30 3369 H 320.471 -2.83083 1.62885 0
M  V30 3370 H 319.13 -1.54045 3.32664 0
M  V30 3371 H 318.778 -4.00086 3.04861 0
M  V30 3372 H 318.478 -3.48866 4.72828 0
M  V30 3373 H 320.002 -4.32306 4.31212 0
M  V30 3374 H 321.416 -2.26241 5.26771 0
M  V30 3375 H 319.813 -1.65071 5.7695 0
M  V30 3376 H 320.883 -0.612559 4.81015 0
M  V30 3377 N 322.226 -1.5378 -0.344866 0
M  V30 3378 C 323.176 -1.78057 -1.42407 0
M  V30 3379 C 324.16 -0.635732 -1.47808 0
M  V30 3380 O 325.352 -0.89508 -1.527 0
M  V30 3381 C 322.481 -1.99242 -2.79566 0
M  V30 3382 C 321.567 -3.19787 -2.78562 0
M  V30 3383 N 321.958 -4.41284 -2.47189 0
M  V30 3384 C 320.256 -3.2093 -3.0971 0
M  V30 3385 C 320.957 -5.23128 -2.54385 0
M  V30 3386 N 319.933 -4.59813 -2.89953 0
M  V30 3387 H 323.735 -2.69588 -1.17046 0
M  V30 3388 H 321.249 -1.52687 -0.553217 0
M  V30 3389 H 323.246 -2.14768 -3.57324 0
M  V30 3390 H 321.906 -1.08953 -3.05875 0
M  V30 3391 H 322.917 -4.68657 -2.20411 0
M  V30 3392 H 319.594 -2.40603 -3.41199 0
M  V30 3393 H 320.984 -6.30096 -2.333 0
M  V30 3394 N 323.704 0.605807 -1.45491 0
M  V30 3395 C 324.929 1.39625 -1.53361 0
M  V30 3396 C 325.354 1.87351 -0.167645 0
M  V30 3397 O 324.712 1.60243 0.848051 0
M  V30 3398 C 324.76 2.57559 -2.5238 0
M  V30 3399 O 323.864 3.58248 -2.04285 0
M  V30 3400 H 323.205 0.416771 -0.516912 0
M  V30 3401 H 325.735 0.737103 -1.90861 0
M  V30 3402 H 325.745 3.0478 -2.71244 0
M  V30 3403 H 324.42 2.22171 -3.51586 0
M  V30 3404 H 322.997 3.17664 -1.95305 0
M  V30 3405 N 325.182 1.32811 0.848464 0
M  V30 3406 C 326.43 1.23479 1.59991 0
M  V30 3407 C 326.751 -0.201853 1.93952 0
M  V30 3408 O 326.021 -1.12818 1.60153 0
M  V30 3409 H 324.601 0.454034 0.593179 0
M  V30 3410 H 327.263 1.66412 1.01455 0
M  V30 3411 H 326.359 1.82178 2.53412 0
M  V30 3412 N 326.66 -1.06551 1.16123 0
M  V30 3413 C 327.59 -2.15935 0.88851 0
M  V30 3414 C 328.571 -1.69306 -0.164135 0
M  V30 3415 O 329.756 -1.94193 -0.0167857 0
M  V30 3416 C 326.886 -3.45149 0.385942 0
M  V30 3417 C 325.84 -4.05271 1.3762 0
M  V30 3418 C 325.166 -5.29664 0.732137 0
M  V30 3419 C 326.466 -4.44355 2.74493 0
M  V30 3420 H 328.16 -2.39006 1.80323 0
M  V30 3421 H 325.706 -1.14866 0.868435 0
M  V30 3422 H 327.659 -4.21004 0.182647 0
M  V30 3423 H 326.383 -3.21689 -0.564274 0
M  V30 3424 H 325.042 -3.3147 1.56599 0
M  V30 3425 H 324.69 -5.02499 -0.224483 0
M  V30 3426 H 324.39 -5.70848 1.39307 0
M  V30 3427 H 325.914 -6.08218 0.538802 0
M  V30 3428 H 327.328 -5.11303 2.59311 0
M  V30 3429 H 325.725 -4.96515 3.37035 0
M  V30 3430 H 326.795 -3.55339 3.29943 0
M  V30 3431 N 328.138 -0.959301 -1.25041 0
M  V30 3432 C 329.07 -0.440543 -2.24926 0
M  V30 3433 C 330.083 0.446131 -1.56568 0
M  V30 3434 O 331.272 0.253657 -1.76689 0
M  V30 3435 C 328.372 0.38412 -3.36716 0
M  V30 3436 C 327.545 -0.490658 -4.34639 0
M  V30 3437 C 326.604 0.276587 -5.25473 0
M  V30 3438 O 325.63 -0.326614 -5.68262 0
M  V30 3439 N 326.832 1.56844 -5.5891 0
M  V30 3440 H 329.597 -1.29931 -2.70071 0
M  V30 3441 H 327.158 -0.830181 -1.38995 0
M  V30 3442 H 329.15 0.905228 -3.94446 0
M  V30 3443 H 327.72 1.14377 -2.90924 0
M  V30 3444 H 326.94 -1.19282 -3.7572 0
M  V30 3445 H 328.228 -1.08756 -4.97041 0
M  V30 3446 H 327.626 2.08036 -5.26059 0
M  V30 3447 H 326.183 2.03541 -6.19205 0
M  V30 3448 N 329.616 1.39756 -0.72842 0
M  V30 3449 C 330.549 2.28176 -0.0330172 0
M  V30 3450 C 331.527 1.44035 0.754501 0
M  V30 3451 O 332.711 1.73434 0.738445 0
M  V30 3452 C 329.838 3.24795 0.960504 0
M  V30 3453 C 328.884 4.25693 0.262264 0
M  V30 3454 S 329.717 5.25714 -1.01906 0
M  V30 3455 C 330.873 6.25894 -0.0279717 0
M  V30 3456 H 331.106 2.86807 -0.78287 0
M  V30 3457 H 328.639 1.45382 -0.519951 0
M  V30 3458 H 330.597 3.80983 1.52846 0
M  V30 3459 H 329.258 2.65196 1.68315 0
M  V30 3460 H 328.451 4.93699 1.01379 0
M  V30 3461 H 328.053 3.7327 -0.233482 0
M  V30 3462 H 330.345 6.72585 0.814621 0
M  V30 3463 H 331.288 7.04876 -0.67499 0
M  V30 3464 H 331.696 5.63466 0.341489 0
M  V30 3465 N 331.094 0.475555 1.50254 0
M  V30 3466 C 332.51 0.12997 1.5907 0
M  V30 3467 C 332.71 -1.36385 1.48328 0
M  V30 3468 O 331.766 -2.13754 1.34407 0
M  V30 3469 C 333.079 0.684139 2.92814 0
M  V30 3470 C 334.627 0.647965 3.0622 0
M  V30 3471 C 335.102 1.17975 4.42545 0
M  V30 3472 N 336.593 1.13936 4.48969 0
M  V30 3473 C 337.328 1.52129 5.52851 0
M  V30 3474 N 336.824 1.97793 6.63965 0
M  V30 3475 N 338.617 1.43704 5.4342 0
M  V30 3476 H 330.768 1.44706 1.55479 0
M  V30 3477 H 333.031 0.598691 0.735033 0
M  V30 3478 H 332.737 1.73079 3.06164 0
M  V30 3479 H 332.611 0.130204 3.76975 0
M  V30 3480 H 334.998 -0.38979 2.92514 0
M  V30 3481 H 335.079 1.23876 2.23805 0
M  V30 3482 H 334.723 2.21616 4.57 0
M  V30 3483 H 334.653 0.565138 5.23559 0
M  V30 3484 H 337.144 0.804488 3.69238 0
M  V30 3485 H 337.457 2.25072 7.39299 0
M  V30 3486 H 335.802 2.01749 6.65073 0
M  V30 3487 H 338.993 1.07867 4.55502 0
M  V30 3488 H 339.166 1.73794 6.24259 0
M  V30 3489 N 332.573 -1.56217 0.208337 0
M  V30 3490 C 333.989 -1.58919 -0.14729 0
M  V30 3491 C 334.189 -1.22486 -1.59998 0
M  V30 3492 O 333.245 -0.953849 -2.3379 0
M  V30 3493 C 334.558 -3.00236 0.167048 0
M  V30 3494 C 336.106 -3.12813 0.108219 0
M  V30 3495 C 336.581 -4.56284 0.396049 0
M  V30 3496 N 338.072 -4.61912 0.345142 0
M  V30 3497 C 338.807 -5.70837 0.541523 0
M  V30 3498 N 338.303 -6.88178 0.798968 0
M  V30 3499 N 340.096 -5.60091 0.474867 0
M  V30 3500 H 332.247 -1.78177 1.15614 0
M  V30 3501 H 334.51 -0.827555 0.462446 0
M  V30 3502 H 334.216 -3.31499 1.1748 0
M  V30 3503 H 334.09 -3.7354 -0.524184 0
M  V30 3504 H 336.477 -2.81354 -0.890157 0
M  V30 3505 H 336.558 -2.41866 0.832729 0
M  V30 3506 H 336.202 -4.88458 1.3918 0
M  V30 3507 H 336.132 -5.25439 -0.349502 0
M  V30 3508 H 338.623 -3.77589 0.153316 0
M  V30 3509 H 338.936 -7.67095 0.93727 0
M  V30 3510 H 337.281 -6.89953 0.836013 0
M  V30 3511 H 340.472 -4.67297 0.274064 0
M  V30 3512 H 340.645 -6.44917 0.631326 0
M  V30 3513 N 334.051 0.0651679 -1.57465 0
M  V30 3514 C 335.014 1.06117 -2.03155 0
M  V30 3515 C 336.014 1.31204 -0.929632 0
M  V30 3516 O 337.204 1.26813 -1.19432 0
M  V30 3517 C 334.336 2.4032 -2.41783 0
M  V30 3518 H 335.529 0.667231 -2.92383 0
M  V30 3519 H 333.082 0.311075 -1.53173 0
M  V30 3520 H 333.817 2.84532 -1.55601 0
M  V30 3521 H 333.602 2.23451 -3.22199 0
M  V30 3522 H 335.092 3.11898 -2.77685 0
M  V30 3523 N 335.529 1.53961 0.336706 0
M  V30 3524 C 336.945 1.44378 0.680241 0
M  V30 3525 C 337.145 0.606034 1.9217 0
M  V30 3526 O 336.201 0.099688 2.52303 0
M  V30 3527 C 337.514 2.87945 0.8665 0
M  V30 3528 C 339.062 2.97763 0.964682 0
M  V30 3529 C 339.537 4.42453 1.18321 0
M  V30 3530 N 341.028 4.46008 1.25025 0
M  V30 3531 C 341.763 5.55102 1.43697 0
M  V30 3532 N 341.259 6.7419 1.59498 0
M  V30 3533 N 343.052 5.42727 1.463 0
M  V30 3534 H 335.203 2.06918 -0.479455 0
M  V30 3535 H 337.466 0.935634 -0.152619 0
M  V30 3536 H 337.172 3.51691 0.0256937 0
M  V30 3537 H 337.046 3.33293 1.76623 0
M  V30 3538 H 339.433 2.34153 1.796 0
M  V30 3539 H 339.514 2.55766 0.041708 0
M  V30 3540 H 339.158 5.06645 0.356788 0
M  V30 3541 H 339.088 4.82048 2.11985 0
M  V30 3542 H 341.579 3.60196 1.14312 0
M  V30 3543 H 341.892 7.53095 1.734 0
M  V30 3544 H 340.237 6.77123 1.56621 0
M  V30 3545 H 343.428 4.48647 1.33543 0
M  V30 3546 H 343.601 6.27806 1.6051 0
M  V30 3547 N 337.007 -0.598083 1.45811 0
M  V30 3548 C 338.232 -1.3881 1.54099 0
M  V30 3549 C 338.657 -1.8726 0.177578 0
M  V30 3550 O 338.015 -1.6069 -0.839541 0
M  V30 3551 C 338.063 -2.56217 2.53743 0
M  V30 3552 O 337.167 -3.5716 2.06182 0
M  V30 3553 H 336.508 -0.414024 0.519115 0
M  V30 3554 H 339.038 -0.726971 1.91249 0
M  V30 3555 H 339.048 -3.03337 2.72856 0
M  V30 3556 H 337.723 -2.20303 3.5276 0
M  V30 3557 H 336.3 -3.16624 1.96987 0
M  V30 3558 N 338.485 -1.33259 -0.841409 0
M  V30 3559 C 339.896 -1.22066 -1.41269 0
M  V30 3560 C 340.247 0.161479 -1.95534 0
M  V30 3561 O 339.372 1.06094 -1.88608 0
M  V30 3562 C 339.967 -2.20996 -2.568 0
M  V30 3563 C 338.526 -2.13649 -3.09888 0
M  V30 3564 C 337.673 -2.08623 -1.82679 0
M  V30 3565 H 340.624 -1.44895 -0.647395 0
M  V30 3566 H 340.645 -1.81621 -3.34356 0
M  V30 3567 H 340.157 -3.2158 -2.17274 0
M  V30 3568 H 338.258 -1.16359 -3.53965 0
M  V30 3569 H 338.371 -3.04079 -3.70234 0
M  V30 3570 H 336.735 -1.54061 -2.02824 0
M  V30 3571 H 337.518 -3.1101 -1.45353 0
M  V30 3572 N 339.963 1.05934 -1.16686 0
M  V30 3573 C 341.24 1.75643 -0.860747 0
M  V30 3574 C 341.62 2.01144 0.640641 0
M  V30 3575 O 340.968 1.64147 1.58959 0
M  V30 3576 C 341.178 3.05493 -1.68745 0
M  V30 3577 C 342.526 3.79581 -1.90271 0
M  V30 3578 O 343.55 3.15344 -1.65641 0
M  V30 3579 O 342.409 4.9499 -2.31618 0
M  V30 3580 H 339.503 0.763426 -0.317977 0
M  V30 3581 H 342.049 1.1217 -1.27342 0
M  V30 3582 H 340.821 2.8264 -2.70611 0
M  V30 3583 H 340.444 3.76702 -1.27206 0
M  V30 3584 N 341.441 0.965919 1.2453 0
M  V30 3585 C 342.371 0.513476 2.27784 0
M  V30 3586 C 343.352 -0.445974 1.6415 0
M  V30 3587 O 344.537 -0.342485 1.91156 0
M  V30 3588 C 341.667 -0.198839 3.4673 0
M  V30 3589 C 340.621 0.676456 4.2262 0
M  V30 3590 C 339.947 -0.167248 5.34438 0
M  V30 3591 C 341.247 1.96017 4.84123 0
M  V30 3592 H 342.941 1.3765 2.65881 0
M  V30 3593 H 340.487 0.663321 1.27813 0
M  V30 3594 H 342.44 -0.526567 4.18097 0
M  V30 3595 H 341.164 -1.0962 3.07654 0
M  V30 3596 H 339.823 0.98743 3.53052 0
M  V30 3597 H 339.471 -1.0647 4.91603 0
M  V30 3598 H 339.171 0.415181 5.86131 0
M  V30 3599 H 340.695 -0.489688 6.08633 0
M  V30 3600 H 342.109 1.69814 5.47573 0
M  V30 3601 H 340.506 2.48918 5.4604 0
M  V30 3602 H 341.576 2.65622 4.05676 0
M  V30 3603 N 342.919 -1.39368 0.735821 0
M  V30 3604 C 344.166 -2.00497 0.284123 0
M  V30 3605 C 344.494 -1.58387 -1.12889 0
M  V30 3606 O 343.749 -0.804359 -1.78406 0
M  V30 3607 C 344.048 -3.5583 0.334651 0
M  V30 3608 C 343.714 -4.17593 1.7008 0
M  V30 3609 C 342.376 -4.34176 2.07472 0
M  V30 3610 C 344.728 -4.51848 2.59775 0
M  V30 3611 C 342.056 -4.82304 3.34065 0
M  V30 3612 C 344.408 -5.01384 3.85741 0
M  V30 3613 C 343.072 -5.16175 4.23225 0
M  V30 3614 H 342.342 -0.73367 0.103968 0
M  V30 3615 H 344.989 -1.66683 0.942825 0
M  V30 3616 H 343.294 -3.89674 -0.407625 0
M  V30 3617 H 344.991 -4.00986 -0.0329927 0
M  V30 3618 H 341.581 -4.05087 1.40008 0
M  V30 3619 H 345.765 -4.38653 2.32157 0
M  V30 3620 H 341.021 -4.91941 3.63049 0
M  V30 3621 H 345.195 -5.26863 4.55399 0
M  V30 3622 H 342.822 -5.5323 5.21384 0
M  V30 3623 N 344.397 -0.483516 -1.5 0
M  V30 3624 C 345.625 0.0644831 -2.06799 0
M  V30 3625 C 346.04 1.32399 -1.34596 0
M  V30 3626 O 345.397 1.77626 -0.418946 0
M  V30 3627 C 345.448 0.339927 -3.59898 0
M  V30 3628 O 345.169 -0.869635 -4.29382 0
M  V30 3629 C 346.67 0.933515 -4.33359 0
M  V30 3630 H 343.89 -0.0126333 -0.670881 0
M  V30 3631 H 346.434 -0.675864 -1.93009 0
M  V30 3632 H 344.589 1.03022 -3.7345 0
M  V30 3633 H 345.003 -0.62179 -5.20801 0
M  V30 3634 H 346.477 1.07593 -5.41413 0
M  V30 3635 H 346.954 1.92685 -3.94676 0
M  V30 3636 H 347.56 0.281221 -4.24369 0
M  V30 3637 N 345.875 1.56104 -0.216619 0
M  V30 3638 C 347.286 1.844 0.292128 0
M  V30 3639 C 347.637 1.13788 1.59833 0
M  V30 3640 O 346.762 0.405888 2.12559 0
M  V30 3641 C 347.357 3.3452 0.53681 0
M  V30 3642 C 345.916 3.63151 0.989876 0
M  V30 3643 C 345.063 2.77255 0.0502302 0
M  V30 3644 H 348.014 1.52481 -0.439926 0
M  V30 3645 H 348.035 3.54459 1.38345 0
M  V30 3646 H 347.547 3.85885 -0.414031 0
M  V30 3647 H 345.648 3.17238 1.95425 0
M  V30 3648 H 345.761 4.71177 0.867698 0
M  V30 3649 H 344.125 2.48555 0.556117 0
M  V30 3650 H 344.908 3.31416 -0.89544 0
M  V30 3651 N 347.353 -0.0568162 1.57498 0
M  V30 3652 C 348.283 -1.06593 2.0775 0
M  V30 3653 C 349.264 -1.39448 0.974082 0
M  V30 3654 O 350.449 -1.48815 1.24771 0
M  V30 3655 C 347.579 -2.37509 2.5339 0
M  V30 3656 C 346.533 -2.1897 3.67745 0
M  V30 3657 C 345.859 -3.55402 3.99492 0
M  V30 3658 C 347.159 -1.59859 4.97235 0
M  V30 3659 H 348.853 -0.647706 2.9231 0
M  V30 3660 H 346.399 -0.310116 1.40621 0
M  V30 3661 H 348.352 -3.08409 2.87162 0
M  V30 3662 H 347.076 -2.8134 1.65878 0
M  V30 3663 H 345.735 -1.50508 3.3428 0
M  V30 3664 H 345.383 -3.9683 3.09088 0
M  V30 3665 H 345.083 -3.43831 4.76502 0
M  V30 3666 H 346.607 -4.27708 4.35773 0
M  V30 3667 H 348.021 -2.20642 5.29141 0
M  V30 3668 H 346.418 -1.58942 5.78669 0
M  V30 3669 H 347.488 -0.561506 4.81638 0
M  V30 3670 N 348.832 -1.54138 -0.328536 0
M  V30 3671 C 350.057 -1.76378 -1.09112 0
M  V30 3672 C 350.482 -0.508596 -1.81094 0
M  V30 3673 O 349.84 0.539598 -1.73084 0
M  V30 3674 C 349.888 -2.95358 -2.06872 0
M  V30 3675 O 348.992 -2.66556 -3.14677 0
M  V30 3676 H 348.333 -0.584614 -0.314838 0
M  V30 3677 H 350.863 -2.01146 -0.374348 0
M  V30 3678 H 350.873 -3.22566 -2.4983 0
M  V30 3679 H 349.548 -3.86385 -1.5388 0
M  V30 3680 H 348.125 -2.50282 -2.7643 0
M  V30 3681 N 350.31 0.590341 -1.46126 0
M  V30 3682 C 351.726 0.912917 -1.30912 0
M  V30 3683 C 351.926 1.99616 -0.274893 0
M  V30 3684 O 350.982 2.50397 0.325197 0
M  V30 3685 C 352.295 1.3375 -2.69317 0
M  V30 3686 C 353.843 1.45077 -2.77348 0
M  V30 3687 C 354.318 1.90904 -4.16317 0
M  V30 3688 N 355.809 1.9811 -4.18696 0
M  V30 3689 C 356.544 2.34828 -5.23109 0
M  V30 3690 N 356.04 2.70393 -6.37856 0
M  V30 3691 N 357.833 2.35317 -5.10473 0
M  V30 3692 H 349.984 -0.125358 -2.1203 0
M  V30 3693 H 352.247 0.00658481 -0.947977 0
M  V30 3694 H 351.953 0.615614 -3.4627 0
M  V30 3695 H 351.827 2.30058 -2.9892 0
M  V30 3696 H 354.214 2.16353 -2.00687 0
M  V30 3697 H 354.295 0.4704 -2.51438 0
M  V30 3698 H 353.939 1.20209 -4.9347 0
M  V30 3699 H 353.869 2.89886 -4.39629 0
M  V30 3700 H 356.36 1.73146 -3.359 0
M  V30 3701 H 356.673 2.97341 -7.13308 0
M  V30 3702 H 355.018 2.68048 -6.41229 0
M  V30 3703 H 358.209 2.0695 -4.19868 0
M  V30 3704 H 358.382 2.63605 -5.9196 0
M  V30 3705 N 351.788 1.33704 0.83433 0
M  V30 3706 C 353.199 1.22813 1.4062 0
M  V30 3707 C 353.55 -0.151107 1.95617 0
M  V30 3708 O 352.675 -1.05092 1.89168 0
M  V30 3709 C 353.27 2.22355 2.55624 0
M  V30 3710 C 351.829 2.1529 3.08751 0
M  V30 3711 C 350.976 2.09589 1.8157 0
M  V30 3712 H 353.927 1.45236 0.639702 0
M  V30 3713 H 353.948 1.83391 3.33389 0
M  V30 3714 H 353.46 3.22728 2.15566 0
M  V30 3715 H 351.561 1.18235 3.53343 0
M  V30 3716 H 351.674 3.06038 3.68616 0
M  V30 3717 H 350.038 1.55134 2.02004 0
M  V30 3718 H 350.821 3.11777 1.43701 0
M  V30 3719 N 353.266 -1.05314 1.17247 0
M  V30 3720 C 354.677 -1.59753 0.96623 0
M  V30 3721 C 355.028 -1.9005 -0.487378 0
M  V30 3722 O 354.153 -1.68126 -1.36245 0
M  V30 3723 C 354.748 -2.90249 1.74759 0
M  V30 3724 C 353.307 -3.41352 1.58606 0
M  V30 3725 C 352.454 -2.15103 1.75002 0
M  V30 3726 H 355.405 -0.881406 1.31973 0
M  V30 3727 H 355.426 -3.60097 1.22925 0
M  V30 3728 H 354.938 -2.68166 2.8055 0
M  V30 3729 H 353.039 -3.68474 0.552985 0
M  V30 3730 H 353.152 -4.16019 2.37624 0
M  V30 3731 H 351.516 -2.25804 1.17833 0
M  V30 3732 H 352.299 -1.95491 2.82202 0
M  V30 3733 N 354.744 -0.972509 -1.24016 0
M  V30 3734 C 355.969 -0.654417 -1.96805 0
M  V30 3735 C 356.394 0.770398 -1.716 0
M  V30 3736 O 355.752 1.52361 -0.982647 0
M  V30 3737 C 355.8 -0.941031 -3.48105 0
M  V30 3738 O 354.904 -0.0289472 -4.1239 0
M  V30 3739 H 354.245 -0.24692 -0.616382 0
M  V30 3740 H 356.775 -1.30396 -1.57664 0
M  V30 3741 H 356.785 -0.87452 -3.98517 0
M  V30 3742 H 355.46 -1.97939 -3.65777 0
M  V30 3743 H 354.037 -0.149192 -3.72601 0
M  V30 3744 N 356.222 1.38976 -0.743202 0
M  V30 3745 C 357.633 1.83123 -0.363732 0
M  V30 3746 C 357.984 1.6205 1.10609 0
M  V30 3747 O 357.109 1.11606 1.854 0
M  V30 3748 C 357.704 3.32439 -0.653408 0
M  V30 3749 C 356.263 3.74974 -0.327338 0
M  V30 3750 C 355.41 2.61878 -0.911875 0
M  V30 3751 H 358.361 1.27852 -0.940191 0
M  V30 3752 H 358.382 3.80432 0.0720031 0
M  V30 3753 H 357.894 3.47745 -1.72323 0
M  V30 3754 H 355.995 3.65252 0.736314 0
M  V30 3755 H 356.108 4.72106 -0.815631 0
M  V30 3756 H 354.472 2.52448 -0.337944 0
M  V30 3757 H 355.255 2.79987 -1.98651 0
M  V30 3758 N 357.7 0.491464 1.49741 0
M  V30 3759 C 358.63 -0.28154 2.31796 0
M  V30 3760 C 359.611 -0.971473 1.3963 0
M  V30 3761 O 360.796 -0.964719 1.68543 0
M  V30 3762 C 357.926 -1.35203 3.19902 0
M  V30 3763 C 356.88 -0.782529 4.20786 0
M  V30 3764 C 356.206 -1.95283 4.97764 0
M  V30 3765 C 357.506 0.21999 5.21837 0
M  V30 3766 H 359.2 0.403355 2.96671 0
M  V30 3767 H 356.746 0.195425 1.42668 0
M  V30 3768 H 358.699 -1.90045 3.76113 0
M  V30 3769 H 357.423 -2.06598 2.52953 0
M  V30 3770 H 356.082 -0.255928 3.65706 0
M  V30 3771 H 355.73 -2.65423 4.2727 0
M  V30 3772 H 355.43 -1.57789 5.66018 0
M  V30 3773 H 356.954 -2.50577 5.56816 0
M  V30 3774 H 358.368 -0.23996 5.72798 0
M  V30 3775 H 356.765 0.51026 5.97927 0
M  V30 3776 H 357.835 1.13911 4.7133 0
M  V30 3777 N 359.178 -1.55987 0.224894 0
M  V30 3778 C 360.403 -2.03232 -0.41369 0
M  V30 3779 C 360.828 -1.10359 -1.52323 0
M  V30 3780 O 360.186 -0.092395 -1.81064 0
M  V30 3781 C 360.234 -3.48682 -0.919405 0
M  V30 3782 O 359.338 -3.58947 -2.03054 0
M  V30 3783 H 358.679 -0.657428 -0.0931903 0
M  V30 3784 H 361.209 -2.01679 0.34451 0
M  V30 3785 H 361.219 -3.8907 -1.22835 0
M  V30 3786 H 359.894 -4.15761 -0.107339 0
M  V30 3787 H 358.471 -3.30448 -1.72796 0
M  V30 3788 N 360.656 0.0484629 -1.57525 0
M  V30 3789 C 361.586 1.0549 -2.08313 0
M  V30 3790 C 362.567 1.38929 -0.981463 0
M  V30 3791 O 363.752 1.48151 -1.25558 0
M  V30 3792 C 360.882 2.36162 -2.54646 0
M  V30 3793 C 359.836 2.17016 -3.68901 0
M  V30 3794 C 359.162 3.53278 -4.01371 0
M  V30 3795 C 360.462 1.57219 -4.98076 0
M  V30 3796 H 362.156 0.632195 -2.92649 0
M  V30 3797 H 359.702 0.302654 -1.40784 0
M  V30 3798 H 361.655 3.06882 -2.88793 0
M  V30 3799 H 360.379 2.80456 -1.67368 0
M  V30 3800 H 359.038 1.48733 -3.35073 0
M  V30 3801 H 358.686 3.95185 -3.11188 0
M  V30 3802 H 358.386 3.41299 -4.78318 0
M  V30 3803 H 359.91 4.25391 -4.38035 0
M  V30 3804 H 361.324 2.17832 -5.30304 0
M  V30 3805 H 359.721 1.55871 -5.79503 0
M  V30 3806 H 360.791 0.535956 -4.81929 0
M  V30 3807 N 362.134 1.5431 0.320358 0
M  V30 3808 C 363.545 1.63872 0.894594 0
M  V30 3809 C 363.896 0.534847 1.88769 0
M  V30 3810 O 363.021 -0.331732 2.13842 0
M  V30 3811 C 363.616 2.97049 1.62934 0
M  V30 3812 C 362.175 3.08796 2.15226 0
M  V30 3813 C 361.322 2.59456 0.978671 0
M  V30 3814 H 364.273 1.58398 0.0978544 0
M  V30 3815 H 364.294 2.87388 2.49376 0
M  V30 3816 H 363.806 3.7737 0.906302 0
M  V30 3817 H 361.907 2.33156 2.90636 0
M  V30 3818 H 362.02 4.14649 2.40006 0
M  V30 3819 H 360.384 2.1543 1.35875 0
M  V30 3820 H 361.167 3.42237 0.269895 0
M  V30 3821 N 363.613 -0.582584 1.46437 0
M  V30 3822 C 365.029 -0.905962 1.31394 0
M  V30 3823 C 365.229 -1.99468 0.285476 0
M  V30 3824 O 364.285 -2.50566 -0.311914 0
M  V30 3825 C 365.598 -1.3232 2.70022 0
M  V30 3826 C 367.146 -1.43604 2.78113 0
M  V30 3827 C 367.621 -1.88694 4.17323 0
M  V30 3828 N 369.112 -1.95887 4.19741 0
M  V30 3829 C 369.847 -2.32051 5.24347 0
M  V30 3830 N 369.343 -2.67006 6.39281 0
M  V30 3831 N 371.136 -2.32606 5.11713 0
M  V30 3832 H 363.287 0.1366 2.1196 0
M  V30 3833 H 365.55 -0.00155736 0.947999 0
M  V30 3834 H 365.256 -0.597242 3.46592 0
M  V30 3835 H 365.13 -2.28469 3.00136 0
M  V30 3836 H 367.517 -2.15286 2.01832 0
M  V30 3837 H 367.598 -0.457059 2.51684 0
M  V30 3838 H 367.242 -1.1759 4.941 0
M  V30 3839 H 367.172 -2.8755 4.4116 0
M  V30 3840 H 369.663 -1.71362 3.36814 0
M  V30 3841 H 369.976 -2.93554 7.14875 0
M  V30 3842 H 368.321 -2.64644 6.42642 0
M  V30 3843 H 371.512 -2.04721 4.2096 0
M  V30 3844 H 371.685 -2.60462 5.93349 0
M  V30 3845 N 365.091 -1.34144 -0.827227 0
M  V30 3846 C 366.502 -1.23557 -1.39966 0
M  V30 3847 C 366.853 0.140731 -1.95695 0
M  V30 3848 O 365.978 1.04087 -1.89723 0
M  V30 3849 C 366.573 -2.23708 -2.54441 0
M  V30 3850 C 365.132 -2.16924 -3.07605 0
M  V30 3851 C 364.279 -2.10549 -1.80456 0
M  V30 3852 H 367.23 -1.45573 -0.631991 0
M  V30 3853 H 367.251 -1.85157 -3.32411 0
M  V30 3854 H 366.763 -3.23866 -2.13851 0
M  V30 3855 H 364.864 -1.20107 -3.52711 0
M  V30 3856 H 364.977 -3.07988 -3.66988 0
M  V30 3857 H 363.341 -1.56203 -2.01178 0
M  V30 3858 H 364.124 -3.12535 -1.42046 0
M  V30 3859 N 366.569 1.04691 -1.17803 0
M  V30 3860 C 367.985 1.29963 -0.926379 0
M  V30 3861 C 368.185 1.97251 0.411635 0
M  V30 3862 O 367.241 2.24922 1.14744 0
M  V30 3863 C 368.554 2.16447 -2.08737 0
M  V30 3864 C 370.102 2.29814 -2.12496 0
M  V30 3865 C 370.577 3.19661 -3.27995 0
M  V30 3866 N 372.068 3.27247 -3.27816 0
M  V30 3867 C 372.803 3.96906 -4.13827 0
M  V30 3868 N 372.299 4.6895 -5.09959 0
M  V30 3869 N 374.092 3.93122 -4.01761 0
M  V30 3870 H 366.243 0.594182 -2.0392 0
M  V30 3871 H 368.506 0.324649 -0.890678 0
M  V30 3872 H 368.212 1.74304 -3.05469 0
M  V30 3873 H 368.086 3.17103 -2.04268 0
M  V30 3874 H 370.473 2.71196 -1.16347 0
M  V30 3875 H 370.554 1.2877 -2.21025 0
M  V30 3876 H 370.198 2.78991 -4.24413 0
M  V30 3877 H 370.128 4.20722 -3.16703 0
M  V30 3878 H 372.619 2.75921 -2.58217 0
M  V30 3879 H 372.932 5.19679 -5.71974 0
M  V30 3880 H 371.277 4.67875 -5.13924 0
M  V30 3881 H 374.468 3.35967 -3.2595 0
M  V30 3882 H 374.641 4.47139 -4.6901 0
M  V30 3883 N 368.047 0.979072 1.23499 0
M  V30 3884 C 369.272 0.664845 1.96455 0
M  V30 3885 C 369.697 -0.761287 1.72006 0
M  V30 3886 O 369.055 -1.51837 0.990713 0
M  V30 3887 C 369.103 0.959479 3.47601 0
M  V30 3888 O 368.207 0.0508168 4.12369 0
M  V30 3889 H 367.548 0.250185 0.615064 0
M  V30 3890 H 370.078 1.31231 1.5697 0
M  V30 3891 H 370.088 0.895642 3.98048 0
M  V30 3892 H 368.763 1.99876 3.64723 0
M  V30 3893 H 367.34 0.16895 3.72517 0
M  V30 3894 N 369.525 -1.3858 0.750561 0
M  V30 3895 C 370.488 -2.28836 0.129152 0
M  V30 3896 C 371.488 -1.47045 -0.650714 0
M  V30 3897 O 372.678 -1.6753 -0.477428 0
M  V30 3898 C 369.81 -3.30751 -0.825622 0
M  V30 3899 H 371.003 -2.85294 0.924516 0
M  V30 3900 H 368.556 -1.47489 0.517376 0
M  V30 3901 H 369.291 -2.79378 -1.64677 0
M  V30 3902 H 369.076 -3.91177 -0.268852 0
M  V30 3903 H 370.566 -3.98249 -1.2565 0
M  V30 3904 N 371.003 -0.499398 -1.49478 0
M  V30 3905 C 372.414 -0.051215 -1.8663 0
M  V30 3906 C 372.765 1.36238 -1.41186 0
M  V30 3907 O 371.89 2.01502 -0.789051 0
M  V30 3908 C 372.485 -0.0861651 -3.3869 0
M  V30 3909 C 371.044 0.30667 -3.75149 0
M  V30 3910 C 370.191 -0.459397 -2.73468 0
M  V30 3911 H 373.142 -0.712264 -1.41818 0
M  V30 3912 H 373.163 0.709507 -3.73826 0
M  V30 3913 H 372.675 -1.11512 -3.71735 0
M  V30 3914 H 370.776 1.33892 -3.47712 0
M  V30 3915 H 370.889 -0.0116669 -4.79099 0
M  V30 3916 H 369.253 0.0905645 -2.54539 0
M  V30 3917 H 370.036 -1.4884 -3.09357 0
M  V30 3918 N 372.481 1.55866 -0.233164 0
M  V30 3919 C 373.444 2.1953 0.658715 0
M  V30 3920 C 374.444 1.16053 1.11303 0
M  V30 3921 O 375.634 1.41218 1.01996 0
M  V30 3922 C 372.766 2.82791 1.90373 0
M  V30 3923 H 373.959 2.99721 0.10347 0
M  V30 3924 H 371.512 1.56291 0.0164245 0
M  V30 3925 H 372.247 2.06501 2.50056 0
M  V30 3926 H 372.032 3.58578 1.58632 0
M  V30 3927 H 373.522 3.31556 2.53891 0
M  V30 3928 N 373.959 -0.0401083 1.57549 0
M  V30 3929 C 375.375 -0.395556 1.54621 0
M  V30 3930 C 375.575 -1.77281 0.957799 0
M  V30 3931 O 374.631 -2.45888 0.574031 0
M  V30 3932 C 375.944 -0.307535 2.99123 0
M  V30 3933 C 377.492 -0.385425 3.10618 0
M  V30 3934 C 377.967 -0.326973 4.56831 0
M  V30 3935 N 379.458 -0.386102 4.61588 0
M  V30 3936 C 380.193 -0.363591 5.72246 0
M  V30 3937 N 379.689 -0.29402 6.92176 0
M  V30 3938 N 381.482 -0.412503 5.60584 0
M  V30 3939 H 373.633 0.861325 1.94152 0
M  V30 3940 H 375.896 0.326445 0.890021 0
M  V30 3941 H 375.602 0.638461 3.45856 0
M  V30 3942 H 375.476 -1.10552 3.60636 0
M  V30 3943 H 377.863 -1.32185 2.63839 0
M  V30 3944 H 377.944 0.44171 2.51957 0
M  V30 3945 H 377.588 0.605738 5.04275 0
M  V30 3946 H 377.518 -1.17207 5.13391 0
M  V30 3947 H 380.009 -0.442832 3.75296 0
M  V30 3948 H 380.322 -0.28164 7.72287 0
M  V30 3949 H 378.667 -0.260232 6.94513 0
M  V30 3950 H 381.858 -0.464769 4.65787 0
M  V30 3951 H 382.031 -0.391492 6.46816 0
M  V30 3952 N 375.437 -1.54477 -0.31217 0
M  V30 3953 C 376.853 -1.45442 -0.657185 0
M  V30 3954 C 377.053 -0.63653 -1.91182 0
M  V30 3955 O 376.109 -0.139815 -2.52113 0
M  V30 3956 C 377.422 -2.89287 -0.82058 0
M  V30 3957 C 378.97 -2.9926 -0.917188 0
M  V30 3958 C 379.445 -4.44279 -1.11267 0
M  V30 3959 N 380.936 -4.4794 -1.17914 0
M  V30 3960 C 381.671 -5.57318 -1.34848 0
M  V30 3961 N 381.167 -6.76642 -1.48752 0
M  V30 3962 N 382.96 -5.44986 -1.37647 0
M  V30 3963 H 375.111 -2.06129 0.512313 0
M  V30 3964 H 377.374 -0.933088 0.167485 0
M  V30 3965 H 377.08 -3.51687 0.0302604 0
M  V30 3966 H 376.954 -3.36061 -1.71298 0
M  V30 3967 H 379.341 -2.36981 -1.75852 0
M  V30 3968 H 379.422 -2.558 -0.00101257 0
M  V30 3969 H 379.066 -5.07149 -0.27614 0
M  V30 3970 H 378.996 -4.85359 -2.04289 0
M  V30 3971 H 381.487 -3.61969 -1.08567 0
M  V30 3972 H 381.8 -7.55758 -1.61397 0
M  V30 3973 H 380.145 -6.79529 -1.45828 0
M  V30 3974 H 383.336 -4.50715 -1.26388 0
M  V30 3975 H 383.509 -6.3028 -1.50501 0
M  V30 3976 N 376.915 0.57481 -1.46744 0
M  V30 3977 C 378.326 1.15695 -1.46532 0
M  V30 3978 C 378.677 1.95068 -0.210425 0
M  V30 3979 O 377.802 2.05241 0.685944 0
M  V30 3980 C 378.397 2.1048 -2.65487 0
M  V30 3981 C 376.956 2.64002 -2.68291 0
M  V30 3982 C 376.103 1.40026 -2.39349 0
M  V30 3983 H 379.054 0.362325 -1.54509 0
M  V30 3984 H 379.075 2.94074 -2.41455 0
M  V30 3985 H 378.587 1.52683 -3.56805 0
M  V30 3986 H 376.688 3.25646 -1.81067 0
M  V30 3987 H 376.801 3.06197 -3.68483 0
M  V30 3988 H 375.165 1.70106 -1.89568 0
M  V30 3989 H 375.948 0.840485 -3.32852 0
M  V30 3990 N 378.394 1.34581 0.820102 0
M  V30 3991 C 379.805 1.24298 1.39309 0
M  V30 3992 C 380.156 -0.130351 1.95767 0
M  V30 3993 O 379.281 -1.0308 1.90272 0
M  V30 3994 C 379.876 2.25054 2.53251 0
M  V30 3995 C 378.435 2.18552 3.0645 0
M  V30 3996 C 377.582 2.11503 1.79337 0
M  V30 3997 H 380.533 1.45906 0.624262 0
M  V30 3998 H 380.554 1.86917 3.31425 0
M  V30 3999 H 380.066 3.24996 2.1213 0
M  V30 4000 H 378.167 1.21976 3.52069 0
M  V30 4001 H 378.28 3.0993 3.65349 0
M  V30 4002 H 376.644 1.57268 2.00347 0
M  V30 4003 H 377.427 3.13284 1.40386 0
M  V30 4004 N 379.872 -1.04064 1.18357 0
M  V30 4005 C 380.835 -2.10243 0.912707 0
M  V30 4006 C 381.835 -1.60477 -0.101928 0
M  V30 4007 O 383.025 -1.73703 0.131517 0
M  V30 4008 C 380.157 -3.38893 0.369387 0
M  V30 4009 H 381.35 -2.35706 1.85426 0
M  V30 4010 H 378.903 -1.20489 0.995594 0
M  V30 4011 H 379.638 -3.19094 -0.578776 0
M  V30 4012 H 379.423 -3.76331 1.1008 0
M  V30 4013 H 380.913 -4.17128 0.198575 0
M  V30 4014 N 381.35 -0.985608 -1.22978 0
M  V30 4015 C 382.761 -0.693593 -1.73338 0
M  V30 4016 C 383.112 0.789935 -1.79595 0
M  V30 4017 O 382.237 1.61771 -1.43733 0
M  V30 4018 C 382.832 -1.25235 -3.14804 0
M  V30 4019 C 381.391 -1.00987 -3.626 0
M  V30 4020 C 380.538 -1.37695 -2.40698 0
M  V30 4021 H 383.489 -1.15884 -1.08428 0
M  V30 4022 H 383.51 -0.627329 -3.75293 0
M  V30 4023 H 383.022 -2.33209 -3.10218 0
M  V30 4024 H 381.123 0.0535565 -3.72562 0
M  V30 4025 H 381.236 -1.66812 -4.49122 0
M  V30 4026 H 379.6 -0.795459 -2.4196 0
M  V30 4027 H 380.383 -2.46657 -2.38779 0
M  V30 4028 N 382.828 1.3818 -0.7579 0
M  V30 4029 C 384.053 2.04827 -0.325679 0
M  V30 4030 C 384.478 1.56788 1.03919 0
M  V30 4031 O 383.836 0.721811 1.66312 0
M  V30 4032 C 383.884 3.58774 -0.362447 0
M  V30 4033 O 382.988 4.07372 0.642033 0
M  V30 4034 H 382.329 0.64833 -0.143402 0
M  V30 4035 H 384.859 1.7677 -1.03023 0
M  V30 4036 H 384.869 4.07434 -0.214844 0
M  V30 4037 H 383.544 3.93096 -1.35824 0
M  V30 4038 H 382.121 3.70068 0.458688 0
M  V30 4039 N 384.306 0.507319 1.49211 0
M  V30 4040 C 385.554 -0.0348839 2.0207 0
M  V30 4041 C 385.875 -1.36898 1.38866 0
M  V30 4042 O 385.145 -1.88133 0.546151 0
M  V30 4043 H 383.725 -0.0158812 0.746831 0
M  V30 4044 H 386.387 0.665998 1.83168 0
M  V30 4045 H 385.483 -0.159917 3.1169 0
M  V30 4046 N 385.784 -1.5574 0.241426 0
M  V30 4047 C 387.061 -1.90704 -0.434881 0
M  V30 4048 C 387.441 -1.16145 -1.76277 0
M  V30 4049 O 386.789 -0.277152 -2.26813 0
M  V30 4050 C 386.999 -3.43657 -0.608343 0
M  V30 4051 C 388.347 -4.14806 -0.906725 0
M  V30 4052 O 389.371 -3.49366 -0.694408 0
M  V30 4053 O 388.23 -5.30548 -1.31075 0
M  V30 4054 H 385.324 -0.793592 -0.23268 0
M  V30 4055 H 387.87 -1.67288 0.285086 0
M  V30 4056 H 386.642 -3.89927 0.327505 0
M  V30 4057 H 386.265 -3.72918 -1.37906 0
M  V30 4058 N 387.262 0.0317525 -1.57568 0
M  V30 4059 C 388.49 0.734949 -1.93407 0
M  V30 4060 C 388.905 1.69036 -0.84096 0
M  V30 4061 O 388.262 1.81582 0.182836 0
M  V30 4062 C 388.313 1.49432 -3.29169 0
M  V30 4063 O 388.034 0.577261 -4.3428 0
M  V30 4064 C 389.535 2.29492 -3.79273 0
M  V30 4065 H 386.755 0.206706 -0.638368 0
M  V30 4066 H 389.299 -0.00992046 -2.04498 0
M  V30 4067 H 387.454 2.1911 -3.19483 0
M  V30 4068 H 387.868 1.10952 -5.1263 0
M  V30 4069 H 389.342 2.78172 -4.76785 0
M  V30 4070 H 389.819 3.10794 -3.10328 0
M  V30 4071 H 390.425 1.64894 -3.92033 0
M  V30 4072 N 388.74 1.54641 0.303973 0
M  V30 4073 C 389.703 1.84646 1.35789 0
M  V30 4074 C 390.703 0.7192 1.4382 0
M  V30 4075 O 391.893 0.987491 1.43507 0
M  V30 4076 C 389.025 2.02407 2.74307 0
M  V30 4077 H 390.218 2.78829 1.10429 0
M  V30 4078 H 387.771 1.46658 0.540487 0
M  V30 4079 H 388.506 1.10502 3.04893 0
M  V30 4080 H 388.291 2.84453 2.69868 0
M  V30 4081 H 389.781 2.27002 3.50514 0
M  V30 4082 N 390.218 -0.567019 1.47046 0
M  V30 4083 C 391.629 -1.14916 1.47143 0
M  V30 4084 C 391.98 -1.94954 0.220767 0
M  V30 4085 O 391.105 -2.05602 -0.67505 0
M  V30 4086 C 391.7 -2.09069 2.666 0
M  V30 4087 C 390.259 -2.62575 2.69687 0
M  V30 4088 C 389.406 -1.38755 2.40088 0
M  V30 4089 H 392.357 -0.354126 1.54699 0
M  V30 4090 H 392.378 -2.92789 2.43011 0
M  V30 4091 H 391.89 -1.50789 3.57609 0
M  V30 4092 H 389.991 -3.24681 1.82792 0
M  V30 4093 H 390.104 -3.04239 3.70102 0
M  V30 4094 H 388.468 -1.69098 1.90468 0
M  V30 4095 H 389.251 -0.822822 3.33293 0
M  V30 4096 N 391.696 -1.35014 -0.812953 0
M  V30 4097 C 393.107 -1.25035 -1.38648 0
M  V30 4098 C 393.458 0.119967 -1.95833 0
M  V30 4099 O 392.583 1.02069 -1.90816 0
M  V30 4100 C 393.178 -2.26394 -2.52054 0
M  V30 4101 C 391.737 -2.20175 -3.05287 0
M  V30 4102 C 390.884 -2.12451 -1.78213 0
M  V30 4103 H 393.835 -1.46235 -0.616516 0
M  V30 4104 H 393.856 -1.88672 -3.30429 0
M  V30 4105 H 393.368 -3.26116 -2.10404 0
M  V30 4106 H 391.469 -1.23841 -3.51417 0
M  V30 4107 H 391.582 -3.11863 -3.63701 0
M  V30 4108 H 389.946 -1.58328 -1.9951 0
M  V30 4109 H 390.729 -3.14024 -1.38723 0
M  V30 4110 N 393.175 1.03435 -1.18907 0
M  V30 4111 C 394.138 2.09756 -0.923844 0
M  V30 4112 C 395.138 1.60528 0.093416 0
M  V30 4113 O 396.328 1.73631 -0.140727 0
M  V30 4114 C 393.46 3.38692 -0.387354 0
M  V30 4115 H 394.653 2.34719 -1.86674 0
M  V30 4116 H 392.206 1.19959 -1.00197 0
M  V30 4117 H 392.941 3.19396 0.561845 0
M  V30 4118 H 392.726 3.75742 -1.12074 0
M  V30 4119 H 394.216 4.17016 -0.220694 0
M  V30 4120 N 394.653 0.992116 1.22453 0
M  V30 4121 C 396.069 0.702713 1.43297 0
M  V30 4122 C 396.269 -0.726909 1.87932 0
M  V30 4123 O 395.325 -1.49792 2.0327 0
M  V30 4124 C 396.638 1.70762 2.47509 0
M  V30 4125 C 398.186 1.72298 2.61309 0
M  V30 4126 C 398.661 2.71649 3.68742 0
M  V30 4127 N 400.152 2.70239 3.76199 0
M  V30 4128 C 400.887 3.43778 4.58917 0
M  V30 4129 N 400.383 4.26914 5.45633 0
M  V30 4130 N 402.176 3.32487 4.5322 0
M  V30 4131 H 394.327 1.91543 0.917871 0
M  V30 4132 H 396.59 0.826031 0.465162 0
M  V30 4133 H 396.296 2.73059 2.21657 0
M  V30 4134 H 396.17 1.49985 3.46099 0
M  V30 4135 H 398.557 0.706989 2.86506 0
M  V30 4136 H 398.638 1.97143 1.62997 0
M  V30 4137 H 398.282 3.73397 3.44292 0
M  V30 4138 H 398.212 2.44074 4.66622 0
M  V30 4139 H 400.703 2.09912 3.14237 0
M  V30 4140 H 401.016 4.79855 6.05771 0
M  V30 4141 H 399.361 4.31002 5.45218 0
M  V30 4142 H 402.552 2.6698 3.84499 0
M  V30 4143 H 402.725 3.90058 5.17454 0
M  V30 4144 N 396.131 -1.37776 0.765217 0
M  V30 4145 C 397.542 -1.82521 0.392819 0
M  V30 4146 C 397.893 -1.63789 -1.08017 0
M  V30 4147 O 397.018 -1.14542 -1.83601 0
M  V30 4148 C 397.613 -3.31358 0.706214 0
M  V30 4149 C 396.172 -3.74406 0.386952 0
M  V30 4150 C 395.319 -2.60394 0.953422 0
M  V30 4151 H 398.27 -1.2634 0.960412 0
M  V30 4152 H 398.291 -3.80498 -0.0114706 0
M  V30 4153 H 397.803 -3.44959 1.77833 0
M  V30 4154 H 395.904 -3.66377 -0.678112 0
M  V30 4155 H 396.017 -4.70749 0.890636 0
M  V30 4156 H 394.381 -2.51878 0.378064 0
M  V30 4157 H 395.164 -2.76791 2.03081 0
M  V30 4158 N 397.609 -0.515225 -1.4894 0
M  V30 4159 C 398.559 0.275113 -2.26334 0
M  V30 4160 C 399.543 0.923007 -1.31793 0
M  V30 4161 O 400.735 0.828254 -1.56426 0
M  V30 4162 C 397.864 1.33041 -3.16473 0
M  V30 4163 C 396.95 0.688051 -4.18481 0
M  V30 4164 N 397.341 -0.217638 -5.05332 0
M  V30 4165 C 395.639 0.94699 -4.3583 0
M  V30 4166 C 396.34 -0.58676 -5.78733 0
M  V30 4167 N 395.316 0.0486966 -5.43578 0
M  V30 4168 H 399.118 -0.421876 -2.90856 0
M  V30 4169 H 396.632 -0.332249 -1.58965 0
M  V30 4170 H 398.629 1.9102 -3.70563 0
M  V30 4171 H 397.289 2.02894 -2.53504 0
M  V30 4172 H 398.3 -0.589343 -5.14536 0
M  V30 4173 H 394.977 1.63719 -3.8406 0
M  V30 4174 H 396.367 -1.32855 -6.58634 0
M  V30 4175 N 399.087 1.5561 -0.249682 0
M  V30 4176 C 400.315 2.03411 0.378352 0
M  V30 4177 C 400.73 1.12886 1.51335 0
M  V30 4178 O 400.087 0.143833 1.81932 0
M  V30 4179 C 400.138 3.50537 0.88351 0
M  V30 4180 O 399.859 4.37614 -0.20626 0
M  V30 4181 C 401.36 4.14113 1.58195 0
M  V30 4182 H 398.58 0.664994 0.08958 0
M  V30 4183 H 401.124 2.01044 -0.374357 0
M  V30 4184 H 399.279 3.5343 1.58639 0
M  V30 4185 H 399.693 5.24199 0.177782 0
M  V30 4186 H 401.167 5.18741 1.8871 0
M  V30 4187 H 401.644 3.60767 2.50487 0
M  V30 4188 H 402.25 4.15151 0.923573 0
M  V30 4189 N 400.565 -0.0233959 1.57583 0
M  V30 4190 C 401.976 -0.56927 1.77809 0
M  V30 4191 C 402.327 -1.75284 0.881472 0
M  V30 4192 O 401.452 -2.1626 0.0777805 0
M  V30 4193 C 402.047 -1.03949 3.22459 0
M  V30 4194 C 400.606 -1.53084 3.43864 0
M  V30 4195 C 399.753 -0.471454 2.73263 0
M  V30 4196 H 402.704 0.202825 1.57399 0
M  V30 4197 H 402.725 -1.90661 3.29285 0
M  V30 4198 H 402.237 -0.177865 3.87692 0
M  V30 4199 H 400.338 -2.41414 2.83814 0
M  V30 4200 H 400.451 -1.57443 4.52491 0
M  V30 4201 H 398.815 -0.927788 2.37201 0
M  V30 4202 H 399.598 0.380808 3.41181 0
M  V30 4203 N 402.043 -1.548 -0.295768 0
M  V30 4204 C 402.973 -1.89115 -1.36959 0
M  V30 4205 C 403.954 -0.75059 -1.52644 0
M  V30 4206 O 405.139 -1.00678 -1.66065 0
M  V30 4207 C 402.269 -2.14307 -2.73295 0
M  V30 4208 C 401.223 -3.30151 -2.72368 0
M  V30 4209 C 400.549 -3.40772 -4.12042 0
M  V30 4210 C 401.849 -4.67126 -2.33646 0
M  V30 4211 H 403.543 -2.79053 -1.08488 0
M  V30 4212 H 401.089 -1.34266 -0.520443 0
M  V30 4213 H 403.042 -2.36898 -3.48507 0
M  V30 4214 H 401.766 -1.21145 -3.03301 0
M  V30 4215 H 400.425 -3.0749 -1.99613 0
M  V30 4216 H 400.073 -2.45117 -4.39234 0
M  V30 4217 H 399.773 -4.18645 -4.12322 0
M  V30 4218 H 401.297 -3.6563 -4.89027 0
M  V30 4219 H 402.711 -4.89414 -2.98575 0
M  V30 4220 H 401.108 -5.47751 -2.45129 0
M  V30 4221 H 402.178 -4.67489 -1.28772 0
M  V30 4222 N 403.521 0.559213 -1.47345 0
M  V30 4223 C 404.746 1.34676 -1.57725 0
M  V30 4224 C 405.171 1.86723 -0.227164 0
M  V30 4225 O 404.529 1.6286 0.796642 0
M  V30 4226 C 404.577 2.49399 -2.60447 0
M  V30 4227 O 403.681 3.51567 -2.15578 0
M  V30 4228 H 403.022 0.400115 -0.52991 0
M  V30 4229 H 405.552 0.676009 -1.93109 0
M  V30 4230 H 405.562 2.95996 -2.80803 0
M  V30 4231 H 404.237 2.10873 -3.58477 0
M  V30 4232 H 402.814 3.11289 -2.05313 0
M  V30 4233 N 404.999 1.35443 0.805782 0
M  V30 4234 C 406.415 1.15499 1.10146 0
M  V30 4235 C 406.615 -0.0319975 2.01475 0
M  V30 4236 O 405.671 -0.70236 2.42535 0
M  V30 4237 C 406.984 2.45833 1.73166 0
M  V30 4238 C 408.532 2.52047 1.85583 0
M  V30 4239 C 409.007 3.82427 2.52019 0
M  V30 4240 N 410.498 3.83682 2.59504 0
M  V30 4241 C 411.233 4.81294 3.11679 0
M  V30 4242 N 410.729 5.89294 3.64287 0
M  V30 4243 N 412.522 4.6873 3.1024 0
M  V30 4244 H 404.673 2.11469 0.198678 0
M  V30 4245 H 406.936 0.93594 0.150731 0
M  V30 4246 H 406.642 3.32874 1.13526 0
M  V30 4247 H 406.516 2.6044 2.72857 0
M  V30 4248 H 408.903 1.65435 2.44367 0
M  V30 4249 H 408.984 2.41354 0.847455 0
M  V30 4250 H 408.628 4.69437 1.93885 0
M  V30 4251 H 408.558 3.90409 3.53395 0
M  V30 4252 H 411.049 3.05648 2.22234 0
M  V30 4253 H 411.362 6.59768 4.02401 0
M  V30 4254 H 409.707 5.92985 3.62483 0
M  V30 4255 H 412.898 3.83496 2.68419 0
M  V30 4256 H 413.071 5.44965 3.50596 0
M  V30 4257 N 406.477 -1.02803 1.19454 0
M  V30 4258 C 407.726 -1.7562 0.991996 0
M  V30 4259 C 408.039 -1.89672 -0.477901 0
M  V30 4260 O 409.245 -2.59468 -0.799287 0
M  V30 4261 C 407.701 -3.15812 1.72601 0
M  V30 4262 C 407.309 -3.0981 3.23607 0
M  V30 4263 C 409.053 -3.92918 1.60674 0
M  V30 4264 C 406.96 -4.44939 3.89594 0
M  V30 4265 H 405.89 -0.658352 0.367543 0
M  V30 4266 H 408.541 -1.15044 1.42959 0
M  V30 4267 H 406.923 -3.7686 1.21624 0
M  V30 4268 H 408.097 -2.58138 3.81709 0
M  V30 4269 H 406.412 -2.46201 3.35819 0
M  V30 4270 H 409.009 -4.9287 2.07323 0
M  V30 4271 H 409.352 -4.12502 0.561025 0
M  V30 4272 H 409.885 -3.38472 2.09001 0
M  V30 4273 H 406.624 -4.30559 4.94267 0
M  V30 4274 H 406.144 -4.96664 3.36281 0
M  V30 4275 H 407.823 -5.1382 3.93189 0
M  V30 4276 N 407.956 -0.998596 -1.21925 0
M  V30 4277 C 409.233 -0.593401 -1.86382 0
M  V30 4278 C 409.613 0.92916 -1.89552 0
M  V30 4279 O 408.961 1.81347 -1.39017 0
M  V30 4280 C 409.171 -1.22039 -3.26967 0
M  V30 4281 C 410.519 -1.32449 -4.03413 0
M  V30 4282 O 411.543 -1.17522 -3.36254 0
M  V30 4283 O 410.402 -1.56395 -5.23644 0
M  V30 4284 H 407.496 -0.202385 -0.801854 0
M  V30 4285 H 410.042 -1.09484 -1.29659 0
M  V30 4286 H 408.814 -2.26158 -3.19325 0
M  V30 4287 H 408.437 -0.704906 -3.91301 0
M  V30 4288 N 409.434 1.37368 -0.772513 0
M  V30 4289 C 410.68 1.99969 -0.337681 0
M  V30 4290 C 411.013 1.61184 1.08321 0
M  V30 4291 O 410.288 0.858395 1.74533 0
M  V30 4292 C 410.571 3.56858 -0.482121 0
M  V30 4293 C 410.424 4.0555 -1.94549 0
M  V30 4294 C 411.743 4.39955 0.113143 0
M  V30 4295 H 408.862 0.726464 -0.124171 0
M  V30 4296 H 411.504 1.63034 -0.975699 0
M  V30 4297 H 409.654 3.88452 0.0610361 0
M  V30 4298 H 411.326 3.84518 -2.54841 0
M  V30 4299 H 409.569 3.57715 -2.45403 0
M  V30 4300 H 410.24 5.14587 -1.9976 0
M  V30 4301 H 412.716 4.14623 -0.35031 0
M  V30 4302 H 411.592 5.48897 -0.0180514 0
M  V30 4303 H 411.853 4.25403 1.20354 0
M  V30 4304 N 410.912 0.523116 1.48665 0
M  V30 4305 C 412.328 0.180511 1.58576 0
M  V30 4306 C 412.528 -1.31597 1.52592 0
M  V30 4307 O 411.584 -2.0937 1.4114 0
M  V30 4308 C 412.897 0.776949 2.90489 0
M  V30 4309 C 414.445 0.745058 3.04003 0
M  V30 4310 C 414.92 1.31995 4.38567 0
M  V30 4311 N 416.411 1.28162 4.45117 0
M  V30 4312 C 417.146 1.6964 5.47731 0
M  V30 4313 N 416.642 2.18816 6.57337 0
M  V30 4314 N 418.435 1.6092 5.38573 0
M  V30 4315 H 410.586 1.4958 1.50797 0
M  V30 4316 H 412.849 0.621772 0.715614 0
M  V30 4317 H 412.555 1.82732 3.00503 0
M  V30 4318 H 412.429 0.25007 3.7637 0
M  V30 4319 H 414.816 -0.296532 2.93606 0
M  V30 4320 H 414.897 1.30933 2.1975 0
M  V30 4321 H 414.541 2.36043 4.49718 0
M  V30 4322 H 414.471 0.731418 5.21496 0
M  V30 4323 H 416.962 0.92155 3.66491 0
M  V30 4324 H 417.275 2.48478 7.31764 0
M  V30 4325 H 415.62 2.22805 6.58318 0
M  V30 4326 H 418.811 1.22304 4.5184 0
M  V30 4327 H 418.984 1.93567 6.18414 0
M  V30 4328 N 412.39 -1.55475 0.257931 0
M  V30 4329 C 413.801 -1.8511 -0.243135 0
M  V30 4330 C 414.152 -1.17986 -1.5676 0
M  V30 4331 O 413.277 -0.462102 -2.11409 0
M  V30 4332 C 413.872 -3.35826 -0.447929 0
M  V30 4333 C 412.431 -3.65647 -0.893245 0
M  V30 4334 C 411.578 -2.7729 0.0232965 0
M  V30 4335 H 414.529 -1.51261 0.480199 0
M  V30 4336 H 414.55 -3.58002 -1.28898 0
M  V30 4337 H 414.062 -3.84652 0.516196 0
M  V30 4338 H 412.163 -3.22308 -1.86945 0
M  V30 4339 H 412.276 -4.73312 -0.742469 0
M  V30 4340 H 410.64 -2.49942 -0.490021 0
M  V30 4341 H 411.423 -3.28926 0.982994 0
M  V30 4342 N 413.868 0.0150385 -1.57593 0
M  V30 4343 C 415.279 0.559832 -1.78109 0
M  V30 4344 C 415.63 1.74814 -0.890756 0
M  V30 4345 O 414.755 2.16216 -0.0892482 0
M  V30 4346 C 415.35 1.02238 -3.23006 0
M  V30 4347 C 413.909 1.51258 -3.44671 0
M  V30 4348 C 413.056 0.456955 -2.73509 0
M  V30 4349 H 416.007 -0.211169 -1.57289 0
M  V30 4350 H 416.028 1.88912 -3.30292 0
M  V30 4351 H 415.54 0.157302 -3.87781 0
M  V30 4352 H 413.641 2.39905 -2.8509 0
M  V30 4353 H 413.754 1.55042 -4.5332 0
M  V30 4354 H 412.118 0.915196 -2.37689 0
M  V30 4355 H 412.901 -0.398896 -3.40975 0
M  V30 4356 N 415.346 1.54954 0.287554 0
M  V30 4357 C 416.276 1.89839 1.35954 0
M  V30 4358 C 417.257 0.758675 1.52244 0
M  V30 4359 O 418.442 1.01557 1.65529 0
M  V30 4360 C 415.572 2.15753 2.72154 0
M  V30 4361 C 414.526 3.3159 2.70614 0
M  V30 4362 C 413.852 3.42952 4.10229 0
M  V30 4363 C 415.152 4.68359 2.31165 0
M  V30 4364 H 416.846 2.79625 1.07007 0
M  V30 4365 H 414.392 1.3454 0.513316 0
M  V30 4366 H 416.345 2.38743 3.47246 0
M  V30 4367 H 415.069 1.22752 3.02654 0
M  V30 4368 H 413.728 3.08545 1.97979 0
M  V30 4369 H 413.376 2.47443 4.37928 0
M  V30 4370 H 413.076 4.20826 4.10097 0
M  V30 4371 H 414.6 3.68218 4.87081 0
M  V30 4372 H 416.014 4.9099 2.95976 0
M  V30 4373 H 414.411 5.49044 2.42221 0
M  V30 4374 H 415.481 4.68165 1.26291 0
M  V30 4375 N 416.824 -0.551391 1.4764 0
M  V30 4376 C 418.101 -1.31229 1.45046 0
M  V30 4377 C 418.481 -2.10563 0.150527 0
M  V30 4378 O 417.829 -2.11374 -0.867956 0
M  V30 4379 C 418.039 -2.21189 2.69956 0
M  V30 4380 C 419.387 -2.82021 3.1741 0
M  V30 4381 O 420.411 -2.31488 2.70724 0
M  V30 4382 O 419.27 -3.73885 3.98588 0
M  V30 4383 H 416.364 -0.591193 0.578291 0
M  V30 4384 H 418.91 -0.569813 1.59847 0
M  V30 4385 H 417.682 -1.62207 3.56096 0
M  V30 4386 H 417.305 -3.02722 2.57769 0
M  V30 4387 N 418.302 -1.35869 -0.798587 0
M  V30 4388 C 419.548 -1.30788 -1.55775 0
M  V30 4389 C 419.903 0.114558 -1.92059 0
M  V30 4390 O 419.196 1.06691 -1.59147 0
M  V30 4391 C 419.39 -2.1556 -2.85077 0
M  V30 4392 C 419.219 -3.65904 -2.61428 0
M  V30 4393 C 417.989 -4.35112 -2.56915 0
M  V30 4394 C 420.187 -4.59375 -2.31255 0
M  V30 4395 N 418.169 -5.71155 -2.25068 0
M  V30 4396 C 419.54 -5.83598 -2.09316 0
M  V30 4397 C 421.595 -4.48035 -2.17185 0
M  V30 4398 C 420.298 -6.97755 -1.74731 0
M  V30 4399 C 422.324 -5.62049 -1.83998 0
M  V30 4400 C 421.686 -6.85305 -1.629 0
M  V30 4401 H 417.785 -0.533855 -0.571422 0
M  V30 4402 H 420.369 -1.7083 -0.934079 0
M  V30 4403 H 418.54 -1.77776 -3.45326 0
M  V30 4404 H 420.272 -2.01938 -3.50718 0
M  V30 4405 H 417.027 -3.87812 -2.71843 0
M  V30 4406 H 417.451 -6.42978 -2.11916 0
M  V30 4407 H 422.093 -3.53338 -2.3219 0
M  V30 4408 H 419.811 -7.92411 -1.58464 0
M  V30 4409 H 423.397 -5.55232 -1.73808 0
M  V30 4410 H 422.277 -7.72034 -1.37596 0
M  V30 4411 N 419.78 1.02168 -1.19998 0
M  V30 4412 C 421.028 1.75338 -1.00504 0
M  V30 4413 C 421.349 1.89387 0.464506 0
M  V30 4414 O 420.619 1.43268 1.33608 0
M  V30 4415 H 419.199 0.649564 -0.368885 0
M  V30 4416 H 421.861 1.23205 -1.51018 0
M  V30 4417 H 420.957 2.75892 -1.45912 0
M  V30 4418 N 421.258 1.00505 1.21394 0
M  V30 4419 C 422.669 0.721082 1.72213 0
M  V30 4420 C 423.02 -0.761263 1.80829 0
M  V30 4421 O 422.145 -1.59464 1.46288 0
M  V30 4422 C 422.74 1.30228 3.12772 0
M  V30 4423 C 421.299 1.06743 3.60947 0
M  V30 4424 C 420.446 1.41507 2.38477 0
M  V30 4425 H 423.397 1.17594 1.06571 0
M  V30 4426 H 423.418 0.686955 3.74247 0
M  V30 4427 H 422.93 2.38115 3.06468 0
M  V30 4428 H 421.031 0.00572162 3.726 0
M  V30 4429 H 421.144 1.73936 4.46411 0
M  V30 4430 H 419.508 0.833852 2.40664 0
M  V30 4431 H 420.291 2.50424 2.34824 0
M  V30 4432 N 422.737 -1.36956 0.779787 0
M  V30 4433 C 423.669 -2.28833 0.129639 0
M  V30 4434 C 424.682 -1.4902 -0.655511 0
M  V30 4435 O 425.871 -1.71578 -0.492279 0
M  V30 4436 C 422.971 -3.2833 -0.839792 0
M  V30 4437 C 422.144 -4.3727 -0.10675 0
M  V30 4438 C 421.203 -5.16789 -0.990717 0
M  V30 4439 O 420.229 -5.67406 -0.451516 0
M  V30 4440 N 421.431 -5.32294 -2.3161 0
M  V30 4441 H 424.196 -2.85268 0.918803 0
M  V30 4442 H 421.757 -1.49019 0.632841 0
M  V30 4443 H 423.749 -3.78413 -1.43477 0
M  V30 4444 H 422.319 -2.72605 -1.52988 0
M  V30 4445 H 421.539 -3.88478 0.669216 0
M  V30 4446 H 422.827 -5.07229 0.399464 0
M  V30 4447 H 422.225 -4.92768 -2.77843 0
M  V30 4448 H 420.782 -5.85656 -2.86095 0
M  V30 4449 N 424.215 -0.530993 -1.48385 0
M  V30 4450 C 425.631 -0.188919 -1.58478 0
M  V30 4451 C 425.831 1.30786 -1.53288 0
M  V30 4452 O 424.887 2.08619 -1.42248 0
M  V30 4453 C 426.2 -0.792343 -2.90073 0
M  V30 4454 C 427.748 -0.76117 -3.03604 0
M  V30 4455 C 428.223 -1.34319 -4.37861 0
M  V30 4456 N 429.714 -1.3052 -4.44431 0
M  V30 4457 C 430.449 -1.72543 -5.46824 0
M  V30 4458 N 429.945 -2.22299 -6.56167 0
M  V30 4459 N 431.738 -1.63773 -5.37712 0
M  V30 4460 H 423.889 -1.50377 -1.50002 0
M  V30 4461 H 426.152 -0.625559 -0.712306 0
M  V30 4462 H 425.858 -1.84323 -2.99529 0
M  V30 4463 H 425.732 -0.270026 -3.76232 0
M  V30 4464 H 428.119 0.280957 -2.93759 0
M  V30 4465 H 428.2 -1.32097 -2.19053 0
M  V30 4466 H 427.844 -2.38425 -4.4846 0
M  V30 4467 H 427.774 -0.759064 -5.21101 0
M  V30 4468 H 430.265 -0.940973 -3.65997 0
M  V30 4469 H 430.578 -2.52356 -7.30436 0
M  V30 4470 H 428.923 -2.26293 -6.57127 0
M  V30 4471 H 432.114 -1.24698 -4.51185 0
M  V30 4472 H 432.287 -1.96844 -6.17379 0
M  V30 4473 N 425.693 1.55336 -0.266172 0
M  V30 4474 C 426.625 2.19544 0.658247 0
M  V30 4475 C 427.638 1.17746 1.12427 0
M  V30 4476 O 428.827 1.44517 1.04772 0
M  V30 4477 C 425.927 2.80032 1.9088 0
M  V30 4478 C 425.1 4.07436 1.59106 0
M  V30 4479 C 424.159 4.52056 2.69317 0
M  V30 4480 O 423.185 5.18023 2.35883 0
M  V30 4481 N 424.387 4.21448 3.99201 0
M  V30 4482 H 427.152 2.99503 0.108754 0
M  V30 4483 H 424.713 1.61667 -0.0869059 0
M  V30 4484 H 426.705 3.06831 2.63888 0
M  V30 4485 H 425.275 2.04119 2.36758 0
M  V30 4486 H 424.495 3.88021 0.695243 0
M  V30 4487 H 425.783 4.90462 1.35367 0
M  V30 4488 H 425.181 3.68528 4.29189 0
M  V30 4489 H 423.738 4.53039 4.68614 0
M  V30 4490 N 427.171 -0.0066808 1.57599 0
M  V30 4491 C 428.399 -0.704087 1.94551 0
M  V30 4492 C 428.814 -1.67677 0.867746 0
M  V30 4493 O 428.171 -1.8185 -0.153925 0
M  V30 4494 C 428.222 -1.44177 3.31505 0
M  V30 4495 O 427.943 -0.508097 4.35144 0
M  V30 4496 C 429.444 -2.23429 3.82876 0
M  V30 4497 H 426.664 -0.196523 0.641576 0
M  V30 4498 H 429.208 0.042453 2.04456 0
M  V30 4499 H 427.363 -2.13999 3.22929 0
M  V30 4500 H 427.777 -1.02782 5.14331 0
M  V30 4501 H 429.251 -2.70552 4.8115 0
M  V30 4502 H 429.728 -3.05818 3.15233 0
M  V30 4503 H 430.334 -1.58636 3.94607 0
M  V30 4504 N 428.649 -1.55105 -0.279332 0
M  V30 4505 C 429.579 -1.90557 -1.34945 0
M  V30 4506 C 430.56 -0.766738 -1.51839 0
M  V30 4507 O 431.745 -1.02434 -1.64988 0
M  V30 4508 C 428.875 -2.17193 -2.71006 0
M  V30 4509 C 427.829 -3.33021 -2.68851 0
M  V30 4510 C 427.155 -3.45123 -4.08405 0
M  V30 4511 C 428.455 -4.69578 -2.28678 0
M  V30 4512 H 430.149 -2.80188 -1.05522 0
M  V30 4513 H 427.695 -1.34811 -0.506173 0
M  V30 4514 H 429.648 -2.40581 -3.45975 0
M  V30 4515 H 428.372 -1.24355 -3.01999 0
M  V30 4516 H 427.031 -3.0959 -1.9634 0
M  V30 4517 H 426.679 -2.49762 -4.3661 0
M  V30 4518 H 426.379 -4.22995 -4.07859 0
M  V30 4519 H 427.903 -3.70796 -4.85121 0
M  V30 4520 H 429.317 -4.92553 -2.93368 0
M  V30 4521 H 427.714 -5.5032 -2.39306 0
M  V30 4522 H 428.784 -4.68828 -1.23807 0
M  V30 4523 N 430.127 0.543554 -1.4793 0
M  V30 4524 C 431.352 1.32995 -1.59145 0
M  V30 4525 C 431.777 1.86472 -0.246956 0
M  V30 4526 O 431.135 1.63696 0.779324 0
M  V30 4527 C 431.183 2.46623 -2.63077 0
M  V30 4528 O 430.287 3.49261 -2.19295 0
M  V30 4529 H 429.628 0.394472 -0.534124 0
M  V30 4530 H 432.158 0.655489 -1.93816 0
M  V30 4531 H 432.168 2.93001 -2.83926 0
M  V30 4532 H 430.843 2.07059 -3.60693 0
M  V30 4533 H 429.42 3.09094 -2.08603 0
M  V30 4534 N 431.605 1.3629 0.791371 0
M  V30 4535 C 433.021 1.16661 1.08914 0
M  V30 4536 C 433.221 -0.0106266 2.01497 0
M  V30 4537 O 432.277 -0.676596 2.43266 0
M  V30 4538 C 433.59 2.47656 1.70549 0
M  V30 4539 C 435.138 2.54002 1.82899 0
M  V30 4540 C 435.613 3.85078 2.47949 0
M  V30 4541 N 437.104 3.86413 2.5542 0
M  V30 4542 C 437.839 4.84572 3.06557 0
M  V30 4543 N 437.335 5.93124 3.58016 0
M  V30 4544 N 439.128 4.71994 3.05251 0
M  V30 4545 H 431.279 2.11668 0.176238 0
M  V30 4546 H 433.542 0.937486 0.140796 0
M  V30 4547 H 433.248 3.34059 1.09989 0
M  V30 4548 H 433.122 2.63319 2.70079 0
M  V30 4549 H 435.509 1.68018 2.42598 0
M  V30 4550 H 435.59 2.42239 0.821808 0
M  V30 4551 H 435.234 4.71467 1.88895 0
M  V30 4552 H 435.164 3.94135 3.49235 0
M  V30 4553 H 437.655 3.07988 2.18979 0
M  V30 4554 H 437.968 6.63999 3.95381 0
M  V30 4555 H 436.313 5.96796 3.56173 0
M  V30 4556 H 439.504 3.86321 2.64336 0
M  V30 4557 H 439.677 5.48653 3.44796 0
M  V30 4558 N 433.083 -1.0153 1.20538 0
M  V30 4559 C 434.494 -1.56598 1.01657 0
M  V30 4560 C 434.845 -1.91505 -0.426668 0
M  V30 4561 O 433.97 -1.72375 -1.30827 0
M  V30 4562 C 434.565 -2.84542 1.83905 0
M  V30 4563 C 433.124 -3.36133 1.69386 0
M  V30 4564 C 432.271 -2.09427 1.81757 0
M  V30 4565 H 435.222 -0.838974 1.34711 0
M  V30 4566 H 435.243 -3.56004 1.34319 0
M  V30 4567 H 434.755 -2.59105 2.8894 0
M  V30 4568 H 432.856 -3.66528 0.669933 0
M  V30 4569 H 432.969 -4.08248 2.50739 0
M  V30 4570 H 431.333 -2.21941 1.24957 0
M  V30 4571 H 432.116 -1.86414 2.88279 0
M  V30 4572 N 434.561 -1.01147 -1.20859 0
M  V30 4573 C 435.972 -0.730205 -1.71828 0
M  V30 4574 C 436.323 0.751662 -1.8123 0
M  V30 4575 O 435.448 1.58686 -1.47132 0
M  V30 4576 C 436.043 -1.31885 -3.12077 0
M  V30 4577 C 434.602 -1.08656 -3.60376 0
M  V30 4578 C 433.749 -1.42769 -2.37723 0
M  V30 4579 H 436.7 -1.18158 -1.05945 0
M  V30 4580 H 436.721 -0.706793 -3.73878 0
M  V30 4581 H 436.233 -2.39737 -3.05201 0
M  V30 4582 H 434.334 -0.0254814 -3.72591 0
M  V30 4583 H 434.447 -1.76301 -4.45483 0
M  V30 4584 H 432.811 -0.846603 -2.40218 0
M  V30 4585 H 433.594 -2.51666 -2.33493 0
M  V30 4586 N 436.039 1.36541 -0.78704 0
M  V30 4587 C 437.267 2.03561 -0.370199 0
M  V30 4588 C 437.682 1.59347 1.01263 0
M  V30 4589 O 437.039 0.781781 1.64907 0
M  V30 4590 C 437.09 3.59033 -0.421614 0
M  V30 4591 O 436.811 4.01634 -1.7499 0
M  V30 4592 C 438.312 4.433 0.00489763 0
M  V30 4593 H 435.532 0.653346 -0.152904 0
M  V30 4594 H 438.076 1.74566 -1.06522 0
M  V30 4595 H 436.231 3.86746 0.224971 0
M  V30 4596 H 436.645 4.96217 -1.69909 0
M  V30 4597 H 438.119 5.51939 -0.0822184 0
M  V30 4598 H 438.596 4.26285 1.05723 0
M  V30 4599 H 439.202 4.20843 -0.614085 0
M  V30 4600 N 437.518 0.538854 1.48102 0
M  V30 4601 C 438.929 0.100679 1.86428 0
M  V30 4602 C 439.28 -1.32447 1.44749 0
M  V30 4603 O 438.405 -1.99339 0.842199 0
M  V30 4604 C 439 0.175933 3.38343 0
M  V30 4605 C 437.559 -0.207098 3.7583 0
M  V30 4606 C 436.706 0.531741 2.72154 0
M  V30 4607 H 439.657 0.749614 1.3988 0
M  V30 4608 H 439.678 -0.610144 3.75576 0
M  V30 4609 H 439.19 1.21328 3.68648 0
M  V30 4610 H 437.291 -1.24626 3.5114 0
M  V30 4611 H 437.404 0.138687 4.78899 0
M  V30 4612 H 435.768 -0.0230462 2.5469 0
M  V30 4613 H 436.551 1.56989 3.05302 0
M  V30 4614 N 438.996 -1.55193 0.274407 0
M  V30 4615 C 440.412 -1.59401 -0.0797543 0
M  V30 4616 C 440.612 -1.29162 -1.54659 0
M  V30 4617 O 439.668 -1.05215 -2.29534 0
M  V30 4618 C 440.981 -2.99257 0.294238 0
M  V30 4619 C 442.529 -3.12072 0.240796 0
M  V30 4620 C 443.004 -4.54194 0.589218 0
M  V30 4621 N 444.495 -4.60033 0.540744 0
M  V30 4622 C 445.23 -5.68027 0.783147 0
M  V30 4623 N 444.726 -6.8417 1.09013 0
M  V30 4624 N 446.519 -5.57572 0.711993 0
M  V30 4625 H 438.67 -1.73113 1.23067 0
M  V30 4626 H 440.933 -0.807197 0.497129 0
M  V30 4627 H 440.639 -3.26217 1.31435 0
M  V30 4628 H 440.513 -3.75427 -0.365281 0
M  V30 4629 H 442.9 -2.84877 -0.770024 0
M  V30 4630 H 442.981 -2.38117 0.934563 0
M  V30 4631 H 442.625 -4.82115 1.59772 0
M  V30 4632 H 442.555 -5.26448 -0.126331 0
M  V30 4633 H 445.046 -3.76599 0.313327 0
M  V30 4634 H 445.359 -7.6243 1.26178 0
M  V30 4635 H 443.704 -6.85787 1.12789 0
M  V30 4636 H 446.895 -4.65714 0.472014 0
M  V30 4637 H 447.068 -6.41659 0.90429 0
M  V30 4638 N 440.474 -0.00167713 -1.576 0
M  V30 4639 C 441.89 0.354422 -1.55615 0
M  V30 4640 C 442.09 1.74679 -1.00447 0
M  V30 4641 O 441.146 2.4428 -0.639022 0
M  V30 4642 C 442.459 0.22812 -2.99833 0
M  V30 4643 C 444.007 0.302934 -3.11531 0
M  V30 4644 C 444.482 0.205737 -4.57538 0
M  V30 4645 N 445.973 0.263584 -4.62449 0
M  V30 4646 C 446.708 0.211742 -5.73009 0
M  V30 4647 N 446.204 0.110399 -6.92712 0
M  V30 4648 N 447.997 0.263729 -5.61481 0
M  V30 4649 H 440.148 -0.912498 -1.918 0
M  V30 4650 H 442.411 -0.349928 -0.881053 0
M  V30 4651 H 442.117 -0.729934 -3.44042 0
M  V30 4652 H 441.991 1.00951 -3.6344 0
M  V30 4653 H 444.378 1.25143 -2.67251 0
M  V30 4654 H 444.459 -0.508357 -2.50698 0
M  V30 4655 H 444.103 -0.739225 -5.02492 0
M  V30 4656 H 444.033 1.03554 -5.16318 0
M  V30 4657 H 446.524 0.343173 -3.76339 0
M  V30 4658 H 446.837 0.0767828 -7.72762 0
M  V30 4659 H 445.182 0.0760025 -6.94958 0
M  V30 4660 H 448.373 0.34111 -4.66855 0
M  V30 4661 H 448.546 0.219862 -6.47627 0
M  V30 4662 N 441.952 1.55251 0.271103 0
M  V30 4663 C 443.2 1.75599 1.00047 0
M  V30 4664 C 443.521 0.561188 1.8675 0
M  V30 4665 O 442.791 -0.423846 1.9126 0
M  V30 4666 H 441.371 0.647562 0.372387 0
M  V30 4667 H 444.033 1.92656 0.294876 0
M  V30 4668 H 443.129 2.65766 1.6363 0
M  V30 4669 N 443.43 -0.535701 1.48216 0
M  V30 4670 C 444.841 -1.11769 1.49548 0
M  V30 4671 C 445.192 -1.94442 0.26207 0
M  V30 4672 O 444.317 -2.06987 -0.631287 0
M  V30 4673 C 444.912 -2.03367 2.70975 0
M  V30 4674 C 443.471 -2.56795 2.75196 0
M  V30 4675 C 442.618 -1.33631 2.42977 0
M  V30 4676 H 445.569 -0.321232 1.55415 0
M  V30 4677 H 445.59 -2.87569 2.49167 0
M  V30 4678 H 445.102 -1.43169 3.60727 0
M  V30 4679 H 443.203 -3.20731 1.89638 0
M  V30 4680 H 443.316 -2.9632 3.76472 0
M  V30 4681 H 441.68 -1.6502 1.94012 0
M  V30 4682 H 442.463 -0.75194 3.34964 0
M  V30 4683 N 444.908 -1.36708 -0.784132 0
M  V30 4684 C 446.319 -1.27947 -1.35965 0
M  V30 4685 C 446.67 0.0784013 -1.96043 0
M  V30 4686 O 445.795 0.979989 -1.92938 0
M  V30 4687 C 446.39 -2.31689 -2.47195 0
M  V30 4688 C 444.949 -2.26601 -3.00548 0
M  V30 4689 C 444.096 -2.16184 -1.73666 0
M  V30 4690 H 447.047 -1.4751 -0.585358 0
M  V30 4691 H 447.068 -1.95638 -3.26352 0
M  V30 4692 H 446.58 -3.30506 -2.03439 0
M  V30 4693 H 444.681 -1.31268 -3.48711 0
M  V30 4694 H 444.794 -3.19508 -3.57004 0
M  V30 4695 H 443.158 -1.62524 -1.96107 0
M  V30 4696 H 443.941 -3.16896 -1.32031 0
M  V30 4697 N 446.386 1.0089 -1.21074 0
M  V30 4698 C 447.611 1.78727 -1.05221 0
M  V30 4699 C 448.036 1.83932 0.393795 0
M  V30 4700 O 447.394 1.28004 1.28393 0
M  V30 4701 C 447.442 3.20665 -1.64944 0
M  V30 4702 O 446.546 4.02632 -0.892273 0
M  V30 4703 H 445.887 0.550973 -0.370574 0
M  V30 4704 H 448.417 1.26847 -1.60534 0
M  V30 4705 H 448.427 3.71352 -1.69002 0
M  V30 4706 H 447.102 3.16191 -2.70177 0
M  V30 4707 H 445.679 3.61207 -0.926492 0
M  V30 4708 N 447.864 1.01787 1.20321 0
M  V30 4709 C 448.774 0.598898 2.26827 0
M  V30 4710 C 449.79 -0.36418 1.70146 0
M  V30 4711 O 450.966 -0.224812 2.00141 0
M  V30 4712 C 448.031 -0.0549769 3.46656 0
M  V30 4713 C 447.092 0.954205 4.18561 0
M  V30 4714 C 446.325 0.331439 5.3267 0
M  V30 4715 O 446.548 -0.86851 5.63749 0
M  V30 4716 O 445.482 1.0488 5.92692 0
M  V30 4717 H 449.308 1.48562 2.64883 0
M  V30 4718 H 446.893 0.787434 1.26964 0
M  V30 4719 H 448.775 -0.420102 4.19301 0
M  V30 4720 H 447.45 -0.915876 3.10473 0
M  V30 4721 H 446.357 1.37072 3.48083 0
M  V30 4722 H 447.69 1.78511 4.58688 0
M  V30 4723 N 449.342 -1.36122 0.79427 0
M  V30 4724 C 450.305 -2.28309 0.201889 0
M  V30 4725 C 451.305 -1.49041 -0.603603 0
M  V30 4726 O 452.495 -1.68964 -0.423888 0
M  V30 4727 C 449.627 -3.3321 -0.719978 0
M  V30 4728 H 450.82 -2.82208 1.01481 0
M  V30 4729 H 448.373 -1.45768 0.564037 0
M  V30 4730 H 449.108 -2.84475 -1.55706 0
M  V30 4731 H 448.893 -3.91835 -0.144266 0
M  V30 4732 H 450.383 -4.02044 -1.12916 0
M  V30 4733 N 450.82 -0.546701 -1.47814 0
M  V30 4734 C 452.068 -0.0187037 -2.02091 0
M  V30 4735 C 452.389 1.33168 -1.42447 0
M  V30 4736 O 451.659 1.86619 -0.595839 0
M  V30 4737 H 450.239 -0.00392531 -0.74699 0
M  V30 4738 H 452.901 -0.714327 -1.81338 0
M  V30 4739 H 451.997 0.0772219 -3.12004 0
M  V30 4740 N 452.299 1.55045 -0.282633 0
M  V30 4741 C 453.547 1.99365 0.331334 0
M  V30 4742 C 453.868 1.1725 1.55812 0
M  V30 4743 O 453.138 0.263871 1.94115 0
M  V30 4744 H 451.718 0.736397 0.125414 0
M  V30 4745 H 454.38 1.90964 -0.389711 0
M  V30 4746 H 453.476 3.0596 0.616036 0
M  V30 4747 N 453.777 0.010035 1.57597 0
M  V30 4748 C 455.025 -0.671371 1.90623 0
M  V30 4749 C 455.346 -1.73753 0.885151 0
M  V30 4750 O 454.616 -1.95752 -0.0760611 0
M  V30 4751 H 453.196 -0.250968 0.703579 0
M  V30 4752 H 455.858 0.0533325 1.94827 0
M  V30 4753 H 454.954 -1.13626 2.90681 0
M  V30 4754 N 455.255 -1.55392 -0.262866 0
M  V30 4755 C 456.202 -1.88966 -1.32516 0
M  V30 4756 C 457.172 -0.742187 -1.48596 0
M  V30 4757 O 458.357 -0.99439 -1.62839 0
M  V30 4758 C 455.497 -2.17592 -2.67858 0
M  V30 4759 C 454.61 -3.45061 -2.59917 0
M  V30 4760 C 453.745 -3.63336 -3.87505 0
M  V30 4761 C 452.784 -4.84462 -3.74116 0
M  V30 4762 N 451.921 -4.99342 -4.93561 0
M  V30 4763 H 456.761 -2.79566 -1.03184 0
M  V30 4764 H 454.298 -1.38404 -0.498285 0
M  V30 4765 H 456.256 -2.3219 -3.46617 0
M  V30 4766 H 454.886 -1.30215 -2.95371 0
M  V30 4767 H 453.938 -3.38881 -1.72812 0
M  V30 4768 H 455.25 -4.3396 -2.45926 0
M  V30 4769 H 454.404 -3.77807 -4.74707 0
M  V30 4770 H 453.143 -2.72641 -4.04374 0
M  V30 4771 H 452.148 -4.69985 -2.85297 0
M  V30 4772 H 453.373 -5.76603 -3.58757 0
M  V30 4773 H 451.319 -4.1158 -5.10821 0
M  V30 4774 H 451.236 -5.82303 -4.82141 0
M  V30 4775 H 452.504 -5.18208 -5.82306 0
M  V30 4776 N 456.733 0.527833 -1.48498 0
M  V30 4777 C 458.144 1.10975 -1.50138 0
M  V30 4778 C 458.495 1.943 -0.272378 0
M  V30 4779 O 457.62 2.07319 0.620301 0
M  V30 4780 C 458.215 2.01927 -2.72049 0
M  V30 4781 C 456.774 2.55332 -2.76554 0
M  V30 4782 C 455.921 1.32341 -2.43683 0
M  V30 4783 H 458.872 0.312986 -1.55583 0
M  V30 4784 H 458.893 2.86244 -2.50689 0
M  V30 4785 H 458.405 1.41254 -3.61481 0
M  V30 4786 H 456.506 3.19721 -1.91336 0
M  V30 4787 H 456.619 2.94319 -3.78038 0
M  V30 4788 H 454.983 1.63989 -1.94884 0
M  V30 4789 H 455.766 0.734165 -3.35358 0
M  V30 4790 N 458.211 1.37122 0.776871 0
M  V30 4791 C 459.622 1.28667 1.35284 0
M  V30 4792 C 459.973 -0.0680035 1.96082 0
M  V30 4793 O 459.098 -0.969743 1.93455 0
M  V30 4794 C 459.693 2.32997 2.45963 0
M  V30 4795 C 458.252 2.28191 2.99342 0
M  V30 4796 C 457.399 2.17101 1.72517 0
M  V30 4797 H 460.35 1.47819 0.577527 0
M  V30 4798 H 460.371 1.97366 3.2531 0
M  V30 4799 H 459.883 3.3158 2.01684 0
M  V30 4800 H 457.984 1.33115 3.4801 0
M  V30 4801 H 458.097 3.21397 3.55304 0
M  V30 4802 H 456.461 1.63562 1.95242 0
M  V30 4803 H 457.244 3.17591 1.30348 0
M  V30 4804 N 459.689 -1.00246 1.21608 0
M  V30 4805 C 461.105 -1.26435 0.973975 0
M  V30 4806 C 461.305 -1.98642 -0.338143 0
M  V30 4807 O 460.361 -2.29026 -1.06317 0
M  V30 4808 C 461.674 -2.08551 2.16626 0
M  V30 4809 C 463.222 -2.21769 2.20879 0
M  V30 4810 C 463.697 -3.07267 3.39633 0
M  V30 4811 N 465.188 -3.14855 3.39736 0
M  V30 4812 C 465.923 -3.81274 4.28273 0
M  V30 4813 N 465.419 -4.497 5.27012 0
M  V30 4814 N 467.212 -3.7794 4.16074 0
M  V30 4815 H 459.363 -0.518089 2.05984 0
M  V30 4816 H 461.626 -0.291368 0.902113 0
M  V30 4817 H 461.332 -1.62847 3.11727 0
M  V30 4818 H 461.206 -3.09303 2.15897 0
M  V30 4819 H 463.593 -2.66691 1.26332 0
M  V30 4820 H 463.674 -1.20478 2.25652 0
M  V30 4821 H 463.318 -2.63047 4.34475 0
M  V30 4822 H 463.248 -4.08678 3.321 0
M  V30 4823 H 465.739 -2.66147 2.6828 0
M  V30 4824 H 466.052 -4.98092 5.90867 0
M  V30 4825 H 464.397 -4.48479 5.30935 0
M  V30 4826 H 467.588 -3.23638 3.38195 0
M  V30 4827 H 467.761 -4.29424 4.85282 0
M  V30 4828 N 461.167 -1.02423 -1.1978 0
M  V30 4829 C 462.392 -0.7373 -1.93852 0
M  V30 4830 C 462.817 0.696923 -1.74713 0
M  V30 4831 O 462.175 1.48056 -1.04638 0
M  V30 4832 C 462.223 -1.08783 -3.438 0
M  V30 4833 O 461.327 -0.20383 -4.11896 0
M  V30 4834 H 460.668 -0.27284 -0.605355 0
M  V30 4835 H 463.198 -1.36966 -1.51992 0
M  V30 4836 H 463.208 -1.04276 -3.9445 0
M  V30 4837 H 461.883 -2.13274 -3.57053 0
M  V30 4838 H 460.46 -0.307091 -3.71633 0
M  V30 4839 N 462.645 1.35699 -0.801477 0
M  V30 4840 C 464.056 1.81415 -0.441073 0
M  V30 4841 C 464.407 1.66595 1.03636 0
M  V30 4842 O 463.532 1.19369 1.80499 0
M  V30 4843 C 464.127 3.29369 -0.793819 0
M  V30 4844 C 462.686 3.73248 -0.486083 0
M  V30 4845 C 461.833 2.57775 -1.02213 0
M  V30 4846 H 464.784 1.23749 -0.993572 0
M  V30 4847 H 464.805 3.80395 -0.0894158 0
M  V30 4848 H 464.317 3.40123 -1.86917 0
M  V30 4849 H 462.418 3.68046 0.580735 0
M  V30 4850 H 462.531 4.68222 -1.01513 0
M  V30 4851 H 460.895 2.50788 -0.444712 0
M  V30 4852 H 461.678 2.71309 -2.10348 0
M  V30 4853 N 464.123 0.554532 1.47522 0
M  V30 4854 C 465.055 -0.232106 2.28022 0
M  V30 4855 C 466.068 -0.881865 1.36847 0
M  V30 4856 O 467.257 -0.756168 1.61692 0
M  V30 4857 C 464.357 -1.34604 3.11022 0
M  V30 4858 C 463.53 -0.793582 4.30141 0
M  V30 4859 C 462.589 -1.79168 4.94758 0
M  V30 4860 O 461.615 -1.33886 5.5323 0
M  V30 4861 N 462.817 -3.12495 4.89211 0
M  V30 4862 H 465.582 0.458407 2.96173 0
M  V30 4863 H 463.143 0.390433 1.57122 0
M  V30 4864 H 465.135 -2.01243 3.51118 0
M  V30 4865 H 463.705 -1.93983 2.45131 0
M  V30 4866 H 462.925 0.0495025 3.94169 0
M  V30 4867 H 464.213 -0.403776 5.07195 0
M  V30 4868 H 463.611 -3.51931 4.42901 0
M  V30 4869 H 462.168 -3.74698 5.33333 0
M  V30 4870 N 465.601 -1.54893 0.290851 0
M  V30 4871 C 466.551 -2.19838 -0.604599 0
M  V30 4872 C 467.535 -1.16805 -1.10659 0
M  V30 4873 O 468.727 -1.42562 -1.04905 0
M  V30 4874 C 465.856 -2.93497 -1.78086 0
M  V30 4875 C 464.942 -4.03835 -1.29531 0
M  V30 4876 N 465.333 -5.03047 -0.527024 0
M  V30 4877 C 463.631 -4.17192 -1.57693 0
M  V30 4878 C 464.332 -5.81074 -0.269728 0
M  V30 4879 N 463.308 -5.36966 -0.846651 0
M  V30 4880 H 467.11 -2.93898 -0.00995032 0
M  V30 4881 H 464.624 -1.62121 0.0951353 0
M  V30 4882 H 466.621 -3.38484 -2.43381 0
M  V30 4883 H 465.281 -2.2095 -2.37931 0
M  V30 4884 H 466.292 -5.17611 -0.172872 0
M  V30 4885 H 462.969 -3.55845 -2.18359 0
M  V30 4886 H 464.359 -6.71005 0.346643 0
M  V30 4887 N 467.08 -0.0183926 -1.57589 0
M  V30 4888 C 468.326 0.657813 -1.92469 0
M  V30 4889 C 468.681 1.70349 -0.894375 0
M  V30 4890 O 467.974 1.91384 0.0910389 0
M  V30 4891 C 468.168 1.32676 -3.31861 0
M  V30 4892 C 467.997 0.347403 -4.48356 0
M  V30 4893 C 466.767 -0.0488653 -5.05276 0
M  V30 4894 C 468.965 -0.393931 -5.12789 0
M  V30 4895 N 466.947 -1.02451 -6.05291 0
M  V30 4896 C 468.318 -1.22367 -6.07804 0
M  V30 4897 C 470.373 -0.455789 -4.95809 0
M  V30 4898 C 469.076 -2.10966 -6.87667 0
M  V30 4899 C 471.102 -1.32908 -5.76272 0
M  V30 4900 C 470.464 -2.14662 -6.70894 0
M  V30 4901 H 466.563 0.21335 -0.752334 0
M  V30 4902 H 469.147 -0.0830547 -1.94523 0
M  V30 4903 H 467.318 2.03782 -3.30647 0
M  V30 4904 H 469.05 1.95913 -3.54119 0
M  V30 4905 H 465.805 0.323356 -4.72495 0
M  V30 4906 H 466.229 -1.50826 -6.59985 0
M  V30 4907 H 470.871 0.162017 -4.22489 0
M  V30 4908 H 468.589 -2.73807 -7.603 0
M  V30 4909 H 472.175 -1.38109 -5.6517 0
M  V30 4910 H 471.055 -2.81143 -7.32071 0
M  V30 4911 N 468.558 1.5553 0.254621 0
M  V30 4912 C 469.783 1.81383 1.00573 0
M  V30 4913 C 470.208 0.594419 1.78461 0
M  V30 4914 O 469.566 -0.456403 1.75461 0
M  V30 4915 C 469.614 3.04892 1.92545 0
M  V30 4916 O 468.718 2.81266 3.01601 0
M  V30 4917 H 468.059 0.598969 0.286587 0
M  V30 4918 H 470.589 2.02703 0.277952 0
M  V30 4919 H 470.599 3.34119 2.34155 0
M  V30 4920 H 469.274 3.93287 1.3527 0
M  V30 4921 H 467.851 2.63185 2.64174 0
M  V30 4922 N 470.036 -0.519951 1.48776 0
M  V30 4923 C 470.968 -1.63973 1.60142 0
M  V30 4924 C 471.981 -1.55404 0.485117 0
M  V30 4925 O 473.17 -1.61682 0.756391 0
M  V30 4926 C 470.27 -3.02676 1.52449 0
M  V30 4927 C 469.443 -3.36624 2.79291 0
M  V30 4928 C 468.502 -4.54652 2.64912 0
M  V30 4929 O 467.528 -4.57374 3.38818 0
M  V30 4930 N 468.73 -5.53432 1.75195 0
M  V30 4931 H 471.495 -1.54656 2.56713 0
M  V30 4932 H 469.056 -0.707439 1.45626 0
M  V30 4933 H 471.048 -3.79525 1.4051 0
M  V30 4934 H 469.618 -3.06018 0.638125 0
M  V30 4935 H 468.838 -2.48855 3.0572 0
M  V30 4936 H 470.126 -3.56094 3.6342 0
M  V30 4937 H 469.524 -5.54018 1.14371 0
M  V30 4938 H 468.081 -6.29459 1.69189 0
M  V30 4939 N 471.514 -1.37532 -0.769588 0
M  V30 4940 C 472.424 -1.35668 -1.91393 0
M  V30 4941 C 473.44 -0.255954 -1.72107 0
M  V30 4942 O 474.616 -0.491704 -1.95305 0
M  V30 4943 C 471.681 -1.16481 -3.26547 0
M  V30 4944 C 470.742 -2.36212 -3.58472 0
M  V30 4945 C 469.975 -2.17932 -4.87177 0
M  V30 4946 O 470.198 -1.1647 -5.58382 0
M  V30 4947 O 469.132 -3.06167 -5.18214 0
M  V30 4948 H 472.958 -2.32055 -1.95918 0
M  V30 4949 H 470.543 -1.18284 -0.912641 0
M  V30 4950 H 472.425 -1.07778 -4.07384 0
M  V30 4951 H 471.1 -0.231687 -3.2287 0
M  V30 4952 H 470.007 -2.50488 -2.77861 0
M  V30 4953 H 471.34 -3.281 -3.66894 0
M  V30 4954 N 472.992 0.995999 -1.22138 0
M  V30 4955 C 474.403 1.54961 -1.04135 0
M  V30 4956 C 474.754 1.92159 0.396147 0
M  V30 4957 O 473.879 1.74435 1.28069 0
M  V30 4958 C 474.474 2.81581 -1.88408 0
M  V30 4959 C 473.033 3.33396 -1.74712 0
M  V30 4960 C 472.18 2.06509 -1.85066 0
M  V30 4961 H 475.131 0.817436 -1.36028 0
M  V30 4962 H 475.152 3.53822 -1.39966 0
M  V30 4963 H 474.664 2.54476 -2.93025 0
M  V30 4964 H 472.765 3.65416 -0.728159 0
M  V30 4965 H 472.878 4.04208 -2.57202 0
M  V30 4966 H 471.242 2.19925 -1.28472 0
M  V30 4967 H 472.025 1.81804 -2.91208 0
M  V30 4968 N 474.47 1.03057 1.19235 0
M  V30 4969 C 475.886 0.747947 1.40989 0
M  V30 4970 C 476.086 -0.666752 1.90149 0
M  V30 4971 O 475.142 -1.43249 2.07933 0
M  V30 4972 C 476.455 1.7855 2.41951 0
M  V30 4973 C 478.003 1.80524 2.55695 0
M  V30 4974 C 478.478 2.83243 3.59913 0
M  V30 4975 N 479.969 2.8207 3.67411 0
M  V30 4976 C 480.704 3.58204 4.47747 0
M  V30 4977 N 480.2 4.44057 5.31775 0
M  V30 4978 N 481.993 3.46738 4.42413 0
M  V30 4979 H 474.144 1.94367 0.856468 0
M  V30 4980 H 476.407 0.840412 0.438647 0
M  V30 4981 H 476.113 2.79973 2.12857 0
M  V30 4982 H 475.987 1.6092 3.41152 0
M  V30 4983 H 478.374 0.79778 2.84112 0
M  V30 4984 H 478.455 2.02229 1.56643 0
M  V30 4985 H 478.099 3.84161 3.32239 0
M  V30 4986 H 478.029 2.58795 4.5862 0
M  V30 4987 H 480.52 2.19803 3.074 0
M  V30 4988 H 480.833 4.98884 5.90199 0
M  V30 4989 H 479.178 4.48129 5.3123 0
M  V30 4990 H 482.369 2.79077 3.75811 0
M  V30 4991 H 482.542 4.06322 5.04783 0
M  V30 4992 N 475.948 -1.35272 0.808662 0
M  V30 4993 C 477.176 -2.02946 0.402537 0
M  V30 4994 C 477.591 -1.60937 -0.987147 0
M  V30 4995 O 476.948 -0.807917 -1.63643 0
M  V30 4996 C 476.999 -3.58317 0.47868 0
M  V30 4997 O 476.72 -3.98799 1.81358 0
M  V30 4998 C 478.221 -4.43251 0.0656281 0
M  V30 4999 H 475.441 -0.650831 0.163279 0
M  V30 5000 H 477.985 -1.72849 1.09286 0
M  V30 5001 H 476.14 -3.87055 -0.163415 0
M  V30 5002 H 476.554 -4.93451 1.77781 0
M  V30 5003 H 478.028 -5.51738 0.170017 0
M  V30 5004 H 478.505 -4.27913 -0.989278 0
M  V30 5005 H 479.111 -4.19813 0.68096 0
M  V30 5006 N 477.426 -0.562348 -1.47226 0
M  V30 5007 C 478.358 0.220011 -2.28142 0
M  V30 5008 C 479.371 0.874596 -1.37312 0
M  V30 5009 O 480.56 0.747583 -1.62091 0
M  V30 5010 C 477.66 1.32953 -3.11732 0
M  V30 5011 C 476.833 0.770759 -4.30556 0
M  V30 5012 C 475.892 1.76541 -4.95701 0
M  V30 5013 O 474.918 1.3095 -5.53932 0
M  V30 5014 N 476.12 3.09896 -4.90861 0
M  V30 5015 H 478.885 -0.474107 -2.95926 0
M  V30 5016 H 476.446 -0.398761 -1.56912 0
M  V30 5017 H 478.438 1.99378 -3.5218 0
M  V30 5018 H 477.008 1.92681 -2.46156 0
M  V30 5019 H 476.228 -0.0704056 -3.94137 0
M  V30 5020 H 477.516 0.376872 -5.07402 0
M  V30 5021 H 476.914 3.49577 -4.44761 0
M  V30 5022 H 475.471 3.71865 -5.35313 0
M  V30 5023 N 478.904 1.54736 -0.299062 0
M  V30 5024 C 479.867 2.22127 0.565012 0
M  V30 5025 C 480.867 1.20669 1.06281 0
M  V30 5026 O 482.057 1.45417 0.959145 0
M  V30 5027 C 479.189 2.90611 1.78208 0
M  V30 5028 H 480.382 2.99891 -0.0237448 0
M  V30 5029 H 477.935 1.5622 -0.0498788 0
M  V30 5030 H 478.67 2.16921 2.41072 0
M  V30 5031 H 478.455 3.64984 1.43281 0
M  V30 5032 H 479.945 3.42026 2.396 0
M  V30 5033 N 480.382 0.0267497 1.57577 0
M  V30 5034 C 481.332 -0.965003 2.06571 0
M  V30 5035 C 482.316 -1.28694 0.965746 0
M  V30 5036 O 483.508 -1.27345 1.22932 0
M  V30 5037 C 480.637 -2.24821 2.59443 0
M  V30 5038 C 479.723 -1.95474 3.76365 0
M  V30 5039 N 480.114 -1.36387 4.87065 0
M  V30 5040 C 478.412 -2.25478 3.84806 0
M  V30 5041 C 479.113 -1.24119 5.68304 0
M  V30 5042 N 478.089 -1.7359 5.15138 0
M  V30 5043 H 481.891 -0.503095 2.89562 0
M  V30 5044 H 479.405 -0.178322 1.61418 0
M  V30 5045 H 481.402 -2.9674 2.92833 0
M  V30 5046 H 480.062 -2.7164 1.77881 0
M  V30 5047 H 481.073 -1.03919 5.07367 0
M  V30 5048 H 477.75 -2.74987 3.14147 0
M  V30 5049 H 479.14 -0.784504 6.67304 0
M  V30 5050 N 481.861 -1.55662 -0.24637 0
M  V30 5051 C 483.086 -1.81914 -0.996093 0
M  V30 5052 C 483.511 -0.603875 -1.78143 0
M  V30 5053 O 482.869 0.447091 -1.75701 0
M  V30 5054 C 482.917 -3.05908 -1.90925 0
M  V30 5055 O 482.021 -2.82861 -3.00105 0
M  V30 5056 H 481.362 -0.600481 -0.283406 0
M  V30 5057 H 483.892 -2.02848 -0.267199 0
M  V30 5058 H 483.902 -3.35356 -2.3238 0
M  V30 5059 H 482.577 -3.93999 -1.33183 0
M  V30 5060 H 481.154 -2.64583 -2.62775 0
M  V30 5061 N 483.339 0.512053 -1.4905 0
M  V30 5062 C 484.587 1.26436 -1.57665 0
M  V30 5063 C 484.908 1.93255 -0.260293 0
M  V30 5064 O 484.178 1.82206 0.719564 0
M  V30 5065 H 482.758 0.469658 -0.580888 0
M  V30 5066 H 485.42 0.594398 -1.85615 0
M  V30 5067 H 484.516 2.03417 -2.36702 0
M  V30 5068 N 484.817 1.37938 0.762283 0
M  V30 5069 C 486.042 1.37059 1.55659 0
M  V30 5070 C 486.467 -0.0396123 1.88058 0
M  V30 5071 O 485.825 -1.01929 1.49934 0
M  V30 5072 C 485.873 2.22494 2.83776 0
M  V30 5073 O 484.977 1.63607 3.78559 0
M  V30 5074 H 484.318 0.467892 0.47114 0
M  V30 5075 H 486.848 1.81587 0.942725 0
M  V30 5076 H 486.858 2.36045 3.32786 0
M  V30 5077 H 485.533 3.24993 2.59524 0
M  V30 5078 H 484.11 1.5915 3.37233 0
M  V30 5079 N 486.295 -0.989507 1.22664 0
M  V30 5080 C 487.706 -1.54406 1.04955 0
M  V30 5081 C 488.057 -1.92366 -0.385951 0
M  V30 5082 O 487.182 -1.75111 -1.27142 0
M  V30 5083 C 487.777 -2.80578 1.89899 0
M  V30 5084 C 486.336 -3.32464 1.76478 0
M  V30 5085 C 485.483 -2.05524 1.86159 0
M  V30 5086 H 488.434 -0.810211 1.3646 0
M  V30 5087 H 488.455 -3.53075 1.4184 0
M  V30 5088 H 487.967 -2.52918 2.94371 0
M  V30 5089 H 486.068 -3.65024 0.747528 0
M  V30 5090 H 486.181 -4.02838 2.59342 0
M  V30 5091 H 484.545 -2.19241 1.29636 0
M  V30 5092 H 485.328 -1.80258 2.92168 0
M  V30 5093 N 487.773 -1.03688 -1.18687 0
M  V30 5094 C 489.001 -0.757918 -1.92518 0
M  V30 5095 C 489.416 0.684398 -1.75959 0
M  V30 5096 O 488.773 1.46617 -1.08673 0
M  V30 5097 C 488.824 -1.10985 -3.44042 0
M  V30 5098 O 488.545 -2.49554 -3.60076 0
M  V30 5099 C 490.046 -0.854844 -4.3498 0
M  V30 5100 H 487.266 -0.276699 -0.611293 0
M  V30 5101 H 489.81 -1.38352 -1.50595 0
M  V30 5102 H 487.965 -0.529279 -3.83767 0
M  V30 5103 H 488.379 -2.6291 -4.53849 0
M  V30 5104 H 489.853 -1.15098 -5.39867 0
M  V30 5105 H 490.33 0.210507 -4.38695 0
M  V30 5106 H 490.936 -1.41853 -4.00946 0
M  V30 5107 N 489.251 1.34841 -0.815825 0
M  V30 5108 C 490.481 2.02436 -0.412695 0
M  V30 5109 C 490.889 1.61604 0.983906 0
M  V30 5110 O 490.232 0.813729 1.64694 0
M  V30 5111 C 490.294 3.56953 -0.427182 0
M  V30 5112 C 489.958 4.21083 -1.77589 0
M  V30 5113 C 490.955 4.42107 -2.73564 0
M  V30 5114 C 488.64 4.58006 -2.06243 0
M  V30 5115 C 490.634 4.99169 -3.9637 0
M  V30 5116 C 488.321 5.1478 -3.2931 0
M  V30 5117 C 489.319 5.35304 -4.24191 0
M  V30 5118 O 489.007 5.90878 -5.45086 0
M  V30 5119 H 488.739 0.655631 -0.164695 0
M  V30 5120 H 491.293 1.73246 -1.1034 0
M  V30 5121 H 489.523 3.85372 0.320175 0
M  V30 5122 H 491.212 4.05875 -0.0450875 0
M  V30 5123 H 491.978 4.13953 -2.52721 0
M  V30 5124 H 487.857 4.41339 -1.33196 0
M  V30 5125 H 491.401 5.15105 -4.70439 0
M  V30 5126 H 487.298 5.42362 -3.5002 0
M  V30 5127 H 488.066 6.0932 -5.46508 0
M  V30 5128 N 490.729 0.570148 1.46925 0
M  V30 5129 C 491.659 -0.158274 2.32963 0
M  V30 5130 C 492.64 -0.896093 1.44583 0
M  V30 5131 O 493.825 -0.874022 1.7342 0
M  V30 5132 C 490.955 -1.18055 3.26619 0
M  V30 5133 C 489.909 -0.558379 4.24342 0
M  V30 5134 C 489.235 -1.68623 5.07415 0
M  V30 5135 C 490.535 0.496295 5.19937 0
M  V30 5136 H 492.229 0.560046 2.94115 0
M  V30 5137 H 489.775 0.270775 1.41431 0
M  V30 5138 H 491.728 -1.69841 3.85658 0
M  V30 5139 H 490.452 -1.92899 2.63548 0
M  V30 5140 H 489.111 -0.0617157 3.66548 0
M  V30 5141 H 488.759 -2.42402 4.40738 0
M  V30 5142 H 488.459 -1.27564 5.73586 0
M  V30 5143 H 489.983 -2.20709 5.69315 0
M  V30 5144 H 491.397 0.0640052 5.73264 0
M  V30 5145 H 489.794 0.82649 5.94381 0
M  V30 5146 H 490.864 1.38735 4.6463 0
M  V30 5147 N 492.207 -1.54576 0.307264 0
M  V30 5148 C 493.139 -2.21212 -0.599807 0
M  V30 5149 C 494.152 -1.20685 -1.09266 0
M  V30 5150 O 495.341 -1.47244 -1.00903 0
M  V30 5151 C 492.441 -2.84994 -1.83389 0
M  V30 5152 C 491.614 -4.11511 -1.48248 0
M  V30 5153 C 490.673 -4.59038 -2.57237 0
M  V30 5154 O 489.699 -5.24095 -2.22065 0
M  V30 5155 N 490.901 -4.31884 -3.87887 0
M  V30 5156 H 493.666 -2.99686 -0.0293075 0
M  V30 5157 H 491.227 -1.61379 0.129738 0
M  V30 5158 H 493.219 -3.1372 -2.5566 0
M  V30 5159 H 491.789 -2.10324 -2.31263 0
M  V30 5160 H 491.009 -3.89728 -0.592122 0
M  V30 5161 H 492.297 -4.93879 -1.22316 0
M  V30 5162 H 491.695 -3.79778 -4.19268 0
M  V30 5163 H 490.252 -4.65304 -4.56438 0
M  V30 5164 N 493.685 -0.035106 -1.57561 0
M  V30 5165 C 494.615 0.942993 -2.13612 0
M  V30 5166 C 495.596 1.33531 -1.05373 0
M  V30 5167 O 496.781 1.41287 -1.33235 0
M  V30 5168 C 493.911 2.22332 -2.66807 0
M  V30 5169 C 492.865 1.97156 -3.79886 0
M  V30 5170 C 492.191 3.31506 -4.19533 0
M  V30 5171 C 493.491 1.30596 -5.05709 0
M  V30 5172 H 495.185 0.476179 -2.95589 0
M  V30 5173 H 492.731 0.227602 -1.4219 0
M  V30 5174 H 494.684 2.91142 -3.04654 0
M  V30 5175 H 493.408 2.7119 -1.81999 0
M  V30 5176 H 492.067 1.30763 -3.42486 0
M  V30 5177 H 491.715 3.78134 -3.31698 0
M  V30 5178 H 491.415 3.15465 -4.95738 0
M  V30 5179 H 492.939 4.01574 -4.59968 0
M  V30 5180 H 494.353 1.89416 -5.41105 0
M  V30 5181 H 492.75 1.24934 -5.86951 0
M  V30 5182 H 493.82 0.279742 -4.84092 0
M  V30 5183 N 495.163 1.55791 0.238111 0
M  V30 5184 C 496.574 1.68383 0.806472 0
M  V30 5185 C 496.925 0.634157 1.85669 0
M  V30 5186 O 496.05 -0.217913 2.153 0
M  V30 5187 C 496.645 3.05268 1.46959 0
M  V30 5188 C 495.204 3.1977 1.98555 0
M  V30 5189 C 494.351 2.64279 0.839763 0
M  V30 5190 H 497.302 1.58694 0.0137535 0
M  V30 5191 H 497.323 3.00203 2.33792 0
M  V30 5192 H 496.835 3.81643 0.704993 0
M  V30 5193 H 494.936 2.48234 2.77868 0
M  V30 5194 H 495.049 4.26788 2.17689 0
M  V30 5195 H 493.413 2.22329 1.24265 0
M  V30 5196 H 494.196 3.43187 0.0881032 0
M  V30 5197 N 496.642 -0.504142 1.49319 0
M  V30 5198 C 498.053 -1.08572 1.51885 0
M  V30 5199 C 498.404 -1.93842 0.303255 0
M  V30 5200 O 497.529 -2.0828 -0.58724 0
M  V30 5201 C 498.124 -1.97574 2.75227 0
M  V30 5202 C 496.683 -2.509 2.80581 0
M  V30 5203 C 495.83 -1.28447 2.45757 0
M  V30 5204 H 498.781 -0.288194 1.56061 0
M  V30 5205 H 498.802 -2.82219 2.55211 0
M  V30 5206 H 498.314 -1.35486 3.63683 0
M  V30 5207 H 496.415 -3.16636 1.96398 0
M  V30 5208 H 496.528 -2.88268 3.82673 0
M  V30 5209 H 494.892 -1.60868 1.97468 0
M  V30 5210 H 495.675 -0.68072 3.36483 0
M  V30 5211 N 498.12 -1.38341 -0.754957 0
M  V30 5212 C 499.536 -1.19508 -1.05783 0
M  V30 5213 C 499.736 -0.0428005 -2.01455 0
M  V30 5214 O 498.792 0.611861 -2.44975 0
M  V30 5215 C 500.105 -2.52091 -1.63923 0
M  V30 5216 C 501.653 -2.58762 -1.76101 0
M  V30 5217 C 502.128 -3.91517 -2.37652 0
M  V30 5218 N 503.619 -3.93049 -2.45085 0
M  V30 5219 C 504.354 -4.9253 -2.93602 0
M  V30 5220 N 503.85 -6.02408 -3.42165 0
M  V30 5221 N 505.643 -4.79921 -2.92629 0
M  V30 5222 H 497.794 -2.1206 -0.120056 0
M  V30 5223 H 500.057 -0.94089 -0.11589 0
M  V30 5224 H 499.763 -3.36858 -1.01093 0
M  V30 5225 H 499.637 -2.70388 -2.63003 0
M  V30 5226 H 502.024 -1.74391 -2.38058 0
M  V30 5227 H 502.105 -2.44333 -0.757294 0
M  V30 5228 H 501.749 -4.76309 -1.76329 0
M  V30 5229 H 501.679 -4.03256 -3.38662 0
M  V30 5230 H 504.17 -3.13685 -2.10736 0
M  V30 5231 H 504.483 -6.74248 -3.77637 0
M  V30 5232 H 502.828 -6.0603 -3.40225 0
M  V30 5233 H 506.019 -3.93194 -2.54001 0
M  V30 5234 H 506.192 -5.57601 -3.30128 0
M  V30 5235 N 499.598 0.982988 -1.23187 0
M  V30 5236 C 501.009 1.53847 -1.05773 0
M  V30 5237 C 501.36 1.92568 0.375744 0
M  V30 5238 O 500.485 1.75783 1.26211 0
M  V30 5239 C 501.08 2.79567 -1.91384 0
M  V30 5240 C 499.639 3.31524 -1.78238 0
M  V30 5241 C 498.786 2.04534 -1.87246 0
M  V30 5242 H 501.737 0.802962 -1.36888 0
M  V30 5243 H 501.758 3.52317 -1.43711 0
M  V30 5244 H 501.27 2.51353 -2.95708 0
M  V30 5245 H 499.371 3.64623 -0.766875 0
M  V30 5246 H 499.484 4.01457 -2.61475 0
M  V30 5247 H 497.848 2.1855 -1.30797 0
M  V30 5248 H 498.631 1.78706 -2.9312 0
M  V30 5249 N 501.076 1.04316 1.18135 0
M  V30 5250 C 502.487 0.775505 1.69832 0
M  V30 5251 C 502.838 -0.703348 1.8316 0
M  V30 5252 O 501.963 -1.54729 1.51287 0
M  V30 5253 C 502.558 1.40112 3.0847 0
M  V30 5254 C 501.117 1.18172 3.57368 0
M  V30 5255 C 500.264 1.49022 2.33854 0
M  V30 5256 H 503.215 1.20925 1.02775 0
M  V30 5257 H 503.236 0.805672 3.71873 0
M  V30 5258 H 502.748 2.47744 2.98738 0
M  V30 5259 H 500.849 0.124258 3.72393 0
M  V30 5260 H 500.962 1.8805 4.40652 0
M  V30 5261 H 499.326 0.909995 2.37889 0
M  V30 5262 H 500.109 2.57768 2.26738 0
M  V30 5263 N 502.554 -1.34406 0.822964 0
M  V30 5264 C 503.802 -1.97892 0.410245 0
M  V30 5265 C 504.123 -1.65567 -1.03017 0
M  V30 5266 O 503.393 -0.94642 -1.71522 0
M  V30 5267 H 501.973 -0.732049 0.148707 0
M  V30 5268 H 504.635 -1.64043 1.05242 0
M  V30 5269 H 503.731 -3.07579 0.529284 0
M  V30 5270 N 504.032 -0.577932 -1.46621 0
M  V30 5271 C 505.26 -0.0671642 -2.06791 0
M  V30 5272 C 505.675 1.23571 -1.42743 0
M  V30 5273 O 505.032 1.74602 -0.531062 0
M  V30 5274 C 505.083 0.110357 -3.61332 0
M  V30 5275 O 504.804 -1.14095 -4.22982 0
M  V30 5276 C 506.305 0.656025 -4.38419 0
M  V30 5277 H 503.525 -0.0552732 -0.66872 0
M  V30 5278 H 506.069 -0.797242 -1.8832 0
M  V30 5279 H 504.224 0.790637 -3.79246 0
M  V30 5280 H 504.638 -0.951742 -5.15793 0
M  V30 5281 H 506.112 0.729438 -5.47159 0
M  V30 5282 H 506.589 1.67195 -4.06131 0
M  V30 5283 H 507.195 0.0107692 -4.25299 0
M  V30 5284 N 505.51 1.54411 -0.315457 0
M  V30 5285 C 506.926 1.59556 0.037464 0
M  V30 5286 C 507.126 1.33217 1.5118 0
M  V30 5287 O 506.182 1.11264 2.26664 0
M  V30 5288 C 507.495 2.98372 -0.373477 0
M  V30 5289 C 509.043 3.11324 -0.323452 0
M  V30 5290 C 509.518 4.52472 -0.709433 0
M  V30 5291 N 511.009 4.58437 -0.662524 0
M  V30 5292 C 511.744 5.65751 -0.933474 0
M  V30 5293 N 511.24 6.81039 -1.27114 0
M  V30 5294 N 513.033 5.55489 -0.859573 0
M  V30 5295 H 505.184 1.6979 -1.27614 0
M  V30 5296 H 507.447 0.793732 -0.518356 0
M  V30 5297 H 507.153 3.22618 -1.40037 0
M  V30 5298 H 507.027 3.76264 0.265615 0
M  V30 5299 H 509.414 2.86818 0.694223 0
M  V30 5300 H 509.495 2.35555 -0.997367 0
M  V30 5301 H 509.139 4.7771 -1.72498 0
M  V30 5302 H 509.069 5.26598 -0.0132923 0
M  V30 5303 H 511.56 3.75636 -0.413065 0
M  V30 5304 H 511.873 7.58816 -1.46348 0
M  V30 5305 H 510.218 6.82555 -1.30932 0
M  V30 5306 H 513.409 4.64299 -0.595324 0
M  V30 5307 H 513.582 6.39036 -1.0741 0
M  V30 5308 N 506.988 0.0434614 1.5754 0
M  V30 5309 C 507.951 -0.918696 2.09982 0
M  V30 5310 C 508.951 -1.24488 1.01781 0
M  V30 5311 O 510.141 -1.18284 1.27885 0
M  V30 5312 C 507.273 -2.23093 2.57764 0
M  V30 5313 H 508.466 -0.464229 2.96285 0
M  V30 5314 H 506.019 -0.204818 1.54952 0
M  V30 5315 H 506.754 -2.73137 1.74832 0
M  V30 5316 H 506.539 -2.00724 3.36827 0
M  V30 5317 H 508.029 -2.92028 2.98512 0
M  V30 5318 N 508.466 -1.55915 -0.229846 0
M  V30 5319 C 509.691 -1.8296 -0.976743 0
M  V30 5320 C 510.116 -0.622735 -1.77493 0
M  V30 5321 O 509.474 0.428431 -1.76165 0
M  V30 5322 C 509.522 -3.07916 -1.8767 0
M  V30 5323 O 508.626 -2.86028 -2.97088 0
M  V30 5324 H 507.967 -0.603453 -0.277021 0
M  V30 5325 H 510.497 -2.0312 -0.245669 0
M  V30 5326 H 510.507 -3.37802 -2.2881 0
M  V30 5327 H 509.182 -3.95389 -1.28996 0
M  V30 5328 H 507.759 -2.67355 -2.59954 0
M  V30 5329 N 509.944 0.496216 -1.49584 0
M  V30 5330 C 510.877 1.61508 -1.61215 0
M  V30 5331 C 511.855 1.55927 -0.461045 0
M  V30 5332 O 513.039 1.75914 -0.677231 0
M  V30 5333 C 510.166 3.00035 -1.57152 0
M  V30 5334 C 509.212 3.23861 -2.77518 0
M  V30 5335 S 510.045 3.06466 -4.39134 0
M  V30 5336 C 511.201 4.4738 -4.37724 0
M  V30 5337 H 511.434 1.51398 -2.55863 0
M  V30 5338 H 508.967 0.681727 -1.38535 0
M  V30 5339 H 510.925 3.7991 -1.55494 0
M  V30 5340 H 509.586 3.07556 -0.637834 0
M  V30 5341 H 508.779 4.25 -2.70908 0
M  V30 5342 H 508.381 2.51716 -2.76614 0
M  V30 5343 H 510.673 5.39556 -4.09738 0
M  V30 5344 H 511.616 4.59038 -5.39156 0
M  V30 5345 H 512.024 4.28283 -3.67742 0
M  V30 5346 N 511.423 1.38739 0.74761 0
M  V30 5347 C 512.669 1.35475 1.50912 0
M  V30 5348 C 513.002 -0.0533093 1.94127 0
M  V30 5349 O 512.277 -1.01572 1.65871 0
M  V30 5350 C 512.56 2.31582 2.75757 0
M  V30 5351 C 512.413 3.81274 2.38642 0
M  V30 5352 C 513.732 2.25722 3.77806 0
M  V30 5353 H 510.851 0.493427 0.547447 0
M  V30 5354 H 513.493 1.69634 0.855823 0
M  V30 5355 H 511.643 2.02582 3.31501 0
M  V30 5356 H 513.315 4.20972 1.88626 0
M  V30 5357 H 511.558 3.98664 1.71025 0
M  V30 5358 H 512.229 4.4399 3.27989 0
M  V30 5359 H 514.705 2.51336 3.31616 0
M  V30 5360 H 513.581 2.95069 4.62845 0
M  V30 5361 H 513.842 1.25803 4.23823 0
M  V30 5362 N 512.901 -0.976442 1.23707 0
M  V30 5363 C 513.831 -2.08749 1.04624 0
M  V30 5364 C 514.812 -1.70057 -0.0380956 0
M  V30 5365 O 515.997 -1.93782 0.127308 0
M  V30 5366 C 513.127 -3.41335 0.640902 0
M  V30 5367 C 512.081 -3.93947 1.67302 0
M  V30 5368 C 511.407 -5.22774 1.12301 0
M  V30 5369 C 512.707 -4.22769 3.06697 0
M  V30 5370 H 514.401 -2.24972 1.97555 0
M  V30 5371 H 511.947 -1.08108 0.951247 0
M  V30 5372 H 513.9 -4.18489 0.494434 0
M  V30 5373 H 512.624 -3.24988 -0.324099 0
M  V30 5374 H 511.283 -3.18941 1.80755 0
M  V30 5375 H 510.931 -5.0278 0.148877 0
M  V30 5376 H 510.631 -5.58942 1.81267 0
M  V30 5377 H 512.155 -6.02546 0.988479 0
M  V30 5378 H 513.569 -4.90659 2.96524 0
M  V30 5379 H 511.966 -4.70147 3.72937 0
M  V30 5380 H 513.036 -3.29885 3.55392 0
M  V30 5381 N 514.379 -1.04941 -1.1758 0
M  V30 5382 C 515.309 -0.669172 -2.23706 0
M  V30 5383 C 516.29 0.331835 -1.66832 0
M  V30 5384 O 517.475 0.209988 -1.93061 0
M  V30 5385 C 514.605 -0.0404889 -3.47276 0
M  V30 5386 C 513.559 -0.965983 -4.16957 0
M  V30 5387 C 512.885 -0.201312 -5.34321 0
M  V30 5388 C 514.185 -2.28902 -4.69469 0
M  V30 5389 H 515.879 -1.55639 -2.55767 0
M  V30 5390 H 513.425 -0.749793 -1.22939 0
M  V30 5391 H 515.378 0.237298 -4.20731 0
M  V30 5392 H 514.102 0.881658 -3.14475 0
M  V30 5393 H 512.761 -1.22829 -3.45411 0
M  V30 5394 H 512.409 0.723519 -4.97769 0
M  V30 5395 H 512.109 -0.817968 -5.81879 0
M  V30 5396 H 513.633 0.0692499 -6.10561 0
M  V30 5397 H 515.047 -2.07132 -5.34574 0
M  V30 5398 H 513.444 -2.85942 -5.27596 0
M  V30 5399 H 514.514 -2.92937 -3.86414 0
M  V30 5400 N 515.857 1.33968 -0.830081 0
M  V30 5401 C 517.268 1.80439 -0.479455 0
M  V30 5402 C 517.619 1.68756 1.00079 0
M  V30 5403 O 516.744 1.23171 1.77927 0
M  V30 5404 C 517.339 3.27611 -0.863505 0
M  V30 5405 C 515.898 3.72133 -0.565145 0
M  V30 5406 C 515.045 2.55549 -1.07657 0
M  V30 5407 H 517.996 1.21614 -1.0196 0
M  V30 5408 H 518.017 3.8012 -0.170083 0
M  V30 5409 H 517.529 3.36082 -1.94089 0
M  V30 5410 H 515.63 3.69196 0.502536 0
M  V30 5411 H 515.743 4.65963 -1.11422 0
M  V30 5412 H 514.107 2.49788 -0.497807 0
M  V30 5413 H 514.89 2.66786 -2.16055 0
M  V30 5414 N 517.335 0.585699 1.46312 0
M  V30 5415 C 518.583 0.072278 2.01971 0
M  V30 5416 C 518.904 -1.29345 1.45928 0
M  V30 5417 O 518.174 -1.84973 0.645109 0
M  V30 5418 H 516.754 0.023729 0.746623 0
M  V30 5419 H 519.416 0.762155 1.7938 0
M  V30 5420 H 518.512 0.00552767 3.121 0
M  V30 5421 N 518.813 -1.54241 0.323641 0
M  V30 5422 C 520.224 -1.85975 -0.164405 0
M  V30 5423 C 520.575 -1.24529 -1.51615 0
M  V30 5424 O 519.7 -0.551351 -2.09258 0
M  V30 5425 C 520.295 -3.37424 -0.305091 0
M  V30 5426 C 518.854 -3.69107 -0.737358 0
M  V30 5427 C 518.001 -2.76942 0.140884 0
M  V30 5428 H 520.952 -1.49088 0.543922 0
M  V30 5429 H 520.973 -3.63147 -1.13598 0
M  V30 5430 H 520.485 -3.82116 0.678876 0
M  V30 5431 H 518.586 -3.29947 -1.73107 0
M  V30 5432 H 518.699 -4.76035 -0.541053 0
M  V30 5433 H 517.063 -2.51795 -0.383572 0
M  V30 5434 H 517.846 -3.24461 1.12162 0
M  V30 5435 N 520.291 -0.0518155 -1.57515 0
M  V30 5436 C 521.702 0.483787 -1.80323 0
M  V30 5437 C 522.053 1.70879 -0.964099 0
M  V30 5438 O 521.178 2.15643 -0.180872 0
M  V30 5439 C 521.773 0.884459 -3.27052 0
M  V30 5440 C 520.332 1.36504 -3.50776 0
M  V30 5441 C 519.479 0.340539 -2.75201 0
M  V30 5442 H 522.43 -0.277691 -1.56252 0
M  V30 5443 H 522.451 1.74733 -3.38007 0
M  V30 5444 H 521.963 -0.00731093 -3.88099 0
M  V30 5445 H 520.064 2.27598 -2.95009 0
M  V30 5446 H 520.177 1.35675 -4.59488 0
M  V30 5447 H 518.541 0.81356 -2.41357 0
M  V30 5448 H 519.324 -0.543156 -3.38976 0
M  V30 5449 N 521.769 1.56035 0.221574 0
M  V30 5450 C 522.699 1.95434 1.2778 0
M  V30 5451 C 523.68 0.822564 1.48889 0
M  V30 5452 O 524.865 1.08486 1.61072 0
M  V30 5453 C 521.995 2.27102 2.62759 0
M  V30 5454 C 520.949 3.4277 2.56306 0
M  V30 5455 C 520.275 3.60043 3.95314 0
M  V30 5456 C 521.575 4.77742 2.11093 0
M  V30 5457 H 523.269 2.83912 0.950504 0
M  V30 5458 H 520.815 1.36596 0.455791 0
M  V30 5459 H 522.768 2.53256 3.36807 0
M  V30 5460 H 521.492 1.35478 2.97176 0
M  V30 5461 H 520.151 3.16664 1.84715 0
M  V30 5462 H 519.799 2.65794 4.27039 0
M  V30 5463 H 519.499 4.37841 3.91879 0
M  V30 5464 H 521.023 3.88545 4.71025 0
M  V30 5465 H 522.437 5.03102 2.74885 0
M  V30 5466 H 520.834 5.58823 2.18716 0
M  V30 5467 H 521.904 4.731 1.06321 0
M  V30 5468 N 523.247 -0.488276 1.49845 0
M  V30 5469 C 524.157 -1.61451 1.70207 0
M  V30 5470 C 525.173 -1.63877 0.584846 0
M  V30 5471 O 526.349 -1.82063 0.861107 0
M  V30 5472 C 523.414 -2.9776 1.77594 0
M  V30 5473 C 522.475 -3.05861 3.01243 0
M  V30 5474 C 521.708 -4.35668 3.08268 0
M  V30 5475 O 521.931 -5.25197 2.22541 0
M  V30 5476 O 520.865 -4.49005 4.00847 0
M  V30 5477 H 524.691 -1.47199 2.65643 0
M  V30 5478 H 522.276 -0.665939 1.33737 0
M  V30 5479 H 524.158 -3.7875 1.84732 0
M  V30 5480 H 522.833 -3.12248 0.8534 0
M  V30 5481 H 521.74 -2.24012 2.99616 0
M  V30 5482 H 523.073 -2.96304 3.9302 0
M  V30 5483 N 524.725 -1.39134 -0.740242 0
M  V30 5484 C 525.95 -1.39518 -1.53459 0
M  V30 5485 C 526.375 0.00968883 -1.88098 0
M  V30 5486 O 525.733 0.995312 -1.51536 0
M  V30 5487 C 525.781 -2.26981 -2.802 0
M  V30 5488 O 524.885 -1.69609 -3.75908 0
M  V30 5489 H 524.226 -0.475328 -0.463637 0
M  V30 5490 H 526.756 -1.83064 -0.913717 0
M  V30 5491 H 526.766 -2.41309 -3.28989 0
M  V30 5492 H 525.441 -3.29081 -2.5432 0
M  V30 5493 H 524.018 -1.64495 -3.34658 0
M  V30 5494 N 526.204 0.969867 -1.24223 0
M  V30 5495 C 527.432 1.74756 -1.10761 0
M  V30 5496 C 527.847 1.85713 0.340041 0
M  V30 5497 O 527.204 1.34389 1.23474 0
M  V30 5498 C 527.255 3.16915 -1.73917 0
M  V30 5499 O 526.976 3.06511 -3.13021 0
M  V30 5500 C 528.477 4.11032 -1.66036 0
M  V30 5501 H 525.697 0.548092 -0.387087 0
M  V30 5502 H 528.241 1.2178 -1.64286 0
M  V30 5503 H 526.396 3.66884 -1.244 0
M  V30 5504 H 526.81 3.96079 -3.43834 0
M  V30 5505 H 528.284 5.08446 -2.14911 0
M  V30 5506 H 528.761 4.34785 -0.621159 0
M  V30 5507 H 529.367 3.66972 -2.14969 0
M  V30 5508 N 527.682 1.05563 1.17022 0
M  V30 5509 C 528.929 0.767937 1.87374 0
M  V30 5510 C 529.257 -0.705224 1.81265 0
M  V30 5511 O 528.512 -1.5318 1.21796 0
M  V30 5512 C 528.811 1.19849 3.36706 0
M  V30 5513 C 528.477 2.6745 3.63017 0
M  V30 5514 C 527.139 3.0777 3.69907 0
M  V30 5515 C 529.491 3.62811 3.74189 0
M  V30 5516 C 526.819 4.42307 3.85463 0
M  V30 5517 C 529.171 4.97087 3.91264 0
M  V30 5518 C 527.835 5.37055 3.96394 0
M  V30 5519 H 527.105 0.281008 0.68565 0
M  V30 5520 H 529.752 1.32339 1.38415 0
M  V30 5521 H 528.057 0.562096 3.87747 0
M  V30 5522 H 529.754 0.953038 3.8951 0
M  V30 5523 H 526.344 2.35228 3.58282 0
M  V30 5524 H 530.528 3.32798 3.68183 0
M  V30 5525 H 525.784 4.72769 3.87684 0
M  V30 5526 H 529.958 5.70869 3.9885 0
M  V30 5527 H 527.585 6.41308 4.082 0
M  V30 5528 N 529.16 -1.33526 0.837174 0
M  V30 5529 C 530.11 -2.2672 0.241269 0
M  V30 5530 C 531.094 -1.49183 -0.602756 0
M  V30 5531 O 532.286 -1.71052 -0.455002 0
M  V30 5532 C 529.415 -3.38294 -0.584125 0
M  V30 5533 C 528.501 -4.23231 0.271315 0
M  V30 5534 N 528.892 -4.87473 1.34922 0
M  V30 5535 C 527.19 -4.45962 0.0580589 0
M  V30 5536 C 527.891 -5.50685 1.87405 0
M  V30 5537 N 526.867 -5.30732 1.17578 0
M  V30 5538 H 530.669 -2.73903 1.06558 0
M  V30 5539 H 528.183 -1.47411 0.68145 0
M  V30 5540 H 530.18 -4.04044 -1.02731 0
M  V30 5541 H 528.84 -2.9266 -1.40643 0
M  V30 5542 H 529.851 -4.88077 1.7321 0
M  V30 5543 H 526.528 -4.11052 -0.730938 0
M  V30 5544 H 527.918 -6.11845 2.77661 0
M  V30 5545 N 530.638 -0.59345 -1.46 0
M  V30 5546 C 531.57 0.171569 -2.28557 0
M  V30 5547 C 532.583 0.845273 -1.39137 0
M  V30 5548 O 533.772 0.713033 -1.6364 0
M  V30 5549 C 530.872 1.26311 -3.14482 0
M  V30 5550 C 530.045 0.679258 -4.32094 0
M  V30 5551 C 529.104 1.65987 -4.99334 0
M  V30 5552 O 528.13 1.19171 -5.56585 0
M  V30 5553 N 529.332 2.99414 -4.97324 0
M  V30 5554 H 532.097 -0.536771 -2.94854 0
M  V30 5555 H 529.658 -0.431954 -1.56031 0
M  V30 5556 H 531.65 1.91863 -3.5633 0
M  V30 5557 H 530.22 1.87416 -2.50188 0
M  V30 5558 H 529.44 -0.153992 -3.93899 0
M  V30 5559 H 530.728 0.26916 -5.08088 0
M  V30 5560 H 530.126 3.40064 -4.52076 0
M  V30 5561 H 528.683 3.60426 -5.4308 0
M  V30 5562 N 532.116 1.54067 -0.331816 0
M  V30 5563 C 533.341 2.05599 0.272705 0
M  V30 5564 C 533.766 1.2059 1.44359 0
M  V30 5565 O 533.124 0.216907 1.79998 0
M  V30 5566 C 533.172 3.54188 0.677021 0
M  V30 5567 O 532.276 3.72082 1.77844 0
M  V30 5568 H 531.617 0.662286 0.0476801 0
M  V30 5569 H 534.147 1.98826 -0.482624 0
M  V30 5570 H 534.157 3.96608 0.957415 0
M  V30 5571 H 532.832 4.15513 -0.179325 0
M  V30 5572 H 531.409 3.41566 1.49622 0
M  V30 5573 N 533.594 0.0601682 1.57485 0
M  V30 5574 C 534.524 -0.90889 2.15085 0
M  V30 5575 C 535.505 -1.31838 1.07484 0
M  V30 5576 O 536.69 -1.3915 1.35466 0
M  V30 5577 C 533.82 -2.18059 2.7031 0
M  V30 5578 C 532.774 -1.91088 3.82974 0
M  V30 5579 C 532.1 -3.24789 4.24754 0
M  V30 5580 C 533.4 -1.22535 5.07723 0
M  V30 5581 H 535.094 -0.429093 2.96309 0
M  V30 5582 H 532.64 -0.204952 1.42534 0
M  V30 5583 H 534.593 -2.86258 3.09248 0
M  V30 5584 H 533.317 -2.6826 1.8629 0
M  V30 5585 H 531.976 -1.25297 3.44523 0
M  V30 5586 H 531.624 -3.72809 3.37672 0
M  V30 5587 H 531.324 -3.07538 5.00694 0
M  V30 5588 H 532.848 -3.94205 4.66299 0
M  V30 5589 H 534.262 -1.80783 5.4405 0
M  V30 5590 H 532.659 -1.1558 5.88864 0
M  V30 5591 H 533.729 -0.202692 4.84476 0
M  V30 5592 N 535.072 -1.5615 -0.213296 0
M  V30 5593 C 535.982 -1.96265 -1.28519 0
M  V30 5594 C 536.998 -0.86765 -1.50824 0
M  V30 5595 O 538.174 -1.17191 -1.63793 0
M  V30 5596 C 535.239 -2.27836 -2.61327 0
M  V30 5597 C 534.3 -3.50949 -2.47252 0
M  V30 5598 C 533.533 -3.81004 -3.73727 0
M  V30 5599 O 533.756 -3.12612 -4.77106 0
M  V30 5600 O 532.69 -4.74477 -3.70344 0
M  V30 5601 H 536.516 -2.87631 -0.974795 0
M  V30 5602 H 534.101 -1.43467 -0.416832 0
M  V30 5603 H 535.983 -2.49299 -3.39747 0
M  V30 5604 H 534.658 -1.39643 -2.9203 0
M  V30 5605 H 533.565 -3.34754 -1.67004 0
M  V30 5606 H 534.898 -4.39551 -2.21486 0
M  V30 5607 N 536.55 0.480323 -1.50102 0
M  V30 5608 C 537.778 1.25657 -1.64371 0
M  V30 5609 C 538.193 1.86011 -0.323316 0
M  V30 5610 O 537.55 1.68803 0.693682 0
M  V30 5611 C 537.601 2.37197 -2.728 0
M  V30 5612 O 537.322 1.7932 -3.9972 0
M  V30 5613 C 538.823 3.2823 -2.9796 0
M  V30 5614 H 536.043 0.380369 -0.552775 0
M  V30 5615 H 538.587 0.574379 -1.96268 0
M  V30 5616 H 536.742 3.01208 -2.43623 0
M  V30 5617 H 537.156 2.52701 -4.59611 0
M  V30 5618 H 538.63 4.02725 -3.77513 0
M  V30 5619 H 539.107 3.86462 -2.08671 0
M  V30 5620 H 539.713 2.69964 -3.28633 0
M  V30 5621 N 538.028 1.39524 0.732853 0
M  V30 5622 C 539.305 1.27373 1.48444 0
M  V30 5623 C 539.685 -0.115725 2.10783 0
M  V30 5624 O 539.033 -1.12713 1.98766 0
M  V30 5625 C 539.243 2.39966 2.53412 0
M  V30 5626 C 540.591 2.79384 3.19733 0
M  V30 5627 O 541.615 2.39431 2.63725 0
M  V30 5628 O 540.474 3.48353 4.21085 0
M  V30 5629 H 537.568 0.499272 0.659285 0
M  V30 5630 H 540.114 1.51403 0.766496 0
M  V30 5631 H 538.886 3.32845 2.05742 0
M  V30 5632 H 538.509 2.17612 3.32762 0
M  V30 5633 N 539.506 -0.963266 1.24736 0
M  V30 5634 C 540.734 -1.74166 1.11686 0
M  V30 5635 C 541.149 -1.8589 -0.330187 0
M  V30 5636 O 540.506 -1.35042 -1.2276 0
M  V30 5637 C 540.557 -3.15989 1.75595 0
M  V30 5638 O 540.278 -3.04847 3.14642 0
M  V30 5639 C 541.779 -4.10145 1.68213 0
M  V30 5640 H 538.999 -0.546031 0.389989 0
M  V30 5641 H 541.543 -1.20907 1.64929 0
M  V30 5642 H 539.698 -3.66219 1.26343 0
M  V30 5643 H 540.112 -3.9425 3.4593 0
M  V30 5644 H 541.586 -5.07299 2.17604 0
M  V30 5645 H 542.063 -4.3445 0.644208 0
M  V30 5646 H 542.669 -3.65827 2.16912 0
M  V30 5647 N 540.985 -1.06182 -1.16461 0
M  V30 5648 C 541.915 -0.692861 -2.22984 0
M  V30 5649 C 542.896 0.314122 -1.67174 0
M  V30 5650 O 544.081 0.189499 -1.93273 0
M  V30 5651 C 541.211 -0.07732 -3.47214 0
M  V30 5652 C 540.165 -1.01015 -4.15909 0
M  V30 5653 C 539.491 -0.257973 -5.34077 0
M  V30 5654 C 540.791 -2.33868 -4.67015 0
M  V30 5655 H 542.485 -1.58343 -2.54102 0
M  V30 5656 H 540.031 -0.76279 -1.22137 0
M  V30 5657 H 541.984 0.19266 -4.20959 0
M  V30 5658 H 540.708 0.848254 -3.15392 0
M  V30 5659 H 539.367 -1.26486 -3.44088 0
M  V30 5660 H 539.015 0.670684 -4.98509 0
M  V30 5661 H 538.715 -0.879638 -5.80979 0
M  V30 5662 H 540.239 0.00448788 -6.106 0
M  V30 5663 H 541.653 -2.1279 -5.32347 0
M  V30 5664 H 540.05 -2.91522 -5.24533 0
M  V30 5665 H 541.12 -2.97019 -3.83286 0
M  V30 5666 N 542.463 1.3308 -0.844243 0
M  V30 5667 C 543.393 2.3161 -0.296493 0
M  V30 5668 C 544.374 1.59215 0.598707 0
M  V30 5669 O 545.559 1.87077 0.521134 0
M  V30 5670 C 542.689 3.43313 0.524762 0
M  V30 5671 C 541.643 4.27115 -0.275106 0
M  V30 5672 C 540.969 5.30483 0.670236 0
M  V30 5673 C 542.269 5.00443 -1.49514 0
M  V30 5674 H 543.963 2.77672 -1.11976 0
M  V30 5675 H 541.509 1.33496 -0.539899 0
M  V30 5676 H 543.462 4.11273 0.918298 0
M  V30 5677 H 542.186 2.95952 1.3813 0
M  V30 5678 H 540.845 3.60787 -0.650267 0
M  V30 5679 H 540.493 4.79379 1.52332 0
M  V30 5680 H 540.193 5.87435 0.139123 0
M  V30 5681 H 541.717 6.01308 1.06117 0
M  V30 5682 H 543.131 5.61141 -1.17447 0
M  V30 5683 H 541.528 5.67071 -1.96343 0
M  V30 5684 H 542.598 4.28906 -2.26202 0
M  V30 5685 N 543.941 0.601185 1.45683 0
M  V30 5686 C 545.169 0.100054 2.06658 0
M  V30 5687 C 545.584 -1.21285 1.44691 0
M  V30 5688 O 544.941 -1.73735 0.558772 0
M  V30 5689 C 544.992 -0.0528579 3.61461 0
M  V30 5690 O 544.713 1.20809 4.21114 0
M  V30 5691 C 546.214 -0.586193 4.39407 0
M  V30 5692 H 543.434 0.065905 0.667756 0
M  V30 5693 H 545.978 0.827101 1.87028 0
M  V30 5694 H 544.133 -0.730203 3.80456 0
M  V30 5695 H 544.547 1.03368 5.14213 0
M  V30 5696 H 546.021 -0.642297 5.4825 0
M  V30 5697 H 546.498 -1.60713 4.0874 0
M  V30 5698 H 547.104 0.0568935 4.25262 0
M  V30 5699 N 545.419 -1.53889 0.339982 0
M  V30 5700 C 546.366 -2.24902 -0.518452 0
M  V30 5701 C 547.336 -1.24593 -1.09844 0
M  V30 5702 O 548.521 -1.53317 -1.13572 0
M  V30 5703 C 545.661 -3.02262 -1.66529 0
M  V30 5704 C 544.774 -4.17418 -1.11295 0
M  V30 5705 C 543.909 -4.82273 -2.2268 0
M  V30 5706 C 542.948 -5.89503 -1.6478 0
M  V30 5707 N 542.085 -6.48153 -2.69893 0
M  V30 5708 H 546.925 -2.97853 0.0936579 0
M  V30 5709 H 544.462 -1.46986 0.0579924 0
M  V30 5710 H 546.42 -3.45371 -2.3404 0
M  V30 5711 H 545.05 -2.31614 -2.24844 0
M  V30 5712 H 544.102 -3.78976 -0.328886 0
M  V30 5713 H 545.414 -4.94554 -0.649414 0
M  V30 5714 H 544.568 -5.28435 -2.98063 0
M  V30 5715 H 543.307 -4.04552 -2.72376 0
M  V30 5716 H 542.312 -5.42728 -0.879004 0
M  V30 5717 H 543.537 -6.6913 -1.1594 0
M  V30 5718 H 541.483 -5.73298 -3.1885 0
M  V30 5719 H 541.4 -7.20752 -2.28151 0
M  V30 5720 H 542.668 -6.98968 -3.45056 0
M  V30 5721 N 546.897 -0.0685191 -1.57451 0
M  V30 5722 C 547.827 0.89747 -2.15564 0
M  V30 5723 C 548.808 1.31266 -1.08181 0
M  V30 5724 O 549.993 1.38429 -1.36202 0
M  V30 5725 C 547.123 2.16623 -2.71463 0
M  V30 5726 C 546.077 1.89054 -3.83982 0
M  V30 5727 C 545.403 3.22532 -4.26471 0
M  V30 5728 C 546.703 1.1984 -5.08366 0
M  V30 5729 H 548.397 0.413373 -2.96533 0
M  V30 5730 H 545.943 0.197391 -1.42641 0
M  V30 5731 H 547.896 2.84614 -3.10761 0
M  V30 5732 H 546.62 2.67269 -1.8771 0
M  V30 5733 H 545.279 1.23469 -3.45183 0
M  V30 5734 H 544.927 3.71013 -3.39644 0
M  V30 5735 H 544.627 3.04879 -5.02317 0
M  V30 5736 H 546.151 3.91727 -4.68383 0
M  V30 5737 H 547.565 1.77896 -5.45001 0
M  V30 5738 H 545.962 1.12456 -5.89469 0
M  V30 5739 H 547.032 0.176996 -4.84577 0
M  V30 5740 N 548.375 1.56261 0.205012 0
M  V30 5741 C 549.615 1.81823 0.933806 0
M  V30 5742 C 549.979 0.644534 1.80858 0
M  V30 5743 O 551.18 0.779819 2.5724 0
M  V30 5744 C 549.451 3.12362 1.7368 0
M  V30 5745 S 551.01 3.59296 2.51897 0
M  V30 5746 H 547.828 0.638209 0.313386 0
M  V30 5747 H 550.43 1.94495 0.198001 0
M  V30 5748 H 549.134 3.95809 1.08459 0
M  V30 5749 H 548.665 3.02542 2.5146 0
M  V30 5750 H 550.68 3.23945 3.75864 0
M  V30 5751 N 549.853 -0.472356 1.50355 0
M  V30 5752 C 551.101 -1.22211 1.60962 0
M  V30 5753 C 551.422 -1.92497 0.311439 0
M  V30 5754 O 550.692 -1.8405 -0.671002 0
M  V30 5755 H 549.272 -0.454092 0.593135 0
M  V30 5756 H 551.934 -0.544977 1.87126 0
M  V30 5757 H 551.03 -1.9707 2.42012 0
M  V30 5758 N 551.331 -1.39911 -0.725443 0
M  V30 5759 C 552.263 -1.35301 -1.85003 0
M  V30 5760 C 553.276 -0.260102 -1.60709 0
M  V30 5761 O 554.465 -0.519749 -1.70766 0
M  V30 5762 C 551.565 -1.08039 -3.21218 0
M  V30 5763 C 550.738 -2.28793 -3.7279 0
M  V30 5764 C 549.797 -1.97841 -4.87591 0
M  V30 5765 O 548.823 -2.70616 -5.00755 0
M  V30 5766 N 550.025 -0.950367 -5.72668 0
M  V30 5767 H 552.79 -2.32218 -1.89459 0
M  V30 5768 H 550.351 -1.34137 -0.90658 0
M  V30 5769 H 552.343 -0.853354 -3.95601 0
M  V30 5770 H 550.913 -0.198229 -3.11971 0
M  V30 5771 H 550.133 -2.67388 -2.8965 0
M  V30 5772 H 551.421 -3.09317 -4.03981 0
M  V30 5773 H 550.819 -0.347436 -5.64632 0
M  V30 5774 H 549.376 -0.783232 -6.47077 0
M  V30 5775 N 552.809 0.956637 -1.25245 0
M  V30 5776 C 554.086 1.67716 -1.00651 0
M  V30 5777 C 554.466 2.0585 0.467866 0
M  V30 5778 O 553.814 1.77029 1.44475 0
M  V30 5779 C 554.024 2.90093 -1.94028 0
M  V30 5780 C 555.372 3.6209 -2.21756 0
M  V30 5781 O 556.396 3.00171 -1.9177 0
M  V30 5782 O 555.255 4.7358 -2.72735 0
M  V30 5783 H 552.349 0.733731 -0.381533 0
M  V30 5784 H 554.895 1.00974 -1.3639 0
M  V30 5785 H 553.667 2.58689 -2.93591 0
M  V30 5786 H 553.29 3.64566 -1.58674 0
M  V30 5787 N 554.287 1.06798 1.15896 0
M  V30 5788 C 555.703 0.792423 1.38538 0
M  V30 5789 C 555.903 -0.60592 1.92174 0
M  V30 5790 O 554.959 -1.36561 2.12385 0
M  V30 5791 C 556.272 1.86157 2.36149 0
M  V30 5792 C 557.82 1.88567 2.49823 0
M  V30 5793 C 558.295 2.9455 3.5072 0
M  V30 5794 N 559.786 2.93616 3.58251 0
M  V30 5795 C 560.521 3.72267 4.36125 0
M  V30 5796 N 560.017 4.60751 5.17379 0
M  V30 5797 N 561.81 3.60637 4.31158 0
M  V30 5798 H 553.961 1.96993 0.794198 0
M  V30 5799 H 556.224 0.853942 0.411688 0
M  V30 5800 H 555.93 2.86603 2.03843 0
M  V30 5801 H 555.804 1.71692 3.3586 0
M  V30 5802 H 558.191 0.887765 2.8143 0
M  V30 5803 H 558.272 2.0711 1.5013 0
M  V30 5804 H 557.916 3.94537 3.19849 0
M  V30 5805 H 557.846 2.73255 4.50155 0
M  V30 5806 H 560.337 2.29472 3.00252 0
M  V30 5807 H 560.65 5.17408 5.74028 0
M  V30 5808 H 558.995 4.64803 5.16704 0
M  V30 5809 H 562.186 2.90892 3.66742 0
M  V30 5810 H 562.359 4.22176 4.91601 0
M  V30 5811 N 555.766 -1.3263 0.851289 0
M  V30 5812 C 556.696 -2.31449 0.308771 0
M  V30 5813 C 557.677 -1.59531 -0.590255 0
M  V30 5814 O 558.862 -1.87351 -0.511205 0
M  V30 5815 C 555.992 -3.43586 -0.506548 0
M  V30 5816 C 554.946 -4.26963 0.297753 0
M  V30 5817 C 554.272 -5.30831 -0.642094 0
M  V30 5818 C 555.572 -4.99643 1.52166 0
M  V30 5819 H 557.266 -2.77074 1.13447 0
M  V30 5820 H 554.812 -1.33207 0.546971 0
M  V30 5821 H 556.765 -4.11754 -0.896474 0
M  V30 5822 H 555.489 -2.96681 -1.36558 0
M  V30 5823 H 554.148 -3.60437 0.669391 0
M  V30 5824 H 553.796 -4.8018 -1.49788 0
M  V30 5825 H 553.496 -5.87501 -0.107968 0
M  V30 5826 H 555.02 -6.01862 -1.02927 0
M  V30 5827 H 556.434 -5.6051 1.20421 0
M  V30 5828 H 554.831 -5.66022 1.99347 0
M  V30 5829 H 555.901 -4.27701 2.28474 0
M  V30 5830 N 557.244 -0.608902 -1.45362 0
M  V30 5831 C 558.174 0.0964526 -2.33301 0
M  V30 5832 C 559.155 0.857444 -1.46908 0
M  V30 5833 O 560.34 0.827735 -1.75676 0
M  V30 5834 C 557.47 1.09354 -3.29635 0
M  V30 5835 C 556.424 0.445676 -4.25673 0
M  V30 5836 C 555.75 1.5511 -5.11708 0
M  V30 5837 C 557.05 -0.633972 -5.18438 0
M  V30 5838 H 558.744 -0.637829 -2.92527 0
M  V30 5839 H 556.29 -0.308178 -1.40664 0
M  V30 5840 H 558.243 1.59556 -3.90025 0
M  V30 5841 H 556.967 1.85843 -2.6857 0
M  V30 5842 H 555.626 -0.0354897 -3.66583 0
M  V30 5843 H 555.274 2.30631 -4.4701 0
M  V30 5844 H 554.974 1.12311 -5.76767 0
M  V30 5845 H 556.498 2.05537 -5.74967 0
M  V30 5846 H 557.912 -0.215974 -5.72893 0
M  V30 5847 H 556.309 -0.983789 -5.91981 0
M  V30 5848 H 557.379 -1.51005 -4.60788 0
M  V30 5849 N 558.722 1.53707 -0.348139 0
M  V30 5850 C 560.138 1.596 0.00361134 0
M  V30 5851 C 560.338 1.36394 1.4832 0
M  V30 5852 O 559.394 1.16046 2.24253 0
M  V30 5853 C 560.707 2.97512 -0.436682 0
M  V30 5854 C 562.255 3.10568 -0.389416 0
M  V30 5855 C 562.73 4.50866 -0.805249 0
M  V30 5856 N 564.221 4.56929 -0.759616 0
M  V30 5857 C 564.956 5.63643 -1.05327 0
M  V30 5858 N 564.452 6.78189 -1.41531 0
M  V30 5859 N 566.245 5.5354 -0.977207 0
M  V30 5860 H 558.396 1.67044 -1.31187 0
M  V30 5861 H 560.659 0.782559 -0.535075 0
M  V30 5862 H 560.365 3.19575 -1.46849 0
M  V30 5863 H 560.239 3.76742 0.185744 0
M  V30 5864 H 562.626 2.88226 0.633228 0
M  V30 5865 H 562.707 2.33387 -1.04711 0
M  V30 5866 H 562.351 4.73943 -1.82593 0
M  V30 5867 H 562.281 5.26452 -0.124989 0
M  V30 5868 H 564.772 3.74675 -0.49265 0
M  V30 5869 H 565.085 7.55541 -1.62411 0
M  V30 5870 H 563.43 6.79624 -1.45381 0
M  V30 5871 H 566.621 4.62932 -0.693675 0
M  V30 5872 H 566.794 6.36614 -1.2094 0
M  V30 5873 N 560.2 0.0768682 1.57412 0
M  V30 5874 C 561.616 -0.279772 1.57129 0
M  V30 5875 C 561.816 -1.69688 1.08666 0
M  V30 5876 O 560.872 -2.40953 0.754843 0
M  V30 5877 C 562.185 -0.0848055 3.0058 0
M  V30 5878 C 563.733 -0.153954 3.12621 0
M  V30 5879 C 564.208 0.0127946 4.57998 0
M  V30 5880 N 565.699 -0.0426435 4.6318 0
M  V30 5881 C 566.434 0.0618892 5.73367 0
M  V30 5882 N 565.93 0.220229 6.9245 0
M  V30 5883 N 567.723 0.00446072 5.621 0
M  V30 5884 H 559.874 1.00297 1.87228 0
M  V30 5885 H 562.137 0.391565 0.863354 0
M  V30 5886 H 561.843 0.89325 3.40168 0
M  V30 5887 H 561.717 -0.834961 3.67843 0
M  V30 5888 H 564.104 -1.1225 2.72917 0
M  V30 5889 H 564.185 0.627389 2.47987 0
M  V30 5890 H 563.829 0.978128 4.98392 0
M  V30 5891 H 563.759 -0.788016 5.20671 0
M  V30 5892 H 566.25 -0.163226 3.77547 0
M  V30 5893 H 566.563 0.291999 7.72248 0
M  V30 5894 H 564.908 0.255658 6.9453 0
M  V30 5895 H 568.099 -0.117979 4.67951 0
M  V30 5896 H 568.272 0.0893796 6.47938 0
M  V30 5897 N 561.678 -1.56367 -0.196722 0
M  V30 5898 C 562.608 -1.97442 -1.24655 0
M  V30 5899 C 563.589 -0.846147 -1.47561 0
M  V30 5900 O 564.774 -1.11035 -1.59326 0
M  V30 5901 C 561.904 -2.31253 -2.59112 0
M  V30 5902 C 560.858 -3.46804 -2.50821 0
M  V30 5903 C 560.184 -3.66286 -3.89536 0
M  V30 5904 C 561.484 -4.8104 -2.03465 0
M  V30 5905 H 563.178 -2.85388 -0.905216 0
M  V30 5906 H 560.724 -1.37304 -0.434002 0
M  V30 5907 H 562.677 -2.58583 -3.32736 0
M  V30 5908 H 561.401 -1.40188 -2.94983 0
M  V30 5909 H 560.06 -3.19563 -1.79653 0
M  V30 5910 H 559.708 -2.72555 -4.22756 0
M  V30 5911 H 559.408 -4.4402 -3.84864 0
M  V30 5912 H 560.932 -3.9599 -4.64784 0
M  V30 5913 H 562.346 -5.07411 -2.66846 0
M  V30 5914 H 560.743 -5.62232 -2.09798 0
M  V30 5915 H 561.813 -4.74732 -0.98781 0
M  V30 5916 N 563.156 0.464375 -1.50603 0
M  V30 5917 C 564.088 1.57916 -1.66118 0
M  V30 5918 C 565.101 1.53497 -0.54246 0
M  V30 5919 O 566.29 1.58763 -0.815877 0
M  V30 5920 C 563.39 2.96809 -1.63577 0
M  V30 5921 C 562.563 3.26026 -2.91592 0
M  V30 5922 C 561.622 4.44506 -2.81604 0
M  V30 5923 O 560.648 4.44484 -3.55559 0
M  V30 5924 N 561.85 5.46549 -1.95614 0
M  V30 5925 H 564.615 1.45022 -2.62276 0
M  V30 5926 H 562.176 0.652903 -1.48151 0
M  V30 5927 H 564.168 3.74048 -1.54499 0
M  V30 5928 H 562.738 3.03438 -0.751262 0
M  V30 5929 H 561.958 2.37337 -3.14746 0
M  V30 5930 H 563.246 3.42361 -3.76386 0
M  V30 5931 H 562.644 5.49391 -1.34854 0
M  V30 5932 H 561.201 6.22746 -1.92435 0
M  V30 5933 N 564.634 1.40294 0.718013 0
M  V30 5934 C 565.544 1.42678 1.86226 0
M  V30 5935 C 566.56 0.319655 1.71039 0
M  V30 5936 O 567.736 0.563852 1.93346 0
M  V30 5937 C 564.801 1.2852 3.21999 0
M  V30 5938 C 563.862 2.49354 3.49458 0
M  V30 5939 C 563.095 2.35863 4.78753 0
M  V30 5940 O 563.318 1.37114 5.53675 0
M  V30 5941 O 562.252 3.25189 5.06494 0
M  V30 5942 H 566.078 2.39167 1.87171 0
M  V30 5943 H 563.663 1.2159 0.868112 0
M  V30 5944 H 565.545 1.22824 4.03103 0
M  V30 5945 H 564.22 0.351359 3.21787 0
M  V30 5946 H 563.127 2.60628 2.68373 0
M  V30 5947 H 564.46 3.41491 3.54464 0
M  V30 5948 N 566.112 -0.949982 1.2575 0
M  V30 5949 C 567.022 -2.08109 1.08295 0
M  V30 5950 C 568.038 -1.7399 0.0188181 0
M  V30 5951 O 569.214 -2.00187 0.220724 0
M  V30 5952 C 566.279 -3.39383 0.708534 0
M  V30 5953 C 565.34 -3.8734 1.85111 0
M  V30 5954 C 564.573 -5.12349 1.49447 0
M  V30 5955 O 564.796 -5.6905 0.392212 0
M  V30 5956 O 563.73 -5.5513 2.32624 0
M  V30 5957 H 567.556 -2.25738 2.03165 0
M  V30 5958 H 565.141 -1.06545 1.04731 0
M  V30 5959 H 567.023 -4.18277 0.512061 0
M  V30 5960 H 565.698 -3.23013 -0.210854 0
M  V30 5961 H 564.605 -3.09429 2.10248 0
M  V30 5962 H 565.938 -4.08216 2.74991 0
M  V30 5963 N 567.59 -1.07411 -1.15328 0
M  V30 5964 C 568.839 -0.792643 -1.85473 0
M  V30 5965 C 569.152 0.683789 -1.83259 0
M  V30 5966 O 570.358 1.08005 -2.49093 0
M  V30 5967 C 568.814 -1.36787 -3.32892 0
M  V30 5968 C 568.422 -2.87536 -3.43551 0
M  V30 5969 C 570.166 -1.16444 -4.08217 0
M  V30 5970 C 568.073 -3.38247 -4.85122 0
M  V30 5971 H 567.003 -0.292838 -0.694811 0
M  V30 5972 H 569.654 -1.29426 -1.30082 0
M  V30 5973 H 568.036 -0.793993 -3.87958 0
M  V30 5974 H 569.21 -3.50973 -2.98588 0
M  V30 5975 H 567.525 -3.06676 -2.81672 0
M  V30 5976 H 570.122 -1.51808 -5.12697 0
M  V30 5977 H 570.465 -0.10353 -4.16171 0
M  V30 5978 H 570.998 -1.70472 -3.59422 0
M  V30 5979 H 567.737 -4.43866 -4.82351 0
M  V30 5980 H 567.257 -2.79564 -5.30664 0
M  V30 5981 H 568.936 -3.34238 -5.5398 0
M  V30 5982 N 569.068 1.32177 -0.85831 0
M  V30 5983 C 570.345 1.91781 -0.384624 0
M  V30 5984 C 570.725 1.78171 1.13217 0
M  V30 5985 O 570.073 1.18209 1.95548 0
M  V30 5986 C 570.283 3.38414 -0.853047 0
M  V30 5987 C 571.631 4.15542 -0.872359 0
M  V30 5988 O 572.655 3.47148 -0.797926 0
M  V30 5989 O 571.514 5.37678 -0.978009 0
M  V30 5990 H 568.608 0.819259 -0.112886 0
M  V30 5991 H 571.154 1.40923 -0.945453 0
M  V30 5992 H 569.926 3.4228 -1.89632 0
M  V30 5993 H 569.549 3.96683 -0.269874 0
M  V30 5994 N 570.547 0.616602 1.45037 0
M  V30 5995 C 571.479 -0.135186 2.28801 0
M  V30 5996 C 572.492 -0.82303 1.40464 0
M  V30 5997 O 573.681 -0.686909 1.64754 0
M  V30 5998 C 570.781 -1.21292 3.16451 0
M  V30 5999 C 569.954 -0.61043 4.3312 0
M  V30 6000 C 569.013 -1.58022 5.01912 0
M  V30 6001 O 568.039 -1.10301 5.58411 0
M  V30 6002 N 569.241 -2.91464 5.02025 0
M  V30 6003 H 572.006 0.583612 2.93963 0
M  V30 6004 H 569.567 0.456723 1.55324 0
M  V30 6005 H 571.559 -1.86169 3.59337 0
M  V30 6006 H 570.129 -1.83412 2.53138 0
M  V30 6007 H 569.349 0.216638 3.93604 0
M  V30 6008 H 570.637 -0.188293 5.08451 0
M  V30 6009 H 570.035 -3.32829 4.57429 0
M  V30 6010 H 568.592 -3.51741 5.48745 0
M  V30 6011 N 572.025 -1.5352 0.356285 0
M  V30 6012 C 572.972 -2.25439 -0.494569 0
M  V30 6013 C 573.942 -1.25752 -1.08516 0
M  V30 6014 O 575.127 -1.54513 -1.1194 0
M  V30 6015 C 572.267 -3.04011 -1.63313 0
M  V30 6016 C 571.38 -4.18574 -1.06862 0
M  V30 6017 C 570.515 -4.84607 -2.17552 0
M  V30 6018 C 569.554 -5.91218 -1.58518 0
M  V30 6019 N 568.691 -6.50979 -2.63003 0
M  V30 6020 H 573.531 -2.97737 0.125244 0
M  V30 6021 H 571.068 -1.46916 0.0735789 0
M  V30 6022 H 573.026 -3.47834 -2.30363 0
M  V30 6023 H 571.656 -2.33986 -2.22374 0
M  V30 6024 H 570.708 -3.79303 -0.288672 0
M  V30 6025 H 572.02 -4.95215 -0.596924 0
M  V30 6026 H 571.174 -5.31566 -2.92442 0
M  V30 6027 H 569.913 -4.07418 -2.6807 0
M  V30 6028 H 568.918 -5.4363 -0.821391 0
M  V30 6029 H 570.143 -6.70322 -1.08836 0
M  V30 6030 H 568.089 -5.76648 -3.12751 0
M  V30 6031 H 568.006 -7.23131 -2.20493 0
M  V30 6032 H 569.274 -7.02589 -3.37623 0
M  V30 6033 N 573.503 -0.0852151 -1.57369 0
M  V30 6034 C 574.435 0.907099 -2.10486 0
M  V30 6035 C 575.448 1.25259 -1.03991 0
M  V30 6036 O 576.637 1.20743 -1.31467 0
M  V30 6037 C 573.737 2.21908 -2.56145 0
M  V30 6038 C 572.91 2.05042 -3.86363 0
M  V30 6039 C 571.969 3.19664 -4.17973 0
M  V30 6040 O 570.995 2.94062 -4.87356 0
M  V30 6041 N 572.197 4.45151 -3.72587 0
M  V30 6042 H 574.962 0.453505 -2.96249 0
M  V30 6043 H 572.523 0.100157 -1.6159 0
M  V30 6044 H 574.515 2.97519 -2.74343 0
M  V30 6045 H 573.085 2.58723 -1.75446 0
M  V30 6046 H 572.305 1.13819 -3.77411 0
M  V30 6047 H 573.593 1.91039 -4.71574 0
M  V30 6048 H 572.991 4.68834 -3.16561 0
M  V30 6049 H 571.548 5.17744 -3.9596 0
M  V30 6050 N 574.981 1.5647 0.188427 0
M  V30 6051 C 575.891 1.98285 1.2538 0
M  V30 6052 C 576.907 0.891535 1.49424 0
M  V30 6053 O 578.083 1.19782 1.61908 0
M  V30 6054 C 575.148 2.31965 2.57669 0
M  V30 6055 C 574.209 3.54838 2.41638 0
M  V30 6056 C 573.442 3.86901 3.67618 0
M  V30 6057 O 573.665 3.20163 4.72072 0
M  V30 6058 O 572.599 4.80309 3.62749 0
M  V30 6059 H 576.425 2.89145 0.928912 0
M  V30 6060 H 574.01 1.44112 0.393955 0
M  V30 6061 H 575.892 2.54673 3.35737 0
M  V30 6062 H 574.567 1.44271 2.89771 0
M  V30 6063 H 573.474 3.37369 1.61658 0
M  V30 6064 H 574.807 4.43019 2.14465 0
M  V30 6065 N 576.459 -0.456382 1.50847 0
M  V30 6066 C 577.369 -1.57805 1.73594 0
M  V30 6067 C 578.385 -1.62599 0.619476 0
M  V30 6068 O 579.561 -1.80195 0.899532 0
M  V30 6069 C 576.626 -2.93926 1.8387 0
M  V30 6070 C 575.687 -2.99402 3.07663 0
M  V30 6071 C 574.92 -4.29031 3.1744 0
M  V30 6072 O 575.143 -5.20358 2.33631 0
M  V30 6073 O 574.077 -4.40401 4.10281 0
M  V30 6074 H 577.903 -1.41531 2.68705 0
M  V30 6075 H 575.488 -0.637422 1.3512 0
M  V30 6076 H 577.37 -3.74747 1.92725 0
M  V30 6077 H 576.045 -3.10368 0.91944 0
M  V30 6078 H 574.952 -2.17606 3.043 0
M  V30 6079 H 576.285 -2.87901 3.99216 0
M  V30 6080 N 577.937 -1.40673 -0.710563 0
M  V30 6081 C 578.884 -1.41336 -1.82463 0
M  V30 6082 C 579.854 -0.269648 -1.63897 0
M  V30 6083 O 581.039 -0.468463 -1.8496 0
M  V30 6084 C 578.179 -1.28665 -3.20218 0
M  V30 6085 C 577.292 -2.52784 -3.5032 0
M  V30 6086 C 576.427 -2.32517 -4.77608 0
M  V30 6087 C 575.466 -3.52187 -5.0063 0
M  V30 6088 N 574.603 -3.31084 -6.19135 0
M  V30 6089 H 579.443 -2.36558 -1.8123 0
M  V30 6090 H 576.98 -1.17483 -0.885226 0
M  V30 6091 H 578.938 -1.19324 -3.99772 0
M  V30 6092 H 577.568 -0.370602 -3.20666 0
M  V30 6093 H 576.62 -2.72634 -2.65283 0
M  V30 6094 H 577.932 -3.41845 -3.63241 0
M  V30 6095 H 577.086 -2.20558 -5.65189 0
M  V30 6096 H 575.825 -1.40889 -4.66906 0
M  V30 6097 H 574.83 -3.64617 -4.11502 0
M  V30 6098 H 576.055 -4.44749 -5.13201 0
M  V30 6099 H 574.001 -2.42143 -6.09674 0
M  V30 6100 H 573.918 -4.13713 -6.32754 0
M  V30 6101 H 575.186 -3.22868 -7.0949 0
M  V30 6102 N 579.415 0.9433 -1.26252 0
M  V30 6103 C 580.325 2.07532 -1.09397 0
M  V30 6104 C 581.341 1.73977 -0.0280449 0
M  V30 6105 O 582.517 2.00067 -0.231337 0
M  V30 6106 C 579.582 3.39002 -0.726523 0
M  V30 6107 C 578.643 3.86353 -1.87163 0
M  V30 6108 C 577.876 5.11549 -1.52162 0
M  V30 6109 O 578.099 5.68834 -0.422385 0
M  V30 6110 O 577.033 5.53889 -2.35565 0
M  V30 6111 H 580.859 2.24658 -2.04359 0
M  V30 6112 H 578.444 1.05988 -1.05295 0
M  V30 6113 H 580.326 4.18 -0.534236 0
M  V30 6114 H 579.001 3.2312 0.193721 0
M  V30 6115 H 577.908 3.0831 -2.11886 0
M  V30 6116 H 579.241 4.06752 -2.77152 0
M  V30 6117 N 580.893 1.08022 1.14757 0
M  V30 6118 C 581.825 0.664566 2.19354 0
M  V30 6119 C 582.838 -0.286374 1.60261 0
M  V30 6120 O 584.027 -0.0746362 1.78344 0
M  V30 6121 C 581.127 -0.0434634 3.38872 0
M  V30 6122 C 580.3 0.925381 4.27499 0
M  V30 6123 C 579.359 0.253398 5.2559 0
M  V30 6124 O 578.385 0.896581 5.62094 0
M  V30 6125 N 579.587 -0.998263 5.71852 0
M  V30 6126 H 582.352 1.56438 2.55631 0
M  V30 6127 H 579.913 0.965788 1.29939 0
M  V30 6128 H 581.905 -0.503857 4.01551 0
M  V30 6129 H 580.475 -0.845321 3.00954 0
M  V30 6130 H 579.695 1.56472 3.61815 0
M  V30 6131 H 580.983 1.58203 4.8358 0
M  V30 6132 H 580.381 -1.54063 5.44317 0
M  V30 6133 H 578.938 -1.40222 6.36538 0
M  V30 6134 N 582.371 -1.3172 0.865308 0
M  V30 6135 C 583.301 -2.31109 0.333302 0
M  V30 6136 C 584.282 -1.60148 -0.573301 0
M  V30 6137 O 585.467 -1.87882 -0.491305 0
M  V30 6138 C 582.597 -3.44104 -0.470078 0
M  V30 6139 C 581.551 -4.26623 0.343021 0
M  V30 6140 C 580.877 -5.31482 -0.585756 0
M  V30 6141 C 582.177 -4.98001 1.57456 0
M  V30 6142 H 583.871 -2.75855 1.1638 0
M  V30 6143 H 581.417 -1.3262 0.561069 0
M  V30 6144 H 583.37 -4.12682 -0.852752 0
M  V30 6145 H 582.094 -2.98112 -1.33404 0
M  V30 6146 H 580.753 -3.59707 0.707583 0
M  V30 6147 H 580.401 -4.81741 -1.44686 0
M  V30 6148 H 580.101 -5.87582 -0.0456494 0
M  V30 6149 H 581.625 -6.0292 -0.965375 0
M  V30 6150 H 583.039 -5.59201 1.26359 0
M  V30 6151 H 581.436 -5.63876 2.05339 0
M  V30 6152 H 582.506 -4.25253 2.32997 0
M  V30 6153 N 583.85 -0.624285 -1.44708 0
M  V30 6154 C 584.76 0.0861083 -2.34442 0
M  V30 6155 C 585.776 0.84291 -1.5222 0
M  V30 6156 O 586.952 0.796723 -1.84971 0
M  V30 6157 C 584.017 1.05999 -3.30099 0
M  V30 6158 C 583.077 0.303316 -4.28227 0
M  V30 6159 C 582.311 1.23081 -5.19314 0
M  V30 6160 O 582.534 2.46929 -5.14181 0
M  V30 6161 O 581.468 0.71883 -5.97592 0
M  V30 6162 H 585.293 -0.651756 -2.96624 0
M  V30 6163 H 582.879 -0.384493 -1.44368 0
M  V30 6164 H 584.76 1.62046 -3.88997 0
M  V30 6165 H 583.436 1.77859 -2.70459 0
M  V30 6166 H 582.343 -0.300033 -3.72895 0
M  V30 6167 H 583.676 -0.375123 -4.90768 0
M  V30 6168 N 585.328 1.53329 -0.364422 0
M  V30 6169 C 586.291 2.24323 0.470292 0
M  V30 6170 C 587.291 1.25068 1.01067 0
M  V30 6171 O 588.481 1.49354 0.896605 0
M  V30 6172 C 585.613 2.97908 1.65722 0
M  V30 6173 H 586.806 2.9952 -0.150917 0
M  V30 6174 H 584.359 1.55868 -0.116092 0
M  V30 6175 H 585.094 2.2695 2.31655 0
M  V30 6176 H 584.879 3.70732 1.27671 0
M  V30 6177 H 586.369 3.5188 2.24878 0
M  V30 6178 N 586.806 0.0935595 1.57322 0
M  V30 6179 C 587.769 -0.851426 2.12799 0
M  V30 6180 C 588.769 -1.21187 1.0569 0
M  V30 6181 O 589.959 -1.14156 1.31583 0
M  V30 6182 C 587.091 -2.14779 2.64731 0
M  V30 6183 H 588.284 -0.369733 2.97612 0
M  V30 6184 H 585.837 -0.155417 1.55525 0
M  V30 6185 H 586.572 -2.67437 1.83434 0
M  V30 6186 H 586.357 -1.89907 3.43042 0
M  V30 6187 H 587.847 -2.82383 3.07651 0
M  V30 6188 N 588.284 -1.56567 -0.180126 0
M  V30 6189 C 589.214 -1.98753 -1.22553 0
M  V30 6190 C 590.195 -0.86175 -1.46656 0
M  V30 6191 O 591.38 -1.12719 -1.58139 0
M  V30 6192 C 588.51 -2.33988 -2.56645 0
M  V30 6193 C 587.464 -3.49445 -2.47128 0
M  V30 6194 C 586.79 -3.70397 -3.8563 0
M  V30 6195 C 588.09 -4.83171 -1.98352 0
M  V30 6196 H 589.784 -2.86332 -0.874896 0
M  V30 6197 H 587.33 -1.37757 -0.419414 0
M  V30 6198 H 589.283 -2.62097 -3.29974 0
M  V30 6199 H 588.007 -1.43309 -2.93479 0
M  V30 6200 H 586.666 -3.2145 -1.76254 0
M  V30 6201 H 586.314 -2.77023 -4.19842 0
M  V30 6202 H 586.014 -4.48077 -3.80132 0
M  V30 6203 H 587.538 -4.00897 -4.60558 0
M  V30 6204 H 588.952 -5.10213 -2.61449 0
M  V30 6205 H 587.349 -5.64425 -2.03823 0
M  V30 6206 H 588.419 -4.75753 -0.937402 0
M  V30 6207 N 589.762 0.448376 -1.51087 0
M  V30 6208 C 590.672 1.56882 -1.74428 0
M  V30 6209 C 591.688 1.62268 -0.62809 0
M  V30 6210 O 592.864 1.79716 -0.909075 0
M  V30 6211 C 589.929 2.92947 -1.85426 0
M  V30 6212 C 588.99 2.97766 -3.09247 0
M  V30 6213 C 588.223 4.27341 -3.19711 0
M  V30 6214 O 588.446 5.19112 -2.36387 0
M  V30 6215 O 587.38 4.38219 -4.12611 0
M  V30 6216 H 591.206 1.40104 -2.69452 0
M  V30 6217 H 588.791 0.630247 -1.35456 0
M  V30 6218 H 590.673 3.73719 -1.94709 0
M  V30 6219 H 589.348 3.09876 -0.935887 0
M  V30 6220 H 588.255 2.15989 -3.0545 0
M  V30 6221 H 589.588 2.8578 -4.00738 0
M  V30 6222 N 591.24 1.41047 0.703093 0
M  V30 6223 C 592.17 1.45067 1.82969 0
M  V30 6224 C 593.151 0.31016 1.67248 0
M  V30 6225 O 594.336 0.520548 1.87093 0
M  V30 6226 C 591.466 1.32478 3.2104 0
M  V30 6227 C 590.42 2.44262 3.51454 0
M  V30 6228 C 589.746 2.16742 4.88801 0
M  V30 6229 C 591.046 3.86606 3.51189 0
M  V30 6230 H 592.74 2.39353 1.79863 0
M  V30 6231 H 590.286 1.15206 0.863919 0
M  V30 6232 H 592.239 1.33904 3.99559 0
M  V30 6233 H 590.963 0.346735 3.24754 0
M  V30 6234 H 589.622 2.42107 2.75282 0
M  V30 6235 H 589.27 1.17299 4.89132 0
M  V30 6236 H 588.97 2.91643 5.10116 0
M  V30 6237 H 590.494 2.19872 5.69639 0
M  V30 6238 H 591.908 3.90517 4.19725 0
M  V30 6239 H 590.305 4.61128 3.84033 0
M  V30 6240 H 591.375 4.15296 2.50315 0
M  V30 6241 N 592.718 -0.936591 1.26751 0
M  V30 6242 C 593.946 -1.71758 1.15355 0
M  V30 6243 C 594.361 -1.86549 -0.290683 0
M  V30 6244 O 593.718 -1.37616 -1.19868 0
M  V30 6245 C 593.769 -3.12193 1.82258 0
M  V30 6246 O 593.49 -2.98105 3.21038 0
M  V30 6247 C 594.991 -4.06485 1.76875 0
M  V30 6248 H 592.211 -0.537636 0.401483 0
M  V30 6249 H 594.755 -1.17382 1.67457 0
M  V30 6250 H 592.91 -3.63456 1.34083 0
M  V30 6251 H 593.324 -3.86824 3.54214 0
M  V30 6252 H 594.798 -5.02569 2.28316 0
M  V30 6253 H 595.275 -4.32986 0.736216 0
M  V30 6254 H 595.881 -3.61144 2.24623 0
M  V30 6255 N 594.196 -1.08629 -1.14182 0
M  V30 6256 C 595.612 -0.814363 -1.3726 0
M  V30 6257 C 595.812 0.575271 -1.93114 0
M  V30 6258 O 594.868 1.33165 -2.1453 0
M  V30 6259 C 596.181 -1.8989 -2.33157 0
M  V30 6260 C 597.729 -1.92518 -2.46791 0
M  V30 6261 C 598.204 -3.00092 -3.45989 0
M  V30 6262 N 599.695 -2.99279 -3.53534 0
M  V30 6263 C 600.43 -3.79158 -4.30147 0
M  V30 6264 N 599.926 -4.68923 -5.09983 0
M  V30 6265 N 601.719 -3.67451 -4.25366 0
M  V30 6266 H 593.87 -1.98232 -0.762758 0
M  V30 6267 H 596.133 -0.860383 -0.398051 0
M  V30 6268 H 595.839 -2.89809 -1.99257 0
M  V30 6269 H 595.713 -1.77013 -3.33086 0
M  V30 6270 H 598.1 -0.932425 -2.79982 0
M  V30 6271 H 598.181 -2.09473 -1.46816 0
M  V30 6272 H 597.825 -3.99575 -3.13532 0
M  V30 6273 H 597.755 -2.80382 -4.45751 0
M  V30 6274 H 600.246 -2.3422 -2.96563 0
M  V30 6275 H 600.559 -5.26475 -5.65724 0
M  V30 6276 H 598.904 -4.72964 -5.09244 0
M  V30 6277 H 602.095 -2.9669 -3.62067 0
M  V30 6278 H 602.268 -4.29944 -4.84822 0
M  V30 6279 N 595.674 1.31259 -0.872281 0
M  V30 6280 C 596.606 2.27396 -0.28697 0
M  V30 6281 C 597.619 1.53181 0.551297 0
M  V30 6282 O 598.808 1.74561 0.372914 0
M  V30 6283 C 595.908 3.33335 0.611617 0
M  V30 6284 C 595.081 4.36966 -0.194729 0
M  V30 6285 C 594.14 5.22387 0.632358 0
M  V30 6286 O 593.166 5.69169 0.0595691 0
M  V30 6287 N 594.368 5.46985 1.94391 0
M  V30 6288 H 597.133 2.78261 -1.11314 0
M  V30 6289 H 594.694 1.44306 -0.733994 0
M  V30 6290 H 596.686 3.87398 1.17068 0
M  V30 6291 H 595.256 2.82496 1.33846 0
M  V30 6292 H 594.476 3.82945 -0.935241 0
M  V30 6293 H 595.764 5.03273 -0.747935 0
M  V30 6294 H 595.162 5.10737 2.43237 0
M  V30 6295 H 593.719 6.03973 2.45071 0
M  V30 6296 N 597.152 0.631951 1.44375 0
M  V30 6297 C 598.084 -0.110911 2.28931 0
M  V30 6298 C 599.097 -0.808086 1.41329 0
M  V30 6299 O 600.286 -0.669396 1.65473 0
M  V30 6300 C 597.386 -1.17928 3.1772 0
M  V30 6301 C 596.559 -0.564458 4.33743 0
M  V30 6302 C 595.618 -1.5269 5.0356 0
M  V30 6303 O 594.644 -1.04372 5.59549 0
M  V30 6304 N 595.846 -2.86123 5.05088 0
M  V30 6305 H 598.611 0.614758 2.93327 0
M  V30 6306 H 596.172 0.473171 1.54831 0
M  V30 6307 H 598.164 -1.82348 3.61291 0
M  V30 6308 H 596.734 -1.80717 2.55069 0
M  V30 6309 H 595.954 0.258373 3.93352 0
M  V30 6310 H 597.242 -0.134355 5.08623 0
M  V30 6311 H 596.64 -3.27959 4.60933 0
M  V30 6312 H 595.197 -3.45901 5.52445 0
M  V30 6313 N 598.631 -1.53133 0.372548 0
M  V30 6314 C 599.561 -2.28876 -0.462412 0
M  V30 6315 C 600.542 -1.31583 -1.07796 0
M  V30 6316 O 601.727 -1.60461 -1.09389 0
M  V30 6317 C 598.857 -3.08317 -1.59868 0
M  V30 6318 C 597.811 -4.13355 -1.11003 0
M  V30 6319 C 597.137 -4.8092 -2.33708 0
M  V30 6320 C 598.437 -5.21955 -0.18983 0
M  V30 6321 H 600.131 -2.9892 0.169511 0
M  V30 6322 H 597.677 -1.43761 0.0829658 0
M  V30 6323 H 599.63 -3.60055 -2.18949 0
M  V30 6324 H 598.354 -2.35976 -2.25794 0
M  V30 6325 H 597.013 -3.62573 -0.541869 0
M  V30 6326 H 596.661 -4.05144 -2.98106 0
M  V30 6327 H 596.361 -5.51904 -2.01682 0
M  V30 6328 H 597.885 -5.35455 -2.93462 0
M  V30 6329 H 599.299 -5.69153 -0.688319 0
M  V30 6330 H 597.696 -6.00087 0.0398887 0
M  V30 6331 H 598.766 -4.78811 0.766057 0
M  V30 6332 N 600.109 -0.101901 -1.5727 0
M  V30 6333 C 601.357 0.559091 -1.94213 0
M  V30 6334 C 601.678 1.68297 -0.984948 0
M  V30 6335 O 600.948 1.95863 -0.0381975 0
M  V30 6336 H 599.528 0.20952 -0.717015 0
M  V30 6337 H 602.19 -0.166831 -1.94185 0
M  V30 6338 H 601.286 0.96485 -2.96811 0
M  V30 6339 N 601.587 1.56661 0.17182 0
M  V30 6340 C 602.519 1.92934 1.2373 0
M  V30 6341 C 603.532 0.822385 1.40502 0
M  V30 6342 O 604.721 1.10083 1.40514 0
M  V30 6343 C 601.821 2.16651 2.60607 0
M  V30 6344 C 600.994 3.47878 2.6514 0
M  V30 6345 C 600.053 3.60429 3.83377 0
M  V30 6346 O 599.079 4.33051 3.69398 0
M  V30 6347 N 600.281 2.95241 4.99813 0
M  V30 6348 H 603.046 2.84931 0.929205 0
M  V30 6349 H 600.607 1.5781 0.361588 0
M  V30 6350 H 602.599 2.22312 3.38171 0
M  V30 6351 H 601.169 1.3104 2.83809 0
M  V30 6352 H 600.389 3.53879 1.73675 0
M  V30 6353 H 601.677 4.34232 2.6518 0
M  V30 6354 H 601.075 2.3611 5.14071 0
M  V30 6355 H 599.632 3.06499 5.75241 0
M  V30 6356 N 603.065 -0.440357 1.51323 0
M  V30 6357 C 604.028 -1.51679 1.71832 0
M  V30 6358 C 605.028 -1.49648 0.588386 0
M  V30 6359 O 606.218 -1.51724 0.855891 0
M  V30 6360 C 603.35 -2.91228 1.77199 0
M  V30 6361 H 604.543 -1.34799 2.67898 0
M  V30 6362 H 602.096 -0.66883 1.41267 0
M  V30 6363 H 602.831 -3.13516 0.829363 0
M  V30 6364 H 602.616 -2.94107 2.59314 0
M  V30 6365 H 604.106 -3.69321 1.94915 0
M  V30 6366 N 604.543 -1.41418 -0.695603 0
M  V30 6367 C 605.771 -1.4413 -1.48439 0
M  V30 6368 C 606.186 -0.0465698 -1.88743 0
M  V30 6369 O 605.543 0.934117 -1.56782 0
M  V30 6370 C 605.594 -2.34998 -2.74696 0
M  V30 6371 O 605.315 -3.69043 -2.36091 0
M  V30 6372 C 606.816 -2.46513 -3.68438 0
M  V30 6373 H 604.036 -0.490905 -0.457442 0
M  V30 6374 H 606.58 -1.85702 -0.856454 0
M  V30 6375 H 604.735 -1.96735 -3.33728 0
M  V30 6376 H 605.149 -4.17505 -3.17474 0
M  V30 6377 H 606.623 -3.1426 -4.53811 0
M  V30 6378 H 607.1 -1.49638 -4.12922 0
M  V30 6379 H 607.706 -2.85412 -3.1531 0
M  V30 6380 N 606.021 0.929856 -1.27246 0
M  V30 6381 C 607.437 1.20542 -1.04603 0
M  V30 6382 C 607.637 2.00276 0.221754 0
M  V30 6383 O 606.693 2.34835 0.927833 0
M  V30 6384 C 608.006 1.95566 -2.28417 0
M  V30 6385 C 609.554 2.08513 -2.33433 0
M  V30 6386 C 610.029 2.86943 -3.5697 0
M  V30 6387 N 611.52 2.94512 -3.57515 0
M  V30 6388 C 612.255 3.55656 -4.49774 0
M  V30 6389 N 611.751 4.18209 -5.52334 0
M  V30 6390 N 613.544 3.53038 -4.37402 0
M  V30 6391 H 605.695 0.397113 -2.08655 0
M  V30 6392 H 607.958 0.238277 -0.917566 0
M  V30 6393 H 607.664 1.44395 -3.20691 0
M  V30 6394 H 607.538 2.9619 -2.33563 0
M  V30 6395 H 609.925 2.58872 -1.41666 0
M  V30 6396 H 610.006 1.07117 -2.32292 0
M  V30 6397 H 609.65 2.37268 -4.49072 0
M  V30 6398 H 609.58 3.8862 -3.55362 0
M  V30 6399 H 612.071 2.50053 -2.83341 0
M  V30 6400 H 612.384 4.62796 -6.18902 0
M  V30 6401 H 610.729 4.16761 -5.56179 0
M  V30 6402 H 613.92 3.0337 -3.56489 0
M  V30 6403 H 614.093 4.004 -5.09493 0
M  V30 6404 N 607.499 1.09233 1.13605 0
M  V30 6405 C 608.409 0.741939 2.22559 0
M  V30 6406 C 609.425 -0.255236 1.72118 0
M  V30 6407 O 610.601 -0.0970747 2.01166 0
M  V30 6408 C 607.666 0.165595 3.46304 0
M  V30 6409 C 606.727 1.21846 4.11645 0
M  V30 6410 C 605.96 0.669526 5.29484 0
M  V30 6411 O 606.183 -0.508228 5.68131 0
M  V30 6412 O 605.117 1.42361 5.84822 0
M  V30 6413 H 608.943 1.65107 2.54899 0
M  V30 6414 H 606.528 0.866584 1.21699 0
M  V30 6415 H 608.41 -0.152592 4.21124 0
M  V30 6416 H 607.085 -0.716573 3.15669 0
M  V30 6417 H 605.992 1.58931 3.38662 0
M  V30 6418 H 607.325 2.07321 4.46407 0
M  V30 6419 N 608.977 -1.30795 0.87923 0
M  V30 6420 C 609.94 -2.26563 0.346676 0
M  V30 6421 C 610.94 -1.52578 -0.507597 0
M  V30 6422 O 612.13 -1.71318 -0.315575 0
M  V30 6423 C 609.262 -3.37115 -0.506611 0
M  V30 6424 H 610.455 -2.75183 1.19223 0
M  V30 6425 H 608.008 -1.41886 0.655598 0
M  V30 6426 H 608.743 -2.93802 -1.37299 0
M  V30 6427 H 608.528 -3.91959 0.105218 0
M  V30 6428 H 610.018 -4.08412 -0.871192 0
M  V30 6429 N 610.455 -0.639598 -1.44038 0
M  V30 6430 C 611.703 -0.147188 -2.01563 0
M  V30 6431 C 612.024 1.2384 -1.50628 0
M  V30 6432 O 611.294 1.82452 -0.713316 0
M  V30 6433 H 609.874 -0.0514231 -0.745228 0
M  V30 6434 H 612.536 -0.828205 -1.76428 0
M  V30 6435 H 611.632 -0.121358 -3.11864 0
M  V30 6436 N 611.933 1.52934 -0.380664 0
M  V30 6437 C 612.896 2.24809 0.446473 0
M  V30 6438 C 613.896 1.26133 0.997347 0
M  V30 6439 O 615.086 1.50297 0.880714 0
M  V30 6440 C 612.218 2.99649 1.62553 0
M  V30 6441 H 613.411 2.99343 -0.182677 0
M  V30 6442 H 610.964 1.55736 -0.132618 0
M  V30 6443 H 611.699 2.29395 2.29235 0
M  V30 6444 H 611.484 3.72066 1.23732 0
M  V30 6445 H 612.974 3.54246 2.21133 0
M  V30 6446 N 613.412 0.11024 1.57214 0
M  V30 6447 C 614.823 -0.416527 1.81994 0
M  V30 6448 C 615.174 -1.67183 1.02686 0
M  V30 6449 O 614.299 -2.14823 0.260782 0
M  V30 6450 C 614.894 -0.762466 3.30109 0
M  V30 6451 C 613.453 -1.23391 3.556 0
M  V30 6452 C 612.6 -0.238166 2.76275 0
M  V30 6453 H 615.551 0.335491 1.55113 0
M  V30 6454 H 615.572 -1.62068 3.44259 0
M  V30 6455 H 615.084 0.151346 3.87805 0
M  V30 6456 H 613.185 -2.16492 3.03253 0
M  V30 6457 H 613.298 -1.18528 4.64207 0
M  V30 6458 H 611.662 -0.723421 2.4421 0
M  V30 6459 H 612.445 0.668591 3.36727 0
M  V30 6460 N 614.89 -1.56749 -0.16351 0
M  V30 6461 C 616.138 -1.82074 -0.87713 0
M  V30 6462 C 616.459 -0.688503 -1.82441 0
M  V30 6463 O 615.729 0.291085 -1.93725 0
M  V30 6464 H 614.309 -0.671677 -0.326893 0
M  V30 6465 H 616.971 -1.9423 -0.161459 0
M  V30 6466 H 616.067 -2.76407 -1.44934 0
M  V30 6467 N 616.368 0.432326 -1.51554 0
M  V30 6468 C 617.784 0.769195 -1.39841 0
M  V30 6469 C 617.984 1.95584 -0.484675 0
M  V30 6470 O 617.04 2.52433 0.0582829 0
M  V30 6471 C 618.353 1.04487 -2.81963 0
M  V30 6472 C 619.901 1.149 -2.91148 0
M  V30 6473 C 620.376 1.45758 -4.34187 0
M  V30 6474 N 621.867 1.52671 -4.37317 0
M  V30 6475 C 622.602 1.78129 -5.4503 0
M  V30 6476 N 622.098 2.01345 -6.62897 0
M  V30 6477 N 623.891 1.79953 -5.32516 0
M  V30 6478 H 616.042 -0.349122 -2.09511 0
M  V30 6479 H 618.305 -0.0938113 -0.943347 0
M  V30 6480 H 618.011 0.24557 -3.50842 0
M  V30 6481 H 617.885 1.97119 -3.21596 0
M  V30 6482 H 620.272 1.93891 -2.22464 0
M  V30 6483 H 620.353 0.201568 -2.55005 0
M  V30 6484 H 619.997 0.672917 -5.03423 0
M  V30 6485 H 619.927 2.41715 -4.67848 0
M  V30 6486 H 622.418 1.36612 -3.52343 0
M  V30 6487 H 622.731 2.20155 -7.40778 0
M  V30 6488 H 621.076 1.98657 -6.66003 0
M  V30 6489 H 624.267 1.61337 -4.39418 0
M  V30 6490 H 624.44 1.99455 -6.1654 0
M  V30 6491 N 617.846 1.41785 0.688094 0
M  V30 6492 C 618.809 1.43936 1.78368 0
M  V30 6493 C 619.809 0.328866 1.57401 0
M  V30 6494 O 620.999 0.589093 1.63937 0
M  V30 6495 C 618.131 1.25804 3.16838 0
M  V30 6496 H 619.324 2.41472 1.77852 0
M  V30 6497 H 616.877 1.28037 0.896448 0
M  V30 6498 H 617.612 0.291386 3.22988 0
M  V30 6499 H 617.397 2.06272 3.33458 0
M  V30 6500 H 618.887 1.30162 3.96797 0
M  V30 6501 N 619.324 -0.923095 1.27737 0
M  V30 6502 C 620.57 -1.67409 1.15524 0
M  V30 6503 C 620.925 -1.90124 -0.295072 0
M  V30 6504 O 620.218 -1.48382 -1.21216 0
M  V30 6505 C 620.412 -3.04125 1.8773 0
M  V30 6506 C 620.241 -2.94752 3.39634 0
M  V30 6507 C 619.011 -2.96783 4.0896 0
M  V30 6508 C 621.209 -2.73524 4.35533 0
M  V30 6509 N 619.191 -2.779 5.47398 0
M  V30 6510 C 620.562 -2.63391 5.61271 0
M  V30 6511 C 622.617 -2.58447 4.2557 0
M  V30 6512 C 621.32 -2.3972 6.78179 0
M  V30 6513 C 623.346 -2.36154 5.42204 0
M  V30 6514 C 622.708 -2.26768 6.669 0
M  V30 6515 H 618.807 -0.619196 0.477619 0
M  V30 6516 H 621.391 -1.09094 1.61266 0
M  V30 6517 H 619.562 -3.60545 1.44436 0
M  V30 6518 H 621.294 -3.6819 1.67982 0
M  V30 6519 H 618.049 -3.07186 3.60463 0
M  V30 6520 H 618.473 -2.71576 6.20141 0
M  V30 6521 H 623.115 -2.6446 3.2988 0
M  V30 6522 H 620.833 -2.32447 7.73947 0
M  V30 6523 H 624.419 -2.25367 5.36378 0
M  V30 6524 H 623.299 -2.09751 7.55628 0
M  V30 6525 N 620.802 -1.09834 -1.13024 0
M  V30 6526 C 622.05 -0.835297 -1.8403 0
M  V30 6527 C 622.371 0.640944 -1.84165 0
M  V30 6528 O 621.641 1.46517 -1.30037 0
M  V30 6529 H 620.221 -0.306018 -0.681441 0
M  V30 6530 H 622.883 -1.38734 -1.36891 0
M  V30 6531 H 621.979 -1.19258 -2.88416 0
M  V30 6532 N 622.28 1.30327 -0.886154 0
M  V30 6533 C 623.696 1.48676 -0.580323 0
M  V30 6534 C 623.896 1.81189 0.881639 0
M  V30 6535 O 622.952 1.90021 1.66278 0
M  V30 6536 C 624.265 2.60932 -1.49449 0
M  V30 6537 C 625.813 2.74812 -1.49824 0
M  V30 6538 C 626.288 3.90183 -2.39836 0
M  V30 6539 N 627.779 3.97495 -2.37806 0
M  V30 6540 C 628.514 4.86078 -3.04165 0
M  V30 6541 N 628.01 5.79448 -3.79753 0
M  V30 6542 N 629.803 4.79456 -2.93391 0
M  V30 6543 H 621.954 1.07495 -1.8319 0
M  V30 6544 H 624.217 0.532661 -0.784204 0
M  V30 6545 H 623.923 2.43731 -2.5355 0
M  V30 6546 H 623.797 3.57437 -1.20494 0
M  V30 6547 H 626.184 2.91418 -0.464731 0
M  V30 6548 H 626.265 1.78924 -1.82811 0
M  V30 6549 H 625.909 3.74334 -3.43273 0
M  V30 6550 H 625.839 4.85411 -2.04166 0
M  V30 6551 H 628.33 3.30703 -1.82877 0
M  V30 6552 H 628.643 6.43805 -4.27475 0
M  V30 6553 H 626.988 5.79376 -3.8386 0
M  V30 6554 H 630.179 4.05494 -2.33864 0
M  V30 6555 H 630.352 5.48283 -3.45383 0
M  V30 6556 N 623.758 0.647228 1.43697 0
M  V30 6557 C 624.69 -0.0866232 2.29036 0
M  V30 6558 C 625.703 -0.793051 1.42178 0
M  V30 6559 O 626.892 -0.651807 1.66174 0
M  V30 6560 C 623.992 -1.14552 3.18953 0
M  V30 6561 C 623.165 -0.518422 4.34317 0
M  V30 6562 C 622.224 -1.4734 5.05151 0
M  V30 6563 O 621.25 -0.984312 5.60625 0
M  V30 6564 N 622.452 -2.8075 5.08094 0
M  V30 6565 H 625.217 0.645834 2.92659 0
M  V30 6566 H 622.778 0.489567 1.54321 0
M  V30 6567 H 624.77 -1.78505 3.63205 0
M  V30 6568 H 623.34 -1.78001 2.56971 0
M  V30 6569 H 622.56 0.300079 3.93056 0
M  V30 6570 H 623.848 -0.080401 5.08736 0
M  V30 6571 H 623.246 -3.23052 4.64386 0
M  V30 6572 H 621.803 -3.40022 5.56083 0
M  V30 6573 N 625.236 -1.5273 0.388769 0
M  V30 6574 C 626.652 -1.59553 0.0387049 0
M  V30 6575 C 626.852 -1.40278 -1.44652 0
M  V30 6576 O 625.908 -1.21951 -2.21098 0
M  V30 6577 C 627.221 -2.9625 0.515409 0
M  V30 6578 C 628.769 -3.09426 0.471621 0
M  V30 6579 C 629.244 -4.48572 0.924505 0
M  V30 6580 N 630.735 -4.54754 0.880496 0
M  V30 6581 C 631.47 -5.60653 1.20234 0
M  V30 6582 N 630.966 -6.74198 1.59463 0
M  V30 6583 N 632.759 -5.50755 1.12363 0
M  V30 6584 H 624.91 -1.63508 1.35569 0
M  V30 6585 H 627.173 -0.768097 0.555636 0
M  V30 6586 H 626.879 -3.15569 1.5527 0
M  V30 6587 H 626.753 -3.77102 -0.085792 0
M  V30 6588 H 629.14 -2.89804 -0.556588 0
M  V30 6589 H 629.221 -2.30528 1.10862 0
M  V30 6590 H 628.865 -4.68936 1.95094 0
M  V30 6591 H 628.795 -5.25935 0.264524 0
M  V30 6592 H 631.286 -3.73237 0.591815 0
M  V30 6593 H 631.599 -7.5097 1.82385 0
M  V30 6594 H 629.944 -6.75531 1.63349 0
M  V30 6595 H 633.135 -4.6093 0.816169 0
M  V30 6596 H 633.308 -6.33184 1.37777 0
M  V30 6597 N 626.714 -0.118576 -1.57153 0
M  V30 6598 C 627.644 0.828436 -2.1831 0
M  V30 6599 C 628.625 1.27758 -1.12303 0
M  V30 6600 O 629.81 1.34026 -1.40537 0
M  V30 6601 C 626.94 2.07876 -2.78217 0
M  V30 6602 C 625.894 1.76742 -3.89803 0
M  V30 6603 C 625.22 3.08801 -4.36516 0
M  V30 6604 C 626.52 1.03606 -5.11921 0
M  V30 6605 H 628.214 0.318824 -2.97698 0
M  V30 6606 H 625.76 0.151911 -1.43196 0
M  V30 6607 H 627.713 2.74584 -3.19659 0
M  V30 6608 H 626.437 2.61161 -1.96118 0
M  V30 6609 H 625.096 1.12424 -3.48936 0
M  V30 6610 H 624.744 3.6002 -3.51276 0
M  V30 6611 H 624.444 2.88743 -5.11763 0
M  V30 6612 H 625.968 3.76627 -4.80608 0
M  V30 6613 H 627.382 1.60467 -5.50385 0
M  V30 6614 H 625.779 0.936454 -5.92748 0
M  V30 6615 H 626.849 0.0227421 -4.84895 0
M  V30 6616 N 628.193 1.56834 0.155195 0
M  V30 6617 C 629.123 2.00678 1.19376 0
M  V30 6618 C 630.104 0.884973 1.45266 0
M  V30 6619 O 631.289 1.1522 1.56326 0
M  V30 6620 C 628.419 2.38042 2.5289 0
M  V30 6621 C 627.373 3.53332 2.41538 0
M  V30 6622 C 626.699 3.76485 3.79688 0
M  V30 6623 C 627.999 4.86265 1.9064 0
M  V30 6624 H 629.693 2.87688 0.829232 0
M  V30 6625 H 627.239 1.38407 0.397445 0
M  V30 6626 H 629.192 2.67314 3.25763 0
M  V30 6627 H 627.916 1.4796 2.91162 0
M  V30 6628 H 626.575 3.24213 1.71117 0
M  V30 6629 H 626.223 2.83667 4.15382 0
M  V30 6630 H 625.923 4.54068 3.72956 0
M  V30 6631 H 627.447 4.08174 4.54122 0
M  V30 6632 H 628.861 5.14308 2.53299 0
M  V30 6633 H 627.258 5.67597 1.94818 0
M  V30 6634 H 628.328 4.77184 0.861596 0
M  V30 6635 N 629.671 -0.424282 1.51781 0
M  V30 6636 C 630.603 -1.53457 1.70246 0
M  V30 6637 C 631.616 -1.52004 0.582967 0
M  V30 6638 O 632.805 -1.56544 0.857683 0
M  V30 6639 C 629.905 -2.92368 1.71389 0
M  V30 6640 C 629.078 -3.1818 3.00133 0
M  V30 6641 C 628.137 -4.36884 2.9329 0
M  V30 6642 O 627.163 -4.34901 3.67219 0
M  V30 6643 N 628.365 -5.4117 2.10036 0
M  V30 6644 H 631.13 -1.38017 2.66029 0
M  V30 6645 H 628.691 -0.613394 1.4983 0
M  V30 6646 H 630.683 -3.6982 1.64362 0
M  V30 6647 H 629.253 -3.0134 0.831449 0
M  V30 6648 H 628.473 -2.28908 3.20928 0
M  V30 6649 H 629.761 -3.32261 3.85331 0
M  V30 6650 H 629.159 -5.45623 1.49373 0
M  V30 6651 H 627.716 -6.17425 2.08878 0
M  V30 6652 N 631.149 -1.42148 -0.680565 0
M  V30 6653 C 632.426 -1.32795 -1.43614 0
M  V30 6654 C 632.806 0.037415 -2.11067 0
M  V30 6655 O 632.154 1.05258 -2.02813 0
M  V30 6656 C 632.364 -2.49206 -2.44331 0
M  V30 6657 C 633.712 -2.91059 -3.09144 0
M  V30 6658 O 634.736 -2.49054 -2.54657 0
M  V30 6659 O 633.595 -3.63741 -4.07866 0
M  V30 6660 H 630.689 -0.523397 -0.640301 0
M  V30 6661 H 633.235 -1.54144 -0.709775 0
M  V30 6662 H 632.007 -3.40252 -1.93247 0
M  V30 6663 H 631.63 -2.29813 -3.24456 0
M  V30 6664 N 632.627 0.916307 -1.28225 0
M  V30 6665 C 634.043 1.19425 -1.05876 0
M  V30 6666 C 634.243 2.005 0.2005 0
M  V30 6667 O 633.299 2.35806 0.902873 0
M  V30 6668 C 634.612 1.93133 -2.30478 0
M  V30 6669 C 636.16 2.06026 -2.35632 0
M  V30 6670 C 636.635 2.83141 -3.59994 0
M  V30 6671 N 638.126 2.90704 -3.60618 0
M  V30 6672 C 638.861 3.50865 -4.53521 0
M  V30 6673 N 638.357 4.12327 -5.56739 0
M  V30 6674 N 640.15 3.48379 -4.41122 0
M  V30 6675 H 632.301 0.37496 -2.09064 0
M  V30 6676 H 634.564 0.228531 -0.920042 0
M  V30 6677 H 634.27 1.40985 -3.22205 0
M  V30 6678 H 634.144 2.93696 -2.36691 0
M  V30 6679 H 636.531 2.57355 -1.44404 0
M  V30 6680 H 636.612 1.04647 -2.33415 0
M  V30 6681 H 636.256 2.32492 -4.51564 0
M  V30 6682 H 636.186 3.84829 -3.59464 0
M  V30 6683 H 638.677 2.47034 -2.85977 0
M  V30 6684 H 638.99 4.56205 -6.23776 0
M  V30 6685 H 637.335 4.10839 -5.60568 0
M  V30 6686 H 640.526 2.99572 -3.59686 0
M  V30 6687 H 640.699 3.94974 -5.13712 0
M  V30 6688 N 634.105 1.10431 1.1244 0
M  V30 6689 C 635.035 0.775143 2.20258 0
M  V30 6690 C 636.016 -0.25186 1.68225 0
M  V30 6691 O 637.201 -0.117637 1.93843 0
M  V30 6692 C 634.331 0.206133 3.46688 0
M  V30 6693 C 633.285 1.16382 4.11873 0
M  V30 6694 C 632.611 0.456014 5.32752 0
M  V30 6695 C 633.911 2.5104 4.58013 0
M  V30 6696 H 635.605 1.67665 2.4805 0
M  V30 6697 H 633.151 0.807595 1.19222 0
M  V30 6698 H 635.104 -0.036291 4.21384 0
M  V30 6699 H 633.828 -0.730614 3.18323 0
M  V30 6700 H 632.487 1.39169 3.39157 0
M  V30 6701 H 632.135 -0.485203 5.00654 0
M  V30 6702 H 631.835 1.09466 5.77314 0
M  V30 6703 H 633.359 0.222135 6.10196 0
M  V30 6704 H 634.773 2.32401 5.24083 0
M  V30 6705 H 633.17 3.10789 5.13352 0
M  V30 6706 H 634.24 3.11039 3.71998 0
M  V30 6707 N 635.583 -1.29855 0.893053 0
M  V30 6708 C 636.829 -1.96116 0.516349 0
M  V30 6709 C 637.162 -1.70281 -0.933695 0
M  V30 6710 O 636.437 -1.01205 -1.66096 0
M  V30 6711 C 636.72 -3.51068 0.801455 0
M  V30 6712 C 636.573 -3.86387 2.30272 0
M  V30 6713 C 637.892 -4.39186 0.283423 0
M  V30 6714 H 635.011 -0.712335 0.189072 0
M  V30 6715 H 637.653 -1.53587 1.11852 0
M  V30 6716 H 635.803 -3.87424 0.288949 0
M  V30 6717 H 637.475 -3.60012 2.88425 0
M  V30 6718 H 635.718 -3.34167 2.76613 0
M  V30 6719 H 636.389 -4.94512 2.45279 0
M  V30 6720 H 638.865 -4.09785 0.722187 0
M  V30 6721 H 637.741 -5.46505 0.512169 0
M  V30 6722 H 638.002 -4.34511 -0.815643 0
M  V30 6723 N 637.061 -0.65484 -1.43351 0
M  V30 6724 C 638.286 -0.175046 -2.0666 0
M  V30 6725 C 638.711 1.15104 -1.4877 0
M  V30 6726 O 638.069 1.71144 -0.598279 0
M  V30 6727 C 638.117 -0.0991544 -3.60464 0
M  V30 6728 O 637.221 0.938169 -4.01587 0
M  V30 6729 H 636.562 -0.0956148 -0.65708 0
M  V30 6730 H 639.092 -0.898222 -1.83829 0
M  V30 6731 H 639.102 0.083632 -4.07914 0
M  V30 6732 H 637.777 -1.06719 -4.01975 0
M  V30 6733 H 636.354 0.72804 -3.65724 0
M  V30 6734 N 638.539 1.52521 -0.396863 0
M  V30 6735 C 639.785 2.01971 0.183169 0
M  V30 6736 C 640.118 1.2825 1.45827 0
M  V30 6737 O 639.393 0.385179 1.90648 0
M  V30 6738 C 639.676 3.5736 0.443391 0
M  V30 6739 C 639.529 4.41743 -0.84753 0
M  V30 6740 C 640.848 4.22539 1.2308 0
M  V30 6741 H 637.967 0.734119 0.0650976 0
M  V30 6742 H 640.609 1.82519 -0.527918 0
M  V30 6743 H 638.759 3.74066 1.04914 0
M  V30 6744 H 640.431 4.36773 -1.48414 0
M  V30 6745 H 638.674 4.0845 -1.4612 0
M  V30 6746 H 639.345 5.48507 -0.620003 0
M  V30 6747 H 641.821 4.09857 0.718084 0
M  V30 6748 H 640.697 5.31227 1.38162 0
M  V30 6749 H 640.958 3.80675 2.24808 0
M  V30 6750 N 640.017 0.126909 1.57088 0
M  V30 6751 C 641.433 -0.229641 1.57939 0
M  V30 6752 C 641.633 -1.66145 1.1401 0
M  V30 6753 O 640.689 -2.3843 0.831119 0
M  V30 6754 C 642.002 0.0108648 3.00698 0
M  V30 6755 C 643.55 -0.054418 3.12953 0
M  V30 6756 C 644.025 0.158497 4.57726 0
M  V30 6757 N 645.516 0.104735 4.63082 0
M  V30 6758 C 646.251 0.24427 5.72879 0
M  V30 6759 N 645.747 0.440415 6.91399 0
M  V30 6760 N 647.54 0.183286 5.61801 0
M  V30 6761 H 639.691 1.06203 1.83942 0
M  V30 6762 H 641.954 0.418834 0.85046 0
M  V30 6763 H 641.66 1.00102 3.37154 0
M  V30 6764 H 641.534 -0.717512 3.70313 0
M  V30 6765 H 643.921 -1.0351 2.7635 0
M  V30 6766 H 644.002 0.705967 2.45865 0
M  V30 6767 H 643.646 1.13619 4.95028 0
M  V30 6768 H 643.576 -0.62197 5.22914 0
M  V30 6769 H 646.067 -0.0430298 3.77876 0
M  V30 6770 H 646.38 0.537536 7.70928 0
M  V30 6771 H 644.725 0.476488 6.93365 0
M  V30 6772 H 647.916 0.0309561 4.6809 0
M  V30 6773 H 648.089 0.295471 6.47326 0
M  V30 6774 N 641.495 -1.56914 -0.146875 0
M  V30 6775 C 642.458 -1.97368 -1.16526 0
M  V30 6776 C 643.458 -0.860223 -1.35856 0
M  V30 6777 O 644.648 -1.12684 -1.32846 0
M  V30 6778 C 641.78 -2.28974 -2.52555 0
M  V30 6779 H 642.973 -2.88523 -0.818209 0
M  V30 6780 H 640.526 -1.5135 -0.390221 0
M  V30 6781 H 641.261 -1.40611 -2.92231 0
M  V30 6782 H 641.046 -3.10157 -2.39886 0
M  V30 6783 H 642.536 -2.61109 -3.25902 0
M  V30 6784 N 642.974 0.416227 -1.52004 0
M  V30 6785 C 644.202 1.18573 -1.69553 0
M  V30 6786 C 644.617 1.84472 -0.401919 0
M  V30 6787 O 643.974 1.71593 0.621463 0
M  V30 6788 C 644.025 2.25413 -2.82615 0
M  V30 6789 O 643.746 1.62205 -4.06966 0
M  V30 6790 C 645.247 3.15297 -3.11613 0
M  V30 6791 H 642.467 0.356582 -0.56841 0
M  V30 6792 H 645.011 0.490618 -1.98528 0
M  V30 6793 H 643.166 2.90604 -2.56179 0
M  V30 6794 H 643.58 2.3298 -4.69916 0
M  V30 6795 H 645.054 3.86351 -3.94255 0
M  V30 6796 H 645.531 3.77264 -2.24874 0
M  V30 6797 H 646.137 2.55783 -3.39787 0
M  V30 6798 N 644.452 1.42507 0.673017 0
M  V30 6799 C 645.382 1.48916 1.79851 0
M  V30 6800 C 646.363 0.345566 1.66553 0
M  V30 6801 O 647.548 0.560116 1.85947 0
M  V30 6802 C 644.678 1.39258 3.18158 0
M  V30 6803 C 643.632 2.51662 3.46194 0
M  V30 6804 C 642.958 2.27062 4.84094 0
M  V30 6805 C 644.258 3.93968 3.42909 0
M  V30 6806 H 645.952 2.43114 1.74745 0
M  V30 6807 H 643.498 1.17013 0.839288 0
M  V30 6808 H 645.451 1.42349 3.96629 0
M  V30 6809 H 644.175 0.415542 3.23946 0
M  V30 6810 H 642.834 2.47891 2.70084 0
M  V30 6811 H 642.482 1.27648 4.86534 0
M  V30 6812 H 642.182 3.02398 5.03815 0
M  V30 6813 H 643.706 2.31905 5.64847 0
M  V30 6814 H 645.12 3.99332 4.11347 0
M  V30 6815 H 643.517 4.6917 3.74165 0
M  V30 6816 H 644.587 4.20512 2.41449 0
M  V30 6817 N 645.93 -0.909495 1.28709 0
M  V30 6818 C 647.17 -1.67344 1.17368 0
M  V30 6819 C 647.534 -1.90058 -0.272419 0
M  V30 6820 O 648.735 -2.63944 -0.508617 0
M  V30 6821 C 647.006 -2.99219 1.95455 0
M  V30 6822 S 648.565 -3.90295 2.00538 0
M  V30 6823 H 645.383 -0.57466 0.418672 0
M  V30 6824 H 647.985 -1.08144 1.62865 0
M  V30 6825 H 646.689 -2.80393 2.9968 0
M  V30 6826 H 646.22 -3.63464 1.50524 0
M  V30 6827 H 648.235 -4.83511 1.11496 0
M  V30 6828 N 647.408 -1.11026 -1.11852 0
M  V30 6829 C 648.358 -0.733836 -2.15868 0
M  V30 6830 C 649.342 0.26001 -1.58785 0
M  V30 6831 O 650.534 0.0677901 -1.7687 0
M  V30 6832 C 647.663 -0.173948 -3.42859 0
M  V30 6833 C 646.749 -1.1952 -4.0691 0
M  V30 6834 N 647.14 -2.38797 -4.45881 0
M  V30 6835 C 645.438 -1.03714 -4.33773 0
M  V30 6836 C 646.139 -3.03894 -4.96007 0
M  V30 6837 N 645.115 -2.31389 -4.91894 0
M  V30 6838 H 648.917 -1.64171 -2.43773 0
M  V30 6839 H 646.431 -0.988877 -1.28822 0
M  V30 6840 H 648.428 0.113836 -4.16745 0
M  V30 6841 H 647.088 0.728568 -3.16421 0
M  V30 6842 H 648.099 -2.76281 -4.38051 0
M  V30 6843 H 644.776 -0.190694 -4.17064 0
M  V30 6844 H 646.166 -4.05389 -5.35826 0
M  V30 6845 N 648.886 1.2938 -0.899927 0
M  V30 6846 C 649.816 2.30144 -0.39446 0
M  V30 6847 C 650.797 1.61611 0.530639 0
M  V30 6848 O 651.982 1.89119 0.441319 0
M  V30 6849 C 649.112 3.45229 0.37868 0
M  V30 6850 C 648.066 4.25564 -0.456012 0
M  V30 6851 C 647.392 5.32848 0.444637 0
M  V30 6852 C 648.692 4.93651 -1.70605 0
M  V30 6853 H 650.386 2.72673 -1.23653 0
M  V30 6854 H 647.932 1.31086 -0.596034 0
M  V30 6855 H 649.885 4.14797 0.743037 0
M  V30 6856 H 648.609 3.01545 1.25453 0
M  V30 6857 H 647.268 3.57704 -0.802704 0
M  V30 6858 H 646.916 4.85408 1.31863 0
M  V30 6859 H 646.616 5.87497 -0.110154 0
M  V30 6860 H 648.14 6.05268 0.805182 0
M  V30 6861 H 649.554 5.55655 -1.41141 0
M  V30 6862 H 647.951 5.58233 -2.20217 0
M  V30 6863 H 649.021 4.18926 -2.4419 0
M  V30 6864 N 650.364 0.662433 1.43002 0
M  V30 6865 C 651.592 0.187615 2.06048 0
M  V30 6866 C 652.007 -1.15039 1.49705 0
M  V30 6867 O 651.364 -1.71209 0.631956 0
M  V30 6868 C 651.415 0.100498 3.6136 0
M  V30 6869 O 651.136 1.38562 4.15611 0
M  V30 6870 C 652.637 -0.399298 4.41498 0
M  V30 6871 H 649.857 0.0941675 0.664359 0
M  V30 6872 H 652.401 0.905681 1.83351 0
M  V30 6873 H 650.556 -0.568181 3.83211 0
M  V30 6874 H 650.97 1.25084 5.09366 0
M  V30 6875 H 652.444 -0.409187 5.50481 0
M  V30 6876 H 652.921 -1.43232 4.15188 0
M  V30 6877 H 653.527 0.23721 4.24638 0
M  V30 6878 N 651.842 -1.52309 0.404946 0
M  V30 6879 C 652.774 -2.24579 -0.45791 0
M  V30 6880 C 653.787 -1.2739 -1.01369 0
M  V30 6881 O 654.976 -1.53363 -0.91335 0
M  V30 6882 C 652.076 -2.9608 -1.64893 0
M  V30 6883 C 651.249 -4.20106 -1.21777 0
M  V30 6884 C 650.308 -4.74468 -2.27523 0
M  V30 6885 O 649.334 -5.37157 -1.88285 0
M  V30 6886 N 650.536 -4.55678 -3.59635 0
M  V30 6887 H 653.301 -2.99265 0.161341 0
M  V30 6888 H 650.862 -1.60228 0.232107 0
M  V30 6889 H 652.854 -3.29344 -2.35191 0
M  V30 6890 H 651.424 -2.24606 -2.17419 0
M  V30 6891 H 650.644 -3.92704 -0.343071 0
M  V30 6892 H 651.932 -5.00658 -0.906596 0
M  V30 6893 H 651.33 -4.05673 -3.94266 0
M  V30 6894 H 649.887 -4.9339 -4.25922 0
M  V30 6895 N 653.32 -0.135238 -1.57019 0
M  V30 6896 C 654.23 0.822226 -2.19719 0
M  V30 6897 C 655.246 1.28057 -1.17802 0
M  V30 6898 O 656.422 1.3402 -1.50335 0
M  V30 6899 C 653.487 2.0484 -2.79717 0
M  V30 6900 C 652.548 1.64042 -3.96723 0
M  V30 6901 C 651.781 2.80814 -4.53849 0
M  V30 6902 O 652.004 3.967 -4.0986 0
M  V30 6903 O 650.938 2.56963 -5.44292 0
M  V30 6904 H 654.764 0.318552 -3.02025 0
M  V30 6905 H 652.349 0.0912021 -1.49121 0
M  V30 6906 H 654.231 2.76622 -3.17897 0
M  V30 6907 H 652.906 2.54182 -2.00432 0
M  V30 6908 H 651.813 0.893182 -3.63281 0
M  V30 6909 H 653.146 1.19426 -4.77492 0
M  V30 6910 N 654.798 1.5699 0.138552 0
M  V30 6911 C 656.214 1.51844 0.491472 0
M  V30 6912 C 656.414 0.845063 1.82923 0
M  V30 6913 O 655.47 0.419143 2.48997 0
M  V30 6914 C 656.783 2.96615 0.493987 0
M  V30 6915 C 658.331 3.076 0.578913 0
M  V30 6916 C 658.806 4.53893 0.612009 0
M  V30 6917 N 660.297 4.5827 0.673997 0
M  V30 6918 C 661.032 5.68852 0.720729 0
M  V30 6919 N 660.528 6.88982 0.726292 0
M  V30 6920 N 662.321 5.56908 0.762253 0
M  V30 6921 H 654.472 1.99158 -0.738228 0
M  V30 6922 H 656.735 0.908693 -0.270149 0
M  V30 6923 H 656.441 3.49172 -0.420933 0
M  V30 6924 H 656.315 3.53017 1.32887 0
M  V30 6925 H 658.702 2.55057 1.48425 0
M  V30 6926 H 658.783 2.54227 -0.283286 0
M  V30 6927 H 658.427 5.07076 -0.289208 0
M  V30 6928 H 658.357 5.05057 1.49082 0
M  V30 6929 H 660.848 3.71793 0.676654 0
M  V30 6930 H 661.161 7.69014 0.764032 0
M  V30 6931 H 659.506 6.91526 0.69403 0
M  V30 6932 H 662.697 4.61969 0.755135 0
M  V30 6933 H 662.87 6.43102 0.795207 0
M  V30 6934 N 656.276 -0.40816 1.52223 0
M  V30 6935 C 657.186 -1.52202 1.78526 0
M  V30 6936 C 658.202 -1.60546 0.670892 0
M  V30 6937 O 659.378 -1.77242 0.956404 0
M  V30 6938 C 656.443 -2.87928 1.93128 0
M  V30 6939 C 655.504 -2.89463 3.17033 0
M  V30 6940 C 654.737 -4.18715 3.30929 0
M  V30 6941 O 654.96 -5.12662 2.50067 0
M  V30 6942 O 653.894 -4.27125 4.24084 0
M  V30 6943 H 657.72 -1.32911 2.73072 0
M  V30 6944 H 655.305 -0.594112 1.37079 0
M  V30 6945 H 657.187 -3.68426 2.04549 0
M  V30 6946 H 655.862 -3.07285 1.01772 0
M  V30 6947 H 654.769 -2.07815 3.11069 0
M  V30 6948 H 656.102 -2.75055 4.08174 0
M  V30 6949 N 657.755 -1.42862 -0.66545 0
M  V30 6950 C 659.171 -1.25993 -0.979687 0
M  V30 6951 C 659.371 -0.170831 -2.00775 0
M  V30 6952 O 658.427 0.454827 -2.4837 0
M  V30 6953 C 659.74 -2.62005 -1.47559 0
M  V30 6954 C 661.288 -2.69437 -1.59288 0
M  V30 6955 C 661.763 -4.05838 -2.12272 0
M  V30 6956 N 663.254 -4.0784 -2.19592 0
M  V30 6957 C 663.989 -5.10205 -2.61684 0
M  V30 6958 N 663.485 -6.22949 -3.03161 0
M  V30 6959 N 665.278 -4.9756 -2.61516 0
M  V30 6960 H 657.429 -2.12395 0.0150493 0
M  V30 6961 H 659.692 -0.946355 -0.0558187 0
M  V30 6962 H 659.398 -3.42605 -0.794654 0
M  V30 6963 H 659.272 -2.86566 -2.45275 0
M  V30 6964 H 661.659 -1.89178 -2.26486 0
M  V30 6965 H 661.74 -2.48655 -0.600374 0
M  V30 6966 H 661.384 -4.86559 -1.4568 0
M  V30 6967 H 661.314 -4.23977 -3.12331 0
M  V30 6968 H 663.805 -3.26452 -1.90361 0
M  V30 6969 H 664.118 -6.96899 -3.33993 0
M  V30 6970 H 662.463 -6.2644 -3.00995 0
M  V30 6971 H 665.654 -4.08551 -2.28481 0
M  V30 6972 H 665.827 -5.77468 -2.93999 0
M  V30 6973 N 659.233 0.902656 -1.29189 0
M  V30 6974 C 660.479 1.65532 -1.17163 0
M  V30 6975 C 660.812 1.92216 0.276879 0
M  V30 6976 O 660.087 1.53048 1.20027 0
M  V30 6977 C 660.37 3.00629 -1.98228 0
M  V30 6978 C 660.223 2.81029 -3.51202 0
M  V30 6979 C 661.542 4.01321 -1.80635 0
M  V30 6980 H 658.661 0.60071 -0.426985 0
M  V30 6981 H 661.303 1.04578 -1.5863 0
M  V30 6982 H 659.453 3.52656 -1.62991 0
M  V30 6983 H 661.125 2.35927 -3.96404 0
M  V30 6984 H 659.368 2.1587 -3.76275 0
M  V30 6985 H 660.039 3.77014 -4.03192 0
M  V30 6986 H 662.515 3.58394 -2.11406 0
M  V30 6987 H 661.391 4.93792 -2.3971 0
M  V30 6988 H 661.652 4.35505 -0.760754 0
M  V30 6989 N 660.711 1.11618 1.11262 0
M  V30 6990 C 661.957 0.877377 1.83504 0
M  V30 6991 C 662.312 -0.590606 1.83111 0
M  V30 6992 O 661.605 -1.43057 1.27456 0
M  V30 6993 C 661.799 1.37529 3.2988 0
M  V30 6994 C 661.628 2.89014 3.4453 0
M  V30 6995 C 660.398 3.57157 3.57445 0
M  V30 6996 C 662.596 3.8706 3.38658 0
M  V30 6997 N 660.578 4.96842 3.60585 0
M  V30 6998 C 661.949 5.12825 3.4844 0
M  V30 6999 C 664.004 3.79593 3.22201 0
M  V30 7000 C 662.707 6.32002 3.43462 0
M  V30 7001 C 664.733 4.98282 3.18542 0
M  V30 7002 C 664.095 6.22901 3.28897 0
M  V30 7003 H 660.194 0.37422 0.686646 0
M  V30 7004 H 662.778 1.42087 1.33114 0
M  V30 7005 H 660.949 0.85895 3.78783 0
M  V30 7006 H 662.681 1.07944 3.90039 0
M  V30 7007 H 659.436 3.07628 3.60086 0
M  V30 7008 H 659.86 5.69674 3.65788 0
M  V30 7009 H 664.502 2.84149 3.1308 0
M  V30 7010 H 662.22 7.27721 3.51352 0
M  V30 7011 H 665.806 4.94226 3.06972 0
M  V30 7012 H 664.686 7.13202 3.26056 0
M  V30 7013 N 662.189 -1.289 0.906776 0
M  V30 7014 C 663.466 -1.90221 0.455537 0
M  V30 7015 C 663.846 -1.82251 -1.06527 0
M  V30 7016 O 663.194 -1.25385 -1.91026 0
M  V30 7017 C 663.404 -3.35015 0.97806 0
M  V30 7018 C 664.752 -4.12018 1.02598 0
M  V30 7019 O 665.776 -3.43947 0.926218 0
M  V30 7020 O 664.635 -5.33677 1.17689 0
M  V30 7021 H 661.729 -0.814505 0.143214 0
M  V30 7022 H 664.275 -1.37317 0.997104 0
M  V30 7023 H 663.047 -3.35006 2.02204 0
M  V30 7024 H 662.67 -3.95408 0.416914 0
M  V30 7025 N 663.667 -0.670007 -1.42649 0
M  V30 7026 C 664.895 -0.19854 -2.05945 0
M  V30 7027 C 665.31 1.14243 -1.50313 0
M  V30 7028 O 664.667 1.70872 -0.641027 0
M  V30 7029 C 664.718 -0.11966 -3.61302 0
M  V30 7030 O 664.439 -1.40764 -4.1487 0
M  V30 7031 C 665.94 0.375878 -4.41704 0
M  V30 7032 H 663.16 -0.0976894 -0.663851 0
M  V30 7033 H 665.704 -0.915392 -1.82868 0
M  V30 7034 H 663.859 0.547851 -3.83507 0
M  V30 7035 H 664.273 -1.27784 -5.08696 0
M  V30 7036 H 665.747 0.379988 -5.50691 0
M  V30 7037 H 666.224 1.41028 -4.15942 0
M  V30 7038 H 666.83 -0.259727 -4.24506 0
M  V30 7039 N 665.145 1.52092 -0.413018 0
M  V30 7040 C 666.375 2.05974 0.160648 0
M  V30 7041 C 666.783 1.28267 1.39084 0
M  V30 7042 O 666.126 0.328805 1.80733 0
M  V30 7043 C 666.188 3.54918 0.572169 0
M  V30 7044 C 665.852 4.53705 -0.547826 0
M  V30 7045 C 666.849 5.00342 -1.41259 0
M  V30 7046 C 664.534 4.97089 -0.721627 0
M  V30 7047 C 666.528 5.89011 -2.43607 0
M  V30 7048 C 664.215 5.85554 -1.74841 0
M  V30 7049 C 665.213 6.3141 -2.60403 0
M  V30 7050 O 664.901 7.18123 -3.61323 0
M  V30 7051 H 664.633 0.675636 0.0221936 0
M  V30 7052 H 667.187 1.96931 -0.58373 0
M  V30 7053 H 665.417 3.61661 1.36889 0
M  V30 7054 H 667.106 3.91428 1.0742 0
M  V30 7055 H 667.872 4.67537 -1.28974 0
M  V30 7056 H 663.751 4.60954 -0.0652911 0
M  V30 7057 H 667.295 6.24725 -3.10425 0
M  V30 7058 H 663.192 6.17773 -1.87156 0
M  V30 7059 H 663.96 7.36244 -3.57613 0
M  V30 7060 N 666.623 0.143563 1.56945 0
M  V30 7061 C 667.848 -0.518701 2.00809 0
M  V30 7062 C 668.273 -1.5785 1.02298 0
M  V30 7063 O 667.631 -1.813 -0.0017839 0
M  V30 7064 C 667.679 -1.09929 3.43436 0
M  V30 7065 O 666.783 -2.21425 3.47915 0
M  V30 7066 H 666.124 -0.127215 0.6517 0
M  V30 7067 H 668.654 0.239283 2.03196 0
M  V30 7068 H 668.664 -1.4288 3.82164 0
M  V30 7069 H 667.339 -0.323162 4.14643 0
M  V30 7070 H 665.916 -1.89728 3.21026 0
M  V30 7071 N 668.101 -1.57061 -0.130224 0
M  V30 7072 C 669.349 -1.83893 -0.838313 0
M  V30 7073 C 669.67 -0.727046 -1.80939 0
M  V30 7074 O 668.94 0.249927 -1.94299 0
M  V30 7075 H 667.52 -0.67846 -0.312573 0
M  V30 7076 H 670.182 -1.94529 -0.120224 0
M  V30 7077 H 669.278 -2.79419 -1.39038 0
M  V30 7078 N 669.579 0.400081 -1.52437 0
M  V30 7079 C 670.509 1.4947 -1.7939 0
M  V30 7080 C 671.49 1.57383 -0.645329 0
M  V30 7081 O 672.675 1.72511 -0.891826 0
M  V30 7082 C 669.805 2.87201 -1.95276 0
M  V30 7083 C 668.759 2.94134 -3.10917 0
M  V30 7084 C 668.085 4.34207 -3.1204 0
M  V30 7085 C 669.385 2.64791 -4.50203 0
M  V30 7086 H 671.079 1.27165 -2.71052 0
M  V30 7087 H 668.625 0.610312 -1.30427 0
M  V30 7088 H 670.578 3.63772 -2.12715 0
M  V30 7089 H 669.302 3.10819 -1.00294 0
M  V30 7090 H 667.961 2.20009 -2.93243 0
M  V30 7091 H 667.609 4.54848 -2.14761 0
M  V30 7092 H 667.309 4.39768 -3.89715 0
M  V30 7093 H 668.833 5.127 -3.31619 0
M  V30 7094 H 670.247 3.31083 -4.68035 0
M  V30 7095 H 668.644 2.81717 -5.29864 0
M  V30 7096 H 669.714 1.60184 -4.57678 0
M  V30 7097 N 671.057 1.43213 0.657864 0
M  V30 7098 C 671.967 1.50448 1.80007 0
M  V30 7099 C 672.983 0.39191 1.69529 0
M  V30 7100 O 674.159 0.645349 1.90781 0
M  V30 7101 C 671.224 1.42062 3.16258 0
M  V30 7102 C 670.285 2.63951 3.38568 0
M  V30 7103 C 669.518 2.55956 4.68318 0
M  V30 7104 O 669.741 1.60473 5.47361 0
M  V30 7105 O 668.675 3.46378 4.92245 0
M  V30 7106 H 672.501 2.4689 1.76858 0
M  V30 7107 H 670.086 1.25163 0.81576 0
M  V30 7108 H 671.968 1.3981 3.97531 0
M  V30 7109 H 670.643 0.487524 3.20008 0
M  V30 7110 H 669.55 2.71776 2.57077 0
M  V30 7111 H 670.883 3.56217 3.39662 0
M  V30 7112 N 672.536 -0.895792 1.29666 0
M  V30 7113 C 673.468 -2.00563 1.10937 0
M  V30 7114 C 674.481 -1.62705 0.055734 0
M  V30 7115 O 675.67 -1.7595 0.300656 0
M  V30 7116 C 672.77 -3.32262 0.667448 0
M  V30 7117 C 671.943 -3.98625 1.80047 0
M  V30 7118 C 671.002 -5.08617 1.3489 0
M  V30 7119 O 670.028 -5.30837 2.05429 0
M  V30 7120 N 671.23 -5.80076 0.221937 0
M  V30 7121 H 673.995 -2.17184 2.06522 0
M  V30 7122 H 671.556 -1.06822 1.21658 0
M  V30 7123 H 673.548 -4.03196 0.348586 0
M  V30 7124 H 672.118 -3.11985 -0.196055 0
M  V30 7125 H 671.338 -3.21005 2.28801 0
M  V30 7126 H 672.626 -4.39704 2.56003 0
M  V30 7127 H 672.024 -5.64514 -0.366084 0
M  V30 7128 H 670.581 -6.51789 -0.0375346 0
M  V30 7129 N 674.014 -1.12206 -1.10668 0
M  V30 7130 C 674.924 -0.800686 -2.20513 0
M  V30 7131 C 675.94 0.209512 -1.72734 0
M  V30 7132 O 677.116 0.043705 -2.01353 0
M  V30 7133 C 674.181 -0.257353 -3.45744 0
M  V30 7134 C 673.242 -1.32718 -4.0827 0
M  V30 7135 C 672.475 -0.809674 -5.27522 0
M  V30 7136 O 672.698 0.35742 -5.69279 0
M  V30 7137 O 671.632 -1.57816 -5.80842 0
M  V30 7138 H 675.458 -1.71807 -2.50432 0
M  V30 7139 H 673.043 -0.898546 -1.19359 0
M  V30 7140 H 674.925 0.0408849 -4.2138 0
M  V30 7141 H 673.6 0.632627 -3.17458 0
M  V30 7142 H 672.507 -1.67855 -3.34329 0
M  V30 7143 H 673.84 -2.19083 -4.40753 0
M  V30 7144 N 675.492 1.28418 -0.913599 0
M  V30 7145 C 676.422 2.29713 -0.418847 0
M  V30 7146 C 677.403 1.62165 0.513469 0
M  V30 7147 O 678.588 1.89576 0.421235 0
M  V30 7148 C 675.718 3.45612 0.342042 0
M  V30 7149 C 674.672 4.25056 -0.501123 0
M  V30 7150 C 673.998 5.3329 0.388097 0
M  V30 7151 C 675.298 4.91814 -1.75831 0
M  V30 7152 H 676.992 2.71346 -1.26538 0
M  V30 7153 H 674.538 1.30446 -0.609903 0
M  V30 7154 H 676.491 4.15562 0.699 0
M  V30 7155 H 675.215 3.02858 1.22248 0
M  V30 7156 H 673.874 3.56833 -0.840598 0
M  V30 7157 H 673.522 4.8678 1.26707 0
M  V30 7158 H 673.222 5.87347 -0.172459 0
M  V30 7159 H 674.746 6.06088 0.74094 0
M  V30 7160 H 676.16 5.54126 -1.47026 0
M  V30 7161 H 674.557 5.55866 -2.26126 0
M  V30 7162 H 675.627 4.16313 -2.4862 0
M  V30 7163 N 676.97 0.677563 1.42291 0
M  V30 7164 C 678.218 0.200578 2.01102 0
M  V30 7165 C 678.539 -1.19803 1.53858 0
M  V30 7166 O 677.809 -1.80496 0.761439 0
M  V30 7167 H 676.389 0.0711634 0.743603 0
M  V30 7168 H 679.051 0.874691 1.7417 0
M  V30 7169 H 678.147 0.204 3.11433 0
M  V30 7170 N 678.448 -1.51871 0.421078 0
M  V30 7171 C 679.676 -2.06356 -0.14994 0
M  V30 7172 C 680.091 -1.29006 -1.37851 0
M  V30 7173 O 679.448 -0.345139 -1.79207 0
M  V30 7174 C 679.499 -3.58185 -0.488454 0
M  V30 7175 O 679.22 -4.32611 0.691341 0
M  V30 7176 C 680.721 -4.29129 -1.11191 0
M  V30 7177 H 677.941 -0.67083 -0.0151186 0
M  V30 7178 H 680.485 -1.95638 0.595476 0
M  V30 7179 H 678.64 -3.68871 -1.18376 0
M  V30 7180 H 679.054 -5.22927 0.405906 0
M  V30 7181 H 680.528 -5.36501 -1.29889 0
M  V30 7182 H 681.005 -3.86371 -2.0884 0
M  V30 7183 H 681.611 -4.22843 -0.456458 0
M  V30 7184 N 679.926 -0.151884 -1.56866 0
M  V30 7185 C 680.856 0.781943 -2.20018 0
M  V30 7186 C 681.837 1.25347 -1.14987 0
M  V30 7187 O 683.022 1.31015 -1.43348 0
M  V30 7188 C 680.152 2.01928 -2.82564 0
M  V30 7189 C 679.106 1.68434 -3.93464 0
M  V30 7190 C 678.432 2.99472 -4.42968 0
M  V30 7191 C 679.732 0.927244 -5.14003 0
M  V30 7192 H 681.426 0.255607 -2.98307 0
M  V30 7193 H 678.972 0.121502 -1.43486 0
M  V30 7194 H 680.925 2.67741 -3.25411 0
M  V30 7195 H 679.649 2.56943 -2.01614 0
M  V30 7196 H 678.308 1.04998 -3.51242 0
M  V30 7197 H 677.956 3.52488 -3.58834 0
M  V30 7198 H 677.656 2.77823 -5.17772 0
M  V30 7199 H 679.18 3.66348 -4.88489 0
M  V30 7200 H 680.594 1.48756 -5.53665 0
M  V30 7201 H 678.991 0.810513 -5.94601 0
M  V30 7202 H 680.061 -0.0801163 -4.84834 0
M  V30 7203 N 681.404 1.57128 0.121893 0
M  V30 7204 C 682.82 1.52357 0.47534 0
M  V30 7205 C 683.02 0.864417 1.82017 0
M  V30 7206 O 682.076 0.445529 2.48538 0
M  V30 7207 C 683.389 2.97122 0.4625 0
M  V30 7208 C 684.937 3.08196 0.546255 0
M  V30 7209 C 685.412 4.54516 0.563833 0
M  V30 7210 N 686.903 4.58959 0.625353 0
M  V30 7211 C 687.638 5.69585 0.660354 0
M  V30 7212 N 687.134 6.89714 0.653175 0
M  V30 7213 N 688.927 5.57685 0.703143 0
M  V30 7214 H 681.078 1.98364 -0.75931 0
M  V30 7215 H 683.341 0.905777 -0.279772 0
M  V30 7216 H 683.047 3.48706 -0.457943 0
M  V30 7217 H 682.921 3.54406 1.29136 0
M  V30 7218 H 685.308 2.56617 1.45712 0
M  V30 7219 H 685.389 2.53912 -0.310234 0
M  V30 7220 H 685.033 5.06741 -0.342974 0
M  V30 7221 H 684.963 5.06609 1.43716 0
M  V30 7222 H 687.454 3.72489 0.637182 0
M  V30 7223 H 687.767 7.69781 0.682425 0
M  V30 7224 H 686.112 6.92223 0.620646 0
M  V30 7225 H 689.303 4.62744 0.706095 0
M  V30 7226 H 689.476 6.43909 0.726952 0
M  V30 7227 N 682.882 -0.391992 1.52647 0
M  V30 7228 C 683.792 -1.503 1.80131 0
M  V30 7229 C 684.808 -1.59825 0.687882 0
M  V30 7230 O 685.984 -1.76218 0.975149 0
M  V30 7231 C 683.049 -2.85863 1.96171 0
M  V30 7232 C 682.11 -2.86084 3.20085 0
M  V30 7233 C 681.343 -4.15181 3.35351 0
M  V30 7234 O 681.566 -5.09981 2.55491 0
M  V30 7235 O 680.5 -4.22603 4.28591 0
M  V30 7236 H 684.326 -1.30007 2.74466 0
M  V30 7237 H 681.911 -0.579539 1.37701 0
M  V30 7238 H 683.793 -3.66236 2.08445 0
M  V30 7239 H 682.468 -3.06189 1.05025 0
M  V30 7240 H 681.375 -2.04504 3.13256 0
M  V30 7241 H 682.708 -2.7071 4.11068 0
M  V30 7242 N 684.36 -1.4356 -0.65026 0
M  V30 7243 C 685.588 -1.48779 -1.43779 0
M  V30 7244 C 686.003 -0.106593 -1.88499 0
M  V30 7245 O 685.36 0.883766 -1.59674 0
M  V30 7246 C 685.411 -2.43618 -2.67081 0
M  V30 7247 O 685.132 -3.76367 -2.24231 0
M  V30 7248 C 686.633 -2.5811 -3.60409 0
M  V30 7249 H 683.853 -0.50521 -0.441593 0
M  V30 7250 H 686.397 -1.88332 -0.796941 0
M  V30 7251 H 684.552 -2.07253 -3.273 0
M  V30 7252 H 684.966 -4.27394 -3.0403 0
M  V30 7253 H 686.44 -3.28539 -4.43583 0
M  V30 7254 H 686.917 -1.627 -4.07953 0
M  V30 7255 H 687.523 -2.95298 -3.0607 0
M  V30 7256 N 685.838 0.888903 -1.30139 0
M  V30 7257 C 686.768 2.01046 -1.18755 0
M  V30 7258 C 687.749 1.69916 -0.0791438 0
M  V30 7259 O 688.934 1.92445 -0.260498 0
M  V30 7260 C 686.064 3.36109 -0.874518 0
M  V30 7261 C 685.018 3.81486 -1.94043 0
M  V30 7262 C 684.344 5.13796 -1.48047 0
M  V30 7263 C 685.644 4.00637 -3.35093 0
M  V30 7264 H 687.338 2.10828 -2.12584 0
M  V30 7265 H 684.884 1.01298 -1.02346 0
M  V30 7266 H 686.837 4.14089 -0.781548 0
M  V30 7267 H 685.561 3.26449 0.0994519 0
M  V30 7268 H 684.22 3.05731 -2.02297 0
M  V30 7269 H 683.868 5.0056 -0.494878 0
M  V30 7270 H 683.568 5.45127 -2.19341 0
M  V30 7271 H 685.092 5.94305 -1.40121 0
M  V30 7272 H 686.506 4.69067 -3.2962 0
M  V30 7273 H 684.903 4.43339 -4.04438 0
M  V30 7274 H 685.973 3.0462 -3.77273 0
M  V30 7275 N 687.317 1.12792 1.10072 0
M  V30 7276 C 688.227 0.812369 2.20086 0
M  V30 7277 C 689.243 -0.200349 1.72843 0
M  V30 7278 O 690.419 -0.0330262 2.01373 0
M  V30 7279 C 687.484 0.275685 3.45602 0
M  V30 7280 C 686.545 1.34881 4.07561 0
M  V30 7281 C 685.778 0.837639 5.27086 0
M  V30 7282 O 686.001 -0.327224 5.69461 0
M  V30 7283 O 684.935 1.60894 5.79997 0
M  V30 7284 H 688.761 1.73133 2.49517 0
M  V30 7285 H 686.346 0.904863 1.18881 0
M  V30 7286 H 688.228 -0.0185375 4.21396 0
M  V30 7287 H 686.903 -0.615783 3.17789 0
M  V30 7288 H 685.81 1.69625 3.33434 0
M  V30 7289 H 687.143 2.21418 4.39585 0
M  V30 7290 N 688.795 -1.27931 0.920396 0
M  V30 7291 C 690.025 -1.98516 0.572256 0
M  V30 7292 C 690.433 -1.68912 -0.852375 0
M  V30 7293 O 689.776 -0.94203 -1.57707 0
M  V30 7294 C 689.838 -3.5243 0.709485 0
M  V30 7295 C 689.502 -4.0564 2.10489 0
M  V30 7296 C 690.499 -4.1897 3.07831 0
M  V30 7297 C 688.184 -4.40168 2.41986 0
M  V30 7298 C 690.178 -4.66093 4.34783 0
M  V30 7299 C 687.865 -4.86983 3.69176 0
M  V30 7300 C 688.863 -4.99903 4.65388 0
M  V30 7301 O 688.551 -5.45694 5.90316 0
M  V30 7302 H 688.283 -0.64047 0.216274 0
M  V30 7303 H 690.837 -1.6393 1.23758 0
M  V30 7304 H 689.067 -3.86698 -0.0129263 0
M  V30 7305 H 690.756 -4.04233 0.367474 0
M  V30 7306 H 691.522 -3.92562 2.84816 0
M  V30 7307 H 687.401 -4.29358 1.67846 0
M  V30 7308 H 690.945 -4.76092 5.09884 0
M  V30 7309 H 686.842 -5.12832 3.92012 0
M  V30 7310 H 687.61 -5.63965 5.932 0
M  V30 7311 N 690.273 -0.685099 -1.4193 0
M  V30 7312 C 691.203 -0.0273506 -2.33484 0
M  V30 7313 C 692.184 0.778366 -1.51246 0
M  V30 7314 O 693.369 0.733449 -1.79817 0
M  V30 7315 C 690.499 0.917272 -3.34968 0
M  V30 7316 C 689.453 0.21941 -4.27437 0
M  V30 7317 C 688.779 1.27768 -5.1921 0
M  V30 7318 C 690.079 -0.907894 -5.14349 0
M  V30 7319 H 691.773 -0.791994 -2.88735 0
M  V30 7320 H 689.319 -0.382308 -1.38832 0
M  V30 7321 H 691.272 1.38657 -3.97935 0
M  V30 7322 H 689.996 1.71346 -2.78043 0
M  V30 7323 H 688.655 -0.229757 -3.65879 0
M  V30 7324 H 688.303 2.06612 -4.58607 0
M  V30 7325 H 688.003 0.815803 -5.81909 0
M  V30 7326 H 689.527 1.7477 -5.85054 0
M  V30 7327 H 690.941 -0.519348 -5.70943 0
M  V30 7328 H 689.338 -1.2962 -5.85934 0
M  V30 7329 H 690.408 -1.75218 -4.52136 0
M  V30 7330 N 691.751 1.51645 -0.429126 0
M  V30 7331 C 692.681 2.30434 0.377148 0
M  V30 7332 C 693.662 1.35493 1.02838 0
M  V30 7333 O 694.847 1.6441 1.03359 0
M  V30 7334 C 691.977 3.14038 1.48315 0
M  V30 7335 C 690.931 4.1719 0.955855 0
M  V30 7336 C 690.257 4.89263 2.15698 0
M  V30 7337 C 691.557 5.223 -0.00402136 0
M  V30 7338 H 693.251 2.98085 -0.280336 0
M  V30 7339 H 690.797 1.43354 -0.136265 0
M  V30 7340 H 692.75 3.67933 2.05435 0
M  V30 7341 H 691.474 2.44193 2.16881 0
M  V30 7342 H 690.133 3.64335 0.406929 0
M  V30 7343 H 689.781 4.15929 2.82864 0
M  V30 7344 H 689.481 5.59009 1.81059 0
M  V30 7345 H 691.005 5.45978 2.73387 0
M  V30 7346 H 692.419 5.71315 0.476607 0
M  V30 7347 H 690.816 5.99525 -0.26258 0
M  V30 7348 H 691.886 4.75638 -0.943236 0
M  V30 7349 N 693.229 0.160201 1.56784 0
M  V30 7350 C 694.179 -0.786461 2.14007 0
M  V30 7351 C 695.163 -1.20046 1.07134 0
M  V30 7352 O 696.355 -1.16468 1.33283 0
M  V30 7353 C 693.484 -2.02024 2.77563 0
M  V30 7354 C 692.57 -1.62874 3.91578 0
M  V30 7355 N 692.961 -0.946176 4.96871 0
M  V30 7356 C 691.259 -1.92054 4.02531 0
M  V30 7357 C 691.96 -0.755084 5.76778 0
M  V30 7358 N 690.936 -1.29307 5.27997 0
M  V30 7359 H 694.738 -0.255879 2.92784 0
M  V30 7360 H 692.252 -0.0408778 1.62349 0
M  V30 7361 H 694.249 -2.70855 3.16928 0
M  V30 7362 H 692.909 -2.55587 2.00263 0
M  V30 7363 H 693.92 -0.605455 5.14349 0
M  V30 7364 H 690.597 -2.47374 3.36322 0
M  V30 7365 H 691.987 -0.216138 6.71552 0
M  V30 7366 N 694.707 -1.5719 -0.113559 0
M  V30 7367 C 695.637 -2.03772 -1.14013 0
M  V30 7368 C 696.618 -0.923176 -1.42869 0
M  V30 7369 O 697.803 -1.19325 -1.53216 0
M  V30 7370 C 694.933 -2.44663 -2.4649 0
M  V30 7371 C 693.887 -3.59612 -2.32085 0
M  V30 7372 C 693.213 -3.8642 -3.69573 0
M  V30 7373 C 694.513 -4.91149 -1.7768 0
M  V30 7374 H 696.207 -2.89785 -0.752665 0
M  V30 7375 H 693.753 -1.39412 -0.360609 0
M  V30 7376 H 695.706 -2.75857 -3.18561 0
M  V30 7377 H 694.43 -1.55628 -2.87137 0
M  V30 7378 H 693.089 -3.28636 -1.62461 0
M  V30 7379 H 692.737 -2.94581 -4.07715 0
M  V30 7380 H 692.437 -4.63797 -3.60786 0
M  V30 7381 H 693.961 -4.2007 -4.4314 0
M  V30 7382 H 695.375 -5.20843 -2.39574 0
M  V30 7383 H 693.772 -5.72562 -1.79701 0
M  V30 7384 H 694.842 -4.79301 -0.734776 0
M  V30 7385 N 696.185 0.383891 -1.52853 0
M  V30 7386 C 697.433 1.12619 -1.67814 0
M  V30 7387 C 697.754 1.90354 -0.423141 0
M  V30 7388 O 697.024 1.87649 0.562554 0
M  V30 7389 H 695.604 0.418738 -0.618601 0
M  V30 7390 H 698.266 0.43495 -1.89985 0
M  V30 7391 H 697.362 1.82624 -2.5309 0
M  V30 7392 N 697.663 1.43903 0.642637 0
M  V30 7393 C 698.888 1.49758 1.43483 0
M  V30 7394 C 699.313 0.119911 1.87717 0
M  V30 7395 O 698.671 -0.888558 1.58033 0
M  V30 7396 C 698.719 2.45744 2.63898 0
M  V30 7397 O 697.823 1.95101 3.63331 0
M  V30 7398 H 697.164 0.506138 0.429791 0
M  V30 7399 H 699.694 1.88923 0.785438 0
M  V30 7400 H 699.704 2.63399 3.11584 0
M  V30 7401 H 698.379 3.45818 2.31046 0
M  V30 7402 H 696.956 1.87158 3.22531 0
M  V30 7403 N 699.141 -0.881989 1.30609 0
M  V30 7404 C 700.552 -1.44956 1.17664 0
M  V30 7405 C 700.903 -1.94945 -0.221531 0
M  V30 7406 O 700.028 -1.85257 -1.11844 0
M  V30 7407 C 700.623 -2.63474 2.12995 0
M  V30 7408 C 699.182 -3.16312 2.04019 0
M  V30 7409 C 698.329 -1.89008 2.02907 0
M  V30 7410 H 701.28 -0.691645 1.42835 0
M  V30 7411 H 701.301 -3.39783 1.71253 0
M  V30 7412 H 700.813 -2.2706 3.14746 0
M  V30 7413 H 698.914 -3.57376 1.0542 0
M  V30 7414 H 699.027 -3.79409 2.9255 0
M  V30 7415 H 697.391 -2.07465 1.47751 0
M  V30 7416 H 698.174 -1.54848 3.06394 0
M  V30 7417 N 700.619 -1.13374 -1.09472 0
M  V30 7418 C 701.551 -0.768466 -2.15933 0
M  V30 7419 C 702.564 0.209585 -1.61445 0
M  V30 7420 O 703.753 -0.010539 -1.78497 0
M  V30 7421 C 700.853 -0.118266 -3.38694 0
M  V30 7422 C 700.026 -1.12829 -4.22597 0
M  V30 7423 C 699.085 -0.503875 -5.23782 0
M  V30 7424 O 698.111 -1.16374 -5.57177 0
M  V30 7425 N 699.313 0.724288 -5.75964 0
M  V30 7426 H 702.078 -1.68457 -2.47876 0
M  V30 7427 H 699.639 -1.02668 -1.25183 0
M  V30 7428 H 701.631 0.311698 -4.03498 0
M  V30 7429 H 700.201 0.700769 -3.04644 0
M  V30 7430 H 699.421 -1.73556 -3.53938 0
M  V30 7431 H 700.709 -1.81095 -4.75481 0
M  V30 7432 H 700.107 1.27918 -5.51048 0
M  V30 7433 H 698.664 1.09692 -6.42504 0
M  V30 7434 N 702.098 1.27442 -0.927168 0
M  V30 7435 C 703.375 1.89473 -0.485742 0
M  V30 7436 C 703.755 1.83922 1.03614 0
M  V30 7437 O 703.103 1.28409 1.89007 0
M  V30 7438 C 703.313 3.33417 -1.03123 0
M  V30 7439 C 704.661 4.10333 -1.0914 0
M  V30 7440 O 705.685 3.4243 -0.98082 0
M  V30 7441 O 704.544 5.31737 -1.26165 0
M  V30 7442 H 701.638 0.812124 -0.156154 0
M  V30 7443 H 704.184 1.35713 -1.01882 0
M  V30 7444 H 702.956 3.31747 -2.07508 0
M  V30 7445 H 702.579 3.94695 -0.479767 0
M  V30 7446 N 703.576 0.692616 1.41565 0
M  V30 7447 C 704.992 0.363878 1.55397 0
M  V30 7448 C 705.192 -1.1294 1.66874 0
M  V30 7449 O 704.248 -1.91517 1.64552 0
M  V30 7450 C 705.561 1.10982 2.7947 0
M  V30 7451 C 707.109 1.09387 2.93263 0
M  V30 7452 C 707.584 1.8215 4.20221 0
M  V30 7453 N 709.075 1.79105 4.27172 0
M  V30 7454 C 709.81 2.32247 5.2426 0
M  V30 7455 N 709.306 2.93847 6.27396 0
M  V30 7456 N 711.099 2.22519 5.1618 0
M  V30 7457 H 703.25 1.66116 1.3236 0
M  V30 7458 H 705.513 0.700848 0.63837 0
M  V30 7459 H 705.219 2.1647 2.77188 0
M  V30 7460 H 705.093 0.686492 3.709 0
M  V30 7461 H 707.48 0.0472638 2.95062 0
M  V30 7462 H 707.561 1.55623 2.03015 0
M  V30 7463 H 707.205 2.86789 4.19183 0
M  V30 7464 H 707.135 1.33351 5.09436 0
M  V30 7465 H 709.626 1.34191 3.53272 0
M  V30 7466 H 709.939 3.31972 6.97864 0
M  V30 7467 H 708.284 2.97924 6.27906 0
M  V30 7468 H 711.475 1.7407 4.34531 0
M  V30 7469 H 711.648 2.64239 5.91677 0
M  V30 7470 N 705.054 -1.51416 0.437162 0
M  V30 7471 C 706.3 -2.02386 -0.129555 0
M  V30 7472 C 706.633 -1.32071 -1.42376 0
M  V30 7473 O 705.908 -0.43559 -1.8956 0
M  V30 7474 C 706.191 -3.5841 -0.348487 0
M  V30 7475 C 706.044 -4.39341 0.964352 0
M  V30 7476 C 707.363 -4.25654 -1.11834 0
M  V30 7477 H 704.482 -0.735587 -0.0456109 0
M  V30 7478 H 707.124 -1.81055 0.576124 0
M  V30 7479 H 705.274 -3.76716 -0.949592 0
M  V30 7480 H 706.946 -4.32685 1.59942 0
M  V30 7481 H 705.189 -4.04432 1.56898 0
M  V30 7482 H 705.86 -5.4667 0.765212 0
M  V30 7483 H 708.336 -4.11617 -0.609165 0
M  V30 7484 H 707.212 -5.34704 -1.24029 0
M  V30 7485 H 707.473 -3.86502 -2.14636 0
M  V30 7486 N 706.532 -0.168513 -1.56696 0
M  V30 7487 C 707.757 0.486688 -2.01609 0
M  V30 7488 C 708.182 1.56203 -1.04796 0
M  V30 7489 O 707.54 1.8128 -0.0270596 0
M  V30 7490 C 707.588 1.04451 -3.45141 0
M  V30 7491 O 706.692 2.15862 -3.51393 0
M  V30 7492 H 706.033 0.116831 -0.653641 0
M  V30 7493 H 708.563 -0.271579 -2.0279 0
M  V30 7494 H 708.573 1.36782 -3.84389 0
M  V30 7495 H 707.248 0.257155 -4.15104 0
M  V30 7496 H 705.825 1.84597 -3.24004 0
M  V30 7497 N 708.01 1.57248 0.105221 0
M  V30 7498 C 708.973 2.00388 1.11252 0
M  V30 7499 C 709.973 0.89594 1.33527 0
M  V30 7500 O 711.163 1.16166 1.29811 0
M  V30 7501 C 708.295 2.35589 2.46395 0
M  V30 7502 H 709.488 2.90591 0.741424 0
M  V30 7503 H 707.041 1.52332 0.349956 0
M  V30 7504 H 707.776 1.4831 2.884 0
M  V30 7505 H 707.561 3.16408 2.31578 0
M  V30 7506 H 709.051 2.69658 3.18864 0
M  V30 7507 N 709.488 -0.375779 1.53054 0
M  V30 7508 C 710.42 -1.47963 1.75042 0
M  V30 7509 C 711.433 -1.50073 0.631031 0
M  V30 7510 O 712.622 -1.53736 0.907052 0
M  V30 7511 C 709.722 -2.86767 1.80604 0
M  V30 7512 C 708.895 -3.08471 3.10104 0
M  V30 7513 C 707.954 -4.27332 3.07041 0
M  V30 7514 O 706.98 -4.22998 3.80869 0
M  V30 7515 N 708.182 -5.34214 2.27147 0
M  V30 7516 H 710.947 -1.29484 2.70285 0
M  V30 7517 H 708.508 -0.565416 1.51706 0
M  V30 7518 H 710.5 -3.64404 1.76045 0
M  V30 7519 H 709.07 -2.98542 0.926897 0
M  V30 7520 H 708.29 -2.18583 3.28048 0
M  V30 7521 H 709.578 -3.19834 3.95706 0
M  V30 7522 H 708.976 -5.40594 1.66656 0
M  V30 7523 H 707.533 -6.10467 2.28415 0
M  V30 7524 N 710.966 -1.44241 -0.634997 0
M  V30 7525 C 711.898 -1.46793 -1.76024 0
M  V30 7526 C 712.911 -0.361781 -1.58729 0
M  V30 7527 O 714.1 -0.627297 -1.67114 0
M  V30 7528 C 711.2 -1.28248 -3.13697 0
M  V30 7529 C 710.373 -2.52038 -3.57485 0
M  V30 7530 C 709.432 -2.2845 -4.74022 0
M  V30 7531 O 708.458 -3.01915 -4.82531 0
M  V30 7532 N 709.66 -1.31264 -5.65464 0
M  V30 7533 H 712.425 -2.43797 -1.74307 0
M  V30 7534 H 709.986 -1.39631 -0.819438 0
M  V30 7535 H 711.978 -1.10321 -3.89373 0
M  V30 7536 H 710.548 -0.39623 -3.10079 0
M  V30 7537 H 709.768 -2.85268 -2.72059 0
M  V30 7538 H 711.056 -3.34382 -3.83492 0
M  V30 7539 H 710.454 -0.705817 -5.6128 0
M  V30 7540 H 709.011 -1.19316 -6.40786 0
M  V30 7541 N 712.444 0.87505 -1.31075 0
M  V30 7542 C 713.376 1.98773 -1.14114 0
M  V30 7543 C 714.389 1.62595 -0.0816119 0
M  V30 7544 O 715.578 1.75449 -0.32861 0
M  V30 7545 C 712.678 3.31159 -0.720224 0
M  V30 7546 C 711.851 3.9571 -1.86366 0
M  V30 7547 C 710.91 5.06407 -1.42965 0
M  V30 7548 O 709.936 5.27501 -2.13848 0
M  V30 7549 N 711.138 5.79649 -0.314194 0
M  V30 7550 H 713.903 2.1387 -2.09951 0
M  V30 7551 H 711.464 1.04873 -1.23342 0
M  V30 7552 H 713.456 4.0259 -0.412687 0
M  V30 7553 H 712.026 3.12257 0.146396 0
M  V30 7554 H 711.246 3.17324 -2.33879 0
M  V30 7555 H 712.534 4.35576 -2.62966 0
M  V30 7556 H 711.932 5.65025 0.276228 0
M  V30 7557 H 710.489 6.51766 -0.0661641 0
M  V30 7558 N 713.922 1.13953 1.08869 0
M  V30 7559 C 714.852 0.844824 2.17681 0
M  V30 7560 C 715.833 -0.198213 1.68941 0
M  V30 7561 O 717.018 -0.0559073 1.9412 0
M  V30 7562 C 714.148 0.316325 3.45856 0
M  V30 7563 C 713.102 1.29426 4.07962 0
M  V30 7564 C 712.428 0.625275 5.31031 0
M  V30 7565 C 713.728 2.65484 4.49795 0
M  V30 7566 H 715.422 1.75471 2.42591 0
M  V30 7567 H 712.968 0.845116 1.16592 0
M  V30 7568 H 714.921 0.0977876 4.21287 0
M  V30 7569 H 713.645 -0.628972 3.20486 0
M  V30 7570 H 712.304 1.49889 3.34558 0
M  V30 7571 H 711.952 -0.325678 5.01945 0
M  V30 7572 H 711.652 1.27777 5.73539 0
M  V30 7573 H 713.176 0.416152 6.0918 0
M  V30 7574 H 714.59 2.48957 5.16424 0
M  V30 7575 H 712.987 3.26963 5.03205 0
M  V30 7576 H 714.057 3.22717 3.61914 0
M  V30 7577 N 715.4 -1.26948 0.933913 0
M  V30 7578 C 716.646 -1.94716 0.587985 0
M  V30 7579 C 717.001 -1.71994 -0.862312 0
M  V30 7580 O 716.294 -1.04208 -1.60783 0
M  V30 7581 C 716.488 -3.46963 0.857406 0
M  V30 7582 C 716.317 -3.84489 2.33234 0
M  V30 7583 C 715.087 -4.07621 2.98618 0
M  V30 7584 C 717.285 -3.93602 3.31031 0
M  V30 7585 N 715.267 -4.31976 4.362 0
M  V30 7586 C 716.638 -4.22404 4.53845 0
M  V30 7587 C 718.693 -3.76201 3.26155 0
M  V30 7588 C 717.396 -4.35615 5.72391 0
M  V30 7589 C 719.422 -3.90641 4.4402 0
M  V30 7590 C 718.784 -4.19835 5.65613 0
M  V30 7591 H 714.883 -0.735586 0.2654 0
M  V30 7592 H 717.467 -1.53181 1.20182 0
M  V30 7593 H 715.638 -3.87442 0.27268 0
M  V30 7594 H 717.37 -4.01921 0.47348 0
M  V30 7595 H 714.125 -4.02696 2.49264 0
M  V30 7596 H 714.549 -4.48199 5.07392 0
M  V30 7597 H 719.191 -3.52665 2.3321 0
M  V30 7598 H 716.909 -4.57975 6.65796 0
M  V30 7599 H 720.495 -3.78589 4.41771 0
M  V30 7600 H 719.375 -4.30765 6.55295 0
M  V30 7601 N 716.879 -0.700114 -1.41195 0
M  V30 7602 C 717.812 0.0129614 -2.28196 0
M  V30 7603 C 718.79 0.783367 -1.42486 0
M  V30 7604 O 719.974 0.773238 -1.71911 0
M  V30 7605 C 717.101 1.02575 -3.22794 0
M  V30 7606 C 716.147 0.347977 -4.25078 0
M  V30 7607 S 716.98 -0.912938 -5.27661 0
M  V30 7608 C 718.136 0.0981362 -6.25823 0
M  V30 7609 H 718.369 -0.724927 -2.88326 0
M  V30 7610 H 715.902 -0.490554 -1.464 0
M  V30 7611 H 717.86 1.60491 -3.77826 0
M  V30 7612 H 716.521 1.73624 -2.61751 0
M  V30 7613 H 715.714 1.11305 -4.91556 0
M  V30 7614 H 715.316 -0.15823 -3.73665 0
M  V30 7615 H 717.608 0.949965 -6.70807 0
M  V30 7616 H 718.551 -0.532838 -7.06092 0
M  V30 7617 H 718.959 0.454944 -5.62664 0
M  V30 7618 N 718.357 1.51182 -0.445186 0
M  V30 7619 C 719.603 2.02452 0.11882 0
M  V30 7620 C 719.936 1.32824 1.41673 0
M  V30 7621 O 719.211 0.445637 1.89326 0
M  V30 7622 C 719.494 3.5859 0.329475 0
M  V30 7623 C 719.347 4.38823 -0.987638 0
M  V30 7624 C 720.666 4.26241 1.09575 0
M  V30 7625 H 717.785 0.735819 0.0417092 0
M  V30 7626 H 720.427 1.80747 -0.585718 0
M  V30 7627 H 718.577 3.77214 0.9296 0
M  V30 7628 H 720.249 4.3183 -1.62235 0
M  V30 7629 H 718.492 4.03594 -1.59041 0
M  V30 7630 H 719.163 5.46257 -0.794192 0
M  V30 7631 H 721.639 4.11934 0.587328 0
M  V30 7632 H 720.515 5.35354 1.21191 0
M  V30 7633 H 720.776 3.87635 2.12584 0
M  V30 7634 N 719.835 0.176821 1.56605 0
M  V30 7635 C 720.745 -0.763682 2.21822 0
M  V30 7636 C 721.761 -1.24889 1.21156 0
M  V30 7637 O 722.937 -1.29987 1.53836 0
M  V30 7638 C 720.002 -1.97352 2.8505 0
M  V30 7639 C 719.063 -1.53466 4.00932 0
M  V30 7640 C 718.296 -2.68682 4.61135 0
M  V30 7641 O 718.519 -3.85694 4.20234 0
M  V30 7642 O 717.453 -2.42442 5.50913 0
M  V30 7643 H 721.279 -0.238363 3.02763 0
M  V30 7644 H 718.864 -0.0516331 1.49311 0
M  V30 7645 H 720.746 -2.68096 3.25119 0
M  V30 7646 H 719.421 -2.48779 2.07101 0
M  V30 7647 H 718.328 -0.796551 3.65521 0
M  V30 7648 H 719.661 -1.06724 4.8049 0
M  V30 7649 N 721.313 -1.57302 -0.09688 0
M  V30 7650 C 722.59 -1.7701 -0.832272 0
M  V30 7651 C 722.97 -0.758025 -1.97021 0
M  V30 7652 O 722.318 0.213824 -2.27497 0
M  V30 7653 C 722.528 -3.22725 -1.32851 0
M  V30 7654 C 723.876 -3.85856 -1.772 0
M  V30 7655 O 724.9 -3.26464 -1.42478 0
M  V30 7656 O 723.759 -4.90295 -2.41398 0
M  V30 7657 H 720.853 -0.725558 -0.396856 0
M  V30 7658 H 723.399 -1.69516 -0.0789005 0
M  V30 7659 H 722.171 -3.87921 -0.51312 0
M  V30 7660 H 721.794 -3.34845 -2.14394 0
M  V30 7661 N 722.791 0.367657 -1.53252 0
M  V30 7662 C 724.019 1.13119 -1.73239 0
M  V30 7663 C 724.434 1.831 -0.460404 0
M  V30 7664 O 723.791 1.73483 0.566557 0
M  V30 7665 C 723.842 2.16308 -2.89643 0
M  V30 7666 O 723.563 1.49175 -4.1192 0
M  V30 7667 C 725.064 3.05224 -3.21486 0
M  V30 7668 H 722.284 0.338318 -0.579467 0
M  V30 7669 H 724.828 0.42721 -1.99988 0
M  V30 7670 H 722.983 2.82307 -2.65295 0
M  V30 7671 H 723.397 2.17912 -4.7709 0
M  V30 7672 H 724.871 3.73613 -4.06346 0
M  V30 7673 H 725.348 3.69919 -2.36763 0
M  V30 7674 H 725.954 2.44843 -3.47753 0
M  V30 7675 N 724.269 1.44576 0.627338 0
M  V30 7676 C 725.199 1.54562 1.75022 0
M  V30 7677 C 726.18 0.398378 1.65369 0
M  V30 7678 O 727.365 0.61899 1.84071 0
M  V30 7679 C 724.495 1.49309 3.13567 0
M  V30 7680 C 723.449 2.62549 3.38012 0
M  V30 7681 C 722.775 2.42348 4.76625 0
M  V30 7682 C 724.075 4.04678 3.30202 0
M  V30 7683 H 725.769 2.4855 1.66922 0
M  V30 7684 H 723.315 1.19624 0.801636 0
M  V30 7685 H 725.268 1.54895 3.919 0
M  V30 7686 H 723.992 0.518392 3.2246 0
M  V30 7687 H 722.651 2.56358 2.62061 0
M  V30 7688 H 722.299 1.43062 4.82226 0
M  V30 7689 H 721.999 3.18273 4.93939 0
M  V30 7690 H 723.523 2.49758 5.57183 0
M  V30 7691 H 724.937 4.12217 3.98435 0
M  V30 7692 H 723.334 4.80836 3.5905 0
M  V30 7693 H 724.404 4.2798 2.27949 0
M  V30 7694 N 725.747 -0.868086 1.31537 0
M  V30 7695 C 726.71 -1.95703 1.19302 0
M  V30 7696 C 727.71 -1.60355 0.119612 0
M  V30 7697 O 728.9 -1.70247 0.36902 0
M  V30 7698 C 726.032 -3.30599 0.831684 0
M  V30 7699 H 727.225 -2.07982 2.16064 0
M  V30 7700 H 724.778 -1.05661 1.15176 0
M  V30 7701 H 725.513 -3.2402 -0.134694 0
M  V30 7702 H 725.298 -3.57629 1.60761 0
M  V30 7703 H 726.788 -4.10439 0.770026 0
M  V30 7704 N 727.225 -1.14528 -1.08264 0
M  V30 7705 C 728.473 -0.912599 -1.80322 0
M  V30 7706 C 728.794 0.562256 -1.86718 0
M  V30 7707 O 728.064 1.40869 -1.36135 0
M  V30 7708 H 726.644 -0.334645 -0.667849 0
M  V30 7709 H 729.306 -1.44415 -1.30883 0
M  V30 7710 H 728.402 -1.31384 -2.83098 0
M  V30 7711 N 728.703 1.26451 -0.940633 0
M  V30 7712 C 729.633 2.28773 -0.467479 0
M  V30 7713 C 730.614 1.63218 0.478955 0
M  V30 7714 O 731.799 1.90427 0.380929 0
M  V30 7715 C 728.929 3.46259 0.268656 0
M  V30 7716 C 727.883 4.23898 -0.591171 0
M  V30 7717 C 727.209 5.33993 0.274891 0
M  V30 7718 C 728.509 4.87974 -1.86223 0
M  V30 7719 H 730.203 2.68601 -1.32265 0
M  V30 7720 H 727.749 1.29123 -0.637436 0
M  V30 7721 H 729.702 4.16951 0.610696 0
M  V30 7722 H 728.426 3.05383 1.15796 0
M  V30 7723 H 727.085 3.54969 -0.916098 0
M  V30 7724 H 726.733 4.89358 1.16353 0
M  V30 7725 H 726.433 5.86849 -0.297006 0
M  V30 7726 H 727.957 6.07523 0.612213 0
M  V30 7727 H 729.371 5.50883 -1.58747 0
M  V30 7728 H 727.768 5.50945 -2.37866 0
M  V30 7729 H 728.838 4.10945 -2.57394 0
M  V30 7730 N 730.181 0.707592 1.40822 0
M  V30 7731 C 731.429 0.243189 2.00632 0
M  V30 7732 C 731.75 -1.16512 1.56365 0
M  V30 7733 O 731.02 -1.78841 0.799553 0
M  V30 7734 H 729.6 0.0869203 0.741926 0
M  V30 7735 H 732.262 0.911438 1.72275 0
M  V30 7736 H 731.358 0.270014 3.1093 0
M  V30 7737 N 731.66 -1.50943 0.453197 0
M  V30 7738 C 732.908 -2.01813 -0.107709 0
M  V30 7739 C 733.229 -1.33841 -1.41816 0
M  V30 7740 O 732.499 -0.477973 -1.8998 0
M  V30 7741 H 731.079 -0.745773 -0.0427948 0
M  V30 7742 H 733.741 -1.8545 0.599531 0
M  V30 7743 H 732.837 -3.10911 -0.27218 0
M  V30 7744 N 733.138 -0.185124 -1.56509 0
M  V30 7745 C 734.549 0.329221 -1.83774 0
M  V30 7746 C 734.9 1.62093 -1.10545 0
M  V30 7747 O 734.025 2.13334 -0.36298 0
M  V30 7748 C 734.62 0.604099 -3.33371 0
M  V30 7749 C 733.179 1.06284 -3.61083 0
M  V30 7750 C 732.326 0.10608 -2.77097 0
M  V30 7751 H 735.277 -0.409116 -1.53336 0
M  V30 7752 H 735.298 1.45458 -3.51599 0
M  V30 7753 H 734.81 -0.336201 -3.86641 0
M  V30 7754 H 732.911 2.01777 -3.13236 0
M  V30 7755 H 733.024 0.962453 -4.69333 0
M  V30 7756 H 731.388 0.606082 -2.47384 0
M  V30 7757 H 732.171 -0.828486 -3.33153 0
M  V30 7758 N 734.616 1.57351 0.0885366 0
M  V30 7759 C 735.548 1.99221 1.13329 0
M  V30 7760 C 736.561 0.895705 1.35945 0
M  V30 7761 O 737.75 1.17376 1.34481 0
M  V30 7762 C 734.85 2.3016 2.48756 0
M  V30 7763 C 734.023 3.61444 2.46327 0
M  V30 7764 C 733.082 3.80244 3.63732 0
M  V30 7765 O 732.108 4.52024 3.45924 0
M  V30 7766 N 733.31 3.2132 4.8346 0
M  V30 7767 H 736.075 2.89456 0.776862 0
M  V30 7768 H 733.636 1.59505 0.277428 0
M  V30 7769 H 735.628 2.39925 3.25911 0
M  V30 7770 H 734.198 1.459 2.76464 0
M  V30 7771 H 733.418 3.62588 1.54673 0
M  V30 7772 H 734.706 4.47678 2.41789 0
M  V30 7773 H 734.104 2.63028 5.00832 0
M  V30 7774 H 732.661 3.3656 5.58185 0
M  V30 7775 N 736.094 -0.359525 1.53444 0
M  V30 7776 C 737.041 -1.44073 1.8031 0
M  V30 7777 C 738.011 -1.52946 0.647811 0
M  V30 7778 O 739.196 -1.68739 0.890614 0
M  V30 7779 C 736.336 -2.80941 2.00416 0
M  V30 7780 C 735.449 -2.80986 3.28132 0
M  V30 7781 C 734.584 -4.09468 3.38393 0
M  V30 7782 C 733.623 -4.03679 4.60119 0
M  V30 7783 N 732.76 -5.23821 4.675 0
M  V30 7784 H 737.6 -1.20464 2.72566 0
M  V30 7785 H 735.137 -0.583859 1.35017 0
M  V30 7786 H 737.095 -3.60459 2.1006 0
M  V30 7787 H 735.725 -3.02936 1.11489 0
M  V30 7788 H 734.777 -1.93666 3.27411 0
M  V30 7789 H 736.089 -2.72583 4.17732 0
M  V30 7790 H 735.243 -4.97404 3.47382 0
M  V30 7791 H 733.982 -4.20632 2.4682 0
M  V30 7792 H 732.987 -3.14129 4.51224 0
M  V30 7793 H 734.212 -3.94112 5.5304 0
M  V30 7794 H 732.158 -5.35559 3.7883 0
M  V30 7795 H 732.075 -5.17611 5.51013 0
M  V30 7796 H 733.343 -6.13572 4.8078 0
M  V30 7797 N 737.572 -1.44907 -0.619662 0
M  V30 7798 C 738.983 -1.42905 -1.20146 0
M  V30 7799 C 739.334 -0.150341 -1.95623 0
M  V30 7800 O 738.459 0.748732 -2.03034 0
M  V30 7801 C 739.054 -2.58889 -2.18545 0
M  V30 7802 C 737.613 -2.60046 -2.72127 0
M  V30 7803 C 736.76 -2.3493 -1.4732 0
M  V30 7804 H 739.711 -1.53321 -0.409666 0
M  V30 7805 H 739.732 -2.32298 -3.0136 0
M  V30 7806 H 739.244 -3.51941 -1.63583 0
M  V30 7807 H 737.345 -1.70968 -3.3106 0
M  V30 7808 H 737.458 -3.58893 -3.17384 0
M  V30 7809 H 735.822 -1.84248 -1.75855 0
M  V30 7810 H 736.605 -3.3011 -0.942442 0
M  V30 7811 N 739.05 0.861098 -1.31996 0
M  V30 7812 C 740.461 1.43065 -1.19955 0
M  V30 7813 C 740.812 1.95273 0.190489 0
M  V30 7814 O 739.937 1.87012 1.08882 0
M  V30 7815 C 740.532 2.60052 -2.1716 0
M  V30 7816 C 739.091 3.13026 -2.09026 0
M  V30 7817 C 738.238 1.85756 -2.05888 0
M  V30 7818 H 741.189 0.668834 -1.43918 0
M  V30 7819 H 741.21 3.37016 -1.76637 0
M  V30 7820 H 740.722 2.22024 -3.18319 0
M  V30 7821 H 738.823 3.55653 -1.11092 0
M  V30 7822 H 738.936 3.74707 -2.98549 0
M  V30 7823 H 737.3 2.05088 -1.51033 0
M  V30 7824 H 738.083 1.49954 -3.08818 0
M  V30 7825 N 740.528 1.15101 1.07655 0
M  V30 7826 C 741.939 0.933848 1.61667 0
M  V30 7827 C 742.29 -0.525569 1.8903 0
M  V30 7828 O 741.415 -1.39605 1.65346 0
M  V30 7829 C 742.01 1.68876 2.93711 0
M  V30 7830 C 740.569 1.51697 3.44478 0
M  V30 7831 C 739.716 1.70633 2.18586 0
M  V30 7832 H 742.667 1.30171 0.907816 0
M  V30 7833 H 742.688 1.15645 3.625 0
M  V30 7834 H 742.2 2.7509 2.73764 0
M  V30 7835 H 740.301 0.478635 3.69513 0
M  V30 7836 H 740.414 2.29194 4.20722 0
M  V30 7837 H 738.778 1.13259 2.28132 0
M  V30 7838 H 739.561 2.78206 2.01137 0
M  V30 7839 N 742.006 -1.2595 0.947325 0
M  V30 7840 C 742.956 -2.23859 0.432547 0
M  V30 7841 C 743.94 -1.53755 -0.474154 0
M  V30 7842 O 745.132 -1.74293 -0.308397 0
M  V30 7843 C 742.261 -3.42027 -0.295318 0
M  V30 7844 C 741.347 -4.19409 0.62903 0
M  V30 7845 N 741.738 -4.74284 1.7575 0
M  V30 7846 C 740.036 -4.43866 0.435805 0
M  V30 7847 C 740.737 -5.32821 2.33401 0
M  V30 7848 N 739.713 -5.18858 1.62135 0
M  V30 7849 H 743.515 -2.63886 1.29388 0
M  V30 7850 H 741.029 -1.41105 0.80393 0
M  V30 7851 H 743.026 -4.11297 -0.681188 0
M  V30 7852 H 741.686 -3.03526 -1.15334 0
M  V30 7853 H 742.697 -4.71641 2.13952 0
M  V30 7854 H 739.374 -4.15768 -0.37994 0
M  V30 7855 H 740.764 -5.86111 3.28517 0
M  V30 7856 N 743.484 -0.715051 -1.40445 0
M  V30 7857 C 744.712 -0.263959 -2.05209 0
M  V30 7858 C 745.127 1.09403 -1.53871 0
M  V30 7859 O 744.484 1.68746 -0.695064 0
M  V30 7860 C 744.535 -0.234545 -3.60738 0
M  V30 7861 O 744.256 -1.53891 -4.10182 0
M  V30 7862 C 745.757 0.235164 -4.42676 0
M  V30 7863 H 742.977 -0.11876 -0.660407 0
M  V30 7864 H 745.521 -0.973107 -1.79864 0
M  V30 7865 H 743.676 0.425563 -3.85055 0
M  V30 7866 H 744.09 -1.43903 -5.04373 0
M  V30 7867 H 745.564 0.204598 -5.51621 0
M  V30 7868 H 746.041 1.27724 -4.20218 0
M  V30 7869 H 746.647 -0.394649 -4.23465 0
M  V30 7870 N 744.962 1.50701 -0.461195 0
M  V30 7871 C 745.872 2.32069 0.343661 0
M  V30 7872 C 746.888 1.42016 1.00535 0
M  V30 7873 O 748.064 1.75077 0.995498 0
M  V30 7874 C 745.129 3.16424 1.41692 0
M  V30 7875 C 744.19 4.22286 0.772869 0
M  V30 7876 C 743.423 5.02609 1.79499 0
M  V30 7877 O 743.646 4.83874 3.0203 0
M  V30 7878 O 742.58 5.86047 1.3723 0
M  V30 7879 H 746.406 3.01996 -0.321268 0
M  V30 7880 H 743.991 1.47723 -0.223235 0
M  V30 7881 H 745.873 3.68795 2.03883 0
M  V30 7882 H 744.548 2.49236 2.0655 0
M  V30 7883 H 743.455 3.73931 0.112277 0
M  V30 7884 H 744.788 4.91915 0.167399 0
M  V30 7885 N 746.441 0.193421 1.56409 0
M  V30 7886 C 747.852 -0.319471 1.83946 0
M  V30 7887 C 748.203 -1.61505 1.11403 0
M  V30 7888 O 747.328 -2.13139 0.374289 0
M  V30 7889 C 747.923 -0.586411 3.33686 0
M  V30 7890 C 746.482 -1.04368 3.61641 0
M  V30 7891 C 745.629 -0.0913834 2.77149 0
M  V30 7892 H 748.58 0.417242 1.53117 0
M  V30 7893 H 748.601 -1.43591 3.52366 0
M  V30 7894 H 748.113 0.356701 3.86457 0
M  V30 7895 H 746.214 -2.00113 3.14302 0
M  V30 7896 H 746.327 -0.937549 4.69837 0
M  V30 7897 H 744.691 -0.592954 2.47702 0
M  V30 7898 H 745.474 0.846142 3.32709 0
M  V30 7899 N 747.919 -1.57396 -0.0801906 0
M  V30 7900 C 749.196 -1.77883 -0.813451 0
M  V30 7901 C 749.576 -0.778879 -1.96206 0
M  V30 7902 O 748.924 0.189683 -2.27711 0
M  V30 7903 C 749.134 -3.24116 -1.2942 0
M  V30 7904 C 750.482 -3.87714 -1.73098 0
M  V30 7905 O 751.506 -3.27956 -1.39007 0
M  V30 7906 O 750.365 -4.92828 -2.36184 0
M  V30 7907 H 747.459 -0.729727 -0.389138 0
M  V30 7908 H 750.005 -1.69591 -0.0609166 0
M  V30 7909 H 748.777 -3.88443 -0.471947 0
M  V30 7910 H 748.4 -3.371 -2.1083 0
M  V30 7911 N 749.397 0.351382 -1.53633 0
M  V30 7912 C 750.622 1.11718 -1.74739 0
M  V30 7913 C 751.047 1.81829 -0.481657 0
M  V30 7914 O 750.405 1.72264 0.565233 0
M  V30 7915 C 750.453 2.11234 -2.92254 0
M  V30 7916 O 749.557 3.186 -2.61855 0
M  V30 7917 H 748.898 0.323482 -0.579875 0
M  V30 7918 H 751.428 0.404167 -2.00568 0
M  V30 7919 H 751.438 2.54591 -3.18822 0
M  V30 7920 H 750.113 1.59599 -3.84058 0
M  V30 7921 H 748.69 2.80115 -2.4615 0
M  V30 7922 N 750.875 1.45233 0.611969 0
M  V30 7923 C 752.286 1.4354 1.19387 0
M  V30 7924 C 752.637 0.160713 1.95541 0
M  V30 7925 O 751.762 -0.737954 2.03429 0
M  V30 7926 C 752.357 2.60045 2.17169 0
M  V30 7927 C 750.916 2.61486 2.70744 0
M  V30 7928 C 750.063 2.35708 1.46072 0
M  V30 7929 H 753.014 1.53536 0.401529 0
M  V30 7930 H 753.035 2.33893 3.00124 0
M  V30 7931 H 752.547 3.52803 1.61714 0
M  V30 7932 H 750.648 1.72721 3.30149 0
M  V30 7933 H 750.761 3.60572 3.15476 0
M  V30 7934 H 749.125 1.85178 1.74875 0
M  V30 7935 H 749.908 3.30606 0.924922 0
M  V30 7936 N 752.353 -0.854086 1.3245 0
M  V30 7937 C 753.578 -1.64597 1.26185 0
M  V30 7938 C 754.003 -1.87357 -0.167074 0
M  V30 7939 O 753.361 -1.42675 -1.11864 0
M  V30 7940 C 753.409 -2.98213 2.02734 0
M  V30 7941 O 752.513 -3.88784 1.37554 0
M  V30 7942 H 751.854 -0.50179 0.434859 0
M  V30 7943 H 754.384 -1.06372 1.74775 0
M  V30 7944 H 754.394 -3.4803 2.1293 0
M  V30 7945 H 753.069 -2.80969 3.06642 0
M  V30 7946 H 751.646 -3.4725 1.3591 0
M  V30 7947 N 753.831 -1.1567 -1.07043 0
M  V30 7948 C 755.242 -0.942408 -1.61169 0
M  V30 7949 C 755.593 0.515537 -1.89306 0
M  V30 7950 O 754.718 1.38726 -1.66084 0
M  V30 7951 C 755.313 -1.70431 -2.92812 0
M  V30 7952 C 753.872 -1.53521 -3.43669 0
M  V30 7953 C 753.019 -1.7179 -2.17678 0
M  V30 7954 H 755.97 -1.3065 -0.9009 0
M  V30 7955 H 755.991 -1.17566 -3.61882 0
M  V30 7956 H 755.503 -2.76538 -2.72302 0
M  V30 7957 H 753.604 -0.498224 -3.69254 0
M  V30 7958 H 753.717 -2.31422 -4.19501 0
M  V30 7959 H 752.081 -1.14468 -2.27529 0
M  V30 7960 H 752.864 -2.79269 -1.99659 0
M  V30 7961 N 755.309 1.25446 -0.953992 0
M  V30 7962 C 756.555 1.9343 -0.60933 0
M  V30 7963 C 756.888 1.74542 0.851388 0
M  V30 7964 O 756.163 1.09014 1.61078 0
M  V30 7965 C 756.446 3.46844 -0.968041 0
M  V30 7966 C 756.299 3.74961 -2.48444 0
M  V30 7967 C 757.618 4.37334 -0.492641 0
M  V30 7968 H 754.737 0.702502 -0.222844 0
M  V30 7969 H 757.379 1.48076 -1.19053 0
M  V30 7970 H 755.529 3.85604 -0.473465 0
M  V30 7971 H 757.201 3.45841 -3.05273 0
M  V30 7972 H 755.444 3.20589 -2.92241 0
M  V30 7973 H 756.115 4.82246 -2.68594 0
M  V30 7974 H 758.591 4.05873 -0.916878 0
M  V30 7975 H 757.467 5.43439 -0.772331 0
M  V30 7976 H 757.728 4.37908 0.607403 0
M  V30 7977 N 756.787 0.722489 1.40064 0
M  V30 7978 C 757.717 0.0892452 2.33329 0
M  V30 7979 C 758.698 -0.737992 1.53257 0
M  V30 7980 O 759.883 -0.685516 1.81698 0
M  V30 7981 C 757.013 -0.828139 3.37282 0
M  V30 7982 C 755.967 -0.106005 4.27869 0
M  V30 7983 C 755.293 -1.13957 5.22415 0
M  V30 7984 C 756.593 1.04395 5.11761 0
M  V30 7985 H 758.287 0.868269 2.86534 0
M  V30 7986 H 755.833 0.418982 1.3777 0
M  V30 7987 H 757.786 -1.28058 4.01471 0
M  V30 7988 H 756.51 -1.63914 2.82489 0
M  V30 7989 H 755.169 0.326683 3.65142 0
M  V30 7990 H 754.817 -1.9438 4.63924 0
M  V30 7991 H 754.517 -0.661233 5.83868 0
M  V30 7992 H 756.041 -1.59197 5.89482 0
M  V30 7993 H 757.455 0.670541 5.69365 0
M  V30 7994 H 755.852 1.4511 5.82291 0
M  V30 7995 H 756.922 1.87144 4.47331 0
M  V30 7996 N 758.265 -1.50454 0.469181 0
M  V30 7997 C 759.197 -2.26319 -0.362247 0
M  V30 7998 C 760.21 -1.31574 -0.958751 0
M  V30 7999 O 761.399 -1.57099 -0.847482 0
M  V30 8000 C 758.499 -3.02808 -1.52187 0
M  V30 8001 C 757.672 -4.24893 -1.03849 0
M  V30 8002 C 756.731 -4.83691 -2.07194 0
M  V30 8003 O 755.757 -5.44659 -1.65333 0
M  V30 8004 N 756.959 -4.70522 -3.39985 0
M  V30 8005 H 759.724 -2.98312 0.288124 0
M  V30 8006 H 757.285 -1.59099 0.299856 0
M  V30 8007 H 759.277 -3.39023 -2.21011 0
M  V30 8008 H 757.847 -2.33625 -2.07697 0
M  V30 8009 H 757.067 -3.93806 -0.176203 0
M  V30 8010 H 758.355 -5.04053 -0.693435 0
M  V30 8011 H 757.753 -4.2203 -3.76706 0
M  V30 8012 H 756.31 -5.11011 -4.04612 0
M  V30 8013 N 759.743 -0.201713 -1.56304 0
M  V30 8014 C 760.991 0.434447 -1.97375 0
M  V30 8015 C 761.312 1.61692 -1.08998 0
M  V30 8016 O 760.582 1.95223 -0.162682 0
M  V30 8017 H 759.162 0.163497 -0.728888 0
M  V30 8018 H 761.824 -0.289988 -1.92731 0
M  V30 8019 H 760.92 0.774136 -3.02347 0
M  V30 8020 N 761.222 1.57436 0.0718424 0
M  V30 8021 C 762.132 2.07039 1.10326 0
M  V30 8022 C 763.148 0.999918 1.424 0
M  V30 8023 O 764.324 1.31462 1.52577 0
M  V30 8024 C 761.389 2.50439 2.39752 0
M  V30 8025 C 760.45 3.71784 2.14651 0
M  V30 8026 C 759.683 4.13104 3.37906 0
M  V30 8027 O 759.906 3.54298 4.47023 0
M  V30 8028 O 758.84 5.05894 3.26121 0
M  V30 8029 H 762.666 2.95239 0.711872 0
M  V30 8030 H 760.251 1.46638 0.28597 0
M  V30 8031 H 762.133 2.78876 3.15921 0
M  V30 8032 H 760.808 1.65368 2.78271 0
M  V30 8033 H 759.715 3.48431 1.36187 0
M  V30 8034 H 761.048 4.57707 1.81012 0
M  V30 8035 N 762.7 -0.34323 1.53817 0
M  V30 8036 C 763.61 -1.44493 1.84821 0
M  V30 8037 C 764.626 -1.57556 0.738381 0
M  V30 8038 O 765.802 -1.73026 1.03072 0
M  V30 8039 C 762.867 -2.79478 2.05166 0
M  V30 8040 C 761.928 -2.75756 3.29025 0
M  V30 8041 C 761.161 -4.04302 3.4839 0
M  V30 8042 O 761.384 -5.01595 2.71586 0
M  V30 8043 O 760.318 -4.08754 4.41819 0
M  V30 8044 H 764.144 -1.21209 2.78464 0
M  V30 8045 H 761.729 -0.535437 1.39476 0
M  V30 8046 H 763.611 -3.59419 2.19991 0
M  V30 8047 H 762.286 -3.02692 1.14713 0
M  V30 8048 H 761.193 -1.94434 3.19603 0
M  V30 8049 H 762.526 -2.57495 4.19472 0
M  V30 8050 N 764.178 -1.45556 -0.604258 0
M  V30 8051 C 765.403 -1.53509 -1.39462 0
M  V30 8052 C 765.828 -0.169638 -1.87333 0
M  V30 8053 O 765.186 0.846346 -1.60333 0
M  V30 8054 C 765.234 -2.52654 -2.5729 0
M  V30 8055 O 764.338 -2.04666 -3.5803 0
M  V30 8056 H 763.679 -0.517355 -0.416221 0
M  V30 8057 H 766.209 -1.90939 -0.735072 0
M  V30 8058 H 766.219 -2.71568 -3.04491 0
M  V30 8059 H 764.894 -3.51823 -2.21797 0
M  V30 8060 H 763.471 -1.95643 -3.17456 0
M  V30 8061 N 765.656 0.84705 -1.32902 0
M  V30 8062 C 766.881 1.63925 -1.27056 0
M  V30 8063 C 767.306 1.87443 0.157136 0
M  V30 8064 O 766.664 1.43266 1.11106 0
M  V30 8065 C 766.712 2.97134 -2.04313 0
M  V30 8066 O 765.816 3.88049 -1.39614 0
M  V30 8067 H 765.157 0.499477 -0.437514 0
M  V30 8068 H 767.687 1.05443 -1.75336 0
M  V30 8069 H 767.697 3.46896 -2.14772 0
M  V30 8070 H 766.372 2.79339 -3.08128 0
M  V30 8071 H 764.949 3.46525 -1.3775 0
M  V30 8072 N 767.134 1.16236 1.06428 0
M  V30 8073 C 768.044 0.881976 2.1739 0
M  V30 8074 C 769.06 -0.145259 1.73393 0
M  V30 8075 O 770.236 0.0310558 2.01376 0
M  V30 8076 C 767.301 0.385496 3.4455 0
M  V30 8077 C 766.362 1.47779 4.03063 0
M  V30 8078 C 765.595 1.0049 5.24154 0
M  V30 8079 O 765.818 -0.145889 5.70213 0
M  V30 8080 O 764.752 1.79265 5.74585 0
M  V30 8081 H 768.578 1.80983 2.43883 0
M  V30 8082 H 766.163 0.942226 1.15942 0
M  V30 8083 H 768.045 0.115536 4.21242 0
M  V30 8084 H 766.72 -0.514369 3.19587 0
M  V30 8085 H 765.627 1.80147 3.27869 0
M  V30 8086 H 766.96 2.35291 4.32318 0
M  V30 8087 N 768.612 -1.24939 0.960631 0
M  V30 8088 C 770.028 -1.45039 0.666018 0
M  V30 8089 C 770.228 -1.86021 -0.774501 0
M  V30 8090 O 769.284 -1.99392 -1.54916 0
M  V30 8091 C 770.597 -2.51775 1.64408 0
M  V30 8092 C 772.145 -2.6561 1.65592 0
M  V30 8093 C 772.62 -3.75536 2.62177 0
M  V30 8094 N 774.111 -3.82954 2.60577 0
M  V30 8095 C 774.846 -4.67517 3.31987 0
M  V30 8096 N 774.342 -5.56321 4.1289 0
M  V30 8097 N 776.135 -4.61535 3.20845 0
M  V30 8098 H 768.286 -0.96632 1.89145 0
M  V30 8099 H 770.549 -0.486034 0.813926 0
M  V30 8100 H 770.255 -2.28534 2.67329 0
M  V30 8101 H 770.129 -3.49804 1.41128 0
M  V30 8102 H 772.516 -2.88212 0.633846 0
M  V30 8103 H 772.597 -1.67962 1.92931 0
M  V30 8104 H 772.241 -3.53684 3.64514 0
M  V30 8105 H 772.171 -4.72682 2.32119 0
M  V30 8106 H 774.662 -3.19478 2.01847 0
M  V30 8107 H 774.975 -6.17787 4.64283 0
M  V30 8108 H 773.32 -5.5601 4.16987 0
M  V30 8109 H 776.511 -3.91169 2.57108 0
M  V30 8110 H 776.684 -5.27214 3.76762 0
M  V30 8111 N 770.09 -0.729906 -1.39679 0
M  V30 8112 C 771 -0.0880322 -2.34435 0
M  V30 8113 C 772.016 0.727674 -1.58053 0
M  V30 8114 O 773.192 0.657321 -1.90371 0
M  V30 8115 C 770.257 0.812211 -3.37052 0
M  V30 8116 C 769.318 -0.0151681 -4.29297 0
M  V30 8117 C 768.551 0.842202 -5.27013 0
M  V30 8118 O 768.774 2.08108 -5.31081 0
M  V30 8119 O 767.708 0.27357 -6.01278 0
M  V30 8120 H 771.534 -0.869989 -2.90972 0
M  V30 8121 H 769.119 -0.490522 -1.41118 0
M  V30 8122 H 771.001 1.32745 -3.99946 0
M  V30 8123 H 769.676 1.57307 -2.82907 0
M  V30 8124 H 768.583 -0.575811 -3.69642 0
M  V30 8125 H 769.916 -0.738129 -4.86634 0
M  V30 8126 N 771.568 1.50203 -0.477153 0
M  V30 8127 C 772.793 2.07263 0.0754986 0
M  V30 8128 C 773.218 1.33801 1.32208 0
M  V30 8129 O 772.576 0.387482 1.77111 0
M  V30 8130 C 772.624 3.59028 0.336348 0
M  V30 8131 O 771.728 3.87339 1.4157 0
M  V30 8132 H 771.069 0.663815 -0.015662 0
M  V30 8133 H 773.599 1.93321 -0.669936 0
M  V30 8134 H 773.609 4.03927 0.575034 0
M  V30 8135 H 772.284 4.11912 -0.574551 0
M  V30 8136 H 770.861 3.54272 1.16385 0
M  V30 8137 N 773.046 0.209999 1.56195 0
M  V30 8138 C 773.976 -0.699746 2.22769 0
M  V30 8139 C 774.957 -1.20993 1.1956 0
M  V30 8140 O 776.142 -1.25605 1.48112 0
M  V30 8141 C 773.272 -1.91302 2.89863 0
M  V30 8142 C 772.226 -1.53715 3.99444 0
M  V30 8143 C 771.552 -2.82826 4.53777 0
M  V30 8144 C 772.852 -0.735836 5.17091 0
M  V30 8145 H 774.546 -0.144716 2.9905 0
M  V30 8146 H 772.092 -0.0681645 1.43839 0
M  V30 8147 H 774.045 -2.5548 3.35124 0
M  V30 8148 H 772.769 -2.49283 2.11011 0
M  V30 8149 H 771.428 -0.918892 3.54897 0
M  V30 8150 H 771.076 -3.38927 3.71669 0
M  V30 8151 H 770.776 -2.58415 5.27727 0
M  V30 8152 H 772.3 -3.47966 5.01749 0
M  V30 8153 H 773.714 -1.28105 5.58804 0
M  V30 8154 H 772.111 -0.589272 5.972 0
M  V30 8155 H 773.181 0.260004 4.84202 0
M  V30 8156 N 774.524 -1.57472 -0.0634922 0
M  V30 8157 C 775.935 -1.76303 -0.614337 0
M  V30 8158 C 776.286 -0.836578 -1.77471 0
M  V30 8159 O 775.411 -0.0227184 -2.16388 0
M  V30 8160 C 776.006 -3.19709 -1.12122 0
M  V30 8161 C 774.565 -3.39856 -1.61786 0
M  V30 8162 C 773.712 -2.71975 -0.540845 0
M  V30 8163 H 776.663 -1.57864 0.162702 0
M  V30 8164 H 776.684 -3.24326 -1.98979 0
M  V30 8165 H 776.196 -3.87114 -0.276472 0
M  V30 8166 H 774.297 -2.77578 -2.48558 0
M  V30 8167 H 774.41 -4.48338 -1.68908 0
M  V30 8168 H 772.774 -2.34763 -0.987854 0
M  V30 8169 H 773.557 -3.4204 0.293856 0
M  V30 8170 N 776.003 0.335068 -1.53997 0
M  V30 8171 C 776.913 1.43511 -1.85585 0
M  V30 8172 C 777.929 1.57162 -0.746726 0
M  V30 8173 O 779.105 1.72477 -1.03988 0
M  V30 8174 C 776.17 2.78386 -2.06646 0
M  V30 8175 C 775.231 2.74007 -3.30483 0
M  V30 8176 C 774.464 4.02449 -3.50529 0
M  V30 8177 O 774.687 5.00147 -2.74242 0
M  V30 8178 O 773.621 4.06405 -4.4398 0
M  V30 8179 H 777.447 1.19731 -2.79102 0
M  V30 8180 H 775.032 0.528033 -1.39758 0
M  V30 8181 H 776.914 3.58247 -2.21894 0
M  V30 8182 H 775.589 3.0208 -1.16317 0
M  V30 8183 H 774.496 1.92736 -3.2063 0
M  V30 8184 H 775.829 2.55267 -4.20832 0
M  V30 8185 N 777.481 1.45874 0.596531 0
M  V30 8186 C 778.706 1.54247 1.38646 0
M  V30 8187 C 779.131 0.179571 1.87241 0
M  V30 8188 O 778.489 -0.837831 1.6078 0
M  V30 8189 C 778.537 2.54015 2.55946 0
M  V30 8190 O 777.641 2.06561 3.5694 0
M  V30 8191 H 776.982 0.519555 0.413471 0
M  V30 8192 H 779.512 1.91327 0.724936 0
M  V30 8193 H 779.522 2.73179 3.03047 0
M  V30 8194 H 778.197 3.52994 2.19928 0
M  V30 8195 H 776.774 1.97324 3.16414 0
M  V30 8196 N 778.959 -0.83999 1.33349 0
M  V30 8197 C 779.889 -1.965 1.26135 0
M  V30 8198 C 780.87 -1.69505 0.142152 0
M  V30 8199 O 782.055 -1.91346 0.331743 0
M  V30 8200 C 779.185 -3.32632 0.99866 0
M  V30 8201 C 778.139 -3.74021 2.08068 0
M  V30 8202 C 777.465 -5.07947 1.67014 0
M  V30 8203 C 778.765 -3.87925 3.49731 0
M  V30 8204 H 780.459 -2.02793 2.20262 0
M  V30 8205 H 778.005 -0.974297 1.06035 0
M  V30 8206 H 779.958 -4.10903 0.934696 0
M  V30 8207 H 778.682 -3.26593 0.0217759 0
M  V30 8208 H 777.341 -2.98012 2.13505 0
M  V30 8209 H 776.989 -4.98378 0.680316 0
M  V30 8210 H 776.689 -5.36611 2.39422 0
M  V30 8211 H 778.213 -5.88695 1.62082 0
M  V30 8212 H 779.627 -4.5651 3.46802 0
M  V30 8213 H 778.024 -4.28023 4.20614 0
M  V30 8214 H 779.094 -2.90407 3.88319 0
M  V30 8215 N 780.437 -1.16799 -1.0581 0
M  V30 8216 C 781.347 -0.893492 -2.16919 0
M  V30 8217 C 782.363 0.136061 -1.73467 0
M  V30 8218 O 783.539 -0.0417348 -2.01357 0
M  V30 8219 C 780.604 -0.403763 -3.44341 0
M  V30 8220 C 779.665 -1.49914 -4.02274 0
M  V30 8221 C 778.898 -1.03269 -5.23614 0
M  V30 8222 O 779.121 0.115647 -5.70283 0
M  V30 8223 O 778.055 -1.8231 -5.73626 0
M  V30 8224 H 781.881 -1.82274 -2.42919 0
M  V30 8225 H 779.466 -0.948361 -1.1544 0
M  V30 8226 H 781.348 -0.137874 -4.21174 0
M  V30 8227 H 780.023 0.497413 -3.19855 0
M  V30 8228 H 778.93 -1.81883 -3.26909 0
M  V30 8229 H 780.263 -2.3758 -4.31064 0
M  V30 8230 N 781.915 1.24427 -0.967243 0
M  V30 8231 C 782.845 2.2773 -0.515899 0
M  V30 8232 C 783.826 1.64197 0.444227 0
M  V30 8233 O 785.011 1.91193 0.340451 0
M  V30 8234 C 782.141 3.46751 0.195149 0
M  V30 8235 C 781.095 4.22548 -0.680953 0
M  V30 8236 C 780.421 5.34456 0.161561 0
M  V30 8237 C 781.721 4.83914 -1.96532 0
M  V30 8238 H 783.415 2.65735 -1.37933 0
M  V30 8239 H 780.961 1.27742 -0.664681 0
M  V30 8240 H 782.914 4.18153 0.522117 0
M  V30 8241 H 781.638 3.07771 1.09292 0
M  V30 8242 H 780.297 3.52946 -0.991186 0
M  V30 8243 H 779.945 4.91716 1.05947 0
M  V30 8244 H 779.645 5.86087 -0.421418 0
M  V30 8245 H 781.169 6.08685 0.483211 0
M  V30 8246 H 782.583 5.47392 -1.70396 0
M  V30 8247 H 780.98 5.45775 -2.49499 0
M  V30 8248 H 782.05 4.05393 -2.66053 0
M  V30 8249 N 783.393 0.737304 1.3929 0
M  V30 8250 C 784.618 0.295237 2.05288 0
M  V30 8251 C 785.043 -1.06235 1.55228 0
M  V30 8252 O 784.401 -1.67365 0.697043 0
M  V30 8253 C 784.449 0.309146 3.59272 0
M  V30 8254 O 783.553 -0.702437 4.06374 0
M  V30 8255 H 782.894 0.133762 0.650387 0
M  V30 8256 H 785.424 1.00387 1.78279 0
M  V30 8257 H 785.434 0.154336 4.07708 0
M  V30 8258 H 784.109 1.29974 3.95069 0
M  V30 8259 H 782.686 -0.513574 3.69346 0
M  V30 8260 N 784.871 -1.49948 0.485112 0
M  V30 8261 C 786.096 -2.073 -0.0645059 0
M  V30 8262 C 786.521 -1.345 -1.31497 0
M  V30 8263 O 785.879 -0.39687 -1.76903 0
M  V30 8264 C 785.927 -3.59201 -0.317304 0
M  V30 8265 O 785.031 -3.88085 -1.39514 0
M  V30 8266 H 784.372 -0.663723 0.0191822 0
M  V30 8267 H 786.902 -1.92963 0.680179 0
M  V30 8268 H 786.912 -4.04227 -0.553604 0
M  V30 8269 H 785.587 -4.11602 0.596387 0
M  V30 8270 H 784.164 -3.54885 -1.14504 0
M  V30 8271 N 786.349 -0.21828 -1.56081 0
M  V30 8272 C 787.76 0.290166 -1.84431 0
M  V30 8273 C 788.111 1.59712 -1.13958 0
M  V30 8274 O 787.236 2.12516 -0.40815 0
M  V30 8275 C 787.831 0.53325 -3.34577 0
M  V30 8276 C 786.39 0.986011 -3.63256 0
M  V30 8277 C 785.537 0.0472798 -2.7726 0
M  V30 8278 H 788.488 -0.441548 -1.52434 0
M  V30 8279 H 788.509 1.37967 -3.54606 0
M  V30 8280 H 788.021 -0.418137 -3.85841 0
M  V30 8281 H 786.122 1.95087 -3.17446 0
M  V30 8282 H 786.235 0.862684 -4.71269 0
M  V30 8283 H 784.599 0.553471 -2.48614 0
M  V30 8284 H 785.382 -0.898966 -3.31321 0
M  V30 8285 N 787.827 1.57504 0.0551401 0
M  V30 8286 C 789.243 1.54236 0.410292 0
M  V30 8287 C 789.443 0.940839 1.78187 0
M  V30 8288 O 788.499 0.550541 2.46425 0
M  V30 8289 C 789.812 2.98816 0.336064 0
M  V30 8290 C 791.36 3.10236 0.415047 0
M  V30 8291 C 791.835 4.56499 0.37055 0
M  V30 8292 N 793.326 4.61199 0.43013 0
M  V30 8293 C 794.061 5.71873 0.418179 0
M  V30 8294 N 793.557 6.91864 0.360056 0
M  V30 8295 N 795.35 5.60165 0.465977 0
M  V30 8296 H 787.501 1.94965 -0.842759 0
M  V30 8297 H 789.764 0.893096 -0.317937 0
M  V30 8298 H 789.47 3.4645 -0.605429 0
M  V30 8299 H 789.344 3.59564 1.13988 0
M  V30 8300 H 791.731 2.62566 1.34697 0
M  V30 8301 H 791.812 2.52367 -0.417648 0
M  V30 8302 H 791.456 5.0483 -0.557592 0
M  V30 8303 H 791.386 5.12249 1.221 0
M  V30 8304 H 793.877 3.74857 0.478623 0
M  V30 8305 H 794.19 7.71983 0.35532 0
M  V30 8306 H 792.535 6.94233 0.326492 0
M  V30 8307 H 795.726 4.65322 0.509194 0
M  V30 8308 H 795.899 6.46413 0.453194 0
M  V30 8309 N 789.305 -0.326896 1.54172 0
M  V30 8310 C 790.53 -1.08924 1.76494 0
M  V30 8311 C 790.955 -1.81039 0.510523 0
M  V30 8312 O 790.313 -1.73141 -0.537756 0
M  V30 8313 C 790.361 -2.06558 2.95578 0
M  V30 8314 O 789.465 -3.14394 2.6689 0
M  V30 8315 H 788.806 -0.314216 0.584948 0
M  V30 8316 H 791.336 -0.372207 2.01186 0
M  V30 8317 H 791.346 -2.49487 3.22832 0
M  V30 8318 H 790.021 -1.53469 3.86549 0
M  V30 8319 H 788.598 -2.76164 2.50576 0
M  V30 8320 N 790.784 -1.46188 -0.588786 0
M  V30 8321 C 792.195 -1.45421 -1.17088 0
M  V30 8322 C 792.546 -0.191801 -1.9526 0
M  V30 8323 O 791.671 0.705497 -2.04577 0
M  V30 8324 C 792.266 -2.63467 -2.13004 0
M  V30 8325 C 790.825 -2.6576 -2.6655 0
M  V30 8326 C 789.972 -2.38002 -1.42304 0
M  V30 8327 H 792.923 -1.54156 -0.377052 0
M  V30 8328 H 792.944 -2.38638 -2.96365 0
M  V30 8329 H 792.456 -3.55331 -1.56081 0
M  V30 8330 H 790.557 -1.77952 -3.27359 0
M  V30 8331 H 790.67 -3.65545 -3.09699 0
M  V30 8332 H 789.034 -1.87936 -1.71907 0
M  V30 8333 H 789.817 -3.32035 -0.872209 0
M  V30 8334 N 792.262 0.832906 -1.33792 0
M  V30 8335 C 793.172 1.97514 -1.26592 0
M  V30 8336 C 794.188 1.73114 -0.175391 0
M  V30 8337 O 795.364 1.97387 -0.400062 0
M  V30 8338 C 792.429 3.31625 -1.01121 0
M  V30 8339 C 791.49 3.69101 -2.19233 0
M  V30 8340 C 790.723 4.96813 -1.94968 0
M  V30 8341 O 790.946 5.63208 -0.902955 0
M  V30 8342 O 789.88 5.31932 -2.8166 0
M  V30 8343 H 793.706 2.0653 -2.22664 0
M  V30 8344 H 791.291 0.966826 -1.13898 0
M  V30 8345 H 793.173 4.11968 -0.886571 0
M  V30 8346 H 791.848 3.23599 -0.080822 0
M  V30 8347 H 790.755 2.89243 -2.37253 0
M  V30 8348 H 792.088 3.818 -3.10628 0
M  V30 8349 N 793.74 1.17359 1.05189 0
M  V30 8350 C 794.968 0.986529 1.81866 0
M  V30 8351 C 795.383 -0.46522 1.82979 0
M  V30 8352 O 794.74 -1.32305 1.25705 0
M  V30 8353 C 794.791 1.52021 3.27982 0
M  V30 8354 O 794.512 2.91511 3.27037 0
M  V30 8355 C 796.013 1.37774 4.21347 0
M  V30 8356 H 793.233 0.349021 0.573084 0
M  V30 8357 H 795.777 1.55648 1.32643 0
M  V30 8358 H 793.932 0.992287 3.74476 0
M  V30 8359 H 794.346 3.16178 4.18488 0
M  V30 8360 H 795.82 1.7993 5.21852 0
M  V30 8361 H 796.297 0.32483 4.37997 0
M  V30 8362 H 796.903 1.89583 3.80708 0
M  V30 8363 N 795.218 -1.23913 0.973828 0
M  V30 8364 C 796.495 -1.87539 0.555729 0
M  V30 8365 C 796.875 -1.87641 -0.967162 0
M  V30 8366 O 796.223 -1.35335 -1.84111 0
M  V30 8367 C 796.433 -3.29359 1.15427 0
M  V30 8368 C 797.781 -4.06 1.24294 0
M  V30 8369 O 798.805 -3.38554 1.10723 0
M  V30 8370 O 797.664 -5.26689 1.45813 0
M  V30 8371 H 794.758 -0.805769 0.186188 0
M  V30 8372 H 797.304 -1.31838 1.06849 0
M  V30 8373 H 796.076 -3.23817 2.19678 0
M  V30 8374 H 795.699 -3.92642 0.625925 0
M  V30 8375 N 796.696 -0.74468 -1.38897 0
M  V30 8376 C 797.942 -0.306249 -2.01081 0
M  V30 8377 C 798.297 1.09724 -1.58046 0
M  V30 8378 O 797.59 1.73923 -0.803834 0
M  V30 8379 C 797.784 -0.357302 -3.55609 0
M  V30 8380 C 797.613 -1.76421 -4.13649 0
M  V30 8381 C 796.383 -2.3787 -4.4581 0
M  V30 8382 C 798.581 -2.71942 -4.36523 0
M  V30 8383 N 796.563 -3.70614 -4.89406 0
M  V30 8384 C 797.934 -3.89437 -4.8243 0
M  V30 8385 C 799.989 -2.69579 -4.18607 0
M  V30 8386 C 798.692 -5.04917 -5.123 0
M  V30 8387 C 800.718 -3.8421 -4.49596 0
M  V30 8388 C 800.08 -5.00442 -4.95719 0
M  V30 8389 H 796.179 -0.158531 -0.765762 0
M  V30 8390 H 798.763 -0.972726 -1.6866 0
M  V30 8391 H 796.934 0.278865 -3.87398 0
M  V30 8392 H 798.666 0.100599 -4.04575 0
M  V30 8393 H 795.421 -1.8971 -4.33943 0
M  V30 8394 H 795.845 -4.38791 -5.1555 0
M  V30 8395 H 800.487 -1.80905 -3.82143 0
M  V30 8396 H 798.205 -5.94213 -5.47665 0
M  V30 8397 H 801.791 -3.83691 -4.37347 0
M  V30 8398 H 800.671 -5.87671 -5.19242 0
M  V30 8399 N 798.174 1.49689 -0.493057 0
M  V30 8400 C 799.422 2.02027 0.0541642 0
M  V30 8401 C 799.743 1.37554 1.38217 0
M  V30 8402 O 799.013 0.528174 1.88646 0
M  V30 8403 H 797.593 0.746646 0.0230069 0
M  V30 8404 H 800.255 1.83795 -0.648489 0
M  V30 8405 H 799.351 3.11523 0.189652 0
M  V30 8406 N 799.652 0.226554 1.55963 0
M  V30 8407 C 801.068 -0.128733 1.5908 0
M  V30 8408 C 801.268 -1.58558 1.24345 0
M  V30 8409 O 800.324 -2.32661 0.981069 0
M  V30 8410 C 801.637 0.202076 3.0002 0
M  V30 8411 C 803.185 0.144718 3.12665 0
M  V30 8412 C 803.66 0.449272 4.55791 0
M  V30 8413 N 805.151 0.399026 4.61478 0
M  V30 8414 C 805.886 0.608106 5.70166 0
M  V30 8415 N 805.382 0.879227 6.87198 0
M  V30 8416 N 807.175 0.5402 5.59498 0
M  V30 8417 H 799.326 1.17686 1.76816 0
M  V30 8418 H 801.589 0.472072 0.822102 0
M  V30 8419 H 801.295 1.21341 3.30105 0
M  V30 8420 H 801.169 -0.480554 3.74126 0
M  V30 8421 H 803.556 -0.857261 2.82374 0
M  V30 8422 H 803.637 0.860899 2.40878 0
M  V30 8423 H 803.281 1.44871 4.86801 0
M  V30 8424 H 803.211 -0.288157 5.25811 0
M  V30 8425 H 805.702 0.197372 3.77384 0
M  V30 8426 H 806.015 1.02673 7.65949 0
M  V30 8427 H 804.36 0.916477 6.88931 0
M  V30 8428 H 807.551 0.328581 4.66945 0
M  V30 8429 H 807.724 0.706548 6.44137 0
M  V30 8430 N 801.13 -1.57531 -0.0467866 0
M  V30 8431 C 802.541 -1.76945 -0.595603 0
M  V30 8432 C 802.892 -0.855354 -1.76573 0
M  V30 8433 O 802.017 -0.045668 -2.16352 0
M  V30 8434 C 802.612 -3.20881 -1.08725 0
M  V30 8435 C 801.171 -3.41553 -1.58172 0
M  V30 8436 C 800.318 -2.72533 -0.511968 0
M  V30 8437 H 803.269 -1.57682 0.179436 0
M  V30 8438 H 803.29 -3.26419 -1.95528 0
M  V30 8439 H 802.802 -3.87385 -0.235398 0
M  V30 8440 H 800.903 -2.80199 -2.456 0
M  V30 8441 H 801.016 -4.50104 -1.64143 0
M  V30 8442 H 799.38 -2.35797 -0.962899 0
M  V30 8443 H 800.163 -3.41709 0.330117 0
M  V30 8444 N 802.608 0.318715 -1.54344 0
M  V30 8445 C 804.019 0.89285 -1.63967 0
M  V30 8446 C 804.37 1.88712 -0.536855 0
M  V30 8447 O 803.495 2.13877 0.329457 0
M  V30 8448 C 804.09 1.62618 -2.97222 0
M  V30 8449 C 802.649 2.14897 -3.09025 0
M  V30 8450 C 801.796 0.975909 -2.5956 0
M  V30 8451 H 804.747 0.0961687 -1.58408 0
M  V30 8452 H 804.768 2.4907 -2.87653 0
M  V30 8453 H 804.28 0.902286 -3.77466 0
M  V30 8454 H 802.381 2.90387 -2.33465 0
M  V30 8455 H 802.494 2.39565 -4.14904 0
M  V30 8456 H 800.858 1.35646 -2.15574 0
M  V30 8457 H 801.641 0.266253 -3.42266 0
M  V30 8458 N 804.086 1.46499 0.581025 0
M  V30 8459 C 805.334 1.51596 1.33653 0
M  V30 8460 C 805.655 0.169859 1.94259 0
M  V30 8461 O 804.925 -0.803776 1.78651 0
M  V30 8462 H 803.505 0.558346 0.496244 0
M  V30 8463 H 806.167 1.8264 0.680338 0
M  V30 8464 H 805.263 2.26956 2.14237 0
M  V30 8465 N 805.565 -0.825799 1.34232 0
M  V30 8466 C 806.813 -1.57873 1.26177 0
M  V30 8467 C 807.134 -1.94267 -0.168904 0
M  V30 8468 O 806.404 -1.62045 -1.10084 0
M  V30 8469 H 804.984 -0.585388 0.464037 0
M  V30 8470 H 807.646 -0.986163 1.6811 0
M  V30 8471 H 806.742 -2.50283 1.86453 0
M  V30 8472 N 807.043 -1.17915 -1.04565 0
M  V30 8473 C 808.32 -0.881187 -1.74627 0
M  V30 8474 C 808.7 0.617123 -2.01878 0
M  V30 8475 O 808.048 1.57032 -1.65991 0
M  V30 8476 C 808.258 -1.72299 -3.03503 0
M  V30 8477 C 809.606 -1.94688 -3.77335 0
M  V30 8478 O 810.63 -1.6931 -3.13389 0
M  V30 8479 O 809.489 -2.37379 -4.92253 0
M  V30 8480 H 806.583 -0.326864 -0.759664 0
M  V30 8481 H 809.129 -1.28642 -1.10676 0
M  V30 8482 H 807.901 -2.73891 -2.79462 0
M  V30 8483 H 807.524 -1.31593 -3.75192 0
M  V30 8484 N 808.521 1.23394 -0.980386 0
M  V30 8485 C 809.468 2.24859 -0.520298 0
M  V30 8486 C 810.438 1.60144 0.440821 0
M  V30 8487 O 811.623 1.87593 0.348369 0
M  V30 8488 C 808.763 3.44675 0.171145 0
M  V30 8489 C 807.876 4.23947 -0.830233 0
M  V30 8490 C 807.011 5.31079 -0.113597 0
M  V30 8491 C 806.05 6.02058 -1.10419 0
M  V30 8492 N 805.187 7.00862 -0.416709 0
M  V30 8493 H 810.027 2.63579 -1.39032 0
M  V30 8494 H 807.564 1.29556 -0.696682 0
M  V30 8495 H 809.522 4.13024 0.588838 0
M  V30 8496 H 808.152 3.06755 1.00504 0
M  V30 8497 H 807.204 3.55016 -1.36631 0
M  V30 8498 H 808.516 4.72945 -1.58508 0
M  V30 8499 H 807.67 6.05622 0.36146 0
M  V30 8500 H 806.409 4.83022 0.673854 0
M  V30 8501 H 805.414 5.26307 -1.59 0
M  V30 8502 H 806.639 6.52203 -1.8923 0
M  V30 8503 H 804.585 6.55057 0.351535 0
M  V30 8504 H 804.502 7.47804 -1.11021 0
M  V30 8505 H 805.77 7.79492 0.0359606 0
M  V30 8506 N 809.999 0.752036 1.385 0
M  V30 8507 C 811.276 0.233075 1.94206 0
M  V30 8508 C 811.656 -1.26838 1.68746 0
M  V30 8509 O 811.004 -2.04214 1.02513 0
M  V30 8510 C 811.214 0.58509 3.44061 0
M  V30 8511 C 812.562 0.543871 4.21102 0
M  V30 8512 O 813.586 0.523291 3.52335 0
M  V30 8513 O 812.445 0.553436 5.4369 0
M  V30 8514 H 809.539 0.0483049 0.825588 0
M  V30 8515 H 812.085 0.832053 1.47902 0
M  V30 8516 H 810.857 1.62212 3.56094 0
M  V30 8517 H 810.48 -0.0419738 3.97578 0
M  V30 8518 N 811.477 -1.49425 0.500989 0
M  V30 8519 C 812.407 -2.31971 -0.266775 0
M  V30 8520 C 813.388 -1.40245 -0.962563 0
M  V30 8521 O 814.573 -1.69154 -0.953968 0
M  V30 8522 C 811.703 -3.20757 -1.33163 0
M  V30 8523 C 810.657 -4.21275 -0.75572 0
M  V30 8524 C 809.983 -4.98997 -1.92109 0
M  V30 8525 C 811.283 -5.21686 0.253213 0
M  V30 8526 H 812.977 -2.96408 0.422237 0
M  V30 8527 H 810.523 -1.4254 0.204505 0
M  V30 8528 H 812.476 -3.77315 -1.87646 0
M  V30 8529 H 811.2 -2.54263 -2.04983 0
M  V30 8530 H 809.859 -3.65861 -0.232637 0
M  V30 8531 H 809.507 -4.28951 -2.62698 0
M  V30 8532 H 809.207 -5.67011 -1.54182 0
M  V30 8533 H 810.731 -5.584 -2.47026 0
M  V30 8534 H 812.145 -5.72939 -0.203483 0
M  V30 8535 H 810.542 -5.9759 0.548322 0
M  V30 8536 H 811.612 -4.70596 1.16909 0
M  V30 8537 N 812.955 -0.234822 -1.55841 0
M  V30 8538 C 813.918 0.656378 -2.196 0
M  V30 8539 C 814.918 1.11179 -1.16171 0
M  V30 8540 O 816.108 1.01845 -1.41326 0
M  V30 8541 C 813.24 1.90072 -2.82993 0
M  V30 8542 H 814.433 0.100281 -2.99732 0
M  V30 8543 H 811.986 0.0147613 -1.56293 0
M  V30 8544 H 812.721 2.49836 -2.06767 0
M  V30 8545 H 812.506 1.5825 -3.58747 0
M  V30 8546 H 813.996 2.53538 -3.31826 0
M  V30 8547 N 814.433 1.57553 0.0384317 0
M  V30 8548 C 815.658 1.93485 0.746872 0
M  V30 8549 C 816.083 0.834069 1.68597 0
M  V30 8550 O 815.441 -0.210902 1.80069 0
M  V30 8551 C 815.489 3.28463 1.4881 0
M  V30 8552 O 814.593 3.20051 2.60079 0
M  V30 8553 H 813.934 0.632675 0.201539 0
M  V30 8554 H 816.464 2.046 -0.00329815 0
M  V30 8555 H 816.474 3.63132 1.86009 0
M  V30 8556 H 815.149 4.08147 0.799297 0
M  V30 8557 H 813.726 2.96998 2.25492 0
M  V30 8558 N 815.911 -0.310526 1.54511 0
M  V30 8559 C 817.322 -0.884142 1.64438 0
M  V30 8560 C 817.673 -1.88425 0.546855 0
M  V30 8561 O 816.798 -2.14049 -0.31811 0
M  V30 8562 C 817.393 -1.6104 2.9808 0
M  V30 8563 C 815.952 -2.13255 3.1016 0
M  V30 8564 C 815.099 -0.96213 2.60074 0
M  V30 8565 H 818.05 -0.0877666 1.58457 0
M  V30 8566 H 818.071 -2.47541 2.8897 0
M  V30 8567 H 817.583 -0.882255 3.77939 0
M  V30 8568 H 815.684 -2.89145 2.35002 0
M  V30 8569 H 815.797 -2.37361 4.16169 0
M  V30 8570 H 814.161 -1.34501 2.16291 0
M  V30 8571 H 814.944 -0.248098 3.42402 0
M  V30 8572 N 817.389 -1.46805 -0.573248 0
M  V30 8573 C 818.339 -1.54497 -1.67674 0
M  V30 8574 C 819.323 -0.405117 -1.55716 0
M  V30 8575 O 820.515 -0.654097 -1.64471 0
M  V30 8576 C 817.644 -1.54717 -3.0646 0
M  V30 8577 C 816.73 -2.7403 -3.2368 0
M  V30 8578 N 817.121 -3.98871 -3.11023 0
M  V30 8579 C 815.419 -2.70453 -3.54642 0
M  V30 8580 C 816.12 -4.78689 -3.30502 0
M  V30 8581 N 815.096 -4.10727 -3.56096 0
M  V30 8582 H 818.898 -2.48809 -1.56433 0
M  V30 8583 H 816.412 -1.42576 -0.777554 0
M  V30 8584 H 818.409 -1.58316 -3.8567 0
M  V30 8585 H 817.069 -0.614886 -3.18825 0
M  V30 8586 H 818.08 -4.29976 -2.88688 0
M  V30 8587 H 814.757 -1.86291 -3.73633 0
M  V30 8588 H 816.147 -5.87615 -3.2582 0
M  V30 8589 N 818.867 0.818669 -1.34668 0
M  V30 8590 C 819.797 1.94468 -1.29245 0
M  V30 8591 C 820.778 1.69257 -0.169101 0
M  V30 8592 O 821.963 1.90794 -0.362143 0
M  V30 8593 C 819.093 3.31001 -1.05145 0
M  V30 8594 C 818.047 3.70663 -2.13992 0
M  V30 8595 C 817.373 5.05226 -1.75074 0
M  V30 8596 C 818.673 3.82312 -3.55858 0
M  V30 8597 H 820.367 1.99263 -2.2346 0
M  V30 8598 H 817.913 0.957304 -1.07572 0
M  V30 8599 H 819.866 4.09364 -0.999949 0
M  V30 8600 H 818.59 3.26517 -0.0737312 0
M  V30 8601 H 817.249 2.94578 -2.18219 0
M  V30 8602 H 816.897 4.97233 -0.759518 0
M  V30 8603 H 816.597 5.32734 -2.47928 0
M  V30 8604 H 818.121 5.86042 -1.71427 0
M  V30 8605 H 819.535 4.50935 -3.5402 0
M  V30 8606 H 817.932 4.21278 -4.2737 0
M  V30 8607 H 819.002 2.84193 -3.9289 0
M  V30 8608 N 820.346 1.18468 1.03938 0
M  V30 8609 C 821.594 0.978895 1.76811 0
M  V30 8610 C 821.915 -0.49257 1.88676 0
M  V30 8611 O 821.185 -1.3572 1.41269 0
M  V30 8612 H 819.765 0.359201 0.654968 0
M  V30 8613 H 822.427 1.49173 1.25433 0
M  V30 8614 H 821.523 1.418 2.78027 0
M  V30 8615 N 821.824 -1.22873 0.986916 0
M  V30 8616 C 822.754 -2.2688 0.552064 0
M  V30 8617 C 823.735 -1.64883 -0.418048 0
M  V30 8618 O 824.92 -1.9171 -0.30999 0
M  V30 8619 C 822.05 -3.47018 -0.139959 0
M  V30 8620 C 821.004 -4.21411 0.748091 0
M  V30 8621 C 820.33 -5.34645 -0.0765132 0
M  V30 8622 C 821.63 -4.80726 2.04206 0
M  V30 8623 H 823.324 -2.63507 1.42143 0
M  V30 8624 H 820.87 -1.26668 0.68492 0
M  V30 8625 H 822.823 -4.18931 -0.455527 0
M  V30 8626 H 821.547 -3.0947 -1.04382 0
M  V30 8627 H 820.206 -3.51325 1.04721 0
M  V30 8628 H 819.854 -4.93339 -0.981109 0
M  V30 8629 H 819.554 -5.85342 0.514606 0
M  V30 8630 H 821.078 -6.09377 -0.386313 0
M  V30 8631 H 822.492 -5.44612 1.79083 0
M  V30 8632 H 820.889 -5.41737 2.5815 0
M  V30 8633 H 821.959 -4.01109 2.72469 0
M  V30 8634 N 823.302 -0.75937 -1.38099 0
M  V30 8635 C 824.55 -0.317485 -1.99591 0
M  V30 8636 C 824.871 1.10628 -1.60581 0
M  V30 8637 O 824.141 1.7575 -0.865378 0
M  V30 8638 H 822.721 -0.114397 -0.738189 0
M  V30 8639 H 825.383 -0.974749 -1.68774 0
M  V30 8640 H 824.479 -0.385227 -3.09713 0
M  V30 8641 N 824.78 1.49157 -0.508906 0
M  V30 8642 C 826.005 2.07376 0.0315182 0
M  V30 8643 C 826.43 1.36575 1.2934 0
M  V30 8644 O 825.788 0.424963 1.76249 0
M  V30 8645 C 825.836 3.59661 0.260118 0
M  V30 8646 O 824.94 3.90255 1.33322 0
M  V30 8647 H 824.281 0.663334 -0.029739 0
M  V30 8648 H 826.811 1.91857 -0.710791 0
M  V30 8649 H 826.821 4.05056 0.489225 0
M  V30 8650 H 825.496 4.10601 -0.661794 0
M  V30 8651 H 824.073 3.56661 1.08844 0
M  V30 8652 N 826.258 0.243083 1.55714 0
M  V30 8653 C 827.669 -0.260788 1.8487 0
M  V30 8654 C 828.02 -1.57879 1.16485 0
M  V30 8655 O 827.145 -2.1184 0.441908 0
M  V30 8656 C 827.74 -0.479954 3.35383 0
M  V30 8657 C 826.299 -0.928096 3.64778 0
M  V30 8658 C 825.446 -0.00316416 2.773 0
M  V30 8659 H 828.397 0.465743 1.51712 0
M  V30 8660 H 828.418 -1.32308 3.56756 0
M  V30 8661 H 827.93 0.479468 3.85127 0
M  V30 8662 H 826.031 -1.90012 3.20509 0
M  V30 8663 H 826.144 -0.7876 4.72582 0
M  V30 8664 H 824.508 -0.513849 2.49463 0
M  V30 8665 H 825.291 0.951562 3.29849 0
M  V30 8666 N 827.736 -1.57571 -0.0300757 0
M  V30 8667 C 829.152 -1.54869 -0.385703 0
M  V30 8668 C 829.352 -0.969068 -1.76667 0
M  V30 8669 O 828.408 -0.589676 -2.45518 0
M  V30 8670 C 829.721 -2.99313 -0.288482 0
M  V30 8671 C 831.269 -3.10857 -0.365638 0
M  V30 8672 C 831.744 -4.5703 -0.297878 0
M  V30 8673 N 833.235 -4.61825 -0.356703 0
M  V30 8674 C 833.97 -5.72466 -0.327146 0
M  V30 8675 N 833.466 -6.92349 -0.249941 0
M  V30 8676 N 835.259 -5.60836 -0.376801 0
M  V30 8677 H 827.41 -1.936 0.87367 0
M  V30 8678 H 829.673 -0.887924 0.332106 0
M  V30 8679 H 829.379 -3.45443 0.66047 0
M  V30 8680 H 829.253 -3.61332 -1.08253 0
M  V30 8681 H 831.64 -2.64676 -1.30502 0
M  V30 8682 H 831.721 -2.51671 0.457744 0
M  V30 8683 H 831.365 -5.03879 0.637835 0
M  V30 8684 H 831.295 -5.14127 -1.13935 0
M  V30 8685 H 833.786 -3.75571 -0.418926 0
M  V30 8686 H 834.099 -7.7245 -0.23246 0
M  V30 8687 H 832.444 -6.94664 -0.216004 0
M  V30 8688 H 835.635 -4.66073 -0.435101 0
M  V30 8689 H 835.808 -6.47052 -0.350298 0
M  V30 8690 N 829.214 0.302327 -1.54673 0
M  V30 8691 C 830.46 1.03924 -1.74149 0
M  V30 8692 C 830.793 1.86968 -0.525041 0
M  V30 8693 O 830.068 1.88538 0.477868 0
M  V30 8694 C 830.351 1.94633 -3.02969 0
M  V30 8695 C 830.204 1.14778 -4.34909 0
M  V30 8696 C 831.523 2.93826 -3.27649 0
M  V30 8697 H 828.642 0.376405 -0.633631 0
M  V30 8698 H 831.284 0.314007 -1.87387 0
M  V30 8699 H 829.434 2.56471 -2.91813 0
M  V30 8700 H 831.106 0.552363 -4.57981 0
M  V30 8701 H 829.349 0.450462 -4.31455 0
M  V30 8702 H 830.02 1.81495 -5.21309 0
M  V30 8703 H 832.496 2.42117 -3.38406 0
M  V30 8704 H 831.372 3.54462 -4.19104 0
M  V30 8705 H 831.633 3.67416 -2.45882 0
M  V30 8706 N 830.692 1.47107 0.565454 0
M  V30 8707 C 831.917 1.57153 1.35343 0
M  V30 8708 C 832.342 0.219247 1.86818 0
M  V30 8709 O 831.7 -0.803539 1.62521 0
M  V30 8710 C 831.748 2.59387 2.50501 0
M  V30 8711 O 830.852 2.14086 3.52478 0
M  V30 8712 H 830.193 0.528209 0.402357 0
M  V30 8713 H 832.723 1.92821 0.684189 0
M  V30 8714 H 832.733 2.79546 2.97184 0
M  V30 8715 H 831.408 3.57579 2.12391 0
M  V30 8716 H 829.985 2.03991 3.12157 0
M  V30 8717 N 832.17 -0.811516 1.35101 0
M  V30 8718 C 833.586 -1.10634 1.15031 0
M  V30 8719 C 833.786 -2.01459 -0.0405379 0
M  V30 8720 O 832.842 -2.42235 -0.712635 0
M  V30 8721 C 834.155 -1.74207 2.45097 0
M  V30 8722 C 835.703 -1.8665 2.51258 0
M  V30 8723 C 836.178 -2.53638 3.81355 0
M  V30 8724 N 837.669 -2.61128 3.82579 0
M  V30 8725 C 838.404 -3.13717 4.79968 0
M  V30 8726 N 837.9 -3.66782 5.87744 0
M  V30 8727 N 839.693 -3.12224 4.67411 0
M  V30 8728 H 831.844 -0.207641 2.11383 0
M  V30 8729 H 834.107 -0.154697 0.935293 0
M  V30 8730 H 833.813 -1.14936 3.32389 0
M  V30 8731 H 833.687 -2.73958 2.59281 0
M  V30 8732 H 836.074 -2.45066 1.64398 0
M  V30 8733 H 836.155 -0.857678 2.40993 0
M  V30 8734 H 835.799 -1.95873 4.68611 0
M  V30 8735 H 835.729 -3.55047 3.88907 0
M  V30 8736 H 838.22 -2.23527 3.04703 0
M  V30 8737 H 838.533 -4.05194 6.58056 0
M  V30 8738 H 836.878 -3.64994 5.91443 0
M  V30 8739 H 840.069 -2.70042 3.82354 0
M  V30 8740 H 840.242 -3.52903 5.43474 0
M  V30 8741 N 833.648 -1.19017 -1.03309 0
M  V30 8742 C 834.611 -0.926076 -2.09658 0
M  V30 8743 C 835.611 0.0917077 -1.60538 0
M  V30 8744 O 836.801 -0.142574 -1.73616 0
M  V30 8745 C 833.933 -0.390958 -3.38651 0
M  V30 8746 H 835.126 -1.86923 -2.3452 0
M  V30 8747 H 832.679 -1.00325 -1.19853 0
M  V30 8748 H 833.414 0.558446 -3.19456 0
M  V30 8749 H 833.199 -1.12474 -3.75622 0
M  V30 8750 H 834.689 -0.225131 -4.16993 0
M  V30 8751 N 835.127 1.22348 -0.993418 0
M  V30 8752 C 836.352 1.95666 -0.687727 0
M  V30 8753 C 836.777 1.72883 0.741161 0
M  V30 8754 O 836.135 1.00837 1.50671 0
M  V30 8755 C 836.183 3.46457 -0.99998 0
M  V30 8756 O 835.287 4.12281 -0.0989386 0
M  V30 8757 H 834.628 0.612102 -0.257346 0
M  V30 8758 H 837.158 1.55428 -1.33054 0
M  V30 8759 H 837.168 3.96976 -0.942035 0
M  V30 8760 H 835.843 3.62365 -2.04118 0
M  V30 8761 H 834.42 3.72295 -0.212413 0
M  V30 8762 N 836.605 0.766683 1.37694 0
M  V30 8763 C 837.83 0.338715 2.04615 0
M  V30 8764 C 838.255 -1.02918 1.57447 0
M  V30 8765 O 837.613 -1.65849 0.732386 0
M  V30 8766 C 837.661 0.385284 3.58536 0
M  V30 8767 O 836.765 -0.616081 4.07772 0
M  V30 8768 H 836.106 0.147527 0.647404 0
M  V30 8769 H 838.636 1.04146 1.7611 0
M  V30 8770 H 838.646 0.240782 4.07289 0
M  V30 8771 H 837.321 1.38325 3.92223 0
M  V30 8772 H 835.898 -0.435115 3.70353 0
M  V30 8773 N 838.083 -1.48885 0.516809 0
M  V30 8774 C 839.494 -1.86557 0.0729921 0
M  V30 8775 C 839.845 -1.42767 -1.34581 0
M  V30 8776 O 838.97 -0.812514 -2.00567 0
M  V30 8777 C 839.565 -3.38567 0.125686 0
M  V30 8778 C 838.124 -3.75481 -0.262867 0
M  V30 8779 C 837.271 -2.72913 0.491281 0
M  V30 8780 H 840.222 -1.40978 0.728767 0
M  V30 8781 H 840.243 -3.74629 -0.665831 0
M  V30 8782 H 839.755 -3.70408 1.15842 0
M  V30 8783 H 837.856 -3.49251 -1.29824 0
M  V30 8784 H 837.969 -4.79052 0.067579 0
M  V30 8785 H 836.333 -2.54627 -0.0608525 0
M  V30 8786 H 837.116 -3.07599 1.5244 0
M  V30 8787 N 839.561 -0.251338 -1.55583 0
M  V30 8788 C 840.471 0.656978 -2.25213 0
M  V30 8789 C 841.487 1.18966 -1.26977 0
M  V30 8790 O 842.663 1.22499 -1.59862 0
M  V30 8791 C 839.728 1.83527 -2.94141 0
M  V30 8792 C 838.789 1.34162 -4.07798 0
M  V30 8793 C 838.022 2.46375 -4.73429 0
M  V30 8794 O 838.245 3.65205 -4.38157 0
M  V30 8795 O 837.179 2.15881 -5.61853 0
M  V30 8796 H 841.005 0.0936395 -3.03556 0
M  V30 8797 H 838.59 -0.0196638 -1.49387 0
M  V30 8798 H 840.472 2.52279 -3.3754 0
M  V30 8799 H 839.147 2.38614 -2.18735 0
M  V30 8800 H 838.054 0.621249 -3.68906 0
M  V30 8801 H 839.387 0.836779 -4.85035 0
M  V30 8802 N 841.039 1.57585 0.0217189 0
M  V30 8803 C 842.287 1.89231 0.709641 0
M  V30 8804 C 842.608 0.849964 1.75501 0
M  V30 8805 O 841.878 -0.115485 1.95559 0
M  V30 8806 H 840.458 0.69838 0.265092 0
M  V30 8807 H 843.12 1.94895 -0.0140688 0
M  V30 8808 H 842.216 2.88333 1.19459 0
M  V30 8809 N 842.517 -0.29412 1.54831 0
M  V30 8810 C 843.933 -0.640167 1.46199 0
M  V30 8811 C 844.133 -1.90426 0.658798 0
M  V30 8812 O 843.189 -2.51932 0.169228 0
M  V30 8813 C 844.502 -0.786763 2.90225 0
M  V30 8814 C 846.05 -0.882201 3.0031 0
M  V30 8815 C 846.525 -1.06074 4.45547 0
M  V30 8816 N 848.016 -1.12678 4.49286 0
M  V30 8817 C 848.751 -1.28334 5.58854 0
M  V30 8818 N 848.247 -1.40845 6.78332 0
M  V30 8819 N 850.04 -1.31277 5.46555 0
M  V30 8820 H 842.191 0.536334 2.05517 0
M  V30 8821 H 844.454 0.178363 0.93107 0
M  V30 8822 H 844.16 0.0713018 3.51628 0
M  V30 8823 H 844.034 -1.67364 3.38037 0
M  V30 8824 H 846.421 -1.73075 2.39017 0
M  V30 8825 H 846.502 0.0288405 2.55784 0
M  V30 8826 H 846.146 -0.216935 5.07437 0
M  V30 8827 H 846.076 -1.98611 4.8771 0
M  V30 8828 H 848.567 -1.04335 3.63212 0
M  V30 8829 H 848.88 -1.52566 7.57591 0
M  V30 8830 H 847.225 -1.37888 6.81184 0
M  V30 8831 H 850.416 -1.2112 4.52159 0
M  V30 8832 H 850.589 -1.43136 6.31994 0
M  V30 8833 N 843.995 -1.47404 -0.557645 0
M  V30 8834 C 844.945 -1.56267 -1.66026 0
M  V30 8835 C 845.929 -0.42161 -1.55278 0
M  V30 8836 O 847.121 -0.671505 -1.63768 0
M  V30 8837 C 844.25 -1.57958 -3.04802 0
M  V30 8838 C 843.336 -2.77447 -3.20755 0
M  V30 8839 N 843.727 -4.02148 -3.06775 0
M  V30 8840 C 842.025 -2.74199 -3.51754 0
M  V30 8841 C 842.726 -4.82168 -3.25406 0
M  V30 8842 N 841.702 -4.14481 -3.5172 0
M  V30 8843 H 845.504 -2.50454 -1.53785 0
M  V30 8844 H 843.018 -1.43392 -0.762388 0
M  V30 8845 H 845.015 -1.62397 -3.8397 0
M  V30 8846 H 843.675 -0.648667 -3.18155 0
M  V30 8847 H 844.686 -4.33014 -2.84111 0
M  V30 8848 H 841.363 -1.90243 -3.71637 0
M  V30 8849 H 842.753 -5.91037 -3.19569 0
M  V30 8850 N 845.473 0.80434 -1.35529 0
M  V30 8851 C 846.403 1.93086 -1.31301 0
M  V30 8852 C 847.384 1.69068 -0.187044 0
M  V30 8853 O 848.569 1.90399 -0.382359 0
M  V30 8854 C 845.699 3.29867 -1.0865 0
M  V30 8855 C 844.653 3.68373 -2.17911 0
M  V30 8856 C 843.979 5.0334 -1.80423 0
M  V30 8857 C 845.279 3.78516 -3.59893 0
M  V30 8858 H 846.973 1.96882 -2.25561 0
M  V30 8859 H 844.519 0.945841 -1.08581 0
M  V30 8860 H 846.472 4.08281 -1.04331 0
M  V30 8861 H 845.196 3.2642 -0.108359 0
M  V30 8862 H 843.855 2.92247 -2.21331 0
M  V30 8863 H 843.503 4.96399 -0.812213 0
M  V30 8864 H 843.203 5.30074 -2.53565 0
M  V30 8865 H 844.727 5.84191 -1.77633 0
M  V30 8866 H 846.141 4.47155 -3.58783 0
M  V30 8867 H 844.538 4.16721 -4.31814 0
M  V30 8868 H 845.608 2.8001 -3.95882 0
M  V30 8869 N 846.951 1.19563 1.02676 0
M  V30 8870 C 848.362 1.00158 1.57561 0
M  V30 8871 C 848.713 -0.444922 1.91089 0
M  V30 8872 O 847.838 -1.32466 1.71119 0
M  V30 8873 C 848.433 1.81181 2.86284 0
M  V30 8874 C 846.992 1.66171 3.37734 0
M  V30 8875 C 846.139 1.7975 2.11152 0
M  V30 8876 H 849.09 1.33904 0.85179 0
M  V30 8877 H 849.111 1.30916 3.57269 0
M  V30 8878 H 848.623 2.86454 2.6185 0
M  V30 8879 H 846.724 0.634927 3.6715 0
M  V30 8880 H 846.837 2.46832 4.10622 0
M  V30 8881 H 845.201 1.22833 2.23123 0
M  V30 8882 H 845.984 2.86487 1.89157 0
M  V30 8883 N 848.429 -1.21819 0.999893 0
M  V30 8884 C 849.654 -1.95298 0.698094 0
M  V30 8885 C 850.079 -1.73273 -0.731982 0
M  V30 8886 O 849.437 -1.01634 -1.50134 0
M  V30 8887 C 849.485 -3.45922 1.01834 0
M  V30 8888 O 848.589 -4.12223 0.120801 0
M  V30 8889 H 847.93 -0.610729 0.260588 0
M  V30 8890 H 850.46 -1.5472 1.33876 0
M  V30 8891 H 850.47 -3.96471 0.963074 0
M  V30 8892 H 849.145 -3.61278 2.06037 0
M  V30 8893 H 847.722 -3.72177 0.232153 0
M  V30 8894 N 849.908 -0.773975 -1.37286 0
M  V30 8895 C 851.319 -0.404433 -1.82267 0
M  V30 8896 C 851.67 1.06971 -1.64474 0
M  V30 8897 O 850.795 1.82867 -1.15708 0
M  V30 8898 C 851.39 -0.727298 -3.30902 0
M  V30 8899 C 849.949 -0.410784 -3.74152 0
M  V30 8900 C 849.096 -0.969983 -2.59782 0
M  V30 8901 H 852.047 -0.968437 -1.25726 0
M  V30 8902 H 852.068 -0.0127575 -3.80498 0
M  V30 8903 H 851.58 -1.80026 -3.4382 0
M  V30 8904 H 849.681 0.65477 -3.66802 0
M  V30 8905 H 849.794 -0.920592 -4.70172 0
M  V30 8906 H 848.158 -0.394094 -2.51633 0
M  V30 8907 H 848.941 -2.04839 -2.75492 0
M  V30 8908 N 851.386 1.48609 -0.524698 0
M  V30 8909 C 852.318 2.27508 0.278 0
M  V30 8910 C 853.331 1.35042 0.909258 0
M  V30 8911 O 854.52 1.60136 0.788592 0
M  V30 8912 C 851.62 3.08247 1.40843 0
M  V30 8913 C 850.793 4.28455 0.880083 0
M  V30 8914 C 849.852 4.91048 1.891 0
M  V30 8915 O 848.878 5.5042 1.45005 0
M  V30 8916 N 850.08 4.82816 3.22288 0
M  V30 8917 H 852.845 2.97037 -0.398642 0
M  V30 8918 H 850.406 1.57876 -0.358698 0
M  V30 8919 H 852.398 3.46992 2.08276 0
M  V30 8920 H 850.968 2.41173 1.98883 0
M  V30 8921 H 850.188 3.94189 0.0299228 0
M  V30 8922 H 851.476 5.06279 0.505881 0
M  V30 8923 H 850.874 4.3572 3.60783 0
M  V30 8924 H 849.431 5.25676 3.85368 0
M  V30 8925 N 852.864 0.259585 1.55447 0
M  V30 8926 C 853.794 -0.62852 2.24882 0
M  V30 8927 C 854.775 -1.17128 1.23349 0
M  V30 8928 O 855.96 -1.20829 1.52033 0
M  V30 8929 C 853.09 -1.81983 2.95803 0
M  V30 8930 C 852.044 -1.40929 4.04132 0
M  V30 8931 C 851.37 -2.68246 4.62545 0
M  V30 8932 C 852.67 -0.570956 5.1917 0
M  V30 8933 H 854.364 -0.0495021 2.99359 0
M  V30 8934 H 851.91 -0.0223688 1.43983 0
M  V30 8935 H 853.863 -2.44689 3.43082 0
M  V30 8936 H 852.587 -2.42444 2.18835 0
M  V30 8937 H 851.246 -0.805519 3.57641 0
M  V30 8938 H 850.894 -3.26931 3.82263 0
M  V30 8939 H 850.594 -2.41495 5.35681 0
M  V30 8940 H 852.118 -3.31827 5.12565 0
M  V30 8941 H 853.532 -1.10262 5.62597 0
M  V30 8942 H 851.929 -0.398979 5.98772 0
M  V30 8943 H 852.999 0.413918 4.8313 0
M  V30 8944 N 854.342 -1.57594 -0.0133615 0
M  V30 8945 C 855.59 -1.89605 -0.699596 0
M  V30 8946 C 855.911 -0.85926 -1.75048 0
M  V30 8947 O 855.181 0.105112 -1.95618 0
M  V30 8948 H 853.761 -0.699776 -0.261385 0
M  V30 8949 H 856.423 -1.94885 0.0244044 0
M  V30 8950 H 855.519 -2.88962 -1.17928 0
M  V30 8951 N 855.82 0.285905 -1.54985 0
M  V30 8952 C 857.048 1.03776 -1.78992 0
M  V30 8953 C 857.463 1.80402 -0.556814 0
M  V30 8954 O 856.82 1.76242 0.473801 0
M  V30 8955 C 856.871 2.0065 -3.00702 0
M  V30 8956 O 856.592 1.27131 -4.19249 0
M  V30 8957 C 858.093 2.87753 -3.37214 0
M  V30 8958 H 855.313 0.307126 -0.596586 0
M  V30 8959 H 857.857 0.3206 -2.01971 0
M  V30 8960 H 856.012 2.67847 -2.79887 0
M  V30 8961 H 856.426 1.92316 -4.8797 0
M  V30 8962 H 857.9 3.51548 -4.2558 0
M  V30 8963 H 858.377 3.56848 -2.56039 0
M  V30 8964 H 858.983 2.26065 -3.60242 0
M  V30 8965 N 857.298 1.47698 0.54982 0
M  V30 8966 C 858.245 1.60739 1.65625 0
M  V30 8967 C 859.215 0.450129 1.59884 0
M  V30 8968 O 860.4 0.671123 1.78607 0
M  V30 8969 C 857.54 1.63457 3.03934 0
M  V30 8970 C 856.653 2.90152 3.20056 0
M  V30 8971 C 855.788 2.84157 4.48807 0
M  V30 8972 C 854.827 4.05644 4.58387 0
M  V30 8973 N 853.964 3.97843 5.78503 0
M  V30 8974 H 858.804 2.55234 1.53817 0
M  V30 8975 H 856.341 1.26593 0.749173 0
M  V30 8976 H 858.299 1.63015 3.84034 0
M  V30 8977 H 856.929 0.724689 3.1456 0
M  V30 8978 H 855.981 3.00428 2.33339 0
M  V30 8979 H 857.293 3.80097 3.22998 0
M  V30 8980 H 856.447 2.82006 5.37175 0
M  V30 8981 H 855.186 1.91908 4.48356 0
M  V30 8982 H 854.191 4.08092 3.6843 0
M  V30 8983 H 855.416 4.9903 4.60593 0
M  V30 8984 H 853.362 3.08401 5.78986 0
M  V30 8985 H 853.279 4.81473 5.82855 0
M  V30 8986 H 854.547 3.99719 6.69212 0
M  V30 8987 N 858.776 -0.797141 1.35954 0
M  V30 8988 C 859.739 -1.89104 1.29508 0
M  V30 8989 C 860.739 -1.59495 0.204444 0
M  V30 8990 O 861.929 -1.68051 0.458746 0
M  V30 8991 C 859.061 -3.25726 1.00576 0
M  V30 8992 H 860.254 -1.96237 2.26785 0
M  V30 8993 H 857.807 -0.994075 1.20614 0
M  V30 8994 H 858.542 -3.24279 0.0372519 0
M  V30 8995 H 858.327 -3.48604 1.79492 0
M  V30 8996 H 859.817 -4.0578 0.986508 0
M  V30 8997 N 860.254 -1.20106 -1.0204 0
M  V30 8998 C 861.665 -1.00992 -1.57027 0
M  V30 8999 C 862.016 0.434782 -1.91322 0
M  V30 9000 O 861.141 1.31557 -1.71819 0
M  V30 9001 C 861.736 -1.82697 -2.85319 0
M  V30 9002 C 860.295 -1.67959 -3.36848 0
M  V30 9003 C 859.442 -1.80868 -2.10195 0
M  V30 9004 H 862.393 -1.34354 -0.844676 0
M  V30 9005 H 862.414 -1.32809 -3.5657 0
M  V30 9006 H 861.926 -2.87839 -2.60328 0
M  V30 9007 H 860.027 -0.654389 -3.66809 0
M  V30 9008 H 860.14 -2.49006 -4.09308 0
M  V30 9009 H 858.504 -1.24015 -2.22469 0
M  V30 9010 H 859.287 -2.87486 -1.87635 0
M  V30 9011 N 861.732 1.21287 -1.00634 0
M  V30 9012 C 862.978 1.90671 -0.690822 0
M  V30 9013 C 863.311 1.77996 0.776592 0
M  V30 9014 O 862.586 1.15748 1.5631 0
M  V30 9015 C 862.869 3.42426 -1.11428 0
M  V30 9016 C 862.722 3.64086 -2.64124 0
M  V30 9017 C 864.041 4.34851 -0.677686 0
M  V30 9018 H 861.16 0.692419 -0.252439 0
M  V30 9019 H 863.802 1.42893 -1.25226 0
M  V30 9020 H 861.952 3.83249 -0.636586 0
M  V30 9021 H 863.624 3.32582 -3.19667 0
M  V30 9022 H 861.867 3.07906 -3.05576 0
M  V30 9023 H 862.538 4.7042 -2.88806 0
M  V30 9024 H 865.014 4.01619 -1.0882 0
M  V30 9025 H 863.89 5.39675 -1.00213 0
M  V30 9026 H 864.151 4.4009 0.421125 0
M  V30 9027 N 863.21 0.781244 1.36873 0
M  V30 9028 C 864.173 0.180094 2.28491 0
M  V30 9029 C 865.173 -0.617798 1.48458 0
M  V30 9030 O 866.363 -0.439991 1.68552 0
M  V30 9031 C 863.495 -0.751741 3.32508 0
M  V30 9032 H 864.688 0.987837 2.83164 0
M  V30 9033 H 862.241 0.550102 1.463 0
M  V30 9034 H 862.976 -1.58413 2.82977 0
M  V30 9035 H 862.761 -0.181649 3.91679 0
M  V30 9036 H 864.251 -1.16748 4.00949 0
M  V30 9037 N 864.689 -1.48329 0.532571 0
M  V30 9038 C 866.105 -1.58458 0.190605 0
M  V30 9039 C 866.305 -1.53427 -1.30623 0
M  V30 9040 O 865.361 -1.4247 -2.08467 0
M  V30 9041 C 866.674 -2.89989 0.79543 0
M  V30 9042 C 868.222 -3.03523 0.7644 0
M  V30 9043 C 868.697 -4.37718 1.34785 0
M  V30 9044 N 870.188 -4.44292 1.30993 0
M  V30 9045 C 870.923 -5.4664 1.73124 0
M  V30 9046 N 870.419 -6.5593 2.22997 0
M  V30 9047 N 872.212 -5.37538 1.64346 0
M  V30 9048 H 864.363 -1.49842 1.50537 0
M  V30 9049 H 866.626 -0.71164 0.626316 0
M  V30 9050 H 866.332 -2.99333 1.84642 0
M  V30 9051 H 866.206 -3.76203 0.27403 0
M  V30 9052 H 868.593 -2.93789 -0.277831 0
M  V30 9053 H 868.674 -2.18912 1.3233 0
M  V30 9054 H 868.318 -4.48206 2.38902 0
M  V30 9055 H 868.248 -5.21019 0.764609 0
M  V30 9056 H 870.739 -3.65897 0.944868 0
M  V30 9057 H 871.052 -7.30167 2.53133 0
M  V30 9058 H 869.397 -6.56886 2.26992 0
M  V30 9059 H 872.588 -4.51052 1.25178 0
M  V30 9060 H 872.761 -6.17169 1.97501 0
M  V30 9061 N 866.167 -0.267825 -1.55308 0
M  V30 9062 C 867.578 0.231344 -1.85261 0
M  V30 9063 C 867.929 1.56006 -1.18982 0
M  V30 9064 O 867.054 2.1111 -0.475554 0
M  V30 9065 C 867.649 0.426537 -3.36104 0
M  V30 9066 C 866.208 0.869945 -3.66209 0
M  V30 9067 C 865.355 -0.0409522 -2.7727 0
M  V30 9068 H 868.306 -0.489821 -1.50952 0
M  V30 9069 H 868.327 1.26616 -3.58816 0
M  V30 9070 H 867.839 -0.540678 -3.84315 0
M  V30 9071 H 865.94 1.84889 -3.23492 0
M  V30 9072 H 866.053 0.712316 -4.73775 0
M  V30 9073 H 864.417 0.474097 -2.50249 0
M  V30 9074 H 865.2 -1.00392 -3.28293 0
M  V30 9075 N 867.645 1.57599 0.00500368 0
M  V30 9076 C 869.061 1.55463 0.361015 0
M  V30 9077 C 869.261 0.997051 1.75103 0
M  V30 9078 O 868.317 0.628661 2.44549 0
M  V30 9079 C 869.63 2.99734 0.240828 0
M  V30 9080 C 871.178 3.11399 0.316138 0
M  V30 9081 C 871.653 4.57446 0.22513 0
M  V30 9082 N 873.144 4.62334 0.283186 0
M  V30 9083 C 873.879 5.72914 0.23603 0
M  V30 9084 N 873.375 6.92659 0.139762 0
M  V30 9085 N 875.168 5.61364 0.287529 0
M  V30 9086 H 867.319 1.92185 -0.904359 0
M  V30 9087 H 869.582 0.882529 -0.34619 0
M  V30 9088 H 869.288 3.44348 -0.715343 0
M  V30 9089 H 869.162 3.63009 1.02491 0
M  V30 9090 H 871.549 2.66718 1.26275 0
M  V30 9091 H 871.63 2.50911 -0.497725 0
M  V30 9092 H 871.274 5.02801 -0.717917 0
M  V30 9093 H 871.204 5.15874 1.05742 0
M  V30 9094 H 873.695 3.7619 0.359123 0
M  V30 9095 H 874.008 7.72722 0.10954 0
M  V30 9096 H 872.353 6.9492 0.105462 0
M  V30 9097 H 875.544 4.66707 0.360897 0
M  V30 9098 H 875.717 6.47528 0.247313 0
M  V30 9099 N 869.123 -0.277682 1.55134 0
M  V30 9100 C 870.056 -1.3685 1.82612 0
M  V30 9101 C 871.034 -1.47752 0.678833 0
M  V30 9102 O 872.218 -1.6445 0.921329 0
M  V30 9103 C 869.345 -2.74539 1.98359 0
M  V30 9104 C 868.391 -2.80945 3.20893 0
M  V30 9105 S 869.224 -2.40666 4.78373 0
M  V30 9106 C 870.38 -3.80338 4.97085 0
M  V30 9107 H 870.613 -1.13338 2.74849 0
M  V30 9108 H 868.146 -0.477063 1.46845 0
M  V30 9109 H 870.104 -3.53834 2.08115 0
M  V30 9110 H 868.765 -2.95306 1.07019 0
M  V30 9111 H 867.958 -3.81992 3.28783 0
M  V30 9112 H 867.56 -2.09667 3.09703 0
M  V30 9113 H 869.852 -4.75565 4.8254 0
M  V30 9114 H 870.795 -3.77403 5.99143 0
M  V30 9115 H 871.203 -3.71424 4.25094 0
M  V30 9116 N 870.601 -1.47988 -0.541979 0
M  V30 9117 C 871.826 -1.59286 -1.32826 0
M  V30 9118 C 872.251 -0.24894 -1.86445 0
M  V30 9119 O 871.609 0.777581 -1.63778 0
M  V30 9120 C 871.657 -2.6334 -2.46343 0
M  V30 9121 O 870.761 -2.19667 -3.49028 0
M  V30 9122 H 870.102 -0.534543 -0.393903 0
M  V30 9123 H 872.632 -1.93885 -0.653427 0
M  V30 9124 H 872.642 -2.84238 -2.92699 0
M  V30 9125 H 871.317 -3.60913 -2.06675 0
M  V30 9126 H 869.894 -2.08932 -3.08872 0
M  V30 9127 N 872.079 0.78992 -1.36375 0
M  V30 9128 C 873.042 1.88414 -1.30509 0
M  V30 9129 C 874.042 1.59384 -0.2129 0
M  V30 9130 O 875.232 1.67805 -0.467651 0
M  V30 9131 C 872.364 3.25188 -1.02302 0
M  V30 9132 H 873.557 1.95031 -2.27822 0
M  V30 9133 H 871.11 0.987664 -1.2114 0
M  V30 9134 H 871.845 3.24254 -0.0544486 0
M  V30 9135 H 871.63 3.47647 -1.81338 0
M  V30 9136 H 873.12 4.05252 -1.00801 0
M  V30 9137 N 873.557 1.20646 1.01402 0
M  V30 9138 C 874.489 0.915392 2.10127 0
M  V30 9139 C 875.502 -0.0978705 1.62506 0
M  V30 9140 O 876.691 0.133477 1.78 0
M  V30 9141 C 873.791 0.351304 3.37074 0
M  V30 9142 C 872.964 1.41673 4.13821 0
M  V30 9143 C 872.023 0.8635 5.19067 0
M  V30 9144 O 871.049 1.54481 5.47836 0
M  V30 9145 N 872.251 -0.325799 5.79585 0
M  V30 9146 H 875.016 1.85132 2.35682 0
M  V30 9147 H 872.577 1.11048 1.17813 0
M  V30 9148 H 874.569 -0.032996 4.04687 0
M  V30 9149 H 873.139 -0.489242 3.08748 0
M  V30 9150 H 872.359 1.97526 3.41141 0
M  V30 9151 H 873.647 2.1342 4.61876 0
M  V30 9152 H 873.045 -0.896534 5.58551 0
M  V30 9153 H 871.602 -0.651708 6.48534 0
M  V30 9154 N 875.035 -1.20752 1.01276 0
M  V30 9155 C 875.945 -2.27079 0.589277 0
M  V30 9156 C 876.961 -1.6999 -0.371389 0
M  V30 9157 O 878.137 -2.00044 -0.233294 0
M  V30 9158 C 875.202 -3.4663 -0.0696715 0
M  V30 9159 C 874.263 -4.18962 0.936454 0
M  V30 9160 C 873.496 -5.32806 0.308856 0
M  V30 9161 O 873.719 -5.63376 -0.8924 0
M  V30 9162 O 872.653 -5.93131 1.02367 0
M  V30 9163 H 876.479 -2.6551 1.47438 0
M  V30 9164 H 874.064 -1.27297 0.782045 0
M  V30 9165 H 875.946 -4.19119 -0.437873 0
M  V30 9166 H 874.621 -3.10082 -0.929029 0
M  V30 9167 H 873.528 -3.48661 1.35595 0
M  V30 9168 H 874.861 -4.59441 1.76565 0
M  V30 9169 N 876.513 -0.788492 -1.36457 0
M  V30 9170 C 877.445 -0.144208 -2.28746 0
M  V30 9171 C 878.458 0.646009 -1.49434 0
M  V30 9172 O 879.647 0.481344 -1.71888 0
M  V30 9173 C 876.747 0.818869 -3.28858 0
M  V30 9174 C 875.92 0.0789055 -4.37329 0
M  V30 9175 C 874.979 0.957791 -5.1741 0
M  V30 9176 O 874.005 0.415378 -5.67682 0
M  V30 9177 N 875.207 2.28216 -5.33758 0
M  V30 9178 H 877.972 -0.936949 -2.84678 0
M  V30 9179 H 875.533 -0.642317 -1.48613 0
M  V30 9180 H 877.525 1.41065 -3.79319 0
M  V30 9181 H 876.095 1.51249 -2.73573 0
M  V30 9182 H 875.315 -0.693939 -3.88044 0
M  V30 9183 H 876.603 -0.431753 -5.06965 0
M  V30 9184 H 876.001 2.747 -4.94527 0
M  V30 9185 H 874.558 2.8236 -5.87466 0
M  V30 9186 N 877.991 1.48044 -0.54043 0
M  V30 9187 C 878.921 2.32597 0.205178 0
M  V30 9188 C 879.902 1.42748 0.925041 0
M  V30 9189 O 881.087 1.71624 0.908784 0
M  V30 9190 C 878.217 3.24175 1.24612 0
M  V30 9191 C 877.171 4.23131 0.64376 0
M  V30 9192 C 876.497 5.03915 1.78812 0
M  V30 9193 C 877.797 5.20831 -0.39144 0
M  V30 9194 H 879.491 2.95184 -0.500676 0
M  V30 9195 H 877.037 1.41948 -0.242225 0
M  V30 9196 H 878.99 3.82158 1.77576 0
M  V30 9197 H 877.714 2.59608 1.98169 0
M  V30 9198 H 876.373 3.66349 0.135554 0
M  V30 9199 H 876.021 4.35765 2.51232 0
M  V30 9200 H 875.721 5.709 1.39094 0
M  V30 9201 H 877.245 5.64753 2.32134 0
M  V30 9202 H 878.659 5.73277 0.0515064 0
M  V30 9203 H 877.056 5.95926 -0.706569 0
M  V30 9204 H 878.126 4.6733 -1.29345 0
M  V30 9205 N 879.47 0.276058 1.55163 0
M  V30 9206 C 880.38 -0.621066 2.2623 0
M  V30 9207 C 881.396 -1.16931 1.28853 0
M  V30 9208 O 882.572 -1.1994 1.61791 0
M  V30 9209 C 879.637 -1.78824 2.97023 0
M  V30 9210 C 878.698 -1.27657 4.09881 0
M  V30 9211 C 877.931 -2.38812 4.77289 0
M  V30 9212 O 878.154 -3.58188 4.43912 0
M  V30 9213 O 877.088 -2.06915 5.65217 0
M  V30 9214 H 880.914 -0.0453346 3.03666 0
M  V30 9215 H 878.499 0.0434275 1.49337 0
M  V30 9216 H 880.381 -2.46877 3.41511 0
M  V30 9217 H 879.056 -2.35104 2.22503 0
M  V30 9218 H 877.963 -0.56248 3.69847 0
M  V30 9219 H 879.296 -0.759509 4.86305 0
M  V30 9220 N 880.948 -1.576 0.00335426 0
M  V30 9221 C 882.364 -1.55653 -0.352766 0
M  V30 9222 C 882.564 -1.00632 -1.74572 0
M  V30 9223 O 881.62 -0.641621 -2.44212 0
M  V30 9224 C 882.933 -2.99858 -0.224929 0
M  V30 9225 C 884.481 -3.11563 -0.299619 0
M  V30 9226 C 884.956 -4.57559 -0.200868 0
M  V30 9227 N 886.447 -4.62477 -0.258663 0
M  V30 9228 C 887.182 -5.73031 -0.205644 0
M  V30 9229 N 886.678 -6.92723 -0.103027 0
M  V30 9230 N 888.471 -5.61509 -0.257754 0
M  V30 9231 H 880.622 -1.91703 0.914539 0
M  V30 9232 H 882.885 -0.88068 0.350865 0
M  V30 9233 H 882.591 -3.43964 0.733595 0
M  V30 9234 H 882.465 -3.63547 -1.00564 0
M  V30 9235 H 884.852 -2.67384 -1.24859 0
M  V30 9236 H 884.933 -2.50644 0.511025 0
M  V30 9237 H 884.577 -5.02413 0.744572 0
M  V30 9238 H 884.507 -5.16428 -1.03004 0
M  V30 9239 H 886.998 -3.76375 -0.339168 0
M  V30 9240 H 887.311 -7.7277 -0.0685593 0
M  V30 9241 H 885.656 -6.94966 -0.0686069 0
M  V30 9242 H 888.847 -4.66892 -0.336142 0
M  V30 9243 H 889.02 -6.4765 -0.21297 0
M  V30 9244 N 882.426 0.269451 -1.5528 0
M  V30 9245 C 883.359 1.3588 -1.83336 0
M  V30 9246 C 884.337 1.4739 -0.68666 0
M  V30 9247 O 885.521 1.63959 -0.930037 0
M  V30 9248 C 882.648 2.73483 -1.99812 0
M  V30 9249 C 881.694 2.79239 -3.22378 0
M  V30 9250 S 882.527 2.38125 -4.79642 0
M  V30 9251 C 883.683 3.77697 -4.99095 0
M  V30 9252 H 883.916 1.11878 -2.75446 0
M  V30 9253 H 881.449 0.469268 -1.47096 0
M  V30 9254 H 883.407 3.52725 -2.09989 0
M  V30 9255 H 882.068 2.94735 -1.08583 0
M  V30 9256 H 881.261 3.80243 -3.30804 0
M  V30 9257 H 880.863 2.08022 -3.1081 0
M  V30 9258 H 883.155 4.72999 -4.85055 0
M  V30 9259 H 884.098 3.7422 -6.01136 0
M  V30 9260 H 884.506 3.69164 -4.27058 0
M  V30 9261 N 883.904 1.48273 0.534124 0
M  V30 9262 C 885.32 1.34302 0.862272 0
M  V30 9263 C 885.52 0.350902 1.98421 0
M  V30 9264 O 884.576 -0.229364 2.51456 0
M  V30 9265 C 885.889 2.74227 1.23371 0
M  V30 9266 C 887.437 2.82684 1.34383 0
M  V30 9267 C 887.912 4.23301 1.74871 0
M  V30 9268 N 889.403 4.25954 1.81981 0
M  V30 9269 C 890.138 5.31693 2.14686 0
M  V30 9270 N 889.634 6.47714 2.45844 0
M  V30 9271 N 891.427 5.19084 2.15657 0
M  V30 9272 H 883.578 2.11397 -0.206215 0
M  V30 9273 H 885.841 0.947537 -0.0296116 0
M  V30 9274 H 885.547 3.48368 0.482967 0
M  V30 9275 H 885.421 3.07485 2.18478 0
M  V30 9276 H 887.808 2.08801 2.08534 0
M  V30 9277 H 887.889 2.5305 0.374063 0
M  V30 9278 H 887.533 4.97699 1.01282 0
M  V30 9279 H 887.463 4.50376 2.7289 0
M  V30 9280 H 889.954 3.42266 1.60196 0
M  V30 9281 H 890.267 7.2414 2.69892 0
M  V30 9282 H 888.612 6.50995 2.43372 0
M  V30 9283 H 891.803 4.27463 1.9077 0
M  V30 9284 H 891.976 6.01592 2.40813 0
M  V30 9285 N 885.382 -0.782676 1.36792 0
M  V30 9286 C 886.798 -1.08169 1.17352 0
M  V30 9287 C 886.998 -2.015 0.0022037 0
M  V30 9288 O 886.054 -2.43692 -0.661093 0
M  V30 9289 C 887.367 -1.68969 2.48737 0
M  V30 9290 C 888.915 -1.81278 2.55161 0
M  V30 9291 C 889.39 -2.45492 3.86649 0
M  V30 9292 N 890.881 -2.52954 3.88032 0
M  V30 9293 C 891.616 -3.03465 4.86515 0
M  V30 9294 N 891.112 -3.54232 5.95392 0
M  V30 9295 N 892.905 -3.02239 4.73928 0
M  V30 9296 H 885.056 -0.162757 2.11775 0
M  V30 9297 H 887.319 -0.134823 0.938364 0
M  V30 9298 H 887.025 -1.07859 3.34753 0
M  V30 9299 H 886.899 -2.68397 2.65034 0
M  V30 9300 H 889.286 -2.41524 1.69559 0
M  V30 9301 H 889.367 -0.806367 2.42758 0
M  V30 9302 H 889.011 -1.85889 4.7266 0
M  V30 9303 H 888.941 -3.46718 3.96351 0
M  V30 9304 H 891.432 -2.17014 3.09376 0
M  V30 9305 H 891.745 -3.91145 6.66503 0
M  V30 9306 H 890.09 -3.52366 5.99052 0
M  V30 9307 H 893.281 -2.61871 3.87996 0
M  V30 9308 H 893.454 -3.41295 5.50837 0
M  V30 9309 N 886.86 -1.21182 -1.00761 0
M  V30 9310 C 887.808 -0.965728 -2.11604 0
M  V30 9311 C 888.802 0.0861028 -1.69181 0
M  V30 9312 O 890.008 -0.0650558 -1.79882 0
M  V30 9313 H 886.383 -0.295023 -0.691712 0
M  V30 9314 H 888.354 -1.90667 -2.2954 0
M  V30 9315 C 887.103 -0.544164 -3.43415 0
M  V30 9316 H 886.426 -1.34515 -3.76491 0
M  V30 9317 H 887.866 -0.411268 -4.22001 0
M  V30 9318 C 886.325 0.744583 -3.28569 0
M  V30 9319 O 886.855 1.80078 -3.59075 0
M  V30 9320 N 885.061 0.710083 -2.81791 0
M  V30 9321 H 884.608 -0.14971 -2.57165 0
M  V30 9322 H 884.566 1.57268 -2.72239 0
M  V30 9323 N 888.338 1.20213 -1.01915 0
M  V30 9324 C 889.27 2.2251 -0.549725 0
M  V30 9325 C 890.283 1.58558 0.369235 0
M  V30 9326 O 891.472 1.77715 0.167176 0
M  V30 9327 C 888.572 3.38189 0.219432 0
M  V30 9328 C 887.745 4.31729 -0.702066 0
M  V30 9329 C 886.804 5.26196 0.0199624 0
M  V30 9330 O 885.83 5.65993 -0.60339 0
M  V30 9331 N 887.032 5.65895 1.29397 0
M  V30 9332 H 889.797 2.63412 -1.42948 0
M  V30 9333 H 887.358 1.3478 -0.896987 0
M  V30 9334 H 889.35 3.98392 0.711763 0
M  V30 9335 H 887.92 2.96156 1.00051 0
M  V30 9336 H 887.14 3.69455 -1.37466 0
M  V30 9337 H 888.428 4.91145 -1.3287 0
M  V30 9338 H 887.826 5.35579 1.8213 0
M  V30 9339 H 886.383 6.28395 1.73098 0
M  V30 9340 N 889.816 0.795718 1.36037 0
M  V30 9341 C 890.726 0.199784 2.33748 0
M  V30 9342 C 891.742 -0.651436 1.61345 0
M  V30 9343 O 892.918 -0.565743 1.93291 0
M  V30 9344 C 889.983 -0.650475 3.40543 0
M  V30 9345 C 889.044 0.219974 4.28736 0
M  V30 9346 C 888.277 -0.589798 5.30431 0
M  V30 9347 O 888.5 -1.82532 5.40406 0
M  V30 9348 O 887.434 0.0136187 6.01898 0
M  V30 9349 H 891.26 1.00782 2.8649 0
M  V30 9350 H 888.845 0.557293 1.38617 0
M  V30 9351 H 890.727 -1.13512 4.05824 0
M  V30 9352 H 889.402 -1.4363 2.9009 0
M  V30 9353 H 888.309 0.751516 3.66474 0
M  V30 9354 H 889.642 0.969468 4.82558 0
M  V30 9355 N 891.294 -1.47756 0.548274 0
M  V30 9356 C 892.534 -2.04387 0.0231354 0
M  V30 9357 C 892.898 -1.41438 -1.29843 0
M  V30 9358 O 894.099 -1.89064 -1.91072 0
M  V30 9359 C 892.37 -3.57316 -0.077482 0
M  V30 9360 S 893.929 -4.35339 -0.550038 0
M  V30 9361 H 890.747 -0.710694 0.0208428 0
M  V30 9362 H 893.349 -1.81239 0.732984 0
M  V30 9363 H 892.053 -4.00658 0.88888 0
M  V30 9364 H 891.584 -3.84947 -0.811157 0
M  V30 9365 H 893.599 -4.61957 -1.81135 0
M  V30 9366 N 892.772 -0.284283 -1.55015 0
M  V30 9367 C 894.02 0.329212 -1.99401 0
M  V30 9368 C 894.341 1.55687 -1.17416 0
M  V30 9369 O 893.611 1.94087 -0.265937 0
M  V30 9370 H 892.191 0.12463 -0.73653 0
M  V30 9371 H 894.853 -0.391743 -1.90922 0
M  V30 9372 H 893.949 0.61278 -3.06025 0
M  V30 9373 N 894.251 1.57596 -0.0117121 0
M  V30 9374 C 895.667 1.55837 0.344506 0
M  V30 9375 C 895.867 1.01557 1.74036 0
M  V30 9376 O 894.923 0.654563 2.43868 0
M  V30 9377 C 896.236 2.99973 0.209023 0
M  V30 9378 C 897.784 3.11717 0.283092 0
M  V30 9379 C 898.259 4.57659 0.176599 0
M  V30 9380 N 899.75 4.62608 0.234133 0
M  V30 9381 C 900.485 5.73132 0.175252 0
M  V30 9382 N 899.981 6.92768 0.0662888 0
M  V30 9383 N 901.774 5.61638 0.227972 0
M  V30 9384 H 893.925 1.91215 -0.924692 0
M  V30 9385 H 896.188 0.878807 -0.355531 0
M  V30 9386 H 895.894 3.4357 -0.751826 0
M  V30 9387 H 895.768 3.64075 0.98635 0
M  V30 9388 H 898.155 2.68043 1.23439 0
M  V30 9389 H 898.236 2.50369 -0.52431 0
M  V30 9390 H 897.88 5.02011 -0.771205 0
M  V30 9391 H 897.81 5.16967 1.00264 0
M  V30 9392 H 900.301 3.76549 0.319203 0
M  V30 9393 H 900.614 7.72795 0.0275765 0
M  V30 9394 H 898.959 6.94993 0.0317502 0
M  V30 9395 H 902.15 4.67063 0.311377 0
M  V30 9396 H 902.323 6.47754 0.178621 0
M  V30 9397 N 895.729 -0.261212 1.5542 0
M  V30 9398 C 897.14 -0.83138 1.67167 0
M  V30 9399 C 897.491 -1.8659 0.606525 0
M  V30 9400 O 896.616 -2.14953 -0.24985 0
M  V30 9401 C 897.211 -1.51475 3.03052 0
M  V30 9402 C 895.77 -2.0328 3.16787 0
M  V30 9403 C 894.917 -0.878903 2.63003 0
M  V30 9404 H 897.868 -0.0373102 1.58656 0
M  V30 9405 H 897.889 -2.38222 2.96699 0
M  V30 9406 H 897.401 -0.76157 3.80554 0
M  V30 9407 H 895.502 -2.81523 2.44082 0
M  V30 9408 H 895.615 -2.24001 4.2351 0
M  V30 9409 H 893.979 -1.27551 2.2046 0
M  V30 9410 H 894.762 -0.13904 3.43018 0
M  V30 9411 N 897.207 -1.48554 -0.526253 0
M  V30 9412 C 898.454 -1.56761 -1.28188 0
M  V30 9413 C 898.782 -0.24315 -1.92974 0
M  V30 9414 O 898.037 0.766883 -1.80048 0
M  V30 9415 C 898.336 -2.65739 -2.38993 0
M  V30 9416 C 898.002 -4.08057 -1.91834 0
M  V30 9417 C 896.664 -4.46792 -1.78691 0
M  V30 9418 C 899.016 -4.9723 -1.56242 0
M  V30 9419 C 896.344 -5.72501 -1.28296 0
M  V30 9420 C 898.696 -6.23432 -1.07309 0
M  V30 9421 C 897.36 -6.6102 -0.927853 0
M  V30 9422 H 896.63 -0.573631 -0.469072 0
M  V30 9423 H 899.277 -1.82287 -0.586842 0
M  V30 9424 H 897.582 -2.34088 -3.14181 0
M  V30 9425 H 899.279 -2.69304 -2.97113 0
M  V30 9426 H 895.869 -3.77469 -2.03016 0
M  V30 9427 H 900.053 -4.67979 -1.65255 0
M  V30 9428 H 895.309 -6.00345 -1.15742 0
M  V30 9429 H 899.483 -6.91923 -0.788412 0
M  V30 9430 H 897.11 -7.58314 -0.535162 0
M  V30 9431 N 898.685 0.775411 -1.37205 0
M  V30 9432 C 900.096 1.35147 -1.28811 0
M  V30 9433 C 900.447 1.96089 0.0659168 0
M  V30 9434 O 899.572 1.93558 0.967684 0
M  V30 9435 C 900.167 2.45715 -2.33258 0
M  V30 9436 C 898.726 2.99099 -2.2851 0
M  V30 9437 C 897.873 1.72286 -2.17285 0
M  V30 9438 H 900.824 0.575954 -1.4788 0
M  V30 9439 H 900.845 3.251 -1.97712 0
M  V30 9440 H 900.357 2.01331 -3.31795 0
M  V30 9441 H 898.458 3.47868 -1.33485 0
M  V30 9442 H 898.571 3.54962 -3.21774 0
M  V30 9443 H 896.935 1.95068 -1.6377 0
M  V30 9444 H 897.718 1.3001 -3.1773 0
M  V30 9445 N 900.163 1.21714 1.00117 0
M  V30 9446 C 901.579 0.97532 1.26332 0
M  V30 9447 C 901.779 -0.336029 1.98678 0
M  V30 9448 O 900.835 -1.06073 2.29139 0
M  V30 9449 C 902.148 2.16848 2.0832 0
M  V30 9450 C 903.696 2.21115 2.21533 0
M  V30 9451 C 904.171 3.3996 3.06906 0
M  V30 9452 N 905.662 3.40071 3.14494 0
M  V30 9453 C 906.397 4.28678 3.80818 0
M  V30 9454 N 905.893 5.2749 4.49139 0
M  V30 9455 N 907.686 4.16476 3.77497 0
M  V30 9456 H 899.837 2.06039 0.515897 0
M  V30 9457 H 902.1 0.902423 0.290408 0
M  V30 9458 H 901.806 3.119 1.62515 0
M  V30 9459 H 901.68 2.16226 3.09073 0
M  V30 9460 H 904.067 1.26616 2.66557 0
M  V30 9461 H 904.148 2.2578 1.20238 0
M  V30 9462 H 903.792 4.34755 2.62585 0
M  V30 9463 H 903.722 3.32534 4.08324 0
M  V30 9464 H 906.213 2.68563 2.65861 0
M  V30 9465 H 906.526 5.91397 4.97463 0
M  V30 9466 H 904.871 5.31412 4.47914 0
M  V30 9467 H 908.062 3.38539 3.23278 0
M  V30 9468 H 908.235 4.85739 4.28908 0
M  V30 9469 N 901.641 -1.19671 1.02551 0
M  V30 9470 C 903.052 -1.70964 0.750208 0
M  V30 9471 C 903.403 -1.82095 -0.730461 0
M  V30 9472 O 902.528 -1.48974 -1.56958 0
M  V30 9473 C 903.123 -3.10516 1.35518 0
M  V30 9474 C 901.682 -3.59083 1.12854 0
M  V30 9475 C 900.829 -2.36041 1.45534 0
M  V30 9476 H 903.78 -1.04559 1.19386 0
M  V30 9477 H 903.801 -3.73028 0.750378 0
M  V30 9478 H 903.313 -3.02383 2.43282 0
M  V30 9479 H 901.414 -3.72536 0.0689627 0
M  V30 9480 H 901.527 -4.43395 1.81488 0
M  V30 9481 H 899.891 -2.39214 0.87458 0
M  V30 9482 H 900.674 -2.3054 2.54374 0
M  V30 9483 N 903.119 -0.802921 -1.35613 0
M  V30 9484 C 904.347 -0.39393 -2.03115 0
M  V30 9485 C 904.762 0.993961 -1.60517 0
M  V30 9486 O 904.119 1.63984 -0.800973 0
M  V30 9487 C 904.17 -0.463486 -3.58516 0
M  V30 9488 O 903.891 -1.79666 -3.99565 0
M  V30 9489 C 905.392 -0.0468377 -4.43275 0
M  V30 9490 H 902.612 -0.160519 -0.651517 0
M  V30 9491 H 905.156 -1.08552 -1.73311 0
M  V30 9492 H 903.311 0.179821 -3.86982 0
M  V30 9493 H 903.725 -1.75688 -4.942 0
M  V30 9494 H 905.199 -0.146626 -5.51805 0
M  V30 9495 H 905.676 1.00741 -4.2749 0
M  V30 9496 H 906.282 -0.663158 -4.20098 0
M  V30 9497 N 904.597 1.47463 -0.556102 0
M  V30 9498 C 905.822 2.07371 -0.0344729 0
M  V30 9499 C 906.247 1.40621 1.2493 0
M  V30 9500 O 905.605 0.48082 1.74808 0
M  V30 9501 C 905.653 3.60306 0.145563 0
M  V30 9502 O 904.757 3.94299 1.20839 0
M  V30 9503 H 904.098 0.662052 -0.0508274 0
M  V30 9504 H 906.628 1.89498 -0.771469 0
M  V30 9505 H 906.638 4.06408 0.360112 0
M  V30 9506 H 905.313 4.08288 -0.792089 0
M  V30 9507 H 903.89 3.59944 0.97442 0
M  V30 9508 N 906.075 0.2925 1.54862 0
M  V30 9509 C 907.486 -0.201841 1.85606 0
M  V30 9510 C 907.837 -1.54093 1.21449 0
M  V30 9511 O 906.962 -2.10327 0.509079 0
M  V30 9512 C 907.557 -0.373011 3.3674 0
M  V30 9513 C 906.116 -0.811574 3.67547 0
M  V30 9514 C 905.263 0.0850583 2.7717 0
M  V30 9515 H 908.214 0.513774 1.50153 0
M  V30 9516 H 908.235 -1.20892 3.60785 0
M  V30 9517 H 907.747 0.601751 3.83407 0
M  V30 9518 H 905.848 -1.79719 3.26392 0
M  V30 9519 H 905.961 -0.636853 4.74848 0
M  V30 9520 H 904.325 -0.434224 2.50971 0
M  V30 9521 H 905.108 1.05602 3.26654 0
M  V30 9522 N 907.553 -1.57587 0.0200696 0
M  V30 9523 C 908.969 -1.56018 -0.336237 0
M  V30 9524 C 909.169 -1.02478 -1.73495 0
M  V30 9525 O 908.225 -0.667487 -2.43518 0
M  V30 9526 C 909.538 -3.00079 -0.193112 0
M  V30 9527 C 911.086 -3.11863 -0.266557 0
M  V30 9528 C 911.561 -4.57747 -0.152326 0
M  V30 9529 N 913.052 -4.62726 -0.209596 0
M  V30 9530 C 913.787 -5.73217 -0.144855 0
M  V30 9531 N 913.283 -6.92794 -0.0295487 0
M  V30 9532 N 915.076 -5.61751 -0.198184 0
M  V30 9533 H 907.227 -1.90722 0.93482 0
M  V30 9534 H 909.49 -0.876909 0.360186 0
M  V30 9535 H 909.196 -3.43167 0.770036 0
M  V30 9536 H 909.07 -3.64593 -0.967029 0
M  V30 9537 H 911.457 -2.68693 -1.22016 0
M  V30 9538 H 911.538 -2.50087 0.53758 0
M  V30 9539 H 911.182 -5.01595 0.797817 0
M  V30 9540 H 911.112 -5.17491 -0.97521 0
M  V30 9541 H 913.603 -3.76713 -0.299229 0
M  V30 9542 H 913.916 -7.72799 0.0134071 0
M  V30 9543 H 912.261 -6.95 0.00510737 0
M  V30 9544 H 915.452 -4.67222 -0.286603 0
M  V30 9545 H 915.625 -6.47839 -0.144266 0
M  V30 9546 N 909.032 0.252966 -1.55557 0
M  V30 9547 C 909.962 1.31691 -1.9282 0
M  V30 9548 C 910.943 1.50516 -0.7924 0
M  V30 9549 O 912.128 1.63225 -1.05219 0
M  V30 9550 C 909.258 2.67281 -2.21762 0
M  V30 9551 C 908.212 2.6316 -3.37536 0
M  V30 9552 C 907.538 4.02488 -3.52005 0
M  V30 9553 C 908.838 2.20675 -4.73392 0
M  V30 9554 H 910.532 1.00751 -2.81939 0
M  V30 9555 H 908.078 0.483219 -1.3565 0
M  V30 9556 H 910.031 3.41842 -2.46419 0
M  V30 9557 H 908.755 2.99845 -1.29463 0
M  V30 9558 H 907.414 1.91057 -3.12878 0
M  V30 9559 H 907.062 4.32307 -2.57137 0
M  V30 9560 H 906.762 4.00621 -4.29857 0
M  V30 9561 H 908.286 4.78758 -3.78977 0
M  V30 9562 H 909.7 2.84965 -4.97461 0
M  V30 9563 H 908.097 2.29931 -5.54303 0
M  V30 9564 H 909.167 1.15831 -4.70862 0
M  V30 9565 N 910.51 1.48831 0.518367 0
M  V30 9566 C 911.44 1.67119 1.63075 0
M  V30 9567 C 912.421 0.519948 1.61958 0
M  V30 9568 O 913.606 0.753824 1.78972 0
M  V30 9569 C 910.736 1.72158 3.01627 0
M  V30 9570 C 909.69 2.86898 3.17606 0
M  V30 9571 C 909.016 2.77035 4.57335 0
M  V30 9572 C 910.316 4.28057 2.99274 0
M  V30 9573 H 912.01 2.60248 1.48025 0
M  V30 9574 H 909.556 1.2524 0.710694 0
M  V30 9575 H 911.509 1.83539 3.7933 0
M  V30 9576 H 910.233 0.756157 3.17726 0
M  V30 9577 H 908.892 2.75091 2.42323 0
M  V30 9578 H 908.54 1.78438 4.70286 0
M  V30 9579 H 908.24 3.54036 4.6897 0
M  V30 9580 H 909.764 2.904 5.37122 0
M  V30 9581 H 911.178 4.40636 3.6676 0
M  V30 9582 H 909.575 5.06145 3.22393 0
M  V30 9583 H 910.645 4.4371 1.95574 0
M  V30 9584 N 911.988 -0.768124 1.37614 0
M  V30 9585 C 913.216 -1.55726 1.36224 0
M  V30 9586 C 913.631 -1.8873 -0.0515357 0
M  V30 9587 O 912.988 -1.51718 -1.0143 0
M  V30 9588 C 913.039 -2.86533 2.20412 0
M  V30 9589 O 912.76 -2.54942 3.56281 0
M  V30 9590 C 914.261 -3.80745 2.27041 0
M  V30 9591 H 911.481 -0.482325 0.46648 0
M  V30 9592 H 914.025 -0.95176 1.81002 0
M  V30 9593 H 912.18 -3.43496 1.79134 0
M  V30 9594 H 912.594 -3.38732 4.00451 0
M  V30 9595 H 914.068 -4.69523 2.90263 0
M  V30 9596 H 914.545 -4.20138 1.27987 0
M  V30 9597 H 915.151 -3.2971 2.68647 0
M  V30 9598 N 913.466 -1.22244 -0.994698 0
M  V30 9599 C 914.396 -1.01513 -2.10279 0
M  V30 9600 C 915.377 0.0633365 -1.69982 0
M  V30 9601 O 916.562 -0.0985268 -1.9395 0
M  V30 9602 C 913.692 -0.59016 -3.42249 0
M  V30 9603 C 912.646 -1.61436 -3.96387 0
M  V30 9604 C 911.972 -1.04528 -5.24383 0
M  V30 9605 C 913.272 -3.00388 -4.27276 0
M  V30 9606 H 914.966 -1.94194 -2.2788 0
M  V30 9607 H 912.512 -0.935094 -1.09508 0
M  V30 9608 H 914.465 -0.432254 -4.19177 0
M  V30 9609 H 913.189 0.372308 -3.24471 0
M  V30 9610 H 911.848 -1.76001 -3.21589 0
M  V30 9611 H 911.496 -0.0742225 -5.02945 0
M  V30 9612 H 911.196 -1.72949 -5.61571 0
M  V30 9613 H 912.72 -0.898922 -6.03947 0
M  V30 9614 H 914.134 -2.89207 -4.95007 0
M  V30 9615 H 912.531 -3.65916 -4.75631 0
M  V30 9616 H 913.601 -3.50456 -3.35125 0
M  V30 9617 N 914.944 1.19125 -1.03184 0
M  V30 9618 C 916.192 1.8851 -0.728587 0
M  V30 9619 C 916.513 1.80195 0.74531 0
M  V30 9620 O 915.783 1.21437 1.5372 0
M  V30 9621 H 914.363 0.69784 -0.266511 0
M  V30 9622 H 917.025 1.44607 -1.3067 0
M  V30 9623 H 916.121 2.9477 -1.02554 0
M  V30 9624 N 916.422 0.810101 1.35185 0
M  V30 9625 C 917.838 0.494269 1.51754 0
M  V30 9626 C 918.038 -0.983907 1.75845 0
M  V30 9627 O 917.094 -1.76882 1.80191 0
M  V30 9628 C 918.407 1.34268 2.69059 0
M  V30 9629 C 919.955 1.33848 2.82938 0
M  V30 9630 C 920.43 2.17109 4.03271 0
M  V30 9631 N 921.921 2.14664 4.10456 0
M  V30 9632 C 922.656 2.75843 5.02691 0
M  V30 9633 N 922.152 3.45962 6.00235 0
M  V30 9634 N 923.945 2.65465 4.95464 0
M  V30 9635 H 916.096 1.76736 1.17805 0
M  V30 9636 H 918.359 0.752429 0.576676 0
M  V30 9637 H 918.065 2.39183 2.57845 0
M  V30 9638 H 917.939 0.998362 3.63748 0
M  V30 9639 H 920.326 0.29716 2.936 0
M  V30 9640 H 920.407 1.72269 1.89095 0
M  V30 9641 H 920.051 3.21283 3.93369 0
M  V30 9642 H 919.981 1.76046 4.96302 0
M  V30 9643 H 922.472 1.63648 3.40628 0
M  V30 9644 H 922.785 3.89922 6.67219 0
M  V30 9645 H 921.13 3.50067 6.00398 0
M  V30 9646 H 924.321 2.1027 4.18215 0
M  V30 9647 H 924.494 3.13433 5.67154 0
M  V30 9648 N 917.9 -1.47166 0.563914 0
M  V30 9649 C 919.128 -2.06846 0.0474287 0
M  V30 9650 C 919.543 -1.41557 -1.24928 0
M  V30 9651 O 918.9 -0.514376 -1.75101 0
M  V30 9652 C 918.951 -3.6121 -0.144831 0
M  V30 9653 O 918.672 -4.24052 1.10053 0
M  V30 9654 C 920.173 -4.37773 -0.69783 0
M  V30 9655 H 917.393 -0.669217 0.0488896 0
M  V30 9656 H 919.937 -1.89072 0.779235 0
M  V30 9657 H 918.092 -3.78474 -0.82679 0
M  V30 9658 H 918.506 -5.16677 0.902481 0
M  V30 9659 H 919.98 -5.46438 -0.781616 0
M  V30 9660 H 920.457 -4.04517 -1.71063 0
M  V30 9661 H 921.063 -4.25269 -0.0513516 0
M  V30 9662 N 919.378 -0.300708 -1.54705 0
M  V30 9663 C 920.308 0.568675 -2.26469 0
M  V30 9664 C 921.289 1.13817 -1.26411 0
M  V30 9665 O 922.474 1.16756 -1.55183 0
M  V30 9666 C 919.604 1.74077 -3.00524 0
M  V30 9667 C 918.558 1.30165 -4.07727 0
M  V30 9668 C 917.884 2.55888 -4.69495 0
M  V30 9669 C 919.184 0.433106 -5.20501 0
M  V30 9670 H 920.878 -0.0298851 -2.99385 0
M  V30 9671 H 918.424 -0.0158135 -1.43991 0
M  V30 9672 H 920.377 2.35506 -3.49449 0
M  V30 9673 H 919.101 2.36556 -2.25186 0
M  V30 9674 H 917.76 0.710414 -3.59651 0
M  V30 9675 H 917.408 3.16681 -3.90797 0
M  V30 9676 H 917.108 2.27207 -5.41895 0
M  V30 9677 H 918.632 3.18121 -5.21183 0
M  V30 9678 H 920.046 0.95307 -5.65322 0
M  V30 9679 H 918.443 0.240085 -5.9962 0
M  V30 9680 H 919.513 -0.541866 -4.81863 0
M  V30 9681 N 920.856 1.57574 -0.0284266 0
M  V30 9682 C 922.081 1.96479 0.664137 0
M  V30 9683 C 922.506 0.904826 1.64908 0
M  V30 9684 O 921.864 -0.134339 1.80802 0
M  V30 9685 C 921.912 3.34479 1.34745 0
M  V30 9686 O 921.016 3.30794 2.46271 0
M  V30 9687 H 920.357 0.640654 0.174524 0
M  V30 9688 H 922.887 2.04402 -0.0900729 0
M  V30 9689 H 922.897 3.70694 1.7044 0
M  V30 9690 H 921.572 4.1117 0.625468 0
M  V30 9691 H 920.149 3.06294 2.12693 0
M  V30 9692 N 922.334 -0.244713 1.55689 0
M  V30 9693 C 923.745 -0.813603 1.6804 0
M  V30 9694 C 924.096 -1.85936 0.626281 0
M  V30 9695 O 923.221 -2.15206 -0.227038 0
M  V30 9696 C 923.816 -1.48252 3.04642 0
M  V30 9697 C 922.375 -1.99908 3.18926 0
M  V30 9698 C 921.522 -0.850958 2.6392 0
M  V30 9699 H 924.473 -0.0204805 1.58687 0
M  V30 9700 H 924.494 -2.35062 2.99209 0
M  V30 9701 H 924.006 -0.721164 3.81341 0
M  V30 9702 H 922.107 -2.78918 2.47054 0
M  V30 9703 H 922.22 -2.19497 4.25862 0
M  V30 9704 H 920.584 -1.25206 2.21801 0
M  V30 9705 H 921.367 -0.10265 3.43146 0
M  V30 9706 N 923.813 -1.49104 -0.510467 0
M  V30 9707 C 924.776 -1.64569 -1.59529 0
M  V30 9708 C 925.776 -0.517937 -1.5223 0
M  V30 9709 O 926.966 -0.784183 -1.55551 0
M  V30 9710 C 924.098 -1.6342 -2.99177 0
M  V30 9711 H 925.291 -2.61318 -1.4715 0
M  V30 9712 H 922.844 -1.37993 -0.734001 0
M  V30 9713 H 923.579 -0.68221 -3.17043 0
M  V30 9714 H 923.364 -2.45312 -3.05883 0
M  V30 9715 H 924.854 -1.77474 -3.78011 0
M  V30 9716 N 925.291 0.760815 -1.38019 0
M  V30 9717 C 926.707 1.06289 -1.19058 0
M  V30 9718 C 926.907 2.01471 -0.0342603 0
M  V30 9719 O 925.963 2.44713 0.62224 0
M  V30 9720 C 927.276 1.6499 -2.51394 0
M  V30 9721 C 928.824 1.77196 -2.58013 0
M  V30 9722 C 929.299 2.3931 -3.90506 0
M  V30 9723 N 930.79 2.46749 -3.92007 0
M  V30 9724 C 931.525 2.95687 -4.91281 0
M  V30 9725 N 931.021 3.44715 -6.00952 0
M  V30 9726 N 932.814 2.94661 -4.78677 0
M  V30 9727 H 924.965 0.129045 -2.12008 0
M  V30 9728 H 927.228 0.119878 -0.94039 0
M  V30 9729 H 926.934 1.0252 -3.36426 0
M  V30 9730 H 926.808 2.64146 -2.6927 0
M  V30 9731 H 929.195 2.38796 -1.7338 0
M  V30 9732 H 929.276 0.767645 -2.4401 0
M  V30 9733 H 928.92 1.78346 -4.75558 0
M  V30 9734 H 928.85 3.40369 -4.01817 0
M  V30 9735 H 931.341 2.12064 -3.12789 0
M  V30 9736 H 931.654 3.80492 -6.72641 0
M  V30 9737 H 929.999 3.42791 -6.04582 0
M  V30 9738 H 933.19 2.55665 -3.92113 0
M  V30 9739 H 933.363 3.32489 -5.56197 0
M  V30 9740 N 926.769 1.22769 0.988202 0
M  V30 9741 C 928.185 0.988665 1.2529 0
M  V30 9742 C 928.385 -0.314938 1.99024 0
M  V30 9743 O 927.441 -1.03637 2.30251 0
M  V30 9744 C 928.754 2.19046 2.06009 0
M  V30 9745 C 930.302 2.23452 2.19176 0
M  V30 9746 C 930.777 3.43196 3.03283 0
M  V30 9747 N 932.268 3.43387 3.10869 0
M  V30 9748 C 933.003 4.32693 3.7625 0
M  V30 9749 N 932.499 5.32224 4.43519 0
M  V30 9750 N 934.292 4.20457 3.73058 0
M  V30 9751 H 926.443 2.06575 0.494014 0
M  V30 9752 H 928.706 0.905452 0.28082 0
M  V30 9753 H 928.412 3.13607 1.59197 0
M  V30 9754 H 928.286 2.19492 3.06763 0
M  V30 9755 H 930.673 1.29436 2.65199 0
M  V30 9756 H 930.754 2.27042 1.17836 0
M  V30 9757 H 930.398 4.37515 2.57959 0
M  V30 9758 H 930.328 3.36847 4.04774 0
M  V30 9759 H 932.819 2.71368 2.62998 0
M  V30 9760 H 933.132 5.9664 4.91163 0
M  V30 9761 H 931.477 5.36133 4.42252 0
M  V30 9762 H 934.668 3.41949 3.19669 0
M  V30 9763 H 934.841 4.90261 4.23731 0
M  V30 9764 N 928.247 -1.18576 1.03814 0
M  V30 9765 C 929.179 -2.21607 0.585055 0
M  V30 9766 C 930.192 -1.59125 -0.343963 0
M  V30 9767 O 931.381 -1.77959 -0.138882 0
M  V30 9768 C 928.481 -3.38495 -0.165602 0
M  V30 9769 C 927.654 -4.30557 0.770662 0
M  V30 9770 C 926.713 -5.26161 0.0637534 0
M  V30 9771 O 925.739 -5.64961 0.693359 0
M  V30 9772 N 926.941 -5.67882 -1.20377 0
M  V30 9773 H 929.706 -2.61104 1.47121 0
M  V30 9774 H 927.267 -1.33336 0.918316 0
M  V30 9775 H 929.259 -3.99474 -0.648292 0
M  V30 9776 H 927.829 -2.97711 -0.953268 0
M  V30 9777 H 927.049 -3.67221 1.43326 0
M  V30 9778 H 928.337 -4.88969 1.40667 0
M  V30 9779 H 927.735 -5.38409 -1.73586 0
M  V30 9780 H 926.292 -6.31069 -1.63079 0
M  V30 9781 N 929.725 -0.817259 -1.34754 0
M  V30 9782 C 931.136 -0.462215 -1.80888 0
M  V30 9783 C 931.487 1.01685 -1.67794 0
M  V30 9784 O 930.612 1.79094 -1.21468 0
M  V30 9785 C 931.207 -0.832204 -3.2842 0
M  V30 9786 C 929.766 -0.52961 -3.72655 0
M  V30 9787 C 928.913 -1.05214 -2.56564 0
M  V30 9788 H 931.864 -1.00795 -1.22581 0
M  V30 9789 H 931.885 -0.133804 -3.80265 0
M  V30 9790 H 931.397 -1.90873 -3.37919 0
M  V30 9791 H 929.498 0.537743 -3.68699 0
M  V30 9792 H 929.611 -1.06971 -4.67005 0
M  V30 9793 H 927.975 -0.473949 -2.50251 0
M  V30 9794 H 928.758 -2.135 -2.68836 0
M  V30 9795 N 931.203 1.46865 -0.571711 0
M  V30 9796 C 932.48 1.95596 0.0132445 0
M  V30 9797 C 932.86 1.51438 1.47071 0
M  V30 9798 O 932.208 0.759917 2.15494 0
M  V30 9799 C 932.418 3.48689 -0.147335 0
M  V30 9800 C 933.766 4.24599 -0.00946329 0
M  V30 9801 O 934.79 3.5612 -0.0756112 0
M  V30 9802 O 933.649 5.46332 0.135361 0
M  V30 9803 H 930.743 0.825102 0.0560039 0
M  V30 9804 H 933.289 1.57199 -0.639256 0
M  V30 9805 H 932.061 3.73681 -1.16096 0
M  V30 9806 H 931.684 3.93887 0.542109 0
M  V30 9807 N 932.681 0.308908 1.54543 0
M  V30 9808 C 933.927 -0.298478 2.00592 0
M  V30 9809 C 934.26 -1.52929 1.19692 0
M  V30 9810 O 933.535 -1.9254 0.27542 0
M  V30 9811 C 933.818 -0.647218 3.54236 0
M  V30 9812 C 933.671 0.593284 4.4587 0
M  V30 9813 C 934.99 -1.47064 4.14801 0
M  V30 9814 H 932.109 -0.107012 0.72919 0
M  V30 9815 H 934.751 0.422578 1.85241 0
M  V30 9816 H 932.901 -1.26153 3.67447 0
M  V30 9817 H 934.573 1.2317 4.44552 0
M  V30 9818 H 932.816 1.22501 4.16144 0
M  V30 9819 H 933.487 0.305018 5.51157 0
M  V30 9820 H 935.963 -0.951511 4.05075 0
M  V30 9821 H 934.839 -1.68343 5.22448 0
M  V30 9822 H 935.1 -2.4623 3.67183 0
M  V30 9823 N 934.159 -1.57557 0.0367827 0
M  V30 9824 C 935.069 -2.14148 -0.958017 0
M  V30 9825 C 936.085 -1.09564 -1.35173 0
M  V30 9826 O 937.261 -1.4166 -1.43158 0
M  V30 9827 C 934.326 -2.6636 -2.21931 0
M  V30 9828 C 933.387 -3.85688 -1.8853 0
M  V30 9829 C 932.62 -4.35401 -3.08645 0
M  V30 9830 O 932.843 -3.8425 -4.21554 0
M  V30 9831 O 931.777 -5.27158 -2.90497 0
M  V30 9832 H 935.603 -2.99442 -0.506797 0
M  V30 9833 H 933.188 -1.48259 -0.184275 0
M  V30 9834 H 935.07 -2.99976 -2.9596 0
M  V30 9835 H 933.745 -1.84145 -2.66219 0
M  V30 9836 H 932.652 -3.56985 -1.11861 0
M  V30 9837 H 933.985 -4.69089 -1.49052 0
M  V30 9838 N 935.637 0.236453 -1.55816 0
M  V30 9839 C 936.569 1.31602 -1.87653 0
M  V30 9840 C 937.582 1.43782 -0.763584 0
M  V30 9841 O 938.771 1.44945 -1.04178 0
M  V30 9842 C 935.871 2.69342 -2.05689 0
M  V30 9843 C 935.044 2.79298 -3.36617 0
M  V30 9844 C 934.103 3.97952 -3.44268 0
M  V30 9845 O 933.129 3.86989 -4.17406 0
M  V30 9846 N 934.331 5.11594 -2.74321 0
M  V30 9847 H 937.096 1.04623 -2.80845 0
M  V30 9848 H 934.657 0.426534 -1.5618 0
M  V30 9849 H 936.649 3.47074 -2.08138 0
M  V30 9850 H 935.219 2.88984 -1.19192 0
M  V30 9851 H 934.439 1.8816 -3.46395 0
M  V30 9852 H 935.727 2.82908 -4.22895 0
M  V30 9853 H 935.125 5.23394 -2.14651 0
M  V30 9854 H 933.682 5.87422 -2.8245 0
M  V30 9855 N 937.115 1.49373 0.502552 0
M  V30 9856 C 938.531 1.36101 0.833591 0
M  V30 9857 C 938.731 0.392911 1.97632 0
M  V30 9858 O 937.787 -0.175975 2.51886 0
M  V30 9859 C 939.1 2.76782 1.17526 0
M  V30 9860 C 940.648 2.85471 1.28356 0
M  V30 9861 C 941.123 4.26915 1.65853 0
M  V30 9862 N 942.614 4.29719 1.72905 0
M  V30 9863 C 943.349 5.36127 2.0336 0
M  V30 9864 N 942.845 6.52782 2.32049 0
M  V30 9865 N 944.638 5.23542 2.04598 0
M  V30 9866 H 936.789 2.10912 -0.251008 0
M  V30 9867 H 939.052 0.946696 -0.0497037 0
M  V30 9868 H 938.758 3.49314 0.408965 0
M  V30 9869 H 938.632 3.1205 2.11907 0
M  V30 9870 H 941.019 2.13177 2.04058 0
M  V30 9871 H 941.1 2.53787 0.320304 0
M  V30 9872 H 940.744 4.99735 0.907022 0
M  V30 9873 H 940.674 4.56063 2.63276 0
M  V30 9874 H 943.165 3.45586 1.529 0
M  V30 9875 H 943.478 7.29701 2.54471 0
M  V30 9876 H 941.823 6.56011 2.29509 0
M  V30 9877 H 945.014 4.31413 1.8166 0
M  V30 9878 H 945.187 6.06565 2.27998 0
M  V30 9879 N 938.594 -0.753485 1.38421 0
M  V30 9880 C 940.005 -1.33081 1.30944 0
M  V30 9881 C 940.356 -1.96169 -0.0347124 0
M  V30 9882 O 939.481 -1.95073 -0.936768 0
M  V30 9883 C 940.076 -2.41973 2.37138 0
M  V30 9884 C 938.635 -2.95426 2.33239 0
M  V30 9885 C 937.782 -1.68808 2.19998 0
M  V30 9886 H 940.733 -0.552354 1.48777 0
M  V30 9887 H 940.754 -3.21913 2.02859 0
M  V30 9888 H 940.266 -1.96027 3.34956 0
M  V30 9889 H 938.367 -3.45701 1.39003 0
M  V30 9890 H 938.48 -3.49798 3.27381 0
M  V30 9891 H 936.844 -1.92438 1.66852 0
M  V30 9892 H 937.627 -1.24939 3.19758 0
M  V30 9893 N 940.072 -1.23292 -0.981677 0
M  V30 9894 C 941.318 -1.06582 -1.72535 0
M  V30 9895 C 941.651 0.396538 -1.90108 0
M  V30 9896 O 940.926 1.29363 -1.45243 0
M  V30 9897 C 941.209 -1.7904 -3.12437 0
M  V30 9898 C 941.062 -3.32941 -3.02441 0
M  V30 9899 C 942.381 -1.55185 -4.11832 0
M  V30 9900 H 939.5 -0.388585 -0.626236 0
M  V30 9901 H 942.142 -1.51779 -1.14293 0
M  V30 9902 H 940.292 -1.40619 -3.62158 0
M  V30 9903 H 941.964 -3.80875 -2.60254 0
M  V30 9904 H 940.207 -3.62039 -2.38977 0
M  V30 9905 H 940.878 -3.78827 -4.0149 0
M  V30 9906 H 943.354 -1.88581 -3.70913 0
M  V30 9907 H 942.23 -2.08362 -5.07815 0
M  V30 9908 H 942.491 -0.486925 -4.3941 0
M  V30 9909 N 941.55 1.18024 -1.04442 0
M  V30 9910 C 942.796 1.88377 -0.751133 0
M  V30 9911 C 943.129 1.80377 0.719571 0
M  V30 9912 O 942.404 1.20662 1.52548 0
M  V30 9913 C 942.687 3.38708 -1.22265 0
M  V30 9914 C 942.54 3.55499 -2.75574 0
M  V30 9915 C 943.859 4.32475 -0.815688 0
M  V30 9916 H 940.978 0.684037 -0.27434 0
M  V30 9917 H 943.62 1.38837 -1.29709 0
M  V30 9918 H 941.77 3.8103 -0.758192 0
M  V30 9919 H 943.442 3.22244 -3.30086 0
M  V30 9920 H 941.685 2.98028 -3.15217 0
M  V30 9921 H 942.356 4.60994 -3.03625 0
M  V30 9922 H 944.832 3.97953 -1.21542 0
M  V30 9923 H 943.708 5.36213 -1.17331 0
M  V30 9924 H 943.969 4.41207 0.280901 0
M  V30 9925 N 943.028 0.824394 1.34319 0
M  V30 9926 C 944.276 0.41235 1.97849 0
M  V30 9927 C 944.597 -1.02841 1.65677 0
M  V30 9928 O 943.867 -1.71421 0.948245 0
M  V30 9929 H 942.447 0.149486 0.73189 0
M  V30 9930 H 945.109 1.05416 1.63931 0
M  V30 9931 H 944.205 0.532557 3.07523 0
M  V30 9932 N 944.506 -1.46559 0.579492 0
M  V30 9933 C 945.456 -2.27316 -0.17645 0
M  V30 9934 C 946.44 -1.35681 -0.864835 0
M  V30 9935 O 947.632 -1.59879 -0.759462 0
M  V30 9936 C 944.761 -3.21957 -1.19157 0
M  V30 9937 C 943.847 -4.21077 -0.505459 0
M  V30 9938 N 944.238 -5.03908 0.437133 0
M  V30 9939 C 942.536 -4.39535 -0.75661 0
M  V30 9940 C 943.237 -5.75635 0.837819 0
M  V30 9941 N 942.213 -5.43276 0.187679 0
M  V30 9942 H 946.015 -2.88747 0.547932 0
M  V30 9943 H 943.529 -1.5737 0.401048 0
M  V30 9944 H 945.526 -3.78518 -1.74728 0
M  V30 9945 H 944.186 -2.62085 -1.9168 0
M  V30 9946 H 945.197 -5.11487 0.812488 0
M  V30 9947 H 941.874 -3.90815 -1.46867 0
M  V30 9948 H 943.264 -6.52235 1.61364 0
M  V30 9949 N 945.984 -0.3171 -1.54377 0
M  V30 9950 C 947.209 0.292311 -2.0533 0
M  V30 9951 C 947.634 1.45503 -1.19207 0
M  V30 9952 O 946.992 1.80197 -0.199721 0
M  V30 9953 C 947.04 0.710787 -3.53525 0
M  V30 9954 O 946.144 1.81387 -3.70368 0
M  V30 9955 H 945.485 0.0539976 -0.661801 0
M  V30 9956 H 948.015 -0.463629 -1.99278 0
M  V30 9957 H 948.025 0.995216 -3.95676 0
M  V30 9958 H 946.7 -0.139668 -4.15665 0
M  V30 9959 H 945.277 1.52875 -3.40123 0
M  V30 9960 N 947.462 1.57535 -0.0451378 0
M  V30 9961 C 948.71 1.92071 0.628743 0
M  V30 9962 C 949.031 0.923635 1.71738 0
M  V30 9963 O 948.301 -0.0324376 1.95873 0
M  V30 9964 H 946.881 0.708995 0.235233 0
M  V30 9965 H 949.543 1.9466 -0.0967177 0
M  V30 9966 H 948.639 2.9314 1.07123 0
M  V30 9967 N 948.94 -0.228186 1.55939 0
M  V30 9968 C 949.903 -1.26621 1.91049 0
M  V30 9969 C 950.903 -1.40141 0.788491 0
M  V30 9970 O 952.093 -1.3852 1.05631 0
M  V30 9971 C 949.225 -2.64108 2.15545 0
M  V30 9972 H 950.418 -0.966978 2.83883 0
M  V30 9973 H 947.971 -0.468313 1.49119 0
M  V30 9974 H 948.706 -2.99141 1.25241 0
M  V30 9975 H 948.491 -2.55673 2.97277 0
M  V30 9976 H 949.981 -3.39025 2.43827 0
M  V30 9977 N 950.418 -1.49637 -0.494624 0
M  V30 9978 C 951.35 -1.62902 -1.61231 0
M  V30 9979 C 952.363 -0.511425 -1.54558 0
M  V30 9980 O 953.552 -0.783724 -1.60375 0
M  V30 9981 C 950.652 -1.57564 -3.00045 0
M  V30 9982 C 949.825 -2.84964 -3.31835 0
M  V30 9983 C 948.884 -2.72591 -4.5009 0
M  V30 9984 O 947.91 -3.46532 -4.51558 0
M  V30 9985 N 949.112 -1.84563 -5.50379 0
M  V30 9986 H 951.877 -2.59301 -1.50276 0
M  V30 9987 H 949.438 -1.46806 -0.68262 0
M  V30 9988 H 951.43 -1.46932 -3.77085 0
M  V30 9989 H 950 -0.689974 -3.0489 0
M  V30 9990 H 949.22 -3.099 -2.4363 0
M  V30 9991 H 950.508 -3.69412 -3.49875 0
M  V30 9992 H 949.906 -1.23758 -5.51997 0
M  V30 9993 H 948.463 -1.79849 -6.26496 0
M  V30 9994 N 951.896 0.746133 -1.38819 0
M  V30 9995 C 952.843 1.86001 -1.36647 0
M  V30 9996 C 953.813 1.6453 -0.227849 0
M  V30 9997 O 954.998 1.86092 -0.421241 0
M  V30 9998 C 952.138 3.23388 -1.20474 0
M  V30 9999 C 951.251 3.5664 -2.43786 0
M  V30 10000 C 950.386 4.8337 -2.20287 0
M  V30 10001 C 949.425 5.09431 -3.39332 0
M  V30 10002 N 948.562 6.2736 -3.1522 0
M  V30 10003 H 953.402 1.87192 -2.31869 0
M  V30 10004 H 950.939 0.914838 -1.15192 0
M  V30 10005 H 952.897 4.02679 -1.09112 0
M  V30 10006 H 951.527 3.21505 -0.288874 0
M  V30 10007 H 950.579 2.72135 -2.65794 0
M  V30 10008 H 951.891 3.71823 -3.3249 0
M  V30 10009 H 951.045 5.70619 -2.06103 0
M  V30 10010 H 949.784 4.70341 -1.28961 0
M  V30 10011 H 948.789 4.20648 -3.54027 0
M  V30 10012 H 950.014 5.24354 -4.31544 0
M  V30 10013 H 947.96 6.15639 -2.26549 0
M  V30 10014 H 947.877 6.43078 -3.97476 0
M  V30 10015 H 949.145 7.17477 -3.04707 0
M  V30 10016 N 953.375 1.23811 0.975125 0
M  V30 10017 C 954.621 1.08502 1.72043 0
M  V30 10018 C 954.976 -0.373437 1.88741 0
M  V30 10019 O 954.269 -1.27248 1.43243 0
M  V30 10020 C 954.463 1.74994 3.11628 0
M  V30 10021 C 954.292 3.27155 3.08544 0
M  V30 10022 C 953.062 3.96338 3.1344 0
M  V30 10023 C 955.26 4.23851 2.91299 0
M  V30 10024 N 953.242 5.35439 3.00297 0
M  V30 10025 C 954.613 5.499 2.86375 0
M  V30 10026 C 956.668 4.14519 2.75824 0
M  V30 10027 C 955.371 6.67687 2.67558 0
M  V30 10028 C 957.397 5.31975 2.58372 0
M  V30 10029 C 956.759 6.56953 2.5415 0
M  V30 10030 H 952.858 0.451607 0.638416 0
M  V30 10031 H 955.442 1.56617 1.15669 0
M  V30 10032 H 953.613 1.29404 3.66209 0
M  V30 10033 H 955.345 1.52614 3.74822 0
M  V30 10034 H 952.1 3.47453 3.21828 0
M  V30 10035 H 952.524 6.08381 2.96987 0
M  V30 10036 H 957.166 3.18662 2.77874 0
M  V30 10037 H 954.884 7.63673 2.64251 0
M  V30 10038 H 958.47 5.266 2.47354 0
M  V30 10039 H 957.35 7.46309 2.40817 0
M  V30 10040 N 954.853 -1.17469 1.05066 0
M  V30 10041 C 955.783 -2.23635 0.671552 0
M  V30 10042 C 956.764 -1.66867 -0.33006 0
M  V30 10043 O 957.949 -1.93084 -0.207933 0
M  V30 10044 C 955.079 -3.47272 0.0441845 0
M  V30 10045 C 954.033 -4.16854 0.97042 0
M  V30 10046 C 953.359 -5.34299 0.206998 0
M  V30 10047 C 954.659 -4.69225 2.29401 0
M  V30 10048 H 956.353 -2.55602 1.55911 0
M  V30 10049 H 953.899 -1.2286 0.751101 0
M  V30 10050 H 955.852 -4.20756 -0.23282 0
M  V30 10051 H 954.576 -3.14568 -0.878311 0
M  V30 10052 H 953.235 -3.4528 1.23197 0
M  V30 10053 H 952.883 -4.97846 -0.718222 0
M  V30 10054 H 952.583 -5.81792 0.82416 0
M  V30 10055 H 954.107 -6.10568 -0.0627525 0
M  V30 10056 H 955.521 -5.34353 2.077 0
M  V30 10057 H 953.918 -5.27291 2.86503 0
M  V30 10058 H 954.988 -3.86102 2.93348 0
M  V30 10059 N 956.331 -0.831506 -1.3388 0
M  V30 10060 C 957.747 -0.518349 -1.50948 0
M  V30 10061 C 957.947 0.955807 -1.77388 0
M  V30 10062 O 957.003 1.73993 -1.82983 0
M  V30 10063 C 958.316 -1.38531 -2.66889 0
M  V30 10064 C 959.864 -1.38332 -2.80772 0
M  V30 10065 C 960.339 -2.23497 -3.99766 0
M  V30 10066 N 961.83 -2.21167 -4.06988 0
M  V30 10067 C 962.565 -2.83805 -4.98239 0
M  V30 10068 N 962.061 -3.55468 -5.94655 0
M  V30 10069 N 963.854 -2.73314 -4.91178 0
M  V30 10070 H 956.005 -1.78588 -1.14978 0
M  V30 10071 H 958.268 -0.761508 -0.564633 0
M  V30 10072 H 957.974 -2.43255 -2.54007 0
M  V30 10073 H 957.848 -1.05611 -3.62114 0
M  V30 10074 H 960.235 -0.343832 -2.9309 0
M  V30 10075 H 960.316 -1.75256 -1.86331 0
M  V30 10076 H 959.96 -3.27501 -3.88208 0
M  V30 10077 H 959.89 -1.83919 -4.93438 0
M  V30 10078 H 962.381 -1.69046 -3.37982 0
M  V30 10079 H 962.694 -4.00487 -6.60931 0
M  V30 10080 H 961.039 -3.59575 -5.94753 0
M  V30 10081 H 964.23 -2.16897 -4.14817 0
M  V30 10082 H 964.403 -3.22416 -5.62096 0
M  V30 10083 N 957.809 1.4625 -0.587256 0
M  V30 10084 C 959.034 2.07252 -0.0784517 0
M  V30 10085 C 959.459 1.43239 1.21919 0
M  V30 10086 O 958.817 0.517791 1.73749 0
M  V30 10087 C 958.865 3.60534 0.0691037 0
M  V30 10088 O 957.969 3.96773 1.12448 0
M  V30 10089 H 957.31 0.660825 -0.064859 0
M  V30 10090 H 959.84 1.87819 -0.811491 0
M  V30 10091 H 959.85 4.0708 0.273826 0
M  V30 10092 H 958.525 4.06516 -0.878514 0
M  V30 10093 H 957.102 3.6193 0.897852 0
M  V30 10094 N 959.287 0.325282 1.54207 0
M  V30 10095 C 960.512 -0.281418 2.05482 0
M  V30 10096 C 960.937 -1.44869 1.19977 0
M  V30 10097 O 960.295 -1.80088 0.209275 0
M  V30 10098 C 960.343 -0.692029 3.53897 0
M  V30 10099 O 959.447 -1.7942 3.71325 0
M  V30 10100 H 958.788 -0.0504872 0.662078 0
M  V30 10101 H 961.318 0.474191 1.99029 0
M  V30 10102 H 961.328 -0.974219 3.96198 0
M  V30 10103 H 960.003 0.161709 4.15586 0
M  V30 10104 H 958.58 -1.51069 3.40929 0
M  V30 10105 N 960.765 -1.57509 0.0534917 0
M  V30 10106 C 962.013 -1.92402 -0.618548 0
M  V30 10107 C 962.334 -0.93273 -1.71246 0
M  V30 10108 O 961.604 0.0220495 -1.95888 0
M  V30 10109 H 960.184 -0.710233 -0.23147 0
M  V30 10110 H 962.846 -1.94606 0.10704 0
M  V30 10111 H 961.942 -2.93704 -1.05566 0
M  V30 10112 N 962.243 0.219913 -1.56058 0
M  V30 10113 C 963.468 0.965073 -1.83579 0
M  V30 10114 C 963.893 1.77092 -0.634024 0
M  V30 10115 O 963.251 1.76434 0.417205 0
M  V30 10116 C 963.299 1.85705 -3.09105 0
M  V30 10117 O 962.403 2.95261 -2.87914 0
M  V30 10118 H 961.744 0.273173 -0.605204 0
M  V30 10119 H 964.274 0.23273 -2.03272 0
M  V30 10120 H 964.284 2.26655 -3.39252 0
M  V30 10121 H 962.959 1.26476 -3.96203 0
M  V30 10122 H 961.536 2.58246 -2.69005 0
M  V30 10123 N 963.721 1.49897 0.486681 0
M  V30 10124 C 964.967 1.61313 1.23893 0
M  V30 10125 C 965.322 0.302457 1.90008 0
M  V30 10126 O 964.615 -0.698466 1.78415 0
M  V30 10127 C 964.809 2.71982 2.31863 0
M  V30 10128 C 964.638 4.13685 1.76338 0
M  V30 10129 C 963.408 4.8029 1.57002 0
M  V30 10130 C 965.606 4.98446 1.26711 0
M  V30 10131 N 963.588 6.06259 0.965564 0
M  V30 10132 C 964.959 6.15011 0.784912 0
M  V30 10133 C 967.014 4.84338 1.15419 0
M  V30 10134 C 965.717 7.19019 0.200942 0
M  V30 10135 C 967.743 5.88508 0.584173 0
M  V30 10136 C 967.105 7.04311 0.112272 0
M  V30 10137 H 963.204 0.644555 0.442801 0
M  V30 10138 H 965.788 1.86959 0.543562 0
M  V30 10139 H 963.959 2.48086 2.98844 0
M  V30 10140 H 965.691 2.72842 2.98897 0
M  V30 10141 H 962.446 4.37324 1.81781 0
M  V30 10142 H 962.87 6.73554 0.6822 0
M  V30 10143 H 967.512 3.95107 1.50499 0
M  V30 10144 H 965.23 8.07937 -0.162099 0
M  V30 10145 H 968.816 5.79653 0.49938 0
M  V30 10146 H 967.696 7.83539 -0.321907 0
M  V30 10147 N 965.199 -0.738761 1.39212 0
M  V30 10148 C 966.424 -1.5331 1.39681 0
M  V30 10149 C 966.849 -1.88098 -0.00768715 0
M  V30 10150 O 966.207 -1.51642 -0.993699 0
M  V30 10151 C 966.255 -2.79958 2.27279 0
M  V30 10152 O 965.359 -3.75727 1.70008 0
M  V30 10153 H 964.7 -0.463131 0.475821 0
M  V30 10154 H 967.23 -0.911768 1.83161 0
M  V30 10155 H 967.24 -3.28732 2.41659 0
M  V30 10156 H 965.915 -2.5397 3.29351 0
M  V30 10157 H 964.492 -3.34483 1.64851 0
M  V30 10158 N 966.677 -1.24326 -0.968545 0
M  V30 10159 C 967.902 -1.1104 -1.75171 0
M  V30 10160 C 968.327 0.333109 -1.85127 0
M  V30 10161 O 967.685 1.24115 -1.32156 0
M  V30 10162 C 967.733 -1.75397 -3.15068 0
M  V30 10163 O 966.837 -1.02417 -3.9948 0
M  V30 10164 H 966.178 -0.388488 -0.538491 0
M  V30 10165 H 968.708 -1.64617 -1.215 0
M  V30 10166 H 968.718 -1.8112 -3.65595 0
M  V30 10167 H 967.393 -2.80427 -3.07138 0
M  V30 10168 H 965.97 -1.04475 -3.57966 0
M  V30 10169 N 968.156 1.1691 -1.05688 0
M  V30 10170 C 969.567 1.68915 -0.795273 0
M  V30 10171 C 969.918 1.83968 0.681925 0
M  V30 10172 O 969.043 1.53083 1.52953 0
M  V30 10173 C 969.638 3.06814 -1.43703 0
M  V30 10174 C 968.197 3.55965 -1.22335 0
M  V30 10175 C 967.344 2.32099 -1.51741 0
M  V30 10176 H 970.295 1.01357 -1.22116 0
M  V30 10177 H 970.316 3.70907 -0.849016 0
M  V30 10178 H 969.828 2.95826 -2.51214 0
M  V30 10179 H 967.929 3.72222 -0.16771 0
M  V30 10180 H 968.042 4.38427 -1.9318 0
M  V30 10181 H 966.406 2.36811 -0.937696 0
M  V30 10182 H 967.189 2.23715 -2.60397 0
M  V30 10183 N 969.634 0.838594 1.33437 0
M  V30 10184 C 971.05 0.526347 1.50671 0
M  V30 10185 C 971.25 -0.946387 1.77893 0
M  V30 10186 O 970.306 -1.7302 1.83903 0
M  V30 10187 C 971.619 1.39945 2.6615 0
M  V30 10188 C 973.167 1.3982 2.80035 0
M  V30 10189 C 973.642 2.25614 3.98576 0
M  V30 10190 N 975.133 2.23322 4.0581 0
M  V30 10191 C 975.868 2.86443 4.96727 0
M  V30 10192 N 975.364 3.58616 5.92762 0
M  V30 10193 N 977.157 2.75915 4.89722 0
M  V30 10194 H 969.308 1.79195 1.1403 0
M  V30 10195 H 971.571 0.764491 0.560586 0
M  V30 10196 H 971.277 2.44599 2.52714 0
M  V30 10197 H 971.151 1.07529 3.61548 0
M  V30 10198 H 973.538 0.35937 2.92904 0
M  V30 10199 H 973.619 1.76241 1.85399 0
M  V30 10200 H 973.263 3.29555 3.86466 0
M  V30 10201 H 973.193 1.86533 4.92456 0
M  V30 10202 H 975.684 1.70836 3.37081 0
M  V30 10203 H 975.997 4.03987 6.58798 0
M  V30 10204 H 974.342 3.62724 5.92838 0
M  V30 10205 H 977.533 2.19094 4.13661 0
M  V30 10206 H 977.706 3.25393 5.60378 0
M  V30 10207 N 971.112 -1.45937 0.595003 0
M  V30 10208 C 972.06 -2.32155 -0.143798 0
M  V30 10209 C 973.054 -1.45221 -0.872198 0
M  V30 10210 O 974.26 -1.61777 -0.789191 0
M  V30 10211 H 970.635 -0.749165 -0.0652377 0
M  V30 10212 H 972.606 -2.92264 0.602005 0
M  V30 10213 C 971.355 -3.28615 -1.13611 0
M  V30 10214 H 970.678 -3.95496 -0.585044 0
M  V30 10215 H 972.118 -3.91699 -1.62321 0
M  V30 10216 C 970.577 -2.54863 -2.20333 0
M  V30 10217 O 971.107 -2.32071 -3.27881 0
M  V30 10218 N 969.313 -2.15213 -1.95274 0
M  V30 10219 H 968.86 -2.33949 -1.07822 0
M  V30 10220 H 968.818 -1.66188 -2.66888 0
M  V30 10221 N 972.59 -0.333456 -1.54032 0
M  V30 10222 C 973.818 0.267813 -2.05159 0
M  V30 10223 C 974.233 1.4501 -1.20903 0
M  V30 10224 O 973.59 1.80888 -0.241994 0
M  V30 10225 C 973.641 0.69268 -3.54802 0
M  V30 10226 O 973.362 -0.442579 -4.35859 0
M  V30 10227 C 974.863 1.35572 -4.2206 0
M  V30 10228 H 972.083 0.0534924 -0.668864 0
M  V30 10229 H 974.627 -0.482515 -1.98726 0
M  V30 10230 H 972.782 1.39297 -3.6149 0
M  V30 10231 H 973.196 -0.105915 -5.24393 0
M  V30 10232 H 974.67 1.60385 -5.28186 0
M  V30 10233 H 975.147 2.30614 -3.73783 0
M  V30 10234 H 975.753 0.697748 -4.19537 0
M  V30 10235 N 974.068 1.57479 -0.061844 0
M  V30 10236 C 975.296 1.97429 0.618837 0
M  V30 10237 C 975.711 0.939826 1.63746 0
M  V30 10238 O 975.068 -0.0747173 1.82347 0
M  V30 10239 C 975.119 3.3746 1.29628 0
M  V30 10240 O 974.84 4.36941 0.318431 0
M  V30 10241 C 976.341 3.92228 2.06572 0
M  V30 10242 H 973.561 0.649513 0.168444 0
M  V30 10243 H 976.105 2.04078 -0.131303 0
M  V30 10244 H 974.26 3.31928 1.99757 0
M  V30 10245 H 974.674 5.18313 0.803239 0
M  V30 10246 H 976.148 4.92458 2.49377 0
M  V30 10247 H 976.625 3.28231 2.91824 0
M  V30 10248 H 977.231 4.01131 1.4133 0
M  V30 10249 N 975.546 -0.211634 1.56173 0
M  V30 10250 C 976.957 -0.777776 1.69728 0
M  V30 10251 C 977.308 -1.84566 0.66558 0
M  V30 10252 O 976.433 -2.15639 -0.181338 0
M  V30 10253 C 977.028 -1.41757 3.07718 0
M  V30 10254 C 975.587 -1.93098 3.23094 0
M  V30 10255 C 974.734 -0.794785 2.65666 0
M  V30 10256 H 977.685 0.0131839 1.58695 0
M  V30 10257 H 977.706 -2.28662 3.04128 0
M  V30 10258 H 977.218 -0.640114 3.82785 0
M  V30 10259 H 975.319 -2.73615 2.52914 0
M  V30 10260 H 975.432 -2.10414 4.30422 0
M  V30 10261 H 973.796 -1.20473 2.24407 0
M  V30 10262 H 974.579 -0.0298408 3.43287 0
M  V30 10263 N 977.024 -1.50153 -0.478725 0
M  V30 10264 C 978.254 -1.64266 -1.253 0
M  V30 10265 C 978.662 -0.322256 -1.86435 0
M  V30 10266 O 978.005 0.704925 -1.69636 0
M  V30 10267 C 978.067 -2.67017 -2.40712 0
M  V30 10268 C 977.731 -4.10779 -2.00274 0
M  V30 10269 C 978.728 -4.96889 -1.52963 0
M  V30 10270 C 976.413 -4.5665 -2.09228 0
M  V30 10271 C 978.407 -6.26914 -1.15139 0
M  V30 10272 C 976.094 -5.86683 -1.71015 0
M  V30 10273 C 977.092 -6.71641 -1.24048 0
M  V30 10274 O 976.78 -7.99248 -0.863617 0
M  V30 10275 H 976.512 -0.555382 -0.385392 0
M  V30 10276 H 979.066 -1.97078 -0.578751 0
M  V30 10277 H 977.296 -2.29432 -3.11284 0
M  V30 10278 H 978.985 -2.70428 -3.02694 0
M  V30 10279 H 979.751 -4.62669 -1.45474 0
M  V30 10280 H 975.63 -3.90674 -2.44735 0
M  V30 10281 H 979.174 -6.93179 -0.784089 0
M  V30 10282 H 975.071 -6.20426 -1.78162 0
M  V30 10283 H 975.839 -8.12452 -0.993139 0
M  V30 10284 N 978.502 0.731368 -1.39602 0
M  V30 10285 C 979.432 1.85855 -1.41351 0
M  V30 10286 C 980.413 1.67839 -0.2764 0
M  V30 10287 O 981.598 1.88104 -0.482747 0
M  V30 10288 C 978.728 3.23644 -1.25983 0
M  V30 10289 C 977.682 3.56304 -2.37132 0
M  V30 10290 C 977.008 4.93069 -2.0685 0
M  V30 10291 C 978.308 3.58906 -3.79452 0
M  V30 10292 H 980.002 1.84648 -2.3568 0
M  V30 10293 H 977.548 0.886955 -1.13442 0
M  V30 10294 H 979.501 4.02176 -1.25826 0
M  V30 10295 H 978.225 3.25387 -0.281234 0
M  V30 10296 H 976.884 2.80104 -2.36511 0
M  V30 10297 H 976.532 4.91396 -1.0742 0
M  V30 10298 H 976.232 5.15888 -2.81306 0
M  V30 10299 H 977.756 5.73953 -2.0835 0
M  V30 10300 H 979.17 4.27508 -3.81982 0
M  V30 10301 H 977.567 3.93246 -4.53297 0
M  V30 10302 H 978.637 2.58631 -4.10168 0
M  V30 10303 N 979.98 1.24838 0.961938 0
M  V30 10304 C 981.391 1.08369 1.5203 0
M  V30 10305 C 981.742 -0.343005 1.93178 0
M  V30 10306 O 980.867 -1.2321 1.779 0
M  V30 10307 C 981.462 1.96102 2.76278 0
M  V30 10308 C 980.021 1.8384 3.28451 0
M  V30 10309 C 979.168 1.9069 2.01327 0
M  V30 10310 H 982.119 1.38231 0.779613 0
M  V30 10311 H 982.14 1.4967 3.49827 0
M  V30 10312 H 981.652 2.99931 2.46298 0
M  V30 10313 H 979.753 0.828653 3.63269 0
M  V30 10314 H 979.866 2.68251 3.96961 0
M  V30 10315 H 978.23 1.34488 2.16299 0
M  V30 10316 H 979.013 2.96111 1.73705 0
M  V30 10317 N 981.458 -1.16348 1.06306 0
M  V30 10318 C 982.686 -1.90782 0.800614 0
M  V30 10319 C 983.101 -1.77439 -0.645033 0
M  V30 10320 O 982.458 -1.11912 -1.4416 0
M  V30 10321 C 982.509 -3.41484 1.18621 0
M  V30 10322 O 982.23 -3.54428 2.57512 0
M  V30 10323 C 983.731 -4.32968 0.951525 0
M  V30 10324 H 980.951 -0.604977 0.290247 0
M  V30 10325 H 983.495 -1.47476 1.41672 0
M  V30 10326 H 981.65 -3.82493 0.614633 0
M  V30 10327 H 982.064 -4.4788 2.72954 0
M  V30 10328 H 983.538 -5.37169 1.27095 0
M  V30 10329 H 984.015 -4.39055 -0.112734 0
M  V30 10330 H 984.621 -3.97687 1.50749 0
M  V30 10331 N 982.937 -0.845659 -1.3299 0
M  V30 10332 C 984.162 -0.457435 -2.02293 0
M  V30 10333 C 984.587 0.935634 -1.63179 0
M  V30 10334 O 983.945 1.61297 -0.827835 0
M  V30 10335 C 983.993 -0.593665 -3.5568 0
M  V30 10336 O 983.097 0.37729 -4.10671 0
M  V30 10337 H 982.438 -0.185022 -0.637701 0
M  V30 10338 H 984.968 -1.14237 -1.69738 0
M  V30 10339 H 984.978 -0.477834 -4.05192 0
M  V30 10340 H 983.653 -1.60957 -3.83491 0
M  V30 10341 H 982.23 0.218448 -3.7226 0
M  V30 10342 N 984.415 1.45619 -0.602734 0
M  V30 10343 C 985.325 2.34288 0.120902 0
M  V30 10344 C 986.341 1.50952 0.865414 0
M  V30 10345 O 987.517 1.83768 0.824094 0
M  V30 10346 C 984.582 3.28489 1.10888 0
M  V30 10347 C 983.643 4.2773 0.366853 0
M  V30 10348 C 982.876 5.17429 1.30776 0
M  V30 10349 O 983.099 5.10459 2.54535 0
M  V30 10350 O 982.033 5.96459 0.807464 0
M  V30 10351 H 985.859 2.97559 -0.60765 0
M  V30 10352 H 983.444 1.44922 -0.363019 0
M  V30 10353 H 985.326 3.86549 1.67803 0
M  V30 10354 H 984.001 2.67789 1.81854 0
M  V30 10355 H 982.908 3.73299 -0.244643 0
M  V30 10356 H 984.241 4.91271 -0.302226 0
M  V30 10357 N 985.893 0.34162 1.53853 0
M  V30 10358 C 987.141 -0.254979 2.00485 0
M  V30 10359 C 987.462 -1.51222 1.23114 0
M  V30 10360 O 986.732 -1.92966 0.337787 0
M  V30 10361 H 985.312 -0.0972084 0.740648 0
M  V30 10362 H 987.974 0.462332 1.89337 0
M  V30 10363 H 987.07 -0.498778 3.08089 0
M  V30 10364 N 987.371 -1.57444 0.0701946 0
M  V30 10365 C 988.321 -2.09154 -0.90767 0
M  V30 10366 C 989.305 -1.00087 -1.25982 0
M  V30 10367 O 990.497 -1.26397 -1.23906 0
M  V30 10368 C 987.626 -2.65544 -2.17581 0
M  V30 10369 C 986.712 -3.81613 -1.85021 0
M  V30 10370 N 987.103 -4.90641 -1.22904 0
M  V30 10371 C 985.401 -3.90878 -2.1478 0
M  V30 10372 C 986.102 -5.71511 -1.084 0
M  V30 10373 N 985.078 -5.1973 -1.59318 0
M  V30 10374 H 988.88 -2.90839 -0.423051 0
M  V30 10375 H 986.394 -1.61848 -0.13374 0
M  V30 10376 H 988.391 -3.00904 -2.88552 0
M  V30 10377 H 987.051 -1.85304 -2.66632 0
M  V30 10378 H 988.062 -5.1004 -0.898878 0
M  V30 10379 H 984.739 -3.21611 -2.66219 0
M  V30 10380 H 986.129 -6.69214 -0.600183 0
M  V30 10381 N 988.849 0.203349 -1.56283 0
M  V30 10382 C 990.265 0.55384 -1.49682 0
M  V30 10383 C 990.465 1.86261 -0.768701 0
M  V30 10384 O 989.521 2.50517 -0.315824 0
M  V30 10385 C 990.834 0.616216 -2.94318 0
M  V30 10386 C 992.382 0.705611 -3.04943 0
M  V30 10387 C 992.857 0.79917 -4.50974 0
M  V30 10388 N 994.348 0.862916 -4.55091 0
M  V30 10389 C 995.083 0.955334 -5.65386 0
M  V30 10390 N 994.579 1.01057 -6.8539 0
M  V30 10391 N 996.372 0.991884 -5.53279 0
M  V30 10392 H 988.523 -0.655244 -2.0204 0
M  V30 10393 H 990.786 -0.232344 -0.919087 0
M  V30 10394 H 990.492 -0.27619 -3.50614 0
M  V30 10395 H 990.366 1.47371 -3.4722 0
M  V30 10396 H 992.753 1.58845 -2.48701 0
M  V30 10397 H 992.834 -0.177921 -2.5518 0
M  V30 10398 H 992.478 -0.0792841 -5.07838 0
M  V30 10399 H 992.408 1.69838 -4.9846 0
M  V30 10400 H 994.899 0.829812 -3.68677 0
M  V30 10401 H 995.212 1.08137 -7.65197 0
M  V30 10402 H 993.557 0.979384 -6.88065 0
M  V30 10403 H 996.748 0.945514 -4.58451 0
M  V30 10404 H 996.921 1.06045 -6.39264 0
M  V30 10405 N 990.327 1.50405 0.470755 0
M  V30 10406 C 991.237 1.7208 1.59454 0
M  V30 10407 C 992.253 0.603932 1.63183 0
M  V30 10408 O 993.429 0.882296 1.81046 0
M  V30 10409 C 990.494 1.81057 2.95667 0
M  V30 10410 C 989.555 3.04792 3.02324 0
M  V30 10411 C 988.788 3.13332 4.3204 0
M  V30 10412 O 989.011 2.28655 5.22564 0
M  V30 10413 O 987.945 4.0606 4.44296 0
M  V30 10414 H 991.771 2.67343 1.44089 0
M  V30 10415 H 989.356 1.34505 0.650286 0
M  V30 10416 H 991.238 1.8914 3.76569 0
M  V30 10417 H 989.913 0.889782 3.11231 0
M  V30 10418 H 988.82 3.0221 2.205 0
M  V30 10419 H 990.153 3.96451 2.91698 0
M  V30 10420 N 991.805 -0.723954 1.39988 0
M  V30 10421 C 993.221 -1.03095 1.21834 0
M  V30 10422 C 993.421 -2.01309 0.0876647 0
M  V30 10423 O 992.477 -2.46277 -0.55714 0
M  V30 10424 C 993.79 -1.58267 2.5568 0
M  V30 10425 C 995.338 -1.70293 2.6262 0
M  V30 10426 C 995.813 -2.28872 3.96713 0
M  V30 10427 N 997.304 -2.36269 3.98411 0
M  V30 10428 C 998.039 -2.82557 4.98948 0
M  V30 10429 N 997.535 -3.28661 6.0988 0
M  V30 10430 N 999.328 -2.81866 4.86321 0
M  V30 10431 H 991.479 -0.0727891 2.12275 0
M  V30 10432 H 993.742 -0.0949029 0.943238 0
M  V30 10433 H 993.448 -0.935642 3.39026 0
M  V30 10434 H 993.322 -2.56914 2.76179 0
M  V30 10435 H 995.709 -2.34115 1.7965 0
M  V30 10436 H 995.79 -0.70268 2.45959 0
M  V30 10437 H 995.434 -1.65675 4.80119 0
M  V30 10438 H 995.364 -3.29595 4.107 0
M  V30 10439 H 997.855 -2.03697 3.18302 0
M  V30 10440 H 998.168 -3.62524 6.82493 0
M  V30 10441 H 996.513 -3.26641 6.13458 0
M  V30 10442 H 999.704 -2.45179 3.98754 0
M  V30 10443 H 999.877 -3.17626 5.64817 0
M  V30 10444 N 993.283 -1.25346 -0.955304 0
M  V30 10445 C 994.529 -1.10218 -1.70235 0
M  V30 10446 C 994.862 0.356124 -1.90907 0
M  V30 10447 O 994.137 1.26253 -1.47954 0
M  V30 10448 C 994.42 -1.85627 -3.08569 0
M  V30 10449 C 994.273 -3.39281 -2.95311 0
M  V30 10450 C 995.592 -1.63886 -4.08448 0
M  V30 10451 H 992.711 -0.401781 -0.617852 0
M  V30 10452 H 995.353 -1.5417 -1.11048 0
M  V30 10453 H 993.503 -1.48269 -3.59094 0
M  V30 10454 H 995.175 -3.8631 -2.52116 0
M  V30 10455 H 993.418 -3.67027 -2.31244 0
M  V30 10456 H 994.089 -3.87258 -3.93364 0
M  V30 10457 H 996.565 -1.96406 -3.6683 0
M  V30 10458 H 995.441 -2.19087 -5.03281 0
M  V30 10459 H 995.702 -0.580021 -4.38279 0
M  V30 10460 N 994.761 1.15782 -1.06922 0
M  V30 10461 C 995.691 2.22538 -0.707045 0
M  V30 10462 C 996.672 1.67371 0.303471 0
M  V30 10463 O 997.857 1.9339 0.177189 0
M  V30 10464 C 994.987 3.47158 -0.0994269 0
M  V30 10465 C 993.941 4.15257 -1.03661 0
M  V30 10466 C 993.267 5.33902 -0.291974 0
M  V30 10467 C 994.567 4.65516 -2.36837 0
M  V30 10468 H 996.261 2.53089 -1.59958 0
M  V30 10469 H 993.807 1.21649 -0.770552 0
M  V30 10470 H 995.76 4.21073 0.165852 0
M  V30 10471 H 994.484 3.15926 0.828155 0
M  V30 10472 H 993.143 3.43276 -1.28674 0
M  V30 10473 H 992.791 4.98926 0.638928 0
M  V30 10474 H 992.491 5.80407 -0.916613 0
M  V30 10475 H 994.015 6.1059 -0.0343915 0
M  V30 10476 H 995.429 5.30981 -2.16175 0
M  V30 10477 H 993.826 5.22666 -2.94856 0
M  V30 10478 H 994.896 3.81387 -2.99453 0
M  V30 10479 N 996.239 0.8527 1.3254 0
M  V30 10480 C 997.464 0.468157 2.02047 0
M  V30 10481 C 997.889 -0.926967 1.63673 0
M  V30 10482 O 997.247 -1.60855 0.836378 0
M  V30 10483 C 997.295 0.612519 3.5536 0
M  V30 10484 O 996.399 -0.355506 4.10865 0
M  V30 10485 H 995.74 0.188401 0.636711 0
M  V30 10486 H 998.27 1.15135 1.6913 0
M  V30 10487 H 998.28 0.499315 4.04933 0
M  V30 10488 H 996.955 1.62988 3.82632 0
M  V30 10489 H 995.532 -0.198703 3.7237 0
M  V30 10490 N 997.718 -1.45297 0.610449 0
M  V30 10491 C 998.648 -2.33311 -0.0939698 0
M  V30 10492 C 999.629 -1.46999 -0.85588 0
M  V30 10493 O 1000.81 -1.75764 -0.825865 0
M  V30 10494 C 997.944 -3.29751 -1.09003 0
M  V30 10495 C 996.898 -4.2572 -0.441146 0
M  V30 10496 C 996.224 -5.11873 -1.54566 0
M  V30 10497 C 997.524 -5.1837 0.639489 0
M  V30 10498 H 999.218 -2.92459 0.640941 0
M  V30 10499 H 996.764 -1.40631 0.309675 0
M  V30 10500 H 998.717 -3.90195 -1.59141 0
M  V30 10501 H 997.441 -2.68768 -1.85557 0
M  V30 10502 H 996.1 -3.66579 0.0393908 0
M  V30 10503 H 995.748 -4.47256 -2.30155 0
M  V30 10504 H 995.448 -5.76886 -1.11698 0
M  V30 10505 H 996.972 -5.75185 -2.04925 0
M  V30 10506 H 998.386 -5.7287 0.22207 0
M  V30 10507 H 996.783 -5.91876 0.990089 0
M  V30 10508 H 997.853 -4.60627 1.51495 0
M  V30 10509 N 999.196 -0.349774 -1.5367 0
M  V30 10510 C 1000.42 0.248692 -2.05904 0
M  V30 10511 C 1000.85 1.42942 -1.22267 0
M  V30 10512 O 1000.2 1.79732 -0.237899 0
M  V30 10513 C 1000.25 0.635639 -3.54953 0
M  V30 10514 O 999.356 1.7349 -3.74132 0
M  V30 10515 H 998.697 0.0399477 -0.662797 0
M  V30 10516 H 1001.23 -0.505795 -1.9825 0
M  V30 10517 H 1001.24 0.911064 -3.97698 0
M  V30 10518 H 999.912 -0.227805 -4.15276 0
M  V30 10519 H 998.489 1.45626 -3.43289 0
M  V30 10520 N 1000.67 1.57404 -0.0785433 0
M  V30 10521 C 1001.61 2.101 0.916013 0
M  V30 10522 C 1002.62 1.03459 1.25698 0
M  V30 10523 O 1003.81 1.30954 1.21299 0
M  V30 10524 C 1000.91 2.55202 2.22992 0
M  V30 10525 C 1000.08 3.85491 2.06678 0
M  V30 10526 C 999.14 4.16614 3.21433 0
M  V30 10527 O 998.166 4.86105 2.96126 0
M  V30 10528 N 999.368 3.70697 4.46726 0
M  V30 10529 H 1002.13 2.96054 0.466059 0
M  V30 10530 H 999.694 1.61546 0.107006 0
M  V30 10531 H 1001.69 2.7308 2.9868 0
M  V30 10532 H 1000.26 1.74348 2.59464 0
M  V30 10533 H 999.476 3.76925 1.15417 0
M  V30 10534 H 1000.76 4.70759 1.93036 0
M  V30 10535 H 1000.16 3.14571 4.70172 0
M  V30 10536 H 998.719 3.93762 5.19418 0
M  V30 10537 N 1002.15 -0.195058 1.56388 0
M  V30 10538 C 1003.11 -1.2254 1.93692 0
M  V30 10539 C 1004.11 -1.38437 0.81804 0
M  V30 10540 O 1005.3 -1.36248 1.08545 0
M  V30 10541 C 1002.44 -2.59476 2.21099 0
M  V30 10542 H 1003.63 -0.906544 2.8587 0
M  V30 10543 H 1001.18 -0.436577 1.50079 0
M  V30 10544 H 1001.92 -2.96417 1.31558 0
M  V30 10545 H 1001.7 -2.4931 3.02634 0
M  V30 10546 H 1003.19 -3.33777 2.50964 0
M  V30 10547 N 1003.63 -1.50653 -0.462772 0
M  V30 10548 C 1004.56 -1.73056 -1.5676 0
M  V30 10549 C 1005.54 -0.579699 -1.59917 0
M  V30 10550 O 1006.73 -0.819729 -1.76051 0
M  V30 10551 C 1003.86 -1.83234 -2.9503 0
M  V30 10552 C 1002.81 -2.98488 -3.06739 0
M  V30 10553 C 1002.14 -2.93818 -4.46738 0
M  V30 10554 C 1003.44 -4.38869 -2.83181 0
M  V30 10555 H 1005.13 -2.65562 -1.38265 0
M  V30 10556 H 1002.68 -1.27792 -0.663722 0
M  V30 10557 H 1004.63 -1.97491 -3.72257 0
M  V30 10558 H 1003.35 -0.873558 -3.14701 0
M  V30 10559 H 1002.01 -2.83895 -2.31946 0
M  V30 10560 H 1001.66 -1.95769 -4.63339 0
M  V30 10561 H 1001.36 -3.71197 -4.55507 0
M  V30 10562 H 1002.88 -3.10135 -5.25974 0
M  V30 10563 H 1004.3 -4.53945 -3.50153 0
M  V30 10564 H 1002.69 -5.17762 -3.03386 0
M  V30 10565 H 1003.76 -4.50663 -1.78972 0
M  V30 10566 N 1005.11 0.71652 -1.4037 0
M  V30 10567 C 1006.07 1.81231 -1.40313 0
M  V30 10568 C 1007.07 1.58032 -0.297087 0
M  V30 10569 O 1008.26 1.65091 -0.555944 0
M  V30 10570 C 1005.39 3.19308 -1.19395 0
M  V30 10571 H 1006.59 1.8268 -2.3784 0
M  V30 10572 H 1004.14 0.922062 -1.26205 0
M  V30 10573 H 1004.87 3.2351 -0.226252 0
M  V30 10574 H 1004.66 3.37546 -1.99512 0
M  V30 10575 H 1006.15 3.99339 -1.22141 0
M  V30 10576 N 1006.59 1.25851 0.948643 0
M  V30 10577 C 1007.81 1.13711 1.72851 0
M  V30 10578 C 1008.23 -0.308471 1.86263 0
M  V30 10579 O 1007.59 -1.21175 1.36465 0
M  V30 10580 C 1007.64 1.79271 3.13918 0
M  V30 10581 O 1007.36 3.18179 3.01154 0
M  V30 10582 C 1008.86 1.72988 4.08154 0
M  V30 10583 H 1006.08 0.396334 0.541443 0
M  V30 10584 H 1008.62 1.66329 1.18974 0
M  V30 10585 H 1006.78 1.30609 3.64719 0
M  V30 10586 H 1007.19 3.50507 3.90186 0
M  V30 10587 H 1008.67 2.2351 5.04725 0
M  V30 10588 H 1009.14 0.694866 4.33668 0
M  V30 10589 H 1009.75 2.21166 3.63271 0
M  V30 10590 N 1008.06 -1.15214 1.07534 0
M  V30 10591 C 1008.97 -2.23636 0.708818 0
M  V30 10592 C 1009.99 -1.7172 -0.280759 0
M  V30 10593 O 1011.17 -2.01 -0.126927 0
M  V30 10594 C 1008.23 -3.46512 0.114167 0
M  V30 10595 C 1007.29 -4.13409 1.15722 0
M  V30 10596 C 1006.53 -5.30419 0.59085 0
M  V30 10597 O 1006.75 -5.67314 -0.592512 0
M  V30 10598 O 1005.68 -5.86871 1.33663 0
M  V30 10599 H 1009.51 -2.57322 1.61305 0
M  V30 10600 H 1007.09 -1.22972 0.848422 0
M  V30 10601 H 1008.98 -4.20851 -0.215091 0
M  V30 10602 H 1007.65 -3.1457 -0.763356 0
M  V30 10603 H 1006.56 -3.40984 1.53886 0
M  V30 10604 H 1007.89 -4.49435 2.00671 0
M  V30 10605 N 1009.54 -0.859717 -1.32086 0
M  V30 10606 C 1010.51 -0.313005 -2.27053 0
M  V30 10607 C 1011.51 0.530191 -1.51808 0
M  V30 10608 O 1012.7 0.340972 -1.7083 0
M  V30 10609 C 1009.83 0.5566 -3.36325 0
M  V30 10610 H 1011.02 -1.15125 -2.76923 0
M  V30 10611 H 1008.57 -0.634463 -1.42843 0
M  V30 10612 H 1009.31 1.41645 -2.91731 0
M  V30 10613 H 1009.09 -0.0470197 -3.92072 0
M  V30 10614 H 1010.58 0.931725 -4.07073 0
M  V30 10615 N 1011.02 1.44971 -0.618145 0
M  V30 10616 C 1012.25 2.07039 -0.122395 0
M  V30 10617 C 1012.67 1.45793 1.18853 0
M  V30 10618 O 1012.03 0.55453 1.72611 0
M  V30 10619 C 1012.08 3.60599 -0.0073864 0
M  V30 10620 O 1011.18 3.99069 1.04007 0
M  V30 10621 H 1010.52 0.6593 -0.0788615 0
M  V30 10622 H 1013.05 1.86055 -0.851147 0
M  V30 10623 H 1013.06 4.07569 0.187417 0
M  V30 10624 H 1011.74 4.04561 -0.964544 0
M  V30 10625 H 1010.31 3.63753 0.820879 0
M  V30 10626 N 1012.5 0.357919 1.53482 0
M  V30 10627 C 1013.43 -0.526753 2.23065 0
M  V30 10628 C 1014.44 -1.05239 1.24212 0
M  V30 10629 O 1015.63 -0.960078 1.50482 0
M  V30 10630 C 1012.73 -1.73919 2.9087 0
M  V30 10631 C 1011.91 -1.34638 4.16163 0
M  V30 10632 C 1010.96 -2.42005 4.67247 0
M  V30 10633 O 1009.99 -2.04714 5.31113 0
M  V30 10634 N 1011.19 -3.73478 4.44404 0
M  V30 10635 H 1013.96 0.0692386 2.9962 0
M  V30 10636 H 1011.52 0.182726 1.60866 0
M  V30 10637 H 1013.51 -2.45207 3.21956 0
M  V30 10638 H 1012.08 -2.24223 2.17814 0
M  V30 10639 H 1011.3 -0.463667 3.91464 0
M  V30 10640 H 1012.59 -1.06012 4.97633 0
M  V30 10641 H 1011.99 -4.06555 3.93357 0
M  V30 10642 H 1010.54 -4.40893 4.80059 0
M  V30 10643 N 1013.98 -1.5736 0.0868897 0
M  V30 10644 C 1015.22 -1.95147 -0.573512 0
M  V30 10645 C 1015.58 -0.967591 -1.66299 0
M  V30 10646 O 1014.87 0.00774571 -1.91598 0
M  V30 10647 C 1015.06 -3.37316 -1.18123 0
M  V30 10648 C 1014.89 -4.49443 -0.152145 0
M  V30 10649 C 1013.66 -5.04586 0.268496 0
M  V30 10650 C 1015.86 -5.10592 0.616502 0
M  V30 10651 N 1013.84 -6.00264 1.28671 0
M  V30 10652 C 1015.21 -6.0191 1.48677 0
M  V30 10653 C 1017.27 -4.93359 0.67092 0
M  V30 10654 C 1015.97 -6.77844 2.40664 0
M  V30 10655 C 1018 -5.69949 1.57837 0
M  V30 10656 C 1017.36 -6.60927 2.43628 0
M  V30 10657 H 1013.46 -0.760898 -0.180439 0
M  V30 10658 H 1016.04 -1.93978 0.167548 0
M  V30 10659 H 1014.21 -3.39194 -1.89214 0
M  V30 10660 H 1015.95 -3.62301 -1.80332 0
M  V30 10661 H 1012.7 -4.73454 -0.117625 0
M  V30 10662 H 1013.13 -6.52804 1.79377 0
M  V30 10663 H 1017.77 -4.22794 0.0218207 0
M  V30 10664 H 1015.49 -7.47677 3.06603 0
M  V30 10665 H 1019.07 -5.58631 1.6255 0
M  V30 10666 H 1017.95 -7.19156 3.12705 0
M  V30 10667 N 1015.45 0.186762 -1.56489 0
M  V30 10668 C 1016.4 1.2357 -1.9161 0
M  V30 10669 C 1017.39 1.4058 -0.782686 0
M  V30 10670 O 1018.58 1.42811 -1.04566 0
M  V30 10671 C 1015.71 2.57865 -2.26628 0
M  V30 10672 C 1014.8 2.44613 -3.46447 0
M  V30 10673 N 1015.19 2.01052 -4.64125 0
M  V30 10674 C 1013.48 2.75483 -3.50749 0
M  V30 10675 C 1014.19 1.99891 -5.46277 0
M  V30 10676 N 1013.16 2.41711 -4.86905 0
M  V30 10677 H 1016.96 0.890359 -2.80089 0
M  V30 10678 H 1014.48 0.395144 -1.57519 0
M  V30 10679 H 1016.47 3.33642 -2.49977 0
M  V30 10680 H 1015.13 2.93215 -1.39481 0
M  V30 10681 H 1016.15 1.7163 -4.88634 0
M  V30 10682 H 1012.82 3.14974 -2.7404 0
M  V30 10683 H 1014.21 1.68042 -6.50547 0
M  V30 10684 N 1016.93 1.50896 0.454776 0
M  V30 10685 C 1018.35 1.38684 0.78987 0
M  V30 10686 C 1018.55 0.455587 1.96282 0
M  V30 10687 O 1017.6 -0.0957503 2.52318 0
M  V30 10688 C 1018.92 2.80381 1.08661 0
M  V30 10689 C 1020.47 2.8941 1.19209 0
M  V30 10690 C 1020.94 4.31976 1.52187 0
M  V30 10691 N 1022.43 4.35002 1.59146 0
M  V30 10692 C 1023.17 5.42326 1.862 0
M  V30 10693 N 1022.66 6.59835 2.11164 0
M  V30 10694 N 1024.46 5.29786 1.87838 0
M  V30 10695 H 1016.61 2.10006 -0.317981 0
M  V30 10696 H 1018.87 0.944636 -0.0797969 0
M  V30 10697 H 1018.58 3.50438 0.297626 0
M  V30 10698 H 1018.45 3.18634 2.01872 0
M  V30 10699 H 1020.84 2.19561 1.97173 0
M  V30 10700 H 1020.92 2.54677 0.239401 0
M  V30 10701 H 1020.56 5.02368 0.747576 0
M  V30 10702 H 1020.49 4.64208 2.48633 0
M  V30 10703 H 1022.98 3.50276 1.41828 0
M  V30 10704 H 1023.3 7.37428 2.31128 0
M  V30 10705 H 1021.64 6.62981 2.08522 0
M  V30 10706 H 1024.83 4.36974 1.67843 0
M  V30 10707 H 1025 6.13511 2.08585 0
M  V30 10708 N 1018.41 -0.709066 1.40748 0
M  V30 10709 C 1019.34 -1.83293 1.35937 0
M  V30 10710 C 1020.32 -1.60983 0.22871 0
M  V30 10711 O 1021.51 -1.8391 0.413435 0
M  V30 10712 C 1018.63 -3.19746 1.11714 0
M  V30 10713 C 1017.68 -3.60872 2.27319 0
M  V30 10714 S 1018.51 -3.67233 3.89743 0
M  V30 10715 C 1019.67 -5.06434 3.67797 0
M  V30 10716 H 1019.9 -1.87095 2.31047 0
M  V30 10717 H 1017.43 -0.876479 1.27111 0
M  V30 10718 H 1019.39 -3.98526 0.984245 0
M  V30 10719 H 1018.05 -3.1357 0.182472 0
M  V30 10720 H 1017.25 -4.59965 2.06029 0
M  V30 10721 H 1016.85 -2.89366 2.36946 0
M  V30 10722 H 1019.14 -5.93544 3.26668 0
M  V30 10723 H 1020.08 -5.32761 4.66445 0
M  V30 10724 H 1020.49 -4.77336 3.01348 0
M  V30 10725 N 1019.89 -1.26353 -0.941956 0
M  V30 10726 C 1020.82 -1.02163 -2.04054 0
M  V30 10727 C 1021.8 0.0533514 -1.62512 0
M  V30 10728 O 1022.98 -0.0889063 -1.8829 0
M  V30 10729 C 1020.11 -0.546908 -3.34255 0
M  V30 10730 C 1019.16 -1.61433 -3.94768 0
M  V30 10731 S 1019.99 -3.20306 -4.29144 0
M  V30 10732 C 1021.15 -2.746 -5.62446 0
M  V30 10733 H 1021.38 -1.9518 -2.24259 0
M  V30 10734 H 1018.91 -1.10024 -1.08324 0
M  V30 10735 H 1020.87 -0.279673 -4.09546 0
M  V30 10736 H 1019.53 0.36297 -3.11996 0
M  V30 10737 H 1018.72 -1.23315 -4.88681 0
M  V30 10738 H 1018.33 -1.8329 -3.26007 0
M  V30 10739 H 1020.62 -2.19015 -6.41123 0
M  V30 10740 H 1021.56 -3.67202 -6.05449 0
M  V30 10741 H 1021.97 -2.1419 -5.22286 0
M  V30 10742 N 1021.37 1.14642 -1.08144 0
M  V30 10743 C 1022.6 1.89484 -0.830864 0
M  V30 10744 C 1023.01 1.78443 0.616722 0
M  V30 10745 O 1022.37 1.14191 1.42361 0
M  V30 10746 C 1022.42 3.39554 -1.24039 0
M  V30 10747 O 1022.14 3.50286 -2.63119 0
M  V30 10748 C 1023.64 4.31399 -1.02029 0
M  V30 10749 H 1020.86 0.600283 -0.299835 0
M  V30 10750 H 1023.4 1.45204 -1.44001 0
M  V30 10751 H 1021.56 3.81467 -0.675407 0
M  V30 10752 H 1021.97 4.43481 -2.80045 0
M  V30 10753 H 1023.45 5.35079 -1.35625 0
M  V30 10754 H 1023.92 4.39179 0.0428697 0
M  V30 10755 H 1024.53 3.95238 -1.57057 0
M  V30 10756 N 1022.85 0.866709 1.31628 0
M  V30 10757 C 1024.09 0.475086 1.96437 0
M  V30 10758 C 1024.41 -0.975179 1.68865 0
M  V30 10759 O 1023.68 -1.68317 1.0023 0
M  V30 10760 H 1022.26 0.172695 0.726764 0
M  V30 10761 H 1024.93 1.10578 1.60494 0
M  V30 10762 H 1024.02 0.630123 3.05673 0
M  V30 10763 N 1024.32 -1.44642 0.625825 0
M  V30 10764 C 1025.57 -2.01695 0.127948 0
M  V30 10765 C 1025.89 -1.49439 -1.25271 0
M  V30 10766 O 1025.16 -0.695873 -1.83124 0
M  V30 10767 H 1023.74 -0.745685 0.0443096 0
M  V30 10768 H 1026.4 -1.7721 0.811332 0
M  V30 10769 H 1025.5 -3.11966 0.0915933 0
M  V30 10770 N 1025.8 -0.366053 -1.5329 0
M  V30 10771 C 1026.75 0.495319 -2.27265 0
M  V30 10772 C 1027.74 1.08298 -1.30261 0
M  V30 10773 O 1028.95 1.02613 -1.47887 0
M  V30 10774 H 1025.32 0.178454 -0.730519 0
M  V30 10775 H 1027.3 -0.150354 -2.98021 0
M  V30 10776 C 1026.04 1.62283 -3.07505 0
M  V30 10777 H 1025.37 1.17993 -3.81992 0
M  V30 10778 H 1026.81 2.20024 -3.62444 0
M  V30 10779 C 1025.27 2.56542 -2.18375 0
M  V30 10780 O 1025.8 3.59371 -1.79486 0
M  V30 10781 N 1024 2.25742 -1.82999 0
M  V30 10782 H 1023.55 1.42159 -2.14822 0
M  V30 10783 H 1023.51 2.89064 -1.2365 0
M  V30 10784 N 1027.28 1.57312 -0.0952337 0
M  V30 10785 C 1028.21 2.17056 0.860753 0
M  V30 10786 C 1029.19 1.10394 1.29411 0
M  V30 10787 O 1030.38 1.38532 1.36098 0
M  V30 10788 C 1027.51 2.751 2.11984 0
M  V30 10789 C 1026.46 3.87136 1.8251 0
M  V30 10790 C 1025.79 4.31883 3.15247 0
M  V30 10791 C 1027.09 5.10326 1.11194 0
M  V30 10792 H 1028.78 2.97192 0.362983 0
M  V30 10793 H 1026.33 1.42955 0.173151 0
M  V30 10794 H 1028.28 3.15547 2.79299 0
M  V30 10795 H 1027 1.92219 2.64044 0
M  V30 10796 H 1025.66 3.47229 1.17592 0
M  V30 10797 H 1025.31 3.45893 3.65195 0
M  V30 10798 H 1025.01 5.0742 2.96309 0
M  V30 10799 H 1026.53 4.74964 3.83721 0
M  V30 10800 H 1027.95 5.47942 1.6862 0
M  V30 10801 H 1026.34 5.91293 1.02435 0
M  V30 10802 H 1027.41 4.84807 0.0947227 0
M  V30 10803 N 1028.76 -0.17846 1.56586 0
M  V30 10804 C 1030.03 -0.923096 1.72448 0
M  V30 10805 C 1030.41 -2.00692 0.654659 0
M  V30 10806 O 1029.76 -2.26079 -0.33171 0
M  V30 10807 C 1029.97 -1.49435 3.15389 0
M  V30 10808 C 1031.32 -1.97005 3.76131 0
M  V30 10809 O 1032.34 -1.59244 3.18622 0
M  V30 10810 O 1031.2 -2.66541 4.77094 0
M  V30 10811 H 1028.3 -0.434009 0.703964 0
M  V30 10812 H 1030.84 -0.16685 1.68878 0
M  V30 10813 H 1029.62 -0.713933 3.84732 0
M  V30 10814 H 1029.24 -2.31498 3.23256 0
M  V30 10815 N 1030.24 -1.51135 -0.446768 0
M  V30 10816 C 1031.46 -1.67411 -1.22427 0
M  V30 10817 C 1031.89 -0.367009 -1.84485 0
M  V30 10818 O 1031.24 0.67185 -1.68392 0
M  V30 10819 C 1031.29 -2.78473 -2.29096 0
M  V30 10820 O 1030.4 -2.41419 -3.34351 0
M  V30 10821 H 1029.74 -0.558512 -0.359111 0
M  V30 10822 H 1032.27 -1.97648 -0.5288 0
M  V30 10823 H 1032.28 -3.02277 -2.7403 0
M  V30 10824 H 1030.95 -3.73326 -1.83304 0
M  V30 10825 H 1029.53 -2.28152 -2.9496 0
M  V30 10826 N 1031.71 0.701592 -1.41122 0
M  V30 10827 C 1032.65 1.8268 -1.38422 0
M  V30 10828 C 1033.66 1.60244 -0.287342 0
M  V30 10829 O 1034.85 1.69859 -0.548658 0
M  V30 10830 C 1031.95 3.19338 -1.13475 0
M  V30 10831 C 1031.12 3.68853 -2.35088 0
M  V30 10832 C 1030.18 4.84163 -2.06089 0
M  V30 10833 O 1029.21 4.9609 -2.79077 0
M  V30 10834 N 1030.41 5.70972 -1.04743 0
M  V30 10835 H 1033.17 1.8549 -2.35401 0
M  V30 10836 H 1030.73 0.883682 -1.35656 0
M  V30 10837 H 1032.73 3.94095 -0.920377 0
M  V30 10838 H 1031.3 3.11589 -0.251152 0
M  V30 10839 H 1030.52 2.8507 -2.72266 0
M  V30 10840 H 1031.8 3.98673 -3.16129 0
M  V30 10841 H 1031.2 5.63961 -0.443221 0
M  V30 10842 H 1029.76 6.45654 -0.892949 0
M  V30 10843 N 1033.19 1.2685 0.935242 0
M  V30 10844 C 1034.44 1.12522 1.67878 0
M  V30 10845 C 1034.76 -0.330894 1.92172 0
M  V30 10846 O 1034.03 -1.23259 1.52263 0
M  V30 10847 H 1032.61 0.413418 0.622169 0
M  V30 10848 H 1035.27 1.59267 1.12339 0
M  V30 10849 H 1034.37 1.64853 2.65009 0
M  V30 10850 N 1034.67 -1.14067 1.0875 0
M  V30 10851 C 1035.95 -1.81389 0.73195 0
M  V30 10852 C 1036.33 -1.96005 -0.78391 0
M  V30 10853 O 1035.68 -1.52267 -1.70373 0
M  V30 10854 C 1035.89 -3.16858 1.46294 0
M  V30 10855 C 1037.23 -3.92305 1.62426 0
M  V30 10856 O 1038.26 -3.26459 1.42488 0
M  V30 10857 O 1037.12 -5.10393 1.9535 0
M  V30 10858 H 1034.21 -0.784354 0.262141 0
M  V30 10859 H 1036.76 -1.21054 1.18929 0
M  V30 10860 H 1035.53 -3.01404 2.49542 0
M  V30 10861 H 1035.15 -3.84889 0.997318 0
M  V30 10862 N 1036.15 -0.873678 -1.31166 0
M  V30 10863 C 1037.56 -0.53852 -1.78765 0
M  V30 10864 C 1037.91 0.944765 -1.71955 0
M  V30 10865 O 1037.04 1.73781 -1.28954 0
M  V30 10866 C 1037.63 -0.970749 -3.24595 0
M  V30 10867 C 1036.19 -0.687189 -3.70074 0
M  V30 10868 C 1035.34 -1.16001 -2.51871 0
M  V30 10869 H 1038.29 -1.05903 -1.18196 0
M  V30 10870 H 1038.31 -0.294966 -3.79355 0
M  V30 10871 H 1037.82 -2.05034 -3.29519 0
M  V30 10872 H 1035.92 0.380881 -3.70648 0
M  V30 10873 H 1036.03 -1.26682 -4.62048 0
M  V30 10874 H 1034.4 -0.579663 -2.48016 0
M  V30 10875 H 1035.18 -2.2471 -2.59539 0
M  V30 10876 N 1037.63 1.44308 -0.633487 0
M  V30 10877 C 1038.56 2.33431 0.0568402 0
M  V30 10878 C 1039.54 1.48342 0.832386 0
M  V30 10879 O 1040.72 1.77056 0.797798 0
M  V30 10880 C 1037.85 3.31443 1.03743 0
M  V30 10881 C 1036.81 4.26368 0.373362 0
M  V30 10882 C 1036.13 5.14267 1.46403 0
M  V30 10883 C 1037.43 5.17287 -0.721876 0
M  V30 10884 H 1039.13 2.91402 -0.687388 0
M  V30 10885 H 1036.67 1.4012 -0.332009 0
M  V30 10886 H 1038.63 3.92677 1.52913 0
M  V30 10887 H 1037.35 2.71686 1.81258 0
M  V30 10888 H 1036.01 3.6647 -0.0977053 0
M  V30 10889 H 1035.66 4.50861 2.23011 0
M  V30 10890 H 1035.36 5.7859 1.02506 0
M  V30 10891 H 1036.88 5.78373 1.95748 0
M  V30 10892 H 1038.29 5.72444 -0.313181 0
M  V30 10893 H 1036.69 5.90226 -1.08413 0
M  V30 10894 H 1037.76 4.58159 -1.58804 0
M  V30 10895 N 1039.1 0.374177 1.53094 0
M  V30 10896 C 1040.52 -0.103172 1.86415 0
M  V30 10897 C 1040.87 -1.47439 1.29446 0
M  V30 10898 O 1039.99 -2.07333 0.619853 0
M  V30 10899 C 1040.59 -0.193988 3.38244 0
M  V30 10900 C 1039.15 -0.615605 3.71332 0
M  V30 10901 C 1038.29 0.23186 2.76329 0
M  V30 10902 H 1041.24 0.592644 1.47219 0
M  V30 10903 H 1041.26 -1.01597 3.66686 0
M  V30 10904 H 1040.78 0.80414 3.79678 0
M  V30 10905 H 1038.88 -1.62165 3.3546 0
M  V30 10906 H 1038.99 -0.38425 4.77557 0
M  V30 10907 H 1037.35 -0.300579 2.5292 0
M  V30 10908 H 1038.14 1.22769 3.20597 0
M  V30 10909 N 1040.58 -1.57259 0.103575 0
M  V30 10910 C 1041.83 -1.94272 -0.557024 0
M  V30 10911 C 1042.15 -0.986739 -1.68192 0
M  V30 10912 O 1041.42 -0.0402818 -1.95859 0
M  V30 10913 H 1040 -0.717237 -0.208757 0
M  V30 10914 H 1042.66 -1.94167 0.168898 0
M  V30 10915 H 1041.76 -2.96914 -0.961691 0
M  V30 10916 N 1042.06 0.170153 -1.56679 0
M  V30 10917 C 1043.31 0.887906 -1.8233 0
M  V30 10918 C 1043.64 1.81845 -0.681608 0
M  V30 10919 O 1042.91 1.9191 0.316362 0
M  V30 10920 C 1043.2 1.68256 -3.18374 0
M  V30 10921 C 1043.05 0.775059 -4.43072 0
M  V30 10922 C 1044.37 2.65001 -3.51372 0
M  V30 10923 H 1041.49 0.32135 -0.663252 0
M  V30 10924 H 1044.13 0.154065 -1.89374 0
M  V30 10925 H 1042.28 2.30817 -3.12499 0
M  V30 10926 H 1043.95 0.162234 -4.61015 0
M  V30 10927 H 1042.2 0.0831809 -4.3372 0
M  V30 10928 H 1042.87 1.36661 -5.34816 0
M  V30 10929 H 1045.34 2.12566 -3.57708 0
M  V30 10930 H 1044.22 3.17667 -4.47637 0
M  V30 10931 H 1044.48 3.45255 -2.76136 0
M  V30 10932 N 1043.54 1.5137 0.438746 0
M  V30 10933 C 1044.95 1.56462 1.01866 0
M  V30 10934 C 1045.3 0.387244 1.9234 0
M  V30 10935 O 1044.43 -0.496131 2.10636 0
M  V30 10936 C 1045.02 2.83557 1.85421 0
M  V30 10937 C 1043.58 2.91224 2.38464 0
M  V30 10938 C 1042.73 2.51109 1.17641 0
M  V30 10939 H 1045.68 1.57167 0.220072 0
M  V30 10940 H 1045.7 2.6724 2.70857 0
M  V30 10941 H 1045.21 3.69229 1.19546 0
M  V30 10942 H 1043.31 2.09979 3.07798 0
M  V30 10943 H 1043.42 3.94844 2.71358 0
M  V30 10944 H 1041.79 2.04276 1.5213 0
M  V30 10945 H 1042.57 3.39125 0.533785 0
M  V30 10946 N 1045.02 -0.694098 1.41492 0
M  V30 10947 C 1045.95 -1.82042 1.46229 0
M  V30 10948 C 1046.93 -1.67047 0.320803 0
M  V30 10949 O 1048.11 -1.86758 0.53245 0
M  V30 10950 C 1045.24 -3.2019 1.34519 0
M  V30 10951 C 1044.2 -3.49892 2.46495 0
M  V30 10952 C 1043.52 -4.87411 2.1985 0
M  V30 10953 C 1044.82 -3.4872 3.88834 0
M  V30 10954 H 1046.52 -1.78335 2.40493 0
M  V30 10955 H 1044.06 -0.856566 1.15754 0
M  V30 10956 H 1046.02 -3.98699 1.36445 0
M  V30 10957 H 1044.74 -3.24527 0.367406 0
M  V30 10958 H 1043.4 -2.73734 2.43854 0
M  V30 10959 H 1043.05 -4.88375 1.20411 0
M  V30 10960 H 1042.75 -5.08248 2.94885 0
M  V30 10961 H 1044.27 -5.68228 2.23494 0
M  V30 10962 H 1045.68 -4.1723 3.93182 0
M  V30 10963 H 1044.08 -3.81089 4.63564 0
M  V30 10964 H 1045.15 -2.47665 4.16881 0
M  V30 10965 N 1046.49 -1.27344 -0.928501 0
M  V30 10966 C 1047.91 -1.12361 -1.49103 0
M  V30 10967 C 1048.26 0.291667 -1.9402 0
M  V30 10968 O 1047.38 1.18449 -1.81104 0
M  V30 10969 C 1047.98 -2.03358 -2.70981 0
M  V30 10970 C 1046.54 -1.92483 -3.23461 0
M  V30 10971 C 1045.68 -1.95961 -1.962 0
M  V30 10972 H 1048.63 -1.40249 -0.742689 0
M  V30 10973 H 1048.65 -1.58892 -3.45736 0
M  V30 10974 H 1048.17 -3.06356 -2.38259 0
M  V30 10975 H 1046.27 -0.924676 -3.60944 0
M  V30 10976 H 1046.38 -2.78682 -3.89709 0
M  V30 10977 H 1044.74 -1.40175 -2.12657 0
M  V30 10978 H 1045.53 -3.00612 -1.65793 0
M  V30 10979 N 1047.97 1.13488 -1.09353 0
M  V30 10980 C 1049.38 1.66299 -0.848609 0
M  V30 10981 C 1049.73 1.86044 0.623051 0
M  V30 10982 O 1048.86 1.57871 1.48005 0
M  V30 10983 C 1049.45 3.02087 -1.53391 0
M  V30 10984 C 1048.01 3.51893 -1.33598 0
M  V30 10985 C 1047.16 2.27154 -1.59048 0
M  V30 10986 H 1050.11 0.974208 -1.25279 0
M  V30 10987 H 1050.13 3.68018 -0.966587 0
M  V30 10988 H 1049.64 2.87684 -2.60498 0
M  V30 10989 H 1047.75 3.715 -0.286045 0
M  V30 10990 H 1047.86 4.32059 -2.0703 0
M  V30 10991 H 1046.22 2.33708 -1.01256 0
M  V30 10992 H 1047.01 2.15317 -2.67383 0
M  V30 10993 N 1049.45 0.880621 1.30701 0
M  V30 10994 C 1050.68 0.510909 2.01009 0
M  V30 10995 C 1051.1 -0.892041 1.65603 0
M  V30 10996 O 1050.46 -1.59045 0.870309 0
M  V30 10997 C 1050.51 0.687759 3.53981 0
M  V30 10998 O 1049.61 -0.268275 4.11526 0
M  V30 10999 H 1048.95 0.201864 0.632572 0
M  V30 11000 H 1051.48 1.18697 1.6665 0
M  V30 11001 H 1051.49 0.585095 4.03783 0
M  V30 11002 H 1050.17 1.71068 3.79089 0
M  V30 11003 H 1048.74 -0.119673 3.72708 0
M  V30 11004 N 1050.93 -1.4397 0.641131 0
M  V30 11005 C 1052.21 -1.95436 0.0800918 0
M  V30 11006 C 1052.59 -1.58282 -1.39678 0
M  V30 11007 O 1051.93 -0.861867 -2.11623 0
M  V30 11008 C 1052.14 -3.47589 0.313531 0
M  V30 11009 C 1053.49 -4.2407 0.212034 0
M  V30 11010 O 1054.52 -3.55353 0.245434 0
M  V30 11011 O 1053.38 -5.46356 0.125455 0
M  V30 11012 H 1050.47 -0.826834 -0.0165735 0
M  V30 11013 H 1053.02 -1.5397 0.71353 0
M  V30 11014 H 1051.79 -3.67716 1.33793 0
M  V30 11015 H 1051.41 -3.96025 -0.353563 0
M  V30 11016 N 1052.41 -0.382291 -1.52893 0
M  V30 11017 C 1053.82 0.0932841 -1.86467 0
M  V30 11018 C 1054.17 1.4675 -1.30226 0
M  V30 11019 O 1053.29 2.07001 -0.63084 0
M  V30 11020 C 1053.89 0.176048 -3.38342 0
M  V30 11021 C 1052.45 0.595904 -3.71653 0
M  V30 11022 C 1051.6 -0.246511 -2.76202 0
M  V30 11023 H 1054.55 -0.600443 -1.46903 0
M  V30 11024 H 1054.57 0.996512 -3.67219 0
M  V30 11025 H 1054.08 -0.824264 -3.79246 0
M  V30 11026 H 1052.18 1.60384 -3.36315 0
M  V30 11027 H 1052.29 0.358919 -4.77754 0
M  V30 11028 H 1050.66 0.287162 -2.53076 0
M  V30 11029 H 1051.44 -1.24467 -3.19942 0
M  V30 11030 N 1053.89 1.57202 -0.111913 0
M  V30 11031 C 1055.11 1.99297 0.555713 0
M  V30 11032 C 1055.53 0.991444 1.60673 0
M  V30 11033 O 1054.89 -0.0166672 1.82492 0
M  V30 11034 C 1054.94 3.41413 1.18826 0
M  V30 11035 O 1054.66 4.37733 0.179261 0
M  V30 11036 C 1056.16 3.98602 1.93989 0
M  V30 11037 H 1053.38 0.654543 0.147695 0
M  V30 11038 H 1055.92 2.03557 -0.196163 0
M  V30 11039 H 1054.08 3.38115 1.89096 0
M  V30 11040 H 1054.49 5.20606 0.637935 0
M  V30 11041 H 1055.97 5.00143 2.33584 0
M  V30 11042 H 1056.44 3.37349 2.81233 0
M  V30 11043 H 1057.05 4.05424 1.28497 0
M  V30 11044 N 1055.36 -0.161842 1.56767 0
M  V30 11045 C 1056.78 -0.51396 1.51098 0
M  V30 11046 C 1056.98 -1.84158 0.817815 0
M  V30 11047 O 1056.04 -2.49592 0.382133 0
M  V30 11048 C 1057.35 -0.537966 2.95849 0
M  V30 11049 C 1058.9 -0.624512 3.06706 0
M  V30 11050 C 1059.37 -0.679322 4.52934 0
M  V30 11051 N 1060.86 -0.741953 4.57219 0
M  V30 11052 C 1061.6 -0.805096 5.6772 0
M  V30 11053 N 1061.09 -0.828492 6.87828 0
M  V30 11054 N 1062.89 -0.844843 5.55715 0
M  V30 11055 H 1055.04 0.708581 2.00232 0
M  V30 11056 H 1057.3 0.25663 0.912603 0
M  V30 11057 H 1057.01 0.369052 3.49758 0
M  V30 11058 H 1056.88 -1.38113 3.51005 0
M  V30 11059 H 1059.27 -1.52195 2.52825 0
M  V30 11060 H 1059.35 0.245515 2.54619 0
M  V30 11061 H 1058.99 0.213901 5.07449 0
M  V30 11062 H 1058.92 -1.56563 5.02788 0
M  V30 11063 H 1061.41 -0.731772 3.70747 0
M  V30 11064 H 1061.73 -0.878109 7.67795 0
M  V30 11065 H 1060.07 -0.796612 6.9042 0
M  V30 11066 H 1063.26 -0.823632 4.60797 0
M  V30 11067 H 1063.44 -0.890588 6.41851 0
M  V30 11068 N 1056.84 -1.516 -0.430713 0
M  V30 11069 C 1057.77 -1.69594 -1.54177 0
M  V30 11070 C 1058.79 -0.576518 -1.5225 0
M  V30 11071 O 1059.98 -0.85104 -1.56906 0
M  V30 11072 C 1057.08 -1.70148 -2.93092 0
M  V30 11073 C 1056.25 -2.98782 -3.1945 0
M  V30 11074 C 1055.31 -2.91435 -4.38123 0
M  V30 11075 O 1054.33 -3.65372 -4.36454 0
M  V30 11076 N 1055.54 -2.0774 -5.42056 0
M  V30 11077 H 1058.3 -2.65442 -1.39143 0
M  V30 11078 H 1055.86 -1.49569 -0.61974 0
M  V30 11079 H 1057.85 -1.62793 -3.70514 0
M  V30 11080 H 1056.42 -0.818667 -3.0169 0
M  V30 11081 H 1055.64 -3.19954 -2.30267 0
M  V30 11082 H 1056.93 -3.83919 -3.33892 0
M  V30 11083 H 1056.33 -1.47059 -5.46251 0
M  V30 11084 H 1054.89 -2.06259 -6.18305 0
M  V30 11085 N 1058.32 0.686584 -1.41858 0
M  V30 11086 C 1059.23 1.83002 -1.46791 0
M  V30 11087 C 1060.25 1.70284 -0.357675 0
M  V30 11088 O 1061.42 1.92042 -0.606781 0
M  V30 11089 C 1058.49 3.19056 -1.35661 0
M  V30 11090 C 1057.55 3.43817 -2.57077 0
M  V30 11091 C 1056.78 4.7338 -2.46469 0
M  V30 11092 O 1057 5.50483 -1.49413 0
M  V30 11093 O 1055.94 4.99124 -3.36391 0
M  V30 11094 H 1059.76 1.81797 -2.43277 0
M  V30 11095 H 1057.35 0.840812 -1.23494 0
M  V30 11096 H 1059.23 4.00267 -1.31773 0
M  V30 11097 H 1057.91 3.20925 -0.422951 0
M  V30 11098 H 1056.81 2.625 -2.66541 0
M  V30 11099 H 1058.15 3.4677 -3.49302 0
M  V30 11100 N 1059.8 1.27835 0.921735 0
M  V30 11101 C 1061.03 1.17352 1.704 0
M  V30 11102 C 1061.44 -0.268892 1.86875 0
M  V30 11103 O 1060.8 -1.18253 1.39005 0
M  V30 11104 C 1060.85 1.85889 3.10045 0
M  V30 11105 O 1060.57 3.24495 2.94338 0
M  V30 11106 C 1062.07 1.81607 4.04393 0
M  V30 11107 H 1059.29 0.40773 0.532914 0
M  V30 11108 H 1061.83 1.68815 1.15419 0
M  V30 11109 H 1059.99 1.38316 3.61867 0
M  V30 11110 H 1060.4 3.58705 3.82663 0
M  V30 11111 H 1061.88 2.34165 4.99871 0
M  V30 11112 H 1062.35 0.786697 4.32097 0
M  V30 11113 H 1062.96 2.28822 3.58498 0
M  V30 11114 N 1061.28 -1.12907 1.09954 0
M  V30 11115 C 1062.69 -1.65847 0.857417 0
M  V30 11116 C 1063.04 -1.86372 -0.613176 0
M  V30 11117 O 1062.16 -1.58654 -1.47166 0
M  V30 11118 C 1062.76 -3.01269 1.54991 0
M  V30 11119 C 1061.32 -3.51179 1.35462 0
M  V30 11120 C 1060.46 -2.26307 1.60251 0
M  V30 11121 H 1063.41 -0.96755 1.25794 0
M  V30 11122 H 1063.44 -3.675 0.986091 0
M  V30 11123 H 1062.95 -2.86299 2.6202 0
M  V30 11124 H 1061.05 -3.71343 0.305742 0
M  V30 11125 H 1061.16 -4.30955 2.09318 0
M  V30 11126 H 1059.53 -2.33167 1.02494 0
M  V30 11127 H 1060.31 -2.13896 2.68521 0
M  V30 11128 N 1062.75 -0.88754 -1.30232 0
M  V30 11129 C 1064.16 -0.55745 -1.78184 0
M  V30 11130 C 1064.52 0.926474 -1.72948 0
M  V30 11131 O 1063.64 1.72403 -1.3079 0
M  V30 11132 C 1064.24 -1.00512 -3.23547 0
M  V30 11133 C 1062.79 -0.726402 -3.69324 0
M  V30 11134 C 1061.94 -1.18666 -2.50627 0
M  V30 11135 H 1064.89 -1.07151 -1.17066 0
M  V30 11136 H 1064.91 -0.335185 -3.79021 0
M  V30 11137 H 1064.43 -2.08517 -3.27326 0
M  V30 11138 H 1062.53 0.341548 -3.71031 0
M  V30 11139 H 1062.64 -1.31575 -4.60679 0
M  V30 11140 H 1061 -0.605936 -2.47387 0
M  V30 11141 H 1061.79 -2.2745 -2.57141 0
M  V30 11142 N 1064.23 1.43628 -0.648757 0
M  V30 11143 C 1065.64 1.85142 -0.24066 0
M  V30 11144 C 1065.99 1.54304 1.21181 0
M  V30 11145 O 1065.12 0.989792 1.92437 0
M  V30 11146 C 1065.71 3.3606 -0.429999 0
M  V30 11147 C 1064.27 3.76323 -0.0762588 0
M  V30 11148 C 1063.42 2.67382 -0.734999 0
M  V30 11149 H 1066.37 1.33844 -0.852734 0
M  V30 11150 H 1066.39 3.79102 0.325836 0
M  V30 11151 H 1065.9 3.58474 -1.48721 0
M  V30 11152 H 1064.01 3.59521 0.978529 0
M  V30 11153 H 1064.12 4.76498 -0.498612 0
M  V30 11154 H 1062.48 2.54141 -0.168644 0
M  V30 11155 H 1063.27 2.92625 -1.79515 0
M  V30 11156 N 1065.71 0.390394 1.52688 0
M  V30 11157 C 1067.13 0.0404028 1.59549 0
M  V30 11158 C 1067.33 -1.44503 1.40432 0
M  V30 11159 O 1066.38 -2.20968 1.22187 0
M  V30 11160 C 1067.7 0.518561 2.96195 0
M  V30 11161 C 1069.24 0.474913 3.09376 0
M  V30 11162 C 1069.72 0.929278 4.48473 0
M  V30 11163 N 1071.21 0.885335 4.5466 0
M  V30 11164 C 1071.94 1.2083 5.60524 0
M  V30 11165 N 1071.44 1.6018 6.74028 0
M  V30 11166 N 1073.23 1.12949 5.50635 0
M  V30 11167 H 1065.38 1.35743 1.63363 0
M  V30 11168 H 1067.65 0.556453 0.767505 0
M  V30 11169 H 1067.35 1.55606 3.15404 0
M  V30 11170 H 1067.23 -0.081779 3.77111 0
M  V30 11171 H 1069.61 -0.553503 2.89863 0
M  V30 11172 H 1069.7 1.11107 2.3041 0
M  V30 11173 H 1069.34 1.95593 4.68728 0
M  V30 11174 H 1069.27 0.270121 5.25907 0
M  V30 11175 H 1071.76 0.595787 3.73174 0
M  V30 11176 H 1072.07 1.83184 7.50775 0
M  V30 11177 H 1070.42 1.64067 6.75357 0
M  V30 11178 H 1073.61 0.821074 4.60843 0
M  V30 11179 H 1073.78 1.3845 6.33037 0
M  V30 11180 N 1067.19 -1.57141 0.120249 0
M  V30 11181 C 1068.41 -2.00017 -0.548454 0
M  V30 11182 C 1068.84 -0.999433 -1.59352 0
M  V30 11183 O 1068.2 0.0286978 -1.81277 0
M  V30 11184 C 1068.24 -3.41766 -1.15015 0
M  V30 11185 O 1067.35 -3.44589 -2.26566 0
M  V30 11186 H 1066.69 -0.649739 -0.136875 0
M  V30 11187 H 1069.22 -2.03529 0.209092 0
M  V30 11188 H 1069.23 -3.80001 -1.48537 0
M  V30 11189 H 1067.9 -4.14117 -0.384681 0
M  V30 11190 H 1066.48 -3.18174 -1.94473 0
M  V30 11191 N 1068.67 0.153526 -1.5685 0
M  V30 11192 C 1070.08 0.714247 -1.72498 0
M  V30 11193 C 1070.43 1.81968 -0.733621 0
M  V30 11194 O 1069.55 2.16163 0.10118 0
M  V30 11195 C 1070.15 1.30238 -3.12767 0
M  V30 11196 C 1068.71 1.80974 -3.30038 0
M  V30 11197 C 1067.85 0.695638 -2.68433 0
M  V30 11198 H 1070.81 -0.0720733 -1.58536 0
M  V30 11199 H 1070.83 2.17217 -3.12405 0
M  V30 11200 H 1070.34 0.497605 -3.84897 0
M  V30 11201 H 1068.44 2.64039 -2.62895 0
M  V30 11202 H 1068.55 1.94294 -4.37934 0
M  V30 11203 H 1066.92 1.12061 -2.28723 0
M  V30 11204 H 1067.7 -0.0975885 -3.43161 0
M  V30 11205 N 1070.14 1.51827 0.422667 0
M  V30 11206 C 1071.56 1.57533 1.00201 0
M  V30 11207 C 1071.91 0.407623 1.91919 0
M  V30 11208 O 1071.03 -0.473763 2.1115 0
M  V30 11209 C 1071.63 2.85508 1.82403 0
M  V30 11210 C 1070.19 2.93737 2.35362 0
M  V30 11211 C 1069.33 2.52343 1.14971 0
M  V30 11212 H 1072.28 1.57391 0.20339 0
M  V30 11213 H 1072.3 2.70097 2.68007 0
M  V30 11214 H 1071.82 3.70477 1.15623 0
M  V30 11215 H 1069.92 2.13231 3.05554 0
M  V30 11216 H 1070.03 3.977 2.67155 0
M  V30 11217 H 1068.39 2.05878 1.49955 0
M  V30 11218 H 1069.18 3.39672 0.497786 0
M  V30 11219 N 1071.62 -0.679052 1.4222 0
M  V30 11220 C 1072.87 -1.44125 1.42674 0
M  V30 11221 C 1073.2 -1.94156 0.041438 0
M  V30 11222 O 1072.48 -1.70628 -0.93361 0
M  V30 11223 C 1072.76 -2.64133 2.44756 0
M  V30 11224 C 1072.61 -2.19761 3.9246 0
M  V30 11225 C 1073.93 -3.66347 2.43881 0
M  V30 11226 H 1071.05 -0.522729 0.519541 0
M  V30 11227 H 1073.69 -0.772067 1.73606 0
M  V30 11228 H 1071.84 -3.21225 2.1851 0
M  V30 11229 H 1073.51 -1.67869 4.29671 0
M  V30 11230 H 1071.76 -1.51377 4.06531 0
M  V30 11231 H 1072.43 -3.05944 4.59459 0
M  V30 11232 H 1074.9 -3.18963 2.67211 0
M  V30 11233 H 1073.78 -4.47902 3.17293 0
M  V30 11234 H 1074.04 -4.17183 1.46325 0
M  V30 11235 N 1073.1 -1.28322 -0.914942 0
M  V30 11236 C 1074.06 -1.12169 -1.99877 0
M  V30 11237 C 1075.06 -0.0617252 -1.60681 0
M  V30 11238 O 1076.25 -0.307405 -1.71466 0
M  V30 11239 C 1073.39 -0.711959 -3.33383 0
M  V30 11240 H 1074.58 -2.08425 -2.15636 0
M  V30 11241 H 1072.13 -1.11291 -1.09745 0
M  V30 11242 H 1072.87 0.251418 -3.23324 0
M  V30 11243 H 1072.65 -1.47764 -3.63192 0
M  V30 11244 H 1074.14 -0.621558 -4.12948 0
M  V30 11245 N 1074.58 1.12322 -1.10551 0
M  V30 11246 C 1075.53 2.20166 -0.750317 0
M  V30 11247 C 1076.52 1.67484 0.254066 0
M  V30 11248 O 1077.73 1.79637 0.114309 0
M  V30 11249 H 1074.1 0.717642 -0.22471 0
M  V30 11250 H 1076.07 2.47378 -1.66873 0
M  V30 11251 C 1074.82 3.47126 -0.199651 0
M  V30 11252 H 1074.14 3.88011 -0.963735 0
M  V30 11253 H 1075.58 4.23999 0.0108033 0
M  V30 11254 C 1074.04 3.19526 1.06792 0
M  V30 11255 O 1074.57 3.39368 2.14923 0
M  V30 11256 N 1072.78 2.73324 0.987032 0
M  V30 11257 H 1072.33 2.57378 0.106997 0
M  V30 11258 H 1072.28 2.55234 1.83584 0
M  V30 11259 N 1076.06 0.894434 1.2976 0
M  V30 11260 C 1077.28 0.5322 2.00455 0
M  V30 11261 C 1077.71 -0.874427 1.66539 0
M  V30 11262 O 1077.06 -1.58113 0.887129 0
M  V30 11263 C 1077.11 0.725264 3.53231 0
M  V30 11264 O 1076.22 -0.224612 4.11788 0
M  V30 11265 H 1075.56 0.208562 0.630395 0
M  V30 11266 H 1078.09 1.20458 1.65382 0
M  V30 11267 H 1078.1 0.627889 4.0314 0
M  V30 11268 H 1076.77 1.75079 3.77253 0
M  V30 11269 H 1075.35 -0.0801361 3.72814 0
M  V30 11270 N 1077.53 -1.43282 0.656365 0
M  V30 11271 C 1078.78 -2.01378 0.170702 0
M  V30 11272 C 1079.1 -1.52063 -1.22073 0
M  V30 11273 O 1078.37 -0.73456 -1.81607 0
M  V30 11274 H 1076.95 -0.744577 0.0601168 0
M  V30 11275 H 1079.62 -1.75449 0.848739 0
M  V30 11276 H 1078.71 -3.11701 0.157745 0
M  V30 11277 N 1079.01 -0.398486 -1.52479 0
M  V30 11278 C 1080.24 0.183059 -2.06591 0
M  V30 11279 C 1080.66 1.3898 -1.26753 0
M  V30 11280 O 1080.02 1.78885 -0.294959 0
M  V30 11281 C 1080.07 0.522392 -3.56796 0
M  V30 11282 O 1079.17 1.61499 -3.79462 0
M  V30 11283 H 1078.51 0.0188411 -0.663733 0
M  V30 11284 H 1081.04 -0.56861 -1.9654 0
M  V30 11285 H 1081.05 0.784078 -4.00395 0
M  V30 11286 H 1079.73 -0.359807 -4.14341 0
M  V30 11287 H 1078.31 1.3463 -3.47749 0
M  V30 11288 N 1080.49 1.57075 -0.12858 0
M  V30 11289 C 1081.72 1.99876 0.534544 0
M  V30 11290 C 1082.13 1.00843 1.59612 0
M  V30 11291 O 1081.49 0.00268947 1.825 0
M  V30 11292 C 1081.54 3.42654 1.15198 0
M  V30 11293 O 1081.26 4.37899 0.132823 0
M  V30 11294 C 1082.76 4.00637 1.8975 0
M  V30 11295 H 1079.98 0.656073 0.140744 0
M  V30 11296 H 1082.53 2.03337 -0.217742 0
M  V30 11297 H 1080.68 3.40101 1.85499 0
M  V30 11298 H 1081.1 5.21253 0.582682 0
M  V30 11299 H 1082.57 5.02592 2.28266 0
M  V30 11300 H 1083.05 3.40313 2.7764 0
M  V30 11301 H 1083.65 4.06764 1.2419 0
M  V30 11302 N 1081.97 -0.145205 1.5693 0
M  V30 11303 C 1083.22 -0.855822 1.83085 0
M  V30 11304 C 1083.54 -1.81625 0.709747 0
M  V30 11305 O 1082.81 -1.94052 -0.268456 0
M  V30 11306 H 1081.39 -0.319032 0.675446 0
M  V30 11307 H 1084.05 -0.138781 1.94405 0
M  V30 11308 H 1083.15 -1.41698 2.78079 0
M  V30 11309 N 1083.45 -1.52049 -0.414609 0
M  V30 11310 C 1084.69 -1.65838 -1.16206 0
M  V30 11311 C 1085.02 -0.385623 -1.90639 0
M  V30 11312 O 1084.28 0.631214 -1.85241 0
M  V30 11313 C 1084.58 -2.82735 -2.18622 0
M  V30 11314 C 1084.24 -4.21163 -1.61037 0
M  V30 11315 C 1082.9 -4.58816 -1.45056 0
M  V30 11316 C 1085.26 -5.0745 -1.18928 0
M  V30 11317 C 1082.58 -5.8044 -0.854761 0
M  V30 11318 C 1084.94 -6.29674 -0.607686 0
M  V30 11319 C 1083.6 -6.66081 -0.434968 0
M  V30 11320 H 1082.87 -0.606845 -0.425229 0
M  V30 11321 H 1085.52 -1.86137 -0.450009 0
M  V30 11322 H 1083.82 -2.56749 -2.95952 0
M  V30 11323 H 1085.52 -2.90601 -2.76319 0
M  V30 11324 H 1082.11 -3.91488 -1.74457 0
M  V30 11325 H 1086.29 -4.78948 -1.30086 0
M  V30 11326 H 1081.55 -6.07276 -0.70891 0
M  V30 11327 H 1085.72 -6.95865 -0.272988 0
M  V30 11328 H 1083.35 -7.60195 0.0288116 0
M  V30 11329 N 1084.93 0.6715 -1.42579 0
M  V30 11330 C 1086.15 1.46471 -1.46836 0
M  V30 11331 C 1086.58 1.87921 -0.0820658 0
M  V30 11332 O 1085.93 1.5621 0.920217 0
M  V30 11333 C 1085.98 2.68796 -2.40377 0
M  V30 11334 O 1085.09 3.67188 -1.87741 0
M  V30 11335 H 1084.43 0.439901 -0.497376 0
M  V30 11336 H 1086.96 0.823342 -1.87303 0
M  V30 11337 H 1086.97 3.16828 -2.57068 0
M  V30 11338 H 1085.64 2.37967 -3.41093 0
M  V30 11339 H 1084.22 3.26237 -1.80621 0
M  V30 11340 N 1086.4 1.28806 0.908124 0
M  V30 11341 C 1087.82 1.06634 1.18749 0
M  V30 11342 C 1088.02 -0.187729 2.00624 0
M  V30 11343 O 1087.08 -0.88784 2.36376 0
M  V30 11344 C 1088.39 2.31703 1.91661 0
M  V30 11345 C 1089.94 2.36939 2.04521 0
M  V30 11346 C 1090.41 3.61789 2.80843 0
M  V30 11347 N 1091.9 3.62462 2.88402 0
M  V30 11348 C 1092.64 4.55746 3.47971 0
M  V30 11349 N 1092.13 5.59353 4.08774 0
M  V30 11350 N 1093.93 4.43331 3.45564 0
M  V30 11351 H 1086.08 2.09299 0.36164 0
M  V30 11352 H 1088.34 0.921479 0.222668 0
M  V30 11353 H 1088.05 3.23096 1.38931 0
M  V30 11354 H 1087.92 2.38556 2.92183 0
M  V30 11355 H 1090.31 1.4604 2.5643 0
M  V30 11356 H 1090.39 2.34077 1.03159 0
M  V30 11357 H 1090.03 4.53035 2.29612 0
M  V30 11358 H 1089.96 3.61907 3.82532 0
M  V30 11359 H 1092.45 2.87544 2.45208 0
M  V30 11360 H 1092.77 6.26668 4.52224 0
M  V30 11361 H 1091.11 5.63173 4.07261 0
M  V30 11362 H 1094.3 3.61587 2.97276 0
M  V30 11363 H 1094.48 5.16216 3.91695 0
M  V30 11364 N 1087.88 -1.11734 1.11145 0
M  V30 11365 C 1089.3 -1.35412 0.844736 0
M  V30 11366 C 1089.5 -1.94347 -0.532111 0
M  V30 11367 O 1088.55 -2.17443 -1.28353 0
M  V30 11368 C 1089.87 -2.28869 1.95037 0
M  V30 11369 C 1091.41 -2.42442 1.97967 0
M  V30 11370 C 1091.89 -3.39219 3.07725 0
M  V30 11371 N 1093.38 -3.4678 3.07079 0
M  V30 11372 C 1094.12 -4.21595 3.88646 0
M  V30 11373 N 1093.61 -4.99411 4.80167 0
M  V30 11374 N 1095.4 -4.17075 3.76835 0
M  V30 11375 H 1087.56 -0.718412 1.99881 0
M  V30 11376 H 1089.82 -0.378787 0.869037 0
M  V30 11377 H 1089.52 -1.92752 2.94176 0
M  V30 11378 H 1089.4 -3.2906 1.84389 0
M  V30 11379 H 1091.79 -2.77835 0.994561 0
M  V30 11380 H 1091.87 -1.42113 2.12691 0
M  V30 11381 H 1091.51 -3.04553 4.0646 0
M  V30 11382 H 1091.44 -4.39394 2.90242 0
M  V30 11383 H 1093.93 -2.91272 2.40767 0
M  V30 11384 H 1094.24 -5.53856 5.38946 0
M  V30 11385 H 1092.59 -4.98582 4.84191 0
M  V30 11386 H 1095.78 -3.55369 3.04681 0
M  V30 11387 H 1095.95 -4.75125 4.40637 0
M  V30 11388 N 1089.36 -0.901303 -1.29284 0
M  V30 11389 C 1090.61 -0.527 -1.95108 0
M  V30 11390 C 1090.93 0.930065 -1.71391 0
M  V30 11391 O 1090.2 1.65601 -1.04658 0
M  V30 11392 H 1088.78 -0.191903 -0.721929 0
M  V30 11393 H 1091.44 -1.14795 -1.57506 0
M  V30 11394 H 1090.54 -0.710945 -3.03895 0
M  V30 11395 N 1090.84 1.42931 -0.663954 0
M  V30 11396 C 1092.06 2.06544 -0.188201 0
M  V30 11397 C 1092.49 1.495 1.14155 0
M  V30 11398 O 1091.85 0.609164 1.7076 0
M  V30 11399 C 1091.89 3.60393 -0.122105 0
M  V30 11400 O 1091 4.02176 0.91258 0
M  V30 11401 H 1090.34 0.656458 -0.0997967 0
M  V30 11402 H 1092.87 1.83253 -0.909909 0
M  V30 11403 H 1092.88 4.07959 0.0576568 0
M  V30 11404 H 1091.55 4.01287 -1.09276 0
M  V30 11405 H 1090.13 3.6618 0.704738 0
M  V30 11406 N 1092.32 0.406567 1.52266 0
M  V30 11407 C 1093.56 -0.169717 2.01386 0
M  V30 11408 C 1093.88 -1.45864 1.29417 0
M  V30 11409 O 1093.15 -1.9136 0.419327 0
M  V30 11410 H 1091.73 -0.0657075 0.744105 0
M  V30 11411 H 1094.4 0.542221 1.87206 0
M  V30 11412 H 1093.49 -0.367659 3.09927 0
M  V30 11413 N 1093.79 -1.57004 0.136909 0
M  V30 11414 C 1095.21 -1.58082 -0.21958 0
M  V30 11415 C 1095.41 -1.15065 -1.65415 0
M  V30 11416 O 1094.47 -0.846284 -2.37896 0
M  V30 11417 C 1095.78 -3.00685 0.0300112 0
M  V30 11418 C 1097.33 -3.12981 -0.0344899 0
M  V30 11419 C 1097.8 -4.57615 0.187639 0
M  V30 11420 N 1099.29 -4.63005 0.134219 0
M  V30 11421 C 1100.03 -5.72712 0.280743 0
M  V30 11422 N 1099.52 -6.91104 0.48443 0
M  V30 11423 N 1101.32 -5.61673 0.219055 0
M  V30 11424 H 1093.47 -1.83262 1.07372 0
M  V30 11425 H 1095.73 -0.847776 0.424241 0
M  V30 11426 H 1095.44 -3.36509 1.02247 0
M  V30 11427 H 1095.31 -3.70762 -0.693918 0
M  V30 11428 H 1097.7 -2.77004 -1.01749 0
M  V30 11429 H 1097.78 -2.45411 0.721608 0
M  V30 11430 H 1097.42 -4.94295 1.16769 0
M  V30 11431 H 1097.35 -5.23299 -0.588661 0
M  V30 11432 H 1099.84 -3.77895 -0.0189681 0
M  V30 11433 H 1100.16 -7.7057 0.586613 0
M  V30 11434 H 1098.5 -6.93047 0.520627 0
M  V30 11435 H 1101.69 -4.68061 0.0607606 0
M  V30 11436 H 1101.87 -6.47125 0.336683 0
M  V30 11437 N 1095.27 0.136881 -1.57004 0
M  V30 11438 C 1096.52 0.8461 -1.83536 0
M  V30 11439 C 1096.84 1.81246 -0.71937 0
M  V30 11440 O 1096.11 1.94191 0.258161 0
M  V30 11441 H 1094.69 0.315446 -0.677128 0
M  V30 11442 H 1097.35 0.128469 -1.94476 0
M  V30 11443 H 1096.45 1.40221 -2.78827 0
M  V30 11444 N 1096.75 1.52266 0.40654 0
M  V30 11445 C 1098 1.66123 1.15097 0
M  V30 11446 C 1098.32 0.394836 1.90961 0
M  V30 11447 O 1097.59 -0.590349 1.86793 0
M  V30 11448 H 1096.17 0.612317 0.427875 0
M  V30 11449 H 1098.83 1.89318 0.463106 0
M  V30 11450 H 1097.93 2.50351 1.86361 0
M  V30 11451 N 1098.23 -0.663929 1.42933 0
M  V30 11452 C 1099.48 -1.42111 1.43697 0
M  V30 11453 C 1099.8 -1.94913 0.0583858 0
M  V30 11454 O 1099.07 -1.73757 -0.904719 0
M  V30 11455 H 1097.65 -0.527391 0.529026 0
M  V30 11456 H 1100.31 -0.783766 1.78446 0
M  V30 11457 H 1099.41 -2.26877 2.1432 0
M  V30 11458 N 1099.71 -1.29285 -0.901281 0
M  V30 11459 C 1101.12 -1.15499 -1.46686 0
M  V30 11460 C 1101.47 0.250446 -1.94595 0
M  V30 11461 O 1100.59 1.14581 -1.83576 0
M  V30 11462 C 1101.19 -2.0906 -2.66607 0
M  V30 11463 C 1099.75 -1.99301 -3.19306 0
M  V30 11464 C 1098.89 -2.00079 -1.91999 0
M  V30 11465 H 1101.85 -1.41793 -0.712773 0
M  V30 11466 H 1101.87 -1.6619 -3.42288 0
M  V30 11467 H 1101.38 -3.11341 -2.31707 0
M  V30 11468 H 1099.48 -1.00103 -3.58901 0
M  V30 11469 H 1099.59 -2.86885 -3.8371 0
M  V30 11470 H 1097.96 -1.44655 -2.09636 0
M  V30 11471 H 1098.74 -3.04061 -1.59379 0
M  V30 11472 N 1101.18 1.11143 -1.11736 0
M  V30 11473 C 1102.41 1.86745 -0.890727 0
M  V30 11474 C 1102.83 1.80315 0.55964 0
M  V30 11475 O 1102.18 1.18663 1.38656 0
M  V30 11476 C 1102.24 3.35436 -1.34779 0
M  V30 11477 O 1101.96 3.41738 -2.74129 0
M  V30 11478 C 1103.46 4.27935 -1.15702 0
M  V30 11479 H 1100.68 0.59044 -0.318781 0
M  V30 11480 H 1103.22 1.40549 -1.48547 0
M  V30 11481 H 1101.38 3.79125 -0.796425 0
M  V30 11482 H 1101.79 4.34347 -2.94012 0
M  V30 11483 H 1103.26 5.30494 -1.52579 0
M  V30 11484 H 1103.74 4.39093 -0.0968735 0
M  V30 11485 H 1104.35 3.90042 -1.69551 0
M  V30 11486 N 1102.66 0.908147 1.28804 0
M  V30 11487 C 1104.07 0.585727 1.77274 0
M  V30 11488 C 1104.42 -0.898842 1.744 0
M  V30 11489 O 1103.55 -1.70301 1.33516 0
M  V30 11490 C 1104.14 1.05647 3.21907 0
M  V30 11491 C 1102.7 0.785066 3.68122 0
M  V30 11492 C 1101.85 1.22638 2.48707 0
M  V30 11493 H 1104.8 1.09 1.15346 0
M  V30 11494 H 1104.82 0.395442 3.7844 0
M  V30 11495 H 1104.33 2.13698 3.23967 0
M  V30 11496 H 1102.44 -0.282477 3.71528 0
M  V30 11497 H 1102.55 1.38888 4.58527 0
M  V30 11498 H 1100.91 0.645217 2.46392 0
M  V30 11499 H 1101.7 2.31512 2.5349 0
M  V30 11500 N 1104.14 -1.42577 0.671525 0
M  V30 11501 C 1105.39 -2.02401 0.201384 0
M  V30 11502 C 1105.74 -1.52133 -1.17786 0
M  V30 11503 O 1105.03 -0.712405 -1.77863 0
M  V30 11504 C 1105.23 -3.56985 0.172097 0
M  V30 11505 C 1105.06 -4.22255 1.54696 0
M  V30 11506 C 1103.83 -4.57564 2.14391 0
M  V30 11507 C 1106.03 -4.5006 2.48899 0
M  V30 11508 N 1104.01 -5.07997 3.44692 0
M  V30 11509 C 1105.38 -5.02008 3.63851 0
M  V30 11510 C 1107.43 -4.32045 2.47471 0
M  V30 11511 C 1106.14 -5.37837 4.77624 0
M  V30 11512 C 1108.16 -4.68947 3.60337 0
M  V30 11513 C 1107.52 -5.21045 4.74016 0
M  V30 11514 H 1103.62 -0.772963 0.118539 0
M  V30 11515 H 1106.21 -1.73485 0.883802 0
M  V30 11516 H 1104.38 -3.85426 -0.479723 0
M  V30 11517 H 1106.11 -4.03506 -0.31062 0
M  V30 11518 H 1102.87 -4.43212 1.66913 0
M  V30 11519 H 1103.29 -5.37647 4.11418 0
M  V30 11520 H 1107.93 -3.91024 1.60811 0
M  V30 11521 H 1105.65 -5.77792 5.64962 0
M  V30 11522 H 1109.24 -4.56687 3.60455 0
M  V30 11523 H 1108.12 -5.49067 5.59906 0
M  V30 11524 N 1105.62 -0.414636 -1.52048 0
M  V30 11525 C 1106.87 0.159034 -2.01473 0
M  V30 11526 C 1107.19 1.45176 -1.30188 0
M  V30 11527 O 1106.46 1.91134 -0.429469 0
M  V30 11528 H 1105.04 0.0617604 -0.744443 0
M  V30 11529 H 1107.7 -0.552141 -1.86916 0
M  V30 11530 H 1106.8 0.351217 -3.10118 0
M  V30 11531 N 1107.1 1.56929 -0.145233 0
M  V30 11532 C 1108.51 1.82877 0.375884 0
M  V30 11533 C 1108.86 1.06384 1.64854 0
M  V30 11534 O 1107.98 0.30857 2.14189 0
M  V30 11535 C 1108.58 3.31725 0.688744 0
M  V30 11536 C 1107.14 3.58261 1.15439 0
M  V30 11537 C 1106.28 2.76737 0.176565 0
M  V30 11538 H 1109.24 1.54328 -0.36996 0
M  V30 11539 H 1109.26 3.47784 1.54359 0
M  V30 11540 H 1108.77 3.87371 -0.237694 0
M  V30 11541 H 1106.87 3.08 2.09683 0
M  V30 11542 H 1106.98 4.66732 1.08158 0
M  V30 11543 H 1105.35 2.45761 0.668843 0
M  V30 11544 H 1106.13 3.35154 -0.743432 0
M  V30 11545 N 1108.58 -0.128553 1.57075 0
M  V30 11546 C 1109.54 -1.14215 1.98715 0
M  V30 11547 C 1110.54 -1.34843 0.876019 0
M  V30 11548 O 1111.73 -1.31522 1.14227 0
M  V30 11549 C 1108.86 -2.49865 2.31905 0
M  V30 11550 H 1110.05 -0.784481 2.89458 0
M  V30 11551 H 1107.61 -0.372531 1.51796 0
M  V30 11552 H 1108.34 -2.9057 1.44012 0
M  V30 11553 H 1108.13 -2.3625 3.12935 0
M  V30 11554 H 1109.62 -3.22832 2.64895 0
M  V30 11555 N 1110.05 -1.5248 -0.398459 0
M  V30 11556 C 1111.3 -1.68262 -1.14277 0
M  V30 11557 C 1111.65 -0.412722 -1.87921 0
M  V30 11558 O 1110.95 0.593257 -1.82184 0
M  V30 11559 C 1111.14 -2.85038 -2.15611 0
M  V30 11560 C 1110.97 -4.23262 -1.51919 0
M  V30 11561 C 1109.74 -4.88627 -1.28732 0
M  V30 11562 C 1111.94 -5.04986 -0.974349 0
M  V30 11563 N 1109.92 -6.10857 -0.610455 0
M  V30 11564 C 1111.29 -6.18542 -0.425008 0
M  V30 11565 C 1113.35 -4.90243 -0.869843 0
M  V30 11566 C 1112.05 -7.18968 0.218609 0
M  V30 11567 C 1114.08 -5.90913 -0.240063 0
M  V30 11568 C 1113.44 -7.03767 0.298552 0
M  V30 11569 H 1109.54 -0.669275 -0.404469 0
M  V30 11570 H 1112.12 -1.8981 -0.433635 0
M  V30 11571 H 1110.29 -2.65087 -2.83872 0
M  V30 11572 H 1112.02 -2.89804 -2.82481 0
M  V30 11573 H 1108.78 -4.47179 -1.55975 0
M  V30 11574 H 1109.2 -6.76386 -0.288338 0
M  V30 11575 H 1113.84 -4.0321 -1.27207 0
M  V30 11576 H 1111.56 -8.05618 0.632874 0
M  V30 11577 H 1115.15 -5.81578 -0.160576 0
M  V30 11578 H 1114.03 -7.80329 0.778185 0
M  V30 11579 N 1111.53 0.65634 -1.43283 0
M  V30 11580 C 1112.81 1.41339 -1.35213 0
M  V30 11581 C 1113.19 2.111 0.00158494 0
M  V30 11582 O 1112.54 2.0457 1.018 0
M  V30 11583 C 1112.75 2.40066 -2.53317 0
M  V30 11584 C 1114.09 3.04159 -2.96264 0
M  V30 11585 O 1115.12 2.50393 -2.53341 0
M  V30 11586 O 1113.98 4.01633 -3.70612 0
M  V30 11587 H 1111.07 0.631325 -0.534189 0
M  V30 11588 H 1113.62 0.68351 -1.55326 0
M  V30 11589 H 1112.39 1.87444 -3.43483 0
M  V30 11590 H 1112.01 3.20509 -2.35287 0
M  V30 11591 N 1113.01 1.29761 0.894412 0
M  V30 11592 C 1113.97 1.15335 1.98067 0
M  V30 11593 C 1114.97 0.0872804 1.60563 0
M  V30 11594 O 1116.16 0.334645 1.70955 0
M  V30 11595 C 1113.29 0.764907 3.32208 0
M  V30 11596 H 1114.49 2.11829 2.12293 0
M  V30 11597 H 1112.04 1.13023 1.0796 0
M  V30 11598 H 1112.78 -0.199948 3.23683 0
M  V30 11599 H 1112.56 1.53523 3.60795 0
M  V30 11600 H 1114.05 0.687176 4.11907 0
M  V30 11601 N 1114.49 -1.10549 1.12324 0
M  V30 11602 C 1115.74 -1.82124 0.876083 0
M  V30 11603 C 1116.06 -1.85547 -0.599761 0
M  V30 11604 O 1115.33 -1.33269 -1.43584 0
M  V30 11605 H 1113.91 -0.674455 0.321122 0
M  V30 11606 H 1116.57 -1.33766 1.41748 0
M  V30 11607 H 1115.66 -2.85688 1.25653 0
M  V30 11608 N 1115.97 -0.914965 -1.28321 0
M  V30 11609 C 1117.21 -0.544639 -1.94208 0
M  V30 11610 C 1117.53 0.916368 -1.72806 0
M  V30 11611 O 1118.73 1.39491 -2.32926 0
M  V30 11612 C 1117.19 -0.923209 -3.47858 0
M  V30 11613 C 1116.8 -2.40403 -3.78035 0
M  V30 11614 C 1118.54 -0.623526 -4.19896 0
M  V30 11615 C 1116.45 -2.72266 -5.25 0
M  V30 11616 H 1115.38 -0.199966 -0.727 0
M  V30 11617 H 1118.03 -1.11405 -1.45812 0
M  V30 11618 H 1116.41 -0.282576 -3.94991 0
M  V30 11619 H 1117.59 -3.09149 -3.41706 0
M  V30 11620 H 1115.9 -2.67429 -3.19172 0
M  V30 11621 H 1118.5 -0.838243 -5.28089 0
M  V30 11622 H 1118.84 0.438721 -4.13982 0
M  V30 11623 H 1119.37 -1.22268 -3.78544 0
M  V30 11624 H 1116.11 -3.77349 -5.35993 0
M  V30 11625 H 1115.63 -2.08157 -5.62522 0
M  V30 11626 H 1117.31 -2.59334 -5.92752 0
M  V30 11627 N 1117.44 1.42219 -0.679077 0
M  V30 11628 C 1118.41 2.29197 -0.0125475 0
M  V30 11629 C 1119.41 1.43544 0.724691 0
M  V30 11630 O 1120.6 1.64884 0.562052 0
M  V30 11631 C 1117.73 3.26122 0.992846 0
M  V30 11632 H 1118.92 2.89629 -0.778154 0
M  V30 11633 H 1116.47 1.4993 -0.44166 0
M  V30 11634 H 1117.21 2.70637 1.78679 0
M  V30 11635 H 1116.99 3.89302 0.467544 0
M  V30 11636 H 1118.48 3.91339 1.45751 0
M  V30 11637 N 1118.92 0.422693 1.51826 0
M  V30 11638 C 1120.33 -0.0438129 1.86649 0
M  V30 11639 C 1120.68 -1.43246 1.34071 0
M  V30 11640 O 1119.81 -2.05256 0.685501 0
M  V30 11641 C 1120.4 -0.0862802 3.3869 0
M  V30 11642 C 1118.96 -0.497157 3.73102 0
M  V30 11643 C 1118.11 0.319655 2.75451 0
M  V30 11644 H 1121.06 0.639181 1.45259 0
M  V30 11645 H 1121.08 -0.8988 3.69732 0
M  V30 11646 H 1120.59 0.924525 3.76927 0
M  V30 11647 H 1118.69 -1.51411 3.40449 0
M  V30 11648 H 1118.81 -0.232125 4.78537 0
M  V30 11649 H 1117.17 -0.219963 2.53748 0
M  V30 11650 H 1117.95 1.32906 3.16529 0
M  V30 11651 N 1120.4 -1.5685 0.153553 0
M  V30 11652 C 1121.81 -1.83074 -0.36618 0
M  V30 11653 C 1122.16 -1.07257 -1.64288 0
M  V30 11654 O 1121.29 -0.319925 -2.14022 0
M  V30 11655 C 1121.88 -3.32086 -0.671142 0
M  V30 11656 C 1120.44 -3.58868 -1.13537 0
M  V30 11657 C 1119.59 -2.76827 -0.161887 0
M  V30 11658 H 1122.54 -1.54129 0.378139 0
M  V30 11659 H 1122.56 -3.48598 -1.52512 0
M  V30 11660 H 1122.07 -3.8724 0.258234 0
M  V30 11661 H 1120.17 -3.09107 -2.08047 0
M  V30 11662 H 1120.29 -4.67299 -1.05682 0
M  V30 11663 H 1118.65 -2.46112 -0.6558 0
M  V30 11664 H 1119.43 -3.34755 0.761195 0
M  V30 11665 N 1121.88 0.120221 -1.57141 0
M  V30 11666 C 1123.12 0.829449 -1.85062 0
M  V30 11667 C 1123.46 1.79585 -0.739116 0
M  V30 11668 O 1122.73 1.92819 0.255147 0
M  V30 11669 C 1123.01 1.58042 -3.23566 0
M  V30 11670 C 1122.87 0.633706 -4.45314 0
M  V30 11671 C 1124.19 2.53688 -3.59625 0
M  V30 11672 H 1121.31 0.300086 -0.67314 0
M  V30 11673 H 1123.95 0.0937393 -1.89769 0
M  V30 11674 H 1122.1 2.20758 -3.19684 0
M  V30 11675 H 1123.77 0.0154836 -4.61297 0
M  V30 11676 H 1122.01 -0.054846 -4.33765 0
M  V30 11677 H 1122.68 1.19577 -5.38893 0
M  V30 11678 H 1125.16 2.01078 -3.6429 0
M  V30 11679 H 1124.04 3.03265 -4.57516 0
M  V30 11680 H 1124.3 3.36296 -2.8698 0
M  V30 11681 N 1123.36 1.52689 0.390367 0
M  V30 11682 C 1124.29 1.80338 1.48325 0
M  V30 11683 C 1125.27 0.655338 1.56969 0
M  V30 11684 O 1126.45 0.902792 1.7194 0
M  V30 11685 C 1123.58 1.97101 2.85952 0
M  V30 11686 C 1122.54 3.12783 2.92148 0
M  V30 11687 C 1121.86 3.14798 4.32211 0
M  V30 11688 C 1123.16 4.5188 2.61919 0
M  V30 11689 H 1124.86 2.71857 1.25437 0
M  V30 11690 H 1122.4 1.30813 0.601995 0
M  V30 11691 H 1124.36 2.15027 3.62411 0
M  V30 11692 H 1123.08 1.02271 3.10174 0
M  V30 11693 H 1121.74 2.94638 2.18137 0
M  V30 11694 H 1121.39 2.17653 4.53471 0
M  V30 11695 H 1121.09 3.92507 4.37278 0
M  V30 11696 H 1122.61 3.34877 5.10578 0
M  V30 11697 H 1124.02 4.70134 3.28096 0
M  V30 11698 H 1122.42 5.31647 2.78337 0
M  V30 11699 H 1123.49 4.58689 1.57266 0
M  V30 11700 N 1124.83 -0.648732 1.43629 0
M  V30 11701 C 1126.25 -1.23001 1.40455 0
M  V30 11702 C 1126.6 -1.95886 0.110897 0
M  V30 11703 O 1125.72 -2.01485 -0.789487 0
M  V30 11704 C 1126.32 -2.23716 2.54434 0
M  V30 11705 C 1124.88 -2.77311 2.54511 0
M  V30 11706 C 1124.02 -1.52024 2.31914 0
M  V30 11707 H 1126.97 -0.440473 1.52465 0
M  V30 11708 H 1126.99 -3.05979 2.26179 0
M  V30 11709 H 1126.51 -1.7064 3.48574 0
M  V30 11710 H 1124.61 -3.34437 1.64263 0
M  V30 11711 H 1124.72 -3.2455 3.52426 0
M  V30 11712 H 1123.08 -1.79531 1.80667 0
M  V30 11713 H 1123.87 -1.00876 3.28145 0
M  V30 11714 N 1126.31 -1.30234 -0.887518 0
M  V30 11715 C 1127.24 -1.12212 -1.99853 0
M  V30 11716 C 1128.26 -0.0660929 -1.62666 0
M  V30 11717 O 1129.45 -0.311853 -1.75755 0
M  V30 11718 C 1126.55 -0.688591 -3.31831 0
M  V30 11719 C 1125.72 -1.82581 -3.97471 0
M  V30 11720 C 1124.78 -1.38126 -5.07748 0
M  V30 11721 O 1123.8 -2.08805 -5.29518 0
M  V30 11722 N 1125.01 -0.258868 -5.79923 0
M  V30 11723 H 1127.77 -2.07901 -2.15864 0
M  V30 11724 H 1125.33 -1.22336 -1.06045 0
M  V30 11725 H 1127.32 -0.374252 -4.02966 0
M  V30 11726 H 1125.89 0.176185 -3.12103 0
M  V30 11727 H 1125.11 -2.3084 -3.19541 0
M  V30 11728 H 1126.4 -2.58798 -4.38065 0
M  V30 11729 H 1125.8 0.330131 -5.64736 0
M  V30 11730 H 1124.36 -0.00396813 -6.518 0
M  V30 11731 N 1127.79 1.09952 -1.12909 0
M  V30 11732 C 1129.07 1.78547 -0.798767 0
M  V30 11733 C 1129.45 1.9878 0.710624 0
M  V30 11734 O 1128.8 1.58485 1.64604 0
M  V30 11735 C 1129.01 3.1121 -1.57953 0
M  V30 11736 C 1130.35 3.86006 -1.76874 0
M  V30 11737 O 1131.38 3.20946 -1.54506 0
M  V30 11738 O 1130.24 5.02791 -2.14158 0
M  V30 11739 H 1127.33 0.774084 -0.291072 0
M  V30 11740 H 1129.88 1.16557 -1.2334 0
M  V30 11741 H 1128.65 2.91935 -2.60557 0
M  V30 11742 H 1128.27 3.80922 -1.13948 0
M  V30 11743 N 1129.27 0.921757 1.27833 0
M  V30 11744 C 1130.18 0.421668 2.30779 0
M  V30 11745 C 1131.19 -0.494686 1.6682 0
M  V30 11746 O 1132.37 -0.378935 1.97803 0
M  V30 11747 C 1129.44 -0.322928 3.45193 0
M  V30 11748 C 1128.5 0.627618 4.24687 0
M  V30 11749 C 1127.73 -0.0815385 5.33638 0
M  V30 11750 O 1127.95 -1.30193 5.55343 0
M  V30 11751 O 1126.89 0.58725 5.99028 0
M  V30 11752 H 1130.71 1.2763 2.7558 0
M  V30 11753 H 1128.3 0.686877 1.32674 0
M  V30 11754 H 1130.18 -0.743145 4.14796 0
M  V30 11755 H 1128.85 -1.15326 3.02459 0
M  V30 11756 H 1127.76 1.09739 3.57642 0
M  V30 11757 H 1129.09 1.425 4.71121 0
M  V30 11758 N 1130.75 -1.41857 0.686609 0
M  V30 11759 C 1131.99 -2.0097 0.213378 0
M  V30 11760 C 1132.32 -1.54618 -1.1882 0
M  V30 11761 O 1131.59 -0.772916 -1.80008 0
M  V30 11762 H 1130.17 -0.743134 0.0758968 0
M  V30 11763 H 1132.83 -1.73609 0.885763 0
M  V30 11764 H 1131.92 -3.11296 0.223826 0
M  V30 11765 N 1132.22 -0.430739 -1.51599 0
M  V30 11766 C 1133.19 0.372319 -2.26156 0
M  V30 11767 C 1134.19 0.955338 -1.29344 0
M  V30 11768 O 1135.38 0.830823 -1.53111 0
M  V30 11769 C 1132.51 1.52613 -3.04831 0
M  V30 11770 H 1133.7 -0.280996 -2.98581 0
M  V30 11771 H 1131.26 -0.183749 -1.55216 0
M  V30 11772 H 1131.99 2.21569 -2.36807 0
M  V30 11773 H 1131.78 1.11433 -3.75932 0
M  V30 11774 H 1133.27 2.09366 -3.61325 0
M  V30 11775 N 1133.7 1.56767 -0.161869 0
M  V30 11776 C 1134.95 1.97661 0.479751 0
M  V30 11777 C 1135.3 1.04583 1.61493 0
M  V30 11778 O 1134.6 0.0836772 1.91417 0
M  V30 11779 C 1134.79 3.42567 1.01894 0
M  V30 11780 C 1134.62 4.49657 -0.0624633 0
M  V30 11781 C 1133.39 5.0273 -0.508935 0
M  V30 11782 C 1135.59 5.07069 -0.85941 0
M  V30 11783 N 1133.57 5.93442 -1.57163 0
M  V30 11784 C 1134.94 5.94131 -1.77225 0
M  V30 11785 C 1137 4.89596 -0.905543 0
M  V30 11786 C 1135.7 6.6559 -2.72731 0
M  V30 11787 C 1137.72 5.61769 -1.8485 0
M  V30 11788 C 1137.09 6.48551 -2.74884 0
M  V30 11789 H 1133.19 0.76864 0.14393 0
M  V30 11790 H 1135.77 1.92957 -0.259906 0
M  V30 11791 H 1133.94 3.47835 1.72815 0
M  V30 11792 H 1135.67 3.70493 1.62841 0
M  V30 11793 H 1132.43 4.73476 -0.1084 0
M  V30 11794 H 1132.85 6.43502 -2.10319 0
M  V30 11795 H 1137.49 4.22209 -0.223516 0
M  V30 11796 H 1135.21 7.32197 -3.41927 0
M  V30 11797 H 1138.8 5.50239 -1.89018 0
M  V30 11798 H 1137.68 7.03417 -3.46661 0
M  V30 11799 N 1135.18 -0.111886 1.57202 0
M  V30 11800 C 1136.59 -0.668261 1.74331 0
M  V30 11801 C 1136.94 -1.79959 0.781609 0
M  V30 11802 O 1136.07 -2.16356 -0.043833 0
M  V30 11803 C 1136.66 -1.219 3.1611 0
M  V30 11804 C 1135.22 -1.7216 3.34721 0
M  V30 11805 C 1134.37 -0.624223 2.70183 0
M  V30 11806 H 1137.32 0.114081 1.58289 0
M  V30 11807 H 1137.34 -2.08858 3.18054 0
M  V30 11808 H 1136.85 -0.395381 3.86081 0
M  V30 11809 H 1134.95 -2.56976 2.69803 0
M  V30 11810 H 1135.07 -1.82615 4.42932 0
M  V30 11811 H 1133.43 -1.05958 2.31614 0
M  V30 11812 H 1134.21 0.188537 3.42782 0
M  V30 11813 N 1136.66 -1.52894 -0.382264 0
M  V30 11814 C 1137.59 -1.81122 -1.47367 0
M  V30 11815 C 1138.57 -0.663653 -1.56619 0
M  V30 11816 O 1139.75 -0.911898 -1.71459 0
M  V30 11817 C 1136.88 -1.98615 -2.84902 0
M  V30 11818 C 1135.84 -3.14328 -2.90485 0
M  V30 11819 C 1135.16 -3.17086 -4.30535 0
M  V30 11820 C 1136.46 -4.53263 -2.59519 0
M  V30 11821 H 1138.16 -2.72518 -1.23993 0
M  V30 11822 H 1135.7 -1.3113 -0.595049 0
M  V30 11823 H 1137.66 -2.16946 -3.61265 0
M  V30 11824 H 1136.38 -1.03915 -3.09628 0
M  V30 11825 H 1135.04 -2.95791 -2.16572 0
M  V30 11826 H 1134.69 -2.20055 -4.52311 0
M  V30 11827 H 1134.39 -3.94821 -4.3519 0
M  V30 11828 H 1135.91 -3.3758 -5.08795 0
M  V30 11829 H 1137.33 -4.71867 -3.25598 0
M  V30 11830 H 1135.72 -5.33115 -2.75514 0
M  V30 11831 H 1136.79 -4.59516 -1.54831 0
M  V30 11832 N 1138.14 0.641106 -1.43971 0
M  V30 11833 C 1139.55 0.958161 -1.27638 0
M  V30 11834 C 1139.75 2.00456 -0.204885 0
M  V30 11835 O 1138.81 2.49106 0.412606 0
M  V30 11836 C 1140.12 1.43091 -2.64472 0
M  V30 11837 C 1141.67 1.54692 -2.72102 0
M  V30 11838 C 1142.15 2.05353 -4.09382 0
M  V30 11839 N 1143.64 2.12638 -4.11509 0
M  V30 11840 C 1144.37 2.52987 -5.14573 0
M  V30 11841 N 1143.87 2.92544 -6.28005 0
M  V30 11842 N 1145.66 2.53033 -5.01927 0
M  V30 11843 H 1137.81 -0.0510973 -2.12339 0
M  V30 11844 H 1140.07 0.039748 -0.947166 0
M  V30 11845 H 1139.78 0.736389 -3.43904 0
M  V30 11846 H 1139.65 2.40375 -2.90688 0
M  V30 11847 H 1142.04 2.23242 -1.92994 0
M  V30 11848 H 1142.12 0.558083 -2.49638 0
M  V30 11849 H 1141.77 1.37401 -4.88962 0
M  V30 11850 H 1141.7 3.0509 -4.29218 0
M  V30 11851 H 1144.19 1.84792 -3.29636 0
M  V30 11852 H 1144.5 3.22116 -7.02468 0
M  V30 11853 H 1142.85 2.90319 -6.31458 0
M  V30 11854 H 1146.04 2.21514 -4.1237 0
M  V30 11855 H 1146.21 2.84155 -5.82375 0
M  V30 11856 N 1139.62 1.30703 0.880598 0
M  V30 11857 C 1140.86 1.19955 1.63519 0
M  V30 11858 C 1141.19 -0.244214 1.92658 0
M  V30 11859 O 1140.47 -1.17412 1.55063 0
M  V30 11860 C 1140.75 2.03302 2.97221 0
M  V30 11861 C 1140.61 3.55921 2.75028 0
M  V30 11862 C 1141.92 1.87421 3.98198 0
M  V30 11863 H 1139.04 0.43712 0.593376 0
M  V30 11864 H 1141.69 1.60382 1.01871 0
M  V30 11865 H 1139.84 1.68953 3.49839 0
M  V30 11866 H 1141.51 4.00352 2.29164 0
M  V30 11867 H 1139.75 3.79885 2.09452 0
M  V30 11868 H 1140.42 4.09533 3.70117 0
M  V30 11869 H 1142.9 2.17459 3.54755 0
M  V30 11870 H 1141.77 2.48057 4.89652 0
M  V30 11871 H 1142.03 0.834563 4.34151 0
M  V30 11872 N 1141.09 -1.09351 1.1349 0
M  V30 11873 C 1142.32 -1.85304 0.920324 0
M  V30 11874 C 1142.74 -1.81182 -0.530883 0
M  V30 11875 O 1142.09 -1.20853 -1.36751 0
M  V30 11876 C 1142.14 -3.33249 1.40098 0
M  V30 11877 O 1141.87 -3.37333 2.79531 0
M  V30 11878 C 1143.37 -4.2604 1.22495 0
M  V30 11879 H 1140.59 -0.585294 0.328134 0
M  V30 11880 H 1143.13 -1.38168 1.50765 0
M  V30 11881 H 1141.29 -3.7781 0.85664 0
M  V30 11882 H 1141.7 -4.29614 3.00885 0
M  V30 11883 H 1143.17 -5.27999 1.61 0
M  V30 11884 H 1143.65 -4.38883 0.166717 0
M  V30 11885 H 1144.26 -3.87295 1.75735 0
M  V30 11886 N 1142.57 -0.928524 -1.27343 0
M  V30 11887 C 1143.5 -0.445627 -2.29208 0
M  V30 11888 C 1144.48 0.494508 -1.62753 0
M  V30 11889 O 1145.67 0.399082 -1.90055 0
M  V30 11890 C 1142.8 0.301684 -3.45987 0
M  V30 11891 C 1141.75 -0.550695 -4.24442 0
M  V30 11892 C 1141.08 0.325833 -5.33706 0
M  V30 11893 C 1142.38 -1.81559 -4.89728 0
M  V30 11894 H 1144.07 -1.29696 -2.69851 0
M  V30 11895 H 1141.62 -0.625085 -1.29725 0
M  V30 11896 H 1143.57 0.650455 -4.1635 0
M  V30 11897 H 1142.29 1.18705 -3.04264 0
M  V30 11898 H 1140.95 -0.882185 -3.55827 0
M  V30 11899 H 1140.6 1.21018 -4.88225 0
M  V30 11900 H 1140.3 -0.240994 -5.87106 0
M  V30 11901 H 1141.83 0.670156 -6.06911 0
M  V30 11902 H 1143.24 -1.53483 -5.52373 0
M  V30 11903 H 1141.64 -2.32598 -5.53189 0
M  V30 11904 H 1142.71 -2.53461 -4.13383 0
M  V30 11905 N 1144.05 1.41491 -0.694123 0
M  V30 11906 C 1144.98 2.33462 -0.0422169 0
M  V30 11907 C 1145.96 1.51739 0.76872 0
M  V30 11908 O 1147.15 1.8028 0.721985 0
M  V30 11909 C 1144.28 3.35545 0.895925 0
M  V30 11910 C 1143.23 4.27568 0.192188 0
M  V30 11911 C 1142.56 5.20014 1.24459 0
M  V30 11912 C 1143.86 5.1376 -0.940626 0
M  V30 11913 H 1145.55 2.88225 -0.810363 0
M  V30 11914 H 1143.1 1.38586 -0.39114 0
M  V30 11915 H 1145.05 3.9881 1.36121 0
M  V30 11916 H 1143.77 2.79129 1.69572 0
M  V30 11917 H 1142.43 3.65726 -0.25305 0
M  V30 11918 H 1142.08 4.59913 2.03687 0
M  V30 11919 H 1141.78 5.82417 0.778734 0
M  V30 11920 H 1143.3 5.86155 1.71041 0
M  V30 11921 H 1144.72 5.70601 -0.555692 0
M  V30 11922 H 1143.11 5.85097 -1.33349 0
M  V30 11923 H 1144.18 4.51011 -1.78093 0
M  V30 11924 N 1145.53 0.438773 1.51369 0
M  V30 11925 C 1146.46 -0.407771 2.25543 0
M  V30 11926 C 1147.47 -0.985065 1.29616 0
M  V30 11927 O 1148.66 -0.878961 1.55359 0
M  V30 11928 C 1145.76 -1.58257 2.9968 0
M  V30 11929 C 1144.93 -1.12389 4.22714 0
M  V30 11930 C 1143.99 -2.16897 4.79418 0
M  V30 11931 O 1143.02 -1.76273 5.41218 0
M  V30 11932 N 1144.22 -3.49396 4.63576 0
M  V30 11933 H 1146.99 0.227963 2.98832 0
M  V30 11934 H 1144.55 0.267741 1.59671 0
M  V30 11935 H 1146.54 -2.27796 3.34501 0
M  V30 11936 H 1145.11 -2.12362 2.29393 0
M  V30 11937 H 1144.33 -0.255509 3.93371 0
M  V30 11938 H 1145.62 -0.794848 5.02553 0
M  V30 11939 H 1145.02 -3.85132 4.14355 0
M  V30 11940 H 1143.57 -4.14826 5.02755 0
M  V30 11941 N 1147.01 -1.56678 0.170181 0
M  V30 11942 C 1148.23 -2.0166 -0.484543 0
M  V30 11943 C 1148.66 -1.04962 -1.56091 0
M  V30 11944 O 1148.01 -0.0289887 -1.81277 0
M  V30 11945 C 1148.06 -3.45252 -1.04084 0
M  V30 11946 O 1147.17 -3.51623 -2.15488 0
M  V30 11947 H 1146.51 -0.653765 -0.116135 0
M  V30 11948 H 1149.04 -2.02761 0.273737 0
M  V30 11949 H 1149.05 -3.84534 -1.36373 0
M  V30 11950 H 1147.72 -4.15131 -0.252738 0
M  V30 11951 H 1146.3 -3.242 -1.84252 0
M  V30 11952 N 1148.48 0.103547 -1.57259 0
M  V30 11953 C 1149.71 0.82624 -1.90232 0
M  V30 11954 C 1150.13 1.71902 -0.763641 0
M  V30 11955 O 1149.49 1.79043 0.285181 0
M  V30 11956 C 1149.54 1.62265 -3.22029 0
M  V30 11957 O 1148.64 2.73091 -3.09023 0
M  V30 11958 H 1147.98 0.227528 -0.6238 0
M  V30 11959 H 1150.51 0.081307 -2.04438 0
M  V30 11960 H 1150.52 2.00865 -3.5513 0
M  V30 11961 H 1149.2 0.967383 -4.04493 0
M  V30 11962 H 1147.78 2.3758 -2.8742 0
M  V30 11963 N 1149.96 1.53094 0.37415 0
M  V30 11964 C 1151.21 1.68861 1.11769 0
M  V30 11965 C 1151.54 0.436032 1.89549 0
M  V30 11966 O 1150.79 -0.581879 1.86849 0
M  V30 11967 C 1151.09 2.88432 2.11049 0
M  V30 11968 C 1150.76 4.25284 1.49814 0
M  V30 11969 C 1149.42 4.62501 1.32841 0
M  V30 11970 C 1151.77 5.10425 1.05433 0
M  V30 11971 C 1149.1 5.82502 0.700567 0
M  V30 11972 C 1151.45 6.31064 0.440525 0
M  V30 11973 C 1150.11 6.67 0.258216 0
M  V30 11974 H 1149.38 0.617906 0.40899 0
M  V30 11975 H 1152.03 1.87265 0.4005 0
M  V30 11976 H 1150.34 2.64505 2.8904 0
M  V30 11977 H 1152.03 2.97825 2.68517 0
M  V30 11978 H 1148.62 3.95976 1.64016 0
M  V30 11979 H 1152.81 4.82229 1.17342 0
M  V30 11980 H 1148.06 6.08942 0.547652 0
M  V30 11981 H 1152.24 6.96344 0.0883962 0
M  V30 11982 H 1149.86 7.59851 -0.230354 0
M  V30 11983 O 1151.48 -0.520116 1.52896 0
M  V30 11984 H 1152.17 -1.17517 1.53979 0
M  V30 END ATOM
M  V30 BEGIN BOND
M  V30 END BOND
M  V30 END CTAB
M  END
$$$$
