drugbank_target|Q9H6X2 Anthrax toxin receptor 1 (DB05945)
 OpenBabel12092120323D

  0  0  0     0  0            999 V3000
M  V30 BEGIN CTAB
M  V30 COUNTS 8825 8953 0 0 0
M  V30 BEGIN ATOM
M  V30 1 H -0.908 1.98254 -0.117106 0
M  V30 2 N 0 1.576 0 0
M  V30 3 C 0.933 2.03868 1.02534 0
M  V30 4 C 1.911 0.928543 1.3348 0
M  V30 5 O 3.095 1.19667 1.45644 0
M  V30 6 C 0.222 2.43627 2.35294 0
M  V30 7 C -0.732 3.65373 2.2001 0
M  V30 8 S 0.101 5.13292 1.52614 0
M  V30 9 C 1.257 5.56322 2.86805 0
M  V30 10 H 1.49 2.90518 0.631377 0
M  V30 11 H -0.977 1.52953 0.210867 0
M  V30 12 H 0.981 2.67203 3.11629 0
M  V30 13 H -0.358 1.57376 2.7183 0
M  V30 14 H -1.165 3.90944 3.18086 0
M  V30 15 H -1.563 3.418 1.51819 0
M  V30 16 H 0.729 5.58782 3.83104 0
M  V30 17 H 1.672 6.56266 2.65933 0
M  V30 18 H 2.08 4.83886 2.90714 0
M  V30 19 N 1.4781 -0.272755 1.55222 0
M  V30 20 C 2.4411 -1.32041 1.87344 0
M  V30 21 C 3.4411 -1.42342 0.74803 0
M  V30 22 O 4.6311 -1.41488 1.0162 0
M  V30 23 C 1.7631 -2.70173 2.07893 0
M  V30 24 H 2.9561 -1.04789 2.80997 0
M  V30 25 H 0.5091 -0.51083 1.47717 0
M  V30 26 H 1.2441 -3.02605 1.16622 0
M  V30 27 H 1.0291 -2.64082 2.89833 0
M  V30 28 H 2.5191 -3.45869 2.34017 0
M  V30 29 N 2.9562 -1.48159 -0.537278 0
M  V30 30 C 4.1842 -1.59454 -1.31841 0
M  V30 31 C 4.5992 -0.252065 -1.8711 0
M  V30 32 O 3.9562 0.757621 -1.66031 0
M  V30 33 C 4.0072 -2.63546 -2.47439 0
M  V30 34 O 3.7282 -3.92583 -1.94449 0
M  V30 35 C 5.2292 -2.85212 -3.39366 0
M  V30 36 H 2.4492 -0.53785 -0.401196 0
M  V30 37 H 4.9932 -1.93932 -0.648891 0
M  V30 38 H 3.1482 -2.31946 -3.1029 0
M  V30 39 H 3.5622 -4.49629 -2.70063 0
M  V30 40 H 5.0362 -3.61863 -4.16844 0
M  V30 41 H 5.5132 -1.93765 -3.94147 0
M  V30 42 H 6.1192 -3.18086 -2.82314 0
M  V30 43 N 4.4343 0.785586 -1.36625 0
M  V30 44 C 5.3973 1.87999 -1.31107 0
M  V30 45 C 6.3973 1.59316 -0.217959 0
M  V30 46 O 7.5873 1.67656 -0.472977 0
M  V30 47 C 4.7193 3.24861 -1.03334 0
M  V30 48 H 5.9123 1.94307 -2.2844 0
M  V30 49 H 3.4653 0.983813 -1.21453 0
M  V30 50 H 4.2003 3.24235 -0.0647432 0
M  V30 51 H 3.9853 3.4707 -1.82441 0
M  V30 52 H 5.4753 4.04929 -1.02088 0
M  V30 53 N 5.9124 1.20967 1.01018 0
M  V30 54 C 6.8224 0.980157 2.13143 0
M  V30 55 C 7.8384 -0.0660665 1.73875 0
M  V30 56 O 9.0144 0.122821 2.01025 0
M  V30 57 C 6.0794 0.54216 3.42435 0
M  V30 58 C 5.1404 1.65999 3.95908 0
M  V30 59 C 4.3734 1.2428 5.19028 0
M  V30 60 O 4.5964 0.114196 5.70286 0
M  V30 61 O 3.5304 2.05271 5.65816 0
M  V30 62 H 7.3564 1.91913 2.35379 0
M  V30 63 H 4.9414 0.994099 1.11526 0
M  V30 64 H 6.8234 0.30744 4.20277 0
M  V30 65 H 5.4984 -0.36815 3.216 0
M  V30 66 H 4.4054 1.94906 3.19316 0
M  V30 67 H 5.7384 2.54753 4.21143 0
M  V30 68 N 7.3905 -1.2043 1.01659 0
M  V30 69 C 8.8065 -1.41852 0.731442 0
M  V30 70 C 9.0065 -1.89358 -0.688898 0
M  V30 71 O 8.0625 -2.06247 -1.45666 0
M  V30 72 C 9.3755 -2.44019 1.75714 0
M  V30 73 C 10.9235 -2.57785 1.77527 0
M  V30 74 C 11.3985 -3.63194 2.79023 0
M  V30 75 N 12.8895 -3.70678 2.77763 0
M  V30 76 C 13.6245 -4.51897 3.52954 0
M  V30 77 N 13.1205 -5.36921 4.37821 0
M  V30 78 N 14.9135 -4.4643 3.41551 0
M  V30 79 H 7.0645 -0.879093 1.93354 0
M  V30 80 H 9.3275 -0.448425 0.835236 0
M  V30 81 H 9.0335 -2.1611 2.77469 0
M  V30 82 H 8.9075 -3.43007 1.56927 0
M  V30 83 H 11.2945 -2.85023 0.764569 0
M  V30 84 H 11.3755 -1.58992 2.00387 0
M  V30 85 H 11.0195 -3.36699 3.80258 0
M  V30 86 H 10.9495 -4.61609 2.53425 0
M  V30 87 H 13.4405 -3.09944 2.16201 0
M  V30 88 H 13.7535 -5.95981 4.91962 0
M  V30 89 H 12.0985 -5.36424 4.41899 0
M  V30 90 H 15.2895 -3.79042 2.74672 0
M  V30 91 H 15.4625 -5.09491 4.00404 0
M  V30 92 N 8.8686 -0.792821 -1.36206 0
M  V30 93 C 10.2846 -0.474903 -1.52371 0
M  V30 94 C 10.4846 1.00622 -1.74578 0
M  V30 95 O 9.5406 1.79162 -1.77924 0
M  V30 96 C 10.8536 -1.3083 -2.70747 0
M  V30 97 C 12.4016 -1.30234 -2.84619 0
M  V30 98 C 12.8766 -2.11956 -4.06004 0
M  V30 99 N 14.3676 -2.09419 -4.13156 0
M  V30 100 C 15.1026 -2.69419 -5.06163 0
M  V30 101 N 14.5986 -3.3829 -6.04592 0
M  V30 102 N 16.3916 -2.59134 -4.98804 0
M  V30 103 H 8.5426 -1.75222 -1.20046 0
M  V30 104 H 10.8056 -0.745024 -0.586211 0
M  V30 105 H 10.5116 -2.35881 -2.6087 0
M  V30 106 H 10.3856 -0.95196 -3.6499 0
M  V30 107 H 12.7726 -0.259748 -2.93955 0
M  V30 108 H 12.8536 -1.69847 -1.91274 0
M  V30 109 H 12.4976 -3.16248 -3.97429 0
M  V30 110 H 12.4276 -1.69711 -4.98503 0
M  V30 111 H 14.9186 -1.59297 -3.42685 0
M  V30 112 H 15.2316 -3.81394 -6.7213 0
M  V30 113 H 13.5766 -3.42393 -6.04807 0
M  V30 114 H 16.7676 -2.04927 -4.20859 0
M  V30 115 H 16.9406 -3.06185 -5.711 0
M  V30 116 N 10.3467 1.47872 -0.545128 0
M  V30 117 C 11.3097 2.28337 0.198717 0
M  V30 118 C 12.3097 1.36255 0.853888 0
M  V30 119 O 13.4997 1.59003 0.711606 0
M  V30 120 C 10.6317 3.15585 1.28915 0
M  V30 121 H 11.8247 2.95567 -0.507941 0
M  V30 122 H 9.3777 1.53362 -0.301616 0
M  V30 123 H 10.1127 2.53019 2.02859 0
M  V30 124 H 9.8977 3.83337 0.824309 0
M  V30 125 H 11.3877 3.76243 1.81194 0
M  V30 126 N 11.8248 0.280983 1.55075 0
M  V30 127 C 12.7548 -0.597469 2.25727 0
M  V30 128 C 13.7358 -1.15417 1.24952 0
M  V30 129 O 14.9208 -1.18722 1.53684 0
M  V30 130 C 12.0508 -1.7789 2.98283 0
M  V30 131 C 11.0048 -1.35347 4.06036 0
M  V30 132 C 10.3308 -2.61846 4.66198 0
M  V30 133 C 11.6308 -0.499354 5.19907 0
M  V30 134 H 13.3248 -0.00824265 2.99399 0
M  V30 135 H 10.8708 -0.0025244 1.44 0
M  V30 136 H 12.8238 -2.39937 3.46422 0
M  V30 137 H 11.5478 -2.39405 2.22155 0
M  V30 138 H 10.2068 -0.756156 3.58717 0
M  V30 139 H 9.8548 -3.21632 3.86732 0
M  V30 140 H 9.5548 -2.3409 5.38958 0
M  V30 141 H 11.0788 -3.24732 5.1709 0
M  V30 142 H 12.4928 -1.02498 5.64063 0
M  V30 143 H 10.8898 -0.316424 5.99265 0
M  V30 144 H 11.9598 0.480459 4.82514 0
M  V30 145 N 13.3029 -1.57598 0.00835791 0
M  V30 146 C 14.5509 -1.90551 -0.6734 0
M  V30 147 C 14.8719 -0.883301 -1.73847 0
M  V30 148 O 14.1419 0.0781442 -1.95744 0
M  V30 149 H 12.7219 -0.703312 -0.251717 0
M  V30 150 H 15.3839 -1.94833 0.0512592 0
M  V30 151 H 14.4799 -2.9056 -1.13935 0
M  V30 152 N 14.781 0.264519 -1.55364 0
M  V30 153 C 16.03 0.992812 -1.75574 0
M  V30 154 C 16.343 1.87142 -0.568979 0
M  V30 155 O 17.549 2.63513 -0.653682 0
M  V30 156 C 16.005 1.81519 -3.10771 0
M  V30 157 C 15.613 0.984839 -4.37041 0
M  V30 158 C 17.357 2.53727 -3.40327 0
M  V30 159 C 15.264 1.80209 -5.63275 0
M  V30 160 H 14.194 0.374412 -0.65447 0
M  V30 161 H 16.845 0.248138 -1.81815 0
M  V30 162 H 15.227 2.60115 -2.98591 0
M  V30 163 H 16.401 0.242455 -4.60162 0
M  V30 164 H 14.716 0.37691 -4.14691 0
M  V30 165 H 17.313 3.15292 -4.3185 0
M  V30 166 H 17.656 3.24447 -2.60845 0
M  V30 167 H 18.189 1.82156 -3.53644 0
M  V30 168 H 14.928 1.13896 -6.45529 0
M  V30 169 H 14.448 2.52022 -5.44284 0
M  V30 170 H 16.127 2.37364 -6.01887 0
M  V30 171 N 16.2591 1.48442 0.529413 0
M  V30 172 C 17.5071 1.56179 1.28267 0
M  V30 173 C 17.8281 0.237721 1.93546 0
M  V30 174 O 17.0981 -0.740779 1.81354 0
M  V30 175 H 15.6781 0.575367 0.476405 0
M  V30 176 H 18.3401 1.84909 0.61602 0
M  V30 177 H 17.4361 2.34312 2.06165 0
M  V30 178 N 17.7372 -0.778329 1.37039 0
M  V30 179 C 18.9842 -1.53665 1.31884 0
M  V30 180 C 19.3122 -1.9425 -0.0986303 0
M  V30 181 O 18.5672 -1.63832 -1.07041 0
M  V30 182 C 18.8662 -2.81845 2.19768 0
M  V30 183 C 18.5322 -2.60345 3.68146 0
M  V30 184 C 17.1942 -2.5419 4.08584 0
M  V30 185 C 19.5462 -2.40923 4.62175 0
M  V30 186 C 16.8742 -2.26594 5.41177 0
M  V30 187 C 19.2262 -2.14852 5.94997 0
M  V30 188 C 17.8902 -2.07137 6.34547 0
M  V30 189 H 17.1602 -0.562299 0.482598 0
M  V30 190 H 19.8072 -0.897069 1.69189 0
M  V30 191 H 18.1122 -3.50328 1.75436 0
M  V30 192 H 19.8092 -3.39692 2.13097 0
M  V30 193 H 16.3992 -2.65996 3.36072 0
M  V30 194 H 20.5832 -2.44673 4.31797 0
M  V30 195 H 15.8392 -2.19111 5.70789 0
M  V30 196 H 20.0132 -1.98822 6.67415 0
M  V30 197 H 17.6402 -1.85518 7.37216 0
M  V30 198 N 19.2153 -1.21501 -1.00376 0
M  V30 199 C 20.1473 -0.933174 -2.09343 0
M  V30 200 C 21.1603 0.0840896 -1.62583 0
M  V30 201 O 22.3493 -0.148563 -1.77881 0
M  V30 202 C 19.4493 -0.379869 -3.36764 0
M  V30 203 C 18.6223 -1.45176 -4.12605 0
M  V30 204 C 17.6813 -0.907476 -5.18316 0
M  V30 205 O 16.7073 -1.5912 -5.46507 0
M  V30 206 N 17.9093 0.276649 -5.7984 0
M  V30 207 H 20.6743 -1.87124 -2.34104 0
M  V30 208 H 18.2353 -1.12043 -1.16867 0
M  V30 209 H 20.2273 -0.00131488 -4.047 0
M  V30 210 H 18.7973 0.463048 -3.09151 0
M  V30 211 H 18.0173 -2.00411 -3.39454 0
M  V30 212 H 19.3053 -2.17328 -4.6005 0
M  V30 213 H 18.7033 0.849147 -5.59291 0
M  V30 214 H 17.2603 0.596702 -6.49063 0
M  V30 215 N 20.6934 1.19889 -1.02296 0
M  V30 216 C 21.9394 1.89973 -0.726759 0
M  V30 217 C 22.2944 1.7776 0.73614 0
M  V30 218 O 21.5874 1.15523 1.52856 0
M  V30 219 C 21.7814 3.39883 -1.10518 0
M  V30 220 C 21.6104 3.66684 -2.60332 0
M  V30 221 C 20.3804 3.85045 -3.27213 0
M  V30 222 C 22.5784 3.68727 -3.58532 0
M  V30 223 N 20.5604 3.99422 -4.66192 0
M  V30 224 C 21.9314 3.88604 -4.83101 0
M  V30 225 C 23.9864 3.51722 -3.52414 0
M  V30 226 C 22.6894 3.9324 -6.02292 0
M  V30 227 C 24.7154 3.57632 -4.71013 0
M  V30 228 C 24.0774 3.77988 -5.94394 0
M  V30 229 H 20.1764 0.714551 -0.317712 0
M  V30 230 H 22.7604 1.44123 -1.30907 0
M  V30 231 H 20.9314 3.8447 -0.551142 0
M  V30 232 H 22.6634 3.97464 -0.761853 0
M  V30 233 H 19.4184 3.83689 -2.77632 0
M  V30 234 H 19.8424 4.10473 -5.38368 0
M  V30 235 H 24.4844 3.34945 -2.58015 0
M  V30 236 H 22.2024 4.08811 -6.97065 0
M  V30 237 H 25.7884 3.45773 -4.67902 0
M  V30 238 H 24.6684 3.82428 -6.8463 0
M  V30 239 N 22.1715 0.800033 1.35784 0
M  V30 240 C 23.1015 0.220184 2.3246 0
M  V30 241 C 24.0825 -0.65073 1.57161 0
M  V30 242 O 25.2675 -0.582359 1.85263 0
M  V30 243 C 22.3975 -0.637353 3.41402 0
M  V30 244 C 21.3515 0.134531 4.27789 0
M  V30 245 C 20.6775 -0.844285 5.27992 0
M  V30 246 C 21.9775 1.32979 5.05088 0
M  V30 247 H 23.6715 1.02787 2.81203 0
M  V30 248 H 21.2175 0.495717 1.35199 0
M  V30 249 H 23.1705 -1.05302 4.08031 0
M  V30 250 H 21.8945 -1.47785 2.91251 0
M  V30 251 H 20.5535 0.531296 3.6273 0
M  V30 252 H 20.2015 -1.68011 4.74111 0
M  V30 253 H 19.9015 -0.332184 5.8666 0
M  V30 254 H 21.4255 -1.2583 5.97494 0
M  V30 255 H 22.8395 0.98934 5.64699 0
M  V30 256 H 21.2365 1.77593 5.7322 0
M  V30 257 H 22.3065 2.11978 4.36111 0
M  V30 258 N 23.6496 -1.47581 0.552962 0
M  V30 259 C 24.8746 -2.07378 0.0300593 0
M  V30 260 C 25.2996 -1.40355 -1.25229 0
M  V30 261 O 24.6576 -0.477099 -1.7491 0
M  V30 262 C 24.7056 -3.60274 -0.153231 0
M  V30 263 O 23.8096 -3.94041 -1.21678 0
M  V30 264 H 23.1506 -0.662158 0.0494182 0
M  V30 265 H 25.6806 -1.89662 0.767434 0
M  V30 266 H 25.6906 -4.0633 -0.368761 0
M  V30 267 H 24.3656 -4.08455 0.783397 0
M  V30 268 H 22.9426 -3.59735 -0.982079 0
M  V30 269 N 25.1277 -0.289203 -1.54924 0
M  V30 270 C 26.0577 0.58549 -2.2604 0
M  V30 271 C 27.0387 1.14753 -1.25562 0
M  V30 272 O 28.2237 1.17906 -1.54311 0
M  V30 273 C 25.3537 1.76305 -2.99222 0
M  V30 274 C 24.3077 1.33191 -4.06748 0
M  V30 275 C 23.6337 2.5937 -4.6758 0
M  V30 276 C 24.9337 0.471775 -5.20165 0
M  V30 277 H 26.6277 -0.00763532 -2.99399 0
M  V30 278 H 24.1737 -0.00511229 -1.43999 0
M  V30 279 H 26.1267 2.38097 -3.47689 0
M  V30 280 H 24.8507 2.38223 -2.23422 0
M  V30 281 H 23.5097 0.737121 -3.59113 0
M  V30 282 H 23.1577 3.19576 -3.88433 0
M  V30 283 H 22.8577 2.31228 -5.40192 0
M  V30 284 H 24.3817 3.21985 -5.18804 0
M  V30 285 H 25.7957 0.995056 -5.64599 0
M  V30 286 H 24.1927 0.284639 -5.99425 0
M  V30 287 H 25.2627 -0.506041 -4.82252 0
M  V30 288 N 26.6058 1.57591 -0.0167156 0
M  V30 289 C 27.5688 2.08393 0.954204 0
M  V30 290 C 28.5688 0.996531 1.26198 0
M  V30 291 O 29.7588 1.25858 1.20438 0
M  V30 292 C 26.8908 2.5394 2.27436 0
M  V30 293 H 28.0838 2.95455 0.514451 0
M  V30 294 H 25.6368 1.54582 0.231089 0
M  V30 295 H 26.3718 1.70171 2.76066 0
M  V30 296 H 26.1568 3.33371 2.06412 0
M  V30 297 H 27.6468 2.93512 2.97053 0
M  V30 298 N 28.0839 -0.256276 1.55502 0
M  V30 299 C 29.3119 -1.00342 1.8094 0
M  V30 300 C 29.7269 -1.79307 0.59114 0
M  V30 301 O 29.0839 -1.77114 -0.440081 0
M  V30 302 C 29.1349 -1.94875 3.04476 0
M  V30 303 O 28.8559 -1.19107 4.21598 0
M  V30 304 C 30.3569 -2.81266 3.42644 0
M  V30 305 H 27.5769 -0.295685 0.602338 0
M  V30 306 H 30.1209 -0.281998 2.02546 0
M  V30 307 H 28.2759 -2.62457 2.84947 0
M  V30 308 H 28.6899 -1.82969 4.91551 0
M  V30 309 H 30.1639 -3.43362 4.32211 0
M  V30 310 H 30.6409 -3.51897 2.62802 0
M  V30 311 H 31.2469 -2.1915 3.64491 0
M  V30 312 N 29.562 -1.4872 -0.521534 0
M  V30 313 C 30.492 -1.66771 -1.63431 0
M  V30 314 C 31.473 -0.516499 -1.62069 0
M  V30 315 O 32.658 -0.750013 -1.79132 0
M  V30 316 C 29.788 -1.71515 -3.01993 0
M  V30 317 C 28.742 -2.86222 -3.18216 0
M  V30 318 C 28.068 -2.76061 -4.57924 0
M  V30 319 C 29.368 -4.27419 -3.00184 0
M  V30 320 H 31.062 -2.59932 -1.48579 0
M  V30 321 H 28.608 -1.25089 -0.713358 0
M  V30 322 H 30.561 -1.82731 -3.7972 0
M  V30 323 H 29.285 -0.749393 -3.17886 0
M  V30 324 H 27.944 -2.74575 -2.42908 0
M  V30 325 H 27.592 -1.77437 -4.70665 0
M  V30 326 H 27.292 -3.53037 -4.69722 0
M  V30 327 H 28.816 -2.89256 -5.37739 0
M  V30 328 H 30.23 -4.39855 -3.67697 0
M  V30 329 H 28.627 -5.05458 -3.2347 0
M  V30 330 H 29.697 -4.43293 -1.96518 0
M  V30 331 N 31.0401 0.771051 -1.3745 0
M  V30 332 C 32.2861 1.5319 -1.32894 0
M  V30 333 C 32.6191 1.94008 0.0862511 0
M  V30 334 O 31.8941 1.64124 1.04373 0
M  V30 335 C 32.1771 2.79648 -2.26868 0
M  V30 336 C 32.0301 2.45079 -3.77169 0
M  V30 337 C 33.3491 3.81583 -2.19277 0
M  V30 338 H 30.4681 0.555744 -0.484064 0
M  V30 339 H 33.1101 0.884492 -1.68157 0
M  V30 340 H 31.2601 3.34891 -1.96926 0
M  V30 341 H 32.9321 1.95745 -4.1771 0
M  V30 342 H 31.1751 1.77767 -3.95704 0
M  V30 343 H 31.8461 3.35478 -4.38359 0
M  V30 344 H 34.3221 3.35835 -2.45671 0
M  V30 345 H 33.1981 4.67787 -2.87171 0
M  V30 346 H 33.4591 4.25897 -1.18592 0
M  V30 347 N 32.5182 1.22032 0.997298 0
M  V30 348 C 33.4482 1.01065 2.10495 0
M  V30 349 C 34.4292 -0.0669542 1.69968 0
M  V30 350 O 35.6142 0.0943987 1.9397 0
M  V30 351 C 32.7442 0.582874 3.42374 0
M  V30 352 C 31.6982 1.60592 3.96729 0
M  V30 353 C 31.0242 1.03412 5.24605 0
M  V30 354 C 32.3242 2.99478 4.27914 0
M  V30 355 H 34.0182 1.93708 2.28292 0
M  V30 356 H 31.5642 0.932761 1.09707 0
M  V30 357 H 33.5172 0.423332 4.19268 0
M  V30 358 H 32.2412 -0.379213 3.24391 0
M  V30 359 H 30.9002 1.75316 3.21963 0
M  V30 360 H 30.5482 0.063518 5.0296 0
M  V30 361 H 30.2482 1.71754 5.61938 0
M  V30 362 H 31.7722 0.886066 6.04137 0
M  V30 363 H 33.1862 2.88153 4.95622 0
M  V30 364 H 31.5832 3.64903 4.76409 0
M  V30 365 H 32.6532 3.49742 3.3587 0
M  V30 366 N 33.9963 -1.19345 1.0293 0
M  V30 367 C 35.2453 -1.88363 0.721256 0
M  V30 368 C 35.5583 -1.80514 -0.753254 0
M  V30 369 O 36.7643 -2.44788 -1.17436 0
M  V30 370 C 35.2203 -3.37872 1.23978 0
M  V30 371 C 34.8283 -3.54278 2.74211 0
M  V30 372 C 36.5723 -4.12365 1.00775 0
M  V30 373 C 34.4793 -4.97682 3.19479 0
M  V30 374 H 33.4093 -0.705484 0.266098 0
M  V30 375 H 36.0603 -1.34928 1.24365 0
M  V30 376 H 34.4423 -3.90707 0.6453 0
M  V30 377 H 35.6163 -3.11769 3.39318 0
M  V30 378 H 33.9313 -2.93174 2.95699 0
M  V30 379 H 36.5283 -5.18119 1.32123 0
M  V30 380 H 36.8713 -4.16263 -0.0554308 0
M  V30 381 H 37.4043 -3.65668 1.56625 0
M  V30 382 H 34.1433 -4.98945 4.25128 0
M  V30 383 H 33.6633 -5.4095 2.591 0
M  V30 384 H 35.3423 -5.66337 3.12845 0
M  V30 385 N 35.4744 -0.807222 -1.35358 0
M  V30 386 C 36.7144 -0.393534 -2.00576 0
M  V30 387 C 37.0784 1.0203 -1.62647 0
M  V30 388 O 38.2794 1.53603 -2.20589 0
M  V30 389 C 36.5504 -0.572017 -3.52793 0
M  V30 390 S 38.1094 -0.248845 -4.38094 0
M  V30 391 H 34.9274 -0.149425 -0.695121 0
M  V30 392 H 37.5294 -1.04961 -1.64935 0
M  V30 393 H 36.2334 -1.60097 -3.77885 0
M  V30 394 H 35.7644 0.099359 -3.93275 0
M  V30 395 H 37.7794 0.943253 -4.87152 0
M  V30 396 N 36.9525 1.47285 -0.560781 0
M  V30 397 C 37.9155 2.28535 0.174488 0
M  V30 398 C 38.9155 1.37153 0.839388 0
M  V30 399 O 40.1055 1.59748 0.694702 0
M  V30 400 C 37.2375 3.16934 1.25561 0
M  V30 401 H 38.4305 2.95012 -0.539262 0
M  V30 402 H 35.9835 1.53034 -0.317865 0
M  V30 403 H 36.7185 2.55157 2.00164 0
M  V30 404 H 36.5035 3.8419 0.783604 0
M  V30 405 H 37.9935 3.78143 1.77193 0
M  V30 406 N 38.4306 0.297415 1.54768 0
M  V30 407 C 39.6786 -0.312295 1.99673 0
M  V30 408 C 39.9996 -1.54686 1.18732 0
M  V30 409 O 39.2696 -1.93854 0.282382 0
M  V30 410 H 37.8496 -0.118381 0.73756 0
M  V30 411 H 40.5116 0.407915 1.90583 0
M  V30 412 H 39.6076 -0.586813 3.06534 0
M  V30 413 N 39.9087 -1.5758 0.0250728 0
M  V30 414 C 40.8407 -2.06869 -0.986796 0
M  V30 415 C 41.8537 -0.991332 -1.29137 0
M  V30 416 O 43.0427 -1.26761 -1.25674 0
M  V30 417 C 40.1427 -2.47486 -2.31525 0
M  V30 418 C 39.3157 -3.78253 -2.19643 0
M  V30 419 C 38.3747 -4.05464 -3.35388 0
M  V30 420 O 37.4007 -4.75774 -3.12454 0
M  V30 421 N 38.6027 -3.55321 -4.59051 0
M  V30 422 H 41.3677 -2.94302 -0.566276 0
M  V30 423 H 38.9287 -1.6109 -0.161776 0
M  V30 424 H 40.9207 -2.62785 -3.07776 0
M  V30 425 H 39.4907 -1.65441 -2.65232 0
M  V30 426 H 38.7107 -3.7279 -1.28144 0
M  V30 427 H 39.9987 -4.63936 -2.08903 0
M  V30 428 H 39.3967 -2.98431 -4.80578 0
M  V30 429 H 37.9537 -3.75905 -5.32483 0
M  V30 430 N 41.3868 0.248026 -1.55636 0
M  V30 431 C 42.6348 0.974295 -1.77065 0
M  V30 432 C 42.9558 1.85897 -0.588849 0
M  V30 433 O 42.2258 1.91868 0.395407 0
M  V30 434 H 40.8058 0.362733 -0.653019 0
M  V30 435 H 43.4678 0.266244 -1.93073 0
M  V30 436 H 42.5638 1.59667 -2.68166 0
M  V30 437 N 42.8649 1.48995 0.513639 0
M  V30 438 C 44.1129 1.57531 1.26604 0
M  V30 439 C 44.4339 0.258236 1.93283 0
M  V30 440 O 43.7039 -0.721502 1.8213 0
M  V30 441 H 42.2839 0.580387 0.470276 0
M  V30 442 H 44.9459 1.85552 0.596373 0
M  V30 443 H 44.0419 2.36486 2.03669 0
M  V30 444 N 44.343 -0.763751 1.37857 0
M  V30 445 C 45.759 -1.06542 1.18832 0
M  V30 446 C 45.959 -2.01478 0.0299722 0
M  V30 447 O 45.015 -2.4458 -0.627447 0
M  V30 448 C 46.328 -1.65525 2.51042 0
M  V30 449 C 47.876 -1.77745 2.57635 0
M  V30 450 C 48.351 -2.4014 3.89996 0
M  V30 451 N 49.842 -2.47582 3.91481 0
M  V30 452 C 50.577 -2.96732 4.9065 0
M  V30 453 N 50.073 -3.45993 6.00217 0
M  V30 454 N 51.866 -2.95679 4.78048 0
M  V30 455 H 44.017 -0.133556 2.1198 0
M  V30 456 H 46.28 -0.121879 0.940133 0
M  V30 457 H 45.986 -1.03236 3.36207 0
M  V30 458 H 45.86 -2.64719 2.68707 0
M  V30 459 H 48.247 -2.39164 1.72872 0
M  V30 460 H 48.328 -0.772836 2.43846 0
M  V30 461 H 47.972 -1.79358 4.75177 0
M  V30 462 H 47.902 -3.41223 4.01092 0
M  V30 463 H 50.393 -2.1273 3.12337 0
M  V30 464 H 50.706 -3.81922 6.7183 0
M  V30 465 H 49.051 -3.44077 6.03851 0
M  V30 466 H 52.242 -2.56499 3.91568 0
M  V30 467 H 52.415 -3.33672 5.55488 0
M  V30 468 N 45.8211 -1.22559 -0.990812 0
M  V30 469 C 47.2371 -0.985996 -1.255 0
M  V30 470 C 47.4371 0.319173 -1.98956 0
M  V30 471 O 46.4931 1.04127 -2.3003 0
M  V30 472 C 47.8061 -2.18607 -2.06474 0
M  V30 473 C 49.3541 -2.22985 -2.19651 0
M  V30 474 C 49.8291 -3.4255 -3.04012 0
M  V30 475 N 51.3201 -3.42725 -3.11599 0
M  V30 476 C 52.0551 -4.31892 -3.7717 0
M  V30 477 N 51.5511 -5.31279 -4.44651 0
M  V30 478 N 53.3441 -4.19662 -3.73952 0
M  V30 479 H 45.4951 -2.06469 -0.49841 0
M  V30 480 H 47.7581 -0.904853 -0.282747 0
M  V30 481 H 47.4641 -3.13267 -1.59865 0
M  V30 482 H 47.3381 -2.18838 -3.07229 0
M  V30 483 H 49.7251 -1.28871 -2.65474 0
M  V30 484 H 49.8061 -2.26791 -1.18319 0
M  V30 485 H 49.4501 -4.36965 -2.58889 0
M  V30 486 H 49.3801 -3.35984 -4.0549 0
M  V30 487 H 51.8711 -2.70807 -2.63575 0
M  V30 488 H 52.1841 -5.95593 -4.92431 0
M  V30 489 H 50.5291 -5.3519 -4.43392 0
M  V30 490 H 53.7201 -3.41268 -3.20396 0
M  V30 491 H 53.8931 -4.89358 -4.24774 0
M  V30 492 N 47.2992 1.18797 -1.03562 0
M  V30 493 C 48.2092 2.25913 -0.632505 0
M  V30 494 C 49.2252 1.70668 0.338882 0
M  V30 495 O 50.4012 2.00453 0.195076 0
M  V30 496 C 47.4662 3.467 0.00350942 0
M  V30 497 C 46.5272 4.17098 -1.01624 0
M  V30 498 C 45.7602 5.32119 -0.410478 0
M  V30 499 O 45.9832 5.64976 0.784725 0
M  V30 500 O 44.9172 5.9107 -1.13667 0
M  V30 501 H 48.7432 2.62648 -1.52478 0
M  V30 502 H 46.3282 1.25781 -0.806195 0
M  V30 503 H 48.2102 4.19878 0.35781 0
M  V30 504 H 46.8852 3.11798 0.869686 0
M  V30 505 H 45.7922 3.4601 -1.42224 0
M  V30 506 H 47.1252 4.55987 -1.85301 0
M  V30 507 N 48.7773 0.814389 1.34928 0
M  V30 508 C 50.0543 0.321363 1.92942 0
M  V30 509 C 50.4343 -1.19014 1.74353 0
M  V30 510 O 49.7823 -1.99328 1.11716 0
M  V30 511 C 49.9923 0.741323 3.41036 0
M  V30 512 C 51.3403 0.735266 4.18185 0
M  V30 513 O 52.3643 0.68336 3.49584 0
M  V30 514 O 51.2233 0.800703 5.40602 0
M  V30 515 H 48.3173 0.0858893 0.822528 0
M  V30 516 H 50.8633 0.898609 1.43955 0
M  V30 517 H 49.6353 1.78276 3.4833 0
M  V30 518 H 49.2583 0.139307 3.97356 0
M  V30 519 N 50.2554 -1.46986 0.568584 0
M  V30 520 C 51.5034 -2.02041 0.0487022 0
M  V30 521 C 51.8244 -1.44408 -1.31039 0
M  V30 522 O 51.0944 -0.623477 -1.85714 0
M  V30 523 H 49.6744 -0.746849 0.015014 0
M  V30 524 H 52.3364 -1.80257 0.741168 0
M  V30 525 H 51.4324 -3.12085 -0.0308961 0
M  V30 526 N 51.7335 -0.305618 -1.54608 0
M  V30 527 C 52.9815 0.301701 -1.99835 0
M  V30 528 C 53.3025 1.54054 -1.19551 0
M  V30 529 O 52.5725 1.93702 -0.292658 0
M  V30 530 H 51.1525 0.114468 -0.738178 0
M  V30 531 H 53.8145 -0.418016 -1.90364 0
M  V30 532 H 52.9105 0.570548 -3.06841 0
M  V30 533 N 53.2116 1.57565 -0.0334293 0
M  V30 534 C 54.6226 1.79746 0.504798 0
M  V30 535 C 54.9736 0.944091 1.71992 0
M  V30 536 O 54.0986 0.155694 2.15839 0
M  V30 537 C 54.6936 3.25997 0.922567 0
M  V30 538 C 53.2526 3.49159 1.40588 0
M  V30 539 C 52.3996 2.74785 0.372633 0
M  V30 540 H 55.3506 1.56565 -0.259436 0
M  V30 541 H 55.3716 3.35945 1.78666 0
M  V30 542 H 54.8836 3.88081 0.0379825 0
M  V30 543 H 52.9846 2.92332 2.31025 0
M  V30 544 H 53.0976 4.57873 1.41028 0
M  V30 545 H 51.4616 2.40391 0.841672 0
M  V30 546 H 52.2446 3.39587 -0.503559 0
M  V30 547 N 54.6897 -0.239769 1.55765 0
M  V30 548 C 55.6527 -1.28038 1.90103 0
M  V30 549 C 56.6527 -1.40723 0.778055 0
M  V30 550 O 57.8427 -1.39301 1.04599 0
M  V30 551 C 54.9747 -2.65702 2.13577 0
M  V30 552 H 56.1677 -0.988048 2.83157 0
M  V30 553 H 53.7207 -0.479382 1.48767 0
M  V30 554 H 54.4557 -3.00063 1.23015 0
M  V30 555 H 54.2407 -2.57875 2.95369 0
M  V30 556 H 55.7307 -3.40828 2.41301 0
M  V30 557 N 56.1678 -1.49265 -0.50573 0
M  V30 558 C 57.4078 -1.60128 -1.27038 0
M  V30 559 C 57.7718 -0.279557 -1.89954 0
M  V30 560 O 58.9728 -0.263329 -2.67507 0
M  V30 561 C 57.2438 -2.72507 -2.31246 0
M  V30 562 S 58.8028 -3.0329 -3.17113 0
M  V30 563 H 55.6208 -0.564863 -0.4318 0
M  V30 564 H 58.2228 -1.86902 -0.573397 0
M  V30 565 H 56.9268 -3.67068 -1.83546 0
M  V30 566 H 56.4578 -2.4771 -3.05619 0
M  V30 567 H 58.4728 -2.44448 -4.31809 0
M  V30 568 N 57.6459 0.756429 -1.3826 0
M  V30 569 C 58.8759 1.54341 -1.3734 0
M  V30 570 C 59.2839 1.89159 0.0393917 0
M  V30 571 O 58.6269 1.5307 1.01565 0
M  V30 572 C 58.6889 2.87238 -2.16182 0
M  V30 573 C 58.3529 2.74973 -3.65019 0
M  V30 574 C 59.3499 2.44962 -4.58574 0
M  V30 575 C 57.0349 2.92515 -4.08338 0
M  V30 576 C 59.0289 2.32642 -5.93428 0
M  V30 577 C 56.7159 2.79815 -5.43274 0
M  V30 578 C 57.7139 2.49921 -6.35632 0
M  V30 579 O 57.4019 2.37275 -7.68086 0
M  V30 580 H 57.1339 0.484281 -0.471643 0
M  V30 581 H 59.6879 0.944152 -1.82414 0
M  V30 582 H 57.9179 3.49342 -1.65822 0
M  V30 583 H 59.6069 3.48731 -2.07705 0
M  V30 584 H 60.3729 2.31081 -4.26412 0
M  V30 585 H 56.2519 3.14781 -3.368 0
M  V30 586 H 59.7959 2.0923 -6.65484 0
M  V30 587 H 55.6929 2.93269 -5.75034 0
M  V30 588 H 56.4609 2.52509 -7.78577 0
M  V30 589 N 59.124 1.23083 0.984299 0
M  V30 590 C 60.372 1.05848 1.72165 0
M  V30 591 C 60.693 -0.406049 1.90726 0
M  V30 592 O 59.963 -1.29139 1.47309 0
M  V30 593 H 58.543 0.388685 0.637913 0
M  V30 594 H 61.205 1.54736 1.18503 0
M  V30 595 H 60.301 1.54327 2.71274 0
M  V30 596 N 60.6021 -1.18246 1.0419 0
M  V30 597 C 61.8501 -1.87886 0.744543 0
M  V30 598 C 62.1711 -1.8082 -0.730006 0
M  V30 599 O 61.4411 -1.22736 -1.52685 0
M  V30 600 H 60.0211 -0.695556 0.272417 0
M  V30 601 H 62.6831 -1.43494 1.31892 0
M  V30 602 H 61.7791 -2.9389 1.05049 0
M  V30 603 N 62.0802 -0.821533 -1.34494 0
M  V30 604 C 63.3272 -0.408946 -1.98328 0
M  V30 605 C 63.6552 1.02764 -1.65136 0
M  V30 606 O 62.9102 1.73026 -0.914349 0
M  V30 607 C 63.2092 -0.556512 -3.53041 0
M  V30 608 C 62.8752 -1.95861 -4.0614 0
M  V30 609 C 61.5372 -2.34217 -4.20352 0
M  V30 610 C 63.8892 -2.87523 -4.34718 0
M  V30 611 C 61.2172 -3.63572 -4.6047 0
M  V30 612 C 63.5692 -4.1634 -4.76281 0
M  V30 613 C 62.2332 -4.54675 -4.88699 0
M  V30 614 H 61.5032 -0.149644 -0.725732 0
M  V30 615 H 64.1502 -1.04521 -1.6046 0
M  V30 616 H 62.4552 0.163148 -3.9146 0
M  V30 617 H 64.1522 -0.217826 -4.00408 0
M  V30 618 H 60.7422 -1.65066 -3.95539 0
M  V30 619 H 64.9262 -2.59133 -4.23277 0
M  V30 620 H 60.1822 -3.93101 -4.68275 0
M  V30 621 H 64.3562 -4.87455 -4.97354 0
M  V30 622 H 61.9832 -5.54959 -5.19542 0
M  V30 623 N 63.5583 1.46682 -0.576371 0
M  V30 624 C 64.8353 1.95599 0.00703437 0
M  V30 625 C 65.2153 1.51904 1.46589 0
M  V30 626 O 64.5633 0.766755 2.15251 0
M  V30 627 C 64.7733 3.4864 -0.158404 0
M  V30 628 C 66.1213 4.24594 -0.0229439 0
M  V30 629 O 67.1453 3.56094 -0.0869173 0
M  V30 630 O 66.0043 5.46373 0.118015 0
M  V30 631 H 63.0983 0.825275 0.053384 0
M  V30 632 H 65.6443 1.56996 -0.644244 0
M  V30 633 H 64.4163 3.7331 -1.17282 0
M  V30 634 H 64.0393 3.94057 0.5296 0
M  V30 635 N 65.0364 0.313813 1.54444 0
M  V30 636 C 65.9664 -0.549454 2.26943 0
M  V30 637 C 66.9474 -1.12741 1.27372 0
M  V30 638 O 68.1324 -1.15436 1.56167 0
M  V30 639 C 65.2624 -1.71523 3.01989 0
M  V30 640 C 64.2164 -1.26703 4.08816 0
M  V30 641 C 63.5424 -2.51898 4.71647 0
M  V30 642 C 64.8424 -0.388962 5.2085 0
M  V30 643 H 66.5364 0.0552661 2.99349 0
M  V30 644 H 64.0824 0.0280207 1.43973 0
M  V30 645 H 66.0354 -2.32535 3.51433 0
M  V30 646 H 64.7594 -2.34639 2.27183 0
M  V30 647 H 63.4184 -0.679896 3.6024 0
M  V30 648 H 63.0664 -3.13356 3.93468 0
M  V30 649 H 62.7664 -2.22605 5.43802 0
M  V30 650 H 64.2904 -3.1369 5.23861 0
M  V30 651 H 65.7044 -0.905107 5.6611 0
M  V30 652 H 64.1014 -0.18924 5.99802 0
M  V30 653 H 65.1714 0.582699 4.81386 0
M  V30 654 N 66.5145 -1.57545 0.0417849 0
M  V30 655 C 67.7445 -1.96339 -0.642995 0
M  V30 656 C 68.1525 -0.917536 -1.65463 0
M  V30 657 O 67.4955 0.107747 -1.83384 0
M  V30 658 C 67.5575 -3.31333 -1.39494 0
M  V30 659 C 67.2215 -4.53796 -0.540204 0
M  V30 660 C 68.2185 -5.19553 0.189806 0
M  V30 661 C 65.9035 -5.0006 -0.473886 0
M  V30 662 C 67.8975 -6.29904 0.974674 0
M  V30 663 C 65.5845 -6.10289 0.314677 0
M  V30 664 C 66.5825 -6.75072 1.03765 0
M  V30 665 O 66.2705 -7.83183 1.81327 0
M  V30 666 H 66.0025 -0.651241 -0.181277 0
M  V30 667 H 68.5565 -2.05148 0.101665 0
M  V30 668 H 66.7865 -3.19052 -2.18502 0
M  V30 669 H 68.4755 -3.54942 -1.96904 0
M  V30 670 H 69.2415 -4.84774 0.147981 0
M  V30 671 H 65.1205 -4.49433 -1.0262 0
M  V30 672 H 68.6645 -6.80401 1.5395 0
M  V30 673 H 64.5615 -6.44506 0.358174 0
M  V30 674 H 65.3295 -7.99913 1.73438 0
M  V30 675 N 67.9926 0.231505 -1.5589 0
M  V30 676 C 69.2396 0.957352 -1.78441 0
M  V30 677 C 69.5676 1.84726 -0.60882 0
M  V30 678 O 68.8226 1.91416 0.40725 0
M  V30 679 C 69.1216 1.83577 -3.0665 0
M  V30 680 C 68.7876 1.09993 -4.37278 0
M  V30 681 C 67.4496 0.896629 -4.72773 0
M  V30 682 C 69.8016 0.579558 -5.17968 0
M  V30 683 C 67.1296 0.160896 -5.86479 0
M  V30 684 C 69.4816 -0.142783 -6.32439 0
M  V30 685 C 68.1456 -0.357427 -6.66542 0
M  V30 686 H 67.4156 0.35032 -0.65296 0
M  V30 687 H 70.0626 0.226259 -1.90159 0
M  V30 688 H 68.3676 2.63441 -2.90011 0
M  V30 689 H 70.0646 2.39934 -3.21298 0
M  V30 690 H 66.6546 1.26835 -4.09403 0
M  V30 691 H 70.8386 0.724125 -4.90989 0
M  V30 692 H 66.0946 -0.0157293 -6.11398 0
M  V30 693 H 70.2686 -0.553559 -6.94196 0
M  V30 694 H 67.8956 -0.929466 -7.54497 0
M  V30 695 N 69.4707 1.49531 0.497807 0
M  V30 696 C 70.7197 1.58426 1.24837 0
M  V30 697 C 71.0327 0.277643 1.93619 0
M  V30 698 O 72.2387 0.24517 2.70391 0
M  V30 699 C 70.6947 2.79538 2.26686 0
M  V30 700 C 70.3027 4.16971 1.63828 0
M  V30 701 C 72.0467 2.97764 3.0255 0
M  V30 702 C 69.9537 5.29301 2.63807 0
M  V30 703 H 68.8837 0.58989 0.469623 0
M  V30 704 H 71.5347 1.75923 0.521857 0
M  V30 705 H 69.9167 2.55542 3.02514 0
M  V30 706 H 71.0907 4.51116 0.939711 0
M  V30 707 H 69.4057 4.04129 1.00342 0
M  V30 708 H 72.0027 3.78856 3.77323 0
M  V30 709 H 72.3457 2.08448 3.60354 0
M  V30 710 H 72.8787 3.21815 2.33838 0
M  V30 711 H 69.6177 6.20687 2.10779 0
M  V30 712 H 69.1377 4.99606 3.31894 0
M  V30 713 H 70.8167 5.58768 3.2617 0
M  V30 714 N 70.9488 -0.749086 1.3866 0
M  V30 715 C 71.8788 -1.8764 1.38973 0
M  V30 716 C 72.8598 -1.68178 0.255004 0
M  V30 717 O 74.0448 -1.88704 0.458754 0
M  V30 718 C 71.1748 -3.25222 1.21851 0
M  V30 719 C 70.1288 -3.59295 2.32575 0
M  V30 720 C 69.4548 -4.95663 2.00555 0
M  V30 721 C 70.7548 -3.63709 3.7485 0
M  V30 722 H 72.4488 -1.87635 2.3331 0
M  V30 723 H 69.9948 -0.901329 1.12303 0
M  V30 724 H 71.9478 -4.03746 1.20695 0
M  V30 725 H 70.6718 -3.25719 0.239775 0
M  V30 726 H 69.3308 -2.83093 2.32925 0
M  V30 727 H 68.9788 -4.92724 1.01154 0
M  V30 728 H 68.6788 -5.19429 2.74714 0
M  V30 729 H 70.2028 -5.7656 2.01024 0
M  V30 730 H 71.6168 -4.32338 3.76506 0
M  V30 731 H 70.0138 -3.98986 4.48252 0
M  V30 732 H 71.0838 -2.63834 4.06841 0
M  V30 733 N 72.4269 -1.23603 -0.977757 0
M  V30 734 C 73.7039 -0.977897 -1.69401 0
M  V30 735 C 74.0839 0.502738 -2.05026 0
M  V30 736 O 73.4319 1.47459 -1.74551 0
M  V30 737 C 73.6419 -1.89077 -2.93345 0
M  V30 738 C 74.9899 -2.15579 -3.65802 0
M  V30 739 O 76.0139 -1.86648 -3.03383 0
M  V30 740 O 74.8729 -2.64658 -4.78141 0
M  V30 741 H 71.9669 -0.369025 -0.740101 0
M  V30 742 H 74.5129 -1.34657 -1.03274 0
M  V30 743 H 73.2849 -2.89158 -2.63634 0
M  V30 744 H 72.9079 -1.52463 -3.67207 0
M  V30 745 N 73.905 1.17692 -1.04816 0
M  V30 746 C 74.852 2.21581 -0.645797 0
M  V30 747 C 75.822 1.62367 0.350159 0
M  V30 748 O 77.007 1.89254 0.242433 0
M  V30 749 C 74.147 3.45092 -0.0227568 0
M  V30 750 C 73.26 4.18613 -1.06709 0
M  V30 751 C 72.395 5.29602 -0.411767 0
M  V30 752 C 71.434 5.94904 -1.44067 0
M  V30 753 N 70.571 6.97414 -0.809781 0
M  V30 754 H 75.411 2.55353 -1.5362 0
M  V30 755 H 72.948 1.25438 -0.768364 0
M  V30 756 H 74.906 4.15679 0.35588 0
M  V30 757 H 73.536 3.11917 0.831122 0
M  V30 758 H 72.588 3.46779 -1.5636 0
M  V30 759 H 73.9 4.63293 -1.84827 0
M  V30 760 H 73.054 6.06696 0.0206623 0
M  V30 761 H 71.793 4.86045 0.401438 0
M  V30 762 H 70.798 5.16544 -1.88316 0
M  V30 763 H 72.023 6.40542 -2.25571 0
M  V30 764 H 69.969 6.55998 -0.0170186 0
M  V30 765 H 69.886 7.40386 -1.52856 0
M  V30 766 H 71.154 7.78463 -0.401999 0
M  V30 767 N 75.3831 0.828654 1.34056 0
M  V30 768 C 76.6081 0.431637 2.02859 0
M  V30 769 C 77.0331 -0.956339 1.61975 0
M  V30 770 O 76.3911 -1.62338 0.807228 0
M  V30 771 C 76.4391 0.548323 3.56407 0
M  V30 772 O 75.5431 -0.429556 4.10157 0
M  V30 773 H 74.8841 0.176886 0.640006 0
M  V30 774 H 77.4141 1.12066 1.71179 0
M  V30 775 H 77.4241 0.426196 4.05768 0
M  V30 776 H 76.0991 1.5606 3.8551 0
M  V30 777 H 74.6761 -0.265836 3.71951 0
M  V30 778 N 76.8612 -1.46375 0.584142 0
M  V30 779 C 78.1092 -2.01978 0.0701287 0
M  V30 780 C 78.4302 -1.4579 -1.295 0
M  V30 781 O 77.7002 -0.64314 -1.85042 0
M  V30 782 H 76.2802 -0.746648 0.0229345 0
M  V30 783 H 78.9422 -1.79461 0.760245 0
M  V30 784 H 78.0382 -3.121 0.0022064 0
M  V30 785 N 78.3393 -0.321999 -1.54275 0
M  V30 786 C 79.5643 0.285791 -2.05422 0
M  V30 787 C 79.9893 1.45124 -1.19669 0
M  V30 788 O 79.3473 1.80132 -0.205441 0
M  V30 789 C 79.3953 0.69956 -3.53749 0
M  V30 790 O 78.4993 1.8021 -3.70942 0
M  V30 791 H 77.8403 0.0518962 -0.661969 0
M  V30 792 H 80.3703 -0.469954 -1.9913 0
M  V30 793 H 80.3803 0.982649 -3.9599 0
M  V30 794 H 79.0553 -0.152864 -4.15619 0
M  V30 795 H 77.6323 1.51794 -3.40607 0
M  V30 796 N 79.8174 1.5752 -0.0501392 0
M  V30 797 C 81.0634 1.92936 0.624798 0
M  V30 798 C 81.3964 0.928685 1.70555 0
M  V30 799 O 80.6714 -0.0454779 1.94447 0
M  V30 800 C 80.9544 3.38737 1.22185 0
M  V30 801 C 80.8074 4.49552 0.149218 0
M  V30 802 C 82.1264 3.84913 2.13378 0
M  V30 803 H 79.2454 0.701604 0.225657 0
M  V30 804 H 81.8874 1.89671 -0.111693 0
M  V30 805 H 80.0374 3.4165 1.84953 0
M  V30 806 H 81.7094 4.58768 -0.482648 0
M  V30 807 H 79.9524 4.30638 -0.522841 0
M  V30 808 H 80.6234 5.48653 0.606966 0
M  V30 809 H 83.0994 3.8387 1.60572 0
M  V30 810 H 81.9754 4.87584 2.52097 0
M  V30 811 H 82.2364 3.21611 3.03346 0
M  V30 812 N 81.2955 -0.223234 1.56011 0
M  V30 813 C 82.2255 -1.27988 1.95298 0
M  V30 814 C 83.2065 -1.48976 0.820979 0
M  V30 815 O 84.3915 -1.61188 1.08315 0
M  V30 816 C 81.5215 -2.63 2.26822 0
M  V30 817 C 80.4755 -2.56671 3.42497 0
M  V30 818 C 79.8015 -3.95697 3.59622 0
M  V30 819 C 81.1015 -2.11601 4.77517 0
M  V30 820 H 82.7955 -0.953525 2.8381 0
M  V30 821 H 80.3415 -0.457244 1.36548 0
M  V30 822 H 82.2945 -3.37077 2.52898 0
M  V30 823 H 81.0185 -2.9732 1.35161 0
M  V30 824 H 79.6775 -1.85051 3.16467 0
M  V30 825 H 79.3255 -4.27322 2.6534 0
M  V30 826 H 79.0255 -3.92345 4.37424 0
M  V30 827 H 80.5495 -4.71438 3.88044 0
M  V30 828 H 81.9635 -2.7542 5.02809 0
M  V30 829 H 80.3605 -2.19311 5.5859 0
M  V30 830 H 81.4305 -1.06824 4.72987 0
M  V30 831 N 82.7736 -1.49793 -0.48987 0
M  V30 832 C 83.7236 -1.63673 -1.5873 0
M  V30 833 C 84.7076 -0.491956 -1.53195 0
M  V30 834 O 85.8996 -0.745461 -1.60536 0
M  V30 835 C 83.0286 -1.71689 -2.97284 0
M  V30 836 C 82.1146 -2.91781 -3.07774 0
M  V30 837 N 82.5056 -4.15714 -2.88124 0
M  V30 838 C 80.8036 -2.89949 -3.38889 0
M  V30 839 C 81.5046 -4.965 -3.03088 0
M  V30 840 N 80.4806 -4.30083 -3.3246 0
M  V30 841 H 84.2826 -2.57204 -1.42208 0
M  V30 842 H 81.7966 -1.46719 -0.69623 0
M  V30 843 H 83.7936 -1.79732 -3.76168 0
M  V30 844 H 82.4536 -0.793024 -3.14867 0
M  V30 845 H 83.4646 -4.45515 -2.64077 0
M  V30 846 H 80.1416 -2.06987 -3.62578 0
M  V30 847 H 81.5316 -6.04991 -2.92294 0
M  V30 848 N 84.2517 0.741722 -1.39055 0
M  V30 849 C 85.2017 1.84661 -1.33732 0
M  V30 850 C 86.1857 1.59397 -0.219401 0
M  V30 851 O 87.3777 1.71015 -0.456375 0
M  V30 852 C 84.5067 3.22512 -1.17647 0
M  V30 853 C 83.5927 3.53628 -2.34112 0
M  V30 854 N 83.9837 3.55723 -3.59576 0
M  V30 855 C 82.2817 3.83956 -2.26923 0
M  V30 856 C 82.9827 3.84443 -4.36553 0
M  V30 857 N 81.9587 4.01877 -3.66055 0
M  V30 858 H 85.7607 1.84576 -2.28711 0
M  V30 859 H 83.2747 0.939647 -1.32455 0
M  V30 860 H 85.2717 4.01597 -1.11917 0
M  V30 861 H 83.9317 3.2384 -0.236124 0
M  V30 862 H 84.9427 3.37196 -3.93089 0
M  V30 863 H 81.6197 3.92929 -1.41113 0
M  V30 864 H 83.0097 3.92588 -5.45274 0
M  V30 865 N 85.7298 1.2412 0.971189 0
M  V30 866 C 86.9758 1.09048 1.71698 0
M  V30 867 C 87.3308 -0.367442 1.88859 0
M  V30 868 O 86.6238 -1.26792 1.43646 0
M  V30 869 C 86.8178 1.75983 3.11071 0
M  V30 870 C 86.6468 3.28133 3.07504 0
M  V30 871 C 85.4168 3.97331 3.1218 0
M  V30 872 C 87.6148 4.24773 2.89952 0
M  V30 873 N 85.5968 5.3639 2.98596 0
M  V30 874 C 86.9678 5.50806 2.84627 0
M  V30 875 C 89.0228 4.15392 2.74506 0
M  V30 876 C 87.7258 6.68533 2.65437 0
M  V30 877 C 89.7518 5.32793 2.56682 0
M  V30 878 C 89.1138 6.57756 2.52063 0
M  V30 879 H 85.2128 0.453632 0.636979 0
M  V30 880 H 87.7968 1.56983 1.15171 0
M  V30 881 H 85.9678 1.30566 3.65796 0
M  V30 882 H 87.6998 1.53803 3.74335 0
M  V30 883 H 84.4548 3.48473 3.20724 0
M  V30 884 H 84.8788 6.09321 2.95054 0
M  V30 885 H 89.5208 3.19543 2.76861 0
M  V30 886 H 87.2388 7.64509 2.61825 0
M  V30 887 H 90.8248 5.27383 2.4568 0
M  V30 888 H 89.7048 7.4707 2.38446 0
M  V30 889 N 87.2079 -1.17134 1.05439 0
M  V30 890 C 88.1559 -2.23289 0.651511 0
M  V30 891 C 89.1499 -1.66186 -0.328411 0
M  V30 892 O 90.3559 -1.78949 -0.194206 0
M  V30 893 H 86.7309 -0.726938 0.192523 0
M  V30 894 H 88.7019 -2.54565 1.55689 0
M  V30 895 C 87.4509 -3.47671 0.0448436 0
M  V30 896 H 86.7739 -3.91918 0.78996 0
M  V30 897 H 88.2139 -4.2353 -0.19964 0
M  V30 898 C 86.6729 -3.14453 -1.20918 0
M  V30 899 O 87.2029 -3.29459 -2.29825 0
M  V30 900 N 85.4089 -2.68657 -1.10779 0
M  V30 901 H 84.9559 -2.56646 -0.221526 0
M  V30 902 H 84.9139 -2.46804 -1.9477 0
M  V30 903 N 88.686 -0.835752 -1.33615 0
M  V30 904 C 89.596 -0.269088 -2.33052 0
M  V30 905 C 90.612 0.603251 -1.63208 0
M  V30 906 O 91.788 0.508112 -1.94885 0
M  V30 907 C 88.853 0.549091 -3.42324 0
M  V30 908 C 87.914 -0.347156 -4.27894 0
M  V30 909 C 87.147 0.43207 -5.31948 0
M  V30 910 O 87.37 1.66409 -5.45586 0
M  V30 911 O 86.304 -0.192298 -6.01593 0
M  V30 912 H 90.13 -1.09243 -2.83372 0
M  V30 913 H 87.715 -0.598198 -1.36901 0
M  V30 914 H 89.597 1.01414 -4.09015 0
M  V30 915 H 88.272 1.34955 -2.94226 0
M  V30 916 H 87.179 -0.859979 -3.64081 0
M  V30 917 H 88.512 -1.1123 -4.79467 0
M  V30 918 N 90.1641 1.46063 -0.591896 0
M  V30 919 C 91.4131 2.01547 -0.0786637 0
M  V30 920 C 91.7261 1.46796 1.29268 0
M  V30 921 O 92.9321 1.94157 1.89777 0
M  V30 922 C 91.3881 3.59787 -0.0900024 0
M  V30 923 C 90.9961 4.23534 -1.46023 0
M  V30 924 C 92.7401 4.22895 0.368806 0
M  V30 925 C 90.6471 5.73881 -1.4288 0
M  V30 926 H 89.5771 0.753564 -0.0256388 0
M  V30 927 H 92.2281 1.677 -0.744905 0
M  V30 928 H 90.6101 3.90752 0.642586 0
M  V30 929 H 91.7841 4.04167 -2.21328 0
M  V30 930 H 90.0991 3.72558 -1.85982 0
M  V30 931 H 92.6961 5.33116 0.411258 0
M  V30 932 H 93.0391 3.9247 1.38827 0
M  V30 933 H 93.5721 3.9659 -0.31001 0
M  V30 934 H 90.3111 6.0898 -2.42536 0
M  V30 935 H 89.8311 5.95486 -0.718095 0
M  V30 936 H 91.5101 6.36776 -1.14565 0
M  V30 937 N 91.6422 0.330177 1.54103 0
M  V30 938 C 92.8722 -0.271784 2.04805 0
M  V30 939 C 93.2802 -1.45816 1.20559 0
M  V30 940 O 92.6232 -1.82247 0.2306 0
M  V30 941 C 92.6852 -0.763238 3.51305 0
M  V30 942 C 92.3492 0.301705 4.56003 0
M  V30 943 C 93.3462 1.13999 5.07248 0
M  V30 944 C 91.0312 0.451793 5.00264 0
M  V30 945 C 93.0252 2.11402 6.01322 0
M  V30 946 C 90.7122 1.42924 5.94151 0
M  V30 947 C 91.7102 2.25882 6.44567 0
M  V30 948 O 91.3982 3.21965 7.3661 0
M  V30 949 H 91.1302 -0.058693 0.673447 0
M  V30 950 H 93.6842 0.476395 1.99799 0
M  V30 951 H 91.9142 -1.56244 3.5373 0
M  V30 952 H 93.6032 -1.28427 3.85047 0
M  V30 953 H 94.3692 1.03505 4.73827 0
M  V30 954 H 90.2482 -0.184044 4.60632 0
M  V30 955 H 93.7922 2.76192 6.40596 0
M  V30 956 H 89.6892 1.53479 6.26988 0
M  V30 957 H 90.4572 3.17281 7.54503 0
M  V30 958 N 93.1203 -1.57491 0.0584922 0
M  V30 959 C 94.3503 -1.9701 -0.622134 0
M  V30 960 C 94.7583 -0.935034 -1.6448 0
M  V30 961 O 94.1013 0.0882904 -1.83488 0
M  V30 962 C 94.1633 -3.32794 -1.35972 0
M  V30 963 C 93.8273 -4.54343 -0.492043 0
M  V30 964 C 94.8243 -5.19323 0.244901 0
M  V30 965 C 92.5093 -5.00534 -0.420821 0
M  V30 966 C 94.5033 -6.28835 1.04143 0
M  V30 967 C 92.1903 -6.09921 0.379389 0
M  V30 968 C 93.1883 -6.73933 1.10919 0
M  V30 969 O 92.8763 -7.81216 1.89623 0
M  V30 970 H 92.6083 -0.653127 -0.174359 0
M  V30 971 H 95.1623 -2.05029 0.123418 0
M  V30 972 H 93.3923 -3.21351 -2.15105 0
M  V30 973 H 95.0813 -3.5701 -1.93129 0
M  V30 974 H 95.8473 -4.8459 0.19939 0
M  V30 975 H 91.7263 -4.50496 -0.978474 0
M  V30 976 H 95.2703 -6.7873 1.61157 0
M  V30 977 H 91.1673 -6.44089 0.426512 0
M  V30 978 H 91.9353 -7.98029 1.81913 0
M  V30 979 N 94.5984 0.214957 -1.56127 0
M  V30 980 C 95.8454 0.938372 -1.79446 0
M  V30 981 C 96.1734 1.8407 -0.628378 0
M  V30 982 O 95.4284 1.91837 0.386925 0
M  V30 983 C 95.7274 1.80314 -3.0858 0
M  V30 984 C 95.3934 1.05349 -4.3842 0
M  V30 985 C 94.0554 0.846435 -4.73697 0
M  V30 986 C 96.4074 0.524588 -5.18553 0
M  V30 987 C 93.7354 0.098683 -5.86617 0
M  V30 988 C 96.0874 -0.209853 -6.32252 0
M  V30 989 C 94.7514 -0.428102 -6.66126 0
M  V30 990 H 94.0214 0.343375 -0.656639 0
M  V30 991 H 96.6684 0.206077 -1.90388 0
M  V30 992 H 94.9734 2.6035 -2.92789 0
M  V30 993 H 96.6704 2.36513 -3.23825 0
M  V30 994 H 93.2604 1.22486 -4.10725 0
M  V30 995 H 97.4444 0.672008 -4.91729 0
M  V30 996 H 92.7004 -0.0805753 -6.11347 0
M  V30 997 H 96.8744 -0.627157 -6.9357 0
M  V30 998 H 94.5014 -1.00944 -7.53468 0
M  V30 999 N 96.0765 1.50051 0.48192 0
M  V30 1000 C 97.3225 1.60736 1.2366 0
M  V30 1001 C 97.6555 0.301786 1.91841 0
M  V30 1002 O 96.9305 -0.696025 1.8162 0
M  V30 1003 C 97.2135 2.78009 2.28874 0
M  V30 1004 C 97.0665 4.18416 1.65069 0
M  V30 1005 C 98.3855 2.90867 3.30279 0
M  V30 1006 H 95.5045 0.585031 0.448228 0
M  V30 1007 H 98.1465 1.82402 0.531946 0
M  V30 1008 H 96.2965 2.59667 2.88973 0
M  V30 1009 H 97.9685 4.48322 1.0865 0
M  V30 1010 H 96.2115 4.23177 0.954148 0
M  V30 1011 H 96.8825 4.96381 2.41474 0
M  V30 1012 H 99.3585 3.07623 2.80191 0
M  V30 1013 H 98.2345 3.74566 4.01238 0
M  V30 1014 H 98.4955 2.01021 3.93755 0
M  V30 1015 N 97.5546 -0.734337 1.39446 0
M  V30 1016 C 98.4646 -1.87879 1.40495 0
M  V30 1017 C 99.4806 -1.714 0.299672 0
M  V30 1018 O 100.657 -1.93991 0.541249 0
M  V30 1019 C 97.7216 -3.23477 1.24754 0
M  V30 1020 C 96.7826 -3.52344 2.45259 0
M  V30 1021 C 96.0156 -4.81473 2.30259 0
M  V30 1022 O 96.2386 -5.55237 1.30643 0
M  V30 1023 O 95.1726 -5.10254 3.19256 0
M  V30 1024 H 98.9986 -1.89949 2.36966 0
M  V30 1025 H 96.5836 -0.882243 1.20569 0
M  V30 1026 H 98.4656 -4.04509 1.18111 0
M  V30 1027 H 97.1406 -3.22176 0.313781 0
M  V30 1028 H 96.0476 -2.71396 2.57478 0
M  V30 1029 H 97.3806 -3.58426 3.37331 0
M  V30 1030 N 99.0327 -1.24633 -0.964593 0
M  V30 1031 C 99.9647 -0.999302 -2.06268 0
M  V30 1032 C 100.978 0.0323226 -1.62768 0
M  V30 1033 O 102.167 -0.205079 -1.77318 0
M  V30 1034 C 99.2667 -0.486816 -3.35385 0
M  V30 1035 C 98.4397 -1.5823 -4.07777 0
M  V30 1036 C 97.4987 -1.07191 -5.15166 0
M  V30 1037 O 96.5247 -1.76426 -5.41168 0
M  V30 1038 N 97.7267 0.0920373 -5.80427 0
M  V30 1039 H 100.492 -1.94477 -2.28033 0
M  V30 1040 H 98.0527 -1.15704 -1.13244 0
M  V30 1041 H 100.045 -0.130066 -4.04491 0
M  V30 1042 H 98.6147 0.364459 -3.10468 0
M  V30 1043 H 97.8347 -2.11109 -3.32906 0
M  V30 1044 H 99.1227 -2.31854 -4.52903 0
M  V30 1045 H 98.5207 0.670784 -5.61709 0
M  V30 1046 H 97.0777 0.389905 -6.50633 0
M  V30 1047 N 100.511 1.16574 -1.06058 0
M  V30 1048 C 101.441 2.23057 -0.690488 0
M  V30 1049 C 102.422 1.67141 0.315901 0
M  V30 1050 O 103.607 1.93253 0.191556 0
M  V30 1051 C 100.737 3.47222 -0.073625 0
M  V30 1052 C 99.6908 4.16016 -1.00573 0
M  V30 1053 C 99.0168 5.34104 -0.252289 0
M  V30 1054 C 100.317 4.67264 -2.33371 0
M  V30 1055 H 102.011 2.54271 -1.58072 0
M  V30 1056 H 99.5568 1.22218 -0.76149 0
M  V30 1057 H 101.51 4.20939 0.19714 0
M  V30 1058 H 100.234 3.15302 0.85161 0
M  V30 1059 H 98.8928 3.44223 -1.2612 0
M  V30 1060 H 98.5408 4.98437 0.675988 0
M  V30 1061 H 98.2408 5.81072 -0.873455 0
M  V30 1062 H 99.7648 6.10599 0.0109857 0
M  V30 1063 H 101.179 5.32573 -2.12223 0
M  V30 1064 H 99.5758 5.24843 -2.90963 0
M  V30 1065 H 100.646 3.83602 -2.96611 0
M  V30 1066 N 101.989 0.842826 1.3317 0
M  V30 1067 C 102.952 0.284065 2.27433 0
M  V30 1068 C 103.952 -0.54948 1.5112 0
M  V30 1069 O 105.142 -0.362699 1.70382 0
M  V30 1070 C 102.274 -0.599384 3.35589 0
M  V30 1071 H 103.467 1.11589 2.78366 0
M  V30 1072 H 101.02 0.616221 1.4364 0
M  V30 1073 H 101.755 -1.45349 2.89904 0
M  V30 1074 H 101.54 -0.00291266 3.921 0
M  V30 1075 H 103.03 -0.983488 4.05854 0
M  V30 1076 N 103.467 -1.45747 0.599634 0
M  V30 1077 C 104.417 -2.27538 -0.145107 0
M  V30 1078 C 105.401 -1.3686 -0.846055 0
M  V30 1079 O 106.593 -1.6091 -0.737357 0
M  V30 1080 C 103.722 -3.23569 -1.14708 0
M  V30 1081 C 102.808 -4.21734 -0.447383 0
M  V30 1082 N 103.199 -5.03257 0.506535 0
M  V30 1083 C 101.497 -4.40536 -0.695966 0
M  V30 1084 C 102.198 -5.74426 0.917068 0
M  V30 1085 N 101.174 -5.42966 0.26253 0
M  V30 1086 H 104.976 -2.87965 0.587672 0
M  V30 1087 H 102.49 -1.56803 0.422697 0
M  V30 1088 H 104.487 -3.8089 -1.69495 0
M  V30 1089 H 103.147 -2.64702 -1.8805 0
M  V30 1090 H 104.158 -5.10319 0.882899 0
M  V30 1091 H 100.835 -3.92802 -1.41467 0
M  V30 1092 H 102.225 -6.4995 1.70338 0
M  V30 1093 N 104.945 -0.338344 -1.53925 0
M  V30 1094 C 105.892 0.520845 -2.24846 0
M  V30 1095 C 106.862 1.09976 -1.24477 0
M  V30 1096 O 108.047 1.13735 -1.53196 0
M  V30 1097 C 105.187 1.6685 -3.02084 0
M  V30 1098 C 104.3 1.11739 -4.17299 0
M  V30 1099 C 103.435 2.23193 -4.82036 0
M  V30 1100 C 102.474 1.65407 -5.89328 0
M  V30 1101 N 101.611 2.70582 -6.47866 0
M  V30 1102 H 106.451 -0.0904881 -2.97863 0
M  V30 1103 H 103.988 -0.0564282 -1.46992 0
M  V30 1104 H 105.946 2.34407 -3.45122 0
M  V30 1105 H 104.576 2.2509 -2.31375 0
M  V30 1106 H 103.628 0.332919 -3.7894 0
M  V30 1107 H 104.94 0.654677 -4.94485 0
M  V30 1108 H 104.094 2.98626 -5.28117 0
M  V30 1109 H 102.833 2.72807 -4.04262 0
M  V30 1110 H 101.838 0.884779 -5.42634 0
M  V30 1111 H 103.063 1.16652 -6.69006 0
M  V30 1112 H 101.009 3.1946 -5.72959 0
M  V30 1113 H 100.926 2.28917 -7.20509 0
M  V30 1114 H 102.194 3.45799 -6.98601 0
M  V30 1115 N 106.423 1.57458 -0.0668435 0
M  V30 1116 C 107.67 1.93301 0.603406 0
M  V30 1117 C 107.998 0.946486 1.69917 0
M  V30 1118 O 107.253 -0.0387021 1.95662 0
M  V30 1119 C 107.552 3.35784 1.22409 0
M  V30 1120 C 107.218 4.50179 0.254955 0
M  V30 1121 C 105.88 4.81199 -0.0116746 0
M  V30 1122 C 108.232 5.19598 -0.408338 0
M  V30 1123 C 105.56 5.78978 -0.94877 0
M  V30 1124 C 107.912 6.18381 -1.33372 0
M  V30 1125 C 106.576 6.47821 -1.60887 0
M  V30 1126 H 105.846 0.707338 0.220802 0
M  V30 1127 H 108.493 1.91012 -0.136665 0
M  V30 1128 H 106.798 3.34515 2.03978 0
M  V30 1129 H 108.495 3.60804 1.74989 0
M  V30 1130 H 105.085 4.25983 0.472954 0
M  V30 1131 H 109.269 4.95832 -0.215456 0
M  V30 1132 H 104.525 6.00115 -1.16925 0
M  V30 1133 H 108.699 6.71277 -1.85367 0
M  V30 1134 H 106.326 7.23399 -2.33661 0
M  V30 1135 N 107.901 -0.206675 1.56239 0
M  V30 1136 C 109.15 -0.926964 1.79138 0
M  V30 1137 C 109.463 -1.84901 0.638043 0
M  V30 1138 O 110.669 -2.60906 0.751033 0
M  V30 1139 C 109.125 -1.6986 3.17294 0
M  V30 1140 C 108.733 -0.821956 4.40395 0
M  V30 1141 C 110.477 -2.40922 3.4951 0
M  V30 1142 C 108.384 -1.59179 5.69575 0
M  V30 1143 H 107.314 -0.349864 0.667915 0
M  V30 1144 H 109.965 -0.180487 1.8261 0
M  V30 1145 H 108.347 -2.48853 3.08039 0
M  V30 1146 H 109.521 -0.0715019 4.60745 0
M  V30 1147 H 107.836 -0.222741 4.15804 0
M  V30 1148 H 110.433 -2.99047 4.43255 0
M  V30 1149 H 110.776 -3.14542 2.72707 0
M  V30 1150 H 111.309 -1.68905 3.60161 0
M  V30 1151 H 108.048 -0.898589 6.49312 0
M  V30 1152 H 107.568 -2.31648 5.53262 0
M  V30 1153 H 109.247 -2.14862 6.10281 0
M  V30 1154 N 109.379 -1.50304 -0.473955 0
M  V30 1155 C 110.604 -1.65175 -1.25427 0
M  V30 1156 C 111.029 -0.333673 -1.85117 0
M  V30 1157 O 110.387 0.702114 -1.67153 0
M  V30 1158 C 110.435 -2.74295 -2.34082 0
M  V30 1159 O 109.539 -2.35349 -3.38651 0
M  V30 1160 H 108.88 -0.551944 -0.369126 0
M  V30 1161 H 111.41 -1.96662 -0.564364 0
M  V30 1162 H 111.42 -2.97285 -2.79438 0
M  V30 1163 H 110.095 -3.69959 -1.90008 0
M  V30 1164 H 108.672 -2.22794 -2.99027 0
M  V30 1165 N 110.857 0.726932 -1.39834 0
M  V30 1166 C 112.268 1.30558 -1.3346 0
M  V30 1167 C 112.619 1.962 -0.00273003 0
M  V30 1168 O 111.744 1.96826 0.899371 0
M  V30 1169 C 112.339 2.37404 -2.41713 0
M  V30 1170 C 110.898 2.90921 -2.38835 0
M  V30 1171 C 110.045 1.64578 -2.2318 0
M  V30 1172 H 112.996 0.523862 -1.49804 0
M  V30 1173 H 113.017 3.17984 -2.08966 0
M  V30 1174 H 112.529 1.89599 -3.38635 0
M  V30 1175 H 110.63 3.42985 -1.45575 0
M  V30 1176 H 110.743 3.43487 -3.33997 0
M  V30 1177 H 109.107 1.89219 -1.70494 0
M  V30 1178 H 109.89 1.18814 -3.22084 0
M  V30 1179 N 112.336 1.25143 0.95797 0
M  V30 1180 C 113.268 1.01023 2.05735 0
M  V30 1181 C 114.281 -0.0236902 1.62783 0
M  V30 1182 O 115.47 0.21448 1.77207 0
M  V30 1183 C 112.57 0.504595 3.35122 0
M  V30 1184 C 111.743 1.6039 4.06932 0
M  V30 1185 C 110.802 1.09922 5.14591 0
M  V30 1186 O 109.828 1.79293 5.40225 0
M  V30 1187 N 111.03 -0.0612545 5.80468 0
M  V30 1188 H 113.795 1.95683 2.26998 0
M  V30 1189 H 111.356 1.16303 1.12629 0
M  V30 1190 H 113.348 0.151516 4.04416 0
M  V30 1191 H 111.918 -0.347989 3.10657 0
M  V30 1192 H 111.138 2.12872 3.31782 0
M  V30 1193 H 112.426 2.34252 4.51667 0
M  V30 1194 H 111.824 -0.640985 5.62057 0
M  V30 1195 H 110.381 -0.355395 6.5083 0
M  V30 1196 N 113.814 -1.1601 1.06675 0
M  V30 1197 C 114.744 -2.22688 0.702307 0
M  V30 1198 C 115.725 -1.67306 -0.307032 0
M  V30 1199 O 116.91 -1.93352 -0.181305 0
M  V30 1200 C 114.04 -3.47178 0.092038 0
M  V30 1201 C 112.994 -4.15477 1.02777 0
M  V30 1202 C 112.32 -5.33963 0.28061 0
M  V30 1203 C 113.62 -4.66019 2.35846 0
M  V30 1204 H 115.314 -2.53429 1.59419 0
M  V30 1205 H 112.86 -1.21813 0.767961 0
M  V30 1206 H 114.813 -4.21037 -0.174814 0
M  V30 1207 H 113.537 -3.15749 -0.834877 0
M  V30 1208 H 112.196 -3.43549 1.27944 0
M  V30 1209 H 111.844 -4.98788 -0.649545 0
M  V30 1210 H 111.544 -5.806 0.904258 0
M  V30 1211 H 113.068 -6.10596 0.021396 0
M  V30 1212 H 114.482 -5.3144 2.15045 0
M  V30 1213 H 112.879 -5.23293 2.93743 0
M  V30 1214 H 113.949 -3.82023 2.98641 0
M  V30 1215 N 115.292 -0.849877 -1.32721 0
M  V30 1216 C 116.708 -0.539102 -1.50219 0
M  V30 1217 C 116.908 0.931271 -1.78689 0
M  V30 1218 O 115.964 1.71455 -1.85363 0
M  V30 1219 C 117.277 -1.42196 -2.64954 0
M  V30 1220 C 118.825 -1.42189 -2.78839 0
M  V30 1221 C 119.3 -2.28985 -3.96648 0
M  V30 1222 N 120.791 -2.26754 -4.03902 0
M  V30 1223 C 121.526 -2.90644 -4.94281 0
M  V30 1224 N 121.022 -3.63629 -5.897 0
M  V30 1225 N 122.815 -2.80057 -4.87365 0
M  V30 1226 H 114.966 -1.80156 -1.12506 0
M  V30 1227 H 117.229 -0.769217 -0.554085 0
M  V30 1228 H 116.935 -2.46733 -2.50631 0
M  V30 1229 H 116.809 -1.10591 -3.60624 0
M  V30 1230 H 119.196 -0.38419 -2.92588 0
M  V30 1231 H 119.277 -1.77807 -1.83898 0
M  V30 1232 H 118.921 -3.32819 -3.83658 0
M  V30 1233 H 118.851 -1.90702 -4.90857 0
M  V30 1234 H 121.342 -1.73688 -3.3562 0
M  V30 1235 H 121.655 -4.09558 -6.55349 0
M  V30 1236 H 120 -3.67737 -5.89741 0
M  V30 1237 H 123.191 -2.22593 -4.11789 0
M  V30 1238 H 123.364 -3.30132 -5.57599 0
M  V30 1239 N 116.77 1.45427 -0.607355 0
M  V30 1240 C 117.703 2.27635 0.160482 0
M  V30 1241 C 118.681 1.37122 0.873857 0
M  V30 1242 O 119.865 1.66551 0.882775 0
M  V30 1243 C 116.992 3.15486 1.23231 0
M  V30 1244 C 116.038 4.21939 0.622097 0
M  V30 1245 S 116.871 5.32459 -0.569852 0
M  V30 1246 C 118.027 6.23879 0.502577 0
M  V30 1247 H 118.26 2.9241 -0.536983 0
M  V30 1248 H 115.793 1.49265 -0.394868 0
M  V30 1249 H 117.751 3.66659 1.84585 0
M  V30 1250 H 116.412 2.49977 1.90185 0
M  V30 1251 H 115.605 4.8333 1.42856 0
M  V30 1252 H 115.207 3.73906 0.0837063 0
M  V30 1253 H 117.499 6.63261 1.38171 0
M  V30 1254 H 118.442 7.0806 -0.0751759 0
M  V30 1255 H 118.85 5.58545 0.8178 0
M  V30 1256 N 118.248 0.346503 1.53744 0
M  V30 1257 C 119.473 -0.253074 2.0585 0
M  V30 1258 C 119.898 -1.43202 1.21962 0
M  V30 1259 O 119.256 -1.79783 0.234073 0
M  V30 1260 C 119.304 -0.643193 3.54817 0
M  V30 1261 O 118.408 -1.74286 3.73762 0
M  V30 1262 H 117.749 -0.0413583 0.662711 0
M  V30 1263 H 120.279 0.501574 1.98357 0
M  V30 1264 H 120.289 -0.919526 3.97503 0
M  V30 1265 H 118.964 0.218966 4.15323 0
M  V30 1266 H 117.541 -1.46356 3.42979 0
M  V30 1267 N 119.726 -1.57421 0.075193 0
M  V30 1268 C 120.973 -1.93618 -0.593146 0
M  V30 1269 C 121.301 -0.955484 -1.69413 0
M  V30 1270 O 120.556 0.0283251 -1.9568 0
M  V30 1271 C 120.855 -3.36428 -1.20626 0
M  V30 1272 C 120.521 -4.50307 -0.231078 0
M  V30 1273 C 119.183 -4.81186 0.0371936 0
M  V30 1274 C 121.535 -5.19374 0.435888 0
M  V30 1275 C 118.863 -5.78466 0.979461 0
M  V30 1276 C 121.215 -6.17665 1.3665 0
M  V30 1277 C 119.879 -6.46958 1.6432 0
M  V30 1278 H 119.149 -0.708499 -0.217047 0
M  V30 1279 H 121.796 -1.90937 0.146793 0
M  V30 1280 H 120.101 -3.35592 -2.02201 0
M  V30 1281 H 121.798 -3.61727 -1.73073 0
M  V30 1282 H 118.388 -4.26227 -0.450357 0
M  V30 1283 H 122.572 -4.95711 0.241748 0
M  V30 1284 H 117.828 -5.99487 1.20106 0
M  V30 1285 H 122.002 -6.70284 1.88924 0
M  V30 1286 H 119.629 -7.2215 2.37494 0
M  V30 1287 N 121.204 0.198386 -1.56346 0
M  V30 1288 C 122.453 0.917451 -1.79627 0
M  V30 1289 C 122.766 1.8456 -0.64784 0
M  V30 1290 O 123.972 2.60504 -0.764859 0
M  V30 1291 C 122.428 1.68175 -3.18191 0
M  V30 1292 C 122.036 0.798589 -4.40825 0
M  V30 1293 C 123.78 2.39065 -3.50782 0
M  V30 1294 C 121.687 1.56157 -5.70411 0
M  V30 1295 H 120.617 0.346317 -0.669762 0
M  V30 1296 H 123.268 0.170801 -1.82703 0
M  V30 1297 H 121.65 2.47216 -3.09354 0
M  V30 1298 H 122.824 0.0470665 -4.60776 0
M  V30 1299 H 121.139 0.200686 -4.15916 0
M  V30 1300 H 123.736 2.96692 -4.44835 0
M  V30 1301 H 124.079 3.13091 -2.74371 0
M  V30 1302 H 124.612 1.66993 -3.61052 0
M  V30 1303 H 121.351 0.864142 -6.49779 0
M  V30 1304 H 120.871 2.2871 -5.54483 0
M  V30 1305 H 122.55 2.11622 -6.11412 0
M  V30 1306 N 122.682 1.50554 0.465978 0
M  V30 1307 C 123.928 1.62038 1.21949 0
M  V30 1308 C 124.261 0.322116 1.9151 0
M  V30 1309 O 123.536 -0.676723 1.82348 0
M  V30 1310 C 123.819 2.80421 2.25912 0
M  V30 1311 C 123.672 4.20144 1.60622 0
M  V30 1312 C 124.991 2.94354 3.27176 0
M  V30 1313 H 122.11 0.589752 0.441998 0
M  V30 1314 H 124.752 1.82956 0.51257 0
M  V30 1315 H 122.902 2.62717 2.86203 0
M  V30 1316 H 124.574 4.49449 1.03889 0
M  V30 1317 H 122.817 4.24165 0.909211 0
M  V30 1318 H 123.488 4.98914 2.36196 0
M  V30 1319 H 125.964 3.10578 2.76913 0
M  V30 1320 H 124.84 3.788 3.97242 0
M  V30 1321 H 125.101 2.05186 3.916 0
M  V30 1322 N 124.16 -0.719506 1.40217 0
M  V30 1323 C 125.407 -1.47933 1.38283 0
M  V30 1324 C 125.735 -1.94493 -0.0161536 0
M  V30 1325 O 124.99 -1.68224 -0.999956 0
M  V30 1326 C 125.289 -2.72271 2.31524 0
M  V30 1327 C 124.955 -2.44496 3.78857 0
M  V30 1328 C 123.617 -2.36631 4.18998 0
M  V30 1329 C 125.969 -2.21104 4.71977 0
M  V30 1330 C 123.297 -2.03437 5.503 0
M  V30 1331 C 125.649 -1.89423 6.03574 0
M  V30 1332 C 124.313 -1.80038 6.42762 0
M  V30 1333 H 123.583 -0.541325 0.506012 0
M  V30 1334 H 126.23 -0.824502 1.72842 0
M  V30 1335 H 124.535 -3.42572 1.90137 0
M  V30 1336 H 126.232 -3.30348 2.27313 0
M  V30 1337 H 122.822 -2.51503 3.47051 0
M  V30 1338 H 127.006 -2.26139 4.41786 0
M  V30 1339 H 122.262 -1.94705 5.79569 0
M  V30 1340 H 126.436 -1.70336 6.75247 0
M  V30 1341 H 124.063 -1.54083 7.44421 0
M  V30 1342 N 125.638 -1.25649 -0.95132 0
M  V30 1343 C 126.863 -1.13443 -1.73624 0
M  V30 1344 C 127.288 0.307565 -1.85568 0
M  V30 1345 O 126.646 1.22282 -1.33854 0
M  V30 1346 C 126.694 -1.79723 -3.12621 0
M  V30 1347 O 125.798 -1.07912 -3.98031 0
M  V30 1348 H 125.139 -0.395872 -0.533086 0
M  V30 1349 H 127.669 -1.66276 -1.1922 0
M  V30 1350 H 127.679 -1.86141 -3.63064 0
M  V30 1351 H 126.354 -2.84633 -3.03244 0
M  V30 1352 H 124.931 -1.09398 -3.56492 0
M  V30 1353 N 127.117 1.15442 -1.07289 0
M  V30 1354 C 128.345 1.90096 -0.81676 0
M  V30 1355 C 128.76 1.7798 0.629966 0
M  V30 1356 O 128.117 1.1313 1.43206 0
M  V30 1357 C 128.168 3.40466 -1.21512 0
M  V30 1358 O 127.889 3.52232 -2.60508 0
M  V30 1359 C 129.39 4.32145 -0.988198 0
M  V30 1360 H 126.61 0.602495 -0.295366 0
M  V30 1361 H 129.154 1.4627 -1.42918 0
M  V30 1362 H 127.309 3.81958 -0.647039 0
M  V30 1363 H 127.723 4.45549 -2.76742 0
M  V30 1364 H 129.197 5.36072 -1.31645 0
M  V30 1365 H 129.674 4.39135 0.0755063 0
M  V30 1366 H 130.28 3.96395 -1.54115 0
M  V30 1367 N 128.595 0.856903 1.32268 0
M  V30 1368 C 130.011 0.547061 1.49931 0
M  V30 1369 C 130.211 -0.921781 1.7918 0
M  V30 1370 O 129.267 -1.70469 1.8627 0
M  V30 1371 C 130.58 1.43599 2.64196 0
M  V30 1372 C 132.128 1.43665 2.78081 0
M  V30 1373 C 132.603 2.31085 3.95428 0
M  V30 1374 N 134.094 2.28893 4.02694 0
M  V30 1375 C 134.829 2.93262 4.92732 0
M  V30 1376 N 134.325 3.66751 5.87763 0
M  V30 1377 N 136.118 2.82638 4.85873 0
M  V30 1378 H 128.269 1.8075 1.11549 0
M  V30 1379 H 130.532 0.772144 0.549997 0
M  V30 1380 H 130.238 2.48058 2.49319 0
M  V30 1381 H 130.112 1.12502 3.60032 0
M  V30 1382 H 132.499 0.399701 2.92381 0
M  V30 1383 H 132.58 1.7878 1.82952 0
M  V30 1384 H 132.224 3.34849 3.81888 0
M  V30 1385 H 132.154 1.93302 4.89839 0
M  V30 1386 H 134.645 1.75466 3.34694 0
M  V30 1387 H 134.958 4.13027 6.53168 0
M  V30 1388 H 133.303 3.70859 5.87783 0
M  V30 1389 H 136.494 2.24774 4.10602 0
M  V30 1390 H 136.667 3.33084 5.55841 0
M  V30 1391 N 130.073 -1.45103 0.615059 0
M  V30 1392 C 131.321 -2.01784 0.112955 0
M  V30 1393 C 131.642 -1.48504 -1.26378 0
M  V30 1394 O 130.912 -0.682245 -1.83636 0
M  V30 1395 H 129.492 -0.745993 0.0387668 0
M  V30 1396 H 132.154 -1.77808 0.798141 0
M  V30 1397 H 131.25 -3.12025 0.0684069 0
M  V30 1398 N 131.551 -0.354651 -1.53558 0
M  V30 1399 C 132.779 0.239515 -2.05509 0
M  V30 1400 C 133.194 1.4333 -1.2289 0
M  V30 1401 O 132.551 1.80538 -0.266899 0
M  V30 1402 C 132.602 0.643719 -3.55723 0
M  V30 1403 O 132.323 -0.502602 -4.35207 0
M  V30 1404 C 133.824 1.29743 -4.23889 0
M  V30 1405 H 131.044 0.0442697 -0.669538 0
M  V30 1406 H 133.588 -0.509856 -1.98042 0
M  V30 1407 H 131.743 1.34302 -3.63376 0
M  V30 1408 H 132.157 -0.178172 -5.24197 0
M  V30 1409 H 133.631 1.53091 -5.30346 0
M  V30 1410 H 134.108 2.25441 -3.76926 0
M  V30 1411 H 134.714 0.639865 -4.20459 0
M  V30 1412 N 133.029 1.57378 -0.0835403 0
M  V30 1413 C 134.257 1.98263 0.59157 0
M  V30 1414 C 134.672 0.962302 1.62435 0
M  V30 1415 O 134.029 -0.049581 1.82433 0
M  V30 1416 C 134.08 3.39214 1.24965 0
M  V30 1417 O 133.801 4.37339 0.258186 0
M  V30 1418 C 135.302 3.95038 2.01147 0
M  V30 1419 H 132.522 0.651773 0.159477 0
M  V30 1420 H 135.066 2.03878 -0.159415 0
M  V30 1421 H 133.221 3.34649 1.95164 0
M  V30 1422 H 133.635 5.19371 0.731734 0
M  V30 1423 H 135.109 4.95848 2.42567 0
M  V30 1424 H 135.586 3.32222 2.87272 0
M  V30 1425 H 136.192 4.0304 1.35789 0
M  V30 1426 N 134.507 -0.190092 1.56449 0
M  V30 1427 C 135.437 -1.23816 1.97969 0
M  V30 1428 C 136.418 -1.47201 0.852395 0
M  V30 1429 O 137.603 -1.58854 1.1171 0
M  V30 1430 C 134.733 -2.5813 2.3235 0
M  V30 1431 C 133.687 -2.49348 3.47864 0
M  V30 1432 C 133.013 -3.8798 3.67934 0
M  V30 1433 C 134.313 -2.01424 4.81898 0
M  V30 1434 H 136.007 -0.89311 2.85769 0
M  V30 1435 H 133.553 -0.428177 1.37487 0
M  V30 1436 H 135.506 -3.31637 2.59991 0
M  V30 1437 H 134.23 -2.94386 1.41438 0
M  V30 1438 H 132.889 -1.78297 3.20321 0
M  V30 1439 H 132.537 -4.21597 2.74344 0
M  V30 1440 H 132.237 -3.82978 4.45648 0
M  V30 1441 H 133.761 -4.63101 3.97957 0
M  V30 1442 H 135.175 -2.64693 5.08538 0
M  V30 1443 H 133.572 -2.07413 5.63116 0
M  V30 1444 H 134.642 -0.967677 4.75146 0
M  V30 1445 N 135.985 -1.50799 -0.457987 0
M  V30 1446 C 136.918 -1.65273 -1.57353 0
M  V30 1447 C 137.896 -0.500578 -1.54703 0
M  V30 1448 O 139.08 -0.721781 -1.74134 0
M  V30 1449 C 136.207 -1.64737 -2.95938 0
M  V30 1450 C 135.253 -2.8567 -3.16693 0
M  V30 1451 S 136.086 -4.46791 -2.95191 0
M  V30 1452 C 137.242 -4.48968 -4.36095 0
M  V30 1453 H 137.475 -2.59633 -1.44838 0
M  V30 1454 H 135.008 -1.40225 -0.64625 0
M  V30 1455 H 136.966 -1.65112 -3.7583 0
M  V30 1456 H 135.627 -0.715899 -3.05833 0
M  V30 1457 H 134.82 -2.81637 -4.17967 0
M  V30 1458 H 134.422 -2.8293 -2.44594 0
M  V30 1459 H 136.714 -4.23337 -5.28954 0
M  V30 1460 H 137.657 -5.50664 -4.45168 0
M  V30 1461 H 138.065 -3.78522 -4.18786 0
M  V30 1462 N 137.463 0.71206 -1.40597 0
M  V30 1463 C 138.41 1.82613 -1.41142 0
M  V30 1464 C 139.38 1.63925 -0.267903 0
M  V30 1465 O 140.565 1.85009 -0.466495 0
M  V30 1466 C 137.705 3.20354 -1.28324 0
M  V30 1467 C 136.818 3.50589 -2.52411 0
M  V30 1468 C 135.953 4.77855 -2.32009 0
M  V30 1469 C 134.992 5.01005 -3.51654 0
M  V30 1470 N 134.129 6.19487 -3.30425 0
M  V30 1471 H 138.969 1.81482 -2.36365 0
M  V30 1472 H 136.506 0.886475 -1.17388 0
M  V30 1473 H 138.464 3.99899 -1.18899 0
M  V30 1474 H 137.094 3.20705 -0.367189 0
M  V30 1475 H 136.146 2.65573 -2.72351 0
M  V30 1476 H 137.458 3.63604 -3.41458 0
M  V30 1477 H 136.612 5.65424 -2.19956 0
M  V30 1478 H 135.351 4.67056 -1.40392 0
M  V30 1479 H 134.356 4.1189 -3.64179 0
M  V30 1480 H 135.581 5.13674 -4.44202 0
M  V30 1481 H 133.527 6.09932 -2.41494 0
M  V30 1482 H 133.444 6.33194 -4.13039 0
M  V30 1483 H 134.712 7.09834 -3.22113 0
M  V30 1484 N 138.941 1.26152 0.944643 0
M  V30 1485 C 139.871 1.09902 2.06019 0
M  V30 1486 C 140.852 0.00519538 1.70099 0
M  V30 1487 O 142.037 0.176583 1.93396 0
M  V30 1488 C 139.167 0.727562 3.39594 0
M  V30 1489 C 138.121 1.77274 3.89561 0
M  V30 1490 C 137.447 1.25569 5.19747 0
M  V30 1491 C 138.747 3.17357 4.14827 0
M  V30 1492 H 140.441 2.03217 2.19871 0
M  V30 1493 H 137.987 0.978452 1.05652 0
M  V30 1494 H 139.94 0.600777 4.17095 0
M  V30 1495 H 138.664 -0.241287 3.25707 0
M  V30 1496 H 137.323 1.88814 3.14237 0
M  V30 1497 H 136.971 0.276783 5.02238 0
M  V30 1498 H 136.671 1.95433 5.54148 0
M  V30 1499 H 138.195 1.1415 5.99835 0
M  V30 1500 H 139.609 3.08914 4.82954 0
M  V30 1501 H 138.006 3.84781 4.60504 0
M  V30 1502 H 139.076 3.63673 3.20734 0
M  V30 1503 N 140.419 -1.14872 1.07899 0
M  V30 1504 C 141.647 -1.89661 0.82683 0
M  V30 1505 C 142.062 -1.78312 -0.620519 0
M  V30 1506 O 141.419 -1.13888 -1.42604 0
M  V30 1507 C 141.47 -3.39817 1.23316 0
M  V30 1508 O 141.191 -3.50845 2.62372 0
M  V30 1509 C 142.692 -4.31615 1.0111 0
M  V30 1510 H 139.912 -0.60092 0.298557 0
M  V30 1511 H 142.456 -1.4551 1.43691 0
M  V30 1512 H 140.611 -3.8161 0.667286 0
M  V30 1513 H 141.025 -4.44076 2.79101 0
M  V30 1514 H 142.499 -5.35367 1.34486 0
M  V30 1515 H 142.976 -4.39169 -0.0522168 0
M  V30 1516 H 143.582 -3.95572 1.56215 0
M  V30 1517 N 141.898 -0.863906 -1.31812 0
M  V30 1518 C 142.808 -0.318461 -2.32428 0
M  V30 1519 C 143.824 0.568496 -1.64451 0
M  V30 1520 O 145 0.46666 -1.95919 0
M  V30 1521 C 142.065 0.476355 -3.43412 0
M  V30 1522 C 141.126 -0.43784 -4.27061 0
M  V30 1523 C 140.359 0.319138 -5.32745 0
M  V30 1524 O 140.582 1.54799 -5.48993 0
M  V30 1525 O 139.516 -0.319861 -6.01049 0
M  V30 1526 H 143.342 -1.15229 -2.80991 0
M  V30 1527 H 140.927 -0.627103 -1.35602 0
M  V30 1528 H 142.809 0.927156 -4.11074 0
M  V30 1529 H 141.484 1.28683 -2.97022 0
M  V30 1530 H 140.391 -0.937013 -3.62175 0
M  V30 1531 H 141.724 -1.21375 -4.77 0
M  V30 1532 N 143.376 1.44774 -0.622745 0
M  V30 1533 C 144.653 1.95522 -0.0551974 0
M  V30 1534 C 145.033 1.5649 1.41683 0
M  V30 1535 O 144.381 0.834848 2.12703 0
M  V30 1536 C 144.591 3.4796 -0.269242 0
M  V30 1537 C 145.939 4.24306 -0.158014 0
M  V30 1538 O 146.963 3.55637 -0.200162 0
M  V30 1539 O 145.822 5.46471 -0.0558693 0
M  V30 1540 H 142.916 0.826556 0.0271015 0
M  V30 1541 H 145.462 1.54866 -0.693864 0
M  V30 1542 H 144.234 3.6939 -1.29099 0
M  V30 1543 H 143.857 3.95543 0.403966 0
M  V30 1544 N 144.854 0.36279 1.53368 0
M  V30 1545 C 146.27 0.0116182 1.59596 0
M  V30 1546 C 146.47 -1.47012 1.37803 0
M  V30 1547 O 145.526 -2.23136 1.18181 0
M  V30 1548 C 146.839 0.465052 2.97082 0
M  V30 1549 C 148.387 0.419033 3.10182 0
M  V30 1550 C 148.862 0.848235 4.50077 0
M  V30 1551 N 150.353 0.803183 4.56183 0
M  V30 1552 C 151.088 1.107 5.62613 0
M  V30 1553 N 150.584 1.47996 6.76808 0
M  V30 1554 N 152.377 1.02998 5.52583 0
M  V30 1555 H 144.528 1.32775 1.65785 0
M  V30 1556 H 146.791 0.542518 0.777417 0
M  V30 1557 H 146.497 1.49892 3.18159 0
M  V30 1558 H 146.371 -0.149786 3.76902 0
M  V30 1559 H 148.758 -0.605696 2.88817 0
M  V30 1560 H 148.839 1.06933 2.32377 0
M  V30 1561 H 148.483 1.87107 4.7218 0
M  V30 1562 H 148.413 0.175218 5.26308 0
M  V30 1563 H 150.904 0.52838 3.74188 0
M  V30 1564 H 151.217 1.69613 7.53957 0
M  V30 1565 H 149.562 1.51859 6.78206 0
M  V30 1566 H 152.753 0.737817 4.62249 0
M  V30 1567 H 152.926 1.2701 6.35431 0
M  V30 1568 N 146.332 -1.57332 0.0918853 0
M  V30 1569 C 147.242 -2.17368 -0.882505 0
M  V30 1570 C 148.258 -1.14226 -1.31257 0
M  V30 1571 O 149.434 -1.46582 -1.38115 0
M  V30 1572 C 146.499 -2.73962 -2.12476 0
M  V30 1573 C 145.56 -3.92048 -1.7492 0
M  V30 1574 C 144.793 -4.45933 -2.93223 0
M  V30 1575 O 145.016 -3.98764 -4.07852 0
M  V30 1576 O 143.95 -5.36999 -2.71875 0
M  V30 1577 H 147.776 -3.01031 -0.40172 0
M  V30 1578 H 145.361 -1.48813 -0.132291 0
M  V30 1579 H 147.243 -3.10147 -2.85283 0
M  V30 1580 H 145.918 -1.93347 -2.59613 0
M  V30 1581 H 144.825 -3.6068 -0.993025 0
M  V30 1582 H 146.158 -4.74017 -1.32548 0
M  V30 1583 N 147.81 0.181792 -1.56548 0
M  V30 1584 C 148.742 1.24956 -1.92142 0
M  V30 1585 C 149.755 1.41022 -0.813422 0
M  V30 1586 O 150.944 1.41212 -1.09186 0
M  V30 1587 C 148.044 2.61981 -2.14987 0
M  V30 1588 C 147.217 2.6735 -3.46183 0
M  V30 1589 C 146.276 3.85664 -3.5798 0
M  V30 1590 O 145.302 3.72148 -4.30691 0
M  V30 1591 N 146.504 5.01683 -2.92053 0
M  V30 1592 H 149.269 0.947329 -2.84334 0
M  V30 1593 H 146.83 0.371629 -1.57577 0
M  V30 1594 H 148.822 3.3958 -2.20154 0
M  V30 1595 H 147.392 2.84637 -1.2923 0
M  V30 1596 H 146.612 1.75925 -3.52766 0
M  V30 1597 H 147.9 2.67939 -4.32534 0
M  V30 1598 H 147.298 5.15564 -2.32832 0
M  V30 1599 H 145.855 5.77181 -3.0283 0
M  V30 1600 N 149.288 1.51039 0.449983 0
M  V30 1601 C 150.537 1.62317 1.19733 0
M  V30 1602 C 150.85 0.339101 1.92638 0
M  V30 1603 O 152.056 0.331069 2.69474 0
M  V30 1604 C 150.512 2.86608 2.17678 0
M  V30 1605 C 150.12 4.21972 1.50479 0
M  V30 1606 C 151.864 3.07239 2.92924 0
M  V30 1607 C 149.771 5.37426 2.46834 0
M  V30 1608 H 148.701 0.604532 0.450619 0
M  V30 1609 H 151.352 1.77494 0.465625 0
M  V30 1610 H 149.734 2.65037 2.94231 0
M  V30 1611 H 150.908 4.53878 0.795716 0
M  V30 1612 H 149.223 4.07117 0.874344 0
M  V30 1613 H 151.82 3.90668 3.65079 0
M  V30 1614 H 152.163 2.19807 3.5354 0
M  V30 1615 H 152.696 3.29091 2.23481 0
M  V30 1616 H 149.435 6.27079 1.90926 0
M  V30 1617 H 148.955 5.09912 3.15832 0
M  V30 1618 H 150.634 5.68862 3.08228 0
M  V30 1619 N 150.766 -0.704594 1.40972 0
M  V30 1620 C 152.182 -1.01406 1.23244 0
M  V30 1621 C 152.382 -2.01169 0.115399 0
M  V30 1622 O 151.438 -2.47021 -0.523147 0
M  V30 1623 C 152.751 -1.54728 2.57836 0
M  V30 1624 C 154.299 -1.66658 2.64942 0
M  V30 1625 C 154.774 -2.23383 3.9983 0
M  V30 1626 N 156.265 -2.30756 4.01629 0
M  V30 1627 C 157 -2.75655 5.02794 0
M  V30 1628 N 156.496 -3.20225 6.14352 0
M  V30 1629 N 158.289 -2.75138 4.90159 0
M  V30 1630 H 150.44 -0.0435285 2.12355 0
M  V30 1631 H 152.703 -0.0818951 0.944456 0
M  V30 1632 H 152.409 -0.888832 3.40283 0
M  V30 1633 H 152.283 -2.53084 2.79693 0
M  V30 1634 H 154.67 -2.31617 1.8286 0
M  V30 1635 H 154.751 -0.668717 2.46904 0
M  V30 1636 H 154.395 -1.59043 4.82357 0
M  V30 1637 H 154.325 -3.23904 4.15203 0
M  V30 1638 H 156.816 -1.99291 3.21079 0
M  V30 1639 H 157.129 -3.53084 6.87424 0
M  V30 1640 H 155.474 -3.18156 6.17901 0
M  V30 1641 H 158.665 -2.39661 4.02095 0
M  V30 1642 H 158.838 -3.09812 5.6914 0
M  V30 1643 N 152.244 -1.26651 -0.937939 0
M  V30 1644 C 153.176 -1.04283 -2.04102 0
M  V30 1645 C 154.189 -0.00221014 -1.628 0
M  V30 1646 O 155.378 -0.242645 -1.76843 0
M  V30 1647 C 152.478 -0.557846 -3.34277 0
M  V30 1648 C 151.651 -1.66843 -4.04329 0
M  V30 1649 C 150.71 -1.18095 -5.12777 0
M  V30 1650 O 149.736 -1.87865 -5.37304 0
M  V30 1651 N 150.938 -0.0311006 -5.80492 0
M  V30 1652 H 153.703 -1.9927 -2.23856 0
M  V30 1653 H 151.264 -1.1808 -1.10764 0
M  V30 1654 H 153.256 -0.215836 -4.04124 0
M  V30 1655 H 151.826 0.298523 -3.11171 0
M  V30 1656 H 151.046 -2.18123 -3.28353 0
M  V30 1657 H 152.334 -2.41408 -4.47883 0
M  V30 1658 H 151.732 0.551486 -5.63005 0
M  V30 1659 H 150.289 0.251809 -6.51313 0
M  V30 1660 N 153.722 1.14298 -1.08507 0
M  V30 1661 C 154.97 1.84993 -0.813763 0
M  V30 1662 C 155.291 1.83405 0.662393 0
M  V30 1663 O 154.561 1.28319 1.48024 0
M  V30 1664 H 153.141 0.684966 -0.298045 0
M  V30 1665 H 155.803 1.385 -1.37126 0
M  V30 1666 H 154.899 2.89788 -1.15884 0
M  V30 1667 N 155.201 0.870884 1.31352 0
M  V30 1668 C 156.131 0.343096 2.30966 0
M  V30 1669 C 157.112 -0.566507 1.60389 0
M  V30 1670 O 158.297 -0.483336 1.88089 0
M  V30 1671 C 155.427 -0.455487 3.443 0
M  V30 1672 C 154.381 0.361103 4.26474 0
M  V30 1673 C 153.707 -0.563221 5.31725 0
M  V30 1674 C 155.007 1.59566 4.97329 0
M  V30 1675 H 156.701 1.17548 2.75359 0
M  V30 1676 H 154.247 0.566686 1.32381 0
M  V30 1677 H 156.2 -0.83525 4.13039 0
M  V30 1678 H 154.924 -1.32139 2.98675 0
M  V30 1679 H 153.583 0.722825 3.59403 0
M  V30 1680 H 153.231 -1.42643 4.82351 0
M  V30 1681 H 152.931 -0.0207409 5.87596 0
M  V30 1682 H 154.455 -0.939808 6.03324 0
M  V30 1683 H 155.869 1.28728 5.58661 0
M  V30 1684 H 154.266 2.07728 5.63 0
M  V30 1685 H 155.336 2.34798 4.24262 0
M  V30 1686 N 156.679 -1.44442 0.630414 0
M  V30 1687 C 157.589 -2.34476 -0.0761693 0
M  V30 1688 C 158.605 -1.52576 -0.836449 0
M  V30 1689 O 159.781 -1.85307 -0.788874 0
M  V30 1690 C 156.846 -3.30545 -1.04599 0
M  V30 1691 C 155.907 -4.28352 -0.28516 0
M  V30 1692 C 155.14 -5.19831 -1.20878 0
M  V30 1693 O 155.363 -5.15223 -2.44747 0
M  V30 1694 O 154.297 -5.97892 -0.693491 0
M  V30 1695 H 158.123 -2.96345 0.664324 0
M  V30 1696 H 155.708 -1.44203 0.39061 0
M  V30 1697 H 157.59 -3.89681 -1.60396 0
M  V30 1698 H 156.265 -2.7121 -1.76711 0
M  V30 1699 H 155.172 -3.72764 0.315837 0
M  V30 1700 H 156.505 -4.90605 0.395924 0
M  V30 1701 N 158.157 -0.370918 -1.53173 0
M  V30 1702 C 159.067 0.480823 -2.2962 0
M  V30 1703 C 160.083 1.08789 -1.35798 0
M  V30 1704 O 161.259 1.09768 -1.68858 0
M  V30 1705 C 158.324 1.60227 -3.07454 0
M  V30 1706 C 157.385 1.0222 -4.16953 0
M  V30 1707 C 156.618 2.0902 -4.91066 0
M  V30 1708 O 156.841 3.30222 -4.65091 0
M  V30 1709 O 155.775 1.71778 -5.76867 0
M  V30 1710 H 159.601 -0.141421 -3.03371 0
M  V30 1711 H 157.186 -0.135146 -1.48787 0
M  V30 1712 H 159.068 2.25417 -3.56041 0
M  V30 1713 H 157.743 2.20982 -2.36535 0
M  V30 1714 H 156.65 0.334064 -3.72605 0
M  V30 1715 H 157.983 0.459131 -4.90054 0
M  V30 1716 N 159.635 1.57281 -0.100228 0
M  V30 1717 C 160.565 2.17328 0.853857 0
M  V30 1718 C 161.546 1.10804 1.2906 0
M  V30 1719 O 162.731 1.38963 1.35657 0
M  V30 1720 C 159.861 2.75772 2.11109 0
M  V30 1721 C 158.815 3.87713 1.81279 0
M  V30 1722 C 158.141 4.32882 3.13874 0
M  V30 1723 C 159.441 5.10677 1.09574 0
M  V30 1724 H 161.135 2.97305 0.353545 0
M  V30 1725 H 158.681 1.43009 0.168612 0
M  V30 1726 H 160.634 3.16433 2.78296 0
M  V30 1727 H 159.358 1.93057 2.63432 0
M  V30 1728 H 158.017 3.476 1.16489 0
M  V30 1729 H 157.665 3.47051 3.64095 0
M  V30 1730 H 157.365 5.08358 2.94696 0
M  V30 1731 H 158.889 4.7618 3.82211 0
M  V30 1732 H 160.303 5.48474 1.66879 0
M  V30 1733 H 158.7 5.91615 1.00557 0
M  V30 1734 H 159.77 4.84835 0.0793299 0
M  V30 1735 N 161.113 -0.173488 1.56642 0
M  V30 1736 C 162.045 -1.23935 1.92802 0
M  V30 1737 C 163.058 -1.40589 0.820889 0
M  V30 1738 O 164.247 -1.40631 1.09933 0
M  V30 1739 C 161.347 -2.60837 2.16373 0
M  V30 1740 C 160.52 -2.6551 3.47596 0
M  V30 1741 C 159.579 -3.8376 3.60021 0
M  V30 1742 O 158.605 -3.69859 4.32658 0
M  V30 1743 N 159.807 -5.00127 2.94709 0
M  V30 1744 H 162.572 -0.932236 2.84832 0
M  V30 1745 H 160.133 -0.363268 1.57772 0
M  V30 1746 H 162.125 -3.38407 2.21952 0
M  V30 1747 H 160.695 -2.83948 1.30738 0
M  V30 1748 H 159.915 -1.74052 3.53694 0
M  V30 1749 H 161.203 -2.65641 4.33949 0
M  V30 1750 H 160.601 -5.14322 2.35563 0
M  V30 1751 H 159.158 -5.75567 3.05886 0
M  V30 1752 N 162.591 -1.51276 -0.441967 0
M  V30 1753 C 163.538 -1.72256 -1.53612 0
M  V30 1754 C 164.508 -0.564164 -1.56225 0
M  V30 1755 O 165.693 -0.798074 -1.73307 0
M  V30 1756 C 162.833 -1.84932 -2.91366 0
M  V30 1757 C 161.946 -3.12459 -2.98317 0
M  V30 1758 C 161.081 -3.15758 -4.27166 0
M  V30 1759 C 160.12 -4.37619 -4.27967 0
M  V30 1760 N 159.257 -4.38493 -5.48333 0
M  V30 1761 H 164.097 -2.65654 -1.35026 0
M  V30 1762 H 161.634 -1.31662 -0.656009 0
M  V30 1763 H 163.592 -1.90263 -3.7129 0
M  V30 1764 H 162.222 -0.949461 -3.08521 0
M  V30 1765 H 161.274 -3.1646 -2.11086 0
M  V30 1766 H 162.586 -4.02382 -2.94771 0
M  V30 1767 H 161.74 -3.19979 -5.15459 0
M  V30 1768 H 160.479 -2.23715 -4.33362 0
M  V30 1769 H 159.484 -4.33579 -3.38067 0
M  V30 1770 H 160.709 -5.30921 -4.23438 0
M  V30 1771 H 158.655 -3.49318 -5.55259 0
M  V30 1772 H 158.572 -5.22219 -5.46647 0
M  V30 1773 H 159.84 -4.469 -6.38671 0
M  V30 1774 N 164.069 0.697108 -1.41344 0
M  V30 1775 C 165.315 1.4593 -1.40827 0
M  V30 1776 C 165.648 1.94193 -0.0167098 0
M  V30 1777 O 164.923 1.69425 0.955263 0
M  V30 1778 C 165.206 2.67229 -2.41373 0
M  V30 1779 C 165.059 2.24741 -3.8963 0
M  V30 1780 C 166.378 3.69423 -2.39196 0
M  V30 1781 H 163.497 0.529303 -0.512842 0
M  V30 1782 H 166.139 0.794112 -1.72609 0
M  V30 1783 H 164.289 3.23982 -2.14401 0
M  V30 1784 H 165.961 1.73327 -4.27499 0
M  V30 1785 H 164.204 1.56542 -4.0457 0
M  V30 1786 H 164.875 3.1177 -4.55525 0
M  V30 1787 H 167.351 3.2234 -2.63128 0
M  V30 1788 H 166.227 4.51907 -3.11563 0
M  V30 1789 H 166.488 4.19012 -1.41001 0
M  V30 1790 N 165.547 1.27147 0.931209 0
M  V30 1791 C 166.477 1.12081 2.04842 0
M  V30 1792 C 167.458 0.0232364 1.70084 0
M  V30 1793 O 168.643 0.197085 1.93197 0
M  V30 1794 C 165.773 0.76354 3.38803 0
M  V30 1795 C 164.727 1.81396 3.87659 0
M  V30 1796 C 164.053 1.31075 5.18385 0
M  V30 1797 C 165.353 3.21739 4.11438 0
M  V30 1798 H 167.047 2.05537 2.17703 0
M  V30 1799 H 164.593 0.989603 1.04608 0
M  V30 1800 H 166.546 0.644982 4.16435 0
M  V30 1801 H 165.27 -0.206727 3.25945 0
M  V30 1802 H 163.929 1.92136 3.12217 0
M  V30 1803 H 163.577 0.330037 5.01916 0
M  V30 1804 H 163.277 2.013 5.52044 0
M  V30 1805 H 164.801 1.20506 5.98591 0
M  V30 1806 H 166.215 3.14019 4.79651 0
M  V30 1807 H 164.612 3.89644 4.56397 0
M  V30 1808 H 165.682 3.67054 3.16859 0
M  V30 1809 N 167.025 -1.13721 1.09112 0
M  V30 1810 C 168.436 -1.6648 0.845068 0
M  V30 1811 C 168.787 -1.85911 -0.62701 0
M  V30 1812 O 167.912 -1.57556 -1.48341 0
M  V30 1813 C 168.507 -3.02413 1.52748 0
M  V30 1814 C 167.066 -3.52176 1.32849 0
M  V30 1815 C 166.213 -2.27492 1.58564 0
M  V30 1816 H 169.164 -0.976872 1.25072 0
M  V30 1817 H 169.185 -3.68223 0.958752 0
M  V30 1818 H 168.697 -2.88238 2.59885 0
M  V30 1819 H 166.798 -3.7156 0.278137 0
M  V30 1820 H 166.911 -4.32499 2.0611 0
M  V30 1821 H 165.275 -2.33923 1.00758 0
M  V30 1822 H 166.058 -2.15886 2.66924 0
M  V30 1823 N 168.503 -0.877838 -1.30888 0
M  V30 1824 C 169.751 -0.491723 -1.96027 0
M  V30 1825 C 170.072 0.960827 -1.69685 0
M  V30 1826 O 169.342 1.67462 -1.01654 0
M  V30 1827 H 167.922 -0.17885 -0.725273 0
M  V30 1828 H 170.584 -1.11935 -1.59551 0
M  V30 1829 H 169.68 -0.656016 -3.05128 0
M  V30 1830 N 169.982 1.44106 -0.638065 0
M  V30 1831 C 171.23 2.01579 -0.145043 0
M  V30 1832 C 171.551 1.50496 1.24 0
M  V30 1833 O 170.821 0.711374 1.82527 0
M  V30 1834 H 169.401 0.745282 -0.05063 0
M  V30 1835 H 172.063 1.76516 -0.826327 0
M  V30 1836 H 171.159 3.11877 -0.118039 0
M  V30 1837 N 171.46 0.379036 1.52974 0
M  V30 1838 C 172.737 -0.263479 1.93817 0
M  V30 1839 C 173.117 -1.65244 1.31368 0
M  V30 1840 O 172.465 -2.23448 0.477856 0
M  V30 1841 C 172.675 -0.300166 3.47707 0
M  V30 1842 C 174.023 -0.534061 4.21228 0
M  V30 1843 O 175.047 -0.38081 3.54159 0
M  V30 1844 O 173.906 -0.833501 5.40106 0
M  V30 1845 H 171 -0.161149 0.811147 0
M  V30 1846 H 173.546 0.432798 1.64088 0
M  V30 1847 H 172.318 0.673138 3.85467 0
M  V30 1848 H 171.941 -1.04179 3.83709 0
M  V30 1849 N 172.938 -1.57226 0.108567 0
M  V30 1850 C 174.166 -1.99179 -0.559954 0
M  V30 1851 C 174.581 -0.988022 -1.60884 0
M  V30 1852 O 173.938 0.0205512 -1.82488 0
M  V30 1853 C 173.989 -3.41159 -1.19552 0
M  V30 1854 O 173.71 -4.37694 -0.188577 0
M  V30 1855 C 175.211 -3.98188 -1.94837 0
M  V30 1856 H 172.431 -0.654228 -0.149088 0
M  V30 1857 H 174.975 -2.03598 0.19183 0
M  V30 1858 H 173.13 -3.37711 -1.89815 0
M  V30 1859 H 173.544 -5.20469 -0.649014 0
M  V30 1860 H 175.018 -4.99644 -2.34648 0
M  V30 1861 H 175.495 -3.3675 -2.81951 0
M  V30 1862 H 176.101 -4.0515 -1.2936 0
M  V30 1863 N 174.416 0.165178 -1.56732 0
M  V30 1864 C 175.646 0.894919 -1.86212 0
M  V30 1865 C 176.054 1.76066 -0.692627 0
M  V30 1866 O 175.397 1.80387 0.347303 0
M  V30 1867 C 175.459 1.8174 -3.10179 0
M  V30 1868 C 175.123 1.13064 -4.42793 0
M  V30 1869 C 176.12 0.493169 -5.17556 0
M  V30 1870 C 173.805 1.12556 -4.89527 0
M  V30 1871 C 175.799 -0.140209 -6.37246 0
M  V30 1872 C 173.486 0.488366 -6.09145 0
M  V30 1873 C 174.484 -0.143411 -6.82849 0
M  V30 1874 O 174.172 -0.77055 -8.00199 0
M  V30 1875 H 173.904 0.265114 -0.621844 0
M  V30 1876 H 176.458 0.168242 -2.0471 0
M  V30 1877 H 174.688 2.58455 -2.87642 0
M  V30 1878 H 176.377 2.4175 -3.26055 0
M  V30 1879 H 177.143 0.489023 -4.82528 0
M  V30 1880 H 173.022 1.60672 -4.32094 0
M  V30 1881 H 176.566 -0.633932 -6.94714 0
M  V30 1882 H 172.463 0.490116 -6.43637 0
M  V30 1883 H 173.231 -0.670408 -8.1575 0
M  V30 1884 N 175.894 1.51508 0.433938 0
M  V30 1885 C 176.827 1.67756 1.54704 0
M  V30 1886 C 177.805 0.525127 1.53887 0
M  V30 1887 O 178.989 0.749393 1.72963 0
M  V30 1888 C 176.116 1.69424 2.9328 0
M  V30 1889 C 175.162 2.90673 3.12108 0
M  V30 1890 S 175.995 4.51431 2.88046 0
M  V30 1891 C 177.151 4.55849 4.28897 0
M  V30 1892 H 177.384 2.61904 1.40689 0
M  V30 1893 H 174.917 1.41235 0.62386 0
M  V30 1894 H 176.875 1.7107 3.73156 0
M  V30 1895 H 175.536 0.764464 3.04655 0
M  V30 1896 H 174.729 2.88251 4.13434 0
M  V30 1897 H 174.331 2.86786 2.40062 0
M  V30 1898 H 176.623 4.31699 5.22152 0
M  V30 1899 H 177.566 5.57676 4.36351 0
M  V30 1900 H 177.974 3.85137 4.12711 0
M  V30 1901 N 177.372 -0.689602 1.41712 0
M  V30 1902 C 178.322 -1.79571 1.40493 0
M  V30 1903 C 179.306 -1.58473 0.278409 0
M  V30 1904 O 180.498 -1.69204 0.519532 0
M  V30 1905 C 177.627 -3.17923 1.29536 0
M  V30 1906 C 176.713 -3.44695 2.47075 0
M  V30 1907 N 177.104 -3.42132 3.72531 0
M  V30 1908 C 175.402 -3.75269 2.41017 0
M  V30 1909 C 176.103 -3.67976 4.50521 0
M  V30 1910 N 175.079 -3.88014 3.80718 0
M  V30 1911 H 178.881 -1.75961 2.35404 0
M  V30 1912 H 176.395 -0.889839 1.35851 0
M  V30 1913 H 178.392 -3.97167 1.26745 0
M  V30 1914 H 177.052 -3.22741 0.356153 0
M  V30 1915 H 178.063 -3.22375 4.05333 0
M  V30 1916 H 174.74 -3.87421 1.55599 0
M  V30 1917 H 176.13 -3.7208 5.59469 0
M  V30 1918 N 178.85 -1.27639 -0.924453 0
M  V30 1919 C 179.76 -1.12466 -2.05885 0
M  V30 1920 C 180.776 -0.053869 -1.73917 0
M  V30 1921 O 181.952 -0.261012 -1.99702 0
M  V30 1922 C 179.017 -0.776768 -3.37886 0
M  V30 1923 C 178.078 -1.92878 -3.83532 0
M  V30 1924 C 177.311 -1.59739 -5.09234 0
M  V30 1925 O 177.534 -0.506782 -5.68144 0
M  V30 1926 O 176.468 -2.43761 -5.50331 0
M  V30 1927 H 180.294 -2.07671 -2.21599 0
M  V30 1928 H 177.879 -1.06857 -1.04413 0
M  V30 1929 H 179.761 -0.596229 -4.17161 0
M  V30 1930 H 178.436 0.145732 -3.23372 0
M  V30 1931 H 177.343 -2.1644 -3.0513 0
M  V30 1932 H 178.676 -2.8316 -4.02593 0
M  V30 1933 N 180.328 1.1314 -1.09713 0
M  V30 1934 C 181.576 1.84119 -0.833338 0
M  V30 1935 C 181.897 1.84097 0.642904 0
M  V30 1936 O 181.167 1.29881 1.46655 0
M  V30 1937 H 179.747 0.681766 -0.305293 0
M  V30 1938 H 182.409 1.37038 -1.38588 0
M  V30 1939 H 181.505 2.88543 -1.18951 0
M  V30 1940 N 181.806 0.884767 1.30421 0
M  V30 1941 C 183.053 0.503105 1.96151 0
M  V30 1942 C 183.381 -0.947676 1.69851 0
M  V30 1943 O 182.636 -1.68467 0.995861 0
M  V30 1944 C 182.935 0.724318 3.49983 0
M  V30 1945 C 182.601 2.15015 3.96332 0
M  V30 1946 C 181.263 2.54005 4.08699 0
M  V30 1947 C 183.615 3.07936 4.20505 0
M  V30 1948 C 180.943 3.85128 4.42599 0
M  V30 1949 C 183.295 4.3859 4.55874 0
M  V30 1950 C 181.959 4.77474 4.66449 0
M  V30 1951 H 181.229 0.184099 0.717766 0
M  V30 1952 H 183.876 1.12058 1.55291 0
M  V30 1953 H 182.181 0.0238086 3.91793 0
M  V30 1954 H 183.878 0.408617 3.98913 0
M  V30 1955 H 180.468 1.8375 3.87213 0
M  V30 1956 H 184.652 2.79033 4.10431 0
M  V30 1957 H 179.908 4.14996 4.48986 0
M  V30 1958 H 184.082 5.10629 4.7353 0
M  V30 1959 H 181.709 5.79115 4.92473 0
M  V30 1960 N 183.284 -1.43765 0.645699 0
M  V30 1961 C 184.194 -2.34544 -0.0512957 0
M  V30 1962 C 185.21 -1.53455 -0.82022 0
M  V30 1963 O 186.386 -1.86133 -0.769176 0
M  V30 1964 C 183.451 -3.31636 -1.01087 0
M  V30 1965 C 182.512 -4.2863 -0.239712 0
M  V30 1966 C 181.745 -5.21084 -1.15358 0
M  V30 1967 O 181.968 -5.1779 -2.39269 0
M  V30 1968 O 180.902 -5.98593 -0.630038 0
M  V30 1969 H 184.728 -2.95624 0.695718 0
M  V30 1970 H 182.313 -1.43781 0.405882 0
M  V30 1971 H 184.195 -3.9136 -1.56254 0
M  V30 1972 H 182.87 -2.73069 -1.73824 0
M  V30 1973 H 181.777 -3.72408 0.355356 0
M  V30 1974 H 183.11 -4.90157 0.447936 0
M  V30 1975 N 184.763 -0.387143 -1.52771 0
M  V30 1976 C 186.179 -0.037007 -1.59557 0
M  V30 1977 C 186.379 1.44801 -1.40124 0
M  V30 1978 O 185.435 2.21227 -1.21716 0
M  V30 1979 C 186.748 -0.512256 -2.96305 0
M  V30 1980 C 188.296 -0.468328 -3.09476 0
M  V30 1981 C 188.771 -0.919731 -4.4867 0
M  V30 1982 N 190.262 -0.875656 -4.54848 0
M  V30 1983 C 190.997 -1.19637 -5.6078 0
M  V30 1984 N 190.493 -1.58745 -6.74368 0
M  V30 1985 N 192.286 -1.11776 -5.50874 0
M  V30 1986 H 184.437 -1.35395 -1.63652 0
M  V30 1987 H 186.7 -0.554818 -0.768688 0
M  V30 1988 H 186.406 -1.54935 -3.15734 0
M  V30 1989 H 186.28 0.089805 -3.77093 0
M  V30 1990 H 188.667 0.559671 -2.89744 0
M  V30 1991 H 188.748 -1.10616 -2.30646 0
M  V30 1992 H 188.392 -1.94595 -4.69143 0
M  V30 1993 H 188.322 -0.258927 -5.25963 0
M  V30 1994 H 190.813 -0.587843 -3.733 0
M  V30 1995 H 191.126 -1.81586 -7.51163 0
M  V30 1996 H 189.471 -1.6263 -6.75705 0
M  V30 1997 H 192.662 -0.811264 -4.61016 0
M  V30 1998 H 192.835 -1.37103 -6.3333 0
M  V30 1999 N 186.241 1.57166 -0.116904 0
M  V30 2000 C 187.204 2.14039 0.819742 0
M  V30 2001 C 188.204 1.07477 1.19605 0
M  V30 2002 O 189.394 1.33263 1.1219 0
M  V30 2003 C 186.526 2.67891 2.10826 0
M  V30 2004 H 187.719 2.98128 0.325511 0
M  V30 2005 H 185.272 1.55739 0.132312 0
M  V30 2006 H 186.007 1.87384 2.64685 0
M  V30 2007 H 185.792 3.45823 1.84793 0
M  V30 2008 H 187.282 3.11809 2.77785 0
M  V30 2009 N 187.719 -0.156864 1.56817 0
M  V30 2010 C 188.944 -0.890331 1.87318 0
M  V30 2011 C 189.369 -1.74394 0.704855 0
M  V30 2012 O 188.727 -1.77972 -0.345786 0
M  V30 2013 C 188.775 -1.73102 3.16336 0
M  V30 2014 O 187.879 -2.83422 2.99576 0
M  V30 2015 H 187.22 -0.24857 0.615718 0
M  V30 2016 H 189.75 -0.150649 2.04045 0
M  V30 2017 H 189.76 -2.12803 3.48107 0
M  V30 2018 H 188.435 -1.10412 4.00976 0
M  V30 2019 H 187.012 -2.47199 2.7919 0
M  V30 2020 N 189.197 -1.51736 -0.425897 0
M  V30 2021 C 190.107 -1.76738 -1.54275 0
M  V30 2022 C 191.123 -0.65211 -1.61318 0
M  V30 2023 O 192.299 -0.935654 -1.78346 0
M  V30 2024 C 189.364 -1.89755 -2.90162 0
M  V30 2025 C 188.425 -3.13633 -2.93143 0
M  V30 2026 C 187.658 -3.2602 -4.22548 0
M  V30 2027 O 187.881 -2.44067 -5.15546 0
M  V30 2028 O 186.815 -4.19071 -4.32046 0
M  V30 2029 H 190.641 -2.71502 -1.36089 0
M  V30 2030 H 188.226 -1.36376 -0.610069 0
M  V30 2031 H 190.108 -2.00236 -3.70788 0
M  V30 2032 H 188.783 -0.981785 -3.08452 0
M  V30 2033 H 187.69 -3.08622 -2.11431 0
M  V30 2034 H 189.023 -4.04936 -2.798 0
M  V30 2035 N 190.675 0.682077 -1.42076 0
M  V30 2036 C 191.607 1.80755 -1.40926 0
M  V30 2037 C 192.62 1.59833 -0.309398 0
M  V30 2038 O 193.809 1.69087 -0.572014 0
M  V30 2039 C 190.909 3.17744 -1.17865 0
M  V30 2040 C 190.082 3.65578 -2.40149 0
M  V30 2041 C 189.141 4.81277 -2.12742 0
M  V30 2042 O 188.167 4.92197 -2.85887 0
M  V30 2043 N 189.369 5.69474 -1.12602 0
M  V30 2044 H 192.134 1.82229 -2.37935 0
M  V30 2045 H 189.695 0.864903 -1.36861 0
M  V30 2046 H 191.687 3.9279 -0.9746 0
M  V30 2047 H 190.257 3.11214 -0.294068 0
M  V30 2048 H 189.477 2.81291 -2.76169 0
M  V30 2049 H 190.765 3.94278 -3.21593 0
M  V30 2050 H 190.163 5.63297 -0.520899 0
M  V30 2051 H 188.72 6.44363 -0.981842 0
M  V30 2052 N 192.153 1.28127 0.917671 0
M  V30 2053 C 193.402 1.14432 1.66097 0
M  V30 2054 C 193.715 -0.307247 1.93172 0
M  V30 2055 O 194.921 -0.565259 2.65551 0
M  V30 2056 C 193.377 2.00015 2.99202 0
M  V30 2057 C 192.985 3.49889 2.79789 0
M  V30 2058 C 194.729 1.94996 3.77064 0
M  V30 2059 C 192.636 4.27636 4.08511 0
M  V30 2060 H 191.566 0.424662 0.62304 0
M  V30 2061 H 194.217 1.52628 1.01868 0
M  V30 2062 H 192.599 1.54672 3.64544 0
M  V30 2063 H 193.773 4.03162 2.23152 0
M  V30 2064 H 192.088 3.56392 2.15345 0
M  V30 2065 H 194.685 2.50354 4.72469 0
M  V30 2066 H 195.028 0.925819 4.05875 0
M  V30 2067 H 195.561 2.38287 3.18534 0
M  V30 2068 H 192.3 5.30615 3.84874 0
M  V30 2069 H 191.82 3.79137 4.64774 0
M  V30 2070 H 193.499 4.37346 4.76799 0
M  V30 2071 N 193.631 -1.12557 1.10312 0
M  V30 2072 C 194.861 -1.87592 0.865617 0
M  V30 2073 C 195.269 -1.79851 -0.587389 0
M  V30 2074 O 194.612 -1.16949 -1.41664 0
M  V30 2075 C 194.674 -3.37665 1.23381 0
M  V30 2076 C 194.338 -3.69181 2.69359 0
M  V30 2077 C 195.335 -3.67652 3.67597 0
M  V30 2078 C 193.02 -3.98555 3.05711 0
M  V30 2079 C 195.014 -3.95053 5.00212 0
M  V30 2080 C 192.701 -4.25616 4.38514 0
M  V30 2081 C 193.699 -4.23851 5.35574 0
M  V30 2082 O 193.387 -4.50242 6.65986 0
M  V30 2083 H 193.119 -0.600442 0.310557 0
M  V30 2084 H 195.673 -1.4335 1.47105 0
M  V30 2085 H 193.903 -3.82454 0.571467 0
M  V30 2086 H 195.592 -3.94041 0.973994 0
M  V30 2087 H 196.358 -3.45024 3.40857 0
M  V30 2088 H 192.237 -3.99071 2.30789 0
M  V30 2089 H 195.781 -3.93591 5.75962 0
M  V30 2090 H 191.678 -4.47718 4.64994 0
M  V30 2091 H 192.446 -4.67867 6.71597 0
M  V30 2092 N 195.109 -0.891671 -1.2995 0
M  V30 2093 C 196.339 -0.527893 -1.99742 0
M  V30 2094 C 196.747 0.88979 -1.66971 0
M  V30 2095 O 196.09 1.59766 -0.906667 0
M  V30 2096 C 196.152 -0.630804 -3.53922 0
M  V30 2097 C 195.816 -2.01401 -4.10228 0
M  V30 2098 C 196.813 -2.98422 -4.25724 0
M  V30 2099 C 194.498 -2.32121 -4.45449 0
M  V30 2100 C 196.492 -4.24293 -4.75662 0
M  V30 2101 C 194.179 -3.58237 -4.95086 0
M  V30 2102 C 195.177 -4.54137 -5.10146 0
M  V30 2103 O 194.865 -5.78014 -5.58708 0
M  V30 2104 H 194.597 -0.201953 -0.645129 0
M  V30 2105 H 197.151 -1.20076 -1.66646 0
M  V30 2106 H 195.381 0.0990616 -3.86573 0
M  V30 2107 H 197.07 -0.277338 -4.04951 0
M  V30 2108 H 197.836 -2.76001 -3.98809 0
M  V30 2109 H 193.715 -1.5824 -4.32991 0
M  V30 2110 H 197.259 -4.99153 -4.87332 0
M  V30 2111 H 193.156 -3.80491 -5.21437 0
M  V30 2112 H 193.924 -5.8049 -5.77039 0
M  V30 2113 N 196.587 1.43421 -0.653314 0
M  V30 2114 C 197.497 2.34568 0.0388565 0
M  V30 2115 C 198.513 1.53888 0.81207 0
M  V30 2116 O 199.689 1.86539 0.759294 0
M  V30 2117 C 196.754 3.32167 0.993269 0
M  V30 2118 C 195.815 4.28751 0.216977 0
M  V30 2119 C 195.048 5.21688 1.12593 0
M  V30 2120 O 195.271 5.19052 2.36519 0
M  V30 2121 O 194.205 5.98919 0.598284 0
M  V30 2122 H 198.031 2.95251 -0.711386 0
M  V30 2123 H 195.616 1.43564 -0.413502 0
M  V30 2124 H 197.498 3.92183 1.54176 0
M  V30 2125 H 196.173 2.73987 1.72374 0
M  V30 2126 H 195.08 3.72215 -0.375101 0
M  V30 2127 H 196.413 4.89913 -0.473924 0
M  V30 2128 N 198.065 0.39524 1.52563 0
M  V30 2129 C 199.013 -0.451859 2.28169 0
M  V30 2130 C 200.007 -1.05792 1.32304 0
M  V30 2131 O 201.213 -0.997718 1.49818 0
M  V30 2132 H 197.588 -0.164481 0.733792 0
M  V30 2133 H 199.559 0.207199 2.9768 0
M  V30 2134 C 198.308 -1.56385 3.10546 0
M  V30 2135 H 197.631 -1.10682 3.84174 0
M  V30 2136 H 199.071 -2.13067 3.66577 0
M  V30 2137 C 197.53 -2.52328 2.23231 0
M  V30 2138 O 198.06 -3.5588 1.86312 0
M  V30 2139 N 196.266 -2.22209 1.87274 0
M  V30 2140 H 195.813 -1.38033 2.17496 0
M  V30 2141 H 195.771 -2.86652 1.29143 0
M  V30 2142 N 199.544 -1.57102 0.125237 0
M  V30 2143 C 200.96 -1.57915 -0.231322 0
M  V30 2144 C 201.16 -1.13833 -1.66266 0
M  V30 2145 O 200.216 -0.828581 -2.38518 0
M  V30 2146 C 201.529 -3.00699 0.00766489 0
M  V30 2147 C 203.077 -3.12947 -0.0577483 0
M  V30 2148 C 203.552 -4.57742 0.153626 0
M  V30 2149 N 205.043 -4.63092 0.0998073 0
M  V30 2150 C 205.778 -5.72905 0.238174 0
M  V30 2151 N 205.274 -6.91445 0.433057 0
M  V30 2152 N 207.067 -5.6182 0.177308 0
M  V30 2153 H 199.218 -1.84055 1.06007 0
M  V30 2154 H 201.481 -0.850905 0.417929 0
M  V30 2155 H 201.187 -3.3726 0.997431 0
M  V30 2156 H 201.061 -3.70236 -0.721452 0
M  V30 2157 H 203.448 -2.7624 -1.03804 0
M  V30 2158 H 203.529 -2.4594 0.70335 0
M  V30 2159 H 203.173 -4.95149 1.13092 0
M  V30 2160 H 203.103 -5.22848 -0.627534 0
M  V30 2161 H 205.594 -3.77871 -0.047051 0
M  V30 2162 H 205.907 -7.70985 0.529332 0
M  V30 2163 H 204.252 -6.93415 0.469109 0
M  V30 2164 H 207.443 -4.68093 0.0259748 0
M  V30 2165 H 207.616 -6.47357 0.288582 0
M  V30 2166 N 201.022 0.148545 -1.56898 0
M  V30 2167 C 201.954 1.20852 -1.9475 0
M  V30 2168 C 202.967 1.39265 -0.843152 0
M  V30 2169 O 204.156 1.38864 -1.12156 0
M  V30 2170 C 201.256 2.57362 -2.20495 0
M  V30 2171 C 200.429 2.59947 -3.51776 0
M  V30 2172 C 199.488 3.77984 -3.6608 0
M  V30 2173 O 198.514 3.62929 -4.38487 0
M  V30 2174 N 199.716 4.95375 -3.02629 0
M  V30 2175 H 202.481 0.886804 -2.86279 0
M  V30 2176 H 200.042 0.338121 -1.5833 0
M  V30 2177 H 202.034 3.34833 -2.27307 0
M  V30 2178 H 200.604 2.81832 -1.35238 0
M  V30 2179 H 199.824 1.68403 -3.56419 0
M  V30 2180 H 201.112 2.58704 -4.38121 0
M  V30 2181 H 200.51 5.10509 -2.43715 0
M  V30 2182 H 199.067 5.70627 -3.15004 0
M  V30 2183 N 202.5 1.5196 0.417844 0
M  V30 2184 C 203.748 1.65263 1.16329 0
M  V30 2185 C 204.069 0.380634 1.91249 0
M  V30 2186 O 203.339 -0.604214 1.86349 0
M  V30 2187 H 201.919 0.60912 0.432414 0
M  V30 2188 H 204.581 1.88969 0.477162 0
M  V30 2189 H 203.677 2.4896 1.88217 0
M  V30 2190 N 203.978 -0.674533 1.42435 0
M  V30 2191 C 205.208 -1.46071 1.46105 0
M  V30 2192 C 205.616 -1.89067 0.0709605 0
M  V30 2193 O 204.959 -1.58731 -0.924677 0
M  V30 2194 C 205.021 -2.74145 2.32561 0
M  V30 2195 C 204.685 -2.53224 3.8043 0
M  V30 2196 C 205.682 -2.17809 4.72075 0
M  V30 2197 C 203.367 -2.6821 4.24698 0
M  V30 2198 C 205.361 -1.97648 6.05982 0
M  V30 2199 C 203.048 -2.47665 5.58664 0
M  V30 2200 C 204.046 -2.12437 6.49122 0
M  V30 2201 O 203.734 -1.9209 7.80613 0
M  V30 2202 H 203.466 -0.455959 0.499076 0
M  V30 2203 H 206.02 -0.836193 1.87609 0
M  V30 2204 H 204.25 -3.3908 1.85908 0
M  V30 2205 H 205.939 -3.36028 2.27683 0
M  V30 2206 H 206.705 -2.05826 4.39159 0
M  V30 2207 H 202.584 -2.94609 3.54579 0
M  V30 2208 H 206.128 -1.70075 6.7655 0
M  V30 2209 H 202.025 -2.59244 5.91154 0
M  V30 2210 H 202.793 -2.06686 7.91974 0
M  V30 2211 N 205.456 -1.28612 -0.910864 0
M  V30 2212 C 206.872 -1.06381 -1.18976 0
M  V30 2213 C 207.072 0.191998 -2.00583 0
M  V30 2214 O 206.128 0.892869 -2.36187 0
M  V30 2215 C 207.441 -2.31295 -1.92154 0
M  V30 2216 C 208.989 -2.36503 -2.05025 0
M  V30 2217 C 209.464 -3.61191 -2.81612 0
M  V30 2218 N 210.955 -3.61847 -2.89172 0
M  V30 2219 C 211.69 -4.55004 -3.4894 0
M  V30 2220 N 211.186 -5.58482 -4.09963 0
M  V30 2221 N 212.979 -4.42594 -3.46506 0
M  V30 2222 H 205.13 -2.09221 -0.366094 0
M  V30 2223 H 207.393 -0.921003 -0.224629 0
M  V30 2224 H 207.099 -3.228 -1.39618 0
M  V30 2225 H 206.973 -2.37934 -2.9269 0
M  V30 2226 H 209.36 -1.45494 -2.5674 0
M  V30 2227 H 209.441 -2.33857 -1.03657 0
M  V30 2228 H 209.085 -4.52545 -2.30576 0
M  V30 2229 H 209.015 -3.61092 -3.83302 0
M  V30 2230 H 211.506 -2.87022 -2.45819 0
M  V30 2231 H 211.819 -6.25704 -4.53557 0
M  V30 2232 H 210.164 -5.62305 -4.08459 0
M  V30 2233 H 213.355 -3.60953 -2.98045 0
M  V30 2234 H 213.528 -5.15381 -3.92793 0
M  V30 2235 N 206.934 1.1197 -1.10907 0
M  V30 2236 C 208.162 1.87402 -0.876824 0
M  V30 2237 C 208.577 1.79894 0.573025 0
M  V30 2238 O 207.934 1.17629 1.39534 0
M  V30 2239 C 207.985 3.36428 -1.32282 0
M  V30 2240 O 207.706 3.43765 -2.71582 0
M  V30 2241 C 209.207 4.28783 -1.12518 0
M  V30 2242 H 206.427 0.592793 -0.314384 0
M  V30 2243 H 208.971 1.41649 -1.47499 0
M  V30 2244 H 207.126 3.79706 -0.768229 0
M  V30 2245 H 207.54 4.3652 -2.90776 0
M  V30 2246 H 209.014 5.31613 -1.48633 0
M  V30 2247 H 209.491 4.39153 -0.0642394 0
M  V30 2248 H 210.097 3.91291 -1.66648 0
M  V30 2249 N 208.412 0.89855 1.29475 0
M  V30 2250 C 209.375 0.380272 2.26023 0
M  V30 2251 C 210.375 -0.484891 1.53315 0
M  V30 2252 O 211.565 -0.290108 1.71767 0
M  V30 2253 C 208.697 -0.45651 3.3783 0
M  V30 2254 H 209.89 1.23295 2.73383 0
M  V30 2255 H 207.443 0.676589 1.40897 0
M  V30 2256 H 208.178 -1.32922 2.95808 0
M  V30 2257 H 207.963 0.163393 3.91759 0
M  V30 2258 H 209.453 -0.810466 4.0966 0
M  V30 2259 N 209.89 -1.43072 0.660911 0
M  V30 2260 C 211.115 -2.06584 0.183805 0
M  V30 2261 C 211.54 -1.49257 -1.14472 0
M  V30 2262 O 210.898 -0.605528 -1.70889 0
M  V30 2263 C 210.946 -3.60418 0.114434 0
M  V30 2264 O 210.05 -4.01981 -0.921137 0
M  V30 2265 H 209.391 -0.656669 0.0983994 0
M  V30 2266 H 211.921 -1.83447 0.906006 0
M  V30 2267 H 211.931 -4.07946 -0.0663394 0
M  V30 2268 H 210.606 -4.01519 1.08422 0
M  V30 2269 H 209.183 -3.66029 -0.71253 0
M  V30 2270 N 211.368 -0.403325 -1.52352 0
M  V30 2271 C 212.614 0.174605 -2.02047 0
M  V30 2272 C 212.947 1.45282 -1.28867 0
M  V30 2273 O 212.222 1.90483 -0.393257 0
M  V30 2274 C 212.505 0.428238 -3.57545 0
M  V30 2275 C 212.358 -0.866248 -4.4138 0
M  V30 2276 C 213.677 1.21287 -4.23057 0
M  V30 2277 H 210.796 0.0619851 -0.734389 0
M  V30 2278 H 213.438 -0.53565 -1.82293 0
M  V30 2279 H 211.588 1.03327 -3.74507 0
M  V30 2280 H 213.26 -1.50265 -4.3614 0
M  V30 2281 H 211.503 -1.47851 -4.07827 0
M  V30 2282 H 212.174 -0.643249 -5.48239 0
M  V30 2283 H 214.65 0.700703 -4.10158 0
M  V30 2284 H 213.526 1.35909 -5.31808 0
M  V30 2285 H 213.787 2.23193 -3.81625 0
M  V30 2286 N 212.846 1.57033 -0.133567 0
M  V30 2287 C 214.095 1.94861 0.520768 0
M  V30 2288 C 214.408 1.02012 1.66892 0
M  V30 2289 O 215.614 1.29365 2.38699 0
M  V30 2290 C 214.07 3.46362 0.977809 0
M  V30 2291 C 213.678 4.47773 -0.142674 0
M  V30 2292 C 215.422 3.93083 1.60269 0
M  V30 2293 C 213.329 5.90468 0.331883 0
M  V30 2294 H 212.259 0.727453 0.198315 0
M  V30 2295 H 214.91 1.82227 -0.215759 0
M  V30 2296 H 213.292 3.54282 1.7692 0
M  V30 2297 H 214.466 4.51536 -0.919317 0
M  V30 2298 H 212.781 4.10891 -0.675124 0
M  V30 2299 H 215.378 4.97121 1.96914 0
M  V30 2300 H 215.721 3.33876 2.48662 0
M  V30 2301 H 216.254 3.88025 0.876453 0
M  V30 2302 H 212.993 6.53463 -0.516341 0
M  V30 2303 H 212.513 5.90094 1.07469 0
M  V30 2304 H 214.192 6.42179 0.788332 0
M  V30 2305 N 214.325 -0.140222 1.56975 0
M  V30 2306 C 215.574 -0.850152 1.82908 0
M  V30 2307 C 215.887 -1.82028 0.715892 0
M  V30 2308 O 217.093 -2.57485 0.861016 0
M  V30 2309 C 215.549 -1.5625 3.24213 0
M  V30 2310 C 215.157 -0.63443 4.43485 0
M  V30 2311 C 216.901 -2.25881 3.59413 0
M  V30 2312 C 214.808 -1.34879 5.75814 0
M  V30 2313 H 213.738 -0.321221 0.682153 0
M  V30 2314 H 216.389 -0.102874 1.83211 0
M  V30 2315 H 214.771 -2.35565 3.18316 0
M  V30 2316 H 215.945 0.12398 4.60633 0
M  V30 2317 H 214.26 -0.0461836 4.16374 0
M  V30 2318 H 216.857 -2.79978 4.5554 0
M  V30 2319 H 217.2 -3.02693 2.85802 0
M  V30 2320 H 217.733 -1.53477 3.67001 0
M  V30 2321 H 214.472 -0.622385 6.52539 0
M  V30 2322 H 213.992 -2.07974 5.6259 0
M  V30 2323 H 215.671 -1.88784 6.18845 0
M  V30 2324 N 215.803 -1.52179 -0.40978 0
M  V30 2325 C 216.766 -1.74853 -1.48186 0
M  V30 2326 C 217.766 -0.618417 -1.48433 0
M  V30 2327 O 218.956 -0.886286 -1.49969 0
M  V30 2328 C 216.088 -1.8303 -2.87598 0
M  V30 2329 H 217.281 -2.70559 -1.29374 0
M  V30 2330 H 214.834 -1.42586 -0.640233 0
M  V30 2331 H 215.569 -0.89236 -3.11781 0
M  V30 2332 H 215.354 -2.65187 -2.88822 0
M  V30 2333 H 216.844 -2.02316 -3.65319 0
M  V30 2334 N 217.281 0.66697 -1.42791 0
M  V30 2335 C 218.211 1.79218 -1.49677 0
M  V30 2336 C 219.192 1.66405 -0.352623 0
M  V30 2337 O 220.377 1.85708 -0.567993 0
M  V30 2338 C 217.507 3.17565 -1.40605 0
M  V30 2339 C 216.461 3.45124 -2.53127 0
M  V30 2340 C 215.787 4.83127 -2.29112 0
M  V30 2341 C 217.087 3.41236 -3.95418 0
M  V30 2342 H 218.781 1.73713 -2.43853 0
M  V30 2343 H 216.327 0.83432 -1.17367 0
M  V30 2344 H 218.28 3.96022 -1.44029 0
M  V30 2345 H 217.004 3.23767 -0.429271 0
M  V30 2346 H 215.663 2.69031 -2.49034 0
M  V30 2347 H 215.311 4.85988 -1.29709 0
M  V30 2348 H 215.011 5.02528 -3.04531 0
M  V30 2349 H 216.535 5.63859 -2.34297 0
M  V30 2350 H 217.949 4.09651 -4.01073 0
M  V30 2351 H 216.346 3.72173 -4.70752 0
M  V30 2352 H 217.416 2.39665 -4.21532 0
M  V30 2353 N 218.759 1.29093 0.90403 0
M  V30 2354 C 219.987 1.19689 1.68766 0
M  V30 2355 C 220.402 -0.243113 1.87228 0
M  V30 2356 O 219.759 -1.16326 1.40621 0
M  V30 2357 C 219.81 1.90144 3.07453 0
M  V30 2358 O 219.531 3.2852 2.89838 0
M  V30 2359 C 221.032 1.87162 4.01852 0
M  V30 2360 H 218.252 0.415035 0.527244 0
M  V30 2361 H 220.796 1.7039 1.13082 0
M  V30 2362 H 218.951 1.43289 3.59926 0
M  V30 2363 H 219.365 3.63944 3.77684 0
M  V30 2364 H 220.839 2.41032 4.96596 0
M  V30 2365 H 221.316 0.84617 4.30972 0
M  V30 2366 H 221.922 2.33741 3.5531 0
M  V30 2367 N 220.237 -1.11381 1.11499 0
M  V30 2368 C 221.514 -1.7955 0.775965 0
M  V30 2369 C 221.894 -1.97859 -0.73588 0
M  V30 2370 O 221.242 -1.56376 -1.66609 0
M  V30 2371 C 221.452 -3.13196 1.53977 0
M  V30 2372 C 222.8 -3.88227 1.71944 0
M  V30 2373 O 223.824 -3.22887 1.50407 0
M  V30 2374 O 222.683 -5.05477 2.07738 0
M  V30 2375 H 219.777 -0.777728 0.28119 0
M  V30 2376 H 222.323 -1.18118 1.21845 0
M  V30 2377 H 221.095 -2.95229 2.56818 0
M  V30 2378 H 220.718 -3.82342 1.09088 0
M  V30 2379 N 221.715 -0.905404 -1.28997 0
M  V30 2380 C 222.963 -0.533192 -1.9494 0
M  V30 2381 C 223.284 0.924618 -1.71685 0
M  V30 2382 O 222.554 1.65268 -1.05183 0
M  V30 2383 H 221.134 -0.194194 -0.721317 0
M  V30 2384 H 223.796 -1.15294 -1.57141 0
M  V30 2385 H 222.892 -0.72059 -3.03667 0
M  V30 2386 N 223.193 1.4272 -0.668489 0
M  V30 2387 C 224.103 2.34596 0.0139753 0
M  V30 2388 C 225.119 1.5474 0.795703 0
M  V30 2389 O 226.295 1.87334 0.739466 0
M  V30 2390 C 223.36 3.33202 0.957982 0
M  V30 2391 C 222.421 4.28957 0.17149 0
M  V30 2392 C 221.654 5.22853 1.07053 0
M  V30 2393 O 221.877 5.21531 2.31001 0
M  V30 2394 O 220.811 5.9952 0.534727 0
M  V30 2395 H 224.637 2.9448 -0.742661 0
M  V30 2396 H 222.222 1.43117 -0.428705 0
M  V30 2397 H 224.104 3.93796 1.50008 0
M  V30 2398 H 222.779 2.758 1.69458 0
M  V30 2399 H 221.686 3.71796 -0.414558 0
M  V30 2400 H 223.019 4.89383 -0.52586 0
M  V30 2401 N 224.671 0.411399 1.52136 0
M  V30 2402 C 225.601 -0.404015 2.29978 0
M  V30 2403 C 226.582 -1.04412 1.34284 0
M  V30 2404 O 227.767 -1.0527 1.63192 0
M  V30 2405 C 224.897 -1.5197 3.12286 0
M  V30 2406 C 223.851 -1.00448 4.16046 0
M  V30 2407 C 223.177 -2.21393 4.86712 0
M  V30 2408 C 224.477 -0.0569336 5.22269 0
M  V30 2409 H 226.171 0.245529 2.98392 0
M  V30 2410 H 223.717 0.119525 1.43503 0
M  V30 2411 H 225.67 -2.09715 3.6551 0
M  V30 2412 H 224.394 -2.19716 2.41646 0
M  V30 2413 H 223.053 -0.449421 3.63835 0
M  V30 2414 H 222.701 -2.87699 4.12599 0
M  V30 2415 H 222.401 -1.87571 5.56858 0
M  V30 2416 H 223.925 -2.7974 5.4275 0
M  V30 2417 H 225.339 -0.54325 5.7072 0
M  V30 2418 H 223.736 0.192594 5.99791 0
M  V30 2419 H 224.806 0.887663 4.76706 0
M  V30 2420 N 226.149 -1.5696 0.141893 0
M  V30 2421 C 227.099 -2.13074 -0.811383 0
M  V30 2422 C 228.083 -1.05726 -1.21288 0
M  V30 2423 O 229.275 -1.31914 -1.18015 0
M  V30 2424 C 226.404 -2.75186 -2.0525 0
M  V30 2425 C 225.49 -3.8965 -1.67432 0
M  V30 2426 N 225.881 -4.95733 -1.0041 0
M  V30 2427 C 224.179 -4.00262 -1.96739 0
M  V30 2428 C 224.88 -5.75858 -0.822345 0
M  V30 2429 N 223.856 -5.26452 -1.3546 0
M  V30 2430 H 227.658 -2.92465 -0.290031 0
M  V30 2431 H 225.172 -1.6229 -0.0598218 0
M  V30 2432 H 227.169 -3.13745 -2.74535 0
M  V30 2433 H 225.829 -1.97266 -2.57907 0
M  V30 2434 H 226.84 -5.13607 -0.665441 0
M  V30 2435 H 223.517 -3.33412 -2.51282 0
M  V30 2436 H 224.907 -6.71254 -0.294496 0
M  V30 2437 N 227.627 0.131896 -1.57047 0
M  V30 2438 C 228.537 1.1815 -2.02676 0
M  V30 2439 C 229.553 1.46113 -0.944824 0
M  V30 2440 O 230.729 1.57485 -1.25541 0
M  V30 2441 C 227.794 2.49139 -2.41103 0
M  V30 2442 C 226.855 2.28688 -3.63318 0
M  V30 2443 C 226.088 3.53431 -3.99903 0
M  V30 2444 O 226.311 4.60223 -3.36973 0
M  V30 2445 O 225.245 3.45198 -4.93074 0
M  V30 2446 H 229.071 0.824069 -2.92306 0
M  V30 2447 H 226.656 0.341745 -1.45439 0
M  V30 2448 H 228.538 3.26338 -2.66611 0
M  V30 2449 H 227.213 2.84382 -1.54624 0
M  V30 2450 H 226.12 1.4939 -3.42977 0
M  V30 2451 H 227.453 1.98355 -4.50462 0
M  V30 2452 N 229.106 1.52395 0.401703 0
M  V30 2453 C 230.383 1.57387 1.16141 0
M  V30 2454 C 230.763 0.359359 2.08019 0
M  V30 2455 O 230.111 -0.65326 2.18963 0
M  V30 2456 C 230.321 2.90631 1.93221 0
M  V30 2457 C 231.669 3.43904 2.49028 0
M  V30 2458 O 232.693 2.92421 2.03393 0
M  V30 2459 O 231.552 4.33823 3.32356 0
M  V30 2460 H 228.646 0.634262 0.530698 0
M  V30 2461 H 231.192 1.64725 0.407883 0
M  V30 2462 H 229.964 3.70473 1.25958 0
M  V30 2463 H 229.587 2.8662 2.75563 0
M  V30 2464 N 230.584 -0.659388 1.43143 0
M  V30 2465 C 231.514 -1.78422 1.50625 0
M  V30 2466 C 232.495 -1.66216 0.361443 0
M  V30 2467 O 233.68 -1.85404 0.577834 0
M  V30 2468 C 230.81 -3.16815 1.42287 0
M  V30 2469 C 229.764 -3.43777 2.54954 0
M  V30 2470 C 229.09 -4.81905 2.31671 0
M  V30 2471 C 230.39 -3.39134 3.97222 0
M  V30 2472 H 232.084 -1.72417 2.44771 0
M  V30 2473 H 229.63 -0.828084 1.17808 0
M  V30 2474 H 231.583 -3.95253 1.46127 0
M  V30 2475 H 230.307 -3.23534 0.446435 0
M  V30 2476 H 228.966 -2.67707 2.50457 0
M  V30 2477 H 228.614 -4.85294 1.32284 0
M  V30 2478 H 228.314 -5.00906 3.07192 0
M  V30 2479 H 229.838 -5.62609 2.37284 0
M  V30 2480 H 231.252 -4.07518 4.03239 0
M  V30 2481 H 229.649 -3.69671 4.72719 0
M  V30 2482 H 230.719 -2.37426 4.22797 0
M  V30 2483 N 232.062 -1.29571 -0.897171 0
M  V30 2484 C 233.309 -1.17689 -1.6479 0
M  V30 2485 C 233.637 0.27107 -1.92602 0
M  V30 2486 O 232.892 1.21193 -1.53658 0
M  V30 2487 C 233.191 -1.9382 -3.00281 0
M  V30 2488 C 232.857 -3.43522 -2.92068 0
M  V30 2489 C 231.519 -3.84348 -2.89535 0
M  V30 2490 C 233.871 -4.38906 -2.81089 0
M  V30 2491 C 231.199 -5.18869 -2.73846 0
M  V30 2492 C 233.551 -5.73521 -2.66939 0
M  V30 2493 C 232.215 -6.13601 -2.62774 0
M  V30 2494 H 231.485 -0.430654 -0.603008 0
M  V30 2495 H 234.132 -1.60536 -1.04404 0
M  V30 2496 H 232.437 -1.4357 -3.64547 0
M  V30 2497 H 234.134 -1.82028 -3.57305 0
M  V30 2498 H 230.724 -3.11072 -2.94842 0
M  V30 2499 H 234.908 -4.08315 -2.82121 0
M  V30 2500 H 230.164 -5.4903 -2.69027 0
M  V30 2501 H 234.338 -6.47078 -2.57416 0
M  V30 2502 H 231.965 -7.17786 -2.50375 0
M  V30 2503 N 233.54 1.10788 -1.12088 0
M  V30 2504 C 234.787 1.82671 -0.873931 0
M  V30 2505 C 235.115 1.85004 0.600311 0
M  V30 2506 O 234.37 1.30365 1.45957 0
M  V30 2507 C 234.669 3.29294 -1.38926 0
M  V30 2508 C 234.335 3.47113 -2.87791 0
M  V30 2509 C 232.997 3.51684 -3.28439 0
M  V30 2510 C 235.349 3.52808 -3.83635 0
M  V30 2511 C 232.677 3.59513 -4.63646 0
M  V30 2512 C 235.029 3.62169 -5.18668 0
M  V30 2513 C 233.693 3.65003 -5.58864 0
M  V30 2514 H 232.963 0.668441 -0.319794 0
M  V30 2515 H 235.61 1.30613 -1.40045 0
M  V30 2516 H 233.915 3.83894 -0.783122 0
M  V30 2517 H 235.612 3.83416 -1.17443 0
M  V30 2518 H 232.202 3.4423 -2.5535 0
M  V30 2519 H 236.386 3.4853 -3.53328 0
M  V30 2520 H 231.642 3.59987 -4.94185 0
M  V30 2521 H 235.816 3.6552 -5.92763 0
M  V30 2522 H 233.443 3.70822 -6.63623 0
M  V30 2523 N 235.018 0.912232 1.28515 0
M  V30 2524 C 236.248 0.559604 1.98877 0
M  V30 2525 C 236.656 -0.863113 1.68366 0
M  V30 2526 O 235.999 -1.58304 0.931969 0
M  V30 2527 C 236.061 0.68703 3.52874 0
M  V30 2528 C 235.725 2.07901 4.06972 0
M  V30 2529 C 236.722 3.05157 4.20922 0
M  V30 2530 C 234.407 2.39178 4.417 0
M  V30 2531 C 236.401 4.31806 4.68852 0
M  V30 2532 C 234.088 3.66068 4.89324 0
M  V30 2533 C 235.086 4.62195 5.02856 0
M  V30 2534 O 234.774 5.86829 5.49442 0
M  V30 2535 H 234.506 0.212191 0.641834 0
M  V30 2536 H 237.06 1.22712 1.64715 0
M  V30 2537 H 235.29 -0.0375486 3.86682 0
M  V30 2538 H 236.979 0.341727 4.04459 0
M  V30 2539 H 237.745 2.82311 3.94367 0
M  V30 2540 H 233.624 1.65109 4.30418 0
M  V30 2541 H 237.168 5.06842 4.79329 0
M  V30 2542 H 233.065 3.88739 5.15318 0
M  V30 2543 H 233.833 5.89597 5.6773 0
M  V30 2544 N 236.496 -1.42363 0.676048 0
M  V30 2545 C 237.721 -2.06377 0.205705 0
M  V30 2546 C 238.146 -1.50463 -1.12883 0
M  V30 2547 O 237.504 -0.623619 -1.70237 0
M  V30 2548 C 237.552 -3.60277 0.152655 0
M  V30 2549 O 236.656 -4.02935 -0.87845 0
M  V30 2550 H 235.997 -0.655588 0.105359 0
M  V30 2551 H 238.527 -1.82475 0.925412 0
M  V30 2552 H 238.537 -4.07993 -0.0230675 0
M  V30 2553 H 237.212 -4.00346 1.12675 0
M  V30 2554 H 235.789 -3.66764 -0.673668 0
M  V30 2555 N 237.974 -0.419461 -1.51915 0
M  V30 2556 C 238.884 0.407528 -2.31033 0
M  V30 2557 C 239.9 1.04413 -1.3919 0
M  V30 2558 O 241.076 1.0434 -1.72265 0
M  V30 2559 C 238.141 1.50365 -3.12396 0
M  V30 2560 C 237.202 0.889029 -4.19994 0
M  V30 2561 C 236.435 1.93291 -4.97468 0
M  V30 2562 O 236.658 3.15259 -4.75361 0
M  V30 2563 O 235.592 1.53339 -5.8204 0
M  V30 2564 H 239.418 -0.237865 -3.02767 0
M  V30 2565 H 237.003 -0.182413 -1.48282 0
M  V30 2566 H 238.885 2.13975 -3.63032 0
M  V30 2567 H 237.56 2.13345 -2.43445 0
M  V30 2568 H 236.467 0.215353 -3.7348 0
M  V30 2569 H 237.8 0.302991 -4.91267 0
M  V30 2570 N 239.452 1.56882 -0.150215 0
M  V30 2571 C 240.868 1.58263 0.20617 0
M  V30 2572 C 241.068 1.16464 1.64434 0
M  V30 2573 O 240.124 0.866422 2.3717 0
M  V30 2574 C 241.437 3.00649 -0.0555025 0
M  V30 2575 C 242.985 3.12999 0.00795388 0
M  V30 2576 C 243.46 4.5744 -0.226429 0
M  V30 2577 N 244.951 4.62875 -0.173469 0
M  V30 2578 C 245.686 5.72454 -0.329288 0
M  V30 2579 N 245.182 6.90669 -0.543005 0
M  V30 2580 N 246.975 5.61467 -0.266666 0
M  V30 2581 H 239.126 1.82345 -1.08922 0
M  V30 2582 H 241.389 0.844149 -0.431413 0
M  V30 2583 H 241.095 3.3563 -1.05096 0
M  V30 2584 H 240.969 3.71337 0.66246 0
M  V30 2585 H 243.356 2.77857 0.993966 0
M  V30 2586 H 243.437 2.4479 -0.742388 0
M  V30 2587 H 243.081 4.93287 -1.20956 0
M  V30 2588 H 243.011 5.2378 0.544274 0
M  V30 2589 H 245.502 3.77898 -0.0130709 0
M  V30 2590 H 245.815 7.70045 -0.651922 0
M  V30 2591 H 244.16 6.92581 -0.579366 0
M  V30 2592 H 247.351 4.67992 -0.100441 0
M  V30 2593 H 247.524 6.46816 -0.391535 0
M  V30 2594 N 240.93 -0.123565 1.57115 0
M  V30 2595 C 241.84 -1.17074 2.033 0
M  V30 2596 C 242.856 -1.4561 0.952559 0
M  V30 2597 O 244.032 -1.56817 1.26374 0
M  V30 2598 C 241.097 -2.47857 2.42421 0
M  V30 2599 C 240.158 -2.26758 3.64526 0
M  V30 2600 C 239.391 -3.51305 4.01771 0
M  V30 2601 O 239.614 -4.5843 3.39409 0
M  V30 2602 O 238.548 -3.42578 4.94898 0
M  V30 2603 H 242.374 -0.808555 2.92739 0
M  V30 2604 H 239.959 -0.334027 1.45618 0
M  V30 2605 H 241.841 -3.2492 2.68338 0
M  V30 2606 H 240.516 -2.83558 1.5613 0
M  V30 2607 H 239.423 -1.47569 3.43765 0
M  V30 2608 H 240.756 -1.95963 4.51508 0
M  V30 2609 N 242.408 -1.52605 -0.393616 0
M  V30 2610 C 243.371 -1.76415 -1.46323 0
M  V30 2611 C 244.371 -0.634126 -1.47768 0
M  V30 2612 O 245.561 -0.902142 -1.4902 0
M  V30 2613 C 242.693 -1.8607 -2.85641 0
M  V30 2614 H 243.886 -2.71916 -1.26498 0
M  V30 2615 H 241.439 -1.43257 -0.625073 0
M  V30 2616 H 242.174 -0.925378 -3.10817 0
M  V30 2617 H 241.959 -2.68235 -2.85993 0
M  V30 2618 H 243.449 -2.06179 -3.63153 0
M  V30 2619 N 243.887 0.651787 -1.4349 0
M  V30 2620 C 244.835 1.78586 -1.49029 0
M  V30 2621 C 245.829 1.65448 -0.363767 0
M  V30 2622 O 247.035 1.71777 -0.537821 0
M  V30 2623 H 243.41 0.589236 -0.467231 0
M  V30 2624 H 245.381 1.71035 -2.44519 0
M  V30 2625 C 244.13 3.16851 -1.43181 0
M  V30 2626 H 243.453 3.27598 -2.29171 0
M  V30 2627 H 244.893 3.96156 -1.51118 0
M  V30 2628 C 243.352 3.36568 -0.149616 0
M  V30 2629 O 243.882 3.93885 0.788509 0
M  V30 2630 N 242.088 2.90539 -0.0593484 0
M  V30 2631 H 241.635 2.4408 -0.823575 0
M  V30 2632 H 241.593 3.04108 0.797853 0
M  V30 2633 N 245.365 1.30045 0.890287 0
M  V30 2634 C 246.781 1.08261 1.17268 0
M  V30 2635 C 246.981 -0.160063 2.00863 0
M  V30 2636 O 246.037 -0.855181 2.37577 0
M  V30 2637 C 247.35 2.34323 1.8845 0
M  V30 2638 C 248.898 2.39735 2.01237 0
M  V30 2639 C 249.373 3.65625 2.7583 0
M  V30 2640 N 250.864 3.66402 2.83379 0
M  V30 2641 C 251.599 4.60498 3.41657 0
M  V30 2642 N 251.095 5.64933 4.01026 0
M  V30 2643 N 252.888 4.48051 3.39421 0
M  V30 2644 H 245.039 2.09777 0.332762 0
M  V30 2645 H 247.302 0.92446 0.209948 0
M  V30 2646 H 247.008 3.2498 1.34465 0
M  V30 2647 H 246.882 2.4256 2.88867 0
M  V30 2648 H 249.269 1.4956 2.54393 0
M  V30 2649 H 249.35 2.35476 0.999232 0
M  V30 2650 H 248.994 4.56156 2.23347 0
M  V30 2651 H 248.924 3.67144 3.77509 0
M  V30 2652 H 251.415 2.90896 2.41222 0
M  V30 2653 H 251.728 6.32841 4.43545 0
M  V30 2654 H 250.073 5.68732 3.99461 0
M  V30 2655 H 253.264 3.65649 2.92264 0
M  V30 2656 H 253.437 5.21565 3.84544 0
M  V30 2657 N 246.843 -1.10192 1.12674 0
M  V30 2658 C 248.068 -1.86523 0.906853 0
M  V30 2659 C 248.493 -1.80221 -0.538711 0
M  V30 2660 O 247.851 -1.17396 -1.38158 0
M  V30 2661 C 247.899 -3.32758 1.3894 0
M  V30 2662 O 247.003 -4.08449 0.5695 0
M  V30 2663 H 246.344 -0.578678 0.325619 0
M  V30 2664 H 248.874 -1.39203 1.49946 0
M  V30 2665 H 248.884 -3.83608 1.38958 0
M  V30 2666 H 247.559 -3.36661 2.44197 0
M  V30 2667 H 246.136 -3.67427 0.636528 0
M  V30 2668 N 248.321 -0.919034 -1.28029 0
M  V30 2669 C 249.737 -0.617972 -1.4715 0
M  V30 2670 C 249.937 0.835242 -1.83374 0
M  V30 2671 O 248.993 1.61388 -1.94191 0
M  V30 2672 C 250.306 -1.56041 -2.57044 0
M  V30 2673 C 251.854 -1.56769 -2.7091 0
M  V30 2674 C 252.329 -2.49688 -3.83953 0
M  V30 2675 N 253.82 -2.47845 -3.91314 0
M  V30 2676 C 254.555 -3.16437 -4.78179 0
M  V30 2677 N 254.051 -3.94376 -5.69596 0
M  V30 2678 N 255.844 -3.05498 -4.71834 0
M  V30 2679 H 247.995 -1.85866 -1.02798 0
M  V30 2680 H 250.258 -0.797506 -0.512531 0
M  V30 2681 H 249.964 -2.59671 -2.372 0
M  V30 2682 H 249.838 -1.29551 -3.54255 0
M  V30 2683 H 252.225 -0.538745 -2.90141 0
M  V30 2684 H 252.306 -1.87305 -1.74214 0
M  V30 2685 H 251.95 -3.52688 -3.65477 0
M  V30 2686 H 251.88 -2.16453 -4.80058 0
M  V30 2687 H 254.371 -1.91234 -3.25941 0
M  V30 2688 H 254.684 -4.43721 -6.32718 0
M  V30 2689 H 253.029 -3.98481 -5.69419 0
M  V30 2690 H 256.22 -2.44108 -3.99411 0
M  V30 2691 H 256.393 -3.59225 -5.39316 0
M  V30 2692 N 249.799 1.42003 -0.683588 0
M  V30 2693 C 251.076 1.95112 -0.138075 0
M  V30 2694 C 251.456 1.62359 1.34918 0
M  V30 2695 O 250.804 0.924311 2.08971 0
M  V30 2696 C 251.014 3.46505 -0.416581 0
M  V30 2697 C 252.362 4.23254 -0.337834 0
M  V30 2698 O 253.386 3.54468 -0.35082 0
M  V30 2699 O 252.245 5.45743 -0.287596 0
M  V30 2700 H 249.339 0.826961 -0.00797996 0
M  V30 2701 H 251.885 1.51784 -0.758924 0
M  V30 2702 H 250.657 3.63582 -1.4465 0
M  V30 2703 H 250.28 3.969 0.235839 0
M  V30 2704 N 251.277 0.427512 1.51691 0
M  V30 2705 C 252.207 -0.3796 2.30394 0
M  V30 2706 C 253.188 -1.02982 1.35384 0
M  V30 2707 O 254.373 -1.03534 1.643 0
M  V30 2708 C 251.503 -1.48649 3.1388 0
M  V30 2709 C 250.457 -0.960294 4.17088 0
M  V30 2710 C 249.783 -2.16219 4.89033 0
M  V30 2711 C 251.083 -0.00153679 5.223 0
M  V30 2712 H 252.777 0.277164 2.98114 0
M  V30 2713 H 250.323 0.134739 1.43368 0
M  V30 2714 H 252.276 -2.05826 3.67714 0
M  V30 2715 H 251 -2.1714 2.43962 0
M  V30 2716 H 249.659 -0.410806 3.64291 0
M  V30 2717 H 249.307 -2.83307 4.15628 0
M  V30 2718 H 249.007 -1.81654 5.58816 0
M  V30 2719 H 250.531 -2.73968 5.45687 0
M  V30 2720 H 251.945 -0.482687 5.71264 0
M  V30 2721 H 250.342 0.256199 5.99553 0
M  V30 2722 H 251.412 0.938174 4.75738 0
M  V30 2723 N 252.755 -1.56801 0.158532 0
M  V30 2724 C 254.003 -1.96102 -0.488712 0
M  V30 2725 C 254.324 -1.04498 -1.64636 0
M  V30 2726 O 253.594 -0.108783 -1.95598 0
M  V30 2727 H 252.174 -0.724102 -0.183535 0
M  V30 2728 H 254.836 -1.93457 0.236728 0
M  V30 2729 H 253.932 -3.00097 -0.857219 0
M  V30 2730 N 254.233 0.115231 -1.57178 0
M  V30 2731 C 255.196 1.12526 -1.99676 0
M  V30 2732 C 256.196 1.34095 -0.88742 0
M  V30 2733 O 257.386 1.30548 -1.15337 0
M  V30 2734 C 254.518 2.4789 -2.34015 0
M  V30 2735 H 255.711 0.759912 -2.90113 0
M  V30 2736 H 253.264 0.359648 -1.52106 0
M  V30 2737 H 253.999 2.89339 -1.4647 0
M  V30 2738 H 253.784 2.33588 -3.14927 0
M  V30 2739 H 255.274 3.20575 -2.67622 0
M  V30 2740 N 255.711 1.52812 0.385517 0
M  V30 2741 C 256.96 1.67249 1.12741 0
M  V30 2742 C 257.273 0.4205 1.91027 0
M  V30 2743 O 258.479 0.445064 2.67827 0
M  V30 2744 C 256.935 2.95583 2.05326 0
M  V30 2745 C 256.543 4.27974 1.32447 0
M  V30 2746 C 258.287 3.19386 2.7963 0
M  V30 2747 C 256.194 5.47412 2.23818 0
M  V30 2748 H 255.124 0.6231 0.424573 0
M  V30 2749 H 257.775 1.79309 0.389924 0
M  V30 2750 H 256.157 2.77277 2.82725 0
M  V30 2751 H 257.331 4.56844 0.602495 0
M  V30 2752 H 255.646 4.10459 0.700885 0
M  V30 2753 H 258.243 4.05801 3.48181 0
M  V30 2754 H 258.586 2.34604 3.43899 0
M  V30 2755 H 259.119 3.38274 2.09322 0
M  V30 2756 H 255.858 6.34612 1.64157 0
M  V30 2757 H 255.378 5.22849 2.93921 0
M  V30 2758 H 257.057 5.81423 2.83824 0
M  V30 2759 N 257.189 -0.644168 1.43834 0
M  V30 2760 C 258.435 -1.40603 1.46146 0
M  V30 2761 C 258.768 -1.93997 0.0887717 0
M  V30 2762 O 258.043 -1.72854 -0.891724 0
M  V30 2763 C 258.326 -2.58086 2.51124 0
M  V30 2764 C 258.179 -2.10126 3.97702 0
M  V30 2765 C 259.498 -3.60291 2.52742 0
M  V30 2766 H 256.617 -0.509905 0.532134 0
M  V30 2767 H 259.259 -0.729502 1.75437 0
M  V30 2768 H 257.409 -3.15801 2.26278 0
M  V30 2769 H 259.081 -1.57342 4.33637 0
M  V30 2770 H 257.324 -1.41419 4.10101 0
M  V30 2771 H 257.995 -2.94649 4.66783 0
M  V30 2772 H 260.471 -3.12352 2.7491 0
M  V30 2773 H 259.347 -4.40032 3.28121 0
M  V30 2774 H 259.608 -4.1349 1.56455 0
M  V30 2775 N 258.668 -1.30515 -0.883378 0
M  V30 2776 C 259.898 -1.22182 -1.66599 0
M  V30 2777 C 260.306 0.217507 -1.87946 0
M  V30 2778 O 259.649 1.1554 -1.42815 0
M  V30 2779 C 259.711 -1.88146 -3.06335 0
M  V30 2780 C 259.375 -3.37476 -3.08154 0
M  V30 2781 C 260.372 -4.33443 -2.87094 0
M  V30 2782 C 258.057 -3.7895 -3.29701 0
M  V30 2783 C 260.051 -5.68858 -2.8754 0
M  V30 2784 C 257.738 -5.14482 -3.29776 0
M  V30 2785 C 258.736 -6.09246 -3.0872 0
M  V30 2786 O 258.424 -7.42302 -3.08615 0
M  V30 2787 H 258.156 -0.423898 -0.52658 0
M  V30 2788 H 260.71 -1.72703 -1.11188 0
M  V30 2789 H 258.94 -1.32157 -3.63416 0
M  V30 2790 H 260.629 -1.7391 -3.66756 0
M  V30 2791 H 261.395 -4.02733 -2.70243 0
M  V30 2792 H 257.274 -3.05631 -3.45124 0
M  V30 2793 H 260.818 -6.428 -2.71024 0
M  V30 2794 H 256.715 -5.44832 -3.46163 0
M  V30 2795 H 257.483 -7.5131 -3.24769 0
M  V30 2796 N 260.146 1.09593 -1.13257 0
M  V30 2797 C 261.386 1.83349 -0.903472 0
M  V30 2798 C 261.75 1.83641 0.560351 0
M  V30 2799 O 262.951 2.53037 0.906947 0
M  V30 2800 C 261.222 3.25629 -1.47311 0
M  V30 2801 S 262.781 4.16408 -1.38382 0
M  V30 2802 H 259.599 0.632014 -0.325699 0
M  V30 2803 H 262.201 1.31817 -1.44376 0
M  V30 2804 H 260.905 3.22991 -2.53189 0
M  V30 2805 H 260.436 3.82233 -0.930689 0
M  V30 2806 H 262.451 4.94884 -0.361113 0
M  V30 2807 N 261.624 0.925811 1.2754 0
M  V30 2808 C 262.87 0.566092 1.94739 0
M  V30 2809 C 263.203 -0.890057 1.72603 0
M  V30 2810 O 262.478 -1.63467 1.05399 0
M  V30 2811 C 262.761 0.89054 3.48915 0
M  V30 2812 C 262.614 2.4003 3.80402 0
M  V30 2813 C 263.933 0.395101 4.38323 0
M  V30 2814 H 261.052 0.20714 0.707292 0
M  V30 2815 H 263.694 1.15725 1.50691 0
M  V30 2816 H 261.844 0.387452 3.86563 0
M  V30 2817 H 263.516 2.97494 3.52555 0
M  V30 2818 H 261.759 2.85028 3.2702 0
M  V30 2819 H 262.43 2.57785 4.8811 0
M  V30 2820 H 264.906 0.826241 4.07814 0
M  V30 2821 H 263.782 0.651086 5.45025 0
M  V30 2822 H 264.043 -0.704798 4.36446 0
M  V30 2823 N 263.102 -1.41638 0.69111 0
M  V30 2824 C 264.35 -2.00902 0.219758 0
M  V30 2825 C 264.671 -1.54994 -1.18329 0
M  V30 2826 O 263.941 -0.778628 -1.79762 0
M  V30 2827 H 262.521 -0.74289 0.0782558 0
M  V30 2828 H 265.183 -1.73327 0.891271 0
M  V30 2829 H 264.279 -3.11224 0.233708 0
M  V30 2830 N 264.58 -0.43555 -1.51462 0
M  V30 2831 C 265.826 0.131709 -2.02372 0
M  V30 2832 C 266.159 1.42516 -1.3192 0
M  V30 2833 O 265.434 1.89606 -0.433573 0
M  V30 2834 C 265.717 0.352301 -3.58373 0
M  V30 2835 C 265.57 -0.959676 -4.39443 0
M  V30 2836 C 266.889 1.12286 -4.25535 0
M  V30 2837 H 264.008 0.0463936 -0.735538 0
M  V30 2838 H 266.65 -0.574197 -1.81116 0
M  V30 2839 H 264.8 0.9536 -3.76615 0
M  V30 2840 H 266.472 -1.59482 -4.32855 0
M  V30 2841 H 264.715 -1.56468 -4.04599 0
M  V30 2842 H 265.386 -0.759394 -5.46752 0
M  V30 2843 H 267.862 0.613545 -4.11552 0
M  V30 2844 H 266.738 1.24598 -5.34571 0
M  V30 2845 H 266.999 2.15048 -3.86273 0
M  V30 2846 N 266.058 1.56714 -0.166846 0
M  V30 2847 C 267.005 2.17746 0.765193 0
M  V30 2848 C 267.975 1.11614 1.23011 0
M  V30 2849 O 269.16 1.39745 1.29908 0
M  V30 2850 C 266.3 2.81882 1.9909 0
M  V30 2851 C 265.413 4.02462 1.56997 0
M  V30 2852 C 264.548 4.54537 2.749 0
M  V30 2853 C 263.587 5.67538 2.29275 0
M  V30 2854 N 262.724 6.14142 3.40255 0
M  V30 2855 H 267.564 2.97048 0.237952 0
M  V30 2856 H 265.101 1.4672 0.105725 0
M  V30 2857 H 267.059 3.17221 2.70974 0
M  V30 2858 H 265.689 2.05191 2.49192 0
M  V30 2859 H 264.741 3.72973 0.748037 0
M  V30 2860 H 266.053 4.84273 1.19503 0
M  V30 2861 H 265.207 4.92035 3.54946 0
M  V30 2862 H 263.946 3.71774 3.1565 0
M  V30 2863 H 262.951 5.29597 1.47674 0
M  V30 2864 H 264.176 6.52099 1.89588 0
M  V30 2865 H 262.122 5.3431 3.8059 0
M  V30 2866 H 262.039 6.9093 3.06841 0
M  V30 2867 H 263.307 6.56289 4.206 0
M  V30 2868 N 267.536 -0.106894 1.57237 0
M  V30 2869 C 268.813 -0.843526 1.76477 0
M  V30 2870 C 269.193 -1.97499 0.745464 0
M  V30 2871 O 268.541 -2.27357 -0.228306 0
M  V30 2872 C 268.751 -1.34903 3.21873 0
M  V30 2873 C 270.099 -1.79654 3.8472 0
M  V30 2874 O 271.123 -1.44554 3.2555 0
M  V30 2875 O 269.982 -2.44515 4.88748 0
M  V30 2876 H 267.076 -0.401468 0.723016 0
M  V30 2877 H 269.622 -0.0896927 1.69463 0
M  V30 2878 H 268.394 -0.53781 3.87586 0
M  V30 2879 H 268.017 -2.16522 3.33473 0
M  V30 2880 N 269.014 -1.53014 -0.377408 0
M  V30 2881 C 270.261 -1.68623 -1.12128 0
M  V30 2882 C 270.589 -0.431997 -1.89642 0
M  V30 2883 O 269.844 0.585855 -1.86725 0
M  V30 2884 C 270.143 -2.87982 -2.11663 0
M  V30 2885 C 269.809 -4.24964 -1.50719 0
M  V30 2886 C 268.471 -4.62217 -1.33825 0
M  V30 2887 C 270.823 -5.10199 -1.06519 0
M  V30 2888 C 268.151 -5.82352 -0.712963 0
M  V30 2889 C 270.503 -6.30969 -0.453955 0
M  V30 2890 C 269.167 -6.66944 -0.272411 0
M  V30 2891 H 268.437 -0.617034 -0.410305 0
M  V30 2892 H 271.084 -1.8718 -0.404484 0
M  V30 2893 H 269.389 -2.63889 -2.89603 0
M  V30 2894 H 271.086 -2.97253 -2.6915 0
M  V30 2895 H 267.676 -3.95626 -1.64858 0
M  V30 2896 H 271.86 -4.81978 -1.18368 0
M  V30 2897 H 267.116 -6.08824 -0.560611 0
M  V30 2898 H 271.29 -6.96324 -0.103217 0
M  V30 2899 H 268.917 -7.59898 0.214181 0
M  V30 2900 N 270.492 0.636531 -1.44174 0
M  V30 2901 C 271.44 1.76995 -1.50915 0
M  V30 2902 C 272.434 1.65053 -0.381295 0
M  V30 2903 O 273.64 1.71197 -0.55601 0
M  V30 2904 H 270.015 0.584247 -0.473455 0
M  V30 2905 H 271.986 1.68432 -2.4632 0
M  V30 2906 C 270.735 3.15314 -1.46534 0
M  V30 2907 H 270.058 3.25149 -2.32633 0
M  V30 2908 H 271.498 3.9453 -1.55312 0
M  V30 2909 C 269.957 3.3639 -0.185305 0
M  V30 2910 O 270.487 3.94699 0.746688 0
M  V30 2911 N 268.693 2.9046 -0.0901606 0
M  V30 2912 H 268.24 2.43193 -0.849416 0
M  V30 2913 H 268.198 3.04937 0.765553 0
M  V30 2914 N 271.97 1.30982 0.876444 0
M  V30 2915 C 272.88 1.2003 2.01569 0
M  V30 2916 C 273.896 0.11838 1.73597 0
M  V30 2917 O 275.072 0.33495 1.98595 0
M  V30 2918 C 272.137 0.901637 3.34771 0
M  V30 2919 C 271.198 2.06979 3.76109 0
M  V30 2920 C 270.431 1.78529 5.02954 0
M  V30 2921 O 270.654 0.717296 5.65872 0
M  V30 2922 O 269.588 2.64019 5.40905 0
M  V30 2923 H 273.414 2.15753 2.13739 0
M  V30 2924 H 270.999 1.10658 1.00375 0
M  V30 2925 H 272.881 0.750645 4.1466 0
M  V30 2926 H 271.556 -0.0256141 3.2369 0
M  V30 2927 H 270.463 2.27616 2.96887 0
M  V30 2928 H 271.796 2.97907 3.91807 0
M  V30 2929 N 273.449 -1.08991 1.13837 0
M  V30 2930 C 274.677 -1.85011 0.926202 0
M  V30 2931 C 275.092 -1.8135 -0.525127 0
M  V30 2932 O 274.449 -1.21287 -1.36366 0
M  V30 2933 C 274.5 -3.32802 1.41155 0
M  V30 2934 O 274.221 -3.36444 2.80601 0
M  V30 2935 C 275.722 -4.25649 1.23847 0
M  V30 2936 H 272.942 -0.584249 0.32999 0
M  V30 2937 H 275.486 -1.37688 1.51202 0
M  V30 2938 H 273.641 -3.77536 0.868631 0
M  V30 2939 H 274.055 -4.28657 3.02248 0
M  V30 2940 H 275.529 -5.27485 1.62675 0
M  V30 2941 H 276.006 -4.38828 0.18065 0
M  V30 2942 H 276.612 -3.86735 1.76964 0
M  V30 2943 N 274.927 -0.932562 -1.27047 0
M  V30 2944 C 275.859 -0.392734 -2.2581 0
M  V30 2945 C 276.872 0.479241 -1.55586 0
M  V30 2946 O 278.061 0.291078 -1.76111 0
M  V30 2947 C 275.161 0.455456 -3.35826 0
M  V30 2948 C 274.334 -0.398355 -4.35582 0
M  V30 2949 C 273.393 0.387985 -5.24768 0
M  V30 2950 O 272.419 -0.206003 -5.68827 0
M  V30 2951 N 273.621 1.68664 -5.55457 0
M  V30 2952 H 276.386 -1.24173 -2.72766 0
M  V30 2953 H 273.947 -0.800511 -1.40725 0
M  V30 2954 H 275.939 0.988692 -3.92437 0
M  V30 2955 H 274.509 1.20522 -2.88432 0
M  V30 2956 H 273.729 -1.11286 -3.78165 0
M  V30 2957 H 275.017 -0.981889 -4.99236 0
M  V30 2958 H 274.415 2.19147 -5.21528 0
M  V30 2959 H 272.972 2.1663 -6.14748 0
M  V30 2960 N 276.405 1.4127 -0.698611 0
M  V30 2961 C 277.335 2.33447 -0.049629 0
M  V30 2962 C 278.316 1.51982 0.763898 0
M  V30 2963 O 279.501 1.80509 0.716257 0
M  V30 2964 C 276.631 3.35828 0.885267 0
M  V30 2965 C 275.585 4.27627 0.178613 0
M  V30 2966 C 274.911 5.20406 1.22807 0
M  V30 2967 C 276.211 5.13459 -0.956933 0
M  V30 2968 H 277.905 2.87966 -0.81951 0
M  V30 2969 H 275.451 1.38461 -0.395538 0
M  V30 2970 H 277.404 3.9924 1.34854 0
M  V30 2971 H 276.128 2.79666 1.68685 0
M  V30 2972 H 274.787 3.65643 -0.26466 0
M  V30 2973 H 274.435 4.60558 2.02226 0
M  V30 2974 H 274.135 5.82661 0.760239 0
M  V30 2975 H 275.659 5.86695 1.69179 0
M  V30 2976 H 277.073 5.70421 -0.573805 0
M  V30 2977 H 275.47 5.8467 -1.35205 0
M  V30 2978 H 276.54 4.50443 -1.79524 0
M  V30 2979 N 277.883 0.443576 1.51229 0
M  V30 2980 C 278.846 -0.353132 2.26463 0
M  V30 2981 C 279.846 -0.944338 1.3015 0
M  V30 2982 O 281.036 -0.817813 1.5381 0
M  V30 2983 C 278.168 -1.50023 3.06114 0
M  V30 2984 H 279.361 0.3063 2.98332 0
M  V30 2985 H 276.914 0.196902 1.55055 0
M  V30 2986 H 277.649 -2.19553 2.38677 0
M  V30 2987 H 277.434 -1.08241 3.76864 0
M  V30 2988 H 278.924 -2.06296 3.63087 0
M  V30 2989 N 279.361 -1.56624 0.175154 0
M  V30 2990 C 280.777 -1.58571 -0.180966 0
M  V30 2991 C 280.977 -1.19065 -1.6256 0
M  V30 2992 O 280.033 -0.904044 -2.35761 0
M  V30 2993 C 281.346 -3.00522 0.103326 0
M  V30 2994 C 282.894 -3.12972 0.0418426 0
M  V30 2995 C 283.369 -4.57022 0.299175 0
M  V30 2996 N 284.86 -4.62541 0.247086 0
M  V30 2997 C 285.595 -5.71857 0.420318 0
M  V30 2998 N 285.091 -6.89717 0.652816 0
M  V30 2999 N 286.884 -5.60972 0.355957 0
M  V30 3000 H 279.035 -1.80589 1.11809 0
M  V30 3001 H 281.298 -0.837178 0.444788 0
M  V30 3002 H 281.004 -3.33916 1.10422 0
M  V30 3003 H 280.878 -3.72344 -0.603299 0
M  V30 3004 H 283.265 -2.79403 -0.949636 0
M  V30 3005 H 283.346 -2.43578 0.781238 0
M  V30 3006 H 282.99 -4.913 1.28788 0
M  V30 3007 H 282.92 -5.24579 -0.460876 0
M  V30 3008 H 285.411 -3.77829 0.0731895 0
M  V30 3009 H 285.724 -7.68911 0.774347 0
M  V30 3010 H 284.069 -6.91572 0.689476 0
M  V30 3011 H 287.26 -4.67773 0.174882 0
M  V30 3012 H 287.433 -6.46111 0.494388 0
M  V30 3013 N 280.839 0.0985539 -1.57292 0
M  V30 3014 C 282.088 0.801358 -1.85098 0
M  V30 3015 C 282.401 1.80066 -0.763902 0
M  V30 3016 O 283.607 2.55112 -0.928981 0
M  V30 3017 C 282.063 1.47599 -3.28242 0
M  V30 3018 C 281.671 0.516624 -4.45011 0
M  V30 3019 C 283.415 2.16272 -3.65276 0
M  V30 3020 C 281.322 1.19564 -5.79188 0
M  V30 3021 H 280.252 0.303022 -0.69043 0
M  V30 3022 H 282.903 0.0542623 -1.8342 0
M  V30 3023 H 281.285 2.27042 -3.2445 0
M  V30 3024 H 282.459 -0.246065 -4.60143 0
M  V30 3025 H 280.774 -0.064227 -4.1635 0
M  V30 3026 H 283.371 2.67802 -4.62803 0
M  V30 3027 H 283.714 2.95009 -2.93727 0
M  V30 3028 H 284.247 1.43693 -3.70941 0
M  V30 3029 H 280.986 0.449157 -6.53959 0
M  V30 3030 H 280.506 1.92984 -5.67906 0
M  V30 3031 H 282.185 1.7231 -6.23633 0
M  V30 3032 N 282.317 1.53212 0.369288 0
M  V30 3033 C 283.28 1.7872 1.43498 0
M  V30 3034 C 284.28 0.657554 1.46741 0
M  V30 3035 O 285.47 0.925736 1.47566 0
M  V30 3036 C 282.602 1.90591 2.82645 0
M  V30 3037 H 283.795 2.73894 1.22156 0
M  V30 3038 H 281.348 1.44233 0.602203 0
M  V30 3039 H 282.083 0.974709 3.09306 0
M  V30 3040 H 281.868 2.72751 2.8169 0
M  V30 3041 H 283.358 2.11931 3.59826 0
M  V30 3042 N 283.795 -0.628877 1.44509 0
M  V30 3043 C 285.072 -1.38733 1.37886 0
M  V30 3044 C 285.452 -2.11065 0.0387008 0
M  V30 3045 O 284.8 -2.06476 -0.97878 0
M  V30 3046 C 285.01 -2.35188 2.57852 0
M  V30 3047 C 286.358 -2.9845 3.02014 0
M  V30 3048 O 287.382 -2.45513 2.58073 0
M  V30 3049 O 286.241 -3.94487 3.78209 0
M  V30 3050 H 283.335 -0.621015 0.54614 0
M  V30 3051 H 285.881 -0.653744 1.56602 0
M  V30 3052 H 284.653 -1.80855 3.46998 0
M  V30 3053 H 284.276 -3.1596 2.4136 0
M  V30 3054 N 285.273 -1.31445 -0.869486 0
M  V30 3055 C 286.498 -1.24256 -1.66058 0
M  V30 3056 C 286.923 0.188928 -1.87149 0
M  V30 3057 O 286.281 1.13522 -1.4136 0
M  V30 3058 C 286.329 -1.9924 -3.00559 0
M  V30 3059 O 285.433 -1.33007 -3.90362 0
M  V30 3060 H 284.774 -0.428973 -0.506831 0
M  V30 3061 H 287.304 -1.73521 -1.08404 0
M  V30 3062 H 287.314 -2.08854 -3.50491 0
M  V30 3063 H 285.989 -3.03342 -2.84528 0
M  V30 3064 H 284.566 -1.31848 -3.48813 0
M  V30 3065 N 286.751 1.08385 -1.14413 0
M  V30 3066 C 287.698 2.15311 -0.831265 0
M  V30 3067 C 288.668 1.64751 0.211292 0
M  V30 3068 O 289.853 1.90627 0.0811674 0
M  V30 3069 C 286.993 3.43658 -0.315143 0
M  V30 3070 C 286.106 4.08064 -1.41802 0
M  V30 3071 C 285.241 5.24207 -0.859126 0
M  V30 3072 C 284.28 5.80554 -1.93967 0
M  V30 3073 N 283.417 6.88042 -1.39793 0
M  V30 3074 H 288.257 2.41415 -1.74708 0
M  V30 3075 H 285.794 1.18474 -0.871909 0
M  V30 3076 H 287.752 4.172 0.00230884 0
M  V30 3077 H 286.382 3.17839 0.56378 0
M  V30 3078 H 285.434 3.3228 -1.85187 0
M  V30 3079 H 286.746 4.45962 -2.23427 0
M  V30 3080 H 285.9 6.04689 -0.49359 0
M  V30 3081 H 284.639 4.87699 -0.011932 0
M  V30 3082 H 283.644 4.98725 -2.31415 0
M  V30 3083 H 284.869 6.19121 -2.79046 0
M  V30 3084 H 282.815 6.53493 -0.572919 0
M  V30 3085 H 282.732 7.24767 -2.15054 0
M  V30 3086 H 284 7.72255 -1.0603 0
M  V30 3087 N 288.23 0.939286 1.26551 0
M  V30 3088 C 289.507 0.5038 1.89001 0
M  V30 3089 C 289.887 -1.01854 1.84903 0
M  V30 3090 O 289.235 -1.87773 1.30206 0
M  V30 3091 C 289.445 1.063 3.32417 0
M  V30 3092 C 290.793 1.13051 4.09273 0
M  V30 3093 O 291.817 1.01345 3.41479 0
M  V30 3094 O 290.676 1.31233 5.30509 0
M  V30 3095 H 287.77 0.163897 0.810597 0
M  V30 3096 H 290.316 1.03173 1.34735 0
M  V30 3097 H 289.088 2.10665 3.29752 0
M  V30 3098 H 288.711 0.517408 3.94219 0
M  V30 3099 N 289.708 -1.40897 0.706093 0
M  V30 3100 C 290.658 -2.27987 0.0240746 0
M  V30 3101 C 291.642 -1.42759 -0.742204 0
M  V30 3102 O 292.834 -1.65936 -0.615966 0
M  V30 3103 C 289.963 -3.31186 -0.903907 0
M  V30 3104 C 289.049 -4.2389 -0.133318 0
M  V30 3105 N 289.44 -4.98113 0.878444 0
M  V30 3106 C 287.738 -4.44485 -0.367269 0
M  V30 3107 C 288.439 -5.6604 1.34064 0
M  V30 3108 N 287.415 -5.39522 0.664565 0
M  V30 3109 H 291.217 -2.82812 0.799658 0
M  V30 3110 H 288.731 -1.53235 0.537845 0
M  V30 3111 H 290.728 -3.92413 -1.40775 0
M  V30 3112 H 289.388 -2.77922 -1.67897 0
M  V30 3113 H 290.399 -5.02364 1.25901 0
M  V30 3114 H 287.076 -4.02213 -1.1194 0
M  V30 3115 H 288.466 -6.35524 2.1808 0
M  V30 3116 N 291.186 -0.45159 -1.50991 0
M  V30 3117 C 292.432 0.110237 -2.025 0
M  V30 3118 C 292.765 1.41109 -1.33424 0
M  V30 3119 O 292.04 1.89135 -0.453659 0
M  V30 3120 C 292.323 0.314271 -3.58726 0
M  V30 3121 C 292.176 -1.00623 -4.38401 0
M  V30 3122 C 293.495 1.07767 -4.26702 0
M  V30 3123 H 290.614 0.0385897 -0.735989 0
M  V30 3124 H 293.256 -0.593374 -1.80497 0
M  V30 3125 H 291.406 0.913601 -3.77605 0
M  V30 3126 H 293.078 -1.64064 -4.31139 0
M  V30 3127 H 291.321 -1.6075 -4.02917 0
M  V30 3128 H 291.992 -0.817341 -5.45915 0
M  V30 3129 H 294.468 0.56986 -4.12179 0
M  V30 3130 H 293.344 1.18921 -5.35863 0
M  V30 3131 H 293.605 2.10939 -3.88532 0
M  V30 3132 N 292.664 1.56529 -0.183458 0
M  V30 3133 C 293.911 1.97244 0.458357 0
M  V30 3134 C 294.239 1.06992 1.62428 0
M  V30 3135 O 293.494 0.106542 1.9541 0
M  V30 3136 C 293.793 3.43939 0.971637 0
M  V30 3137 C 293.459 4.5083 -0.0796784 0
M  V30 3138 C 292.121 4.79786 -0.368584 0
M  V30 3139 C 294.473 5.15138 -0.792638 0
M  V30 3140 C 291.801 5.70345 -1.37563 0
M  V30 3141 C 294.153 6.06784 -1.78875 0
M  V30 3142 C 292.817 6.34102 -2.08497 0
M  V30 3143 H 292.087 0.721768 0.167725 0
M  V30 3144 H 294.734 1.89472 -0.277976 0
M  V30 3145 H 293.039 3.48724 1.78602 0
M  V30 3146 H 294.736 3.72791 1.47744 0
M  V30 3147 H 291.326 4.28317 0.155668 0
M  V30 3148 H 295.51 4.92868 -0.582659 0
M  V30 3149 H 290.766 5.89789 -1.61118 0
M  V30 3150 H 294.94 6.55677 -2.3465 0
M  V30 3151 H 292.567 7.04074 -2.86678 0
M  V30 3152 N 294.142 -0.090211 1.57342 0
M  V30 3153 C 295.553 -0.644173 1.75235 0
M  V30 3154 C 295.904 -1.78865 0.806335 0
M  V30 3155 O 295.029 -2.16395 -0.0140128 0
M  V30 3156 C 295.624 -1.17532 3.1776 0
M  V30 3157 C 294.183 -1.67531 3.37061 0
M  V30 3158 C 293.33 -0.58693 2.71017 0
M  V30 3159 H 296.281 0.135884 1.58117 0
M  V30 3160 H 296.302 -2.04455 3.20902 0
M  V30 3161 H 295.814 -0.342138 3.86589 0
M  V30 3162 H 293.915 -2.53234 2.73319 0
M  V30 3163 H 294.028 -1.76493 4.45406 0
M  V30 3164 H 292.392 -1.02756 2.33052 0
M  V30 3165 H 293.175 0.235758 3.4249 0
M  V30 3166 N 295.62 -1.53406 -0.361157 0
M  V30 3167 C 296.866 -1.70054 -1.10496 0
M  V30 3168 C 297.199 -0.453278 -1.88836 0
M  V30 3169 O 296.474 0.5495 -1.86576 0
M  V30 3170 C 296.757 -2.95317 -2.06058 0
M  V30 3171 C 296.61 -4.3021 -1.31298 0
M  V30 3172 C 297.929 -3.16193 -3.06121 0
M  V30 3173 H 295.048 -0.618799 -0.400321 0
M  V30 3174 H 297.69 -1.86052 -0.385318 0
M  V30 3175 H 295.84 -2.81809 -2.67425 0
M  V30 3176 H 297.512 -4.55538 -0.726807 0
M  V30 3177 H 295.755 -4.29421 -0.614853 0
M  V30 3178 H 296.426 -5.14 -2.01265 0
M  V30 3179 H 298.902 -3.28916 -2.5486 0
M  V30 3180 H 297.778 -4.05266 -3.70204 0
M  V30 3181 H 298.039 -2.31676 -3.76535 0
M  V30 3182 N 297.098 0.621204 -1.44841 0
M  V30 3183 C 298.046 1.75385 -1.52784 0
M  V30 3184 C 299.04 1.64639 -0.398779 0
M  V30 3185 O 300.246 1.70598 -0.574137 0
M  V30 3186 H 296.621 0.579193 -0.479625 0
M  V30 3187 H 298.592 1.6581 -2.48092 0
M  V30 3188 C 297.341 3.13742 -1.4987 0
M  V30 3189 H 296.664 3.22663 -2.36069 0
M  V30 3190 H 298.104 3.92861 -1.59487 0
M  V30 3191 C 296.563 3.36175 -0.220973 0
M  V30 3192 O 297.093 3.95469 0.704782 0
M  V30 3193 N 295.299 2.90348 -0.120963 0
M  V30 3194 H 294.846 2.42278 -0.875162 0
M  V30 3195 H 294.804 3.05732 0.733168 0
M  V30 3196 N 298.576 1.31904 0.862503 0
M  V30 3197 C 299.853 1.12644 1.59908 0
M  V30 3198 C 300.233 -0.316104 2.0872 0
M  V30 3199 O 299.581 -1.31145 1.87118 0
M  V30 3200 C 299.791 2.1472 2.7513 0
M  V30 3201 C 301.139 2.47637 3.44907 0
M  V30 3202 O 302.163 2.13205 2.85346 0
M  V30 3203 O 301.022 3.06632 4.52371 0
M  V30 3204 H 298.116 0.43416 0.703871 0
M  V30 3205 H 300.662 1.43408 0.907314 0
M  V30 3206 H 299.434 3.1172 2.3653 0
M  V30 3207 H 299.057 1.84905 3.51989 0
M  V30 3208 N 300.054 -1.07777 1.14986 0
M  V30 3209 C 301.302 -1.79934 0.920235 0
M  V30 3210 C 301.623 -1.86955 -0.554336 0
M  V30 3211 O 300.893 -1.36731 -1.40291 0
M  V30 3212 H 299.473 -0.666424 0.337473 0
M  V30 3213 H 302.135 -1.3027 1.44968 0
M  V30 3214 H 301.231 -2.82539 1.32583 0
M  V30 3215 N 301.532 -0.945985 -1.26051 0
M  V30 3216 C 302.779 -0.596118 -1.93527 0
M  V30 3217 C 303.107 0.865559 -1.74179 0
M  V30 3218 O 302.362 1.63524 -1.0751 0
M  V30 3219 C 302.661 -0.890475 -3.46129 0
M  V30 3220 C 302.327 -2.3368 -3.85622 0
M  V30 3221 C 300.989 -2.73216 -3.96114 0
M  V30 3222 C 303.341 -3.27648 -4.05334 0
M  V30 3223 C 300.669 -4.05806 -4.2372 0
M  V30 3224 C 303.021 -4.59841 -4.3443 0
M  V30 3225 C 301.685 -4.99185 -4.43137 0
M  V30 3226 H 300.955 -0.218135 -0.708165 0
M  V30 3227 H 303.602 -1.1934 -1.49768 0
M  V30 3228 H 301.907 -0.210711 -3.91233 0
M  V30 3229 H 303.604 -0.598478 -3.96509 0
M  V30 3230 H 300.194 -2.02015 -3.78005 0
M  V30 3231 H 304.378 -2.98298 -3.96651 0
M  V30 3232 H 299.634 -4.35945 -4.28675 0
M  V30 3233 H 303.808 -5.32641 -4.48628 0
M  V30 3234 H 301.435 -6.01952 -4.64282 0
M  V30 3235 N 303.011 1.40521 -0.713556 0
M  V30 3236 C 303.943 2.29191 -0.0203126 0
M  V30 3237 C 304.956 1.45723 0.725864 0
M  V30 3238 O 306.145 1.69033 0.573581 0
M  V30 3239 C 303.245 3.2395 0.995486 0
M  V30 3240 C 302.418 4.36262 0.315256 0
M  V30 3241 C 301.477 5.11474 1.23616 0
M  V30 3242 O 300.503 5.64606 0.721719 0
M  V30 3243 N 301.705 5.20638 2.56743 0
M  V30 3244 H 304.47 2.89327 -0.781652 0
M  V30 3245 H 302.031 1.51869 -0.561022 0
M  V30 3246 H 304.023 3.71137 1.61368 0
M  V30 3247 H 302.593 2.64995 1.6582 0
M  V30 3248 H 301.813 3.91228 -0.483106 0
M  V30 3249 H 303.101 5.08558 -0.157004 0
M  V30 3250 H 302.499 4.7895 3.01037 0
M  V30 3251 H 301.056 5.71339 3.13712 0
M  V30 3252 N 304.489 0.459591 1.5075 0
M  V30 3253 C 305.452 -0.329093 2.26825 0
M  V30 3254 C 306.452 -0.930481 1.31144 0
M  V30 3255 O 307.642 -0.801453 1.54669 0
M  V30 3256 C 304.774 -1.46768 3.07688 0
M  V30 3257 H 305.967 0.337924 2.9799 0
M  V30 3258 H 303.52 0.213336 1.54837 0
M  V30 3259 H 304.255 -2.17009 2.40993 0
M  V30 3260 H 304.04 -1.04238 3.77991 0
M  V30 3261 H 305.53 -2.02433 3.65254 0
M  V30 3262 N 305.967 -1.56429 0.191757 0
M  V30 3263 C 306.897 -2.21937 -0.725696 0
M  V30 3264 C 307.878 -1.1814 -1.2238 0
M  V30 3265 O 309.063 -1.46636 -1.27325 0
M  V30 3266 C 306.193 -2.87611 -1.94672 0
M  V30 3267 C 305.147 -3.97623 -1.58366 0
M  V30 3268 C 304.473 -4.50446 -2.88102 0
M  V30 3269 C 305.773 -5.16197 -0.796133 0
M  V30 3270 H 307.467 -2.98861 -0.179606 0
M  V30 3271 H 305.013 -1.43749 -0.0849464 0
M  V30 3272 H 306.966 -3.3212 -2.59373 0
M  V30 3273 H 305.69 -2.08087 -2.51728 0
M  V30 3274 H 304.349 -3.53801 -0.960247 0
M  V30 3275 H 303.997 -3.67688 -3.43241 0
M  V30 3276 H 303.697 -5.24675 -2.64556 0
M  V30 3277 H 305.221 -4.97654 -3.53798 0
M  V30 3278 H 306.635 -5.57271 -1.34618 0
M  V30 3279 H 305.032 -5.96471 -0.658928 0
M  V30 3280 H 306.102 -4.84473 0.203478 0
M  V30 3281 N 307.445 0.0818655 -1.57387 0
M  V30 3282 C 308.377 1.12484 -1.997 0
M  V30 3283 C 309.39 1.35564 -0.90146 0
M  V30 3284 O 310.579 1.33982 -1.17945 0
M  V30 3285 C 307.679 2.47778 -2.31213 0
M  V30 3286 C 306.852 2.44793 -3.62485 0
M  V30 3287 C 305.911 3.62117 -3.81782 0
M  V30 3288 O 304.937 3.44005 -4.53486 0
M  V30 3289 N 306.139 4.82094 -3.23367 0
M  V30 3290 H 308.904 0.764585 -2.89783 0
M  V30 3291 H 306.465 0.270664 -1.59621 0
M  V30 3292 H 308.457 3.24891 -2.41304 0
M  V30 3293 H 307.027 2.75843 -1.4707 0
M  V30 3294 H 306.247 1.53134 -3.6324 0
M  V30 3295 H 307.535 2.39889 -4.48699 0
M  V30 3296 H 306.933 4.99713 -2.65148 0
M  V30 3297 H 305.49 5.56753 -3.38923 0
M  V30 3298 N 308.923 1.53595 0.353017 0
M  V30 3299 C 310.171 1.70049 1.09215 0
M  V30 3300 C 310.492 0.461406 1.89463 0
M  V30 3301 O 309.762 -0.524633 1.88744 0
M  V30 3302 H 308.342 0.626912 0.40619 0
M  V30 3303 H 311.004 1.90822 0.396585 0
M  V30 3304 H 310.1 2.56718 1.77488 0
M  V30 3305 N 310.401 -0.613514 1.45168 0
M  V30 3306 C 311.65 -1.36874 1.4815 0
M  V30 3307 C 311.963 -1.952 0.124982 0
M  V30 3308 O 313.169 -2.71481 0.0324176 0
M  V30 3309 C 311.625 -2.47905 2.60904 0
M  V30 3310 C 311.233 -1.96016 4.02842 0
M  V30 3311 C 312.977 -3.24965 2.73126 0
M  V30 3312 C 310.884 -3.04494 5.06988 0
M  V30 3313 H 309.814 -0.514428 0.551253 0
M  V30 3314 H 312.465 -0.658182 1.7129 0
M  V30 3315 H 310.847 -3.21618 2.31037 0
M  V30 3316 H 312.021 -1.29051 4.4236 0
M  V30 3317 H 310.336 -1.31719 3.95018 0
M  V30 3318 H 312.933 -4.05865 3.48106 0
M  V30 3319 H 313.276 -3.75588 1.79553 0
M  V30 3320 H 313.809 -2.5835 3.0249 0
M  V30 3321 H 310.548 -2.58795 6.0225 0
M  V30 3322 H 310.068 -3.70044 4.72046 0
M  V30 3323 H 311.747 -3.68976 5.31475 0
M  V30 3324 N 311.879 -1.3236 -0.855495 0
M  V30 3325 C 313.128 -1.22226 -1.60448 0
M  V30 3326 C 313.441 0.214733 -1.94418 0
M  V30 3327 O 314.647 0.437917 -2.67945 0
M  V30 3328 C 313.103 -2.14063 -2.89318 0
M  V30 3329 C 312.711 -3.62839 -2.62777 0
M  V30 3330 C 314.455 -2.12764 -3.67331 0
M  V30 3331 C 312.362 -4.4664 -3.87643 0
M  V30 3332 H 311.292 -0.453904 -0.602069 0
M  V30 3333 H 313.943 -1.57314 -0.944698 0
M  V30 3334 H 312.325 -1.71889 -3.5675 0
M  V30 3335 H 313.499 -4.1335 -2.03662 0
M  V30 3336 H 311.814 -3.66261 -1.98096 0
M  V30 3337 H 314.411 -2.72611 -4.59987 0
M  V30 3338 H 314.754 -1.11841 -4.00995 0
M  V30 3339 H 315.287 -2.53214 -3.06802 0
M  V30 3340 H 312.026 -5.48373 -3.5912 0
M  V30 3341 H 311.546 -4.0088 -4.46156 0
M  V30 3342 H 313.225 -4.59597 -4.55389 0
M  V30 3343 N 313.357 1.07166 -1.15556 0
M  V30 3344 C 314.307 2.12649 -0.82247 0
M  V30 3345 C 315.291 1.59725 0.194129 0
M  V30 3346 O 316.483 1.76999 -0.00540402 0
M  V30 3347 C 313.612 3.41847 -0.315572 0
M  V30 3348 C 312.698 4.0162 -1.36244 0
M  V30 3349 N 313.089 4.35625 -2.5703 0
M  V30 3350 C 311.387 4.29114 -1.21562 0
M  V30 3351 C 312.088 4.83017 -3.24144 0
M  V30 3352 N 311.064 4.81906 -2.51531 0
M  V30 3353 H 314.866 2.36776 -1.74111 0
M  V30 3354 H 312.38 1.24622 -1.0413 0
M  V30 3355 H 314.377 4.16859 -0.0585855 0
M  V30 3356 H 313.037 3.19163 0.597105 0
M  V30 3357 H 314.048 4.26253 -2.94158 0
M  V30 3358 H 310.725 4.15919 -0.362988 0
M  V30 3359 H 312.115 5.18605 -4.27198 0
M  V30 3360 N 314.835 0.952656 1.25548 0
M  V30 3361 C 316.06 0.623025 1.97821 0
M  V30 3362 C 316.485 -0.7976 1.70352 0
M  V30 3363 O 315.843 -1.53905 0.958283 0
M  V30 3364 C 315.891 0.885532 3.49558 0
M  V30 3365 O 314.995 -0.0366641 4.12384 0
M  V30 3366 H 314.336 0.237082 0.620232 0
M  V30 3367 H 316.866 1.27871 1.59719 0
M  V30 3368 H 316.876 0.811009 3.99858 0
M  V30 3369 H 315.551 1.92094 3.6888 0
M  V30 3370 H 314.128 0.0898954 3.72792 0
M  V30 3371 N 316.313 -1.40141 0.720998 0
M  V30 3372 C 317.562 -2.0002 0.259804 0
M  V30 3373 C 317.875 -1.57839 -1.15526 0
M  V30 3374 O 319.081 -2.10455 -1.71525 0
M  V30 3375 C 317.537 -3.57516 0.413566 0
M  V30 3376 C 317.145 -4.08667 1.83562 0
M  V30 3377 C 318.889 -4.24498 0.0134387 0
M  V30 3378 C 316.796 -5.58686 1.93968 0
M  V30 3379 H 315.726 -0.748195 0.0933806 0
M  V30 3380 H 318.377 -1.60313 0.892866 0
M  V30 3381 H 316.759 -3.9495 -0.288169 0
M  V30 3382 H 317.933 -3.82598 2.56817 0
M  V30 3383 H 316.248 -3.543 2.1877 0
M  V30 3384 H 318.845 -5.34654 0.0703954 0
M  V30 3385 H 319.188 -4.03375 -1.02927 0
M  V30 3386 H 319.721 -3.92188 0.665815 0
M  V30 3387 H 316.46 -5.8467 2.96379 0
M  V30 3388 H 315.98 -5.86602 1.25131 0
M  V30 3389 H 317.659 -6.23875 1.71431 0
M  V30 3390 N 317.792 -0.46758 -1.50504 0
M  V30 3391 C 318.722 0.318381 -2.31319 0
M  V30 3392 C 319.703 0.993564 -1.38066 0
M  V30 3393 O 320.888 0.991411 -1.66987 0
M  V30 3394 C 318.018 1.40275 -3.17711 0
M  V30 3395 C 316.972 0.849373 -4.19487 0
M  V30 3396 C 316.298 2.03177 -4.94594 0
M  V30 3397 C 317.598 -0.136942 -5.2212 0
M  V30 3398 H 319.292 -0.356106 -2.97275 0
M  V30 3399 H 316.838 -0.172703 -1.42961 0
M  V30 3400 H 318.791 1.96004 -3.73042 0
M  V30 3401 H 317.515 2.10596 -2.49634 0
M  V30 3402 H 316.174 0.314076 -3.65252 0
M  V30 3403 H 315.822 2.72187 -4.22993 0
M  V30 3404 H 315.522 1.66774 -5.63436 0
M  V30 3405 H 317.046 2.59403 -5.52759 0
M  V30 3406 H 318.46 0.331056 -5.72343 0
M  V30 3407 H 316.857 -0.41507 -5.98663 0
M  V30 3408 H 317.927 -1.06398 -4.73083 0
M  V30 3409 N 319.27 1.56325 -0.20005 0
M  V30 3410 C 320.217 2.1932 0.718833 0
M  V30 3411 C 321.187 1.14198 1.20615 0
M  V30 3412 O 322.372 1.42469 1.26914 0
M  V30 3413 C 319.512 2.86041 1.93066 0
M  V30 3414 C 318.625 4.05702 1.48425 0
M  V30 3415 C 317.76 4.60266 2.65196 0
M  V30 3416 C 316.799 5.72273 2.17185 0
M  V30 3417 N 315.936 6.21221 3.27152 0
M  V30 3418 H 320.776 2.97486 0.17489 0
M  V30 3419 H 318.313 1.46911 0.0745794 0
M  V30 3420 H 320.271 3.22897 2.64184 0
M  V30 3421 H 318.901 2.1043 2.44783 0
M  V30 3422 H 317.953 3.74475 0.668755 0
M  V30 3423 H 319.265 4.86699 1.09204 0
M  V30 3424 H 318.419 4.99453 3.4443 0
M  V30 3425 H 317.158 3.78386 3.07693 0
M  V30 3426 H 316.163 5.3261 1.36407 0
M  V30 3427 H 317.388 6.55974 1.75713 0
M  V30 3428 H 315.334 5.42263 3.69171 0
M  V30 3429 H 315.251 6.97284 2.92116 0
M  V30 3430 H 316.519 6.65063 4.06585 0
M  V30 3431 N 320.748 -0.0735177 1.57428 0
M  V30 3432 C 321.695 -1.08756 2.0357 0
M  V30 3433 C 322.665 -1.38559 0.916 0
M  V30 3434 O 323.85 -1.49656 1.18354 0
M  V30 3435 C 320.99 -2.39657 2.48311 0
M  V30 3436 C 320.103 -2.16399 3.73892 0
M  V30 3437 C 319.238 -3.40852 4.07423 0
M  V30 3438 C 318.277 -3.1295 5.2605 0
M  V30 3439 N 317.414 -4.29729 5.55228 0
M  V30 3440 H 322.254 -0.687104 2.8997 0
M  V30 3441 H 319.791 -0.327709 1.43403 0
M  V30 3442 H 321.749 -3.16081 2.72303 0
M  V30 3443 H 320.379 -2.77508 1.64891 0
M  V30 3444 H 319.431 -1.30676 3.57251 0
M  V30 3445 H 320.743 -1.91788 4.60455 0
M  V30 3446 H 319.897 -4.25671 4.32306 0
M  V30 3447 H 318.636 -3.68537 3.19425 0
M  V30 3448 H 317.641 -2.26526 5.00965 0
M  V30 3449 H 318.866 -2.86589 6.15665 0
M  V30 3450 H 316.812 -4.57448 4.70188 0
M  V30 3451 H 316.729 -4.08385 6.36206 0
M  V30 3452 H 317.997 -5.1555 5.84661 0
M  V30 3453 N 322.226 -1.5378 -0.344866 0
M  V30 3454 C 323.451 -1.75211 -1.10977 0
M  V30 3455 C 323.876 -0.48936 -1.81623 0
M  V30 3456 O 323.234 0.557925 -1.72502 0
M  V30 3457 C 323.282 -2.93147 -2.09993 0
M  V30 3458 O 322.386 -2.63203 -3.17487 0
M  V30 3459 H 321.727 -0.581241 -0.321021 0
M  V30 3460 H 324.257 -2.00738 -0.395661 0
M  V30 3461 H 324.267 -3.19898 -2.53237 0
M  V30 3462 H 322.942 -3.84731 -1.5797 0
M  V30 3463 H 321.519 -2.47336 -2.79069 0
M  V30 3464 N 323.704 0.605807 -1.45491 0
M  V30 3465 C 324.944 1.37606 -1.51142 0
M  V30 3466 C 325.308 1.91413 -0.150075 0
M  V30 3467 O 326.509 2.68677 -0.0812828 0
M  V30 3468 C 324.78 2.49197 -2.56195 0
M  V30 3469 S 326.339 3.36953 -2.81083 0
M  V30 3470 H 323.157 0.469118 -0.534275 0
M  V30 3471 H 325.759 0.698845 -1.82583 0
M  V30 3472 H 324.463 2.0802 -3.53773 0
M  V30 3473 H 323.994 3.21717 -2.26411 0
M  V30 3474 H 326.009 4.47395 -2.14598 0
M  V30 3475 N 325.182 1.32811 0.848464 0
M  V30 3476 C 326.431 1.23075 1.59798 0
M  V30 3477 C 326.744 -0.204419 1.94529 0
M  V30 3478 O 327.95 -0.423701 2.68173 0
M  V30 3479 C 326.406 2.15594 2.88179 0
M  V30 3480 C 326.014 3.64228 2.60849 0
M  V30 3481 C 327.758 2.14709 3.66197 0
M  V30 3482 C 325.665 4.48689 3.85269 0
M  V30 3483 H 324.595 0.457091 0.599653 0
M  V30 3484 H 327.246 1.57813 0.936342 0
M  V30 3485 H 325.628 1.73778 3.55833 0
M  V30 3486 H 326.802 4.14424 2.01467 0
M  V30 3487 H 325.117 3.67306 1.96151 0
M  V30 3488 H 327.714 2.75046 4.58534 0
M  V30 3489 H 328.057 1.13966 4.00397 0
M  V30 3490 H 328.59 2.54837 3.05455 0
M  V30 3491 H 325.329 5.5027 3.56207 0
M  V30 3492 H 324.849 4.03241 4.44024 0
M  V30 3493 H 326.528 4.62006 4.52946 0
M  V30 3494 N 326.66 -1.06551 1.16123 0
M  V30 3495 C 327.57 -2.17484 0.879662 0
M  V30 3496 C 328.586 -1.73377 -0.147104 0
M  V30 3497 O 329.762 -2.01379 0.0289128 0
M  V30 3498 C 326.827 -3.44591 0.381829 0
M  V30 3499 C 325.888 -4.0322 1.4735 0
M  V30 3500 C 325.121 -5.24261 0.999324 0
M  V30 3501 O 325.344 -5.70198 -0.151957 0
M  V30 3502 O 324.278 -5.74775 1.78653 0
M  V30 3503 H 328.104 -2.44075 1.80724 0
M  V30 3504 H 325.689 -1.16042 0.940992 0
M  V30 3505 H 327.571 -4.21254 0.111053 0
M  V30 3506 H 326.246 -3.19532 -0.51777 0
M  V30 3507 H 325.153 -3.2806 1.79798 0
M  V30 3508 H 326.486 -4.32568 2.34831 0
M  V30 3509 N 328.138 -0.959301 -1.25041 0
M  V30 3510 C 329.387 -0.612254 -1.92183 0
M  V30 3511 C 329.7 0.855347 -1.75907 0
M  V30 3512 O 330.906 1.31256 -2.37664 0
M  V30 3513 C 329.362 -1.04435 -3.44414 0
M  V30 3514 C 328.97 -2.53482 -3.69393 0
M  V30 3515 C 330.714 -0.770055 -4.17457 0
M  V30 3516 C 328.621 -2.90468 -5.15153 0
M  V30 3517 H 327.551 -0.225279 -0.719559 0
M  V30 3518 H 330.202 -1.16438 -1.41825 0
M  V30 3519 H 328.584 -0.4206 -3.9376 0
M  V30 3520 H 329.758 -3.20916 -3.30681 0
M  V30 3521 H 328.073 -2.78432 -3.0962 0
M  V30 3522 H 330.67 -1.02249 -5.24832 0
M  V30 3523 H 331.013 0.293611 -4.15263 0
M  V30 3524 H 331.546 -1.35437 -3.74034 0
M  V30 3525 H 328.285 -3.95871 -5.22462 0
M  V30 3526 H 327.805 -2.27711 -5.54894 0
M  V30 3527 H 329.484 -2.79914 -5.83315 0
M  V30 3528 N 329.616 1.39756 -0.72842 0
M  V30 3529 C 330.546 2.33289 -0.0991354 0
M  V30 3530 C 331.527 1.53568 0.731489 0
M  V30 3531 O 332.712 1.81987 0.677807 0
M  V30 3532 C 329.842 3.3763 0.813834 0
M  V30 3533 C 328.796 4.2791 0.0878663 0
M  V30 3534 C 328.122 5.22894 1.11741 0
M  V30 3535 C 329.422 5.11314 -1.06563 0
M  V30 3536 H 331.116 2.86163 -0.880408 0
M  V30 3537 H 328.662 1.37591 -0.424819 0
M  V30 3538 H 330.615 4.0201 1.26355 0
M  V30 3539 H 329.339 2.83181 1.62715 0
M  V30 3540 H 327.998 3.65 -0.342159 0
M  V30 3541 H 327.646 4.64744 1.92412 0
M  V30 3542 H 327.346 5.84143 0.636477 0
M  V30 3543 H 328.87 5.90151 1.56697 0
M  V30 3544 H 330.284 5.69076 -0.694671 0
M  V30 3545 H 328.681 5.81671 -1.47577 0
M  V30 3546 H 329.751 4.46534 -1.89038 0
M  V30 3547 N 331.094 0.475555 1.50254 0
M  V30 3548 C 332.057 -0.305016 2.27161 0
M  V30 3549 C 333.057 -0.916519 1.32123 0
M  V30 3550 O 334.247 -0.785003 1.5551 0
M  V30 3551 C 331.379 -1.43496 3.09227 0
M  V30 3552 H 332.572 0.369511 2.97615 0
M  V30 3553 H 330.125 0.229747 1.54602 0
M  V30 3554 H 330.86 -2.14441 2.43281 0
M  V30 3555 H 330.645 -1.00223 3.79075 0
M  V30 3556 H 332.135 -1.98548 3.67381 0
M  V30 3557 N 332.573 -1.56217 0.208337 0
M  V30 3558 C 333.536 -2.18455 -0.693557 0
M  V30 3559 C 334.536 -1.14268 -1.13135 0
M  V30 3560 O 335.726 -1.39577 -1.0423 0
M  V30 3561 C 332.858 -2.79727 -1.94848 0
M  V30 3562 H 334.051 -2.99519 -0.15114 0
M  V30 3563 H 331.604 -1.56245 -0.041287 0
M  V30 3564 H 332.339 -2.02497 -2.53309 0
M  V30 3565 H 332.124 -3.56009 -1.64316 0
M  V30 3566 H 333.614 -3.27475 -2.59133 0
M  V30 3567 N 334.051 0.0651679 -1.57465 0
M  V30 3568 C 334.961 1.09448 -2.07505 0
M  V30 3569 C 335.977 1.41974 -1.00595 0
M  V30 3570 O 337.153 1.52018 -1.32107 0
M  V30 3571 C 334.218 2.38689 -2.51453 0
M  V30 3572 C 333.279 2.13073 -3.72691 0
M  V30 3573 C 332.512 3.36152 -4.14533 0
M  V30 3574 O 332.735 4.45517 -3.56189 0
M  V30 3575 O 331.669 3.23974 -5.07272 0
M  V30 3576 H 335.495 0.69935 -2.95538 0
M  V30 3577 H 333.08 0.279752 -1.46757 0
M  V30 3578 H 334.962 3.14736 -2.80212 0
M  V30 3579 H 333.637 2.77568 -1.66546 0
M  V30 3580 H 332.544 1.34709 -3.49005 0
M  V30 3581 H 333.877 1.79071 -4.5847 0
M  V30 3582 N 335.529 1.53961 0.336706 0
M  V30 3583 C 336.94 1.62914 0.911925 0
M  V30 3584 C 337.291 0.514795 1.89326 0
M  V30 3585 O 336.416 -0.354395 2.13478 0
M  V30 3586 C 337.011 2.95304 1.66076 0
M  V30 3587 C 335.57 3.06496 2.18489 0
M  V30 3588 C 334.717 2.58403 1.00613 0
M  V30 3589 H 337.668 1.58285 0.114649 0
M  V30 3590 H 337.689 2.84727 2.5241 0
M  V30 3591 H 337.201 3.76387 0.946276 0
M  V30 3592 H 335.302 2.3006 2.93092 0
M  V30 3593 H 335.415 4.1208 2.44391 0
M  V30 3594 H 333.779 2.13977 1.38152 0
M  V30 3595 H 334.562 3.41932 0.306179 0
M  V30 3596 N 337.007 -0.598083 1.45811 0
M  V30 3597 C 338.232 -1.3881 1.54099 0
M  V30 3598 C 338.657 -1.8726 0.177578 0
M  V30 3599 O 338.015 -1.6069 -0.839541 0
M  V30 3600 C 338.063 -2.56217 2.53743 0
M  V30 3601 O 337.167 -3.5716 2.06182 0
M  V30 3602 H 336.508 -0.414024 0.519115 0
M  V30 3603 H 339.038 -0.726971 1.91249 0
M  V30 3604 H 339.048 -3.03337 2.72856 0
M  V30 3605 H 337.723 -2.20303 3.5276 0
M  V30 3606 H 336.3 -3.16624 1.96987 0
M  V30 3607 N 338.485 -1.33259 -0.841409 0
M  V30 3608 C 339.713 -1.27605 -1.62864 0
M  V30 3609 C 340.128 0.153507 -1.88175 0
M  V30 3610 O 339.485 1.09485 -1.46011 0
M  V30 3611 C 339.536 -2.04596 -2.98031 0
M  V30 3612 O 339.257 -3.41975 -2.73834 0
M  V30 3613 C 340.758 -2.06122 -3.92465 0
M  V30 3614 H 337.978 -0.439718 -0.506842 0
M  V30 3615 H 340.522 -1.75591 -1.04824 0
M  V30 3616 H 338.677 -1.60299 -3.5268 0
M  V30 3617 H 339.091 -3.81549 -3.59889 0
M  V30 3618 H 340.565 -2.64451 -4.84531 0
M  V30 3619 H 341.042 -1.05083 -4.26444 0
M  V30 3620 H 341.648 -2.50427 -3.43753 0
M  V30 3621 N 339.963 1.05934 -1.16686 0
M  V30 3622 C 341.212 1.78188 -0.945085 0
M  V30 3623 C 341.525 1.88338 0.528021 0
M  V30 3624 O 342.731 2.57258 0.867799 0
M  V30 3625 C 341.187 3.20277 -1.64167 0
M  V30 3626 C 340.795 3.18281 -3.15279 0
M  V30 3627 C 342.539 3.97039 -1.502 0
M  V30 3628 C 340.446 4.55112 -3.7766 0
M  V30 3629 H 339.376 0.667866 -0.349959 0
M  V30 3630 H 342.027 1.18794 -1.39858 0
M  V30 3631 H 340.409 3.79952 -1.11589 0
M  V30 3632 H 341.583 2.68167 -3.74731 0
M  V30 3633 H 339.898 2.55018 -3.29173 0
M  V30 3634 H 342.495 4.98194 -1.94183 0
M  V30 3635 H 342.838 4.13845 -0.451461 0
M  V30 3636 H 343.371 3.43894 -1.99954 0
M  V30 3637 H 340.11 4.43512 -4.82677 0
M  V30 3638 H 339.63 5.05406 -3.22994 0
M  V30 3639 H 341.309 5.24064 -3.79428 0
M  V30 3640 N 341.441 0.965919 1.2453 0
M  V30 3641 C 342.681 0.634656 1.94297 0
M  V30 3642 C 343.045 -0.814822 1.73852 0
M  V30 3643 O 344.246 -1.25622 2.3764 0
M  V30 3644 C 342.517 0.99702 3.43212 0
M  V30 3645 S 344.076 0.780038 4.31811 0
M  V30 3646 H 340.894 0.232893 0.671775 0
M  V30 3647 H 343.496 1.24249 1.50938 0
M  V30 3648 H 342.2 2.04886 3.55598 0
M  V30 3649 H 341.731 0.379888 3.91562 0
M  V30 3650 H 343.746 -0.343512 4.9501 0
M  V30 3651 N 342.919 -1.39368 0.735821 0
M  V30 3652 C 343.882 -2.2896 0.104874 0
M  V30 3653 C 344.882 -1.46347 -0.666274 0
M  V30 3654 O 346.072 -1.67014 -0.49517 0
M  V30 3655 C 343.204 -3.29857 -0.860656 0
M  V30 3656 H 344.397 -2.86259 0.894205 0
M  V30 3657 H 341.95 -1.48029 0.501704 0
M  V30 3658 H 342.685 -2.77615 -1.67631 0
M  V30 3659 H 342.47 -3.9087 -0.310327 0
M  V30 3660 H 343.96 -3.96893 -1.29867 0
M  V30 3661 N 344.397 -0.483516 -1.5 0
M  V30 3662 C 345.645 0.067027 -2.01989 0
M  V30 3663 C 345.966 1.3909 -1.36671 0
M  V30 3664 O 345.236 1.88978 -0.516152 0
M  V30 3665 H 343.816 0.0277606 -0.746484 0
M  V30 3666 H 346.478 -0.636773 -1.84204 0
M  V30 3667 H 345.574 0.209484 -3.11396 0
M  V30 3668 N 345.875 1.56104 -0.216619 0
M  V30 3669 C 346.785 2.23694 0.706982 0
M  V30 3670 C 347.801 1.24295 1.21765 0
M  V30 3671 O 348.977 1.57094 1.2603 0
M  V30 3672 C 346.042 2.8998 1.90033 0
M  V30 3673 C 345.103 4.04708 1.43213 0
M  V30 3674 C 344.336 4.67824 2.56859 0
M  V30 3675 O 344.559 4.29913 3.74874 0
M  V30 3676 O 343.493 5.56905 2.28343 0
M  V30 3677 H 347.319 3.03272 0.161235 0
M  V30 3678 H 344.904 1.49394 0.0136177 0
M  V30 3679 H 346.786 3.31837 2.59735 0
M  V30 3680 H 345.461 2.13365 2.43428 0
M  V30 3681 H 344.368 3.6743 0.70327 0
M  V30 3682 H 345.701 4.83051 0.944615 0
M  V30 3683 N 347.353 -0.0568162 1.57498 0
M  V30 3684 C 348.578 -0.769402 1.92601 0
M  V30 3685 C 349.003 -1.69559 0.814336 0
M  V30 3686 O 348.361 -1.79811 -0.231903 0
M  V30 3687 C 348.409 -1.52634 3.26704 0
M  V30 3688 O 347.513 -2.63797 3.16994 0
M  V30 3689 H 346.854 -0.208909 0.63028 0
M  V30 3690 H 349.384 -0.0205798 2.0459 0
M  V30 3691 H 349.394 -1.90234 3.60936 0
M  V30 3692 H 348.069 -0.846875 4.07186 0
M  V30 3693 H 346.646 -2.28943 2.94346 0
M  V30 3694 N 348.832 -1.54138 -0.328536 0
M  V30 3695 C 350.079 -1.72105 -1.06706 0
M  V30 3696 C 350.407 -0.492111 -1.88171 0
M  V30 3697 O 349.662 0.526153 -1.88494 0
M  V30 3698 C 349.961 -2.9457 -2.02393 0
M  V30 3699 C 349.627 -4.29544 -1.37122 0
M  V30 3700 C 348.289 -4.6624 -1.19052 0
M  V30 3701 C 350.641 -5.1333 -0.902331 0
M  V30 3702 C 347.969 -5.84325 -0.527331 0
M  V30 3703 C 350.321 -6.32094 -0.252988 0
M  V30 3704 C 348.985 -6.67473 -0.0600901 0
M  V30 3705 H 348.255 -0.629775 -0.390466 0
M  V30 3706 H 350.902 -1.88372 -0.34473 0
M  V30 3707 H 349.207 -2.72969 -2.81061 0
M  V30 3708 H 350.904 -3.05665 -2.59557 0
M  V30 3709 H 347.494 -4.0067 -1.52188 0
M  V30 3710 H 351.678 -4.855 -1.02974 0
M  V30 3711 H 346.934 -6.103 -0.366634 0
M  V30 3712 H 351.108 -6.96299 0.118366 0
M  V30 3713 H 348.735 -7.58832 0.455828 0
M  V30 3714 N 350.31 0.590341 -1.46126 0
M  V30 3715 C 351.242 1.71427 -1.52136 0
M  V30 3716 C 352.255 1.57542 -0.41042 0
M  V30 3717 O 353.444 1.65106 -0.678389 0
M  V30 3718 C 350.544 3.09605 -1.37834 0
M  V30 3719 C 349.717 3.49566 -2.62912 0
M  V30 3720 C 348.776 4.66773 -2.42918 0
M  V30 3721 O 347.802 4.73019 -3.1661 0
M  V30 3722 N 349.004 5.61161 -1.4859 0
M  V30 3723 H 351.769 1.66728 -2.49042 0
M  V30 3724 H 349.33 0.776113 -1.42085 0
M  V30 3725 H 351.322 3.85796 -1.22243 0
M  V30 3726 H 349.892 3.08714 -0.491393 0
M  V30 3727 H 349.112 2.63158 -2.93499 0
M  V30 3728 H 350.4 3.73028 -3.46017 0
M  V30 3729 H 349.798 5.58844 -0.87808 0
M  V30 3730 H 348.355 6.36814 -1.38965 0
M  V30 3731 N 351.788 1.33704 0.83433 0
M  V30 3732 C 353.034 1.25603 1.59222 0
M  V30 3733 C 353.367 -0.176659 1.93395 0
M  V30 3734 O 352.642 -1.11915 1.59076 0
M  V30 3735 C 352.925 2.13576 2.89926 0
M  V30 3736 C 352.778 3.65326 2.62406 0
M  V30 3737 C 354.097 2.01238 3.91397 0
M  V30 3738 H 351.216 0.457613 0.577719 0
M  V30 3739 H 353.858 1.63848 0.961972 0
M  V30 3740 H 352.008 1.8109 3.43713 0
M  V30 3741 H 353.68 4.08124 2.15017 0
M  V30 3742 H 351.923 3.8698 1.96033 0
M  V30 3743 H 352.594 4.22232 3.55562 0
M  V30 3744 H 355.07 2.29738 3.46929 0
M  V30 3745 H 353.946 2.65036 4.80673 0
M  V30 3746 H 354.207 0.985951 4.30966 0
M  V30 3747 N 353.266 -1.05314 1.17247 0
M  V30 3748 C 354.512 -1.78557 0.961513 0
M  V30 3749 C 354.845 -1.87419 -0.508697 0
M  V30 3750 O 354.12 -1.37307 -1.37757 0
M  V30 3751 C 354.403 -3.22514 1.60176 0
M  V30 3752 C 354.256 -3.21673 3.14399 0
M  V30 3753 C 355.575 -4.20318 1.30463 0
M  V30 3754 H 352.694 -0.6482 0.350723 0
M  V30 3755 H 355.336 -1.23102 1.44727 0
M  V30 3756 H 353.486 -3.69867 1.18871 0
M  V30 3757 H 355.158 -2.82405 3.64753 0
M  V30 3758 H 353.401 -2.60048 3.47214 0
M  V30 3759 H 354.072 -4.23271 3.54324 0
M  V30 3760 H 356.548 -3.81454 1.66229 0
M  V30 3761 H 355.424 -5.19289 1.77848 0
M  V30 3762 H 355.685 -4.41526 0.22521 0
M  V30 3763 N 354.744 -0.972509 -1.24016 0
M  V30 3764 C 355.99 -0.637978 -1.92504 0
M  V30 3765 C 356.323 0.825383 -1.75787 0
M  V30 3766 O 355.598 1.59442 -1.11393 0
M  V30 3767 C 355.881 -1.01942 -3.45369 0
M  V30 3768 C 355.734 -2.53983 -3.71231 0
M  V30 3769 C 357.053 -0.55751 -4.36555 0
M  V30 3770 H 354.172 -0.233248 -0.699117 0
M  V30 3771 H 356.814 -1.21238 -1.46292 0
M  V30 3772 H 354.964 -0.530656 -3.84859 0
M  V30 3773 H 356.636 -3.10374 -3.41271 0
M  V30 3774 H 354.879 -2.96968 -3.16216 0
M  V30 3775 H 355.55 -2.75723 -4.78206 0
M  V30 3776 H 358.026 -0.977029 -4.04467 0
M  V30 3777 H 356.902 -0.85292 -5.42233 0
M  V30 3778 H 357.163 0.542328 -4.38761 0
M  V30 3779 N 356.222 1.38976 -0.743202 0
M  V30 3780 C 357.638 1.53984 -0.419664 0
M  V30 3781 C 357.838 1.70837 1.0685 0
M  V30 3782 O 356.894 1.7135 1.8546 0
M  V30 3783 C 358.207 2.75287 -1.20985 0
M  V30 3784 C 359.755 2.89129 -1.19889 0
M  V30 3785 C 360.23 4.13381 -1.97181 0
M  V30 3786 N 361.721 4.20437 -1.94389 0
M  V30 3787 C 362.456 5.15547 -2.50996 0
M  V30 3788 N 361.952 6.16395 -3.16274 0
M  V30 3789 N 363.745 5.07822 -2.40984 0
M  V30 3790 H 355.896 1.26285 -1.7078 0
M  V30 3791 H 358.159 0.612689 -0.723406 0
M  V30 3792 H 357.865 2.69204 -2.26323 0
M  V30 3793 H 357.739 3.68184 -0.819759 0
M  V30 3794 H 360.126 2.947 -0.153606 0
M  V30 3795 H 360.207 1.97272 -1.62841 0
M  V30 3796 H 359.851 4.08572 -3.01714 0
M  V30 3797 H 359.781 5.04298 -1.51629 0
M  V30 3798 H 362.272 3.48205 -1.46839 0
M  V30 3799 H 362.585 6.85443 -3.56915 0
M  V30 3800 H 360.93 6.16758 -3.20367 0
M  V30 3801 H 364.121 4.27973 -1.89622 0
M  V30 3802 H 364.294 5.81767 -2.85397 0
M  V30 3803 N 357.7 0.491464 1.49741 0
M  V30 3804 C 358.948 -0.0563141 2.02022 0
M  V30 3805 C 359.269 -1.38363 1.37407 0
M  V30 3806 O 358.539 -1.88702 0.526166 0
M  V30 3807 H 357.119 -0.0238014 0.746621 0
M  V30 3808 H 359.781 0.646533 1.83864 0
M  V30 3809 H 358.877 -0.192967 3.11503 0
M  V30 3810 N 359.178 -1.55987 0.224894 0
M  V30 3811 C 360.126 -2.21808 -0.700283 0
M  V30 3812 C 361.12 -1.19854 -1.19714 0
M  V30 3813 O 362.326 -1.37925 -1.15658 0
M  V30 3814 H 358.701 -0.711226 -0.244258 0
M  V30 3815 H 360.672 -2.98152 -0.121749 0
M  V30 3816 C 359.421 -2.91444 -1.8962 0
M  V30 3817 H 358.744 -3.69655 -1.52299 0
M  V30 3818 H 360.184 -3.40894 -2.52125 0
M  V30 3819 C 358.643 -1.94098 -2.75368 0
M  V30 3820 O 359.173 -1.46004 -3.74227 0
M  V30 3821 N 357.379 -1.61675 -2.41474 0
M  V30 3822 H 356.926 -2.00979 -1.61137 0
M  V30 3823 H 356.884 -0.968036 -2.99126 0
M  V30 3824 N 360.656 0.0484629 -1.57525 0
M  V30 3825 C 361.904 0.741657 -1.88 0
M  V30 3826 C 362.225 1.76918 -0.820054 0
M  V30 3827 O 361.495 1.95335 0.148661 0
M  V30 3828 H 360.075 0.276908 -0.69378 0
M  V30 3829 H 362.737 0.019013 -1.94891 0
M  V30 3830 H 361.833 1.24336 -2.86264 0
M  V30 3831 N 362.134 1.5431 0.320358 0
M  V30 3832 C 363.381 1.72668 1.05792 0
M  V30 3833 C 363.709 0.502084 1.87908 0
M  V30 3834 O 362.964 -0.516149 1.88771 0
M  V30 3835 C 363.263 2.95639 2.00828 0
M  V30 3836 C 362.929 4.30265 1.34843 0
M  V30 3837 C 361.591 4.66865 1.16578 0
M  V30 3838 C 363.943 5.13801 0.875095 0
M  V30 3839 C 361.271 5.84597 0.496336 0
M  V30 3840 C 363.623 6.32219 0.219463 0
M  V30 3841 C 362.287 6.67495 0.0246915 0
M  V30 3842 H 361.557 0.631837 0.387121 0
M  V30 3843 H 364.204 1.88552 0.334735 0
M  V30 3844 H 362.509 2.74456 2.79609 0
M  V30 3845 H 364.206 3.07038 2.57932 0
M  V30 3846 H 360.796 4.01472 1.50061 0
M  V30 3847 H 364.98 4.86039 1.00398 0
M  V30 3848 H 360.236 6.10486 0.334264 0
M  V30 3849 H 364.41 6.96227 -0.155291 0
M  V30 3850 H 362.037 7.5858 -0.496065 0
M  V30 3851 N 363.613 -0.582584 1.46437 0
M  V30 3852 C 365.029 -0.905962 1.31394 0
M  V30 3853 C 365.229 -1.99468 0.285476 0
M  V30 3854 O 364.285 -2.50566 -0.311914 0
M  V30 3855 C 365.598 -1.3232 2.70022 0
M  V30 3856 C 367.146 -1.43604 2.78113 0
M  V30 3857 C 367.621 -1.88694 4.17323 0
M  V30 3858 N 369.112 -1.95887 4.19741 0
M  V30 3859 C 369.847 -2.32051 5.24347 0
M  V30 3860 N 369.343 -2.67006 6.39281 0
M  V30 3861 N 371.136 -2.32606 5.11713 0
M  V30 3862 H 363.287 0.1366 2.1196 0
M  V30 3863 H 365.55 -0.00155736 0.947999 0
M  V30 3864 H 365.256 -0.597242 3.46592 0
M  V30 3865 H 365.13 -2.28469 3.00136 0
M  V30 3866 H 367.517 -2.15286 2.01832 0
M  V30 3867 H 367.598 -0.457059 2.51684 0
M  V30 3868 H 367.242 -1.1759 4.941 0
M  V30 3869 H 367.172 -2.8755 4.4116 0
M  V30 3870 H 369.663 -1.71362 3.36814 0
M  V30 3871 H 369.976 -2.93554 7.14875 0
M  V30 3872 H 368.321 -2.64644 6.42642 0
M  V30 3873 H 371.512 -2.04721 4.2096 0
M  V30 3874 H 371.685 -2.60462 5.93349 0
M  V30 3875 N 365.091 -1.34144 -0.827227 0
M  V30 3876 C 366.041 -1.21923 -1.92663 0
M  V30 3877 C 367.025 -0.119294 -1.60457 0
M  V30 3878 O 368.217 -0.348539 -1.73534 0
M  V30 3879 C 365.346 -0.972492 -3.29238 0
M  V30 3880 C 364.432 -2.1154 -3.67576 0
M  V30 3881 N 364.823 -3.36627 -3.77512 0
M  V30 3882 C 363.121 -2.02468 -3.97395 0
M  V30 3883 C 363.822 -4.11658 -4.1099 0
M  V30 3884 N 362.798 -3.40207 -4.23981 0
M  V30 3885 H 366.6 -2.16721 -1.98517 0
M  V30 3886 H 364.114 -1.2632 -1.02064 0
M  V30 3887 H 366.111 -0.865847 -4.0781 0
M  V30 3888 H 364.771 -0.0331509 -3.24683 0
M  V30 3889 H 365.782 -3.71234 -3.61118 0
M  V30 3890 H 362.459 -1.16265 -4.00985 0
M  V30 3891 H 363.849 -5.19657 -4.25918 0
M  V30 3892 N 366.569 1.04691 -1.17803 0
M  V30 3893 C 367.532 2.10724 -0.901545 0
M  V30 3894 C 368.532 1.6042 0.110437 0
M  V30 3895 O 369.722 1.7377 -0.122303 0
M  V30 3896 C 366.854 3.39084 -0.351409 0
M  V30 3897 H 368.047 2.36686 -1.84174 0
M  V30 3898 H 365.6 1.21015 -0.98919 0
M  V30 3899 H 366.335 3.18782 0.59569 0
M  V30 3900 H 366.12 3.76909 -1.08083 0
M  V30 3901 H 367.61 4.17227 -0.176451 0
M  V30 3902 N 368.047 0.979072 1.23499 0
M  V30 3903 C 369.463 0.687475 1.44034 0
M  V30 3904 C 369.663 -0.746801 1.8715 0
M  V30 3905 O 368.719 -1.51939 2.0167 0
M  V30 3906 C 370.032 1.68127 2.49307 0
M  V30 3907 C 371.58 1.69516 2.63122 0
M  V30 3908 C 372.055 2.67723 3.71603 0
M  V30 3909 N 373.546 2.66233 3.79044 0
M  V30 3910 C 374.281 3.38891 4.62537 0
M  V30 3911 N 373.777 4.21103 5.50131 0
M  V30 3912 N 375.57 3.27661 4.56721 0
M  V30 3913 H 367.721 1.90559 0.938135 0
M  V30 3914 H 369.984 0.821051 0.473897 0
M  V30 3915 H 369.69 2.70693 2.2454 0
M  V30 3916 H 369.564 1.46306 3.4767 0
M  V30 3917 H 371.951 0.676561 2.8724 0
M  V30 3918 H 372.032 1.95404 1.65079 0
M  V30 3919 H 371.676 3.69724 3.48233 0
M  V30 3920 H 371.606 2.39111 4.69184 0
M  V30 3921 H 374.097 2.06568 3.16446 0
M  V30 3922 H 374.41 4.73403 6.10827 0
M  V30 3923 H 372.755 4.25195 5.49759 0
M  V30 3924 H 375.946 2.62887 3.87309 0
M  V30 3925 H 376.119 3.84547 5.21562 0
M  V30 3926 N 369.525 -1.3858 0.750561 0
M  V30 3927 C 370.473 -2.32339 0.110162 0
M  V30 3928 C 371.467 -1.53864 -0.708674 0
M  V30 3929 O 372.673 -1.69417 -0.608112 0
M  V30 3930 H 369.048 -0.751812 0.0168275 0
M  V30 3931 H 371.019 -2.83959 0.917053 0
M  V30 3932 C 369.768 -3.39043 -0.771067 0
M  V30 3933 H 369.091 -3.99517 -0.150374 0
M  V30 3934 H 370.531 -4.07061 -1.1865 0
M  V30 3935 C 368.99 -2.77365 -1.91234 0
M  V30 3936 O 369.52 -2.66434 -3.00626 0
M  V30 3937 N 367.726 -2.35219 -1.70646 0
M  V30 3938 H 367.273 -2.4431 -0.81673 0
M  V30 3939 H 367.231 -1.94294 -2.47178 0
M  V30 3940 N 371.003 -0.499398 -1.49478 0
M  V30 3941 C 372.249 0.0457576 -2.02748 0
M  V30 3942 C 372.582 1.36793 -1.37846 0
M  V30 3943 O 371.857 1.87596 -0.513601 0
M  V30 3944 C 372.14 0.199986 -3.59544 0
M  V30 3945 C 371.993 -1.1452 -4.34977 0
M  V30 3946 C 373.312 0.94137 -4.29914 0
M  V30 3947 H 370.431 0.0151552 -0.736844 0
M  V30 3948 H 373.073 -0.650498 -1.78518 0
M  V30 3949 H 371.223 0.793007 -3.8032 0
M  V30 3950 H 372.895 -1.77697 -4.25701 0
M  V30 3951 H 371.138 -1.73488 -3.97598 0
M  V30 3952 H 371.809 -0.990607 -5.43039 0
M  V30 3953 H 374.285 0.43844 -4.13784 0
M  V30 3954 H 373.161 1.01812 -5.39375 0
M  V30 3955 H 373.422 1.98471 -3.95046 0
M  V30 3956 N 372.481 1.55866 -0.233164 0
M  V30 3957 C 373.758 1.90471 0.444988 0
M  V30 3958 C 374.138 1.15209 1.7689 0
M  V30 3959 O 373.486 0.265119 2.26957 0
M  V30 3960 C 373.696 3.4333 0.626559 0
M  V30 3961 C 375.044 4.14319 0.92871 0
M  V30 3962 O 376.068 3.48993 0.712926 0
M  V30 3963 O 374.927 5.29846 1.33887 0
M  V30 3964 H 372.021 0.792347 0.236885 0
M  V30 3965 H 374.567 1.67437 -0.276211 0
M  V30 3966 H 373.339 3.90095 -0.306822 0
M  V30 3967 H 372.962 3.72181 1.39881 0
M  V30 3968 N 373.959 -0.0401083 1.57549 0
M  V30 3969 C 375.375 -0.395556 1.54621 0
M  V30 3970 C 375.575 -1.77281 0.957799 0
M  V30 3971 O 374.631 -2.45888 0.574031 0
M  V30 3972 C 375.944 -0.307535 2.99123 0
M  V30 3973 C 377.492 -0.385425 3.10618 0
M  V30 3974 C 377.967 -0.326973 4.56831 0
M  V30 3975 N 379.458 -0.386102 4.61588 0
M  V30 3976 C 380.193 -0.363591 5.72246 0
M  V30 3977 N 379.689 -0.29402 6.92176 0
M  V30 3978 N 381.482 -0.412503 5.60584 0
M  V30 3979 H 373.633 0.861325 1.94152 0
M  V30 3980 H 375.896 0.326445 0.890021 0
M  V30 3981 H 375.602 0.638461 3.45856 0
M  V30 3982 H 375.476 -1.10552 3.60636 0
M  V30 3983 H 377.863 -1.32185 2.63839 0
M  V30 3984 H 377.944 0.44171 2.51957 0
M  V30 3985 H 377.588 0.605738 5.04275 0
M  V30 3986 H 377.518 -1.17207 5.13391 0
M  V30 3987 H 380.009 -0.442832 3.75296 0
M  V30 3988 H 380.322 -0.28164 7.72287 0
M  V30 3989 H 378.667 -0.260232 6.94513 0
M  V30 3990 H 381.858 -0.464769 4.65787 0
M  V30 3991 H 382.031 -0.391492 6.46816 0
M  V30 3992 N 375.437 -1.54477 -0.31217 0
M  V30 3993 C 376.683 -1.73483 -1.0503 0
M  V30 3994 C 377.016 -0.513125 -1.87298 0
M  V30 3995 O 376.291 0.489864 -1.8823 0
M  V30 3996 C 376.574 -3.01723 -1.96558 0
M  V30 3997 C 376.427 -4.3417 -1.17545 0
M  V30 3998 C 377.746 -3.25772 -2.95907 0
M  V30 3999 H 374.865 -0.631222 -0.380432 0
M  V30 4000 H 377.507 -1.87184 -0.325932 0
M  V30 4001 H 375.657 -2.90174 -2.58324 0
M  V30 4002 H 377.329 -4.5762 -0.581513 0
M  V30 4003 H 375.572 -4.31159 -0.477925 0
M  V30 4004 H 376.243 -5.20143 -1.84811 0
M  V30 4005 H 378.719 -3.36857 -2.44267 0
M  V30 4006 H 377.595 -4.16838 -3.57123 0
M  V30 4007 H 377.856 -2.43537 -3.68974 0
M  V30 4008 N 376.915 0.57481 -1.46744 0
M  V30 4009 C 377.845 1.69337 -1.60771 0
M  V30 4010 C 378.826 1.63825 -0.457736 0
M  V30 4011 O 380.011 1.8172 -0.684947 0
M  V30 4012 C 377.141 3.0798 -1.60517 0
M  V30 4013 C 376.095 3.28327 -2.74564 0
M  V30 4014 C 375.421 4.67578 -2.59373 0
M  V30 4015 C 376.721 3.15398 -4.16319 0
M  V30 4016 H 378.415 1.57853 -2.54407 0
M  V30 4017 H 375.961 0.75799 -1.22436 0
M  V30 4018 H 377.914 3.86061 -1.68923 0
M  V30 4019 H 376.638 3.20381 -0.634305 0
M  V30 4020 H 375.297 2.52649 -2.65639 0
M  V30 4021 H 374.945 4.76755 -1.60353 0
M  V30 4022 H 374.645 4.82144 -3.35873 0
M  V30 4023 H 376.169 5.47817 -2.69682 0
M  V30 4024 H 377.583 3.83315 -4.26313 0
M  V30 4025 H 375.98 3.41482 -4.93468 0
M  V30 4026 H 377.05 2.12372 -4.3592 0
M  V30 4027 N 378.394 1.34581 0.820102 0
M  V30 4028 C 379.634 1.28448 1.58998 0
M  V30 4029 C 379.998 -0.142883 1.91468 0
M  V30 4030 O 381.199 -0.328422 2.66786 0
M  V30 4031 C 379.47 2.153 2.85273 0
M  V30 4032 S 381.029 2.26548 3.75794 0
M  V30 4033 H 377.847 0.456685 0.54494 0
M  V30 4034 H 380.449 1.69825 0.968487 0
M  V30 4035 H 379.153 3.18008 2.59421 0
M  V30 4036 H 378.684 1.7483 3.52417 0
M  V30 4037 H 380.699 1.44034 4.74835 0
M  V30 4038 N 379.872 -1.04064 1.18357 0
M  V30 4039 C 381.097 -1.81454 1.00445 0
M  V30 4040 C 381.522 -1.82823 -0.442423 0
M  V30 4041 O 380.88 -1.24555 -1.31741 0
M  V30 4042 C 380.928 -3.24925 1.56384 0
M  V30 4043 O 380.032 -4.04856 0.785209 0
M  V30 4044 H 379.373 -0.560604 0.355835 0
M  V30 4045 H 381.903 -1.31059 1.57114 0
M  V30 4046 H 381.913 -3.75702 1.59097 0
M  V30 4047 H 380.588 -3.23244 2.61699 0
M  V30 4048 H 379.165 -3.63537 0.830399 0
M  V30 4049 N 381.35 -0.985608 -1.22978 0
M  V30 4050 C 382.597 -0.657386 -1.91532 0
M  V30 4051 C 382.925 0.809707 -1.76845 0
M  V30 4052 O 382.18 1.60021 -1.12658 0
M  V30 4053 C 382.479 -1.00014 -3.43121 0
M  V30 4054 C 382.145 -2.4583 -3.77993 0
M  V30 4055 C 380.807 -2.85679 -3.87222 0
M  V30 4056 C 383.159 -3.40378 -3.94705 0
M  V30 4057 C 380.487 -4.19081 -4.10595 0
M  V30 4058 C 382.839 -4.73429 -4.1958 0
M  V30 4059 C 381.503 -5.1303 -4.27032 0
M  V30 4060 H 380.773 -0.240555 -0.700867 0
M  V30 4061 H 383.42 -1.24044 -1.45895 0
M  V30 4062 H 381.725 -0.335072 -3.90365 0
M  V30 4063 H 383.422 -0.724322 -3.94404 0
M  V30 4064 H 380.012 -2.13939 -3.71387 0
M  V30 4065 H 384.196 -3.10766 -3.8696 0
M  V30 4066 H 379.452 -4.49362 -4.14589 0
M  V30 4067 H 383.626 -5.46644 -4.31455 0
M  V30 4068 H 381.253 -6.16418 -4.44896 0
M  V30 4069 N 382.828 1.3818 -0.7579 0
M  V30 4070 C 383.775 2.30416 -0.133057 0
M  V30 4071 C 384.745 1.50398 0.704957 0
M  V30 4072 O 385.93 1.79014 0.660192 0
M  V30 4073 C 383.07 3.36834 0.750813 0
M  V30 4074 C 382.183 4.31879 -0.102297 0
M  V30 4075 C 381.318 5.25368 0.784979 0
M  V30 4076 C 380.357 6.12058 -0.0715046 0
M  V30 4077 N 379.494 6.97832 0.772972 0
M  V30 4078 H 384.334 2.83274 -0.925186 0
M  V30 4079 H 381.871 1.39461 -0.467866 0
M  V30 4080 H 383.829 3.97145 1.27794 0
M  V30 4081 H 382.459 2.85374 1.50868 0
M  V30 4082 H 381.511 3.72991 -0.747095 0
M  V30 4083 H 382.823 4.92921 -0.763552 0
M  V30 4084 H 381.977 5.90818 1.37911 0
M  V30 4085 H 380.716 4.64703 1.47996 0
M  V30 4086 H 379.721 5.456 -0.678272 0
M  V30 4087 H 380.946 6.74793 -0.763606 0
M  V30 4088 H 378.892 6.3971 1.45282 0
M  V30 4089 H 378.809 7.55812 0.168709 0
M  V30 4090 H 380.077 7.67687 1.35194 0
M  V30 4091 N 384.306 0.507319 1.49211 0
M  V30 4092 C 385.555 -0.0368315 2.01666 0
M  V30 4093 C 385.868 -1.37459 1.39156 0
M  V30 4094 O 387.074 -2.00579 1.82976 0
M  V30 4095 C 385.53 -0.116089 3.59713 0
M  V30 4096 C 385.138 1.2154 4.31198 0
M  V30 4097 C 386.882 -0.610268 4.2009 0
M  V30 4098 C 384.789 1.09796 5.81119 0
M  V30 4099 H 383.719 -0.0175376 0.753796 0
M  V30 4100 H 386.37 0.647691 1.71689 0
M  V30 4101 H 384.752 -0.8652 3.86433 0
M  V30 4102 H 385.926 1.9783 4.16173 0
M  V30 4103 H 384.241 1.64352 3.82593 0
M  V30 4104 H 386.838 -0.715742 5.29888 0
M  V30 4105 H 387.181 -1.61064 3.8388 0
M  V30 4106 H 387.714 0.0824916 3.97714 0
M  V30 4107 H 384.453 2.0728 6.21864 0
M  V30 4108 H 383.973 0.376058 5.9862 0
M  V30 4109 H 385.652 0.779281 6.4229 0
M  V30 4110 N 385.784 -1.5574 0.241426 0
M  V30 4111 C 386.732 -2.22538 -0.676718 0
M  V30 4112 C 387.726 -1.21117 -1.18436 0
M  V30 4113 O 388.932 -1.39144 -1.14188 0
M  V30 4114 H 385.307 -0.713776 -0.236701 0
M  V30 4115 H 387.278 -2.98264 -0.0901187 0
M  V30 4116 C 386.027 -2.93439 -1.86518 0
M  V30 4117 H 385.35 -3.7125 -1.4837 0
M  V30 4118 H 386.79 -3.43549 -2.48495 0
M  V30 4119 C 385.249 -1.97008 -2.73294 0
M  V30 4120 O 385.779 -1.49965 -3.72657 0
M  V30 4121 N 383.985 -1.64227 -2.39745 0
M  V30 4122 H 383.532 -2.02677 -1.58996 0
M  V30 4123 H 383.49 -0.999708 -2.98083 0
M  V30 4124 N 387.262 0.0317525 -1.57568 0
M  V30 4125 C 388.539 0.758366 -1.803 0
M  V30 4126 C 388.919 1.93718 -0.838845 0
M  V30 4127 O 388.267 2.28187 0.119571 0
M  V30 4128 C 388.477 1.19392 -3.27943 0
M  V30 4129 C 389.825 1.61094 -3.92854 0
M  V30 4130 O 390.849 1.28857 -3.32076 0
M  V30 4131 O 389.708 2.20918 -4.99858 0
M  V30 4132 H 386.802 0.366514 -0.741348 0
M  V30 4133 H 389.348 0.00873765 -1.69698 0
M  V30 4134 H 388.12 0.352275 -3.89711 0
M  V30 4135 H 387.743 2.00365 -3.43424 0
M  V30 4136 N 388.74 1.54641 0.303973 0
M  V30 4137 C 389.965 1.78092 1.06292 0
M  V30 4138 C 390.39 0.537342 1.80262 0
M  V30 4139 O 389.748 -0.511993 1.7392 0
M  V30 4140 C 389.796 2.98612 2.02147 0
M  V30 4141 O 388.9 2.71528 3.10397 0
M  V30 4142 H 388.241 0.589548 0.305497 0
M  V30 4143 H 390.771 2.01716 0.3423 0
M  V30 4144 H 390.781 3.265 2.44667 0
M  V30 4145 H 389.456 3.88785 1.47714 0
M  V30 4146 H 388.033 2.54648 2.72413 0
M  V30 4147 N 390.218 -0.567019 1.47046 0
M  V30 4148 C 391.464 -1.32658 1.53394 0
M  V30 4149 C 391.797 -1.93254 0.19148 0
M  V30 4150 O 391.072 -1.77338 -0.798844 0
M  V30 4151 C 391.355 -2.44412 2.64452 0
M  V30 4152 C 391.208 -1.88749 4.08282 0
M  V30 4153 C 392.527 -3.46387 2.71485 0
M  V30 4154 H 389.646 -0.48098 0.558415 0
M  V30 4155 H 392.288 -0.635481 1.79058 0
M  V30 4156 H 390.438 -3.03363 2.427 0
M  V30 4157 H 392.11 -1.34134 4.41368 0
M  V30 4158 H 390.353 -1.19481 4.17021 0
M  V30 4159 H 391.024 -2.69491 4.81745 0
M  V30 4160 H 393.5 -2.9734 2.91081 0
M  V30 4161 H 392.376 -4.2202 3.50985 0
M  V30 4162 H 392.637 -4.04616 1.78153 0
M  V30 4163 N 391.696 -1.35014 -0.812953 0
M  V30 4164 C 392.924 -1.31031 -1.6012 0
M  V30 4165 C 393.339 0.113558 -1.88458 0
M  V30 4166 O 392.696 1.06363 -1.48301 0
M  V30 4167 C 392.747 -2.10872 -2.93624 0
M  V30 4168 O 392.468 -3.47706 -2.66518 0
M  V30 4169 C 393.969 -2.14401 -3.88004 0
M  V30 4170 H 391.189 -0.45037 -0.497401 0
M  V30 4171 H 393.733 -1.77775 -1.01076 0
M  V30 4172 H 391.888 -1.67744 -3.492 0
M  V30 4173 H 392.302 -3.89097 -3.51715 0
M  V30 4174 H 393.776 -2.74669 -4.78812 0
M  V30 4175 H 394.253 -1.14105 -4.24119 0
M  V30 4176 H 394.859 -2.57662 -3.38364 0
M  V30 4177 N 393.175 1.03435 -1.18907 0
M  V30 4178 C 394.105 2.13503 -0.945448 0
M  V30 4179 C 395.086 1.69682 0.119189 0
M  V30 4180 O 396.271 1.94169 -0.034707 0
M  V30 4181 C 393.401 3.44004 -0.477316 0
M  V30 4182 C 392.355 4.0148 -1.48316 0
M  V30 4183 C 391.681 5.27537 -0.872311 0
M  V30 4184 C 392.981 4.36921 -2.86177 0
M  V30 4185 H 394.675 2.34141 -1.86597 0
M  V30 4186 H 392.221 1.12523 -0.898584 0
M  V30 4187 H 394.174 4.20372 -0.294204 0
M  V30 4188 H 392.898 3.23072 0.478786 0
M  V30 4189 H 391.557 3.27201 -1.65332 0
M  V30 4190 H 391.205 5.02917 0.0911752 0
M  V30 4191 H 390.905 5.66954 -1.54393 0
M  V30 4192 H 392.429 6.06576 -0.699871 0
M  V30 4193 H 393.843 5.04248 -2.72776 0
M  V30 4194 H 392.24 4.87405 -3.50081 0
M  V30 4195 H 393.31 3.46466 -3.39248 0
M  V30 4196 N 394.653 0.992116 1.22453 0
M  V30 4197 C 395.601 0.534644 2.26372 0
M  V30 4198 C 396.595 -0.414293 1.64256 0
M  V30 4199 O 397.801 -0.286899 1.77699 0
M  V30 4200 H 394.176 0.154502 0.735957 0
M  V30 4201 H 396.147 1.42256 2.62309 0
M  V30 4202 C 394.896 -0.135815 3.47435 0
M  V30 4203 H 394.219 0.585311 3.95492 0
M  V30 4204 H 395.659 -0.419374 4.21921 0
M  V30 4205 C 394.118 -1.37089 3.07747 0
M  V30 4206 O 394.648 -2.46629 3.17076 0
M  V30 4207 N 392.854 -1.24585 2.62539 0
M  V30 4208 H 392.401 -0.354542 2.55149 0
M  V30 4209 H 392.359 -2.07327 2.36353 0
M  V30 4210 N 396.131 -1.37776 0.765217 0
M  V30 4211 C 397.041 -2.34135 0.147666 0
M  V30 4212 C 398.057 -1.59854 -0.687215 0
M  V30 4213 O 399.233 -1.91983 -0.608659 0
M  V30 4214 C 396.298 -3.3901 -0.72617 0
M  V30 4215 C 395.359 -4.2912 0.124417 0
M  V30 4216 C 394.592 -5.28986 -0.707807 0
M  V30 4217 O 394.815 -5.36205 -1.94525 0
M  V30 4218 O 393.749 -6.01779 -0.12046 0
M  V30 4219 H 397.575 -2.88664 0.943758 0
M  V30 4220 H 395.16 -1.39824 0.526277 0
M  V30 4221 H 397.042 -4.03195 -1.22524 0
M  V30 4222 H 395.717 -2.86819 -1.50056 0
M  V30 4223 H 394.624 -3.68057 0.669696 0
M  V30 4224 H 395.957 -4.84598 0.861736 0
M  V30 4225 N 397.609 -0.515225 -1.4894 0
M  V30 4226 C 398.556 0.255567 -2.29381 0
M  V30 4227 C 399.526 0.947387 -1.36432 0
M  V30 4228 O 400.711 0.951288 -1.65394 0
M  V30 4229 C 397.851 1.30551 -3.19453 0
M  V30 4230 C 396.964 0.624029 -4.27469 0
M  V30 4231 C 396.099 1.65563 -5.0474 0
M  V30 4232 C 395.138 0.956802 -6.04576 0
M  V30 4233 N 394.275 1.93326 -6.74959 0
M  V30 4234 H 399.115 -0.436607 -2.94784 0
M  V30 4235 H 396.652 -0.227154 -1.45336 0
M  V30 4236 H 398.61 1.92639 -3.70062 0
M  V30 4237 H 397.24 1.96626 -2.56004 0
M  V30 4238 H 396.292 -0.110459 -3.8024 0
M  V30 4239 H 397.604 0.0746092 -4.98744 0
M  V30 4240 H 396.758 2.35119 -5.59289 0
M  V30 4241 H 395.497 2.23893 -4.3327 0
M  V30 4242 H 394.502 0.247097 -5.49244 0
M  V30 4243 H 395.727 0.379814 -6.78037 0
M  V30 4244 H 393.673 2.50591 -6.06251 0
M  V30 4245 H 393.59 1.43489 -7.42258 0
M  V30 4246 H 394.858 2.62126 -7.34105 0
M  V30 4247 N 399.087 1.5561 -0.249682 0
M  V30 4248 C 400.498 1.84979 0.252949 0
M  V30 4249 C 400.849 1.17153 1.57384 0
M  V30 4250 O 399.974 0.450884 2.11651 0
M  V30 4251 C 400.569 3.35584 0.465732 0
M  V30 4252 C 399.128 3.65169 0.912624 0
M  V30 4253 C 398.275 2.77299 -0.00859085 0
M  V30 4254 H 401.226 1.51513 -0.47217 0
M  V30 4255 H 401.247 3.57313 1.30795 0
M  V30 4256 H 400.759 3.8492 -0.49579 0
M  V30 4257 H 398.86 3.21312 1.88652 0
M  V30 4258 H 398.973 4.72912 0.767559 0
M  V30 4259 H 397.337 2.49678 0.50327 0
M  V30 4260 H 398.12 3.29442 -0.965537 0
M  V30 4261 N 400.565 -0.0233959 1.57583 0
M  V30 4262 C 401.812 -0.713063 1.8953 0
M  V30 4263 C 402.14 -1.75056 0.847673 0
M  V30 4264 O 401.395 -1.95119 -0.150636 0
M  V30 4265 C 401.694 -1.41428 3.28227 0
M  V30 4266 C 401.36 -0.512222 4.47981 0
M  V30 4267 C 400.022 -0.263785 4.80476 0
M  V30 4268 C 402.374 0.110248 5.21083 0
M  V30 4269 C 399.702 0.615804 5.83459 0
M  V30 4270 C 402.054 0.977573 6.25001 0
M  V30 4271 C 400.718 1.23542 6.55968 0
M  V30 4272 H 399.988 -0.260928 0.69354 0
M  V30 4273 H 402.635 0.0271047 1.91481 0
M  V30 4274 H 400.94 -2.22791 3.22291 0
M  V30 4275 H 402.637 -1.95355 3.50196 0
M  V30 4276 H 399.227 -0.716013 4.22577 0
M  V30 4277 H 403.411 -0.0687137 4.96252 0
M  V30 4278 H 398.667 0.82382 6.05824 0
M  V30 4279 H 402.841 1.46638 6.80786 0
M  V30 4280 H 400.468 1.91871 7.35588 0
M  V30 4281 N 402.043 -1.548 -0.295768 0
M  V30 4282 C 403.268 -1.78653 -1.05346 0
M  V30 4283 C 403.693 -0.546894 -1.79974 0
M  V30 4284 O 403.051 0.502763 -1.7419 0
M  V30 4285 C 403.099 -2.99679 -2.00561 0
M  V30 4286 O 402.203 -2.7317 -3.08953 0
M  V30 4287 H 401.544 -0.59116 -0.302367 0
M  V30 4288 H 404.074 -2.01895 -0.331598 0
M  V30 4289 H 404.084 -3.27793 -2.42932 0
M  V30 4290 H 402.759 -3.89562 -1.4565 0
M  V30 4291 H 401.336 -2.56089 -2.71059 0
M  V30 4292 N 403.521 0.559213 -1.47345 0
M  V30 4293 C 404.767 1.31843 -1.54095 0
M  V30 4294 C 405.1 1.93149 -0.201726 0
M  V30 4295 O 404.375 1.77759 0.789428 0
M  V30 4296 C 404.658 2.43006 -2.65744 0
M  V30 4297 C 404.511 1.86581 -4.09277 0
M  V30 4298 C 405.83 3.44943 -2.73318 0
M  V30 4299 H 402.949 0.478012 -0.560957 0
M  V30 4300 H 405.591 0.625977 -1.79392 0
M  V30 4301 H 403.741 3.02072 -2.44305 0
M  V30 4302 H 405.413 1.31792 -4.42073 0
M  V30 4303 H 403.656 1.17268 -4.17649 0
M  V30 4304 H 404.327 2.66933 -4.83168 0
M  V30 4305 H 406.803 2.95793 -2.92653 0
M  V30 4306 H 405.679 4.20153 -3.53218 0
M  V30 4307 H 405.94 4.03665 -1.80296 0
M  V30 4308 N 404.999 1.35443 0.805782 0
M  V30 4309 C 405.909 1.30546 1.94923 0
M  V30 4310 C 406.925 0.210233 1.72725 0
M  V30 4311 O 408.101 0.43975 1.9654 0
M  V30 4312 C 405.166 1.07782 3.29521 0
M  V30 4313 C 404.227 2.26625 3.64609 0
M  V30 4314 C 403.46 2.04938 4.92784 0
M  V30 4315 O 403.683 1.01624 5.61274 0
M  V30 4316 O 402.617 2.9232 5.26149 0
M  V30 4317 H 406.443 2.26779 2.02002 0
M  V30 4318 H 404.028 1.15823 0.943682 0
M  V30 4319 H 405.91 0.969392 4.10098 0
M  V30 4320 H 404.585 0.146003 3.23371 0
M  V30 4321 H 403.492 2.43033 2.84404 0
M  V30 4322 H 404.825 3.18257 3.75464 0
M  V30 4323 N 406.477 -1.02803 1.19454 0
M  V30 4324 C 407.754 -1.73299 0.907013 0
M  V30 4325 C 408.134 -2.02772 -0.587086 0
M  V30 4326 O 407.482 -1.68304 -1.54551 0
M  V30 4327 C 407.692 -3.00912 1.76785 0
M  V30 4328 C 409.04 -3.74403 2.00268 0
M  V30 4329 O 410.064 -3.10841 1.73943 0
M  V30 4330 O 408.923 -4.88675 2.4466 0
M  V30 4331 H 406.017 -0.754727 0.338106 0
M  V30 4332 H 408.563 -1.08754 1.30271 0
M  V30 4333 H 407.335 -2.75366 2.7801 0
M  V30 4334 H 406.958 -3.73197 1.37149 0
M  V30 4335 N 407.956 -0.998596 -1.21925 0
M  V30 4336 C 409.184 -0.696286 -1.94832 0
M  V30 4337 C 409.599 0.740032 -1.73692 0
M  V30 4338 O 408.956 1.5 -1.03953 0
M  V30 4339 C 409.007 -0.999833 -3.47398 0
M  V30 4340 O 408.728 -2.37972 -3.67833 0
M  V30 4341 C 410.229 -0.716025 -4.37479 0
M  V30 4342 H 407.449 -0.257111 -0.619786 0
M  V30 4343 H 409.993 -1.33491 -1.54921 0
M  V30 4344 H 408.148 -0.406918 -3.85257 0
M  V30 4345 H 408.562 -2.48338 -4.61983 0
M  V30 4346 H 410.036 -0.978642 -5.43256 0
M  V30 4347 H 410.513 0.349968 -4.37803 0
M  V30 4348 H 411.119 -1.29025 -4.05256 0
M  V30 4349 N 409.434 1.37368 -0.772513 0
M  V30 4350 C 410.664 2.03647 -0.348082 0
M  V30 4351 C 411.072 1.58392 1.03482 0
M  V30 4352 O 410.415 0.760921 1.672 0
M  V30 4353 C 410.477 3.58131 -0.313404 0
M  V30 4354 C 410.141 4.2652 -1.64102 0
M  V30 4355 C 411.138 4.50587 -2.5936 0
M  V30 4356 C 408.823 4.64335 -1.91567 0
M  V30 4357 C 410.817 5.11526 -3.80289 0
M  V30 4358 C 408.504 5.24996 -3.12766 0
M  V30 4359 C 409.502 5.48529 -4.06946 0
M  V30 4360 O 409.19 6.07921 -5.26011 0
M  V30 4361 H 408.922 0.660538 -0.143753 0
M  V30 4362 H 411.476 1.76669 -1.04772 0
M  V30 4363 H 409.706 3.84159 0.442617 0
M  V30 4364 H 411.395 4.05813 0.0840613 0
M  V30 4365 H 412.161 4.21784 -2.39423 0
M  V30 4366 H 408.04 4.45353 -1.19088 0
M  V30 4367 H 411.584 5.29811 -4.53813 0
M  V30 4368 H 407.481 5.53223 -3.32588 0
M  V30 4369 H 408.249 6.26398 -5.26847 0
M  V30 4370 N 410.912 0.523116 1.48665 0
M  V30 4371 C 411.842 -0.23231 2.32342 0
M  V30 4372 C 412.823 -0.941637 1.41659 0
M  V30 4373 O 414.008 -0.928751 1.70552 0
M  V30 4374 C 411.138 -1.28387 3.22698 0
M  V30 4375 C 410.092 -0.693098 4.22351 0
M  V30 4376 C 409.418 -1.8468 5.01794 0
M  V30 4377 C 410.718 0.33063 5.21252 0
M  V30 4378 H 412.412 0.466192 2.95748 0
M  V30 4379 H 409.958 0.225643 1.42221 0
M  V30 4380 H 411.911 -1.82024 3.80059 0
M  V30 4381 H 410.635 -2.01186 2.57278 0
M  V30 4382 H 409.294 -0.178299 3.66166 0
M  V30 4383 H 408.942 -2.56301 4.32804 0
M  V30 4384 H 408.642 -1.45747 5.69238 0
M  V30 4385 H 410.166 -2.38709 5.62006 0
M  V30 4386 H 411.58 -0.118407 5.73178 0
M  V30 4387 H 409.977 0.636974 5.9671 0
M  V30 4388 H 411.047 1.23883 4.68808 0
M  V30 4389 N 412.39 -1.55475 0.257931 0
M  V30 4390 C 413.32 -2.24815 -0.630912 0
M  V30 4391 C 414.301 -1.23224 -1.17259 0
M  V30 4392 O 415.486 -1.51904 -1.20991 0
M  V30 4393 C 412.616 -2.95609 -1.82298 0
M  V30 4394 C 411.57 -4.03982 -1.41359 0
M  V30 4395 C 410.896 -4.6226 -2.68738 0
M  V30 4396 C 412.196 -5.19109 -0.57648 0
M  V30 4397 H 413.89 -2.99354 -0.0526878 0
M  V30 4398 H 411.436 -1.4398 -0.023901 0
M  V30 4399 H 413.389 -3.42822 -2.45054 0
M  V30 4400 H 412.113 -2.18577 -2.42676 0
M  V30 4401 H 410.772 -3.57555 -0.809324 0
M  V30 4402 H 410.42 -3.81915 -3.27338 0
M  V30 4403 H 410.12 -5.35424 -2.42065 0
M  V30 4404 H 411.644 -5.12212 -3.32372 0
M  V30 4405 H 413.058 -5.62479 -1.10861 0
M  V30 4406 H 411.455 -5.98729 -0.405351 0
M  V30 4407 H 412.525 -4.83174 0.408776 0
M  V30 4408 N 413.868 0.0150385 -1.57593 0
M  V30 4409 C 415.108 0.70768 -1.91758 0
M  V30 4410 C 415.472 1.71764 -0.857974 0
M  V30 4411 O 416.673 2.45956 -1.0844 0
M  V30 4412 C 414.944 1.34736 -3.3103 0
M  V30 4413 S 416.503 2.06721 -3.87056 0
M  V30 4414 H 413.321 0.234119 -0.671349 0
M  V30 4415 H 415.923 -0.0380373 -1.95463 0
M  V30 4416 H 414.627 0.59926 -4.06001 0
M  V30 4417 H 414.158 2.13133 -3.30663 0
M  V30 4418 H 416.173 3.34047 -3.66915 0
M  V30 4419 N 415.346 1.54954 0.287554 0
M  V30 4420 C 416.757 1.65732 0.859634 0
M  V30 4421 C 417.108 0.574767 1.87592 0
M  V30 4422 O 416.233 -0.286299 2.14498 0
M  V30 4423 C 416.828 3.00438 1.56597 0
M  V30 4424 C 415.387 3.13292 2.08627 0
M  V30 4425 C 414.534 2.61473 0.923416 0
M  V30 4426 H 417.485 1.5857 0.0642338 0
M  V30 4427 H 417.506 2.92613 2.43224 0
M  V30 4428 H 417.018 3.79207 0.826053 0
M  V30 4429 H 415.119 2.39268 2.85625 0
M  V30 4430 H 415.232 4.19647 2.31157 0
M  V30 4431 H 413.596 2.18264 1.31275 0
M  V30 4432 H 414.379 3.42733 0.197241 0
M  V30 4433 N 416.824 -0.551391 1.4764 0
M  V30 4434 C 417.787 -1.64007 1.60107 0
M  V30 4435 C 418.787 -1.53601 0.47576 0
M  V30 4436 O 419.977 -1.57655 0.740988 0
M  V30 4437 C 417.109 -3.03569 1.55108 0
M  V30 4438 H 418.302 -1.543 2.57161 0
M  V30 4439 H 415.855 -0.771776 1.35917 0
M  V30 4440 H 416.59 -3.18804 0.594519 0
M  V30 4441 H 416.375 -3.12532 2.36783 0
M  V30 4442 H 417.865 -3.82762 1.66982 0
M  V30 4443 N 418.302 -1.35869 -0.798587 0
M  V30 4444 C 419.713 -1.26498 -1.37314 0
M  V30 4445 C 420.064 0.0991899 -1.95949 0
M  V30 4446 O 419.189 1.0004 -1.91888 0
M  V30 4447 C 419.784 -2.29054 -2.49639 0
M  V30 4448 C 418.343 -2.234 -3.02935 0
M  V30 4449 C 417.49 -2.14329 -1.75949 0
M  V30 4450 H 420.441 -1.46881 -0.600971 0
M  V30 4451 H 420.462 -1.92166 -3.28409 0
M  V30 4452 H 419.974 -3.2833 -2.06933 0
M  V30 4453 H 418.075 -1.27562 -3.50084 0
M  V30 4454 H 418.188 -3.15703 -3.60372 0
M  V30 4455 H 416.552 -1.60435 -1.9782 0
M  V30 4456 H 417.335 -3.15477 -1.35384 0
M  V30 4457 N 419.78 1.02168 -1.19998 0
M  V30 4458 C 421.029 1.75091 -1.0013 0
M  V30 4459 C 421.342 1.89923 0.467835 0
M  V30 4460 O 422.548 2.59888 0.785515 0
M  V30 4461 C 421.004 3.14892 -1.74273 0
M  V30 4462 C 420.612 3.0809 -3.25245 0
M  V30 4463 C 422.356 3.9206 -1.62755 0
M  V30 4464 C 420.263 4.42867 -3.91948 0
M  V30 4465 H 419.193 0.656394 -0.37103 0
M  V30 4466 H 421.844 1.14284 -1.43567 0
M  V30 4467 H 420.226 3.7621 -1.2362 0
M  V30 4468 H 421.4 2.5611 -3.83072 0
M  V30 4469 H 419.715 2.44416 -3.3712 0
M  V30 4470 H 422.312 4.91764 -2.09934 0
M  V30 4471 H 422.655 4.12199 -0.582894 0
M  V30 4472 H 423.188 3.37359 -2.10793 0
M  V30 4473 H 419.927 4.27931 -4.96543 0
M  V30 4474 H 419.447 4.94874 -3.3891 0
M  V30 4475 H 421.126 5.11728 -3.95909 0
M  V30 4476 N 421.258 1.00505 1.21394 0
M  V30 4477 C 422.188 0.585684 2.26035 0
M  V30 4478 C 423.169 -0.393525 1.65485 0
M  V30 4479 O 424.354 -0.281497 1.92149 0
M  V30 4480 C 421.484 -0.0884283 3.47187 0
M  V30 4481 C 420.438 0.810567 4.20254 0
M  V30 4482 C 419.764 0.00286382 5.347 0
M  V30 4483 C 421.064 2.1132 4.77641 0
M  V30 4484 H 422.758 1.46039 2.61368 0
M  V30 4485 H 420.304 0.703648 1.25638 0
M  V30 4486 H 422.257 -0.393286 4.19561 0
M  V30 4487 H 420.981 -0.997766 3.10986 0
M  V30 4488 H 419.64 1.09925 3.49731 0
M  V30 4489 H 419.288 -0.907765 4.94741 0
M  V30 4490 H 418.988 0.601444 5.84514 0
M  V30 4491 H 420.512 -0.295808 6.09883 0
M  V30 4492 H 421.926 1.87148 5.41893 0
M  V30 4493 H 420.323 2.66164 5.37845 0
M  V30 4494 H 421.393 2.78393 3.9702 0
M  V30 4495 N 422.737 -1.36956 0.779787 0
M  V30 4496 C 423.684 -2.30175 0.169697 0
M  V30 4497 C 424.654 -1.51501 -0.68094 0
M  V30 4498 O 425.839 -1.80042 -0.631629 0
M  V30 4499 C 422.979 -3.37985 -0.697131 0
M  V30 4500 C 422.092 -4.31661 0.170992 0
M  V30 4501 C 421.227 -5.2655 -0.701298 0
M  V30 4502 C 420.266 -6.11867 0.168869 0
M  V30 4503 N 419.403 -6.98973 -0.661855 0
M  V30 4504 H 424.243 -2.81767 0.970135 0
M  V30 4505 H 421.78 -1.38699 0.489994 0
M  V30 4506 H 423.738 -3.99128 -1.2146 0
M  V30 4507 H 422.368 -2.87739 -1.46309 0
M  V30 4508 H 421.42 -3.71756 0.80634 0
M  V30 4509 H 422.732 -4.91644 0.841875 0
M  V30 4510 H 421.886 -5.92937 -1.28494 0
M  V30 4511 H 420.625 -4.66998 -1.40584 0
M  V30 4512 H 419.63 -5.44452 0.764986 0
M  V30 4513 H 420.855 -6.73493 0.870863 0
M  V30 4514 H 418.801 -6.41941 -1.35086 0
M  V30 4515 H 418.718 -7.55984 -0.0484447 0
M  V30 4516 H 419.986 -7.6974 -1.22963 0
M  V30 4517 N 424.215 -0.530993 -1.48385 0
M  V30 4518 C 425.125 0.23503 -2.3342 0
M  V30 4519 C 426.141 0.93801 -1.46552 0
M  V30 4520 O 427.317 0.912745 -1.7953 0
M  V30 4521 C 424.382 1.26778 -3.22689 0
M  V30 4522 C 423.443 0.575038 -4.25431 0
M  V30 4523 C 422.676 1.55858 -5.10435 0
M  V30 4524 O 422.899 2.79129 -4.97437 0
M  V30 4525 O 421.833 1.09742 -5.91811 0
M  V30 4526 H 425.659 -0.461794 -3.00169 0
M  V30 4527 H 423.244 -0.291903 -1.46521 0
M  V30 4528 H 425.126 1.86457 -3.77904 0
M  V30 4529 H 423.801 1.94699 -2.586 0
M  V30 4530 H 422.708 -0.0622782 -3.74048 0
M  V30 4531 H 424.041 -0.062253 -4.92161 0
M  V30 4532 N 425.693 1.55336 -0.266172 0
M  V30 4533 C 426.939 1.99692 0.353681 0
M  V30 4534 C 427.272 1.1543 1.56172 0
M  V30 4535 O 426.547 0.222218 1.93226 0
M  V30 4536 C 426.83 3.52316 0.74466 0
M  V30 4537 C 426.683 4.47337 -0.470101 0
M  V30 4538 C 428.002 4.10588 1.58447 0
M  V30 4539 H 425.121 0.725961 0.12708 0
M  V30 4540 H 427.763 1.86336 -0.371333 0
M  V30 4541 H 425.913 3.63829 1.36239 0
M  V30 4542 H 427.585 4.4778 -1.10864 0
M  V30 4543 H 425.828 4.19364 -1.10978 0
M  V30 4544 H 426.499 5.51788 -0.15291 0
M  V30 4545 H 428.975 4.02297 1.06286 0
M  V30 4546 H 427.851 5.17607 1.82686 0
M  V30 4547 H 428.112 3.60253 2.56262 0
M  V30 4548 N 427.171 -0.0066808 1.57599 0
M  V30 4549 C 428.419 -0.691552 1.899 0
M  V30 4550 C 428.74 -1.74682 0.866672 0
M  V30 4551 O 428.01 -1.95661 -0.0968189 0
M  V30 4552 H 426.59 -0.258416 0.700878 0
M  V30 4553 H 429.252 0.0326655 1.94873 0
M  V30 4554 H 428.348 -1.16702 2.8946 0
M  V30 4555 N 428.649 -1.55105 -0.279332 0
M  V30 4556 C 429.582 -1.82467 -1.37044 0
M  V30 4557 C 430.56 -0.677261 -1.47824 0
M  V30 4558 O 431.744 -0.919578 -1.64548 0
M  V30 4559 C 428.871 -1.98066 -2.7475 0
M  V30 4560 C 427.917 -3.20594 -2.81286 0
M  V30 4561 S 428.75 -4.78116 -2.41175 0
M  V30 4562 C 429.906 -4.9668 -3.80867 0
M  V30 4563 H 430.139 -2.74728 -1.1363 0
M  V30 4564 H 427.672 -1.46794 -0.478625 0
M  V30 4565 H 429.63 -2.07739 -3.54055 0
M  V30 4566 H 428.291 -1.06704 -2.9542 0
M  V30 4567 H 427.484 -3.28376 -3.82341 0
M  V30 4568 H 427.086 -3.09479 -2.09996 0
M  V30 4569 H 429.378 -4.82033 -4.76078 0
M  V30 4570 H 430.321 -5.98741 -3.78041 0
M  V30 4571 H 430.729 -4.24698 -3.71876 0
M  V30 4572 N 430.127 0.543554 -1.4793 0
M  V30 4573 C 431.074 1.64942 -1.6144 0
M  V30 4574 C 432.044 1.59692 -0.456903 0
M  V30 4575 O 433.229 1.78321 -0.678688 0
M  V30 4576 C 430.369 3.03238 -1.64744 0
M  V30 4577 C 429.482 3.18823 -2.91506 0
M  V30 4578 C 428.617 4.47599 -2.86057 0
M  V30 4579 C 427.656 4.56664 -4.07584 0
M  V30 4580 N 426.793 5.76811 -4.00292 0
M  V30 4581 H 431.633 1.52733 -2.55884 0
M  V30 4582 H 429.17 0.7438 -1.2691 0
M  V30 4583 H 431.128 3.83339 -1.64641 0
M  V30 4584 H 429.758 3.1425 -0.738017 0
M  V30 4585 H 428.81 2.32064 -3.01414 0
M  V30 4586 H 430.122 3.21384 -3.81463 0
M  V30 4587 H 429.276 5.35975 -2.84281 0
M  V30 4588 H 428.015 4.47538 -1.93807 0
M  V30 4589 H 427.02 3.66697 -4.09651 0
M  V30 4590 H 428.245 4.58474 -5.00978 0
M  V30 4591 H 426.191 5.77673 -3.10853 0
M  V30 4592 H 426.108 5.80808 -4.8394 0
M  V30 4593 H 427.376 6.67512 -4.02553 0
M  V30 4594 N 431.605 1.3629 0.791371 0
M  V30 4595 C 432.568 1.30309 1.88553 0
M  V30 4596 C 433.568 0.211204 1.59407 0
M  V30 4597 O 434.758 0.465865 1.67855 0
M  V30 4598 C 431.89 1.01956 3.25297 0
M  V30 4599 H 433.083 2.27614 1.95273 0
M  V30 4600 H 430.636 1.21035 0.988953 0
M  V30 4601 H 431.371 0.050998 3.2426 0
M  V30 4602 H 431.156 1.80968 3.4784 0
M  V30 4603 H 432.646 1.0037 4.05359 0
M  V30 4604 N 433.083 -1.0153 1.20538 0
M  V30 4605 C 434.046 -2.0826 0.957098 0
M  V30 4606 C 435.046 -1.60657 -0.0678655 0
M  V30 4607 O 436.236 -1.73385 0.168332 0
M  V30 4608 C 433.368 -3.38033 0.441188 0
M  V30 4609 H 434.561 -2.31719 1.90384 0
M  V30 4610 H 432.114 -1.1835 1.02093 0
M  V30 4611 H 432.849 -3.20249 -0.510961 0
M  V30 4612 H 432.634 -3.73911 1.18038 0
M  V30 4613 H 434.124 -4.16613 0.287009 0
M  V30 4614 N 434.561 -1.01147 -1.20859 0
M  V30 4615 C 435.491 -0.597663 -2.25722 0
M  V30 4616 C 436.472 0.384744 -1.65692 0
M  V30 4617 O 437.657 0.271303 -1.92296 0
M  V30 4618 C 434.787 0.0700149 -3.47229 0
M  V30 4619 C 433.741 -0.832843 -4.19819 0
M  V30 4620 C 433.067 -0.0312202 -5.34691 0
M  V30 4621 C 434.367 -2.1385 -4.76514 0
M  V30 4622 H 436.061 -1.47423 -2.60589 0
M  V30 4623 H 433.607 -0.710301 -1.25263 0
M  V30 4624 H 435.56 0.37103 -4.19763 0
M  V30 4625 H 434.284 0.981259 -3.11511 0
M  V30 4626 H 432.943 -1.11778 -3.49144 0
M  V30 4627 H 432.591 0.881515 -4.95215 0
M  V30 4628 H 432.291 -0.632434 -5.84187 0
M  V30 4629 H 433.815 0.26346 -6.10031 0
M  V30 4630 H 435.229 -1.9002 -5.40893 0
M  V30 4631 H 433.626 -2.69012 -5.36426 0
M  V30 4632 H 434.696 -2.80495 -3.95538 0
M  V30 4633 N 436.039 1.36541 -0.78704 0
M  V30 4634 C 436.971 2.28761 -0.141773 0
M  V30 4635 C 437.984 1.49365 0.647599 0
M  V30 4636 O 439.173 1.71836 0.483173 0
M  V30 4637 C 436.273 3.28771 0.822368 0
M  V30 4638 C 435.446 4.3732 0.0835594 0
M  V30 4639 C 434.505 5.17307 0.963296 0
M  V30 4640 O 433.531 5.67638 0.421419 0
M  V30 4641 N 434.733 5.33515 2.28784 0
M  V30 4642 H 437.498 2.84777 -0.933919 0
M  V30 4643 H 435.059 1.48682 -0.640735 0
M  V30 4644 H 437.051 3.79169 1.41468 0
M  V30 4645 H 435.621 2.73412 1.5154 0
M  V30 4646 H 434.841 3.88118 -0.689809 0
M  V30 4647 H 436.129 5.0701 -0.426358 0
M  V30 4648 H 435.527 4.94234 2.75226 0
M  V30 4649 H 434.084 5.87165 2.82985 0
M  V30 4650 N 437.518 0.538854 1.48102 0
M  V30 4651 C 438.764 0.00801365 2.02798 0
M  V30 4652 C 439.097 -1.3309 1.41424 0
M  V30 4653 O 438.372 -1.86169 0.563158 0
M  V30 4654 C 438.655 -0.104589 3.59948 0
M  V30 4655 C 438.508 1.26012 4.31788 0
M  V30 4656 C 439.827 -0.827055 4.32259 0
M  V30 4657 H 436.946 0.00438624 0.736987 0
M  V30 4658 H 439.588 0.6976 1.7673 0
M  V30 4659 H 437.738 -0.691893 3.82289 0
M  V30 4660 H 439.41 1.88922 4.2084 0
M  V30 4661 H 437.653 1.83968 3.92859 0
M  V30 4662 H 438.324 1.13424 5.40221 0
M  V30 4663 H 440.8 -0.328578 4.14801 0
M  V30 4664 H 439.676 -0.87476 5.41885 0
M  V30 4665 H 439.937 -1.87927 4.0017 0
M  V30 4666 N 438.996 -1.55193 0.274407 0
M  V30 4667 C 440.221 -2.04446 -0.348824 0
M  V30 4668 C 440.646 -1.15149 -1.48735 0
M  V30 4669 O 440.004 -0.149952 -1.80679 0
M  V30 4670 C 440.052 -3.51431 -0.808009 0
M  V30 4671 O 439.156 -3.65225 -1.91531 0
M  V30 4672 H 438.497 -0.66006 -0.0722276 0
M  V30 4673 H 441.027 -2.00481 0.408498 0
M  V30 4674 H 441.037 -3.92781 -1.10395 0
M  V30 4675 H 439.712 -4.15892 0.0249865 0
M  V30 4676 H 438.289 -3.35778 -1.62196 0
M  V30 4677 N 440.474 -0.00167713 -1.576 0
M  V30 4678 C 441.407 1.02317 -2.03977 0
M  V30 4679 C 442.385 1.33381 -0.929963 0
M  V30 4680 O 443.569 1.45517 -1.19822 0
M  V30 4681 C 440.696 2.35035 -2.43878 0
M  V30 4682 C 439.742 2.19621 -3.65607 0
M  V30 4683 S 440.575 1.52068 -5.13455 0
M  V30 4684 C 441.731 2.86212 -5.56627 0
M  V30 4685 H 441.964 0.628285 -2.90585 0
M  V30 4686 H 439.497 0.209239 -1.52976 0
M  V30 4687 H 441.455 3.11345 -2.67534 0
M  V30 4688 H 440.116 2.71663 -1.57665 0
M  V30 4689 H 439.309 3.1767 -3.91282 0
M  V30 4690 H 438.911 1.51455 -3.41961 0
M  V30 4691 H 441.203 3.82509 -5.59189 0
M  V30 4692 H 442.146 2.65235 -6.56549 0
M  V30 4693 H 442.554 2.90199 -4.84195 0
M  V30 4694 N 441.952 1.55251 0.271103 0
M  V30 4695 C 442.9 1.89054 1.35504 0
M  V30 4696 C 443.894 0.767064 1.51038 0
M  V30 4697 O 445.1 0.951429 1.528 0
M  V30 4698 H 441.475 0.600072 0.45323 0
M  V30 4699 H 443.446 2.79598 1.04247 0
M  V30 4700 C 442.195 2.18068 2.70817 0
M  V30 4701 H 441.518 3.04005 2.59656 0
M  V30 4702 H 442.958 2.4564 3.45597 0
M  V30 4703 C 441.417 0.988901 3.2206 0
M  V30 4704 O 441.947 0.224501 4.01072 0
M  V30 4705 N 440.153 0.786085 2.79766 0
M  V30 4706 H 439.7 1.40937 2.15626 0
M  V30 4707 H 439.658 -0.00969349 3.14399 0
M  V30 4708 N 443.43 -0.535701 1.48216 0
M  V30 4709 C 444.707 -1.29683 1.46429 0
M  V30 4710 C 445.087 -2.10391 0.172852 0
M  V30 4711 O 444.435 -2.12282 -0.845488 0
M  V30 4712 C 444.645 -2.18313 2.72287 0
M  V30 4713 C 445.993 -2.78639 3.20383 0
M  V30 4714 O 447.017 -2.28604 2.73164 0
M  V30 4715 O 445.876 -3.69636 4.02531 0
M  V30 4716 H 442.97 -0.585026 0.584529 0
M  V30 4717 H 445.516 -0.552827 1.60443 0
M  V30 4718 H 444.288 -1.58421 3.57797 0
M  V30 4719 H 443.911 -2.99971 2.60966 0
M  V30 4720 N 444.908 -1.36708 -0.784132 0
M  V30 4721 C 446.156 -1.30972 -1.53918 0
M  V30 4722 C 446.477 0.109086 -1.94695 0
M  V30 4723 O 445.747 1.05048 -1.65353 0
M  V30 4724 H 444.327 -0.481819 -0.570841 0
M  V30 4725 H 446.989 -1.71063 -0.934002 0
M  V30 4726 H 446.085 -1.94061 -2.44431 0
M  V30 4727 N 446.386 1.0089 -1.21074 0
M  V30 4728 C 447.316 2.1145 -0.990523 0
M  V30 4729 C 448.297 1.69897 0.0831699 0
M  V30 4730 O 449.482 1.94052 -0.0758853 0
M  V30 4731 C 446.612 3.42914 -0.550177 0
M  V30 4732 C 445.566 3.98244 -1.56799 0
M  V30 4733 C 444.892 5.25568 -0.984013 0
M  V30 4734 C 446.192 4.30752 -2.95381 0
M  V30 4735 H 447.886 2.3013 -1.91521 0
M  V30 4736 H 445.432 1.10592 -0.92225 0
M  V30 4737 H 447.385 4.19653 -0.383305 0
M  V30 4738 H 446.109 3.24014 0.41015 0
M  V30 4739 H 444.768 3.23621 -1.72236 0
M  V30 4740 H 444.416 5.02998 -0.0155216 0
M  V30 4741 H 444.116 5.63551 -1.66384 0
M  V30 4742 H 445.64 6.04955 -0.828378 0
M  V30 4743 H 447.054 4.98349 -2.8341 0
M  V30 4744 H 445.451 4.79869 -3.60341 0
M  V30 4745 H 446.521 3.39192 -3.46521 0
M  V30 4746 N 447.864 1.01787 1.20321 0
M  V30 4747 C 449.089 0.727009 1.9424 0
M  V30 4748 C 449.514 -0.706179 1.74341 0
M  V30 4749 O 448.872 -1.48609 1.03852 0
M  V30 4750 C 448.92 1.06958 3.44372 0
M  V30 4751 O 448.024 0.181983 4.11998 0
M  V30 4752 H 447.365 0.269626 0.606793 0
M  V30 4753 H 449.895 1.36158 1.52716 0
M  V30 4754 H 449.905 1.02182 3.94997 0
M  V30 4755 H 448.58 2.11378 3.58179 0
M  V30 4756 H 447.157 0.287378 3.71791 0
M  V30 4757 N 449.342 -1.36122 0.79427 0
M  V30 4758 C 450.589 -1.99111 0.368905 0
M  V30 4759 C 450.917 -1.63032 -1.0607 0
M  V30 4760 O 450.172 -0.879303 -1.74833 0
M  V30 4761 C 450.471 -3.5409 0.48527 0
M  V30 4762 C 450.137 -4.10003 1.87638 0
M  V30 4763 C 448.799 -4.24986 2.257 0
M  V30 4764 C 451.151 -4.40423 2.78706 0
M  V30 4765 C 448.479 -4.67701 3.54221 0
M  V30 4766 C 450.831 -4.84573 4.0666 0
M  V30 4767 C 449.495 -4.97761 4.44737 0
M  V30 4768 H 448.765 -0.7286 0.134992 0
M  V30 4769 H 451.412 -1.62534 1.01267 0
M  V30 4770 H 449.717 -3.91052 -0.241984 0
M  V30 4771 H 451.414 -4.00766 0.137109 0
M  V30 4772 H 448.004 -3.98784 1.57064 0
M  V30 4773 H 452.188 -4.28412 2.50553 0
M  V30 4774 H 447.444 -4.761 3.83587 0
M  V30 4775 H 451.618 -5.07074 4.77336 0
M  V30 4776 H 449.245 -5.30618 5.44379 0
M  V30 4777 N 450.82 -0.546701 -1.47814 0
M  V30 4778 C 452.069 -0.0166497 -2.01693 0
M  V30 4779 C 452.382 1.33721 -1.42752 0
M  V30 4780 O 453.588 1.95658 -1.8823 0
M  V30 4781 C 452.044 0.0206769 -3.59894 0
M  V30 4782 C 451.652 -1.3293 -4.27824 0
M  V30 4783 C 453.396 0.498674 -4.21561 0
M  V30 4784 C 451.303 -1.25165 -5.78003 0
M  V30 4785 H 450.233 -0.0024541 -0.753996 0
M  V30 4786 H 452.884 -0.692984 -1.69912 0
M  V30 4787 H 451.266 0.76244 -3.88591 0
M  V30 4788 H 452.44 -2.08795 -4.10781 0
M  V30 4789 H 450.755 -1.74438 -3.78101 0
M  V30 4790 H 453.352 0.575 -5.31599 0
M  V30 4791 H 453.695 1.5083 -3.88016 0
M  V30 4792 H 454.228 -0.18791 -3.97356 0
M  V30 4793 H 450.967 -2.23695 -6.1615 0
M  V30 4794 H 450.487 -0.53464 -5.97412 0
M  V30 4795 H 452.166 -0.949299 -6.39998 0
M  V30 4796 N 452.299 1.55045 -0.282633 0
M  V30 4797 C 453.524 2.04628 0.337977 0
M  V30 4798 C 453.949 1.15937 1.48123 0
M  V30 4799 O 453.307 0.159532 1.80597 0
M  V30 4800 C 453.355 3.51854 0.78936 0
M  V30 4801 O 452.459 3.66236 1.89592 0
M  V30 4802 H 451.8 0.660434 0.0687261 0
M  V30 4803 H 454.33 2.00261 -0.419124 0
M  V30 4804 H 454.34 3.93361 1.08311 0
M  V30 4805 H 453.015 4.15873 -0.0470419 0
M  V30 4806 H 451.592 3.36633 1.60413 0
M  V30 4807 N 453.777 0.010035 1.57597 0
M  V30 4808 C 455.002 -0.687021 1.95691 0
M  V30 4809 C 455.427 -1.65952 0.885519 0
M  V30 4810 O 454.785 -1.80633 -0.15543 0
M  V30 4811 C 454.833 -1.3864 3.32884 0
M  V30 4812 O 453.937 -2.50115 3.27897 0
M  V30 4813 H 453.278 -0.181989 0.638573 0
M  V30 4814 H 455.808 0.0662122 2.04493 0
M  V30 4815 H 455.818 -1.74754 3.6868 0
M  V30 4816 H 454.493 -0.673411 4.10412 0
M  V30 4817 H 453.07 -2.16253 3.03791 0
M  V30 4818 N 455.255 -1.55392 -0.262866 0
M  V30 4819 C 456.48 -1.80847 -1.01533 0
M  V30 4820 C 456.905 -0.584946 -1.78774 0
M  V30 4821 O 456.263 0.465701 -1.75217 0
M  V30 4822 C 456.311 -3.03866 -1.94159 0
M  V30 4823 O 455.415 -2.79662 -3.03089 0
M  V30 4824 H 454.756 -0.597441 -0.289759 0
M  V30 4825 H 457.286 -2.02553 -0.288698 0
M  V30 4826 H 457.296 -3.32872 -2.35924 0
M  V30 4827 H 455.971 -3.92564 -1.37354 0
M  V30 4828 H 454.548 -2.61781 -2.65566 0
M  V30 4829 N 456.733 0.527833 -1.48498 0
M  V30 4830 C 457.979 1.28545 -1.56857 0
M  V30 4831 C 458.312 1.92678 -0.242651 0
M  V30 4832 O 457.587 1.79394 0.751545 0
M  V30 4833 C 457.87 2.37314 -2.70839 0
M  V30 4834 C 457.723 1.77858 -4.13142 0
M  V30 4835 C 459.042 3.39068 -2.80573 0
M  V30 4836 H 456.161 0.466006 -0.570971 0
M  V30 4837 H 458.803 0.587784 -1.8068 0
M  V30 4838 H 456.953 2.96821 -2.50658 0
M  V30 4839 H 458.625 1.22385 -4.44769 0
M  V30 4840 H 456.868 1.08383 -4.20042 0
M  V30 4841 H 457.539 2.56624 -4.88721 0
M  V30 4842 H 460.015 2.89518 -2.98862 0
M  V30 4843 H 458.891 4.12566 -3.6205 0
M  V30 4844 H 459.152 3.9975 -1.88818 0
M  V30 4845 N 458.211 1.37122 0.776871 0
M  V30 4846 C 459.46 1.31373 1.53049 0
M  V30 4847 C 459.773 -0.101016 1.95339 0
M  V30 4848 O 460.979 -0.280953 2.70042 0
M  V30 4849 C 459.435 2.30567 2.76346 0
M  V30 4850 C 459.043 3.77543 2.41175 0
M  V30 4851 C 460.787 2.33818 3.54301 0
M  V30 4852 C 458.694 4.68481 3.60943 0
M  V30 4853 H 457.624 0.488234 0.574581 0
M  V30 4854 H 460.275 1.62554 0.851372 0
M  V30 4855 H 458.657 1.92396 3.46121 0
M  V30 4856 H 459.831 4.24521 1.79216 0
M  V30 4857 H 458.146 3.77187 1.76405 0
M  V30 4858 H 460.743 2.98965 4.4331 0
M  V30 4859 H 461.086 1.3503 3.93793 0
M  V30 4860 H 461.619 2.7067 2.91518 0
M  V30 4861 H 458.358 5.68378 3.26537 0
M  V30 4862 H 457.878 4.2621 4.22025 0
M  V30 4863 H 459.557 4.85366 4.27819 0
M  V30 4864 N 459.689 -1.00246 1.21608 0
M  V30 4865 C 460.938 -1.73476 1.02902 0
M  V30 4866 C 461.251 -1.90643 -0.437561 0
M  V30 4867 O 462.457 -2.61105 -0.74407 0
M  V30 4868 C 460.913 -3.12079 1.79261 0
M  V30 4869 C 460.521 -3.02877 3.30106 0
M  V30 4870 C 462.265 -3.89421 1.68972 0
M  V30 4871 C 460.172 -4.36575 3.98944 0
M  V30 4872 H 459.102 -0.650408 0.381425 0
M  V30 4873 H 461.753 -1.11985 1.45367 0
M  V30 4874 H 460.135 -3.74196 1.2959 0
M  V30 4875 H 461.309 -2.49983 3.87098 0
M  V30 4876 H 459.624 -2.39022 3.40965 0
M  V30 4877 H 462.221 -4.88362 2.17731 0
M  V30 4878 H 462.564 -4.1122 0.648397 0
M  V30 4879 H 463.097 -3.33963 2.16133 0
M  V30 4880 H 459.836 -4.19978 5.03288 0
M  V30 4881 H 459.356 -4.8942 3.4674 0
M  V30 4882 H 461.035 -5.05364 4.04 0
M  V30 4883 N 461.167 -1.02423 -1.1978 0
M  V30 4884 C 462.395 -0.737456 -1.93311 0
M  V30 4885 C 462.81 0.703023 -1.75223 0
M  V30 4886 O 462.167 1.47761 -1.07112 0
M  V30 4887 C 462.218 -1.0733 -3.45199 0
M  V30 4888 O 461.939 -2.4572 -3.62702 0
M  V30 4889 C 463.44 -0.80866 -4.35862 0
M  V30 4890 H 460.66 -0.2702 -0.614193 0
M  V30 4891 H 463.204 -1.36747 -1.52054 0
M  V30 4892 H 461.359 -0.488545 -3.84307 0
M  V30 4893 H 461.773 -2.58081 -4.56612 0
M  V30 4894 H 463.247 -1.09365 -5.41057 0
M  V30 4895 H 463.724 0.257025 -4.38447 0
M  V30 4896 H 464.33 -1.37592 -4.02428 0
M  V30 4897 N 462.645 1.35699 -0.801477 0
M  V30 4898 C 463.873 2.03157 -0.391768 0
M  V30 4899 C 464.288 1.60412 0.995668 0
M  V30 4900 O 463.645 0.799228 1.64069 0
M  V30 4901 C 463.696 3.58566 -0.459671 0
M  V30 4902 O 463.417 3.99756 -1.7924 0
M  V30 4903 C 464.918 4.4328 -0.0421205 0
M  V30 4904 H 462.138 0.651688 -0.159825 0
M  V30 4905 H 464.682 1.73426 -1.08368 0
M  V30 4906 H 462.837 3.86963 0.183939 0
M  V30 4907 H 463.251 4.94387 -1.75162 0
M  V30 4908 H 464.725 5.51821 -0.140754 0
M  V30 4909 H 465.202 4.27383 1.01196 0
M  V30 4910 H 465.808 4.20168 -0.658687 0
M  V30 4911 N 464.123 0.554532 1.47522 0
M  V30 4912 C 465.351 0.034257 2.06872 0
M  V30 4913 C 465.766 -1.25826 1.40759 0
M  V30 4914 O 465.123 -1.75425 0.503217 0
M  V30 4915 C 465.174 -0.167827 3.6111 0
M  V30 4916 O 464.895 1.07351 4.24744 0
M  V30 4917 C 466.396 -0.72569 4.3732 0
M  V30 4918 H 463.616 0.0446275 0.669514 0
M  V30 4919 H 466.16 0.767181 1.89564 0
M  V30 4920 H 464.315 -0.850872 3.7794 0
M  V30 4921 H 464.729 0.869563 5.17242 0
M  V30 4922 H 466.203 -0.816394 5.45929 0
M  V30 4923 H 466.68 -1.73635 4.0342 0
M  V30 4924 H 467.286 -0.0784292 4.25228 0
M  V30 4925 N 465.601 -1.54893 0.290851 0
M  V30 4926 C 466.551 -2.19838 -0.604599 0
M  V30 4927 C 467.535 -1.16805 -1.10659 0
M  V30 4928 O 468.727 -1.42562 -1.04905 0
M  V30 4929 C 465.856 -2.93497 -1.78086 0
M  V30 4930 C 464.942 -4.03835 -1.29531 0
M  V30 4931 N 465.333 -5.03047 -0.527024 0
M  V30 4932 C 463.631 -4.17192 -1.57693 0
M  V30 4933 C 464.332 -5.81074 -0.269728 0
M  V30 4934 N 463.308 -5.36966 -0.846651 0
M  V30 4935 H 467.11 -2.93898 -0.00995032 0
M  V30 4936 H 464.624 -1.62121 0.0951353 0
M  V30 4937 H 466.621 -3.38484 -2.43381 0
M  V30 4938 H 465.281 -2.2095 -2.37931 0
M  V30 4939 H 466.292 -5.17611 -0.172872 0
M  V30 4940 H 462.969 -3.55845 -2.18359 0
M  V30 4941 H 464.359 -6.71005 0.346643 0
M  V30 4942 N 467.08 -0.0183926 -1.57589 0
M  V30 4943 C 468.32 0.666846 -1.93216 0
M  V30 4944 C 468.684 1.69905 -0.894215 0
M  V30 4945 O 469.885 2.436 -1.13633 0
M  V30 4946 C 468.156 1.27684 -3.33814 0
M  V30 4947 S 469.715 1.98464 -3.91353 0
M  V30 4948 H 466.533 0.219826 -0.676164 0
M  V30 4949 H 469.135 -0.0794893 -1.95338 0
M  V30 4950 H 467.839 0.513006 -4.07181 0
M  V30 4951 H 467.37 2.06071 -3.3511 0
M  V30 4952 H 469.385 3.26189 -3.73918 0
M  V30 4953 N 468.558 1.5553 0.254621 0
M  V30 4954 C 469.783 1.81383 1.00573 0
M  V30 4955 C 470.208 0.594419 1.78461 0
M  V30 4956 O 469.566 -0.456403 1.75461 0
M  V30 4957 C 469.614 3.04892 1.92545 0
M  V30 4958 O 468.718 2.81266 3.01601 0
M  V30 4959 H 468.059 0.598969 0.286587 0
M  V30 4960 H 470.589 2.02703 0.277952 0
M  V30 4961 H 470.599 3.34119 2.34155 0
M  V30 4962 H 469.274 3.93287 1.3527 0
M  V30 4963 H 467.851 2.63185 2.64174 0
M  V30 4964 N 470.036 -0.519951 1.48776 0
M  V30 4965 C 471.313 -1.28123 1.47797 0
M  V30 4966 C 471.693 -2.10196 0.195157 0
M  V30 4967 O 471.041 -2.13167 -0.822925 0
M  V30 4968 C 471.251 -2.15413 2.74587 0
M  V30 4969 C 472.599 -2.75225 3.23321 0
M  V30 4970 O 473.623 -2.25694 2.75574 0
M  V30 4971 O 472.482 -3.65346 4.06429 0
M  V30 4972 H 469.576 -0.578793 0.590701 0
M  V30 4973 H 472.122 -0.535779 1.6102 0
M  V30 4974 H 470.894 -1.54617 3.59457 0
M  V30 4975 H 470.517 -2.97186 2.64132 0
M  V30 4976 N 471.514 -1.37532 -0.769588 0
M  V30 4977 C 472.762 -1.32597 -1.5252 0
M  V30 4978 C 473.083 0.0884294 -1.94799 0
M  V30 4979 O 472.353 1.03289 -1.66458 0
M  V30 4980 H 470.933 -0.487846 -0.565699 0
M  V30 4981 H 473.595 -1.72044 -0.915806 0
M  V30 4982 H 472.691 -1.96643 -2.42359 0
M  V30 4983 N 472.992 0.995999 -1.22138 0
M  V30 4984 C 474.217 1.77601 -1.0711 0
M  V30 4985 C 474.642 1.84339 0.374264 0
M  V30 4986 O 474 1.29359 1.27028 0
M  V30 4987 C 474.048 3.18897 -1.68336 0
M  V30 4988 O 473.152 4.01663 -0.934928 0
M  V30 4989 H 472.493 0.547011 -0.376397 0
M  V30 4990 H 475.023 1.25137 -1.6187 0
M  V30 4991 H 475.033 3.69539 -1.72931 0
M  V30 4992 H 473.708 3.13308 -2.73516 0
M  V30 4993 H 472.285 3.60204 -0.964751 0
M  V30 4994 N 474.47 1.03057 1.19235 0
M  V30 4995 C 475.719 0.72326 1.88287 0
M  V30 4996 C 476.032 -0.751333 1.80594 0
M  V30 4997 O 477.238 -1.17176 2.44912 0
M  V30 4998 C 475.694 1.24338 3.3774 0
M  V30 4999 C 475.302 2.74587 3.53986 0
M  V30 5000 C 477.046 1.01213 4.12257 0
M  V30 5001 C 474.953 3.20009 4.97341 0
M  V30 5002 H 473.883 0.266848 0.705201 0
M  V30 5003 H 476.534 1.24509 1.34795 0
M  V30 5004 H 474.916 0.649457 3.90638 0
M  V30 5005 H 476.09 3.39649 3.11408 0
M  V30 5006 H 474.405 2.9601 2.9286 0
M  V30 5007 H 477.002 1.32675 5.17978 0
M  V30 5008 H 477.345 -0.051001 4.16269 0
M  V30 5009 H 477.878 1.57014 3.65501 0
M  V30 5010 H 474.617 4.25659 4.98493 0
M  V30 5011 H 474.137 2.59676 5.40674 0
M  V30 5012 H 475.816 3.13447 5.66003 0
M  V30 5013 N 475.948 -1.35272 0.808662 0
M  V30 5014 C 476.878 -2.32315 0.234981 0
M  V30 5015 C 477.859 -1.57572 -0.64071 0
M  V30 5016 O 479.044 -1.8563 -0.570551 0
M  V30 5017 C 476.174 -3.41801 -0.615601 0
M  V30 5018 C 475.128 -4.27694 0.161767 0
M  V30 5019 C 474.454 -5.28519 -0.810649 0
M  V30 5020 C 475.754 -5.04231 1.36193 0
M  V30 5021 H 477.448 -2.80543 1.04575 0
M  V30 5022 H 474.994 -1.3488 0.504315 0
M  V30 5023 H 476.947 -4.08693 -1.02702 0
M  V30 5024 H 475.671 -2.92186 -1.45928 0
M  V30 5025 H 474.33 -3.62384 0.554382 0
M  V30 5026 H 473.978 -4.75171 -1.64988 0
M  V30 5027 H 473.678 -5.8686 -0.294822 0
M  V30 5028 H 475.202 -5.98283 -1.22023 0
M  V30 5029 H 476.616 -5.64058 1.02528 0
M  V30 5030 H 475.013 -5.72077 1.81239 0
M  V30 5031 H 476.083 -4.34753 2.14751 0
M  V30 5032 N 477.426 -0.562348 -1.47226 0
M  V30 5033 C 478.389 0.172056 -2.28553 0
M  V30 5034 C 479.389 0.837928 -1.37242 0
M  V30 5035 O 480.579 0.693001 -1.59822 0
M  V30 5036 C 477.711 1.25223 -3.17068 0
M  V30 5037 H 478.904 -0.542401 -2.94954 0
M  V30 5038 H 476.457 -0.319493 -1.53 0
M  V30 5039 H 477.192 1.99892 -2.55369 0
M  V30 5040 H 476.977 0.779515 -3.84273 0
M  V30 5041 H 478.467 1.76791 -3.78332 0
M  V30 5042 N 478.904 1.54736 -0.299062 0
M  V30 5043 C 480.153 1.99279 0.311549 0
M  V30 5044 C 480.466 1.19107 1.55154 0
M  V30 5045 O 481.672 1.53908 2.23662 0
M  V30 5046 C 480.128 3.54768 0.605632 0
M  V30 5047 C 479.736 4.43746 -0.615914 0
M  V30 5048 C 481.48 4.07841 1.17754 0
M  V30 5049 C 479.387 5.90663 -0.29509 0
M  V30 5050 H 478.317 0.744359 0.120187 0
M  V30 5051 H 480.968 1.78919 -0.407464 0
M  V30 5052 H 479.35 3.71021 1.38419 0
M  V30 5053 H 480.524 4.39267 -1.39218 0
M  V30 5054 H 478.839 4.01434 -1.10633 0
M  V30 5055 H 481.436 5.15174 1.43179 0
M  V30 5056 H 481.779 3.58324 2.11918 0
M  V30 5057 H 482.312 3.95123 0.460739 0
M  V30 5058 H 479.051 6.44325 -1.20524 0
M  V30 5059 H 478.571 5.98155 0.44394 0
M  V30 5060 H 480.25 6.46916 0.104048 0
M  V30 5061 N 480.382 0.0267497 1.57577 0
M  V30 5062 C 481.345 -0.940916 2.08996 0
M  V30 5063 C 482.345 -1.25561 1.00455 0
M  V30 5064 O 483.535 -1.19634 1.26623 0
M  V30 5065 C 480.667 -2.25814 2.55384 0
M  V30 5066 H 481.86 -0.495628 2.95776 0
M  V30 5067 H 479.413 -0.221241 1.54726 0
M  V30 5068 H 480.148 -2.74976 1.71926 0
M  V30 5069 H 479.933 -2.04285 3.34679 0
M  V30 5070 H 481.423 -2.95178 2.95398 0
M  V30 5071 N 481.861 -1.55662 -0.24637 0
M  V30 5072 C 482.791 -1.93377 -1.30873 0
M  V30 5073 C 483.772 -0.798773 -1.50179 0
M  V30 5074 O 484.957 -1.0591 -1.62778 0
M  V30 5075 C 482.087 -2.22893 -2.66338 0
M  V30 5076 C 481.041 -3.38649 -2.61727 0
M  V30 5077 C 480.367 -3.53708 -4.00992 0
M  V30 5078 C 481.667 -4.74323 -2.18666 0
M  V30 5079 H 483.361 -2.82363 -0.995552 0
M  V30 5080 H 480.907 -1.35854 -0.477464 0
M  V30 5081 H 482.86 -2.47866 -3.40794 0
M  V30 5082 H 481.584 -1.30733 -2.99293 0
M  V30 5083 H 480.243 -3.13685 -1.89729 0
M  V30 5084 H 479.891 -2.58967 -4.31214 0
M  V30 5085 H 479.591 -4.31551 -3.98795 0
M  V30 5086 H 481.115 -3.81003 -4.77147 0
M  V30 5087 H 482.529 -4.98665 -2.82854 0
M  V30 5088 H 480.926 -5.55273 -2.27579 0
M  V30 5089 H 481.996 -4.71349 -1.13834 0
M  V30 5090 N 483.339 0.512053 -1.4905 0
M  V30 5091 C 484.269 1.62365 -1.67809 0
M  V30 5092 C 485.25 1.61737 -0.526809 0
M  V30 5093 O 486.435 1.78651 -0.761404 0
M  V30 5094 C 483.565 3.00895 -1.73435 0
M  V30 5095 C 482.519 3.16387 -2.88242 0
M  V30 5096 C 481.845 4.56157 -2.78971 0
M  V30 5097 C 483.145 2.97457 -4.29321 0
M  V30 5098 H 484.839 1.46921 -2.60873 0
M  V30 5099 H 482.385 0.705379 -1.2554 0
M  V30 5100 H 484.338 3.78549 -1.85145 0
M  V30 5101 H 483.062 3.17403 -0.769619 0
M  V30 5102 H 481.721 2.41155 -2.76116 0
M  V30 5103 H 481.369 4.69525 -1.8043 0
M  V30 5104 H 481.069 4.67465 -3.5602 0
M  V30 5105 H 482.593 5.35886 -2.92675 0
M  V30 5106 H 484.007 3.64888 -4.42187 0
M  V30 5107 H 482.404 3.20245 -5.07507 0
M  V30 5108 H 483.474 1.93692 -4.44535 0
M  V30 5109 N 484.817 1.37938 0.762283 0
M  V30 5110 C 486.066 1.32989 1.51647 0
M  V30 5111 C 486.379 -0.0802922 1.95435 0
M  V30 5112 O 487.585 -0.252295 2.70325 0
M  V30 5113 C 486.041 2.33485 2.73885 0
M  V30 5114 C 485.649 3.80079 2.37157 0
M  V30 5115 C 487.393 2.37563 3.51801 0
M  V30 5116 C 485.3 4.72283 3.55954 0
M  V30 5117 H 484.23 0.494301 0.56937 0
M  V30 5118 H 486.881 1.63448 0.834083 0
M  V30 5119 H 485.263 1.96056 3.44061 0
M  V30 5120 H 486.437 4.26398 1.74704 0
M  V30 5121 H 484.752 3.79037 1.72395 0
M  V30 5122 H 487.349 3.0365 4.40114 0
M  V30 5123 H 487.692 1.39199 3.92338 0
M  V30 5124 H 488.225 2.73747 2.8863 0
M  V30 5125 H 484.964 5.7181 3.2049 0
M  V30 5126 H 484.484 4.30663 4.1748 0
M  V30 5127 H 486.163 4.89876 4.22647 0
M  V30 5128 N 486.295 -0.989507 1.22664 0
M  V30 5129 C 487.225 -2.09847 1.02404 0
M  V30 5130 C 488.206 -1.70007 -0.0561303 0
M  V30 5131 O 489.391 -1.93906 0.106748 0
M  V30 5132 C 486.521 -3.41996 0.604663 0
M  V30 5133 C 485.475 -3.95699 1.63115 0
M  V30 5134 C 484.801 -5.23936 1.0675 0
M  V30 5135 C 486.101 -4.25999 3.02196 0
M  V30 5136 H 487.795 -2.27054 1.95158 0
M  V30 5137 H 485.341 -1.09111 0.939727 0
M  V30 5138 H 487.294 -4.1899 0.45002 0
M  V30 5139 H 486.018 -3.24626 -0.35855 0
M  V30 5140 H 484.677 -3.2084 1.77362 0
M  V30 5141 H 484.325 -5.02909 0.0955422 0
M  V30 5142 H 484.025 -5.60833 1.75328 0
M  V30 5143 H 485.549 -6.0356 0.924516 0
M  V30 5144 H 486.963 -4.93777 2.91303 0
M  V30 5145 H 485.36 -4.74076 3.67929 0
M  V30 5146 H 486.43 -3.33636 3.51873 0
M  V30 5147 N 487.773 -1.03688 -1.18687 0
M  V30 5148 C 489.02 -0.73803 -1.88572 0
M  V30 5149 C 489.348 0.733973 -1.8012 0
M  V30 5150 O 488.603 1.55098 -1.19344 0
M  V30 5151 C 488.902 -1.14477 -3.3857 0
M  V30 5152 C 488.568 -2.61641 -3.67226 0
M  V30 5153 C 487.23 -3.01846 -3.74757 0
M  V30 5154 C 489.582 -3.56812 -3.79914 0
M  V30 5155 C 486.91 -4.36118 -3.92451 0
M  V30 5156 C 489.262 -4.90799 -3.99123 0
M  V30 5157 C 487.926 -5.3068 -4.04888 0
M  V30 5158 H 487.196 -0.270064 -0.690034 0
M  V30 5159 H 489.843 -1.3012 -1.40503 0
M  V30 5160 H 488.148 -0.500337 -3.88592 0
M  V30 5161 H 489.845 -0.89095 -3.90977 0
M  V30 5162 H 486.435 -2.29498 -3.61979 0
M  V30 5163 H 490.619 -3.26899 -3.73431 0
M  V30 5164 H 485.875 -4.66542 -3.95157 0
M  V30 5165 H 490.049 -5.64451 -4.07882 0
M  V30 5166 H 487.676 -6.34733 -4.18351 0
M  V30 5167 N 489.251 1.34841 -0.815825 0
M  V30 5168 C 490.181 2.32187 -0.247298 0
M  V30 5169 C 491.162 1.5791 0.632344 0
M  V30 5170 O 492.347 1.8593 0.560698 0
M  V30 5171 C 489.477 3.42122 0.597466 0
M  V30 5172 C 488.431 4.27602 -0.184446 0
M  V30 5173 C 487.757 5.28942 0.782609 0
M  V30 5174 C 489.057 5.03502 -1.38865 0
M  V30 5175 H 490.751 2.79985 -1.06061 0
M  V30 5176 H 488.297 1.34611 -0.511461 0
M  V30 5177 H 490.25 4.09232 1.00533 0
M  V30 5178 H 488.974 2.92956 1.44376 0
M  V30 5179 H 487.633 3.62085 -0.573592 0
M  V30 5180 H 487.281 4.7604 1.62466 0
M  V30 5181 H 486.981 5.87008 0.263695 0
M  V30 5182 H 488.505 5.98922 1.18848 0
M  V30 5183 H 489.919 5.63506 -1.05518 0
M  V30 5184 H 488.316 5.71108 -1.8427 0
M  V30 5185 H 489.386 4.33608 -2.17054 0
M  V30 5186 N 490.729 0.570148 1.46925 0
M  V30 5187 C 491.659 -0.158274 2.32963 0
M  V30 5188 C 492.64 -0.896093 1.44583 0
M  V30 5189 O 493.825 -0.874022 1.7342 0
M  V30 5190 C 490.955 -1.18055 3.26619 0
M  V30 5191 C 489.909 -0.558379 4.24342 0
M  V30 5192 C 489.235 -1.68623 5.07415 0
M  V30 5193 C 490.535 0.496295 5.19937 0
M  V30 5194 H 492.229 0.560046 2.94115 0
M  V30 5195 H 489.775 0.270775 1.41431 0
M  V30 5196 H 491.728 -1.69841 3.85658 0
M  V30 5197 H 490.452 -1.92899 2.63548 0
M  V30 5198 H 489.111 -0.0617157 3.66548 0
M  V30 5199 H 488.759 -2.42402 4.40738 0
M  V30 5200 H 488.459 -1.27564 5.73586 0
M  V30 5201 H 489.983 -2.20709 5.69315 0
M  V30 5202 H 491.397 0.0640052 5.73264 0
M  V30 5203 H 489.794 0.82649 5.94381 0
M  V30 5204 H 490.864 1.38735 4.6463 0
M  V30 5205 N 492.207 -1.54576 0.307264 0
M  V30 5206 C 493.137 -2.26708 -0.55907 0
M  V30 5207 C 494.118 -1.26893 -1.1328 0
M  V30 5208 O 495.303 -1.55677 -1.16097 0
M  V30 5209 C 492.433 -3.01259 -1.72801 0
M  V30 5210 C 491.387 -4.08275 -1.28435 0
M  V30 5211 C 490.713 -4.70575 -2.53895 0
M  V30 5212 C 492.013 -5.2068 -0.411038 0
M  V30 5213 H 493.707 -2.9937 0.042576 0
M  V30 5214 H 491.253 -1.43983 0.0219173 0
M  V30 5215 H 493.206 -3.50444 -2.34023 0
M  V30 5216 H 491.93 -2.26187 -2.356 0
M  V30 5217 H 490.589 -3.59949 -0.695161 0
M  V30 5218 H 490.237 -3.92136 -3.15021 0
M  V30 5219 H 489.937 -5.42854 -2.24908 0
M  V30 5220 H 491.461 -5.22527 -3.15908 0
M  V30 5221 H 492.875 -5.65721 -0.929097 0
M  V30 5222 H 491.272 -5.99716 -0.214664 0
M  V30 5223 H 492.342 -4.81629 0.562287 0
M  V30 5224 N 493.685 -0.035106 -1.57561 0
M  V30 5225 C 494.648 0.929819 -2.09492 0
M  V30 5226 C 495.648 1.25026 -1.01119 0
M  V30 5227 O 496.838 1.18961 -1.27255 0
M  V30 5228 C 493.97 2.24457 -2.56577 0
M  V30 5229 H 495.163 0.479935 -2.96035 0
M  V30 5230 H 492.716 0.213033 -1.54841 0
M  V30 5231 H 493.451 2.74061 -1.73382 0
M  V30 5232 H 493.236 2.02508 -3.35757 0
M  V30 5233 H 494.726 2.93607 -2.96959 0
M  V30 5234 N 495.163 1.55791 0.238111 0
M  V30 5235 C 496.093 1.94068 1.29846 0
M  V30 5236 C 497.074 0.806726 1.49753 0
M  V30 5237 O 498.259 1.06772 1.62214 0
M  V30 5238 C 495.389 2.24302 2.65153 0
M  V30 5239 C 494.343 3.40032 2.59927 0
M  V30 5240 C 493.669 3.55829 3.99111 0
M  V30 5241 C 494.969 4.75476 2.16148 0
M  V30 5242 H 496.663 2.82887 0.980563 0
M  V30 5243 H 494.209 1.36105 0.470253 0
M  V30 5244 H 496.162 2.4967 3.39475 0
M  V30 5245 H 494.886 1.32318 2.98596 0
M  V30 5246 H 493.545 3.14687 1.88063 0
M  V30 5247 H 493.193 2.6125 4.29834 0
M  V30 5248 H 492.893 4.3366 3.96501 0
M  V30 5249 H 494.417 3.83528 4.7512 0
M  V30 5250 H 495.831 5.00158 2.80205 0
M  V30 5251 H 494.228 5.56472 2.24631 0
M  V30 5252 H 495.298 4.71946 1.11333 0
M  V30 5253 N 496.642 -0.504142 1.49319 0
M  V30 5254 C 497.605 -1.5883 1.65244 0
M  V30 5255 C 498.605 -1.52009 0.524386 0
M  V30 5256 O 499.795 -1.55218 0.79077 0
M  V30 5257 C 496.927 -2.98481 1.64687 0
M  V30 5258 H 498.12 -1.4604 2.61939 0
M  V30 5259 H 495.673 -0.728144 1.38303 0
M  V30 5260 H 496.408 -3.16751 0.695644 0
M  V30 5261 H 496.193 -3.0484 2.46607 0
M  V30 5262 H 497.683 -3.77256 1.79075 0
M  V30 5263 N 498.12 -1.38341 -0.754957 0
M  V30 5264 C 499.05 -1.38176 -1.88227 0
M  V30 5265 C 500.031 -0.247873 -1.68284 0
M  V30 5266 O 501.216 -0.45075 -1.88896 0
M  V30 5267 C 498.346 -1.20471 -3.25736 0
M  V30 5268 C 497.3 -2.3105 -3.60278 0
M  V30 5269 C 496.626 -1.98452 -4.96509 0
M  V30 5270 C 497.926 -3.73305 -3.65295 0
M  V30 5271 H 499.62 -2.32512 -1.88622 0
M  V30 5272 H 497.166 -1.1192 -0.906082 0
M  V30 5273 H 499.119 -1.18982 -4.04254 0
M  V30 5274 H 497.843 -0.225965 -3.25817 0
M  V30 5275 H 496.502 -2.31723 -2.84078 0
M  V30 5276 H 496.15 -0.990641 -4.93148 0
M  V30 5277 H 495.85 -2.7251 -5.20588 0
M  V30 5278 H 497.374 -1.98578 -5.77407 0
M  V30 5279 H 498.788 -3.7467 -4.3393 0
M  V30 5280 H 497.185 -4.46557 -4.00883 0
M  V30 5281 H 498.255 -4.05719 -2.65556 0
M  V30 5282 N 499.598 0.982988 -1.23187 0
M  V30 5283 C 500.528 2.09301 -1.03515 0
M  V30 5284 C 501.509 1.70035 0.0471136 0
M  V30 5285 O 502.694 1.93847 -0.117029 0
M  V30 5286 C 499.824 3.4167 -0.622791 0
M  V30 5287 C 498.778 3.94828 -1.65211 0
M  V30 5288 C 498.104 5.23362 -1.09527 0
M  V30 5289 C 499.404 4.2439 -3.04451 0
M  V30 5290 H 501.098 2.26016 -1.96359 0
M  V30 5291 H 498.644 1.08611 -0.945501 0
M  V30 5292 H 500.597 4.18746 -0.472233 0
M  V30 5293 H 499.321 3.24811 0.341329 0
M  V30 5294 H 497.98 3.19895 -1.79061 0
M  V30 5295 H 497.628 5.02852 -0.122211 0
M  V30 5296 H 497.328 5.59895 -1.783 0
M  V30 5297 H 498.852 6.03062 -0.956511 0
M  V30 5298 H 500.266 4.92225 -2.93917 0
M  V30 5299 H 498.663 4.72118 -3.70438 0
M  V30 5300 H 499.733 3.31765 -3.53638 0
M  V30 5301 N 501.076 1.04316 1.18135 0
M  V30 5302 C 502.322 0.758899 1.88712 0
M  V30 5303 C 502.677 -0.705863 1.78984 0
M  V30 5304 O 501.97 -1.50874 1.18101 0
M  V30 5305 C 502.164 1.16271 3.37958 0
M  V30 5306 C 501.993 2.66518 3.62213 0
M  V30 5307 C 500.763 3.33702 3.79436 0
M  V30 5308 C 502.961 3.64739 3.62588 0
M  V30 5309 N 500.943 4.72904 3.91452 0
M  V30 5310 C 502.314 4.89627 3.80348 0
M  V30 5311 C 504.369 3.58333 3.4569 0
M  V30 5312 C 503.072 6.08879 3.8296 0
M  V30 5313 C 505.098 4.77016 3.49586 0
M  V30 5314 C 504.46 6.00724 3.67845 0
M  V30 5315 H 500.559 0.329795 0.709055 0
M  V30 5316 H 503.143 1.33334 1.4188 0
M  V30 5317 H 501.314 0.616319 3.83479 0
M  V30 5318 H 503.046 0.829205 3.96114 0
M  V30 5319 H 499.801 2.84105 3.78921 0
M  V30 5320 H 500.225 5.45258 4.01277 0
M  V30 5321 H 504.867 2.63663 3.30517 0
M  V30 5322 H 502.585 7.03903 3.96921 0
M  V30 5323 H 506.171 4.73703 3.37782 0
M  V30 5324 H 505.051 6.91022 3.70753 0
M  V30 5325 N 502.554 -1.34406 0.822964 0
M  V30 5326 C 503.8 -1.98999 0.420847 0
M  V30 5327 C 504.155 -1.64067 -1.00498 0
M  V30 5328 O 503.448 -0.902071 -1.69036 0
M  V30 5329 C 503.642 -3.52981 0.560268 0
M  V30 5330 C 503.471 -4.02873 1.99809 0
M  V30 5331 C 502.241 -4.31463 2.62998 0
M  V30 5332 C 504.439 -4.20241 2.96483 0
M  V30 5333 N 502.421 -4.6739 3.9802 0
M  V30 5334 C 503.792 -4.59348 4.16413 0
M  V30 5335 C 505.847 -4.02489 2.93098 0
M  V30 5336 C 504.55 -4.82559 5.33413 0
M  V30 5337 C 506.576 -4.26866 4.09315 0
M  V30 5338 C 505.938 -4.6626 5.27997 0
M  V30 5339 H 502.037 -0.755432 0.202104 0
M  V30 5340 H 504.621 -1.62815 1.06767 0
M  V30 5341 H 502.792 -3.88359 -0.0566596 0
M  V30 5342 H 504.524 -4.04487 0.131146 0
M  V30 5343 H 501.279 -4.22373 2.14238 0
M  V30 5344 H 501.703 -4.89588 4.67582 0
M  V30 5345 H 506.345 -3.71161 2.02483 0
M  V30 5346 H 504.063 -5.12754 6.24587 0
M  V30 5347 H 507.649 -4.14667 4.08096 0
M  V30 5348 H 506.529 -4.84752 6.16429 0
M  V30 5349 N 504.032 -0.577932 -1.46621 0
M  V30 5350 C 505.279 -0.0616879 -2.02406 0
M  V30 5351 C 505.607 1.29638 -1.44997 0
M  V30 5352 O 504.862 1.86176 -0.60308 0
M  V30 5353 C 505.161 0.0590832 -3.57351 0
M  V30 5354 C 504.827 -1.23077 -4.33777 0
M  V30 5355 C 503.489 -1.58416 -4.54376 0
M  V30 5356 C 505.841 -2.08457 -4.77698 0
M  V30 5357 C 503.169 -2.78943 -5.16147 0
M  V30 5358 C 505.521 -3.28204 -5.408 0
M  V30 5359 C 504.185 -3.63832 -5.59627 0
M  V30 5360 H 503.455 -0.0225732 -0.740656 0
M  V30 5361 H 506.102 -0.753609 -1.76048 0
M  V30 5362 H 504.407 0.834104 -3.82818 0
M  V30 5363 H 506.104 0.474202 -3.98186 0
M  V30 5364 H 502.694 -0.945652 -4.18038 0
M  V30 5365 H 506.878 -1.82459 -4.61544 0
M  V30 5366 H 502.134 -3.06689 -5.28916 0
M  V30 5367 H 506.308 -3.94634 -5.73792 0
M  V30 5368 H 503.935 -4.57315 -6.07262 0
M  V30 5369 N 505.51 1.54411 -0.315457 0
M  V30 5370 C 506.756 2.01425 0.282775 0
M  V30 5371 C 507.111 1.19978 1.5041 0
M  V30 5372 O 506.404 0.271766 1.89663 0
M  V30 5373 C 506.598 3.50936 0.676652 0
M  V30 5374 C 506.427 4.46856 -0.504954 0
M  V30 5375 C 505.197 4.95275 -1.00152 0
M  V30 5376 C 507.395 4.96141 -1.35456 0
M  V30 5377 N 505.377 5.75081 -2.14838 0
M  V30 5378 C 506.748 5.73791 -2.3487 0
M  V30 5379 C 508.803 4.78299 -1.38327 0
M  V30 5380 C 507.506 6.35498 -3.36949 0
M  V30 5381 C 509.532 5.40836 -2.39271 0
M  V30 5382 C 508.894 6.1833 -3.37413 0
M  V30 5383 H 504.993 0.779078 0.0675398 0
M  V30 5384 H 507.577 1.8946 -0.448656 0
M  V30 5385 H 505.748 3.63162 1.37723 0
M  V30 5386 H 507.48 3.84728 1.25566 0
M  V30 5387 H 504.235 4.70107 -0.574123 0
M  V30 5388 H 504.659 6.19664 -2.72665 0
M  V30 5389 H 509.301 4.17956 -0.638196 0
M  V30 5390 H 507.019 6.94967 -4.12367 0
M  V30 5391 H 510.605 5.28952 -2.42284 0
M  V30 5392 H 509.485 6.65861 -4.14244 0
M  V30 5393 N 506.988 0.0434614 1.5754 0
M  V30 5394 C 508.399 -0.493343 1.80064 0
M  V30 5395 C 508.75 -1.71388 0.955023 0
M  V30 5396 O 507.875 -2.15736 0.169434 0
M  V30 5397 C 508.47 -0.90179 3.26578 0
M  V30 5398 C 507.029 -1.38362 3.50047 0
M  V30 5399 C 506.176 -0.355129 2.75017 0
M  V30 5400 H 509.127 0.2694 1.56397 0
M  V30 5401 H 509.148 -1.76523 3.37075 0
M  V30 5402 H 508.66 -0.013271 3.88098 0
M  V30 5403 H 506.761 -2.29159 2.93798 0
M  V30 5404 H 506.874 -1.3811 4.58762 0
M  V30 5405 H 505.238 -0.826348 2.40922 0
M  V30 5406 H 506.021 0.525172 3.39259 0
M  V30 5407 N 508.466 -1.55915 -0.229846 0
M  V30 5408 C 509.396 -1.94754 -1.28815 0
M  V30 5409 C 510.377 -0.814657 -1.49323 0
M  V30 5410 O 511.562 -1.07631 -1.61645 0
M  V30 5411 C 508.692 -2.25705 -2.63959 0
M  V30 5412 C 507.646 -3.41406 -2.5812 0
M  V30 5413 C 506.972 -3.57941 -3.97218 0
M  V30 5414 C 508.272 -4.76616 -2.13623 0
M  V30 5415 H 509.966 -2.83404 -0.965547 0
M  V30 5416 H 507.512 -1.36353 -0.463028 0
M  V30 5417 H 509.465 -2.51467 -3.38146 0
M  V30 5418 H 508.189 -1.339 -2.9789 0
M  V30 5419 H 506.848 -3.1568 -1.86391 0
M  V30 5420 H 506.496 -2.63526 -4.28443 0
M  V30 5421 H 506.196 -4.35757 -3.94195 0
M  V30 5422 H 507.72 -3.86042 -4.73079 0
M  V30 5423 H 509.134 -5.01637 -2.77549 0
M  V30 5424 H 507.531 -5.57655 -2.21677 0
M  V30 5425 H 508.601 -4.7253 -1.08829 0
M  V30 5426 N 509.944 0.496216 -1.49584 0
M  V30 5427 C 511.184 1.26015 -1.60933 0
M  V30 5428 C 511.548 1.89772 -0.291646 0
M  V30 5429 O 512.749 2.67334 -0.280357 0
M  V30 5430 C 511.02 2.29506 -2.73974 0
M  V30 5431 S 512.579 3.15175 -3.05303 0
M  V30 5432 H 509.397 0.428194 -0.567601 0
M  V30 5433 H 511.999 0.561484 -1.87263 0
M  V30 5434 H 510.703 1.81205 -3.68229 0
M  V30 5435 H 510.234 3.04036 -2.49651 0
M  V30 5436 H 512.249 4.30244 -2.47193 0
M  V30 5437 N 511.423 1.38739 0.74761 0
M  V30 5438 C 512.663 1.36695 1.51966 0
M  V30 5439 C 513.027 -0.0411889 1.91956 0
M  V30 5440 O 514.228 -0.186543 2.68152 0
M  V30 5441 C 512.499 2.30119 2.73459 0
M  V30 5442 S 514.058 2.4615 3.63257 0
M  V30 5443 H 510.876 0.484929 0.519966 0
M  V30 5444 H 513.478 1.7472 0.877104 0
M  V30 5445 H 512.182 3.31312 2.422 0
M  V30 5446 H 511.713 1.93265 3.42655 0
M  V30 5447 H 513.728 1.69001 4.66533 0
M  V30 5448 N 512.901 -0.976442 1.23707 0
M  V30 5449 C 514.129 -1.75341 1.09833 0
M  V30 5450 C 514.544 -1.8553 -0.349885 0
M  V30 5451 O 513.901 -1.33732 -1.24185 0
M  V30 5452 C 513.952 -3.17833 1.72233 0
M  V30 5453 O 513.673 -3.08167 3.11391 0
M  V30 5454 C 515.174 -4.11906 1.63853 0
M  V30 5455 H 512.394 -0.550137 0.384175 0
M  V30 5456 H 514.938 -1.2265 1.63638 0
M  V30 5457 H 513.093 -3.67538 1.22452 0
M  V30 5458 H 513.507 -3.97897 3.41729 0
M  V30 5459 H 514.981 -5.09579 2.12211 0
M  V30 5460 H 515.458 -4.35109 0.598092 0
M  V30 5461 H 516.064 -3.68107 2.13019 0
M  V30 5462 N 514.379 -1.04941 -1.1758 0
M  V30 5463 C 515.625 -0.759112 -1.88057 0
M  V30 5464 C 515.958 0.711918 -1.8068 0
M  V30 5465 O 515.233 1.52035 -1.21308 0
M  V30 5466 C 515.516 -1.237 -3.38187 0
M  V30 5467 C 515.369 -2.77078 -3.54327 0
M  V30 5468 C 516.688 -0.834014 -4.32125 0
M  V30 5469 H 513.807 -0.277237 -0.682868 0
M  V30 5470 H 516.449 -1.30296 -1.38286 0
M  V30 5471 H 514.599 -0.774337 -3.80705 0
M  V30 5472 H 516.271 -3.31449 -3.20842 0
M  V30 5473 H 514.514 -3.16477 -2.96689 0
M  V30 5474 H 515.185 -3.05577 -4.59703 0
M  V30 5475 H 517.661 -1.23228 -3.97434 0
M  V30 5476 H 516.537 -1.19603 -5.35711 0
M  V30 5477 H 516.798 0.262195 -4.41322 0
M  V30 5478 N 515.857 1.33968 -0.830081 0
M  V30 5479 C 517.106 1.97323 -0.417928 0
M  V30 5480 C 517.419 1.6652 1.02618 0
M  V30 5481 O 518.625 2.2342 1.54259 0
M  V30 5482 C 517.081 3.53099 -0.696359 0
M  V30 5483 C 516.689 3.92788 -2.15457 0
M  V30 5484 C 518.433 4.23049 -0.350724 0
M  V30 5485 C 516.34 5.41506 -2.37751 0
M  V30 5486 H 515.27 0.738409 -0.152541 0
M  V30 5487 H 517.921 1.52711 -1.01744 0
M  V30 5488 H 516.303 3.95991 -0.0265904 0
M  V30 5489 H 517.477 3.6098 -2.86408 0
M  V30 5490 H 515.792 3.35795 -2.46232 0
M  V30 5491 H 518.389 5.32403 -0.495036 0
M  V30 5492 H 518.732 4.10279 0.705476 0
M  V30 5493 H 519.265 3.85657 -0.975362 0
M  V30 5494 H 516.004 5.5927 -3.41903 0
M  V30 5495 H 515.524 5.74804 -1.7135 0
M  V30 5496 H 517.203 6.0828 -2.20465 0
M  V30 5497 N 517.335 0.585699 1.46312 0
M  V30 5498 C 518.584 0.0701192 2.01578 0
M  V30 5499 C 518.897 -1.29889 1.46247 0
M  V30 5500 O 520.103 -1.90598 1.93351 0
M  V30 5501 C 518.559 0.0747499 3.59822 0
M  V30 5502 C 518.167 1.44226 4.24149 0
M  V30 5503 C 519.911 -0.38673 4.22735 0
M  V30 5504 C 517.818 1.40446 5.74481 0
M  V30 5505 H 516.748 0.0224441 0.753666 0
M  V30 5506 H 519.399 0.737789 1.68015 0
M  V30 5507 H 517.781 -0.659144 3.90476 0
M  V30 5508 H 518.955 2.19612 4.05101 0
M  V30 5509 H 517.27 1.84401 3.73343 0
M  V30 5510 H 519.867 -0.433853 5.32937 0
M  V30 5511 H 520.21 -1.40489 3.91878 0
M  V30 5512 H 520.743 0.293195 3.96718 0
M  V30 5513 H 517.482 2.39952 6.10003 0
M  V30 5514 H 517.002 0.692845 5.95785 0
M  V30 5515 H 518.681 1.11865 6.37256 0
M  V30 5516 N 518.813 -1.54241 0.323641 0
M  V30 5517 C 519.76 -2.24339 -0.542277 0
M  V30 5518 C 520.73 -1.23421 -1.11159 0
M  V30 5519 O 521.915 -1.52104 -1.15192 0
M  V30 5520 C 519.055 -3.00479 -1.69725 0
M  V30 5521 C 518.168 -4.16214 -1.15716 0
M  V30 5522 C 517.303 -4.79884 -2.27783 0
M  V30 5523 C 516.342 -5.87722 -1.71023 0
M  V30 5524 N 515.479 -6.45254 -2.76752 0
M  V30 5525 H 520.319 -2.97935 0.0620613 0
M  V30 5526 H 517.856 -1.47039 0.0423993 0
M  V30 5527 H 519.814 -3.42869 -2.3769 0
M  V30 5528 H 518.444 -2.29217 -2.27288 0
M  V30 5529 H 517.496 -3.78605 -0.369063 0
M  V30 5530 H 518.808 -4.93838 -0.701832 0
M  V30 5531 H 517.962 -5.25243 -3.03651 0
M  V30 5532 H 516.701 -4.01641 -2.76652 0
M  V30 5533 H 515.706 -5.41765 -0.936518 0
M  V30 5534 H 516.931 -6.67863 -1.2303 0
M  V30 5535 H 514.877 -5.69884 -3.24912 0
M  V30 5536 H 514.794 -7.18292 -2.35782 0
M  V30 5537 H 516.062 -6.95269 -3.5245 0
M  V30 5538 N 520.291 -0.0518155 -1.57515 0
M  V30 5539 C 521.201 0.937539 -2.15052 0
M  V30 5540 C 522.217 1.34121 -1.10849 0
M  V30 5541 O 523.393 1.418 -1.4302 0
M  V30 5542 C 520.458 2.19379 -2.68466 0
M  V30 5543 C 519.519 1.84841 -3.87469 0
M  V30 5544 C 518.752 3.04477 -4.38326 0
M  V30 5545 O 518.975 4.17868 -3.88256 0
M  V30 5546 O 517.909 2.85453 -5.29906 0
M  V30 5547 H 521.735 0.478201 -2.99912 0
M  V30 5548 H 519.32 0.17012 -1.48428 0
M  V30 5549 H 521.202 2.93084 -3.02787 0
M  V30 5550 H 519.877 2.64449 -1.86677 0
M  V30 5551 H 518.784 1.08449 -3.58036 0
M  V30 5552 H 520.117 1.44569 -4.7049 0
M  V30 5553 N 521.769 1.56035 0.221574 0
M  V30 5554 C 523.015 1.79312 0.947372 0
M  V30 5555 C 523.348 0.621453 1.83988 0
M  V30 5556 O 522.623 -0.379287 1.90766 0
M  V30 5557 C 522.906 3.1267 1.78633 0
M  V30 5558 C 522.759 4.40284 0.920312 0
M  V30 5559 C 524.078 3.4247 2.7641 0
M  V30 5560 H 521.197 0.652328 0.342982 0
M  V30 5561 H 523.839 1.88765 0.216244 0
M  V30 5562 H 521.989 3.04741 2.40967 0
M  V30 5563 H 523.661 4.60232 0.313718 0
M  V30 5564 H 521.904 4.33212 0.225734 0
M  V30 5565 H 522.575 5.30033 1.54171 0
M  V30 5566 H 525.051 3.50526 2.24211 0
M  V30 5567 H 523.927 4.3695 3.32213 0
M  V30 5568 H 524.188 2.64635 3.54148 0
M  V30 5569 N 523.247 -0.488276 1.49845 0
M  V30 5570 C 524.658 -1.06955 1.53028 0
M  V30 5571 C 525.009 -1.9351 0.323797 0
M  V30 5572 O 524.134 -2.08891 -0.565116 0
M  V30 5573 C 524.729 -1.94643 2.77307 0
M  V30 5574 C 523.288 -2.4791 2.83227 0
M  V30 5575 C 522.435 -1.25833 2.47106 0
M  V30 5576 H 525.386 -0.271626 1.56358 0
M  V30 5577 H 525.407 -2.79496 2.5819 0
M  V30 5578 H 524.919 -1.31621 3.65099 0
M  V30 5579 H 523.02 -3.14535 1.99745 0
M  V30 5580 H 523.133 -2.84193 3.85709 0
M  V30 5581 H 521.497 -1.58764 1.99163 0
M  V30 5582 H 522.28 -0.644993 3.37186 0
M  V30 5583 N 524.725 -1.39134 -0.740242 0
M  V30 5584 C 526.136 -1.32208 -1.31825 0
M  V30 5585 C 526.487 0.0159919 -1.96193 0
M  V30 5586 O 525.612 0.918111 -1.95958 0
M  V30 5587 C 526.207 -2.39436 -2.39699 0
M  V30 5588 C 524.766 -2.36048 -2.93187 0
M  V30 5589 C 523.913 -2.21599 -1.66701 0
M  V30 5590 H 526.864 -1.49298 -0.538133 0
M  V30 5591 H 526.885 -2.05922 -3.19963 0
M  V30 5592 H 526.397 -3.36811 -1.92821 0
M  V30 5593 H 524.498 -1.42295 -3.44359 0
M  V30 5594 H 524.611 -3.30704 -3.46658 0
M  V30 5595 H 522.975 -1.68681 -1.90837 0
M  V30 5596 H 523.758 -3.20936 -1.21882 0
M  V30 5597 N 526.204 0.969867 -1.24223 0
M  V30 5598 C 527.615 1.52717 -1.07399 0
M  V30 5599 C 527.966 1.92956 0.355298 0
M  V30 5600 O 527.091 1.77112 1.2434 0
M  V30 5601 C 527.686 2.77521 -1.94339 0
M  V30 5602 C 526.245 3.29615 -1.81744 0
M  V30 5603 C 525.392 2.02537 -1.89405 0
M  V30 5604 H 528.343 0.788399 -1.37732 0
M  V30 5605 H 528.364 3.50773 -1.47439 0
M  V30 5606 H 527.876 2.48203 -2.98357 0
M  V30 5607 H 525.977 3.63789 -0.805505 0
M  V30 5608 H 526.09 3.98661 -2.65718 0
M  V30 5609 H 524.454 2.17151 -1.33108 0
M  V30 5610 H 525.237 1.75587 -2.94999 0
M  V30 5611 N 527.682 1.05563 1.17022 0
M  V30 5612 C 529.093 0.793475 1.69 0
M  V30 5613 C 529.444 -0.683882 1.83895 0
M  V30 5614 O 528.569 -1.53116 1.5292 0
M  V30 5615 C 529.164 1.43376 3.06967 0
M  V30 5616 C 527.723 1.21956 3.56095 0
M  V30 5617 C 526.87 1.51494 2.3226 0
M  V30 5618 H 529.821 1.22008 1.01487 0
M  V30 5619 H 529.842 0.845068 3.70997 0
M  V30 5620 H 529.354 2.50899 2.96093 0
M  V30 5621 H 527.455 0.163749 3.7224 0
M  V30 5622 H 527.568 1.92713 4.38633 0
M  V30 5623 H 525.932 0.935175 2.3691 0
M  V30 5624 H 526.715 2.60159 2.23992 0
M  V30 5625 N 529.16 -1.33526 0.837174 0
M  V30 5626 C 530.123 -2.27551 0.274421 0
M  V30 5627 C 531.123 -1.50886 -0.555881 0
M  V30 5628 O 532.313 -1.70227 -0.369918 0
M  V30 5629 C 529.445 -3.35332 -0.613605 0
M  V30 5630 H 530.638 -2.78837 1.10408 0
M  V30 5631 H 528.191 -1.439 0.610126 0
M  V30 5632 H 528.926 -2.89285 -1.46577 0
M  V30 5633 H 528.711 -3.92095 -0.0195341 0
M  V30 5634 H 530.201 -4.05433 -1.00068 0
M  V30 5635 N 530.638 -0.59345 -1.46 0
M  V30 5636 C 531.548 0.135817 -2.34207 0
M  V30 5637 C 532.564 0.875008 -1.50398 0
M  V30 5638 O 533.74 0.835778 -1.83239 0
M  V30 5639 C 530.805 1.12977 -3.27776 0
M  V30 5640 C 529.866 0.394081 -4.27487 0
M  V30 5641 C 529.099 1.34068 -5.16586 0
M  V30 5642 O 529.322 2.5778 -5.08828 0
M  V30 5643 O 528.256 0.845426 -5.95933 0
M  V30 5644 H 532.082 -0.588691 -2.9794 0
M  V30 5645 H 529.667 -0.353784 -1.45151 0
M  V30 5646 H 531.549 1.70261 -3.85473 0
M  V30 5647 H 530.224 1.83556 -2.66625 0
M  V30 5648 H 529.131 -0.220869 -3.73447 0
M  V30 5649 H 530.464 -0.270939 -4.91454 0
M  V30 5650 N 532.116 1.54067 -0.331816 0
M  V30 5651 C 533.026 2.28322 0.539104 0
M  V30 5652 C 534.042 1.32985 1.1221 0
M  V30 5653 O 535.218 1.6601 1.1403 0
M  V30 5654 C 532.283 3.03277 1.68 0
M  V30 5655 C 531.344 4.14216 1.12798 0
M  V30 5656 C 530.577 4.85588 2.2145 0
M  V30 5657 O 530.8 4.56536 3.41952 0
M  V30 5658 O 529.734 5.72309 1.86404 0
M  V30 5659 H 533.56 3.03632 -0.0641692 0
M  V30 5660 H 531.145 1.49083 -0.0972365 0
M  V30 5661 H 533.027 3.50189 2.34405 0
M  V30 5662 H 531.702 2.30834 2.2693 0
M  V30 5663 H 530.609 3.71635 0.428782 0
M  V30 5664 H 531.942 4.88727 0.583698 0
M  V30 5665 N 533.594 0.0601682 1.57485 0
M  V30 5666 C 534.819 -0.624416 1.97777 0
M  V30 5667 C 535.244 -1.63051 0.937867 0
M  V30 5668 O 534.602 -1.81036 -0.0978845 0
M  V30 5669 C 534.65 -1.27979 3.37126 0
M  V30 5670 O 533.754 -2.39556 3.35688 0
M  V30 5671 H 533.095 -0.161581 0.64404 0
M  V30 5672 H 535.625 0.131237 2.04179 0
M  V30 5673 H 535.635 -1.62937 3.74053 0
M  V30 5674 H 534.31 -0.542501 4.12347 0
M  V30 5675 H 532.887 -2.06478 3.10517 0
M  V30 5676 N 535.072 -1.5615 -0.213296 0
M  V30 5677 C 535.982 -1.96265 -1.28519 0
M  V30 5678 C 536.998 -0.86765 -1.50824 0
M  V30 5679 O 538.174 -1.17191 -1.63793 0
M  V30 5680 C 535.239 -2.27836 -2.61327 0
M  V30 5681 C 534.3 -3.50949 -2.47252 0
M  V30 5682 C 533.533 -3.81004 -3.73727 0
M  V30 5683 O 533.756 -3.12612 -4.77106 0
M  V30 5684 O 532.69 -4.74477 -3.70344 0
M  V30 5685 H 536.516 -2.87631 -0.974795 0
M  V30 5686 H 534.101 -1.43467 -0.416832 0
M  V30 5687 H 535.983 -2.49299 -3.39747 0
M  V30 5688 H 534.658 -1.39643 -2.9203 0
M  V30 5689 H 533.565 -3.34754 -1.67004 0
M  V30 5690 H 534.898 -4.39551 -2.21486 0
M  V30 5691 N 536.55 0.480323 -1.50102 0
M  V30 5692 C 537.46 1.60547 -1.71061 0
M  V30 5693 C 538.476 1.63564 -0.593529 0
M  V30 5694 O 539.652 1.81604 -0.870751 0
M  V30 5695 C 536.717 2.96814 -1.79171 0
M  V30 5696 C 535.778 3.04259 -3.02861 0
M  V30 5697 C 535.011 4.34027 -3.10574 0
M  V30 5698 O 535.234 5.24009 -2.25323 0
M  V30 5699 O 534.168 4.46873 -4.03223 0
M  V30 5700 H 537.994 1.45788 -2.6642 0
M  V30 5701 H 535.579 0.658838 -1.34088 0
M  V30 5702 H 537.461 3.77765 -1.86738 0
M  V30 5703 H 536.136 3.11791 -0.869947 0
M  V30 5704 H 535.043 2.22419 -3.008 0
M  V30 5705 H 536.376 2.94216 -3.94586 0
M  V30 5706 N 538.028 1.39524 0.732853 0
M  V30 5707 C 538.938 1.40695 1.87729 0
M  V30 5708 C 539.954 0.301496 1.71368 0
M  V30 5709 O 541.13 0.543313 1.93933 0
M  V30 5710 C 538.195 1.25098 3.23344 0
M  V30 5711 C 537.256 2.45634 3.52083 0
M  V30 5712 C 536.489 2.30772 4.81228 0
M  V30 5713 O 536.712 1.31233 5.55098 0
M  V30 5714 O 535.646 3.19799 5.09914 0
M  V30 5715 H 539.472 2.37168 1.89697 0
M  V30 5716 H 537.057 1.20663 0.880959 0
M  V30 5717 H 538.939 1.18541 4.04383 0
M  V30 5718 H 537.614 0.317209 3.22142 0
M  V30 5719 H 536.521 2.57767 2.71122 0
M  V30 5720 H 537.854 3.37712 3.58066 0
M  V30 5721 N 539.506 -0.963266 1.24736 0
M  V30 5722 C 540.783 -1.68248 0.9976 0
M  V30 5723 C 541.163 -2.05599 -0.478776 0
M  V30 5724 O 540.511 -1.7626 -1.45412 0
M  V30 5725 C 540.721 -2.91118 1.92487 0
M  V30 5726 C 542.069 -3.63261 2.19833 0
M  V30 5727 O 543.093 -3.01184 1.90176 0
M  V30 5728 O 541.952 -4.75019 2.7022 0
M  V30 5729 H 539.046 -0.735744 0.377637 0
M  V30 5730 H 541.592 -1.01696 1.35853 0
M  V30 5731 H 540.364 -2.60242 2.92215 0
M  V30 5732 H 539.987 -3.65402 1.56738 0
M  V30 5733 N 540.985 -1.06182 -1.16461 0
M  V30 5734 C 542.262 -0.691364 -1.82974 0
M  V30 5735 C 542.642 0.827377 -1.9421 0
M  V30 5736 O 541.99 1.73723 -1.48434 0
M  V30 5737 C 542.2 -1.39199 -3.20038 0
M  V30 5738 C 543.548 -1.53647 -3.95825 0
M  V30 5739 O 544.572 -1.35181 -3.29552 0
M  V30 5740 O 543.431 -1.83932 -5.14618 0
M  V30 5741 H 540.525 -0.244605 -0.789998 0
M  V30 5742 H 543.071 -1.16203 -1.23673 0
M  V30 5743 H 541.843 -2.42766 -3.06888 0
M  V30 5744 H 541.466 -0.911335 -3.87015 0
M  V30 5745 N 542.463 1.3308 -0.844243 0
M  V30 5746 C 543.74 1.92178 -0.364261 0
M  V30 5747 C 544.12 1.76961 1.15101 0
M  V30 5748 O 543.468 1.16128 1.9679 0
M  V30 5749 C 543.678 3.393 -0.817106 0
M  V30 5750 C 545.026 4.16444 -0.828236 0
M  V30 5751 O 546.05 3.47975 -0.761062 0
M  V30 5752 O 544.909 5.38685 -0.920926 0
M  V30 5753 H 542.003 0.820411 -0.10419 0
M  V30 5754 H 544.549 1.41918 -0.930453 0
M  V30 5755 H 543.321 3.44272 -1.85991 0
M  V30 5756 H 542.944 3.96947 -0.227785 0
M  V30 5757 N 543.941 0.601185 1.45683 0
M  V30 5758 C 545.189 0.0936957 2.01883 0
M  V30 5759 C 545.51 -1.2779 1.47291 0
M  V30 5760 O 544.78 -1.84279 0.664691 0
M  V30 5761 H 543.36 0.0316466 0.746329 0
M  V30 5762 H 546.022 0.781137 1.78562 0
M  V30 5763 H 545.118 0.0386297 3.12076 0
M  V30 5764 N 545.419 -1.53889 0.339982 0
M  V30 5765 C 546.349 -2.27843 -0.510856 0
M  V30 5766 C 547.33 -1.29267 -1.10563 0
M  V30 5767 O 548.515 -1.58104 -1.12768 0
M  V30 5768 C 545.645 -3.04857 -1.66372 0
M  V30 5769 C 544.599 -4.10907 -1.19746 0
M  V30 5770 C 543.925 -4.75855 -2.43857 0
M  V30 5771 C 545.225 -5.21435 -0.300501 0
M  V30 5772 H 546.919 -2.99212 0.106067 0
M  V30 5773 H 544.465 -1.43904 0.0524533 0
M  V30 5774 H 546.418 -3.5533 -2.26537 0
M  V30 5775 H 545.142 -2.31133 -2.30749 0
M  V30 5776 H 543.801 -3.61342 -0.618654 0
M  V30 5777 H 543.449 -3.9873 -3.06633 0
M  V30 5778 H 543.149 -5.47502 -2.13343 0
M  V30 5779 H 544.673 -5.2911 -3.04754 0
M  V30 5780 H 546.087 -5.67565 -0.80889 0
M  V30 5781 H 544.484 -6.00036 -0.0874076 0
M  V30 5782 H 545.554 -4.80328 0.664321 0
M  V30 5783 N 546.897 -0.0685191 -1.57451 0
M  V30 5784 C 548.308 0.464634 -1.80826 0
M  V30 5785 C 548.659 1.69847 -0.982169 0
M  V30 5786 O 547.784 2.15439 -0.203734 0
M  V30 5787 C 548.379 0.849721 -3.27971 0
M  V30 5788 C 546.938 1.32776 -3.52204 0
M  V30 5789 C 546.085 0.311332 -2.75547 0
M  V30 5790 H 549.036 -0.294248 -1.55948 0
M  V30 5791 H 549.057 1.71138 -3.39841 0
M  V30 5792 H 548.569 -0.0484736 -3.8807 0
M  V30 5793 H 546.67 2.24456 -2.97406 0
M  V30 5794 H 546.783 1.30794 -4.60901 0
M  V30 5795 H 545.147 0.787915 -2.42206 0
M  V30 5796 H 545.93 -0.579078 -3.38381 0
M  V30 5797 N 548.375 1.56261 0.205012 0
M  V30 5798 C 549.322 1.93754 1.25411 0
M  V30 5799 C 550.292 0.796826 1.45739 0
M  V30 5800 O 551.477 1.05414 1.59036 0
M  V30 5801 C 548.617 2.27383 2.59598 0
M  V30 5802 C 547.73 3.5447 2.46931 0
M  V30 5803 C 546.865 3.77468 3.73753 0
M  V30 5804 C 545.904 4.98014 3.55877 0
M  V30 5805 N 545.041 5.17316 4.74688 0
M  V30 5806 H 549.881 2.83203 0.92737 0
M  V30 5807 H 547.418 1.40158 0.446574 0
M  V30 5808 H 549.376 2.44895 3.37761 0
M  V30 5809 H 548.006 1.41088 2.90335 0
M  V30 5810 H 547.058 3.45061 1.60116 0
M  V30 5811 H 548.37 4.42789 2.29651 0
M  V30 5812 H 547.524 3.95165 4.60358 0
M  V30 5813 H 546.263 2.87461 3.93976 0
M  V30 5814 H 545.268 4.80249 2.67657 0
M  V30 5815 H 546.493 5.8952 3.37109 0
M  V30 5816 H 544.439 4.30255 4.95194 0
M  V30 5817 H 544.356 5.99796 4.60197 0
M  V30 5818 H 545.624 5.39463 5.62672 0
M  V30 5819 N 549.853 -0.472356 1.50355 0
M  V30 5820 C 550.8 -1.57051 1.69126 0
M  V30 5821 C 551.77 -1.5733 0.532574 0
M  V30 5822 O 552.955 -1.7488 0.762994 0
M  V30 5823 C 550.095 -2.95033 1.79024 0
M  V30 5824 C 549.208 -3.04552 3.06386 0
M  V30 5825 C 548.343 -4.33441 3.07087 0
M  V30 5826 C 547.382 -4.36697 4.28908 0
M  V30 5827 N 546.519 -5.57056 4.27356 0
M  V30 5828 H 551.359 -1.40351 2.62879 0
M  V30 5829 H 548.896 -0.682403 1.30314 0
M  V30 5830 H 550.854 -3.75048 1.82744 0
M  V30 5831 H 549.484 -3.10371 0.887109 0
M  V30 5832 H 548.536 -2.17419 3.12143 0
M  V30 5833 H 549.848 -3.02818 3.96362 0
M  V30 5834 H 549.002 -5.21801 3.09529 0
M  V30 5835 H 547.741 -4.37782 2.14939 0
M  V30 5836 H 546.746 -3.46734 4.2668 0
M  V30 5837 H 547.971 -4.34049 5.22282 0
M  V30 5838 H 545.917 -5.62184 3.3806 0
M  V30 5839 H 545.834 -5.57058 5.111 0
M  V30 5840 H 547.102 -6.47545 4.33942 0
M  V30 5841 N 551.331 -1.39911 -0.725443 0
M  V30 5842 C 552.278 -1.39393 -1.83952 0
M  V30 5843 C 553.248 -0.252249 -1.64173 0
M  V30 5844 O 554.433 -0.44882 -1.85446 0
M  V30 5845 C 551.573 -1.25262 -3.21564 0
M  V30 5846 C 550.686 -2.49054 -3.52982 0
M  V30 5847 C 549.821 -2.27439 -4.80047 0
M  V30 5848 C 548.86 -3.46857 -5.04338 0
M  V30 5849 N 547.997 -3.24499 -6.22611 0
M  V30 5850 H 552.837 -2.34622 -1.83729 0
M  V30 5851 H 550.374 -1.16537 -0.897636 0
M  V30 5852 H 552.332 -1.15077 -4.01015 0
M  V30 5853 H 550.962 -0.33657 -3.21041 0
M  V30 5854 H 550.014 -2.69805 -2.6816 0
M  V30 5855 H 551.326 -3.37973 -3.66846 0
M  V30 5856 H 550.48 -2.14551 -5.67497 0
M  V30 5857 H 549.219 -1.35929 -4.68374 0
M  V30 5858 H 548.224 -3.60232 -4.15346 0
M  V30 5859 H 549.449 -4.3928 -5.17889 0
M  V30 5860 H 547.395 -2.35663 -6.12208 0
M  V30 5861 H 547.312 -4.06978 -6.37106 0
M  V30 5862 H 548.58 -3.15325 -7.12875 0
M  V30 5863 N 552.809 0.956637 -1.25245 0
M  V30 5864 C 554.055 1.70413 -1.11044 0
M  V30 5865 C 554.41 1.89275 0.345377 0
M  V30 5866 O 553.703 1.45116 1.25107 0
M  V30 5867 C 553.897 3.08996 -1.79601 0
M  V30 5868 C 553.726 3.03654 -3.317 0
M  V30 5869 C 552.496 3.07521 -4.00947 0
M  V30 5870 C 554.694 2.84975 -4.28128 0
M  V30 5871 N 552.676 2.92316 -5.39838 0
M  V30 5872 C 554.047 2.7818 -5.5409 0
M  V30 5873 C 556.102 2.6964 -4.18568 0
M  V30 5874 C 554.805 2.57616 -6.71585 0
M  V30 5875 C 556.831 2.50447 -5.35752 0
M  V30 5876 C 556.193 2.4437 -6.60653 0
M  V30 5877 H 552.292 0.631642 -0.461035 0
M  V30 5878 H 554.876 1.13331 -1.58317 0
M  V30 5879 H 553.047 3.64248 -1.34826 0
M  V30 5880 H 554.779 3.72515 -1.58161 0
M  V30 5881 H 551.534 3.16635 -3.52192 0
M  V30 5882 H 551.958 2.87923 -6.12723 0
M  V30 5883 H 556.6 2.73113 -3.22752 0
M  V30 5884 H 554.318 2.52885 -7.67512 0
M  V30 5885 H 557.904 2.39509 -5.30214 0
M  V30 5886 H 556.784 2.29712 -7.49801 0
M  V30 5887 N 554.287 1.06798 1.15896 0
M  V30 5888 C 555.698 0.811355 1.68149 0
M  V30 5889 C 556.049 -0.664339 1.8461 0
M  V30 5890 O 555.174 -1.51485 1.54535 0
M  V30 5891 C 555.769 1.46624 3.05429 0
M  V30 5892 C 554.328 1.25726 3.54781 0
M  V30 5893 C 553.475 1.53949 2.3064 0
M  V30 5894 H 556.426 1.23078 1.00187 0
M  V30 5895 H 556.447 0.88437 3.7008 0
M  V30 5896 H 555.959 2.54025 2.93416 0
M  V30 5897 H 554.06 0.20322 3.72045 0
M  V30 5898 H 554.173 1.97354 4.36564 0
M  V30 5899 H 552.537 0.96025 2.35905 0
M  V30 5900 H 553.32 2.6252 2.2122 0
M  V30 5901 N 555.766 -1.3263 0.851289 0
M  V30 5902 C 556.994 -2.01563 0.466899 0
M  V30 5903 C 557.409 -1.63996 -0.935447 0
M  V30 5904 O 556.766 -0.85957 -1.6099 0
M  V30 5905 C 556.817 -3.56613 0.592433 0
M  V30 5906 O 556.538 -3.92828 1.93954 0
M  V30 5907 C 558.039 -4.42818 0.206612 0
M  V30 5908 H 555.259 -0.645307 0.183902 0
M  V30 5909 H 557.803 -1.69285 1.1473 0
M  V30 5910 H 555.958 -3.87379 -0.0401936 0
M  V30 5911 H 556.372 -4.87545 1.9339 0
M  V30 5912 H 557.846 -5.50918 0.345462 0
M  V30 5913 H 558.323 -4.30844 -0.85264 0
M  V30 5914 H 558.929 -4.17434 0.814176 0
M  V30 5915 N 557.244 -0.608902 -1.45362 0
M  V30 5916 C 558.49 -0.104762 -2.02529 0
M  V30 5917 C 558.823 1.26191 -1.47613 0
M  V30 5918 O 558.098 1.8327 -0.65134 0
M  V30 5919 C 558.381 -0.0672661 -3.60037 0
M  V30 5920 C 558.234 -1.4647 -4.25284 0
M  V30 5921 C 559.553 0.619877 -4.35713 0
M  V30 5922 H 556.672 -0.0395438 -0.735938 0
M  V30 5923 H 559.314 -0.781126 -1.73201 0
M  V30 5924 H 557.464 0.50871 -3.85155 0
M  V30 5925 H 559.136 -2.08785 -4.11347 0
M  V30 5926 H 557.379 -2.02502 -3.83634 0
M  V30 5927 H 558.05 -1.39069 -5.34195 0
M  V30 5928 H 560.526 0.130297 -4.15896 0
M  V30 5929 H 559.402 0.615224 -5.45441 0
M  V30 5930 H 559.663 1.68621 -4.0868 0
M  V30 5931 N 558.722 1.53707 -0.348139 0
M  V30 5932 C 559.999 1.93247 0.302475 0
M  V30 5933 C 560.379 1.28012 1.67857 0
M  V30 5934 O 559.727 0.43274 2.24365 0
M  V30 5935 C 559.937 3.47031 0.370159 0
M  V30 5936 C 561.285 4.20066 0.61882 0
M  V30 5937 O 562.309 3.53319 0.452087 0
M  V30 5938 O 561.168 5.38318 0.94215 0
M  V30 5939 H 558.262 0.807736 0.177458 0
M  V30 5940 H 560.808 1.64927 -0.399651 0
M  V30 5941 H 559.58 3.86745 -0.59534 0
M  V30 5942 H 559.203 3.81532 1.11888 0
M  V30 5943 N 560.2 0.0768682 1.57412 0
M  V30 5944 C 561.163 -0.873949 2.11884 0
M  V30 5945 C 562.163 -1.22301 1.04398 0
M  V30 5946 O 563.353 -1.15545 1.30365 0
M  V30 5947 C 560.485 -2.17575 2.62438 0
M  V30 5948 H 561.678 -0.401278 2.97203 0
M  V30 5949 H 559.231 -0.171904 1.55352 0
M  V30 5950 H 559.966 -2.69368 1.80587 0
M  V30 5951 H 559.751 -1.93534 3.41009 0
M  V30 5952 H 561.241 -2.85631 3.04639 0
M  V30 5953 N 561.678 -1.56367 -0.196722 0
M  V30 5954 C 562.903 -1.84991 -0.937714 0
M  V30 5955 C 563.328 -0.660244 -1.76132 0
M  V30 5956 O 562.686 0.390967 -1.77034 0
M  V30 5957 C 562.734 -3.11828 -1.81096 0
M  V30 5958 O 561.838 -2.92266 -2.90955 0
M  V30 5959 H 561.179 -0.609193 -0.264159 0
M  V30 5960 H 563.709 -2.03595 -0.202529 0
M  V30 5961 H 563.719 -3.42579 -2.21594 0
M  V30 5962 H 562.394 -3.98037 -1.2058 0
M  V30 5963 H 560.971 -2.72809 -2.54224 0
M  V30 5964 N 563.156 0.464375 -1.50603 0
M  V30 5965 C 564.386 1.23727 -1.65454 0
M  V30 5966 C 564.794 1.86119 -0.340032 0
M  V30 5967 O 564.137 1.70301 0.688706 0
M  V30 5968 C 564.199 2.38153 -2.69301 0
M  V30 5969 C 563.863 1.96345 -4.12671 0
M  V30 5970 C 564.86 1.48215 -4.98326 0
M  V30 5971 C 562.545 2.04861 -4.58625 0
M  V30 5972 C 564.539 1.09152 -6.27985 0
M  V30 5973 C 562.226 1.65409 -5.88288 0
M  V30 5974 C 563.224 1.17634 -6.72794 0
M  V30 5975 O 562.912 0.787312 -8.00035 0
M  V30 5976 H 562.644 0.380075 -0.559034 0
M  V30 5977 H 565.198 0.559919 -1.97621 0
M  V30 5978 H 563.428 3.09081 -2.32392 0
M  V30 5979 H 565.117 3.00099 -2.73304 0
M  V30 5980 H 565.883 1.41052 -4.64036 0
M  V30 5981 H 561.762 2.40996 -3.92991 0
M  V30 5982 H 565.306 0.717909 -6.93896 0
M  V30 5983 H 561.203 1.72233 -6.22098 0
M  V30 5984 H 561.971 0.915567 -8.13363 0
M  V30 5985 N 564.634 1.40294 0.718013 0
M  V30 5986 C 565.864 1.41544 1.50495 0
M  V30 5987 C 566.272 0.0127877 1.89196 0
M  V30 5988 O 565.615 -0.97305 1.55812 0
M  V30 5989 C 565.677 2.24021 2.81167 0
M  V30 5990 C 565.341 3.72463 2.64803 0
M  V30 5991 C 566.338 4.65154 2.32223 0
M  V30 5992 C 564.023 4.1625 2.81143 0
M  V30 5993 C 566.017 5.99618 2.16189 0
M  V30 5994 C 563.704 5.50784 2.64727 0
M  V30 5995 C 564.702 6.42283 2.32297 0
M  V30 5996 O 564.39 7.74337 2.16004 0
M  V30 5997 H 564.122 0.484819 0.471091 0
M  V30 5998 H 566.676 1.84948 0.893488 0
M  V30 5999 H 564.906 1.75393 3.44636 0
M  V30 6000 H 566.595 2.17243 3.42871 0
M  V30 6001 H 567.361 4.32622 2.19234 0
M  V30 6002 H 563.24 3.45352 3.05373 0
M  V30 6003 H 566.784 6.71 1.90799 0
M  V30 6004 H 562.681 5.82902 2.773 0
M  V30 6005 H 563.449 7.85244 2.30942 0
M  V30 6006 N 566.112 -0.949982 1.2575 0
M  V30 6007 C 567.36 -1.6918 1.10555 0
M  V30 6008 C 567.681 -1.91773 -0.353298 0
M  V30 6009 O 566.951 -1.50814 -1.25027 0
M  V30 6010 H 565.531 -0.626952 0.406129 0
M  V30 6011 H 568.193 -1.1419 1.57945 0
M  V30 6012 H 567.289 -2.66915 1.61749 0
M  V30 6013 N 567.59 -1.07411 -1.15328 0
M  V30 6014 C 568.838 -0.796073 -1.85761 0
M  V30 6015 C 569.159 0.679864 -1.82764 0
M  V30 6016 O 568.429 1.49242 -1.269 0
M  V30 6017 H 567.009 -0.291495 -0.687779 0
M  V30 6018 H 569.671 -1.35799 -1.39802 0
M  V30 6019 H 568.767 -1.13114 -2.90881 0
M  V30 6020 N 569.068 1.32177 -0.85831 0
M  V30 6021 C 570.484 1.49873 -0.548656 0
M  V30 6022 C 570.684 1.79278 0.919874 0
M  V30 6023 O 569.74 1.86451 1.70271 0
M  V30 6024 C 571.053 2.64043 -1.4388 0
M  V30 6025 C 572.601 2.77928 -1.43961 0
M  V30 6026 C 573.076 3.95182 -2.31506 0
M  V30 6027 N 574.567 4.0245 -2.29321 0
M  V30 6028 C 575.302 4.9242 -2.93786 0
M  V30 6029 N 574.798 5.87373 -3.67376 0
M  V30 6030 N 576.591 4.85572 -2.83155 0
M  V30 6031 H 568.742 1.11357 -1.80868 0
M  V30 6032 H 571.005 0.549175 -0.772729 0
M  V30 6033 H 570.711 2.49055 -2.48324 0
M  V30 6034 H 570.585 3.59912 -1.12885 0
M  V30 6035 H 572.972 2.92338 -0.402813 0
M  V30 6036 H 573.053 1.82762 -1.78974 0
M  V30 6037 H 572.697 3.81531 -3.35256 0
M  V30 6038 H 572.627 4.89633 -1.93823 0
M  V30 6039 H 575.118 3.34507 -1.75822 0
M  V30 6040 H 575.431 6.52728 -4.13722 0
M  V30 6041 H 573.776 5.87388 -3.71484 0
M  V30 6042 H 576.967 4.10363 -2.25211 0
M  V30 6043 H 577.14 5.55486 -3.33676 0
M  V30 6044 N 570.547 0.616602 1.45037 0
M  V30 6045 C 571.795 0.115103 2.01772 0
M  V30 6046 C 572.116 -1.2622 1.48639 0
M  V30 6047 O 571.386 -1.83563 0.684199 0
M  V30 6048 H 569.966 0.0395607 0.745952 0
M  V30 6049 H 572.628 0.800032 1.77723 0
M  V30 6050 H 571.724 0.0717274 3.12018 0
M  V30 6051 N 572.025 -1.5352 0.356285 0
M  V30 6052 C 573.271 -2.01414 -0.236653 0
M  V30 6053 C 573.604 -1.24339 -1.49176 0
M  V30 6054 O 572.879 -0.334496 -1.91602 0
M  V30 6055 C 573.162 -3.56059 -0.537982 0
M  V30 6056 C 573.015 -4.43835 0.730112 0
M  V30 6057 C 574.334 -4.19127 -1.34239 0
M  V30 6058 H 571.453 -0.732135 -0.0845386 0
M  V30 6059 H 574.095 -1.83854 0.479341 0
M  V30 6060 H 572.245 -3.71153 -1.14795 0
M  V30 6061 H 573.917 -4.40555 1.36782 0
M  V30 6062 H 572.16 -4.1218 1.3524 0
M  V30 6063 H 572.831 -5.49958 0.474358 0
M  V30 6064 H 575.307 -4.07809 -0.826498 0
M  V30 6065 H 574.183 -5.27378 -1.52198 0
M  V30 6066 H 574.444 -3.74581 -2.34822 0
M  V30 6067 N 573.503 -0.0852151 -1.57369 0
M  V30 6068 C 574.751 0.579658 -1.93609 0
M  V30 6069 C 575.072 1.69332 -0.967043 0
M  V30 6070 O 574.342 1.95892 -0.0174215 0
M  V30 6071 H 572.922 0.217113 -0.714752 0
M  V30 6072 H 575.584 -0.146226 -1.94351 0
M  V30 6073 H 574.68 0.996276 -2.95771 0
M  V30 6074 N 574.981 1.5647 0.188427 0
M  V30 6075 C 576.229 1.80655 0.905986 0
M  V30 6076 C 576.55 0.659391 1.83513 0
M  V30 6077 O 575.82 -0.321868 1.93238 0
M  V30 6078 H 574.4 0.666391 0.337538 0
M  V30 6079 H 577.062 1.93949 0.192339 0
M  V30 6080 H 576.158 2.74066 1.49313 0
M  V30 6081 N 576.459 -0.456382 1.50847 0
M  V30 6082 C 577.708 -1.2042 1.61808 0
M  V30 6083 C 578.021 -1.9278 0.330932 0
M  V30 6084 O 579.227 -2.69612 0.319643 0
M  V30 6085 C 577.683 -2.18891 2.85683 0
M  V30 6086 C 577.291 -1.52267 4.2133 0
M  V30 6087 C 579.035 -2.94224 3.05994 0
M  V30 6088 C 576.942 -2.4911 5.36375 0
M  V30 6089 H 575.872 -0.453177 0.602616 0
M  V30 6090 H 578.523 -0.473144 1.77295 0
M  V30 6091 H 576.905 -2.95351 2.63787 0
M  V30 6092 H 578.079 -0.814949 4.53536 0
M  V30 6093 H 576.394 -0.891594 4.06743 0
M  V30 6094 H 578.991 -3.66732 3.89117 0
M  V30 6095 H 579.334 -3.54469 2.18306 0
M  V30 6096 H 579.867 -2.24874 3.28141 0
M  V30 6097 H 576.606 -1.93582 6.26264 0
M  V30 6098 H 576.126 -3.17991 5.08569 0
M  V30 6099 H 577.805 -3.10637 5.67551 0
M  V30 6100 N 577.937 -1.40673 -0.710563 0
M  V30 6101 C 578.884 -1.41336 -1.82463 0
M  V30 6102 C 579.854 -0.269648 -1.63897 0
M  V30 6103 O 581.039 -0.468463 -1.8496 0
M  V30 6104 C 578.179 -1.28665 -3.20218 0
M  V30 6105 C 577.292 -2.52784 -3.5032 0
M  V30 6106 C 576.427 -2.32517 -4.77608 0
M  V30 6107 C 575.466 -3.52187 -5.0063 0
M  V30 6108 N 574.603 -3.31084 -6.19135 0
M  V30 6109 H 579.443 -2.36558 -1.8123 0
M  V30 6110 H 576.98 -1.17483 -0.885226 0
M  V30 6111 H 578.938 -1.19324 -3.99772 0
M  V30 6112 H 577.568 -0.370602 -3.20666 0
M  V30 6113 H 576.62 -2.72634 -2.65283 0
M  V30 6114 H 577.932 -3.41845 -3.63241 0
M  V30 6115 H 577.086 -2.20558 -5.65189 0
M  V30 6116 H 575.825 -1.40889 -4.66906 0
M  V30 6117 H 574.83 -3.64617 -4.11502 0
M  V30 6118 H 576.055 -4.44749 -5.13201 0
M  V30 6119 H 574.001 -2.42143 -6.09674 0
M  V30 6120 H 573.918 -4.13713 -6.32754 0
M  V30 6121 H 575.186 -3.22868 -7.0949 0
M  V30 6122 N 579.415 0.9433 -1.26252 0
M  V30 6123 C 580.831 1.21644 -1.03319 0
M  V30 6124 C 581.031 2.0003 0.242983 0
M  V30 6125 O 580.087 2.33838 0.952688 0
M  V30 6126 C 581.4 1.97978 -2.2633 0
M  V30 6127 C 582.948 2.10978 -2.31209 0
M  V30 6128 C 583.423 2.90713 -3.53907 0
M  V30 6129 N 584.914 2.98287 -3.54371 0
M  V30 6130 C 585.649 3.60406 -4.45976 0
M  V30 6131 N 585.145 4.24043 -5.47868 0
M  V30 6132 N 586.938 3.57658 -4.33633 0
M  V30 6133 H 579.089 0.419221 -2.08222 0
M  V30 6134 H 581.352 0.247995 -0.914988 0
M  V30 6135 H 581.058 1.47788 -3.19142 0
M  V30 6136 H 580.932 2.9865 -2.30408 0
M  V30 6137 H 583.319 2.6036 -1.38913 0
M  V30 6138 H 583.4 1.09575 -2.31143 0
M  V30 6139 H 583.044 2.42018 -4.46531 0
M  V30 6140 H 582.974 3.92367 -3.5122 0
M  V30 6141 H 585.465 2.53044 -2.80673 0
M  V30 6142 H 585.778 4.69334 -6.13959 0
M  V30 6143 H 584.123 4.22637 -5.51728 0
M  V30 6144 H 587.314 3.07134 -3.53251 0
M  V30 6145 H 587.487 4.05782 -5.05218 0
M  V30 6146 N 580.893 1.08022 1.14757 0
M  V30 6147 C 581.826 0.650738 2.18725 0
M  V30 6148 C 582.804 -0.335496 1.59101 0
M  V30 6149 O 583.988 -0.240295 1.86962 0
M  V30 6150 C 581.115 -0.0434377 3.38672 0
M  V30 6151 C 580.161 0.90232 4.16846 0
M  V30 6152 S 580.994 2.40693 4.78359 0
M  V30 6153 C 582.15 1.72475 6.01667 0
M  V30 6154 H 582.383 1.53152 2.54817 0
M  V30 6155 H 579.916 0.894823 1.25826 0
M  V30 6156 H 581.874 -0.437684 4.0816 0
M  V30 6157 H 580.535 -0.900659 3.0091 0
M  V30 6158 H 579.728 0.363445 5.02688 0
M  V30 6159 H 579.33 1.23728 3.52941 0
M  V30 6160 H 581.622 1.0404 6.69464 0
M  V30 6161 H 582.565 2.56175 6.60136 0
M  V30 6162 H 582.973 1.19979 5.51602 0
M  V30 6163 N 582.371 -1.3172 0.865308 0
M  V30 6164 C 583.281 -2.32394 0.320935 0
M  V30 6165 C 584.297 -1.64511 -0.566746 0
M  V30 6166 O 585.473 -1.95969 -0.464575 0
M  V30 6167 C 582.538 -3.43462 -0.472701 0
M  V30 6168 C 581.599 -4.27015 0.442385 0
M  V30 6169 C 580.832 -5.32779 -0.313469 0
M  V30 6170 O 581.055 -5.49158 -1.54214 0
M  V30 6171 O 579.989 -6.01015 0.326257 0
M  V30 6172 H 583.815 -2.80868 1.15528 0
M  V30 6173 H 581.4 -1.35535 0.628545 0
M  V30 6174 H 583.282 -4.11172 -0.922781 0
M  V30 6175 H 581.957 -2.97159 -1.28367 0
M  V30 6176 H 580.864 -3.62075 0.940866 0
M  V30 6177 H 582.197 -4.76871 1.21882 0
M  V30 6178 N 583.85 -0.624285 -1.44708 0
M  V30 6179 C 585.096 -0.126237 -2.02407 0
M  V30 6180 C 585.428 1.24618 -1.48943 0
M  V30 6181 O 584.704 1.82569 -0.670742 0
M  V30 6182 C 584.986 -0.105449 -3.59946 0
M  V30 6183 C 584.84 -1.50972 -4.23707 0
M  V30 6184 C 586.159 0.573629 -4.36346 0
M  V30 6185 H 583.278 -0.0473472 -0.735478 0
M  V30 6186 H 585.92 -0.799452 -1.72362 0
M  V30 6187 H 584.07 0.46783 -3.85673 0
M  V30 6188 H 585.742 -2.13136 -4.0911 0
M  V30 6189 H 583.985 -2.0656 -3.81465 0
M  V30 6190 H 584.656 -1.44727 -5.32689 0
M  V30 6191 H 587.132 0.0861787 -4.16011 0
M  V30 6192 H 586.008 0.557338 -5.46063 0
M  V30 6193 H 586.269 1.64276 -4.10446 0
M  V30 6194 N 585.328 1.53329 -0.364422 0
M  V30 6195 C 586.744 1.59594 -0.0133165 0
M  V30 6196 C 586.944 1.37959 1.46865 0
M  V30 6197 O 586 1.18418 2.2301 0
M  V30 6198 C 587.313 2.97032 -0.468213 0
M  V30 6199 C 588.861 3.10138 -0.422334 0
M  V30 6200 C 589.336 4.49986 -0.853024 0
M  V30 6201 N 590.827 4.56098 -0.808037 0
M  V30 6202 C 591.562 5.62495 -1.11299 0
M  V30 6203 N 591.058 6.7665 -1.48717 0
M  V30 6204 N 592.851 5.52473 -1.03586 0
M  V30 6205 H 585.002 1.65644 -1.32951 0
M  V30 6206 H 587.265 0.77684 -0.543345 0
M  V30 6207 H 586.971 3.18 -1.5023 0
M  V30 6208 H 586.845 3.76918 0.145775 0
M  V30 6209 H 589.232 2.88881 0.602622 0
M  V30 6210 H 589.313 2.32263 -1.0718 0
M  V30 6211 H 588.957 4.7198 -1.87609 0
M  V30 6212 H 588.887 5.26289 -0.180819 0
M  V30 6213 H 591.378 3.74131 -0.532361 0
M  V30 6214 H 591.691 7.53776 -1.70415 0
M  V30 6215 H 590.036 6.78044 -1.52581 0
M  V30 6216 H 593.227 4.6217 -0.742736 0
M  V30 6217 H 593.4 6.35295 -1.27686 0
M  V30 6218 N 586.806 0.0935595 1.57322 0
M  V30 6219 C 588.052 -0.565234 1.95388 0
M  V30 6220 C 588.407 -1.65888 0.974632 0
M  V30 6221 O 587.7 -1.916 0.000376385 0
M  V30 6222 C 587.894 -1.16692 3.37813 0
M  V30 6223 C 587.723 -0.133091 4.49503 0
M  V30 6224 C 586.493 0.289884 5.04468 0
M  V30 6225 C 588.691 0.638141 5.10326 0
M  V30 6226 N 586.673 1.31214 5.99713 0
M  V30 6227 C 588.044 1.51227 6.01274 0
M  V30 6228 C 590.099 0.691827 4.9307 0
M  V30 6229 C 588.802 2.43536 6.76818 0
M  V30 6230 C 590.828 1.60251 5.69274 0
M  V30 6231 C 590.19 2.46427 6.59889 0
M  V30 6232 H 586.289 -0.177212 0.761656 0
M  V30 6233 H 588.873 0.175769 1.93905 0
M  V30 6234 H 587.044 -1.87775 3.39993 0
M  V30 6235 H 588.776 -1.78795 3.63063 0
M  V30 6236 H 585.531 -0.0975541 4.735 0
M  V30 6237 H 585.955 1.82143 6.52038 0
M  V30 6238 H 590.597 0.0397431 4.22781 0
M  V30 6239 H 588.315 3.0977 7.4637 0
M  V30 6240 H 591.901 1.64917 5.57937 0
M  V30 6241 H 590.781 3.15751 7.17824 0
M  V30 6242 N 588.284 -1.56567 -0.180126 0
M  V30 6243 C 589.532 -1.81133 -0.896392 0
M  V30 6244 C 589.853 -0.669114 -1.83161 0
M  V30 6245 O 589.123 0.311616 -1.93406 0
M  V30 6246 H 587.703 -0.668172 -0.333999 0
M  V30 6247 H 590.365 -1.94048 -0.182051 0
M  V30 6248 H 589.461 -2.74854 -1.47857 0
M  V30 6249 N 589.762 0.448376 -1.51087 0
M  V30 6250 C 590.672 1.56882 -1.74428 0
M  V30 6251 C 591.688 1.62268 -0.62809 0
M  V30 6252 O 592.864 1.79716 -0.909075 0
M  V30 6253 C 589.929 2.92947 -1.85426 0
M  V30 6254 C 588.99 2.97766 -3.09247 0
M  V30 6255 C 588.223 4.27341 -3.19711 0
M  V30 6256 O 588.446 5.19112 -2.36387 0
M  V30 6257 O 587.38 4.38219 -4.12611 0
M  V30 6258 H 591.206 1.40104 -2.69452 0
M  V30 6259 H 588.791 0.630247 -1.35456 0
M  V30 6260 H 590.673 3.73719 -1.94709 0
M  V30 6261 H 589.348 3.09876 -0.935887 0
M  V30 6262 H 588.255 2.15989 -3.0545 0
M  V30 6263 H 589.588 2.8578 -4.00738 0
M  V30 6264 N 591.24 1.41047 0.703093 0
M  V30 6265 C 592.187 1.42302 1.81711 0
M  V30 6266 C 593.157 0.278336 1.63751 0
M  V30 6267 O 594.342 0.478266 1.84709 0
M  V30 6268 C 591.482 1.30362 3.19531 0
M  V30 6269 C 590.595 2.54638 3.48975 0
M  V30 6270 C 589.73 2.35047 4.76368 0
M  V30 6271 C 588.769 3.54837 4.98756 0
M  V30 6272 N 587.906 3.34363 6.1737 0
M  V30 6273 H 592.746 2.37516 1.79973 0
M  V30 6274 H 590.283 1.1795 0.878983 0
M  V30 6275 H 592.241 1.21443 3.99134 0
M  V30 6276 H 590.871 0.387602 3.20464 0
M  V30 6277 H 589.923 2.74037 2.63833 0
M  V30 6278 H 591.235 3.43766 3.61423 0
M  V30 6279 H 590.389 2.23552 5.64012 0
M  V30 6280 H 589.128 1.43363 4.66153 0
M  V30 6281 H 588.133 3.66795 4.09563 0
M  V30 6282 H 589.358 4.47464 5.10835 0
M  V30 6283 H 587.304 2.45373 6.08382 0
M  V30 6284 H 587.221 4.17063 6.30551 0
M  V30 6285 H 588.489 3.26626 7.07768 0
M  V30 6286 N 592.718 -0.936591 1.26751 0
M  V30 6287 C 593.966 -1.67998 1.12343 0
M  V30 6288 C 594.287 -1.92137 -0.332938 0
M  V30 6289 O 593.557 -1.52132 -1.23421 0
M  V30 6290 H 592.137 -0.622609 0.412756 0
M  V30 6291 H 594.799 -1.12509 1.59147 0
M  V30 6292 H 593.895 -2.65185 1.64571 0
M  V30 6293 N 594.196 -1.08629 -1.14182 0
M  V30 6294 C 595.421 -0.83902 -1.89671 0
M  V30 6295 C 595.846 0.603332 -1.78161 0
M  V30 6296 O 595.204 1.42301 -1.12339 0
M  V30 6297 C 595.252 -1.26854 -3.37551 0
M  V30 6298 O 594.356 -0.42188 -4.10236 0
M  V30 6299 H 593.697 -0.304545 -0.590041 0
M  V30 6300 H 596.227 -1.4483 -1.44518 0
M  V30 6301 H 596.237 -1.25038 -3.88368 0
M  V30 6302 H 594.912 -2.31901 -3.45246 0
M  V30 6303 H 593.489 -0.503654 -3.69483 0
M  V30 6304 N 595.674 1.31259 -0.872281 0
M  V30 6305 C 596.902 2.00795 -0.498907 0
M  V30 6306 C 597.317 1.65464 0.909238 0
M  V30 6307 O 596.674 0.885073 1.59602 0
M  V30 6308 C 596.725 3.55625 -0.649092 0
M  V30 6309 O 596.446 3.89692 -2.00179 0
M  V30 6310 C 597.947 4.42434 -0.277034 0
M  V30 6311 H 595.167 0.642299 -0.194145 0
M  V30 6312 H 597.711 1.67438 -1.17408 0
M  V30 6313 H 595.866 3.87394 -0.0214402 0
M  V30 6314 H 596.28 4.84407 -2.01122 0
M  V30 6315 H 597.754 5.50299 -0.433064 0
M  V30 6316 H 598.231 4.32146 0.783989 0
M  V30 6317 H 598.837 4.16086 -0.880483 0
M  V30 6318 N 597.152 0.631951 1.44375 0
M  V30 6319 C 598.062 -0.073674 2.34484 0
M  V30 6320 C 599.078 -0.834825 1.52665 0
M  V30 6321 O 600.254 -0.786902 1.85391 0
M  V30 6322 C 597.319 -1.04247 3.30656 0
M  V30 6323 C 596.38 -0.280602 4.28382 0
M  V30 6324 C 595.613 -1.20325 5.19959 0
M  V30 6325 O 595.836 -2.44199 5.15484 0
M  V30 6326 O 594.77 -0.687128 5.97965 0
M  V30 6327 H 598.596 0.667477 2.96274 0
M  V30 6328 H 596.181 0.392144 1.44162 0
M  V30 6329 H 598.063 -1.59981 3.89851 0
M  V30 6330 H 596.738 -1.76422 2.71398 0
M  V30 6331 H 595.645 0.319804 3.72731 0
M  V30 6332 H 596.978 0.401144 4.90563 0
M  V30 6333 N 598.631 -1.53133 0.372548 0
M  V30 6334 C 599.541 -2.29671 -0.478379 0
M  V30 6335 C 600.557 -1.35913 -1.08644 0
M  V30 6336 O 601.733 -1.68975 -1.09588 0
M  V30 6337 C 598.798 -3.07625 -1.599 0
M  V30 6338 C 597.859 -4.17061 -1.01776 0
M  V30 6339 C 597.092 -4.91289 -2.08497 0
M  V30 6340 O 597.315 -4.65442 -3.29727 0
M  V30 6341 O 596.249 -5.7705 -1.71164 0
M  V30 6342 H 600.075 -3.03355 0.144649 0
M  V30 6343 H 597.66 -1.48773 0.136729 0
M  V30 6344 H 599.542 -3.56281 -2.25038 0
M  V30 6345 H 598.217 -2.3677 -2.2073 0
M  V30 6346 H 597.124 -3.72641 -0.330098 0
M  V30 6347 H 598.457 -4.90102 -0.453915 0
M  V30 6348 N 600.109 -0.101901 -1.5727 0
M  V30 6349 C 601.357 0.559091 -1.94213 0
M  V30 6350 C 601.678 1.68297 -0.984948 0
M  V30 6351 O 600.948 1.95863 -0.0381975 0
M  V30 6352 H 599.528 0.20952 -0.717015 0
M  V30 6353 H 602.19 -0.166831 -1.94185 0
M  V30 6354 H 601.286 0.96485 -2.96811 0
M  V30 6355 N 601.587 1.56661 0.17182 0
M  V30 6356 C 602.55 1.9549 1.19651 0
M  V30 6357 C 603.55 0.838501 1.37207 0
M  V30 6358 O 604.74 1.10556 1.34622 0
M  V30 6359 C 601.872 2.24927 2.56166 0
M  V30 6360 H 603.065 2.87184 0.864007 0
M  V30 6361 H 600.618 1.50711 0.41425 0
M  V30 6362 H 601.353 1.35944 2.94431 0
M  V30 6363 H 601.138 3.06301 2.4479 0
M  V30 6364 H 602.628 2.55891 3.30014 0
M  V30 6365 N 603.065 -0.440357 1.51323 0
M  V30 6366 C 604.012 -1.53429 1.72419 0
M  V30 6367 C 604.982 -1.56165 0.565826 0
M  V30 6368 O 606.167 -1.73222 0.799917 0
M  V30 6369 C 603.307 -2.91169 1.85242 0
M  V30 6370 C 602.42 -2.97985 3.12777 0
M  V30 6371 C 601.555 -4.26829 3.16212 0
M  V30 6372 C 600.594 -4.27501 4.38074 0
M  V30 6373 N 599.731 -5.47866 4.39076 0
M  V30 6374 H 604.571 -1.34743 2.65797 0
M  V30 6375 H 602.108 -0.654608 1.31732 0
M  V30 6376 H 604.066 -3.71087 1.90658 0
M  V30 6377 H 602.696 -3.0842 0.952744 0
M  V30 6378 H 601.748 -2.10749 3.16685 0
M  V30 6379 H 603.06 -2.94342 4.02696 0
M  V30 6380 H 602.214 -5.15118 3.20527 0
M  V30 6381 H 600.953 -4.33124 2.24176 0
M  V30 6382 H 599.958 -3.37606 4.33938 0
M  V30 6383 H 601.183 -4.22873 5.31371 0
M  V30 6384 H 599.129 -5.54887 3.49909 0
M  V30 6385 H 599.046 -5.46091 5.22801 0
M  V30 6386 H 600.314 -6.38195 4.4758 0
M  V30 6387 N 604.543 -1.41418 -0.695603 0
M  V30 6388 C 605.473 -1.46035 -1.82197 0
M  V30 6389 C 606.454 -0.319025 -1.67082 0
M  V30 6390 O 607.639 -0.530462 -1.86815 0
M  V30 6391 C 604.769 -1.34179 -3.20333 0
M  V30 6392 C 603.723 -2.46123 -3.50154 0
M  V30 6393 C 603.049 -2.19332 -4.87645 0
M  V30 6394 C 604.349 -3.88463 -3.49133 0
M  V30 6395 H 606.043 -2.40303 -1.78591 0
M  V30 6396 H 603.589 -1.15663 -0.857797 0
M  V30 6397 H 605.542 -1.36021 -3.98844 0
M  V30 6398 H 604.266 -0.363952 -3.24566 0
M  V30 6399 H 602.925 -2.43563 -2.73994 0
M  V30 6400 H 602.573 -1.19891 -4.88503 0
M  V30 6401 H 602.273 -2.94344 -5.08562 0
M  V30 6402 H 603.797 -2.22889 -5.68465 0
M  V30 6403 H 605.211 -3.92738 -4.17648 0
M  V30 6404 H 603.608 -4.63158 -3.81582 0
M  V30 6405 H 604.678 -4.16617 -2.48109 0
M  V30 6406 N 606.021 0.929856 -1.27246 0
M  V30 6407 C 606.931 2.0636 -1.11592 0
M  V30 6408 C 607.947 1.73938 -0.046496 0
M  V30 6409 O 609.123 1.9981 -0.252544 0
M  V30 6410 C 606.188 3.38213 -0.762437 0
M  V30 6411 C 605.249 3.84346 -1.9125 0
M  V30 6412 C 604.482 5.09906 -1.57579 0
M  V30 6413 O 604.705 5.68354 -0.482694 0
M  V30 6414 O 603.639 5.51359 -2.41426 0
M  V30 6415 H 607.465 2.22478 -2.0673 0
M  V30 6416 H 605.05 1.04865 -1.06413 0
M  V30 6417 H 606.932 4.1741 -0.57854 0
M  V30 6418 H 605.607 3.23307 0.159439 0
M  V30 6419 H 604.514 3.06045 -2.15144 0
M  V30 6420 H 605.847 4.0379 -2.81451 0
M  V30 6421 N 607.499 1.09233 1.13605 0
M  V30 6422 C 608.446 0.729921 2.18954 0
M  V30 6423 C 609.416 -0.287916 1.63586 0
M  V30 6424 O 610.601 -0.170003 1.90041 0
M  V30 6425 C 607.741 0.154489 3.44754 0
M  V30 6426 C 606.854 1.22613 4.14234 0
M  V30 6427 C 605.989 0.613657 5.27644 0
M  V30 6428 C 605.028 1.66674 5.8897 0
M  V30 6429 N 604.165 1.07545 6.93814 0
M  V30 6430 H 609.005 1.63257 2.49302 0
M  V30 6431 H 606.542 0.815693 1.22413 0
M  V30 6432 H 608.5 -0.196923 4.16735 0
M  V30 6433 H 607.13 -0.711433 3.14863 0
M  V30 6434 H 606.182 1.69485 3.40557 0
M  V30 6435 H 607.494 2.0238 4.55899 0
M  V30 6436 H 606.648 0.210976 6.06333 0
M  V30 6437 H 605.387 -0.215584 4.87223 0
M  V30 6438 H 604.392 2.07899 5.08978 0
M  V30 6439 H 605.617 2.49861 6.31464 0
M  V30 6440 H 603.563 0.267451 6.55455 0
M  V30 6441 H 603.48 1.81011 7.3401 0
M  V30 6442 H 604.748 0.698906 7.7636 0
M  V30 6443 N 608.977 -1.30795 0.87923 0
M  V30 6444 C 609.94 -2.26563 0.346676 0
M  V30 6445 C 610.94 -1.52578 -0.507597 0
M  V30 6446 O 612.13 -1.71318 -0.315575 0
M  V30 6447 C 609.262 -3.37115 -0.506611 0
M  V30 6448 H 610.455 -2.75183 1.19223 0
M  V30 6449 H 608.008 -1.41886 0.655598 0
M  V30 6450 H 608.743 -2.93802 -1.37299 0
M  V30 6451 H 608.528 -3.91959 0.105218 0
M  V30 6452 H 610.018 -4.08412 -0.871192 0
M  V30 6453 N 610.455 -0.639598 -1.44038 0
M  V30 6454 C 611.402 0.0602458 -2.30721 0
M  V30 6455 C 612.372 0.828352 -1.43971 0
M  V30 6456 O 613.557 0.807693 -1.72861 0
M  V30 6457 C 610.697 1.03008 -3.29368 0
M  V30 6458 C 609.81 0.259502 -4.3122 0
M  V30 6459 C 608.945 1.22191 -5.16955 0
M  V30 6460 C 607.984 0.440978 -6.10509 0
M  V30 6461 N 607.121 1.35428 -6.88915 0
M  V30 6462 H 611.961 -0.684867 -2.90023 0
M  V30 6463 H 609.498 -0.349509 -1.42888 0
M  V30 6464 H 611.456 1.60583 -3.85057 0
M  V30 6465 H 610.086 1.74222 -2.71747 0
M  V30 6466 H 609.138 -0.432317 -3.77935 0
M  V30 6467 H 610.45 -0.348347 -4.97582 0
M  V30 6468 H 609.604 1.86873 -5.77203 0
M  V30 6469 H 608.343 1.86367 -4.50687 0
M  V30 6470 H 607.348 -0.219279 -5.49363 0
M  V30 6471 H 608.573 -0.196192 -6.78817 0
M  V30 6472 H 606.519 1.9831 -6.25307 0
M  V30 6473 H 606.436 0.800657 -7.51748 0
M  V30 6474 H 607.704 1.98967 -7.53679 0
M  V30 6475 N 611.933 1.52934 -0.380664 0
M  V30 6476 C 612.881 2.27727 0.47361 0
M  V30 6477 C 613.875 1.31288 1.0705 0
M  V30 6478 O 615.081 1.4886 1.01197 0
M  V30 6479 H 611.456 0.732189 0.171475 0
M  V30 6480 H 613.427 2.97864 -0.178785 0
M  V30 6481 C 612.176 3.0904 1.59341 0
M  V30 6482 H 611.499 3.831 1.14343 0
M  V30 6483 H 612.939 3.64527 2.16555 0
M  V30 6484 C 611.398 2.20813 2.54447 0
M  V30 6485 O 611.928 1.82907 3.57642 0
M  V30 6486 N 610.134 1.85145 2.23986 0
M  V30 6487 H 609.681 2.16169 1.40103 0
M  V30 6488 H 609.639 1.26402 2.87871 0
M  V30 6489 N 613.412 0.11024 1.57214 0
M  V30 6490 C 614.375 -0.828808 2.1369 0
M  V30 6491 C 615.375 -1.20059 1.06969 0
M  V30 6492 O 616.565 -1.12754 1.32786 0
M  V30 6493 C 613.697 -2.11959 2.66994 0
M  V30 6494 H 614.89 -0.338146 2.97988 0
M  V30 6495 H 612.443 -0.138913 1.55681 0
M  V30 6496 H 613.178 -2.65476 1.8626 0
M  V30 6497 H 612.963 -1.86258 3.45037 0
M  V30 6498 H 614.453 -2.79105 3.10629 0
M  V30 6499 N 614.89 -1.56749 -0.16351 0
M  V30 6500 C 616.306 -1.51043 -0.515567 0
M  V30 6501 C 616.506 -0.815855 -1.84245 0
M  V30 6502 O 615.562 -0.379477 -2.49632 0
M  V30 6503 C 616.875 -2.95791 -0.541114 0
M  V30 6504 C 618.423 -3.0664 -0.627776 0
M  V30 6505 C 618.898 -4.52861 -0.684141 0
M  V30 6506 N 620.389 -4.5714 -0.746818 0
M  V30 6507 C 621.124 -5.67634 -0.811137 0
M  V30 6508 N 620.62 -6.8774 -0.835811 0
M  V30 6509 N 622.413 -5.55624 -0.850756 0
M  V30 6510 H 614.564 -2.00307 0.70645 0
M  V30 6511 H 616.827 -0.912876 0.255659 0
M  V30 6512 H 616.533 -3.49797 0.365329 0
M  V30 6513 H 616.407 -3.50858 -1.38487 0
M  V30 6514 H 618.794 -2.52663 -1.52464 0
M  V30 6515 H 618.875 -2.54645 0.242805 0
M  V30 6516 H 618.519 -5.07472 0.2085 0
M  V30 6517 H 618.449 -5.02621 -1.57098 0
M  V30 6518 H 620.94 -3.70669 -0.735717 0
M  V30 6519 H 621.253 -7.67701 -0.886279 0
M  V30 6520 H 619.598 -6.90334 -0.803958 0
M  V30 6521 H 622.789 -4.60709 -0.828535 0
M  V30 6522 H 622.962 -6.41756 -0.897418 0
M  V30 6523 N 616.368 0.432326 -1.51554 0
M  V30 6524 C 617.614 1.18309 -1.64714 0
M  V30 6525 C 617.947 1.90745 -0.364696 0
M  V30 6526 O 617.222 1.8381 0.635936 0
M  V30 6527 C 617.505 2.1961 -2.85383 0
M  V30 6528 C 617.358 1.51223 -4.23617 0
M  V30 6529 C 618.677 3.20538 -3.01569 0
M  V30 6530 H 615.796 0.428751 -0.599451 0
M  V30 6531 H 618.438 0.471689 -1.84052 0
M  V30 6532 H 616.588 2.8028 -2.69027 0
M  V30 6533 H 618.26 0.938516 -4.51652 0
M  V30 6534 H 616.503 0.814501 -4.26085 0
M  V30 6535 H 617.174 2.25024 -5.04052 0
M  V30 6536 H 619.65 2.69926 -3.16669 0
M  V30 6537 H 618.526 3.88706 -3.87555 0
M  V30 6538 H 618.787 3.86933 -2.13859 0
M  V30 6539 N 617.846 1.41785 0.688094 0
M  V30 6540 C 618.793 1.44221 1.80191 0
M  V30 6541 C 619.763 0.295688 1.63447 0
M  V30 6542 O 620.948 0.49783 1.84191 0
M  V30 6543 C 618.088 1.33743 3.1813 0
M  V30 6544 C 617.201 2.58325 3.46254 0
M  V30 6545 C 616.336 2.40086 4.73848 0
M  V30 6546 C 615.375 3.60107 4.94964 0
M  V30 6547 N 614.512 3.40892 6.13789 0
M  V30 6548 H 619.352 2.39411 1.77444 0
M  V30 6549 H 616.889 1.18876 0.866423 0
M  V30 6550 H 618.847 1.25669 3.97823 0
M  V30 6551 H 617.477 0.42157 3.20035 0
M  V30 6552 H 616.529 2.7682 2.60912 0
M  V30 6553 H 617.841 3.4758 3.57756 0
M  V30 6554 H 616.995 2.29522 5.61609 0
M  V30 6555 H 615.734 1.483 4.64606 0
M  V30 6556 H 614.739 3.71118 4.05649 0
M  V30 6557 H 615.964 4.52857 5.06061 0
M  V30 6558 H 613.91 2.51812 6.05745 0
M  V30 6559 H 613.827 4.23727 6.26092 0
M  V30 6560 H 615.095 3.34114 7.04264 0
M  V30 6561 N 619.324 -0.923095 1.27737 0
M  V30 6562 C 620.257 -2.02515 1.05181 0
M  V30 6563 C 621.235 -1.62574 -0.0292204 0
M  V30 6564 O 622.419 -1.88137 0.116848 0
M  V30 6565 C 619.546 -3.33407 0.596468 0
M  V30 6566 C 618.592 -3.92328 1.67276 0
M  V30 6567 S 619.425 -4.24342 3.26641 0
M  V30 6568 C 620.581 -5.58308 2.82919 0
M  V30 6569 H 620.814 -2.21336 1.98488 0
M  V30 6570 H 618.347 -1.06679 1.1162 0
M  V30 6571 H 620.305 -4.09086 0.34044 0
M  V30 6572 H 618.966 -3.125 -0.316614 0
M  V30 6573 H 618.159 -4.86797 1.30556 0
M  V30 6574 H 617.761 -3.2325 1.8811 0
M  V30 6575 H 620.053 -6.37801 2.28509 0
M  V30 6576 H 620.996 -5.99931 3.7615 0
M  V30 6577 H 621.404 -5.19049 2.21919 0
M  V30 6578 N 620.802 -1.09834 -1.13024 0
M  V30 6579 C 622.213 -0.855651 -1.65938 0
M  V30 6580 C 622.564 0.615159 -1.86307 0
M  V30 6581 O 621.689 1.47335 -1.58497 0
M  V30 6582 C 622.284 -1.5467 -3.01434 0
M  V30 6583 C 620.843 -1.35088 -3.51323 0
M  V30 6584 C 619.99 -1.6001 -2.26478 0
M  V30 6585 H 622.941 -1.25691 -0.968889 0
M  V30 6586 H 622.962 -0.982179 -3.67605 0
M  V30 6587 H 622.474 -2.61715 -2.86578 0
M  V30 6588 H 620.575 -0.30179 -3.71376 0
M  V30 6589 H 620.688 -2.0886 -4.31178 0
M  V30 6590 H 619.052 -1.02246 -2.33276 0
M  V30 6591 H 619.835 -2.68293 -2.14182 0
M  V30 6592 N 622.28 1.30327 -0.886154 0
M  V30 6593 C 623.19 2.31854 -0.357866 0
M  V30 6594 C 624.206 1.65392 0.540502 0
M  V30 6595 O 625.382 1.96683 0.433339 0
M  V30 6596 C 622.447 3.44171 0.417999 0
M  V30 6597 C 621.508 4.26257 -0.510263 0
M  V30 6598 C 620.741 5.3321 0.228669 0
M  V30 6599 O 620.964 5.51542 1.45458 0
M  V30 6600 O 619.898 6.0042 -0.421832 0
M  V30 6601 H 623.724 2.78995 -1.19982 0
M  V30 6602 H 621.309 1.34518 -0.650028 0
M  V30 6603 H 623.191 4.12588 0.857251 0
M  V30 6604 H 621.866 2.99164 1.23623 0
M  V30 6605 H 620.773 3.60533 -0.99835 0
M  V30 6606 H 622.106 4.74871 -1.29454 0
M  V30 6607 N 623.758 0.647228 1.43697 0
M  V30 6608 C 624.69 -0.0866232 2.29036 0
M  V30 6609 C 625.703 -0.793051 1.42178 0
M  V30 6610 O 626.892 -0.651807 1.66174 0
M  V30 6611 C 623.992 -1.14552 3.18953 0
M  V30 6612 C 623.165 -0.518422 4.34317 0
M  V30 6613 C 622.224 -1.4734 5.05151 0
M  V30 6614 O 621.25 -0.984312 5.60625 0
M  V30 6615 N 622.452 -2.8075 5.08094 0
M  V30 6616 H 625.217 0.645834 2.92659 0
M  V30 6617 H 622.778 0.489567 1.54321 0
M  V30 6618 H 624.77 -1.78505 3.63205 0
M  V30 6619 H 623.34 -1.78001 2.56971 0
M  V30 6620 H 622.56 0.300079 3.93056 0
M  V30 6621 H 623.848 -0.080401 5.08736 0
M  V30 6622 H 623.246 -3.23052 4.64386 0
M  V30 6623 H 621.803 -3.40022 5.56083 0
M  V30 6624 N 625.236 -1.5273 0.388769 0
M  V30 6625 C 626.146 -2.30165 -0.453993 0
M  V30 6626 C 627.162 -1.37058 -1.07197 0
M  V30 6627 O 628.338 -1.70127 -1.0779 0
M  V30 6628 C 625.403 -3.09303 -1.56628 0
M  V30 6629 C 624.464 -4.18117 -0.973467 0
M  V30 6630 C 623.697 -4.93472 -2.03275 0
M  V30 6631 O 623.92 -4.68913 -3.24772 0
M  V30 6632 O 622.854 -5.78833 -1.65034 0
M  V30 6633 H 626.68 -3.03185 0.176816 0
M  V30 6634 H 624.265 -1.4862 0.152501 0
M  V30 6635 H 626.147 -3.58648 -2.21246 0
M  V30 6636 H 624.822 -2.39098 -2.18206 0
M  V30 6637 H 623.729 -3.7297 -0.290556 0
M  V30 6638 H 625.062 -4.90556 -0.401908 0
M  V30 6639 N 626.714 -0.118576 -1.57153 0
M  V30 6640 C 627.944 0.546466 -1.99242 0
M  V30 6641 C 628.352 1.60791 -0.997148 0
M  V30 6642 O 627.695 1.83691 0.0181745 0
M  V30 6643 C 627.757 1.23167 -3.37743 0
M  V30 6644 C 627.421 0.318226 -4.55891 0
M  V30 6645 C 628.418 -0.442988 -5.18009 0
M  V30 6646 C 626.103 0.229421 -5.01776 0
M  V30 6647 C 628.097 -1.28074 -6.244 0
M  V30 6648 C 625.784 -0.611966 -6.08028 0
M  V30 6649 C 626.782 -1.36568 -6.69207 0
M  V30 6650 O 626.47 -2.1931 -7.73407 0
M  V30 6651 H 626.202 0.149297 -0.659307 0
M  V30 6652 H 628.756 -0.201603 -2.04408 0
M  V30 6653 H 626.986 2.0268 -3.29329 0
M  V30 6654 H 628.675 1.79358 -3.64123 0
M  V30 6655 H 629.441 -0.38425 -4.83475 0
M  V30 6656 H 625.32 0.805771 -4.53903 0
M  V30 6657 H 628.864 -1.86952 -6.72082 0
M  V30 6658 H 624.761 -0.6721 -6.41991 0
M  V30 6659 H 625.529 -2.12247 -7.90502 0
M  V30 6660 N 628.193 1.56834 0.155195 0
M  V30 6661 C 629.103 2.009 1.21146 0
M  V30 6662 C 630.119 0.923029 1.475 0
M  V30 6663 O 631.295 1.23189 1.59331 0
M  V30 6664 C 628.36 2.37378 2.52691 0
M  V30 6665 C 627.421 3.59883 2.34057 0
M  V30 6666 C 626.654 3.94612 3.59329 0
M  V30 6667 O 626.877 3.30104 4.65175 0
M  V30 6668 O 625.811 4.87895 3.52479 0
M  V30 6669 H 629.637 2.9105 0.867371 0
M  V30 6670 H 627.222 1.44916 0.363298 0
M  V30 6671 H 629.104 2.61737 3.3026 0
M  V30 6672 H 627.779 1.50385 2.86646 0
M  V30 6673 H 626.686 3.40722 1.54465 0
M  V30 6674 H 628.019 4.47468 2.0502 0
M  V30 6675 N 629.671 -0.424282 1.51781 0
M  V30 6676 C 630.918 -1.1726 1.65095 0
M  V30 6677 C 631.246 -1.90881 0.373477 0
M  V30 6678 O 630.501 -1.84835 -0.642997 0
M  V30 6679 C 630.8 -2.20418 2.81337 0
M  V30 6680 C 630.466 -1.63715 4.20129 0
M  V30 6681 C 629.128 -1.47975 4.57883 0
M  V30 6682 C 631.48 -1.22157 5.06682 0
M  V30 6683 C 628.808 -0.891703 5.79884 0
M  V30 6684 C 631.16 -0.647767 6.29275 0
M  V30 6685 C 629.824 -0.477371 6.65791 0
M  V30 6686 H 629.094 -0.429085 0.604125 0
M  V30 6687 H 631.741 -0.461852 1.85847 0
M  V30 6688 H 630.046 -2.97581 2.54859 0
M  V30 6689 H 631.743 -2.78163 2.88836 0
M  V30 6690 H 628.333 -1.76946 3.90369 0
M  V30 6691 H 632.517 -1.33133 4.7811 0
M  V30 6692 H 627.773 -0.747563 6.06813 0
M  V30 6693 H 631.947 -0.317291 6.95677 0
M  V30 6694 H 629.574 -0.0195936 7.60197 0
M  V30 6695 N 631.149 -1.42148 -0.680565 0
M  V30 6696 C 632.56 -1.3768 -1.26099 0
M  V30 6697 C 632.911 -0.0672348 -1.96085 0
M  V30 6698 O 632.036 0.834172 -1.99676 0
M  V30 6699 C 632.631 -2.49387 -2.29328 0
M  V30 6700 C 631.19 -2.4827 -2.82911 0
M  V30 6701 C 630.337 -2.2847 -1.57152 0
M  V30 6702 H 633.288 -1.51446 -0.474326 0
M  V30 6703 H 633.309 -2.19307 -3.10941 0
M  V30 6704 H 632.821 -3.44686 -1.78363 0
M  V30 6705 H 630.922 -1.56773 -3.38013 0
M  V30 6706 H 631.035 -3.45109 -3.3232 0
M  V30 6707 H 629.399 -1.76623 -1.83511 0
M  V30 6708 H 630.182 -3.25816 -1.0816 0
M  V30 6709 N 632.627 0.916307 -1.28225 0
M  V30 6710 C 633.537 2.05165 -1.13775 0
M  V30 6711 C 634.553 1.73879 -0.0649418 0
M  V30 6712 O 635.729 1.99531 -0.273722 0
M  V30 6713 C 632.794 3.37385 -0.798267 0
M  V30 6714 C 631.855 3.82296 -1.95316 0
M  V30 6715 C 631.088 5.08206 -1.62978 0
M  V30 6716 O 631.311 5.6781 -0.542948 0
M  V30 6717 O 630.245 5.48768 -2.47261 0
M  V30 6718 H 634.071 2.20273 -2.09078 0
M  V30 6719 H 631.656 1.0373 -1.07519 0
M  V30 6720 H 633.538 4.16773 -0.62278 0
M  V30 6721 H 632.213 3.23458 0.125139 0
M  V30 6722 H 631.12 3.03746 -2.18378 0
M  V30 6723 H 632.453 4.00782 -2.85718 0
M  V30 6724 N 634.105 1.10431 1.1244 0
M  V30 6725 C 635.516 0.864439 1.65482 0
M  V30 6726 C 635.867 -0.60527 1.8663 0
M  V30 6727 O 634.992 -1.46492 1.59276 0
M  V30 6728 C 635.587 1.56267 3.0061 0
M  V30 6729 C 634.146 1.3695 3.50602 0
M  V30 6730 C 633.293 1.61209 2.25626 0
M  V30 6731 H 636.244 1.26203 0.962209 0
M  V30 6732 H 636.265 1.00166 3.67079 0
M  V30 6733 H 635.777 2.63231 2.85186 0
M  V30 6734 H 633.878 0.321481 3.71211 0
M  V30 6735 H 633.991 2.11143 4.30064 0
M  V30 6736 H 632.355 1.03482 2.32731 0
M  V30 6737 H 633.138 2.69425 2.12756 0
M  V30 6738 N 635.583 -1.29855 0.893053 0
M  V30 6739 C 636.999 -1.48366 0.588199 0
M  V30 6740 C 637.199 -1.81654 -0.872018 0
M  V30 6741 O 636.255 -1.909 -1.65268 0
M  V30 6742 C 637.568 -2.60136 1.5083 0
M  V30 6743 C 639.116 -2.74014 1.51279 0
M  V30 6744 C 639.591 -3.88905 2.41902 0
M  V30 6745 N 641.082 -3.96228 2.39911 0
M  V30 6746 C 641.817 -4.84458 3.06738 0
M  V30 6747 N 641.313 -5.77426 3.8282 0
M  V30 6748 N 643.106 -4.77894 2.95929 0
M  V30 6749 H 635.257 -1.06522 1.83757 0
M  V30 6750 H 637.52 -0.528495 0.787018 0
M  V30 6751 H 637.226 -2.42383 2.54839 0
M  V30 6752 H 637.1 -3.56793 1.22388 0
M  V30 6753 H 639.487 -2.91167 0.480179 0
M  V30 6754 H 639.568 -1.77952 1.83757 0
M  V30 6755 H 639.212 -3.72508 3.45253 0
M  V30 6756 H 639.142 -4.84322 2.06737 0
M  V30 6757 H 641.633 -3.29728 1.84629 0
M  V30 6758 H 641.946 -6.41529 4.30883 0
M  V30 6759 H 640.291 -5.77332 3.86927 0
M  V30 6760 H 643.482 -4.04248 2.36012 0
M  V30 6761 H 643.655 -5.46444 3.48286 0
M  V30 6762 N 637.061 -0.65484 -1.43351 0
M  V30 6763 C 638.009 0.0476784 -2.32551 0
M  V30 6764 C 639.003 0.811403 -1.48703 0
M  V30 6765 O 640.209 0.721621 -1.64902 0
M  V30 6766 H 636.584 0.0342038 -0.751222 0
M  V30 6767 H 638.555 -0.722342 -2.89525 0
M  V30 6768 C 637.304 0.999251 -3.33032 0
M  V30 6769 H 636.627 0.421005 -3.97577 0
M  V30 6770 H 638.067 1.45986 -3.98076 0
M  V30 6771 C 636.526 2.09606 -2.63756 0
M  V30 6772 O 637.056 3.18004 -2.4543 0
M  V30 6773 N 635.262 1.86207 -2.23103 0
M  V30 6774 H 634.809 0.980555 -2.38208 0
M  V30 6775 H 634.767 2.59787 -1.77081 0
M  V30 6776 N 638.539 1.52521 -0.396863 0
M  V30 6777 C 639.469 2.29582 0.425941 0
M  V30 6778 C 640.45 1.33281 1.05689 0
M  V30 6779 O 641.635 1.62181 1.06823 0
M  V30 6780 C 638.765 3.10821 1.54943 0
M  V30 6781 C 637.719 4.15069 1.04413 0
M  V30 6782 C 637.045 4.84578 2.26028 0
M  V30 6783 C 638.345 5.22191 0.106767 0
M  V30 6784 H 640.039 2.98612 -0.217045 0
M  V30 6785 H 637.585 1.43611 -0.105826 0
M  V30 6786 H 639.538 3.63492 2.13193 0
M  V30 6787 H 638.262 2.39538 2.22011 0
M  V30 6788 H 636.921 3.63389 0.484118 0
M  V30 6789 H 636.569 4.09835 2.91623 0
M  V30 6790 H 636.269 5.55043 1.92876 0
M  V30 6791 H 637.793 5.40056 2.84906 0
M  V30 6792 H 639.207 5.70176 0.597685 0
M  V30 6793 H 637.604 5.99947 -0.135352 0
M  V30 6794 H 638.674 4.77531 -0.842134 0
M  V30 6795 N 640.017 0.126909 1.57088 0
M  V30 6796 C 640.965 -0.837618 2.16995 0
M  V30 6797 C 641.959 -1.26974 1.12133 0
M  V30 6798 O 643.165 -1.24056 1.30423 0
M  V30 6799 H 639.54 -0.288256 0.694559 0
M  V30 6800 H 641.511 -0.307957 2.96807 0
M  V30 6801 C 640.26 -2.07474 2.79016 0
M  V30 6802 H 639.583 -1.75117 3.59408 0
M  V30 6803 H 641.023 -2.72949 3.24461 0
M  V30 6804 C 639.482 -2.86967 1.76498 0
M  V30 6805 O 640.012 -3.82625 1.22316 0
M  V30 6806 N 638.218 -2.51111 1.46258 0
M  V30 6807 H 637.765 -1.73389 1.90509 0
M  V30 6808 H 637.723 -3.04594 0.779085 0
M  V30 6809 N 641.495 -1.56914 -0.146875 0
M  V30 6810 C 642.443 -1.99224 -1.20053 0
M  V30 6811 C 643.437 -0.884661 -1.44465 0
M  V30 6812 O 644.643 -1.06984 -1.44756 0
M  V30 6813 H 641.018 -0.634191 -0.404112 0
M  V30 6814 H 642.989 -2.86998 -0.816987 0
M  V30 6815 C 641.738 -2.38899 -2.52632 0
M  V30 6816 H 641.061 -3.23677 -2.34677 0
M  V30 6817 H 642.501 -2.72326 -3.24984 0
M  V30 6818 C 640.96 -1.2417 -3.13183 0
M  V30 6819 O 641.49 -0.542503 -3.9802 0
M  V30 6820 N 639.696 -1.00592 -2.72635 0
M  V30 6821 H 639.243 -1.57627 -2.03744 0
M  V30 6822 H 639.201 -0.240174 -3.13481 0
M  V30 6823 N 642.974 0.416227 -1.52004 0
M  V30 6824 C 643.922 1.5272 -1.7544 0
M  V30 6825 C 644.916 1.57596 -0.621289 0
M  V30 6826 O 646.122 1.61087 -0.803172 0
M  V30 6827 H 642.497 0.507772 -0.554682 0
M  V30 6828 H 644.468 1.30136 -2.68528 0
M  V30 6829 C 643.217 2.90165 -1.91571 0
M  V30 6830 H 642.54 2.87154 -2.78178 0
M  V30 6831 H 643.98 3.67211 -2.11972 0
M  V30 6832 C 642.439 3.29947 -0.680942 0
M  V30 6833 O 642.969 4.01403 0.154527 0
M  V30 6834 N 641.175 2.8593 -0.518894 0
M  V30 6835 H 640.722 2.2795 -1.19986 0
M  V30 6836 H 640.68 3.12907 0.305985 0
M  V30 6837 N 644.452 1.42507 0.673017 0
M  V30 6838 C 645.385 1.40557 1.79774 0
M  V30 6839 C 646.363 0.269606 1.60349 0
M  V30 6840 O 647.547 0.460105 1.82798 0
M  V30 6841 C 644.674 1.19815 3.168 0
M  V30 6842 C 643.72 2.36429 3.5497 0
M  V30 6843 S 644.553 3.98963 3.57196 0
M  V30 6844 C 645.709 3.80567 4.9691 0
M  V30 6845 H 645.942 2.35734 1.81154 0
M  V30 6846 H 643.475 1.293 0.843846 0
M  V30 6847 H 645.433 1.08535 3.95892 0
M  V30 6848 H 644.094 0.262215 3.13004 0
M  V30 6849 H 643.287 2.17669 4.54573 0
M  V30 6850 H 642.889 2.44233 2.83242 0
M  V30 6851 H 645.181 3.41668 5.85038 0
M  V30 6852 H 646.124 4.79852 5.20718 0
M  V30 6853 H 646.532 3.13399 4.69512 0
M  V30 6854 N 645.93 -0.909495 1.28709 0
M  V30 6855 C 647.346 -1.18862 1.06508 0
M  V30 6856 C 647.546 -2.00604 -0.189864 0
M  V30 6857 O 646.602 -2.36281 -0.890355 0
M  V30 6858 C 647.915 -1.91908 2.31499 0
M  V30 6859 C 649.463 -2.04773 2.36721 0
M  V30 6860 C 649.938 -2.81228 3.6149 0
M  V30 6861 N 651.429 -2.88787 3.62155 0
M  V30 6862 C 652.164 -3.48455 4.55375 0
M  V30 6863 N 651.66 -4.09369 5.58918 0
M  V30 6864 N 653.453 -3.46035 4.42963 0
M  V30 6865 H 645.604 -0.363867 2.0926 0
M  V30 6866 H 647.867 -0.223649 0.921241 0
M  V30 6867 H 647.573 -1.39275 3.22948 0
M  V30 6868 H 647.447 -2.92436 2.38245 0
M  V30 6869 H 649.834 -2.56585 1.45767 0
M  V30 6870 H 649.915 -1.03408 2.33967 0
M  V30 6871 H 649.559 -2.30094 4.5279 0
M  V30 6872 H 649.489 -3.82917 3.61499 0
M  V30 6873 H 651.98 -2.45514 2.87283 0
M  V30 6874 H 652.293 -4.52891 6.26187 0
M  V30 6875 H 650.638 -4.0786 5.62739 0
M  V30 6876 H 653.829 -2.9766 3.6127 0
M  V30 6877 H 654.002 -3.92244 5.15799 0
M  V30 6878 N 647.408 -1.11026 -1.11852 0
M  V30 6879 C 648.824 -0.843294 -1.35502 0
M  V30 6880 C 649.024 0.534179 -1.9429 0
M  V30 6881 O 648.08 1.28585 -2.17307 0
M  V30 6882 C 649.393 -1.94793 -2.29077 0
M  V30 6883 C 650.941 -1.97709 -2.42652 0
M  V30 6884 C 651.416 -3.07364 -3.39546 0
M  V30 6885 N 652.907 -3.0671 -3.47107 0
M  V30 6886 C 653.642 -3.88197 -4.22008 0
M  V30 6887 N 653.138 -4.79635 -4.99922 0
M  V30 6888 N 654.931 -3.76391 -4.17476 0
M  V30 6889 H 647.082 -1.99805 -0.720538 0
M  V30 6890 H 649.345 -0.868633 -0.379711 0
M  V30 6891 H 649.051 -2.93971 -1.93065 0
M  V30 6892 H 648.925 -1.84039 -3.29256 0
M  V30 6893 H 651.312 -0.991604 -2.77941 0
M  V30 6894 H 651.393 -2.1254 -1.4234 0
M  V30 6895 H 651.037 -4.06136 -3.04985 0
M  V30 6896 H 650.967 -2.89774 -4.39703 0
M  V30 6897 H 653.458 -2.40457 -2.91528 0
M  V30 6898 H 653.771 -5.38357 -5.54429 0
M  V30 6899 H 652.116 -4.8366 -4.99097 0
M  V30 6900 H 655.307 -3.04303 -3.55693 0
M  V30 6901 H 655.48 -4.40131 -4.75593 0
M  V30 6902 N 648.886 1.2938 -0.899927 0
M  V30 6903 C 650.297 1.77644 -0.574427 0
M  V30 6904 C 650.648 1.73824 0.909928 0
M  V30 6905 O 649.773 1.32429 1.71147 0
M  V30 6906 C 650.368 3.22573 -1.03595 0
M  V30 6907 C 648.927 3.68614 -0.76161 0
M  V30 6908 C 648.074 2.49483 -1.21052 0
M  V30 6909 H 651.025 1.16038 -1.08263 0
M  V30 6910 H 651.046 3.78684 -0.371337 0
M  V30 6911 H 650.558 3.25321 -2.11631 0
M  V30 6912 H 648.659 3.7134 0.306127 0
M  V30 6913 H 648.772 4.59402 -1.35965 0
M  V30 6914 H 647.136 2.46798 -0.629515 0
M  V30 6915 H 647.919 2.54959 -2.29893 0
M  V30 6916 N 650.364 0.662433 1.43002 0
M  V30 6917 C 651.589 0.186003 2.06564 0
M  V30 6918 C 652.014 -1.14314 1.49379 0
M  V30 6919 O 651.372 -1.70824 0.607346 0
M  V30 6920 C 651.42 0.118269 3.60406 0
M  V30 6921 O 650.524 -0.916859 4.02079 0
M  V30 6922 H 649.865 0.0990981 0.656563 0
M  V30 6923 H 652.395 0.907958 1.8335 0
M  V30 6924 H 652.405 -0.0619981 4.07953 0
M  V30 6925 H 651.08 1.08849 4.01403 0
M  V30 6926 H 649.657 -0.708635 3.66105 0
M  V30 6927 N 651.842 -1.52309 0.404946 0
M  V30 6928 C 653.067 -2.06666 -0.1743 0
M  V30 6929 C 653.492 -1.27341 -1.38441 0
M  V30 6930 O 652.85 -0.302539 -1.78758 0
M  V30 6931 C 652.898 -3.57014 -0.507262 0
M  V30 6932 O 652.002 -3.80144 -1.59889 0
M  V30 6933 H 651.343 -0.663807 -0.0160273 0
M  V30 6934 H 653.873 -1.96297 0.576937 0
M  V30 6935 H 653.883 -4.00724 -0.767098 0
M  V30 6936 H 652.558 -4.14184 0.377368 0
M  V30 6937 H 651.135 -3.48316 -1.33155 0
M  V30 6938 N 653.32 -0.135238 -1.57019 0
M  V30 6939 C 654.731 0.387521 -1.82634 0
M  V30 6940 C 655.082 1.65528 -1.05332 0
M  V30 6941 O 654.207 2.14381 -0.294926 0
M  V30 6942 C 654.802 0.709852 -3.3128 0
M  V30 6943 C 653.361 1.17718 -3.57518 0
M  V30 6944 C 652.508 0.194183 -2.76619 0
M  V30 6945 H 655.459 -0.360126 -1.5456 0
M  V30 6946 H 655.48 1.5657 -3.46794 0
M  V30 6947 H 654.992 -0.213024 -3.87515 0
M  V30 6948 H 653.093 2.1164 -3.06658 0
M  V30 6949 H 653.206 1.11128 -4.66034 0
M  V30 6950 H 651.57 0.684478 -2.4533 0
M  V30 6951 H 652.353 -0.722076 -3.3562 0
M  V30 6952 N 654.798 1.5699 0.138552 0
M  V30 6953 C 656.214 1.51844 0.491472 0
M  V30 6954 C 656.414 0.845063 1.82923 0
M  V30 6955 O 655.47 0.419143 2.48997 0
M  V30 6956 C 656.783 2.96615 0.493987 0
M  V30 6957 C 658.331 3.076 0.578913 0
M  V30 6958 C 658.806 4.53893 0.612009 0
M  V30 6959 N 660.297 4.5827 0.673997 0
M  V30 6960 C 661.032 5.68852 0.720729 0
M  V30 6961 N 660.528 6.88982 0.726292 0
M  V30 6962 N 662.321 5.56908 0.762253 0
M  V30 6963 H 654.472 1.99158 -0.738228 0
M  V30 6964 H 656.735 0.908693 -0.270149 0
M  V30 6965 H 656.441 3.49172 -0.420933 0
M  V30 6966 H 656.315 3.53017 1.32887 0
M  V30 6967 H 658.702 2.55057 1.48425 0
M  V30 6968 H 658.783 2.54227 -0.283286 0
M  V30 6969 H 658.427 5.07076 -0.289208 0
M  V30 6970 H 658.357 5.05057 1.49082 0
M  V30 6971 H 660.848 3.71793 0.676654 0
M  V30 6972 H 661.161 7.69014 0.764032 0
M  V30 6973 H 659.506 6.91526 0.69403 0
M  V30 6974 H 662.697 4.61969 0.755135 0
M  V30 6975 H 662.87 6.43102 0.795207 0
M  V30 6976 N 656.276 -0.40816 1.52223 0
M  V30 6977 C 657.223 -1.49737 1.75635 0
M  V30 6978 C 658.193 -1.5493 0.598824 0
M  V30 6979 O 659.378 -1.71487 0.83648 0
M  V30 6980 C 656.518 -2.87174 1.91376 0
M  V30 6981 C 655.631 -2.91283 3.19027 0
M  V30 6982 C 654.766 -4.20026 3.25195 0
M  V30 6983 C 653.805 -4.18113 4.47044 0
M  V30 6984 N 652.942 -5.38429 4.50598 0
M  V30 6985 H 657.782 -1.29075 2.68596 0
M  V30 6986 H 655.319 -0.626518 1.33091 0
M  V30 6987 H 657.277 -3.66959 1.98486 0
M  V30 6988 H 655.907 -3.06329 1.01795 0
M  V30 6989 H 654.959 -2.03984 3.21084 0
M  V30 6990 H 656.271 -2.85734 4.08849 0
M  V30 6991 H 655.425 -5.08204 3.31382 0
M  V30 6992 H 654.164 -4.28271 2.33313 0
M  V30 6993 H 653.169 -3.28325 4.41002 0
M  V30 6994 H 654.394 -4.11507 5.40221 0
M  V30 6995 H 652.34 -5.4734 3.616 0
M  V30 6996 H 652.257 -5.34879 5.34266 0
M  V30 6997 H 653.525 -6.28557 4.61016 0
M  V30 6998 N 657.755 -1.42862 -0.66545 0
M  V30 6999 C 659.001 -1.4504 -1.426 0
M  V30 7000 C 659.356 -0.0690217 -1.92276 0
M  V30 7001 O 658.649 0.91036 -1.68591 0
M  V30 7002 C 658.843 -2.4175 -2.63233 0
M  V30 7003 C 658.672 -3.89155 -2.25362 0
M  V30 7004 C 657.442 -4.57619 -2.14273 0
M  V30 7005 C 659.64 -4.79326 -1.86417 0
M  V30 7006 N 657.622 -5.90006 -1.69604 0
M  V30 7007 C 658.993 -6.00892 -1.52738 0
M  V30 7008 C 661.048 -4.66696 -1.73492 0
M  V30 7009 C 659.751 -7.11232 -1.0743 0
M  V30 7010 C 661.777 -5.77027 -1.29589 0
M  V30 7011 C 661.139 -6.97712 -0.968393 0
M  V30 7012 H 657.238 -0.585889 -0.517936 0
M  V30 7013 H 659.822 -1.78956 -0.767002 0
M  V30 7014 H 657.993 -2.09881 -3.26809 0
M  V30 7015 H 659.725 -2.34447 -3.29874 0
M  V30 7016 H 656.48 -4.11957 -2.33641 0
M  V30 7017 H 656.904 -6.60249 -1.49666 0
M  V30 7018 H 661.546 -3.7386 -1.97455 0
M  V30 7019 H 659.264 -8.03907 -0.822147 0
M  V30 7020 H 662.85 -5.6927 -1.20095 0
M  V30 7021 H 661.73 -7.81634 -0.63384 0
M  V30 7022 N 659.233 0.902656 -1.29189 0
M  V30 7023 C 660.463 1.68394 -1.19695 0
M  V30 7024 C 660.871 1.87602 0.245384 0
M  V30 7025 O 660.214 1.41084 1.17648 0
M  V30 7026 C 660.276 3.09094 -1.83578 0
M  V30 7027 C 659.94 3.1313 -3.32864 0
M  V30 7028 C 660.937 2.93497 -4.29134 0
M  V30 7029 C 658.622 3.3529 -3.74013 0
M  V30 7030 C 660.616 2.95953 -5.64527 0
M  V30 7031 C 658.303 3.37377 -5.09529 0
M  V30 7032 C 659.301 3.1773 -6.04596 0
M  V30 7033 O 658.989 3.196 -7.37639 0
M  V30 7034 H 658.721 0.532815 -0.416034 0
M  V30 7035 H 661.275 1.1374 -1.71033 0
M  V30 7036 H 659.505 3.65338 -1.26747 0
M  V30 7037 H 661.194 3.69297 -1.68447 0
M  V30 7038 H 661.96 2.76192 -3.98677 0
M  V30 7039 H 657.839 3.49623 -3.00474 0
M  V30 7040 H 661.383 2.80536 -6.38706 0
M  V30 7041 H 657.28 3.54213 -5.39633 0
M  V30 7042 H 658.048 3.35887 -7.46406 0
M  V30 7043 N 660.711 1.11618 1.11262 0
M  V30 7044 C 661.936 0.889013 1.8738 0
M  V30 7045 C 662.361 -0.555884 1.79698 0
M  V30 7046 O 661.719 -1.39272 1.16073 0
M  V30 7047 C 661.767 1.35759 3.34069 0
M  V30 7048 O 660.871 0.530499 4.08974 0
M  V30 7049 H 660.212 0.320082 0.581759 0
M  V30 7050 H 662.742 1.48611 1.40627 0
M  V30 7051 H 662.752 1.35291 3.84916 0
M  V30 7052 H 661.427 2.40973 3.38976 0
M  V30 7053 H 660.004 0.601439 3.68018 0
M  V30 7054 N 662.189 -1.289 0.906776 0
M  V30 7055 C 663.6 -1.77336 0.58384 0
M  V30 7056 C 663.951 -1.74304 -0.900697 0
M  V30 7057 O 663.076 -1.33335 -1.70443 0
M  V30 7058 C 663.671 -3.22019 1.05304 0
M  V30 7059 C 662.23 -3.68205 0.781148 0
M  V30 7060 C 661.377 -2.48837 1.22373 0
M  V30 7061 H 664.328 -1.15462 1.08877 0
M  V30 7062 H 664.349 -3.78481 0.391414 0
M  V30 7063 H 663.861 -3.24194 2.13353 0
M  V30 7064 H 661.962 -3.71497 -0.28643 0
M  V30 7065 H 662.075 -4.58675 1.384 0
M  V30 7066 H 660.439 -2.46461 0.642594 0
M  V30 7067 H 661.222 -2.53736 2.31242 0
M  V30 7068 N 663.667 -0.670007 -1.42649 0
M  V30 7069 C 664.916 -0.187526 -2.00826 0
M  V30 7070 C 665.229 1.21142 -1.53571 0
M  V30 7071 O 666.435 1.79001 -2.04134 0
M  V30 7072 C 664.891 -0.284409 -3.58774 0
M  V30 7073 C 664.499 -1.6871 -4.15019 0
M  V30 7074 C 666.243 0.139605 -4.2427 0
M  V30 7075 C 664.15 -1.73701 -5.65316 0
M  V30 7076 H 663.08 -0.0663468 -0.751075 0
M  V30 7077 H 665.731 -0.834492 -1.63427 0
M  V30 7078 H 664.113 0.430364 -3.93655 0
M  V30 7079 H 665.287 -2.42857 -3.91608 0
M  V30 7080 H 663.602 -2.05855 -3.61957 0
M  V30 7081 H 666.199 0.122398 -5.3456 0
M  V30 7082 H 666.542 1.17403 -3.99402 0
M  V30 7083 H 667.075 -0.523995 -3.94334 0
M  V30 7084 H 663.814 -2.75109 -5.94975 0
M  V30 7085 H 663.334 -1.03903 -5.90732 0
M  V30 7086 H 665.013 -1.48829 -6.2965 0
M  V30 7087 N 665.145 1.52092 -0.413018 0
M  V30 7088 C 666.092 2.27119 0.410558 0
M  V30 7089 C 667.062 1.29692 1.03774 0
M  V30 7090 O 668.247 1.58561 1.06128 0
M  V30 7091 C 665.387 3.09863 1.51918 0
M  V30 7092 C 664.5 4.22252 0.912528 0
M  V30 7093 C 663.635 4.92348 1.99417 0
M  V30 7094 C 662.674 5.96694 1.36466 0
M  V30 7095 N 661.811 6.60292 2.38661 0
M  V30 7096 H 666.651 2.97067 -0.235661 0
M  V30 7097 H 664.188 1.46542 -0.128055 0
M  V30 7098 H 666.146 3.56144 2.17295 0
M  V30 7099 H 664.776 2.42078 2.13537 0
M  V30 7100 H 663.828 3.80113 0.147697 0
M  V30 7101 H 665.14 4.9709 0.412717 0
M  V30 7102 H 664.294 5.42054 2.72512 0
M  V30 7103 H 663.033 4.17087 2.52764 0
M  V30 7104 H 662.038 5.46304 0.61906 0
M  V30 7105 H 663.263 6.73899 0.838827 0
M  V30 7106 H 661.209 5.87858 2.91134 0
M  V30 7107 H 661.126 7.30816 1.93503 0
M  V30 7108 H 662.394 7.14635 3.11314 0
M  V30 7109 N 666.623 0.143563 1.56945 0
M  V30 7110 C 667.871 -0.507402 1.95627 0
M  V30 7111 C 668.192 -1.65626 1.02922 0
M  V30 7112 O 667.462 -1.95693 0.0901136 0
M  V30 7113 H 666.042 -0.190436 0.722318 0
M  V30 7114 H 668.704 0.218257 1.93674 0
M  V30 7115 H 667.8 -0.885816 2.99265 0
M  V30 7116 N 668.101 -1.57061 -0.130224 0
M  V30 7117 C 669.048 -1.99517 -1.16024 0
M  V30 7118 C 670.018 -0.865452 -1.41771 0
M  V30 7119 O 671.203 -1.12882 -1.53826 0
M  V30 7120 C 668.343 -2.3951 -2.48453 0
M  V30 7121 C 667.456 -3.65848 -2.29737 0
M  V30 7122 C 666.591 -3.9487 -3.55318 0
M  V30 7123 C 665.63 -5.14426 -3.31711 0
M  V30 7124 N 664.767 -5.39375 -4.49466 0
M  V30 7125 H 669.607 -2.87305 -0.791194 0
M  V30 7126 H 667.144 -1.42129 -0.379195 0
M  V30 7127 H 669.102 -2.60731 -3.25692 0
M  V30 7128 H 667.732 -1.54779 -2.83272 0
M  V30 7129 H 666.784 -3.52307 -1.4347 0
M  V30 7130 H 668.096 -4.53241 -2.08263 0
M  V30 7131 H 667.25 -4.16679 -4.4098 0
M  V30 7132 H 665.989 -3.05931 -3.79813 0
M  V30 7133 H 664.994 -4.92473 -2.44439 0
M  V30 7134 H 666.219 -6.04933 -3.08598 0
M  V30 7135 H 664.165 -4.53391 -4.74102 0
M  V30 7136 H 664.082 -6.21069 -4.31055 0
M  V30 7137 H 665.35 -5.65694 -5.36293 0
M  V30 7138 N 669.579 0.400081 -1.52437 0
M  V30 7139 C 670.509 1.4947 -1.7939 0
M  V30 7140 C 671.49 1.57383 -0.645329 0
M  V30 7141 O 672.675 1.72511 -0.891826 0
M  V30 7142 C 669.805 2.87201 -1.95276 0
M  V30 7143 C 668.759 2.94134 -3.10917 0
M  V30 7144 C 668.085 4.34207 -3.1204 0
M  V30 7145 C 669.385 2.64791 -4.50203 0
M  V30 7146 H 671.079 1.27165 -2.71052 0
M  V30 7147 H 668.625 0.610312 -1.30427 0
M  V30 7148 H 670.578 3.63772 -2.12715 0
M  V30 7149 H 669.302 3.10819 -1.00294 0
M  V30 7150 H 667.961 2.20009 -2.93243 0
M  V30 7151 H 667.609 4.54848 -2.14761 0
M  V30 7152 H 667.309 4.39768 -3.89715 0
M  V30 7153 H 668.833 5.127 -3.31619 0
M  V30 7154 H 670.247 3.31083 -4.68035 0
M  V30 7155 H 668.644 2.81717 -5.29864 0
M  V30 7156 H 669.714 1.60184 -4.57678 0
M  V30 7157 N 671.057 1.43213 0.657864 0
M  V30 7158 C 672.334 1.35063 1.41483 0
M  V30 7159 C 672.714 -0.0038314 2.111 0
M  V30 7160 O 672.062 -1.02018 2.04462 0
M  V30 7161 C 672.272 2.53061 2.40335 0
M  V30 7162 C 673.62 2.9594 3.04474 0
M  V30 7163 O 674.644 2.53074 2.50663 0
M  V30 7164 O 673.503 3.70184 4.02027 0
M  V30 7165 H 670.597 0.533517 0.631893 0
M  V30 7166 H 673.143 1.55253 0.685162 0
M  V30 7167 H 671.915 3.43283 1.87809 0
M  V30 7168 H 671.538 2.34945 3.20759 0
M  V30 7169 N 672.536 -0.895792 1.29666 0
M  V30 7170 C 673.499 -1.98189 1.15124 0
M  V30 7171 C 674.499 -1.60572 0.0855717 0
M  V30 7172 O 675.689 -1.70991 0.332826 0
M  V30 7173 C 672.821 -3.32289 0.761372 0
M  V30 7174 H 674.014 -2.12518 2.11603 0
M  V30 7175 H 671.567 -1.0808 1.12908 0
M  V30 7176 H 672.302 -3.23662 -0.203393 0
M  V30 7177 H 672.087 -3.60958 1.53139 0
M  V30 7178 H 673.577 -4.1198 0.682792 0
M  V30 7179 N 674.014 -1.12206 -1.10668 0
M  V30 7180 C 674.944 -0.810086 -2.18997 0
M  V30 7181 C 675.925 0.225065 -1.68604 0
M  V30 7182 O 677.11 0.086783 -1.94006 0
M  V30 7183 C 674.24 -0.261262 -3.46316 0
M  V30 7184 C 673.194 -1.2292 -4.09969 0
M  V30 7185 C 672.52 -0.540713 -5.31959 0
M  V30 7186 C 673.82 -2.58295 -4.53962 0
M  V30 7187 H 675.514 -1.7159 -2.45352 0
M  V30 7188 H 673.06 -0.82646 -1.17922 0
M  V30 7189 H 675.013 -0.0307522 -4.21389 0
M  V30 7190 H 673.737 0.679879 -3.19445 0
M  V30 7191 H 672.396 -1.44548 -3.369 0
M  V30 7192 H 672.044 0.405492 -5.01363 0
M  V30 7193 H 671.744 -1.18637 -5.75499 0
M  V30 7194 H 673.268 -0.319184 -6.09765 0
M  V30 7195 H 674.682 -2.40709 -5.20319 0
M  V30 7196 H 673.079 -3.18916 -5.08343 0
M  V30 7197 H 674.149 -3.16918 -3.67002 0
M  V30 7198 N 675.492 1.28418 -0.913599 0
M  V30 7199 C 676.738 1.95627 -0.556933 0
M  V30 7200 C 677.093 1.706 0.889565 0
M  V30 7201 O 676.386 1.01637 1.6242 0
M  V30 7202 C 676.58 3.48283 -0.802099 0
M  V30 7203 C 676.409 3.88151 -2.27088 0
M  V30 7204 C 675.179 4.1232 -2.92096 0
M  V30 7205 C 677.377 3.98819 -3.24728 0
M  V30 7206 N 675.359 4.3886 -4.29272 0
M  V30 7207 C 676.73 4.29571 -4.47067 0
M  V30 7208 C 678.785 3.81342 -3.20129 0
M  V30 7209 C 677.488 4.44667 -5.65388 0
M  V30 7210 C 679.514 3.97656 -4.37749 0
M  V30 7211 C 678.876 4.2878 -5.58862 0
M  V30 7212 H 674.975 0.739715 -0.253664 0
M  V30 7213 H 677.559 1.55074 -1.1773 0
M  V30 7214 H 675.73 3.87826 -0.211007 0
M  V30 7215 H 677.462 4.02623 -0.409478 0
M  V30 7216 H 674.217 4.06611 -2.42826 0
M  V30 7217 H 674.641 4.56214 -5.00198 0
M  V30 7218 H 679.283 3.56331 -2.2757 0
M  V30 7219 H 677.001 4.68509 -6.58426 0
M  V30 7220 H 680.587 3.85569 -4.35692 0
M  V30 7221 H 679.467 4.41136 -6.48359 0
M  V30 7222 N 676.97 0.677563 1.42291 0
M  V30 7223 C 678.216 0.201272 2.01799 0
M  V30 7224 C 678.549 -1.19004 1.53465 0
M  V30 7225 O 677.824 -1.79953 0.738039 0
M  V30 7226 C 678.107 0.238968 3.59306 0
M  V30 7227 C 677.96 1.66594 4.17812 0
M  V30 7228 C 679.279 -0.411287 4.38174 0
M  V30 7229 H 676.398 0.0746114 0.733214 0
M  V30 7230 H 679.04 0.862872 1.69276 0
M  V30 7231 H 677.19 -0.324368 3.87144 0
M  V30 7232 H 678.862 2.28173 4.00917 0
M  V30 7233 H 677.105 2.20576 3.73536 0
M  V30 7234 H 677.776 1.64398 5.26951 0
M  V30 7235 H 680.252 0.0682804 4.16044 0
M  V30 7236 H 679.128 -0.354286 5.47755 0
M  V30 7237 H 679.389 -1.4893 4.1626 0
M  V30 7238 N 678.448 -1.51871 0.421078 0
M  V30 7239 C 679.378 -2.30231 -0.389363 0
M  V30 7240 C 680.359 -1.34946 -1.03555 0
M  V30 7241 O 681.544 -1.63859 -1.04229 0
M  V30 7242 C 678.674 -3.13247 -1.49979 0
M  V30 7243 C 677.628 -4.16677 -0.977966 0
M  V30 7244 C 676.954 -4.88112 -2.1829 0
M  V30 7245 C 678.254 -5.22295 -0.0236775 0
M  V30 7246 H 679.948 -2.98229 0.264524 0
M  V30 7247 H 677.494 -1.43424 0.12866 0
M  V30 7248 H 679.447 -3.66838 -2.07383 0
M  V30 7249 H 678.171 -2.4304 -2.18173 0
M  V30 7250 H 676.83 -3.64114 -0.426245 0
M  V30 7251 H 676.478 -4.14423 -2.85066 0
M  V30 7252 H 676.178 -5.58041 -1.84021 0
M  V30 7253 H 677.702 -5.44521 -2.76278 0
M  V30 7254 H 679.116 -5.71055 -0.506899 0
M  V30 7255 H 677.513 -5.99656 0.230782 0
M  V30 7256 H 678.583 -4.76131 0.917999 0
M  V30 7257 N 679.926 -0.151884 -1.56866 0
M  V30 7258 C 680.856 0.781943 -2.20018 0
M  V30 7259 C 681.837 1.25347 -1.14987 0
M  V30 7260 O 683.022 1.31015 -1.43348 0
M  V30 7261 C 680.152 2.01928 -2.82564 0
M  V30 7262 C 679.106 1.68434 -3.93464 0
M  V30 7263 C 678.432 2.99472 -4.42968 0
M  V30 7264 C 679.732 0.927244 -5.14003 0
M  V30 7265 H 681.426 0.255607 -2.98307 0
M  V30 7266 H 678.972 0.121502 -1.43486 0
M  V30 7267 H 680.925 2.67741 -3.25411 0
M  V30 7268 H 679.649 2.56943 -2.01614 0
M  V30 7269 H 678.308 1.04998 -3.51242 0
M  V30 7270 H 677.956 3.52488 -3.58834 0
M  V30 7271 H 677.656 2.77823 -5.17772 0
M  V30 7272 H 679.18 3.66348 -4.88489 0
M  V30 7273 H 680.594 1.48756 -5.53665 0
M  V30 7274 H 678.991 0.810513 -5.94601 0
M  V30 7275 H 680.061 -0.0801163 -4.84834 0
M  V30 7276 N 681.404 1.57128 0.121893 0
M  V30 7277 C 682.82 1.52357 0.47534 0
M  V30 7278 C 683.02 0.864417 1.82017 0
M  V30 7279 O 682.076 0.445529 2.48538 0
M  V30 7280 C 683.389 2.97122 0.4625 0
M  V30 7281 C 684.937 3.08196 0.546255 0
M  V30 7282 C 685.412 4.54516 0.563833 0
M  V30 7283 N 686.903 4.58959 0.625353 0
M  V30 7284 C 687.638 5.69585 0.660354 0
M  V30 7285 N 687.134 6.89714 0.653175 0
M  V30 7286 N 688.927 5.57685 0.703143 0
M  V30 7287 H 681.078 1.98364 -0.75931 0
M  V30 7288 H 683.341 0.905777 -0.279772 0
M  V30 7289 H 683.047 3.48706 -0.457943 0
M  V30 7290 H 682.921 3.54406 1.29136 0
M  V30 7291 H 685.308 2.56617 1.45712 0
M  V30 7292 H 685.389 2.53912 -0.310234 0
M  V30 7293 H 685.033 5.06741 -0.342974 0
M  V30 7294 H 684.963 5.06609 1.43716 0
M  V30 7295 H 687.454 3.72489 0.637182 0
M  V30 7296 H 687.767 7.69781 0.682425 0
M  V30 7297 H 686.112 6.92223 0.620646 0
M  V30 7298 H 689.303 4.62744 0.706095 0
M  V30 7299 H 689.476 6.43909 0.726952 0
M  V30 7300 N 682.882 -0.391992 1.52647 0
M  V30 7301 C 683.829 -1.47866 1.77213 0
M  V30 7302 C 684.799 -1.54286 0.615223 0
M  V30 7303 O 685.984 -1.7059 0.854622 0
M  V30 7304 C 683.124 -2.85129 1.94411 0
M  V30 7305 C 682.237 -2.87883 3.22098 0
M  V30 7306 C 681.372 -4.16553 3.29631 0
M  V30 7307 C 680.411 -4.13348 4.51453 0
M  V30 7308 N 679.548 -5.33619 4.56284 0
M  V30 7309 H 684.388 -1.26219 2.6995 0
M  V30 7310 H 681.925 -0.612367 1.33748 0
M  V30 7311 H 683.883 -3.64833 2.02367 0
M  V30 7312 H 682.513 -3.05232 1.05038 0
M  V30 7313 H 681.565 -2.00567 3.23229 0
M  V30 7314 H 682.877 -2.81382 4.11856 0
M  V30 7315 H 682.031 -5.0466 3.36753 0
M  V30 7316 H 680.77 -4.25773 2.37842 0
M  V30 7317 H 679.775 -3.23629 4.44459 0
M  V30 7318 H 681 -4.05754 5.44555 0
M  V30 7319 H 678.946 -5.43474 3.67385 0
M  V30 7320 H 678.863 -5.29182 5.3991 0
M  V30 7321 H 680.131 -6.23632 4.67657 0
M  V30 7322 N 684.36 -1.4356 -0.65026 0
M  V30 7323 C 685.608 -1.45046 -1.40734 0
M  V30 7324 C 685.929 -0.0769822 -1.94848 0
M  V30 7325 O 685.199 0.888098 -1.74613 0
M  V30 7326 H 683.779 -0.534034 -0.522318 0
M  V30 7327 H 686.441 -1.79186 -0.766703 0
M  V30 7328 H 685.537 -2.16476 -2.24822 0
M  V30 7329 N 685.838 0.888903 -1.30139 0
M  V30 7330 C 687.068 1.67115 -1.21474 0
M  V30 7331 C 687.476 1.87852 0.225472 0
M  V30 7332 O 686.819 1.42324 1.16145 0
M  V30 7333 C 686.881 3.0713 -1.86846 0
M  V30 7334 C 686.545 3.09582 -3.36167 0
M  V30 7335 C 687.542 2.88929 -4.32222 0
M  V30 7336 C 685.227 3.31304 -3.77549 0
M  V30 7337 C 687.221 2.89949 -5.67634 0
M  V30 7338 C 684.908 3.31954 -5.13079 0
M  V30 7339 C 685.906 3.113 -6.07932 0
M  V30 7340 O 685.594 3.11758 -7.40987 0
M  V30 7341 H 685.326 0.528372 -0.421662 0
M  V30 7342 H 687.88 1.11919 -1.7223 0
M  V30 7343 H 686.11 3.63973 -1.30615 0
M  V30 7344 H 687.799 3.6749 -1.72354 0
M  V30 7345 H 688.565 2.71948 -4.01584 0
M  V30 7346 H 684.444 3.46417 -3.04165 0
M  V30 7347 H 687.988 2.73746 -6.41645 0
M  V30 7348 H 683.885 3.48469 -5.43359 0
M  V30 7349 H 684.653 3.27951 -7.49927 0
M  V30 7350 N 687.317 1.12792 1.10072 0
M  V30 7351 C 688.594 0.796867 1.78632 0
M  V30 7352 C 688.974 -0.712739 1.98704 0
M  V30 7353 O 688.322 -1.64773 1.5831 0
M  V30 7354 C 688.532 1.57622 3.11378 0
M  V30 7355 C 689.88 1.76463 3.86194 0
M  V30 7356 O 690.904 1.54165 3.2111 0
M  V30 7357 O 689.763 2.13623 5.03018 0
M  V30 7358 H 686.857 0.290248 0.774394 0
M  V30 7359 H 689.403 1.23215 1.16688 0
M  V30 7360 H 688.175 2.60246 2.92212 0
M  V30 7361 H 687.798 1.13543 3.81043 0
M  V30 7362 N 688.795 -1.27931 0.920396 0
M  V30 7363 C 690.211 -1.47085 0.619537 0
M  V30 7364 C 690.411 -1.83463 -0.833291 0
M  V30 7365 O 689.467 -1.94363 -1.61181 0
M  V30 7366 C 690.78 -2.56878 1.56314 0
M  V30 7367 C 692.328 -2.70743 1.57058 0
M  V30 7368 C 692.803 -3.83687 2.50097 0
M  V30 7369 N 694.294 -3.9105 2.48262 0
M  V30 7370 C 695.029 -4.77842 3.16945 0
M  V30 7371 N 694.525 -5.69176 3.94982 0
M  V30 7372 N 696.318 -4.71509 3.06 0
M  V30 7373 H 688.469 -1.02601 1.85975 0
M  V30 7374 H 690.732 -0.511682 0.798051 0
M  V30 7375 H 690.438 -2.36923 2.59923 0
M  V30 7376 H 690.312 -3.54117 1.29928 0
M  V30 7377 H 692.699 -2.90083 0.541832 0
M  V30 7378 H 692.78 -1.74015 1.8749 0
M  V30 7379 H 692.424 -3.65101 3.53077 0
M  V30 7380 H 692.354 -4.79827 2.16964 0
M  V30 7381 H 694.845 -3.25738 1.91581 0
M  V30 7382 H 695.158 -6.32245 4.44394 0
M  V30 7383 H 693.503 -5.68995 3.99086 0
M  V30 7384 H 696.694 -3.99151 2.44533 0
M  V30 7385 H 696.867 -5.38933 3.59799 0
M  V30 7386 N 690.273 -0.685099 -1.4193 0
M  V30 7387 C 691.519 -0.211971 -2.01689 0
M  V30 7388 C 691.852 1.18189 -1.54094 0
M  V30 7389 O 691.127 1.79559 -0.747572 0
M  V30 7390 C 691.41 -0.258019 -3.59174 0
M  V30 7391 C 691.263 -1.68807 -4.16922 0
M  V30 7392 C 692.582 0.388044 -4.38386 0
M  V30 7393 H 689.701 -0.0784987 -0.732808 0
M  V30 7394 H 692.343 -0.871837 -1.68816 0
M  V30 7395 H 690.493 0.303832 -3.8731 0
M  V30 7396 H 692.165 -2.30296 -3.99702 0
M  V30 7397 H 690.408 -2.22553 -3.72361 0
M  V30 7398 H 691.079 -1.6719 -5.26072 0
M  V30 7399 H 693.555 -0.0903432 -4.16002 0
M  V30 7400 H 692.431 0.325232 -5.47936 0
M  V30 7401 H 692.692 1.4672 -4.17044 0
M  V30 7402 N 691.751 1.51645 -0.429126 0
M  V30 7403 C 692.976 2.06917 0.141399 0
M  V30 7404 C 693.401 1.29527 1.36398 0
M  V30 7405 O 692.759 0.33094 1.78254 0
M  V30 7406 C 692.807 3.57776 0.4504 0
M  V30 7407 O 691.911 3.82639 1.53821 0
M  V30 7408 H 691.252 0.663978 0.0054647 0
M  V30 7409 H 693.782 1.95355 -0.608093 0
M  V30 7410 H 693.792 4.01894 0.703249 0
M  V30 7411 H 692.467 4.13532 -0.443213 0
M  V30 7412 H 691.044 3.5039 1.27597 0
M  V30 7413 N 693.229 0.160201 1.56784 0
M  V30 7414 C 694.475 -0.48831 1.96833 0
M  V30 7415 C 694.808 -1.63641 1.04571 0
M  V30 7416 O 694.083 -1.94289 0.0906481 0
M  V30 7417 C 694.366 -0.981908 3.46454 0
M  V30 7418 C 694.219 0.165607 4.49495 0
M  V30 7419 C 695.538 -1.85931 3.98896 0
M  V30 7420 H 692.657 -0.176027 0.71567 0
M  V30 7421 H 695.299 0.244093 1.88426 0
M  V30 7422 H 693.449 -1.60602 3.5375 0
M  V30 7423 H 695.121 0.802372 4.54268 0
M  V30 7424 H 693.364 0.822789 4.25926 0
M  V30 7425 H 694.035 -0.221699 5.51555 0
M  V30 7426 H 696.511 -1.33327 3.94161 0
M  V30 7427 H 695.387 -2.17373 5.04024 0
M  V30 7428 H 695.648 -2.80106 3.42042 0
M  V30 7429 N 694.707 -1.5719 -0.113559 0
M  V30 7430 C 695.64 -1.9595 -1.16957 0
M  V30 7431 C 696.618 -0.829951 -1.39823 0
M  V30 7432 O 697.802 -1.08861 -1.53888 0
M  V30 7433 C 694.929 -2.2604 -2.52237 0
M  V30 7434 C 693.975 -3.48571 -2.45765 0
M  V30 7435 S 694.808 -5.00962 -1.89203 0
M  V30 7436 C 695.964 -5.3421 -3.26145 0
M  V30 7437 H 696.197 -2.85214 -0.839069 0
M  V30 7438 H 693.73 -1.51036 -0.320529 0
M  V30 7439 H 695.688 -2.44054 -3.30073 0
M  V30 7440 H 694.349 -1.3738 -2.82463 0
M  V30 7441 H 693.542 -3.67008 -3.45429 0
M  V30 7442 H 693.144 -3.29972 -1.76053 0
M  V30 7443 H 695.436 -5.29725 -4.22371 0
M  V30 7444 H 696.379 -6.35398 -3.12529 0
M  V30 7445 H 696.787 -4.61681 -3.24825 0
M  V30 7446 N 696.185 0.383891 -1.52853 0
M  V30 7447 C 697.601 0.724316 -1.42218 0
M  V30 7448 C 697.801 1.93943 -0.546654 0
M  V30 7449 O 696.857 2.5249 -0.0220562 0
M  V30 7450 C 698.17 0.954635 -2.85144 0
M  V30 7451 C 699.718 1.05579 -2.94656 0
M  V30 7452 C 700.193 1.3187 -4.38605 0
M  V30 7453 N 701.684 1.38681 -4.41952 0
M  V30 7454 C 702.419 1.60699 -5.50421 0
M  V30 7455 N 701.915 1.80154 -6.68967 0
M  V30 7456 N 703.708 1.6292 -5.37972 0
M  V30 7457 H 695.859 -0.4156 -2.08294 0
M  V30 7458 H 698.122 -0.123776 -0.939885 0
M  V30 7459 H 697.828 0.133829 -3.51445 0
M  V30 7460 H 697.702 1.86788 -3.27704 0
M  V30 7461 H 700.089 1.86716 -2.2852 0
M  V30 7462 H 700.17 0.120338 -2.55517 0
M  V30 7463 H 699.814 0.512416 -5.05309 0
M  V30 7464 H 699.744 2.26708 -4.75301 0
M  V30 7465 H 702.235 1.25334 -3.56511 0
M  V30 7466 H 702.548 1.96476 -7.47407 0
M  V30 7467 H 700.893 1.77368 -6.71986 0
M  V30 7468 H 704.084 1.47276 -4.44328 0
M  V30 7469 H 704.257 1.79739 -6.22574 0
M  V30 7470 N 697.663 1.43903 0.642637 0
M  V30 7471 C 699.074 1.40975 1.22404 0
M  V30 7472 C 699.425 0.1192 1.95838 0
M  V30 7473 O 698.55 -0.780939 2.01818 0
M  V30 7474 C 699.145 2.5538 2.22636 0
M  V30 7475 C 697.704 2.55684 2.76229 0
M  V30 7476 C 696.851 2.32556 1.51039 0
M  V30 7477 H 699.802 1.5265 0.434006 0
M  V30 7478 H 699.823 2.27474 3.05017 0
M  V30 7479 H 699.335 3.49294 1.69161 0
M  V30 7480 H 697.436 1.65679 3.33738 0
M  V30 7481 H 697.549 3.53799 3.23053 0
M  V30 7482 H 695.913 1.81427 1.78764 0
M  V30 7483 H 696.696 3.28569 0.99484 0
M  V30 7484 N 699.141 -0.881989 1.30609 0
M  V30 7485 C 700.073 -1.99375 1.13058 0
M  V30 7486 C 701.086 -1.62636 0.0729879 0
M  V30 7487 O 702.275 -1.75621 0.319301 0
M  V30 7488 C 699.375 -3.31536 0.702651 0
M  V30 7489 C 698.548 -3.96693 1.84265 0
M  V30 7490 C 697.607 -5.07158 1.40277 0
M  V30 7491 O 696.633 -5.28628 2.11048 0
M  V30 7492 N 697.835 -5.79808 0.283449 0
M  V30 7493 H 700.6 -2.14981 2.08814 0
M  V30 7494 H 698.161 -1.05526 1.22784 0
M  V30 7495 H 700.153 -4.02804 0.391331 0
M  V30 7496 H 698.723 -3.12175 -0.162954 0
M  V30 7497 H 697.943 -3.1856 2.32192 0
M  V30 7498 H 699.231 -4.36964 2.60653 0
M  V30 7499 H 698.629 -5.64871 -0.306189 0
M  V30 7500 H 697.186 -6.51792 0.0315985 0
M  V30 7501 N 700.619 -1.13374 -1.09472 0
M  V30 7502 C 702.03 -0.90801 -1.63132 0
M  V30 7503 C 702.381 0.555576 -1.8817 0
M  V30 7504 O 701.506 1.42218 -1.63104 0
M  V30 7505 C 702.101 -1.64182 -2.96361 0
M  V30 7506 C 700.66 -1.46197 -3.46848 0
M  V30 7507 C 699.807 -1.67134 -2.21273 0
M  V30 7508 H 702.758 -1.2871 -0.928411 0
M  V30 7509 H 702.779 -1.09863 -3.64294 0
M  V30 7510 H 702.291 -2.707 -2.78106 0
M  V30 7511 H 700.392 -0.419788 -3.70228 0
M  V30 7512 H 700.505 -2.22472 -4.24315 0
M  V30 7513 H 698.869 -1.09616 -2.29905 0
M  V30 7514 H 699.652 -2.74971 -2.05538 0
M  V30 7515 N 702.098 1.27442 -0.927168 0
M  V30 7516 C 703.346 1.94007 -0.566203 0
M  V30 7517 C 703.667 1.7323 0.895345 0
M  V30 7518 O 702.937 1.07973 1.63459 0
M  V30 7519 H 701.517 0.717917 -0.206409 0
M  V30 7520 H 704.179 1.55161 -1.17945 0
M  V30 7521 H 703.275 3.02401 -0.772028 0
M  V30 7522 N 703.576 0.692616 1.41565 0
M  V30 7523 C 704.853 0.150496 1.9502 0
M  V30 7524 C 705.233 -1.33881 1.63215 0
M  V30 7525 O 704.581 -2.08378 0.937598 0
M  V30 7526 C 704.791 0.438636 3.46233 0
M  V30 7527 C 706.139 0.364777 4.2303 0
M  V30 7528 O 707.163 0.373383 3.54238 0
M  V30 7529 O 706.022 0.32234 5.45549 0
M  V30 7530 H 703.116 0.0132454 0.826894 0
M  V30 7531 H 705.662 0.768574 1.51298 0
M  V30 7532 H 704.434 1.46962 3.62654 0
M  V30 7533 H 704.057 -0.210562 3.97042 0
M  V30 7534 N 705.054 -1.51416 0.437162 0
M  V30 7535 C 706.282 -2.06503 -0.128045 0
M  V30 7536 C 706.697 -1.30461 -1.36475 0
M  V30 7537 O 706.054 -0.364127 -1.78831 0
M  V30 7538 C 706.105 -3.58683 -0.450437 0
M  V30 7539 O 705.826 -4.31853 0.737186 0
M  V30 7540 C 707.327 -4.30284 -1.06633 0
M  V30 7541 H 704.547 -0.670952 -0.00800269 0
M  V30 7542 H 707.091 -1.94996 0.616193 0
M  V30 7543 H 705.246 -3.70106 -1.14457 0
M  V30 7544 H 705.66 -5.22467 0.461347 0
M  V30 7545 H 707.134 -5.37848 -1.24191 0
M  V30 7546 H 707.611 -3.88564 -2.0473 0
M  V30 7547 H 708.217 -4.23304 -0.411585 0
M  V30 7548 N 706.532 -0.168513 -1.56696 0
M  V30 7549 C 707.78 0.476216 -1.96409 0
M  V30 7550 C 708.101 1.63968 -1.05544 0
M  V30 7551 O 707.371 1.95525 -0.121235 0
M  V30 7552 H 705.951 0.178921 -0.725256 0
M  V30 7553 H 708.613 -0.249042 -1.93302 0
M  V30 7554 H 707.709 0.838094 -3.00637 0
M  V30 7555 N 708.01 1.57248 0.105221 0
M  V30 7556 C 709.426 1.52853 0.459153 0
M  V30 7557 C 709.626 0.883674 1.8109 0
M  V30 7558 O 708.682 0.471864 2.48052 0
M  V30 7559 C 709.995 2.97596 0.43096 0
M  V30 7560 C 711.543 3.08758 0.513536 0
M  V30 7561 C 712.018 4.55089 0.515593 0
M  V30 7562 N 713.509 4.59597 0.576639 0
M  V30 7563 C 714.244 5.70253 0.599904 0
M  V30 7564 N 713.74 6.90368 0.579985 0
M  V30 7565 N 715.533 5.58399 0.643953 0
M  V30 7566 H 707.684 1.97547 -0.780306 0
M  V30 7567 H 709.947 0.902758 -0.289363 0
M  V30 7568 H 709.653 3.48201 -0.494903 0
M  V30 7569 H 709.527 3.55756 1.2537 0
M  V30 7570 H 711.914 2.58148 1.42982 0
M  V30 7571 H 711.995 2.53568 -0.337148 0
M  V30 7572 H 711.639 5.06348 -0.396701 0
M  V30 7573 H 711.569 5.08105 1.38335 0
M  V30 7574 H 714.06 3.73144 0.597639 0
M  V30 7575 H 714.373 7.70462 0.600741 0
M  V30 7576 H 712.718 6.92843 0.547191 0
M  V30 7577 H 715.909 4.63467 0.656975 0
M  V30 7578 H 716.082 6.44644 0.658616 0
M  V30 7579 N 709.488 -0.375779 1.53054 0
M  V30 7580 C 710.728 -1.12828 1.70438 0
M  V30 7581 C 711.092 -1.86854 0.441527 0
M  V30 7582 O 712.293 -2.64261 0.491908 0
M  V30 7583 C 710.564 -2.07009 2.91345 0
M  V30 7584 S 712.123 -2.89917 3.29383 0
M  V30 7585 H 708.941 -0.381736 0.599832 0
M  V30 7586 H 711.543 -0.4109 1.91133 0
M  V30 7587 H 710.247 -1.51371 3.81464 0
M  V30 7588 H 709.778 -2.83236 2.73022 0
M  V30 7589 H 711.793 -4.0924 2.80601 0
M  V30 7590 N 710.966 -1.44241 -0.634997 0
M  V30 7591 C 712.215 -1.46102 -1.39058 0
M  V30 7592 C 712.528 -0.0959909 -1.95364 0
M  V30 7593 O 713.734 0.00788751 -2.71499 0
M  V30 7594 C 712.19 -2.57195 -2.51751 0
M  V30 7595 C 711.798 -3.99888 -2.01974 0
M  V30 7596 C 713.542 -2.68272 -3.28984 0
M  V30 7597 C 711.449 -5.02412 -3.11987 0
M  V30 7598 H 710.379 -0.543556 -0.522554 0
M  V30 7599 H 713.03 -1.70294 -0.683538 0
M  V30 7600 H 711.412 -2.26237 -3.25012 0
M  V30 7601 H 712.586 -4.40396 -1.35604 0
M  V30 7602 H 710.901 -3.93019 -1.37568 0
M  V30 7603 H 713.498 -3.42042 -4.10988 0
M  V30 7604 H 713.841 -1.73957 -3.78212 0
M  V30 7605 H 714.374 -2.98622 -2.62812 0
M  V30 7606 H 711.113 -5.98342 -2.67707 0
M  V30 7607 H 710.633 -4.66501 -3.77011 0
M  V30 7608 H 712.312 -5.25939 -3.76825 0
M  V30 7609 N 712.444 0.87505 -1.31075 0
M  V30 7610 C 713.392 2.00317 -1.18219 0
M  V30 7611 C 714.386 1.69152 -0.0916872 0
M  V30 7612 O 715.592 1.7821 -0.253229 0
M  V30 7613 H 711.967 0.656981 -0.365895 0
M  V30 7614 H 713.938 2.08293 -2.13674 0
M  V30 7615 C 712.687 3.35821 -0.901095 0
M  V30 7616 H 712.01 3.6032 -1.73233 0
M  V30 7617 H 713.45 4.15366 -0.851295 0
M  V30 7618 C 711.909 3.34563 0.396114 0
M  V30 7619 O 712.439 3.75971 1.41452 0
M  V30 7620 N 710.645 2.87681 0.410832 0
M  V30 7621 H 710.192 2.54179 -0.418415 0
M  V30 7622 H 710.15 2.87223 1.27869 0
M  V30 7623 N 713.922 1.13953 1.08869 0
M  V30 7624 C 715.169 0.90481 1.81161 0
M  V30 7625 C 715.497 -0.568824 1.85996 0
M  V30 7626 O 714.752 -1.43723 1.32823 0
M  V30 7627 C 715.051 1.44495 3.26888 0
M  V30 7628 C 714.717 2.93641 3.42178 0
M  V30 7629 C 713.379 3.34361 3.46059 0
M  V30 7630 C 715.731 3.89568 3.46246 0
M  V30 7631 C 713.059 4.69681 3.51592 0
M  V30 7632 C 715.411 5.2474 3.53314 0
M  V30 7633 C 714.075 5.64979 3.55465 0
M  V30 7634 H 713.345 0.331094 0.662916 0
M  V30 7635 H 715.992 1.42242 1.28217 0
M  V30 7636 H 714.297 0.848169 3.82509 0
M  V30 7637 H 715.994 1.23934 3.81368 0
M  V30 7638 H 712.584 2.61156 3.39846 0
M  V30 7639 H 716.768 3.59192 3.42483 0
M  V30 7640 H 712.024 5.00224 3.51547 0
M  V30 7641 H 716.198 5.98882 3.55406 0
M  V30 7642 H 713.825 6.69821 3.59505 0
M  V30 7643 N 715.4 -1.26948 0.933913 0
M  V30 7644 C 716.628 -1.98186 0.59414 0
M  V30 7645 C 717.043 -1.69614 -0.829257 0
M  V30 7646 O 716.4 -0.960213 -1.55197 0
M  V30 7647 C 716.451 -3.52123 0.818026 0
M  V30 7648 O 716.172 -3.79698 2.18543 0
M  V30 7649 C 717.673 -4.40608 0.48781 0
M  V30 7650 H 714.893 -0.632305 0.224569 0
M  V30 7651 H 717.437 -1.61646 1.25263 0
M  V30 7652 H 715.592 -3.86851 0.206246 0
M  V30 7653 H 716.006 -4.7426 2.24005 0
M  V30 7654 H 717.48 -5.47606 0.695126 0
M  V30 7655 H 717.957 -4.35394 -0.576913 0
M  V30 7656 H 718.563 -4.11411 1.078 0
M  V30 7657 N 716.879 -0.700114 -1.41195 0
M  V30 7658 C 718.295 -0.372114 -1.55201 0
M  V30 7659 C 718.495 1.12053 -1.6747 0
M  V30 7660 O 717.551 1.90642 -1.65566 0
M  V30 7661 C 718.864 -1.12462 -2.78878 0
M  V30 7662 C 720.412 -1.10941 -2.92679 0
M  V30 7663 C 720.887 -1.84376 -4.19249 0
M  V30 7664 N 722.378 -1.81368 -4.26216 0
M  V30 7665 C 723.113 -2.35024 -5.23021 0
M  V30 7666 N 722.609 -2.9717 -6.25829 0
M  V30 7667 N 724.402 -2.25254 -5.14992 0
M  V30 7668 H 716.553 -1.66816 -1.31477 0
M  V30 7669 H 718.816 -0.704223 -0.634644 0
M  V30 7670 H 718.522 -2.17937 -2.76037 0
M  V30 7671 H 718.396 -0.706152 -3.70531 0
M  V30 7672 H 720.783 -0.062911 -2.95033 0
M  V30 7673 H 720.864 -1.56698 -2.02187 0
M  V30 7674 H 720.508 -2.89008 -4.17656 0
M  V30 7675 H 720.438 -1.3605 -5.08722 0
M  V30 7676 H 722.929 -1.36062 -3.52556 0
M  V30 7677 H 723.242 -3.35668 -6.96094 0
M  V30 7678 H 721.587 -3.01249 -6.26318 0
M  V30 7679 H 724.778 -1.76372 -4.33602 0
M  V30 7680 H 724.951 -2.67373 -5.90268 0
M  V30 7681 N 718.357 1.51182 -0.445186 0
M  V30 7682 C 719.603 2.02452 0.11882 0
M  V30 7683 C 719.936 1.32824 1.41673 0
M  V30 7684 O 719.211 0.445637 1.89326 0
M  V30 7685 C 719.494 3.5859 0.329475 0
M  V30 7686 C 719.347 4.38823 -0.987638 0
M  V30 7687 C 720.666 4.26241 1.09575 0
M  V30 7688 H 717.785 0.735819 0.0417092 0
M  V30 7689 H 720.427 1.80747 -0.585718 0
M  V30 7690 H 718.577 3.77214 0.9296 0
M  V30 7691 H 720.249 4.3183 -1.62235 0
M  V30 7692 H 718.492 4.03594 -1.59041 0
M  V30 7693 H 719.163 5.46257 -0.794192 0
M  V30 7694 H 721.639 4.11934 0.587328 0
M  V30 7695 H 720.515 5.35354 1.21191 0
M  V30 7696 H 720.776 3.87635 2.12584 0
M  V30 7697 N 719.835 0.176821 1.56605 0
M  V30 7698 C 720.782 -0.751312 2.18229 0
M  V30 7699 C 721.752 -1.22297 1.12395 0
M  V30 7700 O 722.937 -1.29015 1.40569 0
M  V30 7701 C 720.077 -1.97291 2.83143 0
M  V30 7702 C 719.19 -1.54431 4.03454 0
M  V30 7703 C 718.325 -2.72 4.56278 0
M  V30 7704 C 717.364 -2.25657 5.68986 0
M  V30 7705 N 716.501 -3.36338 6.16296 0
M  V30 7706 H 721.341 -0.219033 2.97194 0
M  V30 7707 H 718.878 -0.0963803 1.46784 0
M  V30 7708 H 720.836 -2.68949 3.1894 0
M  V30 7709 H 719.466 -2.4788 2.06773 0
M  V30 7710 H 718.518 -0.724273 3.73441 0
M  V30 7711 H 719.83 -1.16417 4.85024 0
M  V30 7712 H 718.984 -3.51806 4.94285 0
M  V30 7713 H 717.723 -3.13277 3.73777 0
M  V30 7714 H 716.728 -1.44299 5.30526 0
M  V30 7715 H 717.953 -1.85432 6.53293 0
M  V30 7716 H 715.899 -3.7718 5.36723 0
M  V30 7717 H 715.816 -3.02435 6.9287 0
M  V30 7718 H 717.084 -4.16413 6.58954 0
M  V30 7719 N 721.313 -1.57302 -0.09688 0
M  V30 7720 C 722.261 -2.02942 -1.13654 0
M  V30 7721 C 723.255 -0.930173 -1.41577 0
M  V30 7722 O 724.461 -1.11535 -1.41279 0
M  V30 7723 H 720.836 -0.646726 -0.383731 0
M  V30 7724 H 722.807 -2.89452 -0.725267 0
M  V30 7725 C 721.556 -2.46815 -2.44903 0
M  V30 7726 H 720.879 -3.30979 -2.24261 0
M  V30 7727 H 722.319 -2.82527 -3.16156 0
M  V30 7728 C 720.778 -1.34071 -3.09074 0
M  V30 7729 O 721.308 -0.668856 -3.96092 0
M  V30 7730 N 719.514 -1.09214 -2.69296 0
M  V30 7731 H 719.061 -1.64029 -1.98626 0
M  V30 7732 H 719.019 -0.339785 -3.12559 0
M  V30 7733 N 722.791 0.367657 -1.53252 0
M  V30 7734 C 723.739 1.47061 -1.8021 0
M  V30 7735 C 724.733 1.55539 -0.671112 0
M  V30 7736 O 725.939 1.58451 -0.854014 0
M  V30 7737 H 722.314 0.489868 -0.570555 0
M  V30 7738 H 724.285 1.21527 -2.72532 0
M  V30 7739 C 723.034 2.83924 -2.00706 0
M  V30 7740 H 722.357 2.78158 -2.87172 0
M  V30 7741 H 723.797 3.60281 -2.23547 0
M  V30 7742 C 722.256 3.27613 -0.785568 0
M  V30 7743 O 722.786 4.01691 0.0267459 0
M  V30 7744 N 720.992 2.84134 -0.609597 0
M  V30 7745 H 720.539 2.24017 -1.27178 0
M  V30 7746 H 720.497 3.13723 0.206281 0
M  V30 7747 N 724.269 1.44576 0.627338 0
M  V30 7748 C 725.201 1.47724 1.75243 0
M  V30 7749 C 726.214 0.370193 1.58535 0
M  V30 7750 O 727.403 0.636151 1.66779 0
M  V30 7751 C 724.503 1.2991 3.13012 0
M  V30 7752 C 723.676 2.5393 3.56143 0
M  V30 7753 C 722.735 2.30961 4.72804 0
M  V30 7754 O 721.761 3.04469 4.80923 0
M  V30 7755 N 722.963 1.34261 5.6476 0
M  V30 7756 H 725.728 2.44718 1.73012 0
M  V30 7757 H 723.289 1.40064 0.812022 0
M  V30 7758 H 725.281 1.12385 3.88782 0
M  V30 7759 H 723.851 0.412668 3.09864 0
M  V30 7760 H 723.071 2.86707 2.70542 0
M  V30 7761 H 724.359 3.36411 3.81713 0
M  V30 7762 H 723.757 0.735573 5.60897 0
M  V30 7763 H 722.314 1.22713 6.40144 0
M  V30 7764 N 725.747 -0.868086 1.31537 0
M  V30 7765 C 727.158 -1.437 1.19195 0
M  V30 7766 C 727.509 -1.95169 -0.200842 0
M  V30 7767 O 726.634 -1.86432 -1.09872 0
M  V30 7768 C 727.229 -2.612 2.15778 0
M  V30 7769 C 725.788 -3.1413 2.07363 0
M  V30 7770 C 724.935 -1.86845 2.049 0
M  V30 7771 H 727.886 -0.676457 1.43561 0
M  V30 7772 H 727.907 -3.37948 1.74847 0
M  V30 7773 H 727.419 -2.23709 3.17137 0
M  V30 7774 H 725.52 -3.56238 1.09204 0
M  V30 7775 H 725.633 -3.76285 2.96557 0
M  V30 7776 H 723.997 -2.05886 1.49943 0
M  V30 7777 H 724.78 -1.51589 3.08019 0
M  V30 7778 N 727.225 -1.14528 -1.08264 0
M  V30 7779 C 728.188 -0.83632 -2.13397 0
M  V30 7780 C 729.188 0.159715 -1.60005 0
M  V30 7781 O 730.378 -0.0688098 -1.74064 0
M  V30 7782 C 727.51 -0.246973 -3.40004 0
M  V30 7783 H 728.703 -1.76808 -2.42237 0
M  V30 7784 H 726.256 -0.951509 -1.24 0
M  V30 7785 H 726.991 0.693436 -3.168 0
M  V30 7786 H 726.776 -0.964412 -3.80055 0
M  V30 7787 H 728.266 -0.0480679 -4.17572 0
M  V30 7788 N 728.703 1.26451 -0.940633 0
M  V30 7789 C 729.65 2.264 -0.448497 0
M  V30 7790 C 730.62 1.5866 0.491546 0
M  V30 7791 O 731.805 1.86389 0.407874 0
M  V30 7792 C 728.945 3.43956 0.280715 0
M  V30 7793 C 728.058 4.26374 -0.694937 0
M  V30 7794 C 727.193 5.31171 0.0554186 0
M  V30 7795 C 726.232 6.05266 -0.912091 0
M  V30 7796 N 725.369 7.01833 -0.193524 0
M  V30 7797 H 730.209 2.67869 -1.30576 0
M  V30 7798 H 727.746 1.31707 -0.655112 0
M  V30 7799 H 729.704 4.10941 0.71994 0
M  V30 7800 H 728.334 3.03403 1.10212 0
M  V30 7801 H 727.386 3.59183 -1.25267 0
M  V30 7802 H 728.698 4.77748 -1.43382 0
M  V30 7803 H 727.852 6.04166 0.553951 0
M  V30 7804 H 726.591 4.80634 0.827183 0
M  V30 7805 H 725.596 5.31099 -1.42175 0
M  V30 7806 H 726.821 6.57893 -1.68385 0
M  V30 7807 H 724.767 6.53607 0.559758 0
M  V30 7808 H 724.684 7.50957 -0.871744 0
M  V30 7809 H 725.952 7.78983 0.283932 0
M  V30 7810 N 730.181 0.707592 1.40822 0
M  V30 7811 C 731.411 0.252706 2.05049 0
M  V30 7812 C 731.819 -1.10758 1.53393 0
M  V30 7813 O 731.162 -1.70567 0.682097 0
M  V30 7814 C 731.224 0.146001 3.59203 0
M  V30 7815 C 730.888 1.44027 4.33711 0
M  V30 7816 C 731.885 2.38058 4.62195 0
M  V30 7817 C 729.57 1.69698 4.72766 0
M  V30 7818 C 731.564 3.56013 5.28709 0
M  V30 7819 C 729.251 2.87936 5.39014 0
M  V30 7820 C 730.249 3.80915 5.66915 0
M  V30 7821 O 729.937 4.9708 6.31796 0
M  V30 7822 H 729.669 0.112784 0.666525 0
M  V30 7823 H 732.223 0.96417 1.81364 0
M  V30 7824 H 730.453 -0.621338 3.81676 0
M  V30 7825 H 732.142 -0.273275 4.04979 0
M  V30 7826 H 732.908 2.19487 4.32493 0
M  V30 7827 H 728.787 0.981835 4.50423 0
M  V30 7828 H 732.331 4.28604 5.50404 0
M  V30 7829 H 728.228 3.06419 5.68135 0
M  V30 7830 H 728.996 4.97053 6.50293 0
M  V30 7831 N 731.66 -1.50943 0.453197 0
M  V30 7832 C 733.071 -1.86699 -0.00619892 0
M  V30 7833 C 733.422 -1.3693 -1.40515 0
M  V30 7834 O 732.547 -0.726715 -2.03833 0
M  V30 7835 C 733.142 -3.38795 -0.018025 0
M  V30 7836 C 731.701 -3.74028 -0.421885 0
M  V30 7837 C 730.848 -2.74752 0.375087 0
M  V30 7838 H 733.799 -1.43942 0.668317 0
M  V30 7839 H 733.82 -3.71468 -0.824125 0
M  V30 7840 H 733.332 -3.74988 1.00028 0
M  V30 7841 H 731.433 -3.43431 -1.44521 0
M  V30 7842 H 731.546 -4.78908 -0.135664 0
M  V30 7843 H 729.91 -2.5414 -0.168794 0
M  V30 7844 H 730.693 -3.13787 1.39256 0
M  V30 7845 N 733.138 -0.185124 -1.56509 0
M  V30 7846 C 734.068 0.735098 -2.21627 0
M  V30 7847 C 735.049 1.2288 -1.1762 0
M  V30 7848 O 736.234 1.27945 -1.46095 0
M  V30 7849 C 733.364 1.95889 -2.86783 0
M  V30 7850 C 732.318 1.6005 -3.96948 0
M  V30 7851 C 731.644 2.90009 -4.4922 0
M  V30 7852 C 732.944 0.818008 -5.15855 0
M  V30 7853 H 734.638 0.192274 -2.98782 0
M  V30 7854 H 732.184 0.0910393 -1.43712 0
M  V30 7855 H 734.137 2.60779 -3.31017 0
M  V30 7856 H 732.861 2.52608 -2.07018 0
M  V30 7857 H 731.52 0.975237 -3.5339 0
M  V30 7858 H 731.168 3.44797 -3.6623 0
M  V30 7859 H 730.868 2.66778 -5.23549 0
M  V30 7860 H 732.392 3.55904 -4.9615 0
M  V30 7861 H 733.806 1.36979 -5.56695 0
M  V30 7862 H 732.203 0.684207 -5.96187 0
M  V30 7863 H 733.273 -0.182939 -4.84555 0
M  V30 7864 N 734.616 1.57351 0.0885366 0
M  V30 7865 C 735.564 2.03542 1.12576 0
M  V30 7866 C 736.558 0.937668 1.41082 0
M  V30 7867 O 737.764 1.12283 1.40686 0
M  V30 7868 H 734.139 0.648752 0.380296 0
M  V30 7869 H 736.11 2.89833 0.709906 0
M  V30 7870 C 734.859 2.4811 2.43591 0
M  V30 7871 H 734.182 3.32164 2.22502 0
M  V30 7872 H 735.622 2.842 3.14653 0
M  V30 7873 C 734.081 1.35708 3.08359 0
M  V30 7874 O 734.611 0.689852 3.95732 0
M  V30 7875 N 732.817 1.10641 2.68713 0
M  V30 7876 H 732.364 1.6508 1.97753 0
M  V30 7877 H 732.322 0.356355 3.12374 0
M  V30 7878 N 736.094 -0.359525 1.53444 0
M  V30 7879 C 737.042 -1.46104 1.80987 0
M  V30 7880 C 738.036 -1.55181 0.679351 0
M  V30 7881 O 739.242 -1.57995 0.862405 0
M  V30 7882 H 735.617 -0.486835 0.573145 0
M  V30 7883 H 737.588 -1.2008 2.73173 0
M  V30 7884 C 736.337 -2.82855 2.02208 0
M  V30 7885 H 735.66 -2.76631 2.88644 0
M  V30 7886 H 737.1 -3.59091 2.25455 0
M  V30 7887 C 735.559 -3.27192 0.802931 0
M  V30 7888 O 736.089 -4.017 -0.00544286 0
M  V30 7889 N 734.295 -2.83807 0.624657 0
M  V30 7890 H 733.842 -2.23339 1.28364 0
M  V30 7891 H 733.8 -3.13828 -0.189641 0
M  V30 7892 N 737.572 -1.44907 -0.619662 0
M  V30 7893 C 738.535 -1.52282 -1.71297 0
M  V30 7894 C 739.535 -0.40359 -1.55653 0
M  V30 7895 O 740.725 -0.666638 -1.6094 0
M  V30 7896 C 737.857 -1.40778 -3.10474 0
M  V30 7897 H 739.05 -2.49683 -1.66128 0
M  V30 7898 H 736.603 -1.32168 -0.834339 0
M  V30 7899 H 737.338 -0.445156 -3.2123 0
M  V30 7900 H 737.123 -2.21947 -3.23237 0
M  V30 7901 H 738.613 -1.48946 -3.90135 0
M  V30 7902 N 739.05 0.861098 -1.31996 0
M  V30 7903 C 740.28 1.64501 -1.24992 0
M  V30 7904 C 740.688 1.88288 0.185576 0
M  V30 7905 O 740.031 1.44756 1.131 0
M  V30 7906 C 740.093 3.03098 -1.93319 0
M  V30 7907 C 739.757 3.02381 -3.42658 0
M  V30 7908 C 740.754 2.79696 -4.38254 0
M  V30 7909 C 738.439 3.23221 -3.84491 0
M  V30 7910 C 740.433 2.77843 -5.73657 0
M  V30 7911 C 738.12 3.20996 -5.20005 0
M  V30 7912 C 739.118 2.98335 -6.14398 0
M  V30 7913 O 738.806 2.95971 -7.47433 0
M  V30 7914 H 738.538 0.519309 -0.432775 0
M  V30 7915 H 741.092 1.08241 -1.74565 0
M  V30 7916 H 739.322 3.61121 -1.38306 0
M  V30 7917 H 741.011 3.63751 -1.8011 0
M  V30 7918 H 741.777 2.63368 -4.07262 0
M  V30 7919 H 737.656 3.39887 -3.11445 0
M  V30 7920 H 741.2 2.60074 -6.47308 0
M  V30 7921 H 737.097 3.36865 -5.50629 0
M  V30 7922 H 737.865 3.1197 -7.56714 0
M  V30 7923 N 740.528 1.15101 1.07655 0
M  V30 7924 C 741.478 0.813448 2.12995 0
M  V30 7925 C 742.462 -0.200899 1.59641 0
M  V30 7926 O 743.654 -0.00209918 1.77 0
M  V30 7927 C 740.783 0.301078 3.41977 0
M  V30 7928 C 739.869 1.3454 4.02194 0
M  V30 7929 N 740.26 2.55181 4.36711 0
M  V30 7930 C 738.558 1.19742 4.29625 0
M  V30 7931 C 739.259 3.22094 4.84387 0
M  V30 7932 N 738.235 2.49486 4.82968 0
M  V30 7933 H 742.037 1.73105 2.37511 0
M  V30 7934 H 739.551 1.03601 1.25063 0
M  V30 7935 H 741.548 0.040914 4.1688 0
M  V30 7936 H 740.208 -0.610629 3.18907 0
M  V30 7937 H 741.219 2.92349 4.27496 0
M  V30 7938 H 737.896 0.345353 4.16069 0
M  V30 7939 H 739.286 4.24996 5.20411 0
M  V30 7940 N 742.006 -1.2595 0.947325 0
M  V30 7941 C 743.234 -1.97544 0.615127 0
M  V30 7942 C 743.649 -1.70484 -0.811221 0
M  V30 7943 O 743.006 -0.97662 -1.5417 0
M  V30 7944 C 743.057 -3.51236 0.855328 0
M  V30 7945 O 742.778 -3.77359 2.22558 0
M  V30 7946 C 744.279 -4.40066 0.534515 0
M  V30 7947 H 741.499 -0.629888 0.231263 0
M  V30 7948 H 744.043 -1.60308 1.26971 0
M  V30 7949 H 742.198 -3.8661 0.247266 0
M  V30 7950 H 742.612 -4.71857 2.29022 0
M  V30 7951 H 744.086 -5.46838 0.753168 0
M  V30 7952 H 744.563 -4.35982 -0.530701 0
M  V30 7953 H 745.169 -4.10245 1.12158 0
M  V30 7954 N 743.484 -0.715051 -1.40445 0
M  V30 7955 C 744.709 -0.26254 -2.05732 0
M  V30 7956 C 745.134 1.08691 -1.53519 0
M  V30 7957 O 744.492 1.68453 -0.670328 0
M  V30 7958 C 744.54 -0.25195 -3.59719 0
M  V30 7959 O 743.644 0.766998 -4.05205 0
M  V30 7960 H 742.985 -0.123398 -0.652433 0
M  V30 7961 H 745.515 -0.975382 -1.79854 0
M  V30 7962 H 745.525 -0.0894537 -4.07902 0
M  V30 7963 H 744.2 -1.23672 -3.97087 0
M  V30 7964 H 742.777 0.572269 -3.68483 0
M  V30 7965 N 744.962 1.50701 -0.461195 0
M  V30 7966 C 746.187 2.07171 0.0974773 0
M  V30 7967 C 746.612 1.32391 1.3362 0
M  V30 7968 O 745.97 0.368676 1.77512 0
M  V30 7969 C 746.018 3.58651 0.374409 0
M  V30 7970 O 745.122 3.85816 1.4567 0
M  V30 7971 H 744.463 0.663944 -0.00862047 0
M  V30 7972 H 746.993 1.94021 -0.649394 0
M  V30 7973 H 747.003 4.03295 0.617843 0
M  V30 7974 H 745.678 4.12498 -0.530829 0
M  V30 7975 H 744.255 3.53018 1.20136 0
M  V30 7976 N 746.441 0.193421 1.56409 0
M  V30 7977 C 747.852 -0.319471 1.83946 0
M  V30 7978 C 748.203 -1.61505 1.11403 0
M  V30 7979 O 747.328 -2.13139 0.374289 0
M  V30 7980 C 747.923 -0.586411 3.33686 0
M  V30 7981 C 746.482 -1.04368 3.61641 0
M  V30 7982 C 745.629 -0.0913834 2.77149 0
M  V30 7983 H 748.58 0.417242 1.53117 0
M  V30 7984 H 748.601 -1.43591 3.52366 0
M  V30 7985 H 748.113 0.356701 3.86457 0
M  V30 7986 H 746.214 -2.00113 3.14302 0
M  V30 7987 H 746.327 -0.937549 4.69837 0
M  V30 7988 H 744.691 -0.592954 2.47702 0
M  V30 7989 H 745.474 0.846142 3.32709 0
M  V30 7990 N 747.919 -1.57396 -0.0801906 0
M  V30 7991 C 749.33 -1.75642 -0.633002 0
M  V30 7992 C 749.681 -0.817708 -1.78348 0
M  V30 7993 O 748.806 0.000233743 -2.164 0
M  V30 7994 C 749.401 -3.18502 -1.15507 0
M  V30 7995 C 747.96 -3.38121 -1.65381 0
M  V30 7996 C 747.107 -2.71386 -0.569661 0
M  V30 7997 H 750.058 -1.58027 0.145949 0
M  V30 7998 H 750.079 -3.22198 -2.02408 0
M  V30 7999 H 749.591 -3.86799 -0.317515 0
M  V30 8000 H 747.692 -2.74926 -2.51488 0
M  V30 8001 H 747.805 -4.46521 -1.73654 0
M  V30 8002 H 746.169 -2.33702 -1.0127 0
M  V30 8003 H 746.952 -3.42332 0.257561 0
M  V30 8004 N 749.397 0.351382 -1.53633 0
M  V30 8005 C 750.808 0.927429 -1.62036 0
M  V30 8006 C 751.159 1.89809 -0.496706 0
M  V30 8007 O 750.284 2.1313 0.374749 0
M  V30 8008 C 750.879 1.68886 -2.93706 0
M  V30 8009 C 749.438 2.21404 -3.04397 0
M  V30 8010 C 748.585 1.03075 -2.57431 0
M  V30 8011 H 751.536 0.129748 -1.58169 0
M  V30 8012 H 751.557 2.55116 -2.82305 0
M  V30 8013 H 751.069 0.982149 -3.75467 0
M  V30 8014 H 749.17 2.95274 -2.27253 0
M  V30 8015 H 749.283 2.48312 -4.09729 0
M  V30 8016 H 747.647 1.40188 -2.12649 0
M  V30 8017 H 748.43 0.338793 -3.41624 0
M  V30 8018 N 750.875 1.45233 0.611969 0
M  V30 8019 C 751.838 1.53189 1.70487 0
M  V30 8020 C 752.838 0.411839 1.55437 0
M  V30 8021 O 754.028 0.675164 1.60584 0
M  V30 8022 C 751.16 1.42422 3.09723 0
M  V30 8023 H 752.353 2.5056 1.64802 0
M  V30 8024 H 749.906 1.32609 0.827318 0
M  V30 8025 H 750.641 0.462185 3.2099 0
M  V30 8026 H 750.426 2.23658 3.22055 0
M  V30 8027 H 751.916 1.51012 3.89339 0
M  V30 8028 N 752.353 -0.854086 1.3245 0
M  V30 8029 C 753.764 -1.42427 1.20712 0
M  V30 8030 C 754.115 -1.95371 -0.18013 0
M  V30 8031 O 753.24 -1.87587 -1.07889 0
M  V30 8032 C 753.835 -2.58897 2.18536 0
M  V30 8033 C 752.394 -3.11913 2.10683 0
M  V30 8034 C 751.541 -1.84661 2.06871 0
M  V30 8035 H 754.492 -0.661192 1.4427 0
M  V30 8036 H 754.513 -3.36074 1.78422 0
M  V30 8037 H 754.025 -2.20333 3.19492 0
M  V30 8038 H 752.126 -3.55059 1.12977 0
M  V30 8039 H 752.239 -3.73119 3.00532 0
M  V30 8040 H 750.603 -2.04285 1.52118 0
M  V30 8041 H 751.386 -1.48314 3.09609 0
M  V30 8042 N 753.831 -1.1567 -1.07043 0
M  V30 8043 C 755.08 -0.928039 -1.79082 0
M  V30 8044 C 755.393 0.545968 -1.87826 0
M  V30 8045 O 756.599 0.892308 -2.56418 0
M  V30 8046 C 755.055 -1.61103 -3.21829 0
M  V30 8047 C 754.663 -3.12228 -3.21275 0
M  V30 8048 C 756.407 -1.46404 -3.98455 0
M  V30 8049 C 754.314 -3.733 -4.58695 0
M  V30 8050 H 753.244 -0.34357 -0.671175 0
M  V30 8051 H 755.895 -1.38718 -1.20123 0
M  V30 8052 H 754.277 -1.07958 -3.81 0
M  V30 8053 H 755.451 -3.72155 -2.71731 0
M  V30 8054 H 753.766 -3.26725 -2.58147 0
M  V30 8055 H 756.363 -1.8942 -5.00024 0
M  V30 8056 H 756.706 -0.41195 -4.14257 0
M  V30 8057 H 757.239 -1.96663 -3.45787 0
M  V30 8058 H 753.978 -4.78423 -4.48098 0
M  V30 8059 H 753.498 -3.18157 -5.08465 0
M  V30 8060 H 755.177 -3.7441 -5.27661 0
M  V30 8061 N 755.309 1.25446 -0.953992 0
M  V30 8062 C 756.539 1.96929 -0.624688 0
M  V30 8063 C 756.947 1.71112 0.807292 0
M  V30 8064 O 756.29 0.983512 1.55154 0
M  V30 8065 C 756.352 3.50425 -0.802676 0
M  V30 8066 C 756.016 3.99916 -2.21169 0
M  V30 8067 C 757.013 4.10662 -3.18831 0
M  V30 8068 C 754.698 4.33598 -2.53571 0
M  V30 8069 C 756.692 4.54401 -4.46988 0
M  V30 8070 C 754.379 4.77024 -3.81958 0
M  V30 8071 C 755.377 4.87388 -4.78478 0
M  V30 8072 O 755.065 5.29851 -6.04577 0
M  V30 8073 H 754.797 0.634511 -0.233179 0
M  V30 8074 H 757.351 1.60591 -1.28061 0
M  V30 8075 H 755.581 3.86596 -0.0896044 0
M  V30 8076 H 757.27 4.03117 -0.47452 0
M  V30 8077 H 758.036 3.84872 -2.95124 0
M  V30 8078 H 753.915 4.24757 -1.79171 0
M  V30 8079 H 757.459 4.62406 -5.22328 0
M  V30 8080 H 753.356 5.02258 -4.05471 0
M  V30 8081 H 754.124 5.48039 -6.07944 0
M  V30 8082 N 756.787 0.722489 1.40064 0
M  V30 8083 C 758.015 0.274838 2.05066 0
M  V30 8084 C 758.43 -1.08586 1.54449 0
M  V30 8085 O 757.787 -1.68375 0.704003 0
M  V30 8086 C 757.838 0.253673 3.60609 0
M  V30 8087 O 757.559 1.56064 4.0936 0
M  V30 8088 C 759.06 -0.211684 4.42794 0
M  V30 8089 H 756.28 0.12226 0.659768 0
M  V30 8090 H 758.824 0.982632 1.79345 0
M  V30 8091 H 756.979 -0.405137 3.85276 0
M  V30 8092 H 757.393 1.46576 5.03603 0
M  V30 8093 H 758.867 -0.175341 5.51721 0
M  V30 8094 H 759.344 -1.25493 4.2089 0
M  V30 8095 H 759.95 0.4171 4.2325 0
M  V30 8096 N 758.265 -1.50454 0.469181 0
M  V30 8097 C 759.676 -1.86695 0.0136034 0
M  V30 8098 C 760.027 -1.38413 -1.39055 0
M  V30 8099 O 759.152 -0.748294 -2.03051 0
M  V30 8100 C 759.747 -3.38795 0.0179098 0
M  V30 8101 C 758.306 -3.74455 -0.382191 0
M  V30 8102 C 757.453 -2.74338 0.404207 0
M  V30 8103 H 760.404 -1.43225 0.683547 0
M  V30 8104 H 760.425 -3.72321 -0.78468 0
M  V30 8105 H 759.937 -3.73906 1.04 0
M  V30 8106 H 758.038 -3.44944 -1.4087 0
M  V30 8107 H 758.151 -4.79025 -0.084862 0
M  V30 8108 H 756.515 -2.54305 -0.141829 0
M  V30 8109 H 757.298 -3.12293 1.42577 0
M  V30 8110 N 759.743 -0.201713 -1.56304 0
M  V30 8111 C 761.154 0.309711 -1.84113 0
M  V30 8112 C 761.505 1.60912 -1.12258 0
M  V30 8113 O 760.63 2.12937 -0.385587 0
M  V30 8114 C 761.225 0.568706 -3.33993 0
M  V30 8115 C 759.784 1.02448 -3.6219 0
M  V30 8116 C 758.931 0.0766842 -2.77194 0
M  V30 8117 H 761.882 -0.425356 -1.52893 0
M  V30 8118 H 761.903 1.41721 -3.53122 0
M  V30 8119 H 761.415 -0.37719 -3.86263 0
M  V30 8120 H 759.516 1.98443 -3.15359 0
M  V30 8121 H 759.629 0.912619 -4.70328 0
M  V30 8122 H 757.993 0.579809 -2.48013 0
M  V30 8123 H 758.776 -0.863774 -3.32256 0
M  V30 8124 N 761.222 1.57436 0.0718424 0
M  V30 8125 C 762.633 1.75975 0.623678 0
M  V30 8126 C 762.984 0.827155 1.77912 0
M  V30 8127 O 762.109 0.0112425 2.16397 0
M  V30 8128 C 762.704 3.1911 1.13816 0
M  V30 8129 C 761.263 3.38994 1.63586 0
M  V30 8130 C 760.41 2.71684 0.555261 0
M  V30 8131 H 763.361 1.57948 -0.154328 0
M  V30 8132 H 763.382 3.23267 2.00696 0
M  V30 8133 H 762.894 3.86962 0.296998 0
M  V30 8134 H 760.995 2.76256 2.50027 0
M  V30 8135 H 761.108 4.47436 1.71283 0
M  V30 8136 H 759.472 2.34236 1.00029 0
M  V30 8137 H 760.255 3.42191 -0.275712 0
M  V30 8138 N 762.7 -0.34323 1.53817 0
M  V30 8139 C 764.111 -0.918823 1.62525 0
M  V30 8140 C 764.462 -1.89542 0.506765 0
M  V30 8141 O 763.587 -2.13326 -0.363441 0
M  V30 8142 C 764.182 -1.67326 2.94597 0
M  V30 8143 C 762.741 -2.19786 3.05567 0
M  V30 8144 C 761.888 -1.01708 2.57974 0
M  V30 8145 H 764.839 -0.121358 1.58235 0
M  V30 8146 H 764.86 -2.53615 2.83654 0
M  V30 8147 H 764.372 -0.962223 3.75983 0
M  V30 8148 H 762.473 -2.94065 2.28816 0
M  V30 8149 H 762.586 -2.46135 4.1104 0
M  V30 8150 H 760.95 -1.39058 2.13389 0
M  V30 8151 H 761.733 -0.320671 3.41799 0
M  V30 8152 N 764.178 -1.45556 -0.604258 0
M  V30 8153 C 765.141 -1.54091 -1.69672 0
M  V30 8154 C 766.141 -0.420076 -1.55216 0
M  V30 8155 O 767.331 -0.683671 -1.60224 0
M  V30 8156 C 764.463 -1.44063 -3.08964 0
M  V30 8157 H 765.656 -2.51431 -1.6347 0
M  V30 8158 H 763.209 -1.33046 -0.820273 0
M  V30 8159 H 763.944 -0.479201 -3.2074 0
M  V30 8160 H 763.729 -2.25362 -3.20865 0
M  V30 8161 H 765.219 -1.53075 -3.88533 0
M  V30 8162 N 765.656 0.84705 -1.32902 0
M  V30 8163 C 767.067 1.41785 -1.21466 0
M  V30 8164 C 767.418 1.95464 0.169767 0
M  V30 8165 O 766.543 1.88157 1.06892 0
M  V30 8166 C 767.138 2.57734 -2.19906 0
M  V30 8167 C 765.697 3.10791 -2.12334 0
M  V30 8168 C 764.844 1.83562 -2.07847 0
M  V30 8169 H 767.795 0.653532 -1.44619 0
M  V30 8170 H 767.816 3.35123 -1.80202 0
M  V30 8171 H 767.328 2.18635 -3.20656 0
M  V30 8172 H 765.429 3.54455 -1.14858 0
M  V30 8173 H 765.542 3.71519 -3.02506 0
M  V30 8174 H 763.906 2.03475 -1.53199 0
M  V30 8175 H 764.689 1.4667 -3.10392 0
M  V30 8176 N 767.134 1.16236 1.06428 0
M  V30 8177 C 768.084 0.835994 2.12121 0
M  V30 8178 C 769.068 -0.183955 1.59845 0
M  V30 8179 O 770.26 0.0166741 1.76992 0
M  V30 8180 C 767.389 0.337333 3.41639 0
M  V30 8181 C 766.475 1.38798 4.00744 0
M  V30 8182 N 766.866 2.59799 4.3398 0
M  V30 8183 C 765.164 1.24292 4.28331 0
M  V30 8184 C 765.865 3.27213 4.80943 0
M  V30 8185 N 764.841 2.54594 4.80294 0
M  V30 8186 H 768.643 1.75615 2.35662 0
M  V30 8187 H 766.157 1.04921 1.23957 0
M  V30 8188 H 768.154 0.0851274 4.16813 0
M  V30 8189 H 766.814 -0.57677 3.19536 0
M  V30 8190 H 767.825 2.96867 4.24371 0
M  V30 8191 H 764.502 0.389464 4.15679 0
M  V30 8192 H 765.892 4.30492 5.15874 0
M  V30 8193 N 768.612 -1.24939 0.960631 0
M  V30 8194 C 769.852 -1.94565 0.626414 0
M  V30 8195 C 770.216 -1.73505 -0.822184 0
M  V30 8196 O 771.417 -2.37105 -1.26628 0
M  V30 8197 C 769.688 -3.43631 0.982462 0
M  V30 8198 S 771.247 -4.32138 0.761726 0
M  V30 8199 H 768.065 -0.672757 0.230043 0
M  V30 8200 H 770.667 -1.51464 1.23608 0
M  V30 8201 H 769.371 -3.56463 2.03377 0
M  V30 8202 H 768.902 -3.91719 0.363286 0
M  V30 8203 H 770.917 -4.94859 -0.364493 0
M  V30 8204 N 770.09 -0.729906 -1.39679 0
M  V30 8205 C 771.501 -0.346241 -1.83461 0
M  V30 8206 C 771.852 1.1215 -1.60987 0
M  V30 8207 O 770.977 1.86456 -1.09832 0
M  V30 8208 C 771.572 -0.621656 -3.33048 0
M  V30 8209 C 770.131 -0.291543 -3.75269 0
M  V30 8210 C 769.278 -0.886844 -2.62736 0
M  V30 8211 H 772.229 -0.927949 -1.28743 0
M  V30 8212 H 772.25 0.108301 -3.80346 0
M  V30 8213 H 771.762 -1.68996 -3.49373 0
M  V30 8214 H 769.863 0.771133 -3.64533 0
M  V30 8215 H 769.976 -0.770544 -4.72863 0
M  V30 8216 H 768.34 -0.313839 -2.52759 0
M  V30 8217 H 769.123 -1.95971 -2.81869 0
M  V30 8218 N 771.568 1.50203 -0.477153 0
M  V30 8219 C 772.979 1.86685 -0.0235041 0
M  V30 8220 C 773.33 1.39148 1.38319 0
M  V30 8221 O 772.455 0.759051 2.02651 0
M  V30 8222 C 773.05 3.38781 -0.0358767 0
M  V30 8223 C 771.609 3.74652 0.362327 0
M  V30 8224 C 770.756 2.7412 -0.41875 0
M  V30 8225 H 773.707 1.4286 -0.691133 0
M  V30 8226 H 773.728 3.72732 0.764924 0
M  V30 8227 H 773.24 3.73349 -1.05981 0
M  V30 8228 H 771.341 3.45686 1.39039 0
M  V30 8229 H 771.454 4.79063 0.059457 0
M  V30 8230 H 769.818 2.54376 0.128341 0
M  V30 8231 H 770.601 3.11532 -1.44231 0
M  V30 8232 N 773.046 0.209999 1.56195 0
M  V30 8233 C 774.457 -0.299943 1.84275 0
M  V30 8234 C 774.808 -1.60314 1.1311 0
M  V30 8235 O 773.933 -2.1273 0.396874 0
M  V30 8236 C 774.528 -0.550986 3.3429 0
M  V30 8237 C 773.087 -1.00526 3.62728 0
M  V30 8238 C 772.234 -0.0619828 2.77231 0
M  V30 8239 H 775.185 0.433458 1.52666 0
M  V30 8240 H 775.206 -1.39846 3.53869 0
M  V30 8241 H 774.718 0.397669 3.86057 0
M  V30 8242 H 772.819 -1.96768 3.16407 0
M  V30 8243 H 772.932 -0.887664 4.70805 0
M  V30 8244 H 771.296 -0.566648 2.48317 0
M  V30 8245 H 772.079 0.881383 3.31793 0
M  V30 8246 N 774.524 -1.57472 -0.0634922 0
M  V30 8247 C 775.935 -1.76303 -0.614337 0
M  V30 8248 C 776.286 -0.836578 -1.77471 0
M  V30 8249 O 775.411 -0.0227184 -2.16388 0
M  V30 8250 C 776.006 -3.19709 -1.12122 0
M  V30 8251 C 774.565 -3.39856 -1.61786 0
M  V30 8252 C 773.712 -2.71975 -0.540845 0
M  V30 8253 H 776.663 -1.57864 0.162702 0
M  V30 8254 H 776.684 -3.24326 -1.98979 0
M  V30 8255 H 776.196 -3.87114 -0.276472 0
M  V30 8256 H 774.297 -2.77578 -2.48558 0
M  V30 8257 H 774.41 -4.48338 -1.68908 0
M  V30 8258 H 772.774 -2.34763 -0.987854 0
M  V30 8259 H 773.557 -3.4204 0.293856 0
M  V30 8260 N 776.003 0.335068 -1.53997 0
M  V30 8261 C 777.414 0.910191 -1.6301 0
M  V30 8262 C 777.765 1.89271 -0.516809 0
M  V30 8263 O 776.89 2.13516 0.352123 0
M  V30 8264 C 777.485 1.65761 -2.9548 0
M  V30 8265 C 776.044 2.18163 -3.06728 0
M  V30 8266 C 775.191 1.00338 -2.5851 0
M  V30 8267 H 778.142 0.112965 -1.58297 0
M  V30 8268 H 778.163 2.52107 -2.84995 0
M  V30 8269 H 777.675 0.94227 -3.76488 0
M  V30 8270 H 775.776 2.92847 -2.30372 0
M  V30 8271 H 775.889 2.43952 -4.1234 0
M  V30 8272 H 774.253 1.37925 -2.14124 0
M  V30 8273 H 775.036 0.30254 -3.41964 0
M  V30 8274 N 777.481 1.45874 0.596531 0
M  V30 8275 C 778.706 1.54247 1.38646 0
M  V30 8276 C 779.131 0.179571 1.87241 0
M  V30 8277 O 778.489 -0.837831 1.6078 0
M  V30 8278 C 778.537 2.54015 2.55946 0
M  V30 8279 O 777.641 2.06561 3.5694 0
M  V30 8280 H 776.982 0.519555 0.413471 0
M  V30 8281 H 779.512 1.91327 0.724936 0
M  V30 8282 H 779.522 2.73179 3.03047 0
M  V30 8283 H 778.197 3.52994 2.19928 0
M  V30 8284 H 776.774 1.97324 3.16414 0
M  V30 8285 N 778.959 -0.83999 1.33349 0
M  V30 8286 C 779.922 -1.93128 1.23426 0
M  V30 8287 C 780.922 -1.60065 0.153599 0
M  V30 8288 O 782.112 -1.69425 0.405049 0
M  V30 8289 C 779.244 -3.28761 0.901622 0
M  V30 8290 H 780.437 -2.03352 2.20427 0
M  V30 8291 H 777.99 -1.03194 1.17391 0
M  V30 8292 H 778.725 -3.24233 -0.0659337 0
M  V30 8293 H 778.51 -3.54138 1.68311 0
M  V30 8294 H 780 -4.08714 0.856913 0
M  V30 8295 N 780.437 -1.16799 -1.0581 0
M  V30 8296 C 781.848 -0.95945 -1.60161 0
M  V30 8297 C 782.199 0.49543 -1.89842 0
M  V30 8298 O 781.324 1.36957 -1.67546 0
M  V30 8299 C 781.919 -1.73527 -2.90987 0
M  V30 8300 C 780.478 -1.57158 -3.42021 0
M  V30 8301 C 779.625 -1.74089 -2.15843 0
M  V30 8302 H 782.576 -1.31598 -0.886992 0
M  V30 8303 H 782.597 -1.21397 -3.60615 0
M  V30 8304 H 782.109 -2.79411 -2.69353 0
M  V30 8305 H 780.21 -0.537361 -3.68705 0
M  V30 8306 H 780.323 -2.35858 -4.17022 0
M  V30 8307 H 778.687 -1.16874 -2.26302 0
M  V30 8308 H 779.47 -2.81371 -1.96686 0
M  V30 8309 N 781.915 1.24427 -0.967243 0
M  V30 8310 C 783.143 1.96541 -0.646477 0
M  V30 8311 C 783.558 1.71753 0.783996 0
M  V30 8312 O 782.915 1.00102 1.52597 0
M  V30 8313 C 782.966 3.4983 -0.911098 0
M  V30 8314 O 782.687 3.7377 -2.28534 0
M  V30 8315 C 784.188 4.3916 -0.604458 0
M  V30 8316 H 781.408 0.626129 -0.241255 0
M  V30 8317 H 783.952 1.58268 -1.29505 0
M  V30 8318 H 782.107 3.86168 -0.308741 0
M  V30 8319 H 782.521 4.68154 -2.365 0
M  V30 8320 H 783.995 5.4557 -0.840069 0
M  V30 8321 H 784.472 4.36771 0.461273 0
M  V30 8322 H 785.078 4.08409 -1.1867 0
M  V30 8323 N 783.393 0.737304 1.3929 0
M  V30 8324 C 784.804 0.355966 1.83275 0
M  V30 8325 C 785.155 -1.11295 1.6158 0
M  V30 8326 O 784.28 -1.85871 1.10819 0
M  V30 8327 C 784.875 0.63931 3.32713 0
M  V30 8328 C 783.434 0.31144 3.75109 0
M  V30 8329 C 782.581 0.900765 2.62262 0
M  V30 8330 H 785.532 0.934763 1.28249 0
M  V30 8331 H 785.553 -0.0881293 3.80398 0
M  V30 8332 H 785.065 1.70847 3.48472 0
M  V30 8333 H 783.166 -0.751791 3.64937 0
M  V30 8334 H 783.279 0.795611 4.72448 0
M  V30 8335 H 781.643 0.327239 2.52589 0
M  V30 8336 H 782.426 1.97463 2.80826 0
M  V30 8337 N 784.871 -1.49948 0.485112 0
M  V30 8338 C 786.282 -1.8667 0.0334041 0
M  V30 8339 C 786.633 -1.3988 -1.37579 0
M  V30 8340 O 785.758 -0.769788 -2.02245 0
M  V30 8341 C 786.353 -3.38757 0.0538426 0
M  V30 8342 C 784.912 -3.74839 -0.342453 0
M  V30 8343 C 784.059 -2.73894 0.433281 0
M  V30 8344 H 787.01 -1.42492 0.698699 0
M  V30 8345 H 787.031 -3.73132 -0.745146 0
M  V30 8346 H 786.543 -3.72782 1.07959 0
M  V30 8347 H 784.644 -3.46419 -1.37203 0
M  V30 8348 H 784.757 -4.79088 -0.0340503 0
M  V30 8349 H 783.121 -2.54441 -0.114849 0
M  V30 8350 H 783.904 -3.10763 1.45881 0
M  V30 8351 N 786.349 -0.21828 -1.56081 0
M  V30 8352 C 787.598 0.414644 -1.97392 0
M  V30 8353 C 787.911 1.61132 -1.10887 0
M  V30 8354 O 789.117 2.31355 -1.42082 0
M  V30 8355 C 787.573 0.789099 -3.51143 0
M  V30 8356 C 787.181 -0.384578 -4.46346 0
M  V30 8357 C 788.925 1.38781 -4.01173 0
M  V30 8358 C 786.832 0.0121288 -5.91399 0
M  V30 8359 H 785.762 0.158691 -0.737111 0
M  V30 8360 H 788.413 -0.313974 -1.80794 0
M  V30 8361 H 786.795 1.57505 -3.6333 0
M  V30 8362 H 787.969 -1.16212 -4.45905 0
M  V30 8363 H 786.284 -0.896306 -4.06639 0
M  V30 8364 H 788.881 1.69746 -5.07041 0
M  V30 8365 H 789.224 2.30245 -3.46833 0
M  V30 8366 H 789.757 0.665364 -3.92196 0
M  V30 8367 H 786.496 -0.868917 -6.49715 0
M  V30 8368 H 786.016 0.754053 -5.95041 0
M  V30 8369 H 787.695 0.439949 -6.45502 0
M  V30 8370 N 787.827 1.57504 0.0551401 0
M  V30 8371 C 789.238 1.76626 0.604979 0
M  V30 8372 C 789.589 0.845978 1.77024 0
M  V30 8373 O 788.714 0.0341936 2.16373 0
M  V30 8374 C 789.309 3.203 1.10425 0
M  V30 8375 C 787.868 3.4071 1.59981 0
M  V30 8376 C 787.015 2.72258 0.526414 0
M  V30 8377 H 789.966 1.57775 -0.171072 0
M  V30 8378 H 789.987 3.25377 1.97256 0
M  V30 8379 H 789.499 3.87255 0.255939 0
M  V30 8380 H 787.6 2.78892 2.47083 0
M  V30 8381 H 787.713 4.49227 1.66528 0
M  V30 8382 H 786.077 2.35283 0.97539 0
M  V30 8383 H 786.86 3.41879 -0.311991 0
M  V30 8384 N 789.305 -0.326896 1.54172 0
M  V30 8385 C 790.53 -1.08924 1.76494 0
M  V30 8386 C 790.955 -1.81039 0.510523 0
M  V30 8387 O 790.313 -1.73141 -0.537756 0
M  V30 8388 C 790.361 -2.06558 2.95578 0
M  V30 8389 O 789.465 -3.14394 2.6689 0
M  V30 8390 H 788.806 -0.314216 0.584948 0
M  V30 8391 H 791.336 -0.372207 2.01186 0
M  V30 8392 H 791.346 -2.49487 3.22832 0
M  V30 8393 H 790.021 -1.53469 3.86549 0
M  V30 8394 H 788.598 -2.76164 2.50576 0
M  V30 8395 N 790.784 -1.46188 -0.588786 0
M  V30 8396 C 792.195 -1.45421 -1.17088 0
M  V30 8397 C 792.546 -0.191801 -1.9526 0
M  V30 8398 O 791.671 0.705497 -2.04577 0
M  V30 8399 C 792.266 -2.63467 -2.13004 0
M  V30 8400 C 790.825 -2.6576 -2.6655 0
M  V30 8401 C 789.972 -2.38002 -1.42304 0
M  V30 8402 H 792.923 -1.54156 -0.377052 0
M  V30 8403 H 792.944 -2.38638 -2.96365 0
M  V30 8404 H 792.456 -3.55331 -1.56081 0
M  V30 8405 H 790.557 -1.77952 -3.27359 0
M  V30 8406 H 790.67 -3.65545 -3.09699 0
M  V30 8407 H 789.034 -1.87936 -1.71907 0
M  V30 8408 H 789.817 -3.32035 -0.872209 0
M  V30 8409 N 792.262 0.832906 -1.33792 0
M  V30 8410 C 793.673 1.40489 -1.22963 0
M  V30 8411 C 794.024 1.95633 0.149026 0
M  V30 8412 O 793.149 1.8928 1.04891 0
M  V30 8413 C 793.744 2.55387 -2.22627 0
M  V30 8414 C 792.303 3.08522 -2.15618 0
M  V30 8415 C 791.45 1.81347 -2.09782 0
M  V30 8416 H 794.401 0.638156 -1.45304 0
M  V30 8417 H 794.422 3.33193 -1.83746 0
M  V30 8418 H 793.934 2.15222 -3.22957 0
M  V30 8419 H 792.035 3.53217 -1.18611 0
M  V30 8420 H 792.148 3.6829 -3.0643 0
M  V30 8421 H 790.512 2.01839 -1.55349 0
M  V30 8422 H 791.295 1.43369 -3.1193 0
M  V30 8423 N 793.74 1.17359 1.05189 0
M  V30 8424 C 794.965 0.98709 1.82404 0
M  V30 8425 C 795.39 -0.459848 1.82392 0
M  V30 8426 O 794.748 -1.32924 1.23292 0
M  V30 8427 C 794.796 1.53276 3.26403 0
M  V30 8428 O 793.9 0.746541 4.05587 0
M  V30 8429 H 793.241 0.35047 0.563974 0
M  V30 8430 H 795.771 1.55856 1.32552 0
M  V30 8431 H 795.781 1.55504 3.77203 0
M  V30 8432 H 794.456 2.58603 3.25726 0
M  V30 8433 H 793.033 0.795671 3.64312 0
M  V30 8434 N 795.218 -1.23913 0.973828 0
M  V30 8435 C 796.446 -1.96195 0.656891 0
M  V30 8436 C 796.861 -1.72166 -0.774876 0
M  V30 8437 O 796.218 -1.0091 -1.52064 0
M  V30 8438 C 796.269 -3.49342 0.929638 0
M  V30 8439 O 795.99 -3.72553 2.30512 0
M  V30 8440 C 797.491 -4.38833 0.627739 0
M  V30 8441 H 794.711 -0.624841 0.244572 0
M  V30 8442 H 797.255 -1.57579 1.30343 0
M  V30 8443 H 795.41 -3.85999 0.329216 0
M  V30 8444 H 795.824 -4.66893 2.3898 0
M  V30 8445 H 797.298 -5.45117 0.868991 0
M  V30 8446 H 797.775 -4.37009 -0.438104 0
M  V30 8447 H 798.381 -4.07773 1.20834 0
M  V30 8448 N 796.696 -0.74468 -1.38897 0
M  V30 8449 C 797.626 -0.126355 -2.33158 0
M  V30 8450 C 798.607 0.713517 -1.54412 0
M  V30 8451 O 799.792 0.656523 -1.82766 0
M  V30 8452 C 796.922 0.774375 -3.38557 0
M  V30 8453 C 795.876 0.0379214 -4.27983 0
M  V30 8454 C 795.202 1.05631 -5.24162 0
M  V30 8455 C 796.502 -1.12523 -5.10035 0
M  V30 8456 H 798.196 -0.913744 -2.85116 0
M  V30 8457 H 795.742 -0.440847 -1.37086 0
M  V30 8458 H 797.695 1.21655 -4.03458 0
M  V30 8459 H 796.419 1.59399 -2.85061 0
M  V30 8460 H 795.078 -0.384733 -3.64576 0
M  V30 8461 H 794.726 1.86975 -4.66958 0
M  V30 8462 H 794.426 0.568261 -5.84846 0
M  V30 8463 H 795.95 1.49799 -5.9194 0
M  V30 8464 H 797.364 -0.761037 -5.68226 0
M  V30 8465 H 795.761 -1.54355 -5.79909 0
M  V30 8466 H 796.831 -1.94237 -4.44297 0
M  V30 8467 N 798.174 1.49689 -0.493057 0
M  V30 8468 C 799.585 1.8665 -0.0433032 0
M  V30 8469 C 799.936 1.40607 1.36836 0
M  V30 8470 O 799.061 0.780503 2.01834 0
M  V30 8471 C 799.656 3.38724 -0.0718069 0
M  V30 8472 C 798.215 3.75015 0.32257 0
M  V30 8473 C 797.362 2.7366 -0.4478 0
M  V30 8474 H 800.313 1.42119 -0.706246 0
M  V30 8475 H 800.334 3.73522 0.725347 0
M  V30 8476 H 799.846 3.72204 -1.09935 0
M  V30 8477 H 797.947 3.47142 1.35364 0
M  V30 8478 H 798.06 4.79099 0.00864259 0
M  V30 8479 H 796.424 2.54498 0.101354 0
M  V30 8480 H 797.207 3.09985 -1.47527 0
M  V30 8481 N 799.652 0.226554 1.55963 0
M  V30 8482 C 801.063 -0.280381 1.84583 0
M  V30 8483 C 801.414 -1.59105 1.14804 0
M  V30 8484 O 800.539 -2.12297 0.419414 0
M  V30 8485 C 801.134 -0.515499 3.34855 0
M  V30 8486 C 799.693 -0.966733 3.63774 0
M  V30 8487 C 798.84 -0.0325753 2.77281 0
M  V30 8488 H 801.791 0.449626 1.52197 0
M  V30 8489 H 801.812 -1.36085 3.55332 0
M  V30 8490 H 801.324 0.438594 3.85614 0
M  V30 8491 H 799.425 -1.93401 3.18476 0
M  V30 8492 H 799.538 -0.837679 4.7172 0
M  V30 8493 H 797.902 -0.540279 2.48904 0
M  V30 8494 H 798.685 0.916524 3.30839 0
M  V30 8495 N 801.13 -1.57531 -0.0467866 0
M  V30 8496 C 802.541 -1.76945 -0.595603 0
M  V30 8497 C 802.892 -0.855354 -1.76573 0
M  V30 8498 O 802.017 -0.045668 -2.16352 0
M  V30 8499 C 802.612 -3.20881 -1.08725 0
M  V30 8500 C 801.171 -3.41553 -1.58172 0
M  V30 8501 C 800.318 -2.72533 -0.511968 0
M  V30 8502 H 803.269 -1.57682 0.179436 0
M  V30 8503 H 803.29 -3.26419 -1.95528 0
M  V30 8504 H 802.802 -3.87385 -0.235398 0
M  V30 8505 H 800.903 -2.80199 -2.456 0
M  V30 8506 H 801.016 -4.50104 -1.64143 0
M  V30 8507 H 799.38 -2.35797 -0.962899 0
M  V30 8508 H 800.163 -3.41709 0.330117 0
M  V30 8509 N 802.608 0.318715 -1.54344 0
M  V30 8510 C 804.019 0.89285 -1.63967 0
M  V30 8511 C 804.37 1.88712 -0.536855 0
M  V30 8512 O 803.495 2.13877 0.329457 0
M  V30 8513 C 804.09 1.62618 -2.97222 0
M  V30 8514 C 802.649 2.14897 -3.09025 0
M  V30 8515 C 801.796 0.975909 -2.5956 0
M  V30 8516 H 804.747 0.0961687 -1.58408 0
M  V30 8517 H 804.768 2.4907 -2.87653 0
M  V30 8518 H 804.28 0.902286 -3.77466 0
M  V30 8519 H 802.381 2.90387 -2.33465 0
M  V30 8520 H 802.494 2.39565 -4.14904 0
M  V30 8521 H 800.858 1.35646 -2.15574 0
M  V30 8522 H 801.641 0.266253 -3.42266 0
M  V30 8523 N 804.086 1.46499 0.581025 0
M  V30 8524 C 805.018 1.53225 1.70455 0
M  V30 8525 C 806.031 0.420443 1.57277 0
M  V30 8526 O 807.22 0.688888 1.64671 0
M  V30 8527 C 804.32 1.39803 3.08721 0
M  V30 8528 C 803.493 2.65132 3.47884 0
M  V30 8529 C 802.552 2.45886 4.65217 0
M  V30 8530 O 801.578 3.19615 4.70993 0
M  V30 8531 N 802.78 1.5216 5.60203 0
M  V30 8532 H 805.545 2.50098 1.65139 0
M  V30 8533 H 803.106 1.42576 0.76705 0
M  V30 8534 H 805.098 1.24697 3.8501 0
M  V30 8535 H 803.668 0.51104 3.08394 0
M  V30 8536 H 802.888 2.95169 2.61284 0
M  V30 8537 H 804.176 3.48385 3.70817 0
M  V30 8538 H 803.574 0.913646 5.58273 0
M  V30 8539 H 802.131 1.43017 6.35916 0
M  V30 8540 N 805.565 -0.825799 1.34232 0
M  V30 8541 C 806.528 -1.91808 1.25468 0
M  V30 8542 C 807.528 -1.59893 0.170567 0
M  V30 8543 O 808.718 -1.68986 0.422996 0
M  V30 8544 C 805.85 -3.27786 0.93644 0
M  V30 8545 H 807.043 -2.01003 2.22571 0
M  V30 8546 H 804.596 -1.01944 1.18479 0
M  V30 8547 H 805.331 -3.24285 -0.0315408 0
M  V30 8548 H 805.116 -3.52333 1.72057 0
M  V30 8549 H 806.606 -4.07782 0.900214 0
M  V30 8550 N 807.043 -1.17915 -1.04565 0
M  V30 8551 C 808.454 -0.976383 -1.59134 0
M  V30 8552 C 808.805 0.475267 -1.90357 0
M  V30 8553 O 807.93 1.35172 -1.6899 0
M  V30 8554 C 808.525 -1.76604 -2.89131 0
M  V30 8555 C 807.084 -1.60777 -3.40335 0
M  V30 8556 C 806.231 -1.76369 -2.13985 0
M  V30 8557 H 809.182 -1.32532 -0.872985 0
M  V30 8558 H 809.203 -1.25215 -3.59307 0
M  V30 8559 H 808.715 -2.82252 -2.66375 0
M  V30 8560 H 806.816 -0.576436 -3.68114 0
M  V30 8561 H 806.929 -2.40268 -4.14497 0
M  V30 8562 H 805.293 -1.19268 -2.25049 0
M  V30 8563 H 806.076 -2.83441 -1.9369 0
M  V30 8564 N 808.521 1.23394 -0.980386 0
M  V30 8565 C 809.932 1.73631 -0.686239 0
M  V30 8566 C 810.283 1.79259 0.797541 0
M  V30 8567 O 809.408 1.43046 1.62379 0
M  V30 8568 C 810.003 3.15332 -1.239 0
M  V30 8569 C 808.562 3.63024 -0.994494 0
M  V30 8570 C 807.709 2.41279 -1.36673 0
M  V30 8571 H 810.66 1.08918 -1.15423 0
M  V30 8572 H 810.681 3.75556 -0.611414 0
M  V30 8573 H 810.193 3.11204 -2.31892 0
M  V30 8574 H 808.294 3.72535 0.0693492 0
M  V30 8575 H 808.407 4.49825 -1.64906 0
M  V30 8576 H 806.771 2.42295 -0.785195 0
M  V30 8577 H 807.554 2.39822 -2.45642 0
M  V30 8578 N 809.999 0.752036 1.385 0
M  V30 8579 C 811.41 0.375385 1.82887 0
M  V30 8580 C 811.761 -1.09575 1.62751 0
M  V30 8581 O 810.886 -1.84685 1.12785 0
M  V30 8582 C 811.481 0.674563 3.32017 0
M  V30 8583 C 810.04 0.351208 3.74758 0
M  V30 8584 C 809.187 0.928531 2.61292 0
M  V30 8585 H 812.138 0.948313 1.27251 0
M  V30 8586 H 812.159 -0.0477781 3.8047 0
M  V30 8587 H 811.671 1.74533 3.46641 0
M  V30 8588 H 809.772 -0.713042 3.65714 0
M  V30 8589 H 809.885 0.845675 4.71577 0
M  V30 8590 H 808.249 0.354012 2.52228 0
M  V30 8591 H 809.032 2.0043 2.78716 0
M  V30 8592 N 811.477 -1.49425 0.500989 0
M  V30 8593 C 812.425 -2.30771 -0.291149 0
M  V30 8594 C 813.419 -1.3938 -0.962787 0
M  V30 8595 O 814.625 -1.56431 -0.890477 0
M  V30 8596 H 811 -0.743499 -0.11275 0
M  V30 8597 H 812.971 -2.95501 0.414917 0
M  V30 8598 C 811.72 -3.20725 -1.34279 0
M  V30 8599 H 811.043 -3.90975 -0.83538 0
M  V30 8600 H 812.483 -3.80583 -1.86903 0
M  V30 8601 C 810.942 -2.40334 -2.36095 0
M  V30 8602 O 811.472 -2.10749 -3.41976 0
M  V30 8603 N 809.678 -2.02359 -2.08565 0
M  V30 8604 H 809.225 -2.26619 -1.22482 0
M  V30 8605 H 809.183 -1.48878 -2.76916 0
M  V30 8606 N 812.955 -0.234822 -1.55841 0
M  V30 8607 C 814.371 0.120295 -1.59146 0
M  V30 8608 C 814.571 1.57896 -1.25184 0
M  V30 8609 O 813.627 2.32138 -0.993393 0
M  V30 8610 C 814.94 -0.217984 -2.99909 0
M  V30 8611 C 816.488 -0.161298 -3.12584 0
M  V30 8612 C 816.963 -0.473438 -4.55546 0
M  V30 8613 N 818.454 -0.423494 -4.6126 0
M  V30 8614 C 819.189 -0.638334 -5.69836 0
M  V30 8615 N 818.685 -0.915659 -6.86722 0
M  V30 8616 N 820.478 -0.569864 -5.59204 0
M  V30 8617 H 812.629 -1.18622 -1.76189 0
M  V30 8618 H 814.892 -0.476426 -0.819587 0
M  V30 8619 H 814.598 -1.2309 -3.29457 0
M  V30 8620 H 814.472 0.460707 -3.74376 0
M  V30 8621 H 816.859 0.842274 -2.82825 0
M  V30 8622 H 816.94 -0.873661 -2.40418 0
M  V30 8623 H 816.584 -1.47451 -4.86025 0
M  V30 8624 H 816.514 0.260268 -5.25956 0
M  V30 8625 H 819.005 -0.217383 -3.77274 0
M  V30 8626 H 819.318 -1.06734 -7.65394 0
M  V30 8627 H 817.663 -0.953 -6.88435 0
M  V30 8628 H 820.854 -0.35334 -4.66765 0
M  V30 8629 H 821.027 -0.740698 -6.43753 0
M  V30 8630 N 814.433 1.57553 0.0384317 0
M  V30 8631 C 815.396 2.04927 1.02653 0
M  V30 8632 C 816.396 0.951768 1.29607 0
M  V30 8633 O 817.586 1.21568 1.24768 0
M  V30 8634 C 814.718 2.45828 2.36181 0
M  V30 8635 H 815.911 2.93474 0.617508 0
M  V30 8636 H 813.464 1.53679 0.285031 0
M  V30 8637 H 814.199 1.60408 2.8185 0
M  V30 8638 H 813.984 3.25945 2.1795 0
M  V30 8639 H 815.474 2.82939 3.0714 0
M  V30 8640 N 815.911 -0.310526 1.54511 0
M  V30 8641 C 817.322 -0.884142 1.64438 0
M  V30 8642 C 817.673 -1.88425 0.546855 0
M  V30 8643 O 816.798 -2.14049 -0.31811 0
M  V30 8644 C 817.393 -1.6104 2.9808 0
M  V30 8645 C 815.952 -2.13255 3.1016 0
M  V30 8646 C 815.099 -0.96213 2.60074 0
M  V30 8647 H 818.05 -0.0877666 1.58457 0
M  V30 8648 H 818.071 -2.47541 2.8897 0
M  V30 8649 H 817.583 -0.882255 3.77939 0
M  V30 8650 H 815.684 -2.89145 2.35002 0
M  V30 8651 H 815.797 -2.37361 4.16169 0
M  V30 8652 H 814.161 -1.34501 2.16291 0
M  V30 8653 H 814.944 -0.248098 3.42402 0
M  V30 8654 N 817.389 -1.46805 -0.573248 0
M  V30 8655 C 818.8 -1.46655 -1.15539 0
M  V30 8656 C 819.151 -0.2125 -1.95046 0
M  V30 8657 O 818.276 0.683759 -2.05314 0
M  V30 8658 C 818.871 -2.65711 -2.10198 0
M  V30 8659 C 817.43 -2.68572 -2.63716 0
M  V30 8660 C 816.577 -2.39498 -1.39772 0
M  V30 8661 H 819.528 -1.54547 -0.36068 0
M  V30 8662 H 819.549 -2.41768 -2.93817 0
M  V30 8663 H 819.061 -3.56967 -1.52303 0
M  V30 8664 H 817.162 -1.81414 -3.25453 0
M  V30 8665 H 817.275 -3.68809 -3.05805 0
M  V30 8666 H 815.639 -1.89749 -1.69904 0
M  V30 8667 H 816.422 -3.32942 -0.836943 0
M  V30 8668 N 818.867 0.818669 -1.34668 0
M  V30 8669 C 820.278 1.39177 -1.24446 0
M  V30 8670 C 820.629 1.9578 0.128268 0
M  V30 8671 O 819.754 1.90382 1.02877 0
M  V30 8672 C 820.349 2.53012 -2.25323 0
M  V30 8673 C 818.908 3.06218 -2.18878 0
M  V30 8674 C 818.055 1.79112 -2.11694 0
M  V30 8675 H 821.006 0.622709 -1.45973 0
M  V30 8676 H 821.027 3.31226 -1.8727 0
M  V30 8677 H 820.539 2.11784 -3.25221 0
M  V30 8678 H 818.64 3.51939 -1.22351 0
M  V30 8679 H 818.753 3.65019 -3.10319 0
M  V30 8680 H 817.117 2.0018 -1.57481 0
M  V30 8681 H 817.9 1.40053 -3.13433 0
M  V30 8682 N 820.346 1.18468 1.03938 0
M  V30 8683 C 821.571 1.00638 1.81347 0
M  V30 8684 C 821.996 -0.440477 1.8287 0
M  V30 8685 O 821.354 -1.31609 1.24695 0
M  V30 8686 C 821.402 1.5673 3.24759 0
M  V30 8687 O 820.506 0.789517 4.04772 0
M  V30 8688 H 819.847 0.356432 0.560225 0
M  V30 8689 H 822.377 1.57253 1.30891 0
M  V30 8690 H 822.387 1.59496 3.75533 0
M  V30 8691 H 821.062 2.62043 3.22965 0
M  V30 8692 H 819.639 0.834267 3.63448 0
M  V30 8693 N 821.824 -1.22873 0.986916 0
M  V30 8694 C 823.24 -1.43594 0.696633 0
M  V30 8695 C 823.44 -1.87622 -0.734869 0
M  V30 8696 O 822.496 -2.02633 -1.50652 0
M  V30 8697 C 823.809 -2.48231 1.69711 0
M  V30 8698 C 825.357 -2.62037 1.71188 0
M  V30 8699 C 825.832 -3.6989 2.70084 0
M  V30 8700 N 827.323 -3.77341 2.68641 0
M  V30 8701 C 828.058 -4.6037 3.41829 0
M  V30 8702 N 827.554 -5.47438 4.24598 0
M  V30 8703 N 829.347 -4.54626 3.30563 0
M  V30 8704 H 821.498 -0.925982 1.91153 0
M  V30 8705 H 823.761 -0.46866 0.824052 0
M  V30 8706 H 823.467 -2.22812 2.72117 0
M  V30 8707 H 823.341 -3.46731 1.48516 0
M  V30 8708 H 825.728 -2.86803 0.694837 0
M  V30 8709 H 825.809 -1.63831 1.96451 0
M  V30 8710 H 825.453 -3.45872 3.71934 0
M  V30 8711 H 825.383 -4.67652 2.42093 0
M  V30 8712 H 827.874 -3.15124 2.08578 0
M  V30 8713 H 828.187 -6.078 4.77283 0
M  V30 8714 H 826.532 -5.4704 4.28687 0
M  V30 8715 H 829.723 -3.85627 2.65347 0
M  V30 8716 H 829.896 -5.19103 3.8786 0
M  V30 8717 N 823.302 -0.75937 -1.38099 0
M  V30 8718 C 824.713 -0.385078 -1.82686 0
M  V30 8719 C 825.064 1.0871 -1.6333 0
M  V30 8720 O 824.189 1.84084 -1.13762 0
M  V30 8721 C 824.784 -0.692161 -3.31654 0
M  V30 8722 C 823.343 -0.371077 -3.74566 0
M  V30 8723 C 822.49 -0.942375 -2.60796 0
M  V30 8724 H 825.441 -0.955048 -1.26746 0
M  V30 8725 H 825.462 0.0276001 -3.8049 0
M  V30 8726 H 824.974 -1.76369 -3.4571 0
M  V30 8727 H 823.075 0.693637 -3.66087 0
M  V30 8728 H 823.188 -0.870672 -4.71122 0
M  V30 8729 H 821.552 -0.367383 -2.52036 0
M  V30 8730 H 822.335 -2.01905 -2.77649 0
M  V30 8731 N 824.78 1.49157 -0.508906 0
M  V30 8732 C 826.191 1.86593 -0.0630975 0
M  V30 8733 C 826.542 1.42051 1.35337 0
M  V30 8734 O 825.667 0.801866 2.00995 0
M  V30 8735 C 826.262 3.38629 -0.107729 0
M  V30 8736 C 824.821 3.75336 0.282776 0
M  V30 8737 C 823.968 2.7317 -0.4768 0
M  V30 8738 H 826.919 1.41362 -0.72128 0
M  V30 8739 H 826.94 3.74271 0.685689 0
M  V30 8740 H 826.452 3.71017 -1.13876 0
M  V30 8741 H 824.553 3.48558 1.31675 0
M  V30 8742 H 824.666 4.79081 -0.0421728 0
M  V30 8743 H 823.03 2.54591 0.0743552 0
M  V30 8744 H 823.813 3.08403 -1.50807 0
M  V30 8745 N 826.258 0.243083 1.55714 0
M  V30 8746 C 827.669 -0.260788 1.8487 0
M  V30 8747 C 828.02 -1.57879 1.16485 0
M  V30 8748 O 827.145 -2.1184 0.441908 0
M  V30 8749 C 827.74 -0.479954 3.35383 0
M  V30 8750 C 826.299 -0.928096 3.64778 0
M  V30 8751 C 825.446 -0.00316416 2.773 0
M  V30 8752 H 828.397 0.465743 1.51712 0
M  V30 8753 H 828.418 -1.32308 3.56756 0
M  V30 8754 H 827.93 0.479468 3.85127 0
M  V30 8755 H 826.031 -1.90012 3.20509 0
M  V30 8756 H 826.144 -0.7876 4.72582 0
M  V30 8757 H 824.508 -0.513849 2.49463 0
M  V30 8758 H 825.291 0.951562 3.29849 0
M  V30 8759 N 827.736 -1.57571 -0.0300757 0
M  V30 8760 C 829.152 -1.54869 -0.385703 0
M  V30 8761 C 829.352 -0.969068 -1.76667 0
M  V30 8762 O 828.408 -0.589676 -2.45518 0
M  V30 8763 C 829.721 -2.99313 -0.288482 0
M  V30 8764 C 831.269 -3.10857 -0.365638 0
M  V30 8765 C 831.744 -4.5703 -0.297878 0
M  V30 8766 N 833.235 -4.61825 -0.356703 0
M  V30 8767 C 833.97 -5.72466 -0.327146 0
M  V30 8768 N 833.466 -6.92349 -0.249941 0
M  V30 8769 N 835.259 -5.60836 -0.376801 0
M  V30 8770 H 827.41 -1.936 0.87367 0
M  V30 8771 H 829.673 -0.887924 0.332106 0
M  V30 8772 H 829.379 -3.45443 0.66047 0
M  V30 8773 H 829.253 -3.61332 -1.08253 0
M  V30 8774 H 831.64 -2.64676 -1.30502 0
M  V30 8775 H 831.721 -2.51671 0.457744 0
M  V30 8776 H 831.365 -5.03879 0.637835 0
M  V30 8777 H 831.295 -5.14127 -1.13935 0
M  V30 8778 H 833.786 -3.75571 -0.418926 0
M  V30 8779 H 834.099 -7.7245 -0.23246 0
M  V30 8780 H 832.444 -6.94664 -0.216004 0
M  V30 8781 H 835.635 -4.66073 -0.435101 0
M  V30 8782 H 835.808 -6.47052 -0.350298 0
M  V30 8783 N 829.214 0.302327 -1.54673 0
M  V30 8784 C 830.625 0.875409 -1.64904 0
M  V30 8785 C 830.976 1.88132 -0.55684 0
M  V30 8786 O 830.101 2.14215 0.306754 0
M  V30 8787 C 830.696 1.59457 -2.9893 0
M  V30 8788 C 829.255 2.11607 -3.11287 0
M  V30 8789 C 828.402 0.948324 -2.6058 0
M  V30 8790 H 831.353 0.079362 -1.58501 0
M  V30 8791 H 831.374 2.46005 -2.90279 0
M  V30 8792 H 830.886 0.8622 -3.78402 0
M  V30 8793 H 828.987 2.87895 -2.36532 0
M  V30 8794 H 829.1 2.35151 -4.17422 0
M  V30 8795 H 827.464 1.33352 -2.17001 0
M  V30 8796 H 828.247 0.229936 -3.42529 0
M  V30 8797 N 830.692 1.47107 0.565454 0
M  V30 8798 C 831.917 1.57153 1.35343 0
M  V30 8799 C 832.342 0.219247 1.86818 0
M  V30 8800 O 831.7 -0.803539 1.62521 0
M  V30 8801 C 831.748 2.59387 2.50501 0
M  V30 8802 O 830.852 2.14086 3.52478 0
M  V30 8803 H 830.193 0.528209 0.402357 0
M  V30 8804 H 832.723 1.92821 0.684189 0
M  V30 8805 H 832.733 2.79546 2.97184 0
M  V30 8806 H 831.408 3.57579 2.12391 0
M  V30 8807 H 829.985 2.03991 3.12157 0
M  V30 8808 N 832.17 -0.811516 1.35101 0
M  V30 8809 C 833.416 -1.57068 1.28287 0
M  V30 8810 C 833.749 -1.93667 -0.143808 0
M  V30 8811 O 833.024 -1.60953 -1.09199 0
M  V30 8812 C 833.307 -2.86259 2.18466 0
M  V30 8813 C 833.16 -2.56168 3.69727 0
M  V30 8814 C 834.479 -3.87924 2.07852 0
M  V30 8815 H 831.598 -0.569869 0.467353 0
M  V30 8816 H 834.24 -0.934023 1.65457 0
M  V30 8817 H 832.39 -3.4059 1.86898 0
M  V30 8818 H 834.062 -2.08059 4.11715 0
M  V30 8819 H 832.305 -1.89436 3.90252 0
M  V30 8820 H 832.976 -3.48344 4.28206 0
M  V30 8821 H 835.452 -3.4298 2.35593 0
M  V30 8822 H 834.328 -4.76106 2.73157 0
M  V30 8823 H 834.589 -4.2923 1.05896 0
M  V30 8824 O 833.687 -1.3058 -0.950319 0
M  V30 8825 H 834.378 -1.1218 -1.57909 0
M  V30 END ATOM
M  V30 BEGIN BOND
M  V30 END BOND
M  V30 END CTAB
M  END
$$$$
