drugbank_target|Q9H6Z9 Egl nine homolog 3 (DB00126; DB04847)
 OpenBabel12092120073D

  0  0  0     0  0            999 V3000
M  V30 BEGIN CTAB
M  V30 COUNTS 3813 3858 0 0 0
M  V30 BEGIN ATOM
M  V30 1 H -0.908 1.98254 -0.117106 0
M  V30 2 N 0 1.576 0 0
M  V30 3 C 0.933 2.03868 1.02534 0
M  V30 4 C 1.911 0.928543 1.3348 0
M  V30 5 O 3.095 1.19667 1.45644 0
M  V30 6 C 0.222 2.43627 2.35294 0
M  V30 7 C -0.732 3.65373 2.2001 0
M  V30 8 S 0.101 5.13292 1.52614 0
M  V30 9 C 1.257 5.56322 2.86805 0
M  V30 10 H 1.49 2.90518 0.631377 0
M  V30 11 H -0.977 1.52953 0.210867 0
M  V30 12 H 0.981 2.67203 3.11629 0
M  V30 13 H -0.358 1.57376 2.7183 0
M  V30 14 H -1.165 3.90944 3.18086 0
M  V30 15 H -1.563 3.418 1.51819 0
M  V30 16 H 0.729 5.58782 3.83104 0
M  V30 17 H 1.672 6.56266 2.65933 0
M  V30 18 H 2.08 4.83886 2.90714 0
M  V30 19 N 1.4781 -0.272755 1.55222 0
M  V30 20 C 2.8891 -0.84378 1.66545 0
M  V30 21 C 3.2401 -1.87035 0.592641 0
M  V30 22 O 2.3651 -2.14761 -0.265818 0
M  V30 23 C 2.9601 -1.53723 3.01918 0
M  V30 24 C 1.5191 -2.05628 3.15268 0
M  V30 25 C 0.6661 -0.898424 2.62343 0
M  V30 26 H 3.6171 -0.0490998 1.58624 0
M  V30 27 H 3.6381 -2.40421 2.94921 0
M  V30 28 H 3.1501 -0.78983 3.79978 0
M  V30 29 H 1.2511 -2.83329 2.41983 0
M  V30 30 H 1.3641 -2.27142 4.21833 0
M  V30 31 H -0.2719 -1.29186 2.19506 0
M  V30 32 H 0.5111 -0.164528 3.42906 0
M  V30 33 N 2.9562 -1.48159 -0.537278 0
M  V30 34 C 3.8862 -1.65029 -1.6519 0
M  V30 35 C 4.8672 -0.499281 -1.62607 0
M  V30 36 O 6.0522 -0.730972 -1.79918 0
M  V30 37 C 3.1822 -1.68303 -3.03795 0
M  V30 38 C 2.1362 -2.8283 -3.21234 0
M  V30 39 C 1.4622 -2.71189 -4.60826 0
M  V30 40 C 2.7622 -4.24211 -3.04701 0
M  V30 41 H 4.4562 -2.58341 -1.51328 0
M  V30 42 H 2.0022 -1.24325 -0.726585 0
M  V30 43 H 3.9552 -1.78693 -3.81637 0
M  V30 44 H 2.6792 -0.715635 -3.18663 0
M  V30 45 H 1.3382 -2.71983 -2.45807 0
M  V30 46 H 0.9862 -1.72435 -4.7252 0
M  V30 47 H 0.6862 -3.48035 -4.7344 0
M  V30 48 H 2.2102 -2.83537 -5.40777 0
M  V30 49 H 3.6242 -4.3593 -3.72341 0
M  V30 50 H 2.0212 -5.01998 -3.28813 0
M  V30 51 H 3.0912 -4.41184 -2.01209 0
M  V30 52 N 4.4343 0.785586 -1.36625 0
M  V30 53 C 5.6823 1.54057 -1.30808 0
M  V30 54 C 6.0033 1.94683 0.111157 0
M  V30 55 O 5.2733 1.65241 1.05224 0
M  V30 56 H 3.8533 0.571354 -0.481211 0
M  V30 57 H 6.5153 0.935821 -1.70963 0
M  V30 58 H 5.6113 2.44637 -1.93801 0
M  V30 59 N 5.9124 1.20967 1.01018 0
M  V30 60 C 6.8624 0.93182 2.08089 0
M  V30 61 C 7.8464 -0.110898 1.60517 0
M  V30 62 O 9.0384 0.0973392 1.76732 0
M  V30 63 C 6.1674 0.492719 3.39746 0
M  V30 64 C 5.2534 1.56922 3.94 0
M  V30 65 N 5.6444 2.79312 4.21686 0
M  V30 66 C 3.9424 1.43688 4.2222 0
M  V30 67 C 4.6434 3.48797 4.65527 0
M  V30 68 N 3.6194 2.76224 4.68189 0
M  V30 69 H 7.4214 1.86175 2.27412 0
M  V30 70 H 4.9354 1.10463 1.19045 0
M  V30 71 H 6.9324 0.275044 4.15992 0
M  V30 72 H 5.5924 -0.430509 3.21833 0
M  V30 73 H 6.6034 3.15903 4.10397 0
M  V30 74 H 3.2804 0.578548 4.13472 0
M  V30 75 H 4.6704 4.53561 4.95714 0
M  V30 76 N 7.3905 -1.2043 1.01659 0
M  V30 77 C 8.6395 -1.89118 0.701237 0
M  V30 78 C 8.9525 -1.79705 -0.772358 0
M  V30 79 O 10.1585 -2.43528 -1.20026 0
M  V30 80 C 8.6145 -3.39168 1.20388 0
M  V30 81 C 8.2225 -3.57166 2.70438 0
M  V30 82 C 9.9665 -4.1341 0.963953 0
M  V30 83 C 7.8735 -5.01042 3.14183 0
M  V30 84 H 6.8035 -0.708267 0.2586 0
M  V30 85 H 9.4545 -1.36239 1.22927 0
M  V30 86 H 7.8365 -3.91369 0.603824 0
M  V30 87 H 9.0105 -3.15351 3.35992 0
M  V30 88 H 7.3255 -2.96294 2.92572 0
M  V30 89 H 9.9225 -5.19491 1.26621 0
M  V30 90 H 10.2655 -4.16181 -0.099578 0
M  V30 91 H 10.7985 -3.67309 1.52738 0
M  V30 92 H 7.5375 -5.03426 4.19812 0
M  V30 93 H 7.0575 -5.43668 2.53348 0
M  V30 94 H 8.7365 -5.69623 3.0682 0
M  V30 95 N 8.8686 -0.792821 -1.36206 0
M  V30 96 C 9.8016 -0.139422 -2.27774 0
M  V30 97 C 10.7796 0.68649 -1.47398 0
M  V30 98 O 11.9636 0.656738 -1.7669 0
M  V30 99 C 9.0906 0.807947 -3.28922 0
M  V30 100 C 8.1366 0.0633999 -4.26453 0
M  V30 101 S 8.9696 -1.26319 -5.20388 0
M  V30 102 C 10.1256 -0.31991 -6.25082 0
M  V30 103 H 10.3586 -0.915809 -2.82843 0
M  V30 104 H 7.8916 -0.587203 -1.42798 0
M  V30 105 H 9.8496 1.34908 -3.87699 0
M  V30 106 H 8.5106 1.55761 -2.72759 0
M  V30 107 H 7.7036 0.782386 -4.9789 0
M  V30 108 H 7.3056 -0.407352 -3.71775 0
M  V30 109 H 9.5976 0.499985 -6.75653 0
M  V30 110 H 10.5406 -1.00307 -7.00959 0
M  V30 111 H 10.9486 0.0782694 -5.64446 0
M  V30 112 N 10.3467 1.47872 -0.545128 0
M  V30 113 C 11.7627 1.5829 -0.204032 0
M  V30 114 C 11.9627 1.54529 1.29317 0
M  V30 115 O 11.0187 1.44232 2.07252 0
M  V30 116 C 12.3317 2.89304 -0.819987 0
M  V30 117 C 13.8797 3.02864 -0.790105 0
M  V30 118 C 14.3547 4.3656 -1.38491 0
M  V30 119 N 15.8457 4.43165 -1.34755 0
M  V30 120 C 16.5807 5.45153 -1.77753 0
M  V30 121 N 16.0767 6.54016 -2.2855 0
M  V30 122 N 17.8697 5.36125 -1.68897 0
M  V30 123 H 10.0207 1.4856 -1.51802 0
M  V30 124 H 12.2837 0.706305 -0.632327 0
M  V30 125 H 11.9897 2.97757 -1.87173 0
M  V30 126 H 11.8637 3.75957 -0.305915 0
M  V30 127 H 14.2507 2.94014 0.252913 0
M  V30 128 H 14.3317 2.17782 -1.34181 0
M  V30 129 H 13.9757 4.46164 -2.42693 0
M  V30 130 H 13.9057 5.20353 -0.808754 0
M  V30 131 H 16.3967 3.65083 -0.975855 0
M  V30 132 H 16.7097 7.27994 -2.59314 0
M  V30 133 H 15.0547 6.54938 -2.32553 0
M  V30 134 H 18.2457 4.49975 -1.28998 0
M  V30 135 H 18.4187 6.15472 -2.02726 0
M  V30 136 N 11.8248 0.280983 1.55075 0
M  V30 137 C 12.7548 -0.597469 2.25727 0
M  V30 138 C 13.7358 -1.15417 1.24952 0
M  V30 139 O 14.9208 -1.18722 1.53684 0
M  V30 140 C 12.0508 -1.7789 2.98283 0
M  V30 141 C 11.0048 -1.35347 4.06036 0
M  V30 142 C 10.3308 -2.61846 4.66198 0
M  V30 143 C 11.6308 -0.499354 5.19907 0
M  V30 144 H 13.3248 -0.00824265 2.99399 0
M  V30 145 H 10.8708 -0.0025244 1.44 0
M  V30 146 H 12.8238 -2.39937 3.46422 0
M  V30 147 H 11.5478 -2.39405 2.22155 0
M  V30 148 H 10.2068 -0.756156 3.58717 0
M  V30 149 H 9.8548 -3.21632 3.86732 0
M  V30 150 H 9.5548 -2.3409 5.38958 0
M  V30 151 H 11.0788 -3.24732 5.1709 0
M  V30 152 H 12.4928 -1.02498 5.64063 0
M  V30 153 H 10.8898 -0.316424 5.99265 0
M  V30 154 H 11.9598 0.480459 4.82514 0
M  V30 155 N 13.3029 -1.57598 0.00835791 0
M  V30 156 C 14.5799 -1.82172 -0.712235 0
M  V30 157 C 14.9599 -0.887873 -1.9152 0
M  V30 158 O 14.3079 0.06146 -2.28417 0
M  V30 159 C 14.5179 -3.30875 -1.11008 0
M  V30 160 C 15.8659 -3.96826 -1.51044 0
M  V30 161 O 16.8899 -3.35248 -1.20364 0
M  V30 162 O 15.7489 -5.05318 -2.08125 0
M  V30 163 H 12.8429 -0.750435 -0.347529 0
M  V30 164 H 15.3889 -1.69665 0.0344523 0
M  V30 165 H 14.1609 -3.90481 -0.252982 0
M  V30 166 H 13.7839 -3.48412 -1.9156 0
M  V30 167 N 14.781 0.264519 -1.55364 0
M  V30 168 C 15.711 1.33121 -1.91836 0
M  V30 169 C 16.692 1.51101 -0.781192 0
M  V30 170 O 17.877 1.64003 -1.04003 0
M  V30 171 C 15.007 2.68921 -2.19769 0
M  V30 172 C 13.961 2.65661 -3.35571 0
M  V30 173 C 13.287 4.05093 -3.49004 0
M  V30 174 C 14.587 2.24187 -4.71739 0
M  V30 175 H 16.281 1.02844 -2.81182 0
M  V30 176 H 13.827 0.493286 -1.35287 0
M  V30 177 H 15.78 3.43663 -2.43872 0
M  V30 178 H 14.504 3.00799 -1.27231 0
M  V30 179 H 13.163 1.93377 -3.1145 0
M  V30 180 H 12.811 4.34206 -2.53917 0
M  V30 181 H 12.511 4.03804 -4.26868 0
M  V30 182 H 14.035 4.81561 -3.75408 0
M  V30 183 H 15.449 2.88654 -4.9533 0
M  V30 184 H 13.846 2.34044 -5.52579 0
M  V30 185 H 14.916 1.19327 -4.69988 0
M  V30 186 N 16.2591 1.48442 0.529413 0
M  V30 187 C 17.1691 1.6569 1.66084 0
M  V30 188 C 18.1851 0.539432 1.65427 0
M  V30 189 O 19.3611 0.810572 1.84368 0
M  V30 190 C 16.4261 1.69315 3.02545 0
M  V30 191 C 15.4871 2.92694 3.14052 0
M  V30 192 C 14.7201 2.96137 4.44003 0
M  V30 193 O 14.9431 2.07973 5.31134 0
M  V30 194 O 13.8771 3.88312 4.59888 0
M  V30 195 H 17.7031 2.61483 1.54469 0
M  V30 196 H 15.2881 1.3185 0.702567 0
M  V30 197 H 17.1701 1.74217 3.83701 0
M  V30 198 H 15.8451 0.766966 3.14483 0
M  V30 199 H 14.7521 2.93324 2.32189 0
M  V30 200 H 16.0851 3.84699 3.0703 0
M  V30 201 N 17.7372 -0.778329 1.37039 0
M  V30 202 C 18.6842 -1.89139 1.32269 0
M  V30 203 C 19.6542 -1.65017 0.189387 0
M  V30 204 O 20.8392 -1.87024 0.377693 0
M  V30 205 C 17.9792 -3.26112 1.12894 0
M  V30 206 C 17.0922 -3.62233 2.35396 0
M  V30 207 C 16.2272 -4.8838 2.08946 0
M  V30 208 C 15.2662 -5.17212 3.2735 0
M  V30 209 N 14.4032 -6.34546 3.00492 0
M  V30 210 H 19.2432 -1.92552 2.27437 0
M  V30 211 H 16.7802 -0.941473 1.13025 0
M  V30 212 H 18.7382 -4.05116 0.996835 0
M  V30 213 H 17.3682 -3.22091 0.213758 0
M  V30 214 H 16.4202 -2.78265 2.5937 0
M  V30 215 H 17.7322 -3.79481 3.23721 0
M  V30 216 H 16.8862 -5.75274 1.92729 0
M  V30 217 H 15.6252 -4.73222 1.17949 0
M  V30 218 H 14.6302 -4.28796 3.44113 0
M  V30 219 H 15.8552 -5.34283 4.19188 0
M  V30 220 H 13.8012 -6.20759 2.12118 0
M  V30 221 H 13.7182 -6.52179 3.82358 0
M  V30 222 H 14.9862 -7.24394 2.87879 0
M  V30 223 N 19.2153 -1.21501 -1.00376 0
M  V30 224 C 20.4643 -1.02718 -1.73586 0
M  V30 225 C 20.7773 0.439589 -1.90596 0
M  V30 226 O 21.9833 0.746848 -2.61026 0
M  V30 227 C 20.4393 -1.78929 -3.1227 0
M  V30 228 C 20.0473 -3.29783 -3.03228 0
M  V30 229 C 21.7913 -1.68557 -3.89601 0
M  V30 230 C 19.6983 -3.98479 -4.36999 0
M  V30 231 H 18.6283 -0.380733 -0.650814 0
M  V30 232 H 21.2793 -1.45248 -1.1214 0
M  V30 233 H 19.6613 -1.29192 -3.74333 0
M  V30 234 H 20.8353 -3.86832 -2.50395 0
M  V30 235 H 19.1503 -3.40711 -2.39385 0
M  V30 236 H 21.7473 -2.17211 -4.88593 0
M  V30 237 H 22.0903 -0.644021 -4.11288 0
M  V30 238 H 22.6233 -2.15778 -3.34193 0
M  V30 239 H 19.3623 -5.02841 -4.20513 0
M  V30 240 H 18.8823 -3.46219 -4.89788 0
M  V30 241 H 20.5613 -4.03462 -5.05794 0
M  V30 242 N 20.6934 1.19889 -1.02296 0
M  V30 243 C 21.6564 2.21116 -0.603351 0
M  V30 244 C 22.6564 1.5738 0.329884 0
M  V30 245 O 23.8464 1.73802 0.117702 0
M  V30 246 C 20.9784 3.40696 0.117992 0
M  V30 247 H 22.1714 2.59754 -1.49893 0
M  V30 248 H 19.7244 1.33463 -0.813468 0
M  V30 249 H 20.4594 3.07569 1.0282 0
M  V30 250 H 20.2444 3.88188 -0.552511 0
M  V30 251 H 21.7344 4.15692 0.398696 0
M  V30 252 N 22.1715 0.800033 1.35784 0
M  V30 253 C 23.1015 0.220184 2.3246 0
M  V30 254 C 24.0825 -0.65073 1.57161 0
M  V30 255 O 25.2675 -0.582359 1.85263 0
M  V30 256 C 22.3975 -0.637353 3.41402 0
M  V30 257 C 21.3515 0.134531 4.27789 0
M  V30 258 C 20.6775 -0.844285 5.27992 0
M  V30 259 C 21.9775 1.32979 5.05088 0
M  V30 260 H 23.6715 1.02787 2.81203 0
M  V30 261 H 21.2175 0.495717 1.35199 0
M  V30 262 H 23.1705 -1.05302 4.08031 0
M  V30 263 H 21.8945 -1.47785 2.91251 0
M  V30 264 H 20.5535 0.531296 3.6273 0
M  V30 265 H 20.2015 -1.68011 4.74111 0
M  V30 266 H 19.9015 -0.332184 5.8666 0
M  V30 267 H 21.4255 -1.2583 5.97494 0
M  V30 268 H 22.8395 0.98934 5.64699 0
M  V30 269 H 21.2365 1.77593 5.7322 0
M  V30 270 H 22.3065 2.11978 4.36111 0
M  V30 271 N 23.6496 -1.47581 0.552962 0
M  V30 272 C 24.5596 -2.33743 -0.200353 0
M  V30 273 C 25.5756 -1.47928 -0.916151 0
M  V30 274 O 26.7516 -1.80865 -0.885993 0
M  V30 275 C 23.8166 -3.24536 -1.21973 0
M  V30 276 C 22.8776 -4.26238 -0.511819 0
M  V30 277 C 22.1106 -5.12693 -1.48263 0
M  V30 278 O 22.3336 -5.01525 -2.71714 0
M  V30 279 O 21.2676 -5.93375 -1.00945 0
M  V30 280 H 25.0936 -2.9945 0.506304 0
M  V30 281 H 22.6786 -1.46071 0.313622 0
M  V30 282 H 24.5606 -3.80631 -1.80827 0
M  V30 283 H 23.2356 -2.61462 -1.90839 0
M  V30 284 H 22.1426 -3.73914 0.117799 0
M  V30 285 H 23.4756 -4.92014 0.135308 0
M  V30 286 N 25.1277 -0.289203 -1.54924 0
M  V30 287 C 26.3577 0.325989 -2.04012 0
M  V30 288 C 26.7657 1.48961 -1.1665 0
M  V30 289 O 26.1087 1.82794 -0.1822 0
M  V30 290 C 26.1707 0.856112 -3.49158 0
M  V30 291 C 25.8347 -0.180697 -4.56643 0
M  V30 292 C 26.8317 -1.0051 -5.10092 0
M  V30 293 C 24.5167 -0.318998 -5.01286 0
M  V30 294 C 26.5107 -1.95385 -6.06715 0
M  V30 295 C 24.1977 -1.27121 -5.97732 0
M  V30 296 C 25.1957 -2.08713 -6.50329 0
M  V30 297 O 24.8837 -3.02322 -7.44887 0
M  V30 298 H 24.6157 0.0765276 -0.671654 0
M  V30 299 H 27.1697 -0.423254 -2.00992 0
M  V30 300 H 25.3997 1.65567 -3.49463 0
M  V30 301 H 27.0887 1.38591 -3.81507 0
M  V30 302 H 27.8547 -0.90906 -4.76404 0
M  V30 303 H 23.7337 0.306108 -4.59983 0
M  V30 304 H 27.2777 -2.59111 -6.47694 0
M  V30 305 H 23.1747 -1.36801 -6.30837 0
M  V30 306 H 23.9427 -2.97165 -7.6265 0
M  V30 307 N 26.6058 1.57591 -0.0167156 0
M  V30 308 C 27.8548 1.90461 0.663877 0
M  V30 309 C 28.1678 0.893515 1.73999 0
M  V30 310 O 29.3738 1.11302 2.47637 0
M  V30 311 C 27.8298 3.38155 1.23204 0
M  V30 312 C 27.4378 4.47597 0.189866 0
M  V30 313 C 29.1818 3.80111 1.88986 0
M  V30 314 C 27.0888 5.86379 0.768964 0
M  V30 315 H 26.0188 0.710738 0.251729 0
M  V30 316 H 28.6698 1.83326 -0.0799926 0
M  V30 317 H 27.0518 3.40182 2.02712 0
M  V30 318 H 28.2258 4.57112 -0.581846 0
M  V30 319 H 26.5408 4.14766 -0.368475 0
M  V30 320 H 29.1378 4.81145 2.33247 0
M  V30 321 H 29.4808 3.14511 2.72743 0
M  V30 322 H 30.0138 3.80454 1.16187 0
M  V30 323 H 26.7528 6.55493 -0.0301957 0
M  V30 324 H 26.2728 5.80496 1.50945 0
M  V30 325 H 27.9518 6.34563 1.26251 0
M  V30 326 N 28.0839 -0.256276 1.55502 0
M  V30 327 C 29.3299 -0.987079 1.77157 0
M  V30 328 C 29.6629 -1.85327 0.580315 0
M  V30 329 O 28.9379 -1.89874 -0.421686 0
M  V30 330 C 29.2209 -1.85553 3.08613 0
M  V30 331 C 29.0739 -1.01816 4.38125 0
M  V30 332 C 30.3929 -2.8397 3.36228 0
M  V30 333 H 27.5119 -0.357428 0.644526 0
M  V30 334 H 30.1539 -0.258239 1.88237 0
M  V30 335 H 28.3039 -2.47695 2.99298 0
M  V30 336 H 29.9759 -0.416159 4.59419 0
M  V30 337 H 28.2189 -0.322178 4.32602 0
M  V30 338 H 28.8899 -1.65939 5.26468 0
M  V30 339 H 31.3659 -2.31964 3.45445 0
M  V30 340 H 30.2419 -3.41864 4.29442 0
M  V30 341 H 30.5029 -3.59955 2.56681 0
M  V30 342 N 29.562 -1.4872 -0.521534 0
M  V30 343 C 30.973 -1.50607 -1.10337 0
M  V30 344 C 31.324 -0.280612 -1.94183 0
M  V30 345 O 30.449 0.611507 -2.0758 0
M  V30 346 C 31.044 -2.72903 -2.00772 0
M  V30 347 C 29.603 -2.77634 -2.54158 0
M  V30 348 C 28.75 -2.44241 -1.31307 0
M  V30 349 H 31.701 -1.55714 -0.306388 0
M  V30 350 H 31.722 -2.519 -2.85178 0
M  V30 351 H 31.234 -3.62077 -1.39721 0
M  V30 352 H 29.335 -1.92689 -3.18907 0
M  V30 353 H 29.448 -3.79283 -2.92714 0
M  V30 354 H 27.812 -1.95577 -1.63161 0
M  V30 355 H 28.595 -3.35666 -0.719943 0
M  V30 356 N 31.0401 0.771051 -1.3745 0
M  V30 357 C 32.2801 1.54264 -1.34096 0
M  V30 358 C 32.6441 1.91858 0.0737639 0
M  V30 359 O 33.8451 2.67797 0.23203 0
M  V30 360 C 32.1161 2.77326 -2.25445 0
M  V30 361 S 33.6751 3.67383 -2.39948 0
M  V30 362 H 30.4931 0.528122 -0.476034 0
M  V30 363 H 33.0951 0.906633 -1.73206 0
M  V30 364 H 31.7991 2.47788 -3.27153 0
M  V30 365 H 31.3301 3.45886 -1.87421 0
M  V30 366 H 33.3451 4.69334 -1.61059 0
M  V30 367 N 32.5182 1.22032 0.997298 0
M  V30 368 C 33.4482 1.01065 2.10495 0
M  V30 369 C 34.4292 -0.0669542 1.69968 0
M  V30 370 O 35.6142 0.0943987 1.9397 0
M  V30 371 C 32.7442 0.582874 3.42374 0
M  V30 372 C 31.6982 1.60592 3.96729 0
M  V30 373 C 31.0242 1.03412 5.24605 0
M  V30 374 C 32.3242 2.99478 4.27914 0
M  V30 375 H 34.0182 1.93708 2.28292 0
M  V30 376 H 31.5642 0.932761 1.09707 0
M  V30 377 H 33.5172 0.423332 4.19268 0
M  V30 378 H 32.2412 -0.379213 3.24391 0
M  V30 379 H 30.9002 1.75316 3.21963 0
M  V30 380 H 30.5482 0.063518 5.0296 0
M  V30 381 H 30.2482 1.71754 5.61938 0
M  V30 382 H 31.7722 0.886066 6.04137 0
M  V30 383 H 33.1862 2.88153 4.95622 0
M  V30 384 H 31.5832 3.64903 4.76409 0
M  V30 385 H 32.6532 3.49742 3.3587 0
M  V30 386 N 33.9963 -1.19345 1.0293 0
M  V30 387 C 34.9463 -2.20472 0.58104 0
M  V30 388 C 35.9303 -1.56578 -0.370442 0
M  V30 389 O 37.1223 -1.75963 -0.191344 0
M  V30 390 C 34.2513 -3.43236 -0.066306 0
M  V30 391 C 33.3373 -4.14274 0.907642 0
M  V30 392 N 33.7283 -4.61492 2.07023 0
M  V30 393 C 32.0263 -4.39966 0.731177 0
M  V30 394 C 32.7273 -5.1605 2.68454 0
M  V30 395 N 31.7033 -5.06875 1.96414 0
M  V30 396 H 35.5053 -2.54659 1.46717 0
M  V30 397 H 33.0193 -1.35423 0.896345 0
M  V30 398 H 35.0163 -4.14927 -0.405068 0
M  V30 399 H 33.6763 -3.10549 -0.948118 0
M  V30 400 H 34.6873 -4.56304 2.44963 0
M  V30 401 H 31.3643 -4.17377 -0.101507 0
M  V30 402 H 32.7543 -5.6287 3.66915 0
M  V30 403 N 35.4744 -0.807222 -1.35358 0
M  V30 404 C 36.3844 -0.219594 -2.3357 0
M  V30 405 C 37.4004 0.637734 -1.61892 0
M  V30 406 O 38.5764 0.549336 -1.93763 0
M  V30 407 C 35.6414 0.62158 -3.41083 0
M  V30 408 C 34.7024 -0.256315 -4.28534 0
M  V30 409 C 33.9354 0.544807 -5.30912 0
M  V30 410 O 34.1584 1.77944 -5.41934 0
M  V30 411 O 33.0924 -0.0646478 -6.01865 0
M  V30 412 H 36.9184 -1.03208 -2.85625 0
M  V30 413 H 34.5034 -0.569025 -1.38139 0
M  V30 414 H 36.3854 1.10067 -4.06772 0
M  V30 415 H 35.0604 1.41165 -2.91297 0
M  V30 416 H 33.9674 -0.782559 -3.65823 0
M  V30 417 H 35.3004 -1.01034 -4.81719 0
M  V30 418 N 36.9525 1.47285 -0.560781 0
M  V30 419 C 38.1985 2.02764 -0.0381184 0
M  V30 420 C 38.5315 1.43384 1.30976 0
M  V30 421 O 37.8065 0.590733 1.85312 0
M  V30 422 C 38.0895 3.60064 0.0511427 0
M  V30 423 C 37.9425 4.2987 -1.32408 0
M  V30 424 C 39.2615 4.33439 0.762795 0
M  V30 425 H 36.3805 0.736841 -0.0153264 0
M  V30 426 H 39.0225 1.75675 -0.723759 0
M  V30 427 H 37.1725 3.83274 0.635065 0
M  V30 428 H 38.8445 4.17989 -1.95148 0
M  V30 429 H 37.0875 3.90085 -1.8978 0
M  V30 430 H 37.7585 5.38478 -1.21431 0
M  V30 431 H 40.2345 4.15243 0.266965 0
M  V30 432 H 39.1105 5.43124 0.794221 0
M  V30 433 H 39.3715 4.02915 1.81966 0
M  V30 434 N 38.4306 0.297415 1.54768 0
M  V30 435 C 39.6786 -0.312295 1.99673 0
M  V30 436 C 39.9996 -1.54686 1.18732 0
M  V30 437 O 39.2696 -1.93854 0.282382 0
M  V30 438 H 37.8496 -0.118381 0.73756 0
M  V30 439 H 40.5116 0.407915 1.90583 0
M  V30 440 H 39.6076 -0.586813 3.06534 0
M  V30 441 N 39.9087 -1.5758 0.0250728 0
M  V30 442 C 41.1557 -1.91633 -0.654444 0
M  V30 443 C 41.4837 -0.901103 -1.72367 0
M  V30 444 O 40.7387 0.0905647 -1.9549 0
M  V30 445 C 41.0377 -3.32421 -1.31268 0
M  V30 446 C 40.7037 -4.49344 -0.374223 0
M  V30 447 C 39.3657 -4.8106 -0.115911 0
M  V30 448 C 41.7177 -5.20498 0.270432 0
M  V30 449 C 39.0457 -5.8129 0.79493 0
M  V30 450 C 41.3977 -6.21699 1.1693 0
M  V30 451 C 40.0617 -6.51859 1.43655 0
M  V30 452 H 39.3317 -0.701236 -0.239478 0
M  V30 453 H 41.9787 -1.91307 0.0859734 0
M  V30 454 H 40.2837 -3.28989 -2.12775 0
M  V30 455 H 41.9807 -3.56038 -1.84494 0
M  V30 456 H 38.5707 -4.24579 -0.58573 0
M  V30 457 H 42.7547 -4.96229 0.0839194 0
M  V30 458 H 38.0107 -6.03005 1.00973 0
M  V30 459 H 42.1847 -6.75955 1.67504 0
M  V30 460 H 39.8117 -7.2934 2.144 0
M  V30 461 N 41.3868 0.248026 -1.55636 0
M  V30 462 C 42.6268 0.983592 -1.79178 0
M  V30 463 C 42.9908 1.82567 -0.594414 0
M  V30 464 O 44.1918 2.59292 -0.708583 0
M  V30 465 C 42.4628 1.82228 -3.07454 0
M  V30 466 S 44.0218 2.61709 -3.52213 0
M  V30 467 H 40.8398 0.330866 -0.629324 0
M  V30 468 H 43.4418 0.251562 -1.93875 0
M  V30 469 H 42.1458 1.19333 -3.92668 0
M  V30 470 H 41.6768 2.59708 -2.95492 0
M  V30 471 H 43.6918 3.84655 -3.13457 0
M  V30 472 N 42.8649 1.48995 0.513639 0
M  V30 473 C 44.0949 1.61297 1.291 0
M  V30 474 C 44.5029 0.278656 1.87137 0
M  V30 475 O 43.8459 -0.744325 1.67945 0
M  V30 476 C 43.9079 2.61326 2.46879 0
M  V30 477 C 43.5719 4.05993 2.09807 0
M  V30 478 C 44.5689 4.93183 1.64519 0
M  V30 479 C 42.2539 4.51642 2.19829 0
M  V30 480 C 44.2479 6.24056 1.2974 0
M  V30 481 C 41.9349 5.82532 1.84662 0
M  V30 482 C 42.9329 6.68562 1.3969 0
M  V30 483 O 42.6209 7.97014 1.04992 0
M  V30 484 H 42.3529 0.546236 0.39825 0
M  V30 485 H 44.9069 1.95673 0.62459 0
M  V30 486 H 43.1369 2.22104 3.16554 0
M  V30 487 H 44.8259 2.6329 3.08923 0
M  V30 488 H 45.5919 4.59147 1.56233 0
M  V30 489 H 41.4709 3.84855 2.53786 0
M  V30 490 H 45.0149 6.91161 0.945659 0
M  V30 491 H 40.9119 6.16099 1.92594 0
M  V30 492 H 41.6799 8.09913 1.18249 0
M  V30 493 N 44.343 -0.763751 1.37857 0
M  V30 494 C 45.273 -1.89103 1.36975 0
M  V30 495 C 46.254 -1.68439 0.237152 0
M  V30 496 O 47.439 -1.8918 0.438713 0
M  V30 497 C 44.569 -3.26496 1.18395 0
M  V30 498 C 43.523 -3.61741 2.28751 0
M  V30 499 C 42.849 -4.97762 1.95286 0
M  V30 500 C 44.149 -3.67665 3.70972 0
M  V30 501 H 45.843 -1.90099 2.31307 0
M  V30 502 H 43.389 -0.91319 1.11341 0
M  V30 503 H 45.342 -4.05003 1.16406 0
M  V30 504 H 44.066 -3.25955 0.205215 0
M  V30 505 H 42.725 -2.85547 2.29909 0
M  V30 506 H 42.373 -4.93769 0.959221 0
M  V30 507 H 42.073 -5.22313 2.69189 0
M  V30 508 H 43.597 -5.7866 1.94898 0
M  V30 509 H 45.011 -4.36307 3.719 0
M  V30 510 H 43.408 -4.03718 4.43995 0
M  V30 511 H 44.478 -2.68134 4.0402 0
M  V30 512 N 45.8211 -1.22559 -0.990812 0
M  V30 513 C 47.0981 -0.959875 -1.70428 0
M  V30 514 C 47.4781 0.524455 -2.04481 0
M  V30 515 O 46.8261 1.49302 -1.72977 0
M  V30 516 C 47.0361 -1.85955 -2.95333 0
M  V30 517 C 48.3841 -2.11687 -3.68068 0
M  V30 518 O 49.4081 -1.8342 -3.05345 0
M  V30 519 O 48.2671 -2.59572 -4.80921 0
M  V30 520 H 45.3611 -0.361154 -0.743974 0
M  V30 521 H 47.9071 -1.33554 -1.04697 0
M  V30 522 H 46.6791 -2.86346 -2.66687 0
M  V30 523 H 46.3021 -1.4856 -3.68803 0
M  V30 524 N 47.2992 1.18797 -1.03562 0
M  V30 525 C 48.2472 2.24297 -0.615905 0
M  V30 526 C 49.2412 1.65643 0.354808 0
M  V30 527 O 50.4472 1.78618 0.22265 0
M  V30 528 H 46.8222 0.729909 -0.180934 0
M  V30 529 H 48.7932 2.5701 -1.5162 0
M  V30 530 C 47.5422 3.47698 0.0104735 0
M  V30 531 H 46.8652 3.93125 -0.727509 0
M  V30 532 H 48.3052 4.23159 0.266995 0
M  V30 533 C 46.7642 3.12489 1.25905 0
M  V30 534 O 47.2942 3.25761 2.35038 0
M  V30 535 N 45.5002 2.6686 1.15039 0
M  V30 536 H 45.0472 2.56261 0.262328 0
M  V30 537 H 45.0052 2.43674 1.98672 0
M  V30 538 N 48.7773 0.814389 1.34928 0
M  V30 539 C 50.0243 0.398423 1.98542 0
M  V30 540 C 50.3523 -1.03638 1.64589 0
M  V30 541 O 49.6073 -1.73509 0.90516 0
M  V30 542 C 49.9063 0.537781 3.53331 0
M  V30 543 C 49.5723 1.93704 4.07172 0
M  V30 544 C 48.2343 2.31984 4.21589 0
M  V30 545 C 50.5863 2.85213 4.36237 0
M  V30 546 C 47.9143 3.61125 4.62391 0
M  V30 547 C 50.2663 4.13809 4.78482 0
M  V30 548 C 48.9303 4.52077 4.91104 0
M  V30 549 H 48.2003 0.145793 0.726516 0
M  V30 550 H 50.8473 1.03669 1.61012 0
M  V30 551 H 49.1523 -0.183906 3.91368 0
M  V30 552 H 50.8493 0.196588 4.00518 0
M  V30 553 H 47.4393 1.62966 3.96409 0
M  V30 554 H 51.6233 2.56885 4.24645 0
M  V30 555 H 46.8793 3.90612 4.70353 0
M  V30 556 H 51.0533 4.84811 4.99932 0
M  V30 557 H 48.6803 5.52196 5.22478 0
M  V30 558 N 50.2554 -1.46986 0.568584 0
M  V30 559 C 51.1854 -2.32946 -0.160753 0
M  V30 560 C 52.1664 -1.44487 -0.897631 0
M  V30 561 O 53.3514 -1.73327 -0.875867 0
M  V30 562 C 50.4814 -3.26494 -1.18403 0
M  V30 563 C 49.4354 -4.24282 -0.562895 0
M  V30 564 C 48.7614 -5.07236 -1.69163 0
M  V30 565 C 50.0614 -5.19989 0.490761 0
M  V30 566 H 51.7554 -2.94175 0.556916 0
M  V30 567 H 49.3014 -1.4146 0.26927 0
M  V30 568 H 51.2544 -3.85477 -1.70251 0
M  V30 569 H 49.9784 -2.63343 -1.93179 0
M  V30 570 H 48.6374 -3.66541 -0.0656164 0
M  V30 571 H 48.2854 -4.4048 -2.42871 0
M  V30 572 H 47.9854 -5.7345 -1.28174 0
M  V30 573 H 49.5094 -5.6908 -2.21314 0
M  V30 574 H 50.9234 -5.73271 0.0579047 0
M  V30 575 H 49.3204 -5.94469 0.820165 0
M  V30 576 H 50.3904 -4.64777 1.3824 0
M  V30 577 N 51.7335 -0.305618 -1.54608 0
M  V30 578 C 52.9815 0.301701 -1.99835 0
M  V30 579 C 53.3025 1.54054 -1.19551 0
M  V30 580 O 52.5725 1.93702 -0.292658 0
M  V30 581 H 51.1525 0.114468 -0.738178 0
M  V30 582 H 53.8145 -0.418016 -1.90364 0
M  V30 583 H 52.9105 0.570548 -3.06841 0
M  V30 584 N 53.2116 1.57565 -0.0334293 0
M  V30 585 C 54.1216 2.13943 0.962572 0
M  V30 586 C 55.1376 1.09276 1.35406 0
M  V30 587 O 56.3136 1.41355 1.4346 0
M  V30 588 C 53.3786 2.65887 2.22497 0
M  V30 589 C 52.4396 3.85286 1.8935 0
M  V30 590 C 51.6726 4.34743 3.09571 0
M  V30 591 O 51.8956 3.83352 4.22371 0
M  V30 592 O 50.8296 5.26538 2.91618 0
M  V30 593 H 54.6556 2.99333 0.513169 0
M  V30 594 H 52.2406 1.4822 0.18743 0
M  V30 595 H 54.1226 2.99346 2.96598 0
M  V30 596 H 52.7976 1.83578 2.6661 0
M  V30 597 H 51.7046 3.56746 1.1262 0
M  V30 598 H 53.0376 4.68771 1.5005 0
M  V30 599 N 54.6897 -0.239769 1.55765 0
M  V30 600 C 55.9357 -0.968234 1.78194 0
M  V30 601 C 56.2687 -1.84701 0.599938 0
M  V30 602 O 55.5437 -1.9031 -0.401524 0
M  V30 603 C 55.8267 -1.8227 3.10564 0
M  V30 604 C 55.6797 -0.971633 4.3918 0
M  V30 605 C 56.9987 -2.80388 3.39221 0
M  V30 606 H 54.1177 -0.350572 0.648281 0
M  V30 607 H 56.7597 -0.238259 1.885 0
M  V30 608 H 54.9097 -2.44507 3.01908 0
M  V30 609 H 56.5817 -0.367408 4.59835 0
M  V30 610 H 54.8247 -0.276276 4.32919 0
M  V30 611 H 55.4957 -1.60346 5.28198 0
M  V30 612 H 57.9717 -2.28287 3.47885 0
M  V30 613 H 56.8477 -3.3729 4.33044 0
M  V30 614 H 57.1087 -3.57212 2.60484 0
M  V30 615 N 56.1678 -1.49265 -0.50573 0
M  V30 616 C 57.4138 -1.58748 -1.26202 0
M  V30 617 C 57.7468 -0.271227 -1.92297 0
M  V30 618 O 57.0218 0.724831 -1.80489 0
M  V30 619 C 57.3048 -2.74332 -2.33268 0
M  V30 620 C 57.1578 -4.15737 -1.71705 0
M  V30 621 C 58.4768 -2.85576 -3.34865 0
M  V30 622 H 55.5958 -0.577826 -0.457478 0
M  V30 623 H 58.2378 -1.81532 -0.560897 0
M  V30 624 H 56.3878 -2.55036 -2.93068 0
M  V30 625 H 58.0598 -4.46537 -1.15769 0
M  V30 626 H 56.3028 -4.21605 -1.02135 0
M  V30 627 H 56.9738 -4.92477 -2.49341 0
M  V30 628 H 59.4498 -3.03127 -2.8505 0
M  V30 629 H 58.3258 -3.68135 -4.07146 0
M  V30 630 H 58.5868 -1.94732 -3.96903 0
M  V30 631 N 57.6459 0.756429 -1.3826 0
M  V30 632 C 58.8939 1.51248 -1.34047 0
M  V30 633 C 59.2149 1.94875 0.0698372 0
M  V30 634 O 58.4849 1.67436 1.01696 0
M  V30 635 H 57.0649 0.561018 -0.493222 0
M  V30 636 H 59.7269 0.899347 -1.7291 0
M  V30 637 H 58.8229 2.40472 -1.98947 0
M  V30 638 N 59.124 1.23083 0.984299 0
M  V30 639 C 60.401 0.9689 1.69917 0
M  V30 640 C 60.781 -0.513604 2.04757 0
M  V30 641 O 60.129 -1.48383 1.73767 0
M  V30 642 C 60.339 1.87518 2.94343 0
M  V30 643 C 61.687 2.13636 3.6694 0
M  V30 644 O 62.711 1.85036 3.04368 0
M  V30 645 O 61.57 2.62119 4.79537 0
M  V30 646 H 58.664 0.365095 0.742048 0
M  V30 647 H 61.21 1.34107 1.03987 0
M  V30 648 H 59.982 2.87756 2.65164 0
M  V30 649 H 59.605 1.50514 3.6801 0
M  V30 650 N 60.6021 -1.18246 1.0419 0
M  V30 651 C 61.8421 -1.89948 0.754916 0
M  V30 652 C 62.2061 -1.78608 -0.70451 0
M  V30 653 O 63.4071 -2.4503 -1.10516 0
M  V30 654 C 61.6781 -3.36305 1.20969 0
M  V30 655 S 63.2371 -4.26088 1.04854 0
M  V30 656 H 60.0551 -0.655897 0.274446 0
M  V30 657 H 62.6571 -1.42873 1.33445 0
M  V30 658 H 61.3611 -3.42089 2.26722 0
M  V30 659 H 60.8921 -3.8842 0.624004 0
M  V30 660 H 62.9071 -4.96189 -0.0332896 0
M  V30 661 N 62.0802 -0.821533 -1.34494 0
M  V30 662 C 63.3262 -0.409552 -1.98622 0
M  V30 663 C 63.6592 1.0244 -1.64984 0
M  V30 664 O 62.9342 1.71325 -0.920758 0
M  V30 665 C 63.2172 -0.610458 -3.54888 0
M  V30 666 C 63.0702 -2.09043 -3.98273 0
M  V30 667 C 64.3892 -0.0455379 -4.40076 0
M  V30 668 H 61.5082 -0.15028 -0.721516 0
M  V30 669 H 64.1502 -1.03384 -1.59411 0
M  V30 670 H 62.3002 -0.079044 -3.8842 0
M  V30 671 H 63.9722 -2.68537 -3.75081 0
M  V30 672 H 62.2152 -2.58139 -3.48635 0
M  V30 673 H 62.8862 -2.18182 -5.07051 0
M  V30 674 H 65.3622 -0.499557 -4.1309 0
M  V30 675 H 64.2382 -0.215922 -5.48475 0
M  V30 676 H 64.4992 1.04939 -4.29465 0
M  V30 677 N 63.5583 1.46682 -0.576371 0
M  V30 678 C 64.4883 2.33028 0.148397 0
M  V30 679 C 65.4693 1.44961 0.889956 0
M  V30 680 O 66.6543 1.73789 0.866662 0
M  V30 681 C 63.7843 3.27117 1.1667 0
M  V30 682 C 62.7383 4.24575 0.540386 0
M  V30 683 C 62.0643 5.08126 1.6647 0
M  V30 684 C 63.3643 5.19722 -0.518331 0
M  V30 685 H 65.0583 2.93875 -0.572509 0
M  V30 686 H 62.6043 1.41315 -0.276768 0
M  V30 687 H 64.5573 3.86374 1.68204 0
M  V30 688 H 63.2813 2.64364 1.9178 0
M  V30 689 H 61.9403 3.66571 0.0461769 0
M  V30 690 H 61.5883 4.41762 2.40531 0
M  V30 691 H 61.2883 5.74122 1.25131 0
M  V30 692 H 62.8123 5.70246 2.18293 0
M  V30 693 H 64.2263 5.73232 -0.0883058 0
M  V30 694 H 62.6233 5.94026 -0.851679 0
M  V30 695 H 63.6933 4.64037 -1.40703 0
M  V30 696 N 65.0364 0.313813 1.54444 0
M  V30 697 C 65.9464 -0.565714 2.27677 0
M  V30 698 C 66.9624 -1.13754 1.31666 0
M  V30 699 O 68.1384 -1.15959 1.64668 0
M  V30 700 C 65.2034 -1.71528 3.01296 0
M  V30 701 C 64.2644 -1.17624 4.12872 0
M  V30 702 C 63.4974 -2.27102 4.8297 0
M  V30 703 O 63.7204 -3.47256 4.52514 0
M  V30 704 O 62.6544 -1.9307 5.70094 0
M  V30 705 H 66.4804 0.0287296 3.03686 0
M  V30 706 H 64.0654 0.0798312 1.49187 0
M  V30 707 H 65.9474 -2.38476 3.4743 0
M  V30 708 H 64.6224 -2.29608 2.2817 0
M  V30 709 H 63.5294 -0.472124 3.71109 0
M  V30 710 H 64.8624 -0.640695 4.88012 0
M  V30 711 N 66.5145 -1.57545 0.0417849 0
M  V30 712 C 67.9305 -1.56467 -0.314704 0
M  V30 713 C 68.1305 -1.04859 -1.72066 0
M  V30 714 O 67.1865 -0.700983 -2.42575 0
M  V30 715 C 68.4995 -3.00317 -0.15174 0
M  V30 716 C 70.0475 -3.12201 -0.223553 0
M  V30 717 C 70.5225 -4.57913 -0.0892295 0
M  V30 718 N 72.0135 -4.6297 -0.145808 0
M  V30 719 C 72.7485 -5.73362 -0.0658459 0
M  V30 720 N 72.2445 -6.92769 0.0659282 0
M  V30 721 N 74.0375 -5.6197 -0.12075 0
M  V30 722 H 66.1885 -1.89416 0.961014 0
M  V30 723 H 68.4515 -0.871862 0.372237 0
M  V30 724 H 68.1575 -3.42073 0.817254 0
M  V30 725 H 68.0315 -3.65892 -0.916692 0
M  V30 726 H 70.4185 -2.70349 -1.18301 0
M  V30 727 H 70.4995 -2.49323 0.571994 0
M  V30 728 H 70.1435 -5.00448 0.866867 0
M  V30 729 H 70.0735 -5.18786 -0.903802 0
M  V30 730 H 72.5645 -3.7709 -0.247286 0
M  V30 731 H 72.8775 -7.72707 0.119905 0
M  V30 732 H 71.2225 -6.94927 0.100885 0
M  V30 733 H 74.4135 -4.67572 -0.222187 0
M  V30 734 H 74.5865 -6.47977 -0.0549735 0
M  V30 735 N 67.9926 0.231505 -1.5589 0
M  V30 736 C 69.2386 0.95877 -1.78705 0
M  V30 737 C 69.5716 1.8438 -0.609725 0
M  V30 738 O 68.8466 1.90521 0.391426 0
M  V30 739 C 69.1296 1.8062 -3.11526 0
M  V30 740 C 68.9826 0.948328 -4.39689 0
M  V30 741 C 70.3016 2.78585 -3.40703 0
M  V30 742 H 67.4206 0.347129 -0.650131 0
M  V30 743 H 70.0626 0.228259 -1.88624 0
M  V30 744 H 68.2126 2.42902 -3.03201 0
M  V30 745 H 69.8846 0.343016 -4.60023 0
M  V30 746 H 68.1276 0.253314 -4.3306 0
M  V30 747 H 68.7986 1.57543 -5.29041 0
M  V30 748 H 71.2746 2.26439 -3.49091 0
M  V30 749 H 70.1506 3.34988 -4.34826 0
M  V30 750 H 70.4116 3.55825 -2.62375 0
M  V30 751 N 69.4707 1.49531 0.497807 0
M  V30 752 C 70.4177 1.66436 1.59899 0
M  V30 753 C 71.3877 0.505793 1.58212 0
M  V30 754 O 72.5727 0.733202 1.7615 0
M  V30 755 C 69.7127 1.7399 2.98029 0
M  V30 756 C 68.8257 3.01172 3.09708 0
M  V30 757 C 67.9607 2.99686 4.38591 0
M  V30 758 C 66.9997 4.21434 4.43914 0
M  V30 759 N 66.1367 4.1784 5.64229 0
M  V30 760 H 70.9767 2.60459 1.44793 0
M  V30 761 H 68.5137 1.29137 0.704423 0
M  V30 762 H 70.4717 1.76352 3.78095 0
M  V30 763 H 69.1017 0.834301 3.11832 0
M  V30 764 H 68.1537 3.08408 2.22685 0
M  V30 765 H 69.4657 3.91165 3.09502 0
M  V30 766 H 68.6197 3.00628 5.2698 0
M  V30 767 H 67.3587 2.07477 4.41367 0
M  V30 768 H 66.3637 4.20733 3.53926 0
M  V30 769 H 67.5887 5.14839 4.42851 0
M  V30 770 H 65.5347 3.28469 5.67841 0
M  V30 771 H 65.4517 5.01571 5.65652 0
M  V30 772 H 66.7197 4.22889 6.54817 0
M  V30 773 N 70.9488 -0.749086 1.3866 0
M  V30 774 C 71.8808 -1.87273 1.32142 0
M  V30 775 C 72.8938 -1.61127 0.232787 0
M  V30 776 O 74.0828 -1.71623 0.49069 0
M  V30 777 C 71.1828 -3.23005 1.02571 0
M  V30 778 C 70.3558 -3.7662 2.22433 0
M  V30 779 C 69.4148 -4.90879 1.89537 0
M  V30 780 O 68.4408 -5.05276 2.62078 0
M  V30 781 N 69.6428 -5.74198 0.853031 0
M  V30 782 H 72.4078 -1.93373 2.28969 0
M  V30 783 H 69.9688 -0.929216 1.32579 0
M  V30 784 H 71.9608 -3.96992 0.786085 0
M  V30 785 H 70.5308 -3.12262 0.145249 0
M  V30 786 H 69.7508 -2.94147 2.62434 0
M  V30 787 H 71.0388 -4.09173 3.02415 0
M  V30 788 H 70.4368 -5.6514 0.25155 0
M  V30 789 H 68.9938 -6.48313 0.67329 0
M  V30 790 N 72.4269 -1.23603 -0.977757 0
M  V30 791 C 73.3569 -1.04401 -2.0886 0
M  V30 792 C 74.3379 0.0399052 -1.70053 0
M  V30 793 O 75.5229 -0.125246 -1.93796 0
M  V30 794 C 72.6529 -0.637269 -3.41403 0
M  V30 795 C 71.6069 -1.66883 -3.94124 0
M  V30 796 C 70.9329 -1.11745 -5.22893 0
M  V30 797 C 72.2329 -3.06247 -4.23096 0
M  V30 798 H 73.9269 -1.97316 -2.25182 0
M  V30 799 H 71.4729 -0.950096 -1.08209 0
M  V30 800 H 73.4259 -0.48998 -4.18542 0
M  V30 801 H 72.1499 0.327557 -3.24953 0
M  V30 802 H 70.8089 -1.80416 -3.19133 0
M  V30 803 H 70.4569 -0.143527 -5.02795 0
M  V30 804 H 70.1569 -1.80672 -5.59134 0
M  V30 805 H 71.6809 -0.982067 -6.02651 0
M  V30 806 H 73.0949 -2.96001 -4.90975 0
M  V30 807 H 71.4919 -3.72436 -4.70544 0
M  V30 808 H 72.5619 -3.55041 -3.30263 0
M  V30 809 N 73.905 1.17692 -1.04816 0
M  V30 810 C 74.855 2.1952 -0.616042 0
M  V30 811 C 75.839 1.57147 0.345485 0
M  V30 812 O 77.031 1.76245 0.163325 0
M  V30 813 C 74.16 3.43298 0.0116917 0
M  V30 814 C 73.246 4.12777 -0.973435 0
M  V30 815 N 73.637 4.5814 -2.14339 0
M  V30 816 C 71.935 4.38747 -0.80108 0
M  V30 817 C 72.636 5.11713 -2.7663 0
M  V30 818 N 71.612 5.03686 -2.04453 0
M  V30 819 H 75.414 2.52293 -1.5075 0
M  V30 820 H 72.928 1.3398 -0.917776 0
M  V30 821 H 74.925 4.15519 0.339006 0
M  V30 822 H 73.585 3.12018 0.898593 0
M  V30 823 H 74.596 4.52349 -2.52191 0
M  V30 824 H 71.273 4.17485 0.0350934 0
M  V30 825 H 72.663 5.56962 -3.75823 0
M  V30 826 N 75.3831 0.828654 1.34056 0
M  V30 827 C 76.6231 0.425394 1.99924 0
M  V30 828 C 76.9871 -0.994294 1.64249 0
M  V30 829 O 78.1881 -1.50074 2.23005 0
M  V30 830 C 76.4591 0.628071 3.51838 0
M  V30 831 S 78.0181 0.318511 4.37642 0
M  V30 832 H 74.8361 0.160465 0.692656 0
M  V30 833 H 77.4381 1.07572 1.63244 0
M  V30 834 H 76.1421 1.66089 3.7529 0
M  V30 835 H 75.6731 -0.0367799 3.93383 0
M  V30 836 H 77.6881 -0.865632 4.88591 0
M  V30 837 N 76.8612 -1.46375 0.584142 0
M  V30 838 C 78.0892 -2.06761 0.0759296 0
M  V30 839 C 78.5042 -1.43266 -1.22965 0
M  V30 840 O 77.8612 -0.538458 -1.74376 0
M  V30 841 C 77.9122 -3.61375 -0.0950384 0
M  V30 842 O 77.6332 -4.22495 1.15887 0
M  V30 843 C 79.1342 -4.38693 -0.637434 0
M  V30 844 H 76.3542 -0.668479 0.0581075 0
M  V30 845 H 78.8982 -1.8798 0.805218 0
M  V30 846 H 77.0532 -3.79578 -0.774554 0
M  V30 847 H 77.4672 -5.15385 0.973598 0
M  V30 848 H 78.9412 -5.47464 -0.706237 0
M  V30 849 H 79.4182 -4.06836 -1.65472 0
M  V30 850 H 80.0242 -4.25299 0.00725967 0
M  V30 851 N 78.3393 -0.321999 -1.54275 0
M  V30 852 C 79.5873 0.280489 -2.00144 0
M  V30 853 C 79.9083 1.52777 -1.21178 0
M  V30 854 O 79.1783 1.9338 -0.313187 0
M  V30 855 H 77.7583 0.106632 -0.73935 0
M  V30 856 H 80.4203 -0.438184 -1.8991 0
M  V30 857 H 79.5163 0.537972 -3.07428 0
M  V30 858 N 79.8174 1.5752 -0.0501392 0
M  V30 859 C 80.7804 2.1037 0.909786 0
M  V30 860 C 81.7804 1.02308 1.24056 0
M  V30 861 O 82.9704 1.28385 1.17741 0
M  V30 862 C 80.1024 2.58708 2.21998 0
M  V30 863 H 81.2954 2.96479 0.451665 0
M  V30 864 H 78.8484 1.55038 0.198248 0
M  V30 865 H 79.5834 1.75989 2.72394 0
M  V30 866 H 79.3684 3.37675 1.99295 0
M  V30 867 H 80.8584 2.99747 2.9076 0
M  V30 868 N 81.2955 -0.223234 1.56011 0
M  V30 869 C 82.2255 -1.27988 1.95298 0
M  V30 870 C 83.2065 -1.48976 0.820979 0
M  V30 871 O 84.3915 -1.61188 1.08315 0
M  V30 872 C 81.5215 -2.63 2.26822 0
M  V30 873 C 80.4755 -2.56671 3.42497 0
M  V30 874 C 79.8015 -3.95697 3.59622 0
M  V30 875 C 81.1015 -2.11601 4.77517 0
M  V30 876 H 82.7955 -0.953525 2.8381 0
M  V30 877 H 80.3415 -0.457244 1.36548 0
M  V30 878 H 82.2945 -3.37077 2.52898 0
M  V30 879 H 81.0185 -2.9732 1.35161 0
M  V30 880 H 79.6775 -1.85051 3.16467 0
M  V30 881 H 79.3255 -4.27322 2.6534 0
M  V30 882 H 79.0255 -3.92345 4.37424 0
M  V30 883 H 80.5495 -4.71438 3.88044 0
M  V30 884 H 81.9635 -2.7542 5.02809 0
M  V30 885 H 80.3605 -2.19311 5.5859 0
M  V30 886 H 81.4305 -1.06824 4.72987 0
M  V30 887 N 82.7736 -1.49793 -0.48987 0
M  V30 888 C 84.1896 -1.36803 -0.822022 0
M  V30 889 C 84.3896 -0.409652 -1.97292 0
M  V30 890 O 83.4456 0.154614 -2.52026 0
M  V30 891 C 84.7586 -2.77768 -1.15175 0
M  V30 892 C 86.3066 -2.86549 -1.25931 0
M  V30 893 C 86.7816 -4.28306 -1.62228 0
M  V30 894 N 88.2726 -4.31169 -1.69256 0
M  V30 895 C 89.0076 -5.37832 -1.98807 0
M  V30 896 N 88.5036 -6.54726 -2.26507 0
M  V30 897 N 90.2966 -5.25258 -2.00152 0
M  V30 898 H 82.4476 -2.10691 0.268881 0
M  V30 899 H 84.7106 -0.946241 0.057728 0
M  V30 900 H 84.4166 -3.49648 -0.379335 0
M  V30 901 H 84.2906 -3.13836 -2.09253 0
M  V30 902 H 86.6776 -2.14899 -2.02243 0
M  V30 903 H 86.7586 -2.54049 -0.298776 0
M  V30 904 H 86.4026 -5.00486 -0.864622 0
M  V30 905 H 86.3326 -4.58279 -2.594 0
M  V30 906 H 88.8236 -3.4687 -1.49965 0
M  V30 907 H 89.1366 -7.31833 -2.48276 0
M  V30 908 H 87.4816 -6.57933 -2.23939 0
M  V30 909 H 90.6726 -4.32938 -1.77996 0
M  V30 910 H 90.8456 -6.08476 -2.22848 0
M  V30 911 N 84.2517 0.741722 -1.39055 0
M  V30 912 C 85.5287 1.49252 -1.26425 0
M  V30 913 C 85.9087 2.10705 0.129144 0
M  V30 914 O 85.2567 1.98045 1.13976 0
M  V30 915 C 85.4667 2.54934 -2.38347 0
M  V30 916 C 86.8147 3.21506 -2.77343 0
M  V30 917 O 87.8387 2.65245 -2.37747 0
M  V30 918 O 86.6977 4.23294 -3.45665 0
M  V30 919 H 83.7917 0.662451 -0.495064 0
M  V30 920 H 86.3377 0.776121 -1.50912 0
M  V30 921 H 85.1097 2.07857 -3.31529 0
M  V30 922 H 84.7327 3.34141 -2.15489 0
M  V30 923 N 85.7298 1.2412 0.971189 0
M  V30 924 C 86.9778 1.07668 1.71032 0
M  V30 925 C 87.2988 -0.385797 1.91146 0
M  V30 926 O 86.5688 -1.27569 1.4867 0
M  V30 927 H 85.1488 0.395429 0.633755 0
M  V30 928 H 87.8108 1.55984 1.16855 0
M  V30 929 H 86.9068 1.57195 2.69622 0
M  V30 930 N 87.2079 -1.17134 1.05439 0
M  V30 931 C 88.1399 -2.2078 0.615539 0
M  V30 932 C 89.1529 -1.59584 -0.322001 0
M  V30 933 O 90.3419 -1.78133 -0.114344 0
M  V30 934 C 87.4419 -3.38691 -0.118938 0
M  V30 935 C 86.6149 -4.29454 0.829924 0
M  V30 936 C 85.6739 -5.26024 0.136258 0
M  V30 937 O 84.6999 -5.63952 0.77115 0
M  V30 938 N 85.9019 -5.69487 -1.1254 0
M  V30 939 H 88.6669 -2.59052 1.50705 0
M  V30 940 H 86.2279 -1.32058 0.936603 0
M  V30 941 H 88.2199 -4.00329 -0.593179 0
M  V30 942 H 86.7899 -2.98996 -0.91215 0
M  V30 943 H 86.0099 -3.65211 1.48373 0
M  V30 944 H 87.2979 -4.86984 1.47392 0
M  V30 945 H 86.6959 -5.4075 -1.6615 0
M  V30 946 H 85.2529 -6.33257 -1.54366 0
M  V30 947 N 88.686 -0.835752 -1.33615 0
M  V30 948 C 89.616 -0.281739 -2.31794 0
M  V30 949 C 90.597 0.608833 -1.58831 0
M  V30 950 O 91.782 0.533035 -1.86741 0
M  V30 951 C 88.912 0.546612 -3.42971 0
M  V30 952 C 87.866 -0.247904 -4.27281 0
M  V30 953 C 87.192 0.704001 -5.30045 0
M  V30 954 C 88.492 -1.46324 -5.01385 0
M  V30 955 H 90.186 -1.10206 -2.78379 0
M  V30 956 H 87.732 -0.531388 -1.33837 0
M  V30 957 H 89.685 0.944467 -4.1068 0
M  V30 958 H 88.409 1.40011 -2.95067 0
M  V30 959 H 87.068 -0.627281 -3.61194 0
M  V30 960 H 86.716 1.55381 -4.78399 0
M  V30 961 H 86.416 0.176524 -5.87335 0
M  V30 962 H 87.94 1.09944 -6.0062 0
M  V30 963 H 89.354 -1.13871 -5.61877 0
M  V30 964 H 87.751 -1.92728 -5.6831 0
M  V30 965 H 88.821 -2.23467 -4.30338 0
M  V30 966 N 90.1641 1.46063 -0.591896 0
M  V30 967 C 91.1271 2.28854 0.125973 0
M  V30 968 C 92.1271 1.38903 0.810107 0
M  V30 969 O 93.3171 1.61186 0.66066 0
M  V30 970 C 90.4491 3.19526 1.1881 0
M  V30 971 H 91.6421 2.93802 -0.601717 0
M  V30 972 H 89.1951 1.52325 -0.350254 0
M  V30 973 H 89.9301 2.59345 1.94707 0
M  V30 974 H 89.7151 3.85766 0.701936 0
M  V30 975 H 91.2051 3.81817 1.69132 0
M  V30 976 N 91.6422 0.330177 1.54103 0
M  V30 977 C 92.8902 -0.269871 2.0029 0
M  V30 978 C 93.2112 -1.52133 1.21986 0
M  V30 979 O 92.4812 -1.93212 0.323438 0
M  V30 980 H 91.0612 -0.10271 0.739905 0
M  V30 981 H 93.7232 0.448249 1.89675 0
M  V30 982 H 92.8192 -0.52166 3.07709 0
M  V30 983 N 93.1203 -1.57491 0.0584922 0
M  V30 984 C 94.5313 -1.80526 -0.476138 0
M  V30 985 C 94.8823 -0.971334 -1.70469 0
M  V30 986 O 94.0073 -0.190012 -2.15564 0
M  V30 987 C 94.6023 -3.27424 -0.870587 0
M  V30 988 C 93.1613 -3.51351 -1.35015 0
M  V30 989 C 92.3083 -2.75343 -0.32887 0
M  V30 990 H 95.2593 -1.56133 0.284312 0
M  V30 991 H 95.2803 -3.38745 -1.73299 0
M  V30 992 H 94.7923 -3.88093 0.0237627 0
M  V30 993 H 92.8933 -2.95971 -2.26345 0
M  V30 994 H 93.0063 -4.60059 -1.33726 0
M  V30 995 H 91.3703 -2.417 -0.803321 0
M  V30 996 H 92.1533 -3.38743 0.557521 0
M  V30 997 N 94.5984 0.214957 -1.56127 0
M  V30 998 C 96.0144 0.564948 -1.49267 0
M  V30 999 C 96.2144 1.86827 -0.754838 0
M  V30 1000 O 95.2704 2.50745 -0.297198 0
M  V30 1001 C 96.5834 0.638071 -2.93852 0
M  V30 1002 C 98.1314 0.728253 -3.0441 0
M  V30 1003 C 98.6064 0.832663 -4.50367 0
M  V30 1004 N 100.097 0.896712 -4.54437 0
M  V30 1005 C 100.832 0.997324 -5.6466 0
M  V30 1006 N 100.328 1.06147 -6.8462 0
M  V30 1007 N 102.121 1.03297 -5.52527 0
M  V30 1008 H 94.2724 -0.640211 -2.02522 0
M  V30 1009 H 96.5354 -0.225507 -0.920788 0
M  V30 1010 H 96.2414 -0.250126 -3.50809 0
M  V30 1011 H 96.1154 1.49947 -3.46115 0
M  V30 1012 H 98.5024 1.60689 -2.47514 0
M  V30 1013 H 98.5834 -0.158952 -2.55306 0
M  V30 1014 H 98.2274 -0.0415417 -5.07883 0
M  V30 1015 H 98.1574 1.73538 -4.97184 0
M  V30 1016 H 100.648 0.857188 -3.6805 0
M  V30 1017 H 100.961 1.1382 -7.64372 0
M  V30 1018 H 99.3064 1.03049 -6.87318 0
M  V30 1019 H 102.497 0.979558 -4.57736 0
M  V30 1020 H 102.67 1.10793 -6.38458 0
M  V30 1021 N 96.0765 1.50051 0.48192 0
M  V30 1022 C 97.0395 1.67584 1.5636 0
M  V30 1023 C 98.0395 0.546894 1.51214 0
M  V30 1024 O 99.2295 0.813725 1.54026 0
M  V30 1025 C 96.3615 1.691 2.96003 0
M  V30 1026 H 97.5545 2.64078 1.42136 0
M  V30 1027 H 95.1075 1.39369 0.707533 0
M  V30 1028 H 95.8425 0.742589 3.15684 0
M  V30 1029 H 95.6275 2.51105 3.01146 0
M  V30 1030 H 97.1175 1.84656 3.74556 0
M  V30 1031 N 97.5546 -0.734337 1.39446 0
M  V30 1032 C 98.8026 -1.49096 1.36436 0
M  V30 1033 C 99.1236 -1.94961 -0.0388255 0
M  V30 1034 O 98.3936 -1.69033 -0.990191 0
M  V30 1035 H 96.9736 -0.5531 0.502085 0
M  V30 1036 H 99.6356 -0.871725 1.74319 0
M  V30 1037 H 98.7316 -2.37276 2.02747 0
M  V30 1038 N 99.0327 -1.24633 -0.964593 0
M  V30 1039 C 100.279 -1.08949 -1.71049 0
M  V30 1040 C 100.612 0.370302 -1.90637 0
M  V30 1041 O 99.8867 1.27349 -1.47011 0
M  V30 1042 C 100.17 -1.83329 -3.0994 0
M  V30 1043 C 100.023 -3.37077 -2.97824 0
M  V30 1044 C 101.342 -1.60846 -4.09654 0
M  V30 1045 H 98.4607 -0.397178 -0.620821 0
M  V30 1046 H 101.103 -1.5334 -1.12191 0
M  V30 1047 H 99.2527 -1.45597 -3.60186 0
M  V30 1048 H 100.925 -3.84425 -2.5498 0
M  V30 1049 H 99.1677 -3.65298 -2.33965 0
M  V30 1050 H 99.8387 -3.84324 -3.96231 0
M  V30 1051 H 102.315 -1.93674 -3.68279 0
M  V30 1052 H 101.191 -2.1534 -5.04896 0
M  V30 1053 H 101.452 -0.547434 -4.38698 0
M  V30 1054 N 100.511 1.16574 -1.06058 0
M  V30 1055 C 101.736 1.91493 -0.796562 0
M  V30 1056 C 102.161 1.76773 0.642868 0
M  V30 1057 O 101.519 1.09142 1.44768 0
M  V30 1058 C 101.567 3.40293 -1.19303 0
M  V30 1059 O 100.671 4.11074 -0.330394 0
M  V30 1060 H 100.012 0.596678 -0.291326 0
M  V30 1061 H 102.542 1.47708 -1.41575 0
M  V30 1062 H 102.552 3.91057 -1.16356 0
M  V30 1063 H 101.227 3.50326 -2.24153 0
M  V30 1064 H 99.8038 3.70513 -0.421225 0
M  V30 1065 N 101.989 0.842826 1.3317 0
M  V30 1066 C 102.936 0.276885 2.29133 0
M  V30 1067 C 103.906 -0.609527 1.54512 0
M  V30 1068 O 105.091 -0.546955 1.82792 0
M  V30 1069 C 102.231 -0.538707 3.40869 0
M  V30 1070 C 101.344 0.372169 4.30394 0
M  V30 1071 C 100.479 -0.454908 5.29249 0
M  V30 1072 C 99.5179 0.45411 6.10413 0
M  V30 1073 N 98.6549 -0.335075 7.013 0
M  V30 1074 H 103.495 1.10052 2.76934 0
M  V30 1075 H 101.032 0.554161 1.36262 0
M  V30 1076 H 102.99 -1.02709 4.0436 0
M  V30 1077 H 101.62 -1.32727 2.9425 0
M  V30 1078 H 100.672 0.97888 3.6759 0
M  V30 1079 H 101.984 1.0703 4.87182 0
M  V30 1080 H 101.138 -1.00695 5.98285 0
M  V30 1081 H 99.8769 -1.18646 4.73048 0
M  V30 1082 H 98.8819 1.01813 5.40291 0
M  V30 1083 H 100.107 1.18409 6.68697 0
M  V30 1084 H 98.0529 -1.04994 6.47543 0
M  V30 1085 H 97.9699 0.304262 7.55387 0
M  V30 1086 H 99.2379 -0.869224 7.74638 0
M  V30 1087 N 103.467 -1.45747 0.599634 0
M  V30 1088 C 104.883 -1.57424 0.26264 0
M  V30 1089 C 105.083 -1.59222 -1.23493 0
M  V30 1090 O 104.139 -1.51825 -2.01756 0
M  V30 1091 C 105.452 -2.86061 0.926795 0
M  V30 1092 C 107 -2.99722 0.901967 0
M  V30 1093 C 107.475 -4.31119 1.54598 0
M  V30 1094 N 108.966 -4.37858 1.5111 0
M  V30 1095 C 109.701 -5.3818 1.97863 0
M  V30 1096 N 109.197 -6.45083 2.52666 0
M  V30 1097 N 110.99 -5.29487 1.88679 0
M  V30 1098 H 103.141 -1.42823 1.57211 0
M  V30 1099 H 105.404 -0.68235 0.658105 0
M  V30 1100 H 105.11 -2.90605 1.98095 0
M  V30 1101 H 104.984 -3.74563 0.445238 0
M  V30 1102 H 107.371 -2.9475 -0.143617 0
M  V30 1103 H 107.452 -2.12652 1.42171 0
M  V30 1104 H 107.096 -4.36849 2.59085 0
M  V30 1105 H 107.026 -5.16992 1.00132 0
M  V30 1106 H 109.517 -3.61209 1.11068 0
M  V30 1107 H 109.83 -7.17869 2.86155 0
M  V30 1108 H 108.175 -6.45856 2.56701 0
M  V30 1109 H 111.366 -4.44877 1.4561 0
M  V30 1110 H 111.539 -6.07524 2.25429 0
M  V30 1111 N 104.945 -0.338344 -1.53925 0
M  V30 1112 C 105.895 0.536712 -2.21593 0
M  V30 1113 C 106.879 1.07015 -1.20153 0
M  V30 1114 O 108.071 1.00471 -1.45721 0
M  V30 1115 C 105.2 1.68977 -2.98834 0
M  V30 1116 C 104.286 1.17052 -4.07627 0
M  V30 1117 N 104.677 0.372085 -5.0443 0
M  V30 1118 C 102.975 1.44789 -4.21844 0
M  V30 1119 C 103.676 0.0909171 -5.81629 0
M  V30 1120 N 102.652 0.681131 -5.39316 0
M  V30 1121 H 106.454 -0.0804298 -2.9379 0
M  V30 1122 H 103.968 -0.144943 -1.61752 0
M  V30 1123 H 105.965 2.32857 -3.45808 0
M  V30 1124 H 104.625 2.31024 -2.28162 0
M  V30 1125 H 105.636 0.0136217 -5.17898 0
M  V30 1126 H 102.313 2.07313 -3.62391 0
M  V30 1127 H 103.703 -0.552817 -6.69622 0
M  V30 1128 N 106.423 1.57458 -0.0668435 0
M  V30 1129 C 107.353 2.15468 0.899764 0
M  V30 1130 C 108.334 1.08042 1.31381 0
M  V30 1131 O 109.519 1.36054 1.38574 0
M  V30 1132 C 106.649 2.71232 2.16911 0
M  V30 1133 C 105.603 3.83781 1.89463 0
M  V30 1134 C 104.929 4.26127 3.22986 0
M  V30 1135 C 106.229 5.08238 1.20381 0
M  V30 1136 H 107.923 2.96488 0.416529 0
M  V30 1137 H 105.469 1.4262 0.198908 0
M  V30 1138 H 107.422 3.10458 2.84945 0
M  V30 1139 H 106.146 1.87426 2.67468 0
M  V30 1140 H 104.805 3.45051 1.23836 0
M  V30 1141 H 104.453 3.39249 3.71374 0
M  V30 1142 H 104.153 5.01993 3.05413 0
M  V30 1143 H 105.677 4.67966 3.92225 0
M  V30 1144 H 107.091 5.44811 1.78475 0
M  V30 1145 H 105.488 5.89349 1.13083 0
M  V30 1146 H 106.558 4.84558 0.182153 0
M  V30 1147 N 107.901 -0.206675 1.56239 0
M  V30 1148 C 109.317 -0.557025 1.49564 0
M  V30 1149 C 109.517 -1.86424 0.764735 0
M  V30 1150 O 108.573 -2.50584 0.310491 0
M  V30 1151 C 109.886 -0.622478 2.94186 0
M  V30 1152 C 111.434 -0.712099 3.04792 0
M  V30 1153 C 111.909 -0.808767 4.50803 0
M  V30 1154 N 113.4 -0.8726 4.54907 0
M  V30 1155 C 114.135 -0.967365 5.65181 0
M  V30 1156 N 113.631 -1.02515 6.85173 0
M  V30 1157 N 115.424 -1.00366 5.53067 0
M  V30 1158 H 107.575 0.650943 2.02179 0
M  V30 1159 H 109.838 0.230387 0.919579 0
M  V30 1160 H 109.544 0.268727 3.50672 0
M  V30 1161 H 109.418 -1.4811 3.46905 0
M  V30 1162 H 111.805 -1.59374 2.48363 0
M  V30 1163 H 111.886 0.172489 2.55218 0
M  V30 1164 H 111.53 0.0684754 5.07854 0
M  V30 1165 H 111.46 -1.70899 4.98098 0
M  V30 1166 H 113.951 -0.837657 3.68499 0
M  V30 1167 H 114.264 -1.09765 7.64965 0
M  V30 1168 H 112.609 -0.994026 6.87855 0
M  V30 1169 H 115.8 -0.95527 4.58249 0
M  V30 1170 H 115.973 -1.07405 6.39037 0
M  V30 1171 N 109.379 -1.50304 -0.473955 0
M  V30 1172 C 110.627 -1.60832 -1.22382 0
M  V30 1173 C 110.948 -0.30939 -1.9253 0
M  V30 1174 O 110.218 0.67296 -1.83978 0
M  V30 1175 H 108.798 -0.592652 -0.454723 0
M  V30 1176 H 111.46 -1.87068 -0.546968 0
M  V30 1177 H 110.556 -2.41803 -1.97327 0
M  V30 1178 N 110.857 0.726932 -1.39834 0
M  V30 1179 C 112.134 1.47902 -1.28001 0
M  V30 1180 C 112.514 2.1083 0.106789 0
M  V30 1181 O 111.862 1.99242 1.11869 0
M  V30 1182 C 112.072 2.52392 -2.41038 0
M  V30 1183 C 113.42 3.18546 -2.80737 0
M  V30 1184 O 114.444 2.62708 -2.40547 0
M  V30 1185 O 113.303 4.19604 -3.50135 0
M  V30 1186 H 110.397 0.657163 -0.502062 0
M  V30 1187 H 112.943 0.760071 -1.51727 0
M  V30 1188 H 111.715 2.04329 -3.33715 0
M  V30 1189 H 111.338 3.31837 -2.19021 0
M  V30 1190 N 112.336 1.25143 0.95797 0
M  V30 1191 C 113.268 1.01023 2.05735 0
M  V30 1192 C 114.281 -0.0236902 1.62783 0
M  V30 1193 O 115.47 0.21448 1.77207 0
M  V30 1194 C 112.57 0.504595 3.35122 0
M  V30 1195 C 111.743 1.6039 4.06932 0
M  V30 1196 C 110.802 1.09922 5.14591 0
M  V30 1197 O 109.828 1.79293 5.40225 0
M  V30 1198 N 111.03 -0.0612545 5.80468 0
M  V30 1199 H 113.795 1.95683 2.26998 0
M  V30 1200 H 111.356 1.16303 1.12629 0
M  V30 1201 H 113.348 0.151516 4.04416 0
M  V30 1202 H 111.918 -0.347989 3.10657 0
M  V30 1203 H 111.138 2.12872 3.31782 0
M  V30 1204 H 112.426 2.34252 4.51667 0
M  V30 1205 H 111.824 -0.640985 5.62057 0
M  V30 1206 H 110.381 -0.355395 6.5083 0
M  V30 1207 N 113.814 -1.1601 1.06675 0
M  V30 1208 C 115.063 -1.85973 0.780818 0
M  V30 1209 C 115.376 -1.82819 -0.695444 0
M  V30 1210 O 116.582 -2.484 -1.09589 0
M  V30 1211 C 115.038 -3.33757 1.34665 0
M  V30 1212 C 114.646 -3.45374 2.85343 0
M  V30 1213 C 116.39 -4.0895 1.13843 0
M  V30 1214 C 114.297 -4.87266 3.35151 0
M  V30 1215 H 113.227 -0.696661 0.288407 0
M  V30 1216 H 115.878 -1.30903 1.28595 0
M  V30 1217 H 114.26 -3.88456 0.769274 0
M  V30 1218 H 115.434 -3.00816 3.49065 0
M  V30 1219 H 113.749 -2.83619 3.04876 0
M  V30 1220 H 116.346 -5.13654 1.4854 0
M  V30 1221 H 116.689 -4.16229 0.0770282 0
M  V30 1222 H 117.222 -3.605 1.68179 0
M  V30 1223 H 113.961 -4.85168 4.40786 0
M  V30 1224 H 113.481 -5.32433 2.76179 0
M  V30 1225 H 115.16 -5.56097 3.30704 0
M  V30 1226 N 115.292 -0.849877 -1.32721 0
M  V30 1227 C 116.52 -0.464754 -2.01613 0
M  V30 1228 C 116.935 0.937191 -1.63897 0
M  V30 1229 O 116.292 1.61081 -0.857856 0
M  V30 1230 C 116.343 -0.588638 -3.56675 0
M  V30 1231 O 116.064 -1.93535 -3.93034 0
M  V30 1232 C 117.565 -0.2019 -4.4284 0
M  V30 1233 H 114.785 -0.183215 -0.645502 0
M  V30 1234 H 117.329 -1.1455 -1.69407 0
M  V30 1235 H 115.484 0.0443159 -3.87375 0
M  V30 1236 H 115.898 -1.92871 -4.87751 0
M  V30 1237 H 117.372 -0.339599 -5.50954 0
M  V30 1238 H 117.849 0.857224 -4.30753 0
M  V30 1239 H 118.455 -0.809733 -4.17521 0
M  V30 1240 N 116.77 1.45427 -0.607355 0
M  V30 1241 C 118.016 2.03097 -0.111035 0
M  V30 1242 C 118.371 1.46735 1.24445 0
M  V30 1243 O 117.664 0.632478 1.8086 0
M  V30 1244 C 117.858 3.57398 -0.0129263 0
M  V30 1245 C 117.687 4.28726 -1.35735 0
M  V30 1246 C 116.457 4.66659 -1.93798 0
M  V30 1247 C 118.655 4.60699 -2.28607 0
M  V30 1248 N 116.637 5.22845 -3.21723 0
M  V30 1249 C 118.008 5.17716 -3.41131 0
M  V30 1250 C 120.063 4.42638 -2.27982 0
M  V30 1251 C 118.766 5.58576 -4.53194 0
M  V30 1252 C 120.792 4.84531 -3.39093 0
M  V30 1253 C 120.154 5.4164 -4.50339 0
M  V30 1254 H 116.253 0.777476 -0.083994 0
M  V30 1255 H 118.837 1.77249 -0.805655 0
M  V30 1256 H 117.008 3.82907 0.650914 0
M  V30 1257 H 118.74 4.01722 0.490033 0
M  V30 1258 H 115.495 4.50207 -1.47007 0
M  V30 1259 H 115.919 5.55438 -3.87063 0
M  V30 1260 H 120.561 3.97798 -1.43235 0
M  V30 1261 H 118.279 6.02382 -5.38667 0
M  V30 1262 H 121.865 4.72289 -3.39757 0
M  V30 1263 H 120.745 5.73461 -5.34895 0
M  V30 1264 N 118.248 0.346503 1.53744 0
M  V30 1265 C 119.497 -0.250122 2.00143 0
M  V30 1266 C 119.81 -1.51418 1.23822 0
M  V30 1267 O 121.016 -2.18823 1.60713 0
M  V30 1268 C 119.472 -0.496252 3.56462 0
M  V30 1269 C 119.08 0.752077 4.41642 0
M  V30 1270 C 120.824 -1.05157 4.11269 0
M  V30 1271 C 118.731 0.476583 5.89477 0
M  V30 1272 H 117.661 -0.0972409 0.747703 0
M  V30 1273 H 120.312 0.46229 1.77581 0
M  V30 1274 H 118.694 -1.26944 3.75102 0
M  V30 1275 H 119.868 1.5266 4.34778 0
M  V30 1276 H 118.183 1.22925 3.97842 0
M  V30 1277 H 120.78 -1.27269 5.19333 0
M  V30 1278 H 121.123 -2.00799 3.64672 0
M  V30 1279 H 121.656 -0.339019 3.96353 0
M  V30 1280 H 118.395 1.4028 6.40314 0
M  V30 1281 H 117.915 -0.259794 5.99237 0
M  V30 1282 H 119.594 0.0949315 6.4693 0
M  V30 1283 N 119.726 -1.57421 0.075193 0
M  V30 1284 C 120.974 -1.93236 -0.591974 0
M  V30 1285 C 121.295 -0.956241 -1.69944 0
M  V30 1286 O 120.565 -0.00494792 -1.95899 0
M  V30 1287 H 119.145 -0.713355 -0.22166 0
M  V30 1288 H 121.807 -1.9444 0.133848 0
M  V30 1289 H 120.903 -2.95131 -1.01509 0
M  V30 1290 N 121.204 0.198386 -1.56346 0
M  V30 1291 C 122.452 0.91747 -1.80075 0
M  V30 1292 C 122.773 1.83929 -0.647692 0
M  V30 1293 O 122.043 1.93029 0.334166 0
M  V30 1294 H 120.623 0.341774 -0.664228 0
M  V30 1295 H 123.285 0.204684 -1.93822 0
M  V30 1296 H 122.381 1.51055 -2.7311 0
M  V30 1297 N 122.682 1.50554 0.465978 0
M  V30 1298 C 123.63 1.70324 1.58406 0
M  V30 1299 C 124.624 0.569139 1.59553 0
M  V30 1300 O 125.83 0.749776 1.63641 0
M  V30 1301 H 122.205 0.537688 0.525734 0
M  V30 1302 H 124.176 2.64104 1.38894 0
M  V30 1303 C 122.925 1.81928 2.96307 0
M  V30 1304 H 122.248 2.68586 2.96144 0
M  V30 1305 H 123.688 1.99784 3.73982 0
M  V30 1306 C 122.147 0.572095 3.32007 0
M  V30 1307 O 122.677 -0.286416 4.00678 0
M  V30 1308 N 120.883 0.424606 2.87481 0
M  V30 1309 H 120.43 1.12427 2.31771 0
M  V30 1310 H 120.388 -0.408697 3.11732 0
M  V30 1311 N 124.16 -0.719506 1.40217 0
M  V30 1312 C 125.07 -1.86378 1.42479 0
M  V30 1313 C 126.086 -1.71073 0.317834 0
M  V30 1314 O 127.262 -1.93406 0.561794 0
M  V30 1315 C 124.327 -3.22136 1.28178 0
M  V30 1316 C 123.388 -3.49723 2.48982 0
M  V30 1317 C 122.621 -4.79004 2.35353 0
M  V30 1318 O 122.844 -5.53821 1.36524 0
M  V30 1319 O 121.778 -5.06839 3.2465 0
M  V30 1320 H 125.604 -1.87425 2.38968 0
M  V30 1321 H 123.189 -0.869405 1.21498 0
M  V30 1322 H 125.071 -4.03234 1.22395 0
M  V30 1323 H 123.746 -3.21825 0.347934 0
M  V30 1324 H 122.653 -2.6865 2.60342 0
M  V30 1325 H 123.986 -3.54828 3.41113 0
M  V30 1326 N 125.638 -1.25649 -0.95132 0
M  V30 1327 C 126.548 -1.08073 -2.08224 0
M  V30 1328 C 127.564 -0.0169666 -1.73992 0
M  V30 1329 O 128.74 -0.218593 -2.0021 0
M  V30 1330 C 125.805 -0.704922 -3.39458 0
M  V30 1331 C 124.866 -1.84699 -3.87537 0
M  V30 1332 C 124.099 -1.48902 -5.12508 0
M  V30 1333 O 124.322 -0.386156 -5.69091 0
M  V30 1334 O 123.256 -2.32033 -5.55378 0
M  V30 1335 H 127.082 -2.02924 -2.25954 0
M  V30 1336 H 124.667 -1.04618 -1.06656 0
M  V30 1337 H 126.549 -0.507609 -4.18332 0
M  V30 1338 H 125.224 0.214291 -3.2299 0
M  V30 1339 H 124.131 -2.09919 -3.09653 0
M  V30 1340 H 125.464 -2.74557 -4.08509 0
M  V30 1341 N 127.117 1.15442 -1.07289 0
M  V30 1342 C 128.365 1.85845 -0.794096 0
M  V30 1343 C 128.686 1.82692 0.681809 0
M  V30 1344 O 127.956 1.26741 1.49377 0
M  V30 1345 H 126.536 0.688089 -0.290763 0
M  V30 1346 H 129.198 1.39947 -1.3565 0
M  V30 1347 H 128.294 2.91001 -1.12804 0
M  V30 1348 N 128.595 0.856903 1.32268 0
M  V30 1349 C 129.835 0.467705 1.98977 0
M  V30 1350 C 130.199 -0.959231 1.66321 0
M  V30 1351 O 131.4 -1.4531 2.26138 0
M  V30 1352 C 129.671 0.70256 3.50427 0
M  V30 1353 S 131.23 0.411269 4.36868 0
M  V30 1354 H 128.048 0.175121 0.689096 0
M  V30 1355 H 130.65 1.1101 1.60925 0
M  V30 1356 H 129.354 1.74012 3.71683 0
M  V30 1357 H 128.885 0.0466707 3.93372 0
M  V30 1358 H 130.9 -0.761799 4.90317 0
M  V30 1359 N 130.073 -1.45103 0.615059 0
M  V30 1360 C 130.983 -2.34382 -0.101034 0
M  V30 1361 C 131.999 -1.51681 -0.852585 0
M  V30 1362 O 133.175 -1.8446 -0.808484 0
M  V30 1363 C 130.24 -3.29417 -1.08099 0
M  V30 1364 C 129.301 -4.28025 -0.330577 0
M  V30 1365 C 128.534 -5.1852 -1.26385 0
M  V30 1366 O 128.757 -5.12598 -2.50198 0
M  V30 1367 O 127.691 -5.97122 -0.756866 0
M  V30 1368 H 131.517 -2.97033 0.632855 0
M  V30 1369 H 129.102 -1.4461 0.375293 0
M  V30 1370 H 130.984 -3.87958 -1.6452 0
M  V30 1371 H 129.659 -2.69321 -1.79577 0
M  V30 1372 H 128.566 -3.73078 0.276283 0
M  V30 1373 H 129.899 -4.90997 0.343866 0
M  V30 1374 N 131.551 -0.354651 -1.53558 0
M  V30 1375 C 132.514 0.484566 -2.24019 0
M  V30 1376 C 133.514 1.01861 -1.24422 0
M  V30 1377 O 134.704 0.906097 -1.4878 0
M  V30 1378 C 131.836 1.67615 -2.96847 0
M  V30 1379 H 133.029 -0.131843 -2.9961 0
M  V30 1380 H 130.582 -0.106165 -1.55939 0
M  V30 1381 H 131.317 2.33095 -2.25471 0
M  V30 1382 H 131.102 1.30029 -3.69912 0
M  V30 1383 H 132.592 2.27114 -3.50441 0
M  V30 1384 N 133.029 1.57378 -0.0835403 0
M  V30 1385 C 134.278 1.93106 0.582498 0
M  V30 1386 C 134.591 0.96651 1.70053 0
M  V30 1387 O 135.797 1.21705 2.42693 0
M  V30 1388 C 134.253 3.43076 1.08751 0
M  V30 1389 C 133.861 4.48 -0.000146404 0
M  V30 1390 C 135.605 3.87785 1.72694 0
M  V30 1391 C 133.512 5.89113 0.519568 0
M  V30 1392 H 132.442 0.720775 0.221358 0
M  V30 1393 H 135.093 1.82821 -0.157675 0
M  V30 1394 H 133.475 3.48474 1.88101 0
M  V30 1395 H 134.649 4.54233 -0.775199 0
M  V30 1396 H 132.964 4.1283 -0.54406 0
M  V30 1397 H 135.561 4.90604 2.1263 0
M  V30 1398 H 135.904 3.25796 2.59158 0
M  V30 1399 H 136.437 3.8504 0.999457 0
M  V30 1400 H 133.176 6.54775 -0.308186 0
M  V30 1401 H 132.696 5.86376 1.26188 0
M  V30 1402 H 134.375 6.39346 0.992237 0
M  V30 1403 N 134.507 -0.190092 1.56449 0
M  V30 1404 C 135.732 -0.929864 1.85387 0
M  V30 1405 C 136.157 -1.7585 0.667704 0
M  V30 1406 O 135.515 -1.77198 -0.383459 0
M  V30 1407 C 135.563 -1.79773 3.12593 0
M  V30 1408 O 134.667 -2.89713 2.93496 0
M  V30 1409 H 134.008 -0.261574 0.610307 0
M  V30 1410 H 136.538 -0.193896 2.03679 0
M  V30 1411 H 136.548 -2.20139 3.43515 0
M  V30 1412 H 135.223 -1.18892 3.98544 0
M  V30 1413 H 133.8 -2.53065 2.73884 0
M  V30 1414 N 135.985 -1.50799 -0.457987 0
M  V30 1415 C 137.232 -1.62442 -1.20908 0
M  V30 1416 C 137.56 -0.330865 -1.91665 0
M  V30 1417 O 136.815 0.68401 -1.83357 0
M  V30 1418 C 137.114 -2.76358 -2.2663 0
M  V30 1419 C 136.78 -4.16378 -1.73033 0
M  V30 1420 C 135.442 -4.54473 -1.58138 0
M  V30 1421 C 137.794 -5.03836 -1.33413 0
M  V30 1422 C 135.122 -5.77754 -1.02065 0
M  V30 1423 C 137.474 -6.27676 -0.78778 0
M  V30 1424 C 136.138 -6.64562 -0.625561 0
M  V30 1425 H 135.408 -0.594417 -0.442435 0
M  V30 1426 H 138.055 -1.84772 -0.503136 0
M  V30 1427 H 136.36 -2.48167 -3.03184 0
M  V30 1428 H 138.057 -2.82568 -2.84528 0
M  V30 1429 H 134.647 -3.86331 -1.85598 0
M  V30 1430 H 138.831 -4.75026 -1.4375 0
M  V30 1431 H 134.087 -6.04997 -0.882547 0
M  V30 1432 H 138.261 -6.94797 -0.472177 0
M  V30 1433 H 135.888 -7.59965 -0.188926 0
M  V30 1434 N 137.463 0.71206 -1.40597 0
M  V30 1435 C 138.393 1.83889 -1.43899 0
M  V30 1436 C 139.374 1.67442 -0.299504 0
M  V30 1437 O 140.559 1.87421 -0.508624 0
M  V30 1438 C 137.689 3.21877 -1.30431 0
M  V30 1439 C 136.643 3.53002 -2.42019 0
M  V30 1440 C 135.969 4.90172 -2.13626 0
M  V30 1441 C 137.269 3.53643 -3.84362 0
M  V30 1442 H 138.963 1.81383 -2.38203 0
M  V30 1443 H 136.509 0.871237 -1.14654 0
M  V30 1444 H 138.462 4.00404 -1.31357 0
M  V30 1445 H 137.186 3.24968 -0.326049 0
M  V30 1446 H 135.845 2.76818 -2.40349 0
M  V30 1447 H 135.493 4.89869 -1.14182 0
M  V30 1448 H 135.193 5.11962 -2.88389 0
M  V30 1449 H 136.717 5.71028 -2.1624 0
M  V30 1450 H 138.131 4.22203 -3.87837 0
M  V30 1451 H 136.528 3.86961 -4.58673 0
M  V30 1452 H 137.598 2.52954 -4.13693 0
M  V30 1453 N 138.941 1.26152 0.944643 0
M  V30 1454 C 139.871 1.09902 2.06019 0
M  V30 1455 C 140.852 0.00519538 1.70099 0
M  V30 1456 O 142.037 0.176583 1.93396 0
M  V30 1457 C 139.167 0.727562 3.39594 0
M  V30 1458 C 138.121 1.77274 3.89561 0
M  V30 1459 C 137.447 1.25569 5.19747 0
M  V30 1460 C 138.747 3.17357 4.14827 0
M  V30 1461 H 140.441 2.03217 2.19871 0
M  V30 1462 H 137.987 0.978452 1.05652 0
M  V30 1463 H 139.94 0.600777 4.17095 0
M  V30 1464 H 138.664 -0.241287 3.25707 0
M  V30 1465 H 137.323 1.88814 3.14237 0
M  V30 1466 H 136.971 0.276783 5.02238 0
M  V30 1467 H 136.671 1.95433 5.54148 0
M  V30 1468 H 138.195 1.1415 5.99835 0
M  V30 1469 H 139.609 3.08914 4.82954 0
M  V30 1470 H 138.006 3.84781 4.60504 0
M  V30 1471 H 139.076 3.63673 3.20734 0
M  V30 1472 N 140.419 -1.14872 1.07899 0
M  V30 1473 C 141.644 -1.90202 0.826926 0
M  V30 1474 C 142.069 -1.77774 -0.614664 0
M  V30 1475 O 141.427 -1.11431 -1.43013 0
M  V30 1476 C 141.475 -3.38352 1.24702 0
M  V30 1477 O 140.579 -4.10497 0.39575 0
M  V30 1478 H 139.92 -0.591968 0.300782 0
M  V30 1479 H 142.45 -1.45437 1.43907 0
M  V30 1480 H 142.46 -3.89156 1.22563 0
M  V30 1481 H 141.135 -3.46715 2.29698 0
M  V30 1482 H 139.712 -3.69796 0.480117 0
M  V30 1483 N 141.898 -0.863906 -1.31812 0
M  V30 1484 C 142.828 -0.330843 -2.31144 0
M  V30 1485 C 143.809 0.575005 -1.60087 0
M  V30 1486 O 144.994 0.493304 -1.8783 0
M  V30 1487 C 142.124 0.47374 -3.44054 0
M  V30 1488 C 141.078 -0.338481 -4.26659 0
M  V30 1489 C 140.404 0.591412 -5.31419 0
M  V30 1490 C 141.704 -1.56926 -4.98168 0
M  V30 1491 H 143.398 -1.16086 -2.75979 0
M  V30 1492 H 140.944 -0.559657 -1.32679 0
M  V30 1493 H 142.897 0.857143 -4.12591 0
M  V30 1494 H 141.621 1.33721 -2.9797 0
M  V30 1495 H 140.28 -0.703754 -3.59782 0
M  V30 1496 H 139.928 1.45199 -4.81587 0
M  V30 1497 H 139.628 0.0519022 -5.87577 0
M  V30 1498 H 141.152 0.97179 -6.02817 0
M  V30 1499 H 142.566 -1.25764 -5.59336 0
M  V30 1500 H 140.963 -2.04739 -5.64094 0
M  V30 1501 H 142.033 -2.32544 -4.25501 0
M  V30 1502 N 143.376 1.44774 -0.622745 0
M  V30 1503 C 144.625 2.01334 -0.121397 0
M  V30 1504 C 144.938 1.49505 1.26125 0
M  V30 1505 O 146.144 1.98139 1.85616 0
M  V30 1506 C 144.6 3.59516 -0.166298 0
M  V30 1507 C 144.208 4.20342 -1.54974 0
M  V30 1508 C 145.952 4.23582 0.279021 0
M  V30 1509 C 143.859 5.70721 -1.55021 0
M  V30 1510 H 142.789 0.752851 -0.0416172 0
M  V30 1511 H 145.44 1.66083 -0.780309 0
M  V30 1512 H 143.822 3.92027 0.559557 0
M  V30 1513 H 144.996 3.99381 -2.29851 0
M  V30 1514 H 143.311 3.68529 -1.93843 0
M  V30 1515 H 145.908 5.33868 0.298083 0
M  V30 1516 H 146.251 3.95327 1.30471 0
M  V30 1517 H 146.784 3.95843 -0.394063 0
M  V30 1518 H 143.523 6.03698 -2.55399 0
M  V30 1519 H 143.043 5.93829 -0.844245 0
M  V30 1520 H 144.722 6.34203 -1.28047 0
M  V30 1521 N 144.854 0.36279 1.53368 0
M  V30 1522 C 146.131 -0.284021 1.93527 0
M  V30 1523 C 146.511 -1.66628 1.29608 0
M  V30 1524 O 145.859 -2.23942 0.45413 0
M  V30 1525 C 146.069 -0.337028 3.47369 0
M  V30 1526 C 147.417 -0.578708 4.20638 0
M  V30 1527 O 148.441 -0.418352 3.53735 0
M  V30 1528 O 147.3 -0.89074 5.39192 0
M  V30 1529 H 144.394 -0.169743 0.809393 0
M  V30 1530 H 146.94 0.41537 1.64538 0
M  V30 1531 H 145.712 0.632217 3.86159 0
M  V30 1532 H 145.335 -1.08243 3.82582 0
M  V30 1533 N 146.332 -1.57332 0.0918853 0
M  V30 1534 C 147.748 -1.57389 -0.264766 0
M  V30 1535 C 147.948 -1.10281 -1.68643 0
M  V30 1536 O 147.004 -0.777801 -2.40222 0
M  V30 1537 C 148.317 -3.00648 -0.0561195 0
M  V30 1538 C 149.865 -3.12754 -0.124116 0
M  V30 1539 C 150.34 -4.57965 0.0564972 0
M  V30 1540 N 151.831 -4.632 0.00155611 0
M  V30 1541 C 152.566 -5.73281 0.116598 0
M  V30 1542 N 152.062 -6.92208 0.286294 0
M  V30 1543 N 153.855 -5.6207 0.0580973 0
M  V30 1544 H 146.006 -1.86262 1.02079 0
M  V30 1545 H 148.269 -0.859579 0.399786 0
M  V30 1546 H 147.975 -3.393 0.925669 0
M  V30 1547 H 147.849 -3.68623 -0.799823 0
M  V30 1548 H 150.236 -2.73976 -1.09641 0
M  V30 1549 H 150.317 -2.47377 0.651024 0
M  V30 1550 H 149.961 -4.97436 1.02564 0
M  V30 1551 H 149.891 -5.21399 -0.738297 0
M  V30 1552 H 152.382 -3.77686 -0.127192 0
M  V30 1553 H 152.695 -7.71934 0.365676 0
M  V30 1554 H 151.04 -6.94254 0.32192 0
M  V30 1555 H 154.231 -4.68043 -0.0733204 0
M  V30 1556 H 154.404 -6.47824 0.151203 0
M  V30 1557 N 147.81 0.181792 -1.56548 0
M  V30 1558 C 148.74 1.22765 -1.98623 0
M  V30 1559 C 149.721 1.46747 -0.860189 0
M  V30 1560 O 150.906 1.58259 -1.12551 0
M  V30 1561 C 148.036 2.56894 -2.33715 0
M  V30 1562 C 146.99 2.475 -3.49182 0
M  V30 1563 C 146.316 3.86023 -3.69986 0
M  V30 1564 C 147.616 1.98866 -4.82959 0
M  V30 1565 H 149.31 0.877942 -2.86239 0
M  V30 1566 H 146.856 0.42088 -1.37712 0
M  V30 1567 H 148.809 3.30253 -2.61746 0
M  V30 1568 H 147.533 2.93632 -1.42997 0
M  V30 1569 H 146.192 1.76596 -3.21262 0
M  V30 1570 H 145.84 4.20136 -2.76576 0
M  V30 1571 H 145.54 3.80609 -4.47672 0
M  V30 1572 H 147.064 4.60984 -4.00407 0
M  V30 1573 H 148.478 2.61992 -5.09934 0
M  V30 1574 H 146.875 2.04424 -5.64208 0
M  V30 1575 H 147.945 0.942465 -4.75653 0
M  V30 1576 N 149.288 1.51039 0.449983 0
M  V30 1577 C 150.534 1.63322 1.20223 0
M  V30 1578 C 150.867 0.34241 1.91158 0
M  V30 1579 O 150.142 -0.657344 1.83055 0
M  V30 1580 C 150.425 2.82801 2.22925 0
M  V30 1581 C 150.278 4.21823 1.56157 0
M  V30 1582 C 151.597 2.97807 3.24035 0
M  V30 1583 H 148.716 0.594407 0.435718 0
M  V30 1584 H 151.358 1.83489 0.493136 0
M  V30 1585 H 149.508 2.65738 2.834 0
M  V30 1586 H 151.18 4.50526 0.991162 0
M  V30 1587 H 149.423 4.25105 0.864172 0
M  V30 1588 H 150.094 5.01391 2.30891 0
M  V30 1589 H 152.57 3.13497 2.73603 0
M  V30 1590 H 151.446 3.82992 3.93202 0
M  V30 1591 H 151.707 2.09328 3.89402 0
M  V30 1592 N 150.766 -0.704594 1.40972 0
M  V30 1593 C 151.696 -1.83124 1.44872 0
M  V30 1594 C 152.677 -1.67281 0.30838 0
M  V30 1595 O 153.862 -1.87149 0.518556 0
M  V30 1596 C 150.992 -3.21181 1.32136 0
M  V30 1597 C 149.946 -3.51714 2.43888 0
M  V30 1598 C 149.272 -4.89032 2.16222 0
M  V30 1599 C 150.572 -3.516 3.86232 0
M  V30 1600 H 152.266 -1.80117 2.39161 0
M  V30 1601 H 149.812 -0.865145 1.15114 0
M  V30 1602 H 151.765 -3.99702 1.33479 0
M  V30 1603 H 150.489 -3.24791 0.343279 0
M  V30 1604 H 149.148 -2.75539 2.41813 0
M  V30 1605 H 148.796 -4.89256 1.16778 0
M  V30 1606 H 148.496 -5.10426 2.911 0
M  V30 1607 H 150.02 -5.69873 2.19265 0
M  V30 1608 H 151.434 -4.2014 3.9007 0
M  V30 1609 H 149.831 -3.84523 4.60719 0
M  V30 1610 H 150.901 -2.50757 4.15029 0
M  V30 1611 N 152.244 -1.26651 -0.937939 0
M  V30 1612 C 153.474 -1.15006 -1.71631 0
M  V30 1613 C 153.882 0.297026 -1.86854 0
M  V30 1614 O 153.225 1.21493 -1.37786 0
M  V30 1615 C 153.287 -1.74984 -3.14039 0
M  V30 1616 C 152.951 -3.24103 -3.2219 0
M  V30 1617 C 153.948 -4.20877 -3.05219 0
M  V30 1618 C 151.633 -3.64625 -3.45476 0
M  V30 1619 C 153.627 -5.56151 -3.11408 0
M  V30 1620 C 151.314 -5.00032 -3.513 0
M  V30 1621 C 152.312 -5.95604 -3.34282 0
M  V30 1622 O 152 -7.28545 -3.3982 0
M  V30 1623 H 151.732 -0.401183 -0.544085 0
M  V30 1624 H 154.286 -1.67832 -1.18413 0
M  V30 1625 H 152.516 -1.16624 -3.68695 0
M  V30 1626 H 154.205 -1.58199 -3.73802 0
M  V30 1627 H 154.971 -3.90908 -2.87081 0
M  V30 1628 H 150.85 -2.90718 -3.57777 0
M  V30 1629 H 154.394 -6.30727 -2.98043 0
M  V30 1630 H 150.291 -5.29659 -3.68959 0
M  V30 1631 H 151.059 -7.3686 -3.56343 0
M  V30 1632 N 153.722 1.14298 -1.08507 0
M  V30 1633 C 154.962 1.87016 -0.824894 0
M  V30 1634 C 155.326 1.81099 0.637735 0
M  V30 1635 O 156.527 2.48963 1.01345 0
M  V30 1636 C 154.798 3.31584 -1.33368 0
M  V30 1637 S 156.357 4.21903 -1.20596 0
M  V30 1638 H 153.175 0.645259 -0.2986 0
M  V30 1639 H 155.777 1.37822 -1.38656 0
M  V30 1640 H 154.481 3.33439 -2.39262 0
M  V30 1641 H 154.012 3.85836 -0.767734 0
M  V30 1642 H 156.027 4.95971 -0.150891 0
M  V30 1643 N 155.201 0.870884 1.31352 0
M  V30 1644 C 156.449 0.48132 1.96285 0
M  V30 1645 C 156.77 -0.969813 1.69173 0
M  V30 1646 O 156.04 -1.67998 1.00764 0
M  V30 1647 H 154.62 0.175002 0.726212 0
M  V30 1648 H 157.282 1.11087 1.60143 0
M  V30 1649 H 156.378 0.639825 3.05471 0
M  V30 1650 N 156.679 -1.44442 0.630414 0
M  V30 1651 C 157.904 -2.06927 0.139944 0
M  V30 1652 C 158.329 -1.46795 -1.17613 0
M  V30 1653 O 157.687 -0.569144 -1.72135 0
M  V30 1654 C 157.735 -3.6058 0.0379581 0
M  V30 1655 O 156.839 -3.99937 -1.0062 0
M  V30 1656 H 156.18 -0.658608 0.0844483 0
M  V30 1657 H 158.71 -1.85327 0.866891 0
M  V30 1658 H 158.72 -4.07714 -0.152856 0
M  V30 1659 H 157.395 -4.03728 0.998809 0
M  V30 1660 H 155.972 -3.64436 -0.79001 0
M  V30 1661 N 158.157 -0.370918 -1.53173 0
M  V30 1662 C 159.573 -0.0200818 -1.59587 0
M  V30 1663 C 159.773 1.46279 -1.38581 0
M  V30 1664 O 158.829 2.22506 -1.19363 0
M  V30 1665 C 160.142 -0.4808 -2.96831 0
M  V30 1666 C 161.69 -0.435477 -3.09956 0
M  V30 1667 C 162.165 -0.872092 -4.4962 0
M  V30 1668 N 163.656 -0.827364 -4.55751 0
M  V30 1669 C 164.391 -1.13683 -5.62018 0
M  V30 1670 N 163.887 -1.51584 -6.76014 0
M  V30 1671 N 165.68 -1.05927 -5.52029 0
M  V30 1672 H 157.831 -1.33652 -1.65079 0
M  V30 1673 H 160.094 -0.546634 -0.774529 0
M  V30 1674 H 159.8 -1.51577 -3.1736 0
M  V30 1675 H 159.674 0.129796 -3.76977 0
M  V30 1676 H 162.061 0.590371 -2.89134 0
M  V30 1677 H 162.142 -1.08164 -2.31806 0
M  V30 1678 H 161.786 -1.89608 -4.71181 0
M  V30 1679 H 161.716 -0.203127 -5.26208 0
M  V30 1680 H 164.207 -0.548216 -3.73902 0
M  V30 1681 H 164.52 -1.73609 -7.53047 0
M  V30 1682 H 162.865 -1.55454 -6.77391 0
M  V30 1683 H 166.056 -0.762321 -4.61851 0
M  V30 1684 H 166.229 -1.30378 -6.34749 0
M  V30 1685 N 159.635 1.57281 -0.100228 0
M  V30 1686 C 160.565 2.17328 0.853857 0
M  V30 1687 C 161.546 1.10804 1.2906 0
M  V30 1688 O 162.731 1.38963 1.35657 0
M  V30 1689 C 159.861 2.75772 2.11109 0
M  V30 1690 C 158.815 3.87713 1.81279 0
M  V30 1691 C 158.141 4.32882 3.13874 0
M  V30 1692 C 159.441 5.10677 1.09574 0
M  V30 1693 H 161.135 2.97305 0.353545 0
M  V30 1694 H 158.681 1.43009 0.168612 0
M  V30 1695 H 160.634 3.16433 2.78296 0
M  V30 1696 H 159.358 1.93057 2.63432 0
M  V30 1697 H 158.017 3.476 1.16489 0
M  V30 1698 H 157.665 3.47051 3.64095 0
M  V30 1699 H 157.365 5.08358 2.94696 0
M  V30 1700 H 158.889 4.7618 3.82211 0
M  V30 1701 H 160.303 5.48474 1.66879 0
M  V30 1702 H 158.7 5.91615 1.00557 0
M  V30 1703 H 159.77 4.84835 0.0793299 0
M  V30 1704 N 161.113 -0.173488 1.56642 0
M  V30 1705 C 162.361 -0.888706 1.81512 0
M  V30 1706 C 162.682 -1.82875 0.676872 0
M  V30 1707 O 161.952 -1.93536 -0.303414 0
M  V30 1708 H 160.532 -0.331164 0.669582 0
M  V30 1709 H 163.194 -0.173823 1.94123 0
M  V30 1710 H 162.29 -1.46691 2.75478 0
M  V30 1711 N 162.591 -1.51276 -0.441967 0
M  V30 1712 C 163.538 -1.72256 -1.53612 0
M  V30 1713 C 164.508 -0.564164 -1.56225 0
M  V30 1714 O 165.693 -0.798074 -1.73307 0
M  V30 1715 C 162.833 -1.84932 -2.91366 0
M  V30 1716 C 161.946 -3.12459 -2.98317 0
M  V30 1717 C 161.081 -3.15758 -4.27166 0
M  V30 1718 C 160.12 -4.37619 -4.27967 0
M  V30 1719 N 159.257 -4.38493 -5.48333 0
M  V30 1720 H 164.097 -2.65654 -1.35026 0
M  V30 1721 H 161.634 -1.31662 -0.656009 0
M  V30 1722 H 163.592 -1.90263 -3.7129 0
M  V30 1723 H 162.222 -0.949461 -3.08521 0
M  V30 1724 H 161.274 -3.1646 -2.11086 0
M  V30 1725 H 162.586 -4.02382 -2.94771 0
M  V30 1726 H 161.74 -3.19979 -5.15459 0
M  V30 1727 H 160.479 -2.23715 -4.33362 0
M  V30 1728 H 159.484 -4.33579 -3.38067 0
M  V30 1729 H 160.709 -5.30921 -4.23438 0
M  V30 1730 H 158.655 -3.49318 -5.55259 0
M  V30 1731 H 158.572 -5.22219 -5.46647 0
M  V30 1732 H 159.84 -4.469 -6.38671 0
M  V30 1733 N 164.069 0.697108 -1.41344 0
M  V30 1734 C 165.299 1.48377 -1.43763 0
M  V30 1735 C 165.707 1.89156 -0.0408726 0
M  V30 1736 O 165.05 1.57239 0.949812 0
M  V30 1737 C 165.112 2.7781 -2.2817 0
M  V30 1738 C 164.776 2.59244 -3.76353 0
M  V30 1739 C 165.773 2.25292 -4.68551 0
M  V30 1740 C 163.458 2.74933 -4.20378 0
M  V30 1741 C 165.452 2.07264 -6.02761 0
M  V30 1742 C 163.139 2.56521 -5.54653 0
M  V30 1743 C 164.137 2.22737 -6.4566 0
M  V30 1744 O 163.825 2.04485 -7.77458 0
M  V30 1745 H 163.557 0.463842 -0.491759 0
M  V30 1746 H 166.111 0.865934 -1.86255 0
M  V30 1747 H 164.341 3.41995 -1.8049 0
M  V30 1748 H 166.03 3.39608 -2.22309 0
M  V30 1749 H 166.796 2.12787 -4.35829 0
M  V30 1750 H 162.675 3.00213 -3.49848 0
M  V30 1751 H 166.219 1.80817 -6.73759 0
M  V30 1752 H 162.116 2.68616 -5.86955 0
M  V30 1753 H 162.884 2.1926 -7.88586 0
M  V30 1754 N 165.547 1.27147 0.931209 0
M  V30 1755 C 166.777 1.15914 1.71019 0
M  V30 1756 C 167.185 -0.287112 1.87009 0
M  V30 1757 O 166.528 -1.20761 1.38429 0
M  V30 1758 C 166.59 1.76647 3.13107 0
M  V30 1759 C 166.254 3.25807 3.20467 0
M  V30 1760 C 167.251 4.22489 3.02983 0
M  V30 1761 C 164.936 3.66452 3.43538 0
M  V30 1762 C 166.93 5.57794 3.08454 0
M  V30 1763 C 164.617 5.01888 3.48643 0
M  V30 1764 C 165.615 5.97369 3.31119 0
M  V30 1765 O 165.303 7.30337 3.35952 0
M  V30 1766 H 165.035 0.404062 0.54195 0
M  V30 1767 H 167.589 1.68457 1.17521 0
M  V30 1768 H 165.819 1.18578 3.68071 0
M  V30 1769 H 167.508 1.60179 3.72958 0
M  V30 1770 H 168.274 3.92425 2.85004 0
M  V30 1771 H 164.153 2.92611 3.5623 0
M  V30 1772 H 167.697 6.32298 2.94694 0
M  V30 1773 H 163.594 5.31609 3.66145 0
M  V30 1774 H 164.362 7.38739 3.5243 0
M  V30 1775 N 167.025 -1.13721 1.09112 0
M  V30 1776 C 168.271 -1.85198 0.826414 0
M  V30 1777 C 168.604 -1.83129 -0.646319 0
M  V30 1778 O 167.879 -1.2671 -1.47563 0
M  V30 1779 C 168.162 -3.33507 1.35812 0
M  V30 1780 C 168.015 -3.44108 2.89672 0
M  V30 1781 C 169.334 -4.28838 0.989256 0
M  V30 1782 H 166.453 -0.67243 0.301675 0
M  V30 1783 H 169.095 -1.33499 1.35197 0
M  V30 1784 H 167.245 -3.77666 0.911082 0
M  V30 1785 H 168.917 -3.08684 3.428 0
M  V30 1786 H 167.16 -2.85087 3.26967 0
M  V30 1787 H 167.831 -4.48388 3.21951 0
M  V30 1788 H 170.307 -3.92734 1.37475 0
M  V30 1789 H 169.183 -5.31051 1.38838 0
M  V30 1790 H 169.444 -4.4198 -0.102924 0
M  V30 1791 N 168.503 -0.877838 -1.30888 0
M  V30 1792 C 169.45 -0.337538 -2.28318 0
M  V30 1793 C 170.42 0.568346 -1.56074 0
M  V30 1794 O 171.605 0.498298 -1.84178 0
M  V30 1795 C 168.745 0.448142 -3.42178 0
M  V30 1796 C 167.858 -0.48615 -4.29256 0
M  V30 1797 C 166.993 0.314427 -5.30269 0
M  V30 1798 C 166.032 -0.615791 -6.08995 0
M  V30 1799 N 165.169 0.14902 -7.01942 0
M  V30 1800 H 170.009 -1.17356 -2.73919 0
M  V30 1801 H 167.546 -0.590094 -1.34745 0
M  V30 1802 H 169.504 0.919517 -4.06941 0
M  V30 1803 H 168.134 1.24879 -2.97666 0
M  V30 1804 H 167.186 -1.076 -3.64865 0
M  V30 1805 H 168.498 -1.19909 -4.84173 0
M  V30 1806 H 167.652 0.847969 -6.00745 0
M  V30 1807 H 166.391 1.06062 -4.76027 0
M  V30 1808 H 165.396 -1.16102 -5.37401 0
M  V30 1809 H 166.621 -1.36097 -6.65323 0
M  V30 1810 H 164.567 0.877884 -6.50099 0
M  V30 1811 H 164.484 -0.504433 -7.54315 0
M  V30 1812 H 165.752 0.663537 -7.76671 0
M  V30 1813 N 169.982 1.44106 -0.638065 0
M  V30 1814 C 170.892 2.34513 0.0637334 0
M  V30 1815 C 171.908 1.53018 0.828346 0
M  V30 1816 O 173.084 1.85723 0.779036 0
M  V30 1817 C 170.149 3.31095 1.02844 0
M  V30 1818 C 169.21 4.28497 0.26244 0
M  V30 1819 C 168.443 5.20465 1.1812 0
M  V30 1820 O 168.666 5.16514 2.42011 0
M  V30 1821 O 167.6 5.98251 0.661774 0
M  V30 1822 H 171.426 2.95989 -0.68003 0
M  V30 1823 H 169.011 1.43994 -0.398252 0
M  V30 1824 H 170.893 3.90526 1.58327 0
M  V30 1825 H 169.568 2.72144 1.7527 0
M  V30 1826 H 168.475 3.72592 -0.335602 0
M  V30 1827 H 169.808 4.90388 -0.421936 0
M  V30 1828 N 171.46 0.379036 1.52974 0
M  V30 1829 C 172.876 0.0285448 1.59574 0
M  V30 1830 C 173.076 -1.45542 1.39355 0
M  V30 1831 O 172.132 -2.2187 1.20541 0
M  V30 1832 C 173.445 0.496535 2.96572 0
M  V30 1833 C 174.993 0.451909 3.0972 0
M  V30 1834 C 175.468 0.895924 4.49152 0
M  V30 1835 N 176.959 0.851522 4.55306 0
M  V30 1836 C 177.694 1.16661 5.61407 0
M  V30 1837 N 177.19 1.55166 6.752 0
M  V30 1838 N 178.983 1.08853 5.51459 0
M  V30 1839 H 171.134 1.34525 1.64367 0
M  V30 1840 H 173.397 0.550733 0.771619 0
M  V30 1841 H 173.103 1.53258 3.16552 0
M  V30 1842 H 172.977 -0.109802 3.7704 0
M  V30 1843 H 175.364 -0.575029 2.89443 0
M  V30 1844 H 175.445 1.09392 2.3123 0
M  V30 1845 H 175.089 1.92104 4.70168 0
M  V30 1846 H 175.019 0.23103 5.26093 0
M  V30 1847 H 177.51 0.568038 3.73606 0
M  V30 1848 H 177.823 1.776 7.52116 0
M  V30 1849 H 176.168 1.59044 6.76557 0
M  V30 1850 H 179.359 0.786803 4.6144 0
M  V30 1851 H 179.532 1.33742 6.34048 0
M  V30 1852 N 172.938 -1.57226 0.108567 0
M  V30 1853 C 174.163 -1.99604 -0.563303 0
M  V30 1854 C 174.588 -0.987563 -1.6009 0
M  V30 1855 O 173.946 0.0421687 -1.81251 0
M  V30 1856 C 173.994 -3.40902 -1.17552 0
M  V30 1857 O 173.098 -3.42896 -2.2912 0
M  V30 1858 H 172.439 -0.648704 -0.1417 0
M  V30 1859 H 174.969 -2.03679 0.193961 0
M  V30 1860 H 174.979 -3.78886 -1.51357 0
M  V30 1861 H 173.654 -4.1382 -0.415445 0
M  V30 1862 H 172.231 -3.1672 -1.96832 0
M  V30 1863 N 174.416 0.165178 -1.56732 0
M  V30 1864 C 175.363 1.2044 -1.96883 0
M  V30 1865 C 176.333 1.43664 -0.833657 0
M  V30 1866 O 177.518 1.56302 -1.09427 0
M  V30 1867 C 174.658 2.53727 -2.33916 0
M  V30 1868 C 173.771 2.3783 -3.6064 0
M  V30 1869 C 172.906 3.64026 -3.86857 0
M  V30 1870 C 171.945 3.43088 -5.06909 0
M  V30 1871 N 171.082 4.61369 -5.29229 0
M  V30 1872 H 175.922 0.854996 -2.85471 0
M  V30 1873 H 173.459 0.41076 -1.41249 0
M  V30 1874 H 175.417 3.31419 -2.53411 0
M  V30 1875 H 174.047 2.8665 -1.48431 0
M  V30 1876 H 173.099 1.51282 -3.49024 0
M  V30 1877 H 174.411 2.18308 -4.4849 0
M  V30 1878 H 173.565 4.50152 -4.06753 0
M  V30 1879 H 172.304 3.86533 -2.97394 0
M  V30 1880 H 171.309 2.55349 -4.86906 0
M  V30 1881 H 172.534 3.21997 -5.97909 0
M  V30 1882 H 170.48 4.84084 -4.42718 0
M  V30 1883 H 170.397 4.44783 -6.11313 0
M  V30 1884 H 171.665 5.48761 -5.53608 0
M  V30 1885 N 175.894 1.51508 0.433938 0
M  V30 1886 C 176.857 1.72473 1.50949 0
M  V30 1887 C 177.857 0.594725 1.49398 0
M  V30 1888 O 179.047 0.862315 1.5136 0
M  V30 1889 C 176.179 1.78431 2.90474 0
M  V30 1890 H 177.372 2.68467 1.33662 0
M  V30 1891 H 174.925 1.41549 0.662836 0
M  V30 1892 H 175.66 0.842645 3.13161 0
M  V30 1893 H 175.445 2.60558 2.93005 0
M  V30 1894 H 176.935 1.96479 3.68491 0
M  V30 1895 N 177.372 -0.689602 1.41712 0
M  V30 1896 C 178.305 -1.81403 1.3845 0
M  V30 1897 C 179.283 -1.60653 0.250874 0
M  V30 1898 O 180.467 -1.83323 0.43874 0
M  V30 1899 C 177.594 -3.18176 1.1611 0
M  V30 1900 C 176.64 -3.57705 2.3227 0
M  V30 1901 S 177.473 -3.61827 3.94767 0
M  V30 1902 C 178.629 -5.01318 3.74742 0
M  V30 1903 H 178.862 -1.83893 2.33603 0
M  V30 1904 H 176.395 -0.858878 1.28307 0
M  V30 1905 H 178.353 -3.97132 1.03907 0
M  V30 1906 H 177.014 -3.13288 0.225668 0
M  V30 1907 H 176.207 -4.57082 2.12349 0
M  V30 1908 H 175.809 -2.86073 2.40911 0
M  V30 1909 H 178.101 -5.88986 3.34817 0
M  V30 1910 H 179.044 -5.26283 4.73743 0
M  V30 1911 H 179.452 -4.73138 3.07898 0
M  V30 1912 N 178.85 -1.27639 -0.924453 0
M  V30 1913 C 180.096 -1.14336 -1.67497 0
M  V30 1914 C 180.429 0.309465 -1.91718 0
M  V30 1915 O 179.704 1.22608 -1.50989 0
M  V30 1916 C 179.987 -1.93096 -3.0395 0
M  V30 1917 C 179.84 -3.46381 -2.8695 0
M  V30 1918 C 181.159 -1.73798 -4.0433 0
M  V30 1919 H 178.278 -0.416728 -0.607871 0
M  V30 1920 H 180.92 -1.56832 -1.07256 0
M  V30 1921 H 179.07 -1.56982 -3.55372 0
M  V30 1922 H 180.742 -3.92343 -2.42621 0
M  V30 1923 H 178.985 -3.72557 -2.22225 0
M  V30 1924 H 179.656 -3.96735 -3.83804 0
M  V30 1925 H 182.132 -2.05293 -3.61931 0
M  V30 1926 H 181.008 -2.31294 -4.97789 0
M  V30 1927 H 181.269 -0.686725 -4.36734 0
M  V30 1928 N 180.328 1.1314 -1.09713 0
M  V30 1929 C 181.291 2.16831 -0.742751 0
M  V30 1930 C 182.291 1.59159 0.229129 0
M  V30 1931 O 183.481 1.74199 0.00693237 0
M  V30 1932 C 180.613 3.40756 -0.0989168 0
M  V30 1933 H 181.806 2.49695 -1.66109 0
M  V30 1934 H 179.359 1.2802 -0.896699 0
M  V30 1935 H 180.094 3.13485 0.830514 0
M  V30 1936 H 179.879 3.83888 -0.798265 0
M  V30 1937 H 181.369 4.17386 0.133524 0
M  V30 1938 N 181.806 0.884767 1.30421 0
M  V30 1939 C 183.046 0.509806 1.9794 0
M  V30 1940 C 183.41 -0.923736 1.68319 0
M  V30 1941 O 184.611 -1.40481 2.29169 0
M  V30 1942 C 182.882 0.776732 3.48858 0
M  V30 1943 S 184.441 0.503843 4.35898 0
M  V30 1944 H 181.259 0.189699 0.685227 0
M  V30 1945 H 183.861 1.14399 1.58535 0
M  V30 1946 H 182.565 1.81857 3.67908 0
M  V30 1947 H 182.096 0.1301 3.93185 0
M  V30 1948 H 184.111 -0.657625 4.91823 0
M  V30 1949 N 183.284 -1.43765 0.645699 0
M  V30 1950 C 184.514 -2.05953 0.163318 0
M  V30 1951 C 184.922 -1.48432 -1.17322 0
M  V30 1952 O 184.265 -0.607295 -1.73371 0
M  V30 1953 C 184.327 -3.59499 -0.0103065 0
M  V30 1954 C 183.991 -4.39563 1.25035 0
M  V30 1955 C 184.988 -4.72108 2.17739 0
M  V30 1956 C 182.673 -4.79697 1.48983 0
M  V30 1957 C 184.667 -5.43688 3.3269 0
M  V30 1958 C 182.354 -5.51023 2.64229 0
M  V30 1959 C 183.352 -5.8294 3.55908 0
M  V30 1960 O 183.04 -6.5281 4.69142 0
M  V30 1961 H 182.772 -0.670798 0.0836986 0
M  V30 1962 H 185.326 -1.85384 0.884407 0
M  V30 1963 H 183.556 -3.78613 -0.78669 0
M  V30 1964 H 185.245 -4.03408 -0.449087 0
M  V30 1965 H 186.011 -4.41627 2.00476 0
M  V30 1966 H 181.89 -4.54266 0.785078 0
M  V30 1967 H 185.434 -5.68517 4.04269 0
M  V30 1968 H 181.331 -5.8092 2.81429 0
M  V30 1969 H 182.099 -6.71288 4.6831 0
M  V30 1970 N 184.763 -0.387143 -1.52771 0
M  V30 1971 C 186.174 0.0873634 -1.86495 0
M  V30 1972 C 186.525 1.46336 -1.30691 0
M  V30 1973 O 185.65 2.068 -0.637409 0
M  V30 1974 C 186.245 0.165305 -3.38396 0
M  V30 1975 C 184.804 0.584101 -3.7184 0
M  V30 1976 C 183.951 -0.255279 -2.76122 0
M  V30 1977 H 186.902 -0.605104 -1.46711 0
M  V30 1978 H 186.923 0.984848 -3.67534 0
M  V30 1979 H 186.435 -0.836301 -3.78982 0
M  V30 1980 H 184.536 1.59315 -3.36823 0
M  V30 1981 H 184.649 0.343749 -4.77865 0
M  V30 1982 H 183.013 0.279126 -2.53166 0
M  V30 1983 H 183.796 -1.25482 -3.19545 0
M  V30 1984 N 186.241 1.57166 -0.116904 0
M  V30 1985 C 187.489 1.94737 0.540533 0
M  V30 1986 C 187.81 1.00096 1.67349 0
M  V30 1987 O 187.08 0.0568854 1.95817 0
M  V30 1988 H 185.66 0.718981 0.202669 0
M  V30 1989 H 188.322 1.94017 -0.185353 0
M  V30 1990 H 187.418 2.97719 0.936483 0
M  V30 1991 N 187.719 -0.156864 1.56817 0
M  V30 1992 C 188.667 -1.21319 1.98455 0
M  V30 1993 C 189.661 -1.45025 0.875444 0
M  V30 1994 O 190.867 -1.45435 1.0606 0
M  V30 1995 H 187.242 -0.408142 0.631605 0
M  V30 1996 H 189.213 -0.835244 2.86472 0
M  V30 1997 C 187.962 -2.54148 2.37285 0
M  V30 1998 H 187.285 -2.36733 3.22176 0
M  V30 1999 H 188.725 -3.26712 2.70251 0
M  V30 2000 C 187.184 -3.13967 1.22173 0
M  V30 2001 O 187.714 -3.98357 0.517149 0
M  V30 2002 N 185.92 -2.7327 0.988536 0
M  V30 2003 H 185.467 -2.04744 1.56326 0
M  V30 2004 H 185.425 -3.13628 0.220209 0
M  V30 2005 N 189.197 -1.51736 -0.425897 0
M  V30 2006 C 190.445 -1.64644 -1.17204 0
M  V30 2007 C 190.766 -0.370486 -1.91448 0
M  V30 2008 O 190.036 0.614088 -1.86026 0
M  V30 2009 H 188.616 -0.606819 -0.435638 0
M  V30 2010 H 191.278 -1.88713 -0.487177 0
M  V30 2011 H 190.374 -2.47958 -1.89534 0
M  V30 2012 N 190.675 0.682077 -1.42076 0
M  V30 2013 C 191.903 1.47057 -1.4554 0
M  V30 2014 C 192.318 1.8869 -0.0645779 0
M  V30 2015 O 191.675 1.57666 0.919115 0
M  V30 2016 C 191.726 2.72442 -2.37609 0
M  V30 2017 O 191.447 2.32559 -3.71279 0
M  V30 2018 C 192.948 3.66069 -2.50017 0
M  V30 2019 H 190.168 0.452737 -0.495248 0
M  V30 2020 H 192.712 0.838695 -1.8651 0
M  V30 2021 H 190.867 3.31835 -1.9991 0
M  V30 2022 H 191.281 3.13475 -4.20516 0
M  V30 2023 H 192.755 4.50792 -3.18576 0
M  V30 2024 H 193.232 4.11476 -1.53572 0
M  V30 2025 H 193.838 3.12572 -2.88407 0
M  V30 2026 N 192.153 1.28127 0.917671 0
M  V30 2027 C 193.401 1.14825 1.66312 0
M  V30 2028 C 193.722 -0.304379 1.9261 0
M  V30 2029 O 192.992 -1.21149 1.53947 0
M  V30 2030 H 191.572 0.421953 0.616413 0
M  V30 2031 H 194.234 1.608 1.10134 0
M  V30 2032 H 193.33 1.68489 2.62712 0
M  V30 2033 N 193.631 -1.12557 1.10312 0
M  V30 2034 C 194.861 -1.87592 0.865617 0
M  V30 2035 C 195.269 -1.79851 -0.587389 0
M  V30 2036 O 194.612 -1.16949 -1.41664 0
M  V30 2037 C 194.674 -3.37665 1.23381 0
M  V30 2038 C 194.338 -3.69181 2.69359 0
M  V30 2039 C 195.335 -3.67652 3.67597 0
M  V30 2040 C 193.02 -3.98555 3.05711 0
M  V30 2041 C 195.014 -3.95053 5.00212 0
M  V30 2042 C 192.701 -4.25616 4.38514 0
M  V30 2043 C 193.699 -4.23851 5.35574 0
M  V30 2044 O 193.387 -4.50242 6.65986 0
M  V30 2045 H 193.119 -0.600442 0.310557 0
M  V30 2046 H 195.673 -1.4335 1.47105 0
M  V30 2047 H 193.903 -3.82454 0.571467 0
M  V30 2048 H 195.592 -3.94041 0.973994 0
M  V30 2049 H 196.358 -3.45024 3.40857 0
M  V30 2050 H 192.237 -3.99071 2.30789 0
M  V30 2051 H 195.781 -3.93591 5.75962 0
M  V30 2052 H 191.678 -4.47718 4.64994 0
M  V30 2053 H 192.446 -4.67867 6.71597 0
M  V30 2054 N 195.109 -0.891671 -1.2995 0
M  V30 2055 C 196.355 -0.514261 -1.96171 0
M  V30 2056 C 196.688 0.935506 -1.70182 0
M  V30 2057 O 195.963 1.66204 -1.01028 0
M  V30 2058 C 196.246 -0.797719 -3.51153 0
M  V30 2059 C 196.099 -2.2986 -3.86632 0
M  V30 2060 C 197.418 -0.278749 -4.39216 0
M  V30 2061 H 194.537 -0.188314 -0.712535 0
M  V30 2062 H 197.179 -1.11689 -1.53706 0
M  V30 2063 H 195.329 -0.284826 -3.87455 0
M  V30 2064 H 197.001 -2.88042 -3.60319 0
M  V30 2065 H 195.244 -2.76257 -3.34462 0
M  V30 2066 H 195.915 -2.44753 -4.94773 0
M  V30 2067 H 198.391 -0.717825 -4.09862 0
M  V30 2068 H 197.267 -0.506353 -5.46559 0
M  V30 2069 H 197.528 0.820266 -4.34424 0
M  V30 2070 N 196.587 1.43421 -0.653314 0
M  V30 2071 C 198.003 1.56341 -0.320886 0
M  V30 2072 C 198.203 1.63696 1.17499 0
M  V30 2073 O 197.259 1.59208 1.95982 0
M  V30 2074 C 198.572 2.82424 -1.03233 0
M  V30 2075 C 200.12 2.96168 -1.01259 0
M  V30 2076 C 200.595 4.25084 -1.70492 0
M  V30 2077 N 202.086 4.31948 -1.67257 0
M  V30 2078 C 202.821 5.30466 -2.17701 0
M  V30 2079 N 202.317 6.35261 -2.76434 0
M  V30 2080 N 204.11 5.2212 -2.082 0
M  V30 2081 H 196.261 1.3689 -1.62403 0
M  V30 2082 H 198.524 0.657455 -0.682977 0
M  V30 2083 H 198.23 2.83053 -2.08744 0
M  V30 2084 H 198.104 3.72653 -0.583948 0
M  V30 2085 H 200.491 2.9508 0.0341235 0
M  V30 2086 H 200.572 2.07229 -1.49966 0
M  V30 2087 H 200.216 4.26932 -2.7512 0
M  V30 2088 H 200.146 5.1292 -1.19251 0
M  V30 2089 H 202.637 3.56838 -1.24398 0
M  V30 2090 H 202.95 7.06754 -3.12601 0
M  V30 2091 H 201.295 6.35884 -2.80495 0
M  V30 2092 H 204.486 4.39166 -1.62021 0
M  V30 2093 H 204.659 5.98739 -2.47822 0
M  V30 2094 N 198.065 0.39524 1.52563 0
M  V30 2095 C 199.015 -0.4541 2.23432 0
M  V30 2096 C 199.999 -1.02482 1.24042 0
M  V30 2097 O 201.191 -0.949938 1.49349 0
M  V30 2098 C 198.32 -1.57769 3.049 0
M  V30 2099 C 197.406 -1.01842 4.1169 0
M  V30 2100 N 197.797 -0.184613 5.05463 0
M  V30 2101 C 196.095 -1.29033 4.26927 0
M  V30 2102 C 196.796 0.125013 5.81566 0
M  V30 2103 N 195.772 -0.480498 5.41472 0
M  V30 2104 H 199.574 0.189413 2.93289 0
M  V30 2105 H 197.088 0.204877 1.61102 0
M  V30 2106 H 199.085 -2.19862 3.54212 0
M  V30 2107 H 197.745 -2.22397 2.36579 0
M  V30 2108 H 198.756 0.178602 5.17592 0
M  V30 2109 H 195.433 -1.93721 3.69836 0
M  V30 2110 H 196.823 0.800962 6.67109 0
M  V30 2111 N 199.544 -1.57102 0.125237 0
M  V30 2112 C 200.79 -1.95697 -0.532035 0
M  V30 2113 C 201.123 -1.009 -1.6593 0
M  V30 2114 O 200.398 -0.047347 -1.94442 0
M  V30 2115 C 200.681 -3.44181 -1.05884 0
M  V30 2116 C 200.534 -4.49752 0.0654392 0
M  V30 2117 C 201.853 -3.94655 -1.9477 0
M  V30 2118 H 198.972 -0.711571 -0.191925 0
M  V30 2119 H 201.614 -1.88923 0.20206 0
M  V30 2120 H 199.764 -3.50085 -1.68442 0
M  V30 2121 H 201.436 -4.55943 0.700982 0
M  V30 2122 H 199.679 -4.27653 0.727709 0
M  V30 2123 H 200.35 -5.50924 -0.344505 0
M  V30 2124 H 202.826 -3.91094 -1.42074 0
M  V30 2125 H 201.702 -4.99057 -2.28546 0
M  V30 2126 H 201.963 -3.35718 -2.87656 0
M  V30 2127 N 201.022 0.148545 -1.56898 0
M  V30 2128 C 202.299 0.890019 -1.74178 0
M  V30 2129 C 202.679 1.99407 -0.692839 0
M  V30 2130 O 202.027 2.26671 0.288505 0
M  V30 2131 C 202.237 1.43389 -3.18183 0
M  V30 2132 C 203.585 1.89791 -3.79822 0
M  V30 2133 O 204.609 1.53134 -3.21603 0
M  V30 2134 O 203.468 2.57387 -4.82093 0
M  V30 2135 H 200.562 0.420496 -0.712118 0
M  V30 2136 H 203.108 0.134591 -1.69165 0
M  V30 2137 H 201.88 0.640383 -3.86024 0
M  V30 2138 H 201.503 2.25287 -3.27615 0
M  V30 2139 N 202.5 1.5196 0.417844 0
M  V30 2140 C 203.448 1.75278 1.52907 0
M  V30 2141 C 204.442 0.619611 1.57662 0
M  V30 2142 O 205.648 0.801457 1.61173 0
M  V30 2143 H 202.023 0.554141 0.508362 0
M  V30 2144 H 203.994 2.68389 1.30422 0
M  V30 2145 C 202.743 1.91262 2.90369 0
M  V30 2146 H 202.066 2.77872 2.8745 0
M  V30 2147 H 203.506 2.11581 3.67436 0
M  V30 2148 C 201.965 0.677431 3.30019 0
M  V30 2149 O 202.495 -0.158799 4.01386 0
M  V30 2150 N 200.701 0.515851 2.85985 0
M  V30 2151 H 200.248 1.19744 2.28077 0
M  V30 2152 H 200.206 -0.309315 3.12875 0
M  V30 2153 N 203.978 -0.674533 1.42435 0
M  V30 2154 C 205.389 -1.25514 1.38214 0
M  V30 2155 C 205.74 -1.96055 0.0755464 0
M  V30 2156 O 204.865 -2.00028 -0.8257 0
M  V30 2157 C 205.46 -2.28269 2.50357 0
M  V30 2158 C 204.019 -2.81856 2.49467 0
M  V30 2159 C 203.166 -1.56182 2.29134 0
M  V30 2160 H 206.117 -0.467902 1.51646 0
M  V30 2161 H 206.138 -3.10009 2.20624 0
M  V30 2162 H 205.65 -1.769 3.45439 0
M  V30 2163 H 203.751 -3.37346 1.58204 0
M  V30 2164 H 203.864 -3.30854 3.46515 0
M  V30 2165 H 202.228 -1.82761 1.774 0
M  V30 2166 H 203.011 -1.06778 3.26272 0
M  V30 2167 N 205.456 -1.28612 -0.910864 0
M  V30 2168 C 206.404 -1.1265 -2.03501 0
M  V30 2169 C 207.398 -0.0450054 -1.6934 0
M  V30 2170 O 208.604 -0.203988 -1.7884 0
M  V30 2171 H 204.979 -0.347639 -0.666822 0
M  V30 2172 H 206.95 -2.07849 -2.14106 0
M  V30 2173 C 205.699 -0.808143 -3.38178 0
M  V30 2174 H 205.022 -1.63231 -3.6496 0
M  V30 2175 H 206.462 -0.736426 -4.17556 0
M  V30 2176 C 204.921 0.488226 -3.33344 0
M  V30 2177 O 205.451 1.51766 -3.71927 0
M  V30 2178 N 203.657 0.490009 -2.86439 0
M  V30 2179 H 203.204 -0.348161 -2.55236 0
M  V30 2180 H 203.162 1.35741 -2.83587 0
M  V30 2181 N 206.934 1.1197 -1.10907 0
M  V30 2182 C 208.182 1.83225 -0.852819 0
M  V30 2183 C 208.503 1.84769 0.623341 0
M  V30 2184 O 207.773 1.3143 1.45269 0
M  V30 2185 H 206.353 0.67849 -0.312507 0
M  V30 2186 H 209.015 1.3556 -1.40033 0
M  V30 2187 H 208.111 2.87265 -1.22005 0
M  V30 2188 N 208.412 0.89855 1.29475 0
M  V30 2189 C 209.689 0.443416 1.90508 0
M  V30 2190 C 210.069 -1.07685 1.81569 0
M  V30 2191 O 209.417 -1.9182 1.24166 0
M  V30 2192 C 209.627 0.956708 3.35631 0
M  V30 2193 C 210.975 0.999728 4.12663 0
M  V30 2194 O 211.999 0.904299 3.4453 0
M  V30 2195 O 210.858 1.14289 5.34416 0
M  V30 2196 H 207.952 0.138025 0.815401 0
M  V30 2197 H 210.498 0.98834 1.37949 0
M  V30 2198 H 209.27 2.00067 3.36287 0
M  V30 2199 H 208.893 0.391728 3.95666 0
M  V30 2200 N 209.89 -1.43072 0.660911 0
M  V30 2201 C 211.138 -2.01323 0.177094 0
M  V30 2202 C 211.459 -1.5245 -1.2159 0
M  V30 2203 O 210.729 -0.740322 -1.81373 0
M  V30 2204 H 209.309 -0.744382 0.0624804 0
M  V30 2205 H 211.971 -1.75179 0.854305 0
M  V30 2206 H 211.067 -3.11649 0.167641 0
M  V30 2207 N 211.368 -0.403325 -1.52352 0
M  V30 2208 C 212.784 -0.0539281 -1.59509 0
M  V30 2209 C 212.984 1.43307 -1.41652 0
M  V30 2210 O 212.04 2.19924 -1.24056 0
M  V30 2211 C 213.353 -0.543654 -2.95745 0
M  V30 2212 C 214.901 -0.501125 -3.08962 0
M  V30 2213 C 215.376 -0.967267 -4.47669 0
M  V30 2214 N 216.867 -0.923849 -4.53893 0
M  V30 2215 C 217.602 -1.25578 -5.5948 0
M  V30 2216 N 217.098 -1.65889 -6.72646 0
M  V30 2217 N 218.891 -1.17613 -5.49658 0
M  V30 2218 H 211.042 -1.37123 -1.62206 0
M  V30 2219 H 213.305 -0.56294 -0.76276 0
M  V30 2220 H 213.011 -1.58275 -3.14073 0
M  V30 2221 H 212.885 0.0498042 -3.77167 0
M  V30 2222 H 215.272 0.528909 -2.90321 0
M  V30 2223 H 215.353 -1.13056 -2.2946 0
M  V30 2224 H 214.997 -1.9956 -4.67053 0
M  V30 2225 H 214.927 -0.314698 -5.25659 0
M  V30 2226 H 217.418 -0.627403 -3.72655 0
M  V30 2227 H 217.731 -1.89543 -7.49195 0
M  V30 2228 H 216.076 -1.69787 -6.73942 0
M  V30 2229 H 219.267 -0.860115 -4.6013 0
M  V30 2230 H 219.44 -1.43812 -6.3184 0
M  V30 2231 N 212.846 1.57033 -0.133567 0
M  V30 2232 C 214.086 1.97575 0.523789 0
M  V30 2233 C 214.45 1.01605 1.62912 0
M  V30 2234 O 215.651 1.3114 2.3464 0
M  V30 2235 C 213.922 3.42256 1.02935 0
M  V30 2236 S 215.481 4.04817 1.69319 0
M  V30 2237 H 212.299 0.690427 0.169799 0
M  V30 2238 H 214.901 1.94234 -0.222101 0
M  V30 2239 H 213.605 4.09842 0.213917 0
M  V30 2240 H 213.136 3.4928 1.81017 0
M  V30 2241 H 215.151 3.96767 2.97977 0
M  V30 2242 N 214.325 -0.140222 1.56975 0
M  V30 2243 C 215.574 -0.850152 1.82908 0
M  V30 2244 C 215.887 -1.82028 0.715892 0
M  V30 2245 O 217.093 -2.57485 0.861016 0
M  V30 2246 C 215.549 -1.5625 3.24213 0
M  V30 2247 C 215.157 -0.63443 4.43485 0
M  V30 2248 C 216.901 -2.25881 3.59413 0
M  V30 2249 C 214.808 -1.34879 5.75814 0
M  V30 2250 H 213.738 -0.321221 0.682153 0
M  V30 2251 H 216.389 -0.102874 1.83211 0
M  V30 2252 H 214.771 -2.35565 3.18316 0
M  V30 2253 H 215.945 0.12398 4.60633 0
M  V30 2254 H 214.26 -0.0461836 4.16374 0
M  V30 2255 H 216.857 -2.79978 4.5554 0
M  V30 2256 H 217.2 -3.02693 2.85802 0
M  V30 2257 H 217.733 -1.53477 3.67001 0
M  V30 2258 H 214.472 -0.622385 6.52539 0
M  V30 2259 H 213.992 -2.07974 5.6259 0
M  V30 2260 H 215.671 -1.88784 6.18845 0
M  V30 2261 N 215.803 -1.52179 -0.40978 0
M  V30 2262 C 217.031 -1.70054 -1.17853 0
M  V30 2263 C 217.446 -0.409735 -1.843 0
M  V30 2264 O 216.803 0.614183 -1.71855 0
M  V30 2265 C 216.854 -2.83568 -2.24213 0
M  V30 2266 O 216.575 -4.0765 -1.60478 0
M  V30 2267 C 218.076 -3.12947 -3.13973 0
M  V30 2268 H 215.296 -0.569917 -0.354169 0
M  V30 2269 H 217.84 -1.98734 -0.482198 0
M  V30 2270 H 215.995 -2.57409 -2.89516 0
M  V30 2271 H 216.409 -4.70899 -2.30986 0
M  V30 2272 H 217.883 -3.95889 -3.84677 0
M  V30 2273 H 218.36 -2.26472 -3.76307 0
M  V30 2274 H 218.966 -3.40868 -2.5434 0
M  V30 2275 N 217.281 0.66697 -1.42791 0
M  V30 2276 C 218.521 1.43892 -1.4517 0
M  V30 2277 C 218.885 1.91877 -0.0687551 0
M  V30 2278 O 220.086 2.6878 0.0327455 0
M  V30 2279 C 218.357 2.59839 -2.45395 0
M  V30 2280 S 219.916 3.48572 -2.66539 0
M  V30 2281 H 216.734 0.491356 -0.513897 0
M  V30 2282 H 219.336 0.775656 -1.79454 0
M  V30 2283 H 218.04 2.22838 -3.44632 0
M  V30 2284 H 217.571 3.3103 -2.12562 0
M  V30 2285 H 219.586 4.56094 -1.95429 0
M  V30 2286 N 218.759 1.29093 0.90403 0
M  V30 2287 C 220.008 1.16187 1.64874 0
M  V30 2288 C 220.321 -0.286742 1.93487 0
M  V30 2289 O 221.527 -0.537062 2.66135 0
M  V30 2290 C 219.983 2.03177 2.97064 0
M  V30 2291 C 219.591 3.52836 2.76062 0
M  V30 2292 C 221.335 1.98984 3.74974 0
M  V30 2293 C 219.242 4.31945 4.03952 0
M  V30 2294 H 218.172 0.431246 0.618501 0
M  V30 2295 H 220.823 1.53699 1.00243 0
M  V30 2296 H 219.205 1.5853 3.62883 0
M  V30 2297 H 220.379 4.05507 2.18863 0
M  V30 2298 H 218.694 3.58656 2.11553 0
M  V30 2299 H 221.291 2.55351 4.69787 0
M  V30 2300 H 221.634 0.968815 4.0487 0
M  V30 2301 H 222.167 2.41652 3.15989 0
M  V30 2302 H 218.906 5.34667 3.79225 0
M  V30 2303 H 218.426 3.84045 4.60727 0
M  V30 2304 H 220.105 4.42379 4.72133 0
M  V30 2305 N 220.237 -1.11381 1.11499 0
M  V30 2306 C 221.467 -1.86663 0.885464 0
M  V30 2307 C 221.875 -1.80464 -0.568281 0
M  V30 2308 O 221.218 -1.18445 -1.40415 0
M  V30 2309 C 221.28 -3.36337 1.26956 0
M  V30 2310 C 220.944 -3.66304 2.73259 0
M  V30 2311 C 221.941 -3.63733 3.71476 0
M  V30 2312 C 219.626 -3.9529 3.09921 0
M  V30 2313 C 221.62 -3.89725 5.04374 0
M  V30 2314 C 219.307 -4.20941 4.43004 0
M  V30 2315 C 220.305 -4.18147 5.40039 0
M  V30 2316 O 219.993 -4.43153 6.70724 0
M  V30 2317 H 219.725 -0.597114 0.316908 0
M  V30 2318 H 222.279 -1.41782 1.48617 0
M  V30 2319 H 220.509 -3.81826 0.611999 0
M  V30 2320 H 222.198 -3.92986 1.01573 0
M  V30 2321 H 222.964 -3.41389 3.44498 0
M  V30 2322 H 218.843 -3.966 2.35009 0
M  V30 2323 H 222.387 -3.8746 5.80104 0
M  V30 2324 H 218.284 -4.42761 4.69716 0
M  V30 2325 H 219.052 -4.60717 6.76522 0
M  V30 2326 N 221.715 -0.905404 -1.28997 0
M  V30 2327 C 222.945 -0.549049 -1.99171 0
M  V30 2328 C 223.353 0.87203 -1.67906 0
M  V30 2329 O 222.696 1.58796 -0.923561 0
M  V30 2330 C 222.758 -0.668306 -3.53234 0
M  V30 2331 C 222.422 -2.0574 -4.08069 0
M  V30 2332 C 223.419 -3.0292 -4.22534 0
M  V30 2333 C 221.104 -2.36833 -4.42962 0
M  V30 2334 C 223.098 -4.29314 -4.71135 0
M  V30 2335 C 220.785 -3.63467 -4.91258 0
M  V30 2336 C 221.783 -4.59522 -5.053 0
M  V30 2337 O 221.471 -5.83907 -5.52546 0
M  V30 2338 H 221.203 -0.208784 -0.64295 0
M  V30 2339 H 223.757 -1.21836 -1.65363 0
M  V30 2340 H 221.987 0.0580547 -3.86656 0
M  V30 2341 H 223.676 -0.320273 -4.04634 0
M  V30 2342 H 224.442 -2.80216 -3.95859 0
M  V30 2343 H 220.321 -1.62824 -4.31288 0
M  V30 2344 H 223.865 -5.04293 -4.8201 0
M  V30 2345 H 219.762 -3.86 -5.17372 0
M  V30 2346 H 220.53 -5.86578 -5.70849 0
M  V30 2347 N 223.193 1.4272 -0.668489 0
M  V30 2348 C 224.123 2.335 -0.000100175 0
M  V30 2349 C 225.104 1.50328 0.795964 0
M  V30 2350 O 226.289 1.78949 0.754385 0
M  V30 2351 C 223.419 3.33874 0.956302 0
M  V30 2352 C 222.373 4.27152 0.269278 0
M  V30 2353 C 221.699 5.17684 1.33818 0
M  V30 2354 C 222.999 5.15373 -0.847805 0
M  V30 2355 H 224.693 2.89639 -0.758244 0
M  V30 2356 H 222.239 1.39269 -0.366079 0
M  V30 2357 H 224.192 3.9629 1.43292 0
M  V30 2358 H 222.916 2.76025 1.74579 0
M  V30 2359 H 221.575 3.66123 -0.187042 0
M  V30 2360 H 221.223 4.56165 2.1195 0
M  V30 2361 H 220.923 5.80918 0.883659 0
M  V30 2362 H 222.447 5.82974 1.81586 0
M  V30 2363 H 223.861 5.7151 -0.452681 0
M  V30 2364 H 222.258 5.87407 -1.22773 0
M  V30 2365 H 223.328 4.5415 -1.69929 0
M  V30 2366 N 224.671 0.411399 1.52136 0
M  V30 2367 C 225.619 -0.427633 2.28635 0
M  V30 2368 C 226.613 -1.04383 1.33419 0
M  V30 2369 O 227.819 -0.981772 1.50868 0
M  V30 2370 H 224.194 -0.156689 0.735495 0
M  V30 2371 H 226.165 0.238761 2.97443 0
M  V30 2372 C 224.914 -1.53082 3.12188 0
M  V30 2373 H 224.237 -1.06601 3.85326 0
M  V30 2374 H 225.677 -2.09167 3.68816 0
M  V30 2375 C 224.136 -2.49946 2.25895 0
M  V30 2376 O 224.666 -3.53884 1.90076 0
M  V30 2377 N 222.872 -2.2021 1.8962 0
M  V30 2378 H 222.419 -1.35719 2.18948 0
M  V30 2379 H 222.377 -2.85266 1.32176 0
M  V30 2380 N 226.149 -1.5696 0.141893 0
M  V30 2381 C 227.096 -2.16501 -0.799737 0
M  V30 2382 C 228.066 -1.09643 -1.24771 0
M  V30 2383 O 229.251 -1.3766 -1.32115 0
M  V30 2384 C 226.391 -2.78679 -2.03549 0
M  V30 2385 C 225.504 -3.99914 -1.6338 0
M  V30 2386 C 224.639 -4.50106 -2.82096 0
M  V30 2387 C 223.678 -5.63819 -2.38275 0
M  V30 2388 N 222.815 -6.08651 -3.49983 0
M  V30 2389 H 227.655 -2.96632 -0.285179 0
M  V30 2390 H 225.192 -1.46533 -0.129053 0
M  V30 2391 H 227.15 -3.1287 -2.75986 0
M  V30 2392 H 225.78 -2.012 -2.52425 0
M  V30 2393 H 224.832 -3.71735 -0.807279 0
M  V30 2394 H 226.144 -4.82311 -1.27192 0
M  V30 2395 H 225.298 -4.86325 -3.62729 0
M  V30 2396 H 224.037 -3.66706 -3.21525 0
M  V30 2397 H 223.042 -5.2718 -1.56081 0
M  V30 2398 H 224.267 -6.49 -1.99938 0
M  V30 2399 H 222.213 -5.28188 -3.89042 0
M  V30 2400 H 222.13 -6.85961 -3.17794 0
M  V30 2401 H 223.398 -6.49515 -4.30988 0
M  V30 2402 N 227.627 0.131896 -1.57047 0
M  V30 2403 C 228.575 1.18146 -2.0036 0
M  V30 2404 C 229.569 1.43614 -0.898406 0
M  V30 2405 O 230.775 1.43729 -1.08361 0
M  V30 2406 H 227.15 0.398042 -0.638018 0
M  V30 2407 H 229.121 0.789564 -2.87765 0
M  V30 2408 C 227.87 2.50341 -2.41298 0
M  V30 2409 H 227.193 2.31578 -3.25902 0
M  V30 2410 H 228.633 3.22371 -2.75414 0
M  V30 2411 C 227.092 3.11984 -1.27153 0
M  V30 2412 O 227.622 3.97484 -0.580459 0
M  V30 2413 N 225.828 2.71662 -1.03189 0
M  V30 2414 H 225.375 2.02231 -1.59564 0
M  V30 2415 H 225.333 3.13238 -0.270077 0
M  V30 2416 N 229.106 1.52395 0.401703 0
M  V30 2417 C 230.352 1.68019 1.14635 0
M  V30 2418 C 230.707 0.408722 1.88009 0
M  V30 2419 O 230 -0.597133 1.82057 0
M  V30 2420 C 230.194 2.84578 2.16217 0
M  V30 2421 C 230.023 4.22938 1.5282 0
M  V30 2422 C 228.793 4.88352 1.29772 0
M  V30 2423 C 230.991 5.04778 0.985094 0
M  V30 2424 N 228.973 6.10726 0.623455 0
M  V30 2425 C 230.344 6.1845 0.438172 0
M  V30 2426 C 232.399 4.90057 0.880275 0
M  V30 2427 C 231.102 7.19013 -0.203306 0
M  V30 2428 C 233.128 5.9086 0.252639 0
M  V30 2429 C 232.49 7.03829 -0.283573 0
M  V30 2430 H 228.589 0.668413 0.405892 0
M  V30 2431 H 231.173 1.89717 0.437674 0
M  V30 2432 H 229.344 2.64483 2.84435 0
M  V30 2433 H 231.076 2.89202 2.83098 0
M  V30 2434 H 227.831 4.46846 1.56926 0
M  V30 2435 H 228.255 6.76323 0.302733 0
M  V30 2436 H 232.897 4.02938 1.28065 0
M  V30 2437 H 230.615 8.05751 -0.615726 0
M  V30 2438 H 234.201 5.81543 0.172954 0
M  V30 2439 H 233.081 7.80493 -0.761575 0
M  V30 2440 N 230.584 -0.659388 1.43143 0
M  V30 2441 C 231.861 -1.41627 1.34912 0
M  V30 2442 C 232.241 -2.11099 -0.00607785 0
M  V30 2443 O 231.589 -2.04353 -1.02236 0
M  V30 2444 C 231.799 -2.40604 2.52805 0
M  V30 2445 C 233.147 -3.04789 2.95616 0
M  V30 2446 O 234.171 -2.50932 2.52807 0
M  V30 2447 O 233.03 -4.02421 3.69756 0
M  V30 2448 H 230.124 -0.63246 0.532844 0
M  V30 2449 H 232.67 -0.686814 1.5518 0
M  V30 2450 H 231.442 -1.88174 3.43083 0
M  V30 2451 H 231.065 -3.21009 2.34604 0
M  V30 2452 N 232.062 -1.29571 -0.897171 0
M  V30 2453 C 233.025 -1.14913 -1.98312 0
M  V30 2454 C 234.025 -0.0838629 -1.60581 0
M  V30 2455 O 235.215 -0.331006 -1.71026 0
M  V30 2456 C 232.347 -0.757835 -3.3237 0
M  V30 2457 H 233.54 -2.11377 -2.12743 0
M  V30 2458 H 231.093 -1.12793 -1.08201 0
M  V30 2459 H 231.828 0.206837 -3.2364 0
M  V30 2460 H 231.613 -1.52755 -3.61121 0
M  V30 2461 H 233.103 -0.678408 -4.12053 0
M  V30 2462 N 233.54 1.10788 -1.12088 0
M  V30 2463 C 234.487 2.17025 -0.785407 0
M  V30 2464 C 235.457 1.64265 0.246191 0
M  V30 2465 O 236.642 1.90412 0.121584 0
M  V30 2466 C 233.782 3.44249 -0.242177 0
M  V30 2467 C 232.895 4.1098 -1.33115 0
M  V30 2468 C 232.03 5.25911 -0.747741 0
M  V30 2469 C 231.069 5.84538 -1.81609 0
M  V30 2470 N 230.206 6.90853 -1.25167 0
M  V30 2471 H 235.046 2.45066 -1.69548 0
M  V30 2472 H 232.583 1.20297 -0.846582 0
M  V30 2473 H 234.541 4.17101 0.0908026 0
M  V30 2474 H 233.171 3.16571 0.631072 0
M  V30 2475 H 232.223 3.36133 -1.78097 0
M  V30 2476 H 233.535 4.50601 -2.13917 0
M  V30 2477 H 232.689 6.056 -0.365216 0
M  V30 2478 H 231.428 4.87614 0.0915188 0
M  V30 2479 H 230.433 5.03522 -2.20785 0
M  V30 2480 H 231.658 6.249 -2.6585 0
M  V30 2481 H 229.604 6.54562 -0.434174 0
M  V30 2482 H 229.521 7.29166 -1.99633 0
M  V30 2483 H 230.789 7.7433 -0.896259 0
M  V30 2484 N 235.018 0.912232 1.28515 0
M  V30 2485 C 235.948 0.416403 2.29757 0
M  V30 2486 C 236.929 -0.515194 1.6211 0
M  V30 2487 O 238.114 -0.423253 1.89532 0
M  V30 2488 C 235.244 -0.34572 3.45575 0
M  V30 2489 C 234.198 0.496599 4.25109 0
M  V30 2490 C 233.524 -0.393771 5.33248 0
M  V30 2491 C 234.824 1.75307 4.92001 0
M  V30 2492 H 236.518 1.26249 2.7148 0
M  V30 2493 H 234.064 0.608515 1.30511 0
M  V30 2494 H 236.017 -0.703422 4.15488 0
M  V30 2495 H 234.741 -1.2257 3.02728 0
M  V30 2496 H 233.4 0.8368 3.56922 0
M  V30 2497 H 233.048 -1.27225 4.86644 0
M  V30 2498 H 232.748 0.166209 5.87365 0
M  V30 2499 H 234.272 -0.747389 6.06009 0
M  V30 2500 H 235.686 1.46437 5.54283 0
M  V30 2501 H 234.083 2.25534 5.56106 0
M  V30 2502 H 235.153 2.48176 4.16577 0
M  V30 2503 N 236.496 -1.42363 0.676048 0
M  V30 2504 C 237.446 -2.27987 -0.0242903 0
M  V30 2505 C 238.43 -1.41153 -0.772319 0
M  V30 2506 O 239.622 -1.64592 -0.651025 0
M  V30 2507 C 236.751 -3.29195 -0.973953 0
M  V30 2508 C 235.837 -4.23512 -0.223202 0
M  V30 2509 N 236.228 -4.99865 0.772589 0
M  V30 2510 C 234.526 -4.43606 -0.461469 0
M  V30 2511 C 235.227 -5.68757 1.22027 0
M  V30 2512 N 234.203 -5.40811 0.549975 0
M  V30 2513 H 238.005 -2.84445 0.73949 0
M  V30 2514 H 235.519 -1.54341 0.50522 0
M  V30 2515 H 237.516 -3.89339 -1.49067 0
M  V30 2516 H 236.176 -2.74298 -1.73755 0
M  V30 2517 H 237.187 -5.04921 1.15217 0
M  V30 2518 H 233.864 -3.99749 -1.20446 0
M  V30 2519 H 235.254 -6.40007 2.0455 0
M  V30 2520 N 237.974 -0.419461 -1.51915 0
M  V30 2521 C 239.222 0.152637 -2.01523 0
M  V30 2522 C 239.543 1.44762 -1.30649 0
M  V30 2523 O 238.813 1.90997 -0.435535 0
M  V30 2524 H 237.393 0.0593966 -0.744635 0
M  V30 2525 H 240.055 -0.558073 -1.86739 0
M  V30 2526 H 239.151 0.341369 -3.10227 0
M  V30 2527 N 239.452 1.56882 -0.150215 0
M  V30 2528 C 240.7 1.9584 0.499105 0
M  V30 2529 C 241.021 1.03623 1.65188 0
M  V30 2530 O 240.291 0.0984084 1.95653 0
M  V30 2531 H 238.871 0.723119 0.187373 0
M  V30 2532 H 241.533 1.9358 -0.226466 0
M  V30 2533 H 240.629 2.99638 0.873122 0
M  V30 2534 N 240.93 -0.123565 1.57115 0
M  V30 2535 C 242.179 -0.830704 1.83799 0
M  V30 2536 C 242.492 -1.81259 0.735158 0
M  V30 2537 O 243.698 -2.56558 0.888278 0
M  V30 2538 C 242.154 -1.52802 3.25852 0
M  V30 2539 C 241.762 -0.587356 4.44133 0
M  V30 2540 C 243.506 -2.22056 3.61789 0
M  V30 2541 C 241.413 -1.28764 5.77212 0
M  V30 2542 H 240.343 -0.313967 0.685522 0
M  V30 2543 H 242.994 -0.0834359 1.8331 0
M  V30 2544 H 241.376 -2.32175 3.20797 0
M  V30 2545 H 242.55 0.172829 4.60476 0
M  V30 2546 H 240.865 -0.00201892 4.164 0
M  V30 2547 H 243.462 -2.75131 4.58483 0
M  V30 2548 H 243.805 -2.99644 2.88997 0
M  V30 2549 H 244.338 -1.49576 3.68608 0
M  V30 2550 H 241.077 -0.55314 6.53162 0
M  V30 2551 H 240.597 -2.01995 5.64764 0
M  V30 2552 H 242.276 -1.8221 6.20813 0
M  V30 2553 N 242.408 -1.52605 -0.393616 0
M  V30 2554 C 243.338 -1.80022 -1.48709 0
M  V30 2555 C 244.319 -0.651995 -1.57108 0
M  V30 2556 O 245.504 -0.89913 -1.72132 0
M  V30 2557 C 242.634 -1.96492 -2.86371 0
M  V30 2558 C 241.588 -3.12161 -2.92813 0
M  V30 2559 C 240.914 -3.13877 -4.3288 0
M  V30 2560 C 242.214 -4.51322 -2.6288 0
M  V30 2561 H 243.908 -2.71589 -1.26015 0
M  V30 2562 H 241.454 -1.30684 -0.604778 0
M  V30 2563 H 243.407 -2.14255 -3.62867 0
M  V30 2564 H 242.131 -1.01611 -3.10391 0
M  V30 2565 H 240.79 -2.94173 -2.18764 0
M  V30 2566 H 240.438 -2.16687 -4.53933 0
M  V30 2567 H 240.138 -3.91576 -4.38112 0
M  V30 2568 H 241.662 -3.33789 -5.1129 0
M  V30 2569 H 243.076 -4.69435 -3.29096 0
M  V30 2570 H 241.473 -5.31053 -2.79468 0
M  V30 2571 H 242.543 -4.58353 -1.58242 0
M  V30 2572 N 243.887 0.651787 -1.4349 0
M  V30 2573 C 245.303 0.96762 -1.26922 0
M  V30 2574 C 245.503 2.00602 -0.189982 0
M  V30 2575 O 244.559 2.48793 0.431107 0
M  V30 2576 C 245.872 1.45052 -2.63401 0
M  V30 2577 C 247.42 1.5671 -2.70945 0
M  V30 2578 C 247.895 2.0839 -4.07845 0
M  V30 2579 N 249.386 2.1569 -4.09917 0
M  V30 2580 C 250.121 2.56804 -5.12679 0
M  V30 2581 N 249.617 2.97203 -6.25813 0
M  V30 2582 N 251.41 2.56756 -5.00033 0
M  V30 2583 H 243.561 -0.0353158 -2.12371 0
M  V30 2584 H 245.824 0.0467858 -0.946845 0
M  V30 2585 H 245.53 0.761926 -3.43348 0
M  V30 2586 H 245.404 2.42529 -2.88894 0
M  V30 2587 H 247.791 2.2467 -1.9133 0
M  V30 2588 H 247.872 0.57662 -2.49216 0
M  V30 2589 H 247.516 1.41031 -4.87927 0
M  V30 2590 H 247.446 3.08271 -4.26938 0
M  V30 2591 H 249.937 1.87237 -3.28254 0
M  V30 2592 H 250.25 3.27328 -7.00055 0
M  V30 2593 H 248.595 2.95004 -6.29283 0
M  V30 2594 H 251.786 2.24572 -4.10713 0
M  V30 2595 H 251.959 2.88475 -5.80247 0
M  V30 2596 N 245.365 1.30045 0.890287 0
M  V30 2597 C 246.614 1.17929 1.63633 0
M  V30 2598 C 246.927 -0.266204 1.9378 0
M  V30 2599 O 248.133 -0.508804 2.6669 0
M  V30 2600 C 246.589 2.06317 2.94892 0
M  V30 2601 C 246.197 3.55745 2.72305 0
M  V30 2602 C 247.941 2.0295 3.72843 0
M  V30 2603 C 245.848 4.36205 3.99348 0
M  V30 2604 H 244.778 0.437782 0.613892 0
M  V30 2605 H 247.429 1.54754 0.986075 0
M  V30 2606 H 245.811 1.6237 3.61182 0
M  V30 2607 H 246.985 4.07805 2.1455 0
M  V30 2608 H 245.3 3.6088 2.07737 0
M  V30 2609 H 247.897 2.60319 4.67053 0
M  V30 2610 H 248.24 1.0117 4.0382 0
M  V30 2611 H 248.773 2.4499 3.13408 0
M  V30 2612 H 245.512 5.38659 3.73533 0
M  V30 2613 H 245.032 3.8891 4.56628 0
M  V30 2614 H 246.711 4.47362 4.67415 0
M  V30 2615 N 246.843 -1.10192 1.12674 0
M  V30 2616 C 248.09 -1.82205 0.883606 0
M  V30 2617 C 248.418 -1.8532 -0.590492 0
M  V30 2618 O 247.673 -1.31137 -1.45264 0
M  V30 2619 C 247.972 -3.28552 1.4067 0
M  V30 2620 C 247.638 -3.45582 2.89627 0
M  V30 2621 C 246.3 -3.49937 3.30299 0
M  V30 2622 C 248.652 -3.50768 3.85501 0
M  V30 2623 C 245.98 -3.57049 4.65546 0
M  V30 2624 C 248.332 -3.59414 5.20581 0
M  V30 2625 C 246.996 -3.62034 5.60792 0
M  V30 2626 H 246.266 -0.666735 0.323334 0
M  V30 2627 H 248.913 -1.29868 1.40736 0
M  V30 2628 H 247.218 -3.83473 0.80347 0
M  V30 2629 H 248.915 -3.82788 1.19475 0
M  V30 2630 H 245.505 -3.42871 2.57172 0
M  V30 2631 H 249.689 -3.46651 3.55171 0
M  V30 2632 H 244.945 -3.57361 4.96088 0
M  V30 2633 H 249.119 -3.62371 5.94693 0
M  V30 2634 H 246.746 -3.67298 6.6558 0
M  V30 2635 N 248.321 -0.919034 -1.28029 0
M  V30 2636 C 249.732 -0.600735 -1.76771 0
M  V30 2637 C 250.083 0.884024 -1.75156 0
M  V30 2638 O 249.208 1.69163 -1.34956 0
M  V30 2639 C 249.803 -1.08372 -3.21 0
M  V30 2640 C 248.362 -0.816248 -3.67443 0
M  V30 2641 C 247.509 -1.24742 -2.47658 0
M  V30 2642 H 250.46 -1.09974 -1.14418 0
M  V30 2643 H 250.481 -0.427512 -3.78091 0
M  V30 2644 H 249.993 -2.16437 -3.22144 0
M  V30 2645 H 248.094 0.250968 -3.71754 0
M  V30 2646 H 248.207 -1.4277 -4.57333 0
M  V30 2647 H 246.571 -0.666083 -2.45836 0
M  V30 2648 H 247.354 -2.33653 -2.51518 0
M  V30 2649 N 249.799 1.42003 -0.683588 0
M  V30 2650 C 250.709 2.34597 -0.0109075 0
M  V30 2651 C 251.725 1.55576 0.779245 0
M  V30 2652 O 252.901 1.88107 0.719555 0
M  V30 2653 C 249.966 3.34199 0.922588 0
M  V30 2654 C 249.027 4.29115 0.125984 0
M  V30 2655 C 248.26 5.23959 1.01502 0
M  V30 2656 O 248.483 5.23952 2.25456 0
M  V30 2657 O 247.417 6.00053 0.47111 0
M  V30 2658 H 251.243 2.93675 -0.773853 0
M  V30 2659 H 248.828 1.42654 -0.443861 0
M  V30 2660 H 250.71 3.95365 1.45823 0
M  V30 2661 H 249.385 2.77582 1.66523 0
M  V30 2662 H 248.292 3.71335 -0.453969 0
M  V30 2663 H 249.625 4.88798 -0.577736 0
M  V30 2664 N 251.277 0.427512 1.51691 0
M  V30 2665 C 252.525 -0.141948 2.01601 0
M  V30 2666 C 252.846 -1.44067 1.31414 0
M  V30 2667 O 252.116 -1.90763 0.445658 0
M  V30 2668 H 250.696 -0.0554468 0.744939 0
M  V30 2669 H 253.358 0.567968 1.86441 0
M  V30 2670 H 252.454 -0.324913 3.10404 0
M  V30 2671 N 252.755 -1.56801 0.158532 0
M  V30 2672 C 253.702 -2.17337 -0.776729 0
M  V30 2673 C 254.672 -1.1096 -1.23601 0
M  V30 2674 O 255.857 -1.39054 -1.30647 0
M  V30 2675 C 252.997 -2.80822 -2.00582 0
M  V30 2676 C 252.11 -4.01624 -1.59129 0
M  V30 2677 C 251.245 -4.53072 -2.77306 0
M  V30 2678 C 250.284 -5.66314 -2.32282 0
M  V30 2679 N 249.421 -6.12329 -3.43508 0
M  V30 2680 H 254.261 -2.96918 -0.253701 0
M  V30 2681 H 251.798 -1.46661 -0.113504 0
M  V30 2682 H 253.756 -3.15779 -2.72652 0
M  V30 2683 H 252.386 -2.03866 -2.50277 0
M  V30 2684 H 251.438 -3.72571 -0.767806 0
M  V30 2685 H 252.75 -4.83633 -1.2207 0
M  V30 2686 H 251.904 -4.90145 -3.57551 0
M  V30 2687 H 250.643 -3.70095 -3.17617 0
M  V30 2688 H 249.648 -5.28806 -1.5048 0
M  V30 2689 H 250.873 -6.51085 -1.93043 0
M  V30 2690 H 248.819 -5.32284 -3.83418 0
M  V30 2691 H 248.736 -6.89293 -3.105 0
M  V30 2692 H 250.004 -6.5405 -4.24075 0
M  V30 2693 N 254.233 0.115231 -1.57178 0
M  V30 2694 C 255.458 0.840354 -1.89612 0
M  V30 2695 C 255.883 1.72464 -0.750845 0
M  V30 2696 O 255.241 1.78826 0.298478 0
M  V30 2697 C 255.289 1.64654 -3.20814 0
M  V30 2698 O 254.393 2.7538 -3.06985 0
M  V30 2699 H 253.734 0.232158 -0.622092 0
M  V30 2700 H 256.264 0.0964977 -2.04372 0
M  V30 2701 H 256.274 2.03499 -3.53627 0
M  V30 2702 H 254.949 0.997416 -4.03763 0
M  V30 2703 H 253.526 2.3971 -2.85646 0
M  V30 2704 N 255.711 1.52812 0.385517 0
M  V30 2705 C 256.958 1.68026 1.1302 0
M  V30 2706 C 257.286 0.421934 1.89868 0
M  V30 2707 O 256.541 -0.595749 1.86412 0
M  V30 2708 C 256.84 2.86856 2.13187 0
M  V30 2709 C 256.506 4.24159 1.5297 0
M  V30 2710 C 255.168 4.61501 1.36274 0
M  V30 2711 C 257.52 5.09627 1.09223 0
M  V30 2712 C 254.848 5.81966 0.743837 0
M  V30 2713 C 257.2 6.30719 0.487411 0
M  V30 2714 C 255.864 6.6679 0.307777 0
M  V30 2715 H 255.134 0.614849 0.413571 0
M  V30 2716 H 257.781 1.86962 0.414405 0
M  V30 2717 H 256.086 2.6235 2.90998 0
M  V30 2718 H 257.783 2.95821 2.70722 0
M  V30 2719 H 254.373 3.94746 1.66954 0
M  V30 2720 H 258.557 4.81343 1.20922 0
M  V30 2721 H 253.813 6.08519 0.592891 0
M  V30 2722 H 257.987 6.96259 0.140143 0
M  V30 2723 H 255.614 7.60001 -0.173879 0
M  V30 2724 N 257.189 -0.644168 1.43834 0
M  V30 2725 C 258.438 -1.39985 1.45214 0
M  V30 2726 C 258.751 -1.95421 0.0835494 0
M  V30 2727 O 259.957 -2.71488 -0.0251748 0
M  V30 2728 C 258.413 -2.53384 2.55587 0
M  V30 2729 C 258.021 -2.04517 3.98594 0
M  V30 2730 C 259.765 -3.30685 2.66172 0
M  V30 2731 C 257.672 -3.1518 5.00416 0
M  V30 2732 H 256.602 -0.526005 0.540218 0
M  V30 2733 H 259.253 -0.694367 1.69855 0
M  V30 2734 H 257.635 -3.26446 2.24163 0
M  V30 2735 H 258.809 -1.38405 4.39523 0
M  V30 2736 H 257.124 -1.40068 3.92135 0
M  V30 2737 H 259.721 -4.13158 3.39418 0
M  V30 2738 H 260.064 -3.79312 1.71546 0
M  V30 2739 H 260.597 -2.64708 2.96942 0
M  V30 2740 H 257.336 -2.71511 5.96625 0
M  V30 2741 H 256.856 -3.79974 4.64091 0
M  V30 2742 H 258.535 -3.80166 5.23529 0
M  V30 2743 N 258.668 -1.30515 -0.883378 0
M  V30 2744 C 259.631 -1.1701 -1.97082 0
M  V30 2745 C 260.631 -0.10089 -1.60483 0
M  V30 2746 O 261.821 -0.349127 -1.70666 0
M  V30 2747 C 258.953 -0.793045 -3.31547 0
M  V30 2748 H 260.146 -2.13622 -2.10489 0
M  V30 2749 H 257.699 -1.13935 -1.06998 0
M  V30 2750 H 258.434 0.172499 -3.23841 0
M  V30 2751 H 258.219 -1.56576 -3.5948 0
M  V30 2752 H 259.709 -0.722073 -4.1131 0
M  V30 2753 N 260.146 1.09593 -1.13257 0
M  V30 2754 C 261.423 1.78293 -0.804432 0
M  V30 2755 C 261.803 1.99004 0.70431 0
M  V30 2756 O 261.151 1.59007 1.641 0
M  V30 2757 C 261.361 3.10707 -1.5894 0
M  V30 2758 C 262.709 3.85443 -1.78099 0
M  V30 2759 O 263.733 3.20454 -1.55525 0
M  V30 2760 O 262.592 5.02108 -2.15753 0
M  V30 2761 H 259.686 0.773156 -0.293528 0
M  V30 2762 H 262.232 1.16164 -1.23709 0
M  V30 2763 H 261.004 2.91106 -2.61482 0
M  V30 2764 H 260.627 3.80558 -1.15157 0
M  V30 2765 N 261.624 0.925811 1.2754 0
M  V30 2766 C 262.87 0.566092 1.94739 0
M  V30 2767 C 263.203 -0.890057 1.72603 0
M  V30 2768 O 262.478 -1.63467 1.05399 0
M  V30 2769 C 262.761 0.89054 3.48915 0
M  V30 2770 C 262.614 2.4003 3.80402 0
M  V30 2771 C 263.933 0.395101 4.38323 0
M  V30 2772 H 261.052 0.20714 0.707292 0
M  V30 2773 H 263.694 1.15725 1.50691 0
M  V30 2774 H 261.844 0.387452 3.86563 0
M  V30 2775 H 263.516 2.97494 3.52555 0
M  V30 2776 H 261.759 2.85028 3.2702 0
M  V30 2777 H 262.43 2.57785 4.8811 0
M  V30 2778 H 264.906 0.826241 4.07814 0
M  V30 2779 H 263.782 0.651086 5.45025 0
M  V30 2780 H 264.043 -0.704798 4.36446 0
M  V30 2781 N 263.102 -1.41638 0.69111 0
M  V30 2782 C 264.012 -2.34588 0.0233487 0
M  V30 2783 C 265.028 -1.55987 -0.770984 0
M  V30 2784 O 266.204 -1.88486 -0.709569 0
M  V30 2785 C 263.269 -3.34684 -0.904851 0
M  V30 2786 C 262.33 -4.29176 -0.103225 0
M  V30 2787 C 261.563 -5.2449 -0.987216 0
M  V30 2788 O 261.786 -5.2514 -2.22674 0
M  V30 2789 O 260.72 -6.00295 -0.439281 0
M  V30 2790 H 264.546 -2.93261 0.789416 0
M  V30 2791 H 262.131 -1.42417 0.45142 0
M  V30 2792 H 264.013 -3.96133 -1.43724 0
M  V30 2793 H 262.688 -2.78461 -1.65049 0
M  V30 2794 H 261.595 -3.71089 0.473655 0
M  V30 2795 H 262.928 -4.88484 0.60365 0
M  V30 2796 N 264.58 -0.43555 -1.51462 0
M  V30 2797 C 265.991 0.0279871 -1.86679 0
M  V30 2798 C 266.342 1.42104 -1.35281 0
M  V30 2799 O 265.467 2.04667 -0.702878 0
M  V30 2800 C 266.062 0.0575626 -3.38751 0
M  V30 2801 C 264.621 0.465507 -3.7351 0
M  V30 2802 C 263.768 -0.342996 -2.75171 0
M  V30 2803 H 266.719 -0.651473 -1.44712 0
M  V30 2804 H 266.74 0.867421 -3.70481 0
M  V30 2805 H 266.252 -0.956448 -3.7613 0
M  V30 2806 H 264.353 1.48519 -3.41721 0
M  V30 2807 H 264.466 0.191546 -4.78717 0
M  V30 2808 H 262.83 0.198442 -2.53926 0
M  V30 2809 H 263.613 -1.35585 -3.15391 0
M  V30 2810 N 266.058 1.56714 -0.166846 0
M  V30 2811 C 267.307 1.95922 0.479318 0
M  V30 2812 C 267.62 1.05529 1.6469 0
M  V30 2813 O 268.826 1.34399 2.35901 0
M  V30 2814 C 267.282 3.48359 0.90412 0
M  V30 2815 C 266.89 4.47369 -0.237621 0
M  V30 2816 C 268.634 3.96394 1.51896 0
M  V30 2817 C 266.541 5.91039 0.206561 0
M  V30 2818 H 265.471 0.731495 0.18284 0
M  V30 2819 H 268.122 1.81728 -0.254363 0
M  V30 2820 H 266.504 3.57955 1.69365 0
M  V30 2821 H 267.678 4.49485 -1.01489 0
M  V30 2822 H 265.993 4.09366 -0.762128 0
M  V30 2823 H 268.59 5.01186 1.86325 0
M  V30 2824 H 268.933 3.39075 2.41524 0
M  V30 2825 H 269.466 3.89796 0.79395 0
M  V30 2826 H 266.205 6.52221 -0.654834 0
M  V30 2827 H 265.725 5.9224 0.949282 0
M  V30 2828 H 267.404 6.43707 0.651939 0
M  V30 2829 N 267.536 -0.106894 1.57237 0
M  V30 2830 C 268.783 -0.812526 1.85484 0
M  V30 2831 C 269.111 -1.79304 0.753687 0
M  V30 2832 O 268.366 -1.94047 -0.253853 0
M  V30 2833 C 268.665 -1.58628 3.20268 0
M  V30 2834 C 268.331 -0.748967 4.44636 0
M  V30 2835 C 266.993 -0.518104 4.78403 0
M  V30 2836 C 269.345 -0.166122 5.20935 0
M  V30 2837 C 266.673 0.305659 5.85903 0
M  V30 2838 C 269.025 0.644899 6.29304 0
M  V30 2839 C 267.689 0.885965 6.61594 0
M  V30 2840 H 266.959 -0.297324 0.678734 0
M  V30 2841 H 269.606 -0.0744332 1.91355 0
M  V30 2842 H 267.911 -2.39562 3.10028 0
M  V30 2843 H 269.608 -2.13643 3.39349 0
M  V30 2844 H 266.198 -0.939006 4.18187 0
M  V30 2845 H 270.382 -0.33167 4.95191 0
M  V30 2846 H 265.638 0.501528 6.0934 0
M  V30 2847 H 269.812 1.10345 6.87602 0
M  V30 2848 H 267.439 1.52609 7.44725 0
M  V30 2849 N 269.014 -1.53014 -0.377408 0
M  V30 2850 C 270.291 -1.59215 -1.13622 0
M  V30 2851 C 270.671 -0.392407 -2.07421 0
M  V30 2852 O 270.019 0.618342 -2.19975 0
M  V30 2853 C 270.229 -2.93669 -1.88573 0
M  V30 2854 C 271.577 -3.47822 -2.43526 0
M  V30 2855 O 272.601 -2.9562 -1.98715 0
M  V30 2856 O 271.46 -4.39055 -3.25412 0
M  V30 2857 H 268.554 -0.642625 -0.52054 0
M  V30 2858 H 271.1 -1.65353 -0.381625 0
M  V30 2859 H 269.872 -3.7243 -1.20048 0
M  V30 2860 H 269.495 -2.90968 -2.70968 0
M  V30 2861 N 270.492 0.636531 -1.44174 0
M  V30 2862 C 271.908 0.954104 -1.27941 0
M  V30 2863 C 272.108 2.0039 -0.211248 0
M  V30 2864 O 271.164 2.49236 0.404695 0
M  V30 2865 C 272.477 1.4225 -2.64925 0
M  V30 2866 C 274.025 1.53827 -2.72592 0
M  V30 2867 C 274.5 2.04053 -4.10032 0
M  V30 2868 N 275.991 2.11331 -4.12182 0
M  V30 2869 C 276.726 2.51352 -5.15374 0
M  V30 2870 N 276.222 2.90549 -6.2893 0
M  V30 2871 N 278.015 2.51438 -5.02728 0
M  V30 2872 H 270.166 -0.0578386 -2.12321 0
M  V30 2873 H 272.429 0.0367406 -0.947288 0
M  V30 2874 H 272.135 0.725466 -3.44136 0
M  V30 2875 H 272.009 2.39451 -2.9145 0
M  V30 2876 H 274.396 2.22628 -1.93702 0
M  V30 2877 H 274.477 0.550154 -2.49814 0
M  V30 2878 H 274.121 1.35848 -4.89395 0
M  V30 2879 H 274.051 3.03726 -4.30184 0
M  V30 2880 H 276.542 1.83745 -3.30222 0
M  V30 2881 H 276.855 3.19884 -7.03487 0
M  V30 2882 H 275.2 2.88313 -6.32377 0
M  V30 2883 H 278.391 2.20203 -4.13072 0
M  V30 2884 H 278.564 2.82304 -5.83274 0
M  V30 2885 N 271.97 1.30982 0.876444 0
M  V30 2886 C 272.9 1.20668 1.99903 0
M  V30 2887 C 273.881 0.095354 1.69833 0
M  V30 2888 O 275.066 0.27885 1.92188 0
M  V30 2889 C 272.196 0.90655 3.3526 0
M  V30 2890 C 271.15 1.97675 3.79617 0
M  V30 2891 C 270.476 1.52943 5.1236 0
M  V30 2892 C 271.776 3.389 3.97422 0
M  V30 2893 H 273.47 2.14586 2.0879 0
M  V30 2894 H 271.016 1.03308 1.00317 0
M  V30 2895 H 272.969 0.821025 4.13324 0
M  V30 2896 H 271.693 -0.0682969 3.26529 0
M  V30 2897 H 270.352 2.05205 3.03787 0
M  V30 2898 H 270 0.54262 5.00065 0
M  V30 2899 H 269.7 2.24532 5.43009 0
M  V30 2900 H 271.224 1.45786 5.92941 0
M  V30 2901 H 272.638 3.34081 4.659 0
M  V30 2902 H 271.035 4.0865 4.3946 0
M  V30 2903 H 272.105 3.80163 3.01006 0
M  V30 2904 N 273.449 -1.08991 1.13837 0
M  V30 2905 C 274.379 -2.17771 0.842507 0
M  V30 2906 C 275.36 -1.6892 -0.20001 0
M  V30 2907 O 276.545 -1.94113 -0.0579731 0
M  V30 2908 C 273.675 -3.4589 0.312644 0
M  V30 2909 C 272.629 -4.08099 1.28992 0
M  V30 2910 C 271.955 -5.31098 0.619623 0
M  V30 2911 C 273.255 -4.50077 2.65005 0
M  V30 2912 H 274.949 -2.42777 1.75213 0
M  V30 2913 H 272.495 -1.16682 0.843875 0
M  V30 2914 H 274.448 -4.21297 0.0933043 0
M  V30 2915 H 273.172 -3.20419 -0.632382 0
M  V30 2916 H 271.831 -3.34717 1.49533 0
M  V30 2917 H 271.479 -5.0191 -0.33102 0
M  V30 2918 H 271.179 -5.73674 1.27167 0
M  V30 2919 H 272.703 -6.09224 0.409669 0
M  V30 2920 H 274.117 -5.16688 2.48407 0
M  V30 2921 H 272.514 -5.03553 3.26427 0
M  V30 2922 H 273.584 -3.62257 3.22332 0
M  V30 2923 N 274.927 -0.932562 -1.27047 0
M  V30 2924 C 276.174 -0.575559 -1.94148 0
M  V30 2925 C 276.502 0.883984 -1.73251 0
M  V30 2926 O 275.757 1.64655 -1.0577 0
M  V30 2927 C 276.056 -0.853713 -3.47054 0
M  V30 2928 C 275.722 -2.29577 -3.88079 0
M  V30 2929 C 274.384 -2.68999 -3.9899 0
M  V30 2930 C 276.736 -3.23331 -4.08787 0
M  V30 2931 C 274.064 -4.01289 -4.28 0
M  V30 2932 C 276.416 -4.55207 -4.39282 0
M  V30 2933 C 275.08 -4.94457 -4.48407 0
M  V30 2934 H 274.35 -0.210612 -0.710439 0
M  V30 2935 H 276.997 -1.17744 -1.51025 0
M  V30 2936 H 275.302 -0.169204 -3.91434 0
M  V30 2937 H 276.999 -0.55639 -3.97121 0
M  V30 2938 H 273.589 -1.97994 -3.80127 0
M  V30 2939 H 277.773 -2.94074 -3.99793 0
M  V30 2940 H 273.029 -4.31374 -4.33275 0
M  V30 2941 H 277.203 -5.27852 -4.54252 0
M  V30 2942 H 274.83 -5.96994 -4.7064 0
M  V30 2943 N 276.405 1.4127 -0.698611 0
M  V30 2944 C 277.652 2.0118 -0.230865 0
M  V30 2945 C 277.98 1.55338 1.17049 0
M  V30 2946 O 277.235 0.756775 1.80475 0
M  V30 2947 C 277.534 3.56592 -0.240192 0
M  V30 2948 C 277.2 4.21955 -1.58948 0
M  V30 2949 C 275.862 4.39524 -1.95887 0
M  V30 2950 C 278.214 4.58576 -2.47704 0
M  V30 2951 C 275.542 4.90992 -3.2116 0
M  V30 2952 C 277.894 5.11435 -3.72313 0
M  V30 2953 C 276.558 5.27215 -4.0939 0
M  V30 2954 H 275.828 0.736169 -0.0844796 0
M  V30 2955 H 278.475 1.69124 -0.8983 0
M  V30 2956 H 276.78 3.88456 0.510797 0
M  V30 2957 H 278.477 4.00758 0.139296 0
M  V30 2958 H 275.067 4.08657 -1.29219 0
M  V30 2959 H 279.251 4.44654 -2.20445 0
M  V30 2960 H 274.507 5.01393 -3.49878 0
M  V30 2961 H 278.681 5.38752 -4.4127 0
M  V30 2962 H 276.308 5.66859 -5.06533 0
M  V30 2963 N 277.883 0.443576 1.51229 0
M  V30 2964 C 279.129 -0.11321 2.03085 0
M  V30 2965 C 279.484 -1.39841 1.32145 0
M  V30 2966 O 278.777 -1.86723 0.429542 0
M  V30 2967 C 278.971 -0.380579 3.55368 0
M  V30 2968 C 278.8 0.877157 4.41062 0
M  V30 2969 C 277.57 1.4125 4.85156 0
M  V30 2970 C 279.768 1.76503 4.83064 0
M  V30 2971 N 277.75 2.62213 5.55083 0
M  V30 2972 C 279.121 2.82067 5.52122 0
M  V30 2973 C 281.176 1.7787 4.65045 0
M  V30 2974 C 279.879 3.88952 6.05069 0
M  V30 2975 C 281.905 2.83694 5.18914 0
M  V30 2976 C 281.267 3.87978 5.87922 0
M  V30 2977 H 277.366 -0.00210178 0.781997 0
M  V30 2978 H 279.95 0.605641 1.85041 0
M  V30 2979 H 278.121 -1.06847 3.73414 0
M  V30 2980 H 279.853 -0.929274 3.93887 0
M  V30 2981 H 276.608 0.965542 4.63653 0
M  V30 2982 H 277.032 3.23568 5.9467 0
M  V30 2983 H 281.674 0.985744 4.11148 0
M  V30 2984 H 279.392 4.69082 6.58018 0
M  V30 2985 H 282.978 2.85702 5.06819 0
M  V30 2986 H 281.858 4.68517 6.28857 0
M  V30 2987 N 279.361 -1.56624 0.175154 0
M  V30 2988 C 280.586 -2.01813 -0.478137 0
M  V30 2989 C 281.011 -1.05457 -1.55757 0
M  V30 2990 O 280.369 -0.0347439 -1.81267 0
M  V30 2991 C 280.417 -3.45581 -1.02987 0
M  V30 2992 O 279.521 -3.52305 -2.14371 0
M  V30 2993 H 278.862 -0.65413 -0.114059 0
M  V30 2994 H 281.392 -2.02673 0.280173 0
M  V30 2995 H 281.402 -3.84965 -1.35151 0
M  V30 2996 H 280.077 -4.1521 -0.239556 0
M  V30 2997 H 278.654 -3.24783 -1.83222 0
M  V30 2998 N 280.839 0.0985539 -1.57292 0
M  V30 2999 C 282.116 0.834155 -1.76921 0
M  V30 3000 C 282.496 1.97101 -0.755928 0
M  V30 3001 O 281.844 2.27474 0.216245 0
M  V30 3002 C 282.054 1.33194 -3.22584 0
M  V30 3003 C 283.402 1.77611 -3.85668 0
M  V30 3004 O 284.426 1.42825 -3.26312 0
M  V30 3005 O 283.285 2.4192 -4.90038 0
M  V30 3006 H 280.379 0.397628 -0.725135 0
M  V30 3007 H 282.925 0.0807044 -1.69508 0
M  V30 3008 H 281.697 0.517248 -3.87866 0
M  V30 3009 H 281.32 2.1475 -3.34616 0
M  V30 3010 N 282.317 1.53212 0.369288 0
M  V30 3011 C 283.733 1.42902 0.710712 0
M  V30 3012 C 283.933 0.565135 1.93413 0
M  V30 3013 O 282.989 0.0461484 2.52458 0
M  V30 3014 C 284.302 2.86042 0.927382 0
M  V30 3015 C 285.85 2.9565 1.02762 0
M  V30 3016 C 286.325 4.39843 1.27679 0
M  V30 3017 N 287.816 4.43256 1.34457 0
M  V30 3018 C 288.551 5.51929 1.55439 0
M  V30 3019 N 288.047 6.70655 1.73762 0
M  V30 3020 N 289.84 5.39502 1.57779 0
M  V30 3021 H 281.991 2.07888 -0.435457 0
M  V30 3022 H 284.254 0.938661 -0.132739 0
M  V30 3023 H 283.96 3.51557 0.100287 0
M  V30 3024 H 283.834 3.29472 1.83653 0
M  V30 3025 H 286.221 2.30291 1.84527 0
M  V30 3026 H 286.302 2.5562 0.0959504 0
M  V30 3027 H 285.946 5.05774 0.464175 0
M  V30 3028 H 285.876 4.77443 2.22162 0
M  V30 3029 H 288.367 3.5769 1.21926 0
M  V30 3030 H 288.68 7.49248 1.89335 0
M  V30 3031 H 287.025 6.73648 1.70948 0
M  V30 3032 H 290.216 4.45713 1.43029 0
M  V30 3033 H 290.389 6.2426 1.7379 0
M  V30 3034 N 283.795 -0.628877 1.44509 0
M  V30 3035 C 285.211 -0.947305 1.28446 0
M  V30 3036 C 285.411 -2.00275 0.221872 0
M  V30 3037 O 284.467 -2.49447 -0.391471 0
M  V30 3038 C 285.78 -1.40843 2.65676 0
M  V30 3039 C 287.328 -1.52379 2.73404 0
M  V30 3040 C 287.803 -2.01875 4.11109 0
M  V30 3041 N 289.294 -2.09142 4.13296 0
M  V30 3042 C 290.029 -2.48615 5.16699 0
M  V30 3043 N 289.525 -2.87209 6.30462 0
M  V30 3044 N 291.318 -2.48768 5.04054 0
M  V30 3045 H 283.469 0.0690977 2.12288 0
M  V30 3046 H 285.732 -0.0317164 0.947469 0
M  V30 3047 H 285.438 -0.707206 3.44516 0
M  V30 3048 H 285.312 -2.37902 2.92716 0
M  V30 3049 H 287.699 -2.21598 1.9488 0
M  V30 3050 H 287.78 -0.536898 2.50102 0
M  V30 3051 H 287.424 -1.3325 4.90109 0
M  V30 3052 H 287.354 -3.0144 4.31789 0
M  V30 3053 H 289.845 -1.81991 3.31191 0
M  V30 3054 H 290.158 -3.16149 7.05174 0
M  V30 3055 H 288.503 -2.84955 6.33897 0
M  V30 3056 H 291.694 -2.18009 4.14234 0
M  V30 3057 H 291.867 -2.79207 5.84763 0
M  V30 3058 N 285.273 -1.31445 -0.869486 0
M  V30 3059 C 286.221 -1.19067 -1.99814 0
M  V30 3060 C 287.215 -0.0988569 -1.69111 0
M  V30 3061 O 288.421 -0.260781 -1.78101 0
M  V30 3062 H 284.796 -0.368677 -0.655425 0
M  V30 3063 H 286.767 -2.14555 -2.07385 0
M  V30 3064 C 285.516 -0.915323 -3.35436 0
M  V30 3065 H 284.839 -1.74759 -3.59582 0
M  V30 3066 H 286.279 -0.868895 -4.15001 0
M  V30 3067 C 284.738 0.381928 -3.34728 0
M  V30 3068 O 285.268 1.39857 -3.76567 0
M  V30 3069 N 283.474 0.398633 -2.87853 0
M  V30 3070 H 283.021 -0.429186 -2.54 0
M  V30 3071 H 282.979 1.26651 -2.87762 0
M  V30 3072 N 286.751 1.08385 -1.14413 0
M  V30 3073 C 288.162 1.62258 -0.923535 0
M  V30 3074 C 288.513 1.88691 0.537595 0
M  V30 3075 O 287.638 1.64454 1.40655 0
M  V30 3076 C 288.233 2.94781 -1.67002 0
M  V30 3077 C 286.792 3.45437 -1.495 0
M  V30 3078 C 285.939 2.19668 -1.69238 0
M  V30 3079 H 288.89 0.916086 -1.2959 0
M  V30 3080 H 288.911 3.63229 -1.13334 0
M  V30 3081 H 288.423 2.7551 -2.73342 0
M  V30 3082 H 286.524 3.6981 -0.455097 0
M  V30 3083 H 286.637 4.22173 -2.2651 0
M  V30 3084 H 285.001 2.28849 -1.11804 0
M  V30 3085 H 285.784 2.02905 -2.7692 0
M  V30 3086 N 288.23 0.939286 1.26551 0
M  V30 3087 C 289.18 0.418284 2.2413 0
M  V30 3088 C 290.164 -0.483935 1.5345 0
M  V30 3089 O 291.356 -0.319489 1.74093 0
M  V30 3090 C 288.485 -0.31709 3.41832 0
M  V30 3091 C 287.571 0.602311 4.19801 0
M  V30 3092 N 287.962 1.72726 4.75394 0
M  V30 3093 C 286.26 0.407534 4.44134 0
M  V30 3094 C 286.961 2.30004 5.34297 0
M  V30 3095 N 285.937 1.58828 5.1988 0
M  V30 3096 H 289.739 1.27705 2.64705 0
M  V30 3097 H 287.253 0.794929 1.41614 0
M  V30 3098 H 289.25 -0.707364 4.10855 0
M  V30 3099 H 287.91 -1.17264 3.02786 0
M  V30 3100 H 288.921 2.10944 4.72994 0
M  V30 3101 H 285.598 -0.406406 4.15517 0
M  V30 3102 H 286.988 3.24778 5.88191 0
M  V30 3103 N 289.708 -1.40897 0.706093 0
M  V30 3104 C 290.618 -2.3455 0.0482286 0
M  V30 3105 C 291.634 -1.56796 -0.754396 0
M  V30 3106 O 292.81 -1.89228 -0.689538 0
M  V30 3107 C 289.875 -3.35625 -0.869303 0
M  V30 3108 C 288.936 -4.29261 -0.0576994 0
M  V30 3109 C 288.169 -5.25508 -0.931531 0
M  V30 3110 O 288.392 -5.27472 -2.17092 0
M  V30 3111 O 287.326 -6.00727 -0.375587 0
M  V30 3112 H 291.152 -2.92407 0.820476 0
M  V30 3113 H 288.737 -1.4193 0.4665 0
M  V30 3114 H 290.619 -3.97635 -1.39514 0
M  V30 3115 H 289.294 -2.80196 -1.62086 0
M  V30 3116 H 288.201 -3.70566 0.512988 0
M  V30 3117 H 289.534 -4.87817 0.655426 0
M  V30 3118 N 291.186 -0.45159 -1.50991 0
M  V30 3119 C 292.432 0.110237 -2.025 0
M  V30 3120 C 292.765 1.41109 -1.33424 0
M  V30 3121 O 292.04 1.89135 -0.453659 0
M  V30 3122 C 292.323 0.314271 -3.58726 0
M  V30 3123 C 292.176 -1.00623 -4.38401 0
M  V30 3124 C 293.495 1.07767 -4.26702 0
M  V30 3125 H 290.614 0.0385897 -0.735989 0
M  V30 3126 H 293.256 -0.593374 -1.80497 0
M  V30 3127 H 291.406 0.913601 -3.77605 0
M  V30 3128 H 293.078 -1.64064 -4.31139 0
M  V30 3129 H 291.321 -1.6075 -4.02917 0
M  V30 3130 H 291.992 -0.817341 -5.45915 0
M  V30 3131 H 294.468 0.56986 -4.12179 0
M  V30 3132 H 293.344 1.18921 -5.35863 0
M  V30 3133 H 293.605 2.10939 -3.88532 0
M  V30 3134 N 292.664 1.56529 -0.183458 0
M  V30 3135 C 293.596 2.15747 0.773697 0
M  V30 3136 C 294.609 1.1162 1.1851 0
M  V30 3137 O 295.798 1.3876 1.12285 0
M  V30 3138 C 292.898 2.6952 2.05456 0
M  V30 3139 C 292.071 3.98429 1.8048 0
M  V30 3140 C 291.13 4.37145 2.92901 0
M  V30 3141 O 290.156 5.04791 2.6301 0
M  V30 3142 N 291.358 3.99695 4.2098 0
M  V30 3143 H 294.123 2.98505 0.26736 0
M  V30 3144 H 291.684 1.619 -0.0010878 0
M  V30 3145 H 293.676 2.92412 2.79781 0
M  V30 3146 H 292.246 1.91282 2.47245 0
M  V30 3147 H 291.466 3.8379 0.899947 0
M  V30 3148 H 292.754 4.82597 1.61175 0
M  V30 3149 H 292.152 3.4526 4.48121 0
M  V30 3150 H 290.709 4.27562 4.9197 0
M  V30 3151 N 294.142 -0.090211 1.57342 0
M  V30 3152 C 295.553 -0.644173 1.75235 0
M  V30 3153 C 295.904 -1.78865 0.806335 0
M  V30 3154 O 295.029 -2.16395 -0.0140128 0
M  V30 3155 C 295.624 -1.17532 3.1776 0
M  V30 3156 C 294.183 -1.67531 3.37061 0
M  V30 3157 C 293.33 -0.58693 2.71017 0
M  V30 3158 H 296.281 0.135884 1.58117 0
M  V30 3159 H 296.302 -2.04455 3.20902 0
M  V30 3160 H 295.814 -0.342138 3.86589 0
M  V30 3161 H 293.915 -2.53234 2.73319 0
M  V30 3162 H 294.028 -1.76493 4.45406 0
M  V30 3163 H 292.392 -1.02756 2.33052 0
M  V30 3164 H 293.175 0.235758 3.4249 0
M  V30 3165 N 295.62 -1.53406 -0.361157 0
M  V30 3166 C 296.845 -1.74024 -1.12829 0
M  V30 3167 C 297.27 -0.470069 -1.82132 0
M  V30 3168 O 296.628 0.57619 -1.719 0
M  V30 3169 C 296.676 -2.90903 -2.13091 0
M  V30 3170 O 295.78 -2.59821 -3.20261 0
M  V30 3171 H 295.121 -0.577804 -0.327168 0
M  V30 3172 H 297.651 -2.00307 -0.41693 0
M  V30 3173 H 297.661 -3.17194 -2.56616 0
M  V30 3174 H 296.336 -3.83034 -1.62042 0
M  V30 3175 H 294.913 -2.44362 -2.81677 0
M  V30 3176 N 297.098 0.621204 -1.44841 0
M  V30 3177 C 298.328 1.40548 -1.51426 0
M  V30 3178 C 298.736 1.88673 -0.141083 0
M  V30 3179 O 298.079 1.62053 0.865128 0
M  V30 3180 C 298.141 2.65325 -2.42576 0
M  V30 3181 C 297.805 2.3893 -3.89566 0
M  V30 3182 C 298.802 2.00138 -4.79834 0
M  V30 3183 C 296.487 2.52263 -4.3436 0
M  V30 3184 C 298.481 1.75021 -6.129 0
M  V30 3185 C 296.168 2.2676 -5.67471 0
M  V30 3186 C 297.166 1.88199 -6.56559 0
M  V30 3187 O 296.854 1.62986 -7.87204 0
M  V30 3188 H 296.586 0.437122 -0.515655 0
M  V30 3189 H 299.14 0.765987 -1.90583 0
M  V30 3190 H 297.37 3.31947 -1.98364 0
M  V30 3191 H 299.059 3.27347 -2.39998 0
M  V30 3192 H 299.825 1.89386 -4.46495 0
M  V30 3193 H 295.704 2.81246 -3.65269 0
M  V30 3194 H 299.248 1.44848 -6.82396 0
M  V30 3195 H 295.145 2.37125 -6.00368 0
M  V30 3196 H 295.913 1.7715 -7.991 0
M  V30 3197 N 298.576 1.31904 0.862503 0
M  V30 3198 C 299.539 1.20131 1.95195 0
M  V30 3199 C 300.539 0.126409 1.60302 0
M  V30 3200 O 301.729 0.376234 1.70089 0
M  V30 3201 C 298.861 0.845691 3.30244 0
M  V30 3202 H 300.054 2.16943 2.07064 0
M  V30 3203 H 297.607 1.15622 1.05172 0
M  V30 3204 H 298.342 -0.120957 3.24074 0
M  V30 3205 H 298.127 1.62276 3.56944 0
M  V30 3206 H 299.617 0.787418 4.10109 0
M  V30 3207 N 300.054 -1.07777 1.14986 0
M  V30 3208 C 301.282 -1.84018 0.945773 0
M  V30 3209 C 301.697 -1.81897 -0.505863 0
M  V30 3210 O 301.054 -1.22726 -1.35072 0
M  V30 3211 C 301.105 -3.31287 1.44677 0
M  V30 3212 O 300.826 -3.33449 2.84154 0
M  V30 3213 C 302.327 -4.24311 1.28355 0
M  V30 3214 H 299.547 -0.580716 0.336169 0
M  V30 3215 H 302.091 -1.36077 1.52654 0
M  V30 3216 H 300.246 -3.76594 0.908625 0
M  V30 3217 H 300.66 -4.25427 3.06777 0
M  V30 3218 H 302.134 -5.2573 1.68261 0
M  V30 3219 H 302.611 -4.38612 0.227184 0
M  V30 3220 H 303.217 -3.84836 1.81056 0
M  V30 3221 N 301.532 -0.945985 -1.26051 0
M  V30 3222 C 302.948 -0.649045 -1.45807 0
M  V30 3223 C 303.148 0.796158 -1.85104 0
M  V30 3224 O 302.204 1.57233 -1.97571 0
M  V30 3225 C 303.517 -1.61458 -2.53677 0
M  V30 3226 C 305.065 -1.62481 -2.67524 0
M  V30 3227 C 305.54 -2.57776 -3.7857 0
M  V30 3228 N 307.031 -2.5609 -3.85969 0
M  V30 3229 C 307.766 -3.26508 -4.7136 0
M  V30 3230 N 307.262 -4.0637 -5.61102 0
M  V30 3231 N 309.055 -3.15437 -4.65248 0
M  V30 3232 H 301.206 -1.88005 -0.988328 0
M  V30 3233 H 303.469 -0.808198 -0.4955 0
M  V30 3234 H 303.175 -2.64644 -2.31638 0
M  V30 3235 H 303.049 -1.37036 -3.51427 0
M  V30 3236 H 305.436 -0.600167 -2.88933 0
M  V30 3237 H 305.517 -1.90958 -1.70202 0
M  V30 3238 H 305.161 -3.60361 -3.57913 0
M  V30 3239 H 305.091 -2.26587 -4.75359 0
M  V30 3240 H 307.582 -1.98105 -3.21812 0
M  V30 3241 H 307.895 -4.57042 -6.23164 0
M  V30 3242 H 306.24 -4.10469 -5.60839 0
M  V30 3243 H 309.431 -2.52525 -3.94143 0
M  V30 3244 H 309.604 -3.70584 -5.31575 0
M  V30 3245 N 303.011 1.40521 -0.713556 0
M  V30 3246 C 304.241 2.0494 -0.261395 0
M  V30 3247 C 304.649 1.53861 1.10107 0
M  V30 3248 O 303.992 0.689321 1.70276 0
M  V30 3249 C 304.054 3.59138 -0.161227 0
M  V30 3250 C 303.718 4.33096 -1.45865 0
M  V30 3251 C 304.715 4.61182 -2.40016 0
M  V30 3252 C 302.4 4.72043 -1.71701 0
M  V30 3253 C 304.394 5.27196 -3.58251 0
M  V30 3254 C 302.081 5.37789 -2.90218 0
M  V30 3255 C 303.079 5.65295 -3.83315 0
M  V30 3256 O 302.767 6.29683 -4.99754 0
M  V30 3257 H 302.499 0.666041 -0.115608 0
M  V30 3258 H 305.053 1.80954 -0.971849 0
M  V30 3259 H 303.283 3.81936 0.605153 0
M  V30 3260 H 304.972 4.05091 0.256105 0
M  V30 3261 H 305.738 4.31559 -2.21318 0
M  V30 3262 H 301.617 4.50003 -1.00092 0
M  V30 3263 H 305.161 5.48582 -4.30934 0
M  V30 3264 H 301.058 5.66831 -3.08825 0
M  V30 3265 H 301.826 6.4818 -4.99805 0
M  V30 3266 N 304.489 0.459591 1.5075 0
M  V30 3267 C 305.452 -0.329093 2.26825 0
M  V30 3268 C 306.452 -0.930481 1.31144 0
M  V30 3269 O 307.642 -0.801453 1.54669 0
M  V30 3270 C 304.774 -1.46768 3.07688 0
M  V30 3271 H 305.967 0.337924 2.9799 0
M  V30 3272 H 303.52 0.213336 1.54837 0
M  V30 3273 H 304.255 -2.17009 2.40993 0
M  V30 3274 H 304.04 -1.04238 3.77991 0
M  V30 3275 H 305.53 -2.02433 3.65254 0
M  V30 3276 N 305.967 -1.56429 0.191757 0
M  V30 3277 C 306.9 -2.14829 -0.76967 0
M  V30 3278 C 307.878 -1.08405 -1.2119 0
M  V30 3279 O 309.062 -1.36498 -1.30002 0
M  V30 3280 C 306.189 -2.70446 -2.03903 0
M  V30 3281 C 305.235 -3.89428 -1.7392 0
M  V30 3282 S 306.068 -5.28048 -0.890265 0
M  V30 3283 C 307.224 -5.87085 -2.16984 0
M  V30 3284 H 307.457 -2.96042 -0.273204 0
M  V30 3285 H 304.99 -1.54383 -0.0231975 0
M  V30 3286 H 306.948 -3.03134 -2.76803 0
M  V30 3287 H 305.609 -1.89281 -2.50662 0
M  V30 3288 H 304.802 -4.26742 -2.68155 0
M  V30 3289 H 304.404 -3.57732 -1.09103 0
M  V30 3290 H 306.696 -6.01244 -3.12269 0
M  V30 3291 H 307.639 -6.83747 -1.84108 0
M  V30 3292 H 308.047 -5.15663 -2.29678 0
M  V30 3293 N 307.445 0.0818655 -1.57387 0
M  V30 3294 C 308.673 0.796108 -1.9097 0
M  V30 3295 C 309.088 1.71626 -0.786757 0
M  V30 3296 O 308.445 1.80908 0.240513 0
M  V30 3297 C 308.496 1.59829 -3.24248 0
M  V30 3298 O 308.217 0.715131 -4.32224 0
M  V30 3299 C 309.718 2.41442 -3.7178 0
M  V30 3300 H 306.938 0.22691 -0.631469 0
M  V30 3301 H 309.482 0.0551439 -2.04426 0
M  V30 3302 H 307.637 2.29163 -3.12351 0
M  V30 3303 H 308.051 1.27205 -5.08841 0
M  V30 3304 H 309.525 2.932 -4.67694 0
M  V30 3305 H 310.002 3.2051 -3.00283 0
M  V30 3306 H 310.608 1.77283 -3.86589 0
M  V30 3307 N 308.923 1.53595 0.353017 0
M  V30 3308 C 310.169 1.70638 1.09593 0
M  V30 3309 C 310.502 0.463286 1.88593 0
M  V30 3310 O 309.777 -0.539597 1.86865 0
M  V30 3311 C 310.06 2.96406 2.04489 0
M  V30 3312 C 309.913 4.30901 1.29014 0
M  V30 3313 C 311.232 3.17812 3.0444 0
M  V30 3314 H 308.351 0.620913 0.397034 0
M  V30 3315 H 310.993 1.86254 0.375446 0
M  V30 3316 H 309.143 2.83223 2.65927 0
M  V30 3317 H 310.815 4.55917 0.702638 0
M  V30 3318 H 309.058 4.29741 0.592071 0
M  V30 3319 H 309.729 5.1506 1.98537 0
M  V30 3320 H 312.205 3.30263 2.53112 0
M  V30 3321 H 311.081 4.07223 3.6805 0
M  V30 3322 H 311.342 2.33669 3.75301 0
M  V30 3323 N 310.401 -0.613514 1.45168 0
M  V30 3324 C 311.647 -1.37279 1.50087 0
M  V30 3325 C 312.002 -1.91902 0.138294 0
M  V30 3326 O 311.295 -1.71764 -0.84899 0
M  V30 3327 C 311.489 -2.54347 2.51083 0
M  V30 3328 C 311.318 -2.11186 3.97027 0
M  V30 3329 C 310.088 -1.97636 4.65046 0
M  V30 3330 C 312.286 -1.69016 4.85735 0
M  V30 3331 N 310.268 -1.48224 5.95737 0
M  V30 3332 C 311.639 -1.30976 6.06008 0
M  V30 3333 C 313.694 -1.56555 4.72647 0
M  V30 3334 C 312.397 -0.817197 7.14643 0
M  V30 3335 C 314.423 -1.08702 5.81324 0
M  V30 3336 C 313.785 -0.716233 7.00749 0
M  V30 3337 H 309.884 -0.496478 0.60418 0
M  V30 3338 H 312.468 -0.701988 1.81605 0
M  V30 3339 H 310.639 -3.19031 2.21527 0
M  V30 3340 H 312.371 -3.21208 2.46187 0
M  V30 3341 H 309.126 -2.18638 4.20112 0
M  V30 3342 H 309.55 -1.25767 6.65216 0
M  V30 3343 H 314.192 -1.83849 3.80736 0
M  V30 3344 H 311.91 -0.531797 8.06348 0
M  V30 3345 H 315.496 -0.994943 5.7323 0
M  V30 3346 H 314.376 -0.351642 7.83411 0
M  V30 3347 N 311.879 -1.3236 -0.855495 0
M  V30 3348 C 313.109 -1.25688 -1.6397 0
M  V30 3349 C 313.517 0.177592 -1.88365 0
M  V30 3350 O 312.86 1.12485 -1.45234 0
M  V30 3351 C 312.922 -1.94602 -3.02275 0
M  V30 3352 C 312.586 -3.43937 -3.00926 0
M  V30 3353 C 313.583 -4.39435 -2.77835 0
M  V30 3354 C 311.268 -3.85858 -3.21588 0
M  V30 3355 C 313.262 -5.74829 -2.75409 0
M  V30 3356 C 310.949 -5.21361 -3.18789 0
M  V30 3357 C 311.947 -6.15658 -2.95727 0
M  V30 3358 O 311.635 -7.48681 -2.928 0
M  V30 3359 H 311.367 -0.434972 -0.51747 0
M  V30 3360 H 313.921 -1.75023 -1.075 0
M  V30 3361 H 312.151 -1.39836 -3.60531 0
M  V30 3362 H 313.84 -1.81651 -3.62985 0
M  V30 3363 H 314.606 -4.08374 -2.6164 0
M  V30 3364 H 310.485 -3.12883 -3.38564 0
M  V30 3365 H 314.029 -6.48404 -2.57328 0
M  V30 3366 H 309.926 -5.52052 -3.34528 0
M  V30 3367 H 310.694 -7.5803 -3.0876 0
M  V30 3368 N 313.357 1.07166 -1.15556 0
M  V30 3369 C 314.604 1.79798 -0.931604 0
M  V30 3370 C 314.932 1.8682 0.54115 0
M  V30 3371 O 314.187 1.34942 1.41736 0
M  V30 3372 C 314.486 3.24707 -1.49332 0
M  V30 3373 C 314.152 3.37781 -2.98688 0
M  V30 3374 C 312.814 3.41057 -3.39461 0
M  V30 3375 C 315.166 3.40424 -3.94665 0
M  V30 3376 C 312.494 3.4458 -4.74849 0
M  V30 3377 C 314.846 3.45485 -5.29927 0
M  V30 3378 C 313.51 3.47039 -5.70193 0
M  V30 3379 H 312.78 0.657928 -0.340898 0
M  V30 3380 H 315.427 1.26091 -1.44129 0
M  V30 3381 H 313.732 3.81208 -0.904859 0
M  V30 3382 H 315.429 3.79486 -1.29582 0
M  V30 3383 H 312.019 3.35932 -2.66172 0
M  V30 3384 H 316.203 3.37113 -3.64237 0
M  V30 3385 H 311.459 3.44083 -5.05388 0
M  V30 3386 H 315.633 3.46476 -6.04092 0
M  V30 3387 H 313.26 3.49522 -6.75084 0
M  V30 3388 N 314.835 0.952656 1.25548 0
M  V30 3389 C 316.112 0.523818 1.88456 0
M  V30 3390 C 316.492 -0.998871 1.85973 0
M  V30 3391 O 315.84 -1.86381 1.3219 0
M  V30 3392 C 316.05 1.0982 3.31271 0
M  V30 3393 C 317.398 1.17385 4.08051 0
M  V30 3394 O 318.422 1.04961 3.40384 0
M  V30 3395 O 317.281 1.36852 5.29088 0
M  V30 3396 H 314.375 0.172485 0.808813 0
M  V30 3397 H 316.921 1.04596 1.33633 0
M  V30 3398 H 315.693 2.1415 3.27499 0
M  V30 3399 H 315.316 0.559191 3.93648 0
M  V30 3400 N 316.313 -1.40141 0.720998 0
M  V30 3401 C 317.276 -2.29058 0.0805834 0
M  V30 3402 C 318.276 -1.45632 -0.681758 0
M  V30 3403 O 319.466 -1.6648 -0.512856 0
M  V30 3404 C 316.598 -3.28925 -0.895593 0
M  V30 3405 H 317.791 -2.87191 0.863793 0
M  V30 3406 H 315.344 -1.48553 0.485975 0
M  V30 3407 H 316.079 -2.75822 -1.70566 0
M  V30 3408 H 315.864 -3.90519 -0.351766 0
M  V30 3409 H 317.354 -3.95494 -1.34069 0
M  V30 3410 N 317.792 -0.46758 -1.50504 0
M  V30 3411 C 318.702 0.33382 -2.32213 0
M  V30 3412 C 319.718 0.999323 -1.42441 0
M  V30 3413 O 320.894 0.988068 -1.75497 0
M  V30 3414 C 317.959 1.4035 -3.17022 0
M  V30 3415 C 317.02 0.754961 -4.2261 0
M  V30 3416 C 316.253 1.77367 -5.03365 0
M  V30 3417 O 316.476 2.99976 -4.8515 0
M  V30 3418 O 315.41 1.34744 -5.86624 0
M  V30 3419 H 319.236 -0.334067 -3.01857 0
M  V30 3420 H 316.821 -0.229496 -1.47627 0
M  V30 3421 H 318.703 2.02318 -3.69656 0
M  V30 3422 H 317.378 2.05492 -2.5011 0
M  V30 3423 H 316.285 0.0964244 -3.73976 0
M  V30 3424 H 317.618 0.146545 -4.91982 0
M  V30 3425 N 319.27 1.56325 -0.20005 0
M  V30 3426 C 320.18 2.22931 0.730668 0
M  V30 3427 C 321.196 1.22997 1.23076 0
M  V30 3428 O 322.372 1.55748 1.27689 0
M  V30 3429 C 319.437 2.87948 1.93098 0
M  V30 3430 C 318.498 4.03166 1.47497 0
M  V30 3431 C 317.731 4.65073 2.61807 0
M  V30 3432 O 317.954 4.25913 3.79413 0
M  V30 3433 O 316.888 5.54452 2.34237 0
M  V30 3434 H 320.714 3.03084 0.193391 0
M  V30 3435 H 318.299 1.49371 0.0294621 0
M  V30 3436 H 320.181 3.29063 2.6324 0
M  V30 3437 H 318.856 2.10771 2.45677 0
M  V30 3438 H 317.763 3.66664 0.742201 0
M  V30 3439 H 319.096 4.82022 0.995796 0
M  V30 3440 N 320.748 -0.0735177 1.57428 0
M  V30 3441 C 322.164 -0.428264 1.53747 0
M  V30 3442 C 322.364 -1.79272 0.91998 0
M  V30 3443 O 321.42 -2.47051 0.521745 0
M  V30 3444 C 322.733 -0.370914 2.98404 0
M  V30 3445 C 324.281 -0.451224 3.0973 0
M  V30 3446 C 324.756 -0.4238 4.56035 0
M  V30 3447 N 326.247 -0.483925 4.60665 0
M  V30 3448 C 326.982 -0.484891 5.71346 0
M  V30 3449 N 326.478 -0.440775 6.91396 0
M  V30 3450 N 328.271 -0.531319 5.59583 0
M  V30 3451 H 320.422 0.819949 1.95935 0
M  V30 3452 H 322.685 0.307493 0.896745 0
M  V30 3453 H 322.391 0.564956 3.47133 0
M  V30 3454 H 322.265 -1.18176 3.5821 0
M  V30 3455 H 324.652 -1.37752 2.60976 0
M  V30 3456 H 324.733 0.388167 2.52838 0
M  V30 3457 H 324.377 0.498638 5.05446 0
M  V30 3458 H 324.307 -1.2807 5.10789 0
M  V30 3459 H 326.798 -0.522338 3.74273 0
M  V30 3460 H 327.111 -0.44539 7.71515 0
M  V30 3461 H 325.456 -0.40749 6.93804 0
M  V30 3462 H 328.647 -0.563464 4.64696 0
M  V30 3463 H 328.82 -0.528603 6.4584 0
M  V30 3464 N 322.226 -1.5378 -0.344866 0
M  V30 3465 C 323.189 -1.80981 -1.40637 0
M  V30 3466 C 324.189 -0.680816 -1.45676 0
M  V30 3467 O 325.379 -0.949095 -1.46075 0
M  V30 3468 C 322.511 -1.95063 -2.79577 0
M  V30 3469 H 323.704 -2.75803 -1.17783 0
M  V30 3470 H 321.257 -1.45173 -0.579181 0
M  V30 3471 H 321.992 -1.02379 -3.07716 0
M  V30 3472 H 321.777 -2.77198 -2.77315 0
M  V30 3473 H 323.267 -2.17629 -3.56409 0
M  V30 3474 N 323.704 0.605807 -1.45491 0
M  V30 3475 C 324.614 1.74466 -1.56839 0
M  V30 3476 C 325.63 1.68006 -0.452772 0
M  V30 3477 O 326.806 1.8833 -0.713708 0
M  V30 3478 C 323.871 3.10931 -1.53371 0
M  V30 3479 C 322.932 3.28832 -2.75986 0
M  V30 3480 C 322.165 4.58787 -2.72673 0
M  V30 3481 O 322.388 5.4122 -1.80102 0
M  V30 3482 O 321.322 4.79438 -3.63899 0
M  V30 3483 H 325.148 1.67843 -2.53106 0
M  V30 3484 H 322.733 0.770108 -1.28022 0
M  V30 3485 H 324.615 3.92233 -1.54051 0
M  V30 3486 H 323.29 3.18042 -0.602572 0
M  V30 3487 H 322.197 2.47112 -2.80867 0
M  V30 3488 H 323.53 3.26599 -3.68231 0
M  V30 3489 N 325.182 1.32811 0.848464 0
M  V30 3490 C 326.145 1.22194 1.9391 0
M  V30 3491 C 327.145 0.143404 1.60159 0
M  V30 3492 O 328.335 0.394253 1.6968 0
M  V30 3493 C 325.467 0.88067 3.29328 0
M  V30 3494 H 326.66 2.19127 2.04752 0
M  V30 3495 H 324.213 1.16731 1.0394 0
M  V30 3496 H 324.948 -0.0865776 3.24184 0
M  V30 3497 H 324.733 1.66052 3.55203 0
M  V30 3498 H 326.223 0.830871 4.09251 0
M  V30 3499 N 326.66 -1.06551 1.16123 0
M  V30 3500 C 327.607 -2.13961 0.865414 0
M  V30 3501 C 328.577 -1.65066 -0.185055 0
M  V30 3502 O 329.762 -1.90732 -0.05083 0
M  V30 3503 C 326.902 -3.43113 0.369776 0
M  V30 3504 C 326.015 -4.05756 1.48276 0
M  V30 3505 C 325.15 -5.22773 0.942414 0
M  V30 3506 C 324.189 -5.77395 2.03179 0
M  V30 3507 N 323.326 -6.85731 1.50721 0
M  V30 3508 H 328.166 -2.38605 1.78527 0
M  V30 3509 H 325.703 -1.17072 0.890646 0
M  V30 3510 H 327.661 -4.17151 0.0640643 0
M  V30 3511 H 326.291 -3.18695 -0.513143 0
M  V30 3512 H 325.343 -3.29292 1.9045 0
M  V30 3513 H 326.655 -4.42351 2.30493 0
M  V30 3514 H 325.809 -6.03827 0.589729 0
M  V30 3515 H 324.548 -4.87618 0.0895191 0
M  V30 3516 H 323.553 -4.94981 2.3932 0
M  V30 3517 H 324.778 -6.14603 2.8886 0
M  V30 3518 H 322.724 -6.52499 0.676811 0
M  V30 3519 H 322.641 -7.21254 2.26557 0
M  V30 3520 H 323.909 -7.7047 1.18303 0
M  V30 3521 N 328.138 -0.959301 -1.25041 0
M  V30 3522 C 329.085 -0.482057 -2.2571 0
M  V30 3523 C 330.055 0.467939 -1.59372 0
M  V30 3524 O 331.24 0.380159 -1.86974 0
M  V30 3525 C 328.38 0.229623 -3.44335 0
M  V30 3526 C 327.493 -0.758156 -4.25295 0
M  V30 3527 C 326.628 -0.0234403 -5.31195 0
M  V30 3528 C 325.667 -1.00184 -6.03846 0
M  V30 3529 N 324.804 -0.29769 -7.01469 0
M  V30 3530 H 329.644 -1.34538 -2.65901 0
M  V30 3531 H 327.181 -0.674592 -1.3072 0
M  V30 3532 H 329.139 0.658856 -4.11965 0
M  V30 3533 H 327.769 1.05696 -3.05005 0
M  V30 3534 H 326.821 -1.30586 -3.57284 0
M  V30 3535 H 328.133 -1.50458 -4.75567 0
M  V30 3536 H 327.287 0.464201 -6.04922 0
M  V30 3537 H 326.026 0.755741 -4.81809 0
M  V30 3538 H 325.031 -1.50044 -5.2893 0
M  V30 3539 H 326.256 -1.78133 -6.55321 0
M  V30 3540 H 324.202 0.462668 -6.54366 0
M  V30 3541 H 324.119 -0.983128 -7.4958 0
M  V30 3542 H 325.387 0.16826 -7.79318 0
M  V30 3543 N 329.616 1.39756 -0.72842 0
M  V30 3544 C 330.563 2.30647 -0.0841519 0
M  V30 3545 C 331.533 1.48869 0.7367 0
M  V30 3546 O 332.718 1.77574 0.698015 0
M  V30 3547 C 329.858 3.35165 0.822091 0
M  V30 3548 C 328.971 4.31999 -0.0106663 0
M  V30 3549 C 328.106 5.23585 0.896241 0
M  V30 3550 C 327.145 6.12072 0.0583381 0
M  V30 3551 N 326.282 6.96035 0.920818 0
M  V30 3552 H 331.122 2.85173 -0.864891 0
M  V30 3553 H 328.659 1.40422 -0.438179 0
M  V30 3554 H 330.617 3.94345 1.36189 0
M  V30 3555 H 329.247 2.8211 1.56888 0
M  V30 3556 H 328.299 3.74492 -0.66781 0
M  V30 3557 H 329.611 4.9443 -0.658825 0
M  V30 3558 H 328.765 5.87759 1.50412 0
M  V30 3559 H 327.504 4.61459 1.57819 0
M  V30 3560 H 326.509 5.46916 -0.562389 0
M  V30 3561 H 327.734 6.76261 -0.6203 0
M  V30 3562 H 325.68 6.36485 1.58818 0
M  V30 3563 H 325.597 7.55284 0.32899 0
M  V30 3564 H 326.865 7.64646 1.51447 0
M  V30 3565 N 331.094 0.475555 1.50254 0
M  V30 3566 C 332.341 -0.0778919 2.0235 0
M  V30 3567 C 332.669 -1.39319 1.35722 0
M  V30 3568 O 331.924 -1.89888 0.473395 0
M  V30 3569 C 332.223 -0.305114 3.56095 0
M  V30 3570 C 331.889 0.92903 4.41225 0
M  V30 3571 C 330.551 1.26739 4.6421 0
M  V30 3572 C 332.903 1.75054 4.90923 0
M  V30 3573 C 330.231 2.42724 5.34137 0
M  V30 3574 C 332.583 2.9017 5.62125 0
M  V30 3575 C 331.247 3.24416 5.83362 0
M  V30 3576 H 330.517 -0.0285027 0.740452 0
M  V30 3577 H 333.164 0.630543 1.80821 0
M  V30 3578 H 331.469 -1.09584 3.76163 0
M  V30 3579 H 333.166 -0.747377 3.93974 0
M  V30 3580 H 329.756 0.655428 4.23559 0
M  V30 3581 H 333.94 1.50231 4.73016 0
M  V30 3582 H 329.196 2.69525 5.48786 0
M  V30 3583 H 333.37 3.54169 5.99614 0
M  V30 3584 H 330.997 4.14396 6.37323 0
M  V30 3585 N 332.573 -1.56217 0.208337 0
M  V30 3586 C 333.989 -1.58919 -0.14729 0
M  V30 3587 C 334.189 -1.22486 -1.59998 0
M  V30 3588 O 333.245 -0.953849 -2.3379 0
M  V30 3589 C 334.558 -3.00236 0.167048 0
M  V30 3590 C 336.106 -3.12813 0.108219 0
M  V30 3591 C 336.581 -4.56284 0.396049 0
M  V30 3592 N 338.072 -4.61912 0.345142 0
M  V30 3593 C 338.807 -5.70837 0.541523 0
M  V30 3594 N 338.303 -6.88178 0.798968 0
M  V30 3595 N 340.096 -5.60091 0.474867 0
M  V30 3596 H 332.247 -1.78177 1.15614 0
M  V30 3597 H 334.51 -0.827555 0.462446 0
M  V30 3598 H 334.216 -3.31499 1.1748 0
M  V30 3599 H 334.09 -3.7354 -0.524184 0
M  V30 3600 H 336.477 -2.81354 -0.890157 0
M  V30 3601 H 336.558 -2.41866 0.832729 0
M  V30 3602 H 336.202 -4.88458 1.3918 0
M  V30 3603 H 336.132 -5.25439 -0.349502 0
M  V30 3604 H 338.623 -3.77589 0.153316 0
M  V30 3605 H 338.936 -7.67095 0.93727 0
M  V30 3606 H 337.281 -6.89953 0.836013 0
M  V30 3607 H 340.472 -4.67297 0.274064 0
M  V30 3608 H 340.645 -6.44917 0.631326 0
M  V30 3609 N 334.051 0.0651679 -1.57465 0
M  V30 3610 C 334.999 1.09542 -2.05191 0
M  V30 3611 C 335.993 1.39675 -0.958509 0
M  V30 3612 O 337.199 1.39003 -1.14359 0
M  V30 3613 H 333.574 0.370623 -0.654326 0
M  V30 3614 H 335.545 0.666802 -2.90854 0
M  V30 3615 C 334.294 2.39881 -2.51699 0
M  V30 3616 H 333.617 2.17547 -3.3543 0
M  V30 3617 H 335.057 3.104 -2.88839 0
M  V30 3618 C 333.516 3.0631 -1.40271 0
M  V30 3619 O 334.046 3.94664 -0.748523 0
M  V30 3620 N 332.252 2.67041 -1.14618 0
M  V30 3621 H 331.799 1.95281 -1.67997 0
M  V30 3622 H 331.757 3.1181 -0.402688 0
M  V30 3623 N 335.529 1.53961 0.336706 0
M  V30 3624 C 336.459 1.85417 1.41925 0
M  V30 3625 C 337.44 0.709856 1.5458 0
M  V30 3626 O 338.625 0.962396 1.68676 0
M  V30 3627 C 335.755 2.06985 2.78881 0
M  V30 3628 C 334.709 3.22813 2.81026 0
M  V30 3629 C 334.035 3.29727 4.20932 0
M  V30 3630 C 335.335 4.60767 2.45949 0
M  V30 3631 H 337.029 2.76079 1.15848 0
M  V30 3632 H 334.575 1.32839 0.555859 0
M  V30 3633 H 336.528 2.27575 3.54665 0
M  V30 3634 H 335.252 1.13061 3.06406 0
M  V30 3635 H 333.911 3.0209 2.07695 0
M  V30 3636 H 333.559 2.33385 4.45579 0
M  V30 3637 H 333.259 4.07566 4.23277 0
M  V30 3638 H 334.783 3.52536 4.98549 0
M  V30 3639 H 336.197 4.81325 3.11446 0
M  V30 3640 H 334.594 5.4106 2.59566 0
M  V30 3641 H 335.664 4.6391 1.41122 0
M  V30 3642 N 337.007 -0.598083 1.45811 0
M  V30 3643 C 338.235 -1.38322 1.53866 0
M  V30 3644 C 338.65 -1.87992 0.174479 0
M  V30 3645 O 338.007 -1.62756 -0.825627 0
M  V30 3646 C 338.058 -2.58125 2.53089 0
M  V30 3647 O 337.779 -2.10516 3.84206 0
M  V30 3648 C 339.28 -3.50869 2.70935 0
M  V30 3649 H 336.5 -0.423093 0.520801 0
M  V30 3650 H 339.044 -0.728527 1.91083 0
M  V30 3651 H 337.199 -3.19615 2.18917 0
M  V30 3652 H 337.613 -2.88425 4.38077 0
M  V30 3653 H 339.087 -4.31451 3.44317 0
M  V30 3654 H 339.564 -4.01822 1.77301 0
M  V30 3655 H 340.17 -2.95225 3.06141 0
M  V30 3656 N 338.485 -1.33259 -0.841409 0
M  V30 3657 C 339.901 -1.12538 -1.13169 0
M  V30 3658 C 340.101 0.0854037 -2.01319 0
M  V30 3659 O 339.157 0.766417 -2.40587 0
M  V30 3660 C 340.47 -2.41156 -1.79623 0
M  V30 3661 C 342.018 -2.47038 -1.922 0
M  V30 3662 C 342.493 -3.7561 -2.6207 0
M  V30 3663 N 343.984 -3.76667 -2.69585 0
M  V30 3664 C 344.719 -4.72861 -3.2433 0
M  V30 3665 N 344.215 -5.79428 -3.79783 0
M  V30 3666 N 346.008 -4.6034 -3.22558 0
M  V30 3667 H 338.159 -2.10868 -0.254676 0
M  V30 3668 H 340.422 -0.931615 -0.175493 0
M  V30 3669 H 340.128 -3.29747 -1.22311 0
M  V30 3670 H 340.002 -2.53114 -2.79666 0
M  V30 3671 H 342.389 -1.58898 -2.48667 0
M  V30 3672 H 342.47 -2.39022 -0.911148 0
M  V30 3673 H 342.114 -4.64131 -2.06263 0
M  V30 3674 H 342.044 -3.80902 -3.63622 0
M  V30 3675 H 344.535 -2.99648 -2.30259 0
M  V30 3676 H 344.848 -6.48867 -4.19752 0
M  V30 3677 H 343.193 -5.83166 -3.78078 0
M  V30 3678 H 346.384 -3.76244 -2.78492 0
M  V30 3679 H 346.557 -5.35478 -3.64921 0
M  V30 3680 N 339.963 1.05934 -1.16686 0
M  V30 3681 C 340.91 2.13499 -0.876748 0
M  V30 3682 C 341.88 1.65162 0.176299 0
M  V30 3683 O 343.065 1.90757 0.0407143 0
M  V30 3684 C 340.205 3.42912 -0.387967 0
M  V30 3685 C 339.318 4.04964 -1.50426 0
M  V30 3686 C 338.453 5.22266 -0.970125 0
M  V30 3687 C 337.492 5.76309 -2.06238 0
M  V30 3688 N 336.629 6.84922 -1.54356 0
M  V30 3689 H 341.469 2.37654 -1.7979 0
M  V30 3690 H 339.006 1.16598 -0.896843 0
M  V30 3691 H 340.964 4.17111 -0.086186 0
M  V30 3692 H 339.594 3.18963 0.496235 0
M  V30 3693 H 338.646 3.28277 -1.92193 0
M  V30 3694 H 339.958 4.41122 -2.32836 0
M  V30 3695 H 339.112 6.03506 -0.621743 0
M  V30 3696 H 337.851 4.87564 -0.115377 0
M  V30 3697 H 336.856 4.93704 -2.41942 0
M  V30 3698 H 338.081 6.13062 -2.92115 0
M  V30 3699 H 336.027 6.52131 -0.711406 0
M  V30 3700 H 335.944 7.20043 -2.30379 0
M  V30 3701 H 337.212 7.69832 -1.22387 0
M  V30 3702 N 341.441 0.965919 1.2453 0
M  V30 3703 C 342.669 0.644385 1.96609 0
M  V30 3704 C 343.084 -0.785823 1.71669 0
M  V30 3705 O 342.441 -1.52703 0.999399 0
M  V30 3706 C 342.492 0.907375 3.49927 0
M  V30 3707 O 342.213 2.28136 3.74013 0
M  V30 3708 C 343.714 0.599784 4.39224 0
M  V30 3709 H 340.934 0.240588 0.626385 0
M  V30 3710 H 343.478 1.29337 1.58405 0
M  V30 3711 H 341.633 0.304631 3.862 0
M  V30 3712 H 342.047 2.36002 4.68405 0
M  V30 3713 H 343.521 0.834263 5.45659 0
M  V30 3714 H 343.998 -0.465921 4.36722 0
M  V30 3715 H 344.604 1.18235 4.08535 0
M  V30 3716 N 342.919 -1.39368 0.735821 0
M  V30 3717 C 343.829 -2.34395 0.0979693 0
M  V30 3718 C 344.845 -1.58361 -0.720968 0
M  V30 3719 O 346.021 -1.90648 -0.649245 0
M  V30 3720 C 343.086 -3.37393 -0.797916 0
M  V30 3721 C 342.147 -4.29287 0.0333662 0
M  V30 3722 C 341.38 -5.27365 -0.819854 0
M  V30 3723 O 341.603 -5.31959 -2.05855 0
M  V30 3724 O 340.537 -6.01389 -0.248079 0
M  V30 3725 H 344.363 -2.90601 0.882315 0
M  V30 3726 H 341.948 -1.40909 0.4965 0
M  V30 3727 H 343.83 -4.00505 -1.31048 0
M  V30 3728 H 342.505 -2.83571 -1.56106 0
M  V30 3729 H 341.412 -3.69395 0.591475 0
M  V30 3730 H 342.745 -4.86317 0.758752 0
M  V30 3731 N 344.397 -0.483516 -1.5 0
M  V30 3732 C 345.622 0.0667119 -2.07293 0
M  V30 3733 C 346.047 1.3164 -1.3436 0
M  V30 3734 O 345.405 1.76945 -0.394987 0
M  V30 3735 C 345.453 0.321126 -3.59167 0
M  V30 3736 O 344.557 1.39927 -3.87936 0
M  V30 3737 H 343.898 -0.0184758 -0.663743 0
M  V30 3738 H 346.428 -0.678125 -1.93035 0
M  V30 3739 H 346.438 0.557906 -4.04168 0
M  V30 3740 H 345.113 -0.592007 -4.11665 0
M  V30 3741 H 343.69 1.14882 -3.54763 0
M  V30 3742 N 345.875 1.56104 -0.216619 0
M  V30 3743 C 346.838 2.18819 0.681962 0
M  V30 3744 C 347.838 1.14866 1.12528 0
M  V30 3745 O 349.028 1.40128 1.03488 0
M  V30 3746 C 346.16 2.80756 1.93362 0
M  V30 3747 H 347.353 2.99595 0.135254 0
M  V30 3748 H 344.906 1.56265 0.0330003 0
M  V30 3749 H 345.641 2.03837 2.52232 0
M  V30 3750 H 345.426 3.56876 1.62426 0
M  V30 3751 H 346.916 3.28844 2.57393 0
M  V30 3752 N 347.353 -0.0568162 1.57498 0
M  V30 3753 C 348.283 -1.06593 2.0775 0
M  V30 3754 C 349.264 -1.39448 0.974082 0
M  V30 3755 O 350.449 -1.48815 1.24771 0
M  V30 3756 C 347.579 -2.37509 2.5339 0
M  V30 3757 C 346.533 -2.1897 3.67745 0
M  V30 3758 C 345.859 -3.55402 3.99492 0
M  V30 3759 C 347.159 -1.59859 4.97235 0
M  V30 3760 H 348.853 -0.647706 2.9231 0
M  V30 3761 H 346.399 -0.310116 1.40621 0
M  V30 3762 H 348.352 -3.08409 2.87162 0
M  V30 3763 H 347.076 -2.8134 1.65878 0
M  V30 3764 H 345.735 -1.50508 3.3428 0
M  V30 3765 H 345.383 -3.9683 3.09088 0
M  V30 3766 H 345.083 -3.43831 4.76502 0
M  V30 3767 H 346.607 -4.27708 4.35773 0
M  V30 3768 H 348.021 -2.20642 5.29141 0
M  V30 3769 H 346.418 -1.58942 5.78669 0
M  V30 3770 H 347.488 -0.561506 4.81638 0
M  V30 3771 N 348.832 -1.54138 -0.328536 0
M  V30 3772 C 350.06 -1.76062 -1.08673 0
M  V30 3773 C 350.475 -0.506852 -1.81869 0
M  V30 3774 O 349.832 0.522223 -1.74869 0
M  V30 3775 C 349.883 -2.95054 -2.08866 0
M  V30 3776 O 349.604 -4.15583 -1.38644 0
M  V30 3777 C 351.105 -3.2915 -2.96943 0
M  V30 3778 H 348.325 -0.587889 -0.323461 0
M  V30 3779 H 350.869 -2.0101 -0.376175 0
M  V30 3780 H 349.024 -2.72394 -2.75464 0
M  V30 3781 H 349.438 -4.82481 -2.05699 0
M  V30 3782 H 350.912 -4.15723 -3.63151 0
M  V30 3783 H 351.389 -2.461 -3.63774 0
M  V30 3784 H 351.995 -3.53871 -2.35914 0
M  V30 3785 N 350.31 0.590341 -1.46126 0
M  V30 3786 C 351.22 1.72793 -1.58681 0
M  V30 3787 C 352.236 1.67516 -0.470566 0
M  V30 3788 O 353.412 1.87562 -0.733642 0
M  V30 3789 C 350.477 3.09287 -1.5666 0
M  V30 3790 C 349.538 3.25886 -2.79458 0
M  V30 3791 C 348.771 4.55869 -2.77524 0
M  V30 3792 O 348.994 5.3928 -1.85832 0
M  V30 3793 O 347.928 4.75552 -3.68964 0
M  V30 3794 H 351.754 1.65149 -2.54872 0
M  V30 3795 H 349.339 0.756486 -1.28832 0
M  V30 3796 H 351.221 3.90577 -1.58202 0
M  V30 3797 H 349.896 3.17385 -0.636271 0
M  V30 3798 H 348.803 2.44119 -2.83472 0
M  V30 3799 H 350.136 3.22675 -3.71674 0
M  V30 3800 N 351.788 1.33704 0.83433 0
M  V30 3801 C 353.065 1.16011 1.57483 0
M  V30 3802 C 353.445 -0.27176 2.09343 0
M  V30 3803 O 352.793 -1.27146 1.89858 0
M  V30 3804 C 353.003 2.20507 2.70514 0
M  V30 3805 C 354.351 2.54898 3.39577 0
M  V30 3806 O 355.375 2.19209 2.80759 0
M  V30 3807 O 354.234 3.16158 4.45765 0
M  V30 3808 H 351.328 0.448992 0.694503 0
M  V30 3809 H 353.874 1.453 0.876691 0
M  V30 3810 H 352.646 3.16667 2.29865 0
M  V30 3811 H 352.269 1.92329 3.47987 0
M  V30 3812 O 353.305 -0.972346 1.28948 0
M  V30 3813 H 353.996 -1.59791 1.09484 0
M  V30 END ATOM
M  V30 BEGIN BOND
M  V30 END BOND
M  V30 END CTAB
M  END
$$$$
