drugbank_target|Q9H853 Putative tubulin-like protein alpha-4B (DB05147)
 OpenBabel12092120313D

  0  0  0     0  0            999 V3000
M  V30 BEGIN CTAB
M  V30 COUNTS 3833 3885 0 0 0
M  V30 BEGIN ATOM
M  V30 1 H -0.908 1.98254 -0.117106 0
M  V30 2 N 0 1.576 0 0
M  V30 3 C 0.933 2.03868 1.02534 0
M  V30 4 C 1.911 0.928543 1.3348 0
M  V30 5 O 3.095 1.19667 1.45644 0
M  V30 6 C 0.222 2.43627 2.35294 0
M  V30 7 C -0.732 3.65373 2.2001 0
M  V30 8 S 0.101 5.13292 1.52614 0
M  V30 9 C 1.257 5.56322 2.86805 0
M  V30 10 H 1.49 2.90518 0.631377 0
M  V30 11 H -0.977 1.52953 0.210867 0
M  V30 12 H 0.981 2.67203 3.11629 0
M  V30 13 H -0.358 1.57376 2.7183 0
M  V30 14 H -1.165 3.90944 3.18086 0
M  V30 15 H -1.563 3.418 1.51819 0
M  V30 16 H 0.729 5.58782 3.83104 0
M  V30 17 H 1.672 6.56266 2.65933 0
M  V30 18 H 2.08 4.83886 2.90714 0
M  V30 19 N 1.4781 -0.272755 1.55222 0
M  V30 20 C 2.8941 -0.619959 1.47067 0
M  V30 21 C 3.0941 -1.895 0.684978 0
M  V30 22 O 2.1501 -2.51675 0.203931 0
M  V30 23 C 3.4631 -0.746693 2.91282 0
M  V30 24 C 5.0111 -0.840731 3.01497 0
M  V30 25 C 5.4861 -0.99924 4.46967 0
M  V30 26 N 6.9771 -1.06476 4.50796 0
M  V30 27 C 7.7121 -1.20621 5.6057 0
M  V30 28 N 7.2081 -1.31483 6.80209 0
M  V30 29 N 9.0011 -1.23733 5.48312 0
M  V30 30 H 1.1521 0.564606 2.04758 0
M  V30 31 H 3.4151 0.191177 0.928523 0
M  V30 32 H 3.1211 0.119753 3.51496 0
M  V30 33 H 2.9951 -1.6269 3.40311 0
M  V30 34 H 5.3821 -1.69764 2.41379 0
M  V30 35 H 5.4631 0.0640874 2.5572 0
M  V30 36 H 5.1071 -0.146984 5.07687 0
M  V30 37 H 5.0371 -1.91871 4.90401 0
M  V30 38 H 7.5281 -0.993196 3.64615 0
M  V30 39 H 7.8411 -1.42111 7.59621 0
M  V30 40 H 6.1861 -1.28487 6.8302 0
M  V30 41 H 9.3771 -1.14877 4.53785 0
M  V30 42 H 9.5501 -1.34412 6.33906 0
M  V30 43 N 2.9562 -1.48159 -0.537278 0
M  V30 44 C 3.9062 -1.5854 -1.63857 0
M  V30 45 C 4.8902 -0.442969 -1.54682 0
M  V30 46 O 6.0822 -0.69401 -1.62827 0
M  V30 47 C 3.2112 -1.62144 -3.02596 0
M  V30 48 C 2.2972 -2.81841 -3.16901 0
M  V30 49 N 2.6882 -4.06337 -3.01204 0
M  V30 50 C 0.9862 -2.79021 -3.47942 0
M  V30 51 C 1.6872 -4.86606 -3.18731 0
M  V30 52 N 0.6632 -4.19288 -3.45974 0
M  V30 53 H 4.4652 -2.5255 -1.50319 0
M  V30 54 H 1.9792 -1.4443 -0.742555 0
M  V30 55 H 3.9762 -1.67674 -3.81695 0
M  V30 56 H 2.6362 -0.69245 -3.17231 0
M  V30 57 H 3.6472 -4.36888 -2.78117 0
M  V30 58 H 0.3242 -1.95347 -3.6898 0
M  V30 59 H 1.7142 -5.95385 -3.11394 0
M  V30 60 N 4.4343 0.785586 -1.36625 0
M  V30 61 C 5.3663 1.90711 -1.2713 0
M  V30 62 C 6.3793 1.61688 -0.189986 0
M  V30 63 O 7.5683 1.72864 -0.445014 0
M  V30 64 C 4.6683 3.25611 -0.939713 0
M  V30 65 C 3.8413 3.82385 -2.12369 0
M  V30 66 C 2.9003 4.95732 -1.76456 0
M  V30 67 O 1.9263 5.12047 -2.48589 0
M  V30 68 N 3.1283 5.76258 -0.700492 0
M  V30 69 H 5.8933 1.99376 -2.23762 0
M  V30 70 H 3.4543 0.964041 -1.30069 0
M  V30 71 H 5.4463 3.98937 -0.680554 0
M  V30 72 H 4.0163 3.12538 -0.0624074 0
M  V30 73 H 3.2363 3.01001 -2.54543 0
M  V30 74 H 4.5243 4.17047 -2.9146 0
M  V30 75 H 3.9223 5.65609 -0.101624 0
M  V30 76 H 2.4793 6.4987 -0.501165 0
M  V30 77 N 5.9124 1.20967 1.01018 0
M  V30 78 C 6.8444 0.922059 2.09835 0
M  V30 79 C 7.8574 -0.0927106 1.62536 0
M  V30 80 O 9.0464 0.139127 1.77957 0
M  V30 81 C 6.1464 0.362004 3.36961 0
M  V30 82 C 5.3194 1.42986 4.13369 0
M  V30 83 C 4.3784 0.879976 5.1879 0
M  V30 84 O 3.4044 1.56219 5.47343 0
M  V30 85 N 4.6064 -0.307396 5.79686 0
M  V30 86 H 7.3714 1.8588 2.35093 0
M  V30 87 H 4.9324 1.11422 1.1746 0
M  V30 88 H 6.9244 -0.0201474 4.04695 0
M  V30 89 H 5.4944 -0.479437 3.08902 0
M  V30 90 H 4.7144 1.98608 3.40512 0
M  V30 91 H 6.0024 2.14885 4.61196 0
M  V30 92 H 5.4004 -0.878796 5.58832 0
M  V30 93 H 3.9574 -0.631115 6.48737 0
M  V30 94 N 7.3905 -1.2043 1.01659 0
M  V30 95 C 8.6185 -1.93777 0.725132 0
M  V30 96 C 9.0335 -1.74772 -0.714166 0
M  V30 97 O 8.3905 -1.06169 -1.4844 0
M  V30 98 C 8.4415 -3.45876 1.05129 0
M  V30 99 O 8.1625 -3.6426 2.43406 0
M  V30 100 C 9.6635 -4.36368 0.780891 0
M  V30 101 H 6.8835 -0.615901 0.266284 0
M  V30 102 H 9.4275 -1.52922 1.35776 0
M  V30 103 H 7.5825 -3.8461 0.464065 0
M  V30 104 H 7.9965 -4.58246 2.55169 0
M  V30 105 H 9.4705 -5.41743 1.05918 0
M  V30 106 H 9.9475 -4.38275 -0.284937 0
M  V30 107 H 10.5535 -4.03296 1.35027 0
M  V30 108 N 8.8686 -0.792821 -1.36206 0
M  V30 109 C 9.7786 -0.194808 -2.3379 0
M  V30 110 C 10.7946 0.654869 -1.61206 0
M  V30 111 O 11.9706 0.569856 -1.9317 0
M  V30 112 C 9.0356 0.657721 -3.40404 0
M  V30 113 C 8.0966 -0.210849 -4.28782 0
M  V30 114 C 7.3296 0.601086 -5.30304 0
M  V30 115 O 7.5526 1.83682 -5.40016 0
M  V30 116 O 6.4866 -0.000808277 -6.019 0
M  V30 117 H 10.3126 -1.00172 -2.86704 0
M  V30 118 H 7.8976 -0.554341 -1.38735 0
M  V30 119 H 9.7796 1.14375 -4.05581 0
M  V30 120 H 8.4546 1.44247 -2.89784 0
M  V30 121 H 7.3616 -0.743714 -3.66633 0
M  V30 122 H 8.6946 -0.959195 -4.82763 0
M  V30 123 N 10.3467 1.47872 -0.545128 0
M  V30 124 C 11.7627 1.5829 -0.204032 0
M  V30 125 C 11.9627 1.54529 1.29317 0
M  V30 126 O 11.0187 1.44232 2.07252 0
M  V30 127 C 12.3317 2.89304 -0.819987 0
M  V30 128 C 13.8797 3.02864 -0.790105 0
M  V30 129 C 14.3547 4.3656 -1.38491 0
M  V30 130 N 15.8457 4.43165 -1.34755 0
M  V30 131 C 16.5807 5.45153 -1.77753 0
M  V30 132 N 16.0767 6.54016 -2.2855 0
M  V30 133 N 17.8697 5.36125 -1.68897 0
M  V30 134 H 10.0207 1.4856 -1.51802 0
M  V30 135 H 12.2837 0.706305 -0.632327 0
M  V30 136 H 11.9897 2.97757 -1.87173 0
M  V30 137 H 11.8637 3.75957 -0.305915 0
M  V30 138 H 14.2507 2.94014 0.252913 0
M  V30 139 H 14.3317 2.17782 -1.34181 0
M  V30 140 H 13.9757 4.46164 -2.42693 0
M  V30 141 H 13.9057 5.20353 -0.808754 0
M  V30 142 H 16.3967 3.65083 -0.975855 0
M  V30 143 H 16.7097 7.27994 -2.59314 0
M  V30 144 H 15.0547 6.54938 -2.32553 0
M  V30 145 H 18.2457 4.49975 -1.28998 0
M  V30 146 H 18.4187 6.15472 -2.02726 0
M  V30 147 N 11.8248 0.280983 1.55075 0
M  V30 148 C 12.7568 -0.637268 2.20163 0
M  V30 149 C 13.7698 -1.11298 1.18813 0
M  V30 150 O 14.9588 -1.03388 1.4551 0
M  V30 151 C 12.0588 -1.88199 2.81841 0
M  V30 152 C 11.2318 -1.55211 4.08936 0
M  V30 153 C 10.2908 -2.64991 4.54606 0
M  V30 154 O 9.3168 -2.30929 5.2025 0
M  V30 155 N 10.5188 -3.95161 4.25238 0
M  V30 156 H 13.2838 -0.0801694 2.99593 0
M  V30 157 H 10.8448 0.102329 1.61576 0
M  V30 158 H 12.8368 -2.60948 3.09335 0
M  V30 159 H 11.4068 -2.34799 2.06369 0
M  V30 160 H 10.6268 -0.658185 3.88666 0
M  V30 161 H 11.9148 -1.30681 4.91732 0
M  V30 162 H 11.3128 -4.25653 3.72607 0
M  V30 163 H 9.8698 -4.6427 4.5749 0
M  V30 164 N 13.3029 -1.57598 0.00835791 0
M  V30 165 C 14.5799 -1.82172 -0.712235 0
M  V30 166 C 14.9599 -0.887873 -1.9152 0
M  V30 167 O 14.3079 0.06146 -2.28417 0
M  V30 168 C 14.5179 -3.30875 -1.11008 0
M  V30 169 C 15.8659 -3.96826 -1.51044 0
M  V30 170 O 16.8899 -3.35248 -1.20364 0
M  V30 171 O 15.7489 -5.05318 -2.08125 0
M  V30 172 H 12.8429 -0.750435 -0.347529 0
M  V30 173 H 15.3889 -1.69665 0.0344523 0
M  V30 174 H 14.1609 -3.90481 -0.252982 0
M  V30 175 H 13.7839 -3.48412 -1.9156 0
M  V30 176 N 14.781 0.264519 -1.55364 0
M  V30 177 C 16.192 0.834936 -1.6699 0
M  V30 178 C 16.543 1.86718 -0.602552 0
M  V30 179 O 15.668 2.14899 0.254425 0
M  V30 180 C 16.263 1.5212 -3.02729 0
M  V30 181 C 14.822 2.03954 -3.16354 0
M  V30 182 C 13.969 0.884498 -2.62815 0
M  V30 183 H 16.92 0.0406869 -1.58648 0
M  V30 184 H 16.941 2.38853 -2.96191 0
M  V30 185 H 16.453 0.769668 -3.80392 0
M  V30 186 H 14.554 2.82041 -2.43482 0
M  V30 187 H 14.667 2.24902 -4.23032 0
M  V30 188 H 13.031 1.2802 -2.20188 0
M  V30 189 H 13.814 0.14634 -3.42988 0
M  V30 190 N 16.2591 1.48442 0.529413 0
M  V30 191 C 17.4841 1.60406 1.31471 0
M  V30 192 C 17.9091 0.264738 1.86228 0
M  V30 193 O 17.2671 -0.763668 1.64432 0
M  V30 194 C 17.3151 2.65419 2.44101 0
M  V30 195 O 16.4191 2.22618 3.47153 0
M  V30 196 H 15.7601 0.537863 0.389357 0
M  V30 197 H 18.2901 1.94432 0.636965 0
M  V30 198 H 18.3001 2.86709 2.90279 0
M  V30 199 H 16.9751 3.62652 2.03608 0
M  V30 200 H 15.5521 2.11543 3.0709 0
M  V30 201 N 17.7372 -0.778329 1.37039 0
M  V30 202 C 18.6692 -1.90034 1.2814 0
M  V30 203 C 19.6822 -1.61585 0.198558 0
M  V30 204 O 20.8712 -1.72625 0.454175 0
M  V30 205 C 17.9712 -3.25108 0.956968 0
M  V30 206 C 17.1442 -3.81253 2.14394 0
M  V30 207 C 16.2032 -4.94789 1.79082 0
M  V30 208 O 15.2292 -5.10721 2.51301 0
M  V30 209 N 16.4312 -5.75878 0.731043 0
M  V30 210 H 19.1962 -1.98186 2.24816 0
M  V30 211 H 16.7572 -0.957129 1.30578 0
M  V30 212 H 18.7492 -3.9857 0.701701 0
M  V30 213 H 17.3192 -3.125 0.0789812 0
M  V30 214 H 16.5392 -2.99647 2.56135 0
M  V30 215 H 17.8272 -4.15495 2.93668 0
M  V30 216 H 17.2252 -5.65547 0.131618 0
M  V30 217 H 15.7822 -6.49596 0.535622 0
M  V30 218 N 19.2153 -1.21501 -1.00376 0
M  V30 219 C 20.6263 -1.03146 -1.55621 0
M  V30 220 C 20.9773 0.408375 -1.91903 0
M  V30 221 O 20.1023 1.29177 -1.73616 0
M  V30 222 C 20.6973 -1.86612 -2.82775 0
M  V30 223 C 19.2563 -1.72586 -3.34501 0
M  V30 224 C 18.4033 -1.83747 -2.07683 0
M  V30 225 H 21.3543 -1.35505 -0.826081 0
M  V30 226 H 21.3753 -1.3771 -3.54706 0
M  V30 227 H 20.8873 -2.91399 -2.56336 0
M  V30 228 H 18.9883 -0.704877 -3.65872 0
M  V30 229 H 19.1013 -2.54623 -4.05837 0
M  V30 230 H 17.4653 -1.27069 -2.20739 0
M  V30 231 H 18.2483 -2.90044 -1.83655 0
M  V30 232 N 20.6934 1.19889 -1.02296 0
M  V30 233 C 21.6234 2.25141 -0.619174 0
M  V30 234 C 22.6044 1.66051 0.368915 0
M  V30 235 O 23.7894 1.92546 0.252941 0
M  V30 236 C 20.9194 3.4728 0.0368783 0
M  V30 237 C 19.8734 4.19005 -0.872865 0
M  V30 238 C 19.1994 5.34637 -0.0822402 0
M  V30 239 C 20.4994 4.74452 -2.18387 0
M  V30 240 H 22.1934 2.59171 -1.49903 0
M  V30 241 H 19.7394 1.24579 -0.722222 0
M  V30 242 H 21.6924 4.20098 0.330958 0
M  V30 243 H 20.4164 3.12433 0.95149 0
M  V30 244 H 19.0754 3.48061 -1.15105 0
M  V30 245 H 18.7234 4.96034 0.83422 0
M  V30 246 H 18.4234 5.83557 -0.688149 0
M  V30 247 H 19.9474 6.10255 0.205238 0
M  V30 248 H 21.3614 5.39055 -1.95172 0
M  V30 249 H 19.7584 5.33834 -2.74119 0
M  V30 250 H 20.8284 3.92844 -2.84257 0
M  V30 251 N 22.1715 0.800033 1.35784 0
M  V30 252 C 23.3965 0.388511 2.03729 0
M  V30 253 C 23.8215 -0.990481 1.5991 0
M  V30 254 O 23.1795 -1.64013 0.772612 0
M  V30 255 C 23.2275 0.4726 3.5749 0
M  V30 256 O 22.3315 -0.51646 4.09153 0
M  V30 257 H 21.6725 0.163271 0.643614 0
M  V30 258 H 24.2025 1.0841 1.73518 0
M  V30 259 H 24.2125 0.34003 4.06581 0
M  V30 260 H 22.8875 1.47848 3.88734 0
M  V30 261 H 21.4645 -0.344673 3.71304 0
M  V30 262 N 23.6496 -1.47581 0.552962 0
M  V30 263 C 25.0656 -1.5818 0.212424 0
M  V30 264 C 25.2656 -1.55213 -1.28496 0
M  V30 265 O 24.3216 -1.45329 -2.06484 0
M  V30 266 C 25.6346 -2.88865 0.835318 0
M  V30 267 C 27.1826 -3.0244 0.806156 0
M  V30 268 C 27.6576 -4.35819 1.40804 0
M  V30 269 N 29.1486 -4.42444 1.37103 0
M  V30 270 C 29.8836 -5.44202 1.80641 0
M  V30 271 N 29.3796 -6.52795 2.32015 0
M  V30 272 N 31.1726 -5.35222 1.71738 0
M  V30 273 H 23.3236 -1.47753 1.52587 0
M  V30 274 H 25.5866 -0.702941 0.636064 0
M  V30 275 H 25.2926 -2.9676 1.88749 0
M  V30 276 H 25.1666 -3.7579 0.325848 0
M  V30 277 H 27.5536 -2.94144 -0.237317 0
M  V30 278 H 27.6346 -2.17068 1.35334 0
M  V30 279 H 27.2786 -4.44871 2.45056 0
M  V30 280 H 27.2086 -5.19916 0.836338 0
M  V30 281 H 29.6996 -3.6456 0.995202 0
M  V30 282 H 30.0126 -7.26609 2.63171 0
M  V30 283 H 28.3576 -6.53696 2.36023 0
M  V30 284 H 31.5486 -4.49284 1.31382 0
M  V30 285 H 31.7216 -6.14389 2.05987 0
M  V30 286 N 25.1277 -0.289203 -1.54924 0
M  V30 287 C 26.0597 0.625583 -2.20497 0
M  V30 288 C 27.0727 1.10667 -1.19402 0
M  V30 289 O 28.2617 1.02615 -1.46056 0
M  V30 290 C 25.3617 1.86702 -2.82835 0
M  V30 291 C 24.5347 1.5304 -4.09753 0
M  V30 292 C 23.5937 2.62576 -4.56005 0
M  V30 293 O 22.6197 2.28167 -5.21468 0
M  V30 294 N 23.8217 3.92901 -4.27328 0
M  V30 295 H 26.5867 0.0642801 -2.99631 0
M  V30 296 H 24.1477 -0.110896 -1.6152 0
M  V30 297 H 26.1397 2.59304 -3.10715 0
M  V30 298 H 24.7097 2.33702 -2.07611 0
M  V30 299 H 23.9297 0.637564 -3.8901 0
M  V30 300 H 25.2177 1.28072 -4.92418 0
M  V30 301 H 24.6157 4.23671 -3.74859 0
M  V30 302 H 23.1727 4.61837 -4.59946 0
M  V30 303 N 26.6058 1.57591 -0.0167156 0
M  V30 304 C 27.5558 2.05953 0.978137 0
M  V30 305 C 28.5398 0.957532 1.29306 0
M  V30 306 O 29.7318 1.22119 1.28125 0
M  V30 307 C 26.8608 2.58006 2.26468 0
M  V30 308 C 25.9468 3.75113 1.97867 0
M  V30 309 N 26.3378 4.86187 1.39486 0
M  V30 310 C 24.6358 3.83363 2.27924 0
M  V30 311 C 25.3368 5.67502 1.27735 0
M  V30 312 N 24.3128 5.14023 1.76866 0
M  V30 313 H 28.1148 2.89236 0.521522 0
M  V30 314 H 25.6288 1.61301 0.188596 0
M  V30 315 H 27.6258 2.90937 2.98599 0
M  V30 316 H 26.2858 1.76148 2.72767 0
M  V30 317 H 27.2968 5.06695 1.07147 0
M  V30 318 H 23.9738 3.1239 2.76982 0
M  V30 319 H 25.3638 6.66791 0.826978 0
M  V30 320 N 28.0839 -0.256276 1.55502 0
M  V30 321 C 29.3319 -0.983672 1.76545 0
M  V30 322 C 29.6529 -1.86206 0.578982 0
M  V30 323 O 28.9229 -1.91656 -0.405577 0
M  V30 324 H 27.5029 -0.366191 0.651086 0
M  V30 325 H 30.1649 -0.276479 1.92929 0
M  V30 326 H 29.2609 -1.61087 2.67315 0
M  V30 327 N 29.562 -1.4872 -0.521534 0
M  V30 328 C 30.79 -1.60843 -1.30142 0
M  V30 329 C 31.205 -0.271897 -1.86832 0
M  V30 330 O 30.562 0.739969 -1.66825 0
M  V30 331 C 30.613 -2.66155 -2.4463 0
M  V30 332 O 30.334 -3.94623 -1.90275 0
M  V30 333 C 31.835 -2.88795 -3.36322 0
M  V30 334 H 29.055 -0.542075 -0.395468 0
M  V30 335 H 31.599 -1.94609 -0.628285 0
M  V30 336 H 29.754 -2.35224 -3.07812 0
M  V30 337 H 30.168 -4.52468 -2.65279 0
M  V30 338 H 31.642 -3.66264 -4.12983 0
M  V30 339 H 32.119 -1.97934 -3.9207 0
M  V30 340 H 32.725 -3.21063 -2.78924 0
M  V30 341 N 31.0401 0.771051 -1.3745 0
M  V30 342 C 32.2701 1.55789 -1.35696 0
M  V30 343 C 32.6781 1.89107 0.0594523 0
M  V30 344 O 32.0211 1.51984 1.03183 0
M  V30 345 C 32.0831 2.89515 -2.13123 0
M  V30 346 C 31.7471 2.78829 -3.62082 0
M  V30 347 C 32.7441 2.49812 -4.5595 0
M  V30 348 C 30.4291 2.9683 -4.05213 0
M  V30 349 C 32.4231 2.38923 -5.90927 0
M  V30 350 C 30.1101 2.85562 -5.40276 0
M  V30 351 C 31.1081 2.56649 -6.32946 0
M  V30 352 O 30.7961 2.45408 -7.65526 0
M  V30 353 H 30.5281 0.489257 -0.466481 0
M  V30 354 H 33.0821 0.963446 -1.81403 0
M  V30 355 H 31.3121 3.51081 -1.62107 0
M  V30 356 H 33.0011 3.50915 -2.03994 0
M  V30 357 H 33.7671 2.3559 -4.23937 0
M  V30 358 H 29.6461 3.18335 -3.33442 0
M  V30 359 H 33.1901 2.16277 -6.63227 0
M  V30 360 H 29.0871 2.99351 -5.71891 0
M  V30 361 H 29.8551 2.60753 -7.75855 0
M  V30 362 N 32.5182 1.22032 0.997298 0
M  V30 363 C 33.9342 0.979326 1.26021 0
M  V30 364 C 34.1342 -0.32972 1.98784 0
M  V30 365 O 33.1902 -1.05345 2.29475 0
M  V30 366 C 34.5032 2.17509 2.07631 0
M  V30 367 C 36.0512 2.21817 2.2083 0
M  V30 368 C 36.5262 3.40933 3.05825 0
M  V30 369 N 38.0172 3.41067 3.13412 0
M  V30 370 C 38.7522 4.29885 3.79455 0
M  V30 371 N 38.2482 5.28914 4.47462 0
M  V30 372 N 40.0412 4.17673 3.76173 0
M  V30 373 H 32.1922 2.06202 0.509352 0
M  V30 374 H 34.4552 0.90334 0.287541 0
M  V30 375 H 34.1612 3.12415 1.61524 0
M  V30 376 H 34.0352 2.17206 3.08385 0
M  V30 377 H 36.4222 1.27462 2.66153 0
M  V30 378 H 36.5032 2.2616 1.1952 0
M  V30 379 H 36.1472 4.35586 2.61203 0
M  V30 380 H 36.0772 3.33829 4.07266 0
M  V30 381 H 38.5682 2.69406 2.65007 0
M  V30 382 H 38.8812 5.92973 4.95583 0
M  V30 383 H 37.2262 5.32831 4.46224 0
M  V30 384 H 40.4172 3.39564 3.22202 0
M  V30 385 H 40.5902 4.87098 4.27363 0
M  V30 386 N 33.9963 -1.19345 1.0293 0
M  V30 387 C 34.9283 -2.22036 0.56857 0
M  V30 388 C 35.9413 -1.58865 -0.355779 0
M  V30 389 O 37.1303 -1.77851 -0.152103 0
M  V30 390 C 34.2303 -3.38363 -0.190752 0
M  V30 391 C 33.4033 -4.31118 0.738643 0
M  V30 392 C 32.4623 -5.26194 0.0246497 0
M  V30 393 O 31.4883 -5.65461 0.651354 0
M  V30 394 N 32.6903 -5.66971 -1.24594 0
M  V30 395 H 35.4553 -2.6219 1.45177 0
M  V30 396 H 33.0163 -1.34015 0.908381 0
M  V30 397 H 35.0083 -3.98981 -0.677961 0
M  V30 398 H 33.5783 -2.96994 -0.975366 0
M  V30 399 H 32.7983 -3.68276 1.40593 0
M  V30 400 H 34.0863 -4.90001 1.37029 0
M  V30 401 H 33.4843 -5.37104 -1.77583 0
M  V30 402 H 32.0413 -6.2984 -1.67764 0
M  V30 403 N 35.4744 -0.807222 -1.35358 0
M  V30 404 C 36.7234 -0.384376 -1.98004 0
M  V30 405 C 37.0364 1.0543 -1.64754 0
M  V30 406 O 38.2424 1.58029 -2.20769 0
M  V30 407 C 36.6984 -0.636326 -3.5423 0
M  V30 408 C 36.3064 -2.08759 -3.96388 0
M  V30 409 C 38.0504 -0.278869 -4.23583 0
M  V30 410 C 35.9574 -2.28525 -5.45463 0
M  V30 411 H 34.8874 -0.139986 -0.740891 0
M  V30 412 H 37.5384 -0.991369 -1.54415 0
M  V30 413 H 35.9204 0.0406256 -3.95979 0
M  V30 414 H 37.0944 -2.8024 -3.6579 0
M  V30 415 H 35.4094 -2.40497 -3.39926 0
M  V30 416 H 38.0064 -0.404599 -5.33167 0
M  V30 417 H 38.3494 0.775012 -4.09022 0
M  V30 418 H 38.8824 -0.909764 -3.87257 0
M  V30 419 H 35.6214 -3.32361 -5.64992 0
M  V30 420 H 35.1414 -1.61569 -5.77629 0
M  V30 421 H 36.8204 -2.10109 -6.11934 0
M  V30 422 N 36.9525 1.47285 -0.560781 0
M  V30 423 C 38.1995 2.02464 -0.038062 0
M  V30 424 C 38.5275 1.43474 1.31322 0
M  V30 425 O 37.7825 0.581311 1.86867 0
M  V30 426 C 38.0815 3.57258 0.100784 0
M  V30 427 C 37.7475 4.35184 -1.18007 0
M  V30 428 C 36.4095 4.56194 -1.53103 0
M  V30 429 C 38.7615 4.80098 -2.02867 0
M  V30 430 C 36.0895 5.19367 -2.729 0
M  V30 431 C 38.4415 5.44593 -3.21871 0
M  V30 432 C 37.1055 5.63835 -3.57276 0
M  V30 433 H 36.3755 0.740869 -0.0139279 0
M  V30 434 H 39.0225 1.76916 -0.733012 0
M  V30 435 H 37.3275 3.81819 0.878724 0
M  V30 436 H 39.0245 3.97606 0.520639 0
M  V30 437 H 35.6145 4.19113 -0.8968 0
M  V30 438 H 39.7985 4.63642 -1.7706 0
M  V30 439 H 35.0545 5.32459 -3.00496 0
M  V30 440 H 39.2285 5.78358 -3.87911 0
M  V30 441 H 36.8555 6.12557 -4.50197 0
M  V30 442 N 38.4306 0.297415 1.54768 0
M  V30 443 C 39.3806 -0.595275 2.20092 0
M  V30 444 C 40.3646 -1.10163 1.17273 0
M  V30 445 O 41.5566 -1.043 1.43006 0
M  V30 446 C 38.6856 -1.7684 2.94249 0
M  V30 447 C 37.7716 -1.27818 4.0438 0
M  V30 448 N 38.1626 -0.505695 5.03266 0
M  V30 449 C 36.4606 -1.55923 4.17857 0
M  V30 450 C 37.1616 -0.245094 5.81183 0
M  V30 451 N 36.1376 -0.823881 5.3732 0
M  V30 452 H 39.9396 0.00250837 2.939 0
M  V30 453 H 37.4536 0.102007 1.62079 0
M  V30 454 H 39.4506 -2.41944 3.39513 0
M  V30 455 H 38.1106 -2.36992 2.21957 0
M  V30 456 H 39.1216 -0.150928 5.1768 0
M  V30 457 H 35.7986 -2.16849 3.56767 0
M  V30 458 H 37.1886 0.375084 6.70852 0
M  V30 459 N 39.9087 -1.5758 0.0250728 0
M  V30 460 C 41.3197 -1.79476 -0.514323 0
M  V30 461 C 41.6707 -0.934956 -1.72491 0
M  V30 462 O 40.7957 -0.144245 -2.15919 0
M  V30 463 C 41.3907 -3.25503 -0.939842 0
M  V30 464 C 39.9497 -3.48408 -1.42438 0
M  V30 465 C 39.0967 -2.74583 -0.387201 0
M  V30 466 H 42.0477 -1.567 0.25113 0
M  V30 467 H 42.0687 -3.34992 -1.80445 0
M  V30 468 H 41.5807 -3.88056 -0.0585628 0
M  V30 469 H 39.6817 -2.91103 -2.32572 0
M  V30 470 H 39.7947 -4.57119 -1.43455 0
M  V30 471 H 38.1587 -2.39942 -0.854409 0
M  V30 472 H 38.9417 -3.39849 0.485543 0
M  V30 473 N 41.3868 0.248026 -1.55636 0
M  V30 474 C 42.2968 1.32859 -1.93354 0
M  V30 475 C 43.3128 1.52719 -0.833838 0
M  V30 476 O 44.4888 1.66363 -1.13513 0
M  V30 477 C 41.5538 2.66337 -2.21958 0
M  V30 478 C 40.6148 2.55008 -3.45354 0
M  V30 479 C 39.8478 3.82121 -3.72584 0
M  V30 480 O 40.0708 4.83951 -3.01907 0
M  V30 481 O 39.0048 3.80822 -4.6611 0
M  V30 482 H 42.8308 1.03862 -2.85388 0
M  V30 483 H 40.4158 0.448686 -1.42503 0
M  V30 484 H 42.2978 3.45216 -2.4167 0
M  V30 485 H 40.9728 2.95068 -1.33103 0
M  V30 486 H 39.8798 1.7442 -3.30951 0
M  V30 487 H 41.2128 2.31222 -4.34508 0
M  V30 488 N 42.8649 1.48995 0.513639 0
M  V30 489 C 43.7969 1.60836 1.63293 0
M  V30 490 C 44.8099 0.491701 1.55197 0
M  V30 491 O 45.9989 0.763238 1.6136 0
M  V30 492 C 43.0989 1.53731 3.02027 0
M  V30 493 C 42.2719 2.80715 3.35437 0
M  V30 494 C 41.3309 2.66837 4.53525 0
M  V30 495 O 40.3569 3.40753 4.55934 0
M  V30 496 N 41.5589 1.77539 5.52684 0
M  V30 497 H 44.3239 2.57366 1.53566 0
M  V30 498 H 41.8849 1.45925 0.701259 0
M  V30 499 H 43.8769 1.42118 3.78926 0
M  V30 500 H 42.4469 0.651092 3.05744 0
M  V30 501 H 41.6669 3.06772 2.47557 0
M  V30 502 H 42.9549 3.64927 3.54551 0
M  V30 503 H 42.3529 1.16719 5.53528 0
M  V30 504 H 40.9099 1.71856 6.28736 0
M  V30 505 N 44.343 -0.763751 1.37857 0
M  V30 506 C 45.273 -1.89103 1.36975 0
M  V30 507 C 46.254 -1.68439 0.237152 0
M  V30 508 O 47.439 -1.8918 0.438713 0
M  V30 509 C 44.569 -3.26496 1.18395 0
M  V30 510 C 43.523 -3.61741 2.28751 0
M  V30 511 C 42.849 -4.97762 1.95286 0
M  V30 512 C 44.149 -3.67665 3.70972 0
M  V30 513 H 45.843 -1.90099 2.31307 0
M  V30 514 H 43.389 -0.91319 1.11341 0
M  V30 515 H 45.342 -4.05003 1.16406 0
M  V30 516 H 44.066 -3.25955 0.205215 0
M  V30 517 H 42.725 -2.85547 2.29909 0
M  V30 518 H 42.373 -4.93769 0.959221 0
M  V30 519 H 42.073 -5.22313 2.69189 0
M  V30 520 H 43.597 -5.7866 1.94898 0
M  V30 521 H 45.011 -4.36307 3.719 0
M  V30 522 H 43.408 -4.03718 4.43995 0
M  V30 523 H 44.478 -2.68134 4.0402 0
M  V30 524 N 45.8211 -1.22559 -0.990812 0
M  V30 525 C 47.0701 -1.04553 -1.72486 0
M  V30 526 C 47.3831 0.419349 -1.91052 0
M  V30 527 O 48.5891 0.719121 -2.61803 0
M  V30 528 C 47.0451 -1.82231 -3.10355 0
M  V30 529 C 46.6531 -3.32981 -2.99713 0
M  V30 530 C 48.3971 -1.7268 -3.87791 0
M  V30 531 C 46.3041 -4.03091 -4.32748 0
M  V30 532 H 45.2341 -0.387614 -0.646739 0
M  V30 533 H 47.8851 -1.46429 -1.10593 0
M  V30 534 H 46.2671 -1.33155 -3.72942 0
M  V30 535 H 47.4411 -3.89466 -2.46278 0
M  V30 536 H 45.7561 -3.43231 -2.35758 0
M  V30 537 H 48.3531 -2.22381 -4.86262 0
M  V30 538 H 48.6961 -0.687607 -4.10582 0
M  V30 539 H 49.2291 -2.1931 -3.31885 0
M  V30 540 H 45.9681 -5.07273 -4.15156 0
M  V30 541 H 45.4881 -3.51394 -4.86089 0
M  V30 542 H 47.1671 -4.08804 -5.01486 0
M  V30 543 N 47.2992 1.18797 -1.03562 0
M  V30 544 C 48.5272 1.92599 -0.755869 0
M  V30 545 C 48.9422 1.75886 0.686271 0
M  V30 546 O 48.2992 1.08517 1.46732 0
M  V30 547 C 48.3502 3.44159 -1.10619 0
M  V30 548 O 48.0712 3.60341 -2.4917 0
M  V30 549 C 49.5722 4.3507 -0.850214 0
M  V30 550 H 46.7922 0.611587 -0.276048 0
M  V30 551 H 49.3362 1.50742 -1.38192 0
M  V30 552 H 47.4912 3.83823 -0.525194 0
M  V30 553 H 47.9052 4.54128 -2.62427 0
M  V30 554 H 49.3792 5.39989 -1.14523 0
M  V30 555 H 49.8562 4.38673 0.215176 0
M  V30 556 H 50.4622 4.01097 -1.41426 0
M  V30 557 N 48.7773 0.814389 1.34928 0
M  V30 558 C 50.0253 0.397636 1.9815 0
M  V30 559 C 50.3463 -1.04069 1.64908 0
M  V30 560 O 49.6163 -1.72121 0.93548 0
M  V30 561 H 48.1963 0.144043 0.732981 0
M  V30 562 H 50.8583 1.04195 1.6471 0
M  V30 563 H 49.9543 0.509688 3.0791 0
M  V30 564 N 50.2554 -1.46986 0.568584 0
M  V30 565 C 51.2024 -2.30153 -0.172707 0
M  V30 566 C 52.1724 -1.39759 -0.897586 0
M  V30 567 O 53.3574 -1.68716 -0.891044 0
M  V30 568 C 50.4974 -3.23952 -1.1895 0
M  V30 569 C 49.6104 -4.29441 -0.469517 0
M  V30 570 C 48.7454 -5.1038 -1.47259 0
M  V30 571 C 47.7844 -6.07632 -0.738225 0
M  V30 572 N 46.9214 -6.8149 -1.68868 0
M  V30 573 H 51.7614 -2.93019 0.542596 0
M  V30 574 H 49.2984 -1.44422 0.279401 0
M  V30 575 H 51.2564 -3.76767 -1.79173 0
M  V30 576 H 49.8864 -2.62926 -1.87269 0
M  V30 577 H 48.9384 -3.79594 0.247467 0
M  V30 578 H 50.2504 -4.98689 0.105241 0
M  V30 579 H 49.4044 -5.67402 -2.14803 0
M  V30 580 H 48.1434 -4.4106 -2.08128 0
M  V30 581 H 47.1484 -5.49778 -0.0489293 0
M  V30 582 H 48.3734 -6.78966 -0.135129 0
M  V30 583 H 46.3194 -6.14891 -2.28573 0
M  V30 584 H 46.2364 -7.46948 -1.16636 0
M  V30 585 H 47.5044 -7.43078 -2.3549 0
M  V30 586 N 51.7335 -0.305618 -1.54608 0
M  V30 587 C 52.6435 0.57778 -2.27374 0
M  V30 588 C 53.6595 1.14451 -1.31061 0
M  V30 589 O 54.8355 1.16831 -1.6405 0
M  V30 590 C 51.9005 1.73123 -3.00382 0
M  V30 591 C 50.9615 1.19812 -4.12242 0
M  V30 592 C 50.1945 2.2966 -4.81759 0
M  V30 593 O 50.4175 3.49651 -4.50666 0
M  V30 594 O 49.3515 1.96091 -5.69062 0
M  V30 595 H 53.1775 -0.012624 -3.03697 0
M  V30 596 H 50.7625 -0.0719184 -1.49227 0
M  V30 597 H 52.6445 2.40315 -3.4616 0
M  V30 598 H 51.3195 2.30815 -2.26949 0
M  V30 599 H 50.2265 0.491798 -3.70853 0
M  V30 600 H 51.5595 0.666566 -4.87666 0
M  V30 601 N 53.2116 1.57565 -0.0334293 0
M  V30 602 C 54.4886 1.83282 0.683163 0
M  V30 603 C 54.8686 0.91823 1.90084 0
M  V30 604 O 54.2166 -0.025113 2.28486 0
M  V30 605 C 54.4266 3.32599 1.0573 0
M  V30 606 C 55.7746 3.99179 1.44711 0
M  V30 607 O 56.7986 3.3712 1.15015 0
M  V30 608 O 55.6576 5.08565 2.0006 0
M  V30 609 H 52.7516 0.755869 0.335546 0
M  V30 610 H 55.2976 1.69589 -0.0614402 0
M  V30 611 H 54.0696 3.90834 0.190828 0
M  V30 612 H 53.6926 3.51415 1.85993 0
M  V30 613 N 54.6897 -0.239769 1.55765 0
M  V30 614 C 55.6527 -1.28038 1.90103 0
M  V30 615 C 56.6527 -1.40723 0.778055 0
M  V30 616 O 57.8427 -1.39301 1.04599 0
M  V30 617 C 54.9747 -2.65702 2.13577 0
M  V30 618 H 56.1677 -0.988048 2.83157 0
M  V30 619 H 53.7207 -0.479382 1.48767 0
M  V30 620 H 54.4557 -3.00063 1.23015 0
M  V30 621 H 54.2407 -2.57875 2.95369 0
M  V30 622 H 55.7307 -3.40828 2.41301 0
M  V30 623 N 56.1678 -1.49265 -0.50573 0
M  V30 624 C 57.1308 -1.65075 -1.59006 0
M  V30 625 C 58.1308 -0.522768 -1.52065 0
M  V30 626 O 59.3208 -0.789117 -1.55302 0
M  V30 627 C 56.4528 -1.64369 -2.98656 0
M  V30 628 H 57.6458 -2.61784 -1.46319 0
M  V30 629 H 55.1988 -1.38226 -0.729616 0
M  V30 630 H 55.9338 -0.692272 -3.16825 0
M  V30 631 H 55.7188 -2.46282 -3.05103 0
M  V30 632 H 57.2088 -1.78674 -3.77446 0
M  V30 633 N 57.6459 0.756429 -1.3826 0
M  V30 634 C 58.5939 1.89149 -1.35372 0
M  V30 635 C 59.5879 1.67691 -0.24004 0
M  V30 636 O 60.7939 1.75294 -0.408919 0
M  V30 637 H 57.1689 0.622271 -0.422236 0
M  V30 638 H 59.1399 1.88701 -2.31159 0
M  V30 639 C 57.8889 3.26599 -1.19284 0
M  V30 640 H 57.2119 3.43695 -2.0424 0
M  V30 641 H 58.6519 4.06274 -1.21316 0
M  V30 642 C 57.1109 3.3675 0.100454 0
M  V30 643 O 57.6409 3.86951 1.07851 0
M  V30 644 N 55.8469 2.90179 0.15633 0
M  V30 645 H 55.3939 2.49517 -0.640253 0
M  V30 646 H 55.3519 2.97352 1.02123 0
M  V30 647 N 59.124 1.23083 0.984299 0
M  V30 648 C 60.072 1.00593 2.09723 0
M  V30 649 C 61.066 -0.0538014 1.69315 0
M  V30 650 O 62.272 0.0993719 1.79725 0
M  V30 651 H 58.647 0.30817 0.685956 0
M  V30 652 H 60.618 1.95012 2.2586 0
M  V30 653 C 59.367 0.609601 3.42314 0
M  V30 654 H 58.69 1.41675 3.73856 0
M  V30 655 H 60.13 0.491726 4.21139 0
M  V30 656 C 58.589 -0.681745 3.2993 0
M  V30 657 O 59.119 -1.73192 3.62446 0
M  V30 658 N 57.325 -0.656178 2.83095 0
M  V30 659 H 56.872 0.198759 2.56832 0
M  V30 660 H 56.83 -1.52044 2.75191 0
M  V30 661 N 60.6021 -1.18246 1.0419 0
M  V30 662 C 61.8321 -1.91916 0.764961 0
M  V30 663 C 62.2401 -1.76485 -0.681898 0
M  V30 664 O 61.5831 -1.09275 -1.47664 0
M  V30 665 C 61.6451 -3.4373 1.05309 0
M  V30 666 C 61.3091 -3.8294 2.4941 0
M  V30 667 C 62.3061 -3.86621 3.47592 0
M  V30 668 C 59.9911 -4.142 2.84155 0
M  V30 669 C 61.9851 -4.21013 4.78568 0
M  V30 670 C 59.6721 -4.48262 4.15337 0
M  V30 671 C 60.6701 -4.51645 5.12353 0
M  V30 672 O 60.3581 -4.84911 6.41183 0
M  V30 673 H 60.0901 -0.61606 0.278292 0
M  V30 674 H 62.6441 -1.50947 1.39299 0
M  V30 675 H 60.8741 -3.84946 0.367933 0
M  V30 676 H 62.5631 -3.9865 0.763752 0
M  V30 677 H 63.3291 -3.62607 3.22089 0
M  V30 678 H 59.2081 -4.10743 2.09311 0
M  V30 679 H 62.7521 -4.23568 5.54289 0
M  V30 680 H 58.6491 -4.71737 4.40607 0
M  V30 681 H 59.4171 -5.02809 6.45852 0
M  V30 682 N 62.0802 -0.821533 -1.34494 0
M  V30 683 C 63.0432 -0.247847 -2.27856 0
M  V30 684 C 64.0432 0.573453 -1.50227 0
M  V30 685 O 65.2332 0.389759 -1.69784 0
M  V30 686 C 62.3652 0.652698 -3.34593 0
M  V30 687 H 63.5582 -1.07146 -2.80107 0
M  V30 688 H 61.1112 -0.593291 -1.44602 0
M  V30 689 H 61.8462 1.49943 -2.87555 0
M  V30 690 H 61.6312 0.065292 -3.92046 0
M  V30 691 H 63.1212 1.04793 -4.04238 0
M  V30 692 N 63.5583 1.46682 -0.576371 0
M  V30 693 C 64.8043 2.03287 -0.0679305 0
M  V30 694 C 65.1593 1.44063 1.27529 0
M  V30 695 O 64.4523 0.593973 1.82161 0
M  V30 696 C 64.6463 3.57345 0.062886 0
M  V30 697 C 64.4753 4.31509 -1.26611 0
M  V30 698 C 63.2453 4.70664 -1.83856 0
M  V30 699 C 65.4433 4.65444 -2.18783 0
M  V30 700 N 63.4253 5.29552 -3.10561 0
M  V30 701 C 64.7963 5.24835 -3.30072 0
M  V30 702 C 66.8513 4.47375 -2.18542 0
M  V30 703 C 65.5543 5.68063 -4.41244 0
M  V30 704 C 67.5803 4.91614 -3.28739 0
M  V30 705 C 66.9423 5.51071 -4.38748 0
M  V30 706 H 63.0413 0.779083 -0.0674836 0
M  V30 707 H 65.6253 1.78918 -0.767877 0
M  V30 708 H 63.7963 3.8144 0.731988 0
M  V30 709 H 65.5283 4.00592 0.575134 0
M  V30 710 H 62.2833 4.53224 -1.37424 0
M  V30 711 H 62.7073 5.63523 -3.75195 0
M  V30 712 H 67.3493 4.00747 -1.34765 0
M  V30 713 H 65.0673 6.13672 -5.25768 0
M  V30 714 H 68.6533 4.79389 -3.29662 0
M  V30 715 H 67.5333 5.84678 -5.22611 0
M  V30 716 N 65.0364 0.313813 1.54444 0
M  V30 717 C 66.2844 -0.291099 1.99993 0
M  V30 718 C 66.6054 -1.53418 1.20366 0
M  V30 719 O 65.8754 -1.93544 0.302927 0
M  V30 720 H 64.4554 -0.110552 0.738774 0
M  V30 721 H 67.1174 0.428106 1.9014 0
M  V30 722 H 66.2134 -0.554268 3.07139 0
M  V30 723 N 66.5145 -1.57545 0.0417849 0
M  V30 724 C 67.4645 -2.07483 -0.945247 0
M  V30 725 C 68.4485 -0.977983 -1.27767 0
M  V30 726 O 69.6405 -1.24142 -1.26166 0
M  V30 727 C 66.7695 -2.61576 -2.22335 0
M  V30 728 C 65.8555 -3.78213 -1.91874 0
M  V30 729 N 66.2465 -4.88344 -1.31733 0
M  V30 730 C 64.5445 -3.8694 -2.21796 0
M  V30 731 C 65.2455 -5.69462 -1.1869 0
M  V30 732 N 64.2215 -5.16771 -1.68666 0
M  V30 733 H 68.0235 -2.90029 -0.475441 0
M  V30 734 H 65.5375 -1.61581 -0.162911 0
M  V30 735 H 67.5345 -2.95651 -2.93932 0
M  V30 736 H 66.1945 -1.80465 -2.69931 0
M  V30 737 H 67.2055 -5.08335 -0.990729 0
M  V30 738 H 63.8825 -3.16757 -2.71977 0
M  V30 739 H 65.2725 -6.68023 -0.720793 0
M  V30 740 N 67.9926 0.231505 -1.5589 0
M  V30 741 C 69.2226 0.973092 -1.82248 0
M  V30 742 C 69.6306 1.78845 -0.617328 0
M  V30 743 O 68.9736 1.78752 0.423499 0
M  V30 744 C 69.0356 1.94732 -3.02192 0
M  V30 745 C 68.6996 1.31743 -4.37599 0
M  V30 746 C 69.6966 0.712238 -5.14998 0
M  V30 747 C 67.3816 1.33218 -4.84312 0
M  V30 748 C 69.3756 0.130195 -6.37267 0
M  V30 749 C 67.0626 0.746286 -6.06526 0
M  V30 750 C 68.0606 0.146337 -6.82843 0
M  V30 751 O 67.7486 -0.430465 -8.02747 0
M  V30 752 H 67.4806 0.29125 -0.61004 0
M  V30 753 H 70.0346 0.254915 -2.03812 0
M  V30 754 H 68.2646 2.70422 -2.76422 0
M  V30 755 H 69.9536 2.55362 -3.15508 0
M  V30 756 H 70.7196 0.69324 -4.8002 0
M  V30 757 H 66.5986 1.78854 -4.24891 0
M  V30 758 H 70.1426 -0.33871 -6.96777 0
M  V30 759 H 66.0396 0.762663 -6.40979 0
M  V30 760 H 66.8076 -0.323818 -8.17859 0
M  V30 761 N 69.4707 1.49531 0.497807 0
M  V30 762 C 70.6987 1.62893 1.27567 0
M  V30 763 C 71.1137 0.301585 1.86376 0
M  V30 764 O 70.4707 -0.713335 1.67982 0
M  V30 765 C 70.5217 2.70013 2.40364 0
M  V30 766 O 70.2427 3.976 1.83972 0
M  V30 767 C 71.7437 2.94109 3.31685 0
M  V30 768 H 68.9637 0.548298 0.386794 0
M  V30 769 H 71.5077 1.95584 0.597245 0
M  V30 770 H 69.6627 2.40092 3.04031 0
M  V30 771 H 70.0767 4.56631 2.58047 0
M  V30 772 H 71.5507 3.72788 4.07104 0
M  V30 773 H 72.0277 2.04147 3.88871 0
M  V30 774 H 72.6337 3.2546 2.73781 0
M  V30 775 N 70.9488 -0.749086 1.3866 0
M  V30 776 C 72.1978 -1.50371 1.3443 0
M  V30 777 C 72.5108 -1.95503 -0.0616397 0
M  V30 778 O 73.7168 -2.70554 -0.226489 0
M  V30 779 C 72.1728 -2.71644 2.36088 0
M  V30 780 C 71.7808 -2.3352 3.82325 0
M  V30 781 C 73.5248 -3.49518 2.40909 0
M  V30 782 C 71.4318 -3.51431 4.75658 0
M  V30 783 H 70.3618 -0.564628 0.499712 0
M  V30 784 H 73.0128 -0.818449 1.64237 0
M  V30 785 H 71.3948 -3.42175 1.9933 0
M  V30 786 H 72.5688 -1.70627 4.28046 0
M  V30 787 H 70.8838 -1.6877 3.80665 0
M  V30 788 H 73.4808 -4.37197 3.07836 0
M  V30 789 H 73.8238 -3.90992 1.42937 0
M  V30 790 H 74.3568 -2.86005 2.76489 0
M  V30 791 H 71.0958 -3.15019 5.74842 0
M  V30 792 H 70.6158 -4.13352 4.34627 0
M  V30 793 H 72.2948 -4.17953 4.93887 0
M  V30 794 N 72.4269 -1.23603 -0.977757 0
M  V30 795 C 73.6749 -1.06759 -1.71601 0
M  V30 796 C 73.9959 0.395929 -1.90938 0
M  V30 797 O 73.2659 1.28356 -1.47992 0
M  V30 798 H 71.8459 -0.392062 -0.635843 0
M  V30 799 H 74.5079 -1.55362 -1.1768 0
M  V30 800 H 73.6039 -1.55763 -2.70452 0
M  V30 801 N 73.905 1.17692 -1.04816 0
M  V30 802 C 74.852 2.21581 -0.645797 0
M  V30 803 C 75.822 1.62367 0.350159 0
M  V30 804 O 77.007 1.89254 0.242433 0
M  V30 805 C 74.147 3.45092 -0.0227568 0
M  V30 806 C 73.26 4.18613 -1.06709 0
M  V30 807 C 72.395 5.29602 -0.411767 0
M  V30 808 C 71.434 5.94904 -1.44067 0
M  V30 809 N 70.571 6.97414 -0.809781 0
M  V30 810 H 75.411 2.55353 -1.5362 0
M  V30 811 H 72.948 1.25438 -0.768364 0
M  V30 812 H 74.906 4.15679 0.35588 0
M  V30 813 H 73.536 3.11917 0.831122 0
M  V30 814 H 72.588 3.46779 -1.5636 0
M  V30 815 H 73.9 4.63293 -1.84827 0
M  V30 816 H 73.054 6.06696 0.0206623 0
M  V30 817 H 71.793 4.86045 0.401438 0
M  V30 818 H 70.798 5.16544 -1.88316 0
M  V30 819 H 72.023 6.40542 -2.25571 0
M  V30 820 H 69.969 6.55998 -0.0170186 0
M  V30 821 H 69.886 7.40386 -1.52856 0
M  V30 822 H 71.154 7.78463 -0.401999 0
M  V30 823 N 75.3831 0.828654 1.34056 0
M  V30 824 C 76.2931 0.256725 2.33191 0
M  V30 825 C 77.3091 -0.611898 1.62886 0
M  V30 826 O 78.4851 -0.51844 1.94613 0
M  V30 827 C 75.5501 -0.567238 3.42028 0
M  V30 828 C 74.6111 0.324458 4.28072 0
M  V30 829 C 73.8441 -0.460274 5.31712 0
M  V30 830 O 74.0671 -1.693 5.44696 0
M  V30 831 O 73.0011 0.160391 6.01686 0
M  V30 832 H 76.8271 1.07739 2.83947 0
M  V30 833 H 74.4121 0.59093 1.37217 0
M  V30 834 H 76.2941 -1.03582 4.08471 0
M  V30 835 H 74.9691 -1.36513 2.93506 0
M  V30 836 H 73.8761 0.840659 3.64532 0
M  V30 837 H 75.2091 1.08685 4.8005 0
M  V30 838 N 76.8612 -1.46375 0.584142 0
M  V30 839 C 78.1082 -2.02378 0.0702675 0
M  V30 840 C 78.4362 -1.45545 -1.29023 0
M  V30 841 O 77.6912 -0.610967 -1.85918 0
M  V30 842 C 77.9902 -3.57373 -0.0439342 0
M  V30 843 C 77.6562 -4.33252 1.24915 0
M  V30 844 C 76.3182 -4.53701 1.60341 0
M  V30 845 C 78.6702 -4.7681 2.1048 0
M  V30 846 C 75.9982 -5.1496 2.81128 0
M  V30 847 C 78.3502 -5.39404 3.30494 0
M  V30 848 C 77.0142 -5.5808 3.66201 0
M  V30 849 H 76.2842 -0.740554 0.0257127 0
M  V30 850 H 78.9312 -1.75727 0.761065 0
M  V30 851 H 77.2362 -3.83169 -0.817869 0
M  V30 852 H 78.9332 -3.98384 -0.457318 0
M  V30 853 H 75.5232 -4.17633 0.963364 0
M  V30 854 H 79.7072 -4.60766 1.84414 0
M  V30 855 H 74.9632 -5.27611 3.08928 0
M  V30 856 H 79.1372 -5.72114 3.97063 0
M  V30 857 H 76.7642 -6.05318 4.59885 0
M  V30 858 N 78.3393 -0.321999 -1.54275 0
M  V30 859 C 79.5883 0.281931 -1.9972 0
M  V30 860 C 79.9013 1.53369 -1.21397 0
M  V30 861 O 81.1073 2.21352 -1.57211 0
M  V30 862 C 79.5633 0.5529 -3.55628 0
M  V30 863 C 79.1713 -0.681721 -4.42783 0
M  V30 864 C 80.9153 1.11687 -4.09544 0
M  V30 865 C 78.8223 -0.382742 -5.9016 0
M  V30 866 H 77.7523 0.109124 -0.746062 0
M  V30 867 H 80.4033 -0.43398 -1.78294 0
M  V30 868 H 78.7853 1.32896 -3.73035 0
M  V30 869 H 79.9593 -1.45723 -4.37151 0
M  V30 870 H 78.2743 -1.1658 -3.99748 0
M  V30 871 H 80.8713 1.35515 -5.17242 0
M  V30 872 H 81.2143 2.06575 -3.61431 0
M  V30 873 H 81.7473 0.402032 -3.95763 0
M  V30 874 H 78.4863 -1.30076 -6.42464 0
M  V30 875 H 78.0063 0.355094 -5.98748 0
M  V30 876 H 79.6853 0.00800157 -6.47 0
M  V30 877 N 79.8174 1.5752 -0.0501392 0
M  V30 878 C 81.0944 1.83996 0.663685 0
M  V30 879 C 81.4744 0.938339 1.89099 0
M  V30 880 O 80.8224 -0.00087759 2.285 0
M  V30 881 C 81.0324 3.33702 1.02196 0
M  V30 882 C 82.3804 4.00691 1.40469 0
M  V30 883 O 83.4044 3.38321 1.11433 0
M  V30 884 O 82.2634 5.10658 1.94654 0
M  V30 885 H 79.3574 0.759385 0.32751 0
M  V30 886 H 81.9034 1.69514 -0.0794238 0
M  V30 887 H 80.6754 3.91015 0.149364 0
M  V30 888 H 80.2984 3.53368 1.82255 0
M  V30 889 N 81.2955 -0.223234 1.56011 0
M  V30 890 C 82.2255 -1.27988 1.95298 0
M  V30 891 C 83.2065 -1.48976 0.820979 0
M  V30 892 O 84.3915 -1.61188 1.08315 0
M  V30 893 C 81.5215 -2.63 2.26822 0
M  V30 894 C 80.4755 -2.56671 3.42497 0
M  V30 895 C 79.8015 -3.95697 3.59622 0
M  V30 896 C 81.1015 -2.11601 4.77517 0
M  V30 897 H 82.7955 -0.953525 2.8381 0
M  V30 898 H 80.3415 -0.457244 1.36548 0
M  V30 899 H 82.2945 -3.37077 2.52898 0
M  V30 900 H 81.0185 -2.9732 1.35161 0
M  V30 901 H 79.6775 -1.85051 3.16467 0
M  V30 902 H 79.3255 -4.27322 2.6534 0
M  V30 903 H 79.0255 -3.92345 4.37424 0
M  V30 904 H 80.5495 -4.71438 3.88044 0
M  V30 905 H 81.9635 -2.7542 5.02809 0
M  V30 906 H 80.3605 -2.19311 5.5859 0
M  V30 907 H 81.4305 -1.06824 4.72987 0
M  V30 908 N 82.7736 -1.49793 -0.48987 0
M  V30 909 C 83.7036 -1.70201 -1.59856 0
M  V30 910 C 84.6846 -0.55076 -1.60937 0
M  V30 911 O 85.8696 -0.787841 -1.77501 0
M  V30 912 C 82.9996 -1.77882 -2.98287 0
M  V30 913 C 81.9536 -2.92907 -3.12073 0
M  V30 914 C 81.2796 -2.85712 -4.51965 0
M  V30 915 C 82.5796 -4.3369 -2.91051 0
M  V30 916 H 84.2736 -2.63025 -1.43032 0
M  V30 917 H 81.8196 -1.26574 -0.686664 0
M  V30 918 H 83.7726 -1.90744 -3.75759 0
M  V30 919 H 82.4966 -0.816653 -3.16225 0
M  V30 920 H 81.1556 -2.79665 -2.37029 0
M  V30 921 H 80.8036 -1.8738 -4.66795 0
M  V30 922 H 80.5036 -3.62921 -4.62128 0
M  V30 923 H 82.0276 -3.00598 -5.31482 0
M  V30 924 H 83.4416 -4.47555 -3.58284 0
M  V30 925 H 81.8386 -5.12205 -3.12675 0
M  V30 926 H 82.9086 -4.47362 -1.87071 0
M  V30 927 N 84.2517 0.741722 -1.39055 0
M  V30 928 C 85.1817 1.869 -1.39966 0
M  V30 929 C 86.1627 1.6804 -0.26392 0
M  V30 930 O 87.3477 1.88458 -0.468755 0
M  V30 931 C 84.4777 3.24572 -1.23574 0
M  V30 932 C 83.4317 3.58056 -2.34477 0
M  V30 933 C 82.7577 4.94593 -2.0318 0
M  V30 934 C 84.0577 3.61716 -3.76774 0
M  V30 935 H 85.7517 1.86395 -2.34302 0
M  V30 936 H 83.2977 0.895361 -1.1278 0
M  V30 937 H 85.2507 4.031 -1.22834 0
M  V30 938 H 83.9747 3.25587 -0.257045 0
M  V30 939 H 82.6337 2.81854 -2.34423 0
M  V30 940 H 82.2817 4.92181 -1.03765 0
M  V30 941 H 81.9817 5.17964 -2.77465 0
M  V30 942 H 83.5057 5.75486 -2.04079 0
M  V30 943 H 84.9197 4.30335 -3.78794 0
M  V30 944 H 83.3167 3.96603 -4.50362 0
M  V30 945 H 84.3867 2.61672 -4.08235 0
M  V30 946 N 85.7298 1.2412 0.971189 0
M  V30 947 C 87.0068 0.986867 1.6888 0
M  V30 948 C 87.3868 -0.491857 2.0529 0
M  V30 949 O 86.7348 -1.46531 1.75331 0
M  V30 950 C 86.9448 1.9063 2.92338 0
M  V30 951 C 88.2928 2.17515 3.64654 0
M  V30 952 O 89.3168 1.88254 3.02388 0
M  V30 953 O 88.1758 2.6719 4.7673 0
M  V30 954 H 85.2698 0.372944 0.738134 0
M  V30 955 H 87.8158 1.35203 1.02559 0
M  V30 956 H 86.5878 2.90552 2.62097 0
M  V30 957 H 86.2108 1.54408 3.66393 0
M  V30 958 N 87.2079 -1.17134 1.05439 0
M  V30 959 C 88.6239 -1.39454 0.776201 0
M  V30 960 C 88.8239 -1.91454 -0.628307 0
M  V30 961 O 87.8799 -2.10777 -1.39031 0
M  V30 962 C 89.1929 -2.38305 1.83388 0
M  V30 963 C 90.7409 -2.52006 1.85639 0
M  V30 964 C 91.2159 -3.54133 2.90437 0
M  V30 965 N 92.7069 -3.61653 2.89415 0
M  V30 966 C 93.4419 -4.4044 3.67152 0
M  V30 967 N 92.9379 -5.22721 4.54681 0
M  V30 968 N 94.7309 -4.35337 3.55581 0
M  V30 969 H 86.8819 -0.817134 1.96053 0
M  V30 970 H 89.1449 -0.421626 0.849079 0
M  V30 971 H 88.8509 -2.07173 2.84204 0
M  V30 972 H 88.7249 -3.37841 1.67761 0
M  V30 973 H 91.1119 -2.82447 0.85486 0
M  V30 974 H 91.1929 -1.52537 2.05344 0
M  V30 975 H 90.8369 -3.24431 3.90777 0
M  V30 976 H 90.7669 -4.53313 2.67983 0
M  V30 977 H 93.2579 -3.02909 2.25952 0
M  V30 978 H 93.5709 -5.80027 5.10674 0
M  V30 979 H 91.9159 -5.22093 4.58741 0
M  V30 980 H 95.1069 -3.70112 2.86592 0
M  V30 981 H 95.2799 -4.96494 4.1641 0
M  V30 982 N 88.686 -0.835752 -1.33615 0
M  V30 983 C 89.935 -0.426289 -1.97144 0
M  V30 984 C 90.248 1.01912 -1.66953 0
M  V30 985 O 91.454 1.53311 -2.24072 0
M  V30 986 C 89.91 -0.711321 -3.52801 0
M  V30 987 C 89.518 -2.1712 -3.91871 0
M  V30 988 C 91.262 -0.368654 -4.22896 0
M  V30 989 C 89.169 -2.40044 -5.40493 0
M  V30 990 H 88.099 -0.15567 -0.737755 0
M  V30 991 H 90.75 -1.0239 -1.52278 0
M  V30 992 H 89.132 -0.0433766 -3.95976 0
M  V30 993 H 90.306 -2.87936 -3.59763 0
M  V30 994 H 88.621 -2.47654 -3.34749 0
M  V30 995 H 91.218 -0.517601 -5.32189 0
M  V30 996 H 91.561 0.688078 -4.10574 0
M  V30 997 H 92.094 -0.991702 -3.8524 0
M  V30 998 H 88.833 -3.44271 -5.57815 0
M  V30 999 H 88.353 -1.73785 -5.74072 0
M  V30 1000 H 90.032 -2.23042 -6.0734 0
M  V30 1001 N 90.1641 1.46063 -0.591896 0
M  V30 1002 C 91.5801 1.57561 -0.254288 0
M  V30 1003 C 91.7801 1.58565 1.24336 0
M  V30 1004 O 90.8361 1.50753 2.02558 0
M  V30 1005 C 92.1491 2.86549 -0.911611 0
M  V30 1006 C 93.6971 3.00197 -0.886059 0
M  V30 1007 C 94.1721 4.31933 -1.5231 0
M  V30 1008 N 95.6631 4.38654 -1.48786 0
M  V30 1009 C 96.3981 5.39222 -1.95006 0
M  V30 1010 N 95.8941 6.46414 -2.49241 0
M  V30 1011 N 97.6871 5.3048 -1.85868 0
M  V30 1012 H 89.8381 1.43655 -1.56451 0
M  V30 1013 H 92.1011 0.68583 -0.654478 0
M  V30 1014 H 91.8071 2.91651 -1.96551 0
M  V30 1015 H 91.6811 3.74794 -0.425368 0
M  V30 1016 H 94.0681 2.9467 0.159246 0
M  V30 1017 H 94.1491 2.13403 -1.41041 0
M  V30 1018 H 93.7931 4.38217 -2.56765 0
M  V30 1019 H 93.7231 5.17516 -0.973891 0
M  V30 1020 H 96.2141 3.61793 -1.09151 0
M  V30 1021 H 96.5271 7.19376 -2.82344 0
M  V30 1022 H 94.8721 6.47208 -2.53272 0
M  V30 1023 H 98.0631 4.45643 -1.43248 0
M  V30 1024 H 98.2361 6.08711 -2.22204 0
M  V30 1025 N 91.6422 0.330177 1.54103 0
M  V30 1026 C 92.5892 -0.532762 2.24567 0
M  V30 1027 C 93.5592 -1.10635 1.23892 0
M  V30 1028 O 94.7442 -1.14546 1.5259 0
M  V30 1029 C 91.8842 -1.6845 3.01195 0
M  V30 1030 C 90.9972 -1.13951 4.167 0
M  V30 1031 C 90.1322 -2.25746 4.80845 0
M  V30 1032 C 89.1712 -1.6853 5.88442 0
M  V30 1033 N 88.3082 -2.74014 6.46421 0
M  V30 1034 H 93.1482 0.0746905 2.97906 0
M  V30 1035 H 90.6852 0.048632 1.4702 0
M  V30 1036 H 92.6432 -2.36234 3.43874 0
M  V30 1037 H 91.2732 -2.26314 2.30178 0
M  V30 1038 H 90.3252 -0.35301 3.78758 0
M  V30 1039 H 91.6372 -0.680892 4.94131 0
M  V30 1040 H 90.7912 -3.01422 5.26526 0
M  V30 1041 H 89.5302 -2.74947 4.0281 0
M  V30 1042 H 88.5352 -0.913543 5.42157 0
M  V30 1043 H 89.7602 -1.20198 6.68378 0
M  V30 1044 H 87.7062 -3.22494 5.71256 0
M  V30 1045 H 87.6232 -2.32735 7.19285 0
M  V30 1046 H 88.8912 -3.49499 6.96757 0
M  V30 1047 N 93.1203 -1.57491 0.0584922 0
M  V30 1048 C 94.0503 -2.14988 -0.911178 0
M  V30 1049 C 95.0313 -1.07343 -1.31952 0
M  V30 1050 O 96.2163 -1.35318 -1.39294 0
M  V30 1051 C 93.3463 -2.70078 -2.18347 0
M  V30 1052 C 92.3003 -3.82771 -1.91495 0
M  V30 1053 C 91.6263 -4.24408 -3.25241 0
M  V30 1054 C 92.9263 -5.07592 -1.23075 0
M  V30 1055 H 94.6203 -2.96263 -0.432246 0
M  V30 1056 H 92.1663 -1.42512 -0.206469 0
M  V30 1057 H 94.1193 -3.08943 -2.86587 0
M  V30 1058 H 92.8433 -1.86005 -2.68458 0
M  V30 1059 H 91.5023 -3.44389 -1.25664 0
M  V30 1060 H 91.1503 -3.37275 -3.73168 0
M  V30 1061 H 90.8503 -5.00366 -3.08071 0
M  V30 1062 H 92.3743 -4.65879 -3.94701 0
M  V30 1063 H 93.7883 -5.43857 -1.81362 0
M  V30 1064 H 92.1853 -5.88741 -1.16207 0
M  V30 1065 H 93.2553 -4.84454 -0.207847 0
M  V30 1066 N 94.5984 0.214957 -1.56127 0
M  V30 1067 C 95.5614 1.24997 -1.92116 0
M  V30 1068 C 96.5614 1.39467 -0.800344 0
M  V30 1069 O 97.7514 1.37619 -1.06802 0
M  V30 1070 C 94.8834 2.62271 -2.17777 0
M  V30 1071 H 96.0764 0.942875 -2.84693 0
M  V30 1072 H 93.6294 0.455654 -1.49511 0
M  V30 1073 H 94.3644 2.98068 -1.27773 0
M  V30 1074 H 94.1494 2.53143 -2.99434 0
M  V30 1075 H 95.6394 3.36946 -2.46693 0
M  V30 1076 N 96.0765 1.50051 0.48192 0
M  V30 1077 C 97.3535 1.51009 1.2432 0
M  V30 1078 C 97.7335 0.248587 2.09631 0
M  V30 1079 O 97.0815 -0.768409 2.15192 0
M  V30 1080 C 97.2915 2.79981 2.08355 0
M  V30 1081 C 98.6395 3.3022 2.66908 0
M  V30 1082 O 99.6635 2.81228 2.18607 0
M  V30 1083 O 98.5225 4.15595 3.54884 0
M  V30 1084 H 95.6165 0.605239 0.563573 0
M  V30 1085 H 98.1625 1.62332 0.494627 0
M  V30 1086 H 96.9345 3.63275 1.45419 0
M  V30 1087 H 96.5575 2.7161 2.90368 0
M  V30 1088 N 97.5546 -0.734337 1.39446 0
M  V30 1089 C 98.4866 -1.85861 1.34121 0
M  V30 1090 C 99.4996 -1.60871 0.249864 0
M  V30 1091 O 100.689 -1.71093 0.508865 0
M  V30 1092 C 97.7886 -3.21899 1.05991 0
M  V30 1093 C 96.9616 -3.74239 2.26415 0
M  V30 1094 C 96.0206 -4.88841 1.94733 0
M  V30 1095 O 95.0466 -5.02468 2.67422 0
M  V30 1096 N 96.2486 -5.73261 0.913884 0
M  V30 1097 H 99.0136 -1.90934 2.31007 0
M  V30 1098 H 96.5746 -0.915102 1.33557 0
M  V30 1099 H 98.5666 -3.96136 0.828147 0
M  V30 1100 H 97.1366 -3.12091 0.178361 0
M  V30 1101 H 96.3566 -2.91347 2.65539 0
M  V30 1102 H 97.6446 -4.05942 3.06738 0
M  V30 1103 H 97.0426 -5.64842 0.311476 0
M  V30 1104 H 95.5996 -6.47563 0.742015 0
M  V30 1105 N 99.0327 -1.24633 -0.964593 0
M  V30 1106 C 100.273 -1.09981 -1.72289 0
M  V30 1107 C 100.637 0.354792 -1.88693 0
M  V30 1108 O 101.838 0.62289 -2.61483 0
M  V30 1109 C 100.109 -1.82262 -3.07434 0
M  V30 1110 S 101.668 -1.83379 -3.98645 0
M  V30 1111 H 98.4857 -0.393292 -0.59232 0
M  V30 1112 H 101.088 -1.58009 -1.15123 0
M  V30 1113 H 99.7917 -2.87206 -2.93157 0
M  V30 1114 H 99.3227 -1.3458 -3.69664 0
M  V30 1115 H 101.338 -0.903691 -4.87901 0
M  V30 1116 N 100.511 1.16574 -1.06058 0
M  V30 1117 C 101.739 1.90952 -0.796552 0
M  V30 1118 C 102.154 1.77302 0.648808 0
M  V30 1119 O 101.511 1.11605 1.44397 0
M  V30 1120 C 101.562 3.41736 -1.17894 0
M  V30 1121 O 101.283 3.54975 -2.56758 0
M  V30 1122 C 102.784 4.33169 -0.942308 0
M  V30 1123 H 100.004 0.605594 -0.288959 0
M  V30 1124 H 102.548 1.47777 -1.41358 0
M  V30 1125 H 100.703 3.82623 -0.606491 0
M  V30 1126 H 101.117 4.4846 -2.72 0
M  V30 1127 H 102.591 5.37439 -1.25952 0
M  V30 1128 H 103.068 4.3903 0.122078 0
M  V30 1129 H 103.674 3.98007 -1.49902 0
M  V30 1130 N 101.989 0.842826 1.3317 0
M  V30 1131 C 103.237 0.439577 1.97262 0
M  V30 1132 C 103.558 -1.00548 1.67078 0
M  V30 1133 O 102.828 -1.70098 0.971779 0
M  V30 1134 H 101.408 0.159558 0.72976 0
M  V30 1135 H 104.07 1.07665 1.62463 0
M  V30 1136 H 103.166 0.574886 3.0676 0
M  V30 1137 N 103.467 -1.45747 0.599634 0
M  V30 1138 C 104.397 -2.33235 -0.111306 0
M  V30 1139 C 105.378 -1.46359 -0.866781 0
M  V30 1140 O 106.563 -1.75146 -0.838904 0
M  V30 1141 C 103.693 -3.28932 -1.11451 0
M  V30 1142 C 102.647 -4.25381 -0.472772 0
M  V30 1143 C 101.973 -5.1071 -1.58365 0
M  V30 1144 C 103.273 -5.18831 0.600948 0
M  V30 1145 H 104.967 -2.92927 0.61919 0
M  V30 1146 H 102.513 -1.40857 0.299215 0
M  V30 1147 H 104.466 -3.89002 -1.62036 0
M  V30 1148 H 103.19 -2.67381 -1.8755 0
M  V30 1149 H 101.849 -3.66598 0.0121472 0
M  V30 1150 H 101.497 -4.45533 -2.33473 0
M  V30 1151 H 101.197 -5.7604 -1.15982 0
M  V30 1152 H 102.721 -5.73647 -2.09194 0
M  V30 1153 H 104.135 -5.73019 0.179491 0
M  V30 1154 H 102.532 -5.92595 0.946076 0
M  V30 1155 H 103.602 -4.6174 1.48068 0
M  V30 1156 N 104.945 -0.338344 -1.53925 0
M  V30 1157 C 105.877 0.555117 -2.22376 0
M  V30 1158 C 106.89 1.06812 -1.22862 0
M  V30 1159 O 108.079 0.979163 -1.49247 0
M  V30 1160 C 105.179 1.77609 -2.88631 0
M  V30 1161 C 104.352 1.39927 -4.14414 0
M  V30 1162 C 103.411 2.47936 -4.64127 0
M  V30 1163 O 102.437 2.11461 -5.28463 0
M  V30 1164 N 103.639 3.79107 -4.39612 0
M  V30 1165 H 106.404 -0.0310778 -2.99684 0
M  V30 1166 H 103.965 -0.162226 -1.61085 0
M  V30 1167 H 105.957 2.49287 -3.18807 0
M  V30 1168 H 104.527 2.26978 -2.14941 0
M  V30 1169 H 103.747 0.513481 -3.90841 0
M  V30 1170 H 105.035 1.12341 -4.96243 0
M  V30 1171 H 104.433 4.11531 -3.88148 0
M  V30 1172 H 102.99 4.4697 -4.74406 0
M  V30 1173 N 106.423 1.57458 -0.0668435 0
M  V30 1174 C 107.671 1.92919 0.602214 0
M  V30 1175 C 107.992 0.947215 1.70449 0
M  V30 1176 O 107.262 -0.00544117 1.95899 0
M  V30 1177 H 105.842 0.71217 0.22544 0
M  V30 1178 H 108.504 1.94508 -0.123535 0
M  V30 1179 H 107.6 2.94589 1.03073 0
M  V30 1180 N 107.901 -0.206675 1.56239 0
M  V30 1181 C 109.148 -0.928842 1.79941 0
M  V30 1182 C 109.476 -1.83734 0.638131 0
M  V30 1183 O 108.731 -1.92039 -0.376746 0
M  V30 1184 C 109.03 -1.78675 3.09532 0
M  V30 1185 C 108.696 -1.03022 4.38973 0
M  V30 1186 C 107.358 -0.821302 4.74139 0
M  V30 1187 C 109.71 -0.497081 5.18824 0
M  V30 1188 C 107.038 -0.0675719 5.86661 0
M  V30 1189 C 109.39 0.24338 6.32132 0
M  V30 1190 C 108.054 0.463422 6.65889 0
M  V30 1191 H 107.324 -0.339887 0.658451 0
M  V30 1192 H 109.971 -0.195977 1.90495 0
M  V30 1193 H 108.276 -2.58794 2.94165 0
M  V30 1194 H 109.973 -2.34792 3.25075 0
M  V30 1195 H 106.563 -1.20306 4.11369 0
M  V30 1196 H 110.747 -0.645921 4.92079 0
M  V30 1197 H 106.003 0.112995 6.11296 0
M  V30 1198 H 110.177 0.66393 6.93228 0
M  V30 1199 H 107.804 1.04938 7.52922 0
M  V30 1200 N 109.379 -1.50304 -0.473955 0
M  V30 1201 C 110.309 -1.71886 -1.58042 0
M  V30 1202 C 111.29 -0.567799 -1.60344 0
M  V30 1203 O 112.475 -0.806623 -1.76656 0
M  V30 1204 C 109.605 -1.81036 -2.96384 0
M  V30 1205 C 108.559 -2.962 -3.08949 0
M  V30 1206 C 107.885 -2.9049 -4.48909 0
M  V30 1207 C 109.185 -4.36752 -2.86434 0
M  V30 1208 H 110.879 -2.64527 -1.40234 0
M  V30 1209 H 108.425 -1.27295 -0.673201 0
M  V30 1210 H 110.378 -1.94719 -3.73714 0
M  V30 1211 H 109.102 -0.850147 -3.15341 0
M  V30 1212 H 107.761 -2.82164 -2.3405 0
M  V30 1213 H 107.409 -1.92321 -4.64781 0
M  V30 1214 H 107.109 -3.67802 -4.58253 0
M  V30 1215 H 108.633 -3.06218 -5.28264 0
M  V30 1216 H 110.047 -4.5133 -3.53517 0
M  V30 1217 H 108.444 -5.15493 -3.07225 0
M  V30 1218 H 109.514 -4.49321 -1.82316 0
M  V30 1219 N 110.857 0.726932 -1.39834 0
M  V30 1220 C 112.103 1.48884 -1.377 0
M  V30 1221 C 112.436 1.94185 0.0244852 0
M  V30 1222 O 111.711 1.67361 0.990986 0
M  V30 1223 C 111.994 2.72288 -2.3565 0
M  V30 1224 C 111.847 2.32956 -3.84775 0
M  V30 1225 C 113.166 3.74414 -2.31306 0
M  V30 1226 H 110.285 0.540062 -0.5015 0
M  V30 1227 H 112.927 0.830547 -1.70886 0
M  V30 1228 H 111.077 3.28457 -2.07481 0
M  V30 1229 H 112.749 1.82356 -4.23726 0
M  V30 1230 H 110.992 1.65088 -4.01159 0
M  V30 1231 H 111.663 3.21362 -4.4881 0
M  V30 1232 H 114.139 3.27849 -2.56231 0
M  V30 1233 H 113.015 4.58414 -3.01907 0
M  V30 1234 H 113.276 4.21909 -1.32081 0
M  V30 1235 N 112.336 1.25143 0.95797 0
M  V30 1236 C 113.583 1.09692 1.70217 0
M  V30 1237 C 113.911 -0.362654 1.91089 0
M  V30 1238 O 113.166 -1.28386 1.47701 0
M  V30 1239 C 113.465 1.79272 3.09187 0
M  V30 1240 C 113.131 3.29196 3.08125 0
M  V30 1241 C 111.793 3.70096 3.07543 0
M  V30 1242 C 114.145 4.24995 3.0171 0
M  V30 1243 C 111.473 5.05213 2.9829 0
M  V30 1244 C 113.825 5.60132 2.93999 0
M  V30 1245 C 112.489 6.00365 2.9175 0
M  V30 1246 H 111.759 0.401393 0.622868 0
M  V30 1247 H 114.406 1.55372 1.11945 0
M  V30 1248 H 112.711 1.26014 3.70982 0
M  V30 1249 H 114.408 1.64773 3.65583 0
M  V30 1250 H 110.998 2.96651 3.09348 0
M  V30 1251 H 115.182 3.9439 3.01281 0
M  V30 1252 H 110.438 5.35569 2.94916 0
M  V30 1253 H 114.612 6.3406 2.87996 0
M  V30 1254 H 112.239 7.05023 2.84336 0
M  V30 1255 N 113.814 -1.1601 1.06675 0
M  V30 1256 C 114.764 -2.18512 0.650888 0
M  V30 1257 C 115.748 -1.57677 -0.320441 0
M  V30 1258 O 116.94 -1.76482 -0.135266 0
M  V30 1259 C 114.069 -3.43273 0.0429255 0
M  V30 1260 C 113.155 -4.11176 1.03898 0
M  V30 1261 N 113.546 -4.54672 2.216 0
M  V30 1262 C 111.844 -4.37417 0.870779 0
M  V30 1263 C 112.545 -5.07248 2.84736 0
M  V30 1264 N 111.521 -5.0037 2.12441 0
M  V30 1265 H 115.323 -2.49863 1.54745 0
M  V30 1266 H 112.837 -1.32503 0.938975 0
M  V30 1267 H 114.834 -4.16006 -0.272857 0
M  V30 1268 H 113.494 -3.13408 -0.84884 0
M  V30 1269 H 114.505 -4.4828 2.59356 0
M  V30 1270 H 111.182 -4.17488 0.0313293 0
M  V30 1271 H 112.572 -5.50912 3.84636 0
M  V30 1272 N 115.292 -0.849877 -1.32721 0
M  V30 1273 C 116.517 -0.463856 -2.02146 0
M  V30 1274 C 116.942 0.930449 -1.63476 0
M  V30 1275 O 116.3 1.61033 -0.832952 0
M  V30 1276 C 116.348 -0.604955 -3.55489 0
M  V30 1277 O 115.452 0.36425 -4.10788 0
M  V30 1278 H 114.793 -0.187046 -0.637111 0
M  V30 1279 H 117.323 -1.14775 -1.69375 0
M  V30 1280 H 117.333 -0.490696 -4.05038 0
M  V30 1281 H 116.008 -1.62174 -3.82978 0
M  V30 1282 H 114.585 0.206628 -3.72327 0
M  V30 1283 N 116.77 1.45427 -0.607355 0
M  V30 1284 C 117.7 2.3329 0.0989352 0
M  V30 1285 C 118.681 1.46816 0.859007 0
M  V30 1286 O 119.866 1.75588 0.829604 0
M  V30 1287 C 116.996 3.29518 1.09705 0
M  V30 1288 C 115.95 4.25626 0.450206 0
M  V30 1289 C 115.276 5.11542 1.55655 0
M  V30 1290 C 116.576 5.18505 -0.628455 0
M  V30 1291 H 118.27 2.92595 -0.634716 0
M  V30 1292 H 115.816 1.40696 -0.306681 0
M  V30 1293 H 117.769 3.89855 1.59971 0
M  V30 1294 H 116.493 2.68372 1.86129 0
M  V30 1295 H 115.152 3.66586 -0.0315886 0
M  V30 1296 H 114.8 4.46765 2.31107 0
M  V30 1297 H 114.5 5.76647 1.12925 0
M  V30 1298 H 116.024 5.74748 2.06148 0
M  V30 1299 H 117.438 5.72916 -0.209877 0
M  V30 1300 H 115.835 5.92085 -0.977489 0
M  V30 1301 H 116.905 4.60948 -1.50514 0
M  V30 1302 N 118.248 0.346503 1.53744 0
M  V30 1303 C 119.496 -0.248612 2.00565 0
M  V30 1304 C 119.817 -1.5083 1.23593 0
M  V30 1305 O 119.087 -1.92858 0.343912 0
M  V30 1306 H 117.667 -0.0948564 0.740953 0
M  V30 1307 H 120.329 0.468341 1.89189 0
M  V30 1308 H 119.425 -0.488994 3.08245 0
M  V30 1309 N 119.726 -1.57421 0.075193 0
M  V30 1310 C 121.142 -1.57099 -0.281444 0
M  V30 1311 C 121.342 -1.08486 -1.69803 0
M  V30 1312 O 120.398 -0.752279 -2.41033 0
M  V30 1313 C 121.711 -3.00571 -0.0880041 0
M  V30 1314 C 123.259 -3.12605 -0.157281 0
M  V30 1315 C 123.734 -4.57999 0.0079207 0
M  V30 1316 N 125.225 -4.63176 -0.0475725 0
M  V30 1317 C 125.96 -5.73373 0.0557876 0
M  V30 1318 N 125.456 -6.92473 0.21286 0
M  V30 1319 N 127.249 -5.621 -0.00152098 0
M  V30 1320 H 119.4 -1.87335 1.00098 0
M  V30 1321 H 121.663 -0.86377 0.390646 0
M  V30 1322 H 121.369 -3.40262 0.889629 0
M  V30 1323 H 121.243 -3.67754 -0.838875 0
M  V30 1324 H 123.63 -2.72798 -1.1254 0
M  V30 1325 H 123.711 -2.48053 0.62475 0
M  V30 1326 H 123.355 -4.98496 0.972824 0
M  V30 1327 H 123.285 -5.20586 -0.793556 0
M  V30 1328 H 125.776 -3.7753 -0.167244 0
M  V30 1329 H 126.089 -7.72279 0.283781 0
M  V30 1330 H 124.434 -6.94556 0.248267 0
M  V30 1331 H 127.625 -4.67938 -0.122958 0
M  V30 1332 H 127.798 -6.47948 0.0824844 0
M  V30 1333 N 121.204 0.198386 -1.56346 0
M  V30 1334 C 122.452 0.91747 -1.80075 0
M  V30 1335 C 122.773 1.83929 -0.647692 0
M  V30 1336 O 122.043 1.93029 0.334166 0
M  V30 1337 H 120.623 0.341774 -0.664228 0
M  V30 1338 H 123.285 0.204684 -1.93822 0
M  V30 1339 H 122.381 1.51055 -2.7311 0
M  V30 1340 N 122.682 1.50554 0.465978 0
M  V30 1341 C 123.91 1.65563 1.24083 0
M  V30 1342 C 124.325 0.341051 1.85694 0
M  V30 1343 O 123.682 -0.677543 1.69457 0
M  V30 1344 C 123.733 2.75051 2.34583 0
M  V30 1345 O 123.454 4.01413 1.75497 0
M  V30 1346 C 124.955 3.01078 3.25372 0
M  V30 1347 H 122.175 0.55638 0.375077 0
M  V30 1348 H 124.719 1.96807 0.555624 0
M  V30 1349 H 122.874 2.46486 2.9887 0
M  V30 1350 H 123.288 4.62002 2.48303 0
M  V30 1351 H 124.762 3.81339 3.99105 0
M  V30 1352 H 125.239 2.12349 3.84453 0
M  V30 1353 H 125.845 3.31194 2.66816 0
M  V30 1354 N 124.16 -0.719506 1.40217 0
M  V30 1355 C 125.408 -1.47641 1.3801 0
M  V30 1356 C 125.729 -1.94992 -0.018145 0
M  V30 1357 O 124.999 -1.70073 -0.972207 0
M  V30 1358 H 123.579 -0.547744 0.507923 0
M  V30 1359 H 126.241 -0.853187 1.75233 0
M  V30 1360 H 125.337 -2.35112 2.05253 0
M  V30 1361 N 125.638 -1.25649 -0.95132 0
M  V30 1362 C 126.863 -1.13443 -1.73624 0
M  V30 1363 C 127.288 0.307565 -1.85568 0
M  V30 1364 O 126.646 1.22282 -1.33854 0
M  V30 1365 C 126.694 -1.79723 -3.12621 0
M  V30 1366 O 125.798 -1.07912 -3.98031 0
M  V30 1367 H 125.139 -0.395872 -0.533086 0
M  V30 1368 H 127.669 -1.66276 -1.1922 0
M  V30 1369 H 127.679 -1.86141 -3.63064 0
M  V30 1370 H 126.354 -2.84633 -3.03244 0
M  V30 1371 H 124.931 -1.09398 -3.56492 0
M  V30 1372 N 127.117 1.15442 -1.07289 0
M  V30 1373 C 128.394 1.82306 -0.708792 0
M  V30 1374 C 128.774 1.94991 0.808807 0
M  V30 1375 O 128.122 1.50085 1.72298 0
M  V30 1376 C 128.332 3.18695 -1.42247 0
M  V30 1377 C 129.68 3.94341 -1.57417 0
M  V30 1378 O 130.704 3.28247 -1.38319 0
M  V30 1379 O 129.563 5.12839 -1.88834 0
M  V30 1380 H 126.657 0.787628 -0.252132 0
M  V30 1381 H 129.203 1.22559 -1.17377 0
M  V30 1382 H 127.975 3.04557 -2.45684 0
M  V30 1383 H 127.598 3.86128 -0.948223 0
M  V30 1384 N 128.595 0.856903 1.32268 0
M  V30 1385 C 129.841 0.462069 1.97466 0
M  V30 1386 C 130.174 -0.980298 1.67642 0
M  V30 1387 O 129.449 -1.68824 0.965858 0
M  V30 1388 C 129.732 0.704336 3.53145 0
M  V30 1389 C 129.585 2.19529 3.9259 0
M  V30 1390 C 130.904 0.1622 4.39801 0
M  V30 1391 H 128.023 0.169357 0.717278 0
M  V30 1392 H 130.665 1.07574 1.56614 0
M  V30 1393 H 128.815 0.181999 3.88073 0
M  V30 1394 H 130.487 2.78387 3.67829 0
M  V30 1395 H 128.73 2.67292 3.41668 0
M  V30 1396 H 129.401 2.31549 5.01088 0
M  V30 1397 H 131.877 0.608905 4.11621 0
M  V30 1398 H 130.753 0.361265 5.4771 0
M  V30 1399 H 131.014 -0.935158 4.32096 0
M  V30 1400 N 130.073 -1.45103 0.615059 0
M  V30 1401 C 131.301 -2.06553 0.11977 0
M  V30 1402 C 131.716 -1.45842 -1.19898 0
M  V30 1403 O 131.073 -0.575325 -1.73194 0
M  V30 1404 C 131.124 -3.61495 -0.018364 0
M  V30 1405 O 130.845 -4.19942 1.24822 0
M  V30 1406 C 132.346 -4.39947 -0.544237 0
M  V30 1407 H 129.566 -0.667096 0.0722739 0
M  V30 1408 H 132.11 -1.8623 0.84491 0
M  V30 1409 H 130.265 -3.81135 -0.693865 0
M  V30 1410 H 130.679 -5.13204 1.0827 0
M  V30 1411 H 132.153 -5.48838 -0.589953 0
M  V30 1412 H 132.63 -4.10255 -1.56805 0
M  V30 1413 H 133.236 -4.25188 0.0974703 0
M  V30 1414 N 131.551 -0.354651 -1.53558 0
M  V30 1415 C 132.776 0.242153 -2.05981 0
M  V30 1416 C 133.201 1.42553 -1.2272 0
M  V30 1417 O 132.559 1.79656 -0.243604 0
M  V30 1418 C 132.607 0.624367 -3.55154 0
M  V30 1419 O 131.711 1.72301 -3.74681 0
M  V30 1420 H 131.052 0.0378432 -0.662921 0
M  V30 1421 H 133.582 -0.512087 -1.98088 0
M  V30 1422 H 133.592 0.898433 -3.97985 0
M  V30 1423 H 132.267 -0.240989 -4.15201 0
M  V30 1424 H 130.844 1.44535 -3.4375 0
M  V30 1425 N 133.029 1.57378 -0.0835403 0
M  V30 1426 C 134.276 1.9393 0.58287 0
M  V30 1427 C 134.604 0.964455 1.68904 0
M  V30 1428 O 133.859 -0.0179474 1.95692 0
M  V30 1429 C 134.158 3.37063 1.1884 0
M  V30 1430 C 133.824 4.50424 0.207194 0
M  V30 1431 C 132.486 4.81159 -0.0627115 0
M  V30 1432 C 134.838 5.19136 -0.463426 0
M  V30 1433 C 132.166 5.77939 -1.01012 0
M  V30 1434 C 134.518 6.16931 -1.39924 0
M  V30 1435 C 133.182 6.46078 -1.67749 0
M  V30 1436 H 132.452 0.70964 0.213287 0
M  V30 1437 H 135.099 1.90856 -0.156916 0
M  V30 1438 H 133.404 3.3666 2.00418 0
M  V30 1439 H 135.101 3.6264 1.71153 0
M  V30 1440 H 131.691 4.2646 0.427747 0
M  V30 1441 H 135.875 4.95576 -0.268034 0
M  V30 1442 H 131.131 5.98842 -1.23283 0
M  V30 1443 H 135.305 6.69273 -1.92476 0
M  V30 1444 H 132.932 7.2088 -2.41321 0
M  V30 1445 N 134.507 -0.190092 1.56449 0
M  V30 1446 C 135.437 -1.23816 1.97969 0
M  V30 1447 C 136.418 -1.47201 0.852395 0
M  V30 1448 O 137.603 -1.58854 1.1171 0
M  V30 1449 C 134.733 -2.5813 2.3235 0
M  V30 1450 C 133.687 -2.49348 3.47864 0
M  V30 1451 C 133.013 -3.8798 3.67934 0
M  V30 1452 C 134.313 -2.01424 4.81898 0
M  V30 1453 H 136.007 -0.89311 2.85769 0
M  V30 1454 H 133.553 -0.428177 1.37487 0
M  V30 1455 H 135.506 -3.31637 2.59991 0
M  V30 1456 H 134.23 -2.94386 1.41438 0
M  V30 1457 H 132.889 -1.78297 3.20321 0
M  V30 1458 H 132.537 -4.21597 2.74344 0
M  V30 1459 H 132.237 -3.82978 4.45648 0
M  V30 1460 H 133.761 -4.63101 3.97957 0
M  V30 1461 H 135.175 -2.64693 5.08538 0
M  V30 1462 H 133.572 -2.07413 5.63116 0
M  V30 1463 H 134.642 -0.967677 4.75146 0
M  V30 1464 N 135.985 -1.50799 -0.457987 0
M  V30 1465 C 136.918 -1.65273 -1.57353 0
M  V30 1466 C 137.896 -0.500578 -1.54703 0
M  V30 1467 O 139.08 -0.721781 -1.74134 0
M  V30 1468 C 136.207 -1.64737 -2.95938 0
M  V30 1469 C 135.253 -2.8567 -3.16693 0
M  V30 1470 S 136.086 -4.46791 -2.95191 0
M  V30 1471 C 137.242 -4.48968 -4.36095 0
M  V30 1472 H 137.475 -2.59633 -1.44838 0
M  V30 1473 H 135.008 -1.40225 -0.64625 0
M  V30 1474 H 136.966 -1.65112 -3.7583 0
M  V30 1475 H 135.627 -0.715899 -3.05833 0
M  V30 1476 H 134.82 -2.81637 -4.17967 0
M  V30 1477 H 134.422 -2.8293 -2.44594 0
M  V30 1478 H 136.714 -4.23337 -5.28954 0
M  V30 1479 H 137.657 -5.50664 -4.45168 0
M  V30 1480 H 138.065 -3.78522 -4.18786 0
M  V30 1481 N 137.463 0.71206 -1.40597 0
M  V30 1482 C 138.373 1.8562 -1.43466 0
M  V30 1483 C 139.389 1.70902 -0.326902 0
M  V30 1484 O 140.565 1.93105 -0.572043 0
M  V30 1485 C 137.63 3.21451 -1.29884 0
M  V30 1486 C 136.691 3.48398 -2.50833 0
M  V30 1487 C 135.924 4.77749 -2.3789 0
M  V30 1488 O 136.147 5.53089 -1.39459 0
M  V30 1489 O 135.081 5.05111 -3.27333 0
M  V30 1490 H 138.907 1.86155 -2.39958 0
M  V30 1491 H 136.492 0.86295 -1.21957 0
M  V30 1492 H 138.374 4.02579 -1.24531 0
M  V30 1493 H 137.049 3.21636 -0.364997 0
M  V30 1494 H 135.956 2.67265 -2.61763 0
M  V30 1495 H 137.289 3.53014 -3.4299 0
M  V30 1496 N 138.941 1.26152 0.944643 0
M  V30 1497 C 140.187 1.12665 1.69346 0
M  V30 1498 C 140.542 -0.3273 1.89596 0
M  V30 1499 O 139.835 -1.23717 1.46303 0
M  V30 1500 C 140.029 1.82541 3.07268 0
M  V30 1501 C 139.858 3.34582 3.00475 0
M  V30 1502 C 138.628 4.03863 3.03681 0
M  V30 1503 C 140.826 4.30828 2.80877 0
M  V30 1504 N 138.808 5.42603 2.87151 0
M  V30 1505 C 140.179 5.5672 2.7288 0
M  V30 1506 C 142.234 4.21122 2.65633 0
M  V30 1507 C 140.937 6.74013 2.51196 0
M  V30 1508 C 142.963 5.38118 2.45323 0
M  V30 1509 C 142.325 6.62955 2.38055 0
M  V30 1510 H 138.424 0.467041 0.627214 0
M  V30 1511 H 141.008 1.59391 1.11815 0
M  V30 1512 H 139.179 1.38296 3.62945 0
M  V30 1513 H 140.911 1.61708 3.70989 0
M  V30 1514 H 137.666 3.55198 3.1326 0
M  V30 1515 H 138.09 6.15443 2.82063 0
M  V30 1516 H 142.732 3.25344 2.70021 0
M  V30 1517 H 140.45 7.6989 2.4555 0
M  V30 1518 H 144.036 5.32475 2.34439 0
M  V30 1519 H 142.916 7.51959 2.22546 0
M  V30 1520 N 140.419 -1.14872 1.07899 0
M  V30 1521 C 141.349 -2.2193 0.725887 0
M  V30 1522 C 142.33 -1.67622 -0.28927 0
M  V30 1523 O 143.515 -1.93533 -0.160787 0
M  V30 1524 C 140.645 -3.47061 0.128856 0
M  V30 1525 C 139.599 -4.14363 1.07178 0
M  V30 1526 C 138.925 -5.33636 0.337229 0
M  V30 1527 C 140.225 -4.63492 2.40775 0
M  V30 1528 H 141.919 -2.51724 1.62097 0
M  V30 1529 H 139.465 -1.20991 0.780838 0
M  V30 1530 H 141.418 -4.21199 -0.130147 0
M  V30 1531 H 140.142 -3.16617 -0.80134 0
M  V30 1532 H 138.801 -3.42173 1.3158 0
M  V30 1533 H 138.449 -4.99449 -0.596606 0
M  V30 1534 H 138.149 -5.79609 0.965788 0
M  V30 1535 H 139.673 -6.10539 0.0861567 0
M  V30 1536 H 141.087 -5.2913 2.20669 0
M  V30 1537 H 139.484 -5.20148 2.99276 0
M  V30 1538 H 140.554 -3.78834 3.02676 0
M  V30 1539 N 141.898 -0.863906 -1.31812 0
M  V30 1540 C 143.123 -0.48527 -2.01643 0
M  V30 1541 C 143.548 0.913058 -1.64453 0
M  V30 1542 O 142.906 1.6014 -0.849985 0
M  V30 1543 C 142.954 -0.642625 -3.54828 0
M  V30 1544 O 142.058 0.320659 -4.11151 0
M  V30 1545 H 141.399 -0.193793 -0.635091 0
M  V30 1546 H 143.929 -1.16565 -1.68148 0
M  V30 1547 H 143.939 -0.533628 -4.04495 0
M  V30 1548 H 142.614 -1.66227 -3.81237 0
M  V30 1549 H 141.191 0.167126 -3.72525 0
M  V30 1550 N 143.376 1.44774 -0.622745 0
M  V30 1551 C 144.622 2.0242 -0.124083 0
M  V30 1552 C 144.955 1.4881 1.24777 0
M  V30 1553 O 144.23 0.668799 1.8264 0
M  V30 1554 C 144.513 3.59957 -0.101619 0
M  V30 1555 C 144.366 4.23867 -1.50521 0
M  V30 1556 C 145.685 4.36284 0.578272 0
M  V30 1557 H 142.804 0.735528 -0.0465645 0
M  V30 1558 H 145.446 1.72447 -0.797617 0
M  V30 1559 H 143.596 3.85623 0.471934 0
M  V30 1560 H 145.268 4.09336 -2.12701 0
M  V30 1561 H 143.511 3.81684 -2.06154 0
M  V30 1562 H 144.182 5.32843 -1.4416 0
M  V30 1563 H 146.658 4.16001 0.0906057 0
M  V30 1564 H 145.534 5.46004 0.563149 0
M  V30 1565 H 145.795 4.10271 1.64713 0
M  V30 1566 N 144.854 0.36279 1.53368 0
M  V30 1567 C 145.802 -0.500155 2.27159 0
M  V30 1568 C 146.796 -1.08575 1.3003 0
M  V30 1569 O 148.002 -1.02927 1.47668 0
M  V30 1570 H 144.377 -0.180009 0.730138 0
M  V30 1571 H 146.348 0.14401 2.98052 0
M  V30 1572 C 145.097 -1.62937 3.07159 0
M  V30 1573 H 144.42 -1.18806 3.8174 0
M  V30 1574 H 145.86 -2.20795 3.61975 0
M  V30 1575 C 144.319 -2.57007 2.17829 0
M  V30 1576 O 144.849 -3.59752 1.78721 0
M  V30 1577 N 143.055 -2.26131 1.82518 0
M  V30 1578 H 142.602 -1.42616 2.14519 0
M  V30 1579 H 142.56 -2.89327 1.23034 0
M  V30 1580 N 146.332 -1.57332 0.0918853 0
M  V30 1581 C 147.562 -1.98286 -0.580205 0
M  V30 1582 C 147.97 -0.969713 -1.6246 0
M  V30 1583 O 147.313 0.0493501 -1.83634 0
M  V30 1584 C 147.375 -3.35603 -1.28882 0
M  V30 1585 C 147.039 -4.55285 -0.395559 0
M  V30 1586 C 148.036 -5.18687 0.355002 0
M  V30 1587 C 145.721 -5.01314 -0.314556 0
M  V30 1588 C 147.715 -6.26484 1.17458 0
M  V30 1589 C 145.402 -6.08979 0.508677 0
M  V30 1590 C 146.4 -6.71429 1.2519 0
M  V30 1591 O 146.088 -7.77018 2.06151 0
M  V30 1592 H 145.82 -0.656678 -0.160466 0
M  V30 1593 H 148.374 -2.04721 0.16688 0
M  V30 1594 H 146.604 -3.25842 -2.08241 0
M  V30 1595 H 148.293 -3.61026 -1.85512 0
M  V30 1596 H 149.059 -4.84058 0.302134 0
M  V30 1597 H 144.938 -4.5247 -0.882697 0
M  V30 1598 H 148.482 -6.75159 1.75518 0
M  V30 1599 H 144.379 -6.4304 0.563037 0
M  V30 1600 H 145.147 -7.93991 1.98799 0
M  V30 1601 N 147.81 0.181792 -1.56548 0
M  V30 1602 C 149.058 0.89832 -1.81038 0
M  V30 1603 C 149.379 1.83232 -0.667164 0
M  V30 1604 O 148.649 1.93372 0.313673 0
M  V30 1605 H 147.229 0.33471 -0.667816 0
M  V30 1606 H 149.891 0.184116 -1.94028 0
M  V30 1607 H 148.987 1.4815 -2.74696 0
M  V30 1608 N 149.288 1.51039 0.449983 0
M  V30 1609 C 150.235 1.71439 1.54523 0
M  V30 1610 C 151.205 0.555871 1.56522 0
M  V30 1611 O 152.39 0.788871 1.73728 0
M  V30 1612 C 149.53 1.83384 2.92343 0
M  V30 1613 C 148.643 3.10873 2.9997 0
M  V30 1614 C 147.778 3.13488 4.28834 0
M  V30 1615 C 146.817 4.35343 4.30282 0
M  V30 1616 N 145.954 4.35579 5.5065 0
M  V30 1617 H 150.794 2.64934 1.36433 0
M  V30 1618 H 148.331 1.31312 0.662982 0
M  V30 1619 H 150.289 1.88291 3.72293 0
M  V30 1620 H 148.919 0.933086 3.0902 0
M  V30 1621 H 147.971 3.15336 2.12761 0
M  V30 1622 H 149.283 4.00814 2.96901 0
M  V30 1623 H 148.437 3.17241 5.17149 0
M  V30 1624 H 147.176 2.21414 4.34543 0
M  V30 1625 H 146.181 4.3178 3.40362 0
M  V30 1626 H 147.406 5.28668 4.26248 0
M  V30 1627 H 145.352 3.46369 5.57104 0
M  V30 1628 H 145.269 5.19313 5.49409 0
M  V30 1629 H 146.537 4.43507 6.41032 0
M  V30 1630 N 150.766 -0.704594 1.40972 0
M  V30 1631 C 151.713 -1.81862 1.42109 0
M  V30 1632 C 152.683 -1.63781 0.276593 0
M  V30 1633 O 153.868 -1.84759 0.4763 0
M  V30 1634 C 151.008 -3.19669 1.30022 0
M  V30 1635 C 150.121 -3.49246 2.54267 0
M  V30 1636 C 149.256 -4.76618 2.3454 0
M  V30 1637 C 148.295 -4.99133 3.54306 0
M  V30 1638 N 147.432 -6.17726 3.33706 0
M  V30 1639 H 152.272 -1.80226 2.37324 0
M  V30 1640 H 149.809 -0.880238 1.17857 0
M  V30 1641 H 151.767 -3.99263 1.21018 0
M  V30 1642 H 150.397 -3.20506 0.384192 0
M  V30 1643 H 149.449 -2.64125 2.73756 0
M  V30 1644 H 150.761 -3.61788 3.43381 0
M  V30 1645 H 149.915 -5.64249 2.22952 0
M  V30 1646 H 148.654 -4.66305 1.42867 0
M  V30 1647 H 147.659 -4.09953 3.66359 0
M  V30 1648 H 148.884 -5.11311 4.4692 0
M  V30 1649 H 146.83 -6.08642 2.44725 0
M  V30 1650 H 146.747 -6.30995 4.16391 0
M  V30 1651 H 148.015 -7.08115 3.25873 0
M  V30 1652 N 152.244 -1.26651 -0.937939 0
M  V30 1653 C 153.469 -1.15279 -1.72411 0
M  V30 1654 C 153.894 0.287866 -1.85884 0
M  V30 1655 O 153.252 1.20855 -1.35143 0
M  V30 1656 C 153.3 -1.83028 -3.10698 0
M  V30 1657 O 152.404 -1.12128 -3.96864 0
M  V30 1658 H 151.745 -0.401504 -0.528858 0
M  V30 1659 H 154.275 -1.67531 -1.1745 0
M  V30 1660 H 154.285 -1.89981 -3.6107 0
M  V30 1661 H 152.96 -2.87833 -3.00208 0
M  V30 1662 H 151.537 -1.13173 -3.55312 0
M  V30 1663 N 153.722 1.14298 -1.08507 0
M  V30 1664 C 154.669 2.19414 -0.715965 0
M  V30 1665 C 155.639 1.63399 0.298326 0
M  V30 1666 O 156.824 1.89929 0.182101 0
M  V30 1667 C 153.964 3.44845 -0.132534 0
M  V30 1668 C 153.077 4.15007 -1.19973 0
M  V30 1669 C 152.212 5.28024 -0.580048 0
M  V30 1670 C 151.251 5.9002 -1.62921 0
M  V30 1671 N 150.388 6.94485 -1.03125 0
M  V30 1672 H 155.228 2.50336 -1.61666 0
M  V30 1673 H 152.765 1.2293 -0.807882 0
M  V30 1674 H 154.723 4.16601 0.223454 0
M  V30 1675 H 153.353 3.14403 0.731467 0
M  V30 1676 H 152.405 3.41629 -1.67313 0
M  V30 1677 H 153.717 4.57178 -1.99473 0
M  V30 1678 H 152.871 6.06455 -0.172364 0
M  V30 1679 H 151.61 4.87076 0.246603 0
M  V30 1680 H 150.615 5.10291 -2.04654 0
M  V30 1681 H 151.84 6.33042 -2.45835 0
M  V30 1682 H 149.786 6.55612 -0.225711 0
M  V30 1683 H 149.703 7.35148 -1.76334 0
M  V30 1684 H 150.971 7.7679 -0.649458 0
M  V30 1685 N 155.201 0.870884 1.31352 0
M  V30 1686 C 156.131 0.343096 2.30966 0
M  V30 1687 C 157.112 -0.566507 1.60389 0
M  V30 1688 O 158.297 -0.483336 1.88089 0
M  V30 1689 C 155.427 -0.455487 3.443 0
M  V30 1690 C 154.381 0.361103 4.26474 0
M  V30 1691 C 153.707 -0.563221 5.31725 0
M  V30 1692 C 155.007 1.59566 4.97329 0
M  V30 1693 H 156.701 1.17548 2.75359 0
M  V30 1694 H 154.247 0.566686 1.32381 0
M  V30 1695 H 156.2 -0.83525 4.13039 0
M  V30 1696 H 154.924 -1.32139 2.98675 0
M  V30 1697 H 153.583 0.722825 3.59403 0
M  V30 1698 H 153.231 -1.42643 4.82351 0
M  V30 1699 H 152.931 -0.0207409 5.87596 0
M  V30 1700 H 154.455 -0.939808 6.03324 0
M  V30 1701 H 155.869 1.28728 5.58661 0
M  V30 1702 H 154.266 2.07728 5.63 0
M  V30 1703 H 155.336 2.34798 4.24262 0
M  V30 1704 N 156.679 -1.44442 0.630414 0
M  V30 1705 C 157.927 -2.01653 0.134351 0
M  V30 1706 C 158.248 -1.49836 -1.24796 0
M  V30 1707 O 157.518 -0.701684 -1.82902 0
M  V30 1708 H 156.098 -0.74554 0.0466769 0
M  V30 1709 H 158.76 -1.76952 0.816955 0
M  V30 1710 H 157.856 -3.11935 0.101498 0
M  V30 1711 N 158.157 -0.370918 -1.53173 0
M  V30 1712 C 159.404 0.217102 -2.01333 0
M  V30 1713 C 159.732 1.48338 -1.25802 0
M  V30 1714 O 158.987 1.92698 -0.34146 0
M  V30 1715 C 159.286 0.549696 -3.53147 0
M  V30 1716 C 158.952 -0.622872 -4.46577 0
M  V30 1717 C 157.614 -0.944595 -4.71838 0
M  V30 1718 C 159.966 -1.40819 -5.01816 0
M  V30 1719 C 157.294 -2.05351 -5.49589 0
M  V30 1720 C 159.646 -2.50757 -5.80778 0
M  V30 1721 C 158.31 -2.83458 -6.04324 0
M  V30 1722 H 157.58 0.0794431 -0.736729 0
M  V30 1723 H 160.227 -0.504481 -1.84736 0
M  V30 1724 H 158.532 1.35237 -3.6772 0
M  V30 1725 H 160.229 1.017 -3.87889 0
M  V30 1726 H 156.819 -0.36209 -4.27068 0
M  V30 1727 H 161.003 -1.17289 -4.82242 0
M  V30 1728 H 156.259 -2.3108 -5.6605 0
M  V30 1729 H 160.433 -3.12022 -6.22588 0
M  V30 1730 H 158.06 -3.69508 -6.64355 0
M  V30 1731 N 159.635 1.57281 -0.100228 0
M  V30 1732 C 160.86 1.99302 0.573881 0
M  V30 1733 C 161.285 0.979059 1.60611 0
M  V30 1734 O 160.643 -0.0517803 1.81226 0
M  V30 1735 C 160.691 3.40274 1.19358 0
M  V30 1736 O 159.795 3.41676 2.30935 0
M  V30 1737 H 159.136 0.647944 0.145138 0
M  V30 1738 H 161.666 2.03779 -0.183156 0
M  V30 1739 H 161.676 3.78078 1.53365 0
M  V30 1740 H 160.351 4.13594 0.437385 0
M  V30 1741 H 158.928 3.15672 1.98509 0
M  V30 1742 N 161.113 -0.173488 1.56642 0
M  V30 1743 C 162.362 -0.888758 1.81063 0
M  V30 1744 C 162.675 -1.83506 0.67712 0
M  V30 1745 O 163.881 -2.59254 0.806206 0
M  V30 1746 C 162.337 -1.63091 3.20826 0
M  V30 1747 C 161.945 -0.728357 4.4204 0
M  V30 1748 C 163.689 -2.33454 3.54541 0
M  V30 1749 C 161.596 -1.47062 5.72823 0
M  V30 1750 H 160.526 -0.335618 0.675186 0
M  V30 1751 H 163.177 -0.141712 1.82952 0
M  V30 1752 H 161.559 -2.42263 3.13248 0
M  V30 1753 H 162.733 0.0262449 4.60793 0
M  V30 1754 H 161.048 -0.134492 4.16183 0
M  V30 1755 H 163.645 -2.89578 4.49498 0
M  V30 1756 H 163.988 -3.08687 2.79317 0
M  V30 1757 H 164.521 -1.61227 3.63663 0
M  V30 1758 H 161.26 -0.760658 6.51072 0
M  V30 1759 H 160.78 -2.1986 5.58052 0
M  V30 1760 H 162.459 -2.01868 6.14702 0
M  V30 1761 N 162.591 -1.51276 -0.441967 0
M  V30 1762 C 163.821 -1.67273 -1.21257 0
M  V30 1763 C 164.229 -0.367624 -1.85594 0
M  V30 1764 O 163.572 0.663349 -1.71305 0
M  V30 1765 C 163.634 -2.72807 -2.34129 0
M  V30 1766 C 163.298 -4.1554 -1.90198 0
M  V30 1767 C 164.295 -5.00471 -1.40801 0
M  V30 1768 C 161.98 -4.61616 -1.9803 0
M  V30 1769 C 163.974 -6.29536 -0.998174 0
M  V30 1770 C 161.661 -5.90679 -1.56658 0
M  V30 1771 C 162.659 -6.74466 -1.07633 0
M  V30 1772 O 162.347 -8.01116 -0.668459 0
M  V30 1773 H 162.079 -0.564614 -0.371734 0
M  V30 1774 H 164.633 -1.9843 -0.530521 0
M  V30 1775 H 162.863 -2.36954 -3.05597 0
M  V30 1776 H 164.552 -2.77729 -2.96009 0
M  V30 1777 H 165.318 -4.66079 -1.34148 0
M  V30 1778 H 161.197 -3.96526 -2.35135 0
M  V30 1779 H 164.741 -6.94885 -0.61482 0
M  V30 1780 H 160.638 -6.24586 -1.62979 0
M  V30 1781 H 161.406 -8.14633 -0.794722 0
M  V30 1782 N 164.069 0.697108 -1.41344 0
M  V30 1783 C 165.48 1.27697 -1.36199 0
M  V30 1784 C 165.831 1.9615 -0.0443463 0
M  V30 1785 O 164.956 1.98689 0.857419 0
M  V30 1786 C 165.551 2.32223 -2.46694 0
M  V30 1787 C 164.11 2.8579 -2.44952 0
M  V30 1788 C 163.257 1.59807 -2.26621 0
M  V30 1789 H 166.208 0.491968 -1.50882 0
M  V30 1790 H 166.229 3.1348 -2.15664 0
M  V30 1791 H 165.741 1.82373 -3.42581 0
M  V30 1792 H 163.842 3.3982 -1.52817 0
M  V30 1793 H 163.955 3.36325 -3.41207 0
M  V30 1794 H 162.319 1.8556 -1.7447 0
M  V30 1795 H 163.102 1.11956 -3.24532 0
M  V30 1796 N 165.547 1.27147 0.931209 0
M  V30 1797 C 166.51 1.09615 2.01289 0
M  V30 1798 C 167.51 0.0412581 1.60747 0
M  V30 1799 O 168.7 0.285545 1.71844 0
M  V30 1800 C 165.832 0.669447 3.34262 0
M  V30 1801 H 167.025 2.05662 2.18273 0
M  V30 1802 H 164.578 1.09885 1.11153 0
M  V30 1803 H 165.313 -0.292572 3.22978 0
M  V30 1804 H 165.098 1.43127 3.65044 0
M  V30 1805 H 166.588 0.568921 4.13706 0
M  V30 1806 N 167.025 -1.13721 1.09112 0
M  V30 1807 C 168.436 -1.6648 0.845068 0
M  V30 1808 C 168.787 -1.85911 -0.62701 0
M  V30 1809 O 167.912 -1.57556 -1.48341 0
M  V30 1810 C 168.507 -3.02413 1.52748 0
M  V30 1811 C 167.066 -3.52176 1.32849 0
M  V30 1812 C 166.213 -2.27492 1.58564 0
M  V30 1813 H 169.164 -0.976872 1.25072 0
M  V30 1814 H 169.185 -3.68223 0.958752 0
M  V30 1815 H 168.697 -2.88238 2.59885 0
M  V30 1816 H 166.798 -3.7156 0.278137 0
M  V30 1817 H 166.911 -4.32499 2.0611 0
M  V30 1818 H 165.275 -2.33923 1.00758 0
M  V30 1819 H 166.058 -2.15886 2.66924 0
M  V30 1820 N 168.503 -0.877838 -1.30888 0
M  V30 1821 C 169.435 -0.296607 -2.27273 0
M  V30 1822 C 170.448 0.544799 -1.53414 0
M  V30 1823 O 171.637 0.365511 -1.74718 0
M  V30 1824 C 168.737 0.597481 -3.33592 0
M  V30 1825 C 167.91 -0.213251 -4.3688 0
M  V30 1826 C 166.969 0.610208 -5.2265 0
M  V30 1827 O 165.995 0.035441 -5.69189 0
M  V30 1828 N 167.197 1.92071 -5.47804 0
M  V30 1829 H 169.962 -1.12492 -2.77787 0
M  V30 1830 H 167.523 -0.740105 -1.43993 0
M  V30 1831 H 169.515 1.15425 -3.87891 0
M  V30 1832 H 168.085 1.32647 -2.83061 0
M  V30 1833 H 167.305 -0.951466 -3.82545 0
M  V30 1834 H 168.593 -0.769262 -5.02951 0
M  V30 1835 H 167.991 2.4107 -5.11763 0
M  V30 1836 H 166.548 2.42508 -6.05007 0
M  V30 1837 N 169.982 1.44106 -0.638065 0
M  V30 1838 C 171.228 2.02277 -0.145546 0
M  V30 1839 C 171.561 1.50125 1.23191 0
M  V30 1840 O 170.836 0.688133 1.8192 0
M  V30 1841 C 171.119 3.59829 -0.139791 0
M  V30 1842 C 170.972 4.22247 -1.55008 0
M  V30 1843 C 172.291 4.36873 0.531966 0
M  V30 1844 H 169.41 0.734992 -0.0543632 0
M  V30 1845 H 172.052 1.71592 -0.815863 0
M  V30 1846 H 170.202 3.86102 0.431007 0
M  V30 1847 H 171.874 4.07057 -2.1703 0
M  V30 1848 H 170.117 3.79476 -2.10191 0
M  V30 1849 H 170.788 5.31284 -1.49804 0
M  V30 1850 H 173.264 4.16074 0.0464781 0
M  V30 1851 H 172.14 5.4657 0.505206 0
M  V30 1852 H 172.401 4.11995 1.60352 0
M  V30 1853 N 171.46 0.379036 1.52974 0
M  V30 1854 C 172.685 -0.209353 2.06341 0
M  V30 1855 C 173.11 -1.40583 1.24972 0
M  V30 1856 O 172.468 -1.79246 0.272155 0
M  V30 1857 C 172.516 -0.567786 3.56102 0
M  V30 1858 O 171.62 -1.66318 3.77375 0
M  V30 1859 H 170.961 -0.0272919 0.663439 0
M  V30 1860 H 173.491 0.543536 1.97248 0
M  V30 1861 H 173.501 -0.835003 3.99364 0
M  V30 1862 H 172.176 0.307013 4.14765 0
M  V30 1863 H 170.753 -1.39048 3.46006 0
M  V30 1864 N 172.938 -1.57226 0.108567 0
M  V30 1865 C 174.166 -1.99179 -0.559954 0
M  V30 1866 C 174.581 -0.988022 -1.60884 0
M  V30 1867 O 173.938 0.0205512 -1.82488 0
M  V30 1868 C 173.989 -3.41159 -1.19552 0
M  V30 1869 O 173.71 -4.37694 -0.188577 0
M  V30 1870 C 175.211 -3.98188 -1.94837 0
M  V30 1871 H 172.431 -0.654228 -0.149088 0
M  V30 1872 H 174.975 -2.03598 0.19183 0
M  V30 1873 H 173.13 -3.37711 -1.89815 0
M  V30 1874 H 173.544 -5.20469 -0.649014 0
M  V30 1875 H 175.018 -4.99644 -2.34648 0
M  V30 1876 H 175.495 -3.3675 -2.81951 0
M  V30 1877 H 176.101 -4.0515 -1.2936 0
M  V30 1878 N 174.416 0.165178 -1.56732 0
M  V30 1879 C 175.379 1.18822 -1.95995 0
M  V30 1880 C 176.379 1.3685 -0.84431 0
M  V30 1881 O 177.569 1.34152 -1.11126 0
M  V30 1882 C 174.701 2.5521 -2.26011 0
M  V30 1883 H 175.894 0.851825 -2.87548 0
M  V30 1884 H 173.447 0.407857 -1.50885 0
M  V30 1885 H 174.182 2.93852 -1.37191 0
M  V30 1886 H 173.967 2.43489 -3.07336 0
M  V30 1887 H 175.457 3.28927 -2.57288 0
M  V30 1888 N 175.894 1.51508 0.433938 0
M  V30 1889 C 176.827 1.67756 1.54704 0
M  V30 1890 C 177.805 0.525127 1.53887 0
M  V30 1891 O 178.989 0.749393 1.72963 0
M  V30 1892 C 176.116 1.69424 2.9328 0
M  V30 1893 C 175.162 2.90673 3.12108 0
M  V30 1894 S 175.995 4.51431 2.88046 0
M  V30 1895 C 177.151 4.55849 4.28897 0
M  V30 1896 H 177.384 2.61904 1.40689 0
M  V30 1897 H 174.917 1.41235 0.62386 0
M  V30 1898 H 176.875 1.7107 3.73156 0
M  V30 1899 H 175.536 0.764464 3.04655 0
M  V30 1900 H 174.729 2.88251 4.13434 0
M  V30 1901 H 174.331 2.86786 2.40062 0
M  V30 1902 H 176.623 4.31699 5.22152 0
M  V30 1903 H 177.566 5.57676 4.36351 0
M  V30 1904 H 177.974 3.85137 4.12711 0
M  V30 1905 N 177.372 -0.689602 1.41712 0
M  V30 1906 C 178.618 -1.45181 1.41599 0
M  V30 1907 C 178.951 -1.94181 0.0270081 0
M  V30 1908 O 178.226 -1.6993 -0.946265 0
M  V30 1909 C 178.509 -2.65945 2.42787 0
M  V30 1910 C 178.362 -2.22672 3.90816 0
M  V30 1911 C 179.681 -3.68149 2.41151 0
M  V30 1912 H 176.8 -0.526576 0.515642 0
M  V30 1913 H 179.442 -0.784947 1.73028 0
M  V30 1914 H 177.592 -3.2284 2.16116 0
M  V30 1915 H 179.264 -1.71058 4.28412 0
M  V30 1916 H 177.507 -1.54394 4.05395 0
M  V30 1917 H 178.178 -3.0935 4.57172 0
M  V30 1918 H 180.654 -3.2094 2.64834 0
M  V30 1919 H 179.53 -4.50248 3.13955 0
M  V30 1920 H 179.791 -4.18259 1.43221 0
M  V30 1921 N 178.85 -1.27639 -0.924453 0
M  V30 1922 C 179.782 -1.06442 -2.02985 0
M  V30 1923 C 180.795 -0.0194771 -1.62788 0
M  V30 1924 O 181.984 -0.261388 -1.76576 0
M  V30 1925 C 179.084 -0.59327 -3.33667 0
M  V30 1926 C 178.257 -1.71123 -4.02537 0
M  V30 1927 C 177.316 -1.23527 -5.11495 0
M  V30 1928 O 176.342 -1.93553 -5.35281 0
M  V30 1929 N 177.544 -0.0926678 -5.80426 0
M  V30 1930 H 180.309 -2.01633 -2.2173 0
M  V30 1931 H 177.87 -1.19248 -1.09505 0
M  V30 1932 H 179.862 -0.258686 -4.03872 0
M  V30 1933 H 178.432 0.265502 -3.1147 0
M  V30 1934 H 177.652 -2.21593 -3.26022 0
M  V30 1935 H 178.94 -2.46145 -4.45298 0
M  V30 1936 H 178.338 0.491741 -5.63559 0
M  V30 1937 H 176.895 0.182714 -6.51544 0
M  V30 1938 N 180.328 1.1314 -1.09713 0
M  V30 1939 C 181.739 1.66029 -0.853885 0
M  V30 1940 C 182.09 1.86241 0.617142 0
M  V30 1941 O 181.215 1.5834 1.47503 0
M  V30 1942 C 181.81 3.01599 -1.5435 0
M  V30 1943 C 180.369 3.51467 -1.34714 0
M  V30 1944 C 179.516 2.26648 -1.59769 0
M  V30 1945 H 182.467 0.970226 -1.25588 0
M  V30 1946 H 182.488 3.67709 -0.978267 0
M  V30 1947 H 182 2.86856 -2.6141 0
M  V30 1948 H 180.101 3.71408 -0.297838 0
M  V30 1949 H 180.214 4.314 -2.08401 0
M  V30 1950 H 178.578 2.33385 -1.01998 0
M  V30 1951 H 179.361 2.14467 -2.68065 0
M  V30 1952 N 181.806 0.884767 1.30421 0
M  V30 1953 C 183.036 0.517293 2.00019 0
M  V30 1954 C 183.444 -0.898632 1.66497 0
M  V30 1955 O 182.787 -1.60245 0.898181 0
M  V30 1956 C 182.849 0.612025 3.54252 0
M  V30 1957 C 182.513 1.99222 4.1129 0
M  V30 1958 C 183.51 2.9616 4.273 0
M  V30 1959 C 181.195 2.29755 4.46674 0
M  V30 1960 C 183.189 4.21764 4.77906 0
M  V30 1961 C 180.876 3.55606 4.96979 0
M  V30 1962 C 181.874 4.51425 5.12547 0
M  V30 1963 O 181.562 5.75043 5.61766 0
M  V30 1964 H 181.294 0.198529 0.64619 0
M  V30 1965 H 183.848 1.1919 1.67281 0
M  V30 1966 H 182.078 -0.119561 3.86515 0
M  V30 1967 H 183.767 0.255859 4.05093 0
M  V30 1968 H 184.533 2.73882 4.00267 0
M  V30 1969 H 180.412 1.55942 4.33824 0
M  V30 1970 H 183.956 4.96561 4.89972 0
M  V30 1971 H 179.853 3.7772 5.23448 0
M  V30 1972 H 180.621 5.77422 5.80109 0
M  V30 1973 N 183.284 -1.43765 0.645699 0
M  V30 1974 C 184.232 -2.32516 -0.0624849 0
M  V30 1975 C 185.226 -1.48183 -0.820855 0
M  V30 1976 O 186.432 -1.64439 -0.732106 0
M  V30 1977 H 182.807 -0.750989 -0.0389864 0
M  V30 1978 H 184.778 -2.89979 0.703892 0
M  V30 1979 C 183.527 -3.32389 -1.02044 0
M  V30 1980 H 182.85 -3.97301 -0.446312 0
M  V30 1981 H 184.29 -3.97138 -1.48517 0
M  V30 1982 C 182.749 -2.62416 -2.11281 0
M  V30 1983 O 183.279 -2.434 -3.19561 0
M  V30 1984 N 181.485 -2.21913 -1.87624 0
M  V30 1985 H 181.032 -2.37578 -0.995703 0
M  V30 1986 H 180.99 -1.75424 -2.6091 0
M  V30 1987 N 184.763 -0.387143 -1.52771 0
M  V30 1988 C 185.988 0.198407 -2.06449 0
M  V30 1989 C 186.413 1.39918 -1.25716 0
M  V30 1990 O 185.771 1.79099 -0.281657 0
M  V30 1991 C 185.819 0.548893 -3.56398 0
M  V30 1992 O 184.923 1.64315 -3.78252 0
M  V30 1993 H 184.264 0.0237731 -0.663574 0
M  V30 1994 H 186.794 -0.553989 -1.96957 0
M  V30 1995 H 186.804 0.813812 -3.99801 0
M  V30 1996 H 185.479 -0.329005 -4.14597 0
M  V30 1997 H 184.056 1.37211 -3.46738 0
M  V30 1998 N 186.241 1.57166 -0.116904 0
M  V30 1999 C 187.49 1.94298 0.541407 0
M  V30 2000 C 187.803 1.00236 1.67964 0
M  V30 2001 O 189.009 1.26826 2.40057 0
M  V30 2002 C 187.465 3.45306 1.01449 0
M  V30 2003 C 187.073 4.47899 -0.0951738 0
M  V30 2004 C 188.817 3.91361 1.6443 0
M  V30 2005 C 186.724 5.90083 0.394491 0
M  V30 2006 H 185.654 0.725308 0.206019 0
M  V30 2007 H 188.305 1.82446 -0.196419 0
M  V30 2008 H 186.687 3.52385 1.80667 0
M  V30 2009 H 187.861 4.52486 -0.871374 0
M  V30 2010 H 186.176 4.11583 -0.631505 0
M  V30 2011 H 188.773 4.95004 2.02176 0
M  V30 2012 H 189.116 3.3122 2.52189 0
M  V30 2013 H 189.649 3.87073 0.917559 0
M  V30 2014 H 186.388 6.53974 -0.447004 0
M  V30 2015 H 185.908 5.88921 1.13722 0
M  V30 2016 H 187.587 6.41307 0.856399 0
M  V30 2017 N 187.719 -0.156864 1.56817 0
M  V30 2018 C 188.649 -1.19589 2.00551 0
M  V30 2019 C 189.63 -1.4536 0.883426 0
M  V30 2020 O 190.815 -1.56449 1.15054 0
M  V30 2021 C 187.945 -2.53143 2.37773 0
M  V30 2022 C 186.899 -2.41913 3.53075 0
M  V30 2023 C 186.225 -3.80088 3.76081 0
M  V30 2024 C 187.525 -1.91157 4.86062 0
M  V30 2025 H 189.219 -0.832293 2.87599 0
M  V30 2026 H 186.765 -0.398918 1.38364 0
M  V30 2027 H 188.718 -3.26047 2.66967 0
M  V30 2028 H 187.442 -2.91319 1.4765 0
M  V30 2029 H 186.101 -1.71462 3.24031 0
M  V30 2030 H 185.749 -4.15683 2.83225 0
M  V30 2031 H 185.449 -3.73439 4.53671 0
M  V30 2032 H 186.973 -4.54556 4.0769 0
M  V30 2033 H 188.387 -2.53846 5.14038 0
M  V30 2034 H 186.784 -1.95422 5.67389 0
M  V30 2035 H 187.854 -0.866673 4.77092 0
M  V30 2036 N 189.197 -1.51736 -0.425897 0
M  V30 2037 C 190.425 -1.68794 -1.1965 0
M  V30 2038 C 190.84 -0.390164 -1.84725 0
M  V30 2039 O 190.197 0.632376 -1.71194 0
M  V30 2040 C 190.248 -2.81174 -2.27208 0
M  V30 2041 O 189.969 -4.05925 -1.64793 0
M  V30 2042 C 191.47 -3.09599 -3.17275 0
M  V30 2043 H 188.69 -0.566128 -0.360194 0
M  V30 2044 H 191.234 -1.98211 -0.503249 0
M  V30 2045 H 189.389 -2.54324 -2.9223 0
M  V30 2046 H 189.803 -4.68423 -2.35967 0
M  V30 2047 H 191.277 -3.91786 -3.88854 0
M  V30 2048 H 191.754 -2.22468 -3.78688 0
M  V30 2049 H 192.36 -3.38151 -2.57941 0
M  V30 2050 N 190.675 0.682077 -1.42076 0
M  V30 2051 C 191.903 1.47057 -1.4554 0
M  V30 2052 C 192.318 1.8869 -0.0645779 0
M  V30 2053 O 191.675 1.57666 0.919115 0
M  V30 2054 C 191.726 2.72442 -2.37609 0
M  V30 2055 O 191.447 2.32559 -3.71279 0
M  V30 2056 C 192.948 3.66069 -2.50017 0
M  V30 2057 H 190.168 0.452737 -0.495248 0
M  V30 2058 H 192.712 0.838695 -1.8651 0
M  V30 2059 H 190.867 3.31835 -1.9991 0
M  V30 2060 H 191.281 3.13475 -4.20516 0
M  V30 2061 H 192.755 4.50792 -3.18576 0
M  V30 2062 H 193.232 4.11476 -1.53572 0
M  V30 2063 H 193.838 3.12572 -2.88407 0
M  V30 2064 N 192.153 1.28127 0.917671 0
M  V30 2065 C 193.103 1.08361 2.00604 0
M  V30 2066 C 194.087 0.00847518 1.60898 0
M  V30 2067 O 195.279 0.228167 1.75523 0
M  V30 2068 C 192.408 0.743376 3.35155 0
M  V30 2069 C 191.494 1.85716 3.81275 0
M  V30 2070 N 191.885 3.09822 3.99805 0
M  V30 2071 C 190.183 1.74612 4.10398 0
M  V30 2072 C 190.884 3.82368 4.38372 0
M  V30 2073 N 189.86 3.10192 4.4641 0
M  V30 2074 H 193.662 2.02531 2.12975 0
M  V30 2075 H 191.176 1.18989 1.10523 0
M  V30 2076 H 193.173 0.582859 4.12805 0
M  V30 2077 H 191.833 -0.190595 3.2414 0
M  V30 2078 H 192.844 3.45475 3.85833 0
M  V30 2079 H 189.521 0.883657 4.08041 0
M  V30 2080 H 190.911 4.89082 4.60704 0
M  V30 2081 N 193.631 -1.12557 1.10312 0
M  V30 2082 C 194.859 -1.87864 0.866873 0
M  V30 2083 C 195.274 -1.79588 -0.582557 0
M  V30 2084 O 194.631 -1.16887 -1.40156 0
M  V30 2085 C 194.682 -3.37125 1.30496 0
M  V30 2086 O 194.403 -3.45201 2.69755 0
M  V30 2087 C 195.904 -4.29373 1.10243 0
M  V30 2088 H 193.124 -0.594452 0.311236 0
M  V30 2089 H 195.668 -1.42429 1.46745 0
M  V30 2090 H 193.823 -3.80109 0.748081 0
M  V30 2091 H 194.237 -4.38056 2.88457 0
M  V30 2092 H 195.711 -5.32394 1.45811 0
M  V30 2093 H 196.188 -4.39181 0.0409492 0
M  V30 2094 H 196.794 -3.92169 1.64571 0
M  V30 2095 N 195.109 -0.891671 -1.2995 0
M  V30 2096 C 196.337 -0.52866 -2.00032 0
M  V30 2097 C 196.752 0.884574 -1.66795 0
M  V30 2098 O 196.109 1.5827 -0.908669 0
M  V30 2099 C 196.16 -0.701814 -3.54622 0
M  V30 2100 O 195.881 -2.05942 -3.86678 0
M  V30 2101 C 197.382 -0.342683 -4.41973 0
M  V30 2102 H 194.602 -0.203659 -0.639347 0
M  V30 2103 H 197.146 -1.19881 -1.65677 0
M  V30 2104 H 195.301 -0.0789468 -3.8732 0
M  V30 2105 H 195.715 -2.08291 -4.81368 0
M  V30 2106 H 197.189 -0.514709 -5.49595 0
M  V30 2107 H 197.666 0.71975 -4.33262 0
M  V30 2108 H 198.272 -0.942154 -4.14733 0
M  V30 2109 N 196.587 1.43421 -0.653314 0
M  V30 2110 C 197.517 2.33487 0.0246656 0
M  V30 2111 C 198.498 1.49475 0.811863 0
M  V30 2112 O 199.683 1.78139 0.773322 0
M  V30 2113 C 196.813 3.32841 0.99166 0
M  V30 2114 C 195.767 4.26842 0.314568 0
M  V30 2115 C 195.093 5.16236 1.39302 0
M  V30 2116 C 196.393 5.16243 -0.793095 0
M  V30 2117 H 198.087 2.90427 -0.727481 0
M  V30 2118 H 195.633 1.39649 -0.351287 0
M  V30 2119 H 197.586 3.94747 1.47487 0
M  V30 2120 H 196.31 2.74158 1.77497 0
M  V30 2121 H 194.969 3.663 -0.148199 0
M  V30 2122 H 194.617 4.53891 2.16776 0
M  V30 2123 H 194.317 5.79948 0.945223 0
M  V30 2124 H 195.841 5.81015 1.87759 0
M  V30 2125 H 197.255 5.71958 -0.392039 0
M  V30 2126 H 195.652 5.88676 -1.16536 0
M  V30 2127 H 196.722 4.55927 -1.65103 0
M  V30 2128 N 198.065 0.39524 1.52563 0
M  V30 2129 C 198.975 -0.444232 2.30356 0
M  V30 2130 C 199.991 -1.06615 1.37511 0
M  V30 2131 O 201.167 -1.07067 1.70583 0
M  V30 2132 C 198.232 -1.55315 3.09964 0
M  V30 2133 C 197.293 -0.955734 4.18526 0
M  V30 2134 C 196.526 -2.01181 4.9433 0
M  V30 2135 O 196.749 -3.22781 4.70285 0
M  V30 2136 O 195.683 -1.62579 5.79527 0
M  V30 2137 H 199.509 0.189667 3.03107 0
M  V30 2138 H 197.094 0.1588 1.48554 0
M  V30 2139 H 198.976 -2.19724 3.59582 0
M  V30 2140 H 197.651 -2.17191 2.4002 0
M  V30 2141 H 196.558 -0.274743 3.7309 0
M  V30 2142 H 197.891 -0.381109 4.90722 0
M  V30 2143 N 199.544 -1.57102 0.125237 0
M  V30 2144 C 200.494 -2.12202 -0.833936 0
M  V30 2145 C 201.478 -1.04433 -1.22403 0
M  V30 2146 O 202.67 -1.30655 -1.19408 0
M  V30 2147 C 199.799 -2.72994 -2.08157 0
M  V30 2148 C 198.885 -3.87852 -1.71556 0
M  V30 2149 N 199.276 -4.9464 -1.05662 0
M  V30 2150 C 197.574 -3.98153 -2.00973 0
M  V30 2151 C 198.275 -5.74953 -0.883376 0
M  V30 2152 N 197.251 -5.24985 -1.41036 0
M  V30 2153 H 201.053 -2.92141 -0.321035 0
M  V30 2154 H 198.567 -1.62217 -0.0770315 0
M  V30 2155 H 200.564 -3.10816 -2.77847 0
M  V30 2156 H 199.224 -1.9452 -2.59985 0
M  V30 2157 H 200.235 -5.12872 -0.719878 0
M  V30 2158 H 196.912 -3.30728 -2.54804 0
M  V30 2159 H 198.302 -6.70904 -0.365675 0
M  V30 2160 N 201.022 0.148545 -1.56898 0
M  V30 2161 C 202.247 0.880385 -1.87787 0
M  V30 2162 C 202.672 1.74018 -0.714093 0
M  V30 2163 O 202.03 1.78153 0.336343 0
M  V30 2164 C 202.078 1.71422 -3.17249 0
M  V30 2165 O 201.182 2.8183 -3.01074 0
M  V30 2166 H 200.523 0.245301 -0.617028 0
M  V30 2167 H 203.053 0.139826 -2.04122 0
M  V30 2168 H 203.063 2.10954 -3.49231 0
M  V30 2169 H 201.738 1.08284 -4.01556 0
M  V30 2170 H 200.315 2.45715 -2.80497 0
M  V30 2171 N 202.5 1.5196 0.417844 0
M  V30 2172 C 203.777 1.56146 1.17803 0
M  V30 2173 C 204.157 0.337275 2.08388 0
M  V30 2174 O 203.505 -0.676447 2.18258 0
M  V30 2175 C 203.715 2.88566 1.96293 0
M  V30 2176 C 205.063 3.41244 2.52662 0
M  V30 2177 O 206.087 2.90247 2.06483 0
M  V30 2178 O 204.946 4.30273 3.36938 0
M  V30 2179 H 202.04 0.628598 0.537395 0
M  V30 2180 H 204.586 1.64283 0.425331 0
M  V30 2181 H 203.358 3.69116 1.2988 0
M  V30 2182 H 202.981 2.83681 2.78587 0
M  V30 2183 N 203.978 -0.674533 1.42435 0
M  V30 2184 C 205.218 -1.4466 1.44405 0
M  V30 2185 C 205.582 -1.91911 0.0585784 0
M  V30 2186 O 206.783 -2.68759 -0.0469991 0
M  V30 2187 C 205.054 -2.61136 2.44013 0
M  V30 2188 S 206.613 -3.49981 2.64687 0
M  V30 2189 H 203.431 -0.494074 0.511284 0
M  V30 2190 H 206.033 -0.785162 1.7904 0
M  V30 2191 H 204.737 -2.24662 3.43446 0
M  V30 2192 H 204.268 -3.32153 2.10803 0
M  V30 2193 H 206.283 -4.57124 1.93007 0
M  V30 2194 N 205.456 -1.28612 -0.910864 0
M  V30 2195 C 206.419 -1.12803 -1.9952 0
M  V30 2196 C 207.419 -0.0668264 -1.60661 0
M  V30 2197 O 208.609 -0.312847 -1.71368 0
M  V30 2198 C 205.741 -0.72254 -3.33155 0
M  V30 2199 H 206.934 -2.09109 -2.14973 0
M  V30 2200 H 204.487 -1.11639 -1.09391 0
M  V30 2201 H 205.222 0.241152 -3.23402 0
M  V30 2202 H 205.007 -1.48916 -3.62721 0
M  V30 2203 H 206.497 -0.634666 -4.12749 0
M  V30 2204 N 206.934 1.1197 -1.10907 0
M  V30 2205 C 208.181 1.83588 -0.854507 0
M  V30 2206 C 208.509 1.84357 0.6199 0
M  V30 2207 O 207.764 1.28809 1.47332 0
M  V30 2208 C 208.063 3.30749 -1.35425 0
M  V30 2209 C 207.729 3.50146 -2.84093 0
M  V30 2210 C 206.391 3.55148 -3.2469 0
M  V30 2211 C 208.743 3.56857 -3.79872 0
M  V30 2212 C 206.071 3.6441 -4.59806 0
M  V30 2213 C 208.423 3.6765 -5.14797 0
M  V30 2214 C 207.087 3.7091 -5.54961 0
M  V30 2215 H 206.357 0.671795 -0.312686 0
M  V30 2216 H 209.004 1.32091 -1.38652 0
M  V30 2217 H 207.309 3.84703 -0.742361 0
M  V30 2218 H 209.006 3.8464 -1.1337 0
M  V30 2219 H 205.596 3.46919 -2.51685 0
M  V30 2220 H 209.78 3.52258 -3.49611 0
M  V30 2221 H 205.036 3.65208 -4.9034 0
M  V30 2222 H 209.21 3.71786 -5.88853 0
M  V30 2223 H 206.837 3.7784 -6.59652 0
M  V30 2224 N 208.412 0.89855 1.29475 0
M  V30 2225 C 209.345 0.319981 2.25945 0
M  V30 2226 C 210.323 -0.567189 1.52387 0
M  V30 2227 O 211.507 -0.514254 1.8135 0
M  V30 2228 C 208.634 -0.544013 3.34303 0
M  V30 2229 C 207.68 0.275682 4.25608 0
M  V30 2230 S 208.513 1.67272 5.08704 0
M  V30 2231 C 209.669 0.815621 6.20563 0
M  V30 2232 H 209.902 1.13767 2.74671 0
M  V30 2233 H 207.435 0.69882 1.3768 0
M  V30 2234 H 209.393 -1.03673 3.97193 0
M  V30 2235 H 208.054 -1.33593 2.84274 0
M  V30 2236 H 207.247 -0.384263 5.02533 0
M  V30 2237 H 206.849 0.701496 3.67362 0
M  V30 2238 H 209.141 0.0385042 6.77489 0
M  V30 2239 H 210.084 1.55691 6.90772 0
M  V30 2240 H 210.492 0.370516 5.63283 0
M  V30 2241 N 209.89 -1.43072 0.660911 0
M  V30 2242 C 211.136 -2.0202 0.177708 0
M  V30 2243 C 211.469 -1.52066 -1.20787 0
M  V30 2244 O 210.744 -0.716987 -1.80802 0
M  V30 2245 C 211.027 -3.59561 0.197019 0
M  V30 2246 C 210.88 -4.19727 1.61706 0
M  V30 2247 C 212.199 -4.37664 -0.462396 0
M  V30 2248 H 209.318 -0.734034 0.0660494 0
M  V30 2249 H 211.96 -1.70272 0.843058 0
M  V30 2250 H 210.11 -3.86739 -0.369527 0
M  V30 2251 H 211.782 -4.03553 2.23479 0
M  V30 2252 H 210.025 -3.76084 2.16201 0
M  V30 2253 H 210.696 -5.28834 1.58237 0
M  V30 2254 H 213.172 -4.16095 0.0197215 0
M  V30 2255 H 212.048 -5.47305 -0.418188 0
M  V30 2256 H 212.309 -4.14493 -1.53778 0
M  V30 2257 N 211.368 -0.403325 -1.52352 0
M  V30 2258 C 212.645 0.232611 -1.94212 0
M  V30 2259 C 213.025 1.63133 -1.33981 0
M  V30 2260 O 212.373 2.22659 -0.513344 0
M  V30 2261 C 212.583 0.244811 -3.4814 0
M  V30 2262 C 213.931 0.46698 -4.22024 0
M  V30 2263 O 214.955 0.324419 -3.5472 0
M  V30 2264 O 213.814 0.74747 -5.41364 0
M  V30 2265 H 210.908 0.148223 -0.813609 0
M  V30 2266 H 213.454 -0.458848 -1.63379 0
M  V30 2267 H 212.226 -0.734378 -3.84347 0
M  V30 2268 H 211.849 0.980611 -3.85318 0
M  V30 2269 N 212.846 1.57033 -0.133567 0
M  V30 2270 C 213.794 2.17348 0.828412 0
M  V30 2271 C 214.788 1.12671 1.26498 0
M  V30 2272 O 215.994 1.30947 1.23502 0
M  V30 2273 H 212.369 0.695775 0.285309 0
M  V30 2274 H 214.34 2.96935 0.295372 0
M  V30 2275 C 213.089 2.79893 2.06289 0
M  V30 2276 H 212.412 3.60147 1.73592 0
M  V30 2277 H 213.852 3.25615 2.71572 0
M  V30 2278 C 212.311 1.77713 2.86216 0
M  V30 2279 O 212.841 1.23937 3.82103 0
M  V30 2280 N 211.047 1.47321 2.50489 0
M  V30 2281 H 210.594 1.91243 1.7258 0
M  V30 2282 H 210.552 0.79199 3.04261 0
M  V30 2283 N 214.325 -0.140222 1.56975 0
M  V30 2284 C 215.272 -1.17292 1.98774 0
M  V30 2285 C 216.242 -1.4232 0.856408 0
M  V30 2286 O 217.427 -1.54541 1.119 0
M  V30 2287 C 214.567 -2.49973 2.37923 0
M  V30 2288 C 213.68 -2.32062 3.64378 0
M  V30 2289 C 212.815 -3.57825 3.926 0
M  V30 2290 C 211.854 -3.3498 5.12303 0
M  V30 2291 N 210.991 -4.52891 5.36502 0
M  V30 2292 H 215.831 -0.809472 2.86795 0
M  V30 2293 H 213.368 -0.388237 1.41884 0
M  V30 2294 H 215.326 -3.27346 2.58652 0
M  V30 2295 H 213.956 -2.84252 1.52972 0
M  V30 2296 H 213.008 -1.45711 3.51387 0
M  V30 2297 H 214.32 -2.11145 4.51906 0
M  V30 2298 H 213.474 -4.43624 4.13863 0
M  V30 2299 H 212.213 -3.81753 3.03506 0
M  V30 2300 H 211.218 -2.4757 4.90906 0
M  V30 2301 H 212.443 -3.12444 6.02956 0
M  V30 2302 H 210.389 -4.76979 4.50363 0
M  V30 2303 H 210.306 -4.35001 6.18312 0
M  V30 2304 H 211.574 -5.39884 5.62268 0
M  V30 2305 N 215.803 -1.52179 -0.40978 0
M  V30 2306 C 216.766 -1.74853 -1.48186 0
M  V30 2307 C 217.766 -0.618417 -1.48433 0
M  V30 2308 O 218.956 -0.886286 -1.49969 0
M  V30 2309 C 216.088 -1.8303 -2.87598 0
M  V30 2310 H 217.281 -2.70559 -1.29374 0
M  V30 2311 H 214.834 -1.42586 -0.640233 0
M  V30 2312 H 215.569 -0.89236 -3.11781 0
M  V30 2313 H 215.354 -2.65187 -2.88822 0
M  V30 2314 H 216.844 -2.02316 -3.65319 0
M  V30 2315 N 217.281 0.66697 -1.42791 0
M  V30 2316 C 218.53 1.42278 -1.42968 0
M  V30 2317 C 218.843 1.9553 -0.0524489 0
M  V30 2318 O 220.049 2.71414 0.068363 0
M  V30 2319 C 218.505 2.57418 -2.51524 0
M  V30 2320 C 218.113 2.10832 -3.9529 0
M  V30 2321 C 219.857 3.34878 -2.60877 0
M  V30 2322 C 217.764 3.23101 -4.95338 0
M  V30 2323 H 216.694 0.534533 -0.531781 0
M  V30 2324 H 219.345 0.721302 -1.68729 0
M  V30 2325 H 217.727 3.29971 -2.18941 0
M  V30 2326 H 218.901 1.4538 -4.37266 0
M  V30 2327 H 217.216 1.46289 -3.89857 0
M  V30 2328 H 219.813 4.18505 -3.32802 0
M  V30 2329 H 220.156 3.81993 -1.6549 0
M  V30 2330 H 220.689 2.69398 -2.92693 0
M  V30 2331 H 217.428 2.80969 -5.9223 0
M  V30 2332 H 216.948 3.87309 -4.57987 0
M  V30 2333 H 218.627 3.88447 -5.17415 0
M  V30 2334 N 218.759 1.29093 0.90403 0
M  V30 2335 C 219.989 1.19516 1.68522 0
M  V30 2336 C 220.397 -0.24738 1.87576 0
M  V30 2337 O 219.74 -1.17798 1.40959 0
M  V30 2338 C 219.802 1.83249 3.0929 0
M  V30 2339 C 219.466 3.32531 3.13484 0
M  V30 2340 C 220.463 4.28821 2.93953 0
M  V30 2341 C 218.148 3.73656 3.35688 0
M  V30 2342 C 220.142 5.64212 2.96553 0
M  V30 2343 C 217.829 5.0917 3.37919 0
M  V30 2344 C 218.827 6.04258 3.18373 0
M  V30 2345 O 218.515 7.37298 3.20385 0
M  V30 2346 H 218.247 0.415467 0.533257 0
M  V30 2347 H 220.801 1.70912 1.13922 0
M  V30 2348 H 219.031 1.26358 3.65473 0
M  V30 2349 H 220.72 1.68054 3.69476 0
M  V30 2350 H 221.486 3.98382 2.76616 0
M  V30 2351 H 217.365 3.00101 3.49943 0
M  V30 2352 H 220.909 6.38407 2.81216 0
M  V30 2353 H 216.806 5.39256 3.54787 0
M  V30 2354 H 217.574 7.46048 3.36681 0
M  V30 2355 N 220.237 -1.11381 1.11499 0
M  V30 2356 C 221.514 -1.7955 0.775965 0
M  V30 2357 C 221.894 -1.97859 -0.73588 0
M  V30 2358 O 221.242 -1.56376 -1.66609 0
M  V30 2359 C 221.452 -3.13196 1.53977 0
M  V30 2360 C 222.8 -3.88227 1.71944 0
M  V30 2361 O 223.824 -3.22887 1.50407 0
M  V30 2362 O 222.683 -5.05477 2.07738 0
M  V30 2363 H 219.777 -0.777728 0.28119 0
M  V30 2364 H 222.323 -1.18118 1.21845 0
M  V30 2365 H 221.095 -2.95229 2.56818 0
M  V30 2366 H 220.718 -3.82342 1.09088 0
M  V30 2367 N 221.715 -0.905404 -1.28997 0
M  V30 2368 C 222.964 -0.530191 -1.94607 0
M  V30 2369 C 223.277 0.929185 -1.72121 0
M  V30 2370 O 224.483 1.41218 -2.31883 0
M  V30 2371 C 222.939 -0.897333 -3.48534 0
M  V30 2372 C 222.547 -2.37587 -3.79811 0
M  V30 2373 C 224.291 -0.592304 -4.20347 0
M  V30 2374 C 222.198 -2.68357 -5.27009 0
M  V30 2375 H 221.128 -0.194558 -0.728466 0
M  V30 2376 H 223.779 -1.10318 -1.46636 0
M  V30 2377 H 222.161 -0.253214 -3.9519 0
M  V30 2378 H 223.335 -3.06602 -3.43994 0
M  V30 2379 H 221.65 -2.6505 -3.2115 0
M  V30 2380 H 224.247 -0.798975 -5.28697 0
M  V30 2381 H 224.59 0.469474 -4.13644 0
M  V30 2382 H 225.123 -1.19452 -3.79442 0
M  V30 2383 H 221.862 -3.73355 -5.38782 0
M  V30 2384 H 221.382 -2.03971 -5.64053 0
M  V30 2385 H 223.061 -2.54922 -5.94663 0
M  V30 2386 N 223.193 1.4272 -0.668489 0
M  V30 2387 C 224.433 2.03497 -0.19194 0
M  V30 2388 C 224.797 1.51684 1.17712 0
M  V30 2389 O 225.998 2.04205 1.74796 0
M  V30 2390 C 224.269 3.56734 -0.218032 0
M  V30 2391 S 225.828 4.38395 0.188438 0
M  V30 2392 H 222.646 0.706542 -0.0794959 0
M  V30 2393 H 225.248 1.74563 -0.880235 0
M  V30 2394 H 223.952 3.91943 -1.2169 0
M  V30 2395 H 223.483 3.90333 0.490303 0
M  V30 2396 H 225.498 4.75345 1.42345 0
M  V30 2397 N 224.671 0.411399 1.52136 0
M  V30 2398 C 225.621 -0.430376 2.23901 0
M  V30 2399 C 226.605 -1.0116 1.25121 0
M  V30 2400 O 227.797 -0.934044 1.50348 0
M  V30 2401 C 224.926 -1.54527 3.06556 0
M  V30 2402 C 224.012 -0.9747 4.12747 0
M  V30 2403 N 224.403 -0.130991 5.0563 0
M  V30 2404 C 222.701 -1.24497 4.28271 0
M  V30 2405 C 223.402 0.186689 5.814 0
M  V30 2406 N 222.378 -0.42304 5.41951 0
M  V30 2407 H 226.18 0.220509 2.93072 0
M  V30 2408 H 223.694 0.221952 1.60876 0
M  V30 2409 H 225.691 -2.16093 3.56524 0
M  V30 2410 H 224.351 -2.19875 2.38925 0
M  V30 2411 H 225.362 0.23349 5.17373 0
M  V30 2412 H 222.039 -1.89787 3.7187 0
M  V30 2413 H 223.429 0.871673 6.66222 0
M  V30 2414 N 226.149 -1.5696 0.141893 0
M  V30 2415 C 227.389 -1.9785 -0.513304 0
M  V30 2416 C 227.753 -1.02467 -1.62371 0
M  V30 2417 O 228.954 -1.32382 -2.33941 0
M  V30 2418 C 227.225 -3.42797 -1.01118 0
M  V30 2419 S 228.784 -4.05709 -1.67169 0
M  V30 2420 H 225.602 -0.691318 -0.166135 0
M  V30 2421 H 228.204 -1.94114 0.232398 0
M  V30 2422 H 226.908 -4.0995 -0.192179 0
M  V30 2423 H 226.439 -3.50235 -1.79162 0
M  V30 2424 H 228.454 -3.98342 -2.95868 0
M  V30 2425 N 227.627 0.131896 -1.57047 0
M  V30 2426 C 228.575 1.18146 -2.0036 0
M  V30 2427 C 229.569 1.43614 -0.898406 0
M  V30 2428 O 230.775 1.43729 -1.08361 0
M  V30 2429 H 227.15 0.398042 -0.638018 0
M  V30 2430 H 229.121 0.789564 -2.87765 0
M  V30 2431 C 227.87 2.50341 -2.41298 0
M  V30 2432 H 227.193 2.31578 -3.25902 0
M  V30 2433 H 228.633 3.22371 -2.75414 0
M  V30 2434 C 227.092 3.11984 -1.27153 0
M  V30 2435 O 227.622 3.97484 -0.580459 0
M  V30 2436 N 225.828 2.71662 -1.03189 0
M  V30 2437 H 225.375 2.02231 -1.59564 0
M  V30 2438 H 225.333 3.13238 -0.270077 0
M  V30 2439 N 229.106 1.52395 0.401703 0
M  V30 2440 C 230.036 1.79231 1.49661 0
M  V30 2441 C 231.017 0.643654 1.57452 0
M  V30 2442 O 232.202 0.889989 1.72606 0
M  V30 2443 C 229.332 1.94971 2.87409 0
M  V30 2444 C 228.286 3.10604 2.94465 0
M  V30 2445 C 227.612 3.11577 4.34538 0
M  V30 2446 C 228.912 4.49921 2.6527 0
M  V30 2447 H 230.606 2.70917 1.27454 0
M  V30 2448 H 228.152 1.30362 0.6117 0
M  V30 2449 H 230.105 2.12328 3.63999 0
M  V30 2450 H 228.829 0.999632 3.10926 0
M  V30 2451 H 227.488 2.93009 2.20321 0
M  V30 2452 H 227.136 2.14277 4.55076 0
M  V30 2453 H 226.836 3.89247 4.40183 0
M  V30 2454 H 228.36 3.31073 5.13053 0
M  V30 2455 H 229.774 4.67683 3.31581 0
M  V30 2456 H 228.171 5.29564 2.82281 0
M  V30 2457 H 229.241 4.57507 1.60671 0
M  V30 2458 N 230.584 -0.659388 1.43143 0
M  V30 2459 C 231.861 -1.41627 1.34912 0
M  V30 2460 C 232.241 -2.11099 -0.00607785 0
M  V30 2461 O 231.589 -2.04353 -1.02236 0
M  V30 2462 C 231.799 -2.40604 2.52805 0
M  V30 2463 C 233.147 -3.04789 2.95616 0
M  V30 2464 O 234.171 -2.50932 2.52807 0
M  V30 2465 O 233.03 -4.02421 3.69756 0
M  V30 2466 H 230.124 -0.63246 0.532844 0
M  V30 2467 H 232.67 -0.686814 1.5518 0
M  V30 2468 H 231.442 -1.88174 3.43083 0
M  V30 2469 H 231.065 -3.21009 2.34604 0
M  V30 2470 N 232.062 -1.29571 -0.897171 0
M  V30 2471 C 233.311 -1.1706 -1.64256 0
M  V30 2472 C 233.624 0.276476 -1.93636 0
M  V30 2473 O 234.83 0.52294 -2.66416 0
M  V30 2474 C 233.286 -2.0475 -2.95982 0
M  V30 2475 C 232.894 -3.54295 -2.74187 0
M  V30 2476 C 234.638 -2.0097 -3.73914 0
M  V30 2477 C 232.545 -4.34081 -4.01656 0
M  V30 2478 H 231.475 -0.43452 -0.616205 0
M  V30 2479 H 234.126 -1.54229 -0.994268 0
M  V30 2480 H 232.508 -1.60452 -3.62038 0
M  V30 2481 H 233.682 -4.06662 -2.1671 0
M  V30 2482 H 231.997 -3.59773 -2.09648 0
M  V30 2483 H 234.594 -2.57838 -4.68427 0
M  V30 2484 H 234.937 -0.990273 -4.0435 0
M  V30 2485 H 235.47 -2.43325 -3.14703 0
M  V30 2486 H 232.209 -5.36671 -3.76384 0
M  V30 2487 H 231.729 -3.86483 -4.58684 0
M  V30 2488 H 233.408 -4.44877 -4.69781 0
M  V30 2489 N 233.54 1.10788 -1.12088 0
M  V30 2490 C 234.45 2.20599 -0.798338 0
M  V30 2491 C 235.466 1.72712 0.21135 0
M  V30 2492 O 236.642 2.01348 0.0458477 0
M  V30 2493 C 233.707 3.45771 -0.253674 0
M  V30 2494 C 232.768 4.08411 -1.32283 0
M  V30 2495 C 232.001 5.27608 -0.80406 0
M  V30 2496 O 232.224 5.69241 0.363478 0
M  V30 2497 O 231.158 5.8101 -1.57198 0
M  V30 2498 H 234.984 2.50614 -1.7154 0
M  V30 2499 H 232.569 1.19454 -0.897275 0
M  V30 2500 H 234.451 4.21376 0.0453691 0
M  V30 2501 H 233.126 3.1739 0.636005 0
M  V30 2502 H 232.033 3.34507 -1.67499 0
M  V30 2503 H 233.366 4.40986 -2.18614 0
M  V30 2504 N 235.018 0.912232 1.28515 0
M  V30 2505 C 236.434 0.610159 1.47476 0
M  V30 2506 C 236.634 -0.844955 1.82928 0
M  V30 2507 O 235.69 -1.62416 1.93332 0
M  V30 2508 C 237.003 1.54675 2.57868 0
M  V30 2509 C 238.551 1.55331 2.71738 0
M  V30 2510 C 239.026 2.47649 3.85272 0
M  V30 2511 N 240.517 2.45767 3.92623 0
M  V30 2512 C 241.252 3.13896 4.79851 0
M  V30 2513 N 240.748 3.9135 5.71679 0
M  V30 2514 N 242.541 3.02991 4.73448 0
M  V30 2515 H 234.692 1.85318 1.03783 0
M  V30 2516 H 236.955 0.794777 0.516753 0
M  V30 2517 H 236.661 2.5841 2.38574 0
M  V30 2518 H 236.535 1.27671 3.54937 0
M  V30 2519 H 238.922 0.52335 2.90422 0
M  V30 2520 H 239.003 1.86378 1.75205 0
M  V30 2521 H 238.647 3.50745 3.67342 0
M  V30 2522 H 238.577 2.13904 4.81199 0
M  V30 2523 H 241.068 1.89503 3.26951 0
M  V30 2524 H 241.381 4.40359 6.35062 0
M  V30 2525 H 239.726 3.95455 5.71524 0
M  V30 2526 H 242.917 2.41987 4.007 0
M  V30 2527 H 243.09 3.5636 5.41213 0
M  V30 2528 N 236.496 -1.42363 0.676048 0
M  V30 2529 C 237.907 -1.84649 0.275948 0
M  V30 2530 C 238.258 -1.56588 -1.18214 0
M  V30 2531 O 237.383 -1.02634 -1.90513 0
M  V30 2532 C 237.978 -3.35178 0.494053 0
M  V30 2533 C 236.537 -3.76109 0.148061 0
M  V30 2534 C 235.684 -2.65931 0.785891 0
M  V30 2535 H 238.635 -1.32192 0.878121 0
M  V30 2536 H 238.656 -3.79655 -0.25343 0
M  V30 2537 H 238.168 -3.55571 1.55535 0
M  V30 2538 H 236.269 -3.61323 -0.909742 0
M  V30 2539 H 236.382 -4.7546 0.589454 0
M  V30 2540 H 234.746 -2.53773 0.217113 0
M  V30 2541 H 235.529 -2.89146 1.85067 0
M  V30 2542 N 237.974 -0.419461 -1.51915 0
M  V30 2543 C 239.202 0.152136 -2.0634 0
M  V30 2544 C 239.617 1.37988 -1.28859 0
M  V30 2545 O 238.974 1.79243 -0.343232 0
M  V30 2546 C 239.025 0.492266 -3.58133 0
M  V30 2547 O 238.746 -0.686736 -4.32684 0
M  V30 2548 C 240.247 1.11648 -4.2901 0
M  V30 2549 H 237.467 0.0158325 -0.670813 0
M  V30 2550 H 240.011 -0.593394 -1.95702 0
M  V30 2551 H 238.166 1.18769 -3.68745 0
M  V30 2552 H 238.58 -0.400341 -5.2297 0
M  V30 2553 H 240.054 1.3046 -5.36362 0
M  V30 2554 H 240.531 2.09251 -3.86148 0
M  V30 2555 H 241.137 0.460958 -4.22795 0
M  V30 2556 N 239.452 1.56882 -0.150215 0
M  V30 2557 C 240.682 2.00302 0.506213 0
M  V30 2558 C 241.09 1.02934 1.58749 0
M  V30 2559 O 240.433 0.0188384 1.8369 0
M  V30 2560 C 240.495 3.40156 1.16337 0
M  V30 2561 C 240.159 4.56439 0.226311 0
M  V30 2562 C 241.156 5.17012 -0.547265 0
M  V30 2563 C 238.841 5.02136 0.128279 0
M  V30 2564 C 240.835 6.21693 -1.40629 0
M  V30 2565 C 238.522 6.06672 -0.734345 0
M  V30 2566 C 239.52 6.6632 -1.50023 0
M  V30 2567 O 239.208 7.68831 -2.34848 0
M  V30 2568 H 238.94 0.662182 0.135984 0
M  V30 2569 H 241.494 2.03961 -0.242746 0
M  V30 2570 H 239.724 3.33346 1.96004 0
M  V30 2571 H 241.413 3.67663 1.71985 0
M  V30 2572 H 242.179 4.82603 -0.48158 0
M  V30 2573 H 238.058 4.55435 0.714157 0
M  V30 2574 H 241.602 6.68179 -2.00455 0
M  V30 2575 H 237.499 6.40507 -0.801309 0
M  V30 2576 H 238.267 7.86065 -2.28131 0
M  V30 2577 N 240.93 -0.123565 1.57115 0
M  V30 2578 C 242.158 -0.846461 1.88793 0
M  V30 2579 C 242.573 -1.73652 0.740976 0
M  V30 2580 O 241.93 -1.80207 -0.288393 0
M  V30 2581 C 241.981 -1.6837 3.19897 0
M  V30 2582 O 241.702 -0.829477 4.30176 0
M  V30 2583 C 243.203 -2.51214 3.65248 0
M  V30 2584 H 240.423 -0.243573 0.625231 0
M  V30 2585 H 242.967 -0.109324 2.04208 0
M  V30 2586 H 241.122 -2.37364 3.06165 0
M  V30 2587 H 241.536 -1.40651 5.0529 0
M  V30 2588 H 243.01 -3.05497 4.59756 0
M  V30 2589 H 243.487 -3.28359 2.9168 0
M  V30 2590 H 244.093 -1.8747 3.81752 0
M  V30 2591 N 242.408 -1.52605 -0.393616 0
M  V30 2592 C 243.356 -1.77688 -1.50099 0
M  V30 2593 C 244.35 -0.644615 -1.56656 0
M  V30 2594 O 245.556 -0.826997 -1.59877 0
M  V30 2595 H 241.931 -0.562159 -0.499481 0
M  V30 2596 H 243.902 -2.7043 -1.26135 0
M  V30 2597 C 242.651 -1.95858 -2.87289 0
M  V30 2598 H 241.974 -2.8241 -2.82992 0
M  V30 2599 H 243.414 -2.174 -3.64024 0
M  V30 2600 C 241.873 -0.729848 -3.28899 0
M  V30 2601 O 242.403 0.0949217 -4.01588 0
M  V30 2602 N 240.609 -0.561283 -2.85128 0
M  V30 2603 H 240.156 -1.23357 -2.26143 0
M  V30 2604 H 240.114 0.2595 -3.13327 0
M  V30 2605 N 243.887 0.651787 -1.4349 0
M  V30 2606 C 244.817 1.77621 -1.51569 0
M  V30 2607 C 245.798 1.66022 -0.370253 0
M  V30 2608 O 246.983 1.85095 -0.587658 0
M  V30 2609 C 244.113 3.16056 -1.43966 0
M  V30 2610 C 243.067 3.4242 -2.56774 0
M  V30 2611 C 242.393 4.8067 -2.34223 0
M  V30 2612 C 243.693 3.37023 -3.99015 0
M  V30 2613 H 245.387 1.71117 -2.45681 0
M  V30 2614 H 242.933 0.821825 -1.18246 0
M  V30 2615 H 244.886 3.94472 -1.48221 0
M  V30 2616 H 243.61 3.23293 -0.463586 0
M  V30 2617 H 242.269 2.66375 -2.51873 0
M  V30 2618 H 241.917 4.84585 -1.34856 0
M  V30 2619 H 241.617 4.9927 -3.09844 0
M  V30 2620 H 243.141 5.61342 -2.40265 0
M  V30 2621 H 244.555 4.05374 -4.05395 0
M  V30 2622 H 242.952 3.67159 -4.74673 0
M  V30 2623 H 244.022 2.3518 -4.2405 0
M  V30 2624 N 245.365 1.30045 0.890287 0
M  V30 2625 C 246.313 1.15873 2.01683 0
M  V30 2626 C 247.307 0.0719403 1.69247 0
M  V30 2627 O 248.513 0.232414 1.78493 0
M  V30 2628 H 244.888 0.358203 0.661207 0
M  V30 2629 H 246.859 2.11229 2.10772 0
M  V30 2630 C 245.608 0.861842 3.36849 0
M  V30 2631 H 244.931 1.69016 3.62317 0
M  V30 2632 H 246.371 0.802762 4.16331 0
M  V30 2633 C 244.83 -0.435132 3.34078 0
M  V30 2634 O 245.36 -1.4583 3.74295 0
M  V30 2635 N 243.566 -0.444377 2.87182 0
M  V30 2636 H 243.113 0.388723 2.5465 0
M  V30 2637 H 243.071 -1.31213 2.85711 0
M  V30 2638 N 246.843 -1.10192 1.12674 0
M  V30 2639 C 248.259 -1.34235 0.863317 0
M  V30 2640 C 248.459 -1.95062 -0.505277 0
M  V30 2641 O 247.515 -2.19192 -1.25345 0
M  V30 2642 C 248.828 -2.2616 1.98172 0
M  V30 2643 C 250.376 -2.3969 2.0129 0
M  V30 2644 C 250.851 -3.34946 3.1237 0
M  V30 2645 N 252.342 -3.42515 3.11829 0
M  V30 2646 C 253.077 -4.16199 3.94419 0
M  V30 2647 N 252.573 -4.92747 4.87004 0
M  V30 2648 N 254.366 -4.11843 3.82547 0
M  V30 2649 H 246.517 -0.690798 2.00853 0
M  V30 2650 H 248.78 -0.366774 0.874174 0
M  V30 2651 H 248.486 -1.8868 2.96804 0
M  V30 2652 H 248.36 -3.26488 1.88906 0
M  V30 2653 H 250.747 -2.76438 1.03276 0
M  V30 2654 H 250.828 -1.39169 2.14629 0
M  V30 2655 H 250.472 -2.98923 4.10619 0
M  V30 2656 H 250.402 -4.35353 2.96269 0
M  V30 2657 H 252.893 -2.87926 2.44759 0
M  V30 2658 H 253.206 -5.46376 5.46528 0
M  V30 2659 H 251.551 -4.91862 4.91016 0
M  V30 2660 H 254.742 -3.51136 3.0955 0
M  V30 2661 H 254.915 -4.69007 4.47142 0
M  V30 2662 N 248.321 -0.919034 -1.28029 0
M  V30 2663 C 249.251 -0.428581 -2.29533 0
M  V30 2664 C 250.232 0.50659 -1.62381 0
M  V30 2665 O 251.417 0.413195 -1.89753 0
M  V30 2666 C 248.547 0.327388 -3.45753 0
M  V30 2667 C 247.501 -0.519137 -4.2484 0
M  V30 2668 C 246.827 0.365486 -5.33449 0
M  V30 2669 C 248.127 -1.77914 -4.91064 0
M  V30 2670 H 249.821 -1.27687 -2.70807 0
M  V30 2671 H 247.367 -0.615428 -1.30186 0
M  V30 2672 H 249.32 0.681378 -4.15855 0
M  V30 2673 H 248.044 1.20963 -3.03374 0
M  V30 2674 H 246.703 -0.855717 -3.56473 0
M  V30 2675 H 246.351 1.24642 -4.87312 0
M  V30 2676 H 246.051 -0.197356 -5.87268 0
M  V30 2677 H 247.575 0.715241 -6.06396 0
M  V30 2678 H 248.989 -1.49374 -5.53498 0
M  V30 2679 H 247.386 -2.2848 -5.54903 0
M  V30 2680 H 248.456 -2.50382 -4.15255 0
M  V30 2681 N 249.799 1.42003 -0.683588 0
M  V30 2682 C 251.048 2.00638 -0.206681 0
M  V30 2683 C 251.361 1.5472 1.19671 0
M  V30 2684 O 252.567 2.05833 1.77045 0
M  V30 2685 C 251.023 3.58487 -0.318632 0
M  V30 2686 C 250.631 4.1339 -1.72663 0
M  V30 2687 C 252.375 4.24384 0.0991141 0
M  V30 2688 C 250.282 5.63633 -1.79087 0
M  V30 2689 H 249.212 0.750408 -0.0735107 0
M  V30 2690 H 251.863 1.62624 -0.850048 0
M  V30 2691 H 250.245 3.94047 0.392781 0
M  V30 2692 H 251.419 3.89273 -2.46583 0
M  V30 2693 H 249.734 3.59976 -2.09299 0
M  V30 2694 H 252.331 5.34652 0.0713833 0
M  V30 2695 H 252.674 4.00505 1.13586 0
M  V30 2696 H 253.207 3.93816 -0.561599 0
M  V30 2697 H 249.946 5.92323 -2.80774 0
M  V30 2698 H 249.466 5.89714 -1.09535 0
M  V30 2699 H 251.145 6.28201 -1.5483 0
M  V30 2700 N 251.277 0.427512 1.51691 0
M  V30 2701 C 252.502 -0.143601 2.06902 0
M  V30 2702 C 252.927 -1.36536 1.29382 0
M  V30 2703 O 252.285 -1.78289 0.329043 0
M  V30 2704 C 252.333 -0.454207 3.57728 0
M  V30 2705 O 251.437 -1.54228 3.82475 0
M  V30 2706 H 250.778 -0.00617128 0.663971 0
M  V30 2707 H 253.308 0.606014 1.95419 0
M  V30 2708 H 253.318 -0.707525 4.01818 0
M  V30 2709 H 251.993 0.438812 4.13579 0
M  V30 2710 H 250.57 -1.2797 3.50254 0
M  V30 2711 N 252.755 -1.56801 0.158532 0
M  V30 2712 C 253.687 -2.14488 -0.807923 0
M  V30 2713 C 254.7 -1.09721 -1.20271 0
M  V30 2714 O 255.889 -1.36956 -1.14478 0
M  V30 2715 C 252.989 -2.66217 -2.09718 0
M  V30 2716 C 252.162 -3.95507 -1.86796 0
M  V30 2717 C 251.221 -4.3243 -2.99818 0
M  V30 2718 O 250.247 -5.00543 -2.71008 0
M  V30 2719 N 251.449 -3.92947 -4.27285 0
M  V30 2720 H 254.214 -2.98042 -0.314816 0
M  V30 2721 H 251.775 -1.61881 -0.0246692 0
M  V30 2722 H 253.767 -2.87924 -2.84398 0
M  V30 2723 H 252.337 -1.87324 -2.50257 0
M  V30 2724 H 251.557 -3.82309 -0.96089 0
M  V30 2725 H 252.845 -4.79972 -1.68833 0
M  V30 2726 H 252.243 -3.38087 -4.53557 0
M  V30 2727 H 250.8 -4.19681 -4.9871 0
M  V30 2728 N 254.233 0.115231 -1.57178 0
M  V30 2729 C 255.482 0.820945 -1.84237 0
M  V30 2730 C 255.795 1.80866 -0.744761 0
M  V30 2731 O 257.001 2.56083 -0.901871 0
M  V30 2732 C 255.457 1.51072 -3.26658 0
M  V30 2733 C 255.065 0.563795 -4.44438 0
M  V30 2734 C 256.809 2.20134 -3.62962 0
M  V30 2735 C 254.716 1.25701 -5.77887 0
M  V30 2736 H 253.646 0.310328 -0.687177 0
M  V30 2737 H 256.297 0.0737134 -1.83352 0
M  V30 2738 H 254.679 2.30471 -3.22024 0
M  V30 2739 H 255.853 -0.197247 -4.60378 0
M  V30 2740 H 254.168 -0.0200638 -4.16395 0
M  V30 2741 H 256.765 2.72696 -4.59936 0
M  V30 2742 H 257.108 2.98107 -2.90582 0
M  V30 2743 H 257.641 1.47619 -3.69396 0
M  V30 2744 H 254.38 0.518493 -6.53446 0
M  V30 2745 H 253.9 1.98997 -5.65827 0
M  V30 2746 H 255.579 1.78915 -6.2177 0
M  V30 2747 N 255.711 1.52812 0.385517 0
M  V30 2748 C 256.957 1.68275 1.13188 0
M  V30 2749 C 257.29 0.423179 1.89533 0
M  V30 2750 O 256.565 -0.579113 1.85679 0
M  V30 2751 C 256.848 2.92001 2.1073 0
M  V30 2752 C 256.701 4.28067 1.38125 0
M  V30 2753 C 258.02 3.11283 3.11113 0
M  V30 2754 H 255.139 0.612352 0.410115 0
M  V30 2755 H 257.781 1.85415 0.414869 0
M  V30 2756 H 255.931 2.77519 2.71874 0
M  V30 2757 H 257.603 4.54324 0.799187 0
M  V30 2758 H 255.846 4.28388 0.683092 0
M  V30 2759 H 256.517 5.10733 2.09417 0
M  V30 2760 H 258.993 3.2482 2.6006 0
M  V30 2761 H 257.869 3.99325 3.76605 0
M  V30 2762 H 258.13 2.25656 3.80173 0
M  V30 2763 N 257.189 -0.644168 1.43834 0
M  V30 2764 C 258.414 -1.43642 1.49605 0
M  V30 2765 C 258.839 -1.8773 0.117913 0
M  V30 2766 O 258.197 -1.57938 -0.890239 0
M  V30 2767 C 258.245 -2.6416 2.45463 0
M  V30 2768 O 257.349 -3.63538 1.94714 0
M  V30 2769 H 256.69 -0.430329 0.50568 0
M  V30 2770 H 259.22 -0.787448 1.8884 0
M  V30 2771 H 259.23 -3.11864 2.63068 0
M  V30 2772 H 257.905 -2.31414 3.45572 0
M  V30 2773 H 256.482 -3.2273 1.86814 0
M  V30 2774 N 258.668 -1.30515 -0.883378 0
M  V30 2775 C 259.893 -1.22487 -1.67367 0
M  V30 2776 C 260.318 0.208767 -1.86938 0
M  V30 2777 O 259.676 1.15015 -1.40148 0
M  V30 2778 C 259.724 -1.96041 -3.02655 0
M  V30 2779 O 258.828 -1.28859 -3.91751 0
M  V30 2780 H 258.169 -0.423573 -0.511353 0
M  V30 2781 H 260.699 -1.72362 -1.10239 0
M  V30 2782 H 260.709 -2.05124 -3.52687 0
M  V30 2783 H 259.384 -3.00307 -2.8773 0
M  V30 2784 H 257.961 -1.28141 -3.50192 0
M  V30 2785 N 260.146 1.09593 -1.13257 0
M  V30 2786 C 261.395 1.81105 -0.887917 0
M  V30 2787 C 261.708 1.86563 0.587672 0
M  V30 2788 O 262.914 2.54367 0.949204 0
M  V30 2789 C 261.37 3.25338 -1.53895 0
M  V30 2790 C 260.978 3.28151 -3.04994 0
M  V30 2791 C 262.722 4.01617 -1.37492 0
M  V30 2792 C 260.629 4.66897 -3.6299 0
M  V30 2793 H 259.559 0.678661 -0.328534 0
M  V30 2794 H 262.21 1.23183 -1.36008 0
M  V30 2795 H 260.592 3.8331 -0.994446 0
M  V30 2796 H 261.766 2.79953 -3.66009 0
M  V30 2797 H 260.081 2.65361 -3.20893 0
M  V30 2798 H 262.678 5.04119 -1.78235 0
M  V30 2799 H 263.021 4.15072 -0.31957 0
M  V30 2800 H 263.554 3.50082 -1.88912 0
M  V30 2801 H 260.293 4.58643 -4.68323 0
M  V30 2802 H 259.813 5.15426 -3.06752 0
M  V30 2803 H 261.492 5.3587 -3.62563 0
M  V30 2804 N 261.624 0.925811 1.2754 0
M  V30 2805 C 262.852 0.581509 1.9856 0
M  V30 2806 C 263.267 -0.840041 1.69082 0
M  V30 2807 O 262.624 -1.55805 0.950312 0
M  V30 2808 C 262.675 0.795589 3.52637 0
M  V30 2809 O 262.396 2.16121 3.81082 0
M  V30 2810 C 263.897 0.459744 4.4091 0
M  V30 2811 H 261.117 0.220538 0.633722 0
M  V30 2812 H 263.661 1.24232 1.6244 0
M  V30 2813 H 261.816 0.18161 3.86974 0
M  V30 2814 H 262.23 2.2098 4.75676 0
M  V30 2815 H 263.704 0.660244 5.48037 0
M  V30 2816 H 264.181 -0.604625 4.35018 0
M  V30 2817 H 264.787 1.05178 4.12089 0
M  V30 2818 N 263.102 -1.41638 0.69111 0
M  V30 2819 C 264.065 -2.29178 0.0319786 0
M  V30 2820 C 265.065 -1.44153 -0.712496 0
M  V30 2821 O 266.255 -1.65354 -0.548053 0
M  V30 2822 C 263.387 -3.26952 -0.965161 0
M  V30 2823 H 264.58 -2.88959 0.802681 0
M  V30 2824 H 262.133 -1.4955 0.454356 0
M  V30 2825 H 262.868 -2.72142 -1.76378 0
M  V30 2826 H 262.653 -3.89685 -0.434522 0
M  V30 2827 H 264.143 -3.92561 -1.42428 0
M  V30 2828 N 264.58 -0.43555 -1.51462 0
M  V30 2829 C 265.805 0.132627 -2.06976 0
M  V30 2830 C 266.23 1.35848 -1.30104 0
M  V30 2831 O 265.588 1.78112 -0.338493 0
M  V30 2832 C 265.636 0.43523 -3.57964 0
M  V30 2833 O 264.74 1.52198 -3.83288 0
M  V30 2834 H 264.081 0.00265 -0.663995 0
M  V30 2835 H 266.611 -0.616369 -1.95095 0
M  V30 2836 H 266.621 0.686206 -4.02188 0
M  V30 2837 H 265.296 -0.460739 -4.1334 0
M  V30 2838 H 263.873 1.2611 -3.50928 0
M  V30 2839 N 266.058 1.56714 -0.166846 0
M  V30 2840 C 266.988 2.20754 0.760913 0
M  V30 2841 C 267.969 1.16178 1.24244 0
M  V30 2842 O 269.154 1.44592 1.29641 0
M  V30 2843 C 266.284 2.84478 1.99223 0
M  V30 2844 C 265.238 3.95053 1.64672 0
M  V30 2845 C 264.564 4.45805 2.95232 0
M  V30 2846 C 265.864 5.14865 0.878155 0
M  V30 2847 H 267.558 2.98537 0.22713 0
M  V30 2848 H 265.104 1.43596 0.107805 0
M  V30 2849 H 267.057 3.27951 2.64624 0
M  V30 2850 H 265.781 2.04056 2.55007 0
M  V30 2851 H 264.44 3.52228 1.01641 0
M  V30 2852 H 264.088 3.62181 3.49047 0
M  V30 2853 H 263.788 5.204 2.7287 0
M  V30 2854 H 265.312 4.91962 3.6167 0
M  V30 2855 H 266.726 5.55059 1.43466 0
M  V30 2856 H 265.123 5.95348 0.753738 0
M  V30 2857 H 266.193 4.84735 -0.126377 0
M  V30 2858 N 267.536 -0.106894 1.57237 0
M  V30 2859 C 268.952 -0.46078 1.52804 0
M  V30 2860 C 269.152 -1.81184 0.881746 0
M  V30 2861 O 268.208 -2.48102 0.469224 0
M  V30 2862 C 269.521 -0.434127 2.9755 0
M  V30 2863 C 271.069 -0.516821 3.08704 0
M  V30 2864 C 271.544 -0.520436 4.55033 0
M  V30 2865 N 273.035 -0.58153 4.59535 0
M  V30 2866 C 273.77 -0.605973 5.70189 0
M  V30 2867 N 273.266 -0.587331 6.90306 0
M  V30 2868 N 275.059 -0.649895 5.5833 0
M  V30 2869 H 267.21 0.778203 1.9763 0
M  V30 2870 H 269.473 0.288403 0.903066 0
M  V30 2871 H 269.179 0.491197 3.48253 0
M  V30 2872 H 269.053 -1.25748 3.55622 0
M  V30 2873 H 271.44 -1.43256 2.57995 0
M  V30 2874 H 271.521 0.334449 2.53604 0
M  V30 2875 H 271.165 0.391313 5.0639 0
M  V30 2876 H 271.095 -1.38876 5.07958 0
M  V30 2877 H 273.586 -0.60161 3.73081 0
M  V30 2878 H 273.899 -0.60894 7.70397 0
M  V30 2879 H 272.244 -0.554564 6.92784 0
M  V30 2880 H 275.435 -0.661907 4.63397 0
M  V30 2881 H 275.608 -0.665476 6.44574 0
M  V30 2882 N 269.014 -1.53014 -0.377408 0
M  V30 2883 C 270.261 -1.68623 -1.12128 0
M  V30 2884 C 270.589 -0.431997 -1.89642 0
M  V30 2885 O 269.844 0.585855 -1.86725 0
M  V30 2886 C 270.143 -2.87982 -2.11663 0
M  V30 2887 C 269.809 -4.24964 -1.50719 0
M  V30 2888 C 268.471 -4.62217 -1.33825 0
M  V30 2889 C 270.823 -5.10199 -1.06519 0
M  V30 2890 C 268.151 -5.82352 -0.712963 0
M  V30 2891 C 270.503 -6.30969 -0.453955 0
M  V30 2892 C 269.167 -6.66944 -0.272411 0
M  V30 2893 H 268.437 -0.617034 -0.410305 0
M  V30 2894 H 271.084 -1.8718 -0.404484 0
M  V30 2895 H 269.389 -2.63889 -2.89603 0
M  V30 2896 H 271.086 -2.97253 -2.6915 0
M  V30 2897 H 267.676 -3.95626 -1.64858 0
M  V30 2898 H 271.86 -4.81978 -1.18368 0
M  V30 2899 H 267.116 -6.08824 -0.560611 0
M  V30 2900 H 271.29 -6.96324 -0.103217 0
M  V30 2901 H 268.917 -7.59898 0.214181 0
M  V30 2902 N 270.492 0.636531 -1.44174 0
M  V30 2903 C 271.769 1.39463 -1.37148 0
M  V30 2904 C 272.149 2.11082 -0.027507 0
M  V30 2905 O 271.497 2.05954 0.989716 0
M  V30 2906 C 271.707 2.36552 -2.56601 0
M  V30 2907 C 273.055 3.00048 -3.00427 0
M  V30 2908 O 274.079 2.46878 -2.56767 0
M  V30 2909 O 272.938 3.96488 -3.76111 0
M  V30 2910 H 270.032 0.623903 -0.542839 0
M  V30 2911 H 272.578 0.662039 -1.56253 0
M  V30 2912 H 271.35 1.82692 -3.46034 0
M  V30 2913 H 270.973 3.17236 -2.39681 0
M  V30 2914 N 271.97 1.30982 0.876444 0
M  V30 2915 C 273.218 1.20058 1.62575 0
M  V30 2916 C 273.539 -0.242947 1.93481 0
M  V30 2917 O 272.809 -1.1619 1.57724 0
M  V30 2918 H 271.389 0.44135 0.602677 0
M  V30 2919 H 274.051 1.64222 1.04962 0
M  V30 2920 H 273.147 1.76762 2.57219 0
M  V30 2921 N 273.449 -1.08991 1.13837 0
M  V30 2922 C 274.412 -2.13925 0.822715 0
M  V30 2923 C 275.412 -1.599 -0.1699 0
M  V30 2924 O 276.602 -1.74104 0.0577251 0
M  V30 2925 C 273.734 -3.40155 0.225318 0
M  V30 2926 H 274.927 -2.43358 1.75262 0
M  V30 2927 H 272.48 -1.24603 0.943594 0
M  V30 2928 H 273.215 -3.16352 -0.713594 0
M  V30 2929 H 273 -3.80661 0.940193 0
M  V30 2930 H 274.49 -4.17594 0.0214784 0
M  V30 2931 N 274.927 -0.932562 -1.27047 0
M  V30 2932 C 275.857 -0.452902 -2.29066 0
M  V30 2933 C 276.838 0.489338 -1.62909 0
M  V30 2934 O 278.023 0.393046 -1.90181 0
M  V30 2935 C 275.153 0.290698 -3.46081 0
M  V30 2936 C 274.107 -0.564168 -4.24265 0
M  V30 2937 C 273.433 0.308886 -5.33807 0
M  V30 2938 C 274.733 -1.83112 -4.89149 0
M  V30 2939 H 276.427 -1.30552 -2.69437 0
M  V30 2940 H 273.973 -0.629201 -1.29526 0
M  V30 2941 H 275.926 0.637233 -4.16554 0
M  V30 2942 H 274.65 1.17738 -3.0464 0
M  V30 2943 H 273.309 -0.893477 -3.55545 0
M  V30 2944 H 272.957 1.19467 -4.88607 0
M  V30 2945 H 272.657 -0.259633 -5.87026 0
M  V30 2946 H 274.181 0.650884 -6.07121 0
M  V30 2947 H 275.595 -1.55236 -5.51883 0
M  V30 2948 H 273.992 -2.34353 -5.52448 0
M  V30 2949 H 275.062 -2.54772 -4.12576 0
M  V30 2950 N 276.405 1.4127 -0.698611 0
M  V30 2951 C 277.353 2.32588 -0.023855 0
M  V30 2952 C 278.347 1.51128 0.765292 0
M  V30 2953 O 279.553 1.67043 0.670571 0
M  V30 2954 H 275.928 0.751918 0.0110871 0
M  V30 2955 H 277.899 2.87167 -0.811031 0
M  V30 2956 C 276.648 3.35947 0.896369 0
M  V30 2957 H 275.971 3.98684 0.298548 0
M  V30 2958 H 277.411 4.02376 1.33676 0
M  V30 2959 C 275.87 2.70076 2.01396 0
M  V30 2960 O 276.4 2.55093 3.10307 0
M  V30 2961 N 274.606 2.28724 1.79259 0
M  V30 2962 H 274.153 2.4111 0.906841 0
M  V30 2963 H 274.111 1.84986 2.54219 0
M  V30 2964 N 277.883 0.443576 1.51229 0
M  V30 2965 C 279.129 -0.120975 2.02439 0
M  V30 2966 C 279.462 -1.41815 1.32674 0
M  V30 2967 O 278.737 -1.89373 0.443622 0
M  V30 2968 C 279.02 -0.333291 3.58554 0
M  V30 2969 C 278.873 0.982968 4.38928 0
M  V30 2970 C 280.192 -1.10028 4.26124 0
M  V30 2971 H 277.311 -0.0424923 0.735774 0
M  V30 2972 H 279.953 0.583794 1.80809 0
M  V30 2973 H 278.103 -0.933614 3.77115 0
M  V30 2974 H 279.775 1.61775 4.32003 0
M  V30 2975 H 278.018 1.58611 4.03763 0
M  V30 2976 H 278.689 0.788379 5.46341 0
M  V30 2977 H 281.165 -0.591711 4.11871 0
M  V30 2978 H 280.041 -1.21761 5.35225 0
M  V30 2979 H 280.302 -2.12996 3.87408 0
M  V30 2980 N 279.361 -1.56624 0.175154 0
M  V30 2981 C 280.638 -1.88688 -0.515373 0
M  V30 2982 C 281.018 -1.08564 -1.81044 0
M  V30 2983 O 280.366 -0.180703 -2.27784 0
M  V30 2984 C 280.576 -3.40768 -0.753552 0
M  V30 2985 C 281.924 -4.10587 -1.08184 0
M  V30 2986 O 282.948 -3.46106 -0.841961 0
M  V30 2987 O 281.807 -5.24512 -1.53459 0
M  V30 2988 H 278.901 -0.78301 -0.26613 0
M  V30 2989 H 281.447 -1.68347 0.213877 0
M  V30 2990 H 280.219 -3.90965 0.161829 0
M  V30 2991 H 279.842 -3.66733 -1.53598 0
M  V30 2992 N 280.839 0.0985539 -1.57292 0
M  V30 2993 C 281.769 1.12064 -2.04851 0
M  V30 2994 C 282.75 1.41981 -0.936767 0
M  V30 2995 O 283.935 1.52071 -1.20781 0
M  V30 2996 C 281.065 2.44144 -2.47004 0
M  V30 2997 C 280.019 2.28643 -3.6181 0
M  V30 2998 C 279.345 3.65869 -3.89929 0
M  V30 2999 C 280.645 1.72986 -4.92822 0
M  V30 3000 H 282.339 0.724979 -2.9049 0
M  V30 3001 H 279.885 0.34729 -1.39749 0
M  V30 3002 H 281.838 3.15914 -2.78884 0
M  V30 3003 H 280.562 2.85639 -1.5836 0
M  V30 3004 H 279.221 1.59318 -3.30172 0
M  V30 3005 H 278.869 4.04885 -2.98458 0
M  V30 3006 H 278.569 3.56344 -4.67218 0
M  V30 3007 H 280.093 4.39112 -4.2428 0
M  V30 3008 H 281.507 2.34593 -5.23105 0
M  V30 3009 H 279.904 1.74229 -5.74251 0
M  V30 3010 H 280.974 0.689007 -4.7998 0
M  V30 3011 N 282.317 1.53212 0.369288 0
M  V30 3012 C 283.545 1.73119 1.13303 0
M  V30 3013 C 283.96 0.458455 1.83149 0
M  V30 3014 O 283.317 -0.568403 1.73423 0
M  V30 3015 C 283.368 2.89413 2.16616 0
M  V30 3016 O 283.089 4.11761 1.49614 0
M  V30 3017 C 284.59 3.21161 3.05566 0
M  V30 3018 H 281.81 0.579107 0.338934 0
M  V30 3019 H 284.354 1.99942 0.429338 0
M  V30 3020 H 282.509 2.64994 2.82589 0
M  V30 3021 H 282.923 4.76858 2.18419 0
M  V30 3022 H 284.397 4.05949 3.74045 0
M  V30 3023 H 284.874 2.36369 3.70171 0
M  V30 3024 H 285.48 3.47492 2.45213 0
M  V30 3025 N 283.795 -0.628877 1.44509 0
M  V30 3026 C 284.705 -1.7694 1.54044 0
M  V30 3027 C 285.721 -1.68705 0.425987 0
M  V30 3028 O 286.897 -1.89442 0.683656 0
M  V30 3029 C 283.962 -3.13332 1.48405 0
M  V30 3030 C 283.023 -3.33181 2.70719 0
M  V30 3031 C 282.256 -4.63067 2.6534 0
M  V30 3032 O 282.479 -5.44017 1.71469 0
M  V30 3033 O 281.413 -4.85167 3.56226 0
M  V30 3034 H 285.239 -1.71848 2.50403 0
M  V30 3035 H 282.824 -0.790378 1.26781 0
M  V30 3036 H 284.706 -3.94634 1.47791 0
M  V30 3037 H 283.381 -3.1896 0.551898 0
M  V30 3038 H 282.288 -2.51549 2.769 0
M  V30 3039 H 283.621 -3.32416 3.62988 0
M  V30 3040 N 285.273 -1.31445 -0.869486 0
M  V30 3041 C 286.52 -1.21158 -1.62256 0
M  V30 3042 C 286.848 0.230155 -1.93133 0
M  V30 3043 O 286.103 1.17906 -1.56194 0
M  V30 3044 C 286.402 -2.00145 -2.96102 0
M  V30 3045 C 286.068 -3.4964 -2.84715 0
M  V30 3046 C 284.73 -3.90403 -2.81317 0
M  V30 3047 C 287.082 -4.44769 -2.71716 0
M  V30 3048 C 284.41 -5.24561 -2.62778 0
M  V30 3049 C 286.762 -5.79054 -2.54714 0
M  V30 3050 C 285.426 -6.19037 -2.49699 0
M  V30 3051 H 284.696 -0.443348 -0.593737 0
M  V30 3052 H 287.343 -1.62715 -1.00976 0
M  V30 3053 H 285.648 -1.5127 -3.6142 0
M  V30 3054 H 287.345 -1.89566 -3.53363 0
M  V30 3055 H 283.935 -3.17256 -2.88178 0
M  V30 3056 H 288.119 -4.14208 -2.73397 0
M  V30 3057 H 283.375 -5.54613 -2.57321 0
M  V30 3058 H 287.549 -6.52393 -2.43632 0
M  V30 3059 H 285.176 -7.22935 -2.35093 0
M  V30 3060 N 286.751 1.08385 -1.14413 0
M  V30 3061 C 287.683 2.1519 -0.789036 0
M  V30 3062 C 288.696 1.61638 0.19417 0
M  V30 3063 O 289.885 1.78479 -0.0275711 0
M  V30 3064 C 286.985 3.38565 -0.15058 0
M  V30 3065 C 286.158 4.21501 -1.16857 0
M  V30 3066 C 285.217 5.23277 -0.553832 0
M  V30 3067 O 284.243 5.56041 -1.21686 0
M  V30 3068 N 285.445 5.76629 0.669296 0
M  V30 3069 H 288.21 2.46257 -1.70814 0
M  V30 3070 H 285.771 1.24198 -1.03858 0
M  V30 3071 H 287.763 4.03777 0.273181 0
M  V30 3072 H 286.333 3.05299 0.671667 0
M  V30 3073 H 285.553 3.52265 -1.76926 0
M  V30 3074 H 286.841 4.73731 -1.85624 0
M  V30 3075 H 286.239 5.52243 1.22654 0
M  V30 3076 H 284.796 6.43521 1.03556 0
M  V30 3077 N 288.23 0.939286 1.26551 0
M  V30 3078 C 289.458 0.602536 1.97932 0
M  V30 3079 C 289.873 -0.82206 1.69964 0
M  V30 3080 O 289.23 -1.54789 0.966784 0
M  V30 3081 C 289.281 0.832946 3.51773 0
M  V30 3082 O 289.002 2.20151 3.78768 0
M  V30 3083 C 290.503 0.506483 4.40397 0
M  V30 3084 H 287.723 0.227248 0.631347 0
M  V30 3085 H 290.267 1.25948 1.61113 0
M  V30 3086 H 288.422 0.222644 3.8676 0
M  V30 3087 H 288.836 2.26013 4.73306 0
M  V30 3088 H 290.31 0.718333 5.47306 0
M  V30 3089 H 290.787 -0.558451 4.35635 0
M  V30 3090 H 291.393 1.09543 4.10951 0
M  V30 3091 N 289.708 -1.40897 0.706093 0
M  V30 3092 C 290.656 -2.32572 0.0361893 0
M  V30 3093 C 291.65 -1.51532 -0.757266 0
M  V30 3094 O 292.856 -1.67396 -0.661703 0
M  V30 3095 H 289.231 -0.751966 -0.00709935 0
M  V30 3096 H 291.202 -2.86733 0.826249 0
M  V30 3097 C 289.951 -3.36418 -0.87854 0
M  V30 3098 H 289.274 -3.98836 -0.277401 0
M  V30 3099 H 290.714 -4.0308 -1.3154 0
M  V30 3100 C 289.173 -2.71141 -1.99961 0
M  V30 3101 O 289.703 -2.56735 -3.0895 0
M  V30 3102 N 287.909 -2.29671 -1.78043 0
M  V30 3103 H 287.456 -2.41588 -0.894042 0
M  V30 3104 H 287.414 -1.86332 -2.53235 0
M  V30 3105 N 291.186 -0.45159 -1.50991 0
M  V30 3106 C 292.116 0.342898 -2.30969 0
M  V30 3107 C 293.097 1.00815 -1.37005 0
M  V30 3108 O 294.282 1.00907 -1.65926 0
M  V30 3109 C 291.412 1.43637 -3.16205 0
M  V30 3110 C 290.366 0.893818 -4.18563 0
M  V30 3111 C 289.692 2.08411 -4.92411 0
M  V30 3112 C 290.992 -0.0815568 -5.22236 0
M  V30 3113 H 292.686 -0.324556 -2.97636 0
M  V30 3114 H 290.232 -0.157531 -1.43136 0
M  V30 3115 H 292.185 1.9995 -3.70942 0
M  V30 3116 H 290.909 2.13232 -2.47386 0
M  V30 3117 H 289.568 0.352798 -3.64898 0
M  V30 3118 H 289.216 2.76658 -4.20082 0
M  V30 3119 H 288.916 1.72741 -5.61636 0
M  V30 3120 H 290.44 2.65251 -5.49976 0
M  V30 3121 H 291.854 0.391742 -5.7196 0
M  V30 3122 H 290.251 -0.351551 -5.99069 0
M  V30 3123 H 291.321 -1.01374 -4.74185 0
M  V30 3124 N 292.664 1.56529 -0.183458 0
M  V30 3125 C 293.91 1.97537 0.459036 0
M  V30 3126 C 294.243 1.06989 1.62071 0
M  V30 3127 O 293.518 0.11948 1.94133 0
M  V30 3128 C 293.801 3.47874 0.930368 0
M  V30 3129 C 293.654 4.492 -0.232317 0
M  V30 3130 C 294.973 4.01612 1.79989 0
M  V30 3131 H 292.092 0.718204 0.165383 0
M  V30 3132 H 294.734 1.88042 -0.272038 0
M  V30 3133 H 292.884 3.56095 1.55333 0
M  V30 3134 H 294.556 4.53027 -0.86972 0
M  V30 3135 H 292.799 4.24657 -0.885928 0
M  V30 3136 H 293.47 5.51823 0.139796 0
M  V30 3137 H 295.946 3.96097 1.27461 0
M  V30 3138 H 294.822 5.07195 2.09867 0
M  V30 3139 H 295.083 3.46163 2.74998 0
M  V30 3140 N 294.142 -0.090211 1.57342 0
M  V30 3141 C 295.367 -0.810082 1.90925 0
M  V30 3142 C 295.792 -1.71248 0.778187 0
M  V30 3143 O 295.15 -1.79278 -0.269991 0
M  V30 3144 C 295.198 -1.59529 3.23393 0
M  V30 3145 O 294.302 -2.70461 3.11327 0
M  V30 3146 H 293.643 -0.222231 0.625707 0
M  V30 3147 H 296.173 -0.0639716 2.045 0
M  V30 3148 H 296.183 -1.97847 3.5682 0
M  V30 3149 H 294.858 -0.933055 4.05299 0
M  V30 3150 H 293.435 -2.35135 2.89423 0
M  V30 3151 N 295.62 -1.53406 -0.361157 0
M  V30 3152 C 296.85 -1.73465 -1.1222 0
M  V30 3153 C 297.258 -0.465486 -1.83384 0
M  V30 3154 O 296.601 0.571611 -1.7458 0
M  V30 3155 C 296.663 -2.84834 -2.19339 0
M  V30 3156 C 296.327 -4.25038 -1.67903 0
M  V30 3157 C 297.324 -5.07231 -1.14074 0
M  V30 3158 C 295.009 -4.71464 -1.73282 0
M  V30 3159 C 297.003 -6.33942 -0.663068 0
M  V30 3160 C 294.69 -5.98153 -1.25127 0
M  V30 3161 C 295.688 -6.79223 -0.717296 0
M  V30 3162 O 295.376 -8.03533 -0.242865 0
M  V30 3163 H 295.108 -0.583526 -0.341283 0
M  V30 3164 H 297.662 -2.00964 -0.424591 0
M  V30 3165 H 295.892 -2.5282 -2.92607 0
M  V30 3166 H 297.581 -2.9303 -2.80871 0
M  V30 3167 H 298.347 -4.72534 -1.09254 0
M  V30 3168 H 294.226 -4.08432 -2.13786 0
M  V30 3169 H 297.77 -6.97167 -0.245612 0
M  V30 3170 H 293.667 -6.32347 -1.29642 0
M  V30 3171 H 294.435 -8.177 -0.361786 0
M  V30 3172 N 297.098 0.621204 -1.44841 0
M  V30 3173 C 298.028 1.74366 -1.55303 0
M  V30 3174 C 299.009 1.65199 -0.405385 0
M  V30 3175 O 300.194 1.83807 -0.626787 0
M  V30 3176 C 297.324 3.12931 -1.50637 0
M  V30 3177 C 296.278 3.36896 -2.63979 0
M  V30 3178 C 295.604 4.75594 -2.44366 0
M  V30 3179 C 296.904 3.28483 -4.06074 0
M  V30 3180 H 298.598 1.65867 -2.49256 0
M  V30 3181 H 296.144 0.796558 -1.19962 0
M  V30 3182 H 298.097 3.9124 -1.56555 0
M  V30 3183 H 296.821 3.22237 -0.532057 0
M  V30 3184 H 295.48 2.60972 -2.57467 0
M  V30 3185 H 295.128 4.81616 -1.45105 0
M  V30 3186 H 294.828 4.92586 -3.20364 0
M  V30 3187 H 296.352 5.5612 -2.52117 0
M  V30 3188 H 297.766 3.96684 -4.13902 0
M  V30 3189 H 296.163 3.57008 -4.82354 0
M  V30 3190 H 297.233 2.26133 -4.28943 0
M  V30 3191 N 298.576 1.31904 0.862503 0
M  V30 3192 C 299.804 1.24998 1.64873 0
M  V30 3193 C 300.219 -0.183425 1.87907 0
M  V30 3194 O 299.576 -1.11794 1.44251 0
M  V30 3195 C 299.627 1.99829 3.01248 0
M  V30 3196 O 299.348 3.37575 2.79239 0
M  V30 3197 C 300.849 1.99852 3.95694 0
M  V30 3198 H 298.069 0.431599 0.513773 0
M  V30 3199 H 300.613 1.73901 1.07604 0
M  V30 3200 H 298.768 1.54668 3.55185 0
M  V30 3201 H 299.182 3.75776 3.65914 0
M  V30 3202 H 300.656 2.56709 4.88676 0
M  V30 3203 H 301.133 0.982852 4.28062 0
M  V30 3204 H 301.739 2.44926 3.47694 0
M  V30 3205 N 300.054 -1.07777 1.14986 0
M  V30 3206 C 301.279 -1.84558 0.946213 0
M  V30 3207 C 301.704 -1.81323 -0.500362 0
M  V30 3208 O 301.062 -1.20301 -1.35637 0
M  V30 3209 C 301.11 -3.29736 1.45968 0
M  V30 3210 O 300.214 -4.07149 0.65601 0
M  V30 3211 H 299.555 -0.571641 0.33782 0
M  V30 3212 H 302.085 -1.35991 1.52865 0
M  V30 3213 H 302.095 -3.80574 1.47063 0
M  V30 3214 H 300.77 -3.31406 2.51283 0
M  V30 3215 H 299.347 -3.65994 0.714322 0
M  V30 3216 N 301.532 -0.945985 -1.26051 0
M  V30 3217 C 302.76 -0.613025 -1.9761 0
M  V30 3218 C 303.175 0.813035 -1.70397 0
M  V30 3219 O 302.532 1.54274 -0.974979 0
M  V30 3220 C 302.583 -0.85159 -3.51326 0
M  V30 3221 O 302.304 -2.22157 -3.77595 0
M  V30 3222 C 303.805 -0.529831 -4.40122 0
M  V30 3223 H 301.025 -0.230593 -0.630133 0
M  V30 3224 H 303.569 -1.268 -1.60443 0
M  V30 3225 H 301.724 -0.243151 -3.86636 0
M  V30 3226 H 302.138 -2.2852 -4.721 0
M  V30 3227 H 303.612 -0.747348 -5.46917 0
M  V30 3228 H 304.089 0.535341 -4.35925 0
M  V30 3229 H 304.695 -1.11721 -4.10364 0
M  V30 3230 N 303.011 1.40521 -0.713556 0
M  V30 3231 C 304.236 2.05759 -0.26035 0
M  V30 3232 C 304.661 1.53403 1.08854 0
M  V30 3233 O 304.019 0.668535 1.68524 0
M  V30 3234 C 304.067 3.59745 -0.248122 0
M  V30 3235 O 303.171 4.05123 0.77131 0
M  V30 3236 H 302.512 0.652564 -0.122703 0
M  V30 3237 H 305.042 1.79958 -0.973467 0
M  V30 3238 H 305.052 4.07911 -0.0851129 0
M  V30 3239 H 303.727 3.97218 -1.2325 0
M  V30 3240 H 302.304 3.68422 0.57619 0
M  V30 3241 N 304.489 0.459591 1.5075 0
M  V30 3242 C 305.9 0.00171547 1.867 0
M  V30 3243 C 306.251 -1.39934 1.37525 0
M  V30 3244 O 305.376 -2.03523 0.735349 0
M  V30 3245 C 305.971 -0.00366298 3.388 0
M  V30 3246 C 304.53 -0.406026 3.74204 0
M  V30 3247 C 303.677 0.38673 2.7459 0
M  V30 3248 H 306.628 0.674413 1.43657 0
M  V30 3249 H 306.649 -0.808371 3.71814 0
M  V30 3250 H 306.161 1.01617 3.74561 0
M  V30 3251 H 304.262 -1.43063 3.4404 0
M  V30 3252 H 304.375 -0.115362 4.78961 0
M  V30 3253 H 302.739 -0.158019 2.54209 0
M  V30 3254 H 303.522 1.40585 3.13194 0
M  V30 3255 N 305.967 -1.56429 0.191757 0
M  V30 3256 C 307.213 -1.98541 -0.441943 0
M  V30 3257 C 307.568 -1.07646 -1.59468 0
M  V30 3258 O 306.861 -0.120191 -1.91223 0
M  V30 3259 C 307.055 -3.44449 -0.953384 0
M  V30 3260 C 306.884 -4.49456 0.148262 0
M  V30 3261 C 305.654 -5.01668 0.604781 0
M  V30 3262 C 307.852 -5.05336 0.95602 0
M  V30 3263 N 305.834 -5.90334 1.6846 0
M  V30 3264 C 307.205 -5.9064 1.88531 0
M  V30 3265 C 309.26 -4.87779 0.998811 0
M  V30 3266 C 307.963 -6.60264 2.85383 0
M  V30 3267 C 309.989 -5.58139 1.95537 0
M  V30 3268 C 309.351 -6.43187 2.8721 0
M  V30 3269 H 305.45 -0.771247 -0.129236 0
M  V30 3270 H 308.034 -1.92426 0.296682 0
M  V30 3271 H 306.205 -3.5107 -1.66146 0
M  V30 3272 H 307.937 -3.73533 -1.55741 0
M  V30 3273 H 304.692 -4.73183 0.198736 0
M  V30 3274 H 305.116 -6.39371 2.22561 0
M  V30 3275 H 309.758 -4.21705 0.304048 0
M  V30 3276 H 307.476 -7.25538 3.55837 0
M  V30 3277 H 311.062 -5.46532 1.99484 0
M  V30 3278 H 309.942 -6.96674 3.60022 0
M  V30 3279 N 307.445 0.0818655 -1.57387 0
M  V30 3280 C 308.856 0.634871 -1.75574 0
M  V30 3281 C 309.207 1.78435 -0.815809 0
M  V30 3282 O 308.332 2.164 0.0025366 0
M  V30 3283 C 308.927 1.15845 -3.18379 0
M  V30 3284 C 307.486 1.65741 -3.37945 0
M  V30 3285 C 306.633 0.572549 -2.71325 0
M  V30 3286 H 309.584 -0.144268 -1.58043 0
M  V30 3287 H 309.605 2.02751 -3.21982 0
M  V30 3288 H 309.117 0.321631 -3.86765 0
M  V30 3289 H 307.218 2.51781 -2.74658 0
M  V30 3290 H 307.331 1.74129 -4.46336 0
M  V30 3291 H 305.695 1.01518 -2.33594 0
M  V30 3292 H 306.478 -0.253918 -3.4236 0
M  V30 3293 N 308.923 1.53595 0.353017 0
M  V30 3294 C 310.334 1.61937 0.929153 0
M  V30 3295 C 310.685 0.494686 1.89861 0
M  V30 3296 O 309.81 -0.377017 2.1309 0
M  V30 3297 C 310.405 2.93526 1.69199 0
M  V30 3298 C 308.964 3.04161 2.21727 0
M  V30 3299 C 308.111 2.57322 1.03348 0
M  V30 3300 H 311.062 1.58155 0.131431 0
M  V30 3301 H 311.083 2.82034 2.55416 0
M  V30 3302 H 310.595 3.75362 0.986144 0
M  V30 3303 H 308.696 2.26938 2.95516 0
M  V30 3304 H 308.809 4.09465 2.48748 0
M  V30 3305 H 307.173 2.12499 1.40414 0
M  V30 3306 H 307.956 3.41588 0.342428 0
M  V30 3307 N 310.401 -0.613514 1.45168 0
M  V30 3308 C 311.334 -1.73809 1.47871 0
M  V30 3309 C 312.312 -1.59097 0.33568 0
M  V30 3310 O 313.496 -1.8074 0.535299 0
M  V30 3311 C 310.623 -3.11574 1.32813 0
M  V30 3312 C 309.669 -3.4489 2.50905 0
M  V30 3313 S 310.502 -3.40393 4.13392 0
M  V30 3314 C 311.658 -4.80749 4.00789 0
M  V30 3315 H 311.891 -1.71252 2.43023 0
M  V30 3316 H 309.424 -0.789658 1.32679 0
M  V30 3317 H 311.382 -3.91065 1.24812 0
M  V30 3318 H 310.043 -3.11652 0.391418 0
M  V30 3319 H 309.236 -4.45183 2.36279 0
M  V30 3320 H 308.838 -2.72901 2.55736 0
M  V30 3321 H 311.13 -5.7041 3.65567 0
M  V30 3322 H 312.073 -5.00431 5.00974 0
M  V30 3323 H 312.481 -4.56151 3.32545 0
M  V30 3324 N 311.879 -1.3236 -0.855495 0
M  V30 3325 C 312.829 -1.17809 -1.95205 0
M  V30 3326 C 313.813 -0.0852319 -1.60674 0
M  V30 3327 O 315.005 -0.311651 -1.74235 0
M  V30 3328 C 312.134 -0.902437 -3.31226 0
M  V30 3329 C 311.22 -2.03695 -3.7198 0
M  V30 3330 N 311.611 -3.28544 -3.84568 0
M  V30 3331 C 309.909 -1.93993 -4.016 0
M  V30 3332 C 310.61 -4.02847 -4.19629 0
M  V30 3333 N 309.586 -3.31138 -4.31102 0
M  V30 3334 H 313.388 -2.12462 -2.0307 0
M  V30 3335 H 310.902 -1.24127 -1.0472 0
M  V30 3336 H 312.899 -0.77915 -4.09554 0
M  V30 3337 H 311.559 0.0357267 -3.2468 0
M  V30 3338 H 312.57 -3.6349 -3.68911 0
M  V30 3339 H 309.247 -1.07733 -4.03361 0
M  V30 3340 H 310.637 -5.10506 -4.36845 0
M  V30 3341 N 313.357 1.07166 -1.15556 0
M  V30 3342 C 314.289 2.14341 -0.811815 0
M  V30 3343 C 315.302 1.61835 0.177015 0
M  V30 3344 O 316.491 1.78439 -0.0464996 0
M  V30 3345 C 313.591 3.38387 -0.186481 0
M  V30 3346 C 312.764 4.20238 -1.21321 0
M  V30 3347 C 311.823 5.2266 -0.609302 0
M  V30 3348 O 310.849 5.54719 -1.27576 0
M  V30 3349 N 312.051 5.77306 0.608099 0
M  V30 3350 H 314.816 2.44431 -1.73417 0
M  V30 3351 H 312.377 1.23089 -1.0517 0
M  V30 3352 H 314.369 4.04044 0.230339 0
M  V30 3353 H 312.939 3.05994 0.639249 0
M  V30 3354 H 312.159 3.50369 -1.80652 0
M  V30 3355 H 313.447 4.71736 -1.90638 0
M  V30 3356 H 312.845 5.53513 1.1679 0
M  V30 3357 H 311.402 6.44583 0.96725 0
M  V30 3358 N 314.835 0.952656 1.25548 0
M  V30 3359 C 316.06 0.623025 1.97821 0
M  V30 3360 C 316.485 -0.7976 1.70352 0
M  V30 3361 O 315.843 -1.53905 0.958283 0
M  V30 3362 C 315.891 0.885532 3.49558 0
M  V30 3363 O 314.995 -0.0366641 4.12384 0
M  V30 3364 H 314.336 0.237082 0.620232 0
M  V30 3365 H 316.866 1.27871 1.59719 0
M  V30 3366 H 316.876 0.811009 3.99858 0
M  V30 3367 H 315.551 1.92094 3.6888 0
M  V30 3368 H 314.128 0.0898954 3.72792 0
M  V30 3369 N 316.313 -1.40141 0.720998 0
M  V30 3370 C 317.538 -2.05618 0.271258 0
M  V30 3371 C 317.963 -1.53978 -1.08039 0
M  V30 3372 O 317.321 -0.677463 -1.68167 0
M  V30 3373 C 317.369 -3.59609 0.267197 0
M  V30 3374 O 316.473 -4.05526 -0.749814 0
M  V30 3375 H 315.814 -0.651904 0.126162 0
M  V30 3376 H 318.344 -1.79439 0.982997 0
M  V30 3377 H 318.354 -4.0786 0.106744 0
M  V30 3378 H 317.029 -3.96559 1.25354 0
M  V30 3379 H 315.606 -3.68722 -0.556644 0
M  V30 3380 N 317.792 -0.46758 -1.50504 0
M  V30 3381 C 318.722 0.318381 -2.31319 0
M  V30 3382 C 319.703 0.993564 -1.38066 0
M  V30 3383 O 320.888 0.991411 -1.66987 0
M  V30 3384 C 318.018 1.40275 -3.17711 0
M  V30 3385 C 316.972 0.849373 -4.19487 0
M  V30 3386 C 316.298 2.03177 -4.94594 0
M  V30 3387 C 317.598 -0.136942 -5.2212 0
M  V30 3388 H 319.292 -0.356106 -2.97275 0
M  V30 3389 H 316.838 -0.172703 -1.42961 0
M  V30 3390 H 318.791 1.96004 -3.73042 0
M  V30 3391 H 317.515 2.10596 -2.49634 0
M  V30 3392 H 316.174 0.314076 -3.65252 0
M  V30 3393 H 315.822 2.72187 -4.22993 0
M  V30 3394 H 315.522 1.66774 -5.63436 0
M  V30 3395 H 317.046 2.59403 -5.52759 0
M  V30 3396 H 318.46 0.331056 -5.72343 0
M  V30 3397 H 316.857 -0.41507 -5.98663 0
M  V30 3398 H 317.927 -1.06398 -4.73083 0
M  V30 3399 N 319.27 1.56325 -0.20005 0
M  V30 3400 C 320.202 2.16555 0.750771 0
M  V30 3401 C 321.215 1.12871 1.1732 0
M  V30 3402 O 322.404 1.39943 1.10807 0
M  V30 3403 C 319.504 2.71684 2.02586 0
M  V30 3404 C 318.677 4.00321 1.76244 0
M  V30 3405 C 317.736 4.40227 2.88248 0
M  V30 3406 O 316.762 5.07552 2.57642 0
M  V30 3407 N 317.964 4.04138 4.16717 0
M  V30 3408 H 320.729 2.98772 0.235685 0
M  V30 3409 H 318.29 1.6189 -0.0182594 0
M  V30 3410 H 320.282 2.95363 2.76664 0
M  V30 3411 H 318.852 1.93893 2.45202 0
M  V30 3412 H 318.072 3.84723 0.85919 0
M  V30 3413 H 319.36 4.84279 1.56048 0
M  V30 3414 H 318.758 3.49993 4.44434 0
M  V30 3415 H 317.315 4.32756 4.87407 0
M  V30 3416 N 320.748 -0.0735177 1.57428 0
M  V30 3417 C 321.695 -1.08756 2.0357 0
M  V30 3418 C 322.665 -1.38559 0.916 0
M  V30 3419 O 323.85 -1.49656 1.18354 0
M  V30 3420 C 320.99 -2.39657 2.48311 0
M  V30 3421 C 320.103 -2.16399 3.73892 0
M  V30 3422 C 319.238 -3.40852 4.07423 0
M  V30 3423 C 318.277 -3.1295 5.2605 0
M  V30 3424 N 317.414 -4.29729 5.55228 0
M  V30 3425 H 322.254 -0.687104 2.8997 0
M  V30 3426 H 319.791 -0.327709 1.43403 0
M  V30 3427 H 321.749 -3.16081 2.72303 0
M  V30 3428 H 320.379 -2.77508 1.64891 0
M  V30 3429 H 319.431 -1.30676 3.57251 0
M  V30 3430 H 320.743 -1.91788 4.60455 0
M  V30 3431 H 319.897 -4.25671 4.32306 0
M  V30 3432 H 318.636 -3.68537 3.19425 0
M  V30 3433 H 317.641 -2.26526 5.00965 0
M  V30 3434 H 318.866 -2.86589 6.15665 0
M  V30 3435 H 316.812 -4.57448 4.70188 0
M  V30 3436 H 316.729 -4.08385 6.36206 0
M  V30 3437 H 317.997 -5.1555 5.84661 0
M  V30 3438 N 322.226 -1.5378 -0.344866 0
M  V30 3439 C 323.642 -1.44015 -0.687888 0
M  V30 3440 C 323.842 -0.595834 -1.92489 0
M  V30 3441 O 322.898 -0.0863064 -2.52352 0
M  V30 3442 C 324.211 -2.87481 -0.881758 0
M  V30 3443 C 325.759 -2.97247 -0.980459 0
M  V30 3444 C 326.234 -4.41819 -1.20665 0
M  V30 3445 N 327.725 -4.45339 -1.27389 0
M  V30 3446 C 328.46 -5.54333 -1.46639 0
M  V30 3447 N 327.956 -6.73335 -1.63071 0
M  V30 3448 N 329.749 -5.41944 -1.49176 0
M  V30 3449 H 321.9 -2.07169 0.468475 0
M  V30 3450 H 324.163 -0.93643 0.147655 0
M  V30 3451 H 323.869 -3.51672 -0.0443444 0
M  V30 3452 H 323.743 -3.32352 -1.78388 0
M  V30 3453 H 326.13 -2.33197 -1.8084 0
M  V30 3454 H 326.211 -2.5574 -0.0552713 0
M  V30 3455 H 325.855 -5.06449 -0.383652 0
M  V30 3456 H 325.785 -4.80917 -2.14539 0
M  V30 3457 H 328.276 -3.59585 -1.1622 0
M  V30 3458 H 328.589 -7.52165 -1.77391 0
M  V30 3459 H 326.934 -6.76282 -1.60209 0
M  V30 3460 H 330.125 -4.47932 -1.3592 0
M  V30 3461 H 330.298 -6.26946 -1.63837 0
M  V30 3462 N 323.704 0.605807 -1.45491 0
M  V30 3463 C 324.934 1.38934 -1.52908 0
M  V30 3464 C 325.342 1.88513 -0.161086 0
M  V30 3465 O 324.685 1.62962 0.847891 0
M  V30 3466 C 324.747 2.62737 -2.45376 0
M  V30 3467 C 324.411 2.34785 -3.92078 0
M  V30 3468 C 325.408 1.95038 -4.8193 0
M  V30 3469 C 323.093 2.47642 -4.37011 0
M  V30 3470 C 325.087 1.68511 -6.14722 0
M  V30 3471 C 322.774 2.20728 -5.69844 0
M  V30 3472 C 323.772 1.81225 -6.58519 0
M  V30 3473 O 323.46 1.54627 -7.88889 0
M  V30 3474 H 323.192 0.431629 -0.520262 0
M  V30 3475 H 325.746 0.74573 -1.91384 0
M  V30 3476 H 323.976 3.29824 -2.01874 0
M  V30 3477 H 325.665 3.24783 -2.43456 0
M  V30 3478 H 326.431 1.84639 -4.48479 0
M  V30 3479 H 322.31 2.77356 -3.68232 0
M  V30 3480 H 325.854 1.37602 -6.83894 0
M  V30 3481 H 321.751 2.30744 -6.02849 0
M  V30 3482 H 322.519 1.68665 -8.00933 0
M  V30 3483 N 325.182 1.32811 0.848464 0
M  V30 3484 C 326.41 1.26739 1.63538 0
M  V30 3485 C 326.825 -0.163484 1.88091 0
M  V30 3486 O 326.182 -1.10258 1.45429 0
M  V30 3487 C 326.233 2.03013 2.99112 0
M  V30 3488 O 325.954 3.40518 2.75643 0
M  V30 3489 C 327.455 2.04038 3.93552 0
M  V30 3490 H 324.675 0.437024 0.509167 0
M  V30 3491 H 327.219 1.75033 1.05753 0
M  V30 3492 H 325.374 1.58426 3.53525 0
M  V30 3493 H 325.788 3.79635 3.61908 0
M  V30 3494 H 327.262 2.61877 4.85926 0
M  V30 3495 H 327.739 1.0282 4.26995 0
M  V30 3496 H 328.345 2.486 3.45077 0
M  V30 3497 N 326.66 -1.06551 1.16123 0
M  V30 3498 C 327.888 -1.83005 0.965237 0
M  V30 3499 C 328.303 -1.82423 -0.486542 0
M  V30 3500 O 327.66 -1.24152 -1.33763 0
M  V30 3501 C 327.711 -3.29733 1.48183 0
M  V30 3502 O 327.432 -3.30416 2.87674 0
M  V30 3503 C 328.933 -4.22926 1.32848 0
M  V30 3504 H 326.153 -0.577118 0.342309 0
M  V30 3505 H 328.697 -1.3445 1.54089 0
M  V30 3506 H 326.852 -3.75609 0.948517 0
M  V30 3507 H 327.266 -4.22149 3.11272 0
M  V30 3508 H 328.74 -5.23916 1.73827 0
M  V30 3509 H 329.217 -4.38346 0.273692 0
M  V30 3510 H 329.823 -3.82894 1.85127 0
M  V30 3511 N 328.138 -0.959301 -1.25041 0
M  V30 3512 C 329.363 -0.633507 -1.97488 0
M  V30 3513 C 329.788 0.788555 -1.70773 0
M  V30 3514 O 329.146 1.53394 -0.966431 0
M  V30 3515 C 329.194 -0.904057 -3.49083 0
M  V30 3516 O 328.298 0.0147939 -4.12397 0
M  V30 3517 H 327.639 -0.240368 -0.618966 0
M  V30 3518 H 330.169 -1.28717 -1.59038 0
M  V30 3519 H 330.179 -0.832203 -3.99423 0
M  V30 3520 H 328.854 -1.94048 -3.67856 0
M  V30 3521 H 327.431 -0.109664 -3.72739 0
M  V30 3522 N 329.616 1.39756 -0.72842 0
M  V30 3523 C 330.841 2.05472 -0.282159 0
M  V30 3524 C 331.266 1.54549 1.07221 0
M  V30 3525 O 330.624 0.686372 1.67805 0
M  V30 3526 C 330.672 3.59462 -0.286264 0
M  V30 3527 O 329.776 4.05918 0.728298 0
M  V30 3528 H 329.117 0.651226 -0.129618 0
M  V30 3529 H 331.647 1.78915 -0.992499 0
M  V30 3530 H 331.657 4.07798 -0.128373 0
M  V30 3531 H 330.332 3.95889 -1.27456 0
M  V30 3532 H 328.909 3.69012 0.537081 0
M  V30 3533 N 331.094 0.475555 1.50254 0
M  V30 3534 C 332.334 -0.0765802 2.04256 0
M  V30 3535 C 332.698 -1.36587 1.34937 0
M  V30 3536 O 333.899 -2.00066 1.79519 0
M  V30 3537 C 332.17 -0.251668 3.56513 0
M  V30 3538 S 333.729 -0.761716 4.32138 0
M  V30 3539 H 330.547 -0.0138456 0.710865 0
M  V30 3540 H 333.149 0.643714 1.84598 0
M  V30 3541 H 331.853 0.692404 4.04517 0
M  V30 3542 H 331.384 -0.997946 3.80532 0
M  V30 3543 H 333.399 -2.03451 4.52573 0
M  V30 3544 N 332.573 -1.56217 0.208337 0
M  V30 3545 C 333.819 -1.98998 -0.42086 0
M  V30 3546 C 334.174 -1.09331 -1.58317 0
M  V30 3547 O 333.467 -0.140466 -1.91084 0
M  V30 3548 C 333.661 -3.45441 -0.916797 0
M  V30 3549 C 333.49 -4.49273 0.195925 0
M  V30 3550 C 332.26 -5.00998 0.657956 0
M  V30 3551 C 334.458 -5.04294 1.00956 0
M  V30 3552 N 332.44 -5.88514 1.74712 0
M  V30 3553 C 333.811 -5.88607 1.94785 0
M  V30 3554 C 335.866 -4.86692 1.05049 0
M  V30 3555 C 334.569 -6.572 2.9237 0
M  V30 3556 C 336.595 -5.56034 2.01446 0
M  V30 3557 C 335.957 -6.40105 2.94016 0
M  V30 3558 H 332.056 -0.772574 -0.121048 0
M  V30 3559 H 334.64 -1.92101 0.317075 0
M  V30 3560 H 332.811 -3.52812 -1.62413 0
M  V30 3561 H 334.543 -3.75164 -1.51771 0
M  V30 3562 H 331.298 -4.72945 0.248912 0
M  V30 3563 H 331.722 -6.36975 2.2933 0
M  V30 3564 H 336.364 -4.21359 0.348759 0
M  V30 3565 H 334.082 -7.21723 3.63512 0
M  V30 3566 H 337.668 -5.44385 2.0527 0
M  V30 3567 H 336.548 -6.92816 3.6739 0
M  V30 3568 N 334.051 0.0651679 -1.57465 0
M  V30 3569 C 335.297 0.758912 -1.88712 0
M  V30 3570 C 335.652 1.7485 -0.802819 0
M  V30 3571 O 334.945 1.90632 0.192359 0
M  V30 3572 C 335.139 1.50081 -3.24362 0
M  V30 3573 C 334.968 0.584579 -4.45884 0
M  V30 3574 C 333.738 0.219039 -5.04825 0
M  V30 3575 C 335.936 -0.121559 -5.14156 0
M  V30 3576 N 333.918 -0.702222 -6.09871 0
M  V30 3577 C 335.289 -0.899767 -6.13436 0
M  V30 3578 C 337.344 -0.192331 -4.97528 0
M  V30 3579 C 336.047 -1.74218 -6.97883 0
M  V30 3580 C 338.073 -1.02174 -5.82507 0
M  V30 3581 C 337.435 -1.78798 -6.8133 0
M  V30 3582 H 333.534 0.25293 -0.739967 0
M  V30 3583 H 336.118 0.0201744 -1.9469 0
M  V30 3584 H 334.289 2.21023 -3.1938 0
M  V30 3585 H 336.021 2.14409 -3.43236 0
M  V30 3586 H 332.776 0.57336 -4.70117 0
M  V30 3587 H 333.2 -1.15629 -6.67052 0
M  V30 3588 H 337.842 0.385741 -4.21037 0
M  V30 3589 H 335.56 -2.3312 -7.73745 0
M  V30 3590 H 339.146 -1.07957 -5.71696 0
M  V30 3591 H 338.026 -2.41942 -7.45945 0
M  V30 3592 N 335.529 1.53961 0.336706 0
M  V30 3593 C 336.461 1.78751 1.4346 0
M  V30 3594 C 337.474 0.669019 1.48418 0
M  V30 3595 O 338.663 0.945884 1.51378 0
M  V30 3596 C 335.763 1.87844 2.82078 0
M  V30 3597 C 334.936 3.17854 3.00479 0
M  V30 3598 C 333.995 3.17816 4.19379 0
M  V30 3599 O 333.021 3.91511 4.13168 0
M  V30 3600 N 334.223 2.40669 5.2826 0
M  V30 3601 H 336.988 2.73493 1.22563 0
M  V30 3602 H 334.549 1.53096 0.526625 0
M  V30 3603 H 336.541 1.85261 3.59806 0
M  V30 3604 H 335.111 1.00257 2.96086 0
M  V30 3605 H 334.331 3.33504 2.10163 0
M  V30 3606 H 335.619 4.03718 3.0966 0
M  V30 3607 H 335.017 1.8036 5.36178 0
M  V30 3608 H 333.574 2.43877 6.04456 0
M  V30 3609 N 337.007 -0.598083 1.45811 0
M  V30 3610 C 338.423 -0.919847 1.30426 0
M  V30 3611 C 338.623 -1.99759 0.264303 0
M  V30 3612 O 337.679 -2.50221 -0.338472 0
M  V30 3613 C 338.992 -1.35176 2.68603 0
M  V30 3614 C 340.54 -1.46546 2.76574 0
M  V30 3615 C 341.015 -1.9311 4.15298 0
M  V30 3616 N 342.506 -2.00328 4.1764 0
M  V30 3617 C 343.241 -2.37599 5.21856 0
M  V30 3618 N 342.737 -2.73771 6.36413 0
M  V30 3619 N 344.53 -2.38021 5.09218 0
M  V30 3620 H 336.681 0.114111 2.12093 0
M  V30 3621 H 338.944 -0.0116121 0.947929 0
M  V30 3622 H 338.65 -0.633969 3.45939 0
M  V30 3623 H 338.524 -2.3164 2.97696 0
M  V30 3624 H 340.911 -2.17415 1.99537 0
M  V30 3625 H 340.992 -0.483727 2.51185 0
M  V30 3626 H 340.636 -1.22824 4.92825 0
M  V30 3627 H 340.566 -2.92213 4.38086 0
M  V30 3628 H 343.057 -1.74925 3.34977 0
M  V30 3629 H 343.37 -3.0112 7.11721 0
M  V30 3630 H 341.715 -2.71445 6.39799 0
M  V30 3631 H 344.906 -2.09174 4.18765 0
M  V30 3632 H 345.079 -2.66741 5.90554 0
M  V30 3633 N 338.485 -1.33259 -0.841409 0
M  V30 3634 C 339.415 -1.25926 -1.96634 0
M  V30 3635 C 340.396 -0.140349 -1.6952 0
M  V30 3636 O 341.581 -0.329707 -1.91381 0
M  V30 3637 C 338.711 -0.99512 -3.32738 0
M  V30 3638 C 337.665 -2.0767 -3.74242 0
M  V30 3639 C 336.991 -1.66474 -5.08125 0
M  V30 3640 C 338.291 -3.49318 -3.88297 0
M  V30 3641 H 339.985 -2.20046 -2.03027 0
M  V30 3642 H 337.531 -1.05931 -0.975425 0
M  V30 3643 H 339.484 -0.930323 -4.11002 0
M  V30 3644 H 338.208 -0.0183004 -3.26595 0
M  V30 3645 H 336.867 -2.13187 -2.98239 0
M  V30 3646 H 336.515 -0.675012 -4.9845 0
M  V30 3647 H 336.215 -2.3885 -5.36865 0
M  V30 3648 H 337.739 -1.61455 -5.88867 0
M  V30 3649 H 339.153 -3.46316 -4.56879 0
M  V30 3650 H 337.55 -4.20158 -4.28471 0
M  V30 3651 H 338.62 -3.8801 -2.9082 0
M  V30 3652 N 339.963 1.05934 -1.16686 0
M  V30 3653 C 341.374 1.60263 -0.957745 0
M  V30 3654 C 341.725 1.89789 0.49745 0
M  V30 3655 O 340.85 1.67401 1.37135 0
M  V30 3656 C 341.445 2.91172 -1.73218 0
M  V30 3657 C 340.004 3.42188 -1.56794 0
M  V30 3658 C 339.151 2.16028 -1.73859 0
M  V30 3659 H 342.102 0.888392 -1.31504 0
M  V30 3660 H 342.123 3.60744 -1.21014 0
M  V30 3661 H 341.635 2.6965 -2.79124 0
M  V30 3662 H 339.736 3.68762 -0.533437 0
M  V30 3663 H 339.849 4.17273 -2.35414 0
M  V30 3664 H 338.213 2.26426 -1.16633 0
M  V30 3665 H 338.996 1.96985 -2.81161 0
M  V30 3666 N 341.441 0.965919 1.2453 0
M  V30 3667 C 342.374 0.4393 2.23932 0
M  V30 3668 C 343.352 -0.485615 1.55179 0
M  V30 3669 O 344.536 -0.417402 1.83821 0
M  V30 3670 C 341.663 -0.366042 3.36716 0
M  V30 3671 C 340.709 0.5009 4.23548 0
M  V30 3672 S 341.542 1.94002 4.99123 0
M  V30 3673 C 342.698 1.14342 6.15367 0
M  V30 3674 H 342.931 1.28167 2.68254 0
M  V30 3675 H 340.464 0.770819 1.33782 0
M  V30 3676 H 342.422 -0.824724 4.0213 0
M  V30 3677 H 341.083 -1.18337 2.90956 0
M  V30 3678 H 340.276 -0.117341 5.03863 0
M  V30 3679 H 339.878 0.89524 3.63127 0
M  V30 3680 H 342.17 0.397572 6.76332 0
M  V30 3681 H 343.113 1.92089 6.81548 0
M  V30 3682 H 343.521 0.668579 5.60527 0
M  V30 3683 N 342.919 -1.39368 0.735821 0
M  V30 3684 C 344.33 -1.83313 0.354015 0
M  V30 3685 C 344.681 -1.61461 -1.11466 0
M  V30 3686 O 343.806 -1.10621 -1.85989 0
M  V30 3687 C 344.401 -3.32781 0.635769 0
M  V30 3688 C 342.96 -3.75142 0.307448 0
M  V30 3689 C 342.107 -2.62358 0.897974 0
M  V30 3690 H 345.058 -1.28349 0.933398 0
M  V30 3691 H 345.079 -3.80388 -0.0921773 0
M  V30 3692 H 344.591 -3.48654 1.70476 0
M  V30 3693 H 342.692 -3.64857 -0.755674 0
M  V30 3694 H 342.805 -4.72532 0.790583 0
M  V30 3695 H 341.169 -2.52624 0.324551 0
M  V30 3696 H 341.952 -2.81036 1.97164 0
M  V30 3697 N 344.397 -0.483516 -1.5 0
M  V30 3698 C 345.36 0.292965 -2.2732 0
M  V30 3699 C 346.36 0.909499 -1.32608 0
M  V30 3700 O 347.55 0.776745 -1.55924 0
M  V30 3701 C 344.682 1.41854 -3.09984 0
M  V30 3702 H 345.875 -0.385289 -2.97415 0
M  V30 3703 H 343.428 -0.237942 -1.54478 0
M  V30 3704 H 344.163 2.13148 -2.44414 0
M  V30 3705 H 343.948 0.982114 -3.79601 0
M  V30 3706 H 345.438 1.96597 -3.68429 0
M  V30 3707 N 345.875 1.56104 -0.216619 0
M  V30 3708 C 346.805 2.23063 0.690296 0
M  V30 3709 C 347.786 1.20072 1.20485 0
M  V30 3710 O 348.971 1.48643 1.24976 0
M  V30 3711 C 346.101 2.90672 1.90072 0
M  V30 3712 C 345.055 4.00092 1.5202 0
M  V30 3713 C 344.381 4.54972 2.80899 0
M  V30 3714 C 345.681 5.17398 0.71391 0
M  V30 3715 H 347.375 2.99109 0.132038 0
M  V30 3716 H 344.921 1.43866 0.0620664 0
M  V30 3717 H 346.874 3.36204 2.54057 0
M  V30 3718 H 345.598 2.12066 2.48386 0
M  V30 3719 H 344.257 3.55283 0.903839 0
M  V30 3720 H 343.905 3.73102 3.37348 0
M  V30 3721 H 343.605 5.28817 2.56176 0
M  V30 3722 H 345.129 5.0322 3.45836 0
M  V30 3723 H 346.543 5.59342 1.25735 0
M  V30 3724 H 344.94 5.97444 0.563951 0
M  V30 3725 H 346.01 4.84088 -0.280527 0
M  V30 3726 N 347.353 -0.0568162 1.57498 0
M  V30 3727 C 348.578 -0.769402 1.92601 0
M  V30 3728 C 349.003 -1.69559 0.814336 0
M  V30 3729 O 348.361 -1.79811 -0.231903 0
M  V30 3730 C 348.409 -1.52634 3.26704 0
M  V30 3731 O 347.513 -2.63797 3.16994 0
M  V30 3732 H 346.854 -0.208909 0.63028 0
M  V30 3733 H 349.384 -0.0205798 2.0459 0
M  V30 3734 H 349.394 -1.90234 3.60936 0
M  V30 3735 H 348.069 -0.846875 4.07186 0
M  V30 3736 H 346.646 -2.28943 2.94346 0
M  V30 3737 N 348.832 -1.54138 -0.328536 0
M  V30 3738 C 349.762 -1.86167 -1.40939 0
M  V30 3739 C 350.743 -0.718044 -1.54202 0
M  V30 3740 O 351.928 -0.971328 -1.68163 0
M  V30 3741 C 349.058 -2.08461 -2.77779 0
M  V30 3742 C 348.012 -3.24299 -2.7931 0
M  V30 3743 C 347.338 -3.31955 -4.19178 0
M  V30 3744 C 348.638 -4.62065 -2.43502 0
M  V30 3745 H 350.332 -2.76689 -1.14383 0
M  V30 3746 H 347.878 -1.33132 -0.548806 0
M  V30 3747 H 349.831 -2.29453 -3.53454 0
M  V30 3748 H 348.555 -1.14684 -3.05802 0
M  V30 3749 H 347.214 -3.03187 -2.0609 0
M  V30 3750 H 346.862 -2.35745 -4.44335 0
M  V30 3751 H 346.562 -4.09805 -4.2111 0
M  V30 3752 H 348.086 -3.55175 -4.96672 0
M  V30 3753 H 349.5 -4.8297 -3.08889 0
M  V30 3754 H 347.897 -5.42429 -2.56693 0
M  V30 3755 H 348.967 -4.64652 -1.38659 0
M  V30 3756 N 350.31 0.590341 -1.46126 0
M  V30 3757 C 351.721 1.17243 -1.45296 0
M  V30 3758 C 352.072 1.95281 -0.189723 0
M  V30 3759 O 351.197 2.04502 0.707674 0
M  V30 3760 C 351.792 2.13284 -2.6324 0
M  V30 3761 C 350.351 2.66832 -2.65476 0
M  V30 3762 C 349.498 1.42557 -2.3785 0
M  V30 3763 H 352.449 0.378692 -1.54116 0
M  V30 3764 H 352.47 2.96619 -2.38323 0
M  V30 3765 H 351.982 1.56459 -3.55165 0
M  V30 3766 H 350.083 3.27548 -1.77603 0
M  V30 3767 H 350.196 3.10088 -3.65215 0
M  V30 3768 H 348.56 1.72107 -1.87753 0
M  V30 3769 H 349.343 0.875741 -3.31942 0
M  V30 3770 N 351.788 1.33704 0.83433 0
M  V30 3771 C 353.016 1.28467 1.62185 0
M  V30 3772 C 353.431 -0.143526 1.88254 0
M  V30 3773 O 352.788 -1.08709 1.4659 0
M  V30 3774 C 352.839 2.06174 2.96942 0
M  V30 3775 O 352.56 3.43422 2.72016 0
M  V30 3776 C 354.061 2.08201 3.91366 0
M  V30 3777 H 351.281 0.4424 0.504503 0
M  V30 3778 H 353.825 1.76145 1.03891 0
M  V30 3779 H 351.98 1.62167 3.51825 0
M  V30 3780 H 352.394 3.83453 3.57861 0
M  V30 3781 H 353.868 2.67017 4.83121 0
M  V30 3782 H 354.345 1.07343 4.2588 0
M  V30 3783 H 354.951 2.52246 3.42421 0
M  V30 3784 N 353.266 -1.05314 1.17247 0
M  V30 3785 C 354.682 -1.30452 0.919473 0
M  V30 3786 C 354.882 -1.9703 -0.42209 0
M  V30 3787 O 353.938 -2.24311 -1.15935 0
M  V30 3788 C 355.251 -2.17551 2.07586 0
M  V30 3789 C 356.799 -2.30937 2.11275 0
M  V30 3790 C 357.274 -3.21396 3.26296 0
M  V30 3791 N 358.765 -3.28981 3.26076 0
M  V30 3792 C 359.5 -3.99095 4.11716 0
M  V30 3793 N 358.996 -4.71648 5.07465 0
M  V30 3794 N 360.789 -3.95247 3.9967 0
M  V30 3795 H 352.94 -0.604988 2.03602 0
M  V30 3796 H 355.203 -0.329368 0.888944 0
M  V30 3797 H 354.909 -1.75921 3.0454 0
M  V30 3798 H 354.783 -3.18182 2.02584 0
M  V30 3799 H 357.17 -2.71809 1.14907 0
M  V30 3800 H 357.251 -1.2994 2.20339 0
M  V30 3801 H 356.895 -2.81238 4.22927 0
M  V30 3802 H 356.825 -4.22395 3.14467 0
M  V30 3803 H 359.316 -2.77286 2.5675 0
M  V30 3804 H 359.629 -5.22705 5.6921 0
M  V30 3805 H 357.974 -4.70594 5.11435 0
M  V30 3806 H 361.165 -3.37691 3.24164 0
M  V30 3807 H 361.338 -4.4962 4.66632 0
M  V30 3808 N 354.744 -0.972509 -1.24016 0
M  V30 3809 C 355.99 -0.647583 -1.92816 0
M  V30 3810 C 356.345 0.809015 -1.74564 0
M  V30 3811 O 355.638 1.57502 -1.09103 0
M  V30 3812 C 355.832 -0.963694 -3.44162 0
M  V30 3813 C 355.661 -2.44947 -3.77135 0
M  V30 3814 C 354.431 -3.11012 -3.98246 0
M  V30 3815 C 356.629 -3.42978 -3.83237 0
M  V30 3816 N 354.611 -4.49277 -4.18358 0
M  V30 3817 C 355.982 -4.66619 -4.08248 0
M  V30 3818 C 358.037 -3.37569 -3.65994 0
M  V30 3819 C 356.74 -5.85516 -4.17808 0
M  V30 3820 C 358.766 -4.55822 -3.76802 0
M  V30 3821 C 358.128 -5.78256 -4.02243 0
M  V30 3822 H 354.227 -0.287894 -0.727077 0
M  V30 3823 H 356.811 -1.24835 -1.49413 0
M  V30 3824 H 354.982 -0.391692 -3.8642 0
M  V30 3825 H 356.714 -0.596849 -4.00275 0
M  V30 3826 H 353.469 -2.61529 -3.94841 0
M  V30 3827 H 353.893 -5.20935 -4.32384 0
M  V30 3828 H 358.535 -2.43945 -3.45327 0
M  V30 3829 H 356.253 -6.79564 -4.37285 0
M  V30 3830 H 359.839 -4.53204 -3.64825 0
M  V30 3831 H 358.719 -6.68231 -4.10411 0
M  V30 3832 O 356.261 1.3537 -0.880752 0
M  V30 3833 H 356.952 1.87543 -0.484504 0
M  V30 END ATOM
M  V30 BEGIN BOND
M  V30 END BOND
M  V30 END CTAB
M  END
$$$$
