drugbank_target|Q9H8P0 Polyprenol reductase (DB00421)
 OpenBabel12092120593D

  0  0  0     0  0            999 V3000
M  V30 BEGIN CTAB
M  V30 COUNTS 5195 5286 0 0 0
M  V30 BEGIN ATOM
M  V30 1 H -0.908 1.98254 -0.117106 0
M  V30 2 N 0 1.576 0 0
M  V30 3 C 0.933 2.03868 1.02534 0
M  V30 4 C 1.911 0.928543 1.3348 0
M  V30 5 O 3.095 1.19667 1.45644 0
M  V30 6 C 0.222 2.43627 2.35294 0
M  V30 7 C -0.732 3.65373 2.2001 0
M  V30 8 S 0.101 5.13292 1.52614 0
M  V30 9 C 1.257 5.56322 2.86805 0
M  V30 10 H 1.49 2.90518 0.631377 0
M  V30 11 H -0.977 1.52953 0.210867 0
M  V30 12 H 0.981 2.67203 3.11629 0
M  V30 13 H -0.358 1.57376 2.7183 0
M  V30 14 H -1.165 3.90944 3.18086 0
M  V30 15 H -1.563 3.418 1.51819 0
M  V30 16 H 0.729 5.58782 3.83104 0
M  V30 17 H 1.672 6.56266 2.65933 0
M  V30 18 H 2.08 4.83886 2.90714 0
M  V30 19 N 1.4781 -0.272755 1.55222 0
M  V30 20 C 2.4411 -1.32041 1.87344 0
M  V30 21 C 3.4411 -1.42342 0.74803 0
M  V30 22 O 4.6311 -1.41488 1.0162 0
M  V30 23 C 1.7631 -2.70173 2.07893 0
M  V30 24 H 2.9561 -1.04789 2.80997 0
M  V30 25 H 0.5091 -0.51083 1.47717 0
M  V30 26 H 1.2441 -3.02605 1.16622 0
M  V30 27 H 1.0291 -2.64082 2.89833 0
M  V30 28 H 2.5191 -3.45869 2.34017 0
M  V30 29 N 2.9562 -1.48159 -0.537278 0
M  V30 30 C 4.3672 -1.49429 -1.11928 0
M  V30 31 C 4.7182 -0.26 -1.9447 0
M  V30 32 O 3.8432 0.633489 -2.0692 0
M  V30 33 C 4.4382 -2.70758 -2.03656 0
M  V30 34 C 2.9972 -2.74923 -2.57088 0
M  V30 35 C 2.1442 -2.42835 -1.3389 0
M  V30 36 H 5.0952 -1.55381 -0.322886 0
M  V30 37 H 5.1162 -2.48861 -2.87834 0
M  V30 38 H 4.6282 -3.60575 -1.43553 0
M  V30 39 H 2.7292 -1.89296 -3.20933 0
M  V30 40 H 2.8422 -3.76157 -2.9672 0
M  V30 41 H 1.2062 -1.93836 -1.65226 0
M  V30 42 H 1.9892 -3.34884 -0.755504 0
M  V30 43 N 4.4343 0.785586 -1.36625 0
M  V30 44 C 5.6803 1.5452 -1.32269 0
M  V30 45 C 6.0353 1.92159 0.0962266 0
M  V30 46 O 5.3283 1.60158 1.05167 0
M  V30 47 C 5.5223 2.83007 -2.1827 0
M  V30 48 C 5.3513 2.57925 -3.68382 0
M  V30 49 C 4.1213 2.52752 -4.37544 0
M  V30 50 C 6.3193 2.26861 -4.61561 0
M  V30 51 N 4.3013 2.19608 -5.73276 0
M  V30 52 C 5.6723 2.03738 -5.85569 0
M  V30 53 C 7.7273 2.129 -4.50087 0
M  V30 54 C 6.4303 1.68065 -6.9939 0
M  V30 55 C 8.4563 1.78626 -5.63779 0
M  V30 56 C 7.8183 1.56353 -6.86828 0
M  V30 57 H 3.9173 0.566301 -0.539283 0
M  V30 58 H 6.5013 0.917736 -1.71714 0
M  V30 59 H 4.6723 3.43614 -1.81063 0
M  V30 60 H 6.4043 3.48775 -2.05275 0
M  V30 61 H 3.1593 2.6813 -3.90389 0
M  V30 62 H 3.5833 2.05771 -6.44971 0
M  V30 63 H 8.2253 2.28808 -3.55537 0
M  V30 64 H 5.9433 1.50895 -7.93887 0
M  V30 65 H 9.5293 1.68502 -5.56865 0
M  V30 66 H 8.4093 1.30223 -7.73312 0
M  V30 67 N 5.9124 1.20967 1.01018 0
M  V30 68 C 6.8754 0.965918 2.07853 0
M  V30 69 C 7.8754 -0.0610545 1.60684 0
M  V30 70 O 9.0654 0.175681 1.73312 0
M  V30 71 C 6.1974 0.455513 3.37843 0
M  V30 72 H 7.3904 1.91365 2.3091 0
M  V30 73 H 4.9434 1.02594 1.17916 0
M  V30 74 H 5.6784 -0.497381 3.20463 0
M  V30 75 H 5.4634 1.19622 3.73407 0
M  V30 76 H 6.9534 0.304667 4.16487 0
M  V30 77 N 7.3905 -1.2043 1.01659 0
M  V30 78 C 8.3005 -2.2689 0.596484 0
M  V30 79 C 9.3165 -1.70107 -0.36599 0
M  V30 80 O 10.4925 -2.00117 -0.226942 0
M  V30 81 C 7.5575 -3.4665 -0.0586659 0
M  V30 82 C 6.6185 -4.18662 0.949751 0
M  V30 83 C 5.8515 -5.32705 0.32577 0
M  V30 84 O 6.0745 -5.63656 -0.874509 0
M  V30 85 O 5.0085 -5.92803 1.04249 0
M  V30 86 H 8.8345 -2.65041 1.4828 0
M  V30 87 H 6.4195 -1.27048 0.786082 0
M  V30 88 H 8.3015 -4.19256 -0.424564 0
M  V30 89 H 6.9765 -3.10375 -0.91918 0
M  V30 90 H 5.8835 -3.48229 1.36702 0
M  V30 91 H 7.2165 -4.58878 1.78023 0
M  V30 92 N 8.8686 -0.792821 -1.36206 0
M  V30 93 C 9.8316 -0.199459 -2.2833 0
M  V30 94 C 10.8316 0.605189 -1.48977 0
M  V30 95 O 12.0216 0.425685 -1.68919 0
M  V30 96 C 9.1536 0.723523 -3.33134 0
M  V30 97 H 10.3466 -1.01181 -2.82316 0
M  V30 98 H 7.8996 -0.562485 -1.45828 0
M  V30 99 H 8.6346 1.56008 -2.84309 0
M  V30 100 H 8.4196 0.148436 -3.91819 0
M  V30 101 H 9.9096 1.13344 -4.01924 0
M  V30 102 N 10.3467 1.47872 -0.545128 0
M  V30 103 C 11.2567 2.33633 0.212746 0
M  V30 104 C 12.2727 1.4744 0.923983 0
M  V30 105 O 13.4487 1.80393 0.895572 0
M  V30 106 C 10.5137 3.23884 1.23693 0
M  V30 107 C 9.5747 4.25961 0.534417 0
M  V30 108 C 8.8077 5.11899 1.5098 0
M  V30 109 O 9.0307 5.00077 2.7437 0
M  V30 110 O 7.9647 5.92831 1.0409 0
M  V30 111 H 11.7907 2.99714 -0.490416 0
M  V30 112 H 9.3757 1.46235 -0.305871 0
M  V30 113 H 11.2577 3.79666 1.82843 0
M  V30 114 H 9.9327 2.60446 1.92222 0
M  V30 115 H 8.8397 3.73972 -0.0979679 0
M  V30 116 H 10.1727 4.92079 -0.109213 0
M  V30 117 N 11.8248 0.280983 1.55075 0
M  V30 118 C 12.7748 -0.618585 2.19448 0
M  V30 119 C 13.7588 -1.11401 1.16098 0
M  V30 120 O 14.9508 -1.0581 1.41891 0
M  V30 121 C 12.0798 -1.79951 2.92357 0
M  V30 122 C 11.1658 -1.321 4.03002 0
M  V30 123 N 11.5568 -0.559044 5.02701 0
M  V30 124 C 9.8548 -1.60346 4.16179 0
M  V30 125 C 10.5558 -0.306722 5.80891 0
M  V30 126 N 9.5318 -0.880825 5.36416 0
M  V30 127 H 13.3338 -0.0286638 2.93886 0
M  V30 128 H 10.8478 0.0848104 1.62178 0
M  V30 129 H 12.8448 -2.45531 3.36927 0
M  V30 130 H 11.5048 -2.39333 2.19431 0
M  V30 131 H 12.5158 -0.205827 5.17491 0
M  V30 132 H 9.1928 -2.20621 3.54447 0
M  V30 133 H 10.5828 0.30391 6.71212 0
M  V30 134 N 13.3029 -1.57598 0.00835791 0
M  V30 135 C 14.5279 -1.95617 -0.689103 0
M  V30 136 C 14.9529 -0.883753 -1.66046 0
M  V30 137 O 14.3109 0.157352 -1.80616 0
M  V30 138 C 14.3589 -3.32736 -1.38994 0
M  V30 139 O 13.4629 -3.27631 -2.50463 0
M  V30 140 H 12.8039 -0.638379 -0.182668 0
M  V30 141 H 15.3339 -2.045 0.064036 0
M  V30 142 H 15.3439 -3.68494 -1.75147 0
M  V30 143 H 14.0189 -4.1034 -0.677778 0
M  V30 144 H 12.5959 -3.03561 -2.16576 0
M  V30 145 N 14.781 0.264519 -1.55364 0
M  V30 146 C 15.744 1.31046 -1.88042 0
M  V30 147 C 16.744 1.41943 -0.755569 0
M  V30 148 O 17.934 1.40947 -1.02369 0
M  V30 149 C 15.066 2.69067 -2.09323 0
M  V30 150 H 16.259 1.03297 -2.81549 0
M  V30 151 H 13.812 0.502989 -1.47986 0
M  V30 152 H 14.547 3.01982 -1.18226 0
M  V30 153 H 14.332 2.62542 -2.91229 0
M  V30 154 H 15.822 3.44623 -2.35848 0
M  V30 155 N 16.2591 1.48442 0.529413 0
M  V30 156 C 17.1891 1.65902 1.64313 0
M  V30 157 C 18.1701 0.507897 1.6234 0
M  V30 158 O 19.3551 0.740503 1.79528 0
M  V30 159 C 16.4851 1.69911 3.02898 0
M  V30 160 C 15.4391 2.8453 3.19729 0
M  V30 161 C 14.7651 2.73629 4.59381 0
M  V30 162 C 16.0651 4.25821 3.02447 0
M  V30 163 H 17.7591 2.5914 1.49955 0
M  V30 164 H 15.3051 1.24709 0.719982 0
M  V30 165 H 17.2581 1.80715 3.80684 0
M  V30 166 H 15.9821 0.732524 3.18279 0
M  V30 167 H 14.6411 2.73283 2.44361 0
M  V30 168 H 14.2891 1.74938 4.71599 0
M  V30 169 H 13.9891 3.50541 4.71588 0
M  V30 170 H 15.5131 2.86401 5.39265 0
M  V30 171 H 16.9271 4.37898 3.70024 0
M  V30 172 H 15.3241 5.03735 3.26146 0
M  V30 173 H 16.3941 4.42244 1.98867 0
M  V30 174 N 17.7372 -0.778329 1.37039 0
M  V30 175 C 18.6852 -1.91278 1.32345 0
M  V30 176 C 19.6792 -1.68051 0.213331 0
M  V30 177 O 20.8852 -1.75922 0.38098 0
M  V30 178 H 17.2602 -0.628909 0.412283 0
M  V30 179 H 19.2312 -1.92355 2.28127 0
M  V30 180 C 17.9802 -3.28455 1.14073 0
M  V30 181 H 17.3032 -3.46901 1.98746 0
M  V30 182 H 18.7432 -4.08152 1.14837 0
M  V30 183 C 17.2022 -3.36548 -0.154015 0
M  V30 184 O 17.7322 -3.85186 -1.13993 0
M  V30 185 N 15.9382 -2.89894 -0.202475 0
M  V30 186 H 15.4852 -2.50504 0.600476 0
M  V30 187 H 15.4432 -2.9569 -1.06841 0
M  V30 188 N 19.2153 -1.21501 -1.00376 0
M  V30 189 C 20.6263 -1.03146 -1.55621 0
M  V30 190 C 20.9773 0.408375 -1.91903 0
M  V30 191 O 20.1023 1.29177 -1.73616 0
M  V30 192 C 20.6973 -1.86612 -2.82775 0
M  V30 193 C 19.2563 -1.72586 -3.34501 0
M  V30 194 C 18.4033 -1.83747 -2.07683 0
M  V30 195 H 21.3543 -1.35505 -0.826081 0
M  V30 196 H 21.3753 -1.3771 -3.54706 0
M  V30 197 H 20.8873 -2.91399 -2.56336 0
M  V30 198 H 18.9883 -0.704877 -3.65872 0
M  V30 199 H 19.1013 -2.54623 -4.05837 0
M  V30 200 H 17.4653 -1.27069 -2.20739 0
M  V30 201 H 18.2483 -2.90044 -1.83655 0
M  V30 202 N 20.6934 1.19889 -1.02296 0
M  V30 203 C 21.6234 2.25141 -0.619174 0
M  V30 204 C 22.6044 1.66051 0.368915 0
M  V30 205 O 23.7894 1.92546 0.252941 0
M  V30 206 C 20.9194 3.4728 0.0368783 0
M  V30 207 C 19.8734 4.19005 -0.872865 0
M  V30 208 C 19.1994 5.34637 -0.0822402 0
M  V30 209 C 20.4994 4.74452 -2.18387 0
M  V30 210 H 22.1934 2.59171 -1.49903 0
M  V30 211 H 19.7394 1.24579 -0.722222 0
M  V30 212 H 21.6924 4.20098 0.330958 0
M  V30 213 H 20.4164 3.12433 0.95149 0
M  V30 214 H 19.0754 3.48061 -1.15105 0
M  V30 215 H 18.7234 4.96034 0.83422 0
M  V30 216 H 18.4234 5.83557 -0.688149 0
M  V30 217 H 19.9474 6.10255 0.205238 0
M  V30 218 H 21.3614 5.39055 -1.95172 0
M  V30 219 H 19.7584 5.33834 -2.74119 0
M  V30 220 H 20.8284 3.92844 -2.84257 0
M  V30 221 N 22.1715 0.800033 1.35784 0
M  V30 222 C 23.5875 0.482977 1.52117 0
M  V30 223 C 23.7875 -0.996948 1.75109 0
M  V30 224 O 22.8435 -1.78216 1.78872 0
M  V30 225 C 24.1565 1.32264 2.70049 0
M  V30 226 C 25.7045 1.31742 2.83924 0
M  V30 227 C 26.1795 2.14106 4.04874 0
M  V30 228 N 27.6705 2.11607 4.12039 0
M  V30 229 C 28.4055 2.72099 5.04727 0
M  V30 230 N 27.9015 3.41492 6.02789 0
M  V30 231 N 29.6945 2.61776 4.97423 0
M  V30 232 H 21.8455 1.75856 1.19115 0
M  V30 233 H 24.1085 0.748122 0.582252 0
M  V30 234 H 23.8145 2.37261 2.59616 0
M  V30 235 H 23.6885 0.971303 3.6448 0
M  V30 236 H 26.0755 0.275333 2.93813 0
M  V30 237 H 26.1565 1.70859 1.9037 0
M  V30 238 H 25.8005 3.18351 3.95746 0
M  V30 239 H 25.7305 1.72353 4.97596 0
M  V30 240 H 28.2215 1.61112 3.41835 0
M  V30 241 H 28.5345 3.84953 6.70098 0
M  V30 242 H 26.8795 3.45596 6.02983 0
M  V30 243 H 30.0705 2.07157 4.19766 0
M  V30 244 H 30.2435 3.0921 5.69468 0
M  V30 245 N 23.6496 -1.47581 0.552962 0
M  V30 246 C 24.6126 -2.28439 -0.186605 0
M  V30 247 C 25.6126 -1.36706 -0.84665 0
M  V30 248 O 26.8026 -1.59378 -0.703164 0
M  V30 249 C 23.9346 -3.16264 -1.2724 0
M  V30 250 H 25.1276 -2.95294 0.523609 0
M  V30 251 H 22.6806 -1.532 0.309745 0
M  V30 252 H 23.4156 -2.54091 -2.01514 0
M  V30 253 H 23.2006 -3.83769 -0.803968 0
M  V30 254 H 24.6906 -3.77198 -1.79196 0
M  V30 255 N 25.1277 -0.289203 -1.54924 0
M  V30 256 C 26.3737 0.323998 -2.00195 0
M  V30 257 C 26.7067 1.54441 -1.17735 0
M  V30 258 O 25.9817 1.92875 -0.250878 0
M  V30 259 C 26.2647 0.692276 -3.53383 0
M  V30 260 C 26.1177 -0.536457 -4.46589 0
M  V30 261 C 27.4367 1.52335 -4.12895 0
M  V30 262 H 24.5557 0.116289 -0.727768 0
M  V30 263 H 27.1977 -0.398954 -1.85764 0
M  V30 264 H 25.3477 1.30822 -3.65811 0
M  V30 265 H 27.0197 -1.17499 -4.46085 0
M  V30 266 H 25.2627 -1.17192 -4.1767 0
M  V30 267 H 25.9337 -0.234806 -5.515 0
M  V30 268 H 28.4097 1.00302 -4.0383 0
M  V30 269 H 27.2857 1.74982 -5.20262 0
M  V30 270 H 27.5467 2.50886 -3.64018 0
M  V30 271 N 26.6058 1.57591 -0.0167156 0
M  V30 272 C 27.8518 1.92399 0.659861 0
M  V30 273 C 28.2068 0.892561 1.70444 0
M  V30 274 O 27.4998 -0.0930755 1.91374 0
M  V30 275 C 27.6938 3.3172 1.33029 0
M  V30 276 C 27.5228 4.48319 0.352174 0
M  V30 277 C 26.2928 5.05281 -0.0434883 0
M  V30 278 C 28.4908 5.12831 -0.388474 0
M  V30 279 N 26.4728 6.05399 -1.01807 0
M  V30 280 C 27.8438 6.07934 -1.2172 0
M  V30 281 C 29.8988 4.95858 -0.450513 0
M  V30 282 C 28.6018 6.87891 -2.10235 0
M  V30 283 C 30.6278 5.76413 -1.32295 0
M  V30 284 C 29.9898 6.71123 -2.13948 0
M  V30 285 H 26.0888 0.752106 0.21415 0
M  V30 286 H 28.6728 1.94532 -0.0809846 0
M  V30 287 H 26.8438 3.3043 2.04134 0
M  V30 288 H 28.5758 3.5391 1.9629 0
M  V30 289 H 25.3308 4.7246 0.328384 0
M  V30 290 H 25.7548 6.60145 -1.50123 0
M  V30 291 H 30.3968 4.22472 0.166512 0
M  V30 292 H 28.1148 7.60591 -2.72997 0
M  V30 293 H 31.7008 5.65317 -1.37508 0
M  V30 294 H 30.5808 7.3237 -2.80364 0
M  V30 295 N 28.0839 -0.256276 1.55502 0
M  V30 296 C 29.0139 -1.32102 1.92539 0
M  V30 297 C 29.9949 -1.50684 0.789194 0
M  V30 298 O 31.1799 -1.63449 1.04872 0
M  V30 299 C 28.3099 -2.67752 2.21192 0
M  V30 300 C 27.2639 -2.63878 3.36975 0
M  V30 301 C 26.5899 -4.03236 3.51147 0
M  V30 302 C 27.8899 -2.21682 4.72921 0
M  V30 303 H 29.5839 -1.01351 2.81724 0
M  V30 304 H 27.1299 -0.486105 1.35547 0
M  V30 305 H 29.0829 -3.42365 2.45691 0
M  V30 306 H 27.8069 -3.0012 1.28824 0
M  V30 307 H 26.4659 -1.91722 3.12471 0
M  V30 308 H 26.1139 -4.32854 2.56216 0
M  V30 309 H 25.8139 -4.01535 4.29003 0
M  V30 310 H 27.3379 -4.79563 3.77957 0
M  V30 311 H 28.7519 -2.86023 4.96854 0
M  V30 312 H 27.1489 -2.3111 5.53812 0
M  V30 313 H 28.2189 -1.16833 4.70615 0
M  V30 314 N 29.562 -1.4872 -0.521534 0
M  V30 315 C 30.79 -1.60843 -1.30142 0
M  V30 316 C 31.205 -0.271897 -1.86832 0
M  V30 317 O 30.562 0.739969 -1.66825 0
M  V30 318 C 30.613 -2.66155 -2.4463 0
M  V30 319 O 30.334 -3.94623 -1.90275 0
M  V30 320 C 31.835 -2.88795 -3.36322 0
M  V30 321 H 29.055 -0.542075 -0.395468 0
M  V30 322 H 31.599 -1.94609 -0.628285 0
M  V30 323 H 29.754 -2.35224 -3.07812 0
M  V30 324 H 30.168 -4.52468 -2.65279 0
M  V30 325 H 31.642 -3.66264 -4.12983 0
M  V30 326 H 32.119 -1.97934 -3.9207 0
M  V30 327 H 32.725 -3.21063 -2.78924 0
M  V30 328 N 31.0401 0.771051 -1.3745 0
M  V30 329 C 31.9701 1.89827 -1.3597 0
M  V30 330 C 32.9511 1.68562 -0.228216 0
M  V30 331 O 34.1361 1.8941 -0.428675 0
M  V30 332 C 31.2661 3.2712 -1.16662 0
M  V30 333 C 30.2201 3.6295 -2.2683 0
M  V30 334 C 29.5461 4.98791 -1.92644 0
M  V30 335 C 30.8461 3.69627 -3.69017 0
M  V30 336 H 32.5401 1.91323 -2.30295 0
M  V30 337 H 30.0861 0.919082 -1.10855 0
M  V30 338 H 32.0391 4.05615 -1.14256 0
M  V30 339 H 30.7631 3.26059 -0.187926 0
M  V30 340 H 29.4221 2.86763 -2.28392 0
M  V30 341 H 29.0701 4.94271 -0.933021 0
M  V30 342 H 28.7701 5.23733 -2.66416 0
M  V30 343 H 30.2941 5.79685 -1.91826 0
M  V30 344 H 31.7081 4.38273 -3.69581 0
M  V30 345 H 30.1051 4.06067 -4.41848 0
M  V30 346 H 31.1751 2.70273 -4.02592 0
M  V30 347 N 32.5182 1.22032 0.997298 0
M  V30 348 C 33.7462 1.06841 1.7718 0
M  V30 349 C 34.1612 -0.381325 1.84909 0
M  V30 350 O 33.5182 -1.26437 1.31605 0
M  V30 351 C 33.5692 1.66814 3.20711 0
M  V30 352 O 33.2902 3.06116 3.13408 0
M  V30 353 C 34.7912 1.56838 4.14628 0
M  V30 354 H 32.0112 0.374782 0.556578 0
M  V30 355 H 34.5552 1.61532 1.2541 0
M  V30 356 H 32.7102 1.16196 3.69564 0
M  V30 357 H 33.1242 3.34926 4.0364 0
M  V30 358 H 34.5982 2.03532 5.13107 0
M  V30 359 H 35.0752 0.524155 4.36061 0
M  V30 360 H 35.6812 2.06741 3.7167 0
M  V30 361 N 33.9963 -1.19345 1.0293 0
M  V30 362 C 34.9593 -2.20793 0.615069 0
M  V30 363 C 35.9593 -1.57553 -0.321533 0
M  V30 364 O 37.1493 -1.73862 -0.108483 0
M  V30 365 C 34.2813 -3.40754 -0.0999222 0
M  V30 366 H 35.4743 -2.58955 1.51269 0
M  V30 367 H 33.0273 -1.3303 0.820534 0
M  V30 368 H 33.7623 -3.0811 -1.01187 0
M  V30 369 H 33.5473 -3.87889 0.57309 0
M  V30 370 H 35.0373 -4.15898 -0.376645 0
M  V30 371 N 35.4744 -0.807222 -1.35358 0
M  V30 372 C 36.4374 -0.223665 -2.28106 0
M  V30 373 C 37.4374 0.589354 -1.4961 0
M  V30 374 O 38.6274 0.407745 -1.69361 0
M  V30 375 C 35.7594 0.688149 -3.33882 0
M  V30 376 H 36.9524 -1.04169 -2.81227 0
M  V30 377 H 34.5054 -0.577921 -1.45223 0
M  V30 378 H 35.2404 1.52984 -2.85948 0
M  V30 379 H 35.0254 0.10687 -3.91954 0
M  V30 380 H 36.5154 1.09075 -4.03104 0
M  V30 381 N 36.9525 1.47285 -0.560781 0
M  V30 382 C 38.1995 2.02464 -0.038062 0
M  V30 383 C 38.5275 1.43474 1.31322 0
M  V30 384 O 37.7825 0.581311 1.86867 0
M  V30 385 C 38.0815 3.57258 0.100784 0
M  V30 386 C 37.7475 4.35184 -1.18007 0
M  V30 387 C 36.4095 4.56194 -1.53103 0
M  V30 388 C 38.7615 4.80098 -2.02867 0
M  V30 389 C 36.0895 5.19367 -2.729 0
M  V30 390 C 38.4415 5.44593 -3.21871 0
M  V30 391 C 37.1055 5.63835 -3.57276 0
M  V30 392 H 36.3755 0.740869 -0.0139279 0
M  V30 393 H 39.0225 1.76916 -0.733012 0
M  V30 394 H 37.3275 3.81819 0.878724 0
M  V30 395 H 39.0245 3.97606 0.520639 0
M  V30 396 H 35.6145 4.19113 -0.8968 0
M  V30 397 H 39.7985 4.63642 -1.7706 0
M  V30 398 H 35.0545 5.32459 -3.00496 0
M  V30 399 H 39.2285 5.78358 -3.87911 0
M  V30 400 H 36.8555 6.12557 -4.50197 0
M  V30 401 N 38.4306 0.297415 1.54768 0
M  V30 402 C 39.3606 -0.573494 2.26348 0
M  V30 403 C 40.3416 -1.14085 1.26169 0
M  V30 404 O 41.5266 -1.17086 1.54934 0
M  V30 405 C 38.6566 -1.74716 3.00153 0
M  V30 406 C 37.6106 -1.31032 4.07449 0
M  V30 407 C 36.9366 -2.56887 4.68949 0
M  V30 408 C 38.2366 -0.444183 5.20408 0
M  V30 409 H 39.9306 0.0235131 2.99391 0
M  V30 410 H 37.4766 0.0127488 1.43994 0
M  V30 411 H 39.4296 -2.3625 3.48947 0
M  V30 412 H 38.1536 -2.37035 2.24682 0
M  V30 413 H 36.8126 -0.718066 3.59499 0
M  V30 414 H 36.4606 -3.17512 3.90122 0
M  V30 415 H 36.1606 -2.2836 5.41411 0
M  V30 416 H 37.6846 -3.19229 5.20505 0
M  V30 417 H 39.0986 -0.9651 5.65118 0
M  V30 418 H 37.4956 -0.252846 5.99567 0
M  V30 419 H 38.5656 0.531609 4.81977 0
M  V30 420 N 39.9087 -1.5758 0.0250728 0
M  V30 421 C 40.8387 -2.13007 -0.956575 0
M  V30 422 C 41.8197 -1.0452 -1.342 0
M  V30 423 O 43.0047 -1.32332 -1.42133 0
M  V30 424 C 40.1347 -2.65386 -2.24026 0
M  V30 425 C 39.0887 -3.78623 -1.99571 0
M  V30 426 C 38.4147 -4.17414 -3.3417 0
M  V30 427 C 39.7147 -5.04867 -1.33814 0
M  V30 428 H 41.4087 -2.9528 -0.494991 0
M  V30 429 H 38.9547 -1.42042 -0.236651 0
M  V30 430 H 40.9077 -3.02794 -2.93076 0
M  V30 431 H 39.6317 -1.80268 -2.72343 0
M  V30 432 H 38.2907 -3.41646 -1.32941 0
M  V30 433 H 37.9387 -3.29284 -3.80238 0
M  V30 434 H 37.6387 -4.93719 -3.18615 0
M  V30 435 H 39.1627 -4.57402 -4.04495 0
M  V30 436 H 40.5767 -5.39888 -1.92857 0
M  V30 437 H 38.9737 -5.86144 -1.28669 0
M  V30 438 H 40.0437 -4.83904 -0.310561 0
M  V30 439 N 41.3868 0.248026 -1.55636 0
M  V30 440 C 42.6148 0.993808 -1.81469 0
M  V30 441 C 43.0298 1.78991 -0.60064 0
M  V30 442 O 42.3868 1.77345 0.430682 0
M  V30 443 C 42.4378 1.93258 -3.05506 0
M  V30 444 O 42.1588 1.16869 -4.22224 0
M  V30 445 C 43.6598 2.79444 -3.4413 0
M  V30 446 H 40.8798 0.292486 -0.603898 0
M  V30 447 H 43.4238 0.271253 -2.02693 0
M  V30 448 H 41.5788 2.60943 -2.86335 0
M  V30 449 H 41.9928 1.80359 -4.92515 0
M  V30 450 H 43.4668 3.41066 -4.34026 0
M  V30 451 H 43.9438 3.50499 -2.64665 0
M  V30 452 H 44.5498 2.17214 -3.65648 0
M  V30 453 N 42.8649 1.48995 0.513639 0
M  V30 454 C 43.7949 1.67636 1.62544 0
M  V30 455 C 44.7759 0.525087 1.61793 0
M  V30 456 O 45.9609 0.759502 1.78732 0
M  V30 457 C 43.0909 1.73114 3.01079 0
M  V30 458 C 42.0449 2.87905 3.16693 0
M  V30 459 C 41.3709 2.78486 4.56453 0
M  V30 460 C 42.6709 4.29005 2.97913 0
M  V30 461 H 44.3649 2.60716 1.47198 0
M  V30 462 H 41.9109 1.25465 0.706714 0
M  V30 463 H 43.8639 1.84742 3.78746 0
M  V30 464 H 42.5879 0.766241 3.17484 0
M  V30 465 H 41.2469 2.75859 2.41448 0
M  V30 466 H 40.8949 1.7993 4.69717 0
M  V30 467 H 40.5949 3.55523 4.67843 0
M  V30 468 H 42.1189 2.92104 5.36197 0
M  V30 469 H 43.5329 4.41798 3.65359 0
M  V30 470 H 41.9299 5.07166 3.20785 0
M  V30 471 H 42.9999 4.44329 1.94165 0
M  V30 472 N 44.343 -0.763751 1.37857 0
M  V30 473 C 45.273 -1.89103 1.36975 0
M  V30 474 C 46.254 -1.68439 0.237152 0
M  V30 475 O 47.439 -1.8918 0.438713 0
M  V30 476 C 44.569 -3.26496 1.18395 0
M  V30 477 C 43.523 -3.61741 2.28751 0
M  V30 478 C 42.849 -4.97762 1.95286 0
M  V30 479 C 44.149 -3.67665 3.70972 0
M  V30 480 H 45.843 -1.90099 2.31307 0
M  V30 481 H 43.389 -0.91319 1.11341 0
M  V30 482 H 45.342 -4.05003 1.16406 0
M  V30 483 H 44.066 -3.25955 0.205215 0
M  V30 484 H 42.725 -2.85547 2.29909 0
M  V30 485 H 42.373 -4.93769 0.959221 0
M  V30 486 H 42.073 -5.22313 2.69189 0
M  V30 487 H 43.597 -5.7866 1.94898 0
M  V30 488 H 45.011 -4.36307 3.719 0
M  V30 489 H 43.408 -4.03718 4.43995 0
M  V30 490 H 44.478 -2.68134 4.0402 0
M  V30 491 N 45.8211 -1.22559 -0.990812 0
M  V30 492 C 46.7511 -1.0218 -2.09956 0
M  V30 493 C 47.7321 0.0579394 -1.70001 0
M  V30 494 O 48.9171 -0.104684 -1.93918 0
M  V30 495 C 46.0471 -0.601023 -3.4206 0
M  V30 496 C 45.0011 -1.62694 -3.95872 0
M  V30 497 C 44.3271 -1.06193 -5.24049 0
M  V30 498 C 45.6271 -3.01743 -4.2632 0
M  V30 499 H 47.3211 -1.94916 -2.27262 0
M  V30 500 H 44.8671 -0.938566 -1.09211 0
M  V30 501 H 46.8201 -0.445561 -4.19038 0
M  V30 502 H 45.5441 0.362005 -3.24588 0
M  V30 503 H 44.2031 -1.77021 -3.21028 0
M  V30 504 H 43.8511 -0.0901903 -5.02919 0
M  V30 505 H 43.5511 -1.74732 -5.61019 0
M  V30 506 H 45.0751 -0.918092 -6.03658 0
M  V30 507 H 46.4891 -2.90777 -4.94087 0
M  V30 508 H 44.8861 -3.67425 -4.74467 0
M  V30 509 H 45.9561 -3.51518 -3.34011 0
M  V30 510 N 47.2992 1.18797 -1.03562 0
M  V30 511 C 48.2312 2.21731 -0.580337 0
M  V30 512 C 49.2442 1.59051 0.347349 0
M  V30 513 O 50.4332 1.77929 0.142669 0
M  V30 514 C 47.5332 3.38459 0.172805 0
M  V30 515 C 46.7062 4.3072 -0.761496 0
M  V30 516 C 45.7652 5.26174 -0.0525547 0
M  V30 517 O 44.7912 5.65108 -0.681333 0
M  V30 518 N 45.9932 5.67624 1.21586 0
M  V30 519 H 48.7582 2.61417 -1.46565 0
M  V30 520 H 46.3192 1.33531 -0.915476 0
M  V30 521 H 48.3112 3.99335 0.656793 0
M  V30 522 H 46.8812 2.97507 0.959602 0
M  V30 523 H 46.1012 3.67525 -1.42544 0
M  V30 524 H 47.3892 4.89267 -1.39626 0
M  V30 525 H 46.7872 5.38038 1.74732 0
M  V30 526 H 45.3442 6.30721 1.64421 0
M  V30 527 N 48.7773 0.814389 1.34928 0
M  V30 528 C 49.7073 0.244827 2.32213 0
M  V30 529 C 50.6883 -0.634024 1.57842 0
M  V30 530 O 51.8733 -0.562676 1.8587 0
M  V30 531 C 49.0033 -0.601106 3.42058 0
M  V30 532 C 47.9573 0.179896 4.27622 0
M  V30 533 C 47.2833 -0.788237 5.28858 0
M  V30 534 C 48.5833 1.38329 5.03649 0
M  V30 535 H 50.2773 1.05763 2.80097 0
M  V30 536 H 47.8233 0.510029 1.34665 0
M  V30 537 H 49.7763 -1.00968 4.09125 0
M  V30 538 H 48.5003 -1.44688 2.92802 0
M  V30 539 H 47.1593 0.569739 3.62146 0
M  V30 540 H 46.8073 -1.62973 4.75866 0
M  V30 541 H 46.5073 -0.269942 5.8698 0
M  V30 542 H 48.0313 -1.19485 5.98795 0
M  V30 543 H 49.4453 1.04918 5.63618 0
M  V30 544 H 47.8423 1.83662 5.71304 0
M  V30 545 H 48.9123 2.16592 4.33839 0
M  V30 546 N 50.2554 -1.46986 0.568584 0
M  V30 547 C 51.1854 -2.32946 -0.160753 0
M  V30 548 C 52.1664 -1.44487 -0.897631 0
M  V30 549 O 53.3514 -1.73327 -0.875867 0
M  V30 550 C 50.4814 -3.26494 -1.18403 0
M  V30 551 C 49.4354 -4.24282 -0.562895 0
M  V30 552 C 48.7614 -5.07236 -1.69163 0
M  V30 553 C 50.0614 -5.19989 0.490761 0
M  V30 554 H 51.7554 -2.94175 0.556916 0
M  V30 555 H 49.3014 -1.4146 0.26927 0
M  V30 556 H 51.2544 -3.85477 -1.70251 0
M  V30 557 H 49.9784 -2.63343 -1.93179 0
M  V30 558 H 48.6374 -3.66541 -0.0656164 0
M  V30 559 H 48.2854 -4.4048 -2.42871 0
M  V30 560 H 47.9854 -5.7345 -1.28174 0
M  V30 561 H 49.5094 -5.6908 -2.21314 0
M  V30 562 H 50.9234 -5.73271 0.0579047 0
M  V30 563 H 49.3204 -5.94469 0.820165 0
M  V30 564 H 50.3904 -4.64777 1.3824 0
M  V30 565 N 51.7335 -0.305618 -1.54608 0
M  V30 566 C 53.1445 0.186098 -1.8577 0
M  V30 567 C 53.4955 1.53058 -1.22751 0
M  V30 568 O 52.6205 2.09888 -0.526893 0
M  V30 569 C 53.2155 0.344449 -3.37044 0
M  V30 570 C 51.7745 0.780384 -3.68221 0
M  V30 571 C 50.9215 -0.108554 -2.77087 0
M  V30 572 H 53.8725 -0.526485 -1.49712 0
M  V30 573 H 53.8935 1.17828 -3.61796 0
M  V30 574 H 53.4055 -0.634235 -3.82883 0
M  V30 575 H 51.5065 1.76945 -3.27904 0
M  V30 576 H 51.6195 0.596572 -4.75371 0
M  V30 577 H 49.9835 0.412931 -2.5133 0
M  V30 578 H 50.7665 -1.08368 -3.25747 0
M  V30 579 N 53.2116 1.57565 -0.0334293 0
M  V30 580 C 54.6226 1.79746 0.504798 0
M  V30 581 C 54.9736 0.944091 1.71992 0
M  V30 582 O 54.0986 0.155694 2.15839 0
M  V30 583 C 54.6936 3.25997 0.922567 0
M  V30 584 C 53.2526 3.49159 1.40588 0
M  V30 585 C 52.3996 2.74785 0.372633 0
M  V30 586 H 55.3506 1.56565 -0.259436 0
M  V30 587 H 55.3716 3.35945 1.78666 0
M  V30 588 H 54.8836 3.88081 0.0379825 0
M  V30 589 H 52.9846 2.92332 2.31025 0
M  V30 590 H 53.0976 4.57873 1.41028 0
M  V30 591 H 51.4616 2.40391 0.841672 0
M  V30 592 H 52.2446 3.39587 -0.503559 0
M  V30 593 N 54.6897 -0.239769 1.55765 0
M  V30 594 C 55.9377 -0.964892 1.77579 0
M  V30 595 C 56.2587 -1.85582 0.598699 0
M  V30 596 O 55.5287 -1.92075 -0.385226 0
M  V30 597 H 54.1087 -0.359265 0.654933 0
M  V30 598 H 56.7707 -0.256001 1.93211 0
M  V30 599 H 55.8667 -1.58243 2.69009 0
M  V30 600 N 56.1678 -1.49265 -0.50573 0
M  V30 601 C 57.0978 -1.68495 -1.61653 0
M  V30 602 C 58.0788 -0.53366 -1.61512 0
M  V30 603 O 59.2638 -0.76897 -1.78327 0
M  V30 604 C 56.3938 -1.74709 -3.00157 0
M  V30 605 C 55.3478 -2.89581 -3.15162 0
M  V30 606 C 54.6738 -2.80903 -4.5497 0
M  V30 607 C 55.9738 -4.30578 -2.95634 0
M  V30 608 H 57.6678 -2.61493 -1.45814 0
M  V30 609 H 55.2138 -1.25838 -0.70005 0
M  V30 610 H 57.1668 -1.86748 -3.77761 0
M  V30 611 H 55.8908 -0.783067 -3.17074 0
M  V30 612 H 54.5498 -2.77136 -2.39982 0
M  V30 613 H 54.1978 -1.82419 -4.68756 0
M  V30 614 H 53.8978 -3.57999 -4.65951 0
M  V30 615 H 55.4218 -2.94944 -5.34641 0
M  V30 616 H 56.8358 -4.4373 -3.63011 0
M  V30 617 H 55.2328 -5.0886 -3.18091 0
M  V30 618 H 56.3028 -4.45352 -1.91806 0
M  V30 619 N 57.6459 0.756429 -1.3826 0
M  V30 620 C 58.5759 1.88374 -1.37976 0
M  V30 621 C 59.5569 1.68311 -0.246082 0
M  V30 622 O 60.7419 1.88944 -0.44874 0
M  V30 623 C 57.8719 3.25864 -1.20125 0
M  V30 624 C 56.8259 3.60523 -2.30666 0
M  V30 625 C 56.1519 4.9672 -1.97923 0
M  V30 626 C 57.4519 3.65692 -3.72916 0
M  V30 627 H 59.1459 1.88869 -2.32312 0
M  V30 628 H 56.6919 0.907272 -1.11824 0
M  V30 629 H 58.6449 4.0438 -1.18552 0
M  V30 630 H 57.3689 3.25841 -0.222498 0
M  V30 631 H 56.0279 2.84324 -2.3142 0
M  V30 632 H 55.6759 4.93253 -0.985393 0
M  V30 633 H 55.3759 5.20878 -2.71955 0
M  V30 634 H 56.8999 5.77618 -1.97964 0
M  V30 635 H 58.3139 4.34328 -3.74208 0
M  V30 636 H 56.7109 4.01358 -4.4613 0
M  V30 637 H 57.7809 2.65987 -4.05436 0
M  V30 638 N 59.124 1.23083 0.984299 0
M  V30 639 C 60.535 1.05609 1.5396 0
M  V30 640 C 60.886 -0.377793 1.92528 0
M  V30 641 O 60.011 -1.26398 1.75649 0
M  V30 642 C 60.606 1.91087 2.7977 0
M  V30 643 C 59.165 1.77885 3.31713 0
M  V30 644 C 58.312 1.87028 2.04733 0
M  V30 645 H 61.263 1.36802 0.804419 0
M  V30 646 H 61.284 1.43336 3.5247 0
M  V30 647 H 60.796 2.9544 2.51668 0
M  V30 648 H 58.897 0.762995 3.64704 0
M  V30 649 H 59.01 2.61047 4.01735 0
M  V30 650 H 57.374 1.30565 2.18689 0
M  V30 651 H 58.157 2.92929 1.79017 0
M  V30 652 N 60.6021 -1.18246 1.0419 0
M  V30 653 C 61.8501 -1.87886 0.744543 0
M  V30 654 C 62.1711 -1.8082 -0.730006 0
M  V30 655 O 61.4411 -1.22736 -1.52685 0
M  V30 656 H 60.0211 -0.695556 0.272417 0
M  V30 657 H 62.6831 -1.43494 1.31892 0
M  V30 658 H 61.7791 -2.9389 1.05049 0
M  V30 659 N 62.0802 -0.821533 -1.34494 0
M  V30 660 C 63.3202 -0.414785 -2.00147 0
M  V30 661 C 63.6842 1.00299 -1.6372 0
M  V30 662 O 64.8852 1.51255 -2.22206 0
M  V30 663 C 63.1562 -0.609403 -3.52166 0
M  V30 664 S 64.7152 -0.295297 -4.37805 0
M  V30 665 H 61.5332 -0.15679 -0.693497 0
M  V30 666 H 64.1352 -1.06705 -1.63812 0
M  V30 667 H 62.8392 -1.64096 -3.76166 0
M  V30 668 H 62.3702 0.0576414 -3.93358 0
M  V30 669 H 64.3852 0.891531 -4.88125 0
M  V30 670 N 63.5583 1.46682 -0.576371 0
M  V30 671 C 64.5213 2.28707 0.150239 0
M  V30 672 C 65.5213 1.38035 0.824794 0
M  V30 673 O 66.7113 1.60476 0.677719 0
M  V30 674 C 63.8433 3.18248 1.22192 0
M  V30 675 H 65.0363 2.94423 -0.570521 0
M  V30 676 H 62.5893 1.52688 -0.334078 0
M  V30 677 H 63.3243 2.57265 1.97447 0
M  V30 678 H 63.1093 3.85 0.742812 0
M  V30 679 H 64.5993 3.80001 1.73172 0
M  V30 680 N 65.0364 0.313813 1.54444 0
M  V30 681 C 66.2854 -0.292519 1.99568 0
M  V30 682 C 66.5984 -1.54011 1.20582 0
M  V30 683 O 67.8044 -2.22183 1.56035 0
M  V30 684 C 66.2604 -0.571752 3.55329 0
M  V30 685 C 65.8684 0.658229 4.43138 0
M  V30 686 C 67.6124 -1.13857 4.08946 0
M  V30 687 C 65.5194 0.351439 5.90355 0
M  V30 688 H 64.4494 -0.113079 0.745472 0
M  V30 689 H 67.1004 0.424518 1.78522 0
M  V30 690 H 65.4824 -1.34872 3.72325 0
M  V30 691 H 66.6564 1.43403 4.37918 0
M  V30 692 H 64.9714 1.14458 4.0036 0
M  V30 693 H 67.5684 -1.38257 5.16516 0
M  V30 694 H 67.9114 -2.08489 3.6033 0
M  V30 695 H 68.4444 -0.423015 3.95544 0
M  V30 696 H 65.1834 1.26667 6.43145 0
M  V30 697 H 64.7034 -0.386842 5.98551 0
M  V30 698 H 66.3824 -0.0423134 6.46986 0
M  V30 699 N 66.5145 -1.57545 0.0417849 0
M  V30 700 C 67.7615 -1.92317 -0.634082 0
M  V30 701 C 68.0895 -0.919334 -1.71402 0
M  V30 702 O 67.3445 0.0698253 -1.95575 0
M  V30 703 C 67.6435 -3.33794 -1.27735 0
M  V30 704 C 67.3095 -4.49716 -0.326543 0
M  V30 705 C 65.9715 -4.81156 -0.0648814 0
M  V30 706 C 68.3235 -5.20182 0.325623 0
M  V30 707 C 65.6515 -5.80414 0.856539 0
M  V30 708 C 68.0035 -6.20424 1.23518 0
M  V30 709 C 66.6675 -6.50298 1.5056 0
M  V30 710 H 65.9375 -0.703736 -0.232027 0
M  V30 711 H 68.5845 -1.91205 0.106259 0
M  V30 712 H 66.8895 -3.31228 -2.09274 0
M  V30 713 H 68.5865 -3.57975 -1.80707 0
M  V30 714 H 65.1765 -4.25176 -0.540665 0
M  V30 715 H 69.3605 -4.96112 0.136546 0
M  V30 716 H 64.6165 -6.019 1.07363 0
M  V30 717 H 68.7905 -6.74141 1.74664 0
M  V30 718 H 66.4175 -7.27025 2.22123 0
M  V30 719 N 67.9926 0.231505 -1.5589 0
M  V30 720 C 68.9246 1.31006 -1.8807 0
M  V30 721 C 69.9376 1.43539 -0.768145 0
M  V30 722 O 71.1266 1.44614 -1.04638 0
M  V30 723 C 68.2266 2.68688 -2.06543 0
M  V30 724 C 67.3996 2.78228 -3.37502 0
M  V30 725 C 66.4586 3.96857 -3.4553 0
M  V30 726 O 65.4846 3.85662 -4.18633 0
M  V30 727 N 66.6866 5.1072 -2.75944 0
M  V30 728 H 69.4516 1.03731 -2.81176 0
M  V30 729 H 67.0126 0.421573 -1.56315 0
M  V30 730 H 69.0046 3.46412 -2.09239 0
M  V30 731 H 67.5746 2.88605 -1.20109 0
M  V30 732 H 66.7946 1.87059 -3.46991 0
M  V30 733 H 68.0826 2.81564 -4.23791 0
M  V30 734 H 67.4806 5.2271 -2.16311 0
M  V30 735 H 66.0376 5.86523 -2.84314 0
M  V30 736 N 69.4707 1.49531 0.497807 0
M  V30 737 C 70.7477 1.49682 1.25915 0
M  V30 738 C 71.1277 0.226339 2.09883 0
M  V30 739 O 70.4757 -0.791189 2.14365 0
M  V30 740 C 70.6857 2.77755 2.11313 0
M  V30 741 C 72.0337 3.27371 2.70395 0
M  V30 742 O 73.0577 2.78894 2.21578 0
M  V30 743 O 71.9167 4.11808 3.59272 0
M  V30 744 H 69.0107 0.599228 0.56996 0
M  V30 745 H 71.5567 1.61798 0.511816 0
M  V30 746 H 70.3287 3.61713 1.49264 0
M  V30 747 H 69.9517 2.68515 2.93233 0
M  V30 748 N 70.9488 -0.749086 1.3866 0
M  V30 749 C 71.8788 -1.8764 1.38973 0
M  V30 750 C 72.8598 -1.68178 0.255004 0
M  V30 751 O 74.0448 -1.88704 0.458754 0
M  V30 752 C 71.1748 -3.25222 1.21851 0
M  V30 753 C 70.1288 -3.59295 2.32575 0
M  V30 754 C 69.4548 -4.95663 2.00555 0
M  V30 755 C 70.7548 -3.63709 3.7485 0
M  V30 756 H 72.4488 -1.87635 2.3331 0
M  V30 757 H 69.9948 -0.901329 1.12303 0
M  V30 758 H 71.9478 -4.03746 1.20695 0
M  V30 759 H 70.6718 -3.25719 0.239775 0
M  V30 760 H 69.3308 -2.83093 2.32925 0
M  V30 761 H 68.9788 -4.92724 1.01154 0
M  V30 762 H 68.6788 -5.19429 2.74714 0
M  V30 763 H 70.2028 -5.7656 2.01024 0
M  V30 764 H 71.6168 -4.32338 3.76506 0
M  V30 765 H 70.0138 -3.98986 4.48252 0
M  V30 766 H 71.0838 -2.63834 4.06841 0
M  V30 767 N 72.4269 -1.23603 -0.977757 0
M  V30 768 C 73.6759 -1.06377 -1.71368 0
M  V30 769 C 73.9889 0.399062 -1.91486 0
M  V30 770 O 75.1949 0.691312 -2.62551 0
M  V30 771 C 73.6509 -1.85512 -3.08404 0
M  V30 772 C 73.2589 -3.36141 -2.96164 0
M  V30 773 C 75.0029 -1.76783 -3.85938 0
M  V30 774 C 72.9099 -4.07659 -4.28449 0
M  V30 775 H 71.8399 -0.394452 -0.642591 0
M  V30 776 H 74.4909 -1.47594 -1.09034 0
M  V30 777 H 72.8729 -1.37103 -3.71509 0
M  V30 778 H 74.0469 -3.92056 -2.42133 0
M  V30 779 H 72.3619 -3.45712 -2.32104 0
M  V30 780 H 74.9589 -2.27526 -4.83876 0
M  V30 781 H 75.3019 -0.731116 -4.0983 0
M  V30 782 H 75.8349 -2.22818 -3.2954 0
M  V30 783 H 72.5739 -5.11648 -4.09752 0
M  V30 784 H 72.0939 -3.5653 -4.82334 0
M  V30 785 H 73.7729 -4.141 -4.97122 0
M  V30 786 N 73.905 1.17692 -1.04816 0
M  V30 787 C 75.321 1.39863 -0.768794 0
M  V30 788 C 75.521 1.91118 0.638451 0
M  V30 789 O 74.577 2.10036 1.40146 0
M  V30 790 C 75.89 2.39274 -1.82122 0
M  V30 791 C 77.438 2.52987 -1.843 0
M  V30 792 C 77.913 3.55669 -2.88555 0
M  V30 793 N 79.404 3.63183 -2.87493 0
M  V30 794 C 80.139 4.42381 -3.64811 0
M  V30 795 N 79.635 5.25125 -4.51903 0
M  V30 796 N 81.428 4.37217 -3.53267 0
M  V30 797 H 73.579 0.82752 -1.95617 0
M  V30 798 H 75.842 0.426123 -0.846831 0
M  V30 799 H 75.548 2.08678 -2.83102 0
M  V30 800 H 75.422 3.38725 -1.65967 0
M  V30 801 H 77.809 2.82896 -0.839869 0
M  V30 802 H 77.89 1.53623 -2.04532 0
M  V30 803 H 77.534 3.26499 -3.89051 0
M  V30 804 H 77.464 4.54728 -2.65575 0
M  V30 805 H 79.955 3.04103 -2.24343 0
M  V30 806 H 80.268 5.82728 -5.07591 0
M  V30 807 H 78.613 5.24519 -4.55966 0
M  V30 808 H 81.804 3.71626 -2.84625 0
M  V30 809 H 81.977 4.98696 -4.13771 0
M  V30 810 N 75.3831 0.828654 1.34056 0
M  V30 811 C 76.6131 0.431993 2.02033 0
M  V30 812 C 77.0211 -0.96844 1.62536 0
M  V30 813 O 76.3641 -1.6391 0.829408 0
M  V30 814 C 76.4261 0.461224 3.56529 0
M  V30 815 C 76.0901 1.81599 4.1937 0
M  V30 816 C 77.0871 2.7777 4.39477 0
M  V30 817 C 74.7721 2.10604 4.56017 0
M  V30 818 C 76.7661 4.01115 4.95364 0
M  V30 819 C 74.4531 3.34207 5.11614 0
M  V30 820 C 75.4511 4.2928 5.31232 0
M  V30 821 O 75.1391 5.50699 5.8565 0
M  V30 822 H 74.8711 0.170943 0.654029 0
M  V30 823 H 77.4251 1.11988 1.72185 0
M  V30 824 H 75.6551 -0.283388 3.8566 0
M  V30 825 H 77.3441 0.0838149 4.05813 0
M  V30 826 H 78.1101 2.56659 4.11523 0
M  V30 827 H 73.9891 1.37402 4.40047 0
M  V30 828 H 77.5331 4.75333 5.10592 0
M  V30 829 H 73.4301 3.55179 5.38997 0
M  V30 830 H 74.1981 5.52298 6.04077 0
M  V30 831 N 76.8612 -1.46375 0.584142 0
M  V30 832 C 78.1092 -2.01978 0.0701287 0
M  V30 833 C 78.4302 -1.4579 -1.295 0
M  V30 834 O 77.7002 -0.64314 -1.85042 0
M  V30 835 H 76.2802 -0.746648 0.0229345 0
M  V30 836 H 78.9422 -1.79461 0.760245 0
M  V30 837 H 78.0382 -3.121 0.0022064 0
M  V30 838 N 78.3393 -0.321999 -1.54275 0
M  V30 839 C 79.2863 0.544664 -2.24281 0
M  V30 840 C 80.2563 1.1129 -1.23303 0
M  V30 841 O 81.4413 1.15354 -1.51981 0
M  V30 842 C 78.5813 1.70045 -3.00298 0
M  V30 843 C 77.6943 1.16159 -4.1609 0
M  V30 844 C 76.8293 2.28293 -4.79641 0
M  V30 845 C 75.8683 1.71648 -5.8754 0
M  V30 846 N 75.0053 2.77438 -6.44959 0
M  V30 847 H 79.8453 -0.0588907 -2.97942 0
M  V30 848 H 77.3823 -0.0408345 -1.47043 0
M  V30 849 H 79.3403 2.38054 -3.42616 0
M  V30 850 H 77.9703 2.27531 -2.28975 0
M  V30 851 H 77.0223 0.373092 -3.78566 0
M  V30 852 H 78.3343 0.707087 -4.93763 0
M  V30 853 H 77.4883 3.0421 -5.2492 0
M  V30 854 H 76.2273 2.77079 -4.01346 0
M  V30 855 H 75.2323 0.942282 -5.41665 0
M  V30 856 H 76.4573 1.23741 -6.67731 0
M  V30 857 H 74.4033 3.25519 -5.69538 0
M  V30 858 H 74.3203 2.36547 -7.1804 0
M  V30 859 H 75.5883 3.53189 -6.94894 0
M  V30 860 N 79.8174 1.5752 -0.0501392 0
M  V30 861 C 81.0454 1.96963 0.633492 0
M  V30 862 C 81.4604 0.927631 1.6444 0
M  V30 863 O 80.8174 -0.0882665 1.82286 0
M  V30 864 C 80.8684 3.36487 1.32132 0
M  V30 865 O 80.5894 4.36693 0.350894 0
M  V30 866 C 82.0904 3.90682 2.09481 0
M  V30 867 H 79.3104 0.648244 0.173266 0
M  V30 868 H 81.8544 2.0417 -0.116134 0
M  V30 869 H 80.0094 3.30434 2.02218 0
M  V30 870 H 80.4234 5.17702 0.841735 0
M  V30 871 H 81.8974 4.90591 2.5303 0
M  V30 872 H 82.3744 3.26053 2.94255 0
M  V30 873 H 82.9804 4.00069 1.44307 0
M  V30 874 N 81.2955 -0.223234 1.56011 0
M  V30 875 C 82.2425 -1.27664 1.92277 0
M  V30 876 C 83.2125 -1.46659 0.779763 0
M  V30 877 O 84.3975 -1.60256 1.03551 0
M  V30 878 C 81.5375 -2.62234 2.24338 0
M  V30 879 C 80.6505 -2.51051 3.51564 0
M  V30 880 C 79.7855 -3.78133 3.7308 0
M  V30 881 C 78.8245 -3.61665 4.93827 0
M  V30 882 N 77.9615 -4.80693 5.11741 0
M  V30 883 H 82.8015 -0.960358 2.82101 0
M  V30 884 H 80.3385 -0.462901 1.39627 0
M  V30 885 H 82.2965 -3.40596 2.40936 0
M  V30 886 H 80.9265 -2.91961 1.3769 0
M  V30 887 H 79.9785 -1.64132 3.43169 0
M  V30 888 H 81.2905 -2.34803 4.40079 0
M  V30 889 H 80.4445 -4.64938 3.89766 0
M  V30 890 H 79.1835 -3.97304 2.82844 0
M  V30 891 H 78.1885 -2.73244 4.77093 0
M  V30 892 H 79.4135 -3.43966 5.85546 0
M  V30 893 H 77.3595 -5.00181 4.24446 0
M  V30 894 H 77.2765 -4.67165 5.94384 0
M  V30 895 H 78.5445 -5.6893 5.3286 0
M  V30 896 N 82.7736 -1.49793 -0.48987 0
M  V30 897 C 84.0136 -1.61466 -1.25332 0
M  V30 898 C 84.3776 -0.299688 -1.89647 0
M  V30 899 O 85.5786 -0.291687 -2.67213 0
M  V30 900 C 83.8496 -2.74944 -2.28343 0
M  V30 901 S 85.4086 -3.06637 -3.13878 0
M  V30 902 H 82.2266 -0.569411 -0.425784 0
M  V30 903 H 84.8286 -1.875 -0.553541 0
M  V30 904 H 83.5326 -3.68994 -1.79643 0
M  V30 905 H 83.0636 -2.50938 -3.02975 0
M  V30 906 H 85.0786 -2.49015 -4.29192 0
M  V30 907 N 84.2517 0.741722 -1.39055 0
M  V30 908 C 85.4997 1.49818 -1.35643 0
M  V30 909 C 85.8207 1.94938 0.0491642 0
M  V30 910 O 85.0907 1.68505 0.999141 0
M  V30 911 H 83.6707 0.555755 -0.499144 0
M  V30 912 H 86.3327 0.880957 -1.73854 0
M  V30 913 H 85.4287 2.38348 -2.01486 0
M  V30 914 N 85.7298 1.2412 0.971189 0
M  V30 915 C 86.6398 1.04747 2.09917 0
M  V30 916 C 87.6558 -0.0107162 1.73997 0
M  V30 917 O 88.8318 0.186714 2.00533 0
M  V30 918 C 85.8968 0.650828 3.40537 0
M  V30 919 C 84.9578 1.7851 3.90426 0
M  V30 920 C 84.1908 1.40729 5.14812 0
M  V30 921 O 84.4138 0.29557 5.69634 0
M  V30 922 O 83.3478 2.23168 5.58999 0
M  V30 923 H 87.1738 1.99304 2.29154 0
M  V30 924 H 84.7588 1.02908 1.08307 0
M  V30 925 H 86.6408 0.440992 4.19086 0
M  V30 926 H 85.3158 -0.265649 3.22608 0
M  V30 927 H 84.2228 2.04966 3.12953 0
M  V30 928 H 85.5558 2.68023 4.12825 0
M  V30 929 N 87.2079 -1.17134 1.05439 0
M  V30 930 C 88.6189 -1.69084 0.791676 0
M  V30 931 C 88.9699 -1.83822 -0.685839 0
M  V30 932 O 88.0949 -1.52757 -1.53278 0
M  V30 933 C 88.6899 -3.07119 1.4305 0
M  V30 934 C 87.2489 -3.56225 1.21577 0
M  V30 935 C 86.3959 -2.32421 1.51247 0
M  V30 936 H 89.3469 -1.01617 1.219 0
M  V30 937 H 89.3679 -3.71087 0.84112 0
M  V30 938 H 88.8799 -2.9636 2.50584 0
M  V30 939 H 86.9809 -3.72257 0.159787 0
M  V30 940 H 87.0939 -4.38837 1.92246 0
M  V30 941 H 85.4579 -2.3701 0.932653 0
M  V30 942 H 86.2409 -2.24268 2.5992 0
M  V30 943 N 88.686 -0.835752 -1.33615 0
M  V30 944 C 89.911 -0.442389 -2.02627 0
M  V30 945 C 90.336 0.947735 -1.62479 0
M  V30 946 O 89.694 1.61907 -0.815826 0
M  V30 947 C 89.742 -0.567216 -3.56111 0
M  V30 948 O 88.846 0.407799 -4.10379 0
M  V30 949 H 88.187 -0.180278 -0.639059 0
M  V30 950 H 90.717 -1.12972 -1.70583 0
M  V30 951 H 90.727 -0.447708 -4.05536 0
M  V30 952 H 89.402 -1.58103 -3.84677 0
M  V30 953 H 87.979 0.246107 -3.72087 0
M  V30 954 N 90.1641 1.46063 -0.591896 0
M  V30 955 C 91.5801 1.57561 -0.254288 0
M  V30 956 C 91.7801 1.58565 1.24336 0
M  V30 957 O 90.8361 1.50753 2.02558 0
M  V30 958 C 92.1491 2.86549 -0.911611 0
M  V30 959 C 93.6971 3.00197 -0.886059 0
M  V30 960 C 94.1721 4.31933 -1.5231 0
M  V30 961 N 95.6631 4.38654 -1.48786 0
M  V30 962 C 96.3981 5.39222 -1.95006 0
M  V30 963 N 95.8941 6.46414 -2.49241 0
M  V30 964 N 97.6871 5.3048 -1.85868 0
M  V30 965 H 89.8381 1.43655 -1.56451 0
M  V30 966 H 92.1011 0.68583 -0.654478 0
M  V30 967 H 91.8071 2.91651 -1.96551 0
M  V30 968 H 91.6811 3.74794 -0.425368 0
M  V30 969 H 94.0681 2.9467 0.159246 0
M  V30 970 H 94.1491 2.13403 -1.41041 0
M  V30 971 H 93.7931 4.38217 -2.56765 0
M  V30 972 H 93.7231 5.17516 -0.973891 0
M  V30 973 H 96.2141 3.61793 -1.09151 0
M  V30 974 H 96.5271 7.19376 -2.82344 0
M  V30 975 H 94.8721 6.47208 -2.53272 0
M  V30 976 H 98.0631 4.45643 -1.43248 0
M  V30 977 H 98.2361 6.08711 -2.22204 0
M  V30 978 N 91.6422 0.330177 1.54103 0
M  V30 979 C 93.0532 -0.15652 1.86043 0
M  V30 980 C 93.4042 -1.51086 1.2517 0
M  V30 981 O 92.5292 -2.09023 0.560217 0
M  V30 982 C 93.1242 -0.290784 3.3755 0
M  V30 983 C 91.6832 -0.721705 3.69416 0
M  V30 984 C 90.8302 0.152622 2.7688 0
M  V30 985 H 93.7812 0.550237 1.48856 0
M  V30 986 H 93.8022 -1.12058 3.63625 0
M  V30 987 H 93.3142 0.695068 3.81825 0
M  V30 988 H 91.4152 -1.71706 3.30678 0
M  V30 989 H 91.5282 -0.520869 4.7626 0
M  V30 990 H 89.8922 -0.372894 2.51956 0
M  V30 991 H 90.6752 1.13536 3.23982 0
M  V30 992 N 93.1203 -1.57491 0.0584922 0
M  V30 993 C 94.0833 -2.1085 -0.898617 0
M  V30 994 C 95.0833 -1.02964 -1.23511 0
M  V30 995 O 96.2733 -1.29007 -1.17059 0
M  V30 996 C 93.4053 -2.59881 -2.20623 0
M  V30 997 H 94.5983 -2.96715 -0.435936 0
M  V30 998 H 92.1513 -1.55141 -0.190023 0
M  V30 999 H 92.8863 -1.77431 -2.71457 0
M  V30 1000 H 92.6713 -3.38727 -1.97501 0
M  V30 1001 H 94.1613 -3.01285 -2.89166 0
M  V30 1002 N 94.5984 0.214957 -1.56127 0
M  V30 1003 C 95.5614 1.24997 -1.92116 0
M  V30 1004 C 96.5614 1.39467 -0.800344 0
M  V30 1005 O 97.7514 1.37619 -1.06802 0
M  V30 1006 C 94.8834 2.62271 -2.17777 0
M  V30 1007 H 96.0764 0.942875 -2.84693 0
M  V30 1008 H 93.6294 0.455654 -1.49511 0
M  V30 1009 H 94.3644 2.98068 -1.27773 0
M  V30 1010 H 94.1494 2.53143 -2.99434 0
M  V30 1011 H 95.6394 3.36946 -2.46693 0
M  V30 1012 N 96.0765 1.50051 0.48192 0
M  V30 1013 C 97.3165 1.62128 1.24474 0
M  V30 1014 C 97.6805 0.309742 1.89485 0
M  V30 1015 O 98.8815 0.305854 2.67054 0
M  V30 1016 C 97.1525 2.76151 2.26882 0
M  V30 1017 S 98.7115 3.08297 3.12247 0
M  V30 1018 H 95.5295 0.571661 0.422759 0
M  V30 1019 H 98.1315 1.87791 0.54359 0
M  V30 1020 H 96.8355 3.69942 1.77683 0
M  V30 1021 H 96.3665 2.52541 3.0164 0
M  V30 1022 H 98.3815 2.51287 4.27866 0
M  V30 1023 N 97.5546 -0.734337 1.39446 0
M  V30 1024 C 98.9706 -1.03997 1.21065 0
M  V30 1025 C 99.1706 -2.01369 0.0727019 0
M  V30 1026 O 98.2266 -2.45856 -0.575426 0
M  V30 1027 C 99.5396 -1.60163 2.54496 0
M  V30 1028 C 101.088 -1.7224 2.61347 0
M  V30 1029 C 101.563 -2.31814 3.95002 0
M  V30 1030 N 103.054 -2.39223 3.96644 0
M  V30 1031 C 103.789 -2.86258 4.96834 0
M  V30 1032 N 103.285 -3.33184 6.07421 0
M  V30 1033 N 105.078 -2.85473 4.84213 0
M  V30 1034 H 97.2286 -0.0885624 2.12215 0
M  V30 1035 H 99.4916 -0.10191 0.942506 0
M  V30 1036 H 99.1976 -0.960811 3.38321 0
M  V30 1037 H 99.0716 -2.5896 2.74262 0
M  V30 1038 H 101.459 -2.35443 1.77906 0
M  V30 1039 H 101.54 -0.720939 2.4543 0
M  V30 1040 H 101.184 -1.69238 4.78875 0
M  V30 1041 H 101.114 -3.32638 4.08239 0
M  V30 1042 H 103.605 -2.06057 3.16779 0
M  V30 1043 H 103.918 -3.67586 6.7978 0
M  V30 1044 H 102.263 -3.31191 6.11013 0
M  V30 1045 H 105.454 -2.48136 3.96921 0
M  V30 1046 H 105.627 -3.21814 5.62441 0
M  V30 1047 N 99.0327 -1.24633 -0.964593 0
M  V30 1048 C 99.9957 -1.0424 -2.04124 0
M  V30 1049 C 100.996 0.00137563 -1.608 0
M  V30 1050 O 102.186 -0.239883 -1.7254 0
M  V30 1051 C 99.3177 -0.580588 -3.3592 0
M  V30 1052 H 100.511 -1.99803 -2.23649 0
M  V30 1053 H 98.0637 -1.06899 -1.14027 0
M  V30 1054 H 98.7987 0.3781 -3.22088 0
M  V30 1055 H 98.5837 -1.33398 -3.6871 0
M  V30 1056 H 100.074 -0.459034 -4.15069 0
M  V30 1057 N 100.511 1.16574 -1.06058 0
M  V30 1058 C 101.758 1.87047 -0.775873 0
M  V30 1059 C 102.086 1.81562 0.697534 0
M  V30 1060 O 101.341 1.22445 1.52662 0
M  V30 1061 C 101.64 3.36195 -1.21275 0
M  V30 1062 C 101.306 3.6188 -2.68986 0
M  V30 1063 C 99.9678 3.68599 -3.09335 0
M  V30 1064 C 102.32 3.72648 -3.64394 0
M  V30 1065 C 99.6478 3.83584 -4.43937 0
M  V30 1066 C 102 3.89154 -4.98741 0
M  V30 1067 C 100.664 3.94114 -5.3873 0
M  V30 1068 H 99.9338 0.684452 -0.283912 0
M  V30 1069 H 102.581 1.37853 -1.32925 0
M  V30 1070 H 100.886 3.87505 -0.578528 0
M  V30 1071 H 102.583 3.89103 -0.969542 0
M  V30 1072 H 99.1728 3.57281 -2.36744 0
M  V30 1073 H 103.357 3.66769 -3.34356 0
M  V30 1074 H 98.6128 3.85677 -4.74409 0
M  V30 1075 H 102.787 3.96427 -5.72554 0
M  V30 1076 H 100.414 4.05478 -6.43033 0
M  V30 1077 N 101.989 0.842826 1.3317 0
M  V30 1078 C 103.266 0.362216 1.92217 0
M  V30 1079 C 103.646 -1.15289 1.76838 0
M  V30 1080 O 102.994 -1.96914 1.15919 0
M  V30 1081 C 103.204 0.813495 3.39387 0
M  V30 1082 C 104.552 0.823804 4.16532 0
M  V30 1083 O 105.576 0.757358 3.48055 0
M  V30 1084 O 104.435 0.915193 5.38782 0
M  V30 1085 H 101.529 0.103317 0.820521 0
M  V30 1086 H 104.075 0.928942 1.42017 0
M  V30 1087 H 102.847 1.85624 3.4447 0
M  V30 1088 H 102.47 0.223561 3.96971 0
M  V30 1089 N 103.467 -1.45747 0.599634 0
M  V30 1090 C 104.713 -2.02592 0.0918643 0
M  V30 1091 C 105.046 -1.46806 -1.27128 0
M  V30 1092 O 104.321 -0.639658 -1.83681 0
M  V30 1093 C 104.604 -3.60073 0.0443398 0
M  V30 1094 C 104.457 -4.26208 1.43759 0
M  V30 1095 C 105.776 -4.35309 -0.647608 0
M  V30 1096 H 102.895 -0.736175 0.034857 0
M  V30 1097 H 105.537 -1.73694 0.770081 0
M  V30 1098 H 103.687 -3.84823 -0.533224 0
M  V30 1099 H 105.359 -4.12668 2.06162 0
M  V30 1100 H 103.602 -3.84916 2.00056 0
M  V30 1101 H 104.273 -5.35069 1.35665 0
M  V30 1102 H 106.749 -4.15805 -0.156776 0
M  V30 1103 H 105.625 -5.45038 -0.649942 0
M  V30 1104 H 105.886 -4.07598 -1.71219 0
M  V30 1105 N 104.945 -0.338344 -1.53925 0
M  V30 1106 C 106.356 0.146651 -1.86123 0
M  V30 1107 C 106.707 1.5042 -1.2597 0
M  V30 1108 O 105.832 2.08723 -0.571294 0
M  V30 1109 C 106.427 0.272879 -3.37699 0
M  V30 1110 C 104.986 0.702103 -3.69794 0
M  V30 1111 C 104.133 -0.167304 -2.76795 0
M  V30 1112 H 107.084 -0.558123 -1.48562 0
M  V30 1113 H 107.105 1.10128 -3.64214 0
M  V30 1114 H 106.617 -0.715307 -3.81451 0
M  V30 1115 H 104.718 1.6995 -3.31584 0
M  V30 1116 H 104.831 0.495604 -4.7653 0
M  V30 1117 H 103.195 0.359527 -2.5215 0
M  V30 1118 H 103.978 -1.15253 -3.23375 0
M  V30 1119 N 106.423 1.57458 -0.0668435 0
M  V30 1120 C 107.37 2.12439 0.902122 0
M  V30 1121 C 108.34 1.03565 1.2986 0
M  V30 1122 O 109.525 1.312 1.38532 0
M  V30 1123 C 106.665 2.6865 2.16614 0
M  V30 1124 C 105.778 3.91663 1.82274 0
M  V30 1125 C 104.913 4.36134 3.0325 0
M  V30 1126 C 103.952 5.51808 2.64904 0
M  V30 1127 N 103.089 5.9126 3.78624 0
M  V30 1128 H 107.929 2.94934 0.426382 0
M  V30 1129 H 105.466 1.4575 0.198819 0
M  V30 1130 H 107.424 2.99346 2.90599 0
M  V30 1131 H 106.054 1.88928 2.61737 0
M  V30 1132 H 105.106 3.6746 0.983719 0
M  V30 1133 H 106.418 4.75693 1.50059 0
M  V30 1134 H 105.572 4.68465 3.85519 0
M  V30 1135 H 104.311 3.50948 3.38655 0
M  V30 1136 H 103.316 5.19133 1.81055 0
M  V30 1137 H 104.541 6.38722 2.30675 0
M  V30 1138 H 102.487 5.09024 4.138 0
M  V30 1139 H 102.404 6.70018 3.5016 0
M  V30 1140 H 103.672 6.28212 4.61486 0
M  V30 1141 N 107.901 -0.206675 1.56239 0
M  V30 1142 C 109.317 -0.557025 1.49564 0
M  V30 1143 C 109.517 -1.86424 0.764735 0
M  V30 1144 O 108.573 -2.50584 0.310491 0
M  V30 1145 C 109.886 -0.622478 2.94186 0
M  V30 1146 C 111.434 -0.712099 3.04792 0
M  V30 1147 C 111.909 -0.808767 4.50803 0
M  V30 1148 N 113.4 -0.8726 4.54907 0
M  V30 1149 C 114.135 -0.967365 5.65181 0
M  V30 1150 N 113.631 -1.02515 6.85173 0
M  V30 1151 N 115.424 -1.00366 5.53067 0
M  V30 1152 H 107.575 0.650943 2.02179 0
M  V30 1153 H 109.838 0.230387 0.919579 0
M  V30 1154 H 109.544 0.268727 3.50672 0
M  V30 1155 H 109.418 -1.4811 3.46905 0
M  V30 1156 H 111.805 -1.59374 2.48363 0
M  V30 1157 H 111.886 0.172489 2.55218 0
M  V30 1158 H 111.53 0.0684754 5.07854 0
M  V30 1159 H 111.46 -1.70899 4.98098 0
M  V30 1160 H 113.951 -0.837657 3.68499 0
M  V30 1161 H 114.264 -1.09765 7.64965 0
M  V30 1162 H 112.609 -0.994026 6.87855 0
M  V30 1163 H 115.8 -0.95527 4.58249 0
M  V30 1164 H 115.973 -1.07405 6.39037 0
M  V30 1165 N 109.379 -1.50304 -0.473955 0
M  V30 1166 C 110.609 -1.64663 -1.24778 0
M  V30 1167 C 111.017 -0.328174 -1.86332 0
M  V30 1168 O 110.36 0.699536 -1.69859 0
M  V30 1169 C 110.422 -2.6778 -2.39863 0
M  V30 1170 C 110.086 -4.11413 -1.98969 0
M  V30 1171 C 111.083 -4.97372 -1.51385 0
M  V30 1172 C 108.768 -4.57312 -2.07777 0
M  V30 1173 C 110.762 -6.27277 -1.13148 0
M  V30 1174 C 108.449 -5.87223 -1.69152 0
M  V30 1175 C 109.447 -6.72031 -1.21915 0
M  V30 1176 O 109.135 -7.99518 -0.838237 0
M  V30 1177 H 108.867 -0.556602 -0.383627 0
M  V30 1178 H 111.421 -1.9726 -0.572491 0
M  V30 1179 H 109.651 -2.30419 -3.10554 0
M  V30 1180 H 111.34 -2.71388 -3.01833 0
M  V30 1181 H 112.106 -4.63128 -1.44004 0
M  V30 1182 H 107.985 -3.91449 -2.43493 0
M  V30 1183 H 111.529 -6.93425 -0.762077 0
M  V30 1184 H 107.426 -6.20989 -1.76191 0
M  V30 1185 H 108.194 -8.12764 -0.967339 0
M  V30 1186 N 110.857 0.726932 -1.39834 0
M  V30 1187 C 112.104 1.48664 -1.37496 0
M  V30 1188 C 112.432 1.94482 0.0264678 0
M  V30 1189 O 111.687 1.67692 1.00886 0
M  V30 1190 C 111.986 2.73495 -2.30077 0
M  V30 1191 C 111.652 2.46502 -3.77555 0
M  V30 1192 C 110.314 2.3885 -4.17737 0
M  V30 1193 C 112.666 2.23604 -4.70798 0
M  V30 1194 C 109.994 2.06352 -5.49214 0
M  V30 1195 C 112.346 1.92622 -6.02561 0
M  V30 1196 C 111.01 1.83444 -6.41798 0
M  V30 1197 H 110.28 0.544001 -0.503135 0
M  V30 1198 H 112.927 0.833657 -1.72402 0
M  V30 1199 H 111.232 3.43575 -1.88317 0
M  V30 1200 H 112.929 3.31549 -2.25558 0
M  V30 1201 H 109.519 2.5334 -3.45712 0
M  V30 1202 H 113.703 2.28479 -4.40581 0
M  V30 1203 H 108.959 1.97776 -5.78528 0
M  V30 1204 H 113.133 1.73914 -6.74334 0
M  V30 1205 H 110.76 1.58029 -7.43593 0
M  V30 1206 N 112.336 1.25143 0.95797 0
M  V30 1207 C 113.561 1.12521 1.74223 0
M  V30 1208 C 113.986 -0.317402 1.85403 0
M  V30 1209 O 113.344 -1.2299 1.33204 0
M  V30 1210 C 113.392 1.78062 3.1357 0
M  V30 1211 O 112.496 1.058 3.98598 0
M  V30 1212 H 111.837 0.39304 0.535178 0
M  V30 1213 H 114.367 1.65641 1.201 0
M  V30 1214 H 114.377 1.84213 3.64046 0
M  V30 1215 H 113.052 2.83021 3.04749 0
M  V30 1216 H 111.629 1.07506 3.57067 0
M  V30 1217 N 113.814 -1.1601 1.06675 0
M  V30 1218 C 114.764 -2.18512 0.650888 0
M  V30 1219 C 115.748 -1.57677 -0.320441 0
M  V30 1220 O 116.94 -1.76482 -0.135266 0
M  V30 1221 C 114.069 -3.43273 0.0429255 0
M  V30 1222 C 113.155 -4.11176 1.03898 0
M  V30 1223 N 113.546 -4.54672 2.216 0
M  V30 1224 C 111.844 -4.37417 0.870779 0
M  V30 1225 C 112.545 -5.07248 2.84736 0
M  V30 1226 N 111.521 -5.0037 2.12441 0
M  V30 1227 H 115.323 -2.49863 1.54745 0
M  V30 1228 H 112.837 -1.32503 0.938975 0
M  V30 1229 H 114.834 -4.16006 -0.272857 0
M  V30 1230 H 113.494 -3.13408 -0.84884 0
M  V30 1231 H 114.505 -4.4828 2.59356 0
M  V30 1232 H 111.182 -4.17488 0.0313293 0
M  V30 1233 H 112.572 -5.50912 3.84636 0
M  V30 1234 N 115.292 -0.849877 -1.32721 0
M  V30 1235 C 116.539 -0.450923 -1.97416 0
M  V30 1236 C 116.867 0.992376 -1.67279 0
M  V30 1237 O 116.122 1.71048 -0.950845 0
M  V30 1238 C 116.421 -0.631272 -3.51781 0
M  V30 1239 C 116.087 -2.04432 -4.01894 0
M  V30 1240 C 114.749 -2.4308 -4.1529 0
M  V30 1241 C 117.101 -2.96679 -4.28522 0
M  V30 1242 C 114.429 -3.73257 -4.52654 0
M  V30 1243 C 116.781 -4.26349 -4.67343 0
M  V30 1244 C 115.445 -4.64939 -4.78945 0
M  V30 1245 H 114.715 -0.165004 -0.722395 0
M  V30 1246 H 117.362 -1.07901 -1.58207 0
M  V30 1247 H 115.667 0.0800767 -3.91718 0
M  V30 1248 H 117.364 -0.302709 -3.99856 0
M  V30 1249 H 113.954 -1.73419 -3.91949 0
M  V30 1250 H 118.138 -2.68054 -4.17685 0
M  V30 1251 H 113.394 -4.02946 -4.59831 0
M  V30 1252 H 117.568 -4.97895 -4.86902 0
M  V30 1253 H 115.195 -5.65855 -5.07654 0
M  V30 1254 N 116.77 1.45427 -0.607355 0
M  V30 1255 C 118 2.06314 -0.108656 0
M  V30 1256 C 118.408 1.45269 1.21217 0
M  V30 1257 O 117.751 0.561115 1.74921 0
M  V30 1258 C 117.813 3.59345 0.105618 0
M  V30 1259 C 117.477 4.42723 -1.13337 0
M  V30 1260 C 118.474 4.77715 -2.05145 0
M  V30 1261 C 116.159 4.83478 -1.36213 0
M  V30 1262 C 118.153 5.52317 -3.18158 0
M  V30 1263 C 115.84 5.57835 -2.49527 0
M  V30 1264 C 116.838 5.92171 -3.40327 0
M  V30 1265 O 116.526 6.65019 -4.51669 0
M  V30 1266 H 116.258 0.672782 -0.0658842 0
M  V30 1267 H 118.812 1.87664 -0.834945 0
M  V30 1268 H 117.042 3.76394 0.886796 0
M  V30 1269 H 118.731 4.02076 0.555886 0
M  V30 1270 H 119.497 4.46787 -1.88697 0
M  V30 1271 H 115.376 4.56188 -0.664362 0
M  V30 1272 H 118.92 5.79036 -3.89054 0
M  V30 1273 H 114.817 5.88177 -2.65928 0
M  V30 1274 H 115.585 6.83469 -4.50348 0
M  V30 1275 N 118.248 0.346503 1.53744 0
M  V30 1276 C 119.497 -0.250122 2.00143 0
M  V30 1277 C 119.81 -1.51418 1.23822 0
M  V30 1278 O 121.016 -2.18823 1.60713 0
M  V30 1279 C 119.472 -0.496252 3.56462 0
M  V30 1280 C 119.08 0.752077 4.41642 0
M  V30 1281 C 120.824 -1.05157 4.11269 0
M  V30 1282 C 118.731 0.476583 5.89477 0
M  V30 1283 H 117.661 -0.0972409 0.747703 0
M  V30 1284 H 120.312 0.46229 1.77581 0
M  V30 1285 H 118.694 -1.26944 3.75102 0
M  V30 1286 H 119.868 1.5266 4.34778 0
M  V30 1287 H 118.183 1.22925 3.97842 0
M  V30 1288 H 120.78 -1.27269 5.19333 0
M  V30 1289 H 121.123 -2.00799 3.64672 0
M  V30 1290 H 121.656 -0.339019 3.96353 0
M  V30 1291 H 118.395 1.4028 6.40314 0
M  V30 1292 H 117.915 -0.259794 5.99237 0
M  V30 1293 H 119.594 0.0949315 6.4693 0
M  V30 1294 N 119.726 -1.57421 0.075193 0
M  V30 1295 C 120.975 -1.92794 -0.592731 0
M  V30 1296 C 121.288 -0.957478 -1.70563 0
M  V30 1297 O 122.494 -1.20417 -2.43335 0
M  V30 1298 C 120.95 -3.42495 -1.10569 0
M  V30 1299 C 120.558 -4.47994 -0.0236121 0
M  V30 1300 C 122.302 -3.86864 -1.74748 0
M  V30 1301 C 120.209 -5.88829 -0.550803 0
M  V30 1302 H 119.139 -0.719591 -0.225177 0
M  V30 1303 H 121.79 -1.82902 0.147978 0
M  V30 1304 H 120.172 -3.47471 -1.89947 0
M  V30 1305 H 121.346 -4.54637 0.751099 0
M  V30 1306 H 119.661 -4.13113 0.522159 0
M  V30 1307 H 122.258 -4.8947 -2.15229 0
M  V30 1308 H 122.601 -3.24417 -2.60882 0
M  V30 1309 H 123.134 -3.84504 -1.01986 0
M  V30 1310 H 119.873 -6.54929 0.273457 0
M  V30 1311 H 119.393 -5.85698 -1.29296 0
M  V30 1312 H 121.072 -6.38811 -1.02613 0
M  V30 1313 N 121.204 0.198386 -1.56346 0
M  V30 1314 C 122.429 0.939682 -1.84891 0
M  V30 1315 C 122.854 1.76202 -0.658369 0
M  V30 1316 O 122.212 1.76993 0.392851 0
M  V30 1317 C 122.26 1.81428 -3.11635 0
M  V30 1318 O 121.364 2.91265 -2.91956 0
M  V30 1319 H 120.705 0.264807 -0.608912 0
M  V30 1320 H 123.235 0.204695 -2.03573 0
M  V30 1321 H 123.245 2.21958 -3.42343 0
M  V30 1322 H 121.92 1.21004 -3.97908 0
M  V30 1323 H 120.497 2.54514 -2.72538 0
M  V30 1324 N 122.682 1.50554 0.465978 0
M  V30 1325 C 123.928 1.62038 1.21949 0
M  V30 1326 C 124.261 0.322116 1.9151 0
M  V30 1327 O 123.536 -0.676723 1.82348 0
M  V30 1328 C 123.819 2.80421 2.25912 0
M  V30 1329 C 123.672 4.20144 1.60622 0
M  V30 1330 C 124.991 2.94354 3.27176 0
M  V30 1331 H 122.11 0.589752 0.441998 0
M  V30 1332 H 124.752 1.82956 0.51257 0
M  V30 1333 H 122.902 2.62717 2.86203 0
M  V30 1334 H 124.574 4.49449 1.03889 0
M  V30 1335 H 122.817 4.24165 0.909211 0
M  V30 1336 H 123.488 4.98914 2.36196 0
M  V30 1337 H 125.964 3.10578 2.76913 0
M  V30 1338 H 124.84 3.788 3.97242 0
M  V30 1339 H 125.101 2.05186 3.916 0
M  V30 1340 N 124.16 -0.719506 1.40217 0
M  V30 1341 C 125.09 -1.8465 1.42922 0
M  V30 1342 C 126.071 -1.67599 0.29062 0
M  V30 1343 O 127.256 -1.87688 0.498677 0
M  V30 1344 C 124.386 -3.22565 1.28722 0
M  V30 1345 C 123.34 -3.54281 2.40144 0
M  V30 1346 C 122.666 -4.91298 2.11023 0
M  V30 1347 C 123.966 -3.55676 3.82481 0
M  V30 1348 H 125.66 -1.82644 2.37237 0
M  V30 1349 H 123.206 -0.877305 1.1419 0
M  V30 1350 H 125.159 -4.01095 1.29232 0
M  V30 1351 H 123.883 -3.25137 0.308811 0
M  V30 1352 H 122.542 -2.78088 2.38877 0
M  V30 1353 H 122.19 -4.90468 1.11582 0
M  V30 1354 H 121.89 -5.13485 2.8567 0
M  V30 1355 H 123.414 -5.72166 2.13209 0
M  V30 1356 H 124.828 -4.24254 3.85592 0
M  V30 1357 H 123.225 -3.89388 4.56614 0
M  V30 1358 H 124.295 -2.55144 4.12346 0
M  V30 1359 N 125.638 -1.25649 -0.95132 0
M  V30 1360 C 126.884 -1.11766 -1.69941 0
M  V30 1361 C 127.239 0.33735 -1.89419 0
M  V30 1362 O 126.532 1.24491 -1.45645 0
M  V30 1363 C 126.726 -1.80909 -3.08231 0
M  V30 1364 C 126.555 -3.32984 -3.02245 0
M  V30 1365 C 125.325 -4.02247 -3.05819 0
M  V30 1366 C 127.523 -4.29332 -2.83157 0
M  V30 1367 N 125.505 -5.41072 -2.90024 0
M  V30 1368 C 126.876 -5.55265 -2.75828 0
M  V30 1369 C 128.931 -4.19707 -2.67863 0
M  V30 1370 C 127.634 -6.72671 -2.54767 0
M  V30 1371 C 129.66 -5.36809 -2.48173 0
M  V30 1372 C 129.022 -6.61683 -2.41567 0
M  V30 1373 H 125.121 -0.463708 -0.629682 0
M  V30 1374 H 127.705 -1.58796 -1.12659 0
M  V30 1375 H 125.876 -1.36369 -3.63673 0
M  V30 1376 H 127.608 -1.59739 -3.71841 0
M  V30 1377 H 124.363 -3.53531 -3.15139 0
M  V30 1378 H 124.787 -6.13938 -2.85323 0
M  V30 1379 H 129.429 -3.23907 -2.71743 0
M  V30 1380 H 127.147 -7.68577 -2.49629 0
M  V30 1381 H 130.733 -5.31224 -2.37259 0
M  V30 1382 H 129.613 -7.50768 -2.26531 0
M  V30 1383 N 127.117 1.15442 -1.07289 0
M  V30 1384 C 128.065 2.22225 -0.686952 0
M  V30 1385 C 129.059 1.66688 0.30193 0
M  V30 1386 O 130.265 1.79236 0.165712 0
M  V30 1387 H 126.64 0.723783 -0.204064 0
M  V30 1388 H 128.611 2.52056 -1.5972 0
M  V30 1389 C 127.36 3.47556 -0.100149 0
M  V30 1390 H 126.683 3.90612 -0.852211 0
M  V30 1391 H 128.123 4.23794 0.132235 0
M  V30 1392 C 126.582 3.16337 1.159 0
M  V30 1393 O 127.112 3.33074 2.24555 0
M  V30 1394 N 125.318 2.70385 1.06491 0
M  V30 1395 H 124.865 2.56966 0.180668 0
M  V30 1396 H 124.823 2.49871 1.90819 0
M  V30 1397 N 128.595 0.856903 1.32268 0
M  V30 1398 C 129.843 0.460474 1.96784 0
M  V30 1399 C 130.164 -0.987701 1.68135 0
M  V30 1400 O 129.434 -1.69058 0.989765 0
M  V30 1401 H 128.014 0.167289 0.728027 0
M  V30 1402 H 130.676 1.09383 1.61312 0
M  V30 1403 H 129.772 0.60739 3.06133 0
M  V30 1404 N 130.073 -1.45103 0.615059 0
M  V30 1405 C 131.32 -2.02183 0.113179 0
M  V30 1406 C 131.648 -1.48249 -1.25906 0
M  V30 1407 O 130.903 -0.650265 -1.84581 0
M  V30 1408 C 131.202 -3.57386 0.0318797 0
M  V30 1409 C 130.868 -4.30505 1.34077 0
M  V30 1410 C 129.53 -4.50197 1.69929 0
M  V30 1411 C 131.882 -4.72238 2.20546 0
M  V30 1412 C 129.21 -5.08881 2.91988 0
M  V30 1413 C 131.562 -5.32272 3.41861 0
M  V30 1414 C 130.226 -5.50187 3.77956 0
M  V30 1415 H 129.496 -0.739842 0.0414151 0
M  V30 1416 H 132.143 -1.74073 0.798168 0
M  V30 1417 H 130.448 -3.84817 -0.736409 0
M  V30 1418 H 132.145 -3.99264 -0.372712 0
M  V30 1419 H 128.735 -4.15496 1.05173 0
M  V30 1420 H 132.919 -4.56751 1.94146 0
M  V30 1421 H 128.175 -5.20939 3.2005 0
M  V30 1422 H 132.349 -5.63563 4.09109 0
M  V30 1423 H 129.976 -5.95427 4.72622 0
M  V30 1424 N 131.551 -0.354651 -1.53558 0
M  V30 1425 C 132.481 0.489091 -2.2832 0
M  V30 1426 C 133.462 1.09324 -1.30316 0
M  V30 1427 O 134.647 1.11255 -1.59173 0
M  V30 1428 C 131.777 1.63456 -3.0643 0
M  V30 1429 C 130.731 1.1582 -4.12031 0
M  V30 1430 C 130.057 2.39305 -4.7816 0
M  V30 1431 C 131.357 0.250731 -5.21698 0
M  V30 1432 H 133.051 -0.134614 -2.99097 0
M  V30 1433 H 130.597 -0.0661826 -1.43848 0
M  V30 1434 H 132.55 2.23136 -3.57475 0
M  V30 1435 H 131.274 2.28533 -2.33325 0
M  V30 1436 H 129.933 0.584146 -3.61916 0
M  V30 1437 H 129.581 3.02814 -4.01637 0
M  V30 1438 H 129.281 2.08109 -5.49513 0
M  V30 1439 H 130.805 2.99691 -5.31994 0
M  V30 1440 H 132.219 0.754695 -5.68311 0
M  V30 1441 H 130.616 0.0301468 -6.00092 0
M  V30 1442 H 131.686 -0.710125 -4.79672 0
M  V30 1443 N 133.029 1.57378 -0.0835403 0
M  V30 1444 C 133.959 2.1641 0.87686 0
M  V30 1445 C 134.94 1.09429 1.30228 0
M  V30 1446 O 136.125 1.37516 1.37124 0
M  V30 1447 C 133.255 2.73517 2.14022 0
M  V30 1448 C 132.209 3.85769 1.85381 0
M  V30 1449 C 131.535 4.29529 3.18448 0
M  V30 1450 C 132.835 5.09486 1.14984 0
M  V30 1451 H 134.529 2.96914 0.385059 0
M  V30 1452 H 132.075 1.42823 0.18377 0
M  V30 1453 H 134.028 3.13463 2.81636 0
M  V30 1454 H 132.752 1.90252 2.65465 0
M  V30 1455 H 131.411 3.46345 1.20169 0
M  V30 1456 H 131.059 3.43169 3.67755 0
M  V30 1457 H 130.759 5.05204 3.00071 0
M  V30 1458 H 132.283 4.72099 3.8724 0
M  V30 1459 H 133.697 5.46674 1.72687 0
M  V30 1460 H 132.094 5.90515 1.06826 0
M  V30 1461 H 133.164 4.84724 0.130749 0
M  V30 1462 N 134.507 -0.190092 1.56449 0
M  V30 1463 C 135.753 -0.906472 1.82084 0
M  V30 1464 C 136.108 -1.80677 0.661335 0
M  V30 1465 O 135.401 -1.88501 -0.343237 0
M  V30 1466 C 135.595 -1.75382 3.1141 0
M  V30 1467 C 135.424 -0.937053 4.39829 0
M  V30 1468 C 134.194 -0.619507 5.01488 0
M  V30 1469 C 136.392 -0.2874 5.13496 0
M  V30 1470 N 134.374 0.215367 6.13522 0
M  V30 1471 C 135.745 0.409454 6.18646 0
M  V30 1472 C 137.8 -0.203639 4.97483 0
M  V30 1473 C 136.503 1.1821 7.0952 0
M  V30 1474 C 138.529 0.555622 5.88784 0
M  V30 1475 C 137.891 1.24091 6.93384 0
M  V30 1476 H 133.99 -0.310931 0.717528 0
M  V30 1477 H 136.574 -0.174821 1.93914 0
M  V30 1478 H 134.745 -2.45703 3.00806 0
M  V30 1479 H 136.477 -2.41006 3.25112 0
M  V30 1480 H 133.232 -0.945126 4.64074 0
M  V30 1481 H 133.656 0.622562 6.74131 0
M  V30 1482 H 138.298 -0.719099 4.1664 0
M  V30 1483 H 136.016 1.70897 7.89823 0
M  V30 1484 H 139.602 0.621854 5.78467 0
M  V30 1485 H 138.482 1.81901 7.62812 0
M  V30 1486 N 135.985 -1.50799 -0.457987 0
M  V30 1487 C 137.225 -1.64088 -1.21879 0
M  V30 1488 C 137.589 -0.339848 -1.88968 0
M  V30 1489 O 138.79 -0.348301 -2.66534 0
M  V30 1490 C 137.061 -2.79726 -2.2246 0
M  V30 1491 S 138.62 -3.13225 -3.07303 0
M  V30 1492 H 135.438 -0.578314 -0.41361 0
M  V30 1493 H 138.04 -1.88632 -0.513645 0
M  V30 1494 H 136.744 -3.72722 -1.71775 0
M  V30 1495 H 136.275 -2.57308 -2.97584 0
M  V30 1496 H 138.29 -2.58062 -4.23814 0
M  V30 1497 N 137.463 0.71206 -1.40597 0
M  V30 1498 C 138.393 1.83889 -1.43899 0
M  V30 1499 C 139.374 1.67442 -0.299504 0
M  V30 1500 O 140.559 1.87421 -0.508624 0
M  V30 1501 C 137.689 3.21877 -1.30431 0
M  V30 1502 C 136.643 3.53002 -2.42019 0
M  V30 1503 C 135.969 4.90172 -2.13626 0
M  V30 1504 C 137.269 3.53643 -3.84362 0
M  V30 1505 H 138.963 1.81383 -2.38203 0
M  V30 1506 H 136.509 0.871237 -1.14654 0
M  V30 1507 H 138.462 4.00404 -1.31357 0
M  V30 1508 H 137.186 3.24968 -0.326049 0
M  V30 1509 H 135.845 2.76818 -2.40349 0
M  V30 1510 H 135.493 4.89869 -1.14182 0
M  V30 1511 H 135.193 5.11962 -2.88389 0
M  V30 1512 H 136.717 5.71028 -2.1624 0
M  V30 1513 H 138.131 4.22203 -3.87837 0
M  V30 1514 H 136.528 3.86961 -4.58673 0
M  V30 1515 H 137.598 2.52954 -4.13693 0
M  V30 1516 N 138.941 1.26152 0.944643 0
M  V30 1517 C 140.169 1.14259 1.72489 0
M  V30 1518 C 140.584 -0.302555 1.8636 0
M  V30 1519 O 139.941 -1.20741 1.36849 0
M  V30 1520 C 139.992 1.80266 3.13347 0
M  V30 1521 O 139.713 3.19133 3.00143 0
M  V30 1522 C 141.214 1.74283 4.07603 0
M  V30 1523 H 138.434 0.398051 0.540181 0
M  V30 1524 H 140.978 1.66706 1.18446 0
M  V30 1525 H 139.133 1.31766 3.64303 0
M  V30 1526 H 139.547 3.51744 3.89071 0
M  V30 1527 H 141.021 2.25111 5.04013 0
M  V30 1528 H 141.498 0.708631 4.33446 0
M  V30 1529 H 142.104 2.22319 3.62567 0
M  V30 1530 N 140.419 -1.14872 1.07899 0
M  V30 1531 C 141.351 -2.19425 0.662231 0
M  V30 1532 C 142.364 -1.60231 -0.288079 0
M  V30 1533 O 143.553 -1.78336 -0.076534 0
M  V30 1534 C 140.653 -3.38867 -0.0470695 0
M  V30 1535 C 139.826 -4.27597 0.920831 0
M  V30 1536 C 138.885 -5.25616 0.247805 0
M  V30 1537 O 137.911 -5.62189 0.890599 0
M  V30 1538 N 139.113 -5.71746 -1.00435 0
M  V30 1539 H 141.878 -2.55797 1.56166 0
M  V30 1540 H 139.439 -1.30042 0.964404 0
M  V30 1541 H 141.431 -4.01497 -0.50813 0
M  V30 1542 H 140.001 -3.00864 -0.848523 0
M  V30 1543 H 139.221 -3.61982 1.56087 0
M  V30 1544 H 140.509 -4.83748 1.57688 0
M  V30 1545 H 139.907 -5.44153 -1.54642 0
M  V30 1546 H 138.464 -6.36389 -1.40899 0
M  V30 1547 N 141.898 -0.863906 -1.31812 0
M  V30 1548 C 143.123 -0.48527 -2.01643 0
M  V30 1549 C 143.548 0.913058 -1.64453 0
M  V30 1550 O 142.906 1.6014 -0.849985 0
M  V30 1551 C 142.954 -0.642625 -3.54828 0
M  V30 1552 O 142.058 0.320659 -4.11151 0
M  V30 1553 H 141.399 -0.193793 -0.635091 0
M  V30 1554 H 143.929 -1.16565 -1.68148 0
M  V30 1555 H 143.939 -0.533628 -4.04495 0
M  V30 1556 H 142.614 -1.66227 -3.81237 0
M  V30 1557 H 141.191 0.167126 -3.72525 0
M  V30 1558 N 143.376 1.44774 -0.622745 0
M  V30 1559 C 144.306 2.33382 0.0741861 0
M  V30 1560 C 145.287 1.47719 0.843387 0
M  V30 1561 O 146.472 1.76458 0.810934 0
M  V30 1562 C 143.602 3.30663 1.06204 0
M  V30 1563 C 142.556 4.26079 0.405037 0
M  V30 1564 C 141.882 5.13165 1.5022 0
M  V30 1565 C 143.182 5.1781 -0.683414 0
M  V30 1566 H 144.876 2.91905 -0.665713 0
M  V30 1567 H 142.422 1.40363 -0.321587 0
M  V30 1568 H 144.375 3.9153 1.55827 0
M  V30 1569 H 143.099 2.70331 1.83272 0
M  V30 1570 H 141.758 3.66532 -0.0704683 0
M  V30 1571 H 141.406 4.49191 2.26355 0
M  V30 1572 H 141.106 5.77812 1.06803 0
M  V30 1573 H 142.63 5.76902 2.00041 0
M  V30 1574 H 144.044 5.72661 -0.270631 0
M  V30 1575 H 142.441 5.91015 -1.04023 0
M  V30 1576 H 143.511 4.59326 -1.55395 0
M  V30 1577 N 144.854 0.36279 1.53368 0
M  V30 1578 C 146.101 -0.227776 2.01215 0
M  V30 1579 C 146.429 -1.49003 1.25014 0
M  V30 1580 O 145.684 -1.92876 0.331236 0
M  V30 1581 C 145.983 -0.568417 3.52851 0
M  V30 1582 C 145.649 0.59918 4.46901 0
M  V30 1583 C 144.311 0.919559 4.72332 0
M  V30 1584 C 146.663 1.38156 5.02556 0
M  V30 1585 C 143.991 2.02434 5.5067 0
M  V30 1586 C 146.343 2.47674 5.821 0
M  V30 1587 C 145.007 2.8025 6.05819 0
M  V30 1588 H 144.277 -0.083349 0.736297 0
M  V30 1589 H 146.924 0.494677 1.85001 0
M  V30 1590 H 145.229 -1.37185 3.66998 0
M  V30 1591 H 146.926 -1.03756 3.87344 0
M  V30 1592 H 143.516 0.339437 4.27254 0
M  V30 1593 H 147.7 1.14729 4.82857 0
M  V30 1594 H 142.956 2.28075 5.67267 0
M  V30 1595 H 147.13 3.08716 6.24234 0
M  V30 1596 H 144.757 3.65979 6.66306 0
M  V30 1597 N 146.332 -1.57332 0.0918853 0
M  V30 1598 C 147.262 -2.16872 -0.865371 0
M  V30 1599 C 148.243 -1.10118 -1.29646 0
M  V30 1600 O 149.428 -1.38242 -1.36392 0
M  V30 1601 C 146.558 -2.74649 -2.12569 0
M  V30 1602 C 145.512 -3.86747 -1.83333 0
M  V30 1603 C 144.838 -4.31212 -3.16166 0
M  V30 1604 C 146.138 -5.10089 -1.1228 0
M  V30 1605 H 147.832 -2.97114 -0.369307 0
M  V30 1606 H 145.378 -1.42918 -0.176194 0
M  V30 1607 H 147.331 -3.14952 -2.7997 0
M  V30 1608 H 146.055 -1.91657 -2.64452 0
M  V30 1609 H 144.714 -3.46978 -1.18331 0
M  V30 1610 H 144.362 -3.45115 -3.6593 0
M  V30 1611 H 144.062 -5.06788 -2.97388 0
M  V30 1612 H 145.586 -4.74146 -3.84731 0
M  V30 1613 H 147 -5.47582 -1.69785 0
M  V30 1614 H 145.397 -5.91073 -1.03693 0
M  V30 1615 H 146.467 -4.84786 -0.105041 0
M  V30 1616 N 147.81 0.181792 -1.56548 0
M  V30 1617 C 149.058 0.89832 -1.81038 0
M  V30 1618 C 149.379 1.83232 -0.667164 0
M  V30 1619 O 148.649 1.93372 0.313673 0
M  V30 1620 H 147.229 0.33471 -0.667816 0
M  V30 1621 H 149.891 0.184116 -1.94028 0
M  V30 1622 H 148.987 1.4815 -2.74696 0
M  V30 1623 N 149.288 1.51039 0.449983 0
M  V30 1624 C 150.251 1.70863 1.5277 0
M  V30 1625 C 151.251 0.578846 1.5002 0
M  V30 1626 O 152.441 0.846213 1.52266 0
M  V30 1627 C 149.573 1.75341 2.9235 0
M  V30 1628 H 150.766 2.67034 1.36502 0
M  V30 1629 H 148.319 1.40838 0.677812 0
M  V30 1630 H 149.054 0.809383 3.14037 0
M  V30 1631 H 148.839 2.57436 2.95752 0
M  V30 1632 H 150.329 1.92559 3.70555 0
M  V30 1633 N 150.766 -0.704594 1.40972 0
M  V30 1634 C 152.177 -1.28418 1.3552 0
M  V30 1635 C 152.528 -1.96171 0.0339434 0
M  V30 1636 O 151.653 -1.98231 -0.867944 0
M  V30 1637 C 152.248 -2.33528 2.45459 0
M  V30 1638 C 150.807 -2.87085 2.43433 0
M  V30 1639 C 149.954 -1.61007 2.2577 0
M  V30 1640 H 152.905 -0.499963 1.50619 0
M  V30 1641 H 152.926 -3.14619 2.13998 0
M  V30 1642 H 152.438 -1.84187 3.41609 0
M  V30 1643 H 150.539 -3.40626 1.51013 0
M  V30 1644 H 150.652 -3.3813 3.39419 0
M  V30 1645 H 149.016 -1.86482 1.73483 0
M  V30 1646 H 149.799 -1.13675 3.23933 0
M  V30 1647 N 152.244 -1.26651 -0.937939 0
M  V30 1648 C 153.491 -1.12387 -1.6845 0
M  V30 1649 C 153.819 0.332208 -1.91642 0
M  V30 1650 O 153.074 1.2602 -1.49725 0
M  V30 1651 C 153.373 -1.84168 -3.06295 0
M  V30 1652 C 153.039 -3.34056 -3.02849 0
M  V30 1653 C 151.701 -3.74942 -3.01616 0
M  V30 1654 C 154.053 -4.29741 -2.9491 0
M  V30 1655 C 151.381 -5.09894 -2.90215 0
M  V30 1656 C 153.733 -5.64738 -2.8505 0
M  V30 1657 C 152.397 -6.0493 -2.82162 0
M  V30 1658 H 151.667 -0.411252 -0.616403 0
M  V30 1659 H 154.314 -1.57134 -1.09459 0
M  V30 1660 H 152.619 -1.319 -3.6893 0
M  V30 1661 H 154.316 -1.70569 -3.62915 0
M  V30 1662 H 150.906 -3.01534 -3.0459 0
M  V30 1663 H 155.09 -3.99133 -2.94969 0
M  V30 1664 H 150.346 -5.40194 -2.86358 0
M  V30 1665 H 154.52 -6.38561 -2.77872 0
M  V30 1666 H 152.147 -7.09457 -2.73084 0
M  V30 1667 N 153.722 1.14298 -1.08507 0
M  V30 1668 C 155.133 1.66926 -0.836227 0
M  V30 1669 C 155.484 1.85576 0.63686 0
M  V30 1670 O 154.609 1.56767 1.49175 0
M  V30 1671 C 155.204 3.03219 -1.51142 0
M  V30 1672 C 153.763 3.52876 -1.30979 0
M  V30 1673 C 152.91 2.2833 -1.57356 0
M  V30 1674 H 155.861 0.983491 -1.24552 0
M  V30 1675 H 155.882 3.68726 -0.939211 0
M  V30 1676 H 155.394 2.89612 -2.58353 0
M  V30 1677 H 153.495 3.71703 -0.258429 0
M  V30 1678 H 153.608 4.33586 -2.03814 0
M  V30 1679 H 151.972 2.34454 -0.995164 0
M  V30 1680 H 152.755 2.17298 -2.65775 0
M  V30 1681 N 155.201 0.870884 1.31352 0
M  V30 1682 C 156.426 0.495957 2.01383 0
M  V30 1683 C 156.851 -0.904324 1.64935 0
M  V30 1684 O 156.209 -1.59687 0.858466 0
M  V30 1685 C 156.257 0.661433 3.54482 0
M  V30 1686 O 155.361 -0.298851 4.11316 0
M  V30 1687 H 154.702 0.197158 0.634054 0
M  V30 1688 H 157.232 1.17455 1.67527 0
M  V30 1689 H 157.242 0.555072 4.04207 0
M  V30 1690 H 155.917 1.68246 3.8035 0
M  V30 1691 H 154.494 -0.147368 3.72609 0
M  V30 1692 N 156.679 -1.44442 0.630414 0
M  V30 1693 C 157.925 -2.02894 0.143332 0
M  V30 1694 C 158.28 -1.48697 -1.22094 0
M  V30 1695 O 157.573 -0.661171 -1.79831 0
M  V30 1696 C 157.767 -3.57332 0.0697835 0
M  V30 1697 C 157.596 -4.26512 1.42539 0
M  V30 1698 C 156.366 -4.63516 2.01198 0
M  V30 1699 C 158.564 -4.57004 2.35907 0
M  V30 1700 N 156.546 -5.17661 3.30001 0
M  V30 1701 C 157.917 -5.12223 3.49324 0
M  V30 1702 C 159.972 -4.38955 2.34995 0
M  V30 1703 C 158.675 -5.51295 4.62024 0
M  V30 1704 C 160.701 -4.79075 3.46758 0
M  V30 1705 C 160.063 -5.34407 4.58899 0
M  V30 1706 H 156.162 -0.776041 0.0963523 0
M  V30 1707 H 158.746 -1.75945 0.833752 0
M  V30 1708 H 156.917 -3.83894 -0.589915 0
M  V30 1709 H 158.649 -4.02451 -0.42606 0
M  V30 1710 H 155.404 -4.47811 1.54151 0
M  V30 1711 H 155.828 -5.4921 3.95851 0
M  V30 1712 H 160.47 -3.95469 1.49545 0
M  V30 1713 H 158.188 -5.93736 5.48182 0
M  V30 1714 H 161.774 -4.66824 3.47227 0
M  V30 1715 H 160.654 -5.64878 5.4395 0
M  V30 1716 N 158.157 -0.370918 -1.53173 0
M  V30 1717 C 159.087 0.464847 -2.28826 0
M  V30 1718 C 160.068 1.07936 -1.31468 0
M  V30 1719 O 161.253 1.0956 -1.60344 0
M  V30 1720 C 158.383 1.60196 -3.08147 0
M  V30 1721 C 157.337 1.11443 -4.13237 0
M  V30 1722 C 156.663 2.3422 -4.80672 0
M  V30 1723 C 157.963 0.195384 -5.21934 0
M  V30 1724 H 159.657 -0.166329 -2.98938 0
M  V30 1725 H 157.203 -0.0814359 -1.4377 0
M  V30 1726 H 159.156 2.19332 -3.59822 0
M  V30 1727 H 157.88 2.26045 -2.35735 0
M  V30 1728 H 156.539 0.545727 -3.62515 0
M  V30 1729 H 156.187 2.98537 -4.04827 0
M  V30 1730 H 155.887 2.02269 -5.51689 0
M  V30 1731 H 157.411 2.94032 -5.35143 0
M  V30 1732 H 158.825 0.694375 -5.69079 0
M  V30 1733 H 157.222 -0.0335027 -6.00091 0
M  V30 1734 H 158.292 -0.760961 -4.78892 0
M  V30 1735 N 159.635 1.57281 -0.100228 0
M  V30 1736 C 160.585 2.10848 0.86759 0
M  V30 1737 C 161.569 1.02473 1.24049 0
M  V30 1738 O 162.761 1.28739 1.21471 0
M  V30 1739 C 159.89 2.69648 2.12474 0
M  V30 1740 C 158.976 3.85074 1.77704 0
M  V30 1741 N 159.367 4.92897 1.13518 0
M  V30 1742 C 157.665 3.94905 2.07282 0
M  V30 1743 C 158.366 5.73475 0.974735 0
M  V30 1744 N 157.342 5.22675 1.4937 0
M  V30 1745 H 161.144 2.91594 0.367471 0
M  V30 1746 H 158.658 1.62074 0.102829 0
M  V30 1747 H 160.655 3.06356 2.82757 0
M  V30 1748 H 159.315 1.90359 2.63047 0
M  V30 1749 H 160.326 5.11662 0.801381 0
M  V30 1750 H 157.003 3.26633 2.60033 0
M  V30 1751 H 158.393 6.70238 0.472364 0
M  V30 1752 N 161.113 -0.173488 1.56642 0
M  V30 1753 C 162.361 -0.888706 1.81512 0
M  V30 1754 C 162.682 -1.82875 0.676872 0
M  V30 1755 O 161.952 -1.93536 -0.303414 0
M  V30 1756 H 160.532 -0.331164 0.669582 0
M  V30 1757 H 163.194 -0.173823 1.94123 0
M  V30 1758 H 162.29 -1.46691 2.75478 0
M  V30 1759 N 162.591 -1.51276 -0.441967 0
M  V30 1760 C 163.521 -1.752 -1.54361 0
M  V30 1761 C 164.502 -0.601682 -1.59103 0
M  V30 1762 O 165.687 -0.843913 -1.74905 0
M  V30 1763 C 162.817 -1.87282 -2.92477 0
M  V30 1764 C 161.771 -3.02687 -3.02596 0
M  V30 1765 C 161.097 -2.99947 -4.42647 0
M  V30 1766 C 162.397 -4.4273 -2.77106 0
M  V30 1767 H 164.091 -2.67442 -1.34592 0
M  V30 1768 H 161.637 -1.28694 -0.646048 0
M  V30 1769 H 163.59 -2.02602 -3.695 0
M  V30 1770 H 162.314 -0.916844 -3.13467 0
M  V30 1771 H 160.973 -2.87065 -2.28012 0
M  V30 1772 H 160.621 -2.02136 -4.60597 0
M  V30 1773 H 160.321 -3.77439 -4.50348 0
M  V30 1774 H 161.845 -3.17354 -5.2165 0
M  V30 1775 H 163.259 -4.58727 -3.43864 0
M  V30 1776 H 161.656 -5.21893 -2.96222 0
M  V30 1777 H 162.726 -4.53087 -1.72744 0
M  V30 1778 N 164.069 0.697108 -1.41344 0
M  V30 1779 C 164.999 1.82353 -1.45841 0
M  V30 1780 C 165.98 1.67115 -0.317247 0
M  V30 1781 O 167.165 1.86871 -0.528474 0
M  V30 1782 C 164.295 3.20476 -1.33838 0
M  V30 1783 C 163.249 3.50415 -2.4575 0
M  V30 1784 C 162.575 4.87878 -2.18813 0
M  V30 1785 C 163.875 3.49546 -3.88091 0
M  V30 1786 H 165.569 1.78846 -2.40113 0
M  V30 1787 H 163.115 0.859028 -1.15571 0
M  V30 1788 H 165.068 3.98988 -1.35596 0
M  V30 1789 H 163.792 3.24604 -0.360498 0
M  V30 1790 H 162.451 2.74253 -2.43271 0
M  V30 1791 H 162.099 4.8863 -1.19371 0
M  V30 1792 H 161.799 5.08875 -2.93803 0
M  V30 1793 H 163.323 5.68702 -2.22284 0
M  V30 1794 H 164.737 4.18066 -3.92293 0
M  V30 1795 H 163.134 3.82075 -4.62751 0
M  V30 1796 H 164.204 2.48552 -4.16353 0
M  V30 1797 N 165.547 1.27147 0.931209 0
M  V30 1798 C 166.963 1.04475 1.20653 0
M  V30 1799 C 167.163 -0.223885 2.00252 0
M  V30 1800 O 166.219 -0.930332 2.34736 0
M  V30 1801 C 167.532 2.28209 1.95809 0
M  V30 1802 C 169.08 2.33211 2.08762 0
M  V30 1803 C 169.555 3.56665 2.87323 0
M  V30 1804 N 171.046 3.57201 2.94892 0
M  V30 1805 C 171.781 4.49395 3.56134 0
M  V30 1806 N 171.277 5.51889 4.18796 0
M  V30 1807 N 173.07 4.37026 3.53504 0
M  V30 1808 H 165.221 2.08612 0.399333 0
M  V30 1809 H 167.484 0.917312 0.239253 0
M  V30 1810 H 167.19 3.20538 1.44736 0
M  V30 1811 H 167.064 2.33247 2.96438 0
M  V30 1812 H 169.451 1.41391 2.59023 0
M  V30 1813 H 169.532 2.32178 1.07364 0
M  V30 1814 H 169.176 4.4882 2.37746 0
M  V30 1815 H 169.106 3.54948 3.88998 0
M  V30 1816 H 171.597 2.83074 2.50354 0
M  V30 1817 H 171.91 6.18409 4.63454 0
M  V30 1818 H 170.255 5.55735 4.17353 0
M  V30 1819 H 173.446 3.56166 3.03749 0
M  V30 1820 H 173.619 5.09067 4.00942 0
M  V30 1821 N 167.025 -1.13721 1.09112 0
M  V30 1822 C 168.274 -1.84275 0.82009 0
M  V30 1823 C 168.587 -1.84253 -0.656509 0
M  V30 1824 O 169.793 -2.50668 -1.04296 0
M  V30 1825 C 168.249 -3.30825 1.41714 0
M  V30 1826 C 167.857 -3.39244 2.92605 0
M  V30 1827 C 169.601 -4.06443 1.22492 0
M  V30 1828 C 167.508 -4.80047 3.45411 0
M  V30 1829 H 166.438 -0.690387 0.30312 0
M  V30 1830 H 169.089 -1.28146 1.31343 0
M  V30 1831 H 167.471 -3.86737 0.851498 0
M  V30 1832 H 168.645 -2.93344 3.55367 0
M  V30 1833 H 166.96 -2.77088 3.10823 0
M  V30 1834 H 169.557 -5.10387 1.59402 0
M  V30 1835 H 169.9 -4.15972 0.165299 0
M  V30 1836 H 170.433 -3.56852 1.75788 0
M  V30 1837 H 167.172 -4.75709 4.50978 0
M  V30 1838 H 166.692 -5.26455 2.87411 0
M  V30 1839 H 168.371 -5.48957 3.42425 0
M  V30 1840 N 168.503 -0.877838 -1.30888 0
M  V30 1841 C 169.433 -0.35534 -2.3078 0
M  V30 1842 C 170.414 0.557994 -1.60687 0
M  V30 1843 O 171.599 0.473355 -1.88343 0
M  V30 1844 C 168.729 0.437221 -3.44537 0
M  V30 1845 C 167.683 -0.383715 -4.26276 0
M  V30 1846 C 167.009 0.535014 -5.32017 0
M  V30 1847 C 168.309 -1.62201 -4.96476 0
M  V30 1848 H 170.003 -1.19007 -2.74732 0
M  V30 1849 H 167.549 -0.573698 -1.32078 0
M  V30 1850 H 169.502 0.813334 -4.13477 0
M  V30 1851 H 168.226 1.30553 -2.99372 0
M  V30 1852 H 166.885 -0.741874 -3.59015 0
M  V30 1853 H 166.533 1.40083 -4.831 0
M  V30 1854 H 166.233 -0.0104211 -5.87599 0
M  V30 1855 H 167.757 0.907799 -6.03814 0
M  V30 1856 H 169.171 -1.31689 -5.5797 0
M  V30 1857 H 167.568 -2.10711 -5.61891 0
M  V30 1858 H 168.638 -2.37044 -4.23011 0
M  V30 1859 N 169.982 1.44106 -0.638065 0
M  V30 1860 C 171.23 2.01579 -0.145043 0
M  V30 1861 C 171.551 1.50496 1.24 0
M  V30 1862 O 170.821 0.711374 1.82527 0
M  V30 1863 H 169.401 0.745282 -0.05063 0
M  V30 1864 H 172.063 1.76516 -0.826327 0
M  V30 1865 H 171.159 3.11877 -0.118039 0
M  V30 1866 N 171.46 0.379036 1.52974 0
M  V30 1867 C 172.423 -0.448865 2.24762 0
M  V30 1868 C 173.423 -0.998689 1.26027 0
M  V30 1869 O 174.613 -0.882313 1.50203 0
M  V30 1870 C 171.745 -1.62872 2.99476 0
M  V30 1871 H 172.938 0.179491 2.99362 0
M  V30 1872 H 170.491 0.13096 1.5575 0
M  V30 1873 H 171.226 -2.29479 2.29151 0
M  V30 1874 H 171.011 -1.24128 3.71934 0
M  V30 1875 H 172.501 -2.2151 3.5401 0
M  V30 1876 N 172.938 -1.57226 0.108567 0
M  V30 1877 C 173.901 -2.13602 -0.831082 0
M  V30 1878 C 174.901 -1.06841 -1.20173 0
M  V30 1879 O 176.091 -1.32666 -1.12895 0
M  V30 1880 C 173.223 -2.66769 -2.12243 0
M  V30 1881 H 174.416 -2.97951 -0.341317 0
M  V30 1882 H 171.969 -1.55667 -0.14057 0
M  V30 1883 H 172.704 -1.85977 -2.65675 0
M  V30 1884 H 172.489 -3.44839 -1.86625 0
M  V30 1885 H 173.979 -3.10332 -2.79435 0
M  V30 1886 N 174.416 0.165178 -1.56732 0
M  V30 1887 C 175.348 1.22911 -1.93457 0
M  V30 1888 C 176.361 1.40152 -0.828333 0
M  V30 1889 O 177.55 1.40046 -1.10677 0
M  V30 1890 C 174.65 2.59686 -2.17753 0
M  V30 1891 C 173.823 2.63663 -3.48999 0
M  V30 1892 C 172.882 3.81845 -3.62051 0
M  V30 1893 O 171.908 3.67559 -4.34613 0
M  V30 1894 N 173.11 4.98557 -2.97357 0
M  V30 1895 H 175.875 0.917118 -2.85323 0
M  V30 1896 H 173.436 0.354895 -1.57962 0
M  V30 1897 H 175.428 3.37225 -2.23743 0
M  V30 1898 H 173.998 2.83251 -1.32242 0
M  V30 1899 H 173.218 1.72173 -3.54612 0
M  V30 1900 H 174.506 2.63336 -4.35352 0
M  V30 1901 H 173.904 5.13065 -2.38287 0
M  V30 1902 H 172.461 5.73936 -3.08934 0
M  V30 1903 N 175.894 1.51508 0.433938 0
M  V30 1904 C 177.141 1.64345 1.18309 0
M  V30 1905 C 177.469 0.361315 1.91115 0
M  V30 1906 O 176.724 -0.654753 1.84422 0
M  V30 1907 C 177.023 2.79928 2.22205 0
M  V30 1908 C 176.689 4.19078 1.66387 0
M  V30 1909 C 175.351 4.56932 1.50887 0
M  V30 1910 C 177.703 5.05894 1.25381 0
M  V30 1911 C 175.031 5.79305 0.928608 0
M  V30 1912 C 177.383 6.2885 0.687823 0
M  V30 1913 C 176.047 6.65473 0.519755 0
M  V30 1914 H 175.317 0.601381 0.432923 0
M  V30 1915 H 177.964 1.85549 0.473676 0
M  V30 1916 H 176.269 2.52959 2.99197 0
M  V30 1917 H 177.966 2.87059 2.79997 0
M  V30 1918 H 174.556 3.89234 1.79428 0
M  V30 1919 H 178.74 4.77253 1.36175 0
M  V30 1920 H 173.996 6.06324 0.786186 0
M  V30 1921 H 178.17 6.95461 0.361581 0
M  V30 1922 H 175.797 7.6017 0.0679979 0
M  V30 1923 N 177.372 -0.689602 1.41712 0
M  V30 1924 C 178.304 -1.815 1.39966 0
M  V30 1925 C 179.317 -1.59995 0.300917 0
M  V30 1926 O 180.506 -1.69387 0.563039 0
M  V30 1927 C 177.606 -3.18364 1.16179 0
M  V30 1928 C 176.779 -3.66847 2.38206 0
M  V30 1929 C 175.838 -4.82398 2.10186 0
M  V30 1930 O 174.864 -4.93706 2.83272 0
M  V30 1931 N 176.066 -5.70064 1.0958 0
M  V30 1932 H 178.831 -1.83488 2.36965 0
M  V30 1933 H 176.392 -0.872149 1.36401 0
M  V30 1934 H 178.384 -3.93301 0.953756 0
M  V30 1935 H 176.954 -3.11365 0.27756 0
M  V30 1936 H 176.174 -2.82751 2.74673 0
M  V30 1937 H 177.462 -3.95978 3.19498 0
M  V30 1938 H 176.86 -5.63565 0.491019 0
M  V30 1939 H 175.417 -6.44874 0.947656 0
M  V30 1940 N 178.85 -1.27639 -0.924453 0
M  V30 1941 C 180.098 -1.13941 -1.66918 0
M  V30 1942 C 180.419 0.314589 -1.92446 0
M  V30 1943 O 179.689 1.21964 -1.53303 0
M  V30 1944 H 178.269 -0.418678 -0.618642 0
M  V30 1945 H 180.931 -1.60213 -1.10985 0
M  V30 1946 H 180.027 -1.67094 -2.63602 0
M  V30 1947 N 180.328 1.1314 -1.09713 0
M  V30 1948 C 181.576 1.84119 -0.833338 0
M  V30 1949 C 181.897 1.84097 0.642904 0
M  V30 1950 O 181.167 1.29881 1.46655 0
M  V30 1951 H 179.747 0.681766 -0.305293 0
M  V30 1952 H 182.409 1.37038 -1.38588 0
M  V30 1953 H 181.505 2.88543 -1.18951 0
M  V30 1954 N 181.806 0.884767 1.30421 0
M  V30 1955 C 182.716 0.355398 2.31892 0
M  V30 1956 C 183.732 -0.542261 1.65335 0
M  V30 1957 O 184.908 -0.435432 1.96637 0
M  V30 1958 C 181.973 -0.421661 3.44126 0
M  V30 1959 C 181.034 0.505727 4.26311 0
M  V30 1960 C 180.267 -0.234343 5.33185 0
M  V30 1961 O 180.49 -1.46045 5.51386 0
M  V30 1962 O 179.424 0.415443 6.00465 0
M  V30 1963 H 183.25 1.19685 2.79122 0
M  V30 1964 H 180.835 0.648596 1.34587 0
M  V30 1965 H 182.717 -0.861641 4.12497 0
M  V30 1966 H 181.392 -1.23942 2.99032 0
M  V30 1967 H 180.299 0.994513 3.60639 0
M  V30 1968 H 181.632 1.28948 4.75009 0
M  V30 1969 N 183.284 -1.43765 0.645699 0
M  V30 1970 C 184.214 -2.33471 -0.0370477 0
M  V30 1971 C 185.195 -1.49042 -0.819779 0
M  V30 1972 O 186.38 -1.77726 -0.782758 0
M  V30 1973 C 183.51 -3.32311 -1.0093 0
M  V30 1974 C 182.464 -4.2667 -0.337201 0
M  V30 1975 C 181.79 -5.1549 -1.42037 0
M  V30 1976 C 183.09 -5.16657 0.765706 0
M  V30 1977 H 184.784 -2.90809 0.712069 0
M  V30 1978 H 182.33 -1.39834 0.343876 0
M  V30 1979 H 184.283 -3.9396 -1.49578 0
M  V30 1980 H 183.007 -2.73213 -1.78948 0
M  V30 1981 H 181.666 -3.66374 0.128771 0
M  V30 1982 H 181.314 -4.52735 -2.1918 0
M  V30 1983 H 181.014 -5.79438 -0.975966 0
M  V30 1984 H 182.538 -5.80012 -1.90838 0
M  V30 1985 H 183.952 -5.72158 0.361702 0
M  V30 1986 H 182.349 -5.89286 1.13413 0
M  V30 1987 H 183.419 -4.56796 1.62683 0
M  V30 1988 N 184.763 -0.387143 -1.52771 0
M  V30 1989 C 185.726 0.436939 -2.24997 0
M  V30 1990 C 186.726 0.991991 -1.26555 0
M  V30 1991 O 187.916 0.874335 -1.50669 0
M  V30 1992 C 185.048 1.61281 -3.00335 0
M  V30 1993 H 186.241 -0.195365 -2.99263 0
M  V30 1994 H 183.794 -0.139218 -1.55679 0
M  V30 1995 H 184.529 2.2826 -2.30364 0
M  V30 1996 H 184.314 1.22154 -3.72587 0
M  V30 1997 H 185.804 2.19629 -3.5518 0
M  V30 1998 N 186.241 1.57166 -0.116904 0
M  V30 1999 C 187.171 2.18222 0.830759 0
M  V30 2000 C 188.152 1.12167 1.27877 0
M  V30 2001 O 189.337 1.40394 1.34176 0
M  V30 2002 C 186.467 2.77996 2.08172 0
M  V30 2003 C 185.421 3.89614 1.77157 0
M  V30 2004 C 184.747 4.36187 3.09265 0
M  V30 2005 C 186.047 5.1181 1.04151 0
M  V30 2006 H 187.741 2.97664 0.321992 0
M  V30 2007 H 185.287 1.4318 0.153434 0
M  V30 2008 H 187.24 3.19366 2.74924 0
M  V30 2009 H 185.964 1.9584 2.6137 0
M  V30 2010 H 184.623 3.48816 1.12796 0
M  V30 2011 H 184.271 3.50893 3.60393 0
M  V30 2012 H 183.971 5.11455 2.89288 0
M  V30 2013 H 185.495 4.80207 3.77139 0
M  V30 2014 H 186.909 5.50214 1.61052 0
M  V30 2015 H 185.306 5.92648 0.942762 0
M  V30 2016 H 186.376 4.84892 0.0279022 0
M  V30 2017 N 187.719 -0.156864 1.56817 0
M  V30 2018 C 188.944 -0.890331 1.87318 0
M  V30 2019 C 189.369 -1.74394 0.704855 0
M  V30 2020 O 188.727 -1.77972 -0.345786 0
M  V30 2021 C 188.775 -1.73102 3.16336 0
M  V30 2022 O 187.879 -2.83422 2.99576 0
M  V30 2023 H 187.22 -0.24857 0.615718 0
M  V30 2024 H 189.75 -0.150649 2.04045 0
M  V30 2025 H 189.76 -2.12803 3.48107 0
M  V30 2026 H 188.435 -1.10412 4.00976 0
M  V30 2027 H 187.012 -2.47199 2.7919 0
M  V30 2028 N 189.197 -1.51736 -0.425897 0
M  V30 2029 C 190.16 -1.73271 -1.50032 0
M  V30 2030 C 191.16 -0.602639 -1.4908 0
M  V30 2031 O 192.35 -0.87033 -1.509 0
M  V30 2032 C 189.482 -1.79969 -2.89523 0
M  V30 2033 H 190.675 -2.69172 -1.32237 0
M  V30 2034 H 188.228 -1.41899 -0.65532 0
M  V30 2035 H 188.963 -0.859241 -3.1271 0
M  V30 2036 H 188.748 -2.62109 -2.91619 0
M  V30 2037 H 190.238 -1.9843 -3.67444 0
M  V30 2038 N 190.675 0.682077 -1.42076 0
M  V30 2039 C 191.922 1.44215 -1.42156 0
M  V30 2040 C 192.25 1.94468 -0.0354186 0
M  V30 2041 O 191.505 1.70816 0.955002 0
M  V30 2042 C 191.804 2.66036 -2.38662 0
M  V30 2043 C 191.47 2.34366 -3.85206 0
M  V30 2044 C 190.132 2.25439 -4.25124 0
M  V30 2045 C 192.484 2.08513 -4.77673 0
M  V30 2046 C 189.812 1.88775 -5.55501 0
M  V30 2047 C 192.164 1.73354 -6.08384 0
M  V30 2048 C 190.828 1.62933 -6.47309 0
M  V30 2049 H 190.098 0.527718 -0.520187 0
M  V30 2050 H 192.745 0.778387 -1.74967 0
M  V30 2051 H 191.05 3.3741 -1.99152 0
M  V30 2052 H 192.747 3.24205 -2.35991 0
M  V30 2053 H 189.337 2.42213 -3.53597 0
M  V30 2054 H 193.521 2.14346 -4.47626 0
M  V30 2055 H 188.777 1.7927 -5.84527 0
M  V30 2056 H 192.951 1.52373 -6.79526 0
M  V30 2057 H 190.578 1.34292 -7.48244 0
M  V30 2058 N 192.153 1.28127 0.917671 0
M  V30 2059 C 193.083 1.14248 2.03641 0
M  V30 2060 C 194.064 0.0412748 1.7005 0
M  V30 2061 O 195.249 0.217566 1.92977 0
M  V30 2062 C 192.379 0.799431 3.37974 0
M  V30 2063 C 191.333 1.85497 3.85713 0
M  V30 2064 C 190.659 1.36565 5.16966 0
M  V30 2065 C 191.959 3.26085 4.08002 0
M  V30 2066 H 193.653 2.07835 2.15511 0
M  V30 2067 H 191.199 1.00064 1.03553 0
M  V30 2068 H 193.152 0.689114 4.15727 0
M  V30 2069 H 191.876 -0.172145 3.26146 0
M  V30 2070 H 190.535 1.95437 3.10161 0
M  V30 2071 H 190.183 0.383253 5.01538 0
M  V30 2072 H 189.883 2.07143 5.49878 0
M  V30 2073 H 191.407 1.26848 5.97279 0
M  V30 2074 H 192.821 3.19089 4.76293 0
M  V30 2075 H 191.218 3.94462 4.52238 0
M  V30 2076 H 192.288 3.70394 3.12948 0
M  V30 2077 N 193.631 -1.12557 1.10312 0
M  V30 2078 C 194.877 -1.84311 0.846011 0
M  V30 2079 C 195.21 -1.83805 -0.626859 0
M  V30 2080 O 194.485 -1.28268 -1.46211 0
M  V30 2081 C 194.768 -3.32048 1.39341 0
M  V30 2082 C 194.621 -3.41016 2.93305 0
M  V30 2083 C 195.94 -4.27764 1.03468 0
M  V30 2084 H 193.059 -0.669192 0.30879 0
M  V30 2085 H 195.701 -1.32057 1.36605 0
M  V30 2086 H 193.851 -3.76678 0.951087 0
M  V30 2087 H 195.523 -3.05031 3.46055 0
M  V30 2088 H 193.766 -2.81603 3.29973 0
M  V30 2089 H 194.437 -4.44948 3.26689 0
M  V30 2090 H 196.913 -3.91253 1.41633 0
M  V30 2091 H 195.789 -5.29549 1.44463 0
M  V30 2092 H 196.05 -4.42064 -0.0560404 0
M  V30 2093 N 195.109 -0.891671 -1.2995 0
M  V30 2094 C 196.039 -0.379797 -2.30391 0
M  V30 2095 C 197.02 0.540919 -1.6127 0
M  V30 2096 O 198.205 0.453352 -1.88834 0
M  V30 2097 C 195.335 0.400654 -3.44981 0
M  V30 2098 C 194.289 -0.428905 -4.25846 0
M  V30 2099 C 193.615 0.478557 -5.32554 0
M  V30 2100 C 194.915 -1.67458 -4.94727 0
M  V30 2101 H 196.609 -1.21914 -2.73454 0
M  V30 2102 H 194.155 -0.587675 -1.31462 0
M  V30 2103 H 196.108 0.769434 -4.14316 0
M  V30 2104 H 194.832 1.27371 -3.0074 0
M  V30 2105 H 193.491 -0.779911 -3.58208 0
M  V30 2106 H 193.139 1.34951 -4.84559 0
M  V30 2107 H 192.839 -0.0727433 -5.87555 0
M  V30 2108 H 194.363 0.843705 -6.04743 0
M  V30 2109 H 195.777 -1.376 -5.56542 0
M  V30 2110 H 194.174 -2.16659 -5.59624 0
M  V30 2111 H 195.244 -2.41518 -4.20473 0
M  V30 2112 N 196.587 1.43421 -0.653314 0
M  V30 2113 C 197.833 2.02111 -0.166992 0
M  V30 2114 C 198.166 1.51423 1.21592 0
M  V30 2115 O 197.441 0.707389 1.8118 0
M  V30 2116 C 197.724 3.5966 -0.177948 0
M  V30 2117 C 197.577 4.20579 -1.59478 0
M  V30 2118 C 198.896 4.37413 0.4856 0
M  V30 2119 H 196.015 0.734374 -0.0621557 0
M  V30 2120 H 198.657 1.70717 -0.834016 0
M  V30 2121 H 196.807 3.86537 0.390032 0
M  V30 2122 H 198.479 4.04732 -2.21336 0
M  V30 2123 H 196.722 3.77226 -2.14204 0
M  V30 2124 H 197.393 5.29665 -1.5543 0
M  V30 2125 H 199.869 4.161 0.00234528 0
M  V30 2126 H 198.745 5.47075 0.447207 0
M  V30 2127 H 199.006 4.13672 1.55974 0
M  V30 2128 N 198.065 0.39524 1.52563 0
M  V30 2129 C 199.312 -0.185044 2.01653 0
M  V30 2130 C 199.64 -1.46317 1.28146 0
M  V30 2131 O 198.895 -1.9213 0.372074 0
M  V30 2132 C 199.194 -0.493444 3.53977 0
M  V30 2133 C 198.86 0.69384 4.4553 0
M  V30 2134 C 197.522 1.01954 4.70275 0
M  V30 2135 C 199.874 1.48785 4.99512 0
M  V30 2136 C 197.202 2.14069 5.46252 0
M  V30 2137 C 199.554 2.59965 5.76716 0
M  V30 2138 C 198.218 2.93037 5.99738 0
M  V30 2139 H 197.488 -0.0677123 0.7379 0
M  V30 2140 H 200.135 0.533807 1.8391 0
M  V30 2141 H 198.44 -1.29369 3.69825 0
M  V30 2142 H 200.137 -0.955163 3.89458 0
M  V30 2143 H 196.727 0.429987 4.26438 0
M  V30 2144 H 200.911 1.24946 4.80315 0
M  V30 2145 H 196.167 2.40056 5.62302 0
M  V30 2146 H 200.341 3.21887 6.17545 0
M  V30 2147 H 197.968 3.8003 6.58393 0
M  V30 2148 N 199.544 -1.57102 0.125237 0
M  V30 2149 C 200.474 -2.18659 -0.819174 0
M  V30 2150 C 201.455 -1.12843 -1.27281 0
M  V30 2151 O 202.64 -1.41104 -1.33429 0
M  V30 2152 C 199.77 -2.79096 -2.06695 0
M  V30 2153 C 198.724 -3.90548 -1.75088 0
M  V30 2154 C 198.05 -4.37821 -3.06948 0
M  V30 2155 C 199.35 -5.12356 -1.01435 0
M  V30 2156 H 201.044 -2.9783 -0.306202 0
M  V30 2157 H 198.59 -1.4326 -0.145839 0
M  V30 2158 H 200.543 -3.2082 -2.73226 0
M  V30 2159 H 199.267 -1.97223 -2.60328 0
M  V30 2160 H 197.926 -3.49409 -1.10944 0
M  V30 2161 H 197.574 -3.52799 -3.58527 0
M  V30 2162 H 197.274 -5.12982 -2.86571 0
M  V30 2163 H 198.798 -4.822 -3.74587 0
M  V30 2164 H 200.212 -5.5106 -1.58132 0
M  V30 2165 H 198.609 -5.9314 -0.911319 0
M  V30 2166 H 199.679 -4.849 -0.00218681 0
M  V30 2167 N 201.022 0.148545 -1.56898 0
M  V30 2168 C 202.268 0.857877 -1.84424 0
M  V30 2169 C 202.623 1.7886 -0.709006 0
M  V30 2170 O 201.916 1.89344 0.293139 0
M  V30 2171 C 202.11 1.67064 -3.1595 0
M  V30 2172 C 201.939 0.82011 -4.42159 0
M  V30 2173 C 200.709 0.486328 -5.02954 0
M  V30 2174 C 202.907 0.151155 -5.14078 0
M  V30 2175 N 200.889 -0.377956 -6.12735 0
M  V30 2176 C 202.26 -0.573333 -6.17343 0
M  V30 2177 C 204.315 0.0716685 -4.97848 0
M  V30 2178 C 203.018 -1.3698 -7.06137 0
M  V30 2179 C 205.044 -0.711532 -5.87104 0
M  V30 2180 C 204.406 -1.42431 -6.8985 0
M  V30 2181 H 200.505 0.291798 -0.725519 0
M  V30 2182 H 203.089 0.123347 -1.94309 0
M  V30 2183 H 201.26 2.37642 -3.07215 0
M  V30 2184 H 202.992 2.32302 -3.31388 0
M  V30 2185 H 199.747 0.821753 -4.66416 0
M  V30 2186 H 200.171 -0.801077 -6.72244 0
M  V30 2187 H 204.813 0.608381 -4.184 0
M  V30 2188 H 202.531 -1.91778 -7.85014 0
M  V30 2189 H 206.117 -0.775005 -5.76615 0
M  V30 2190 H 204.997 -2.02061 -7.57721 0
M  V30 2191 N 202.5 1.5196 0.417844 0
M  V30 2192 C 203.43 1.77634 1.51554 0
M  V30 2193 C 204.411 0.626918 1.58126 0
M  V30 2194 O 205.596 0.871632 1.7354 0
M  V30 2195 C 202.726 1.91911 2.8946 0
M  V30 2196 C 201.68 3.07463 2.97743 0
M  V30 2197 C 201.006 3.06951 4.37819 0
M  V30 2198 C 202.306 4.47082 2.70027 0
M  V30 2199 H 204 2.6955 1.3032 0
M  V30 2200 H 201.546 1.29706 0.625492 0
M  V30 2201 H 203.499 2.08455 3.6623 0
M  V30 2202 H 202.223 0.966598 3.11969 0
M  V30 2203 H 200.882 2.90656 2.23416 0
M  V30 2204 H 200.53 2.09438 4.57323 0
M  V30 2205 H 200.23 3.84556 4.44286 0
M  V30 2206 H 201.754 3.25613 5.16535 0
M  V30 2207 H 203.168 4.6414 3.36522 0
M  V30 2208 H 201.565 5.2654 2.87881 0
M  V30 2209 H 202.635 4.55777 1.65514 0
M  V30 2210 N 203.978 -0.674533 1.42435 0
M  V30 2211 C 204.928 -1.7807 1.4239 0
M  V30 2212 C 205.912 -1.58169 0.295202 0
M  V30 2213 O 207.104 -1.68643 0.537449 0
M  V30 2214 C 204.233 -3.16532 1.32901 0
M  V30 2215 C 203.319 -3.42055 2.50717 0
M  V30 2216 N 203.71 -3.38162 3.76139 0
M  V30 2217 C 202.008 -3.72692 2.44983 0
M  V30 2218 C 202.709 -3.63177 4.54398 0
M  V30 2219 N 201.685 -3.83954 3.84812 0
M  V30 2220 H 205.487 -1.73454 2.37257 0
M  V30 2221 H 203.001 -0.875381 1.36788 0
M  V30 2222 H 204.998 -3.958 1.30951 0
M  V30 2223 H 203.658 -3.22345 0.390363 0
M  V30 2224 H 204.669 -3.18057 4.0873 0
M  V30 2225 H 201.346 -3.85749 1.59699 0
M  V30 2226 H 202.736 -3.66125 5.63384 0
M  V30 2227 N 205.456 -1.28612 -0.910864 0
M  V30 2228 C 206.681 -1.1891 -1.69927 0
M  V30 2229 C 207.106 0.248372 -1.86453 0
M  V30 2230 O 206.464 1.17961 -1.37676 0
M  V30 2231 C 206.512 -1.89578 -3.06745 0
M  V30 2232 O 205.616 -1.20521 -3.94396 0
M  V30 2233 H 204.957 -0.412632 -0.520222 0
M  V30 2234 H 207.487 -1.69985 -1.1387 0
M  V30 2235 H 207.497 -1.97597 -3.56958 0
M  V30 2236 H 206.172 -2.94136 -2.94035 0
M  V30 2237 H 204.749 -1.20684 -3.52831 0
M  V30 2238 N 206.934 1.1197 -1.10907 0
M  V30 2239 C 207.864 2.19928 -0.784473 0
M  V30 2240 C 208.845 1.6833 0.244726 0
M  V30 2241 O 210.03 1.93892 0.109418 0
M  V30 2242 C 207.16 3.46597 -0.220827 0
M  V30 2243 C 206.114 4.11376 -1.18127 0
M  V30 2244 C 205.44 5.32554 -0.478594 0
M  V30 2245 C 206.74 4.56945 -2.52979 0
M  V30 2246 H 208.434 2.47337 -1.68715 0
M  V30 2247 H 205.98 1.18879 -0.812642 0
M  V30 2248 H 207.933 4.21396 0.0184278 0
M  V30 2249 H 206.657 3.1863 0.717113 0
M  V30 2250 H 205.316 3.38564 -1.40606 0
M  V30 2251 H 204.964 5.00856 0.463976 0
M  V30 2252 H 204.664 5.76844 -1.11912 0
M  V30 2253 H 206.188 6.10096 -0.248 0
M  V30 2254 H 207.602 5.23093 -2.3462 0
M  V30 2255 H 205.999 5.1203 -3.12962 0
M  V30 2256 H 207.069 3.70676 -3.12614 0
M  V30 2257 N 208.412 0.89855 1.29475 0
M  V30 2258 C 209.828 0.594483 1.48115 0
M  V30 2259 C 210.028 -0.86431 1.82022 0
M  V30 2260 O 209.084 -1.64457 1.91599 0
M  V30 2261 C 210.397 1.51932 2.59494 0
M  V30 2262 C 211.945 1.5244 2.7337 0
M  V30 2263 C 212.42 2.43548 3.87877 0
M  V30 2264 N 213.911 2.41589 3.95208 0
M  V30 2265 C 214.646 3.08789 4.83153 0
M  V30 2266 N 214.142 3.85265 5.75798 0
M  V30 2267 N 215.935 2.97952 4.76635 0
M  V30 2268 H 208.086 1.84207 1.05742 0
M  V30 2269 H 210.349 0.789251 0.525154 0
M  V30 2270 H 210.055 2.55865 2.41301 0
M  V30 2271 H 209.929 1.23899 3.56271 0
M  V30 2272 H 212.316 0.492518 2.90961 0
M  V30 2273 H 212.397 1.8451 1.77172 0
M  V30 2274 H 212.041 3.46829 3.71041 0
M  V30 2275 H 211.971 2.08788 4.83441 0
M  V30 2276 H 214.462 1.86025 3.28943 0
M  V30 2277 H 214.775 4.33598 6.39697 0
M  V30 2278 H 213.12 3.89371 5.75687 0
M  V30 2279 H 216.311 2.37723 4.03244 0
M  V30 2280 H 216.484 3.50599 5.44962 0
M  V30 2281 N 209.89 -1.43072 0.660911 0
M  V30 2282 C 211.306 -1.56169 0.329173 0
M  V30 2283 C 211.506 -1.64317 -1.16629 0
M  V30 2284 O 210.562 -1.60245 -1.95135 0
M  V30 2285 C 211.875 -2.81873 1.04729 0
M  V30 2286 C 213.423 -2.95627 1.02828 0
M  V30 2287 C 213.898 -4.24174 1.72744 0
M  V30 2288 N 215.389 -4.31055 1.69545 0
M  V30 2289 C 216.124 -5.29304 2.20511 0
M  V30 2290 N 215.62 -6.33786 2.79799 0
M  V30 2291 N 217.413 -5.21008 2.10966 0
M  V30 2292 H 209.564 -1.36027 1.63127 0
M  V30 2293 H 211.827 -0.653823 0.686454 0
M  V30 2294 H 211.533 -2.81942 2.10242 0
M  V30 2295 H 211.407 -3.72338 0.603702 0
M  V30 2296 H 213.794 -2.95094 -0.0184742 0
M  V30 2297 H 213.875 -2.06431 1.51063 0
M  V30 2298 H 213.519 -4.25467 2.7738 0
M  V30 2299 H 213.449 -5.1228 1.2197 0
M  V30 2300 H 215.94 -3.56174 1.26288 0
M  V30 2301 H 216.253 -7.05086 3.16344 0
M  V30 2302 H 214.598 -6.34387 2.83863 0
M  V30 2303 H 217.789 -4.38301 1.64347 0
M  V30 2304 H 217.962 -5.97416 2.50993 0
M  V30 2305 N 211.368 -0.403325 -1.52352 0
M  V30 2306 C 212.298 0.416205 -2.29761 0
M  V30 2307 C 213.279 1.05123 -1.33728 0
M  V30 2308 O 214.464 1.06134 -1.62632 0
M  V30 2309 C 211.594 1.53624 -3.11475 0
M  V30 2310 C 210.548 1.02653 -4.15507 0
M  V30 2311 C 209.874 2.23971 -4.85532 0
M  V30 2312 C 211.174 0.08463 -5.22231 0
M  V30 2313 H 212.868 -0.229701 -2.98518 0
M  V30 2314 H 210.414 -0.111913 -1.43564 0
M  V30 2315 H 212.367 2.1165 -3.64393 0
M  V30 2316 H 211.091 2.20994 -2.40477 0
M  V30 2317 H 209.75 0.46871 -3.63591 0
M  V30 2318 H 209.398 2.89883 -4.11068 0
M  V30 2319 H 209.098 1.90521 -5.55856 0
M  V30 2320 H 210.622 2.82614 -5.41259 0
M  V30 2321 H 212.036 0.573509 -5.70424 0
M  V30 2322 H 210.433 -0.160783 -5.99885 0
M  V30 2323 H 211.503 -0.86237 -4.7717 0
M  V30 2324 N 212.846 1.57033 -0.133567 0
M  V30 2325 C 214.093 1.95686 0.520877 0
M  V30 2326 C 214.421 1.0177 1.6575 0
M  V30 2327 O 213.676 0.0443195 1.9565 0
M  V30 2328 C 213.975 3.40674 1.08057 0
M  V30 2329 C 213.641 4.50855 0.0637899 0
M  V30 2330 C 212.303 4.80716 -0.215757 0
M  V30 2331 C 214.655 5.17398 -0.62835 0
M  V30 2332 C 211.983 5.74433 -1.19348 0
M  V30 2333 C 214.335 6.12167 -1.5948 0
M  V30 2334 C 212.999 6.40414 -1.88218 0
M  V30 2335 H 212.269 0.716067 0.190602 0
M  V30 2336 H 214.916 1.9026 -0.217556 0
M  V30 2337 H 213.221 3.42865 1.89606 0
M  V30 2338 H 214.918 3.67902 1.59529 0
M  V30 2339 H 211.508 4.27605 0.291855 0
M  V30 2340 H 215.692 4.94472 -0.425562 0
M  V30 2341 H 210.948 5.94616 -1.42272 0
M  V30 2342 H 215.122 6.6281 -2.13671 0
M  V30 2343 H 212.749 7.12838 -2.64133 0
M  V30 2344 N 214.325 -0.140222 1.56975 0
M  V30 2345 C 215.235 -1.19223 2.02047 0
M  V30 2346 C 216.251 -1.46612 0.937062 0
M  V30 2347 O 217.427 -1.58148 1.24704 0
M  V30 2348 C 214.492 -2.50414 2.39778 0
M  V30 2349 C 213.553 -2.30612 3.621 0
M  V30 2350 C 212.786 -3.55547 3.98023 0
M  V30 2351 O 213.009 -4.62004 3.34528 0
M  V30 2352 O 211.943 -3.47808 4.91237 0
M  V30 2353 H 215.769 -0.839559 2.91865 0
M  V30 2354 H 213.354 -0.349453 1.45256 0
M  V30 2355 H 215.236 -3.27747 2.64877 0
M  V30 2356 H 213.911 -2.85198 1.53114 0
M  V30 2357 H 212.818 -1.51207 3.4218 0
M  V30 2358 H 214.151 -2.00741 4.49404 0
M  V30 2359 N 215.803 -1.52179 -0.40978 0
M  V30 2360 C 217.043 -1.67882 -1.16597 0
M  V30 2361 C 217.407 -0.399795 -1.87791 0
M  V30 2362 O 218.608 -0.43292 -2.65291 0
M  V30 2363 C 216.879 -2.86662 -2.13448 0
M  V30 2364 S 218.438 -3.22843 -2.97183 0
M  V30 2365 H 215.256 -0.59118 -0.395002 0
M  V30 2366 H 217.858 -1.9017 -0.453373 0
M  V30 2367 H 216.562 -3.77998 -1.59831 0
M  V30 2368 H 216.093 -2.66645 -2.89247 0
M  V30 2369 H 218.108 -2.71415 -4.15389 0
M  V30 2370 N 217.281 0.66697 -1.42791 0
M  V30 2371 C 218.211 1.79218 -1.49677 0
M  V30 2372 C 219.192 1.66405 -0.352623 0
M  V30 2373 O 220.377 1.85708 -0.567993 0
M  V30 2374 C 217.507 3.17565 -1.40605 0
M  V30 2375 C 216.461 3.45124 -2.53127 0
M  V30 2376 C 215.787 4.83127 -2.29112 0
M  V30 2377 C 217.087 3.41236 -3.95418 0
M  V30 2378 H 218.781 1.73713 -2.43853 0
M  V30 2379 H 216.327 0.83432 -1.17367 0
M  V30 2380 H 218.28 3.96022 -1.44029 0
M  V30 2381 H 217.004 3.23767 -0.429271 0
M  V30 2382 H 215.663 2.69031 -2.49034 0
M  V30 2383 H 215.311 4.85988 -1.29709 0
M  V30 2384 H 215.011 5.02528 -3.04531 0
M  V30 2385 H 216.535 5.63859 -2.34297 0
M  V30 2386 H 217.949 4.09651 -4.01073 0
M  V30 2387 H 216.346 3.72173 -4.70752 0
M  V30 2388 H 217.416 2.39665 -4.21532 0
M  V30 2389 N 218.759 1.29093 0.90403 0
M  V30 2390 C 219.989 1.19516 1.68522 0
M  V30 2391 C 220.397 -0.24738 1.87576 0
M  V30 2392 O 219.74 -1.17798 1.40959 0
M  V30 2393 C 219.802 1.83249 3.0929 0
M  V30 2394 C 219.466 3.32531 3.13484 0
M  V30 2395 C 220.463 4.28821 2.93953 0
M  V30 2396 C 218.148 3.73656 3.35688 0
M  V30 2397 C 220.142 5.64212 2.96553 0
M  V30 2398 C 217.829 5.0917 3.37919 0
M  V30 2399 C 218.827 6.04258 3.18373 0
M  V30 2400 O 218.515 7.37298 3.20385 0
M  V30 2401 H 218.247 0.415467 0.533257 0
M  V30 2402 H 220.801 1.70912 1.13922 0
M  V30 2403 H 219.031 1.26358 3.65473 0
M  V30 2404 H 220.72 1.68054 3.69476 0
M  V30 2405 H 221.486 3.98382 2.76616 0
M  V30 2406 H 217.365 3.00101 3.49943 0
M  V30 2407 H 220.909 6.38407 2.81216 0
M  V30 2408 H 216.806 5.39256 3.54787 0
M  V30 2409 H 217.574 7.46048 3.36681 0
M  V30 2410 N 220.237 -1.11381 1.11499 0
M  V30 2411 C 221.483 -1.83403 0.865512 0
M  V30 2412 C 221.816 -1.84459 -0.607329 0
M  V30 2413 O 221.091 -1.29811 -1.44842 0
M  V30 2414 C 221.374 -3.30552 1.42855 0
M  V30 2415 C 221.227 -3.37886 2.96906 0
M  V30 2416 C 222.546 -4.26643 1.08 0
M  V30 2417 H 219.665 -0.665879 0.31587 0
M  V30 2418 H 222.307 -1.30601 1.37998 0
M  V30 2419 H 220.457 -3.75648 0.990985 0
M  V30 2420 H 222.129 -3.01343 3.49271 0
M  V30 2421 H 220.372 -2.78088 3.32941 0
M  V30 2422 H 221.043 -4.41458 3.31389 0
M  V30 2423 H 223.519 -3.89729 1.45775 0
M  V30 2424 H 222.395 -5.27986 1.50072 0
M  V30 2425 H 222.656 -4.42099 -0.00915037 0
M  V30 2426 N 221.715 -0.905404 -1.28997 0
M  V30 2427 C 222.94 -0.549175 -1.99997 0
M  V30 2428 C 223.365 0.860276 -1.67275 0
M  V30 2429 O 222.723 1.57355 -0.900502 0
M  V30 2430 C 222.771 -0.755185 -3.52604 0
M  V30 2431 O 221.875 0.189692 -4.11964 0
M  V30 2432 H 221.216 -0.213899 -0.628604 0
M  V30 2433 H 223.746 -1.21856 -1.64354 0
M  V30 2434 H 223.756 -0.662045 -4.02593 0
M  V30 2435 H 222.431 -1.78271 -3.75755 0
M  V30 2436 H 221.008 0.0485257 -3.72868 0
M  V30 2437 N 223.193 1.4272 -0.668489 0
M  V30 2438 C 224.439 2.01923 -0.188419 0
M  V30 2439 C 224.772 1.52704 1.19979 0
M  V30 2440 O 224.047 0.726566 1.8042 0
M  V30 2441 C 224.33 3.59451 -0.216085 0
M  V30 2442 C 224.183 4.18864 -1.6393 0
M  V30 2443 C 225.502 4.37903 0.439179 0
M  V30 2444 H 222.621 0.733674 -0.0699412 0
M  V30 2445 H 225.263 1.69822 -0.852076 0
M  V30 2446 H 223.413 3.86929 0.349012 0
M  V30 2447 H 225.085 4.02362 -2.25616 0
M  V30 2448 H 223.328 3.74933 -2.18193 0
M  V30 2449 H 223.999 5.27987 -1.61039 0
M  V30 2450 H 226.475 4.16079 -0.0417878 0
M  V30 2451 H 225.351 5.47519 0.389157 0
M  V30 2452 H 225.612 4.15303 1.51577 0
M  V30 2453 N 224.671 0.411399 1.52136 0
M  V30 2454 C 225.918 -0.163645 2.01838 0
M  V30 2455 C 226.246 -1.4495 1.29691 0
M  V30 2456 O 225.501 -1.91725 0.392431 0
M  V30 2457 C 225.8 -0.455872 3.54481 0
M  V30 2458 C 225.466 0.741055 4.44769 0
M  V30 2459 C 224.128 1.06936 4.69167 0
M  V30 2460 C 226.48 1.54075 4.97906 0
M  V30 2461 C 223.808 2.19851 5.43951 0
M  V30 2462 C 226.16 2.66067 5.73926 0
M  V30 2463 C 224.824 2.99381 5.96596 0
M  V30 2464 H 224.094 -0.0598821 0.738576 0
M  V30 2465 H 226.741 0.553283 1.83333 0
M  V30 2466 H 225.046 -1.2544 3.71177 0
M  V30 2467 H 226.743 -0.913802 3.90449 0
M  V30 2468 H 223.333 0.475192 4.25958 0
M  V30 2469 H 227.517 1.30033 4.78963 0
M  V30 2470 H 222.773 2.46006 5.59724 0
M  V30 2471 H 226.947 3.28419 6.14096 0
M  V30 2472 H 224.574 3.86992 6.54325 0
M  V30 2473 N 226.149 -1.5696 0.141893 0
M  V30 2474 C 227.374 -2.00754 -0.520838 0
M  V30 2475 C 227.799 -1.0213 -1.57959 0
M  V30 2476 O 227.157 0.00371324 -1.813 0
M  V30 2477 C 227.205 -3.43318 -1.10294 0
M  V30 2478 O 226.309 -3.47679 -2.21795 0
M  V30 2479 H 225.65 -0.651564 -0.127908 0
M  V30 2480 H 228.18 -2.03221 0.23712 0
M  V30 2481 H 228.19 -3.82012 -1.43287 0
M  V30 2482 H 226.865 -4.14608 -0.327574 0
M  V30 2483 H 225.442 -3.20824 -1.9007 0
M  V30 2484 N 227.627 0.131896 -1.57047 0
M  V30 2485 C 228.575 1.18146 -2.0036 0
M  V30 2486 C 229.569 1.43614 -0.898406 0
M  V30 2487 O 230.775 1.43729 -1.08361 0
M  V30 2488 H 227.15 0.398042 -0.638018 0
M  V30 2489 H 229.121 0.789564 -2.87765 0
M  V30 2490 C 227.87 2.50341 -2.41298 0
M  V30 2491 H 227.193 2.31578 -3.25902 0
M  V30 2492 H 228.633 3.22371 -2.75414 0
M  V30 2493 C 227.092 3.11984 -1.27153 0
M  V30 2494 O 227.622 3.97484 -0.580459 0
M  V30 2495 N 225.828 2.71662 -1.03189 0
M  V30 2496 H 225.375 2.02231 -1.59564 0
M  V30 2497 H 225.333 3.13238 -0.270077 0
M  V30 2498 N 229.106 1.52395 0.401703 0
M  V30 2499 C 230.352 1.67065 1.14966 0
M  V30 2500 C 230.685 0.403052 1.89971 0
M  V30 2501 O 229.96 -0.598774 1.85054 0
M  V30 2502 C 230.243 2.8975 2.13815 0
M  V30 2503 C 230.096 4.26578 1.42658 0
M  V30 2504 C 231.415 3.07965 3.14397 0
M  V30 2505 H 228.534 0.607968 0.416587 0
M  V30 2506 H 231.176 1.84965 0.434511 0
M  V30 2507 H 229.326 2.74619 2.74803 0
M  V30 2508 H 230.998 4.53451 0.847329 0
M  V30 2509 H 229.241 4.27639 0.72849 0
M  V30 2510 H 229.912 5.08483 2.14823 0
M  V30 2511 H 232.388 3.22043 2.63491 0
M  V30 2512 H 231.264 3.95308 3.80819 0
M  V30 2513 H 231.525 2.21611 3.82545 0
M  V30 2514 N 230.584 -0.659388 1.43143 0
M  V30 2515 C 231.517 -1.78425 1.42267 0
M  V30 2516 C 232.495 -1.60085 0.284894 0
M  V30 2517 O 233.679 -1.82351 0.477527 0
M  V30 2518 C 230.806 -3.15642 1.22833 0
M  V30 2519 C 229.852 -3.52698 2.39806 0
M  V30 2520 S 230.685 -3.53372 4.02353 0
M  V30 2521 C 231.841 -4.93256 3.85291 0
M  V30 2522 H 232.074 -1.78897 2.37452 0
M  V30 2523 H 229.607 -0.831469 1.301 0
M  V30 2524 H 231.565 -3.94838 1.12308 0
M  V30 2525 H 230.226 -3.12739 0.29207 0
M  V30 2526 H 229.419 -4.52475 2.21996 0
M  V30 2527 H 229.021 -2.80899 2.46925 0
M  V30 2528 H 231.313 -5.81751 3.47235 0
M  V30 2529 H 232.256 -5.16115 4.84799 0
M  V30 2530 H 232.664 -4.665 3.17865 0
M  V30 2531 N 232.062 -1.29571 -0.897171 0
M  V30 2532 C 233.311 -1.1706 -1.64256 0
M  V30 2533 C 233.624 0.276476 -1.93636 0
M  V30 2534 O 234.83 0.52294 -2.66416 0
M  V30 2535 C 233.286 -2.0475 -2.95982 0
M  V30 2536 C 232.894 -3.54295 -2.74187 0
M  V30 2537 C 234.638 -2.0097 -3.73914 0
M  V30 2538 C 232.545 -4.34081 -4.01656 0
M  V30 2539 H 231.475 -0.43452 -0.616205 0
M  V30 2540 H 234.126 -1.54229 -0.994268 0
M  V30 2541 H 232.508 -1.60452 -3.62038 0
M  V30 2542 H 233.682 -4.06662 -2.1671 0
M  V30 2543 H 231.997 -3.59773 -2.09648 0
M  V30 2544 H 234.594 -2.57838 -4.68427 0
M  V30 2545 H 234.937 -0.990273 -4.0435 0
M  V30 2546 H 235.47 -2.43325 -3.14703 0
M  V30 2547 H 232.209 -5.36671 -3.76384 0
M  V30 2548 H 231.729 -3.86483 -4.58684 0
M  V30 2549 H 233.408 -4.44877 -4.69781 0
M  V30 2550 N 233.54 1.10788 -1.12088 0
M  V30 2551 C 234.49 2.15158 -0.754401 0
M  V30 2552 C 235.474 1.59026 0.244846 0
M  V30 2553 O 236.666 1.76927 0.0509097 0
M  V30 2554 C 233.795 3.42677 -0.206657 0
M  V30 2555 C 232.881 4.05751 -1.23398 0
M  V30 2556 N 233.272 4.43582 -2.43041 0
M  V30 2557 C 231.57 4.32764 -1.07848 0
M  V30 2558 C 232.271 4.93085 -3.08613 0
M  V30 2559 N 231.247 4.89664 -2.36072 0
M  V30 2560 H 235.049 2.42195 -1.6649 0
M  V30 2561 H 232.563 1.27872 -1.00112 0
M  V30 2562 H 234.56 4.16834 0.0740646 0
M  V30 2563 H 233.22 3.17101 0.698342 0
M  V30 2564 H 234.231 4.35395 -2.80449 0
M  V30 2565 H 230.908 4.16863 -0.230483 0
M  V30 2566 H 232.298 5.31933 -4.10483 0
M  V30 2567 N 235.018 0.912232 1.28515 0
M  V30 2568 C 236.264 0.545405 1.95328 0
M  V30 2569 C 236.597 -0.908313 1.71649 0
M  V30 2570 O 235.872 -1.64575 1.03659 0
M  V30 2571 C 236.155 0.853483 3.4984 0
M  V30 2572 C 236.008 2.35982 3.82926 0
M  V30 2573 C 237.327 0.348589 4.38717 0
M  V30 2574 H 234.446 0.199626 0.709449 0
M  V30 2575 H 237.088 1.1412 1.5191 0
M  V30 2576 H 235.238 0.34643 3.86952 0
M  V30 2577 H 236.91 2.93738 3.55691 0
M  V30 2578 H 235.153 2.81543 3.30024 0
M  V30 2579 H 235.824 2.52593 4.90816 0
M  V30 2580 H 238.3 0.78294 4.08668 0
M  V30 2581 H 237.176 0.593242 5.45685 0
M  V30 2582 H 237.437 -0.751049 4.35674 0
M  V30 2583 N 236.496 -1.42363 0.676048 0
M  V30 2584 C 237.742 -2.0182 0.199125 0
M  V30 2585 C 238.075 -1.53339 -1.19168 0
M  V30 2586 O 237.35 -0.736124 -1.80032 0
M  V30 2587 C 237.633 -3.59331 0.235144 0
M  V30 2588 C 237.486 -4.17989 1.66149 0
M  V30 2589 C 238.805 -4.3813 -0.41595 0
M  V30 2590 H 235.924 -0.733293 0.0738311 0
M  V30 2591 H 238.566 -1.69368 0.86107 0
M  V30 2592 H 236.716 -3.87109 -0.328487 0
M  V30 2593 H 238.388 -4.0116 2.27747 0
M  V30 2594 H 236.631 -3.7377 2.20178 0
M  V30 2595 H 237.302 -5.27126 1.63837 0
M  V30 2596 H 239.778 -4.16051 0.0638529 0
M  V30 2597 H 238.654 -5.47717 -0.360115 0
M  V30 2598 H 238.915 -4.16101 -1.49373 0
M  V30 2599 N 237.974 -0.419461 -1.51915 0
M  V30 2600 C 238.906 0.43646 -2.25006 0
M  V30 2601 C 239.919 1.00149 -1.28351 0
M  V30 2602 O 241.108 0.898674 -1.54227 0
M  V30 2603 C 238.208 1.6206 -2.9764 0
M  V30 2604 C 237.381 1.17763 -4.21249 0
M  V30 2605 C 236.44 2.22985 -4.76617 0
M  V30 2606 O 235.466 1.83151 -5.38929 0
M  V30 2607 N 236.668 3.55271 -4.59089 0
M  V30 2608 H 239.433 -0.18989 -2.99098 0
M  V30 2609 H 236.994 -0.247386 -1.59999 0
M  V30 2610 H 238.986 2.32038 -3.31573 0
M  V30 2611 H 237.556 2.15266 -2.2667 0
M  V30 2612 H 236.776 0.305582 -3.93014 0
M  V30 2613 H 238.064 0.858781 -5.015 0
M  V30 2614 H 237.462 3.90377 -4.09417 0
M  V30 2615 H 236.019 4.21195 -4.97432 0
M  V30 2616 N 239.452 1.56882 -0.150215 0
M  V30 2617 C 240.682 2.00302 0.506213 0
M  V30 2618 C 241.09 1.02934 1.58749 0
M  V30 2619 O 240.433 0.0188384 1.8369 0
M  V30 2620 C 240.495 3.40156 1.16337 0
M  V30 2621 C 240.159 4.56439 0.226311 0
M  V30 2622 C 241.156 5.17012 -0.547265 0
M  V30 2623 C 238.841 5.02136 0.128279 0
M  V30 2624 C 240.835 6.21693 -1.40629 0
M  V30 2625 C 238.522 6.06672 -0.734345 0
M  V30 2626 C 239.52 6.6632 -1.50023 0
M  V30 2627 O 239.208 7.68831 -2.34848 0
M  V30 2628 H 238.94 0.662182 0.135984 0
M  V30 2629 H 241.494 2.03961 -0.242746 0
M  V30 2630 H 239.724 3.33346 1.96004 0
M  V30 2631 H 241.413 3.67663 1.71985 0
M  V30 2632 H 242.179 4.82603 -0.48158 0
M  V30 2633 H 238.058 4.55435 0.714157 0
M  V30 2634 H 241.602 6.68179 -2.00455 0
M  V30 2635 H 237.499 6.40507 -0.801309 0
M  V30 2636 H 238.267 7.86065 -2.28131 0
M  V30 2637 N 240.93 -0.123565 1.57115 0
M  V30 2638 C 242.17 -0.838097 1.86428 0
M  V30 2639 C 242.534 -1.77266 0.737611 0
M  V30 2640 O 243.735 -2.52842 0.912389 0
M  V30 2641 C 242.006 -1.57219 3.20962 0
M  V30 2642 S 243.565 -2.32893 3.71896 0
M  V30 2643 H 240.383 -0.279811 0.653626 0
M  V30 2644 H 242.985 -0.0967034 1.95261 0
M  V30 2645 H 241.689 -0.877522 4.00909 0
M  V30 2646 H 241.22 -2.35405 3.15195 0
M  V30 2647 H 243.235 -3.5853 3.43032 0
M  V30 2648 N 242.408 -1.52605 -0.393616 0
M  V30 2649 C 243.655 -1.67424 -1.1391 0
M  V30 2650 C 243.983 -0.411859 -1.90089 0
M  V30 2651 O 243.238 0.605626 -1.86093 0
M  V30 2652 C 243.537 -2.85721 -2.14705 0
M  V30 2653 C 243.203 -4.23342 -1.55218 0
M  V30 2654 C 241.865 -4.60771 -1.3872 0
M  V30 2655 C 244.217 -5.09041 -1.11924 0
M  V30 2656 C 241.545 -5.81563 -0.774689 0
M  V30 2657 C 243.897 -6.30452 -0.520853 0
M  V30 2658 C 242.561 -6.66617 -0.343134 0
M  V30 2659 H 241.831 -0.612648 -0.416826 0
M  V30 2660 H 244.478 -1.8674 -0.424315 0
M  V30 2661 H 242.783 -2.60803 -2.92385 0
M  V30 2662 H 244.48 -2.94382 -2.72288 0
M  V30 2663 H 241.07 -3.93855 -1.69045 0
M  V30 2664 H 245.254 -4.80695 -1.23473 0
M  V30 2665 H 240.51 -6.08196 -0.625154 0
M  V30 2666 H 244.684 -6.96175 -0.177065 0
M  V30 2667 H 242.311 -7.60083 0.133571 0
M  V30 2668 N 243.887 0.651787 -1.4349 0
M  V30 2669 C 245.135 1.40888 -1.44897 0
M  V30 2670 C 245.456 1.94856 -0.0749086 0
M  V30 2671 O 244.726 1.74518 0.889956 0
M  V30 2672 H 243.306 0.522887 -0.533478 0
M  V30 2673 H 245.968 0.768609 -1.79104 0
M  V30 2674 H 245.064 2.25052 -2.16236 0
M  V30 2675 N 245.365 1.30045 0.890287 0
M  V30 2676 C 246.295 1.18541 2.01172 0
M  V30 2677 C 247.276 0.0773356 1.69924 0
M  V30 2678 O 248.461 0.25845 1.92473 0
M  V30 2679 C 245.591 0.870941 3.36202 0
M  V30 2680 C 244.545 1.93637 3.81692 0
M  V30 2681 C 243.871 1.475 5.13953 0
M  V30 2682 C 245.171 3.34666 4.00994 0
M  V30 2683 H 246.865 2.12359 2.11054 0
M  V30 2684 H 244.411 1.02238 1.01407 0
M  V30 2685 H 246.364 0.777141 4.14172 0
M  V30 2686 H 245.088 -0.102926 3.26438 0
M  V30 2687 H 243.747 2.01972 3.05946 0
M  V30 2688 H 243.395 0.489551 5.00612 0
M  V30 2689 H 243.095 2.1876 5.4536 0
M  V30 2690 H 244.619 1.39489 5.94454 0
M  V30 2691 H 246.033 3.2912 4.69417 0
M  V30 2692 H 244.43 4.03966 4.43769 0
M  V30 2693 H 245.5 3.76949 3.05021 0
M  V30 2694 N 246.843 -1.10192 1.12674 0
M  V30 2695 C 248.089 -1.82475 0.884915 0
M  V30 2696 C 248.422 -1.85093 -0.58773 0
M  V30 2697 O 247.697 -1.3134 -1.43457 0
M  V30 2698 C 247.98 -3.29018 1.46353 0
M  V30 2699 C 247.833 -3.34718 3.00473 0
M  V30 2700 C 249.152 -4.25473 1.12519 0
M  V30 2701 H 246.271 -0.662492 0.322915 0
M  V30 2702 H 248.913 -1.2913 1.39375 0
M  V30 2703 H 247.063 -3.74576 1.03077 0
M  V30 2704 H 248.735 -2.97622 3.52447 0
M  V30 2705 H 246.978 -2.74541 3.35872 0
M  V30 2706 H 247.649 -4.37918 3.36053 0
M  V30 2707 H 250.125 -3.88161 1.499 0
M  V30 2708 H 249.001 -5.26365 1.55663 0
M  V30 2709 H 249.262 -4.42084 0.0377407 0
M  V30 2710 N 248.321 -0.919034 -1.28029 0
M  V30 2711 C 249.551 -0.570143 -1.98577 0
M  V30 2712 C 249.959 0.854172 -1.68821 0
M  V30 2713 O 249.302 1.57807 -0.940351 0
M  V30 2714 C 249.364 -0.705734 -3.52505 0
M  V30 2715 C 249.028 -2.10057 -4.05863 0
M  V30 2716 C 250.025 -3.07385 -4.19298 0
M  V30 2717 C 247.71 -2.41517 -4.40426 0
M  V30 2718 C 249.704 -4.34287 -4.66555 0
M  V30 2719 C 247.391 -3.68657 -4.87376 0
M  V30 2720 C 248.389 -4.64856 -5.00398 0
M  V30 2721 O 248.077 -5.89735 -5.46322 0
M  V30 2722 H 247.809 -0.215592 -0.6407 0
M  V30 2723 H 250.363 -1.23583 -1.64062 0
M  V30 2724 H 248.593 0.0170414 -3.86696 0
M  V30 2725 H 250.282 -0.363172 -4.04272 0
M  V30 2726 H 251.048 -2.84398 -3.92865 0
M  V30 2727 H 246.927 -1.67389 -4.29537 0
M  V30 2728 H 250.471 -5.09377 -4.76635 0
M  V30 2729 H 246.368 -3.91466 -5.13249 0
M  V30 2730 H 247.136 -5.92599 -5.64596 0
M  V30 2731 N 249.799 1.42003 -0.683588 0
M  V30 2732 C 251.029 2.05448 -0.217866 0
M  V30 2733 C 251.437 1.51491 1.13346 0
M  V30 2734 O 250.78 0.653048 1.717 0
M  V30 2735 C 250.842 3.59399 -0.0850118 0
M  V30 2736 C 250.506 4.36093 -1.36645 0
M  V30 2737 C 251.503 4.66169 -2.30179 0
M  V30 2738 C 249.188 4.75578 -1.61649 0
M  V30 2739 C 251.182 5.34676 -3.46988 0
M  V30 2740 C 248.869 5.43824 -2.78745 0
M  V30 2741 C 249.867 5.73299 -3.71238 0
M  V30 2742 O 249.555 6.40142 -4.86285 0
M  V30 2743 H 249.287 0.668344 -0.101454 0
M  V30 2744 H 251.841 1.82974 -0.933248 0
M  V30 2745 H 250.071 3.80566 0.686031 0
M  V30 2746 H 251.76 4.04457 0.341973 0
M  V30 2747 H 252.526 4.36156 -2.12115 0
M  V30 2748 H 248.405 4.52025 -0.905243 0
M  V30 2749 H 251.949 5.57599 -4.19201 0
M  V30 2750 H 247.846 5.73254 -2.96732 0
M  V30 2751 H 248.614 6.58636 -4.85944 0
M  V30 2752 N 251.277 0.427512 1.51691 0
M  V30 2753 C 252.523 -0.142439 2.02299 0
M  V30 2754 C 252.856 -1.43214 1.31162 0
M  V30 2755 O 252.131 -1.89833 0.423511 0
M  V30 2756 C 252.414 -0.371301 3.58181 0
M  V30 2757 C 252.267 0.936358 4.39946 0
M  V30 2758 C 253.586 -1.14542 4.24933 0
M  V30 2759 H 250.705 -0.0502937 0.735282 0
M  V30 2760 H 253.347 0.564584 1.81418 0
M  V30 2761 H 251.497 -0.973559 3.76104 0
M  V30 2762 H 253.169 1.57184 4.33694 0
M  V30 2763 H 251.412 1.5432 4.05423 0
M  V30 2764 H 252.083 0.730388 5.47147 0
M  V30 2765 H 254.559 -0.635362 4.11221 0
M  V30 2766 H 253.435 -1.27431 5.33903 0
M  V30 2767 H 253.696 -2.17093 3.85127 0
M  V30 2768 N 252.755 -1.56801 0.158532 0
M  V30 2769 C 253.685 -2.20347 -0.772609 0
M  V30 2770 C 254.666 -1.15518 -1.24859 0
M  V30 2771 O 255.851 -1.43902 -1.30406 0
M  V30 2772 C 252.981 -2.83417 -2.00729 0
M  V30 2773 C 251.935 -3.94174 -1.66765 0
M  V30 2774 C 251.261 -4.44233 -2.97592 0
M  V30 2775 C 252.561 -5.14392 -0.905447 0
M  V30 2776 H 254.255 -2.98413 -0.242959 0
M  V30 2777 H 251.801 -1.43537 -0.115419 0
M  V30 2778 H 253.754 -3.26543 -2.6636 0
M  V30 2779 H 252.478 -2.02701 -2.56086 0
M  V30 2780 H 251.137 -3.51684 -1.03508 0
M  V30 2781 H 250.785 -3.60325 -3.50963 0
M  V30 2782 H 250.485 -5.18945 -2.75626 0
M  V30 2783 H 252.009 -4.90037 -3.64274 0
M  V30 2784 H 253.423 -5.5429 -1.46408 0
M  V30 2785 H 251.82 -5.9494 -0.7853 0
M  V30 2786 H 252.89 -4.84795 0.100668 0
M  V30 2787 N 254.233 0.115231 -1.57178 0
M  V30 2788 C 255.479 0.82357 -1.85325 0
M  V30 2789 C 255.812 1.79349 -0.744814 0
M  V30 2790 O 255.087 1.92899 0.249024 0
M  V30 2791 C 255.37 1.57014 -3.24066 0
M  V30 2792 C 255.223 0.619565 -4.45513 0
M  V30 2793 C 256.542 2.52545 -3.60429 0
M  V30 2794 H 253.661 0.297948 -0.674089 0
M  V30 2795 H 256.303 0.0877138 -1.89797 0
M  V30 2796 H 254.453 2.19742 -3.20383 0
M  V30 2797 H 256.125 0.000837639 -4.613 0
M  V30 2798 H 254.368 -0.0686174 -4.33746 0
M  V30 2799 H 255.039 1.17866 -5.3927 0
M  V30 2800 H 257.515 1.9992 -3.64926 0
M  V30 2801 H 256.391 3.01811 -4.58477 0
M  V30 2802 H 256.652 3.35383 -2.88047 0
M  V30 2803 N 255.711 1.52812 0.385517 0
M  V30 2804 C 256.959 1.67694 1.12797 0
M  V30 2805 C 257.28 0.421115 1.90399 0
M  V30 2806 O 256.55 -0.564551 1.87589 0
M  V30 2807 H 255.13 0.618155 0.419396 0
M  V30 2808 H 257.792 1.89938 0.436972 0
M  V30 2809 H 256.888 2.52896 1.82894 0
M  V30 2810 N 257.189 -0.644168 1.43834 0
M  V30 2811 C 258.119 -1.76814 1.52509 0
M  V30 2812 C 259.1 -1.65823 0.379052 0
M  V30 2813 O 260.285 -1.84781 0.597466 0
M  V30 2814 C 257.415 -3.15288 1.4564 0
M  V30 2815 C 256.369 -3.41053 2.58586 0
M  V30 2816 C 255.695 -4.79421 2.36769 0
M  V30 2817 C 256.995 -3.34902 4.00797 0
M  V30 2818 H 258.689 -1.69812 2.46586 0
M  V30 2819 H 256.235 -0.815542 1.1868 0
M  V30 2820 H 258.188 -3.93681 1.50311 0
M  V30 2821 H 256.912 -3.23043 0.480725 0
M  V30 2822 H 255.571 -2.65035 2.53282 0
M  V30 2823 H 255.219 -4.83863 1.37424 0
M  V30 2824 H 254.919 -4.9762 3.12487 0
M  V30 2825 H 256.443 -5.6006 2.43238 0
M  V30 2826 H 257.857 -4.03218 4.07539 0
M  V30 2827 H 256.254 -3.64637 4.76613 0
M  V30 2828 H 257.324 -2.32928 4.25291 0
M  V30 2829 N 258.668 -1.30515 -0.883378 0
M  V30 2830 C 259.896 -1.22359 -1.66841 0
M  V30 2831 C 260.311 0.213296 -1.87591 0
M  V30 2832 O 259.668 1.14075 -1.42454 0
M  V30 2833 C 259.719 -1.95011 -3.04389 0
M  V30 2834 O 259.44 -3.3309 -2.84575 0
M  V30 2835 C 260.941 -1.93532 -3.98824 0
M  V30 2836 H 258.161 -0.423371 -0.520575 0
M  V30 2837 H 260.705 -1.72167 -1.10357 0
M  V30 2838 H 258.86 -1.48997 -3.57601 0
M  V30 2839 H 259.274 -3.69907 -3.71846 0
M  V30 2840 H 260.748 -2.48902 -4.92699 0
M  V30 2841 H 261.225 -0.914627 -4.29571 0
M  V30 2842 H 261.831 -2.39364 -3.51547 0
M  V30 2843 N 260.146 1.09593 -1.13257 0
M  V30 2844 C 261.392 1.82003 -0.89458 0
M  V30 2845 C 261.725 1.85402 0.577906 0
M  V30 2846 O 261 1.32099 1.42759 0
M  V30 2847 C 261.283 3.28237 -1.48096 0
M  V30 2848 C 261.136 3.3312 -3.02244 0
M  V30 2849 C 262.455 4.24871 -1.14774 0
M  V30 2850 H 259.574 0.66077 -0.326424 0
M  V30 2851 H 262.216 1.28389 -1.40058 0
M  V30 2852 H 260.366 3.74024 -1.05062 0
M  V30 2853 H 262.038 2.95748 -3.54021 0
M  V30 2854 H 260.281 2.72756 -3.37323 0
M  V30 2855 H 260.952 4.3613 -3.38371 0
M  V30 2856 H 263.428 3.87361 -1.51957 0
M  V30 2857 H 262.304 5.25532 -1.58452 0
M  V30 2858 H 262.565 4.42058 -0.0611849 0
M  V30 2859 N 261.624 0.925811 1.2754 0
M  V30 2860 C 262.554 0.440748 2.29303 0
M  V30 2861 C 263.535 -0.497971 1.62648 0
M  V30 2862 O 264.72 -0.403126 1.8997 0
M  V30 2863 C 261.85 -0.309048 3.45922 0
M  V30 2864 C 260.804 0.54166 4.24559 0
M  V30 2865 C 260.13 -0.337191 5.33636 0
M  V30 2866 C 261.43 1.80516 4.90114 0
M  V30 2867 H 263.124 1.29121 2.70126 0
M  V30 2868 H 260.67 0.622323 1.29858 0
M  V30 2869 H 262.623 -0.659315 4.1621 0
M  V30 2870 H 261.347 -1.19352 3.04011 0
M  V30 2871 H 260.006 0.874609 3.56014 0
M  V30 2872 H 259.654 -1.22056 4.87966 0
M  V30 2873 H 259.354 0.228497 5.87156 0
M  V30 2874 H 260.878 -0.683072 6.06767 0
M  V30 2875 H 262.292 1.52307 5.52698 0
M  V30 2876 H 260.689 2.3142 5.53683 0
M  V30 2877 H 261.759 2.52581 4.13921 0
M  V30 2878 N 263.102 -1.41638 0.69111 0
M  V30 2879 C 264.327 -2.06148 0.227583 0
M  V30 2880 C 264.752 -1.51652 -1.11281 0
M  V30 2881 O 264.11 -0.64164 -1.69566 0
M  V30 2882 C 264.158 -3.60095 0.190858 0
M  V30 2883 O 263.262 -4.03845 -0.835664 0
M  V30 2884 H 262.603 -0.654434 0.112306 0
M  V30 2885 H 265.133 -1.81484 0.944714 0
M  V30 2886 H 265.143 -4.07995 0.020207 0
M  V30 2887 H 263.818 -3.99129 1.16915 0
M  V30 2888 H 262.395 -3.67458 -0.63473 0
M  V30 2889 N 264.58 -0.43555 -1.51462 0
M  V30 2890 C 265.512 0.41257 -2.25456 0
M  V30 2891 C 266.525 0.987822 -1.29406 0
M  V30 2892 O 267.714 0.882266 -1.55172 0
M  V30 2893 C 264.814 1.58894 -2.99342 0
M  V30 2894 C 263.987 1.13288 -4.22474 0
M  V30 2895 C 263.046 2.17917 -4.78956 0
M  V30 2896 O 262.072 1.77425 -5.40841 0
M  V30 2897 N 263.274 3.50382 -4.62832 0
M  V30 2898 H 266.039 -0.221603 -2.9888 0
M  V30 2899 H 263.6 -0.264342 -1.59727 0
M  V30 2900 H 265.592 2.28508 -3.34015 0
M  V30 2901 H 264.162 2.12849 -2.28941 0
M  V30 2902 H 263.382 0.263881 -3.93316 0
M  V30 2903 H 264.67 0.805542 -5.02383 0
M  V30 2904 H 264.068 3.86013 -4.13534 0
M  V30 2905 H 262.625 4.15895 -5.01871 0
M  V30 2906 N 266.058 1.56714 -0.166846 0
M  V30 2907 C 267.304 1.97039 0.479962 0
M  V30 2908 C 267.637 1.05264 1.63197 0
M  V30 2909 O 266.912 0.0988833 1.94248 0
M  V30 2910 C 267.195 3.46867 0.967212 0
M  V30 2911 C 267.048 4.49421 -0.18466 0
M  V30 2912 C 268.367 3.9968 1.84238 0
M  V30 2913 H 265.486 0.71641 0.172992 0
M  V30 2914 H 268.128 1.8832 -0.252079 0
M  V30 2915 H 266.278 3.54428 1.59101 0
M  V30 2916 H 267.95 4.53924 -0.821621 0
M  V30 2917 H 266.193 4.25573 -0.840837 0
M  V30 2918 H 266.864 5.51644 0.198317 0
M  V30 2919 H 269.34 3.94723 1.31655 0
M  V30 2920 H 268.216 5.04941 2.15234 0
M  V30 2921 H 268.477 3.43226 2.78654 0
M  V30 2922 N 267.536 -0.106894 1.57237 0
M  V30 2923 C 268.947 -0.662723 1.74542 0
M  V30 2924 C 269.298 -1.7971 0.787319 0
M  V30 2925 O 268.423 -2.16368 -0.0369636 0
M  V30 2926 C 269.018 -1.20896 3.16496 0
M  V30 2927 C 267.577 -1.71096 3.35266 0
M  V30 2928 C 266.724 -0.615642 2.7038 0
M  V30 2929 H 269.675 0.119106 1.58252 0
M  V30 2930 H 269.696 -2.07847 3.18716 0
M  V30 2931 H 269.208 -0.383122 3.86204 0
M  V30 2932 H 267.309 -2.56119 2.70618 0
M  V30 2933 H 267.422 -1.81208 4.43509 0
M  V30 2934 H 265.786 -1.05222 2.31949 0
M  V30 2935 H 266.569 0.199419 3.4272 0
M  V30 2936 N 269.014 -1.53014 -0.377408 0
M  V30 2937 C 269.947 -1.73382 -1.48371 0
M  V30 2938 C 270.925 -0.581879 -1.51832 0
M  V30 2939 O 272.109 -0.81307 -1.70063 0
M  V30 2940 C 269.236 -1.80192 -2.8679 0
M  V30 2941 C 268.282 -3.02056 -3.01105 0
M  V30 2942 S 269.115 -4.61811 -2.71093 0
M  V30 2943 C 270.271 -4.71453 -4.11683 0
M  V30 2944 H 270.504 -2.66946 -1.30872 0
M  V30 2945 H 268.037 -1.43453 -0.571012 0
M  V30 2946 H 269.995 -1.84802 -3.6655 0
M  V30 2947 H 268.656 -0.877008 -3.01608 0
M  V30 2948 H 267.849 -3.03396 -4.02451 0
M  V30 2949 H 267.451 -2.95498 -2.29253 0
M  V30 2950 H 269.743 -4.50781 -5.0577 0
M  V30 2951 H 270.686 -5.73487 -4.15353 0
M  V30 2952 H 271.094 -4.00189 -3.98132 0
M  V30 2953 N 270.492 0.636531 -1.44174 0
M  V30 2954 C 271.769 1.39463 -1.37148 0
M  V30 2955 C 272.149 2.11082 -0.027507 0
M  V30 2956 O 271.497 2.05954 0.989716 0
M  V30 2957 C 271.707 2.36552 -2.56601 0
M  V30 2958 C 273.055 3.00048 -3.00427 0
M  V30 2959 O 274.079 2.46878 -2.56767 0
M  V30 2960 O 272.938 3.96488 -3.76111 0
M  V30 2961 H 270.032 0.623903 -0.542839 0
M  V30 2962 H 272.578 0.662039 -1.56253 0
M  V30 2963 H 271.35 1.82692 -3.46034 0
M  V30 2964 H 270.973 3.17236 -2.39681 0
M  V30 2965 N 271.97 1.30982 0.876444 0
M  V30 2966 C 273.218 1.20058 1.62575 0
M  V30 2967 C 273.539 -0.242947 1.93481 0
M  V30 2968 O 272.809 -1.1619 1.57724 0
M  V30 2969 H 271.389 0.44135 0.602677 0
M  V30 2970 H 274.051 1.64222 1.04962 0
M  V30 2971 H 273.147 1.76762 2.57219 0
M  V30 2972 N 273.449 -1.08991 1.13837 0
M  V30 2973 C 274.865 -1.33312 0.877506 0
M  V30 2974 C 275.065 -1.95587 -0.48456 0
M  V30 2975 O 274.121 -2.20509 -1.23013 0
M  V30 2976 C 275.434 -2.24045 2.0056 0
M  V30 2977 C 276.982 -2.37542 2.03821 0
M  V30 2978 C 277.457 -3.31614 3.15905 0
M  V30 2979 N 278.948 -3.39189 3.15445 0
M  V30 2980 C 279.683 -4.11992 3.98811 0
M  V30 2981 N 279.179 -4.87553 4.92203 0
M  V30 2982 N 280.972 -4.07762 3.86894 0
M  V30 2983 H 273.123 -0.669456 2.01574 0
M  V30 2984 H 275.386 -0.357482 0.878015 0
M  V30 2985 H 275.092 -1.85521 2.98789 0
M  V30 2986 H 274.966 -3.24466 1.92359 0
M  V30 2987 H 277.353 -2.75327 1.06202 0
M  V30 2988 H 277.434 -1.36884 2.16093 0
M  V30 2989 H 277.078 -2.94551 4.13766 0
M  V30 2990 H 277.008 -4.32186 3.0087 0
M  V30 2991 H 279.499 -2.85314 2.47799 0
M  V30 2992 H 279.812 -5.40549 5.52292 0
M  V30 2993 H 278.157 -4.86627 4.96205 0
M  V30 2994 H 281.348 -3.47833 3.13257 0
M  V30 2995 H 281.521 -4.64238 4.52092 0
M  V30 2996 N 274.927 -0.932562 -1.27047 0
M  V30 2997 C 275.875 -0.42603 -2.28665 0
M  V30 2998 C 276.869 0.49219 -1.62092 0
M  V30 2999 O 278.075 0.371355 -1.76128 0
M  V30 3000 H 274.45 -0.119213 -0.742491 0
M  V30 3001 H 276.421 -1.29579 -2.68797 0
M  V30 3002 C 275.17 0.301426 -3.46391 0
M  V30 3003 H 274.493 -0.39595 -3.97834 0
M  V30 3004 H 275.933 0.6202 -4.1944 0
M  V30 3005 C 274.392 1.51616 -3.00856 0
M  V30 3006 O 274.922 2.61476 -3.04948 0
M  V30 3007 N 273.128 1.36969 -2.56296 0
M  V30 3008 H 272.675 0.475873 -2.53166 0
M  V30 3009 H 272.633 2.18368 -2.26192 0
M  V30 3010 N 276.405 1.4127 -0.698611 0
M  V30 3011 C 277.368 2.29158 -0.044132 0
M  V30 3012 C 278.368 1.44529 0.704841 0
M  V30 3013 O 279.558 1.65643 0.539276 0
M  V30 3014 C 276.69 3.27459 0.947809 0
M  V30 3015 H 277.883 2.88529 -0.817994 0
M  V30 3016 H 275.436 1.49307 -0.46228 0
M  V30 3017 H 276.171 2.73073 1.74933 0
M  V30 3018 H 275.956 3.8991 0.41385 0
M  V30 3019 H 277.446 3.93311 1.40344 0
M  V30 3020 N 277.883 0.443576 1.51229 0
M  V30 3021 C 279.113 -0.119117 2.06256 0
M  V30 3022 C 279.521 -1.36471 1.31043 0
M  V30 3023 O 278.864 -1.80034 0.365151 0
M  V30 3024 C 278.926 -0.500546 3.55998 0
M  V30 3025 C 278.59 0.639125 4.52509 0
M  V30 3026 C 279.587 1.51311 4.97394 0
M  V30 3027 C 277.272 0.821632 4.95535 0
M  V30 3028 C 279.266 2.55425 5.83984 0
M  V30 3029 C 276.953 1.86603 5.81913 0
M  V30 3030 C 277.951 2.73072 6.26036 0
M  V30 3031 O 277.639 3.75718 7.10698 0
M  V30 3032 H 277.371 -0.00857665 0.675946 0
M  V30 3033 H 279.925 0.623288 1.95715 0
M  V30 3034 H 278.155 -1.29575 3.64345 0
M  V30 3035 H 279.844 -0.995116 3.93513 0
M  V30 3036 H 280.61 1.38367 4.64844 0
M  V30 3037 H 276.489 0.158149 4.60729 0
M  V30 3038 H 280.033 3.22949 6.18344 0
M  V30 3039 H 275.93 1.99564 6.13876 0
M  V30 3040 H 276.698 3.72374 7.2889 0
M  V30 3041 N 279.361 -1.56624 0.175154 0
M  V30 3042 C 280.61 -1.96173 -0.468921 0
M  V30 3043 C 280.923 -1.06401 -1.64128 0
M  V30 3044 O 282.129 -1.35648 -2.35185 0
M  V30 3045 C 280.585 -3.48833 -0.885633 0
M  V30 3046 C 280.193 -4.47237 0.261343 0
M  V30 3047 C 281.937 -3.97194 -1.49791 0
M  V30 3048 C 279.844 -5.9114 -0.175214 0
M  V30 3049 H 278.774 -0.732455 -0.178958 0
M  V30 3050 H 281.425 -1.81591 0.263997 0
M  V30 3051 H 279.807 -3.58848 -1.67464 0
M  V30 3052 H 280.981 -4.4894 1.03871 0
M  V30 3053 H 279.296 -4.08956 0.783827 0
M  V30 3054 H 281.893 -5.02167 -1.83665 0
M  V30 3055 H 282.236 -3.40351 -2.39722 0
M  V30 3056 H 282.769 -3.90212 -0.773267 0
M  V30 3057 H 279.508 -6.51865 0.689414 0
M  V30 3058 H 279.028 -5.92735 -0.91786 0
M  V30 3059 H 280.707 -6.44044 -0.617792 0
M  V30 3060 N 280.839 0.0985539 -1.57292 0
M  V30 3061 C 282.067 0.816318 -1.90115 0
M  V30 3062 C 282.482 1.72451 -0.768509 0
M  V30 3063 O 281.839 1.80643 0.259687 0
M  V30 3064 C 281.89 1.63259 -3.22535 0
M  V30 3065 O 281.611 0.760934 -4.31441 0
M  V30 3066 C 283.112 2.45372 -3.69199 0
M  V30 3067 H 280.332 0.233595 -0.629027 0
M  V30 3068 H 282.876 0.0768229 -2.04356 0
M  V30 3069 H 281.031 2.32463 -3.09903 0
M  V30 3070 H 281.445 1.32595 -5.07463 0
M  V30 3071 H 282.919 2.98144 -4.64558 0
M  V30 3072 H 283.396 3.23677 -2.96867 0
M  V30 3073 H 284.002 1.81373 -3.84687 0
M  V30 3074 N 282.317 1.53212 0.369288 0
M  V30 3075 C 283.565 1.68881 1.11012 0
M  V30 3076 C 283.886 0.441285 1.89941 0
M  V30 3077 O 283.156 -0.544623 1.88177 0
M  V30 3078 H 281.736 0.622569 0.412816 0
M  V30 3079 H 284.398 1.90391 0.416802 0
M  V30 3080 H 283.494 2.54822 1.80201 0
M  V30 3081 N 283.795 -0.628877 1.44509 0
M  V30 3082 C 284.742 -1.74074 1.51549 0
M  V30 3083 C 285.712 -1.62084 0.363021 0
M  V30 3084 O 286.897 -1.81975 0.573567 0
M  V30 3085 C 284.037 -3.12328 1.46784 0
M  V30 3086 C 283.15 -3.35277 2.72422 0
M  V30 3087 C 282.285 -4.63515 2.59475 0
M  V30 3088 C 281.324 -4.7965 3.80266 0
M  V30 3089 N 280.461 -5.99168 3.65981 0
M  V30 3090 H 285.301 -1.67392 2.46544 0
M  V30 3091 H 282.838 -0.816527 1.22357 0
M  V30 3092 H 284.796 -3.92286 1.42012 0
M  V30 3093 H 283.426 -3.18018 0.553544 0
M  V30 3094 H 282.478 -2.49242 2.87372 0
M  V30 3095 H 283.79 -3.43078 3.62076 0
M  V30 3096 H 282.944 -5.51638 2.52548 0
M  V30 3097 H 281.683 -4.58076 1.67384 0
M  V30 3098 H 280.688 -3.89957 3.87574 0
M  V30 3099 H 281.913 -4.86902 4.73395 0
M  V30 3100 H 279.859 -5.94814 2.76644 0
M  V30 3101 H 279.776 -6.08035 4.49254 0
M  V30 3102 H 281.044 -6.89846 3.6295 0
M  V30 3103 N 285.273 -1.31445 -0.869486 0
M  V30 3104 C 286.221 -1.19067 -1.99814 0
M  V30 3105 C 287.215 -0.0988569 -1.69111 0
M  V30 3106 O 288.421 -0.260781 -1.78101 0
M  V30 3107 H 284.796 -0.368677 -0.655425 0
M  V30 3108 H 286.767 -2.14555 -2.07385 0
M  V30 3109 C 285.516 -0.915323 -3.35436 0
M  V30 3110 H 284.839 -1.74759 -3.59582 0
M  V30 3111 H 286.279 -0.868895 -4.15001 0
M  V30 3112 C 284.738 0.381928 -3.34728 0
M  V30 3113 O 285.268 1.39857 -3.76567 0
M  V30 3114 N 283.474 0.398633 -2.87853 0
M  V30 3115 H 283.021 -0.429186 -2.54 0
M  V30 3116 H 282.979 1.26651 -2.87762 0
M  V30 3117 N 286.751 1.08385 -1.14413 0
M  V30 3118 C 287.681 2.17321 -0.854044 0
M  V30 3119 C 288.662 1.69024 0.191049 0
M  V30 3120 O 289.847 1.94141 0.0476779 0
M  V30 3121 C 286.977 3.45719 -0.330983 0
M  V30 3122 C 285.931 4.07409 -1.31155 0
M  V30 3123 C 285.257 5.30762 -0.64778 0
M  V30 3124 C 286.557 4.48665 -2.67388 0
M  V30 3125 H 288.251 2.41845 -1.76498 0
M  V30 3126 H 285.797 1.16233 -0.850051 0
M  V30 3127 H 287.75 4.21241 -0.115645 0
M  V30 3128 H 286.474 3.2075 0.615381 0
M  V30 3129 H 285.133 3.33919 -1.51306 0
M  V30 3130 H 284.781 5.02078 0.304398 0
M  V30 3131 H 284.481 5.72992 -1.30207 0
M  V30 3132 H 286.005 6.08998 -0.441972 0
M  V30 3133 H 287.419 5.15364 -2.51143 0
M  V30 3134 H 285.816 5.01814 -3.29093 0
M  V30 3135 H 286.886 3.60543 -3.24248 0
M  V30 3136 N 288.23 0.939286 1.26551 0
M  V30 3137 C 289.16 0.465044 2.28822 0
M  V30 3138 C 290.141 -0.480692 1.63167 0
M  V30 3139 O 291.326 -0.382955 1.90387 0
M  V30 3140 C 288.456 -0.27234 3.46231 0
M  V30 3141 C 287.41 0.58666 4.2396 0
M  V30 3142 C 286.736 -0.280573 5.33963 0
M  V30 3143 C 288.036 1.85704 4.88171 0
M  V30 3144 H 289.73 1.31979 2.68741 0
M  V30 3145 H 287.276 0.636061 1.29191 0
M  V30 3146 H 289.229 -0.615133 4.16886 0
M  V30 3147 H 287.953 -1.16121 3.0526 0
M  V30 3148 H 286.612 0.91232 3.55067 0
M  V30 3149 H 286.26 -1.16874 4.89234 0
M  V30 3150 H 285.96 0.29076 5.8688 0
M  V30 3151 H 287.484 -0.618678 6.07458 0
M  V30 3152 H 288.898 1.58161 5.51052 0
M  V30 3153 H 287.295 2.37279 5.51197 0
M  V30 3154 H 288.365 2.56957 4.11219 0
M  V30 3155 N 289.708 -1.40897 0.706093 0
M  V30 3156 C 290.641 -2.282 -0.00328781 0
M  V30 3157 C 291.619 -1.42816 -0.77732 0
M  V30 3158 O 292.803 -1.72237 -0.765944 0
M  V30 3159 C 289.93 -3.23226 -1.01205 0
M  V30 3160 C 288.976 -4.25222 -0.329955 0
M  V30 3161 S 289.809 -5.27269 0.935298 0
M  V30 3162 C 290.965 -6.25859 -0.0716061 0
M  V30 3163 H 291.198 -2.88016 0.737143 0
M  V30 3164 H 288.731 -1.46191 0.496756 0
M  V30 3165 H 290.689 -3.78503 -1.58888 0
M  V30 3166 H 289.35 -2.62485 -1.72513 0
M  V30 3167 H 288.543 -4.92023 -1.09221 0
M  V30 3168 H 288.145 -3.73595 0.174069 0
M  V30 3169 H 290.437 -6.71204 -0.921521 0
M  V30 3170 H 291.38 -7.0586 0.562765 0
M  V30 3171 H 291.788 -5.62852 -0.431088 0
M  V30 3172 N 291.186 -0.45159 -1.50991 0
M  V30 3173 C 292.118 0.388634 -2.25881 0
M  V30 3174 C 293.131 0.974041 -1.30446 0
M  V30 3175 O 294.32 0.865758 -1.56099 0
M  V30 3176 C 291.42 1.5571 -3.01011 0
M  V30 3177 C 290.593 1.08801 -4.23652 0
M  V30 3178 C 289.652 2.12825 -4.8124 0
M  V30 3179 O 288.678 1.71678 -5.42693 0
M  V30 3180 N 289.88 3.45453 -4.66522 0
M  V30 3181 H 292.645 -0.25329 -2.98628 0
M  V30 3182 H 290.206 -0.281268 -1.59438 0
M  V30 3183 H 292.198 2.24952 -3.3642 0
M  V30 3184 H 290.768 2.10409 -2.31186 0
M  V30 3185 H 289.988 0.22215 -3.93574 0
M  V30 3186 H 291.276 0.752213 -5.03209 0
M  V30 3187 H 290.674 3.81605 -4.17605 0
M  V30 3188 H 289.231 4.10549 -5.06254 0
M  V30 3189 N 292.664 1.56529 -0.183458 0
M  V30 3190 C 293.627 2.17324 0.728223 0
M  V30 3191 C 294.627 1.12453 1.14939 0
M  V30 3192 O 295.817 1.37902 1.06437 0
M  V30 3193 C 292.949 2.76591 1.99274 0
M  V30 3194 H 294.142 2.99241 0.198772 0
M  V30 3195 H 291.695 1.5616 0.0661391 0
M  V30 3196 H 292.43 1.98441 2.56499 0
M  V30 3197 H 292.215 3.5335 1.69959 0
M  V30 3198 H 293.705 3.23311 2.6431 0
M  V30 3199 N 294.142 -0.090211 1.57342 0
M  V30 3200 C 295.558 -0.444547 1.53284 0
M  V30 3201 C 295.758 -1.80238 0.900914 0
M  V30 3202 O 294.814 -2.4759 0.495513 0
M  V30 3203 C 296.127 -0.402543 2.97993 0
M  V30 3204 C 297.675 -0.48405 3.09234 0
M  V30 3205 C 298.15 -0.472144 4.5556 0
M  V30 3206 N 299.641 -0.532757 4.60126 0
M  V30 3207 C 300.376 -0.545462 5.708 0
M  V30 3208 N 299.872 -0.514082 6.9089 0
M  V30 3209 N 301.665 -0.59064 5.58988 0
M  V30 3210 H 293.816 0.799121 1.96794 0
M  V30 3211 H 296.079 0.297965 0.899956 0
M  V30 3212 H 295.785 0.528106 3.47712 0
M  V30 3213 H 295.659 -1.21969 3.56936 0
M  V30 3214 H 298.046 -1.40512 2.595 0
M  V30 3215 H 298.127 0.361328 2.53235 0
M  V30 3216 H 297.771 0.445 5.05947 0
M  V30 3217 H 297.701 -1.3348 5.09402 0
M  V30 3218 H 300.192 -0.562006 3.73698 0
M  V30 3219 H 300.505 -0.527195 7.71 0
M  V30 3220 H 298.85 -0.481054 6.93333 0
M  V30 3221 H 302.041 -0.61272 4.64073 0
M  V30 3222 H 302.214 -0.597073 6.45243 0
M  V30 3223 N 295.62 -1.53406 -0.361157 0
M  V30 3224 C 296.866 -1.70999 -1.1014 0
M  V30 3225 C 297.221 -0.458425 -1.86859 0
M  V30 3226 O 296.514 0.548654 -1.83577 0
M  V30 3227 C 296.708 -2.90211 -2.08596 0
M  V30 3228 C 296.537 -4.26841 -1.41553 0
M  V30 3229 C 295.307 -4.91621 -1.16778 0
M  V30 3230 C 297.505 -5.07212 -0.850915 0
M  V30 3231 N 295.487 -6.12164 -0.461312 0
M  V30 3232 C 296.858 -6.19394 -0.274046 0
M  V30 3233 C 298.913 -4.92218 -0.750036 0
M  V30 3234 C 297.616 -7.18221 0.393868 0
M  V30 3235 C 299.642 -5.91322 -0.095894 0
M  V30 3236 C 299.004 -7.0283 0.470081 0
M  V30 3237 H 295.103 -0.678939 -0.388028 0
M  V30 3238 H 297.687 -1.90811 -0.38722 0
M  V30 3239 H 295.858 -2.71931 -2.77323 0
M  V30 3240 H 297.59 -2.96606 -2.7533 0
M  V30 3241 H 294.345 -4.50849 -1.45024 0
M  V30 3242 H 294.769 -6.76888 -0.123312 0
M  V30 3243 H 299.411 -4.06192 -1.17337 0
M  V30 3244 H 297.129 -8.03835 0.82914 0
M  V30 3245 H 300.715 -5.81797 -0.0187075 0
M  V30 3246 H 299.595 -7.782 0.968241 0
M  V30 3247 N 297.098 0.621204 -1.44841 0
M  V30 3248 C 298.345 1.38055 -1.48145 0
M  V30 3249 C 298.673 1.94143 -0.117867 0
M  V30 3250 O 297.928 1.74713 0.881694 0
M  V30 3251 C 298.227 2.55675 -2.4973 0
M  V30 3252 C 297.893 2.17817 -3.94799 0
M  V30 3253 C 296.555 2.07205 -4.34303 0
M  V30 3254 C 298.907 1.88065 -4.86087 0
M  V30 3255 C 296.235 1.65045 -5.63007 0
M  V30 3256 C 298.587 1.47394 -6.15189 0
M  V30 3257 C 297.251 1.35331 -6.53637 0
M  V30 3258 H 296.521 0.505181 -0.542101 0
M  V30 3259 H 299.168 0.703477 -1.78111 0
M  V30 3260 H 297.473 3.2866 -2.13284 0
M  V30 3261 H 299.17 3.13904 -2.4953 0
M  V30 3262 H 295.76 2.26998 -3.63552 0
M  V30 3263 H 299.944 1.95168 -4.56315 0
M  V30 3264 H 295.2 1.54317 -5.91605 0
M  V30 3265 H 299.374 1.23415 -6.85377 0
M  V30 3266 H 297.001 1.02435 -7.53267 0
M  V30 3267 N 298.576 1.31904 0.862503 0
M  V30 3268 C 299.526 1.16772 1.95827 0
M  V30 3269 C 300.51 0.0767098 1.60717 0
M  V30 3270 O 301.702 0.302407 1.74398 0
M  V30 3271 C 298.831 0.884858 3.317 0
M  V30 3272 C 297.917 2.0172 3.73055 0
M  V30 3273 N 298.308 3.265 3.86305 0
M  V30 3274 C 296.606 1.91861 4.02623 0
M  V30 3275 C 297.307 4.00616 4.2176 0
M  V30 3276 N 296.283 3.28847 4.32852 0
M  V30 3277 H 300.085 2.11382 2.04193 0
M  V30 3278 H 297.599 1.2357 1.05377 0
M  V30 3279 H 299.596 0.757419 4.09962 0
M  V30 3280 H 298.256 -0.0529448 3.24657 0
M  V30 3281 H 299.267 3.61529 3.70833 0
M  V30 3282 H 295.944 1.05593 4.03926 0
M  V30 3283 H 297.334 5.08182 4.39546 0
M  V30 3284 N 300.054 -1.07777 1.14986 0
M  V30 3285 C 301.303 -1.79669 0.916617 0
M  V30 3286 C 301.616 -1.87474 -0.557917 0
M  V30 3287 O 302.822 -2.55845 -0.908617 0
M  V30 3288 C 301.278 -3.22848 1.59051 0
M  V30 3289 C 300.886 -3.23257 3.10176 0
M  V30 3290 C 302.63 -3.99379 1.43864 0
M  V30 3291 C 300.537 -4.61063 3.70372 0
M  V30 3292 H 299.467 -0.673349 0.33929 0
M  V30 3293 H 302.118 -1.21003 1.37951 0
M  V30 3294 H 300.5 -3.8168 1.0553 0
M  V30 3295 H 301.674 -2.74095 3.70417 0
M  V30 3296 H 299.989 -2.60222 3.25074 0
M  V30 3297 H 302.586 -5.0122 1.86232 0
M  V30 3298 H 302.929 -4.14511 0.385564 0
M  V30 3299 H 303.462 -3.47032 1.94457 0
M  V30 3300 H 300.201 -4.51135 4.7556 0
M  V30 3301 H 299.721 -5.1048 3.14913 0
M  V30 3302 H 301.4 -5.30034 3.71043 0
M  V30 3303 N 301.532 -0.945985 -1.26051 0
M  V30 3304 C 302.462 -0.477172 -2.28572 0
M  V30 3305 C 303.443 0.472032 -1.63419 0
M  V30 3306 O 304.628 0.372853 -1.90587 0
M  V30 3307 C 301.758 0.253975 -3.4637 0
M  V30 3308 C 300.712 -0.609135 -4.23643 0
M  V30 3309 C 300.038 0.252252 -5.34105 0
M  V30 3310 C 301.338 -1.8829 -4.8718 0
M  V30 3311 H 303.032 -1.33402 -2.68038 0
M  V30 3312 H 300.578 -0.642904 -1.28852 0
M  V30 3313 H 302.531 0.593016 -4.17207 0
M  V30 3314 H 301.255 1.145 -3.05871 0
M  V30 3315 H 299.914 -0.931138 -3.54578 0
M  V30 3316 H 299.562 1.14278 -4.89846 0
M  V30 3317 H 299.262 -0.32188 -5.86718 0
M  V30 3318 H 300.786 0.586454 -6.07777 0
M  V30 3319 H 302.2 -1.61081 -5.50205 0
M  V30 3320 H 300.597 -2.40199 -5.49931 0
M  V30 3321 H 301.667 -2.59134 -4.09851 0
M  V30 3322 N 303.011 1.40521 -0.713556 0
M  V30 3323 C 304.259 2.00527 -0.251692 0
M  V30 3324 C 304.58 1.56857 1.15848 0
M  V30 3325 O 303.85 0.807127 1.785 0
M  V30 3326 H 302.43 0.741551 -0.0900646 0
M  V30 3327 H 305.092 1.71887 -0.918733 0
M  V30 3328 H 304.188 3.10813 -0.283192 0
M  V30 3329 N 304.489 0.459591 1.5075 0
M  V30 3330 C 305.422 -0.386257 2.24907 0
M  V30 3331 C 306.4 -1.006 1.27744 0
M  V30 3332 O 307.584 -1.04416 1.56938 0
M  V30 3333 C 304.711 -1.54021 3.01654 0
M  V30 3334 C 303.757 -1.03898 4.13651 0
M  V30 3335 S 304.59 0.0370501 5.35487 0
M  V30 3336 C 305.746 -1.12105 6.15779 0
M  V30 3337 H 305.979 0.243272 2.96303 0
M  V30 3338 H 303.512 0.244339 1.52454 0
M  V30 3339 H 305.47 -2.20163 3.46466 0
M  V30 3340 H 304.131 -2.14121 2.29806 0
M  V30 3341 H 303.324 -1.90254 4.66711 0
M  V30 3342 H 302.926 -0.45545 3.71216 0
M  V30 3343 H 305.218 -2.03501 6.46215 0
M  V30 3344 H 306.161 -0.62995 7.05292 0
M  V30 3345 H 306.569 -1.36967 5.47631 0
M  V30 3346 N 305.967 -1.56429 0.191757 0
M  V30 3347 C 306.9 -2.14829 -0.76967 0
M  V30 3348 C 307.878 -1.08405 -1.2119 0
M  V30 3349 O 309.062 -1.36498 -1.30002 0
M  V30 3350 C 306.189 -2.70446 -2.03903 0
M  V30 3351 C 305.235 -3.89428 -1.7392 0
M  V30 3352 S 306.068 -5.28048 -0.890265 0
M  V30 3353 C 307.224 -5.87085 -2.16984 0
M  V30 3354 H 307.457 -2.96042 -0.273204 0
M  V30 3355 H 304.99 -1.54383 -0.0231975 0
M  V30 3356 H 306.948 -3.03134 -2.76803 0
M  V30 3357 H 305.609 -1.89281 -2.50662 0
M  V30 3358 H 304.802 -4.26742 -2.68155 0
M  V30 3359 H 304.404 -3.57732 -1.09103 0
M  V30 3360 H 306.696 -6.01244 -3.12269 0
M  V30 3361 H 307.639 -6.83747 -1.84108 0
M  V30 3362 H 308.047 -5.15663 -2.29678 0
M  V30 3363 N 307.445 0.0818655 -1.57387 0
M  V30 3364 C 308.378 1.12986 -1.98266 0
M  V30 3365 C 309.356 1.38123 -0.857954 0
M  V30 3366 O 310.54 1.51663 -1.1194 0
M  V30 3367 C 307.667 2.47632 -2.31076 0
M  V30 3368 C 306.713 2.38693 -3.53452 0
M  V30 3369 S 307.546 1.79071 -5.04672 0
M  V30 3370 C 308.702 3.15316 -5.40673 0
M  V30 3371 H 308.935 0.781435 -2.86846 0
M  V30 3372 H 306.468 0.290034 -1.51651 0
M  V30 3373 H 308.426 3.25089 -2.50654 0
M  V30 3374 H 307.087 2.79638 -1.43043 0
M  V30 3375 H 306.28 3.37964 -3.73893 0
M  V30 3376 H 305.882 1.69369 -3.33452 0
M  V30 3377 H 308.174 4.11613 -5.38127 0
M  V30 3378 H 309.117 2.99664 -6.41566 0
M  V30 3379 H 309.525 3.15457 -4.68132 0
M  V30 3380 N 308.923 1.53595 0.353017 0
M  V30 3381 C 310.17 1.70385 1.09431 0
M  V30 3382 C 310.498 0.462113 1.88931 0
M  V30 3383 O 309.753 -0.556074 1.87633 0
M  V30 3384 C 310.052 2.91313 2.07054 0
M  V30 3385 C 309.718 4.27308 1.43939 0
M  V30 3386 C 308.38 4.64287 1.26454 0
M  V30 3387 C 310.732 5.11829 0.983883 0
M  V30 3388 C 308.06 5.83412 0.620226 0
M  V30 3389 C 310.412 6.31611 0.353516 0
M  V30 3390 C 309.076 6.67293 0.166272 0
M  V30 3391 H 308.346 0.623484 0.400436 0
M  V30 3392 H 310.993 1.87799 0.374655 0
M  V30 3393 H 309.298 2.68463 2.85368 0
M  V30 3394 H 310.995 3.01497 2.64387 0
M  V30 3395 H 307.585 3.98198 1.58543 0
M  V30 3396 H 311.769 4.838 1.10685 0
M  V30 3397 H 307.025 6.09639 0.463681 0
M  V30 3398 H 311.199 6.964 -0.00757555 0
M  V30 3399 H 308.826 7.59461 -0.335047 0
M  V30 3400 N 310.401 -0.613514 1.45168 0
M  V30 3401 C 311.65 -1.36874 1.4815 0
M  V30 3402 C 311.963 -1.952 0.124982 0
M  V30 3403 O 313.169 -2.71481 0.0324176 0
M  V30 3404 C 311.625 -2.47905 2.60904 0
M  V30 3405 C 311.233 -1.96016 4.02842 0
M  V30 3406 C 312.977 -3.24965 2.73126 0
M  V30 3407 C 310.884 -3.04494 5.06988 0
M  V30 3408 H 309.814 -0.514428 0.551253 0
M  V30 3409 H 312.465 -0.658182 1.7129 0
M  V30 3410 H 310.847 -3.21618 2.31037 0
M  V30 3411 H 312.021 -1.29051 4.4236 0
M  V30 3412 H 310.336 -1.31719 3.95018 0
M  V30 3413 H 312.933 -4.05865 3.48106 0
M  V30 3414 H 313.276 -3.75588 1.79553 0
M  V30 3415 H 313.809 -2.5835 3.0249 0
M  V30 3416 H 310.548 -2.58795 6.0225 0
M  V30 3417 H 310.068 -3.70044 4.72046 0
M  V30 3418 H 311.747 -3.68976 5.31475 0
M  V30 3419 N 311.879 -1.3236 -0.855495 0
M  V30 3420 C 313.125 -1.24064 -1.61182 0
M  V30 3421 C 313.48 0.195914 -1.914 0
M  V30 3422 O 312.773 1.13345 -1.54478 0
M  V30 3423 C 312.967 -2.03275 -2.93963 0
M  V30 3424 C 312.796 -3.54486 -2.76712 0
M  V30 3425 C 311.566 -4.23824 -2.75139 0
M  V30 3426 C 313.764 -4.49154 -2.50531 0
M  V30 3427 N 311.746 -5.61095 -2.4909 0
M  V30 3428 C 313.117 -5.74195 -2.3388 0
M  V30 3429 C 315.172 -4.3842 -2.35992 0
M  V30 3430 C 313.875 -6.89716 -2.04168 0
M  V30 3431 C 315.901 -5.53739 -2.0767 0
M  V30 3432 C 315.263 -6.77779 -1.9182 0
M  V30 3433 H 311.362 -0.509139 -0.59355 0
M  V30 3434 H 313.946 -1.66715 -1.00569 0
M  V30 3435 H 312.117 -1.6297 -3.52555 0
M  V30 3436 H 313.849 -1.86881 -3.58967 0
M  V30 3437 H 310.604 -3.75934 -2.88047 0
M  V30 3438 H 311.028 -6.33411 -2.38996 0
M  V30 3439 H 315.67 -3.43172 -2.46967 0
M  V30 3440 H 313.388 -7.84977 -1.9193 0
M  V30 3441 H 316.974 -5.4736 -1.97201 0
M  V30 3442 H 315.854 -7.65504 -1.70217 0
M  V30 3443 N 313.357 1.07166 -1.15556 0
M  V30 3444 C 314.582 1.84053 -0.955988 0
M  V30 3445 C 315.007 1.81586 0.490739 0
M  V30 3446 O 314.365 1.21018 1.34997 0
M  V30 3447 C 314.413 3.28957 -1.47714 0
M  V30 3448 O 313.517 4.06795 -0.677593 0
M  V30 3449 H 312.858 0.569842 -0.340847 0
M  V30 3450 H 315.388 1.35178 -1.53584 0
M  V30 3451 H 315.398 3.79788 -1.4908 0
M  V30 3452 H 314.073 3.30068 -2.53037 0
M  V30 3453 H 312.65 3.6561 -0.733721 0
M  V30 3454 N 314.835 0.952656 1.25548 0
M  V30 3455 C 316.06 0.623025 1.97821 0
M  V30 3456 C 316.485 -0.7976 1.70352 0
M  V30 3457 O 315.843 -1.53905 0.958283 0
M  V30 3458 C 315.891 0.885532 3.49558 0
M  V30 3459 O 314.995 -0.0366641 4.12384 0
M  V30 3460 H 314.336 0.237082 0.620232 0
M  V30 3461 H 316.866 1.27871 1.59719 0
M  V30 3462 H 316.876 0.811009 3.99858 0
M  V30 3463 H 315.551 1.92094 3.6888 0
M  V30 3464 H 314.128 0.0898954 3.72792 0
M  V30 3465 N 316.313 -1.40141 0.720998 0
M  V30 3466 C 317.276 -2.29058 0.0805834 0
M  V30 3467 C 318.276 -1.45632 -0.681758 0
M  V30 3468 O 319.466 -1.6648 -0.512856 0
M  V30 3469 C 316.598 -3.28925 -0.895593 0
M  V30 3470 H 317.791 -2.87191 0.863793 0
M  V30 3471 H 315.344 -1.48553 0.485975 0
M  V30 3472 H 316.079 -2.75822 -1.70566 0
M  V30 3473 H 315.864 -3.90519 -0.351766 0
M  V30 3474 H 317.354 -3.95494 -1.34069 0
M  V30 3475 N 317.792 -0.46758 -1.50504 0
M  V30 3476 C 318.742 0.34698 -2.25344 0
M  V30 3477 C 319.726 0.964469 -1.2879 0
M  V30 3478 O 320.918 0.8776 -1.53711 0
M  V30 3479 C 318.047 1.43042 -3.1208 0
M  V30 3480 C 317.133 0.82084 -4.16081 0
M  V30 3481 N 317.524 -0.0567602 -5.05768 0
M  V30 3482 C 315.822 1.08517 -4.32597 0
M  V30 3483 C 316.523 -0.402343 -5.80307 0
M  V30 3484 N 315.499 0.221607 -5.43148 0
M  V30 3485 H 319.301 -0.329129 -2.92051 0
M  V30 3486 H 316.815 -0.281508 -1.59942 0
M  V30 3487 H 318.812 2.02712 -3.64299 0
M  V30 3488 H 317.472 2.10856 -2.46921 0
M  V30 3489 H 318.483 -0.425349 -5.1615 0
M  V30 3490 H 315.16 1.75855 -3.78657 0
M  V30 3491 H 316.55 -1.11834 -6.62528 0
M  V30 3492 N 319.27 1.56325 -0.20005 0
M  V30 3493 C 320.202 2.16555 0.750771 0
M  V30 3494 C 321.215 1.12871 1.1732 0
M  V30 3495 O 322.404 1.39943 1.10807 0
M  V30 3496 C 319.504 2.71684 2.02586 0
M  V30 3497 C 318.677 4.00321 1.76244 0
M  V30 3498 C 317.736 4.40227 2.88248 0
M  V30 3499 O 316.762 5.07552 2.57642 0
M  V30 3500 N 317.964 4.04138 4.16717 0
M  V30 3501 H 320.729 2.98772 0.235685 0
M  V30 3502 H 318.29 1.6189 -0.0182594 0
M  V30 3503 H 320.282 2.95363 2.76664 0
M  V30 3504 H 318.852 1.93893 2.45202 0
M  V30 3505 H 318.072 3.84723 0.85919 0
M  V30 3506 H 319.36 4.84279 1.56048 0
M  V30 3507 H 318.758 3.49993 4.44434 0
M  V30 3508 H 317.315 4.32756 4.87407 0
M  V30 3509 N 320.748 -0.0735177 1.57428 0
M  V30 3510 C 321.978 -0.78483 1.91112 0
M  V30 3511 C 322.386 -1.71729 0.7941 0
M  V30 3512 O 321.729 -1.82105 -0.241542 0
M  V30 3513 C 321.791 -1.63346 3.20247 0
M  V30 3514 C 321.455 -0.870557 4.48632 0
M  V30 3515 C 322.452 -0.19058 5.19551 0
M  V30 3516 C 320.137 -0.838242 4.95256 0
M  V30 3517 C 322.131 0.511503 6.35344 0
M  V30 3518 C 319.818 -0.132386 6.10957 0
M  V30 3519 C 320.816 0.541288 6.80852 0
M  V30 3520 O 320.504 1.23578 7.94345 0
M  V30 3521 H 320.236 -0.228408 0.636244 0
M  V30 3522 H 322.79 -0.0486039 2.05342 0
M  V30 3523 H 321.02 -2.41245 3.02222 0
M  V30 3524 H 322.709 -2.22329 3.39595 0
M  V30 3525 H 323.475 -0.206864 4.84559 0
M  V30 3526 H 319.354 -1.35206 4.40727 0
M  V30 3527 H 322.898 1.03789 6.89836 0
M  V30 3528 H 318.795 -0.114023 6.45399 0
M  V30 3529 H 319.563 1.14487 8.10454 0
M  V30 3530 N 322.226 -1.5378 -0.344866 0
M  V30 3531 C 323.173 -1.81676 -1.42346 0
M  V30 3532 C 324.143 -0.662376 -1.52321 0
M  V30 3533 O 325.328 -0.906675 -1.67881 0
M  V30 3534 C 322.468 -2.03087 -2.79015 0
M  V30 3535 C 321.581 -3.30799 -2.77842 0
M  V30 3536 C 320.716 -3.42285 -4.0622 0
M  V30 3537 C 319.755 -4.6395 -3.9927 0
M  V30 3538 N 318.892 -4.72477 -5.19336 0
M  V30 3539 H 323.732 -2.73703 -1.17858 0
M  V30 3540 H 321.269 -1.35568 -0.570949 0
M  V30 3541 H 323.227 -2.1349 -3.58438 0
M  V30 3542 H 321.857 -1.14375 -3.01858 0
M  V30 3543 H 320.909 -3.29244 -1.90533 0
M  V30 3544 H 322.221 -4.20314 -2.68584 0
M  V30 3545 H 321.375 -3.52113 -4.94066 0
M  V30 3546 H 320.114 -2.50823 -4.18258 0
M  V30 3547 H 319.119 -4.54201 -3.09809 0
M  V30 3548 H 320.344 -5.56775 -3.88817 0
M  V30 3549 H 318.29 -3.83924 -5.3192 0
M  V30 3550 H 318.207 -5.55927 -5.12329 0
M  V30 3551 H 319.475 -4.86613 -6.08957 0
M  V30 3552 N 323.704 0.605807 -1.45491 0
M  V30 3553 C 324.944 1.37606 -1.51142 0
M  V30 3554 C 325.308 1.91413 -0.150075 0
M  V30 3555 O 326.509 2.68677 -0.0812828 0
M  V30 3556 C 324.78 2.49197 -2.56195 0
M  V30 3557 S 326.339 3.36953 -2.81083 0
M  V30 3558 H 323.157 0.469118 -0.534275 0
M  V30 3559 H 325.759 0.698845 -1.82583 0
M  V30 3560 H 324.463 2.0802 -3.53773 0
M  V30 3561 H 323.994 3.21717 -2.26411 0
M  V30 3562 H 326.009 4.47395 -2.14598 0
M  V30 3563 N 325.182 1.32811 0.848464 0
M  V30 3564 C 326.132 1.18842 1.94578 0
M  V30 3565 C 327.116 0.0937517 1.60627 0
M  V30 3566 O 328.308 0.320887 1.74067 0
M  V30 3567 C 325.437 0.91999 3.30743 0
M  V30 3568 C 324.523 2.05665 3.70894 0
M  V30 3569 N 324.914 3.30579 3.8282 0
M  V30 3570 C 323.212 1.9612 4.00566 0
M  V30 3571 C 323.913 4.05067 4.17487 0
M  V30 3572 N 322.889 3.33419 4.2934 0
M  V30 3573 H 326.691 2.13536 2.0194 0
M  V30 3574 H 324.205 1.2468 1.0406 0
M  V30 3575 H 326.202 0.800859 4.09136 0
M  V30 3576 H 324.862 -0.0185076 3.24695 0
M  V30 3577 H 325.873 3.65441 3.66978 0
M  V30 3578 H 322.55 1.09871 4.02784 0
M  V30 3579 H 323.94 5.12815 4.34131 0
M  V30 3580 N 326.66 -1.06551 1.16123 0
M  V30 3581 C 327.906 -1.79567 0.94252 0
M  V30 3582 C 328.239 -1.86869 -0.528547 0
M  V30 3583 O 327.514 -1.35838 -1.39206 0
M  V30 3584 C 327.797 -3.24195 1.56747 0
M  V30 3585 C 327.65 -3.24989 3.10969 0
M  V30 3586 C 328.969 -4.21678 1.25998 0
M  V30 3587 H 326.088 -0.651883 0.343828 0
M  V30 3588 H 328.73 -1.2463 1.43413 0
M  V30 3589 H 326.88 -3.71107 1.14942 0
M  V30 3590 H 328.552 -2.86258 3.61737 0
M  V30 3591 H 326.795 -2.63716 3.44436 0
M  V30 3592 H 327.466 -4.27005 3.49815 0
M  V30 3593 H 329.942 -3.83196 1.62174 0
M  V30 3594 H 328.818 -5.21146 1.7233 0
M  V30 3595 H 329.079 -4.4174 0.178367 0
M  V30 3596 N 328.138 -0.959301 -1.25041 0
M  V30 3597 C 329.387 -0.612254 -1.92183 0
M  V30 3598 C 329.7 0.855347 -1.75907 0
M  V30 3599 O 330.906 1.31256 -2.37664 0
M  V30 3600 C 329.362 -1.04435 -3.44414 0
M  V30 3601 C 328.97 -2.53482 -3.69393 0
M  V30 3602 C 330.714 -0.770055 -4.17457 0
M  V30 3603 C 328.621 -2.90468 -5.15153 0
M  V30 3604 H 327.551 -0.225279 -0.719559 0
M  V30 3605 H 330.202 -1.16438 -1.41825 0
M  V30 3606 H 328.584 -0.4206 -3.9376 0
M  V30 3607 H 329.758 -3.20916 -3.30681 0
M  V30 3608 H 328.073 -2.78432 -3.0962 0
M  V30 3609 H 330.67 -1.02249 -5.24832 0
M  V30 3610 H 331.013 0.293611 -4.15263 0
M  V30 3611 H 331.546 -1.35437 -3.74034 0
M  V30 3612 H 328.285 -3.95871 -5.22462 0
M  V30 3613 H 327.805 -2.27711 -5.54894 0
M  V30 3614 H 329.484 -2.79914 -5.83315 0
M  V30 3615 N 329.616 1.39756 -0.72842 0
M  V30 3616 C 330.546 2.33289 -0.0991354 0
M  V30 3617 C 331.527 1.53568 0.731489 0
M  V30 3618 O 332.712 1.81987 0.677807 0
M  V30 3619 C 329.842 3.3763 0.813834 0
M  V30 3620 C 328.796 4.2791 0.0878663 0
M  V30 3621 C 328.122 5.22894 1.11741 0
M  V30 3622 C 329.422 5.11314 -1.06563 0
M  V30 3623 H 331.116 2.86163 -0.880408 0
M  V30 3624 H 328.662 1.37591 -0.424819 0
M  V30 3625 H 330.615 4.0201 1.26355 0
M  V30 3626 H 329.339 2.83181 1.62715 0
M  V30 3627 H 327.998 3.65 -0.342159 0
M  V30 3628 H 327.646 4.64744 1.92412 0
M  V30 3629 H 327.346 5.84143 0.636477 0
M  V30 3630 H 328.87 5.90151 1.56697 0
M  V30 3631 H 330.284 5.69076 -0.694671 0
M  V30 3632 H 328.681 5.81671 -1.47577 0
M  V30 3633 H 329.751 4.46534 -1.89038 0
M  V30 3634 N 331.094 0.475555 1.50254 0
M  V30 3635 C 332.342 -0.077738 2.0195 0
M  V30 3636 C 332.663 -1.39813 1.35931 0
M  V30 3637 O 331.933 -1.89249 0.506123 0
M  V30 3638 H 330.513 -0.031719 0.746326 0
M  V30 3639 H 333.175 0.626995 1.84539 0
M  V30 3640 H 332.271 -0.225995 3.11281 0
M  V30 3641 N 332.573 -1.56217 0.208337 0
M  V30 3642 C 333.521 -2.21053 -0.723769 0
M  V30 3643 C 334.515 -1.18578 -1.20978 0
M  V30 3644 O 335.721 -1.36691 -1.17114 0
M  V30 3645 H 332.096 -0.708595 -0.251788 0
M  V30 3646 H 334.067 -2.98006 -0.153365 0
M  V30 3647 C 332.816 -2.89417 -1.927 0
M  V30 3648 H 332.139 -3.68019 -1.56212 0
M  V30 3649 H 333.579 -3.38201 -2.55727 0
M  V30 3650 C 332.038 -1.91166 -2.77411 0
M  V30 3651 O 332.568 -1.42026 -3.75754 0
M  V30 3652 N 330.774 -1.59105 -2.43175 0
M  V30 3653 H 330.321 -1.99259 -1.63259 0
M  V30 3654 H 330.279 -0.936255 -3.00136 0
M  V30 3655 N 334.051 0.0651679 -1.57465 0
M  V30 3656 C 334.981 1.07693 -2.07182 0
M  V30 3657 C 335.962 1.39962 -0.966673 0
M  V30 3658 O 337.147 1.49475 -1.2398 0
M  V30 3659 C 334.277 2.3885 -2.52127 0
M  V30 3660 C 333.231 2.20917 -3.66579 0
M  V30 3661 C 332.557 3.57515 -3.97601 0
M  V30 3662 C 333.857 1.62493 -4.9638 0
M  V30 3663 H 335.551 0.663199 -2.91962 0
M  V30 3664 H 333.097 0.317569 -1.40455 0
M  V30 3665 H 335.05 3.09928 -2.85522 0
M  V30 3666 H 333.774 2.82215 -1.64384 0
M  V30 3667 H 332.433 1.52279 -3.33477 0
M  V30 3668 H 332.081 3.98463 -3.06979 0
M  V30 3669 H 331.781 3.46353 -4.74672 0
M  V30 3670 H 333.305 4.30013 -4.33499 0
M  V30 3671 H 334.719 2.23445 -5.27963 0
M  V30 3672 H 333.116 1.62009 -5.77818 0
M  V30 3673 H 334.186 0.587041 -4.81333 0
M  V30 3674 N 335.529 1.53961 0.336706 0
M  V30 3675 C 336.945 1.44378 0.680241 0
M  V30 3676 C 337.145 0.606034 1.9217 0
M  V30 3677 O 336.201 0.099688 2.52303 0
M  V30 3678 C 337.514 2.87945 0.8665 0
M  V30 3679 C 339.062 2.97763 0.964682 0
M  V30 3680 C 339.537 4.42453 1.18321 0
M  V30 3681 N 341.028 4.46008 1.25025 0
M  V30 3682 C 341.763 5.55102 1.43697 0
M  V30 3683 N 341.259 6.7419 1.59498 0
M  V30 3684 N 343.052 5.42727 1.463 0
M  V30 3685 H 335.203 2.06918 -0.479455 0
M  V30 3686 H 337.466 0.935634 -0.152619 0
M  V30 3687 H 337.172 3.51691 0.0256937 0
M  V30 3688 H 337.046 3.33293 1.76623 0
M  V30 3689 H 339.433 2.34153 1.796 0
M  V30 3690 H 339.514 2.55766 0.041708 0
M  V30 3691 H 339.158 5.06645 0.356788 0
M  V30 3692 H 339.088 4.82048 2.11985 0
M  V30 3693 H 341.579 3.60196 1.14312 0
M  V30 3694 H 341.892 7.53095 1.734 0
M  V30 3695 H 340.237 6.77123 1.56621 0
M  V30 3696 H 343.428 4.48647 1.33543 0
M  V30 3697 H 343.601 6.27806 1.6051 0
M  V30 3698 N 337.007 -0.598083 1.45811 0
M  V30 3699 C 337.954 -1.7082 1.55207 0
M  V30 3700 C 338.924 -1.61278 0.39732 0
M  V30 3701 O 340.109 -1.80717 0.612038 0
M  V30 3702 C 337.249 -3.09144 1.53376 0
M  V30 3703 C 336.362 -3.29423 2.79472 0
M  V30 3704 C 335.497 -4.57907 2.69248 0
M  V30 3705 C 334.536 -4.71476 3.90354 0
M  V30 3706 N 333.673 -5.9127 3.78608 0
M  V30 3707 H 338.513 -1.62125 2.50039 0
M  V30 3708 H 336.05 -0.790389 1.24062 0
M  V30 3709 H 338.008 -3.89186 1.50301 0
M  V30 3710 H 336.638 -3.16773 0.620876 0
M  V30 3711 H 335.69 -2.43091 2.92594 0
M  V30 3712 H 337.002 -3.3532 3.69272 0
M  V30 3713 H 336.156 -5.46157 2.64192 0
M  V30 3714 H 334.895 -4.54423 1.77063 0
M  V30 3715 H 333.9 -3.81648 3.95759 0
M  V30 3716 H 335.125 -4.76751 4.83617 0
M  V30 3717 H 333.071 -5.88813 2.89199 0
M  V30 3718 H 332.988 -5.98369 4.6205 0
M  V30 3719 H 334.256 -6.81992 3.77501 0
M  V30 3720 N 338.485 -1.33259 -0.841409 0
M  V30 3721 C 339.433 -1.23279 -1.97244 0
M  V30 3722 C 340.427 -0.134706 -1.68864 0
M  V30 3723 O 341.633 -0.298501 -1.77508 0
M  V30 3724 H 338.008 -0.382497 -0.647457 0
M  V30 3725 H 339.979 -2.18906 -2.02787 0
M  V30 3726 C 338.728 -0.986268 -3.33419 0
M  V30 3727 H 338.051 -1.82347 -3.55794 0
M  V30 3728 H 339.491 -0.956728 -4.13065 0
M  V30 3729 C 337.95 0.310842 -3.35463 0
M  V30 3730 O 338.48 1.31838 -3.79449 0
M  V30 3731 N 336.686 0.337485 -2.88634 0
M  V30 3732 H 336.233 -0.482967 -2.53032 0
M  V30 3733 H 336.191 1.20518 -2.90384 0
M  V30 3734 N 339.963 1.05934 -1.16686 0
M  V30 3735 C 340.91 2.13499 -0.876748 0
M  V30 3736 C 341.88 1.65162 0.176299 0
M  V30 3737 O 343.065 1.90757 0.0407143 0
M  V30 3738 C 340.205 3.42912 -0.387967 0
M  V30 3739 C 339.318 4.04964 -1.50426 0
M  V30 3740 C 338.453 5.22266 -0.970125 0
M  V30 3741 C 337.492 5.76309 -2.06238 0
M  V30 3742 N 336.629 6.84922 -1.54356 0
M  V30 3743 H 341.469 2.37654 -1.7979 0
M  V30 3744 H 339.006 1.16598 -0.896843 0
M  V30 3745 H 340.964 4.17111 -0.086186 0
M  V30 3746 H 339.594 3.18963 0.496235 0
M  V30 3747 H 338.646 3.28277 -1.92193 0
M  V30 3748 H 339.958 4.41122 -2.32836 0
M  V30 3749 H 339.112 6.03506 -0.621743 0
M  V30 3750 H 337.851 4.87564 -0.115377 0
M  V30 3751 H 336.856 4.93704 -2.41942 0
M  V30 3752 H 338.081 6.13062 -2.92115 0
M  V30 3753 H 336.027 6.52131 -0.711406 0
M  V30 3754 H 335.944 7.20043 -2.30379 0
M  V30 3755 H 337.212 7.69832 -1.22387 0
M  V30 3756 N 341.441 0.965919 1.2453 0
M  V30 3757 C 342.404 0.499547 2.2369 0
M  V30 3758 C 343.404 -0.40294 1.5567 0
M  V30 3759 O 344.594 -0.19865 1.73064 0
M  V30 3760 C 341.726 -0.276792 3.39774 0
M  V30 3761 H 342.919 1.37613 2.66463 0
M  V30 3762 H 340.472 0.750324 1.37112 0
M  V30 3763 H 341.207 -1.17055 3.02438 0
M  V30 3764 H 340.992 0.370826 3.90343 0
M  V30 3765 H 342.482 -0.592175 4.1338 0
M  V30 3766 N 342.919 -1.39368 0.735821 0
M  V30 3767 C 344.167 -2.00101 0.283562 0
M  V30 3768 C 344.488 -1.5868 -1.13338 0
M  V30 3769 O 343.758 -0.835423 -1.77193 0
M  V30 3770 H 342.338 -0.740024 0.101851 0
M  V30 3771 H 345 -1.70404 0.945962 0
M  V30 3772 H 344.096 -3.10323 0.332604 0
M  V30 3773 N 344.397 -0.483516 -1.5 0
M  V30 3774 C 345.643 0.0672592 -2.02688 0
M  V30 3775 C 345.976 1.38247 -1.36387 0
M  V30 3776 O 345.251 1.88131 -0.493675 0
M  V30 3777 C 345.534 0.238109 -3.59312 0
M  V30 3778 C 345.387 -1.099 -4.36168 0
M  V30 3779 C 346.706 0.986916 -4.28892 0
M  V30 3780 H 343.825 0.0229696 -0.736642 0
M  V30 3781 H 346.467 -0.631527 -1.79197 0
M  V30 3782 H 344.617 0.8333 -3.79458 0
M  V30 3783 H 346.289 -1.73172 -4.27562 0
M  V30 3784 H 344.532 -1.69261 -3.99416 0
M  V30 3785 H 345.203 -0.932954 -5.44059 0
M  V30 3786 H 347.679 0.482302 -4.13295 0
M  V30 3787 H 346.555 1.07527 -5.38265 0
M  V30 3788 H 346.816 2.0265 -3.92919 0
M  V30 3789 N 345.875 1.56104 -0.216619 0
M  V30 3790 C 347.121 1.98466 0.417033 0
M  V30 3791 C 347.454 1.10403 1.59765 0
M  V30 3792 O 346.729 0.160632 1.93836 0
M  V30 3793 C 347.012 3.49769 0.85637 0
M  V30 3794 C 346.865 4.48606 -0.327546 0
M  V30 3795 C 348.184 4.05339 1.7143 0
M  V30 3796 H 345.303 0.721551 0.150112 0
M  V30 3797 H 347.945 1.87423 -0.311864 0
M  V30 3798 H 346.095 3.5931 1.47745 0
M  V30 3799 H 347.767 4.5108 -0.965618 0
M  V30 3800 H 346.01 4.22682 -0.975805 0
M  V30 3801 H 346.681 5.51995 0.0227149 0
M  V30 3802 H 349.157 3.98712 1.19031 0
M  V30 3803 H 348.033 5.11533 1.99061 0
M  V30 3804 H 348.294 3.51918 2.67593 0
M  V30 3805 N 347.353 -0.0568162 1.57498 0
M  V30 3806 C 348.602 -0.752001 1.87157 0
M  V30 3807 C 348.915 -1.77978 0.811375 0
M  V30 3808 O 350.121 -2.52559 0.996293 0
M  V30 3809 C 348.577 -1.38844 3.3204 0
M  V30 3810 C 348.185 -0.398456 4.46225 0
M  V30 3811 C 349.929 -2.06512 3.70882 0
M  V30 3812 C 347.836 -1.04166 5.82154 0
M  V30 3813 H 346.766 -0.28461 0.698222 0
M  V30 3814 H 349.417 -0.00561272 1.83499 0
M  V30 3815 H 347.799 -2.1836 3.30356 0
M  V30 3816 H 348.973 0.367977 4.59328 0
M  V30 3817 H 347.288 0.174592 4.16034 0
M  V30 3818 H 349.885 -2.55437 4.6974 0
M  V30 3819 H 350.228 -2.87117 3.01445 0
M  V30 3820 H 350.761 -1.33808 3.7462 0
M  V30 3821 H 347.5 -0.275614 6.5492 0
M  V30 3822 H 347.02 -1.7786 5.72823 0
M  V30 3823 H 348.699 -1.55715 6.27982 0
M  V30 3824 N 348.832 -1.54138 -0.328536 0
M  V30 3825 C 349.782 -1.79557 -1.4051 0
M  V30 3826 C 350.766 -0.651373 -1.47126 0
M  V30 3827 O 351.958 -0.911226 -1.51742 0
M  V30 3828 C 349.087 -2.02196 -2.77438 0
M  V30 3829 C 348.173 -3.22724 -2.75155 0
M  V30 3830 N 348.564 -4.43881 -2.42494 0
M  V30 3831 C 346.862 -3.24196 -3.06289 0
M  V30 3832 C 347.563 -5.25797 -2.48822 0
M  V30 3833 N 346.539 -4.62862 -2.8506 0
M  V30 3834 H 350.341 -2.70814 -1.1418 0
M  V30 3835 H 347.855 -1.53265 -0.536991 0
M  V30 3836 H 349.852 -2.18546 -3.55026 0
M  V30 3837 H 348.512 -1.12191 -3.04702 0
M  V30 3838 H 349.523 -4.70969 -2.15428 0
M  V30 3839 H 346.2 -2.44208 -3.38627 0
M  V30 3840 H 347.59 -6.32535 -2.26603 0
M  V30 3841 N 350.31 0.590341 -1.46126 0
M  V30 3842 C 351.55 1.35995 -1.52593 0
M  V30 3843 C 351.914 1.91243 -0.170368 0
M  V30 3844 O 353.115 2.68576 -0.109775 0
M  V30 3845 C 351.386 2.46465 -2.58823 0
M  V30 3846 S 352.945 3.33953 -2.84641 0
M  V30 3847 H 349.763 0.463425 -0.53922 0
M  V30 3848 H 352.365 0.67944 -1.83314 0
M  V30 3849 H 351.069 2.04256 -3.5596 0
M  V30 3850 H 350.6 3.19297 -2.2981 0
M  V30 3851 H 352.615 4.45094 -2.19331 0
M  V30 3852 N 351.788 1.33704 0.83433 0
M  V30 3853 C 352.736 1.24323 1.96587 0
M  V30 3854 C 353.73 0.143659 1.6879 0
M  V30 3855 O 354.936 0.30791 1.77347 0
M  V30 3856 H 351.311 0.385925 0.645419 0
M  V30 3857 H 353.282 2.19978 2.01624 0
M  V30 3858 C 352.031 1.00394 3.32891 0
M  V30 3859 H 351.354 1.84231 3.54822 0
M  V30 3860 H 352.794 0.97862 4.12552 0
M  V30 3861 C 351.253 -0.293047 3.35623 0
M  V30 3862 O 351.783 -1.29823 3.80143 0
M  V30 3863 N 349.989 -0.322174 2.88809 0
M  V30 3864 H 349.536 0.496379 2.52772 0
M  V30 3865 H 349.494 -1.18977 2.91019 0
M  V30 3866 N 353.266 -1.05314 1.17247 0
M  V30 3867 C 354.216 -2.11313 0.856196 0
M  V30 3868 C 355.2 -1.60013 -0.168694 0
M  V30 3869 O 356.392 -1.76968 0.0335624 0
M  V30 3870 C 353.521 -3.41301 0.369917 0
M  V30 3871 C 352.607 -3.99401 1.42616 0
M  V30 3872 N 352.998 -4.31481 2.63928 0
M  V30 3873 C 351.296 -4.27126 1.28373 0
M  V30 3874 C 351.997 -4.77799 3.31787 0
M  V30 3875 N 350.973 -4.77843 2.59166 0
M  V30 3876 H 354.775 -2.33976 1.77856 0
M  V30 3877 H 352.289 -1.2295 1.06099 0
M  V30 3878 H 354.286 -4.16713 0.124897 0
M  V30 3879 H 352.946 -3.20072 -0.546253 0
M  V30 3880 H 353.957 -4.21519 3.00902 0
M  V30 3881 H 350.634 -4.15289 0.429111 0
M  V30 3882 H 352.024 -5.11743 4.35395 0
M  V30 3883 N 354.744 -0.972509 -1.24016 0
M  V30 3884 C 356.16 -0.679827 -1.44397 0
M  V30 3885 C 356.36 0.756716 -1.86751 0
M  V30 3886 O 355.416 1.53007 -2.00861 0
M  V30 3887 C 356.729 -1.66803 -2.50195 0
M  V30 3888 C 358.277 -1.68119 -2.64017 0
M  V30 3889 C 358.752 -2.65748 -3.73017 0
M  V30 3890 N 360.243 -2.64219 -3.8045 0
M  V30 3891 C 360.978 -3.36433 -4.64328 0
M  V30 3892 N 360.474 -4.1818 -5.52356 0
M  V30 3893 N 362.267 -3.25235 -4.58453 0
M  V30 3894 H 354.418 -1.90059 -0.948228 0
M  V30 3895 H 356.681 -0.818527 -0.478245 0
M  V30 3896 H 356.387 -2.69498 -2.25973 0
M  V30 3897 H 356.261 -1.4446 -3.48441 0
M  V30 3898 H 358.648 -0.661319 -2.87594 0
M  V30 3899 H 358.729 -1.94525 -1.66113 0
M  V30 3900 H 358.373 -3.67872 -3.50189 0
M  V30 3901 H 358.303 -2.36619 -4.70446 0
M  V30 3902 H 360.794 -2.04887 -3.17537 0
M  V30 3903 H 361.107 -4.70157 -6.13329 0
M  V30 3904 H 359.452 -4.22273 -5.52006 0
M  V30 3905 H 362.643 -2.60829 -3.88698 0
M  V30 3906 H 362.816 -3.81776 -5.23594 0
M  V30 3907 N 356.222 1.38976 -0.743202 0
M  V30 3908 C 357.471 1.99581 -0.291592 0
M  V30 3909 C 357.784 1.59656 1.13001 0
M  V30 3910 O 358.99 2.13157 1.68156 0
M  V30 3911 C 357.446 3.56813 -0.470391 0
M  V30 3912 C 357.054 4.05695 -1.90041 0
M  V30 3913 C 358.798 4.24423 -0.0809709 0
M  V30 3914 C 356.705 5.5553 -2.02832 0
M  V30 3915 H 355.635 0.746615 -0.105272 0
M  V30 3916 H 358.286 1.58872 -0.918258 0
M  V30 3917 H 356.668 3.95359 0.225299 0
M  V30 3918 H 357.842 3.78464 -2.62872 0
M  V30 3919 H 356.157 3.50775 -2.24379 0
M  V30 3920 H 358.754 5.34474 -0.155445 0
M  V30 3921 H 359.097 4.04962 0.96497 0
M  V30 3922 H 359.63 3.9108 -0.728124 0
M  V30 3923 H 356.369 5.79881 -3.05643 0
M  V30 3924 H 355.889 5.84537 -1.34448 0
M  V30 3925 H 357.568 6.21069 -1.81335 0
M  V30 3926 N 357.7 0.491464 1.49741 0
M  V30 3927 C 359.111 0.0413169 1.86654 0
M  V30 3928 C 359.462 -1.36985 1.40462 0
M  V30 3929 O 358.587 -2.01917 0.778354 0
M  V30 3930 C 359.182 0.0682023 3.38731 0
M  V30 3931 C 357.741 -0.32656 3.74981 0
M  V30 3932 C 356.888 0.444888 2.73708 0
M  V30 3933 H 359.839 0.704733 1.42194 0
M  V30 3934 H 359.86 -0.729322 3.73445 0
M  V30 3935 H 359.372 1.09539 3.72321 0
M  V30 3936 H 357.473 -1.35734 3.46997 0
M  V30 3937 H 357.586 -0.013741 4.79098 0
M  V30 3938 H 355.95 -0.104062 2.54487 0
M  V30 3939 H 356.733 1.47197 3.10142 0
M  V30 3940 N 359.178 -1.55987 0.224894 0
M  V30 3941 C 360.425 -1.9839 -0.4059 0
M  V30 3942 C 360.753 -1.11261 -1.59535 0
M  V30 3943 O 360.008 -0.158314 -1.95059 0
M  V30 3944 C 360.307 -3.46394 -0.880106 0
M  V30 3945 C 359.973 -4.5046 0.19918 0
M  V30 3946 C 358.635 -4.7864 0.495661 0
M  V30 3947 C 360.987 -5.12855 0.928939 0
M  V30 3948 C 358.315 -5.66497 1.52636 0
M  V30 3949 C 360.667 -6.01828 1.949 0
M  V30 3950 C 359.331 -6.28351 2.25236 0
M  V30 3951 H 358.601 -0.725961 -0.148529 0
M  V30 3952 H 361.248 -1.88668 0.328113 0
M  V30 3953 H 359.553 -3.53337 -1.69294 0
M  V30 3954 H 361.25 -3.76577 -1.37808 0
M  V30 3955 H 357.84 -4.28579 -0.0420526 0
M  V30 3956 H 362.024 -4.9115 0.713129 0
M  V30 3957 H 357.28 -5.8531 1.76698 0
M  V30 3958 H 361.454 -6.49225 2.51951 0
M  V30 3959 H 359.081 -6.96226 3.05244 0
M  V30 3960 N 360.656 0.0484629 -1.57525 0
M  V30 3961 C 361.904 0.741657 -1.88 0
M  V30 3962 C 362.225 1.76918 -0.820054 0
M  V30 3963 O 361.495 1.95335 0.148661 0
M  V30 3964 H 360.075 0.276908 -0.69378 0
M  V30 3965 H 362.737 0.019013 -1.94891 0
M  V30 3966 H 361.833 1.24336 -2.86264 0
M  V30 3967 N 362.134 1.5431 0.320358 0
M  V30 3968 C 363.411 1.63322 1.07635 0
M  V30 3969 C 363.791 0.46912 2.05821 0
M  V30 3970 O 363.139 -0.536274 2.22118 0
M  V30 3971 C 363.349 3.00465 1.77544 0
M  V30 3972 C 364.697 3.56621 2.30449 0
M  V30 3973 O 365.721 3.02791 1.87606 0
M  V30 3974 O 364.58 4.5083 3.08892 0
M  V30 3975 H 361.674 0.661502 0.496331 0
M  V30 3976 H 364.22 1.66656 0.319992 0
M  V30 3977 H 362.992 3.76629 1.06143 0
M  V30 3978 H 362.615 3.00824 2.59982 0
M  V30 3979 N 363.613 -0.582584 1.46437 0
M  V30 3980 C 364.859 -1.34064 1.52965 0
M  V30 3981 C 365.214 -1.91566 0.178968 0
M  V30 3982 O 364.507 -1.73526 -0.812365 0
M  V30 3983 C 364.701 -2.48964 2.56421 0
M  V30 3984 C 364.53 -2.02717 4.01417 0
M  V30 3985 C 363.3 -1.87728 4.69134 0
M  V30 3986 C 365.498 -1.58675 4.8921 0
M  V30 3987 N 363.48 -1.35554 5.98747 0
M  V30 3988 C 364.851 -1.18093 6.08649 0
M  V30 3989 C 366.906 -1.46494 4.75861 0
M  V30 3990 C 365.609 -0.665427 7.16215 0
M  V30 3991 C 367.635 -0.96347 5.83499 0
M  V30 3992 C 366.997 -0.567432 7.02111 0
M  V30 3993 H 363.096 -0.483551 0.614575 0
M  V30 3994 H 365.68 -0.663309 1.83053 0
M  V30 3995 H 363.851 -3.1426 2.28244 0
M  V30 3996 H 365.583 -3.15913 2.52944 0
M  V30 3997 H 362.338 -2.09678 4.24655 0
M  V30 3998 H 362.762 -1.11628 6.67734 0
M  V30 3999 H 367.404 -1.75731 3.8455 0
M  V30 4000 H 365.122 -0.360639 8.07295 0
M  V30 4001 H 368.708 -0.873129 5.75211 0
M  V30 4002 H 367.588 -0.185389 7.83981 0
M  V30 4003 N 365.091 -1.34144 -0.827227 0
M  V30 4004 C 366.338 -1.26258 -1.58319 0
M  V30 4005 C 366.666 0.168595 -1.93768 0
M  V30 4006 O 365.921 1.12877 -1.59866 0
M  V30 4007 C 366.22 -2.09464 -2.89585 0
M  V30 4008 C 365.886 -3.58521 -2.73448 0
M  V30 4009 C 364.548 -3.99155 -2.68754 0
M  V30 4010 C 366.9 -4.53189 -2.57428 0
M  V30 4011 C 364.228 -5.32656 -2.45957 0
M  V30 4012 C 366.58 -5.86864 -2.36163 0
M  V30 4013 C 365.244 -6.26667 -2.29879 0
M  V30 4014 H 364.514 -0.462013 -0.579332 0
M  V30 4015 H 367.161 -1.65845 -0.95748 0
M  V30 4016 H 365.466 -1.62692 -3.56425 0
M  V30 4017 H 367.163 -2.00712 -3.47154 0
M  V30 4018 H 363.753 -3.26264 -2.77939 0
M  V30 4019 H 367.937 -4.22696 -2.60081 0
M  V30 4020 H 363.193 -5.62519 -2.39546 0
M  V30 4021 H 367.367 -6.59813 -2.22754 0
M  V30 4022 H 364.994 -7.30049 -2.11975 0
M  V30 4023 N 366.569 1.04691 -1.17803 0
M  V30 4024 C 367.479 2.16057 -0.914151 0
M  V30 4025 C 368.495 1.73589 0.119503 0
M  V30 4026 O 369.671 2.01308 -0.0609468 0
M  V30 4027 C 366.736 3.4394 -0.436603 0
M  V30 4028 C 365.797 4.00825 -1.53746 0
M  V30 4029 C 365.03 5.22604 -1.0826 0
M  V30 4030 O 365.253 5.70367 0.0612244 0
M  V30 4031 O 364.187 5.7186 -1.87775 0
M  V30 4032 H 368.013 2.41169 -1.84584 0
M  V30 4033 H 365.598 1.1453 -0.959334 0
M  V30 4034 H 367.48 4.21024 -0.178057 0
M  V30 4035 H 366.155 3.20316 0.466869 0
M  V30 4036 H 365.062 3.25158 -1.84995 0
M  V30 4037 H 366.395 4.28778 -2.41683 0
M  V30 4038 N 368.047 0.979072 1.23499 0
M  V30 4039 C 369.277 0.664237 1.95631 0
M  V30 4040 C 369.685 -0.772653 1.72704 0
M  V30 4041 O 369.028 -1.53141 1.01457 0
M  V30 4042 C 369.09 0.873115 3.48736 0
M  V30 4043 C 368.754 2.29182 3.95379 0
M  V30 4044 C 369.751 3.2704 4.04155 0
M  V30 4045 C 367.436 2.62256 4.28401 0
M  V30 4046 C 369.43 4.56052 4.45304 0
M  V30 4047 C 367.117 3.91491 4.69231 0
M  V30 4048 C 368.115 4.88201 4.77649 0
M  V30 4049 O 367.803 6.15129 5.17563 0
M  V30 4050 H 367.535 0.245915 0.629684 0
M  V30 4051 H 370.089 1.3127 1.57979 0
M  V30 4052 H 368.319 0.167476 3.86337 0
M  V30 4053 H 370.008 0.555642 4.02079 0
M  V30 4054 H 370.774 3.02819 3.78848 0
M  V30 4055 H 366.653 1.87692 4.21061 0
M  V30 4056 H 370.197 5.31538 4.51789 0
M  V30 4057 H 366.094 4.15508 4.93987 0
M  V30 4058 H 366.862 6.18862 5.35679 0
M  V30 4059 N 369.525 -1.3858 0.750561 0
M  V30 4060 C 370.771 -2.00481 0.305825 0
M  V30 4061 C 371.104 -1.5944 -1.10872 0
M  V30 4062 O 370.379 -0.83052 -1.75877 0
M  V30 4063 C 370.662 -3.5758 0.425287 0
M  V30 4064 C 370.515 -4.08594 1.88072 0
M  V30 4065 C 371.834 -4.39719 -0.183122 0
M  V30 4066 H 368.953 -0.728348 0.112598 0
M  V30 4067 H 371.595 -1.64566 0.949638 0
M  V30 4068 H 369.745 -3.88306 -0.122828 0
M  V30 4069 H 371.417 -3.88523 2.48691 0
M  V30 4070 H 369.66 -3.61574 2.39681 0
M  V30 4071 H 370.331 -5.177 1.91548 0
M  V30 4072 H 372.807 -4.15128 0.284303 0
M  V30 4073 H 371.683 -5.48856 -0.0692757 0
M  V30 4074 H 371.944 -4.23434 -1.27106 0
M  V30 4075 N 371.003 -0.499398 -1.49478 0
M  V30 4076 C 372.228 0.044722 -2.07352 0
M  V30 4077 C 372.653 1.30207 -1.35749 0
M  V30 4078 O 372.011 1.76516 -0.413732 0
M  V30 4079 C 372.059 0.283013 -3.59488 0
M  V30 4080 O 371.163 1.35804 -3.89398 0
M  V30 4081 H 370.504 -0.0255147 -0.66351 0
M  V30 4082 H 373.034 -0.698561 -1.92305 0
M  V30 4083 H 373.044 0.515007 -4.04737 0
M  V30 4084 H 371.719 -0.635636 -4.11014 0
M  V30 4085 H 370.296 1.11113 -3.55961 0
M  V30 4086 N 372.481 1.55866 -0.233164 0
M  V30 4087 C 373.706 2.03449 0.402906 0
M  V30 4088 C 374.131 1.11166 1.51736 0
M  V30 4089 O 373.489 0.101996 1.81013 0
M  V30 4090 C 373.537 3.49165 0.9009 0
M  V30 4091 O 372.641 3.60019 2.01147 0
M  V30 4092 H 371.982 0.657913 0.0897025 0
M  V30 4093 H 374.512 2.01493 -0.355201 0
M  V30 4094 H 374.522 3.89716 1.2077 0
M  V30 4095 H 373.197 4.15813 0.0852889 0
M  V30 4096 H 371.774 3.3136 1.71042 0
M  V30 4097 N 373.959 -0.0401083 1.57549 0
M  V30 4098 C 375.37 -0.588097 1.77196 0
M  V30 4099 C 375.721 -1.76209 0.862832 0
M  V30 4100 O 374.846 -2.16331 0.0548389 0
M  V30 4101 C 375.441 -1.07363 3.21339 0
M  V30 4102 C 374 -1.56723 3.42221 0
M  V30 4103 C 373.147 -0.50041 2.72747 0
M  V30 4104 H 376.098 0.186119 1.57605 0
M  V30 4105 H 376.119 -1.94143 3.27244 0
M  V30 4106 H 375.631 -0.218975 3.87482 0
M  V30 4107 H 373.732 -2.4441 2.81237 0
M  V30 4108 H 373.845 -1.62234 4.50796 0
M  V30 4109 H 372.209 -0.952894 2.36203 0
M  V30 4110 H 372.992 0.344599 3.41566 0
M  V30 4111 N 375.437 -1.54477 -0.31217 0
M  V30 4112 C 376.385 -1.85395 -1.40469 0
M  V30 4113 C 377.379 -0.726749 -1.53019 0
M  V30 4114 O 378.585 -0.910582 -1.55269 0
M  V30 4115 H 374.96 -0.587845 -0.46898 0
M  V30 4116 H 376.931 -2.76736 -1.11623 0
M  V30 4117 C 375.68 -2.10811 -2.76503 0
M  V30 4118 H 375.003 -2.97014 -2.67625 0
M  V30 4119 H 376.443 -2.3639 -3.51988 0
M  V30 4120 C 374.902 -0.903165 -3.24568 0
M  V30 4121 O 375.432 -0.118085 -4.01526 0
M  V30 4122 N 373.638 -0.711634 -2.81752 0
M  V30 4123 H 373.185 -1.35171 -2.19286 0
M  V30 4124 H 373.143 0.0930473 -3.14262 0
M  V30 4125 N 376.915 0.57481 -1.46744 0
M  V30 4126 C 378.145 1.35659 -1.55821 0
M  V30 4127 C 378.553 1.88129 -0.201036 0
M  V30 4128 O 377.896 1.64723 0.813134 0
M  V30 4129 C 377.958 2.57473 -2.50894 0
M  V30 4130 C 377.622 2.26415 -3.9697 0
M  V30 4131 C 378.619 1.84771 -4.85958 0
M  V30 4132 C 376.304 2.38316 -4.42166 0
M  V30 4133 C 378.298 1.55434 -6.18158 0
M  V30 4134 C 375.985 2.08591 -5.74398 0
M  V30 4135 C 376.983 1.67216 -6.62214 0
M  V30 4136 O 376.671 1.37859 -7.91991 0
M  V30 4137 H 376.403 0.420496 -0.529301 0
M  V30 4138 H 378.957 0.704967 -1.92923 0
M  V30 4139 H 377.187 3.25468 -2.08824 0
M  V30 4140 H 378.876 3.19546 -2.50291 0
M  V30 4141 H 379.642 1.75085 -4.52295 0
M  V30 4142 H 375.521 2.69483 -3.74032 0
M  V30 4143 H 379.065 1.23065 -6.86659 0
M  V30 4144 H 374.962 2.17905 -6.07608 0
M  V30 4145 H 375.73 1.51638 -8.04331 0
M  V30 4146 N 378.394 1.34581 0.820102 0
M  V30 4147 C 379.324 1.29038 1.94606 0
M  V30 4148 C 380.305 0.1673 1.69275 0
M  V30 4149 O 381.49 0.360112 1.90832 0
M  V30 4150 C 378.62 1.04793 3.31113 0
M  V30 4151 C 377.574 2.13597 3.70891 0
M  V30 4152 C 376.9 1.74537 5.05412 0
M  V30 4153 C 378.2 3.55451 3.8269 0
M  V30 4154 H 379.894 2.23248 1.99501 0
M  V30 4155 H 377.44 1.0747 0.958449 0
M  V30 4156 H 379.393 0.995592 4.0947 0
M  V30 4157 H 378.117 0.0702565 3.26524 0
M  V30 4158 H 376.776 2.17905 2.9481 0
M  V30 4159 H 376.424 0.754226 4.97313 0
M  V30 4160 H 376.124 2.47361 5.32997 0
M  V30 4161 H 377.648 1.70803 5.86224 0
M  V30 4162 H 379.062 3.5354 4.51312 0
M  V30 4163 H 377.459 4.26922 4.21732 0
M  V30 4164 H 378.529 3.92587 2.84611 0
M  V30 4165 N 379.872 -1.04064 1.18357 0
M  V30 4166 C 380.835 -2.10243 0.912707 0
M  V30 4167 C 381.835 -1.60477 -0.101928 0
M  V30 4168 O 383.025 -1.73703 0.131517 0
M  V30 4169 C 380.157 -3.38893 0.369387 0
M  V30 4170 H 381.35 -2.35706 1.85426 0
M  V30 4171 H 378.903 -1.20489 0.995594 0
M  V30 4172 H 379.638 -3.19094 -0.578776 0
M  V30 4173 H 379.423 -3.76331 1.1008 0
M  V30 4174 H 380.913 -4.17128 0.198575 0
M  V30 4175 N 381.35 -0.985608 -1.22978 0
M  V30 4176 C 382.26 -0.538548 -2.28335 0
M  V30 4177 C 383.276 0.409163 -1.69121 0
M  V30 4178 O 384.452 0.277797 -1.99475 0
M  V30 4179 C 381.517 0.146867 -3.46389 0
M  V30 4180 C 380.578 -0.842896 -4.20944 0
M  V30 4181 C 379.811 -0.190095 -5.33361 0
M  V30 4182 O 380.034 1.01767 -5.61248 0
M  V30 4183 O 378.968 -0.891289 -5.95264 0
M  V30 4184 H 382.794 -1.41487 -2.68729 0
M  V30 4185 H 380.379 -0.753495 -1.29007 0
M  V30 4186 H 382.261 0.531125 -4.1804 0
M  V30 4187 H 380.936 0.997871 -3.07935 0
M  V30 4188 H 379.843 -1.27795 -3.51595 0
M  V30 4189 H 381.176 -1.66287 -4.6326 0
M  V30 4190 N 382.828 1.3818 -0.7579 0
M  V30 4191 C 383.758 2.33027 -0.148597 0
M  V30 4192 C 384.739 1.55085 0.69875 0
M  V30 4193 O 385.924 1.83384 0.639053 0
M  V30 4194 C 383.054 3.3928 0.742034 0
M  V30 4195 C 382.008 4.28 -0.00291946 0
M  V30 4196 C 381.334 5.25146 1.00625 0
M  V30 4197 C 382.634 5.08938 -1.17385 0
M  V30 4198 H 384.328 2.84231 -0.940909 0
M  V30 4199 H 381.874 1.36659 -0.453908 0
M  V30 4200 H 383.827 4.046 1.17799 0
M  V30 4201 H 382.551 2.86569 1.56671 0
M  V30 4202 H 381.21 3.64192 -0.419504 0
M  V30 4203 H 380.858 4.68721 1.8251 0
M  V30 4204 H 380.558 5.85361 0.512428 0
M  V30 4205 H 382.082 5.93342 1.44143 0
M  V30 4206 H 383.496 5.67474 -0.815224 0
M  V30 4207 H 381.893 5.7841 -1.59882 0
M  V30 4208 H 382.963 4.42424 -1.98468 0
M  V30 4209 N 384.306 0.507319 1.49211 0
M  V30 4210 C 385.239 -0.314509 2.26022 0
M  V30 4211 C 386.217 -0.964849 1.30879 0
M  V30 4212 O 387.401 -0.993707 1.6018 0
M  V30 4213 C 384.528 -1.44346 3.06402 0
M  V30 4214 C 383.574 -0.90685 4.16748 0
M  V30 4215 S 384.407 0.207392 5.35098 0
M  V30 4216 C 385.563 -0.924573 6.19033 0
M  V30 4217 H 385.796 0.337416 2.95379 0
M  V30 4218 H 383.329 0.292718 1.516 0
M  V30 4219 H 385.287 -2.09029 3.53295 0
M  V30 4220 H 383.948 -2.06702 2.36502 0
M  V30 4221 H 383.141 -1.75309 4.72528 0
M  V30 4222 H 382.743 -0.33712 3.72478 0
M  V30 4223 H 385.035 -1.82839 6.52362 0
M  V30 4224 H 385.978 -0.405248 7.06939 0
M  V30 4225 H 386.386 -1.19476 5.51712 0
M  V30 4226 N 385.784 -1.5574 0.241426 0
M  V30 4227 C 387.033 -1.97986 -0.385295 0
M  V30 4228 C 387.346 -1.13267 -1.59468 0
M  V30 4229 O 388.552 -1.45501 -2.2922 0
M  V30 4230 C 387.008 -3.52275 -0.736884 0
M  V30 4231 C 386.616 -4.45726 0.450796 0
M  V30 4232 C 388.36 -4.03189 -1.3281 0
M  V30 4233 C 386.267 -5.91352 0.0756662 0
M  V30 4234 H 385.197 -0.739386 -0.147731 0
M  V30 4235 H 387.848 -1.80308 0.340779 0
M  V30 4236 H 386.23 -3.65628 -1.52094 0
M  V30 4237 H 387.404 -4.44131 1.22819 0
M  V30 4238 H 385.719 -4.05264 0.956573 0
M  V30 4239 H 388.316 -5.09505 -1.62201 0
M  V30 4240 H 388.659 -3.50212 -2.25071 0
M  V30 4241 H 389.192 -3.93141 -0.607069 0
M  V30 4242 H 385.931 -6.48354 0.965272 0
M  V30 4243 H 385.451 -5.96095 -0.665635 0
M  V30 4244 H 387.13 -6.46084 -0.344075 0
M  V30 4245 N 387.262 0.0317525 -1.57568 0
M  V30 4246 C 388.492 0.733884 -1.93126 0
M  V30 4247 C 388.9 1.69563 -0.839352 0
M  V30 4248 O 388.243 1.82681 0.193175 0
M  V30 4249 C 388.305 1.54798 -3.24465 0
M  V30 4250 C 387.969 0.751304 -4.50782 0
M  V30 4251 C 388.966 0.0527632 -5.19873 0
M  V30 4252 C 386.651 0.706639 -4.97305 0
M  V30 4253 C 388.645 -0.679774 -6.33765 0
M  V30 4254 C 386.332 -0.0296449 -6.11093 0
M  V30 4255 C 387.33 -0.721614 -6.79177 0
M  V30 4256 O 387.018 -1.44595 -7.90789 0
M  V30 4257 H 386.75 0.211459 -0.642076 0
M  V30 4258 H 389.304 -0.00585615 -2.05399 0
M  V30 4259 H 387.534 2.33147 -3.08512 0
M  V30 4260 H 389.223 2.13247 -3.4537 0
M  V30 4261 H 389.989 0.0783188 -4.84937 0
M  V30 4262 H 385.868 1.23474 -4.44157 0
M  V30 4263 H 389.412 -1.22042 -6.86842 0
M  V30 4264 H 385.309 -0.0571331 -6.45475 0
M  V30 4265 H 386.077 -1.35935 -8.07133 0
M  V30 4266 N 388.74 1.54641 0.303973 0
M  V30 4267 C 389.986 1.74038 1.04109 0
M  V30 4268 C 390.319 0.523051 1.87024 0
M  V30 4269 O 389.594 -0.479874 1.88487 0
M  V30 4270 C 389.877 3.02761 1.94955 0
M  V30 4271 C 389.73 4.34787 1.1524 0
M  V30 4272 C 391.049 3.27336 2.94175 0
M  V30 4273 H 388.168 0.63323 0.377079 0
M  V30 4274 H 390.81 1.87354 0.316001 0
M  V30 4275 H 388.96 2.9154 2.56782 0
M  V30 4276 H 390.632 4.57922 0.557236 0
M  V30 4277 H 388.875 4.31407 0.455053 0
M  V30 4278 H 389.546 5.21116 1.8205 0
M  V30 4279 H 392.022 3.38148 2.42477 0
M  V30 4280 H 390.898 4.18726 3.54908 0
M  V30 4281 H 391.159 2.45491 3.67677 0
M  V30 4282 N 390.218 -0.567019 1.47046 0
M  V30 4283 C 391.443 -1.3551 1.57009 0
M  V30 4284 C 391.868 -1.86841 0.217259 0
M  V30 4285 O 391.226 -1.62435 -0.805268 0
M  V30 4286 C 391.274 -2.50777 2.5912 0
M  V30 4287 O 390.378 -3.52706 2.13711 0
M  V30 4288 H 389.719 -0.402919 0.52778 0
M  V30 4289 H 392.249 -0.686241 1.92748 0
M  V30 4290 H 392.259 -2.97481 2.79229 0
M  V30 4291 H 390.934 -2.12771 3.57353 0
M  V30 4292 H 389.511 -3.12374 2.03659 0
M  V30 4293 N 391.696 -1.35014 -0.812953 0
M  V30 4294 C 392.629 -1.21761 -1.93001 0
M  V30 4295 C 393.607 -0.10694 -1.62248 0
M  V30 4296 O 394.791 -0.273891 -1.865 0
M  V30 4297 C 391.918 -0.873404 -3.27245 0
M  V30 4298 C 390.964 -1.99523 -3.76952 0
M  V30 4299 S 391.797 -3.61009 -3.95516 0
M  V30 4300 C 392.953 -3.28651 -5.32672 0
M  V30 4301 H 393.186 -2.16315 -2.03948 0
M  V30 4302 H 390.719 -1.20156 -0.969631 0
M  V30 4303 H 392.677 -0.68161 -4.04802 0
M  V30 4304 H 391.338 0.053971 -3.14054 0
M  V30 4305 H 390.531 -1.70838 -4.74163 0
M  V30 4306 H 390.133 -2.14503 -3.06373 0
M  V30 4307 H 392.425 -2.81085 -6.1644 0
M  V30 4308 H 393.368 -4.25039 -5.66346 0
M  V30 4309 H 393.776 -2.6458 -4.98656 0
M  V30 4310 N 393.175 1.03435 -1.18907 0
M  V30 4311 C 394.138 2.09756 -0.923844 0
M  V30 4312 C 395.138 1.60528 0.093416 0
M  V30 4313 O 396.328 1.73631 -0.140727 0
M  V30 4314 C 393.46 3.38692 -0.387354 0
M  V30 4315 H 394.653 2.34719 -1.86674 0
M  V30 4316 H 392.206 1.19959 -1.00197 0
M  V30 4317 H 392.941 3.19396 0.561845 0
M  V30 4318 H 392.726 3.75742 -1.12074 0
M  V30 4319 H 394.216 4.17016 -0.220694 0
M  V30 4320 N 394.653 0.992116 1.22453 0
M  V30 4321 C 395.899 0.668523 1.91464 0
M  V30 4322 C 396.232 -0.797313 1.77078 0
M  V30 4323 O 395.507 -1.5765 1.13916 0
M  V30 4324 C 395.79 1.07424 3.43703 0
M  V30 4325 C 395.643 2.59857 3.67143 0
M  V30 4326 C 396.962 0.626891 4.35612 0
M  V30 4327 H 394.081 0.244341 0.695318 0
M  V30 4328 H 396.723 1.2355 1.44345 0
M  V30 4329 H 394.873 0.591816 3.83966 0
M  V30 4330 H 396.545 3.15764 3.3629 0
M  V30 4331 H 394.788 3.01961 3.11451 0
M  V30 4332 H 395.459 2.83296 4.73759 0
M  V30 4333 H 397.935 1.04125 4.02861 0
M  V30 4334 H 396.811 0.939076 5.40807 0
M  V30 4335 H 397.072 -0.472457 4.39568 0
M  V30 4336 N 396.131 -1.37776 0.765217 0
M  V30 4337 C 397.359 -2.04124 0.337767 0
M  V30 4338 C 397.774 -1.57715 -1.03785 0
M  V30 4339 O 397.131 -0.755447 -1.6613 0
M  V30 4340 C 397.182 -3.59658 0.364442 0
M  V30 4341 O 396.903 -4.04367 1.68579 0
M  V30 4342 C 398.404 -4.43236 -0.0754221 0
M  V30 4343 H 395.624 -0.655696 0.142491 0
M  V30 4344 H 398.168 -1.76238 1.03732 0
M  V30 4345 H 396.323 -3.86339 -0.286471 0
M  V30 4346 H 396.737 -4.98857 1.61993 0
M  V30 4347 H 398.211 -5.52 -0.00560067 0
M  V30 4348 H 398.688 -4.2455 -1.12491 0
M  V30 4349 H 399.294 -4.21767 0.547055 0
M  V30 4350 N 397.609 -0.515225 -1.4894 0
M  V30 4351 C 398.856 0.024215 -2.02486 0
M  V30 4352 C 399.184 1.35671 -1.39368 0
M  V30 4353 O 398.439 1.88566 -0.523574 0
M  V30 4354 C 398.738 0.210595 -3.56779 0
M  V30 4355 C 398.404 -1.04569 -4.38607 0
M  V30 4356 C 397.066 -1.39002 -4.60686 0
M  V30 4357 C 399.418 -1.88008 -4.86109 0
M  V30 4358 C 396.746 -2.568 -5.27514 0
M  V30 4359 C 399.098 -3.04972 -5.54234 0
M  V30 4360 C 397.762 -3.39768 -5.74555 0
M  V30 4361 H 397.032 0.00886088 -0.740947 0
M  V30 4362 H 399.679 -0.678263 -1.79086 0
M  V30 4363 H 397.984 0.99572 -3.78936 0
M  V30 4364 H 399.681 0.642659 -3.95817 0
M  V30 4365 H 396.271 -0.767497 -4.21672 0
M  V30 4366 H 400.455 -1.62719 -4.68867 0
M  V30 4367 H 395.711 -2.8398 -5.41447 0
M  V30 4368 H 399.885 -3.69943 -5.90013 0
M  V30 4369 H 397.512 -4.31148 -6.26112 0
M  V30 4370 N 399.087 1.5561 -0.249682 0
M  V30 4371 C 400.335 1.98618 0.373548 0
M  V30 4372 C 400.656 1.13919 1.58264 0
M  V30 4373 O 399.926 0.222637 1.94631 0
M  V30 4374 H 398.506 0.733571 0.141006 0
M  V30 4375 H 401.168 1.91748 -0.349117 0
M  V30 4376 H 400.264 3.04584 0.680796 0
M  V30 4377 N 400.565 -0.0233959 1.57583 0
M  V30 4378 C 401.812 -0.713063 1.8953 0
M  V30 4379 C 402.14 -1.75056 0.847673 0
M  V30 4380 O 401.395 -1.95119 -0.150636 0
M  V30 4381 C 401.694 -1.41428 3.28227 0
M  V30 4382 C 401.36 -0.512222 4.47981 0
M  V30 4383 C 400.022 -0.263785 4.80476 0
M  V30 4384 C 402.374 0.110248 5.21083 0
M  V30 4385 C 399.702 0.615804 5.83459 0
M  V30 4386 C 402.054 0.977573 6.25001 0
M  V30 4387 C 400.718 1.23542 6.55968 0
M  V30 4388 H 399.988 -0.260928 0.69354 0
M  V30 4389 H 402.635 0.0271047 1.91481 0
M  V30 4390 H 400.94 -2.22791 3.22291 0
M  V30 4391 H 402.637 -1.95355 3.50196 0
M  V30 4392 H 399.227 -0.716013 4.22577 0
M  V30 4393 H 403.411 -0.0687137 4.96252 0
M  V30 4394 H 398.667 0.82382 6.05824 0
M  V30 4395 H 402.841 1.46638 6.80786 0
M  V30 4396 H 400.468 1.91871 7.35588 0
M  V30 4397 N 402.043 -1.548 -0.295768 0
M  V30 4398 C 402.993 -1.82497 -1.3667 0
M  V30 4399 C 403.977 -0.682434 -1.45711 0
M  V30 4400 O 405.169 -0.943207 -1.49775 0
M  V30 4401 C 402.298 -2.08036 -2.73086 0
M  V30 4402 C 401.384 -3.28488 -2.68247 0
M  V30 4403 N 401.775 -4.48924 -2.33025 0
M  V30 4404 C 400.073 -3.3062 -2.99343 0
M  V30 4405 C 400.774 -5.30956 -2.37613 0
M  V30 4406 N 399.75 -4.68805 -2.75178 0
M  V30 4407 H 403.552 -2.73175 -1.0841 0
M  V30 4408 H 401.066 -1.5437 -0.504361 0
M  V30 4409 H 403.063 -2.26027 -3.5031 0
M  V30 4410 H 401.723 -1.18629 -3.02254 0
M  V30 4411 H 402.734 -4.75432 -2.05389 0
M  V30 4412 H 399.411 -2.51336 -3.33371 0
M  V30 4413 H 400.801 -6.37199 -2.13135 0
M  V30 4414 N 403.521 0.559213 -1.47345 0
M  V30 4415 C 404.469 1.68747 -1.60085 0
M  V30 4416 C 405.463 1.628 -0.46825 0
M  V30 4417 O 406.669 1.68009 -0.645977 0
M  V30 4418 H 403.044 0.558329 -0.503759 0
M  V30 4419 H 405.015 1.55138 -2.54902 0
M  V30 4420 C 403.764 3.07103 -1.63042 0
M  V30 4421 H 403.087 3.12361 -2.49541 0
M  V30 4422 H 404.527 3.85743 -1.76006 0
M  V30 4423 C 402.986 3.34935 -0.363357 0
M  V30 4424 O 403.516 3.98102 0.536416 0
M  V30 4425 N 401.722 2.89574 -0.244 0
M  V30 4426 H 401.269 2.38348 -0.977133 0
M  V30 4427 H 401.227 3.08566 0.602836 0
M  V30 4428 N 404.999 1.35443 0.805782 0
M  V30 4429 C 405.929 1.31095 1.93226 0
M  V30 4430 C 406.91 0.185244 1.69088 0
M  V30 4431 O 408.095 0.380332 1.90439 0
M  V30 4432 C 405.225 1.08299 3.29983 0
M  V30 4433 C 404.179 2.17519 3.68605 0
M  V30 4434 C 403.505 1.79887 5.03532 0
M  V30 4435 C 404.805 3.5949 3.78898 0
M  V30 4436 H 406.499 2.25352 1.97122 0
M  V30 4437 H 404.045 1.0848 0.946996 0
M  V30 4438 H 405.998 1.03897 4.08391 0
M  V30 4439 H 404.722 0.104885 3.26432 0
M  V30 4440 H 403.381 2.2102 2.92482 0
M  V30 4441 H 403.029 0.80693 4.96485 0
M  V30 4442 H 402.729 2.53001 5.30344 0
M  V30 4443 H 404.253 1.77011 5.84379 0
M  V30 4444 H 405.667 3.58307 4.47536 0
M  V30 4445 H 404.064 4.31371 4.1718 0
M  V30 4446 H 405.134 3.95584 2.80431 0
M  V30 4447 N 406.477 -1.02803 1.19454 0
M  V30 4448 C 407.705 -1.79841 1.02297 0
M  V30 4449 C 408.12 -1.83879 -0.428259 0
M  V30 4450 O 407.477 -1.28345 -1.29745 0
M  V30 4451 C 407.528 -3.24852 1.58598 0
M  V30 4452 O 407.249 -3.21097 2.98041 0
M  V30 4453 C 408.75 -4.18485 1.46236 0
M  V30 4454 H 405.97 -0.565936 0.360496 0
M  V30 4455 H 408.514 -1.2948 1.58288 0
M  V30 4456 H 406.669 -3.72401 1.06753 0
M  V30 4457 H 407.083 -4.12033 3.24545 0
M  V30 4458 H 408.557 -5.18121 1.90407 0
M  V30 4459 H 409.034 -4.37254 0.41301 0
M  V30 4460 H 409.64 -3.76811 1.97215 0
M  V30 4461 N 407.956 -0.998596 -1.21925 0
M  V30 4462 C 409.202 -0.688337 -1.91399 0
M  V30 4463 C 409.557 0.771805 -1.76241 0
M  V30 4464 O 408.85 1.55153 -1.1242 0
M  V30 4465 C 409.044 -1.03648 -3.42041 0
M  V30 4466 C 408.873 -2.52892 -3.71855 0
M  V30 4467 C 407.643 -3.19389 -3.91559 0
M  V30 4468 C 409.841 -3.5103 -3.75875 0
M  V30 4469 N 407.823 -4.5805 -4.08734 0
M  V30 4470 C 409.194 -4.75174 -3.98259 0
M  V30 4471 C 411.249 -3.45257 -3.58751 0
M  V30 4472 C 409.952 -5.94247 -4.05294 0
M  V30 4473 C 411.978 -4.63712 -3.67049 0
M  V30 4474 C 411.34 -5.86658 -3.89887 0
M  V30 4475 H 407.439 -0.303251 -0.720807 0
M  V30 4476 H 410.023 -1.27977 -1.46731 0
M  V30 4477 H 408.194 -0.473569 -3.85502 0
M  V30 4478 H 409.926 -0.681619 -3.98919 0
M  V30 4479 H 406.681 -2.69846 -3.89205 0
M  V30 4480 H 407.105 -5.29989 -4.21237 0
M  V30 4481 H 411.747 -2.51215 -3.40075 0
M  V30 4482 H 409.465 -6.88687 -4.22772 0
M  V30 4483 H 413.051 -4.6084 -3.5513 0
M  V30 4484 H 411.931 -6.76786 -3.96144 0
M  V30 4485 N 409.434 1.37368 -0.772513 0
M  V30 4486 C 410.68 2.00423 -0.3467 0
M  V30 4487 C 411.035 1.60224 1.06518 0
M  V30 4488 O 410.328 0.838712 1.72268 0
M  V30 4489 C 410.522 3.54817 -0.428876 0
M  V30 4490 C 410.351 4.10011 -1.84719 0
M  V30 4491 C 409.121 4.40927 -2.46803 0
M  V30 4492 C 411.319 4.30955 -2.80681 0
M  V30 4493 N 409.301 4.8184 -3.80399 0
M  V30 4494 C 410.672 4.74486 -3.99078 0
M  V30 4495 C 412.727 4.1309 -2.77958 0
M  V30 4496 C 411.43 5.02023 -5.15136 0
M  V30 4497 C 413.456 4.41764 -3.9319 0
M  V30 4498 C 412.818 4.85535 -5.10328 0
M  V30 4499 H 408.917 0.762413 -0.173927 0
M  V30 4500 H 411.501 1.66666 -1.00651 0
M  V30 4501 H 409.672 3.87881 0.200757 0
M  V30 4502 H 411.404 4.04696 0.0190668 0
M  V30 4503 H 408.159 4.30033 -1.98415 0
M  V30 4504 H 408.583 5.06604 -4.49089 0
M  V30 4505 H 413.225 3.7842 -1.88568 0
M  V30 4506 H 410.943 5.35582 -6.05126 0
M  V30 4507 H 414.529 4.29528 -3.92425 0
M  V30 4508 H 413.409 5.07296 -5.98013 0
M  V30 4509 N 410.912 0.523116 1.48665 0
M  V30 4510 C 411.842 -0.23231 2.32342 0
M  V30 4511 C 412.823 -0.941637 1.41659 0
M  V30 4512 O 414.008 -0.928751 1.70552 0
M  V30 4513 C 411.138 -1.28387 3.22698 0
M  V30 4514 C 410.092 -0.693098 4.22351 0
M  V30 4515 C 409.418 -1.8468 5.01794 0
M  V30 4516 C 410.718 0.33063 5.21252 0
M  V30 4517 H 412.412 0.466192 2.95748 0
M  V30 4518 H 409.958 0.225643 1.42221 0
M  V30 4519 H 411.911 -1.82024 3.80059 0
M  V30 4520 H 410.635 -2.01186 2.57278 0
M  V30 4521 H 409.294 -0.178299 3.66166 0
M  V30 4522 H 408.942 -2.56301 4.32804 0
M  V30 4523 H 408.642 -1.45747 5.69238 0
M  V30 4524 H 410.166 -2.38709 5.62006 0
M  V30 4525 H 411.58 -0.118407 5.73178 0
M  V30 4526 H 409.977 0.636974 5.9671 0
M  V30 4527 H 411.047 1.23883 4.68808 0
M  V30 4528 N 412.39 -1.55475 0.257931 0
M  V30 4529 C 413.636 -1.99502 -0.364266 0
M  V30 4530 C 413.969 -1.146 -1.56782 0
M  V30 4531 O 413.244 -0.211968 -1.93342 0
M  V30 4532 C 413.527 -3.51917 -0.763333 0
M  V30 4533 C 413.38 -4.4758 0.446371 0
M  V30 4534 C 414.699 -4.09742 -1.60623 0
M  V30 4535 H 411.818 -0.725277 -0.130929 0
M  V30 4536 H 414.46 -1.8653 0.361446 0
M  V30 4537 H 412.61 -3.63101 -1.38166 0
M  V30 4538 H 414.282 -4.48362 1.08487 0
M  V30 4539 H 412.525 -4.19947 1.08753 0
M  V30 4540 H 413.196 -5.51862 0.123645 0
M  V30 4541 H 415.672 -4.01727 -1.08418 0
M  V30 4542 H 414.548 -5.16631 -1.85429 0
M  V30 4543 H 414.809 -3.58889 -2.58169 0
M  V30 4544 N 413.868 0.0150385 -1.57593 0
M  V30 4545 C 415.114 0.704043 -1.90187 0
M  V30 4546 C 415.447 1.74249 -0.857366 0
M  V30 4547 O 414.722 1.94092 0.125843 0
M  V30 4548 C 415.005 1.36087 -3.33395 0
M  V30 4549 C 414.858 0.334981 -4.48551 0
M  V30 4550 C 416.177 2.29112 -3.7576 0
M  V30 4551 H 413.296 0.254475 -0.691673 0
M  V30 4552 H 415.938 -0.0331678 -1.89971 0
M  V30 4553 H 414.088 1.98922 -3.3371 0
M  V30 4554 H 415.76 -0.292534 -4.60372 0
M  V30 4555 H 414.003 -0.344325 -4.32431 0
M  V30 4556 H 414.674 0.833316 -5.45674 0
M  V30 4557 H 417.15 1.76308 -3.76902 0
M  V30 4558 H 416.026 2.72043 -4.76743 0
M  V30 4559 H 416.287 3.16385 -3.08793 0
M  V30 4560 N 415.346 1.54954 0.287554 0
M  V30 4561 C 416.574 1.78881 1.03967 0
M  V30 4562 C 416.989 0.554894 1.80462 0
M  V30 4563 O 416.346 -0.475676 1.76192 0
M  V30 4564 C 416.397 3.00488 2.0097 0
M  V30 4565 O 416.118 4.19113 1.27577 0
M  V30 4566 C 417.619 3.36907 2.88112 0
M  V30 4567 H 414.839 0.596259 0.307761 0
M  V30 4568 H 417.383 2.01937 0.322749 0
M  V30 4569 H 415.538 2.79601 2.68145 0
M  V30 4570 H 415.952 4.87765 1.92835 0
M  V30 4571 H 417.426 4.25205 3.52001 0
M  V30 4572 H 417.903 2.55659 3.57121 0
M  V30 4573 H 418.509 3.60001 2.26449 0
M  V30 4574 N 416.824 -0.551391 1.4764 0
M  V30 4575 C 417.772 -1.67896 1.60978 0
M  V30 4576 C 418.766 -1.62549 0.476877 0
M  V30 4577 O 419.972 -1.67664 0.654878 0
M  V30 4578 H 416.347 -0.555649 0.506713 0
M  V30 4579 H 418.318 -1.53784 2.55721 0
M  V30 4580 C 417.067 -3.06234 1.64669 0
M  V30 4581 H 416.39 -3.11033 2.51194 0
M  V30 4582 H 417.83 -3.84804 1.7805 0
M  V30 4583 C 416.289 -3.34737 0.381115 0
M  V30 4584 O 416.819 -3.98381 -0.515297 0
M  V30 4585 N 415.025 -2.8944 0.259354 0
M  V30 4586 H 414.572 -2.37827 0.98976 0
M  V30 4587 H 414.53 -3.08882 -0.586464 0
M  V30 4588 N 418.302 -1.35869 -0.798587 0
M  V30 4589 C 419.548 -1.2978 -1.55836 0
M  V30 4590 C 419.881 0.125322 -1.93795 0
M  V30 4591 O 419.156 1.07658 -1.61987 0
M  V30 4592 C 419.439 -2.21188 -2.84162 0
M  V30 4593 C 419.292 -3.72155 -2.52628 0
M  V30 4594 C 420.611 -2.11545 -3.85923 0
M  V30 4595 H 417.73 -0.472769 -0.565383 0
M  V30 4596 H 420.372 -1.66341 -0.918192 0
M  V30 4597 H 418.522 -1.90139 -3.38791 0
M  V30 4598 H 420.194 -4.13682 -2.04121 0
M  V30 4599 H 418.437 -3.92042 -1.85704 0
M  V30 4600 H 419.108 -4.31511 -3.44242 0
M  V30 4601 H 421.584 -2.38855 -3.40716 0
M  V30 4602 H 420.46 -2.77688 -4.73477 0
M  V30 4603 H 420.721 -1.09987 -4.282 0
M  V30 4604 N 419.78 1.02168 -1.19998 0
M  V30 4605 C 421.027 1.75685 -1.00702 0
M  V30 4606 C 421.355 1.88947 0.461426 0
M  V30 4607 O 420.61 1.40832 1.35885 0
M  V30 4608 C 420.909 3.18081 -1.62969 0
M  V30 4609 C 420.575 3.24809 -3.12746 0
M  V30 4610 C 419.237 3.26352 -3.53621 0
M  V30 4611 C 421.589 3.23379 -4.08749 0
M  V30 4612 C 418.917 3.2413 -4.89036 0
M  V30 4613 C 421.269 3.22698 -5.44104 0
M  V30 4614 C 419.933 3.22542 -5.84399 0
M  V30 4615 H 419.203 0.642877 -0.368496 0
M  V30 4616 H 421.85 1.19865 -1.49348 0
M  V30 4617 H 420.155 3.77027 -1.06573 0
M  V30 4618 H 421.852 3.73648 -1.45561 0
M  V30 4619 H 418.442 3.2434 -2.80181 0
M  V30 4620 H 422.626 3.21361 -3.78207 0
M  V30 4621 H 417.882 3.22338 -5.19527 0
M  V30 4622 H 422.056 3.20543 -6.18244 0
M  V30 4623 H 419.683 3.20575 -6.89301 0
M  V30 4624 N 421.258 1.00505 1.21394 0
M  V30 4625 C 422.505 0.687774 1.90462 0
M  V30 4626 C 422.833 -0.78147 1.7811 0
M  V30 4627 O 422.088 -1.58208 1.1519 0
M  V30 4628 C 422.387 1.0546 3.41486 0
M  V30 4629 C 422.053 2.51812 3.74034 0
M  V30 4630 C 420.715 2.91804 3.82628 0
M  V30 4631 C 423.067 3.46614 3.8924 0
M  V30 4632 C 420.395 4.2556 4.03876 0
M  V30 4633 C 422.747 4.80044 4.11995 0
M  V30 4634 C 421.411 5.19759 4.18816 0
M  V30 4635 H 420.681 0.251674 0.696951 0
M  V30 4636 H 423.328 1.26349 1.43903 0
M  V30 4637 H 421.633 0.397133 3.89782 0
M  V30 4638 H 423.33 0.786976 3.93202 0
M  V30 4639 H 419.92 2.1982 3.67936 0
M  V30 4640 H 424.104 3.16883 3.81967 0
M  V30 4641 H 419.36 4.55901 4.07387 0
M  V30 4642 H 423.534 5.53439 4.22704 0
M  V30 4643 H 421.161 6.23418 4.35033 0
M  V30 4644 N 422.737 -1.36956 0.779787 0
M  V30 4645 C 423.685 -2.32053 0.15942 0
M  V30 4646 C 424.679 -1.55333 -0.675878 0
M  V30 4647 O 425.885 -1.70668 -0.57204 0
M  V30 4648 H 422.26 -0.751286 0.0327707 0
M  V30 4649 H 424.231 -2.8195 0.977078 0
M  V30 4650 C 422.98 -3.40602 -0.698977 0
M  V30 4651 H 422.303 -3.99746 -0.0655966 0
M  V30 4652 H 423.743 -4.09486 -1.09989 0
M  V30 4653 C 422.202 -2.81359 -1.85307 0
M  V30 4654 O 422.732 -2.72751 -2.94906 0
M  V30 4655 N 420.938 -2.38786 -1.65619 0
M  V30 4656 H 420.485 -2.45987 -0.764725 0
M  V30 4657 H 420.443 -1.99493 -2.43002 0
M  V30 4658 N 424.215 -0.530993 -1.48385 0
M  V30 4659 C 425.147 0.268353 -2.27624 0
M  V30 4660 C 426.16 0.903525 -1.35426 0
M  V30 4661 O 427.349 0.781796 -1.60469 0
M  V30 4662 C 424.449 1.39535 -3.08842 0
M  V30 4663 C 423.622 0.861913 -4.28824 0
M  V30 4664 C 422.681 1.87016 -4.91845 0
M  V30 4665 O 421.707 1.4267 -5.5103 0
M  V30 4666 N 422.909 3.20238 -4.84178 0
M  V30 4667 H 425.674 -0.41123 -2.96865 0
M  V30 4668 H 423.235 -0.365387 -1.57723 0
M  V30 4669 H 425.227 2.06803 -3.47871 0
M  V30 4670 H 423.797 1.97859 -2.42014 0
M  V30 4671 H 423.017 0.0132126 -3.94198 0
M  V30 4672 H 424.305 0.484415 -5.06489 0
M  V30 4673 H 423.703 3.58932 -4.37246 0
M  V30 4674 H 422.26 3.83136 -5.27305 0
M  V30 4675 N 425.693 1.55336 -0.266172 0
M  V30 4676 C 426.656 2.20878 0.612001 0
M  V30 4677 C 427.656 1.18388 1.08816 0
M  V30 4678 O 428.846 1.4335 0.989774 0
M  V30 4679 C 425.978 2.86765 1.84332 0
M  V30 4680 H 427.171 2.99873 0.0398718 0
M  V30 4681 H 424.724 1.56291 -0.0167309 0
M  V30 4682 H 425.459 2.11759 2.45619 0
M  V30 4683 H 425.244 3.61862 1.5099 0
M  V30 4684 H 426.734 3.36867 2.46801 0
M  V30 4685 N 427.171 -0.0066808 1.57599 0
M  V30 4686 C 428.101 -0.999296 2.11036 0
M  V30 4687 C 429.082 -1.36278 1.01795 0
M  V30 4688 O 430.267 -1.4477 1.29442 0
M  V30 4689 C 427.397 -2.29328 2.60818 0
M  V30 4690 C 426.351 -2.07159 3.74525 0
M  V30 4691 C 425.677 -3.42512 4.10596 0
M  V30 4692 C 426.977 -1.43959 5.02069 0
M  V30 4693 H 428.671 -0.554382 2.94223 0
M  V30 4694 H 426.217 -0.265221 1.41536 0
M  V30 4695 H 428.17 -2.99117 2.96828 0
M  V30 4696 H 426.894 -2.7592 1.74745 0
M  V30 4697 H 425.553 -1.39797 3.38899 0
M  V30 4698 H 425.201 -3.86795 3.21556 0
M  V30 4699 H 424.901 -3.28498 4.87199 0
M  V30 4700 H 426.425 -4.13628 4.4916 0
M  V30 4701 H 427.839 -2.03696 5.35893 0
M  V30 4702 H 426.236 -1.40452 5.83432 0
M  V30 4703 H 427.306 -0.407992 4.83181 0
M  V30 4704 N 428.649 -1.55105 -0.279332 0
M  V30 4705 C 429.874 -1.7976 -1.03446 0
M  V30 4706 C 430.299 -0.565952 -1.79384 0
M  V30 4707 O 429.657 0.484259 -1.74713 0
M  V30 4708 C 429.705 -3.0179 -1.97371 0
M  V30 4709 O 428.809 -2.76432 -3.06038 0
M  V30 4710 H 428.15 -0.594334 -0.29608 0
M  V30 4711 H 430.68 -2.02235 -0.310165 0
M  V30 4712 H 430.69 -3.30351 -2.39441 0
M  V30 4713 H 429.365 -3.91085 -1.4151 0
M  V30 4714 H 427.942 -2.58949 -2.68328 0
M  V30 4715 N 430.127 0.543554 -1.4793 0
M  V30 4716 C 431.09 1.63156 -1.60975 0
M  V30 4717 C 432.09 1.53346 -0.483899 0
M  V30 4718 O 433.28 1.5726 -0.749339 0
M  V30 4719 C 430.412 3.02743 -1.56716 0
M  V30 4720 H 431.605 1.52934 -2.57975 0
M  V30 4721 H 429.158 0.764557 -1.36324 0
M  V30 4722 H 429.893 3.18484 -0.611418 0
M  V30 4723 H 429.678 3.11272 -2.38438 0
M  V30 4724 H 431.168 3.81871 -1.6901 0
M  V30 4725 N 431.605 1.3629 0.791371 0
M  V30 4726 C 432.852 1.30412 1.54916 0
M  V30 4727 C 433.18 -0.117162 1.94147 0
M  V30 4728 O 432.435 -1.08599 1.62803 0
M  V30 4729 C 432.734 2.17068 2.8393 0
M  V30 4730 C 432.4 3.65645 2.63846 0
M  V30 4731 C 431.062 4.0614 2.58077 0
M  V30 4732 C 433.414 4.59855 2.45322 0
M  V30 4733 C 430.742 5.3899 2.31748 0
M  V30 4734 C 433.094 5.9292 2.2052 0
M  V30 4735 C 431.758 6.32542 2.13183 0
M  V30 4736 H 431.028 0.47721 0.566879 0
M  V30 4737 H 433.675 1.68325 0.913172 0
M  V30 4738 H 431.98 1.72085 3.51986 0
M  V30 4739 H 433.677 2.09846 3.4171 0
M  V30 4740 H 430.267 3.33518 2.69191 0
M  V30 4741 H 434.451 4.29443 2.48782 0
M  V30 4742 H 429.707 5.68672 2.24548 0
M  V30 4743 H 433.881 6.65487 2.05182 0
M  V30 4744 H 431.508 7.35412 1.92544 0
M  V30 4745 N 433.083 -1.0153 1.20538 0
M  V30 4746 C 434.013 -2.11972 0.979295 0
M  V30 4747 C 434.994 -1.6985 -0.0921787 0
M  V30 4748 O 436.179 -1.94089 0.0655932 0
M  V30 4749 C 433.309 -3.43201 0.531984 0
M  V30 4750 C 432.263 -3.9907 1.54685 0
M  V30 4751 C 431.589 -5.26082 0.956127 0
M  V30 4752 C 432.889 -4.32313 2.93092 0
M  V30 4753 H 434.583 -2.31143 1.90298 0
M  V30 4754 H 432.129 -1.11079 0.916372 0
M  V30 4755 H 434.082 -4.1985 0.361044 0
M  V30 4756 H 432.806 -3.23792 -0.427327 0
M  V30 4757 H 431.465 -3.2453 1.70517 0
M  V30 4758 H 431.113 -5.02999 -0.0111538 0
M  V30 4759 H 430.813 -5.64426 1.63393 0
M  V30 4760 H 432.337 -6.05386 0.796284 0
M  V30 4761 H 433.751 -4.99845 2.80763 0
M  V30 4762 H 432.148 -4.81774 3.57791 0
M  V30 4763 H 433.218 -3.41025 3.44717 0
M  V30 4764 N 434.561 -1.01147 -1.20859 0
M  V30 4765 C 435.786 -0.716698 -1.94623 0
M  V30 4766 C 436.211 0.715415 -1.73964 0
M  V30 4767 O 435.569 1.49157 -1.03062 0
M  V30 4768 C 435.617 -1.0513 -3.44935 0
M  V30 4769 O 434.721 -0.160131 -4.12089 0
M  V30 4770 H 434.062 -0.266404 -0.608214 0
M  V30 4771 H 436.592 -1.35346 -1.53436 0
M  V30 4772 H 436.602 -1.00086 -3.95533 0
M  V30 4773 H 435.277 -2.09475 -3.59295 0
M  V30 4774 H 433.854 -0.267657 -3.71938 0
M  V30 4775 N 436.039 1.36541 -0.78704 0
M  V30 4776 C 436.989 2.27459 -0.156957 0
M  V30 4777 C 437.973 1.46843 0.657709 0
M  V30 4778 O 439.165 1.69245 0.518173 0
M  V30 4779 C 436.294 3.35893 0.709278 0
M  V30 4780 C 435.38 4.23947 -0.114049 0
M  V30 4781 N 435.771 4.92145 -1.16736 0
M  V30 4782 C 434.069 4.4587 0.107497 0
M  V30 4783 C 434.77 5.57261 -1.66837 0
M  V30 4784 N 433.746 5.3473 -0.977992 0
M  V30 4785 H 437.548 2.77669 -0.963185 0
M  V30 4786 H 435.062 1.49839 -0.62627 0
M  V30 4787 H 437.059 3.99953 1.17656 0
M  V30 4788 H 435.719 2.87238 1.51408 0
M  V30 4789 H 436.73 4.94169 -1.54976 0
M  V30 4790 H 433.407 4.08056 0.882994 0
M  V30 4791 H 434.797 6.21728 -2.54762 0
M  V30 4792 N 437.518 0.538854 1.48102 0
M  V30 4793 C 438.45 -0.256278 2.27763 0
M  V30 4794 C 439.463 -0.89633 1.35904 0
M  V30 4795 O 440.652 -0.773275 1.60881 0
M  V30 4796 C 437.752 -1.37896 3.09577 0
M  V30 4797 C 436.925 -0.839159 4.29275 0
M  V30 4798 C 435.984 -1.84405 4.9283 0
M  V30 4799 O 435.01 -1.39746 5.51779 0
M  V30 4800 N 436.212 -3.17666 4.85869 0
M  V30 4801 H 438.977 0.426968 2.96643 0
M  V30 4802 H 436.538 0.373747 1.57527 0
M  V30 4803 H 438.53 -2.04955 3.48963 0
M  V30 4804 H 437.1 -1.96572 2.4306 0
M  V30 4805 H 436.32 0.00769287 3.94199 0
M  V30 4806 H 437.608 -0.457548 5.06739 0
M  V30 4807 H 437.006 -3.56609 4.39143 0
M  V30 4808 H 435.563 -3.80334 5.29329 0
M  V30 4809 N 438.996 -1.55193 0.274407 0
M  V30 4810 C 440.243 -1.99581 -0.342579 0
M  V30 4811 C 440.571 -1.1628 -1.55914 0
M  V30 4812 O 439.826 -0.22029 -1.94456 0
M  V30 4813 C 440.125 -3.49019 -0.769458 0
M  V30 4814 C 439.791 -4.49598 0.342389 0
M  V30 4815 C 438.453 -4.76821 0.647686 0
M  V30 4816 C 440.805 -5.0964 1.09163 0
M  V30 4817 C 438.133 -5.61354 1.70581 0
M  V30 4818 C 440.485 -5.95323 2.13948 0
M  V30 4819 C 439.149 -6.20867 2.45113 0
M  V30 4820 H 438.419 -0.730319 -0.125358 0
M  V30 4821 H 441.066 -1.87529 0.387971 0
M  V30 4822 H 439.371 -3.58544 -1.57967 0
M  V30 4823 H 441.068 -3.8077 -1.25757 0
M  V30 4824 H 437.658 -4.28496 0.094318 0
M  V30 4825 H 441.842 -4.88632 0.869024 0
M  V30 4826 H 437.098 -5.79392 1.9523 0
M  V30 4827 H 441.272 -6.40881 2.72478 0
M  V30 4828 H 438.899 -6.86162 3.27239 0
M  V30 4829 N 440.474 -0.00167713 -1.576 0
M  V30 4830 C 441.704 0.692754 -1.94639 0
M  V30 4831 C 442.112 1.67744 -0.87513 0
M  V30 4832 O 441.455 1.8305 0.154382 0
M  V30 4833 C 441.517 1.47881 -3.27676 0
M  V30 4834 C 441.181 0.655518 -4.52274 0
M  V30 4835 C 442.178 -0.0575214 -5.19868 0
M  V30 4836 C 439.863 0.600994 -4.98692 0
M  V30 4837 C 441.857 -0.814052 -6.3218 0
M  V30 4838 C 439.544 -0.15926 -6.10892 0
M  V30 4839 C 440.542 -0.865515 -6.77494 0
M  V30 4840 O 440.23 -1.61336 -7.87544 0
M  V30 4841 H 439.962 0.197792 -0.646417 0
M  V30 4842 H 442.516 -0.049423 -2.05341 0
M  V30 4843 H 440.746 2.2655 -3.13388 0
M  V30 4844 H 442.435 2.05874 -3.49816 0
M  V30 4845 H 443.201 -0.0245611 -4.84994 0
M  V30 4846 H 439.08 1.14025 -4.46676 0
M  V30 4847 H 442.624 -1.36584 -6.84098 0
M  V30 4848 H 438.521 -0.194035 -6.45208 0
M  V30 4849 H 439.289 -1.53025 -8.04068 0
M  V30 4850 N 441.952 1.55251 0.271103 0
M  V30 4851 C 442.899 1.88261 1.33516 0
M  V30 4852 C 443.869 0.734296 1.48988 0
M  V30 4853 O 445.054 0.985741 1.63364 0
M  V30 4854 C 442.194 2.16168 2.69008 0
M  V30 4855 C 441.307 3.43678 2.61743 0
M  V30 4856 C 440.442 3.61276 3.89427 0
M  V30 4857 C 439.481 4.82472 3.7668 0
M  V30 4858 N 438.618 4.96717 4.96202 0
M  V30 4859 H 443.458 2.79015 1.04665 0
M  V30 4860 H 440.995 1.38137 0.505618 0
M  V30 4861 H 442.953 2.30349 3.47844 0
M  V30 4862 H 441.583 1.28646 2.96057 0
M  V30 4863 H 440.635 3.37959 1.74607 0
M  V30 4864 H 441.947 4.3265 2.48224 0
M  V30 4865 H 441.101 3.75284 4.76704 0
M  V30 4866 H 439.84 2.70492 4.05814 0
M  V30 4867 H 438.845 4.68465 2.87786 0
M  V30 4868 H 440.07 5.74692 3.61809 0
M  V30 4869 H 438.016 4.08865 5.12997 0
M  V30 4870 H 437.933 5.79738 4.85222 0
M  V30 4871 H 439.201 5.15113 5.85046 0
M  V30 4872 N 443.43 -0.535701 1.48216 0
M  V30 4873 C 444.655 -1.32149 1.59848 0
M  V30 4874 C 445.08 -1.86338 0.256842 0
M  V30 4875 O 444.438 -1.64107 -0.770632 0
M  V30 4876 C 444.486 -2.45224 2.64381 0
M  V30 4877 O 443.59 -3.48093 2.21144 0
M  V30 4878 H 442.931 -0.391634 0.536208 0
M  V30 4879 H 445.461 -0.645202 1.94161 0
M  V30 4880 H 445.471 -2.91491 2.85476 0
M  V30 4881 H 444.146 -2.05143 3.61786 0
M  V30 4882 H 442.723 -3.07984 2.10239 0
M  V30 4883 N 444.908 -1.36708 -0.784132 0
M  V30 4884 C 445.855 -1.31466 -1.89698 0
M  V30 4885 C 446.825 -0.18239 -1.65096 0
M  V30 4886 O 448.01 -0.369762 -1.87183 0
M  V30 4887 C 445.15 -1.1151 -3.26588 0
M  V30 4888 C 444.263 -2.33859 -3.63227 0
M  V30 4889 C 443.398 -2.06873 -4.89262 0
M  V30 4890 C 442.437 -3.25154 -5.18595 0
M  V30 4891 N 441.574 -2.978 -6.35814 0
M  V30 4892 H 446.414 -2.26619 -1.93515 0
M  V30 4893 H 443.951 -1.12625 -0.946256 0
M  V30 4894 H 445.909 -0.979653 -4.05535 0
M  V30 4895 H 444.539 -0.200103 -3.22179 0
M  V30 4896 H 443.591 -2.58188 -2.79362 0
M  V30 4897 H 444.903 -3.22109 -3.8085 0
M  V30 4898 H 444.057 -1.90289 -5.76086 0
M  V30 4899 H 442.796 -1.15942 -4.73718 0
M  V30 4900 H 441.801 -3.42292 -4.30251 0
M  V30 4901 H 443.026 -4.1692 -5.36055 0
M  V30 4902 H 440.972 -2.09485 -6.21653 0
M  V30 4903 H 440.889 -3.7959 -6.53794 0
M  V30 4904 H 442.157 -2.84805 -7.25607 0
M  V30 4905 N 446.386 1.0089 -1.21074 0
M  V30 4906 C 447.633 1.74607 -1.0256 0
M  V30 4907 C 447.961 1.89426 0.44136 0
M  V30 4908 O 447.216 1.42266 1.34384 0
M  V30 4909 C 447.515 3.16335 -1.66334 0
M  V30 4910 C 447.181 3.21474 -3.16173 0
M  V30 4911 C 445.843 3.22583 -3.57062 0
M  V30 4912 C 448.195 3.19025 -4.12156 0
M  V30 4913 C 445.523 3.18925 -4.92446 0
M  V30 4914 C 447.875 3.16909 -5.47496 0
M  V30 4915 C 446.539 3.16326 -5.87787 0
M  V30 4916 H 445.809 0.638933 -0.375294 0
M  V30 4917 H 448.456 1.18274 -1.50611 0
M  V30 4918 H 446.761 3.75876 -1.10566 0
M  V30 4919 H 448.458 3.72083 -1.49516 0
M  V30 4920 H 445.048 3.2135 -2.83605 0
M  V30 4921 H 449.232 3.17332 -3.81595 0
M  V30 4922 H 444.488 3.16809 -5.22917 0
M  V30 4923 H 448.662 3.13968 -6.21609 0
M  V30 4924 H 446.289 3.13246 -6.92662 0
M  V30 4925 N 447.864 1.01787 1.20321 0
M  V30 4926 C 449.11 0.708985 1.90003 0
M  V30 4927 C 449.443 -0.759572 1.78729 0
M  V30 4928 O 448.718 -1.55198 1.17234 0
M  V30 4929 C 449.001 1.1469 3.41348 0
M  V30 4930 C 448.854 2.67586 3.61549 0
M  V30 4931 C 450.173 0.71915 4.34185 0
M  V30 4932 H 447.292 0.259034 0.689978 0
M  V30 4933 H 449.934 1.26584 1.41692 0
M  V30 4934 H 448.084 0.673128 3.82624 0
M  V30 4935 H 449.756 3.22826 3.29517 0
M  V30 4936 H 447.999 3.085 3.04976 0
M  V30 4937 H 448.67 2.93281 4.67643 0
M  V30 4938 H 451.146 1.12647 4.00562 0
M  V30 4939 H 450.022 1.05358 5.38694 0
M  V30 4940 H 450.283 -0.379111 4.40472 0
M  V30 4941 N 449.342 -1.36122 0.79427 0
M  V30 4942 C 450.567 -2.03891 0.379871 0
M  V30 4943 C 450.992 -1.59488 -0.997251 0
M  V30 4944 O 450.35 -0.765652 -1.64339 0
M  V30 4945 C 450.398 -3.57687 0.457442 0
M  V30 4946 O 449.502 -4.08931 -0.5338 0
M  V30 4947 H 448.843 -0.6443 0.160541 0
M  V30 4948 H 451.373 -1.73976 1.07673 0
M  V30 4949 H 451.383 -4.06721 0.322792 0
M  V30 4950 H 450.058 -3.89357 1.46199 0
M  V30 4951 H 448.635 -3.71154 -0.360409 0
M  V30 4952 N 450.82 -0.546701 -1.47814 0
M  V30 4953 C 452.05 -0.0232519 -2.06587 0
M  V30 4954 C 452.458 1.2712 -1.40133 0
M  V30 4955 O 451.801 1.77091 -0.488305 0
M  V30 4956 C 451.863 0.254117 -3.58601 0
M  V30 4957 C 451.527 -0.949331 -4.47031 0
M  V30 4958 C 452.524 -1.85216 -4.85789 0
M  V30 4959 C 450.209 -1.16104 -4.88697 0
M  V30 4960 C 452.203 -2.95047 -5.65001 0
M  V30 4961 C 449.89 -2.26247 -5.67676 0
M  V30 4962 C 450.888 -3.1555 -6.05737 0
M  V30 4963 O 450.576 -4.23784 -6.83127 0
M  V30 4964 H 450.308 -0.0380082 -0.674931 0
M  V30 4965 H 452.862 -0.756631 -1.90956 0
M  V30 4966 H 451.092 1.04168 -3.72406 0
M  V30 4967 H 452.781 0.72167 -3.99433 0
M  V30 4968 H 453.547 -1.70061 -4.54207 0
M  V30 4969 H 449.426 -0.475159 -4.58545 0
M  V30 4970 H 452.97 -3.64778 -5.94628 0
M  V30 4971 H 448.867 -2.41379 -5.98671 0
M  V30 4972 H 449.635 -4.21701 -7.01506 0
M  V30 4973 N 452.299 1.55045 -0.282633 0
M  V30 4974 C 453.71 1.85473 0.213655 0
M  V30 4975 C 454.061 1.20465 1.54863 0
M  V30 4976 O 453.186 0.495676 2.10647 0
M  V30 4977 C 453.781 3.36496 0.394445 0
M  V30 4978 C 452.34 3.67022 0.834961 0
M  V30 4979 C 451.487 2.77218 -0.0674081 0
M  V30 4980 H 454.438 1.50478 -0.504202 0
M  V30 4981 H 454.459 3.60007 1.23186 0
M  V30 4982 H 453.971 3.83782 -0.577326 0
M  V30 4983 H 452.072 3.25241 1.81794 0
M  V30 4984 H 452.185 4.74433 0.667075 0
M  V30 4985 H 450.549 2.5069 0.450196 0
M  V30 4986 H 451.332 3.2732 -1.0352 0
M  V30 4987 N 453.777 0.010035 1.57597 0
M  V30 4988 C 454.724 -0.978122 2.09049 0
M  V30 4989 C 455.694 -1.33509 0.988159 0
M  V30 4990 O 456.879 -1.43172 1.26121 0
M  V30 4991 C 454.019 -2.26158 2.60666 0
M  V30 4992 C 453.132 -1.96275 3.84838 0
M  V30 4993 C 452.267 -3.18776 4.24918 0
M  V30 4994 C 451.306 -2.84625 5.41899 0
M  V30 4995 N 450.443 -3.99693 5.77226 0
M  V30 4996 H 455.283 -0.532431 2.93205 0
M  V30 4997 H 452.82 -0.251234 1.44939 0
M  V30 4998 H 454.778 -3.01202 2.88675 0
M  V30 4999 H 453.408 -2.68378 1.79369 0
M  V30 5000 H 452.46 -1.11555 3.63675 0
M  V30 5001 H 453.772 -1.67111 4.69974 0
M  V30 5002 H 452.926 -4.02157 4.54262 0
M  V30 5003 H 451.665 -3.51087 3.38511 0
M  V30 5004 H 450.67 -1.99653 5.12268 0
M  V30 5005 H 451.895 -2.53551 6.29991 0
M  V30 5006 H 449.841 -4.31882 4.93776 0
M  V30 5007 H 449.758 -3.74087 6.56959 0
M  V30 5008 H 451.026 -4.83834 6.11167 0
M  V30 5009 N 455.255 -1.55392 -0.262866 0
M  V30 5010 C 456.205 -1.85355 -1.32768 0
M  V30 5011 C 457.189 -0.713188 -1.44231 0
M  V30 5012 O 458.381 -0.974765 -1.47741 0
M  V30 5013 C 455.51 -2.13781 -2.68612 0
M  V30 5014 C 454.596 -3.34104 -2.61219 0
M  V30 5015 N 454.987 -4.53766 -2.2345 0
M  V30 5016 C 453.285 -3.36895 -2.92263 0
M  V30 5017 C 453.986 -5.35877 -2.26298 0
M  V30 5018 N 452.962 -4.74536 -2.65172 0
M  V30 5019 H 456.764 -2.75413 -1.02591 0
M  V30 5020 H 454.278 -1.55405 -0.471503 0
M  V30 5021 H 456.275 -2.33407 -3.45437 0
M  V30 5022 H 454.935 -1.25013 -2.99669 0
M  V30 5023 H 455.946 -4.79682 -1.95258 0
M  V30 5024 H 452.623 -2.58351 -3.27965 0
M  V30 5025 H 454.013 -6.41577 -1.99572 0
M  V30 5026 N 456.733 0.527833 -1.48498 0
M  V30 5027 C 458.149 0.856571 -1.34666 0
M  V30 5028 C 458.349 1.98271 -0.35931 0
M  V30 5029 O 457.405 2.51551 0.218703 0
M  V30 5030 C 458.718 1.22207 -2.74747 0
M  V30 5031 C 460.266 1.33183 -2.83251 0
M  V30 5032 C 460.741 1.73075 -4.24039 0
M  V30 5033 N 462.232 1.80174 -4.26722 0
M  V30 5034 C 462.967 2.1243 -5.32598 0
M  V30 5035 N 462.463 2.43096 -6.4875 0
M  V30 5036 N 464.256 2.13454 -5.19994 0
M  V30 5037 H 456.407 -0.215174 -2.11307 0
M  V30 5038 H 458.67 -0.0336281 -0.947403 0
M  V30 5039 H 458.376 0.468195 -3.4857 0
M  V30 5040 H 458.25 2.17173 -3.08409 0
M  V30 5041 H 460.637 2.07647 -2.09683 0
M  V30 5042 H 460.718 0.363333 -2.53206 0
M  V30 5043 H 460.362 0.991712 -4.98124 0
M  V30 5044 H 460.292 2.70979 -4.51529 0
M  V30 5045 H 462.783 1.58744 -3.42942 0
M  V30 5046 H 463.096 2.6682 -7.25277 0
M  V30 5047 H 461.441 2.40611 -6.52021 0
M  V30 5048 H 464.632 1.88956 -4.28268 0
M  V30 5049 H 464.805 2.38261 -6.02608 0
M  V30 5050 N 458.211 1.37122 0.776871 0
M  V30 5051 C 459.158 1.3247 1.88998 0
M  V30 5052 C 460.128 0.191143 1.64997 0
M  V30 5053 O 461.313 0.379683 1.86984 0
M  V30 5054 C 458.453 1.13241 3.25992 0
M  V30 5055 C 457.566 2.35782 3.61982 0
M  V30 5056 C 456.701 2.09465 4.88158 0
M  V30 5057 C 455.74 3.279 5.16864 0
M  V30 5058 N 454.877 3.01167 6.34226 0
M  V30 5059 H 459.717 2.27642 1.9231 0
M  V30 5060 H 457.254 1.13125 0.94027 0
M  V30 5061 H 459.212 1.00115 4.0501 0
M  V30 5062 H 457.842 0.217186 3.22069 0
M  V30 5063 H 456.894 2.59666 2.77989 0
M  V30 5064 H 458.206 3.24125 3.79137 0
M  V30 5065 H 457.36 1.93341 5.75069 0
M  V30 5066 H 456.099 1.18452 4.73097 0
M  V30 5067 H 455.104 3.44569 4.2843 0
M  V30 5068 H 456.329 4.19757 5.33836 0
M  V30 5069 H 454.275 2.12779 6.20533 0
M  V30 5070 H 454.192 3.83052 6.51772 0
M  V30 5071 H 455.46 2.88649 7.24087 0
M  V30 5072 N 459.689 -1.00246 1.21608 0
M  V30 5073 C 460.652 -2.07233 0.979133 0
M  V30 5074 C 461.652 -1.6072 -0.0508219 0
M  V30 5075 O 462.842 -1.73196 0.186712 0
M  V30 5076 C 459.974 -3.37546 0.477016 0
M  V30 5077 H 461.167 -2.29687 1.92831 0
M  V30 5078 H 458.72 -1.17261 1.03342 0
M  V30 5079 H 459.455 -3.20773 -0.476966 0
M  V30 5080 H 459.24 -3.72638 1.21997 0
M  V30 5081 H 460.73 -4.16285 0.331181 0
M  V30 5082 N 461.167 -1.02423 -1.1978 0
M  V30 5083 C 462.414 -0.717988 -1.89344 0
M  V30 5084 C 462.742 0.753036 -1.79331 0
M  V30 5085 O 461.997 1.56355 -1.17692 0
M  V30 5086 C 462.296 -1.1088 -3.39765 0
M  V30 5087 C 461.962 -2.57731 -3.6998 0
M  V30 5088 C 460.624 -2.97854 -3.77937 0
M  V30 5089 C 462.976 -3.52763 -3.83677 0
M  V30 5090 C 460.304 -4.31931 -3.97054 0
M  V30 5091 C 462.656 -4.86538 -4.04306 0
M  V30 5092 C 461.32 -5.26356 -4.10494 0
M  V30 5093 H 460.59 -0.26273 -0.692859 0
M  V30 5094 H 463.237 -1.28623 -1.41875 0
M  V30 5095 H 461.542 -0.459094 -3.89101 0
M  V30 5096 H 463.239 -0.849432 -3.919 0
M  V30 5097 H 459.829 -2.25646 -3.64393 0
M  V30 5098 H 464.013 -3.2292 -3.76877 0
M  V30 5099 H 459.269 -4.62324 -4.00083 0
M  V30 5100 H 463.443 -5.60093 -4.13846 0
M  V30 5101 H 461.07 -6.3026 -4.2506 0
M  V30 5102 N 462.645 1.35699 -0.801477 0
M  V30 5103 C 463.575 2.32436 -0.222658 0
M  V30 5104 C 464.556 1.5723 0.649057 0
M  V30 5105 O 465.741 1.85324 0.580387 0
M  V30 5106 C 462.871 3.41469 0.633719 0
M  V30 5107 C 461.825 4.27774 -0.139083 0
M  V30 5108 C 461.151 5.28082 0.838666 0
M  V30 5109 C 462.451 5.04946 -1.33517 0
M  V30 5110 H 464.145 2.81094 -1.03086 0
M  V30 5111 H 461.691 1.35146 -0.497155 0
M  V30 5112 H 463.644 4.08143 1.04868 0
M  V30 5113 H 462.368 2.91408 1.47475 0
M  V30 5114 H 461.027 3.62673 -0.535156 0
M  V30 5115 H 460.675 4.7429 1.67506 0
M  V30 5116 H 460.375 5.86695 0.32594 0
M  V30 5117 H 461.899 5.97628 1.25194 0
M  V30 5118 H 463.313 5.64593 -0.995349 0
M  V30 5119 H 461.71 5.7303 -1.78202 0
M  V30 5120 H 462.78 4.35886 -2.12442 0
M  V30 5121 N 464.123 0.554532 1.47522 0
M  V30 5122 C 465.534 0.120446 1.86311 0
M  V30 5123 C 465.885 -1.30904 1.46145 0
M  V30 5124 O 465.01 -1.98434 0.863294 0
M  V30 5125 C 465.605 0.211808 3.38137 0
M  V30 5126 C 464.164 -0.167224 3.76028 0
M  V30 5127 C 463.311 0.560576 2.71575 0
M  V30 5128 H 466.262 0.764408 1.39077 0
M  V30 5129 H 466.283 -0.570275 3.76202 0
M  V30 5130 H 465.795 1.25232 3.6734 0
M  V30 5131 H 463.896 -1.20894 3.52442 0
M  V30 5132 H 464.009 0.189473 4.78725 0
M  V30 5133 H 462.373 0.00396836 2.547 0
M  V30 5134 H 463.156 1.60219 3.0362 0
M  V30 5135 N 465.601 -1.54893 0.290851 0
M  V30 5136 C 466.848 -1.99933 -0.321391 0
M  V30 5137 C 467.176 -1.17927 -1.54672 0
M  V30 5138 O 466.431 -0.240902 -1.94212 0
M  V30 5139 C 466.73 -3.49815 -0.732397 0
M  V30 5140 C 466.396 -4.4921 0.390056 0
M  V30 5141 C 465.058 -4.76107 0.698223 0
M  V30 5142 C 467.41 -5.08453 1.14562 0
M  V30 5143 C 464.738 -5.59514 1.76526 0
M  V30 5144 C 467.09 -5.9302 2.2025 0
M  V30 5145 C 465.754 -6.18232 2.51684 0
M  V30 5146 H 465.024 -0.731608 -0.117605 0
M  V30 5147 H 467.671 -1.87107 0.407839 0
M  V30 5148 H 465.976 -3.60199 -1.54155 0
M  V30 5149 H 467.673 -3.82083 -1.21712 0
M  V30 5150 H 464.263 -4.28372 0.13976 0
M  V30 5151 H 468.447 -4.87683 0.920801 0
M  V30 5152 H 463.703 -5.77289 2.01364 0
M  V30 5153 H 467.877 -6.37955 2.7926 0
M  V30 5154 H 465.504 -6.82653 3.34499 0
M  V30 5155 N 467.08 -0.0183926 -1.57589 0
M  V30 5156 C 468.01 0.965596 -2.12599 0
M  V30 5157 C 468.991 1.34641 -1.0395 0
M  V30 5158 O 470.176 1.42693 -1.31729 0
M  V30 5159 C 467.306 2.25149 -2.64434 0
M  V30 5160 C 466.26 2.01175 -3.77773 0
M  V30 5161 C 465.586 3.35937 -4.15994 0
M  V30 5162 C 466.886 1.35953 -5.04296 0
M  V30 5163 H 468.58 0.507504 -2.95067 0
M  V30 5164 H 466.126 0.242671 -1.41941 0
M  V30 5165 H 468.079 2.94357 -3.01549 0
M  V30 5166 H 466.803 2.73105 -1.79112 0
M  V30 5167 H 465.462 1.34388 -3.4108 0
M  V30 5168 H 465.11 3.81631 -3.27669 0
M  V30 5169 H 464.81 3.20705 -4.92364 0
M  V30 5170 H 466.334 4.0643 -4.55683 0
M  V30 5171 H 467.748 1.95144 -5.39065 0
M  V30 5172 H 466.145 1.31152 -5.85593 0
M  V30 5173 H 467.215 0.331071 -4.83768 0
M  V30 5174 N 468.558 1.5553 0.254621 0
M  V30 5175 C 469.805 1.77 0.983736 0
M  V30 5176 C 470.133 0.58133 1.85609 0
M  V30 5177 O 469.388 -0.435621 1.9079 0
M  V30 5178 C 469.687 3.03891 1.88109 0
M  V30 5179 C 469.353 4.35597 1.16472 0
M  V30 5180 C 468.015 4.7139 0.966714 0
M  V30 5181 C 470.367 5.1705 0.656387 0
M  V30 5182 C 467.695 5.86176 0.247942 0
M  V30 5183 C 470.047 6.32581 -0.0488807 0
M  V30 5184 C 468.711 6.67 -0.258438 0
M  V30 5185 H 467.981 0.647688 0.359974 0
M  V30 5186 H 470.628 1.89802 0.254463 0
M  V30 5187 H 468.933 2.86068 2.67717 0
M  V30 5188 H 470.63 3.17701 2.44677 0
M  V30 5189 H 467.22 4.07475 1.32899 0
M  V30 5190 H 471.404 4.8986 0.796933 0
M  V30 5191 H 466.66 6.11354 0.075035 0
M  V30 5192 H 470.834 6.94942 -0.450444 0
M  V30 5193 H 468.461 7.55793 -0.817358 0
M  V30 5194 O 470.075 -0.400303 1.5646 0
M  V30 5195 H 470.766 -1.05256 1.62607 0
M  V30 END ATOM
M  V30 BEGIN BOND
M  V30 END BOND
M  V30 END CTAB
M  END
$$$$
