drugbank_target|Q9HAN9 Nicotinamide/nicotinic acid mononucleotide adenylyltransferase 1 (DB03227; DB04099)
 OpenBabel12092120003D

  0  0  0     0  0            999 V3000
M  V30 BEGIN CTAB
M  V30 COUNTS 4518 4562 0 0 0
M  V30 BEGIN ATOM
M  V30 1 H -0.908 1.98254 -0.117106 0
M  V30 2 N 0 1.576 0 0
M  V30 3 C 0.933 2.03868 1.02534 0
M  V30 4 C 1.911 0.928543 1.3348 0
M  V30 5 O 3.095 1.19667 1.45644 0
M  V30 6 C 0.222 2.43627 2.35294 0
M  V30 7 C -0.732 3.65373 2.2001 0
M  V30 8 S 0.101 5.13292 1.52614 0
M  V30 9 C 1.257 5.56322 2.86805 0
M  V30 10 H 1.49 2.90518 0.631377 0
M  V30 11 H -0.977 1.52953 0.210867 0
M  V30 12 H 0.981 2.67203 3.11629 0
M  V30 13 H -0.358 1.57376 2.7183 0
M  V30 14 H -1.165 3.90944 3.18086 0
M  V30 15 H -1.563 3.418 1.51819 0
M  V30 16 H 0.729 5.58782 3.83104 0
M  V30 17 H 1.672 6.56266 2.65933 0
M  V30 18 H 2.08 4.83886 2.90714 0
M  V30 19 N 1.4781 -0.272755 1.55222 0
M  V30 20 C 2.3881 -1.35918 1.91216 0
M  V30 21 C 3.4041 -1.54026 0.809436 0
M  V30 22 O 4.5801 -1.68148 1.10852 0
M  V30 23 C 1.6451 -2.69834 2.17693 0
M  V30 24 C 0.7061 -2.6047 3.41253 0
M  V30 25 C -0.0609 -3.88 3.66458 0
M  V30 26 O 0.1621 -4.88693 2.94169 0
M  V30 27 O -0.9039 -3.88189 4.59992 0
M  V30 28 H 2.9221 -1.0839 2.83699 0
M  V30 29 H 0.5071 -0.471301 1.41771 0
M  V30 30 H 2.3891 -3.49017 2.36147 0
M  V30 31 H 1.0641 -2.97148 1.28392 0
M  V30 32 H -0.0289 -1.79663 3.28134 0
M  V30 33 H 1.3041 -2.38106 4.30774 0
M  V30 34 N 2.9562 -1.48159 -0.537278 0
M  V30 35 C 3.9042 -1.62573 -1.66352 0
M  V30 36 C 4.8982 -0.492366 -1.62087 0
M  V30 37 O 6.1042 -0.670847 -1.67032 0
M  V30 38 H 2.4792 -0.511992 -0.550789 0
M  V30 39 H 4.4502 -2.57176 -1.51337 0
M  V30 40 C 3.1992 -1.67583 -3.04649 0
M  V30 41 H 2.5222 -2.54151 -3.08622 0
M  V30 42 H 3.9622 -1.81713 -3.83088 0
M  V30 43 C 2.4212 -0.413039 -3.34358 0
M  V30 44 O 2.9512 0.477259 -3.98855 0
M  V30 45 N 1.1572 -0.286961 -2.8918 0
M  V30 46 H 0.7042 -1.01241 -2.36871 0
M  V30 47 H 0.6622 0.556963 -3.09427 0
M  V30 48 N 4.4343 0.785586 -1.36625 0
M  V30 49 C 5.6593 1.57963 -1.34397 0
M  V30 50 C 6.0843 1.87964 0.071526 0
M  V30 51 O 5.4423 1.48182 1.0446 0
M  V30 52 C 5.4903 2.87511 -2.17646 0
M  V30 53 O 4.5943 3.81281 -1.57158 0
M  V30 54 H 3.9353 0.479014 -0.459828 0
M  V30 55 H 6.4653 0.973411 -1.79961 0
M  V30 56 H 6.4753 3.36745 -2.30362 0
M  V30 57 H 5.1503 2.65002 -3.20541 0
M  V30 58 H 3.7273 3.39885 -1.53403 0
M  V30 59 N 5.9124 1.20967 1.01018 0
M  V30 60 C 6.8224 0.980157 2.13143 0
M  V30 61 C 7.8384 -0.0660665 1.73875 0
M  V30 62 O 9.0144 0.122821 2.01025 0
M  V30 63 C 6.0794 0.54216 3.42435 0
M  V30 64 C 5.1404 1.65999 3.95908 0
M  V30 65 C 4.3734 1.2428 5.19028 0
M  V30 66 O 4.5964 0.114196 5.70286 0
M  V30 67 O 3.5304 2.05271 5.65816 0
M  V30 68 H 7.3564 1.91913 2.35379 0
M  V30 69 H 4.9414 0.994099 1.11526 0
M  V30 70 H 6.8234 0.30744 4.20277 0
M  V30 71 H 5.4984 -0.36815 3.216 0
M  V30 72 H 4.4054 1.94906 3.19316 0
M  V30 73 H 5.7384 2.54753 4.21143 0
M  V30 74 N 7.3905 -1.2043 1.01659 0
M  V30 75 C 8.3375 -2.23215 0.586822 0
M  V30 76 C 9.3075 -1.61382 -0.393085 0
M  V30 77 O 10.4925 -1.88544 -0.292525 0
M  V30 78 C 7.6325 -3.45032 -0.0687464 0
M  V30 79 C 6.7455 -4.21296 0.955724 0
M  V30 80 C 5.8805 -5.30507 0.271208 0
M  V30 81 C 4.9195 -5.98515 1.28244 0
M  V30 82 N 4.0565 -6.99316 0.62459 0
M  V30 83 H 8.8965 -2.59336 1.46796 0
M  V30 84 H 6.4335 -1.27431 0.734836 0
M  V30 85 H 8.3915 -4.1459 -0.465965 0
M  V30 86 H 7.0215 -3.09604 -0.913529 0
M  V30 87 H 6.0735 -3.50803 1.4711 0
M  V30 88 H 7.3855 -4.6803 1.72479 0
M  V30 89 H 6.5395 -6.06428 -0.18151 0
M  V30 90 H 5.2785 -4.8481 -0.530163 0
M  V30 91 H 4.2835 -5.21355 1.74554 0
M  V30 92 H 5.5085 -6.46298 2.08509 0
M  V30 93 H 3.4545 -6.55812 -0.156914 0
M  V30 94 H 3.3715 -7.44178 1.33172 0
M  V30 95 H 4.6395 -7.79255 0.195462 0
M  V30 96 N 8.8686 -0.792821 -1.36206 0
M  V30 97 C 10.0966 -0.378825 -2.03402 0
M  V30 98 C 10.5116 1.00586 -1.59774 0
M  V30 99 O 9.8686 1.64574 -0.788764 0
M  V30 100 C 9.9196 -0.43683 -3.58851 0
M  V30 101 O 9.6406 -1.76691 -4.00889 0
M  V30 102 C 11.1416 -0.0138943 -4.43298 0
M  V30 103 H 8.3616 -0.155673 -0.652692 0
M  V30 104 H 10.9056 -1.07261 -1.74113 0
M  V30 105 H 9.0606 0.208575 -3.86838 0
M  V30 106 H 9.4746 -1.72011 -4.95492 0
M  V30 107 H 10.9486 -0.105615 -5.51899 0
M  V30 108 H 11.4256 1.03915 -4.2673 0
M  V30 109 H 12.0316 -0.63192 -4.20579 0
M  V30 110 N 10.3467 1.47872 -0.545128 0
M  V30 111 C 11.2567 2.33633 0.212746 0
M  V30 112 C 12.2727 1.4744 0.923983 0
M  V30 113 O 13.4487 1.80393 0.895572 0
M  V30 114 C 10.5137 3.23884 1.23693 0
M  V30 115 C 9.5747 4.25961 0.534417 0
M  V30 116 C 8.8077 5.11899 1.5098 0
M  V30 117 O 9.0307 5.00077 2.7437 0
M  V30 118 O 7.9647 5.92831 1.0409 0
M  V30 119 H 11.7907 2.99714 -0.490416 0
M  V30 120 H 9.3757 1.46235 -0.305871 0
M  V30 121 H 11.2577 3.79666 1.82843 0
M  V30 122 H 9.9327 2.60446 1.92222 0
M  V30 123 H 8.8397 3.73972 -0.0979679 0
M  V30 124 H 10.1727 4.92079 -0.109213 0
M  V30 125 N 11.8248 0.280983 1.55075 0
M  V30 126 C 13.0708 -0.33461 2.00021 0
M  V30 127 C 13.4038 -1.55063 1.16915 0
M  V30 128 O 12.6788 -1.93006 0.240646 0
M  V30 129 C 12.9618 -0.711007 3.53011 0
M  V30 130 C 12.8148 0.512766 4.46868 0
M  V30 131 C 14.1338 -1.54522 4.12081 0
M  V30 132 H 11.2528 -0.120147 0.727141 0
M  V30 133 H 13.8948 0.389097 1.85973 0
M  V30 134 H 12.0448 -1.32761 3.65112 0
M  V30 135 H 13.7168 1.15131 4.46702 0
M  V30 136 H 11.9598 1.14975 4.18286 0
M  V30 137 H 12.6308 0.205556 5.51617 0
M  V30 138 H 15.1068 -1.02442 4.03293 0
M  V30 139 H 13.9828 -1.77739 5.19327 0
M  V30 140 H 14.2438 -2.52813 3.62682 0
M  V30 141 N 13.3029 -1.57598 0.00835791 0
M  V30 142 C 14.5489 -1.91211 -0.675732 0
M  V30 143 C 14.8819 -0.883139 -1.72958 0
M  V30 144 O 14.1569 0.097016 -1.94258 0
M  V30 145 C 14.4399 -3.35379 -1.31123 0
M  V30 146 C 14.2929 -4.48999 -0.268356 0
M  V30 147 C 15.6119 -3.7912 -2.23508 0
M  V30 148 H 12.7309 -0.695374 -0.244179 0
M  V30 149 H 15.3729 -1.89901 0.0613655 0
M  V30 150 H 13.5229 -3.36626 -1.93946 0
M  V30 151 H 15.1949 -4.59887 0.360844 0
M  V30 152 H 13.4379 -4.31873 0.408482 0
M  V30 153 H 14.1089 -5.46851 -0.752218 0
M  V30 154 H 16.5849 -3.79477 -1.70693 0
M  V30 155 H 15.4609 -4.80729 -2.64936 0
M  V30 156 H 15.7219 -3.13455 -3.11766 0
M  V30 157 N 14.781 0.264519 -1.55364 0
M  V30 158 C 15.711 1.33121 -1.91836 0
M  V30 159 C 16.692 1.51101 -0.781192 0
M  V30 160 O 17.877 1.64003 -1.04003 0
M  V30 161 C 15.007 2.68921 -2.19769 0
M  V30 162 C 13.961 2.65661 -3.35571 0
M  V30 163 C 13.287 4.05093 -3.49004 0
M  V30 164 C 14.587 2.24187 -4.71739 0
M  V30 165 H 16.281 1.02844 -2.81182 0
M  V30 166 H 13.827 0.493286 -1.35287 0
M  V30 167 H 15.78 3.43663 -2.43872 0
M  V30 168 H 14.504 3.00799 -1.27231 0
M  V30 169 H 13.163 1.93377 -3.1145 0
M  V30 170 H 12.811 4.34206 -2.53917 0
M  V30 171 H 12.511 4.03804 -4.26868 0
M  V30 172 H 14.035 4.81561 -3.75408 0
M  V30 173 H 15.449 2.88654 -4.9533 0
M  V30 174 H 13.846 2.34044 -5.52579 0
M  V30 175 H 14.916 1.19327 -4.69988 0
M  V30 176 N 16.2591 1.48442 0.529413 0
M  V30 177 C 17.1891 1.65902 1.64313 0
M  V30 178 C 18.1701 0.507897 1.6234 0
M  V30 179 O 19.3551 0.740503 1.79528 0
M  V30 180 C 16.4851 1.69911 3.02898 0
M  V30 181 C 15.4391 2.8453 3.19729 0
M  V30 182 C 14.7651 2.73629 4.59381 0
M  V30 183 C 16.0651 4.25821 3.02447 0
M  V30 184 H 17.7591 2.5914 1.49955 0
M  V30 185 H 15.3051 1.24709 0.719982 0
M  V30 186 H 17.2581 1.80715 3.80684 0
M  V30 187 H 15.9821 0.732524 3.18279 0
M  V30 188 H 14.6411 2.73283 2.44361 0
M  V30 189 H 14.2891 1.74938 4.71599 0
M  V30 190 H 13.9891 3.50541 4.71588 0
M  V30 191 H 15.5131 2.86401 5.39265 0
M  V30 192 H 16.9271 4.37898 3.70024 0
M  V30 193 H 15.3241 5.03735 3.26146 0
M  V30 194 H 16.3941 4.42244 1.98867 0
M  V30 195 N 17.7372 -0.778329 1.37039 0
M  V30 196 C 18.7002 -1.87301 1.32102 0
M  V30 197 C 19.7002 -1.59198 0.226405 0
M  V30 198 O 20.8902 -1.67403 0.481861 0
M  V30 199 C 18.0222 -3.24309 1.05055 0
M  V30 200 H 19.2152 -1.93093 2.29467 0
M  V30 201 H 16.7682 -0.977358 1.21973 0
M  V30 202 H 17.5032 -3.24196 0.0819373 0
M  V30 203 H 17.2882 -3.46098 1.84279 0
M  V30 204 H 18.7782 -4.04382 1.04234 0
M  V30 205 N 19.2153 -1.21501 -1.00376 0
M  V30 206 C 20.4553 -1.04444 -1.75701 0
M  V30 207 C 20.8193 0.414644 -1.87469 0
M  V30 208 O 22.0203 0.705763 -2.59369 0
M  V30 209 C 20.2913 -1.72389 -3.13077 0
M  V30 210 S 21.8503 -1.70604 -4.04277 0
M  V30 211 H 18.6683 -0.374249 -0.604532 0
M  V30 212 H 21.2703 -1.54267 -1.20091 0
M  V30 213 H 19.9743 -2.77734 -3.02146 0
M  V30 214 H 19.5053 -1.22751 -3.73759 0
M  V30 215 H 21.5203 -0.748012 -4.9053 0
M  V30 216 N 20.6934 1.19889 -1.02296 0
M  V30 217 C 21.9414 1.89046 -0.714558 0
M  V30 218 C 22.2624 1.79636 0.758681 0
M  V30 219 O 21.5324 1.20292 1.54618 0
M  V30 220 H 20.1124 0.699802 -0.261317 0
M  V30 221 H 22.7744 1.45574 -1.29592 0
M  V30 222 H 21.8704 2.95524 -1.0036 0
M  V30 223 N 22.1715 0.800033 1.35784 0
M  V30 224 C 23.3965 0.388511 2.03729 0
M  V30 225 C 23.8215 -0.990481 1.5991 0
M  V30 226 O 23.1795 -1.64013 0.772612 0
M  V30 227 C 23.2275 0.4726 3.5749 0
M  V30 228 O 22.3315 -0.51646 4.09153 0
M  V30 229 H 21.6725 0.163271 0.643614 0
M  V30 230 H 24.2025 1.0841 1.73518 0
M  V30 231 H 24.2125 0.34003 4.06581 0
M  V30 232 H 22.8875 1.47848 3.88734 0
M  V30 233 H 21.4645 -0.344673 3.71304 0
M  V30 234 N 23.6496 -1.47581 0.552962 0
M  V30 235 C 24.8966 -2.02482 0.0273243 0
M  V30 236 C 25.2246 -1.42776 -1.32081 0
M  V30 237 O 24.4796 -0.571393 -1.87173 0
M  V30 238 C 24.7786 -3.57199 -0.119728 0
M  V30 239 C 24.4446 -4.35804 1.15697 0
M  V30 240 C 23.1066 -4.57 1.50681 0
M  V30 241 C 25.4586 -4.81167 2.00319 0
M  V30 242 C 22.7866 -5.20807 2.70142 0
M  V30 243 C 25.1386 -5.46293 3.18978 0
M  V30 244 C 23.8026 -5.65722 3.54281 0
M  V30 245 H 23.0726 -0.740933 0.00999866 0
M  V30 246 H 25.7196 -1.77302 0.72362 0
M  V30 247 H 24.0246 -3.81348 -0.89896 0
M  V30 248 H 25.7216 -3.97324 -0.541718 0
M  V30 249 H 22.3116 -4.19582 0.874561 0
M  V30 250 H 26.4956 -4.64574 1.74599 0
M  V30 251 H 21.7516 -5.34045 2.97668 0
M  V30 252 H 25.9256 -5.80407 3.84838 0
M  V30 253 H 23.5526 -6.14936 4.46942 0
M  V30 254 N 25.1277 -0.289203 -1.54924 0
M  V30 255 C 26.0757 0.607966 -2.24514 0
M  V30 256 C 27.0697 1.14655 -1.24702 0
M  V30 257 O 28.2757 1.09856 -1.4259 0
M  V30 258 H 24.6507 0.21464 -0.720718 0
M  V30 259 H 26.6217 -0.00164182 -2.984 0
M  V30 260 C 25.3707 1.77406 -2.99036 0
M  V30 261 H 24.6937 1.36884 -3.75637 0
M  V30 262 H 26.1337 2.37814 -3.51028 0
M  V30 263 C 24.5927 2.67107 -2.05318 0
M  V30 264 O 25.1227 3.6787 -1.61353 0
M  V30 265 N 23.3287 2.34582 -1.71521 0
M  V30 266 H 22.8757 1.52688 -2.07471 0
M  V30 267 H 22.8337 2.94867 -1.0909 0
M  V30 268 N 26.6058 1.57591 -0.0167156 0
M  V30 269 C 28.0168 1.79201 0.523834 0
M  V30 270 C 28.3678 0.925796 1.72984 0
M  V30 271 O 27.4928 0.132792 2.15992 0
M  V30 272 C 28.0878 3.25 0.957091 0
M  V30 273 C 26.6468 3.47648 1.44283 0
M  V30 274 C 25.7938 2.74374 0.401757 0
M  V30 275 H 28.7448 1.56831 -0.242816 0
M  V30 276 H 28.7658 3.34031 1.82219 0
M  V30 277 H 28.2778 3.88019 0.0791415 0
M  V30 278 H 26.3788 2.89866 2.34113 0
M  V30 279 H 26.4918 4.56352 1.45877 0
M  V30 280 H 24.8558 2.39485 0.867121 0
M  V30 281 H 25.6388 3.40102 -0.467513 0
M  V30 282 N 28.0839 -0.256276 1.55502 0
M  V30 283 C 29.3329 -0.983486 1.76098 0
M  V30 284 C 29.6459 -1.86837 0.578896 0
M  V30 285 O 30.8519 -2.63163 0.667648 0
M  V30 286 C 29.3079 -1.79868 3.1173 0
M  V30 287 C 28.9159 -0.961648 4.37557 0
M  V30 288 C 30.6599 -2.51919 3.41668 0
M  V30 289 C 28.5669 -1.77219 5.64223 0
M  V30 290 H 27.4969 -0.370936 0.656447 0
M  V30 291 H 30.1479 -0.238492 1.81944 0
M  V30 292 H 28.5299 -2.58527 2.99966 0
M  V30 293 H 29.7039 -0.218048 4.60284 0
M  V30 294 H 28.0189 -0.354913 4.14885 0
M  V30 295 H 30.6159 -3.12998 4.33516 0
M  V30 296 H 30.9589 -3.23059 2.62562 0
M  V30 297 H 31.4919 -1.80278 3.54605 0
M  V30 298 H 28.2309 -1.10471 6.46124 0
M  V30 299 H 27.7509 -2.49132 5.45613 0
M  V30 300 H 29.4299 -2.34169 6.03137 0
M  V30 301 N 29.562 -1.4872 -0.521534 0
M  V30 302 C 30.79 -1.60843 -1.30142 0
M  V30 303 C 31.205 -0.271897 -1.86832 0
M  V30 304 O 30.562 0.739969 -1.66825 0
M  V30 305 C 30.613 -2.66155 -2.4463 0
M  V30 306 O 30.334 -3.94623 -1.90275 0
M  V30 307 C 31.835 -2.88795 -3.36322 0
M  V30 308 H 29.055 -0.542075 -0.395468 0
M  V30 309 H 31.599 -1.94609 -0.628285 0
M  V30 310 H 29.754 -2.35224 -3.07812 0
M  V30 311 H 30.168 -4.52468 -2.65279 0
M  V30 312 H 31.642 -3.66264 -4.12983 0
M  V30 313 H 32.119 -1.97934 -3.9207 0
M  V30 314 H 32.725 -3.21063 -2.78924 0
M  V30 315 N 31.0401 0.771051 -1.3745 0
M  V30 316 C 31.9881 1.90574 -1.33358 0
M  V30 317 C 32.9821 1.67936 -0.22224 0
M  V30 318 O 34.1881 1.75717 -0.390304 0
M  V30 319 H 30.5631 0.626714 -0.415612 0
M  V30 320 H 32.5341 1.91142 -2.29144 0
M  V30 321 C 31.2831 3.27845 -1.15813 0
M  V30 322 H 30.6061 3.45842 -2.00583 0
M  V30 323 H 32.0461 4.07538 -1.17 0
M  V30 324 C 30.5051 3.36625 0.136165 0
M  V30 325 O 31.0351 3.85785 1.11949 0
M  V30 326 N 29.2411 2.89997 0.187099 0
M  V30 327 H 28.7881 2.50182 -0.613753 0
M  V30 328 H 28.7461 2.96252 1.05272 0
M  V30 329 N 32.5182 1.22032 0.997298 0
M  V30 330 C 33.4512 0.929735 2.08401 0
M  V30 331 C 34.4292 -0.125681 1.62114 0
M  V30 332 O 35.6132 0.00495409 1.88499 0
M  V30 333 C 32.7402 0.397488 3.3636 0
M  V30 334 C 31.7862 1.4369 4.01566 0
M  V30 335 S 32.6192 3.00874 4.42984 0
M  V30 336 C 33.7752 2.49276 5.74119 0
M  V30 337 H 34.0082 1.84998 2.32729 0
M  V30 338 H 31.5412 1.0509 1.13117 0
M  V30 339 H 33.4992 0.0969846 4.10385 0
M  V30 340 H 32.1602 -0.501571 3.10069 0
M  V30 341 H 31.3532 1.01427 4.93689 0
M  V30 342 H 30.9552 1.68588 3.33847 0
M  V30 343 H 33.2472 1.90242 6.50242 0
M  V30 344 H 34.1902 3.39872 6.21203 0
M  V30 345 H 34.5982 1.90714 5.31308 0
M  V30 346 N 33.9963 -1.19345 1.0293 0
M  V30 347 C 34.9463 -2.20472 0.58104 0
M  V30 348 C 35.9303 -1.56578 -0.370442 0
M  V30 349 O 37.1223 -1.75963 -0.191344 0
M  V30 350 C 34.2513 -3.43236 -0.066306 0
M  V30 351 C 33.3373 -4.14274 0.907642 0
M  V30 352 N 33.7283 -4.61492 2.07023 0
M  V30 353 C 32.0263 -4.39966 0.731177 0
M  V30 354 C 32.7273 -5.1605 2.68454 0
M  V30 355 N 31.7033 -5.06875 1.96414 0
M  V30 356 H 35.5053 -2.54659 1.46717 0
M  V30 357 H 33.0193 -1.35423 0.896345 0
M  V30 358 H 35.0163 -4.14927 -0.405068 0
M  V30 359 H 33.6763 -3.10549 -0.948118 0
M  V30 360 H 34.6873 -4.56304 2.44963 0
M  V30 361 H 31.3643 -4.17377 -0.101507 0
M  V30 362 H 32.7543 -5.6287 3.66915 0
M  V30 363 N 35.4744 -0.807222 -1.35358 0
M  V30 364 C 36.4044 -0.232509 -2.3234 0
M  V30 365 C 37.3854 0.642386 -1.57504 0
M  V30 366 O 38.5704 0.572526 -1.85569 0
M  V30 367 C 35.7004 0.619238 -3.41735 0
M  V30 368 C 34.6544 -0.157215 -4.27711 0
M  V30 369 C 33.9804 0.816273 -5.28433 0
M  V30 370 C 35.2804 -1.35656 -5.04376 0
M  V30 371 H 36.9744 -1.04276 -2.80654 0
M  V30 372 H 34.5204 -0.50288 -1.34934 0
M  V30 373 H 36.4734 1.03137 -4.08584 0
M  V30 374 H 35.1974 1.46239 -2.92031 0
M  V30 375 H 33.8564 -0.550525 -3.62443 0
M  V30 376 H 33.5044 1.65494 -4.74996 0
M  V30 377 H 33.2044 0.301067 -5.86828 0
M  V30 378 H 34.7284 1.22659 -5.98153 0
M  V30 379 H 36.1424 -1.01927 -5.64166 0
M  V30 380 H 34.5394 -1.8063 -5.7227 0
M  V30 381 H 35.6094 -2.14288 -4.34981 0
M  V30 382 N 36.9525 1.47285 -0.560781 0
M  V30 383 C 38.3685 1.58065 -0.22081 0
M  V30 384 C 38.5685 1.55892 1.27671 0
M  V30 385 O 37.6245 1.46422 2.0571 0
M  V30 386 C 38.9375 2.88418 -0.850625 0
M  V30 387 C 40.4855 3.02009 -0.822184 0
M  V30 388 C 40.9605 4.35066 -1.43113 0
M  V30 389 N 42.4515 4.41711 -1.39448 0
M  V30 390 C 43.1865 5.43237 -1.83525 0
M  V30 391 N 42.6825 6.51555 -2.35474 0
M  V30 392 N 44.4755 5.34304 -1.74574 0
M  V30 393 H 36.6265 1.46941 -1.53369 0
M  V30 394 H 38.8895 0.699558 -0.639783 0
M  V30 395 H 38.5955 2.95755 -1.9032 0
M  V30 396 H 38.4695 3.75612 -0.345773 0
M  V30 397 H 40.8565 2.94266 0.221714 0
M  V30 398 H 40.9375 2.16347 -1.36483 0
M  V30 399 H 40.5815 4.43565 -2.47412 0
M  V30 400 H 40.5115 5.19465 -0.863899 0
M  V30 401 H 43.0025 3.64027 -1.01452 0
M  V30 402 H 43.3155 7.25203 -2.67021 0
M  V30 403 H 41.6605 6.52435 -2.39487 0
M  V30 404 H 44.8515 4.48581 -1.33763 0
M  V30 405 H 45.0245 6.13288 -2.09242 0
M  V30 406 N 38.4306 0.297415 1.54768 0
M  V30 407 C 39.3606 -0.573494 2.26348 0
M  V30 408 C 40.3416 -1.14085 1.26169 0
M  V30 409 O 41.5266 -1.17086 1.54934 0
M  V30 410 C 38.6566 -1.74716 3.00153 0
M  V30 411 C 37.6106 -1.31032 4.07449 0
M  V30 412 C 36.9366 -2.56887 4.68949 0
M  V30 413 C 38.2366 -0.444183 5.20408 0
M  V30 414 H 39.9306 0.0235131 2.99391 0
M  V30 415 H 37.4766 0.0127488 1.43994 0
M  V30 416 H 39.4296 -2.3625 3.48947 0
M  V30 417 H 38.1536 -2.37035 2.24682 0
M  V30 418 H 36.8126 -0.718066 3.59499 0
M  V30 419 H 36.4606 -3.17512 3.90122 0
M  V30 420 H 36.1606 -2.2836 5.41411 0
M  V30 421 H 37.6846 -3.19229 5.20505 0
M  V30 422 H 39.0986 -0.9651 5.65118 0
M  V30 423 H 37.4956 -0.252846 5.99567 0
M  V30 424 H 38.5656 0.531609 4.81977 0
M  V30 425 N 39.9087 -1.5758 0.0250728 0
M  V30 426 C 41.1557 -1.91633 -0.654444 0
M  V30 427 C 41.4837 -0.901103 -1.72367 0
M  V30 428 O 40.7387 0.0905647 -1.9549 0
M  V30 429 C 41.0377 -3.32421 -1.31268 0
M  V30 430 C 40.7037 -4.49344 -0.374223 0
M  V30 431 C 39.3657 -4.8106 -0.115911 0
M  V30 432 C 41.7177 -5.20498 0.270432 0
M  V30 433 C 39.0457 -5.8129 0.79493 0
M  V30 434 C 41.3977 -6.21699 1.1693 0
M  V30 435 C 40.0617 -6.51859 1.43655 0
M  V30 436 H 39.3317 -0.701236 -0.239478 0
M  V30 437 H 41.9787 -1.91307 0.0859734 0
M  V30 438 H 40.2837 -3.28989 -2.12775 0
M  V30 439 H 41.9807 -3.56038 -1.84494 0
M  V30 440 H 38.5707 -4.24579 -0.58573 0
M  V30 441 H 42.7547 -4.96229 0.0839194 0
M  V30 442 H 38.0107 -6.03005 1.00973 0
M  V30 443 H 42.1847 -6.75955 1.67504 0
M  V30 444 H 39.8117 -7.2934 2.144 0
M  V30 445 N 41.3868 0.248026 -1.55636 0
M  V30 446 C 42.2968 1.32859 -1.93354 0
M  V30 447 C 43.3128 1.52719 -0.833838 0
M  V30 448 O 44.4888 1.66363 -1.13513 0
M  V30 449 C 41.5538 2.66337 -2.21958 0
M  V30 450 C 40.6148 2.55008 -3.45354 0
M  V30 451 C 39.8478 3.82121 -3.72584 0
M  V30 452 O 40.0708 4.83951 -3.01907 0
M  V30 453 O 39.0048 3.80822 -4.6611 0
M  V30 454 H 42.8308 1.03862 -2.85388 0
M  V30 455 H 40.4158 0.448686 -1.42503 0
M  V30 456 H 42.2978 3.45216 -2.4167 0
M  V30 457 H 40.9728 2.95068 -1.33103 0
M  V30 458 H 39.8798 1.7442 -3.30951 0
M  V30 459 H 41.2128 2.31222 -4.34508 0
M  V30 460 N 42.8649 1.48995 0.513639 0
M  V30 461 C 43.7949 1.67636 1.62544 0
M  V30 462 C 44.7759 0.525087 1.61793 0
M  V30 463 O 45.9609 0.759502 1.78732 0
M  V30 464 C 43.0909 1.73114 3.01079 0
M  V30 465 C 42.0449 2.87905 3.16693 0
M  V30 466 C 41.3709 2.78486 4.56453 0
M  V30 467 C 42.6709 4.29005 2.97913 0
M  V30 468 H 44.3649 2.60716 1.47198 0
M  V30 469 H 41.9109 1.25465 0.706714 0
M  V30 470 H 43.8639 1.84742 3.78746 0
M  V30 471 H 42.5879 0.766241 3.17484 0
M  V30 472 H 41.2469 2.75859 2.41448 0
M  V30 473 H 40.8949 1.7993 4.69717 0
M  V30 474 H 40.5949 3.55523 4.67843 0
M  V30 475 H 42.1189 2.92104 5.36197 0
M  V30 476 H 43.5329 4.41798 3.65359 0
M  V30 477 H 41.9299 5.07166 3.20785 0
M  V30 478 H 42.9999 4.44329 1.94165 0
M  V30 479 N 44.343 -0.763751 1.37857 0
M  V30 480 C 45.306 -1.85889 1.34081 0
M  V30 481 C 46.306 -1.58949 0.243277 0
M  V30 482 O 47.496 -1.66882 0.499589 0
M  V30 483 C 44.628 -3.23176 1.08489 0
M  V30 484 H 45.821 -1.90648 2.31502 0
M  V30 485 H 43.374 -0.964367 1.23003 0
M  V30 486 H 44.109 -3.24091 0.116318 0
M  V30 487 H 43.894 -3.44124 1.8794 0
M  V30 488 H 45.384 -4.03254 1.08517 0
M  V30 489 N 45.8211 -1.22559 -0.990812 0
M  V30 490 C 46.7681 -0.997519 -2.0813 0
M  V30 491 C 47.7381 0.0814702 -1.659 0
M  V30 492 O 48.9231 -0.0685424 -1.90677 0
M  V30 493 C 46.0631 -0.583615 -3.40129 0
M  V30 494 C 45.1761 -1.7336 -3.9569 0
M  V30 495 C 44.3111 -1.26748 -5.15857 0
M  V30 496 C 43.3501 -2.38888 -5.63559 0
M  V30 497 N 42.4871 -1.93308 -6.74964 0
M  V30 498 H 47.3271 -1.93099 -2.26973 0
M  V30 499 H 44.8641 -0.962114 -1.11273 0
M  V30 500 H 46.8221 -0.324801 -4.15934 0
M  V30 501 H 45.4521 0.312845 -3.2128 0
M  V30 502 H 44.5041 -2.10669 -3.16738 0
M  V30 503 H 45.8161 -2.57704 -4.27071 0
M  V30 504 H 44.9701 -0.966173 -5.98957 0
M  V30 505 H 43.7091 -0.394272 -4.86104 0
M  V30 506 H 42.7141 -2.69805 -4.79046 0
M  V30 507 H 43.9391 -3.26728 -5.95336 0
M  V30 508 H 41.8851 -1.08352 -6.4699 0
M  V30 509 H 41.8021 -2.71217 -7.05675 0
M  V30 510 H 43.0701 -1.66252 -7.61564 0
M  V30 511 N 47.2992 1.18797 -1.03562 0
M  V30 512 C 48.5762 1.84469 -0.650434 0
M  V30 513 C 48.9562 1.92319 0.870433 0
M  V30 514 O 48.3042 1.44528 1.76986 0
M  V30 515 C 48.5142 3.2306 -1.32036 0
M  V30 516 C 49.8622 3.9915 -1.44792 0
M  V30 517 O 50.8862 3.32481 -1.27806 0
M  V30 518 O 49.7452 5.18587 -1.72423 0
M  V30 519 H 46.8392 0.795251 -0.226946 0
M  V30 520 H 49.3852 1.26231 -1.13419 0
M  V30 521 H 48.1572 3.1222 -2.3587 0
M  V30 522 H 47.7802 3.88949 -0.8249 0
M  V30 523 N 48.7773 0.814389 1.34928 0
M  V30 524 C 50.0073 0.41054 2.0248 0
M  V30 525 C 50.4153 -0.985625 1.61499 0
M  V30 526 O 49.7583 -1.64781 0.811976 0
M  V30 527 C 49.8203 0.423384 3.56998 0
M  V30 528 C 49.4843 1.77141 4.21272 0
M  V30 529 C 50.4813 2.73093 4.42398 0
M  V30 530 C 48.1663 2.05755 4.58225 0
M  V30 531 C 50.1603 3.95838 4.9959 0
M  V30 532 C 47.8473 3.28762 5.1513 0
M  V30 533 C 48.8453 4.23621 5.35755 0
M  V30 534 O 48.5333 5.44456 5.91458 0
M  V30 535 H 48.2653 0.163997 0.655806 0
M  V30 536 H 50.8193 1.10155 1.73364 0
M  V30 537 H 49.0493 -0.324276 3.85338 0
M  V30 538 H 50.7383 0.0407683 4.0588 0
M  V30 539 H 51.5043 2.5228 4.14222 0
M  V30 540 H 47.3833 1.32727 4.4148 0
M  V30 541 H 50.9273 4.69891 5.15605 0
M  V30 542 H 46.8243 3.49443 5.42734 0
M  V30 543 H 47.5923 5.4586 6.09901 0
M  V30 544 N 50.2554 -1.46986 0.568584 0
M  V30 545 C 51.1884 -2.27129 -0.220779 0
M  V30 546 C 52.1664 -1.34757 -0.909905 0
M  V30 547 O 53.3504 -1.64152 -0.926622 0
M  V30 548 C 50.4774 -3.12108 -1.31553 0
M  V30 549 C 49.5234 -4.20141 -0.733748 0
M  V30 550 S 50.3564 -5.33783 0.428479 0
M  V30 551 C 51.5124 -6.22327 -0.667811 0
M  V30 552 H 51.7454 -2.93731 0.459267 0
M  V30 553 H 49.2784 -1.5026 0.355154 0
M  V30 554 H 51.2364 -3.61636 -1.94241 0
M  V30 555 H 49.8974 -2.44847 -1.96746 0
M  V30 556 H 49.0904 -4.79373 -1.5562 0
M  V30 557 H 48.6924 -3.73553 -0.182812 0
M  V30 558 H 50.9844 -6.59364 -1.55708 0
M  V30 559 H 51.9274 -7.0801 -0.11258 0
M  V30 560 H 52.3354 -5.5618 -0.965601 0
M  V30 561 N 51.7335 -0.305618 -1.54608 0
M  V30 562 C 52.6815 0.584119 -2.25146 0
M  V30 563 C 53.6755 1.13326 -1.25911 0
M  V30 564 O 54.8815 1.08337 -1.43747 0
M  V30 565 H 51.2565 0.206983 -0.722954 0
M  V30 566 H 53.2275 -0.033291 -2.98381 0
M  V30 567 C 51.9765 1.74225 -3.009 0
M  V30 568 H 51.2995 1.32892 -3.77067 0
M  V30 569 H 52.7395 2.34077 -3.53531 0
M  V30 570 C 51.1985 2.64914 -2.0814 0
M  V30 571 O 51.7285 3.66137 -1.65246 0
M  V30 572 N 49.9345 2.3275 -1.74 0
M  V30 573 H 49.4815 1.50479 -2.09078 0
M  V30 574 H 49.4395 2.93694 -1.12211 0
M  V30 575 N 53.2116 1.57565 -0.0334293 0
M  V30 576 C 54.4596 1.91598 0.642999 0
M  V30 577 C 54.7806 0.910847 1.7242 0
M  V30 578 O 54.0506 -0.0469931 1.95844 0
M  V30 579 H 52.6306 0.707228 0.240496 0
M  V30 580 H 55.2926 1.94726 -0.0822488 0
M  V30 581 H 54.3886 2.92336 1.09298 0
M  V30 582 N 54.6897 -0.239769 1.55765 0
M  V30 583 C 55.9177 -0.98417 1.81994 0
M  V30 584 C 56.3327 -1.7867 0.610124 0
M  V30 585 O 55.6897 -1.77571 -0.421271 0
M  V30 586 C 55.7407 -1.91635 3.06526 0
M  V30 587 O 55.4617 -1.14629 4.22838 0
M  V30 588 C 56.9627 -2.77616 3.45607 0
M  V30 589 H 54.1827 -0.28928 0.605441 0
M  V30 590 H 56.7267 -0.260499 2.02834 0
M  V30 591 H 54.8817 -2.5942 2.87715 0
M  V30 592 H 55.2957 -1.77745 4.93464 0
M  V30 593 H 56.7697 -3.38759 4.35828 0
M  V30 594 H 57.2467 -3.4909 2.6652 0
M  V30 595 H 57.8527 -2.15271 3.66795 0
M  V30 596 N 56.1678 -1.49265 -0.50573 0
M  V30 597 C 57.4158 -1.582 -1.25766 0
M  V30 598 C 57.7368 -0.268482 -1.93143 0
M  V30 599 O 57.0068 0.711833 -1.8251 0
M  V30 600 H 55.5868 -0.582873 -0.467191 0
M  V30 601 H 58.2488 -1.85865 -0.586525 0
M  V30 602 H 57.3448 -2.37563 -2.02412 0
M  V30 603 N 57.6459 0.756429 -1.3826 0
M  V30 604 C 59.0619 1.0591 -1.19395 0
M  V30 605 C 59.2619 2.01459 -0.0406567 0
M  V30 606 O 58.3179 2.44909 0.614467 0
M  V30 607 C 59.6309 1.64191 -2.51916 0
M  V30 608 C 61.1789 1.76376 -2.58574 0
M  V30 609 C 61.6539 2.38069 -3.91264 0
M  V30 610 N 63.1449 2.45503 -3.92788 0
M  V30 611 C 63.8799 2.94126 -4.92217 0
M  V30 612 N 63.3759 3.42805 -6.02043 0
M  V30 613 N 65.1689 2.9314 -4.7961 0
M  V30 614 H 57.3199 0.122313 -2.12048 0
M  V30 615 H 59.5829 0.116892 -0.940766 0
M  V30 616 H 59.2889 1.01451 -3.3675 0
M  V30 617 H 59.1629 2.6329 -2.70108 0
M  V30 618 H 61.5499 2.38244 -1.74137 0
M  V30 619 H 61.6309 0.759894 -2.44252 0
M  V30 620 H 61.2749 1.76835 -4.76121 0
M  V30 621 H 61.2049 3.39091 -4.02895 0
M  V30 622 H 63.6959 2.1107 -3.13461 0
M  V30 623 H 64.0089 3.78354 -6.73846 0
M  V30 624 H 62.3539 3.4087 -6.05667 0
M  V30 625 H 65.5449 2.54419 -3.92923 0
M  V30 626 H 65.7179 3.30721 -5.5725 0
M  V30 627 N 59.124 1.23083 0.984299 0
M  V30 628 C 60.354 1.08556 1.75781 0
M  V30 629 C 60.762 -0.366171 1.85623 0
M  V30 630 O 60.105 -1.26524 1.33182 0
M  V30 631 C 60.167 1.63208 3.20318 0
M  V30 632 C 59.831 3.11922 3.33997 0
M  V30 633 C 60.828 4.09259 3.2063 0
M  V30 634 C 58.513 3.51552 3.58771 0
M  V30 635 C 60.507 5.4421 3.31835 0
M  V30 636 C 58.194 4.86649 3.69616 0
M  V30 637 C 59.192 5.82787 3.56157 0
M  V30 638 O 58.88 7.15431 3.66626 0
M  V30 639 H 58.612 0.380713 0.5586 0
M  V30 640 H 61.166 1.63321 1.2456 0
M  V30 641 H 59.396 1.0286 3.72769 0
M  V30 642 H 61.085 1.44216 3.79416 0
M  V30 643 H 61.851 3.79984 3.01392 0
M  V30 644 H 57.73 2.77239 3.6832 0
M  V30 645 H 61.274 6.1923 3.21247 0
M  V30 646 H 57.171 5.15601 3.88363 0
M  V30 647 H 57.939 7.23127 3.83445 0
M  V30 648 N 60.6021 -1.18246 1.0419 0
M  V30 649 C 61.8301 -1.92195 0.766072 0
M  V30 650 C 62.2451 -1.76247 -0.676933 0
M  V30 651 O 61.6021 -1.09293 -1.46155 0
M  V30 652 C 61.6531 -3.43568 1.12442 0
M  V30 653 O 61.3741 -3.59015 2.51078 0
M  V30 654 C 62.8751 -4.34613 0.873275 0
M  V30 655 H 60.0951 -0.610114 0.279288 0
M  V30 656 H 62.6391 -1.50007 1.38989 0
M  V30 657 H 60.7941 -3.8354 0.545542 0
M  V30 658 H 61.2081 -4.5273 2.64831 0
M  V30 659 H 62.6821 -5.39374 1.17385 0
M  V30 660 H 63.1591 -4.38781 -0.191909 0
M  V30 661 H 63.7651 -4.00341 1.43551 0
M  V30 662 N 62.0802 -0.821533 -1.34494 0
M  V30 663 C 63.3262 -0.409552 -1.98622 0
M  V30 664 C 63.6592 1.0244 -1.64984 0
M  V30 665 O 62.9342 1.71325 -0.920758 0
M  V30 666 C 63.2172 -0.610458 -3.54888 0
M  V30 667 C 63.0702 -2.09043 -3.98273 0
M  V30 668 C 64.3892 -0.0455379 -4.40076 0
M  V30 669 H 61.5082 -0.15028 -0.721516 0
M  V30 670 H 64.1502 -1.03384 -1.59411 0
M  V30 671 H 62.3002 -0.079044 -3.8842 0
M  V30 672 H 63.9722 -2.68537 -3.75081 0
M  V30 673 H 62.2152 -2.58139 -3.48635 0
M  V30 674 H 62.8862 -2.18182 -5.07051 0
M  V30 675 H 65.3622 -0.499557 -4.1309 0
M  V30 676 H 64.2382 -0.215922 -5.48475 0
M  V30 677 H 64.4992 1.04939 -4.29465 0
M  V30 678 N 63.5583 1.46682 -0.576371 0
M  V30 679 C 64.8043 2.02712 -0.0596221 0
M  V30 680 C 65.1373 1.44765 1.29448 0
M  V30 681 O 64.4123 0.610355 1.84675 0
M  V30 682 C 64.6953 3.60098 0.0129503 0
M  V30 683 C 64.5483 4.28441 -1.3696 0
M  V30 684 C 65.8673 4.34224 0.71678 0
M  V30 685 H 62.9863 0.736637 -0.0231407 0
M  V30 686 H 65.6283 1.74898 -0.742351 0
M  V30 687 H 63.7783 3.83926 0.594378 0
M  V30 688 H 65.4503 4.15896 -1.9957 0
M  V30 689 H 63.6933 3.8805 -1.93907 0
M  V30 690 H 64.3643 5.3716 -1.27135 0
M  V30 691 H 66.8403 4.15503 0.222908 0
M  V30 692 H 65.7163 5.43936 0.73657 0
M  V30 693 H 65.9773 4.04823 1.77682 0
M  V30 694 N 65.0364 0.313813 1.54444 0
M  V30 695 C 65.9834 -0.55655 2.23989 0
M  V30 696 C 66.9534 -1.11943 1.22711 0
M  V30 697 O 68.1384 -1.16158 1.51367 0
M  V30 698 C 65.2784 -1.71635 2.99392 0
M  V30 699 C 64.3914 -1.18364 4.15468 0
M  V30 700 C 63.5264 -2.30834 4.78424 0
M  V30 701 C 62.5654 -1.74762 5.86622 0
M  V30 702 N 61.7024 -2.80855 6.43479 0
M  V30 703 H 66.5424 0.0430893 2.97969 0
M  V30 704 H 64.0794 0.0330359 1.47063 0
M  V30 705 H 66.0374 -2.39868 3.41349 0
M  V30 706 H 64.6674 -2.28742 2.27765 0
M  V30 707 H 63.7194 -0.393163 3.78363 0
M  V30 708 H 65.0314 -0.733262 4.93381 0
M  V30 709 H 64.1854 -3.0699 5.23299 0
M  V30 710 H 62.9244 -2.79204 3.99871 0
M  V30 711 H 61.9294 -0.970995 5.41158 0
M  V30 712 H 63.1544 -1.2728 6.67066 0
M  V30 713 H 61.1004 -3.28535 5.67804 0
M  V30 714 H 61.0174 -2.40351 7.16776 0
M  V30 715 H 62.2854 -3.5687 6.93011 0
M  V30 716 N 66.5145 -1.57545 0.0417849 0
M  V30 717 C 67.7625 -1.91937 -0.632829 0
M  V30 718 C 68.0835 -0.919978 -1.71934 0
M  V30 719 O 67.3535 0.0366064 -1.95866 0
M  V30 720 H 65.9335 -0.708493 -0.236742 0
M  V30 721 H 68.5955 -1.9468 0.0925745 0
M  V30 722 H 67.6915 -2.92912 -1.07746 0
M  V30 723 N 67.9926 0.231505 -1.5589 0
M  V30 724 C 69.2416 0.955346 -1.7764 0
M  V30 725 C 69.5546 1.85893 -0.608546 0
M  V30 726 O 70.7606 2.62067 -0.70943 0
M  V30 727 C 69.2166 1.74886 -3.14552 0
M  V30 728 C 68.8246 0.891915 -4.39032 0
M  V30 729 C 70.5686 2.46452 -3.45633 0
M  V30 730 C 68.4756 1.68221 -5.66971 0
M  V30 731 H 67.4056 0.360446 -0.662265 0
M  V30 732 H 70.0566 0.209516 -1.823 0
M  V30 733 H 68.4386 2.53723 -3.04041 0
M  V30 734 H 69.6126 0.144793 -4.60572 0
M  V30 735 H 67.9276 0.288863 -4.15397 0
M  V30 736 H 70.5246 3.06061 -4.38441 0
M  V30 737 H 70.8676 3.18841 -2.67668 0
M  V30 738 H 71.4006 1.74613 -3.57428 0
M  V30 739 H 68.1396 1.00178 -6.478 0
M  V30 740 H 67.6596 2.4042 -5.49507 0
M  V30 741 H 69.3386 2.24544 -6.06786 0
M  V30 742 N 69.4707 1.49531 0.497807 0
M  V30 743 C 70.7197 1.58426 1.24837 0
M  V30 744 C 71.0327 0.277643 1.93619 0
M  V30 745 O 72.2387 0.24517 2.70391 0
M  V30 746 C 70.6947 2.79538 2.26686 0
M  V30 747 C 70.3027 4.16971 1.63828 0
M  V30 748 C 72.0467 2.97764 3.0255 0
M  V30 749 C 69.9537 5.29301 2.63807 0
M  V30 750 H 68.8837 0.58989 0.469623 0
M  V30 751 H 71.5347 1.75923 0.521857 0
M  V30 752 H 69.9167 2.55542 3.02514 0
M  V30 753 H 71.0907 4.51116 0.939711 0
M  V30 754 H 69.4057 4.04129 1.00342 0
M  V30 755 H 72.0027 3.78856 3.77323 0
M  V30 756 H 72.3457 2.08448 3.60354 0
M  V30 757 H 72.8787 3.21815 2.33838 0
M  V30 758 H 69.6177 6.20687 2.10779 0
M  V30 759 H 69.1377 4.99606 3.31894 0
M  V30 760 H 70.8167 5.58768 3.2617 0
M  V30 761 N 70.9488 -0.749086 1.3866 0
M  V30 762 C 72.1738 -1.54344 1.38538 0
M  V30 763 C 72.5988 -1.88088 -0.0216655 0
M  V30 764 O 71.9568 -1.50899 -1.00494 0
M  V30 765 C 72.0048 -2.8164 2.25192 0
M  V30 766 O 71.1088 -3.7698 1.67212 0
M  V30 767 H 70.4498 -0.466654 0.472367 0
M  V30 768 H 72.9798 -0.925355 1.82478 0
M  V30 769 H 72.9898 -3.30519 2.3921 0
M  V30 770 H 71.6648 -2.56411 3.27454 0
M  V30 771 H 70.2418 -3.35699 1.6236 0
M  V30 772 N 72.4269 -1.23603 -0.977757 0
M  V30 773 C 73.8379 -1.06424 -1.53398 0
M  V30 774 C 74.1889 0.367578 -1.92726 0
M  V30 775 O 73.3139 1.25465 -1.76316 0
M  V30 776 C 73.9089 -1.92568 -2.78753 0
M  V30 777 C 72.4679 -1.79642 -3.30765 0
M  V30 778 C 71.6149 -1.88111 -2.03739 0
M  V30 779 H 74.5659 -1.37227 -0.797152 0
M  V30 780 H 74.5869 -1.45203 -3.51705 0
M  V30 781 H 74.0989 -2.96771 -2.50098 0
M  V30 782 H 72.1999 -0.782325 -3.64294 0
M  V30 783 H 72.3129 -2.63174 -4.00345 0
M  V30 784 H 70.6769 -1.31723 -2.17994 0
M  V30 785 H 71.4599 -2.93875 -1.77461 0
M  V30 786 N 73.905 1.17692 -1.04816 0
M  V30 787 C 75.151 1.88137 -0.75711 0
M  V30 788 C 75.484 1.80604 0.713841 0
M  V30 789 O 74.759 1.21146 1.52164 0
M  V30 790 C 75.042 3.38318 -1.2334 0
M  V30 791 C 74.895 3.54622 -2.76701 0
M  V30 792 C 76.214 4.32214 -0.829415 0
M  V30 793 H 73.333 0.683163 -0.27651 0
M  V30 794 H 75.975 1.38424 -1.30149 0
M  V30 795 H 74.125 3.80787 -0.770286 0
M  V30 796 H 75.797 3.21194 -3.31107 0
M  V30 797 H 74.04 2.97026 -3.16161 0
M  V30 798 H 74.711 4.60028 -3.05088 0
M  V30 799 H 77.187 3.97565 -1.22805 0
M  V30 800 H 76.063 5.35838 -1.19033 0
M  V30 801 H 76.324 4.41294 0.266891 0
M  V30 802 N 75.3831 0.828654 1.34056 0
M  V30 803 C 76.6311 0.41863 1.97717 0
M  V30 804 C 76.9521 -1.02314 1.66002 0
M  V30 805 O 76.2221 -1.71119 0.953683 0
M  V30 806 H 74.8021 0.151809 0.731412 0
M  V30 807 H 77.4641 1.05936 1.63596 0
M  V30 808 H 76.5601 0.542318 3.07352 0
M  V30 809 N 76.8612 -1.46375 0.584142 0
M  V30 810 C 78.1382 -1.956 0.0033388 0
M  V30 811 C 78.5182 -1.52679 -1.45782 0
M  V30 812 O 77.8662 -0.77816 -2.14842 0
M  V30 813 C 78.0762 -3.48551 0.176891 0
M  V30 814 C 79.4242 -4.24576 0.0454609 0
M  V30 815 O 80.4482 -3.56043 0.105801 0
M  V30 816 O 79.3072 -5.46427 -0.0890376 0
M  V30 817 H 76.4012 -0.825547 -0.0490066 0
M  V30 818 H 78.9472 -1.56652 0.65256 0
M  V30 819 H 77.7192 -3.72683 1.1926 0
M  V30 820 H 77.3422 -3.94332 -0.508695 0
M  V30 821 N 78.3393 -0.321999 -1.54275 0
M  V30 822 C 79.3023 0.531975 -2.22941 0
M  V30 823 C 80.3023 1.04478 -1.22234 0
M  V30 824 O 81.4923 0.937452 -1.46825 0
M  V30 825 C 78.6243 1.73874 -2.93224 0
M  V30 826 H 79.8173 -0.0682612 -2.99822 0
M  V30 827 H 77.3703 -0.0730644 -1.56129 0
M  V30 828 H 78.1053 2.37825 -2.20476 0
M  V30 829 H 77.8903 1.37847 -3.6707 0
M  V30 830 H 79.3803 2.34496 -3.45545 0
M  V30 831 N 79.8174 1.5752 -0.0501392 0
M  V30 832 C 81.0474 1.96678 0.632573 0
M  V30 833 C 81.4554 0.926298 1.64974 0
M  V30 834 O 80.7984 -0.09802 1.83438 0
M  V30 835 C 80.8604 3.32068 1.37735 0
M  V30 836 C 80.5244 4.54076 0.516131 0
M  V30 837 C 81.5214 5.19445 -0.217357 0
M  V30 838 C 79.2064 5.00304 0.44736 0
M  V30 839 C 81.2004 6.29378 -1.00807 0
M  V30 840 C 78.8874 6.10114 -0.347038 0
M  V30 841 C 79.8854 6.74512 -1.07344 0
M  V30 842 O 79.5734 7.82211 -1.85477 0
M  V30 843 H 79.3054 0.652193 0.177821 0
M  V30 844 H 81.8594 2.05091 -0.112543 0
M  V30 845 H 80.0894 3.20206 2.16807 0
M  V30 846 H 81.7784 3.55981 1.95019 0
M  V30 847 H 82.5444 4.84689 -0.173688 0
M  V30 848 H 78.4234 4.49971 1.00235 0
M  V30 849 H 81.9674 6.79575 -1.57556 0
M  V30 850 H 77.8644 6.44307 -0.392349 0
M  V30 851 H 78.6324 7.98982 -1.77678 0
M  V30 852 N 81.2955 -0.223234 1.56011 0
M  V30 853 C 82.2425 -1.27664 1.92277 0
M  V30 854 C 83.2125 -1.46659 0.779763 0
M  V30 855 O 84.3975 -1.60256 1.03551 0
M  V30 856 C 81.5375 -2.62234 2.24338 0
M  V30 857 C 80.6505 -2.51051 3.51564 0
M  V30 858 C 79.7855 -3.78133 3.7308 0
M  V30 859 C 78.8245 -3.61665 4.93827 0
M  V30 860 N 77.9615 -4.80693 5.11741 0
M  V30 861 H 82.8015 -0.960358 2.82101 0
M  V30 862 H 80.3385 -0.462901 1.39627 0
M  V30 863 H 82.2965 -3.40596 2.40936 0
M  V30 864 H 80.9265 -2.91961 1.3769 0
M  V30 865 H 79.9785 -1.64132 3.43169 0
M  V30 866 H 81.2905 -2.34803 4.40079 0
M  V30 867 H 80.4445 -4.64938 3.89766 0
M  V30 868 H 79.1835 -3.97304 2.82844 0
M  V30 869 H 78.1885 -2.73244 4.77093 0
M  V30 870 H 79.4135 -3.43966 5.85546 0
M  V30 871 H 77.3595 -5.00181 4.24446 0
M  V30 872 H 77.2765 -4.67165 5.94384 0
M  V30 873 H 78.5445 -5.6893 5.3286 0
M  V30 874 N 82.7736 -1.49793 -0.48987 0
M  V30 875 C 83.7206 -1.67281 -1.59014 0
M  V30 876 C 84.6906 -0.514177 -1.57941 0
M  V30 877 O 85.8756 -0.742533 -1.75759 0
M  V30 878 C 83.0156 -1.75569 -2.97102 0
M  V30 879 C 82.1286 -3.0281 -3.08107 0
M  V30 880 C 81.2636 -3.02008 -4.36995 0
M  V30 881 C 80.3026 -4.23782 -4.41673 0
M  V30 882 N 79.4396 -4.20826 -5.62005 0
M  V30 883 H 84.2796 -2.61224 -1.43409 0
M  V30 884 H 81.8166 -1.29508 -0.697565 0
M  V30 885 H 83.7746 -1.78354 -3.77155 0
M  V30 886 H 82.4046 -0.850827 -3.11385 0
M  V30 887 H 81.4566 -3.09584 -2.21047 0
M  V30 888 H 82.7686 -3.92801 -3.07423 0
M  V30 889 H 81.9226 -3.03418 -5.25378 0
M  V30 890 H 80.6616 -2.09815 -4.4026 0
M  V30 891 H 79.6666 -4.22604 -3.5169 0
M  V30 892 H 80.8916 -5.17181 -4.40115 0
M  V30 893 H 78.8376 -3.31476 -5.66091 0
M  V30 894 H 78.7546 -5.04564 -5.62984 0
M  V30 895 H 80.0226 -4.26355 -6.52565 0
M  V30 896 N 84.2517 0.741722 -1.39055 0
M  V30 897 C 85.1987 1.85566 -1.37237 0
M  V30 898 C 86.1687 1.64457 -0.233072 0
M  V30 899 O 87.3537 1.85957 -0.427147 0
M  V30 900 C 84.4937 3.23004 -1.215 0
M  V30 901 C 83.6067 3.55864 -2.44918 0
M  V30 902 C 82.7417 4.82669 -2.21821 0
M  V30 903 C 81.7807 5.08351 -3.40948 0
M  V30 904 N 80.9177 6.26356 -3.17211 0
M  V30 905 H 85.7577 1.86455 -2.32462 0
M  V30 906 H 83.2947 0.911176 -1.15482 0
M  V30 907 H 85.2527 4.02331 -1.10389 0
M  V30 908 H 83.8827 3.21411 -0.29908 0
M  V30 909 H 82.9347 2.7129 -2.66657 0
M  V30 910 H 84.2467 3.70765 -3.33668 0
M  V30 911 H 83.4007 5.69962 -2.07914 0
M  V30 912 H 82.1397 4.69929 -1.30454 0
M  V30 913 H 81.1447 4.19522 -3.55361 0
M  V30 914 H 82.3697 5.22981 -4.33207 0
M  V30 915 H 80.3157 6.14917 -2.28502 0
M  V30 916 H 80.2327 6.41813 -3.99515 0
M  V30 917 H 81.5007 7.16506 -3.06984 0
M  V30 918 N 85.7298 1.2412 0.971189 0
M  V30 919 C 86.9778 1.07668 1.71032 0
M  V30 920 C 87.2988 -0.385797 1.91146 0
M  V30 921 O 86.5688 -1.27569 1.4867 0
M  V30 922 H 85.1488 0.395429 0.633755 0
M  V30 923 H 87.8108 1.55984 1.16855 0
M  V30 924 H 86.9068 1.57195 2.69622 0
M  V30 925 N 87.2079 -1.17134 1.05439 0
M  V30 926 C 88.1379 -2.2342 0.678649 0
M  V30 927 C 89.1189 -1.66971 -0.32476 0
M  V30 928 O 90.3039 -1.93149 -0.201802 0
M  V30 929 C 87.4339 -3.47256 0.0552099 0
M  V30 930 C 86.3879 -4.16543 0.98365 0
M  V30 931 C 85.7139 -5.34231 0.223961 0
M  V30 932 C 87.0139 -4.68495 2.3089 0
M  V30 933 H 88.7079 -2.55105 1.56722 0
M  V30 934 H 86.2539 -1.2262 0.754998 0
M  V30 935 H 88.2069 -4.20828 -0.21946 0
M  V30 936 H 86.9309 -3.14846 -0.868319 0
M  V30 937 H 85.5899 -3.44887 1.24293 0
M  V30 938 H 85.2379 -4.98071 -0.702412 0
M  V30 939 H 84.9379 -5.81527 0.842627 0
M  V30 940 H 86.4619 -6.10585 -0.0433671 0
M  V30 941 H 87.8759 -5.33691 2.09396 0
M  V30 942 H 86.2729 -5.26379 2.88176 0
M  V30 943 H 87.3429 -3.85169 2.94572 0
M  V30 944 N 88.686 -0.835752 -1.33615 0
M  V30 945 C 89.935 -0.426289 -1.97144 0
M  V30 946 C 90.248 1.01912 -1.66953 0
M  V30 947 O 91.454 1.53311 -2.24072 0
M  V30 948 C 89.91 -0.711321 -3.52801 0
M  V30 949 C 89.518 -2.1712 -3.91871 0
M  V30 950 C 91.262 -0.368654 -4.22896 0
M  V30 951 C 89.169 -2.40044 -5.40493 0
M  V30 952 H 88.099 -0.15567 -0.737755 0
M  V30 953 H 90.75 -1.0239 -1.52278 0
M  V30 954 H 89.132 -0.0433766 -3.95976 0
M  V30 955 H 90.306 -2.87936 -3.59763 0
M  V30 956 H 88.621 -2.47654 -3.34749 0
M  V30 957 H 91.218 -0.517601 -5.32189 0
M  V30 958 H 91.561 0.688078 -4.10574 0
M  V30 959 H 92.094 -0.991702 -3.8524 0
M  V30 960 H 88.833 -3.44271 -5.57815 0
M  V30 961 H 88.353 -1.73785 -5.74072 0
M  V30 962 H 90.032 -2.23042 -6.0734 0
M  V30 963 N 90.1641 1.46063 -0.591896 0
M  V30 964 C 91.5751 1.85944 -0.167822 0
M  V30 965 C 91.9261 1.49429 1.27143 0
M  V30 966 O 91.0511 0.913515 1.96173 0
M  V30 967 C 91.6461 3.37489 -0.297794 0
M  V30 968 C 90.2051 3.76332 0.0714732 0
M  V30 969 C 89.3521 2.7006 -0.629509 0
M  V30 970 H 92.3031 1.37087 -0.799555 0
M  V30 971 H 92.3241 3.77532 0.474349 0
M  V30 972 H 91.8361 3.64034 -1.3454 0
M  V30 973 H 89.9371 3.55405 1.11886 0
M  V30 974 H 90.0501 4.78088 -0.311245 0
M  V30 975 H 88.4141 2.54607 -0.0687867 0
M  V30 976 H 89.1971 2.99444 -1.67894 0
M  V30 977 N 91.6422 0.330177 1.54103 0
M  V30 978 C 92.6052 -0.520144 2.2322 0
M  V30 979 C 93.6052 -1.03828 1.22786 0
M  V30 980 O 94.7952 -0.929652 1.4732 0
M  V30 981 C 91.9272 -1.72317 2.94142 0
M  V30 982 H 93.1202 0.0841605 2.99782 0
M  V30 983 H 90.6732 0.0813433 1.56088 0
M  V30 984 H 91.4082 -2.36653 2.21734 0
M  V30 985 H 91.1932 -1.35898 3.67796 0
M  V30 986 H 92.6832 -2.3266 3.46784 0
M  V30 987 N 93.1203 -1.57491 0.0584922 0
M  V30 988 C 94.3503 -1.9701 -0.622134 0
M  V30 989 C 94.7583 -0.935034 -1.6448 0
M  V30 990 O 94.1013 0.0882904 -1.83488 0
M  V30 991 C 94.1633 -3.32794 -1.35972 0
M  V30 992 C 93.8273 -4.54343 -0.492043 0
M  V30 993 C 94.8243 -5.19323 0.244901 0
M  V30 994 C 92.5093 -5.00534 -0.420821 0
M  V30 995 C 94.5033 -6.28835 1.04143 0
M  V30 996 C 92.1903 -6.09921 0.379389 0
M  V30 997 C 93.1883 -6.73933 1.10919 0
M  V30 998 O 92.8763 -7.81216 1.89623 0
M  V30 999 H 92.6083 -0.653127 -0.174359 0
M  V30 1000 H 95.1623 -2.05029 0.123418 0
M  V30 1001 H 93.3923 -3.21351 -2.15105 0
M  V30 1002 H 95.0813 -3.5701 -1.93129 0
M  V30 1003 H 95.8473 -4.8459 0.19939 0
M  V30 1004 H 91.7263 -4.50496 -0.978474 0
M  V30 1005 H 95.2703 -6.7873 1.61157 0
M  V30 1006 H 91.1673 -6.44089 0.426512 0
M  V30 1007 H 91.9353 -7.98029 1.81913 0
M  V30 1008 N 94.5984 0.214957 -1.56127 0
M  V30 1009 C 95.5484 1.27006 -1.8935 0
M  V30 1010 C 96.5324 1.41969 -0.757202 0
M  V30 1011 O 97.7244 1.44673 -1.01973 0
M  V30 1012 C 94.8534 2.61911 -2.2194 0
M  V30 1013 C 93.9394 2.50822 -3.41978 0
M  V30 1014 N 94.3304 2.09391 -4.60423 0
M  V30 1015 C 92.6284 2.81765 -3.45723 0
M  V30 1016 C 93.3294 2.09712 -5.42582 0
M  V30 1017 N 92.3054 2.50454 -4.82466 0
M  V30 1018 H 96.1074 0.940734 -2.78437 0
M  V30 1019 H 93.6214 0.423492 -1.56781 0
M  V30 1020 H 95.6184 3.38096 -2.43919 0
M  V30 1021 H 94.2784 2.95684 -1.34169 0
M  V30 1022 H 95.2894 1.80416 -4.85459 0
M  V30 1023 H 91.9664 3.19865 -2.68314 0
M  V30 1024 H 93.3564 1.79748 -6.4741 0
M  V30 1025 N 96.0765 1.50051 0.48192 0
M  V30 1026 C 97.4925 1.37237 0.814756 0
M  V30 1027 C 97.6925 0.420109 1.97072 0
M  V30 1028 O 96.7485 -0.141246 2.52105 0
M  V30 1029 C 98.0615 2.78375 1.13701 0
M  V30 1030 C 99.6095 2.87213 1.2441 0
M  V30 1031 C 100.084 4.29161 1.59954 0
M  V30 1032 N 101.575 4.32061 1.66967 0
M  V30 1033 C 102.31 5.38879 1.95952 0
M  V30 1034 N 101.806 6.55918 2.23031 0
M  V30 1035 N 103.599 5.26312 1.97363 0
M  V30 1036 H 95.7505 2.10546 -0.28005 0
M  V30 1037 H 98.0135 0.945921 -0.0627454 0
M  V30 1038 H 97.7195 3.49845 0.360787 0
M  V30 1039 H 97.5935 3.14941 2.07586 0
M  V30 1040 H 99.9805 2.15969 2.01101 0
M  V30 1041 H 100.061 2.54204 0.285299 0
M  V30 1042 H 99.7055 5.00938 0.838067 0
M  V30 1043 H 99.6355 4.59648 2.56966 0
M  V30 1044 H 102.126 3.47661 1.48123 0
M  V30 1045 H 102.439 7.33139 2.44391 0
M  V30 1046 H 100.784 6.59112 2.20447 0
M  V30 1047 H 103.975 4.33876 1.75697 0
M  V30 1048 H 104.148 6.09649 2.19618 0
M  V30 1049 N 97.5546 -0.734337 1.39446 0
M  V30 1050 C 98.8006 -1.49613 1.36908 0
M  V30 1051 C 99.1336 -1.94169 -0.0347829 0
M  V30 1052 O 98.4086 -1.66833 -0.999847 0
M  V30 1053 C 98.6916 -2.73534 2.34203 0
M  V30 1054 C 98.5446 -2.34993 3.83534 0
M  V30 1055 C 99.8636 -3.75635 2.29317 0
M  V30 1056 H 96.9826 -0.542714 0.498629 0
M  V30 1057 H 99.6246 -0.839597 1.70443 0
M  V30 1058 H 97.7746 -3.29553 2.05736 0
M  V30 1059 H 99.4466 -1.84601 4.22753 0
M  V30 1060 H 97.6896 -1.67213 4.00278 0
M  V30 1061 H 98.3606 -3.23738 4.47099 0
M  V30 1062 H 100.837 -3.29203 2.54489 0
M  V30 1063 H 99.7126 -4.60008 2.99472 0
M  V30 1064 H 99.9736 -4.22603 1.29842 0
M  V30 1065 N 99.0327 -1.24633 -0.964593 0
M  V30 1066 C 100.282 -1.08188 -1.7023 0
M  V30 1067 C 100.595 0.37873 -1.91898 0
M  V30 1068 O 101.801 0.663427 -2.6327 0
M  V30 1069 C 100.257 -1.88773 -3.06419 0
M  V30 1070 C 99.8647 -3.39263 -2.92582 0
M  V30 1071 C 101.609 -1.80867 -3.84041 0
M  V30 1072 C 99.5157 -4.1218 -4.24101 0
M  V30 1073 H 98.4457 -0.401245 -0.638372 0
M  V30 1074 H 101.097 -1.48742 -1.07462 0
M  V30 1075 H 99.4787 -1.41035 -3.70034 0
M  V30 1076 H 100.653 -3.94603 -2.37961 0
M  V30 1077 H 98.9677 -3.48154 -2.28424 0
M  V30 1078 H 101.565 -2.32646 -4.81435 0
M  V30 1079 H 101.908 -0.774543 -4.09031 0
M  V30 1080 H 102.441 -2.26301 -3.27159 0
M  V30 1081 H 99.1797 -5.15965 -4.04303 0
M  V30 1082 H 98.6997 -3.61626 -4.78526 0
M  V30 1083 H 100.379 -4.19349 -4.92702 0
M  V30 1084 N 100.511 1.16574 -1.06058 0
M  V30 1085 C 101.444 2.19798 -0.61352 0
M  V30 1086 C 102.422 1.58509 0.362453 0
M  V30 1087 O 103.606 1.86527 0.271994 0
M  V30 1088 C 100.733 3.3855 0.100915 0
M  V30 1089 C 99.7788 4.18317 -0.831438 0
M  V30 1090 S 100.612 4.82375 -2.32539 0
M  V30 1091 C 101.768 6.04508 -1.62238 0
M  V30 1092 H 102.001 2.5738 -1.48805 0
M  V30 1093 H 99.5338 1.27327 -0.873338 0
M  V30 1094 H 101.492 4.07358 0.506898 0
M  V30 1095 H 100.153 2.99338 0.951604 0
M  V30 1096 H 99.3458 5.03232 -0.278071 0
M  V30 1097 H 98.9478 3.5499 -1.17719 0
M  V30 1098 H 101.24 6.71133 -0.926622 0
M  V30 1099 H 102.183 6.64389 -2.44934 0
M  V30 1100 H 102.591 5.53559 -1.106 0
M  V30 1101 N 101.989 0.842826 1.3317 0
M  V30 1102 C 102.952 0.284065 2.27433 0
M  V30 1103 C 103.952 -0.54948 1.5112 0
M  V30 1104 O 105.142 -0.362699 1.70382 0
M  V30 1105 C 102.274 -0.599384 3.35589 0
M  V30 1106 H 103.467 1.11589 2.78366 0
M  V30 1107 H 101.02 0.616221 1.4364 0
M  V30 1108 H 101.755 -1.45349 2.89904 0
M  V30 1109 H 101.54 -0.00291266 3.921 0
M  V30 1110 H 103.03 -0.983488 4.05854 0
M  V30 1111 N 103.467 -1.45747 0.599634 0
M  V30 1112 C 104.377 -2.34262 -0.125888 0
M  V30 1113 C 105.393 -1.50768 -0.868625 0
M  V30 1114 O 106.569 -1.83592 -0.828003 0
M  V30 1115 C 103.634 -3.28252 -1.11587 0
M  V30 1116 C 102.695 -4.27651 -0.375956 0
M  V30 1117 C 101.928 -5.1715 -1.31877 0
M  V30 1118 O 102.151 -5.09916 -2.55621 0
M  V30 1119 O 101.085 -5.96286 -0.820157 0
M  V30 1120 H 104.911 -2.97688 0.601315 0
M  V30 1121 H 102.496 -1.44999 0.359934 0
M  V30 1122 H 104.378 -3.86191 -1.68626 0
M  V30 1123 H 103.053 -2.67401 -1.82424 0
M  V30 1124 H 101.96 -3.7335 0.236698 0
M  V30 1125 H 103.293 -4.91334 0.29177 0
M  V30 1126 N 104.945 -0.338344 -1.53925 0
M  V30 1127 C 105.875 0.51328 -2.27789 0
M  V30 1128 C 106.856 1.107 -1.29149 0
M  V30 1129 O 108.041 1.12937 -1.57984 0
M  V30 1130 C 105.171 1.66697 -3.04679 0
M  V30 1131 C 104.125 1.20183 -4.1078 0
M  V30 1132 C 103.451 2.44363 -4.75595 0
M  V30 1133 C 104.751 0.30605 -5.21403 0
M  V30 1134 H 106.445 -0.102883 -2.99223 0
M  V30 1135 H 103.991 -0.0509219 -1.4391 0
M  V30 1136 H 105.944 2.26915 -3.55088 0
M  V30 1137 H 104.668 2.30995 -2.30887 0
M  V30 1138 H 103.327 0.622499 -3.61276 0
M  V30 1139 H 102.975 3.07057 -3.98403 0
M  V30 1140 H 102.675 2.13925 -5.47275 0
M  V30 1141 H 104.199 3.05317 -5.28786 0
M  V30 1142 H 105.613 0.814929 -5.67478 0
M  V30 1143 H 104.01 0.0937929 -6.00027 0
M  V30 1144 H 105.08 -0.65921 -4.80398 0
M  V30 1145 N 106.423 1.57458 -0.0668435 0
M  V30 1146 C 107.386 2.11323 0.887422 0
M  V30 1147 C 108.386 1.03618 1.22964 0
M  V30 1148 O 109.576 1.29626 1.16373 0
M  V30 1149 C 106.708 2.61048 2.19242 0
M  V30 1150 H 107.901 2.96942 0.420194 0
M  V30 1151 H 105.454 1.55239 0.181793 0
M  V30 1152 H 106.189 1.78868 2.70512 0
M  V30 1153 H 105.974 3.39769 1.95702 0
M  V30 1154 H 107.464 3.02814 2.87565 0
M  V30 1155 N 107.901 -0.206675 1.56239 0
M  V30 1156 C 109.129 -0.945345 1.8404 0
M  V30 1157 C 109.544 -1.77336 0.647885 0
M  V30 1158 O 108.901 -1.78425 -0.383511 0
M  V30 1159 C 108.952 -1.8509 3.10522 0
M  V30 1160 O 108.673 -1.05634 4.25174 0
M  V30 1161 C 110.174 -2.70222 3.51418 0
M  V30 1162 H 107.394 -0.276372 0.61144 0
M  V30 1163 H 109.938 -0.217417 2.03341 0
M  V30 1164 H 108.093 -2.53259 2.93153 0
M  V30 1165 H 108.507 -1.67238 4.97124 0
M  V30 1166 H 109.981 -3.29438 4.42916 0
M  V30 1167 H 110.458 -3.43358 2.73864 0
M  V30 1168 H 111.064 -2.07443 3.71278 0
M  V30 1169 N 109.379 -1.50304 -0.473955 0
M  V30 1170 C 110.326 -1.68959 -1.57231 0
M  V30 1171 C 111.296 -0.530899 -1.57387 0
M  V30 1172 O 112.481 -0.761133 -1.74961 0
M  V30 1173 C 109.621 -1.7871 -2.95223 0
M  V30 1174 C 108.734 -3.06061 -3.04878 0
M  V30 1175 C 107.869 -3.06626 -4.33767 0
M  V30 1176 C 106.908 -4.28443 -4.37154 0
M  V30 1177 N 106.045 -4.26763 -5.5751 0
M  V30 1178 H 110.885 -2.6273 -1.40631 0
M  V30 1179 H 108.422 -1.30241 -0.683789 0
M  V30 1180 H 110.38 -1.82344 -3.75242 0
M  V30 1181 H 109.01 -0.883806 -3.10465 0
M  V30 1182 H 108.062 -3.11911 -2.17751 0
M  V30 1183 H 109.374 -3.96039 -3.0324 0
M  V30 1184 H 108.528 -3.08973 -5.22131 0
M  V30 1185 H 107.267 -2.14473 -4.3801 0
M  V30 1186 H 106.272 -4.2631 -3.47188 0
M  V30 1187 H 107.497 -5.2182 -4.34605 0
M  V30 1188 H 105.443 -3.37462 -5.62544 0
M  V30 1189 H 105.36 -5.10507 -5.57601 0
M  V30 1190 H 106.628 -4.33253 -6.48006 0
M  V30 1191 N 110.857 0.726932 -1.39834 0
M  V30 1192 C 111.805 1.86235 -1.39353 0
M  V30 1193 C 112.799 1.67144 -0.275555 0
M  V30 1194 O 114.005 1.74387 -0.44601 0
M  V30 1195 H 110.38 0.613174 -0.43534 0
M  V30 1196 H 112.351 1.83756 -2.35109 0
M  V30 1197 C 111.1 3.23995 -1.26185 0
M  V30 1198 H 110.423 3.39285 -2.11484 0
M  V30 1199 H 111.863 4.03609 -1.29907 0
M  V30 1200 C 110.322 3.36888 0.0290018 0
M  V30 1201 O 110.852 3.89152 0.99619 0
M  V30 1202 N 109.058 2.90446 0.0947437 0
M  V30 1203 H 108.605 2.48102 -0.693035 0
M  V30 1204 H 108.563 2.99451 0.957932 0
M  V30 1205 N 112.336 1.25143 0.95797 0
M  V30 1206 C 113.561 1.12521 1.74223 0
M  V30 1207 C 113.986 -0.317402 1.85403 0
M  V30 1208 O 113.344 -1.2299 1.33204 0
M  V30 1209 C 113.392 1.78062 3.1357 0
M  V30 1210 O 112.496 1.058 3.98598 0
M  V30 1211 H 111.837 0.39304 0.535178 0
M  V30 1212 H 114.367 1.65641 1.201 0
M  V30 1213 H 114.377 1.84213 3.64046 0
M  V30 1214 H 113.052 2.83021 3.04749 0
M  V30 1215 H 111.629 1.07506 3.57067 0
M  V30 1216 N 113.814 -1.1601 1.06675 0
M  V30 1217 C 114.761 -2.20525 0.680967 0
M  V30 1218 C 115.731 -1.62904 -0.324283 0
M  V30 1219 O 116.916 -1.89615 -0.212294 0
M  V30 1220 C 114.056 -3.45013 0.0776551 0
M  V30 1221 C 113.169 -4.16863 1.13355 0
M  V30 1222 C 112.304 -5.2888 0.49597 0
M  V30 1223 C 111.343 -5.92537 1.53513 0
M  V30 1224 N 110.48 -6.96038 0.920631 0
M  V30 1225 H 115.32 -2.52876 1.57663 0
M  V30 1226 H 112.857 -1.24199 0.788223 0
M  V30 1227 H 114.815 -4.16193 -0.289704 0
M  V30 1228 H 113.445 -3.132 -0.781393 0
M  V30 1229 H 112.497 -3.44248 1.61857 0
M  V30 1230 H 113.809 -4.60294 1.92174 0
M  V30 1231 H 112.963 -6.06653 0.0758604 0
M  V30 1232 H 111.702 -4.86622 -0.324062 0
M  V30 1233 H 110.707 -5.13482 1.9651 0
M  V30 1234 H 111.932 -6.36873 2.35733 0
M  V30 1235 H 109.878 -6.55888 0.12138 0
M  V30 1236 H 109.795 -7.3786 1.64616 0
M  V30 1237 H 111.063 -7.77725 0.525795 0
M  V30 1238 N 115.292 -0.849877 -1.32721 0
M  V30 1239 C 116.538 -0.460855 -1.9811 0
M  V30 1240 C 116.893 0.971716 -1.66059 0
M  V30 1241 O 116.186 1.67184 -0.935944 0
M  V30 1242 C 116.38 -0.631272 -3.51781 0
M  V30 1243 C 116.209 -2.07886 -3.98765 0
M  V30 1244 C 114.979 -2.71637 -4.26077 0
M  V30 1245 C 117.177 -3.04889 -4.14182 0
M  V30 1246 N 115.159 -4.07356 -4.59276 0
M  V30 1247 C 116.53 -4.25583 -4.50865 0
M  V30 1248 C 118.585 -3.01148 -3.96503 0
M  V30 1249 C 117.288 -5.43027 -4.71714 0
M  V30 1250 C 119.314 -4.17832 -4.18533 0
M  V30 1251 C 118.676 -5.37284 -4.55528 0
M  V30 1252 H 114.775 -0.217283 -0.751207 0
M  V30 1253 H 117.359 -1.10026 -1.60631 0
M  V30 1254 H 115.53 -0.0215966 -3.88394 0
M  V30 1255 H 117.262 -0.212614 -4.04141 0
M  V30 1256 H 114.017 -2.22705 -4.17971 0
M  V30 1257 H 114.441 -4.77351 -4.80068 0
M  V30 1258 H 119.083 -2.0992 -3.67006 0
M  V30 1259 H 116.801 -6.34791 -5.00066 0
M  V30 1260 H 120.387 -4.16368 -4.06361 0
M  V30 1261 H 119.267 -6.26071 -4.72234 0
M  V30 1262 N 116.77 1.45427 -0.607355 0
M  V30 1263 C 118.016 2.0254 -0.102607 0
M  V30 1264 C 118.349 1.47478 1.26348 0
M  V30 1265 O 117.624 0.64939 1.83339 0
M  V30 1266 C 117.907 3.60044 -0.0634347 0
M  V30 1267 C 117.76 4.2544 -1.46017 0
M  V30 1268 C 119.079 4.35646 0.624514 0
M  V30 1269 H 116.198 0.73598 -0.0387607 0
M  V30 1270 H 118.84 1.73284 -0.779282 0
M  V30 1271 H 116.99 3.85101 0.512808 0
M  V30 1272 H 118.662 4.11569 -2.08347 0
M  V30 1273 H 116.905 3.83849 -2.02094 0
M  V30 1274 H 117.576 5.34342 -1.385 0
M  V30 1275 H 120.052 4.15882 0.134723 0
M  V30 1276 H 118.928 5.45376 0.621028 0
M  V30 1277 H 119.189 4.08501 1.69055 0
M  V30 1278 N 118.248 0.346503 1.53744 0
M  V30 1279 C 119.158 -0.517293 2.28826 0
M  V30 1280 C 120.174 -1.10935 1.3405 0
M  V30 1281 O 121.35 -1.1244 1.6709 0
M  V30 1282 C 118.415 -1.65098 3.04866 0
M  V30 1283 C 117.476 -1.0884 4.15274 0
M  V30 1284 C 116.709 -2.16806 4.87679 0
M  V30 1285 O 116.932 -3.3758 4.59778 0
M  V30 1286 O 115.866 -1.80934 5.74061 0
M  V30 1287 H 119.692 0.0931396 3.03557 0
M  V30 1288 H 117.277 0.111458 1.48984 0
M  V30 1289 H 119.159 -2.31053 3.5241 0
M  V30 1290 H 117.834 -2.24717 2.32989 0
M  V30 1291 H 116.741 -0.3933 3.72027 0
M  V30 1292 H 118.074 -0.537036 4.89261 0
M  V30 1293 N 119.726 -1.57421 0.075193 0
M  V30 1294 C 120.972 -1.93905 -0.594025 0
M  V30 1295 C 121.305 -0.955701 -1.69056 0
M  V30 1296 O 120.58 0.0145373 -1.94495 0
M  V30 1297 C 120.863 -3.40638 -1.1678 0
M  V30 1298 C 120.716 -4.49733 -0.0776792 0
M  V30 1299 C 122.035 -3.88259 -2.07228 0
M  V30 1300 H 119.154 -0.705105 -0.214466 0
M  V30 1301 H 121.796 -1.8947 0.141854 0
M  V30 1302 H 119.946 -3.44549 -1.79494 0
M  V30 1303 H 121.618 -4.57942 0.555573 0
M  V30 1304 H 119.861 -4.29751 0.591286 0
M  V30 1305 H 120.532 -5.49549 -0.519603 0
M  V30 1306 H 123.008 -3.86376 -1.54445 0
M  V30 1307 H 121.884 -4.91533 -2.44308 0
M  V30 1308 H 122.145 -3.26396 -2.98191 0
M  V30 1309 N 121.204 0.198386 -1.56346 0
M  V30 1310 C 122.481 0.944982 -1.71258 0
M  V30 1311 C 122.861 2.0151 -0.629048 0
M  V30 1312 O 122.209 2.25639 0.360473 0
M  V30 1313 C 122.419 1.5344 -3.1346 0
M  V30 1314 C 123.767 2.01778 -3.73591 0
M  V30 1315 O 124.791 1.63288 -3.16568 0
M  V30 1316 O 123.65 2.72594 -4.73661 0
M  V30 1317 H 120.744 0.442939 -0.69838 0
M  V30 1318 H 123.29 0.188342 -1.68652 0
M  V30 1319 H 122.062 0.762869 -3.83792 0
M  V30 1320 H 121.685 2.35596 -3.20282 0
M  V30 1321 N 122.682 1.50554 0.465978 0
M  V30 1322 C 123.91 1.65563 1.24083 0
M  V30 1323 C 124.325 0.341051 1.85694 0
M  V30 1324 O 123.682 -0.677543 1.69457 0
M  V30 1325 C 123.733 2.75051 2.34583 0
M  V30 1326 O 123.454 4.01413 1.75497 0
M  V30 1327 C 124.955 3.01078 3.25372 0
M  V30 1328 H 122.175 0.55638 0.375077 0
M  V30 1329 H 124.719 1.96807 0.555624 0
M  V30 1330 H 122.874 2.46486 2.9887 0
M  V30 1331 H 123.288 4.62002 2.48303 0
M  V30 1332 H 124.762 3.81339 3.99105 0
M  V30 1333 H 125.239 2.12349 3.84453 0
M  V30 1334 H 125.845 3.31194 2.66816 0
M  V30 1335 N 124.16 -0.719506 1.40217 0
M  V30 1336 C 125.406 -1.48034 1.39491 0
M  V30 1337 C 125.761 -1.92399 -0.00443536 0
M  V30 1338 O 125.054 -1.64993 -0.974061 0
M  V30 1339 C 125.248 -2.72271 2.31524 0
M  V30 1340 C 125.077 -2.40055 3.80268 0
M  V30 1341 C 123.847 -2.31588 4.49105 0
M  V30 1342 C 126.045 -2.04581 4.71859 0
M  V30 1343 N 124.027 -1.92006 5.83101 0
M  V30 1344 C 125.398 -1.75568 5.94623 0
M  V30 1345 C 127.453 -1.91183 4.59732 0
M  V30 1346 C 126.156 -1.34505 7.06612 0
M  V30 1347 C 128.182 -1.51524 5.71659 0
M  V30 1348 C 127.544 -1.23406 6.93506 0
M  V30 1349 H 123.643 -0.539927 0.565688 0
M  V30 1350 H 126.227 -0.834764 1.75897 0
M  V30 1351 H 124.398 -3.34584 1.97251 0
M  V30 1352 H 126.13 -3.38584 2.21682 0
M  V30 1353 H 122.885 -2.49199 4.02737 0
M  V30 1354 H 123.309 -1.74764 6.54054 0
M  V30 1355 H 127.951 -2.11584 3.66049 0
M  V30 1356 H 125.669 -1.12846 8.00182 0
M  V30 1357 H 129.255 -1.41741 5.6427 0
M  V30 1358 H 128.135 -0.931788 7.78645 0
M  V30 1359 N 125.638 -1.25649 -0.95132 0
M  V30 1360 C 126.548 -1.08073 -2.08224 0
M  V30 1361 C 127.564 -0.0169666 -1.73992 0
M  V30 1362 O 128.74 -0.218593 -2.0021 0
M  V30 1363 C 125.805 -0.704922 -3.39458 0
M  V30 1364 C 124.866 -1.84699 -3.87537 0
M  V30 1365 C 124.099 -1.48902 -5.12508 0
M  V30 1366 O 124.322 -0.386156 -5.69091 0
M  V30 1367 O 123.256 -2.32033 -5.55378 0
M  V30 1368 H 127.082 -2.02924 -2.25954 0
M  V30 1369 H 124.667 -1.04618 -1.06656 0
M  V30 1370 H 126.549 -0.507609 -4.18332 0
M  V30 1371 H 125.224 0.214291 -3.2299 0
M  V30 1372 H 124.131 -2.09919 -3.09653 0
M  V30 1373 H 125.464 -2.74557 -4.08509 0
M  V30 1374 N 127.117 1.15442 -1.07289 0
M  V30 1375 C 128.342 1.90638 -0.816828 0
M  V30 1376 C 128.767 1.77445 0.624083 0
M  V30 1377 O 128.125 1.10671 1.43602 0
M  V30 1378 C 128.173 3.39008 -1.22906 0
M  V30 1379 O 127.277 4.10701 -0.373975 0
M  V30 1380 H 126.618 0.593555 -0.297638 0
M  V30 1381 H 129.148 1.46198 -1.43134 0
M  V30 1382 H 129.158 3.89801 -1.20497 0
M  V30 1383 H 127.833 3.47929 -2.27856 0
M  V30 1384 H 126.41 3.70046 -0.460499 0
M  V30 1385 N 128.595 0.856903 1.32268 0
M  V30 1386 C 129.525 0.31858 2.31316 0
M  V30 1387 C 130.506 -0.583487 1.59779 0
M  V30 1388 O 131.691 -0.503259 1.87566 0
M  V30 1389 C 128.821 -0.491979 3.43798 0
M  V30 1390 C 127.775 0.315849 4.26833 0
M  V30 1391 C 127.101 -0.619586 5.31098 0
M  V30 1392 C 128.401 1.54282 4.98993 0
M  V30 1393 H 130.095 1.14621 2.76591 0
M  V30 1394 H 127.641 0.552613 1.32974 0
M  V30 1395 H 129.594 -0.879012 4.1213 0
M  V30 1396 H 128.318 -1.35299 2.97257 0
M  V30 1397 H 126.977 0.684664 3.6015 0
M  V30 1398 H 126.625 -1.47751 4.8081 0
M  V30 1399 H 126.325 -0.0830621 5.87541 0
M  V30 1400 H 127.849 -1.00375 6.02293 0
M  V30 1401 H 129.263 1.22796 5.59995 0
M  V30 1402 H 127.66 2.01745 5.65172 0
M  V30 1403 H 128.73 2.30285 4.26728 0
M  V30 1404 N 130.073 -1.45103 0.615059 0
M  V30 1405 C 131.005 -2.28786 -0.13762 0
M  V30 1406 C 132.018 -1.40376 -0.824525 0
M  V30 1407 O 133.207 -1.64681 -0.688662 0
M  V30 1408 C 130.307 -3.16322 -1.21628 0
M  V30 1409 C 129.48 -4.33054 -0.615039 0
M  V30 1410 C 128.539 -5.01743 -1.58556 0
M  V30 1411 O 127.565 -5.58293 -1.10895 0
M  V30 1412 N 128.767 -5.01714 -2.91998 0
M  V30 1413 H 131.532 -2.94025 0.580483 0
M  V30 1414 H 129.093 -1.55373 0.45507 0
M  V30 1415 H 131.085 -3.59139 -1.86552 0
M  V30 1416 H 129.655 -2.52943 -1.83681 0
M  V30 1417 H 128.875 -3.93627 0.21245 0
M  V30 1418 H 130.163 -5.08431 -0.193704 0
M  V30 1419 H 129.561 -4.57075 -3.33316 0
M  V30 1420 H 128.118 -5.48371 -3.52325 0
M  V30 1421 N 131.551 -0.354651 -1.53558 0
M  V30 1422 C 132.498 0.496968 -2.25386 0
M  V30 1423 C 133.468 1.0865 -1.25636 0
M  V30 1424 O 134.653 1.12104 -1.54394 0
M  V30 1425 C 131.793 1.63637 -3.03837 0
M  V30 1426 C 130.906 1.07307 -4.18461 0
M  V30 1427 C 130.041 2.18068 -4.84376 0
M  V30 1428 C 129.08 1.59147 -5.91049 0
M  V30 1429 N 128.217 2.63695 -6.50699 0
M  V30 1430 H 133.057 -0.122075 -2.9775 0
M  V30 1431 H 130.594 -0.0720154 -1.46924 0
M  V30 1432 H 132.552 2.30734 -3.47589 0
M  V30 1433 H 131.182 2.22623 -2.33749 0
M  V30 1434 H 130.234 0.292708 -3.79272 0
M  V30 1435 H 131.546 0.602193 -4.95152 0
M  V30 1436 H 130.7 2.93007 -5.31255 0
M  V30 1437 H 129.439 2.68504 -4.07133 0
M  V30 1438 H 128.444 0.827175 -5.43542 0
M  V30 1439 H 129.669 1.09549 -6.70206 0
M  V30 1440 H 127.615 3.13365 -5.76315 0
M  V30 1441 H 127.532 2.21263 -7.22896 0
M  V30 1442 H 128.8 3.3837 -7.02229 0
M  V30 1443 N 133.029 1.57378 -0.0835403 0
M  V30 1444 C 133.939 2.16897 0.894021 0
M  V30 1445 C 134.955 1.13528 1.31861 0
M  V30 1446 O 136.131 1.45848 1.3889 0
M  V30 1447 C 133.196 2.72831 2.13925 0
M  V30 1448 C 132.257 3.91115 1.76997 0
M  V30 1449 C 131.49 4.44371 2.95584 0
M  V30 1450 O 131.713 3.96596 4.09961 0
M  V30 1451 O 130.647 5.35549 2.74719 0
M  V30 1452 H 134.473 3.00814 0.417679 0
M  V30 1453 H 132.058 1.48741 0.140181 0
M  V30 1454 H 133.94 3.0863 2.86924 0
M  V30 1455 H 132.615 1.91967 2.60635 0
M  V30 1456 H 131.522 3.60148 1.01214 0
M  V30 1457 H 132.855 4.73307 1.3506 0
M  V30 1458 N 134.507 -0.190092 1.56449 0
M  V30 1459 C 135.753 -0.906472 1.82084 0
M  V30 1460 C 136.108 -1.80677 0.661335 0
M  V30 1461 O 135.401 -1.88501 -0.343237 0
M  V30 1462 C 135.595 -1.75382 3.1141 0
M  V30 1463 C 135.424 -0.937053 4.39829 0
M  V30 1464 C 134.194 -0.619507 5.01488 0
M  V30 1465 C 136.392 -0.2874 5.13496 0
M  V30 1466 N 134.374 0.215367 6.13522 0
M  V30 1467 C 135.745 0.409454 6.18646 0
M  V30 1468 C 137.8 -0.203639 4.97483 0
M  V30 1469 C 136.503 1.1821 7.0952 0
M  V30 1470 C 138.529 0.555622 5.88784 0
M  V30 1471 C 137.891 1.24091 6.93384 0
M  V30 1472 H 133.99 -0.310931 0.717528 0
M  V30 1473 H 136.574 -0.174821 1.93914 0
M  V30 1474 H 134.745 -2.45703 3.00806 0
M  V30 1475 H 136.477 -2.41006 3.25112 0
M  V30 1476 H 133.232 -0.945126 4.64074 0
M  V30 1477 H 133.656 0.622562 6.74131 0
M  V30 1478 H 138.298 -0.719099 4.1664 0
M  V30 1479 H 136.016 1.70897 7.89823 0
M  V30 1480 H 139.602 0.621854 5.78467 0
M  V30 1481 H 138.482 1.81901 7.62812 0
M  V30 1482 N 135.985 -1.50799 -0.457987 0
M  V30 1483 C 136.932 -1.70617 -1.5543 0
M  V30 1484 C 137.902 -0.547562 -1.56815 0
M  V30 1485 O 139.087 -0.779647 -1.74144 0
M  V30 1486 C 136.227 -1.81831 -2.93311 0
M  V30 1487 C 135.34 -3.09278 -3.01615 0
M  V30 1488 C 134.475 -3.11209 -4.30491 0
M  V30 1489 C 133.514 -4.33055 -4.32585 0
M  V30 1490 N 132.651 -4.32652 -5.52952 0
M  V30 1491 H 137.491 -2.64207 -1.37836 0
M  V30 1492 H 135.028 -1.30959 -0.669937 0
M  V30 1493 H 136.986 -1.86314 -3.73287 0
M  V30 1494 H 135.616 -0.916685 -3.0951 0
M  V30 1495 H 134.668 -3.14203 -2.1443 0
M  V30 1496 H 135.98 -3.99233 -2.99022 0
M  V30 1497 H 135.134 -3.14494 -5.18824 0
M  V30 1498 H 133.873 -2.19106 -4.35711 0
M  V30 1499 H 132.878 -4.29969 -3.42647 0
M  V30 1500 H 134.103 -5.264 -4.29046 0
M  V30 1501 H 132.049 -3.43409 -5.58933 0
M  V30 1502 H 131.966 -5.16392 -5.52155 0
M  V30 1503 H 133.234 -4.40101 -6.43375 0
M  V30 1504 N 137.463 0.71206 -1.40597 0
M  V30 1505 C 138.373 1.8562 -1.43466 0
M  V30 1506 C 139.389 1.70902 -0.326902 0
M  V30 1507 O 140.565 1.93105 -0.572043 0
M  V30 1508 C 137.63 3.21451 -1.29884 0
M  V30 1509 C 136.691 3.48398 -2.50833 0
M  V30 1510 C 135.924 4.77749 -2.3789 0
M  V30 1511 O 136.147 5.53089 -1.39459 0
M  V30 1512 O 135.081 5.05111 -3.27333 0
M  V30 1513 H 138.907 1.86155 -2.39958 0
M  V30 1514 H 136.492 0.86295 -1.21957 0
M  V30 1515 H 138.374 4.02579 -1.24531 0
M  V30 1516 H 137.049 3.21636 -0.364997 0
M  V30 1517 H 135.956 2.67265 -2.61763 0
M  V30 1518 H 137.289 3.53014 -3.4299 0
M  V30 1519 N 138.941 1.26152 0.944643 0
M  V30 1520 C 140.169 1.14259 1.72489 0
M  V30 1521 C 140.584 -0.302555 1.8636 0
M  V30 1522 O 139.941 -1.20741 1.36849 0
M  V30 1523 C 139.992 1.80266 3.13347 0
M  V30 1524 O 139.713 3.19133 3.00143 0
M  V30 1525 C 141.214 1.74283 4.07603 0
M  V30 1526 H 138.434 0.398051 0.540181 0
M  V30 1527 H 140.978 1.66706 1.18446 0
M  V30 1528 H 139.133 1.31766 3.64303 0
M  V30 1529 H 139.547 3.51744 3.89071 0
M  V30 1530 H 141.021 2.25111 5.04013 0
M  V30 1531 H 141.498 0.708631 4.33446 0
M  V30 1532 H 142.104 2.22319 3.62567 0
M  V30 1533 N 140.419 -1.14872 1.07899 0
M  V30 1534 C 141.349 -2.2193 0.725887 0
M  V30 1535 C 142.33 -1.67622 -0.28927 0
M  V30 1536 O 143.515 -1.93533 -0.160787 0
M  V30 1537 C 140.645 -3.47061 0.128856 0
M  V30 1538 C 139.599 -4.14363 1.07178 0
M  V30 1539 C 138.925 -5.33636 0.337229 0
M  V30 1540 C 140.225 -4.63492 2.40775 0
M  V30 1541 H 141.919 -2.51724 1.62097 0
M  V30 1542 H 139.465 -1.20991 0.780838 0
M  V30 1543 H 141.418 -4.21199 -0.130147 0
M  V30 1544 H 140.142 -3.16617 -0.80134 0
M  V30 1545 H 138.801 -3.42173 1.3158 0
M  V30 1546 H 138.449 -4.99449 -0.596606 0
M  V30 1547 H 138.149 -5.79609 0.965788 0
M  V30 1548 H 139.673 -6.10539 0.0861567 0
M  V30 1549 H 141.087 -5.2913 2.20669 0
M  V30 1550 H 139.484 -5.20148 2.99276 0
M  V30 1551 H 140.554 -3.78834 3.02676 0
M  V30 1552 N 141.898 -0.863906 -1.31812 0
M  V30 1553 C 142.845 -0.313303 -2.28664 0
M  V30 1554 C 143.815 0.584868 -1.55462 0
M  V30 1555 O 145 0.517805 -1.83639 0
M  V30 1556 C 142.14 0.48441 -3.41683 0
M  V30 1557 C 141.253 -0.440594 -4.29747 0
M  V30 1558 C 140.388 0.370652 -5.29905 0
M  V30 1559 C 139.427 -0.551164 -6.09613 0
M  V30 1560 N 138.564 0.223462 -7.01744 0
M  V30 1561 H 143.404 -1.14444 -2.75148 0
M  V30 1562 H 140.941 -0.575769 -1.35364 0
M  V30 1563 H 142.899 0.962627 -4.05943 0
M  V30 1564 H 141.529 1.28029 -2.96325 0
M  V30 1565 H 140.581 -1.03724 -3.65986 0
M  V30 1566 H 141.893 -1.14767 -4.85417 0
M  V30 1567 H 141.047 0.911638 -5.99812 0
M  V30 1568 H 139.786 1.11105 -4.74876 0
M  V30 1569 H 138.791 -1.10396 -5.38603 0
M  V30 1570 H 140.016 -1.29032 -6.66729 0
M  V30 1571 H 137.962 0.946787 -6.49132 0
M  V30 1572 H 137.879 -0.424399 -7.54808 0
M  V30 1573 H 139.147 0.745876 -7.75923 0
M  V30 1574 N 143.376 1.44774 -0.622745 0
M  V30 1575 C 144.622 2.0242 -0.124083 0
M  V30 1576 C 144.955 1.4881 1.24777 0
M  V30 1577 O 144.23 0.668799 1.8264 0
M  V30 1578 C 144.513 3.59957 -0.101619 0
M  V30 1579 C 144.366 4.23867 -1.50521 0
M  V30 1580 C 145.685 4.36284 0.578272 0
M  V30 1581 H 142.804 0.735528 -0.0465645 0
M  V30 1582 H 145.446 1.72447 -0.797617 0
M  V30 1583 H 143.596 3.85623 0.471934 0
M  V30 1584 H 145.268 4.09336 -2.12701 0
M  V30 1585 H 143.511 3.81684 -2.06154 0
M  V30 1586 H 144.182 5.32843 -1.4416 0
M  V30 1587 H 146.658 4.16001 0.0906057 0
M  V30 1588 H 145.534 5.46004 0.563149 0
M  V30 1589 H 145.795 4.10271 1.64713 0
M  V30 1590 N 144.854 0.36279 1.53368 0
M  V30 1591 C 145.784 -0.476976 2.28576 0
M  V30 1592 C 146.765 -1.08631 1.30894 0
M  V30 1593 O 147.95 -1.10409 1.59761 0
M  V30 1594 C 145.08 -1.61828 3.07293 0
M  V30 1595 C 144.034 -1.13633 4.1264 0
M  V30 1596 C 143.36 -2.36766 4.79423 0
M  V30 1597 C 144.66 -0.223061 5.21823 0
M  V30 1598 H 146.354 0.150474 2.99022 0
M  V30 1599 H 143.9 0.0738103 1.43811 0
M  V30 1600 H 145.853 -2.21237 3.58653 0
M  V30 1601 H 144.577 -2.27292 2.34533 0
M  V30 1602 H 143.236 -0.564945 3.62221 0
M  V30 1603 H 142.884 -3.0068 4.03238 0
M  V30 1604 H 142.584 -2.05192 5.50609 0
M  V30 1605 H 144.108 -2.96865 5.33576 0
M  V30 1606 H 145.522 -0.724545 5.68703 0
M  V30 1607 H 143.919 0.001678 6.001 0
M  V30 1608 H 144.989 0.735553 4.79289 0
M  V30 1609 N 146.332 -1.57332 0.0918853 0
M  V30 1610 C 147.748 -1.57389 -0.264766 0
M  V30 1611 C 147.948 -1.10281 -1.68643 0
M  V30 1612 O 147.004 -0.777801 -2.40222 0
M  V30 1613 C 148.317 -3.00648 -0.0561195 0
M  V30 1614 C 149.865 -3.12754 -0.124116 0
M  V30 1615 C 150.34 -4.57965 0.0564972 0
M  V30 1616 N 151.831 -4.632 0.00155611 0
M  V30 1617 C 152.566 -5.73281 0.116598 0
M  V30 1618 N 152.062 -6.92208 0.286294 0
M  V30 1619 N 153.855 -5.6207 0.0580973 0
M  V30 1620 H 146.006 -1.86262 1.02079 0
M  V30 1621 H 148.269 -0.859579 0.399786 0
M  V30 1622 H 147.975 -3.393 0.925669 0
M  V30 1623 H 147.849 -3.68623 -0.799823 0
M  V30 1624 H 150.236 -2.73976 -1.09641 0
M  V30 1625 H 150.317 -2.47377 0.651024 0
M  V30 1626 H 149.961 -4.97436 1.02564 0
M  V30 1627 H 149.891 -5.21399 -0.738297 0
M  V30 1628 H 152.382 -3.77686 -0.127192 0
M  V30 1629 H 152.695 -7.71934 0.365676 0
M  V30 1630 H 151.04 -6.94254 0.32192 0
M  V30 1631 H 154.231 -4.68043 -0.0733204 0
M  V30 1632 H 154.404 -6.47824 0.151203 0
M  V30 1633 N 147.81 0.181792 -1.56548 0
M  V30 1634 C 148.76 1.22961 -1.92002 0
M  V30 1635 C 149.744 1.40331 -0.787146 0
M  V30 1636 O 150.936 1.42478 -1.05019 0
M  V30 1637 C 148.065 2.57144 -2.27446 0
M  V30 1638 C 147.151 2.43512 -3.47222 0
M  V30 1639 N 147.542 1.99577 -4.64761 0
M  V30 1640 C 145.84 2.74368 -3.51622 0
M  V30 1641 C 146.541 1.98156 -5.46909 0
M  V30 1642 N 145.517 2.40164 -4.8767 0
M  V30 1643 H 149.319 0.881462 -2.8037 0
M  V30 1644 H 146.833 0.390141 -1.57644 0
M  V30 1645 H 148.83 3.32847 -2.51035 0
M  V30 1646 H 147.49 2.92771 -1.40411 0
M  V30 1647 H 148.501 1.70078 -4.89177 0
M  V30 1648 H 145.178 3.14102 -2.75038 0
M  V30 1649 H 146.568 1.65975 -6.51077 0
M  V30 1650 N 149.288 1.51039 0.449983 0
M  V30 1651 C 150.238 1.67824 1.54335 0
M  V30 1652 C 151.222 0.5324 1.51836 0
M  V30 1653 O 152.414 0.787762 1.58503 0
M  V30 1654 C 149.543 1.7951 2.92628 0
M  V30 1655 C 148.629 2.99838 2.9993 0
M  V30 1656 N 149.02 4.23207 2.77001 0
M  V30 1657 C 147.318 2.98832 3.31082 0
M  V30 1658 C 148.019 5.04361 2.89818 0
M  V30 1659 N 146.995 4.38746 3.2094 0
M  V30 1660 H 150.797 2.60884 1.35339 0
M  V30 1661 H 148.311 1.48513 0.657085 0
M  V30 1662 H 150.308 1.89642 3.7127 0
M  V30 1663 H 148.968 0.876227 3.12654 0
M  V30 1664 H 149.979 4.5236 2.52172 0
M  V30 1665 H 146.656 2.16527 3.56963 0
M  V30 1666 H 148.046 6.12528 2.76151 0
M  V30 1667 N 150.766 -0.704594 1.40972 0
M  V30 1668 C 151.698 -1.82974 1.38033 0
M  V30 1669 C 152.711 -1.60305 0.283931 0
M  V30 1670 O 153.9 -1.69975 0.545042 0
M  V30 1671 C 151 -3.19578 1.12795 0
M  V30 1672 C 150.173 -3.69352 2.34302 0
M  V30 1673 C 149.232 -4.84601 2.05058 0
M  V30 1674 O 148.258 -4.96682 2.7802 0
M  V30 1675 N 149.46 -5.71194 1.03528 0
M  V30 1676 H 152.225 -1.85991 2.35005 0
M  V30 1677 H 149.786 -0.886567 1.35468 0
M  V30 1678 H 151.778 -3.9429 0.911987 0
M  V30 1679 H 150.348 -3.11642 0.24452 0
M  V30 1680 H 149.568 -2.85649 2.71659 0
M  V30 1681 H 150.856 -3.99345 3.1528 0
M  V30 1682 H 150.254 -5.64054 0.431217 0
M  V30 1683 H 148.811 -6.45843 0.879205 0
M  V30 1684 N 152.244 -1.26651 -0.937939 0
M  V30 1685 C 153.154 -1.10276 -2.07066 0
M  V30 1686 C 154.17 -0.0354197 -1.73964 0
M  V30 1687 O 155.346 -0.239816 -1.99967 0
M  V30 1688 C 152.411 -0.740887 -3.38691 0
M  V30 1689 C 151.472 -1.88799 -3.85556 0
M  V30 1690 C 150.705 -1.54329 -5.10899 0
M  V30 1691 O 150.928 -0.446494 -5.6865 0
M  V30 1692 O 149.862 -2.37911 -5.52885 0
M  V30 1693 H 153.688 -2.05309 -2.23789 0
M  V30 1694 H 151.273 -1.05743 -1.0554 0
M  V30 1695 H 153.155 -0.55195 -4.1777 0
M  V30 1696 H 151.83 0.180022 -3.23199 0
M  V30 1697 H 150.737 -2.13191 -3.07409 0
M  V30 1698 H 152.07 -2.78874 -4.05574 0
M  V30 1699 N 153.722 1.14298 -1.08507 0
M  V30 1700 C 154.669 2.19414 -0.715965 0
M  V30 1701 C 155.639 1.63399 0.298326 0
M  V30 1702 O 156.824 1.89929 0.182101 0
M  V30 1703 C 153.964 3.44845 -0.132534 0
M  V30 1704 C 153.077 4.15007 -1.19973 0
M  V30 1705 C 152.212 5.28024 -0.580048 0
M  V30 1706 C 151.251 5.9002 -1.62921 0
M  V30 1707 N 150.388 6.94485 -1.03125 0
M  V30 1708 H 155.228 2.50336 -1.61666 0
M  V30 1709 H 152.765 1.2293 -0.807882 0
M  V30 1710 H 154.723 4.16601 0.223454 0
M  V30 1711 H 153.353 3.14403 0.731467 0
M  V30 1712 H 152.405 3.41629 -1.67313 0
M  V30 1713 H 153.717 4.57178 -1.99473 0
M  V30 1714 H 152.871 6.06455 -0.172364 0
M  V30 1715 H 151.61 4.87076 0.246603 0
M  V30 1716 H 150.615 5.10291 -2.04654 0
M  V30 1717 H 151.84 6.33042 -2.45835 0
M  V30 1718 H 149.786 6.55612 -0.225711 0
M  V30 1719 H 149.703 7.35148 -1.76334 0
M  V30 1720 H 150.971 7.7679 -0.649458 0
M  V30 1721 N 155.201 0.870884 1.31352 0
M  V30 1722 C 156.131 0.343096 2.30966 0
M  V30 1723 C 157.112 -0.566507 1.60389 0
M  V30 1724 O 158.297 -0.483336 1.88089 0
M  V30 1725 C 155.427 -0.455487 3.443 0
M  V30 1726 C 154.381 0.361103 4.26474 0
M  V30 1727 C 153.707 -0.563221 5.31725 0
M  V30 1728 C 155.007 1.59566 4.97329 0
M  V30 1729 H 156.701 1.17548 2.75359 0
M  V30 1730 H 154.247 0.566686 1.32381 0
M  V30 1731 H 156.2 -0.83525 4.13039 0
M  V30 1732 H 154.924 -1.32139 2.98675 0
M  V30 1733 H 153.583 0.722825 3.59403 0
M  V30 1734 H 153.231 -1.42643 4.82351 0
M  V30 1735 H 152.931 -0.0207409 5.87596 0
M  V30 1736 H 154.455 -0.939808 6.03324 0
M  V30 1737 H 155.869 1.28728 5.58661 0
M  V30 1738 H 154.266 2.07728 5.63 0
M  V30 1739 H 155.336 2.34798 4.24262 0
M  V30 1740 N 156.679 -1.44442 0.630414 0
M  V30 1741 C 157.589 -2.34476 -0.0761693 0
M  V30 1742 C 158.605 -1.52576 -0.836449 0
M  V30 1743 O 159.781 -1.85307 -0.788874 0
M  V30 1744 C 156.846 -3.30545 -1.04599 0
M  V30 1745 C 155.907 -4.28352 -0.28516 0
M  V30 1746 C 155.14 -5.19831 -1.20878 0
M  V30 1747 O 155.363 -5.15223 -2.44747 0
M  V30 1748 O 154.297 -5.97892 -0.693491 0
M  V30 1749 H 158.123 -2.96345 0.664324 0
M  V30 1750 H 155.708 -1.44203 0.39061 0
M  V30 1751 H 157.59 -3.89681 -1.60396 0
M  V30 1752 H 156.265 -2.7121 -1.76711 0
M  V30 1753 H 155.172 -3.72764 0.315837 0
M  V30 1754 H 156.505 -4.90605 0.395924 0
M  V30 1755 N 158.157 -0.370918 -1.53173 0
M  V30 1756 C 159.12 0.460778 -2.24521 0
M  V30 1757 C 160.12 1.00536 -1.25496 0
M  V30 1758 O 161.31 0.890266 -1.49733 0
M  V30 1759 C 158.442 1.64457 -2.98608 0
M  V30 1760 H 159.635 -0.163613 -2.99453 0
M  V30 1761 H 157.188 -0.122699 -1.55818 0
M  V30 1762 H 157.923 2.30691 -2.2793 0
M  V30 1763 H 157.708 1.26099 -3.7127 0
M  V30 1764 H 159.198 2.23384 -3.5283 0
M  V30 1765 N 159.635 1.57281 -0.100228 0
M  V30 1766 C 160.86 1.99302 0.573881 0
M  V30 1767 C 161.285 0.979059 1.60611 0
M  V30 1768 O 160.643 -0.0517803 1.81226 0
M  V30 1769 C 160.691 3.40274 1.19358 0
M  V30 1770 O 159.795 3.41676 2.30935 0
M  V30 1771 H 159.136 0.647944 0.145138 0
M  V30 1772 H 161.666 2.03779 -0.183156 0
M  V30 1773 H 161.676 3.78078 1.53365 0
M  V30 1774 H 160.351 4.13594 0.437385 0
M  V30 1775 H 158.928 3.15672 1.98509 0
M  V30 1776 N 161.113 -0.173488 1.56642 0
M  V30 1777 C 162.39 -0.917617 1.7274 0
M  V30 1778 C 162.77 -2.00484 0.661027 0
M  V30 1779 O 162.118 -2.26184 -0.32453 0
M  V30 1780 C 162.328 -1.48433 3.15862 0
M  V30 1781 C 163.676 -1.95809 3.76754 0
M  V30 1782 O 164.7 -1.58231 3.19126 0
M  V30 1783 O 163.559 -2.65024 4.77938 0
M  V30 1784 H 160.653 -0.431772 0.705338 0
M  V30 1785 H 163.199 -0.161487 1.6893 0
M  V30 1786 H 161.971 -0.701715 3.84957 0
M  V30 1787 H 161.594 -2.30471 3.23989 0
M  V30 1788 N 162.591 -1.51276 -0.441967 0
M  V30 1789 C 163.831 -1.65372 -1.20132 0
M  V30 1790 C 164.195 -0.359871 -1.88597 0
M  V30 1791 O 165.396 -0.376551 -2.66149 0
M  V30 1792 C 163.667 -2.8207 -2.1948 0
M  V30 1793 S 165.226 -3.16467 -3.03964 0
M  V30 1794 H 162.044 -0.582669 -0.407453 0
M  V30 1795 H 164.646 -1.89166 -0.493609 0
M  V30 1796 H 163.35 -3.74523 -1.67812 0
M  V30 1797 H 162.881 -2.6045 -2.94838 0
M  V30 1798 H 164.896 -2.62543 -4.21053 0
M  V30 1799 N 164.069 0.697108 -1.41344 0
M  V30 1800 C 165.346 1.45154 -1.31109 0
M  V30 1801 C 165.726 2.11009 0.0620449 0
M  V30 1802 O 165.074 2.01571 1.07618 0
M  V30 1803 C 165.284 2.47223 -2.46337 0
M  V30 1804 C 166.632 3.1252 -2.87431 0
M  V30 1805 O 167.656 2.57547 -2.46065 0
M  V30 1806 O 166.515 4.12083 -3.58957 0
M  V30 1807 H 163.609 0.646365 -0.515889 0
M  V30 1808 H 166.155 0.727716 -1.53305 0
M  V30 1809 H 164.927 1.97204 -3.37974 0
M  V30 1810 H 164.55 3.27116 -2.2601 0
M  V30 1811 N 165.547 1.27147 0.931209 0
M  V30 1812 C 166.497 1.06227 2.01742 0
M  V30 1813 C 167.481 -0.00859065 1.60898 0
M  V30 1814 O 168.673 0.209537 1.75755 0
M  V30 1815 C 165.802 0.707787 3.35924 0
M  V30 1816 C 164.888 1.81661 3.83223 0
M  V30 1817 N 165.279 3.05564 4.03069 0
M  V30 1818 C 163.577 1.70249 4.12227 0
M  V30 1819 C 164.278 3.77697 4.42403 0
M  V30 1820 N 163.254 3.0544 4.49675 0
M  V30 1821 H 167.056 2.00261 2.15111 0
M  V30 1822 H 164.57 1.1781 1.11779 0
M  V30 1823 H 166.567 0.539043 4.134 0
M  V30 1824 H 165.227 -0.224964 3.2392 0
M  V30 1825 H 166.238 3.41363 3.89476 0
M  V30 1826 H 162.915 0.840329 4.08956 0
M  V30 1827 H 164.305 4.84168 4.65866 0
M  V30 1828 N 167.025 -1.13721 1.09112 0
M  V30 1829 C 167.957 -2.1871 0.685467 0
M  V30 1830 C 168.97 -1.60527 -0.271068 0
M  V30 1831 O 170.159 -1.78407 -0.0576148 0
M  V30 1832 C 167.259 -3.38898 -0.0111255 0
M  V30 1833 C 166.432 -4.26597 0.966131 0
M  V30 1834 C 165.491 -5.25324 0.303539 0
M  V30 1835 O 164.517 -5.61213 0.950177 0
M  V30 1836 N 165.719 -5.72779 -0.943651 0
M  V30 1837 H 168.484 -2.54126 1.58871 0
M  V30 1838 H 166.045 -1.29012 0.978143 0
M  V30 1839 H 168.037 -4.02014 -0.465517 0
M  V30 1840 H 166.607 -3.01747 -0.816565 0
M  V30 1841 H 165.827 -3.60306 1.59917 0
M  V30 1842 H 167.115 -4.82048 1.6281 0
M  V30 1843 H 166.513 -5.45762 -1.48862 0
M  V30 1844 H 165.07 -6.37847 -1.34142 0
M  V30 1845 N 168.503 -0.877838 -1.30888 0
M  V30 1846 C 169.435 -0.296607 -2.27273 0
M  V30 1847 C 170.448 0.544799 -1.53414 0
M  V30 1848 O 171.637 0.365511 -1.74718 0
M  V30 1849 C 168.737 0.597481 -3.33592 0
M  V30 1850 C 167.91 -0.213251 -4.3688 0
M  V30 1851 C 166.969 0.610208 -5.2265 0
M  V30 1852 O 165.995 0.035441 -5.69189 0
M  V30 1853 N 167.197 1.92071 -5.47804 0
M  V30 1854 H 169.962 -1.12492 -2.77787 0
M  V30 1855 H 167.523 -0.740105 -1.43993 0
M  V30 1856 H 169.515 1.15425 -3.87891 0
M  V30 1857 H 168.085 1.32647 -2.83061 0
M  V30 1858 H 167.305 -0.951466 -3.82545 0
M  V30 1859 H 168.593 -0.769262 -5.02951 0
M  V30 1860 H 167.991 2.4107 -5.11763 0
M  V30 1861 H 166.548 2.42508 -6.05007 0
M  V30 1862 N 169.982 1.44106 -0.638065 0
M  V30 1863 C 170.93 2.3248 0.0748149 0
M  V30 1864 C 171.924 1.47746 0.828702 0
M  V30 1865 O 173.13 1.64049 0.740816 0
M  V30 1866 H 169.505 0.750771 0.0429686 0
M  V30 1867 H 171.476 2.90348 -0.688504 0
M  V30 1868 C 170.225 3.31843 1.03805 0
M  V30 1869 H 169.548 3.97059 0.467375 0
M  V30 1870 H 170.988 3.96345 1.50622 0
M  V30 1871 C 169.447 2.61291 2.1267 0
M  V30 1872 O 169.977 2.41702 3.20847 0
M  V30 1873 N 168.183 2.20915 1.88798 0
M  V30 1874 H 167.73 2.37047 1.00829 0
M  V30 1875 H 167.688 1.74038 2.61836 0
M  V30 1876 N 171.46 0.379036 1.52974 0
M  V30 1877 C 172.685 -0.209353 2.06341 0
M  V30 1878 C 173.11 -1.40583 1.24972 0
M  V30 1879 O 172.468 -1.79246 0.272155 0
M  V30 1880 C 172.516 -0.567786 3.56102 0
M  V30 1881 O 171.62 -1.66318 3.77375 0
M  V30 1882 H 170.961 -0.0272919 0.663439 0
M  V30 1883 H 173.491 0.543536 1.97248 0
M  V30 1884 H 173.501 -0.835003 3.99364 0
M  V30 1885 H 172.176 0.307013 4.14765 0
M  V30 1886 H 170.753 -1.39048 3.46006 0
M  V30 1887 N 172.938 -1.57226 0.108567 0
M  V30 1888 C 174.349 -1.8195 -0.418464 0
M  V30 1889 C 174.7 -1.02508 -1.67292 0
M  V30 1890 O 173.825 -0.258496 -2.14851 0
M  V30 1891 C 174.42 -3.30028 -0.765979 0
M  V30 1892 C 172.979 -3.55469 -1.23769 0
M  V30 1893 C 172.126 -2.7625 -0.241106 0
M  V30 1894 H 175.077 -1.55149 0.33384 0
M  V30 1895 H 175.098 -3.44086 -1.62434 0
M  V30 1896 H 174.61 -3.87821 0.147219 0
M  V30 1897 H 172.711 -3.03022 -2.16814 0
M  V30 1898 H 172.824 -4.6408 -1.19022 0
M  V30 1899 H 171.188 -2.44133 -0.72602 0
M  V30 1900 H 171.971 -3.36797 0.665007 0
M  V30 1901 N 174.416 0.165178 -1.56732 0
M  V30 1902 C 175.644 0.896218 -1.86482 0
M  V30 1903 C 176.059 1.75555 -0.694675 0
M  V30 1904 O 175.416 1.79379 0.33607 0
M  V30 1905 C 175.467 1.76792 -3.1532 0
M  V30 1906 O 175.188 0.943239 -4.27825 0
M  V30 1907 C 176.689 2.6081 -3.58459 0
M  V30 1908 H 173.909 0.260064 -0.618553 0
M  V30 1909 H 176.453 0.163428 -2.03846 0
M  V30 1910 H 174.608 2.45398 -2.99764 0
M  V30 1911 H 175.022 1.53998 -5.01383 0
M  V30 1912 H 176.496 3.17579 -4.51495 0
M  V30 1913 H 176.973 3.35977 -2.82872 0
M  V30 1914 H 177.579 1.97526 -3.76648 0
M  V30 1915 N 175.894 1.51508 0.433938 0
M  V30 1916 C 176.824 1.76016 1.53429 0
M  V30 1917 C 177.805 0.610112 1.58782 0
M  V30 1918 O 178.99 0.853177 1.74455 0
M  V30 1919 C 176.12 1.88831 2.9148 0
M  V30 1920 C 175.074 3.04288 3.00987 0
M  V30 1921 C 174.4 3.0229 4.4105 0
M  V30 1922 C 175.7 4.44193 2.74754 0
M  V30 1923 H 177.394 2.68152 1.33171 0
M  V30 1924 H 174.94 1.29035 0.639214 0
M  V30 1925 H 176.893 2.04559 3.6842 0
M  V30 1926 H 175.617 0.933455 3.12976 0
M  V30 1927 H 174.276 2.8827 2.26486 0
M  V30 1928 H 173.924 2.04576 4.59519 0
M  V30 1929 H 173.624 3.79822 4.4834 0
M  V30 1930 H 175.148 3.20116 5.1996 0
M  V30 1931 H 176.562 4.60544 3.41426 0
M  V30 1932 H 174.959 5.23457 2.9345 0
M  V30 1933 H 176.029 4.53996 1.70339 0
M  V30 1934 N 177.372 -0.689602 1.41712 0
M  V30 1935 C 178.282 -1.83314 1.46401 0
M  V30 1936 C 179.298 -1.7036 0.35405 0
M  V30 1937 O 180.474 -1.92171 0.602692 0
M  V30 1938 C 177.539 -3.19344 1.34982 0
M  V30 1939 C 176.6 -3.44363 2.56344 0
M  V30 1940 C 175.833 -4.73904 2.45461 0
M  V30 1941 O 176.056 -5.508 1.48241 0
M  V30 1942 O 174.99 -4.99839 3.35328 0
M  V30 1943 H 178.816 -1.82314 2.42889 0
M  V30 1944 H 176.401 -0.843438 1.23315 0
M  V30 1945 H 178.283 -4.00547 1.3092 0
M  V30 1946 H 176.958 -3.21014 0.41612 0
M  V30 1947 H 175.865 -2.63067 2.65982 0
M  V30 1948 H 177.198 -3.47512 3.48563 0
M  V30 1949 N 178.85 -1.27639 -0.924453 0
M  V30 1950 C 180.266 -1.05113 -1.20097 0
M  V30 1951 C 180.466 0.213262 -2.00368 0
M  V30 1952 O 179.522 0.91787 -2.35226 0
M  V30 1953 C 180.835 -2.29244 -1.94596 0
M  V30 1954 C 182.383 -2.34315 -2.07522 0
M  V30 1955 C 182.858 -3.58183 -2.85427 0
M  V30 1956 N 184.349 -3.5876 -2.92994 0
M  V30 1957 C 185.084 -4.51277 -3.53746 0
M  V30 1958 N 184.58 -5.54102 -4.15863 0
M  V30 1959 N 186.373 -4.38894 -3.51181 0
M  V30 1960 H 178.524 -2.08821 -0.388264 0
M  V30 1961 H 180.787 -0.918568 -0.234385 0
M  V30 1962 H 180.493 -3.21301 -1.43034 0
M  V30 1963 H 180.367 -2.34816 -2.95197 0
M  V30 1964 H 182.754 -1.42762 -2.58269 0
M  V30 1965 H 182.835 -2.32744 -1.06131 0
M  V30 1966 H 182.479 -4.50074 -2.35363 0
M  V30 1967 H 182.409 -3.57006 -3.8711 0
M  V30 1968 H 184.9 -2.84398 -2.4885 0
M  V30 1969 H 185.213 -6.20859 -4.60168 0
M  V30 1970 H 183.558 -5.57941 -4.144 0
M  V30 1971 H 186.749 -3.57772 -3.01856 0
M  V30 1972 H 186.922 -5.11186 -3.98237 0
M  V30 1973 N 180.328 1.1314 -1.09713 0
M  V30 1974 C 181.739 1.66029 -0.853885 0
M  V30 1975 C 182.09 1.86241 0.617142 0
M  V30 1976 O 181.215 1.5834 1.47503 0
M  V30 1977 C 181.81 3.01599 -1.5435 0
M  V30 1978 C 180.369 3.51467 -1.34714 0
M  V30 1979 C 179.516 2.26648 -1.59769 0
M  V30 1980 H 182.467 0.970226 -1.25588 0
M  V30 1981 H 182.488 3.67709 -0.978267 0
M  V30 1982 H 182 2.86856 -2.6141 0
M  V30 1983 H 180.101 3.71408 -0.297838 0
M  V30 1984 H 180.214 4.314 -2.08401 0
M  V30 1985 H 178.578 2.33385 -1.01998 0
M  V30 1986 H 179.361 2.14467 -2.68065 0
M  V30 1987 N 181.806 0.884767 1.30421 0
M  V30 1988 C 183.054 0.502112 1.95763 0
M  V30 1989 C 183.375 -0.951815 1.70192 0
M  V30 1990 O 182.645 -1.6692 1.0254 0
M  V30 1991 H 181.225 0.182694 0.724315 0
M  V30 1992 H 183.887 1.1278 1.58955 0
M  V30 1993 H 182.983 0.672188 3.04775 0
M  V30 1994 N 183.284 -1.43765 0.645699 0
M  V30 1995 C 184.7 -1.56509 0.312591 0
M  V30 1996 C 184.9 -1.6307 -1.18365 0
M  V30 1997 O 183.956 -1.58167 -1.96824 0
M  V30 1998 C 185.269 -2.82968 1.01733 0
M  V30 1999 C 186.817 -2.96701 0.996865 0
M  V30 2000 C 187.292 -4.25982 1.68236 0
M  V30 2001 N 188.783 -4.32829 1.64964 0
M  V30 2002 C 189.518 -5.31613 2.14885 0
M  V30 2003 N 189.014 -6.36718 2.73061 0
M  V30 2004 N 190.807 -5.23217 2.05428 0
M  V30 2005 H 182.958 -1.3775 1.61675 0
M  V30 2006 H 185.221 -0.661067 0.679481 0
M  V30 2007 H 184.927 -2.84156 2.0724 0
M  V30 2008 H 184.801 -3.72957 0.564177 0
M  V30 2009 H 187.188 -2.95058 -0.0497719 0
M  V30 2010 H 187.269 -2.08022 1.48865 0
M  V30 2011 H 186.913 -4.28386 2.72852 0
M  V30 2012 H 186.843 -5.13545 1.16529 0
M  V30 2013 H 189.334 -3.57493 1.22503 0
M  V30 2014 H 189.647 -7.08401 3.08848 0
M  V30 2015 H 187.992 -6.37362 2.77118 0
M  V30 2016 H 191.183 -4.40019 1.59689 0
M  V30 2017 H 191.356 -6.00045 2.44643 0
M  V30 2018 N 184.763 -0.387143 -1.52771 0
M  V30 2019 C 185.71 0.449048 -2.26389 0
M  V30 2020 C 186.68 1.05961 -1.27912 0
M  V30 2021 O 187.865 1.08804 -1.56737 0
M  V30 2022 C 185.005 1.57155 -3.0724 0
M  V30 2023 C 184.118 0.984066 -4.20643 0
M  V30 2024 C 183.253 2.07745 -4.88892 0
M  V30 2025 C 182.292 1.46574 -5.94292 0
M  V30 2026 N 181.429 2.49834 -6.56146 0
M  V30 2027 H 186.269 -0.185205 -2.97424 0
M  V30 2028 H 183.806 -0.103164 -1.46738 0
M  V30 2029 H 185.764 2.23309 -3.52405 0
M  V30 2030 H 184.394 2.17615 -2.38419 0
M  V30 2031 H 183.446 0.212193 -3.79808 0
M  V30 2032 H 184.758 0.497029 -4.96318 0
M  V30 2033 H 183.912 2.81673 -5.3735 0
M  V30 2034 H 182.651 2.59807 -4.12737 0
M  V30 2035 H 181.656 0.711696 -5.45174 0
M  V30 2036 H 182.881 0.953088 -6.72379 0
M  V30 2037 H 180.827 3.0107 -5.82832 0
M  V30 2038 H 180.744 2.05879 -7.27427 0
M  V30 2039 H 182.012 3.23399 -7.09249 0
M  V30 2040 N 186.241 1.57166 -0.116904 0
M  V30 2041 C 187.657 1.5779 0.239693 0
M  V30 2042 C 187.857 1.1295 1.66867 0
M  V30 2043 O 186.913 0.81592 2.38954 0
M  V30 2044 C 188.226 3.00699 0.00828202 0
M  V30 2045 C 189.774 3.12912 0.0743438 0
M  V30 2046 C 190.249 4.57817 -0.129348 0
M  V30 2047 N 191.74 4.63139 -0.075247 0
M  V30 2048 C 192.475 5.73023 -0.207788 0
M  V30 2049 N 191.971 6.91665 -0.396382 0
M  V30 2050 N 193.764 5.61906 -0.14751 0
M  V30 2051 H 185.915 1.84615 -1.05029 0
M  V30 2052 H 188.178 0.85311 -0.41341 0
M  V30 2053 H 187.884 3.37784 -0.979531 0
M  V30 2054 H 187.758 3.69848 0.741077 0
M  V30 2055 H 190.145 2.75686 1.05268 0
M  V30 2056 H 190.226 2.4631 -0.690297 0
M  V30 2057 H 189.87 4.95742 -1.10465 0
M  V30 2058 H 189.8 5.22507 0.655253 0
M  V30 2059 H 192.291 3.7784 0.0670898 0
M  V30 2060 H 192.604 7.71255 -0.488437 0
M  V30 2061 H 190.949 6.93654 -0.432329 0
M  V30 2062 H 194.14 4.681 -0.00115036 0
M  V30 2063 H 194.313 6.47501 -0.254247 0
M  V30 2064 N 187.719 -0.156864 1.56817 0
M  V30 2065 C 188.666 -1.19394 1.97519 0
M  V30 2066 C 189.636 -1.4322 0.841265 0
M  V30 2067 O 190.821 -1.55719 1.10255 0
M  V30 2068 C 187.961 -2.52483 2.35258 0
M  V30 2069 C 187.074 -2.35914 3.61896 0
M  V30 2070 C 186.209 -3.61969 3.88782 0
M  V30 2071 C 185.248 -3.40395 5.08722 0
M  V30 2072 N 184.385 -4.58556 5.31668 0
M  V30 2073 H 189.225 -0.839845 2.85921 0
M  V30 2074 H 186.762 -0.403264 1.41464 0
M  V30 2075 H 188.72 -3.30071 2.55165 0
M  V30 2076 H 187.35 -2.85859 1.49949 0
M  V30 2077 H 186.402 -1.49429 3.49821 0
M  V30 2078 H 187.714 -2.15926 4.49641 0
M  V30 2079 H 186.868 -4.47989 4.09135 0
M  V30 2080 H 185.607 -3.84951 2.9944 0
M  V30 2081 H 184.612 -2.52763 4.88253 0
M  V30 2082 H 185.837 -3.18822 5.99608 0
M  V30 2083 H 183.783 -4.81729 4.45279 0
M  V30 2084 H 183.7 -4.41535 6.13664 0
M  V30 2085 H 184.968 -5.45817 5.5651 0
M  V30 2086 N 189.197 -1.51736 -0.425897 0
M  V30 2087 C 190.443 -1.66174 -1.17294 0
M  V30 2088 C 190.798 -0.37876 -1.88635 0
M  V30 2089 O 190.091 0.626021 -1.81084 0
M  V30 2090 C 190.285 -2.81103 -2.20717 0
M  V30 2091 C 190.114 -4.20453 -1.59529 0
M  V30 2092 C 188.884 -4.86225 -1.37525 0
M  V30 2093 C 191.082 -5.03146 -1.06528 0
M  V30 2094 N 189.064 -6.09657 -0.720537 0
M  V30 2095 C 190.435 -6.17674 -0.536506 0
M  V30 2096 C 192.49 -4.88594 -0.958127 0
M  V30 2097 C 191.193 -7.19245 0.0888917 0
M  V30 2098 C 193.219 -5.90383 -0.346608 0
M  V30 2099 C 192.581 -7.04191 0.171564 0
M  V30 2100 H 188.68 -0.661871 -0.416475 0
M  V30 2101 H 191.264 -1.88997 -0.467801 0
M  V30 2102 H 189.435 -2.59924 -2.88607 0
M  V30 2103 H 191.167 -2.84662 -2.87663 0
M  V30 2104 H 187.922 -4.44293 -1.64015 0
M  V30 2105 H 188.346 -6.75756 -0.410292 0
M  V30 2106 H 192.988 -4.0085 -1.34459 0
M  V30 2107 H 190.706 -8.06628 0.48746 0
M  V30 2108 H 194.292 -5.81194 -0.265451 0
M  V30 2109 H 193.172 -7.81606 0.637309 0
M  V30 2110 N 190.675 0.682077 -1.42076 0
M  V30 2111 C 191.903 1.47057 -1.4554 0
M  V30 2112 C 192.318 1.8869 -0.0645779 0
M  V30 2113 O 191.675 1.57666 0.919115 0
M  V30 2114 C 191.726 2.72442 -2.37609 0
M  V30 2115 O 191.447 2.32559 -3.71279 0
M  V30 2116 C 192.948 3.66069 -2.50017 0
M  V30 2117 H 190.168 0.452737 -0.495248 0
M  V30 2118 H 192.712 0.838695 -1.8651 0
M  V30 2119 H 190.867 3.31835 -1.9991 0
M  V30 2120 H 191.281 3.13475 -4.20516 0
M  V30 2121 H 192.755 4.50792 -3.18576 0
M  V30 2122 H 193.232 4.11476 -1.53572 0
M  V30 2123 H 193.838 3.12572 -2.88407 0
M  V30 2124 N 192.153 1.28127 0.917671 0
M  V30 2125 C 193.063 1.13556 2.05286 0
M  V30 2126 C 194.079 0.0630914 1.73886 0
M  V30 2127 O 195.255 0.271598 1.9956 0
M  V30 2128 C 192.32 0.794676 3.3747 0
M  V30 2129 C 191.381 1.94909 3.82504 0
M  V30 2130 C 190.614 1.62437 5.0838 0
M  V30 2131 O 190.837 0.536905 5.67867 0
M  V30 2132 O 189.771 2.46677 5.4903 0
M  V30 2133 H 193.597 2.08844 2.20495 0
M  V30 2134 H 191.182 1.07409 1.03845 0
M  V30 2135 H 193.064 0.618344 4.16839 0
M  V30 2136 H 191.739 -0.128581 3.23445 0
M  V30 2137 H 190.646 2.18055 3.03978 0
M  V30 2138 H 191.979 2.85291 4.01086 0
M  V30 2139 N 193.631 -1.12557 1.10312 0
M  V30 2140 C 194.859 -1.87864 0.866873 0
M  V30 2141 C 195.274 -1.79588 -0.582557 0
M  V30 2142 O 194.631 -1.16887 -1.40156 0
M  V30 2143 C 194.682 -3.37125 1.30496 0
M  V30 2144 O 194.403 -3.45201 2.69755 0
M  V30 2145 C 195.904 -4.29373 1.10243 0
M  V30 2146 H 193.124 -0.594452 0.311236 0
M  V30 2147 H 195.668 -1.42429 1.46745 0
M  V30 2148 H 193.823 -3.80109 0.748081 0
M  V30 2149 H 194.237 -4.38056 2.88457 0
M  V30 2150 H 195.711 -5.32394 1.45811 0
M  V30 2151 H 196.188 -4.39181 0.0409492 0
M  V30 2152 H 196.794 -3.92169 1.64571 0
M  V30 2153 N 195.109 -0.891671 -1.2995 0
M  V30 2154 C 196.041 -0.320695 -2.26945 0
M  V30 2155 C 197.054 0.528497 -1.53983 0
M  V30 2156 O 198.243 0.346959 -1.75096 0
M  V30 2157 C 195.343 0.562066 -3.34207 0
M  V30 2158 C 194.516 -0.259576 -4.36629 0
M  V30 2159 C 193.575 0.554739 -5.23268 0
M  V30 2160 O 192.601 -0.0249311 -5.69195 0
M  V30 2161 N 193.803 1.8625 -5.4981 0
M  V30 2162 H 196.568 -1.15432 -2.76578 0
M  V30 2163 H 194.129 -0.755336 -1.432 0
M  V30 2164 H 196.121 1.11304 -3.89093 0
M  V30 2165 H 194.691 1.29637 -2.84452 0
M  V30 2166 H 193.911 -0.991986 -3.81514 0
M  V30 2167 H 195.199 -0.822564 -5.02107 0
M  V30 2168 H 194.597 2.35628 -5.14292 0
M  V30 2169 H 193.154 2.36078 -6.07545 0
M  V30 2170 N 196.587 1.43421 -0.653314 0
M  V30 2171 C 197.864 1.95361 -0.0966581 0
M  V30 2172 C 198.244 1.59461 1.38331 0
M  V30 2173 O 197.592 0.879777 2.10884 0
M  V30 2174 C 197.802 3.47311 -0.342988 0
M  V30 2175 C 199.15 4.23875 -0.24798 0
M  V30 2176 O 200.174 3.55133 -0.275553 0
M  V30 2177 O 199.033 5.4623 -0.171771 0
M  V30 2178 H 196.127 0.826945 0.00956291 0
M  V30 2179 H 198.673 1.5336 -0.726558 0
M  V30 2180 H 197.445 3.66569 -1.36906 0
M  V30 2181 H 197.068 3.9631 0.319975 0
M  V30 2182 N 198.065 0.39524 1.52563 0
M  V30 2183 C 199.29 -0.187456 2.06551 0
M  V30 2184 C 199.715 -1.39249 1.26457 0
M  V30 2185 O 199.073 -1.78947 0.291151 0
M  V30 2186 C 199.121 -0.529985 3.56684 0
M  V30 2187 O 198.225 -1.62307 3.79118 0
M  V30 2188 H 197.566 -0.0202537 0.663691 0
M  V30 2189 H 200.096 0.564426 1.96661 0
M  V30 2190 H 200.106 -0.792598 4.00227 0
M  V30 2191 H 198.781 0.350987 4.14416 0
M  V30 2192 H 197.358 -1.3537 3.47461 0
M  V30 2193 N 199.544 -1.57102 0.125237 0
M  V30 2194 C 200.769 -2.0019 -0.542101 0
M  V30 2195 C 201.194 -1.00449 -1.59034 0
M  V30 2196 O 200.552 0.0229423 -1.81285 0
M  V30 2197 C 200.6 -3.42129 -1.13929 0
M  V30 2198 O 199.704 -3.45307 -2.2547 0
M  V30 2199 H 199.045 -0.650171 -0.134812 0
M  V30 2200 H 201.575 -2.03461 0.215553 0
M  V30 2201 H 201.585 -3.80471 -1.4733 0
M  V30 2202 H 200.26 -4.14237 -0.371531 0
M  V30 2203 H 198.837 -3.1879 -1.93462 0
M  V30 2204 N 201.022 0.148545 -1.56898 0
M  V30 2205 C 201.954 1.20852 -1.9475 0
M  V30 2206 C 202.967 1.39265 -0.843152 0
M  V30 2207 O 204.156 1.38864 -1.12156 0
M  V30 2208 C 201.256 2.57362 -2.20495 0
M  V30 2209 C 200.429 2.59947 -3.51776 0
M  V30 2210 C 199.488 3.77984 -3.6608 0
M  V30 2211 O 198.514 3.62929 -4.38487 0
M  V30 2212 N 199.716 4.95375 -3.02629 0
M  V30 2213 H 202.481 0.886804 -2.86279 0
M  V30 2214 H 200.042 0.338121 -1.5833 0
M  V30 2215 H 202.034 3.34833 -2.27307 0
M  V30 2216 H 200.604 2.81832 -1.35238 0
M  V30 2217 H 199.824 1.68403 -3.56419 0
M  V30 2218 H 201.112 2.58704 -4.38121 0
M  V30 2219 H 200.51 5.10509 -2.43715 0
M  V30 2220 H 199.067 5.70627 -3.15004 0
M  V30 2221 N 202.5 1.5196 0.417844 0
M  V30 2222 C 203.447 1.74678 1.50852 0
M  V30 2223 C 204.417 0.588947 1.55308 0
M  V30 2224 O 205.602 0.825544 1.72016 0
M  V30 2225 C 202.742 1.89544 2.88387 0
M  V30 2226 C 201.855 3.17166 2.93309 0
M  V30 2227 C 200.99 3.22513 4.22088 0
M  V30 2228 C 200.029 4.44372 4.20951 0
M  V30 2229 N 199.166 4.47161 5.41287 0
M  V30 2230 H 204.006 2.67768 1.30783 0
M  V30 2231 H 201.543 1.32689 0.63498 0
M  V30 2232 H 203.501 1.96146 3.68216 0
M  V30 2233 H 202.131 0.998424 3.06971 0
M  V30 2234 H 201.183 3.19778 2.06024 0
M  V30 2235 H 202.495 4.07021 2.88332 0
M  V30 2236 H 201.649 3.28139 5.10303 0
M  V30 2237 H 200.388 2.30581 4.29748 0
M  V30 2238 H 199.393 4.38902 3.31127 0
M  V30 2239 H 200.618 5.3759 4.14938 0
M  V30 2240 H 198.564 3.58108 5.49632 0
M  V30 2241 H 198.481 5.3085 5.3827 0
M  V30 2242 H 199.749 4.57005 6.3148 0
M  V30 2243 N 203.978 -0.674533 1.42435 0
M  V30 2244 C 204.925 -1.78807 1.45934 0
M  V30 2245 C 205.895 -1.63157 0.311271 0
M  V30 2246 O 207.08 -1.83707 0.515383 0
M  V30 2247 C 204.22 -3.16839 1.36773 0
M  V30 2248 C 203.333 -3.43774 2.61617 0
M  V30 2249 C 202.468 -4.71536 2.44597 0
M  V30 2250 C 201.507 -4.91505 3.64814 0
M  V30 2251 N 200.644 -6.10508 3.46734 0
M  V30 2252 H 205.484 -1.75151 2.41093 0
M  V30 2253 H 203.021 -0.85504 1.19697 0
M  V30 2254 H 204.979 -3.96606 1.29459 0
M  V30 2255 H 203.609 -3.19619 0.452089 0
M  V30 2256 H 202.661 -2.58259 2.79297 0
M  V30 2257 H 203.973 -3.54423 3.50978 0
M  V30 2258 H 203.127 -5.59393 2.3487 0
M  V30 2259 H 201.866 -4.6317 1.52726 0
M  V30 2260 H 200.871 -4.0209 3.74972 0
M  V30 2261 H 202.096 -5.01716 4.57665 0
M  V30 2262 H 200.042 -6.03315 2.5758 0
M  V30 2263 H 199.959 -6.2202 4.29682 0
M  V30 2264 H 201.227 -7.01044 3.40819 0
M  V30 2265 N 205.456 -1.28612 -0.910864 0
M  V30 2266 C 206.681 -1.1891 -1.69927 0
M  V30 2267 C 207.106 0.248372 -1.86453 0
M  V30 2268 O 206.464 1.17961 -1.37676 0
M  V30 2269 C 206.512 -1.89578 -3.06745 0
M  V30 2270 O 205.616 -1.20521 -3.94396 0
M  V30 2271 H 204.957 -0.412632 -0.520222 0
M  V30 2272 H 207.487 -1.69985 -1.1387 0
M  V30 2273 H 207.497 -1.97597 -3.56958 0
M  V30 2274 H 206.172 -2.94136 -2.94035 0
M  V30 2275 H 204.749 -1.20684 -3.52831 0
M  V30 2276 N 206.934 1.1197 -1.10907 0
M  V30 2277 C 207.864 2.19928 -0.784473 0
M  V30 2278 C 208.845 1.6833 0.244726 0
M  V30 2279 O 210.03 1.93892 0.109418 0
M  V30 2280 C 207.16 3.46597 -0.220827 0
M  V30 2281 C 206.114 4.11376 -1.18127 0
M  V30 2282 C 205.44 5.32554 -0.478594 0
M  V30 2283 C 206.74 4.56945 -2.52979 0
M  V30 2284 H 208.434 2.47337 -1.68715 0
M  V30 2285 H 205.98 1.18879 -0.812642 0
M  V30 2286 H 207.933 4.21396 0.0184278 0
M  V30 2287 H 206.657 3.1863 0.717113 0
M  V30 2288 H 205.316 3.38564 -1.40606 0
M  V30 2289 H 204.964 5.00856 0.463976 0
M  V30 2290 H 204.664 5.76844 -1.11912 0
M  V30 2291 H 206.188 6.10096 -0.248 0
M  V30 2292 H 207.602 5.23093 -2.3462 0
M  V30 2293 H 205.999 5.1203 -3.12962 0
M  V30 2294 H 207.069 3.70676 -3.12614 0
M  V30 2295 N 208.412 0.89855 1.29475 0
M  V30 2296 C 209.322 0.379974 2.31502 0
M  V30 2297 C 210.338 -0.524695 1.659 0
M  V30 2298 O 211.514 -0.414551 1.97087 0
M  V30 2299 C 208.579 -0.385138 3.44554 0
M  V30 2300 C 207.64 0.550914 4.2575 0
M  V30 2301 C 206.873 -0.177778 5.33404 0
M  V30 2302 O 207.096 -1.40189 5.52904 0
M  V30 2303 O 206.03 0.479106 5.9999 0
M  V30 2304 H 209.856 1.22639 2.77837 0
M  V30 2305 H 207.441 0.662834 1.33891 0
M  V30 2306 H 209.323 -0.817841 4.13388 0
M  V30 2307 H 207.998 -1.20763 3.0033 0
M  V30 2308 H 206.905 1.03271 3.59564 0
M  V30 2309 H 208.238 1.33979 4.73614 0
M  V30 2310 N 209.89 -1.43072 0.660911 0
M  V30 2311 C 211.301 -1.84932 0.256348 0
M  V30 2312 C 211.652 -1.55325 -1.19868 0
M  V30 2313 O 210.777 -1.00607 -1.91591 0
M  V30 2314 C 211.372 -3.35684 0.458475 0
M  V30 2315 C 209.931 -3.76245 0.108161 0
M  V30 2316 C 209.078 -2.66749 0.757641 0
M  V30 2317 H 212.029 -1.33116 0.864051 0
M  V30 2318 H 212.05 -3.79365 -0.293683 0
M  V30 2319 H 211.562 -3.572 1.51755 0
M  V30 2320 H 209.663 -3.60338 -0.948014 0
M  V30 2321 H 209.776 -4.76058 0.538992 0
M  V30 2322 H 208.14 -2.53989 0.190185 0
M  V30 2323 H 208.923 -2.91092 1.81989 0
M  V30 2324 N 211.368 -0.403325 -1.52352 0
M  V30 2325 C 212.315 0.425011 -2.26853 0
M  V30 2326 C 213.285 1.04598 -1.29029 0
M  V30 2327 O 214.47 1.07135 -1.57882 0
M  V30 2328 C 211.61 1.53888 -3.08889 0
M  V30 2329 C 210.723 0.939396 -4.21663 0
M  V30 2330 C 209.858 2.02547 -4.91068 0
M  V30 2331 C 208.897 1.40263 -5.95813 0
M  V30 2332 N 208.034 2.4286 -6.58759 0
M  V30 2333 H 212.874 -0.21674 -2.97211 0
M  V30 2334 H 210.411 -0.118722 -1.4662 0
M  V30 2335 H 212.369 2.19558 -3.54753 0
M  V30 2336 H 210.999 2.15074 -2.40714 0
M  V30 2337 H 210.051 0.171898 -3.80011 0
M  V30 2338 H 211.363 0.44436 -4.96817 0
M  V30 2339 H 210.517 2.75958 -5.40308 0
M  V30 2340 H 209.256 2.55415 -4.15469 0
M  V30 2341 H 208.261 0.653833 -5.45898 0
M  V30 2342 H 209.486 0.881719 -6.73352 0
M  V30 2343 H 207.432 2.94871 -5.85992 0
M  V30 2344 H 207.349 1.98152 -7.2957 0
M  V30 2345 H 208.617 3.15858 -7.12639 0
M  V30 2346 N 212.846 1.57033 -0.133567 0
M  V30 2347 C 214.074 2.00044 0.528195 0
M  V30 2348 C 214.489 1.01349 1.59291 0
M  V30 2349 O 213.846 0.00848369 1.82498 0
M  V30 2350 C 213.897 3.43018 1.1411 0
M  V30 2351 O 213.618 4.37939 0.11892 0
M  V30 2352 C 215.119 4.01237 1.88477 0
M  V30 2353 H 212.339 0.656517 0.138661 0
M  V30 2354 H 214.883 2.03267 -0.224196 0
M  V30 2355 H 213.038 3.40688 1.84418 0
M  V30 2356 H 213.452 5.21436 0.56613 0
M  V30 2357 H 214.926 5.03314 2.26669 0
M  V30 2358 H 215.403 3.41193 2.76558 0
M  V30 2359 H 216.009 4.07156 1.22898 0
M  V30 2360 N 214.325 -0.140222 1.56975 0
M  V30 2361 C 215.272 -1.17292 1.98774 0
M  V30 2362 C 216.242 -1.4232 0.856408 0
M  V30 2363 O 217.427 -1.54541 1.119 0
M  V30 2364 C 214.567 -2.49973 2.37923 0
M  V30 2365 C 213.68 -2.32062 3.64378 0
M  V30 2366 C 212.815 -3.57825 3.926 0
M  V30 2367 C 211.854 -3.3498 5.12303 0
M  V30 2368 N 210.991 -4.52891 5.36502 0
M  V30 2369 H 215.831 -0.809472 2.86795 0
M  V30 2370 H 213.368 -0.388237 1.41884 0
M  V30 2371 H 215.326 -3.27346 2.58652 0
M  V30 2372 H 213.956 -2.84252 1.52972 0
M  V30 2373 H 213.008 -1.45711 3.51387 0
M  V30 2374 H 214.32 -2.11145 4.51906 0
M  V30 2375 H 213.474 -4.43624 4.13863 0
M  V30 2376 H 212.213 -3.81753 3.03506 0
M  V30 2377 H 211.218 -2.4757 4.90906 0
M  V30 2378 H 212.443 -3.12444 6.02956 0
M  V30 2379 H 210.389 -4.76979 4.50363 0
M  V30 2380 H 210.306 -4.35001 6.18312 0
M  V30 2381 H 211.574 -5.39884 5.62268 0
M  V30 2382 N 215.803 -1.52179 -0.40978 0
M  V30 2383 C 216.766 -1.74853 -1.48186 0
M  V30 2384 C 217.766 -0.618417 -1.48433 0
M  V30 2385 O 218.956 -0.886286 -1.49969 0
M  V30 2386 C 216.088 -1.8303 -2.87598 0
M  V30 2387 H 217.281 -2.70559 -1.29374 0
M  V30 2388 H 214.834 -1.42586 -0.640233 0
M  V30 2389 H 215.569 -0.89236 -3.11781 0
M  V30 2390 H 215.354 -2.65187 -2.88822 0
M  V30 2391 H 216.844 -2.02316 -3.65319 0
M  V30 2392 N 217.281 0.66697 -1.42791 0
M  V30 2393 C 218.527 1.4291 -1.43891 0
M  V30 2394 C 218.86 1.94114 -0.0578972 0
M  V30 2395 O 218.135 1.71414 0.91911 0
M  V30 2396 C 218.418 2.62049 -2.46987 0
M  V30 2397 C 218.271 2.16426 -3.94309 0
M  V30 2398 C 219.59 3.64266 -2.46978 0
M  V30 2399 H 216.709 0.518306 -0.523954 0
M  V30 2400 H 219.351 0.757321 -1.74255 0
M  V30 2401 H 217.501 3.19361 -2.21225 0
M  V30 2402 H 219.173 1.64221 -4.31079 0
M  V30 2403 H 217.416 1.47925 -4.078 0
M  V30 2404 H 218.087 3.02038 -4.62036 0
M  V30 2405 H 220.563 3.16686 -2.69906 0
M  V30 2406 H 219.439 4.45196 -3.21079 0
M  V30 2407 H 219.7 4.15927 -1.49857 0
M  V30 2408 N 218.759 1.29093 0.90403 0
M  V30 2409 C 220.17 1.15186 1.46932 0
M  V30 2410 C 220.521 -0.254587 1.94541 0
M  V30 2411 O 219.646 -1.14972 1.83332 0
M  V30 2412 C 220.241 2.08492 2.67051 0
M  V30 2413 C 218.8 1.98621 3.19729 0
M  V30 2414 C 217.947 1.9967 1.92425 0
M  V30 2415 H 220.898 1.41641 0.715789 0
M  V30 2416 H 220.919 1.65461 3.42641 0
M  V30 2417 H 220.431 3.10847 2.3237 0
M  V30 2418 H 218.532 0.993389 3.59114 0
M  V30 2419 H 218.645 2.86068 3.8432 0
M  V30 2420 H 217.009 1.44208 2.09943 0
M  V30 2421 H 217.792 3.03721 1.60026 0
M  V30 2422 N 220.237 -1.11381 1.11499 0
M  V30 2423 C 221.184 -2.17439 0.773887 0
M  V30 2424 C 222.154 -1.64132 -0.254899 0
M  V30 2425 O 223.339 -1.90345 -0.13168 0
M  V30 2426 C 220.479 -3.44373 0.223917 0
M  V30 2427 C 219.592 -4.1168 1.30934 0
M  V30 2428 C 218.727 -5.263 0.71984 0
M  V30 2429 C 217.766 -5.85493 1.78507 0
M  V30 2430 N 216.903 -6.91507 1.21502 0
M  V30 2431 H 221.743 -2.45962 1.68246 0
M  V30 2432 H 219.28 -1.20744 0.840191 0
M  V30 2433 H 221.238 -4.17047 -0.112921 0
M  V30 2434 H 219.868 -3.16232 -0.647851 0
M  V30 2435 H 218.92 -3.37073 1.76312 0
M  V30 2436 H 220.232 -4.51729 2.11524 0
M  V30 2437 H 219.386 -6.05785 0.333094 0
M  V30 2438 H 218.125 -4.87559 -0.117377 0
M  V30 2439 H 217.13 -5.04686 2.18111 0
M  V30 2440 H 218.355 -6.26301 2.62533 0
M  V30 2441 H 216.301 -6.54783 0.399455 0
M  V30 2442 H 216.218 -7.30214 1.95763 0
M  V30 2443 H 217.486 -7.74795 0.855181 0
M  V30 2444 N 221.715 -0.905404 -1.28997 0
M  V30 2445 C 222.961 -0.535039 -1.95615 0
M  V30 2446 C 223.294 0.917404 -1.71165 0
M  V30 2447 O 222.569 1.65123 -1.02785 0
M  V30 2448 C 222.852 -0.834918 -3.50287 0
M  V30 2449 C 222.705 -2.33948 -3.84172 0
M  V30 2450 C 224.024 -0.325318 -4.38896 0
M  V30 2451 H 221.143 -0.195861 -0.710498 0
M  V30 2452 H 223.785 -1.13313 -1.52513 0
M  V30 2453 H 221.935 -0.325904 -3.87131 0
M  V30 2454 H 223.607 -2.91847 -3.57243 0
M  V30 2455 H 221.85 -2.79789 -3.31513 0
M  V30 2456 H 222.521 -2.49987 -4.92149 0
M  V30 2457 H 224.997 -0.761256 -4.09077 0
M  V30 2458 H 223.873 -0.564295 -5.45992 0
M  V30 2459 H 224.134 0.774144 -4.35269 0
M  V30 2460 N 223.193 1.4272 -0.668489 0
M  V30 2461 C 224.14 2.30796 0.0137489 0
M  V30 2462 C 225.11 1.4561 0.799177 0
M  V30 2463 O 226.295 1.74453 0.772702 0
M  V30 2464 C 223.435 3.31377 0.963507 0
M  V30 2465 C 222.548 4.31655 0.172569 0
M  V30 2466 C 221.683 5.19312 1.1175 0
M  V30 2467 C 220.722 6.11274 0.317886 0
M  V30 2468 N 219.859 6.91504 1.2152 0
M  V30 2469 H 224.699 2.88585 -0.743161 0
M  V30 2470 H 222.236 1.42154 -0.378226 0
M  V30 2471 H 224.194 3.88214 1.52792 0
M  V30 2472 H 222.824 2.75202 1.68712 0
M  V30 2473 H 221.876 3.76988 -0.508374 0
M  V30 2474 H 223.188 4.96779 -0.448527 0
M  V30 2475 H 222.342 5.80851 1.75206 0
M  V30 2476 H 221.081 4.5435 1.77249 0
M  V30 2477 H 220.086 5.48809 -0.329918 0
M  V30 2478 H 221.311 6.78283 -0.332917 0
M  V30 2479 H 219.257 6.29176 1.85671 0
M  V30 2480 H 219.174 7.53209 0.649036 0
M  V30 2481 H 220.442 7.57535 1.83742 0
M  V30 2482 N 224.671 0.411399 1.52136 0
M  V30 2483 C 225.601 -0.404015 2.29978 0
M  V30 2484 C 226.582 -1.04412 1.34284 0
M  V30 2485 O 227.767 -1.0527 1.63192 0
M  V30 2486 C 224.897 -1.5197 3.12286 0
M  V30 2487 C 223.851 -1.00448 4.16046 0
M  V30 2488 C 223.177 -2.21393 4.86712 0
M  V30 2489 C 224.477 -0.0569336 5.22269 0
M  V30 2490 H 226.171 0.245529 2.98392 0
M  V30 2491 H 223.717 0.119525 1.43503 0
M  V30 2492 H 225.67 -2.09715 3.6551 0
M  V30 2493 H 224.394 -2.19716 2.41646 0
M  V30 2494 H 223.053 -0.449421 3.63835 0
M  V30 2495 H 222.701 -2.87699 4.12599 0
M  V30 2496 H 222.401 -1.87571 5.56858 0
M  V30 2497 H 223.925 -2.7974 5.4275 0
M  V30 2498 H 225.339 -0.54325 5.7072 0
M  V30 2499 H 223.736 0.192594 5.99791 0
M  V30 2500 H 224.806 0.887663 4.76706 0
M  V30 2501 N 226.149 -1.5696 0.141893 0
M  V30 2502 C 227.079 -2.19516 -0.795936 0
M  V30 2503 C 228.06 -1.14187 -1.26077 0
M  V30 2504 O 229.245 -1.42511 -1.31925 0
M  V30 2505 C 226.375 -2.81272 -2.03723 0
M  V30 2506 C 225.329 -3.92384 -1.70936 0
M  V30 2507 C 224.655 -4.41052 -3.02287 0
M  V30 2508 C 225.955 -5.13403 -0.959954 0
M  V30 2509 H 227.649 -2.98138 -0.274596 0
M  V30 2510 H 225.195 -1.43406 -0.130636 0
M  V30 2511 H 227.148 -3.237 -2.69808 0
M  V30 2512 H 225.872 -1.99973 -2.58221 0
M  V30 2513 H 224.531 -3.50566 -1.07232 0
M  V30 2514 H 224.179 -3.56582 -3.54765 0
M  V30 2515 H 223.879 -5.15993 -2.81114 0
M  V30 2516 H 225.403 -4.86146 -3.69451 0
M  V30 2517 H 226.817 -5.52706 -1.52279 0
M  V30 2518 H 225.214 -5.94073 -0.848357 0
M  V30 2519 H 226.284 -4.84875 0.0492434 0
M  V30 2520 N 227.627 0.131896 -1.57047 0
M  V30 2521 C 228.867 0.847972 -1.85981 0
M  V30 2522 C 229.231 1.77655 -0.7282 0
M  V30 2523 O 230.432 2.53322 -0.898968 0
M  V30 2524 C 228.703 1.58919 -3.20124 0
M  V30 2525 S 230.262 2.34862 -3.70655 0
M  V30 2526 H 227.08 0.283273 -0.652133 0
M  V30 2527 H 229.682 0.107057 -1.95207 0
M  V30 2528 H 228.386 0.898771 -4.00438 0
M  V30 2529 H 227.917 2.37073 -3.13942 0
M  V30 2530 H 229.932 3.60344 -3.41126 0
M  V30 2531 N 229.106 1.52395 0.401703 0
M  V30 2532 C 230.354 1.66488 1.14569 0
M  V30 2533 C 230.675 0.400897 1.90835 0
M  V30 2534 O 229.945 -0.584415 1.8698 0
M  V30 2535 H 228.525 0.613672 0.425929 0
M  V30 2536 H 231.187 1.89464 0.457093 0
M  V30 2537 H 230.283 2.50942 1.85566 0
M  V30 2538 N 230.584 -0.659388 1.43143 0
M  V30 2539 C 231.547 -1.75432 1.47501 0
M  V30 2540 C 232.547 -1.56707 0.360512 0
M  V30 2541 O 233.737 -1.62717 0.622002 0
M  V30 2542 C 230.869 -3.14239 1.32162 0
M  V30 2543 H 232.062 -1.7295 2.45006 0
M  V30 2544 H 229.615 -0.870469 1.29817 0
M  V30 2545 H 230.35 -3.22336 0.356401 0
M  V30 2546 H 230.135 -3.29235 2.12948 0
M  V30 2547 H 231.625 -3.94094 1.3813 0
M  V30 2548 N 232.062 -1.29571 -0.897171 0
M  V30 2549 C 233.339 -1.08365 -1.62839 0
M  V30 2550 C 233.719 0.371331 -2.07808 0
M  V30 2551 O 233.067 1.3606 -1.83576 0
M  V30 2552 C 233.277 -2.0735 -2.80726 0
M  V30 2553 C 234.625 -2.38406 -3.51351 0
M  V30 2554 O 235.649 -2.05564 -2.90898 0
M  V30 2555 O 234.508 -2.9453 -4.60341 0
M  V30 2556 H 231.602 -0.415345 -0.715134 0
M  V30 2557 H 234.148 -1.40952 -0.945018 0
M  V30 2558 H 232.92 -3.05339 -2.44711 0
M  V30 2559 H 232.543 -1.75507 -3.56767 0
M  V30 2560 N 233.54 1.10788 -1.12088 0
M  V30 2561 C 234.47 2.19083 -0.807755 0
M  V30 2562 C 235.451 1.6858 0.226859 0
M  V30 2563 O 236.636 1.93997 0.0888475 0
M  V30 2564 C 233.766 3.46344 -0.257576 0
M  V30 2565 C 232.72 4.101 -1.22483 0
M  V30 2566 C 232.046 5.32016 -0.535052 0
M  V30 2567 C 233.346 4.54236 -2.57811 0
M  V30 2568 H 235.04 2.45534 -1.71328 0
M  V30 2569 H 232.586 1.1801 -0.825205 0
M  V30 2570 H 234.539 4.21392 -0.0262679 0
M  V30 2571 H 233.263 3.19373 0.683278 0
M  V30 2572 H 231.922 3.37054 -1.44189 0
M  V30 2573 H 231.57 5.01319 0.410827 0
M  V30 2574 H 231.27 5.75625 -1.18024 0
M  V30 2575 H 232.794 6.09799 -0.312695 0
M  V30 2576 H 234.208 5.20575 -2.40155 0
M  V30 2577 H 232.605 5.08682 -3.18375 0
M  V30 2578 H 233.675 3.6734 -3.16528 0
M  V30 2579 N 235.018 0.912232 1.28515 0
M  V30 2580 C 235.948 0.416403 2.29757 0
M  V30 2581 C 236.929 -0.515194 1.6211 0
M  V30 2582 O 238.114 -0.423253 1.89532 0
M  V30 2583 C 235.244 -0.34572 3.45575 0
M  V30 2584 C 234.198 0.496599 4.25109 0
M  V30 2585 C 233.524 -0.393771 5.33248 0
M  V30 2586 C 234.824 1.75307 4.92001 0
M  V30 2587 H 236.518 1.26249 2.7148 0
M  V30 2588 H 234.064 0.608515 1.30511 0
M  V30 2589 H 236.017 -0.703422 4.15488 0
M  V30 2590 H 234.741 -1.2257 3.02728 0
M  V30 2591 H 233.4 0.8368 3.56922 0
M  V30 2592 H 233.048 -1.27225 4.86644 0
M  V30 2593 H 232.748 0.166209 5.87365 0
M  V30 2594 H 234.272 -0.747389 6.06009 0
M  V30 2595 H 235.686 1.46437 5.54283 0
M  V30 2596 H 234.083 2.25534 5.56106 0
M  V30 2597 H 235.153 2.48176 4.16577 0
M  V30 2598 N 236.496 -1.42363 0.676048 0
M  V30 2599 C 237.406 -2.346 -0.00153389 0
M  V30 2600 C 238.422 -1.5516 -0.787485 0
M  V30 2601 O 239.598 -1.87723 -0.729521 0
M  V30 2602 C 236.663 -3.33705 -0.940298 0
M  V30 2603 C 235.724 -4.29042 -0.148739 0
M  V30 2604 C 234.957 -5.23413 -1.04279 0
M  V30 2605 O 235.18 -5.22749 -2.28232 0
M  V30 2606 O 234.114 -5.99795 -0.502925 0
M  V30 2607 H 237.94 -2.94082 0.758268 0
M  V30 2608 H 235.525 -1.42888 0.436289 0
M  V30 2609 H 237.407 -3.94586 -1.47917 0
M  V30 2610 H 236.082 -2.76695 -1.67993 0
M  V30 2611 H 234.989 -3.71571 0.43427 0
M  V30 2612 H 236.322 -4.89097 0.551805 0
M  V30 2613 N 237.974 -0.419461 -1.51915 0
M  V30 2614 C 239.199 0.154572 -2.06823 0
M  V30 2615 C 239.624 1.3722 -1.28656 0
M  V30 2616 O 238.982 1.78461 -0.319583 0
M  V30 2617 C 239.03 0.473172 -3.57482 0
M  V30 2618 O 238.134 1.56255 -3.81652 0
M  V30 2619 H 237.475 0.0096924 -0.663929 0
M  V30 2620 H 240.005 -0.595642 -1.95738 0
M  V30 2621 H 240.015 0.728825 -4.01438 0
M  V30 2622 H 238.69 -0.416873 -4.13805 0
M  V30 2623 H 237.267 1.29825 -3.49571 0
M  V30 2624 N 239.452 1.56882 -0.150215 0
M  V30 2625 C 240.699 1.96228 0.500093 0
M  V30 2626 C 241.027 1.03522 1.64661 0
M  V30 2627 O 240.282 0.0650683 1.95592 0
M  V30 2628 C 240.581 3.41801 1.04437 0
M  V30 2629 C 240.247 4.50897 0.0159671 0
M  V30 2630 C 238.909 4.8046 -0.266731 0
M  V30 2631 C 241.261 5.16703 -0.683192 0
M  V30 2632 C 238.589 5.73135 -1.25434 0
M  V30 2633 C 240.941 6.10441 -1.65964 0
M  V30 2634 C 239.605 6.38382 -1.95 0
M  V30 2635 H 238.875 0.718048 0.182997 0
M  V30 2636 H 241.522 1.90019 -0.237724 0
M  V30 2637 H 239.827 3.44857 1.85959 0
M  V30 2638 H 241.524 3.69573 1.55618 0
M  V30 2639 H 238.114 4.27891 0.246485 0
M  V30 2640 H 242.298 4.93993 -0.477983 0
M  V30 2641 H 237.554 5.93074 -1.48571 0
M  V30 2642 H 241.728 6.60507 -2.20689 0
M  V30 2643 H 239.355 7.09996 -2.71679 0
M  V30 2644 N 240.93 -0.123565 1.57115 0
M  V30 2645 C 241.893 -1.13583 1.99076 0
M  V30 2646 C 242.893 -1.34564 0.880296 0
M  V30 2647 O 244.083 -1.31158 1.14644 0
M  V30 2648 C 241.215 -2.49128 2.32698 0
M  V30 2649 H 242.408 -0.775287 2.89706 0
M  V30 2650 H 239.961 -0.36771 1.51913 0
M  V30 2651 H 240.696 -2.90111 1.44934 0
M  V30 2652 H 240.481 -2.35255 3.13684 0
M  V30 2653 H 241.971 -3.2199 2.65918 0
M  V30 2654 N 242.408 -1.52605 -0.393616 0
M  V30 2655 C 243.654 -1.67672 -1.14079 0
M  V30 2656 C 243.987 -0.413121 -1.89755 0
M  V30 2657 O 243.262 0.588952 -1.85369 0
M  V30 2658 C 243.545 -2.9088 -2.12276 0
M  V30 2659 C 243.398 -4.27329 -1.40394 0
M  V30 2660 C 244.717 -3.09628 -3.12759 0
M  V30 2661 H 241.836 -0.610168 -0.413356 0
M  V30 2662 H 244.478 -1.85193 -0.424696 0
M  V30 2663 H 242.628 -2.76073 -2.73342 0
M  V30 2664 H 244.3 -4.53894 -0.82327 0
M  V30 2665 H 242.543 -4.2802 -0.705801 0
M  V30 2666 H 243.214 -5.09615 -2.12123 0
M  V30 2667 H 245.69 -3.23436 -2.61779 0
M  V30 2668 H 244.566 -3.97322 -3.78717 0
M  V30 2669 H 244.827 -2.23637 -3.81365 0
M  V30 2670 N 243.887 0.651787 -1.4349 0
M  V30 2671 C 245.298 1.233 -1.40193 0
M  V30 2672 C 245.649 1.9591 -0.106727 0
M  V30 2673 O 244.774 2.01316 0.793773 0
M  V30 2674 C 245.369 2.24257 -2.53957 0
M  V30 2675 C 243.928 2.77852 -2.5392 0
M  V30 2676 C 243.075 1.52517 -2.3159 0
M  V30 2677 H 246.026 0.443717 -1.52371 0
M  V30 2678 H 246.047 3.0646 -2.25528 0
M  V30 2679 H 245.559 1.71382 -3.4821 0
M  V30 2680 H 243.66 3.34786 -1.63551 0
M  V30 2681 H 243.773 3.25299 -3.51735 0
M  V30 2682 H 242.137 1.79915 -1.80285 0
M  V30 2683 H 242.92 1.01574 -3.27929 0
M  V30 2684 N 245.365 1.30045 0.890287 0
M  V30 2685 C 246.313 1.15873 2.01683 0
M  V30 2686 C 247.307 0.0719403 1.69247 0
M  V30 2687 O 248.513 0.232414 1.78493 0
M  V30 2688 H 244.888 0.358203 0.661207 0
M  V30 2689 H 246.859 2.11229 2.10772 0
M  V30 2690 C 245.608 0.861842 3.36849 0
M  V30 2691 H 244.931 1.69016 3.62317 0
M  V30 2692 H 246.371 0.802762 4.16331 0
M  V30 2693 C 244.83 -0.435132 3.34078 0
M  V30 2694 O 245.36 -1.4583 3.74295 0
M  V30 2695 N 243.566 -0.444377 2.87182 0
M  V30 2696 H 243.113 0.388723 2.5465 0
M  V30 2697 H 243.071 -1.31213 2.85711 0
M  V30 2698 N 246.843 -1.10192 1.12674 0
M  V30 2699 C 247.773 -2.18652 0.819362 0
M  V30 2700 C 248.754 -1.68698 -0.217915 0
M  V30 2701 O 249.939 -1.94041 -0.0785581 0
M  V30 2702 C 247.069 -3.46202 0.27594 0
M  V30 2703 C 246.023 -4.09444 1.24656 0
M  V30 2704 C 245.349 -5.31725 0.563258 0
M  V30 2705 C 246.649 -4.52863 2.60217 0
M  V30 2706 H 248.343 -2.44622 1.72628 0
M  V30 2707 H 245.889 -1.17571 0.831451 0
M  V30 2708 H 247.842 -4.21372 0.0486149 0
M  V30 2709 H 246.566 -3.1973 -0.666331 0
M  V30 2710 H 245.225 -3.36284 1.45974 0
M  V30 2711 H 244.873 -5.0153 -0.384235 0
M  V30 2712 H 244.573 -5.74991 1.21075 0
M  V30 2713 H 246.097 -6.09624 0.34503 0
M  V30 2714 H 247.511 -5.19294 2.42913 0
M  V30 2715 H 245.908 -5.06986 3.21068 0
M  V30 2716 H 246.978 -3.65656 3.18471 0
M  V30 2717 N 248.321 -0.919034 -1.28029 0
M  V30 2718 C 249.567 -0.565221 -1.95389 0
M  V30 2719 C 249.922 0.882325 -1.70976 0
M  V30 2720 O 249.215 1.61988 -1.02325 0
M  V30 2721 C 249.409 -0.816855 -3.4794 0
M  V30 2722 C 249.238 -2.28731 -3.87185 0
M  V30 2723 C 248.008 -2.93841 -4.11079 0
M  V30 2724 C 250.206 -3.26415 -3.97439 0
M  V30 2725 N 248.188 -4.31129 -4.37037 0
M  V30 2726 C 249.559 -4.48884 -4.27672 0
M  V30 2727 C 251.614 -3.21742 -3.79982 0
M  V30 2728 C 250.317 -5.67268 -4.42266 0
M  V30 2729 C 252.343 -4.39431 -3.95796 0
M  V30 2730 C 251.705 -5.60675 -4.26407 0
M  V30 2731 H 247.804 -0.256797 -0.738633 0
M  V30 2732 H 250.388 -1.18386 -1.54573 0
M  V30 2733 H 248.559 -0.227445 -3.87733 0
M  V30 2734 H 250.291 -0.426542 -4.02446 0
M  V30 2735 H 247.046 -2.44547 -4.05578 0
M  V30 2736 H 247.47 -5.02127 -4.5409 0
M  V30 2737 H 252.112 -2.29079 -3.55363 0
M  V30 2738 H 249.83 -6.60406 -4.65714 0
M  V30 2739 H 253.416 -4.37323 -3.83719 0
M  V30 2740 H 252.296 -6.50223 -4.38383 0
M  V30 2741 N 249.799 1.42003 -0.683588 0
M  V30 2742 C 250.746 2.30798 -0.0107309 0
M  V30 2743 C 251.716 1.4645 0.783688 0
M  V30 2744 O 252.901 1.75263 0.754156 0
M  V30 2745 C 250.041 3.3238 0.928306 0
M  V30 2746 C 249.154 4.31814 0.126776 0
M  V30 2747 C 248.289 5.20468 1.06236 0
M  V30 2748 C 247.328 6.11577 0.253035 0
M  V30 2749 N 246.465 6.92754 1.14179 0
M  V30 2750 H 251.305 2.8778 -0.773727 0
M  V30 2751 H 248.842 1.41745 -0.393283 0
M  V30 2752 H 250.8 3.89813 1.48666 0
M  V30 2753 H 249.43 2.76976 1.65783 0
M  V30 2754 H 248.482 3.76427 -0.54833 0
M  V30 2755 H 249.794 4.96276 -0.501192 0
M  V30 2756 H 248.948 5.82677 1.69035 0
M  V30 2757 H 247.687 4.56204 1.7242 0
M  V30 2758 H 246.692 5.48428 -0.388108 0
M  V30 2759 H 247.917 6.77892 -0.404839 0
M  V30 2760 H 245.863 6.3111 1.78987 0
M  V30 2761 H 245.78 7.53855 0.569111 0
M  V30 2762 H 247.048 7.59441 1.75697 0
M  V30 2763 N 251.277 0.427512 1.51691 0
M  V30 2764 C 252.502 -0.143601 2.06902 0
M  V30 2765 C 252.927 -1.36536 1.29382 0
M  V30 2766 O 252.285 -1.78289 0.329043 0
M  V30 2767 C 252.333 -0.454207 3.57728 0
M  V30 2768 O 251.437 -1.54228 3.82475 0
M  V30 2769 H 250.778 -0.00617128 0.663971 0
M  V30 2770 H 253.308 0.606014 1.95419 0
M  V30 2771 H 253.318 -0.707525 4.01818 0
M  V30 2772 H 251.993 0.438812 4.13579 0
M  V30 2773 H 250.57 -1.2797 3.50254 0
M  V30 2774 N 252.755 -1.56801 0.158532 0
M  V30 2775 C 253.665 -2.20916 -0.789518 0
M  V30 2776 C 254.681 -1.1969 -1.26294 0
M  V30 2777 O 255.857 -1.52308 -1.31773 0
M  V30 2778 C 252.922 -2.82727 -2.00665 0
M  V30 2779 C 251.983 -3.99114 -1.58134 0
M  V30 2780 C 251.216 -4.57968 -2.74045 0
M  V30 2781 O 251.439 -4.15704 -3.90572 0
M  V30 2782 O 250.373 -5.48047 -2.48855 0
M  V30 2783 H 254.199 -3.02464 -0.273681 0
M  V30 2784 H 251.784 -1.4924 -0.0690548 0
M  V30 2785 H 253.666 -3.21968 -2.71872 0
M  V30 2786 H 252.341 -2.04184 -2.51179 0
M  V30 2787 H 251.248 -3.64567 -0.839155 0
M  V30 2788 H 252.581 -4.79212 -1.12325 0
M  V30 2789 N 254.233 0.115231 -1.57178 0
M  V30 2790 C 255.51 0.852873 -1.76027 0
M  V30 2791 C 255.89 1.97892 -0.73498 0
M  V30 2792 O 255.238 2.27232 0.24036 0
M  V30 2793 C 255.448 1.36608 -3.21153 0
M  V30 2794 C 256.796 1.81692 -3.83762 0
M  V30 2795 O 257.82 1.46278 -3.24779 0
M  V30 2796 O 256.679 2.47104 -4.87444 0
M  V30 2797 H 253.773 0.405296 -0.720877 0
M  V30 2798 H 256.319 0.0986785 -1.69413 0
M  V30 2799 H 255.091 0.558357 -3.87296 0
M  V30 2800 H 254.714 2.18287 -3.3232 0
M  V30 2801 N 255.711 1.52812 0.385517 0
M  V30 2802 C 256.96 1.67249 1.12741 0
M  V30 2803 C 257.273 0.4205 1.91027 0
M  V30 2804 O 258.479 0.445064 2.67827 0
M  V30 2805 C 256.935 2.95583 2.05326 0
M  V30 2806 C 256.543 4.27974 1.32447 0
M  V30 2807 C 258.287 3.19386 2.7963 0
M  V30 2808 C 256.194 5.47412 2.23818 0
M  V30 2809 H 255.124 0.6231 0.424573 0
M  V30 2810 H 257.775 1.79309 0.389924 0
M  V30 2811 H 256.157 2.77277 2.82725 0
M  V30 2812 H 257.331 4.56844 0.602495 0
M  V30 2813 H 255.646 4.10459 0.700885 0
M  V30 2814 H 258.243 4.05801 3.48181 0
M  V30 2815 H 258.586 2.34604 3.43899 0
M  V30 2816 H 259.119 3.38274 2.09322 0
M  V30 2817 H 255.858 6.34612 1.64157 0
M  V30 2818 H 255.378 5.22849 2.93921 0
M  V30 2819 H 257.057 5.81423 2.83824 0
M  V30 2820 N 257.189 -0.644168 1.43834 0
M  V30 2821 C 258.417 -1.43147 1.49387 0
M  V30 2822 C 258.832 -1.88452 0.114583 0
M  V30 2823 O 258.189 -1.60047 -0.876989 0
M  V30 2824 C 258.24 -2.66046 2.44748 0
M  V30 2825 O 257.961 -2.22633 3.77314 0
M  V30 2826 C 259.462 -3.59311 2.59635 0
M  V30 2827 H 256.682 -0.439447 0.507077 0
M  V30 2828 H 259.226 -0.78895 1.88669 0
M  V30 2829 H 257.381 -3.26418 2.08638 0
M  V30 2830 H 257.795 -3.02216 4.28679 0
M  V30 2831 H 259.269 -4.42187 3.30416 0
M  V30 2832 H 259.746 -4.07259 1.64427 0
M  V30 2833 H 260.352 -3.04816 2.96593 0
M  V30 2834 N 258.668 -1.30515 -0.883378 0
M  V30 2835 C 259.6 -1.12846 -1.99496 0
M  V30 2836 C 260.613 -0.0712571 -1.62644 0
M  V30 2837 O 261.802 -0.317432 -1.75655 0
M  V30 2838 C 258.902 -0.699123 -3.3161 0
M  V30 2839 C 258.075 -1.83842 -3.96889 0
M  V30 2840 C 257.134 -1.39737 -5.07307 0
M  V30 2841 O 256.16 -2.10485 -5.28852 0
M  V30 2842 N 257.362 -0.277279 -5.79837 0
M  V30 2843 H 260.127 -2.08585 -2.15203 0
M  V30 2844 H 257.688 -1.22672 -1.05656 0
M  V30 2845 H 259.68 -0.387044 -4.02845 0
M  V30 2846 H 258.25 0.166276 -3.12157 0
M  V30 2847 H 257.47 -2.31853 -3.18807 0
M  V30 2848 H 258.758 -2.60187 -4.37241 0
M  V30 2849 H 258.156 0.3122 -5.64838 0
M  V30 2850 H 256.713 -0.0246623 -6.51795 0
M  V30 2851 N 260.146 1.09593 -1.13257 0
M  V30 2852 C 261.395 1.81105 -0.887917 0
M  V30 2853 C 261.708 1.86563 0.587672 0
M  V30 2854 O 262.914 2.54367 0.949204 0
M  V30 2855 C 261.37 3.25338 -1.53895 0
M  V30 2856 C 260.978 3.28151 -3.04994 0
M  V30 2857 C 262.722 4.01617 -1.37492 0
M  V30 2858 C 260.629 4.66897 -3.6299 0
M  V30 2859 H 259.559 0.678661 -0.328534 0
M  V30 2860 H 262.21 1.23183 -1.36008 0
M  V30 2861 H 260.592 3.8331 -0.994446 0
M  V30 2862 H 261.766 2.79953 -3.66009 0
M  V30 2863 H 260.081 2.65361 -3.20893 0
M  V30 2864 H 262.678 5.04119 -1.78235 0
M  V30 2865 H 263.021 4.15072 -0.31957 0
M  V30 2866 H 263.554 3.50082 -1.88912 0
M  V30 2867 H 260.293 4.58643 -4.68323 0
M  V30 2868 H 259.813 5.15426 -3.06752 0
M  V30 2869 H 261.492 5.3587 -3.62563 0
M  V30 2870 N 261.624 0.925811 1.2754 0
M  V30 2871 C 262.87 0.566092 1.94739 0
M  V30 2872 C 263.203 -0.890057 1.72603 0
M  V30 2873 O 262.478 -1.63467 1.05399 0
M  V30 2874 C 262.761 0.89054 3.48915 0
M  V30 2875 C 262.614 2.4003 3.80402 0
M  V30 2876 C 263.933 0.395101 4.38323 0
M  V30 2877 H 261.052 0.20714 0.707292 0
M  V30 2878 H 263.694 1.15725 1.50691 0
M  V30 2879 H 261.844 0.387452 3.86563 0
M  V30 2880 H 263.516 2.97494 3.52555 0
M  V30 2881 H 261.759 2.85028 3.2702 0
M  V30 2882 H 262.43 2.57785 4.8811 0
M  V30 2883 H 264.906 0.826241 4.07814 0
M  V30 2884 H 263.782 0.651086 5.45025 0
M  V30 2885 H 264.043 -0.704798 4.36446 0
M  V30 2886 N 263.102 -1.41638 0.69111 0
M  V30 2887 C 264.065 -2.29178 0.0319786 0
M  V30 2888 C 265.065 -1.44153 -0.712496 0
M  V30 2889 O 266.255 -1.65354 -0.548053 0
M  V30 2890 C 263.387 -3.26952 -0.965161 0
M  V30 2891 H 264.58 -2.88959 0.802681 0
M  V30 2892 H 262.133 -1.4955 0.454356 0
M  V30 2893 H 262.868 -2.72142 -1.76378 0
M  V30 2894 H 262.653 -3.89685 -0.434522 0
M  V30 2895 H 264.143 -3.92561 -1.42428 0
M  V30 2896 N 264.58 -0.43555 -1.51462 0
M  V30 2897 C 265.528 0.391205 -2.29287 0
M  V30 2898 C 266.522 1.02247 -1.35062 0
M  V30 2899 O 267.728 0.957646 -1.52411 0
M  V30 2900 H 264.103 0.144968 -0.737895 0
M  V30 2901 H 266.074 -0.286051 -2.97026 0
M  V30 2902 C 264.823 1.48096 -3.14583 0
M  V30 2903 H 264.146 1.00457 -3.86973 0
M  V30 2904 H 265.586 2.03273 -3.72097 0
M  V30 2905 C 264.045 2.46321 -2.29843 0
M  V30 2906 O 264.575 3.50815 -1.95682 0
M  V30 2907 N 262.781 2.17166 -1.931 0
M  V30 2908 H 262.328 1.32218 -2.21079 0
M  V30 2909 H 262.286 2.83127 -1.36698 0
M  V30 2910 N 266.058 1.56714 -0.166846 0
M  V30 2911 C 267.288 2.00828 0.48494 0
M  V30 2912 C 267.696 1.04612 1.57648 0
M  V30 2913 O 267.039 0.0383201 1.8366 0
M  V30 2914 C 267.101 3.4137 1.12723 0
M  V30 2915 C 266.765 4.56654 0.177886 0
M  V30 2916 C 267.762 5.16402 -0.60207 0
M  V30 2917 C 265.447 5.02244 0.0750139 0
M  V30 2918 C 267.441 6.20167 -1.47215 0
M  V30 2919 C 265.128 6.05859 -0.798649 0
M  V30 2920 C 266.126 6.64691 -1.57082 0
M  V30 2921 O 265.814 7.66297 -2.42989 0
M  V30 2922 H 265.546 0.663587 0.128953 0
M  V30 2923 H 268.1 2.03692 -0.264365 0
M  V30 2924 H 266.33 3.35406 1.92457 0
M  V30 2925 H 268.019 3.69466 1.68076 0
M  V30 2926 H 268.785 4.82065 -0.53274 0
M  V30 2927 H 264.664 4.56167 0.665812 0
M  V30 2928 H 268.208 6.66016 -2.07531 0
M  V30 2929 H 264.105 6.39621 -0.869199 0
M  V30 2930 H 264.873 7.83601 -2.36455 0
M  V30 2931 N 267.536 -0.106894 1.57237 0
M  V30 2932 C 268.784 -0.810921 1.85117 0
M  V30 2933 C 269.105 -1.7984 0.753827 0
M  V30 2934 O 268.375 -1.94649 -0.221056 0
M  V30 2935 H 266.955 -0.302466 0.683025 0
M  V30 2936 H 269.617 -0.0913324 1.94686 0
M  V30 2937 H 268.713 -1.34875 2.81452 0
M  V30 2938 N 269.014 -1.53014 -0.377408 0
M  V30 2939 C 269.944 -1.81589 -1.46791 0
M  V30 2940 C 270.925 -0.668622 -1.56408 0
M  V30 2941 O 272.11 -0.917337 -1.71168 0
M  V30 2942 C 269.24 -1.99519 -2.8427 0
M  V30 2943 C 268.194 -3.15249 -2.89486 0
M  V30 2944 C 267.52 -3.18451 -4.29527 0
M  V30 2945 C 268.82 -4.54084 -2.58079 0
M  V30 2946 H 270.514 -2.7291 -1.23127 0
M  V30 2947 H 268.06 -1.31319 -0.590883 0
M  V30 2948 H 270.013 -2.18092 -3.60575 0
M  V30 2949 H 268.737 -1.04897 -3.09296 0
M  V30 2950 H 267.396 -2.96477 -2.15631 0
M  V30 2951 H 267.044 -2.2149 -4.5161 0
M  V30 2952 H 266.744 -3.962 -4.33934 0
M  V30 2953 H 268.268 -3.39193 -5.07721 0
M  V30 2954 H 269.682 -4.72899 -3.24098 0
M  V30 2955 H 268.079 -5.33987 -2.7382 0
M  V30 2956 H 269.149 -4.60006 -1.53372 0
M  V30 2957 N 270.492 0.636531 -1.44174 0
M  V30 2958 C 271.741 1.39213 -1.45954 0
M  V30 2959 C 272.054 1.95374 -0.0939119 0
M  V30 2960 O 273.26 2.71498 0.0107767 0
M  V30 2961 C 271.716 2.52025 -2.56927 0
M  V30 2962 C 271.324 2.024 -3.99673 0
M  V30 2963 C 273.068 3.29269 -2.67922 0
M  V30 2964 C 270.975 3.12521 -5.0208 0
M  V30 2965 H 269.905 0.523132 -0.542999 0
M  V30 2966 H 272.556 0.685349 -1.70221 0
M  V30 2967 H 270.938 3.25253 -2.25891 0
M  V30 2968 H 272.112 1.36073 -4.40251 0
M  V30 2969 H 270.427 1.37987 -3.92872 0
M  V30 2970 H 273.024 4.11352 -3.41605 0
M  V30 2971 H 273.367 3.78397 -1.73555 0
M  V30 2972 H 273.9 2.63129 -2.98342 0
M  V30 2973 H 270.639 2.68343 -5.98057 0
M  V30 2974 H 270.159 3.77507 -4.66099 0
M  V30 2975 H 271.838 3.77385 -5.25538 0
M  V30 2976 N 271.97 1.30982 0.876444 0
M  V30 2977 C 273.21 1.21589 1.64303 0
M  V30 2978 C 273.574 -0.223962 1.90689 0
M  V30 2979 O 274.775 -0.44128 2.65153 0
M  V30 2980 C 273.046 2.03007 2.94148 0
M  V30 2981 S 274.605 2.10405 3.85065 0
M  V30 2982 H 271.423 0.433161 0.563819 0
M  V30 2983 H 274.025 1.65565 1.03964 0
M  V30 2984 H 272.729 3.06719 2.72675 0
M  V30 2985 H 272.26 1.59725 3.59515 0
M  V30 2986 H 274.275 1.23765 4.80517 0
M  V30 2987 N 273.449 -1.08991 1.13837 0
M  V30 2988 C 274.695 -1.81526 0.90422 0
M  V30 2989 C 275.028 -1.85706 -0.568066 0
M  V30 2990 O 274.303 -1.32855 -1.42056 0
M  V30 2991 C 274.586 -3.27447 1.49835 0
M  V30 2992 C 274.439 -3.31512 3.04006 0
M  V30 2993 C 275.758 -4.24256 1.17025 0
M  V30 2994 H 272.877 -0.659029 0.329923 0
M  V30 2995 H 275.519 -1.27644 1.40737 0
M  V30 2996 H 273.669 -3.73462 1.07044 0
M  V30 2997 H 275.341 -2.93867 3.55584 0
M  V30 2998 H 273.584 -2.70963 3.38765 0
M  V30 2999 H 274.255 -4.34329 3.40679 0
M  V30 3000 H 276.731 -3.86549 1.54009 0
M  V30 3001 H 275.607 -5.24684 1.61237 0
M  V30 3002 H 275.868 -4.42019 0.0846274 0
M  V30 3003 N 274.927 -0.932562 -1.27047 0
M  V30 3004 C 276.155 -0.592031 -1.98249 0
M  V30 3005 C 276.57 0.831062 -1.69525 0
M  V30 3006 O 275.927 1.55299 -0.958561 0
M  V30 3007 C 275.978 -0.814279 -3.5221 0
M  V30 3008 O 275.699 -2.18139 -3.7993 0
M  V30 3009 C 277.2 -0.483121 -4.4066 0
M  V30 3010 H 274.42 -0.223896 -0.632544 0
M  V30 3011 H 276.964 -1.25091 -1.61779 0
M  V30 3012 H 275.119 -0.20213 -3.86872 0
M  V30 3013 H 275.533 -2.235 -4.74498 0
M  V30 3014 H 277.007 -0.689298 -5.47679 0
M  V30 3015 H 277.484 0.581546 -4.35333 0
M  V30 3016 H 278.09 -1.07362 -4.11526 0
M  V30 3017 N 276.405 1.4127 -0.698611 0
M  V30 3018 C 277.821 1.55241 -0.370462 0
M  V30 3019 C 278.021 1.67351 1.12231 0
M  V30 3020 O 277.077 1.65363 1.90818 0
M  V30 3021 C 278.39 2.78997 -1.12165 0
M  V30 3022 C 279.938 2.92797 -1.1063 0
M  V30 3023 C 280.413 4.19445 -1.8393 0
M  V30 3024 N 281.904 4.26409 -1.80914 0
M  V30 3025 C 282.639 5.23271 -2.34467 0
M  V30 3026 N 282.135 6.26145 -2.96504 0
M  V30 3027 N 283.928 5.15232 -2.24706 0
M  V30 3028 H 276.079 1.31654 -1.66676 0
M  V30 3029 H 278.342 0.635393 -0.703548 0
M  V30 3030 H 278.048 2.76268 -2.17644 0
M  V30 3031 H 277.922 3.70606 -0.702209 0
M  V30 3032 H 280.309 2.95039 -0.0597713 0
M  V30 3033 H 280.39 2.02353 -1.56483 0
M  V30 3034 H 280.034 4.17964 -2.88563 0
M  V30 3035 H 279.964 5.08866 -1.35509 0
M  V30 3036 H 282.455 3.527 -1.35687 0
M  V30 3037 H 282.768 6.96451 -3.34927 0
M  V30 3038 H 281.113 6.26638 -3.00583 0
M  V30 3039 H 284.304 4.33789 -1.7591 0
M  V30 3040 H 284.477 5.90552 -2.66745 0
M  V30 3041 N 277.883 0.443576 1.51229 0
M  V30 3042 C 278.846 -0.353132 2.26463 0
M  V30 3043 C 279.846 -0.944338 1.3015 0
M  V30 3044 O 281.036 -0.817813 1.5381 0
M  V30 3045 C 278.168 -1.50023 3.06114 0
M  V30 3046 H 279.361 0.3063 2.98332 0
M  V30 3047 H 276.914 0.196902 1.55055 0
M  V30 3048 H 277.649 -2.19553 2.38677 0
M  V30 3049 H 277.434 -1.08241 3.76864 0
M  V30 3050 H 278.924 -2.06296 3.63087 0
M  V30 3051 N 279.361 -1.56624 0.175154 0
M  V30 3052 C 280.609 -1.96609 -0.467885 0
M  V30 3053 C 280.93 -1.06238 -1.63519 0
M  V30 3054 O 280.2 -0.129523 -1.95471 0
M  V30 3055 H 278.78 -0.726008 -0.175845 0
M  V30 3056 H 281.442 -1.93195 0.257234 0
M  V30 3057 H 280.538 -3.00989 -0.825342 0
M  V30 3058 N 280.839 0.0985539 -1.57292 0
M  V30 3059 C 281.787 1.1387 -2.02821 0
M  V30 3060 C 282.781 1.41676 -0.928666 0
M  V30 3061 O 283.987 1.41398 -1.11385 0
M  V30 3062 H 280.362 0.384419 -0.646317 0
M  V30 3063 H 282.333 0.728347 -2.89375 0
M  V30 3064 C 281.082 2.45166 -2.46554 0
M  V30 3065 H 280.405 2.24613 -3.3074 0
M  V30 3066 H 281.845 3.16456 -2.8219 0
M  V30 3067 C 280.304 3.09216 -1.33742 0
M  V30 3068 O 280.834 3.96163 -0.66464 0
M  V30 3069 N 279.04 2.69413 -1.08928 0
M  V30 3070 H 278.587 1.98801 -1.63817 0
M  V30 3071 H 278.545 3.12594 -0.336458 0
M  V30 3072 N 282.317 1.53212 0.369288 0
M  V30 3073 C 283.594 1.59815 1.12776 0
M  V30 3074 C 283.974 0.403402 2.0721 0
M  V30 3075 O 283.322 -0.606667 2.20299 0
M  V30 3076 C 283.532 2.94664 1.87013 0
M  V30 3077 C 284.88 3.49109 2.41677 0
M  V30 3078 O 285.904 2.96669 1.97144 0
M  V30 3079 O 284.763 4.40775 3.23079 0
M  V30 3080 H 281.857 0.645376 0.517125 0
M  V30 3081 H 284.403 1.65553 0.37285 0
M  V30 3082 H 283.175 3.73061 1.18071 0
M  V30 3083 H 282.798 2.92401 2.69421 0
M  V30 3084 N 283.795 -0.628877 1.44509 0
M  V30 3085 C 284.758 -1.72263 1.51188 0
M  V30 3086 C 285.758 -1.55907 0.39367 0
M  V30 3087 O 286.948 -1.61361 0.656377 0
M  V30 3088 C 284.08 -3.11365 1.38798 0
M  V30 3089 H 285.273 -1.67714 2.4862 0
M  V30 3090 H 282.826 -0.842737 1.31634 0
M  V30 3091 H 283.561 -3.21507 0.424693 0
M  V30 3092 H 283.346 -3.24644 2.19884 0
M  V30 3093 H 284.836 -3.91075 1.46458 0
M  V30 3094 N 285.273 -1.31445 -0.869486 0
M  V30 3095 C 286.205 -1.14955 -1.98287 0
M  V30 3096 C 287.218 -0.0885037 -1.62559 0
M  V30 3097 O 288.407 -0.336044 -1.75308 0
M  V30 3098 C 285.507 -0.734255 -3.3085 0
M  V30 3099 C 284.68 -1.88042 -3.94917 0
M  V30 3100 C 283.739 -1.4511 -5.05796 0
M  V30 3101 O 282.765 -2.16082 -5.2659 0
M  V30 3102 N 283.967 -0.338763 -5.79511 0
M  V30 3103 H 286.732 -2.10856 -2.12979 0
M  V30 3104 H 284.293 -1.23786 -1.04349 0
M  V30 3105 H 286.285 -0.42975 -4.02412 0
M  V30 3106 H 284.855 0.133158 -3.12316 0
M  V30 3107 H 284.075 -2.35222 -3.1633 0
M  V30 3108 H 285.363 -2.6481 -4.34457 0
M  V30 3109 H 284.761 0.252274 -5.65137 0
M  V30 3110 H 283.318 -0.0937925 -6.51733 0
M  V30 3111 N 286.751 1.08385 -1.14413 0
M  V30 3112 C 287.698 2.15311 -0.831265 0
M  V30 3113 C 288.668 1.64751 0.211292 0
M  V30 3114 O 289.853 1.90627 0.0811674 0
M  V30 3115 C 286.993 3.43658 -0.315143 0
M  V30 3116 C 286.106 4.08064 -1.41802 0
M  V30 3117 C 285.241 5.24207 -0.859126 0
M  V30 3118 C 284.28 5.80554 -1.93967 0
M  V30 3119 N 283.417 6.88042 -1.39793 0
M  V30 3120 H 288.257 2.41415 -1.74708 0
M  V30 3121 H 285.794 1.18474 -0.871909 0
M  V30 3122 H 287.752 4.172 0.00230884 0
M  V30 3123 H 286.382 3.17839 0.56378 0
M  V30 3124 H 285.434 3.3228 -1.85187 0
M  V30 3125 H 286.746 4.45962 -2.23427 0
M  V30 3126 H 285.9 6.04689 -0.49359 0
M  V30 3127 H 284.639 4.87699 -0.011932 0
M  V30 3128 H 283.644 4.98725 -2.31415 0
M  V30 3129 H 284.869 6.19121 -2.79046 0
M  V30 3130 H 282.815 6.53493 -0.572919 0
M  V30 3131 H 282.732 7.24767 -2.15054 0
M  V30 3132 H 284 7.72255 -1.0603 0
M  V30 3133 N 288.23 0.939286 1.26551 0
M  V30 3134 C 289.477 0.585847 1.9384 0
M  V30 3135 C 289.805 -0.874784 1.73718 0
M  V30 3136 O 289.06 -1.64092 1.06642 0
M  V30 3137 C 289.359 0.872106 3.46596 0
M  V30 3138 C 289.025 2.31632 3.86856 0
M  V30 3139 C 287.687 2.71111 3.97558 0
M  V30 3140 C 290.039 3.25494 4.07066 0
M  V30 3141 C 287.367 4.03553 4.25866 0
M  V30 3142 C 289.719 4.57531 4.36862 0
M  V30 3143 C 288.383 4.96828 4.45778 0
M  V30 3144 H 287.653 0.214377 0.709312 0
M  V30 3145 H 290.3 1.18544 1.50398 0
M  V30 3146 H 288.605 0.18996 3.91339 0
M  V30 3147 H 290.302 0.577442 3.96821 0
M  V30 3148 H 286.892 2.00008 3.79071 0
M  V30 3149 H 291.076 2.9619 3.98227 0
M  V30 3150 H 286.332 4.33665 4.30981 0
M  V30 3151 H 290.506 5.30254 4.51446 0
M  V30 3152 H 288.133 5.99482 4.67468 0
M  V30 3153 N 289.708 -1.40897 0.706093 0
M  V30 3154 C 290.957 -2.00284 0.238574 0
M  V30 3155 C 291.27 -1.56604 -1.17194 0
M  V30 3156 O 292.476 -2.08624 -1.73748 0
M  V30 3157 C 290.932 -3.57934 0.375623 0
M  V30 3158 C 290.54 -4.10591 1.79217 0
M  V30 3159 C 292.284 -4.24488 -0.0315857 0
M  V30 3160 C 290.191 -5.60712 1.88032 0
M  V30 3161 H 289.121 -0.749144 0.0854398 0
M  V30 3162 H 291.772 -1.61251 0.875813 0
M  V30 3163 H 290.154 -3.94622 -0.330042 0
M  V30 3164 H 291.328 -3.85301 2.52745 0
M  V30 3165 H 289.643 -3.56601 2.15 0
M  V30 3166 H 292.24 -5.34698 0.0136842 0
M  V30 3167 H 292.583 -4.02261 -1.072 0
M  V30 3168 H 293.116 -3.92873 0.624181 0
M  V30 3169 H 289.855 -5.87781 2.90161 0
M  V30 3170 H 289.375 -5.87896 1.18903 0
M  V30 3171 H 291.054 -6.25658 1.64805 0
M  V30 3172 N 291.186 -0.45159 -1.50991 0
M  V30 3173 C 292.416 0.108177 -2.06317 0
M  V30 3174 C 292.824 1.35774 -1.31765 0
M  V30 3175 O 292.167 1.79838 -0.374694 0
M  V30 3176 C 292.229 0.481659 -3.56259 0
M  V30 3177 C 291.893 -0.663114 -4.52163 0
M  V30 3178 C 292.89 -1.53947 -4.96585 0
M  V30 3179 C 290.575 -0.8479 -4.95092 0
M  V30 3180 C 292.569 -2.58518 -5.82621 0
M  V30 3181 C 290.256 -1.89686 -5.80915 0
M  V30 3182 C 291.254 -2.76388 -6.24579 0
M  V30 3183 O 290.942 -3.79482 -7.08695 0
M  V30 3184 H 290.674 0.00499183 -0.675982 0
M  V30 3185 H 293.228 -0.633659 -1.95381 0
M  V30 3186 H 291.458 1.27641 -3.65027 0
M  V30 3187 H 293.147 0.974233 -3.94035 0
M  V30 3188 H 293.913 -1.4083 -4.64103 0
M  V30 3189 H 289.792 -0.18258 -4.60638 0
M  V30 3190 H 293.336 -3.26224 -6.16623 0
M  V30 3191 H 289.233 -2.02817 -6.12809 0
M  V30 3192 H 290.001 -3.76234 -7.26905 0
M  V30 3193 N 292.664 1.56529 -0.183458 0
M  V30 3194 C 293.574 2.22144 0.754272 0
M  V30 3195 C 294.59 1.21684 1.24374 0
M  V30 3196 O 295.766 1.54385 1.29333 0
M  V30 3197 C 292.831 2.85884 1.96141 0
M  V30 3198 C 291.892 4.01579 1.51765 0
M  V30 3199 C 291.125 4.6227 2.66725 0
M  V30 3200 O 291.348 4.21865 3.83909 0
M  V30 3201 O 290.282 5.51936 2.40104 0
M  V30 3202 H 294.108 3.02861 0.225527 0
M  V30 3203 H 291.693 1.49331 0.0453032 0
M  V30 3204 H 293.575 3.26253 2.66715 0
M  V30 3205 H 292.25 2.08154 2.47899 0
M  V30 3206 H 291.157 3.65856 0.781049 0
M  V30 3207 H 292.49 4.80938 1.04686 0
M  V30 3208 N 294.142 -0.090211 1.57342 0
M  V30 3209 C 295.367 -0.810082 1.90925 0
M  V30 3210 C 295.792 -1.71248 0.778187 0
M  V30 3211 O 295.15 -1.79278 -0.269991 0
M  V30 3212 C 295.198 -1.59529 3.23393 0
M  V30 3213 O 294.302 -2.70461 3.11327 0
M  V30 3214 H 293.643 -0.222231 0.625707 0
M  V30 3215 H 296.173 -0.0639716 2.045 0
M  V30 3216 H 296.183 -1.97847 3.5682 0
M  V30 3217 H 294.858 -0.933055 4.05299 0
M  V30 3218 H 293.435 -2.35135 2.89423 0
M  V30 3219 N 295.62 -1.53406 -0.361157 0
M  V30 3220 C 296.897 -1.60411 -1.11927 0
M  V30 3221 C 297.277 -0.414385 -2.06993 0
M  V30 3222 O 296.625 0.594976 -2.20618 0
M  V30 3223 C 296.835 -2.95652 -1.85448 0
M  V30 3224 C 298.183 -3.50386 -2.39823 0
M  V30 3225 O 299.207 -2.97711 -1.95568 0
M  V30 3226 O 298.066 -4.42482 -3.20737 0
M  V30 3227 H 295.16 -0.64811 -0.513695 0
M  V30 3228 H 297.706 -1.65749 -0.364065 0
M  V30 3229 H 296.478 -3.73682 -1.16091 0
M  V30 3230 H 296.101 -2.93825 -2.67866 0
M  V30 3231 N 297.098 0.621204 -1.44841 0
M  V30 3232 C 298.344 1.3826 -1.48365 0
M  V30 3233 C 298.677 1.93831 -0.119624 0
M  V30 3234 O 297.952 1.74251 0.864111 0
M  V30 3235 C 298.235 2.54058 -2.55199 0
M  V30 3236 C 298.088 2.03772 -4.00995 0
M  V30 3237 C 299.407 3.56225 -2.58442 0
M  V30 3238 H 296.526 0.501374 -0.540179 0
M  V30 3239 H 299.168 0.7015 -1.76576 0
M  V30 3240 H 297.318 3.12162 -2.31274 0
M  V30 3241 H 298.99 1.50423 -4.36086 0
M  V30 3242 H 297.233 1.34876 -4.12299 0
M  V30 3243 H 297.904 2.87185 -4.71411 0
M  V30 3244 H 300.38 3.07939 -2.79844 0
M  V30 3245 H 299.256 4.34756 -3.3508 0
M  V30 3246 H 299.517 4.10949 -1.63013 0
M  V30 3247 N 298.576 1.31904 0.862503 0
M  V30 3248 C 299.506 1.22782 1.98612 0
M  V30 3249 C 300.487 0.113362 1.69722 0
M  V30 3250 O 301.672 0.299218 1.91881 0
M  V30 3251 C 298.802 0.942058 3.34279 0
M  V30 3252 C 297.756 2.0169 3.77499 0
M  V30 3253 C 297.082 1.58369 5.10709 0
M  V30 3254 C 298.382 3.43096 3.93805 0
M  V30 3255 H 300.076 2.16788 2.06502 0
M  V30 3256 H 297.622 1.04366 0.992154 0
M  V30 3257 H 299.575 0.864818 4.1243 0
M  V30 3258 H 298.299 -0.0336603 3.26583 0
M  V30 3259 H 296.958 2.08416 3.01593 0
M  V30 3260 H 296.606 0.595628 4.99461 0
M  V30 3261 H 296.306 2.30279 5.40597 0
M  V30 3262 H 297.83 1.52067 5.91361 0
M  V30 3263 H 299.244 3.39003 4.62331 0
M  V30 3264 H 297.641 4.13288 4.35101 0
M  V30 3265 H 298.711 3.83334 2.96957 0
M  V30 3266 N 300.054 -1.07777 1.14986 0
M  V30 3267 C 301.3 -1.80719 0.93339 0
M  V30 3268 C 301.655 -1.8484 -0.534019 0
M  V30 3269 O 300.948 -1.31795 -1.3907 0
M  V30 3270 C 301.142 -3.25495 1.47608 0
M  V30 3271 C 300.971 -3.3548 2.99472 0
M  V30 3272 C 299.741 -3.46293 3.6798 0
M  V30 3273 C 301.939 -3.26596 3.97291 0
M  V30 3274 N 299.921 -3.45136 5.07695 0
M  V30 3275 C 301.292 -3.32506 5.23297 0
M  V30 3276 C 303.347 -3.10376 3.89321 0
M  V30 3277 C 302.05 -3.23866 6.42264 0
M  V30 3278 C 304.076 -3.03069 5.07842 0
M  V30 3279 C 303.438 -3.09587 6.32721 0
M  V30 3280 H 299.537 -0.674814 0.395158 0
M  V30 3281 H 302.121 -1.28681 1.46114 0
M  V30 3282 H 300.292 -3.75963 0.975022 0
M  V30 3283 H 302.024 -3.86535 1.19887 0
M  V30 3284 H 298.779 -3.50456 3.18555 0
M  V30 3285 H 299.203 -3.48097 5.80653 0
M  V30 3286 H 303.845 -3.04194 2.93642 0
M  V30 3287 H 301.563 -3.28807 7.38181 0
M  V30 3288 H 305.149 -2.91629 5.03432 0
M  V30 3289 H 304.029 -3.0397 7.22891 0
M  V30 3290 N 301.532 -0.945985 -1.26051 0
M  V30 3291 C 302.479 -0.45809 -2.26208 0
M  V30 3292 C 303.449 0.484816 -1.58867 0
M  V30 3293 O 304.634 0.399969 -1.86561 0
M  V30 3294 C 301.774 0.266131 -3.44072 0
M  V30 3295 C 300.887 -0.713005 -4.26075 0
M  V30 3296 C 300.022 0.0329013 -5.3119 0
M  V30 3297 C 299.061 -0.93774 -6.04874 0
M  V30 3298 N 298.198 -0.223274 -7.01745 0
M  V30 3299 H 303.038 -1.3171 -2.67313 0
M  V30 3300 H 300.575 -0.66069 -1.31428 0
M  V30 3301 H 302.533 0.702514 -4.11243 0
M  V30 3302 H 301.163 1.08925 -3.03867 0
M  V30 3303 H 300.215 -1.26789 -3.58648 0
M  V30 3304 H 301.527 -1.45406 -4.77136 0
M  V30 3305 H 300.681 0.528335 -6.04395 0
M  V30 3306 H 299.42 0.806801 -4.8098 0
M  V30 3307 H 298.425 -1.44425 -5.30492 0
M  V30 3308 H 299.65 -1.71172 -6.57173 0
M  V30 3309 H 297.596 0.532046 -6.53839 0
M  V30 3310 H 297.513 -0.90357 -7.50581 0
M  V30 3311 H 298.781 0.250907 -7.79096 0
M  V30 3312 N 303.011 1.40521 -0.713556 0
M  V30 3313 C 303.961 2.27971 -0.036165 0
M  V30 3314 C 304.945 1.43151 0.734623 0
M  V30 3315 O 306.137 1.66261 0.607158 0
M  V30 3316 C 303.266 3.31661 0.886331 0
M  V30 3317 C 302.352 4.23955 0.110836 0
M  V30 3318 N 302.743 4.97641 -0.904847 0
M  V30 3319 C 301.041 4.44674 0.343692 0
M  V30 3320 C 301.742 5.65322 -1.37064 0
M  V30 3321 N 300.718 5.39162 -0.693168 0
M  V30 3322 H 304.52 2.82384 -0.814645 0
M  V30 3323 H 302.034 1.52948 -0.545963 0
M  V30 3324 H 304.031 3.93154 1.38692 0
M  V30 3325 H 302.691 2.78808 1.66421 0
M  V30 3326 H 303.702 5.01689 -1.28563 0
M  V30 3327 H 300.379 4.02801 1.09805 0
M  V30 3328 H 301.769 6.34359 -2.21447 0
M  V30 3329 N 304.489 0.459591 1.5075 0
M  V30 3330 C 305.905 0.113092 1.59199 0
M  V30 3331 C 306.105 -1.37951 1.46874 0
M  V30 3332 O 305.161 -2.15168 1.32132 0
M  V30 3333 C 306.474 0.653043 2.93523 0
M  V30 3334 C 308.022 0.615449 3.0689 0
M  V30 3335 C 308.497 1.13275 4.43771 0
M  V30 3336 N 309.988 1.09167 4.50152 0
M  V30 3337 C 310.723 1.46256 5.54434 0
M  V30 3338 N 310.219 1.90739 6.66026 0
M  V30 3339 N 312.012 1.37932 5.44914 0
M  V30 3340 H 304.163 1.43049 1.57005 0
M  V30 3341 H 306.426 0.590861 0.741341 0
M  V30 3342 H 306.132 1.69822 3.07983 0
M  V30 3343 H 306.006 0.0902132 3.77092 0
M  V30 3344 H 308.393 -0.420793 2.92084 0
M  V30 3345 H 308.474 1.21495 2.25106 0
M  V30 3346 H 308.118 2.16757 4.59324 0
M  V30 3347 H 308.048 0.509576 5.24129 0
M  V30 3348 H 310.539 0.76528 3.7007 0
M  V30 3349 H 310.852 2.17218 7.41644 0
M  V30 3350 H 309.197 1.94683 6.67176 0
M  V30 3351 H 312.388 1.0303 4.56621 0
M  V30 3352 H 312.561 1.67164 6.26067 0
M  V30 3353 N 305.967 -1.56429 0.191757 0
M  V30 3354 C 307.192 -2.02309 -0.456706 0
M  V30 3355 C 307.617 -1.07103 -1.5463 0
M  V30 3356 O 306.975 -0.0539677 -1.8122 0
M  V30 3357 C 307.023 -3.46654 -0.993159 0
M  V30 3358 O 306.127 -3.54559 -2.10622 0
M  V30 3359 H 305.468 -0.655303 -0.107114 0
M  V30 3360 H 307.998 -2.02364 0.301653 0
M  V30 3361 H 308.008 -3.86377 -1.31061 0
M  V30 3362 H 306.683 -4.1544 -0.195504 0
M  V30 3363 H 305.26 -3.26708 -1.79767 0
M  V30 3364 N 307.445 0.0818655 -1.57387 0
M  V30 3365 C 308.393 1.11712 -2.04018 0
M  V30 3366 C 309.387 1.40683 -0.94364 0
M  V30 3367 O 310.593 1.40209 -1.12878 0
M  V30 3368 H 306.968 0.377542 -0.650358 0
M  V30 3369 H 308.939 0.697614 -2.90131 0
M  V30 3370 C 307.688 2.42537 -2.49141 0
M  V30 3371 H 307.011 2.21092 -3.33104 0
M  V30 3372 H 308.451 3.13446 -2.85531 0
M  V30 3373 C 306.91 3.0778 -1.37014 0
M  V30 3374 O 307.44 3.95436 -0.706621 0
M  V30 3375 N 305.646 2.68242 -1.11779 0
M  V30 3376 H 305.193 1.97052 -1.65917 0
M  V30 3377 H 305.151 3.1222 -0.369594 0
M  V30 3378 N 308.923 1.53595 0.353017 0
M  V30 3379 C 310.172 1.69603 1.09168 0
M  V30 3380 C 310.485 0.460925 1.90092 0
M  V30 3381 O 311.691 0.501774 2.66823 0
M  V30 3382 C 310.147 2.99872 1.9901 0
M  V30 3383 C 309.755 4.30687 1.23339 0
M  V30 3384 C 311.499 3.25246 2.72792 0
M  V30 3385 C 309.406 5.52036 2.12156 0
M  V30 3386 H 308.336 0.631966 0.411261 0
M  V30 3387 H 310.987 1.80096 0.351802 0
M  V30 3388 H 309.369 2.83212 2.7678 0
M  V30 3389 H 310.543 4.58019 0.505456 0
M  V30 3390 H 308.858 4.11853 0.613663 0
M  V30 3391 H 311.455 4.13095 3.39495 0
M  V30 3392 H 311.798 2.41846 3.38846 0
M  V30 3393 H 312.331 3.42638 2.021 0
M  V30 3394 H 309.07 6.37951 1.50659 0
M  V30 3395 H 308.59 5.28966 2.82764 0
M  V30 3396 H 310.269 5.87313 2.71427 0
M  V30 3397 N 310.401 -0.613514 1.45168 0
M  V30 3398 C 311.351 -1.71871 1.49815 0
M  V30 3399 C 312.335 -1.56774 0.362021 0
M  V30 3400 O 313.527 -1.66212 0.608493 0
M  V30 3401 C 310.656 -3.1061 1.46207 0
M  V30 3402 C 309.742 -3.31114 2.64999 0
M  V30 3403 N 310.133 -3.21904 3.90143 0
M  V30 3404 C 308.431 -3.61966 2.6057 0
M  V30 3405 C 309.132 -3.43577 4.69393 0
M  V30 3406 N 308.108 -3.67287 4.00751 0
M  V30 3407 H 311.91 -1.63235 2.444 0
M  V30 3408 H 309.424 -0.816577 1.40377 0
M  V30 3409 H 311.421 -3.8989 1.4762 0
M  V30 3410 H 310.081 -3.20399 0.52673 0
M  V30 3411 H 311.092 -3.00436 4.21852 0
M  V30 3412 H 307.769 -3.78629 1.75916 0
M  V30 3413 H 309.159 -3.41901 5.78406 0
M  V30 3414 N 311.879 -1.3236 -0.855495 0
M  V30 3415 C 313.125 -1.23054 -1.612 0
M  V30 3416 C 313.458 0.207404 -1.93089 0
M  V30 3417 O 312.733 1.14432 -1.57275 0
M  V30 3418 C 313.016 -2.08937 -2.93287 0
M  V30 3419 C 312.869 -3.61105 -2.68185 0
M  V30 3420 C 314.188 -1.94986 -3.94549 0
M  V30 3421 H 311.307 -0.448364 -0.584926 0
M  V30 3422 H 313.949 -1.62297 -0.987917 0
M  V30 3423 H 312.099 -1.75599 -3.46551 0
M  V30 3424 H 313.771 -4.04652 -2.21483 0
M  V30 3425 H 312.014 -3.83813 -2.02164 0
M  V30 3426 H 312.685 -4.16522 -3.62234 0
M  V30 3427 H 315.161 -2.24189 -3.5054 0
M  V30 3428 H 314.037 -2.57356 -4.84829 0
M  V30 3429 H 314.298 -0.917263 -4.3248 0
M  V30 3430 N 313.357 1.07166 -1.15556 0
M  V30 3431 C 314.603 1.80065 -0.932984 0
M  V30 3432 C 314.936 1.86586 0.53845 0
M  V30 3433 O 314.211 1.35098 1.39924 0
M  V30 3434 C 314.494 3.25022 -1.55025 0
M  V30 3435 C 314.347 3.26634 -3.09242 0
M  V30 3436 C 315.666 4.22341 -1.2376 0
M  V30 3437 H 312.785 0.653697 -0.340366 0
M  V30 3438 H 315.427 1.25389 -1.4275 0
M  V30 3439 H 313.577 3.71712 -1.12972 0
M  V30 3440 H 315.249 2.88173 -3.60214 0
M  V30 3441 H 313.492 2.65539 -3.43033 0
M  V30 3442 H 314.163 4.28854 -3.47546 0
M  V30 3443 H 316.639 3.8405 -1.60139 0
M  V30 3444 H 315.515 5.22053 -1.69564 0
M  V30 3445 H 315.776 4.41828 -0.154938 0
M  V30 3446 N 314.835 0.952656 1.25548 0
M  V30 3447 C 315.783 0.462354 2.27958 0
M  V30 3448 C 316.777 -0.46634 1.62855 0
M  V30 3449 O 317.983 -0.343287 1.76696 0
M  V30 3450 H 314.358 0.13101 0.7405 0
M  V30 3451 H 316.329 1.33839 2.66702 0
M  V30 3452 C 315.078 -0.24628 3.46827 0
M  V30 3453 H 314.401 0.459192 3.97154 0
M  V30 3454 H 315.841 -0.553393 4.20373 0
M  V30 3455 C 314.3 -1.4681 3.0323 0
M  V30 3456 O 314.83 -2.56591 3.09069 0
M  V30 3457 N 313.036 -1.32874 2.58443 0
M  V30 3458 H 312.583 -0.435536 2.53891 0
M  V30 3459 H 312.541 -2.14742 2.29637 0
M  V30 3460 N 316.313 -1.40141 0.720998 0
M  V30 3461 C 317.223 -2.34486 0.0731031 0
M  V30 3462 C 318.239 -1.57587 -0.737723 0
M  V30 3463 O 319.415 -1.89949 -0.669429 0
M  V30 3464 C 316.48 -3.36528 -0.833656 0
M  V30 3465 C 315.541 -4.29298 -0.0121673 0
M  V30 3466 C 314.774 -5.26466 -0.875742 0
M  V30 3467 O 314.997 -5.29745 -2.11485 0
M  V30 3468 O 313.931 -6.01092 -0.31185 0
M  V30 3469 H 317.757 -2.9152 0.851444 0
M  V30 3470 H 315.342 -1.41427 0.481527 0
M  V30 3471 H 317.224 -3.99093 -1.35289 0
M  V30 3472 H 315.899 -2.81899 -1.59105 0
M  V30 3473 H 314.806 -3.70001 0.552262 0
M  V30 3474 H 316.139 -4.87094 0.707129 0
M  V30 3475 N 317.792 -0.46758 -1.50504 0
M  V30 3476 C 319.038 0.0808869 -2.03239 0
M  V30 3477 C 319.393 1.37721 -1.34353 0
M  V30 3478 O 318.686 1.86016 -0.459194 0
M  V30 3479 C 318.88 0.323995 -3.55928 0
M  V30 3480 C 318.709 -0.947215 -4.39611 0
M  V30 3481 C 317.479 -1.48951 -4.82848 0
M  V30 3482 C 319.677 -1.84166 -4.80195 0
M  V30 3483 N 317.659 -2.71011 -5.50842 0
M  V30 3484 C 319.03 -2.90815 -5.47564 0
M  V30 3485 C 321.085 -1.85246 -4.62156 0
M  V30 3486 C 319.788 -3.98529 -5.98805 0
M  V30 3487 C 321.814 -2.91914 -5.14335 0
M  V30 3488 C 321.176 -3.97282 -5.81676 0
M  V30 3489 H 317.275 -0.0103394 -0.781932 0
M  V30 3490 H 319.859 -0.635003 -1.84054 0
M  V30 3491 H 318.03 1.00892 -3.75067 0
M  V30 3492 H 319.762 0.866492 -3.95315 0
M  V30 3493 H 316.517 -1.03918 -4.62058 0
M  V30 3494 H 316.941 -3.32988 -5.89447 0
M  V30 3495 H 321.583 -1.05103 -4.09528 0
M  V30 3496 H 319.301 -4.79491 -6.50472 0
M  V30 3497 H 322.887 -2.93729 -5.0221 0
M  V30 3498 H 321.767 -4.78462 -6.21324 0
M  V30 3499 N 319.27 1.56325 -0.20005 0
M  V30 3500 C 320.519 1.96895 0.437652 0
M  V30 3501 C 320.832 1.08999 1.62415 0
M  V30 3502 O 322.038 1.39372 2.32997 0
M  V30 3503 C 320.494 3.50198 0.830025 0
M  V30 3504 C 320.102 4.46765 -0.332461 0
M  V30 3505 C 321.846 3.99526 1.43453 0
M  V30 3506 C 319.753 5.91344 0.0811468 0
M  V30 3507 H 318.683 0.735209 0.167282 0
M  V30 3508 H 321.334 1.81148 -0.292853 0
M  V30 3509 H 319.716 3.61467 1.61734 0
M  V30 3510 H 320.89 4.47231 -1.11 0
M  V30 3511 H 319.205 4.07657 -0.848789 0
M  V30 3512 H 321.802 5.05025 1.75652 0
M  V30 3513 H 322.145 3.44122 2.34277 0
M  V30 3514 H 322.678 3.91393 0.71109 0
M  V30 3515 H 319.417 6.50685 -0.793033 0
M  V30 3516 H 318.937 5.94121 0.823445 0
M  V30 3517 H 320.616 6.44945 0.515252 0
M  V30 3518 N 320.748 -0.0735177 1.57428 0
M  V30 3519 C 321.711 -1.07192 2.02589 0
M  V30 3520 C 322.711 -1.31695 0.922661 0
M  V30 3521 O 323.901 -1.27445 1.18758 0
M  V30 3522 C 321.033 -2.41599 2.40506 0
M  V30 3523 H 322.226 -0.682727 2.92025 0
M  V30 3524 H 319.779 -0.319193 1.53006 0
M  V30 3525 H 320.514 -2.85354 1.5409 0
M  V30 3526 H 320.299 -2.25156 3.21009 0
M  V30 3527 H 321.789 -3.13367 2.76027 0
M  V30 3528 N 322.226 -1.5378 -0.344866 0
M  V30 3529 C 323.174 -1.82373 -1.4437 0
M  V30 3530 C 324.168 -0.694128 -1.54526 0
M  V30 3531 O 325.374 -0.877442 -1.57165 0
M  V30 3532 H 321.749 -0.577765 -0.481344 0
M  V30 3533 H 323.72 -2.74306 -1.17468 0
M  V30 3534 C 322.469 -2.04898 -2.80913 0
M  V30 3535 H 321.792 -2.9127 -2.73865 0
M  V30 3536 H 323.232 -2.28871 -3.56923 0
M  V30 3537 C 321.691 -0.834116 -3.26411 0
M  V30 3538 O 322.221 -0.0328885 -4.01687 0
M  V30 3539 N 320.427 -0.65171 -2.83198 0
M  V30 3540 H 319.974 -1.30489 -2.22104 0
M  V30 3541 H 319.932 0.159686 -3.13994 0
M  V30 3542 N 323.704 0.605807 -1.45491 0
M  V30 3543 C 324.981 1.36522 -1.40075 0
M  V30 3544 C 325.361 2.10976 -0.0722744 0
M  V30 3545 O 324.709 2.08007 0.945808 0
M  V30 3546 C 324.919 2.31056 -2.61561 0
M  V30 3547 C 326.267 2.93608 -3.06724 0
M  V30 3548 O 327.291 2.41376 -2.61946 0
M  V30 3549 O 326.15 3.88421 -3.84437 0
M  V30 3550 H 323.244 0.612248 -0.555951 0
M  V30 3551 H 325.79 0.628747 -1.57623 0
M  V30 3552 H 324.562 1.75311 -3.49831 0
M  V30 3553 H 324.185 3.12081 -2.46356 0
M  V30 3554 N 325.182 1.32811 0.848464 0
M  V30 3555 C 326.431 1.23075 1.59798 0
M  V30 3556 C 326.744 -0.204419 1.94529 0
M  V30 3557 O 327.95 -0.423701 2.68173 0
M  V30 3558 C 326.406 2.15594 2.88179 0
M  V30 3559 C 326.014 3.64228 2.60849 0
M  V30 3560 C 327.758 2.14709 3.66197 0
M  V30 3561 C 325.665 4.48689 3.85269 0
M  V30 3562 H 324.595 0.457091 0.599653 0
M  V30 3563 H 327.246 1.57813 0.936342 0
M  V30 3564 H 325.628 1.73778 3.55833 0
M  V30 3565 H 326.802 4.14424 2.01467 0
M  V30 3566 H 325.117 3.67306 1.96151 0
M  V30 3567 H 327.714 2.75046 4.58534 0
M  V30 3568 H 328.057 1.13966 4.00397 0
M  V30 3569 H 328.59 2.54837 3.05455 0
M  V30 3570 H 325.329 5.5027 3.56207 0
M  V30 3571 H 324.849 4.03241 4.44024 0
M  V30 3572 H 326.528 4.62006 4.52946 0
M  V30 3573 N 326.66 -1.06551 1.16123 0
M  V30 3574 C 327.885 -1.83544 0.965735 0
M  V30 3575 C 328.31 -1.81843 -0.481102 0
M  V30 3576 O 327.668 -1.21732 -1.34354 0
M  V30 3577 C 327.716 -3.28169 1.49457 0
M  V30 3578 O 326.82 -4.0643 0.699157 0
M  V30 3579 H 326.161 -0.568026 0.343864 0
M  V30 3580 H 328.691 -1.34362 1.54299 0
M  V30 3581 H 328.701 -3.78992 1.51092 0
M  V30 3582 H 327.376 -3.28722 2.54784 0
M  V30 3583 H 325.953 -3.65216 0.7531 0
M  V30 3584 N 328.138 -0.959301 -1.25041 0
M  V30 3585 C 329.363 -0.633507 -1.97488 0
M  V30 3586 C 329.788 0.788555 -1.70773 0
M  V30 3587 O 329.146 1.53394 -0.966431 0
M  V30 3588 C 329.194 -0.904057 -3.49083 0
M  V30 3589 O 328.298 0.0147939 -4.12397 0
M  V30 3590 H 327.639 -0.240368 -0.618966 0
M  V30 3591 H 330.169 -1.28717 -1.59038 0
M  V30 3592 H 330.179 -0.832203 -3.99423 0
M  V30 3593 H 328.854 -1.94048 -3.67856 0
M  V30 3594 H 327.431 -0.109664 -3.72739 0
M  V30 3595 N 329.616 1.39756 -0.72842 0
M  V30 3596 C 330.844 2.04948 -0.283528 0
M  V30 3597 C 331.259 1.54908 1.0793 0
M  V30 3598 O 330.616 0.711135 1.68075 0
M  V30 3599 C 330.667 3.60498 -0.268957 0
M  V30 3600 O 330.388 4.08695 -1.57798 0
M  V30 3601 C 331.889 4.4288 0.192912 0
M  V30 3602 H 329.109 0.659243 -0.125056 0
M  V30 3603 H 331.653 1.78927 -0.990226 0
M  V30 3604 H 329.808 3.85444 0.388801 0
M  V30 3605 H 330.222 5.02977 -1.48709 0
M  V30 3606 H 331.696 5.51791 0.151952 0
M  V30 3607 H 332.173 4.21418 1.23708 0
M  V30 3608 H 332.779 4.23069 -0.435039 0
M  V30 3609 N 331.094 0.475555 1.50254 0
M  V30 3610 C 332.041 -0.316293 2.28622 0
M  V30 3611 C 333.011 -0.983227 1.33873 0
M  V30 3612 O 334.196 -0.994805 1.62814 0
M  V30 3613 C 331.336 -1.38975 3.1588 0
M  V30 3614 C 330.449 -0.737146 4.25664 0
M  V30 3615 C 329.584 -1.78887 5.00173 0
M  V30 3616 C 328.623 -1.11676 6.01826 0
M  V30 3617 N 327.76 -2.11154 6.69596 0
M  V30 3618 H 332.6 0.358297 2.95838 0
M  V30 3619 H 330.137 0.188541 1.45887 0
M  V30 3620 H 332.095 -2.02383 3.64825 0
M  V30 3621 H 330.725 -2.03344 2.50701 0
M  V30 3622 H 329.777 0.0096065 3.80399 0
M  V30 3623 H 331.089 -0.206816 4.98371 0
M  V30 3624 H 330.243 -2.49865 5.52859 0
M  V30 3625 H 328.982 -2.35302 4.27182 0
M  V30 3626 H 327.987 -0.392633 5.48396 0
M  V30 3627 H 329.212 -0.55945 6.76792 0
M  V30 3628 H 327.158 -2.66577 5.99394 0
M  V30 3629 H 327.075 -1.63118 7.38193 0
M  V30 3630 H 328.343 -2.81497 7.26897 0
M  V30 3631 N 332.573 -1.56217 0.208337 0
M  V30 3632 C 333.822 -1.97124 -0.427204 0
M  V30 3633 C 334.135 -1.09859 -1.61835 0
M  V30 3634 O 335.341 -1.40606 -2.32255 0
M  V30 3635 C 333.797 -3.50633 -0.811442 0
M  V30 3636 C 333.405 -4.46582 0.35615 0
M  V30 3637 C 335.149 -4.00282 -1.41332 0
M  V30 3638 C 333.056 -5.91379 -0.0497852 0
M  V30 3639 H 331.986 -0.736086 -0.163381 0
M  V30 3640 H 334.637 -1.8099 0.302456 0
M  V30 3641 H 333.019 -3.62319 -1.59815 0
M  V30 3642 H 334.193 -4.46636 1.1337 0
M  V30 3643 H 332.508 -4.07202 0.870396 0
M  V30 3644 H 335.105 -5.0595 -1.72972 0
M  V30 3645 H 335.448 -3.45359 -2.32449 0
M  V30 3646 H 335.981 -3.91764 -0.690323 0
M  V30 3647 H 332.72 -6.50255 0.827529 0
M  V30 3648 H 332.24 -5.94549 -0.791926 0
M  V30 3649 H 333.919 -6.45209 -0.481042 0
M  V30 3650 N 334.051 0.0651679 -1.57465 0
M  V30 3651 C 335.467 0.420105 -1.53972 0
M  V30 3652 C 335.667 1.78782 -0.929474 0
M  V30 3653 O 334.723 2.46771 -0.534839 0
M  V30 3654 C 336.036 0.355084 -2.98596 0
M  V30 3655 C 337.584 0.434792 -3.09965 0
M  V30 3656 C 338.059 0.399609 -4.56253 0
M  V30 3657 N 339.55 0.459488 -4.60915 0
M  V30 3658 C 340.285 0.454584 -5.71595 0
M  V30 3659 N 339.781 0.404102 -6.9162 0
M  V30 3660 N 341.574 0.501635 -5.59857 0
M  V30 3661 H 333.725 -0.830328 -1.95498 0
M  V30 3662 H 335.988 -0.312244 -0.895102 0
M  V30 3663 H 335.694 -0.583357 -3.46828 0
M  V30 3664 H 335.568 1.16275 -3.58831 0
M  V30 3665 H 337.955 1.36366 -2.61703 0
M  V30 3666 H 338.036 -0.40157 -2.52628 0
M  V30 3667 H 337.68 -0.525436 -5.05175 0
M  V30 3668 H 337.61 1.25359 -5.11461 0
M  V30 3669 H 340.101 0.502482 -3.74544 0
M  V30 3670 H 340.414 0.404468 -7.71741 0
M  V30 3671 H 338.759 0.37069 -6.94011 0
M  V30 3672 H 341.95 0.538812 -4.64989 0
M  V30 3673 H 342.123 0.494345 -6.46112 0
M  V30 3674 N 335.529 1.53961 0.336706 0
M  V30 3675 C 336.945 1.44378 0.680241 0
M  V30 3676 C 337.145 0.606034 1.9217 0
M  V30 3677 O 336.201 0.099688 2.52303 0
M  V30 3678 C 337.514 2.87945 0.8665 0
M  V30 3679 C 339.062 2.97763 0.964682 0
M  V30 3680 C 339.537 4.42453 1.18321 0
M  V30 3681 N 341.028 4.46008 1.25025 0
M  V30 3682 C 341.763 5.55102 1.43697 0
M  V30 3683 N 341.259 6.7419 1.59498 0
M  V30 3684 N 343.052 5.42727 1.463 0
M  V30 3685 H 335.203 2.06918 -0.479455 0
M  V30 3686 H 337.466 0.935634 -0.152619 0
M  V30 3687 H 337.172 3.51691 0.0256937 0
M  V30 3688 H 337.046 3.33293 1.76623 0
M  V30 3689 H 339.433 2.34153 1.796 0
M  V30 3690 H 339.514 2.55766 0.041708 0
M  V30 3691 H 339.158 5.06645 0.356788 0
M  V30 3692 H 339.088 4.82048 2.11985 0
M  V30 3693 H 341.579 3.60196 1.14312 0
M  V30 3694 H 341.892 7.53095 1.734 0
M  V30 3695 H 340.237 6.77123 1.56621 0
M  V30 3696 H 343.428 4.48647 1.33543 0
M  V30 3697 H 343.601 6.27806 1.6051 0
M  V30 3698 N 337.007 -0.598083 1.45811 0
M  V30 3699 C 337.97 -1.69018 1.54808 0
M  V30 3700 C 338.97 -1.55037 0.426652 0
M  V30 3701 O 340.16 -1.59932 0.690456 0
M  V30 3702 C 337.292 -3.0835 1.45371 0
M  V30 3703 H 338.485 -1.62403 2.52121 0
M  V30 3704 H 336.038 -0.814626 1.33392 0
M  V30 3705 H 336.773 -3.20534 0.492793 0
M  V30 3706 H 336.558 -3.19907 2.26721 0
M  V30 3707 H 338.048 -3.8788 1.54721 0
M  V30 3708 N 338.485 -1.33259 -0.841409 0
M  V30 3709 C 339.415 -1.25926 -1.96634 0
M  V30 3710 C 340.396 -0.140349 -1.6952 0
M  V30 3711 O 341.581 -0.329707 -1.91381 0
M  V30 3712 C 338.711 -0.99512 -3.32738 0
M  V30 3713 C 337.665 -2.0767 -3.74242 0
M  V30 3714 C 336.991 -1.66474 -5.08125 0
M  V30 3715 C 338.291 -3.49318 -3.88297 0
M  V30 3716 H 339.985 -2.20046 -2.03027 0
M  V30 3717 H 337.531 -1.05931 -0.975425 0
M  V30 3718 H 339.484 -0.930323 -4.11002 0
M  V30 3719 H 338.208 -0.0183004 -3.26595 0
M  V30 3720 H 336.867 -2.13187 -2.98239 0
M  V30 3721 H 336.515 -0.675012 -4.9845 0
M  V30 3722 H 336.215 -2.3885 -5.36865 0
M  V30 3723 H 337.739 -1.61455 -5.88867 0
M  V30 3724 H 339.153 -3.46316 -4.56879 0
M  V30 3725 H 337.55 -4.20158 -4.28471 0
M  V30 3726 H 338.62 -3.8801 -2.9082 0
M  V30 3727 N 339.963 1.05934 -1.16686 0
M  V30 3728 C 341.379 1.30938 -0.912542 0
M  V30 3729 C 341.579 1.96803 0.432533 0
M  V30 3730 O 340.635 2.23693 1.17123 0
M  V30 3731 C 341.948 2.18649 -2.06429 0
M  V30 3732 C 343.496 2.32055 -2.10047 0
M  V30 3733 C 343.971 3.23122 -3.24586 0
M  V30 3734 N 345.462 3.30706 -3.24327 0
M  V30 3735 C 346.197 4.01273 -4.09594 0
M  V30 3736 N 345.693 4.74332 -5.04956 0
M  V30 3737 N 347.486 3.97361 -3.97569 0
M  V30 3738 H 339.637 0.615777 -2.03278 0
M  V30 3739 H 341.9 0.334077 -0.887185 0
M  V30 3740 H 341.606 1.77534 -3.03603 0
M  V30 3741 H 341.48 3.19252 -2.00894 0
M  V30 3742 H 343.867 2.72415 -1.13464 0
M  V30 3743 H 343.948 1.31107 -2.19647 0
M  V30 3744 H 343.592 2.83477 -4.2143 0
M  V30 3745 H 343.522 4.24057 -3.12223 0
M  V30 3746 H 346.013 2.78644 -2.55276 0
M  V30 3747 H 346.326 5.25716 -5.6643 0
M  V30 3748 H 344.671 4.733 -5.08933 0
M  V30 3749 H 347.862 3.39405 -3.22369 0
M  V30 3750 H 348.035 4.52089 -4.64241 0
M  V30 3751 N 341.441 0.965919 1.2453 0
M  V30 3752 C 342.857 0.67216 1.44756 0
M  V30 3753 C 343.057 -0.766609 1.86347 0
M  V30 3754 O 342.113 -1.5407 2.00047 0
M  V30 3755 C 343.426 1.65473 2.51076 0
M  V30 3756 C 344.974 1.66716 2.64905 0
M  V30 3757 C 345.449 2.63766 3.74421 0
M  V30 3758 N 346.94 2.62198 3.81846 0
M  V30 3759 C 347.675 3.33966 4.66106 0
M  V30 3760 N 347.171 4.15245 5.54566 0
M  V30 3761 N 348.964 3.22799 4.60171 0
M  V30 3762 H 341.115 1.89553 0.958293 0
M  V30 3763 H 343.378 0.815979 0.482579 0
M  V30 3764 H 343.084 2.68296 2.27399 0
M  V30 3765 H 342.958 1.4261 3.49202 0
M  V30 3766 H 345.345 0.646057 2.87941 0
M  V30 3767 H 345.426 1.93642 1.67142 0
M  V30 3768 H 345.07 3.6601 3.52135 0
M  V30 3769 H 345 2.34121 4.71694 0
M  V30 3770 H 347.491 2.032 3.18619 0
M  V30 3771 H 347.804 4.66898 6.15814 0
M  V30 3772 H 346.149 4.1934 5.54237 0
M  V30 3773 H 349.34 2.58764 3.90075 0
M  V30 3774 H 349.513 3.78994 5.25612 0
M  V30 3775 N 342.919 -1.39368 0.735821 0
M  V30 3776 C 344.167 -2.00101 0.283562 0
M  V30 3777 C 344.488 -1.5868 -1.13338 0
M  V30 3778 O 343.758 -0.835423 -1.77193 0
M  V30 3779 H 342.338 -0.740024 0.101851 0
M  V30 3780 H 345 -1.70404 0.945962 0
M  V30 3781 H 344.096 -3.10323 0.332604 0
M  V30 3782 N 344.397 -0.483516 -1.5 0
M  V30 3783 C 345.329 0.340634 -2.26655 0
M  V30 3784 C 346.342 0.946152 -1.32483 0
M  V30 3785 O 347.531 0.832453 -1.579 0
M  V30 3786 C 344.631 1.4929 -3.04246 0
M  V30 3787 C 343.804 0.997903 -4.25865 0
M  V30 3788 C 342.863 2.02569 -4.85646 0
M  V30 3789 O 341.889 1.60128 -5.46212 0
M  V30 3790 N 343.091 3.3548 -4.73744 0
M  V30 3791 H 345.856 -0.316577 -2.98023 0
M  V30 3792 H 343.417 -0.315024 -1.58806 0
M  V30 3793 H 345.409 2.17766 -3.41116 0
M  V30 3794 H 343.979 2.05458 -2.35597 0
M  V30 3795 H 343.199 0.138617 -3.93956 0
M  V30 3796 H 344.487 0.645305 -5.04691 0
M  V30 3797 H 343.885 3.72661 -4.25605 0
M  V30 3798 H 342.442 3.99718 -5.14848 0
M  V30 3799 N 345.875 1.56104 -0.216619 0
M  V30 3800 C 347.1 2.0301 0.424462 0
M  V30 3801 C 347.525 1.0955 1.52907 0
M  V30 3802 O 346.883 0.0827914 1.81111 0
M  V30 3803 C 346.931 3.4819 0.937883 0
M  V30 3804 O 346.035 3.57865 2.04955 0
M  V30 3805 H 345.376 0.656925 0.0966755 0
M  V30 3806 H 347.906 2.01859 -0.33381 0
M  V30 3807 H 347.916 3.88413 1.24897 0
M  V30 3808 H 346.591 4.15699 0.129387 0
M  V30 3809 H 345.168 3.29527 1.74546 0
M  V30 3810 N 347.353 -0.0568162 1.57498 0
M  V30 3811 C 348.602 -0.752001 1.87157 0
M  V30 3812 C 348.915 -1.77978 0.811375 0
M  V30 3813 O 350.121 -2.52559 0.996293 0
M  V30 3814 C 348.577 -1.38844 3.3204 0
M  V30 3815 C 348.185 -0.398456 4.46225 0
M  V30 3816 C 349.929 -2.06512 3.70882 0
M  V30 3817 C 347.836 -1.04166 5.82154 0
M  V30 3818 H 346.766 -0.28461 0.698222 0
M  V30 3819 H 349.417 -0.00561272 1.83499 0
M  V30 3820 H 347.799 -2.1836 3.30356 0
M  V30 3821 H 348.973 0.367977 4.59328 0
M  V30 3822 H 347.288 0.174592 4.16034 0
M  V30 3823 H 349.885 -2.55437 4.6974 0
M  V30 3824 H 350.228 -2.87117 3.01445 0
M  V30 3825 H 350.761 -1.33808 3.7462 0
M  V30 3826 H 347.5 -0.275614 6.5492 0
M  V30 3827 H 347.02 -1.7786 5.72823 0
M  V30 3828 H 348.699 -1.55715 6.27982 0
M  V30 3829 N 348.832 -1.54138 -0.328536 0
M  V30 3830 C 350.248 -1.44736 -0.672574 0
M  V30 3831 C 350.448 -0.616217 -1.91846 0
M  V30 3832 O 349.504 -0.113067 -2.52247 0
M  V30 3833 C 350.817 -2.884 -0.851217 0
M  V30 3834 C 352.365 -2.98271 -0.948877 0
M  V30 3835 C 352.84 -4.43074 -1.15973 0
M  V30 3836 N 354.331 -4.46665 -1.22658 0
M  V30 3837 C 355.066 -5.55857 -1.40751 0
M  V30 3838 N 354.562 -6.75026 -1.5592 0
M  V30 3839 N 356.355 -5.43495 -1.4342 0
M  V30 3840 H 348.506 -2.06661 0.490421 0
M  V30 3841 H 350.769 -0.934812 0.157579 0
M  V30 3842 H 350.475 -3.51699 -0.00704236 0
M  V30 3843 H 350.349 -3.34225 -1.74853 0
M  V30 3844 H 352.736 -2.35102 -1.78356 0
M  V30 3845 H 352.817 -2.55785 -0.0281435 0
M  V30 3846 H 352.461 -5.06827 -0.329915 0
M  V30 3847 H 352.391 -4.83165 -2.09426 0
M  V30 3848 H 354.882 -3.60797 -1.124 0
M  V30 3849 H 355.195 -7.54004 -1.69404 0
M  V30 3850 H 353.54 -6.77944 -1.53027 0
M  V30 3851 H 356.731 -4.49349 -1.31162 0
M  V30 3852 H 356.904 -6.28649 -1.57178 0
M  V30 3853 N 350.31 0.590341 -1.46126 0
M  V30 3854 C 351.54 1.37304 -1.54373 0
M  V30 3855 C 351.948 1.88332 -0.181071 0
M  V30 3856 O 351.291 1.63852 0.830559 0
M  V30 3857 C 351.353 2.6012 -2.48149 0
M  V30 3858 C 351.017 2.30613 -3.94546 0
M  V30 3859 C 352.014 1.89915 -4.83971 0
M  V30 3860 C 349.699 2.42993 -4.39613 0
M  V30 3861 C 351.693 1.61981 -6.16475 0
M  V30 3862 C 349.38 2.14672 -5.72153 0
M  V30 3863 C 350.378 1.7423 -6.60404 0
M  V30 3864 O 350.066 1.46251 -7.90485 0
M  V30 3865 H 349.798 0.426086 -0.524811 0
M  V30 3866 H 352.352 0.72539 -1.92165 0
M  V30 3867 H 350.582 3.27664 -2.05361 0
M  V30 3868 H 352.271 3.22182 -2.46887 0
M  V30 3869 H 353.037 1.79872 -4.50412 0
M  V30 3870 H 348.916 2.73435 -3.71153 0
M  V30 3871 H 352.46 1.30341 -6.85315 0
M  V30 3872 H 348.357 2.24337 -6.05263 0
M  V30 3873 H 349.125 1.6016 -8.02677 0
M  V30 3874 N 351.788 1.33704 0.83433 0
M  V30 3875 C 352.718 1.26967 1.95963 0
M  V30 3876 C 353.699 0.149337 1.69443 0
M  V30 3877 O 354.884 0.339852 1.91203 0
M  V30 3878 C 352.014 1.01275 3.32206 0
M  V30 3879 C 350.968 2.09652 3.73136 0
M  V30 3880 C 350.294 1.69166 5.07235 0
M  V30 3881 C 351.594 3.51372 3.86439 0
M  V30 3882 H 353.288 2.2112 2.01857 0
M  V30 3883 H 350.834 1.06447 0.969793 0
M  V30 3884 H 352.787 0.952106 4.10503 0
M  V30 3885 H 351.511 0.0356203 3.26581 0
M  V30 3886 H 350.17 2.14766 2.97104 0
M  V30 3887 H 349.818 0.701437 4.98085 0
M  V30 3888 H 349.518 2.41694 5.35591 0
M  V30 3889 H 351.042 1.64576 5.88003 0
M  V30 3890 H 352.456 3.48734 4.55036 0
M  V30 3891 H 350.853 4.22425 4.26236 0
M  V30 3892 H 351.923 3.89546 2.88759 0
M  V30 3893 N 353.266 -1.05314 1.17247 0
M  V30 3894 C 354.512 -1.78557 0.961513 0
M  V30 3895 C 354.845 -1.87419 -0.508697 0
M  V30 3896 O 354.12 -1.37307 -1.37757 0
M  V30 3897 C 354.403 -3.22514 1.60176 0
M  V30 3898 C 354.256 -3.21673 3.14399 0
M  V30 3899 C 355.575 -4.20318 1.30463 0
M  V30 3900 H 352.694 -0.6482 0.350723 0
M  V30 3901 H 355.336 -1.23102 1.44727 0
M  V30 3902 H 353.486 -3.69867 1.18871 0
M  V30 3903 H 355.158 -2.82405 3.64753 0
M  V30 3904 H 353.401 -2.60048 3.47214 0
M  V30 3905 H 354.072 -4.23271 3.54324 0
M  V30 3906 H 356.548 -3.81454 1.66229 0
M  V30 3907 H 355.424 -5.19289 1.77848 0
M  V30 3908 H 355.685 -4.41526 0.22521 0
M  V30 3909 N 354.744 -0.972509 -1.24016 0
M  V30 3910 C 356.155 -0.67517 -1.74064 0
M  V30 3911 C 356.506 0.808939 -1.78747 0
M  V30 3912 O 355.631 1.63286 -1.42009 0
M  V30 3913 C 356.226 -1.21889 -3.16115 0
M  V30 3914 C 354.785 -0.971358 -3.6365 0
M  V30 3915 C 353.932 -1.35134 -2.42145 0
M  V30 3916 H 356.883 -1.14727 -1.09651 0
M  V30 3917 H 356.904 -0.587489 -3.75937 0
M  V30 3918 H 356.416 -2.29906 -3.12674 0
M  V30 3919 H 354.517 0.0930686 -3.72484 0
M  V30 3920 H 354.63 -1.62039 -4.50866 0
M  V30 3921 H 352.994 -0.769751 -2.4279 0
M  V30 3922 H 353.777 -2.4411 -2.41381 0
M  V30 3923 N 356.222 1.38976 -0.743202 0
M  V30 3924 C 357.499 1.94351 -0.220705 0
M  V30 3925 C 357.879 1.67935 1.2791 0
M  V30 3926 O 357.227 1.01211 2.04862 0
M  V30 3927 C 357.437 3.44426 -0.563171 0
M  V30 3928 C 358.785 4.2144 -0.517046 0
M  V30 3929 O 359.809 3.52661 -0.500846 0
M  V30 3930 O 358.668 5.44032 -0.518806 0
M  V30 3931 H 355.762 0.825879 -0.043047 0
M  V30 3932 H 358.308 1.48429 -0.822618 0
M  V30 3933 H 357.08 3.5712 -1.59941 0
M  V30 3934 H 356.703 3.97543 0.0672883 0
M  V30 3935 N 357.7 0.491464 1.49741 0
M  V30 3936 C 358.63 -0.28154 2.31796 0
M  V30 3937 C 359.611 -0.971473 1.3963 0
M  V30 3938 O 360.796 -0.964719 1.68543 0
M  V30 3939 C 357.926 -1.35203 3.19902 0
M  V30 3940 C 356.88 -0.782529 4.20786 0
M  V30 3941 C 356.206 -1.95283 4.97764 0
M  V30 3942 C 357.506 0.21999 5.21837 0
M  V30 3943 H 359.2 0.403355 2.96671 0
M  V30 3944 H 356.746 0.195425 1.42668 0
M  V30 3945 H 358.699 -1.90045 3.76113 0
M  V30 3946 H 357.423 -2.06598 2.52953 0
M  V30 3947 H 356.082 -0.255928 3.65706 0
M  V30 3948 H 355.73 -2.65423 4.2727 0
M  V30 3949 H 355.43 -1.57789 5.66018 0
M  V30 3950 H 356.954 -2.50577 5.56816 0
M  V30 3951 H 358.368 -0.23996 5.72798 0
M  V30 3952 H 356.765 0.51026 5.97927 0
M  V30 3953 H 357.835 1.13911 4.7133 0
M  V30 3954 N 359.178 -1.55987 0.224894 0
M  V30 3955 C 360.424 -1.98684 -0.406502 0
M  V30 3956 C 360.757 -1.11248 -1.59177 0
M  V30 3957 O 360.032 -0.170909 -1.93748 0
M  V30 3958 C 360.315 -3.50218 -0.837808 0
M  V30 3959 C 360.168 -4.48426 0.351332 0
M  V30 3960 C 361.487 -4.06243 -1.69278 0
M  V30 3961 H 358.606 -0.722337 -0.146283 0
M  V30 3962 H 361.248 -1.87255 0.321799 0
M  V30 3963 H 359.398 -3.60089 -1.45837 0
M  V30 3964 H 361.07 -4.50562 0.989526 0
M  V30 3965 H 359.313 -4.22159 0.998207 0
M  V30 3966 H 359.984 -5.52 0.00655905 0
M  V30 3967 H 362.46 -3.99337 -1.16914 0
M  V30 3968 H 361.336 -5.12581 -1.96346 0
M  V30 3969 H 361.597 -3.53332 -2.65723 0
M  V30 3970 N 360.656 0.0484629 -1.57525 0
M  V30 3971 C 361.588 1.08222 -2.02041 0
M  V30 3972 C 362.601 1.33621 -0.930012 0
M  V30 3973 O 363.79 1.3145 -1.20761 0
M  V30 3974 C 360.89 2.42818 -2.36416 0
M  V30 3975 C 360.063 2.37049 -3.67596 0
M  V30 3976 C 359.122 3.53937 -3.89378 0
M  V30 3977 O 358.148 3.34308 -4.60681 0
M  V30 3978 N 359.35 4.75126 -3.3352 0
M  V30 3979 H 362.115 0.702946 -2.9134 0
M  V30 3980 H 359.676 0.236745 -1.6016 0
M  V30 3981 H 361.668 3.197 -2.48141 0
M  V30 3982 H 360.238 2.72661 -1.52888 0
M  V30 3983 H 359.458 1.45395 -3.66407 0
M  V30 3984 H 360.746 2.30318 -4.53686 0
M  V30 3985 H 360.144 4.93976 -2.75688 0
M  V30 3986 H 358.701 5.49439 -3.50656 0
M  V30 3987 N 362.134 1.5431 0.320358 0
M  V30 3988 C 363.044 1.86946 1.41734 0
M  V30 3989 C 364.06 0.761689 1.56443 0
M  V30 3990 O 365.236 1.05629 1.71477 0
M  V30 3991 C 362.301 2.09293 2.76401 0
M  V30 3992 C 361.362 3.33082 2.70841 0
M  V30 3993 C 360.595 3.54353 3.99086 0
M  V30 3994 O 360.818 2.79002 4.97508 0
M  V30 3995 O 359.752 4.47838 4.0215 0
M  V30 3996 H 363.578 2.80232 1.17062 0
M  V30 3997 H 361.163 1.40255 0.514673 0
M  V30 3998 H 363.045 2.25303 3.56113 0
M  V30 3999 H 361.72 1.19194 3.00956 0
M  V30 4000 H 360.627 3.22454 1.89668 0
M  V30 4001 H 361.96 4.23249 2.5124 0
M  V30 4002 N 363.613 -0.582584 1.46437 0
M  V30 4003 C 364.843 -1.36484 1.55099 0
M  V30 4004 C 365.251 -1.88233 0.191056 0
M  V30 4005 O 364.594 -1.6429 -0.821858 0
M  V30 4006 C 364.656 -2.588 2.49525 0
M  V30 4007 C 364.32 -2.28517 3.95764 0
M  V30 4008 C 365.317 -1.87346 4.84972 0
M  V30 4009 C 363.002 -2.40658 4.40896 0
M  V30 4010 C 364.996 -1.5871 6.17325 0
M  V30 4011 C 362.683 -2.11635 5.73284 0
M  V30 4012 C 363.681 -1.70725 6.61318 0
M  V30 4013 O 363.369 -1.42057 7.91249 0
M  V30 4014 H 363.101 -0.423297 0.527063 0
M  V30 4015 H 365.655 -0.715188 1.92547 0
M  V30 4016 H 363.885 -3.26571 2.07095 0
M  V30 4017 H 365.574 -3.20868 2.48593 0
M  V30 4018 H 366.34 -1.77481 4.5136 0
M  V30 4019 H 362.219 -2.71463 3.72598 0
M  V30 4020 H 365.763 -1.26704 6.85997 0
M  V30 4021 H 361.66 -2.21124 6.06444 0
M  V30 4022 H 362.428 -1.55901 8.03515 0
M  V30 4023 N 365.091 -1.34144 -0.827227 0
M  V30 4024 C 366.34 -1.25602 -1.5782 0
M  V30 4025 C 366.653 0.173445 -1.94829 0
M  V30 4026 O 367.859 0.380984 -2.68814 0
M  V30 4027 C 366.315 -2.20151 -2.84713 0
M  V30 4028 C 365.923 -3.68331 -2.55021 0
M  V30 4029 C 367.667 -2.20508 -3.62735 0
M  V30 4030 C 365.574 -4.54762 -3.78082 0
M  V30 4031 H 364.504 -0.466573 -0.592306 0
M  V30 4032 H 367.155 -1.59283 -0.911116 0
M  V30 4033 H 365.537 -1.79417 -3.53023 0
M  V30 4034 H 366.711 -4.17577 -1.94849 0
M  V30 4035 H 365.026 -3.7038 -1.90283 0
M  V30 4036 H 367.623 -2.82306 -4.54101 0
M  V30 4037 H 367.966 -1.20322 -3.98533 0
M  V30 4038 H 368.499 -2.59664 -3.01362 0
M  V30 4039 H 365.238 -5.55867 -3.47407 0
M  V30 4040 H 364.758 -4.10254 -4.37552 0
M  V30 4041 H 366.437 -4.69153 -4.45538 0
M  V30 4042 N 366.569 1.04691 -1.17803 0
M  V30 4043 C 367.479 2.16057 -0.914151 0
M  V30 4044 C 368.495 1.73589 0.119503 0
M  V30 4045 O 369.671 2.01308 -0.0609468 0
M  V30 4046 C 366.736 3.4394 -0.436603 0
M  V30 4047 C 365.797 4.00825 -1.53746 0
M  V30 4048 C 365.03 5.22604 -1.0826 0
M  V30 4049 O 365.253 5.70367 0.0612244 0
M  V30 4050 O 364.187 5.7186 -1.87775 0
M  V30 4051 H 368.013 2.41169 -1.84584 0
M  V30 4052 H 365.598 1.1453 -0.959334 0
M  V30 4053 H 367.48 4.21024 -0.178057 0
M  V30 4054 H 366.155 3.20316 0.466869 0
M  V30 4055 H 365.062 3.25158 -1.84995 0
M  V30 4056 H 366.395 4.28778 -2.41683 0
M  V30 4057 N 368.047 0.979072 1.23499 0
M  V30 4058 C 368.994 0.517904 2.24914 0
M  V30 4059 C 369.964 -0.442525 1.60097 0
M  V30 4060 O 371.149 -0.350365 1.87556 0
M  V30 4061 C 368.289 -0.174813 3.44657 0
M  V30 4062 C 367.402 0.825721 4.24035 0
M  V30 4063 C 366.537 0.107946 5.3109 0
M  V30 4064 C 365.576 1.09778 6.02175 0
M  V30 4065 N 364.713 0.40925 7.00906 0
M  V30 4066 H 369.553 1.38751 2.63727 0
M  V30 4067 H 367.09 0.695303 1.2963 0
M  V30 4068 H 369.048 -0.593233 4.12961 0
M  V30 4069 H 367.678 -1.0083 3.06648 0
M  V30 4070 H 366.73 1.36253 3.55161 0
M  V30 4071 H 368.042 1.58005 4.73113 0
M  V30 4072 H 367.196 -0.367904 6.05583 0
M  V30 4073 H 365.935 -0.678994 4.8295 0
M  V30 4074 H 364.94 1.5844 5.26476 0
M  V30 4075 H 366.165 1.88536 6.52404 0
M  V30 4076 H 364.111 -0.358506 6.5502 0
M  V30 4077 H 364.028 1.10226 7.47921 0
M  V30 4078 H 365.296 -0.0442557 7.79487 0
M  V30 4079 N 369.525 -1.3858 0.750561 0
M  V30 4080 C 370.475 -2.27795 0.0965949 0
M  V30 4081 C 371.459 -1.45048 -0.696411 0
M  V30 4082 O 372.651 -1.67812 -0.562863 0
M  V30 4083 C 369.78 -3.33894 -0.798085 0
M  V30 4084 C 368.866 -4.241 0.0016067 0
M  V30 4085 N 369.257 -4.95067 1.03647 0
M  V30 4086 C 367.555 -4.45429 -0.225674 0
M  V30 4087 C 368.256 -5.61489 1.52004 0
M  V30 4088 N 367.232 -5.37135 0.835874 0
M  V30 4089 H 371.034 -2.80125 0.889228 0
M  V30 4090 H 368.548 -1.51446 0.586323 0
M  V30 4091 H 370.545 -3.96693 -1.28219 0
M  V30 4092 H 369.205 -2.83123 -1.5897 0
M  V30 4093 H 370.216 -4.98104 1.41819 0
M  V30 4094 H 366.893 -4.05571 -0.990872 0
M  V30 4095 H 368.283 -6.28264 2.38188 0
M  V30 4096 N 371.003 -0.499398 -1.49478 0
M  V30 4097 C 371.951 0.293604 -2.3074 0
M  V30 4098 C 372.945 0.96427 -1.39277 0
M  V30 4099 O 374.151 0.892141 -1.56336 0
M  V30 4100 H 370.526 0.113541 -0.743379 0
M  V30 4101 H 372.497 -0.411772 -2.95545 0
M  V30 4102 C 371.246 1.3462 -3.20582 0
M  V30 4103 H 370.569 0.83954 -3.90886 0
M  V30 4104 H 372.009 1.87308 -3.80384 0
M  V30 4105 C 370.468 2.36351 -2.40083 0
M  V30 4106 O 370.998 3.422 -2.10385 0
M  V30 4107 N 369.204 2.0878 -2.02137 0
M  V30 4108 H 368.751 1.22723 -2.26488 0
M  V30 4109 H 368.709 2.77075 -1.48583 0
M  V30 4110 N 372.481 1.55866 -0.233164 0
M  V30 4111 C 373.411 2.23783 0.666599 0
M  V30 4112 C 374.392 1.21343 1.19205 0
M  V30 4113 O 375.577 1.4996 1.23392 0
M  V30 4114 C 372.707 2.92671 1.86978 0
M  V30 4115 C 371.661 4.01682 1.47768 0
M  V30 4116 C 370.987 4.57926 2.76058 0
M  V30 4117 C 372.287 5.18126 0.658993 0
M  V30 4118 H 373.981 2.99232 0.100306 0
M  V30 4119 H 371.527 1.43924 0.046804 0
M  V30 4120 H 373.48 3.3888 2.50476 0
M  V30 4121 H 372.204 2.14688 2.46123 0
M  V30 4122 H 370.863 3.56222 0.866106 0
M  V30 4123 H 370.511 3.76659 3.33372 0
M  V30 4124 H 370.211 5.31505 2.50552 0
M  V30 4125 H 371.735 5.06859 3.40479 0
M  V30 4126 H 373.149 5.60644 1.19795 0
M  V30 4127 H 371.546 5.98009 0.500552 0
M  V30 4128 H 372.616 4.83763 -0.331856 0
M  V30 4129 N 373.959 -0.0401083 1.57549 0
M  V30 4130 C 375.189 -0.744115 1.92734 0
M  V30 4131 C 375.597 -1.70005 0.830348 0
M  V30 4132 O 374.94 -1.82576 -0.20286 0
M  V30 4133 C 375.002 -1.56516 3.2364 0
M  V30 4134 C 374.666 -0.7752 4.50377 0
M  V30 4135 C 375.663 -0.0803326 5.19838 0
M  V30 4136 C 373.348 -0.733002 4.96923 0
M  V30 4137 C 375.342 0.646154 6.34116 0
M  V30 4138 C 373.029 -0.00276321 6.111 0
M  V30 4139 C 374.027 0.685585 6.7955 0
M  V30 4140 O 373.715 1.40399 7.91545 0
M  V30 4141 H 373.447 -0.214861 0.640945 0
M  V30 4142 H 376.001 -0.00503675 2.05399 0
M  V30 4143 H 374.231 -2.3478 3.07271 0
M  V30 4144 H 375.92 -2.15076 3.44234 0
M  V30 4145 H 376.686 -0.104035 4.84888 0
M  V30 4146 H 372.565 -1.25827 4.43496 0
M  V30 4147 H 376.109 1.18398 6.87479 0
M  V30 4148 H 372.006 0.0229012 6.45496 0
M  V30 4149 H 372.774 1.31653 8.07843 0
M  V30 4150 N 375.437 -1.54477 -0.31217 0
M  V30 4151 C 376.662 -1.77526 -1.07235 0
M  V30 4152 C 377.087 -0.527775 -1.80544 0
M  V30 4153 O 376.445 0.52121 -1.73646 0
M  V30 4154 C 376.493 -2.97535 -2.03728 0
M  V30 4155 O 375.597 -2.69878 -3.11833 0
M  V30 4156 H 374.938 -0.58792 -0.30862 0
M  V30 4157 H 377.468 -2.01532 -0.352993 0
M  V30 4158 H 377.478 -3.25198 -2.46395 0
M  V30 4159 H 376.153 -3.87996 -1.49774 0
M  V30 4160 H 374.73 -2.53199 -2.7376 0
M  V30 4161 N 376.915 0.57481 -1.46744 0
M  V30 4162 C 378.14 1.36341 -1.56288 0
M  V30 4163 C 378.565 1.86954 -0.207347 0
M  V30 4164 O 377.923 1.62006 0.813871 0
M  V30 4165 C 377.971 2.52147 -2.57787 0
M  V30 4166 O 377.075 3.53834 -2.11838 0
M  V30 4167 H 376.416 0.405713 -0.525636 0
M  V30 4168 H 378.946 0.696453 -1.92382 0
M  V30 4169 H 378.956 2.98958 -2.77648 0
M  V30 4170 H 377.631 2.14663 -3.5622 0
M  V30 4171 H 376.208 3.1345 -2.01999 0
M  V30 4172 N 378.394 1.34581 0.820102 0
M  V30 4173 C 379.304 1.28471 1.96297 0
M  V30 4174 C 380.32 0.191902 1.72939 0
M  V30 4175 O 381.496 0.418879 1.96996 0
M  V30 4176 C 378.561 1.04281 3.30645 0
M  V30 4177 C 377.622 2.22745 3.66992 0
M  V30 4178 C 376.855 1.997 4.9493 0
M  V30 4179 O 377.078 0.956656 5.6232 0
M  V30 4180 O 376.012 2.86723 5.2922 0
M  V30 4181 H 379.838 2.24624 2.04396 0
M  V30 4182 H 377.423 1.14816 0.955913 0
M  V30 4183 H 379.305 0.925841 4.11104 0
M  V30 4184 H 377.98 0.111697 3.23507 0
M  V30 4185 H 376.887 2.40003 2.86966 0
M  V30 4186 H 378.22 3.14257 3.78819 0
M  V30 4187 N 379.872 -1.04064 1.18357 0
M  V30 4188 C 381.097 -1.81454 1.00445 0
M  V30 4189 C 381.522 -1.82823 -0.442423 0
M  V30 4190 O 380.88 -1.24555 -1.31741 0
M  V30 4191 C 380.928 -3.24925 1.56384 0
M  V30 4192 O 380.032 -4.04856 0.785209 0
M  V30 4193 H 379.373 -0.560604 0.355835 0
M  V30 4194 H 381.903 -1.31059 1.57114 0
M  V30 4195 H 381.913 -3.75702 1.59097 0
M  V30 4196 H 380.588 -3.23244 2.61699 0
M  V30 4197 H 379.165 -3.63537 0.830399 0
M  V30 4198 N 381.35 -0.985608 -1.22978 0
M  V30 4199 C 382.26 -0.538548 -2.28335 0
M  V30 4200 C 383.276 0.409163 -1.69121 0
M  V30 4201 O 384.452 0.277797 -1.99475 0
M  V30 4202 C 381.517 0.146867 -3.46389 0
M  V30 4203 C 380.578 -0.842896 -4.20944 0
M  V30 4204 C 379.811 -0.190095 -5.33361 0
M  V30 4205 O 380.034 1.01767 -5.61248 0
M  V30 4206 O 378.968 -0.891289 -5.95264 0
M  V30 4207 H 382.794 -1.41487 -2.68729 0
M  V30 4208 H 380.379 -0.753495 -1.29007 0
M  V30 4209 H 382.261 0.531125 -4.1804 0
M  V30 4210 H 380.936 0.997871 -3.07935 0
M  V30 4211 H 379.843 -1.27795 -3.51595 0
M  V30 4212 H 381.176 -1.66287 -4.6326 0
M  V30 4213 N 382.828 1.3818 -0.7579 0
M  V30 4214 C 384.105 1.94106 -0.241306 0
M  V30 4215 C 384.485 1.69282 1.26122 0
M  V30 4216 O 383.833 1.03378 2.03777 0
M  V30 4217 C 384.043 3.43809 -0.59967 0
M  V30 4218 C 385.391 4.20868 -0.561717 0
M  V30 4219 O 386.415 3.5211 -0.538222 0
M  V30 4220 O 385.274 5.43451 -0.576478 0
M  V30 4221 H 382.368 0.825376 -0.0518042 0
M  V30 4222 H 384.914 1.47548 -0.838315 0
M  V30 4223 H 383.686 3.55403 -1.6372 0
M  V30 4224 H 383.309 3.97592 0.0251197 0
M  V30 4225 N 384.306 0.507319 1.49211 0
M  V30 4226 C 385.722 0.163682 1.58758 0
M  V30 4227 C 385.922 -1.33208 1.51188 0
M  V30 4228 O 384.978 -2.10855 1.38911 0
M  V30 4229 C 386.291 0.746095 2.91297 0
M  V30 4230 C 387.839 0.712773 3.04776 0
M  V30 4231 C 388.314 1.27336 4.39943 0
M  V30 4232 N 389.805 1.23433 4.46451 0
M  V30 4233 C 390.54 1.63821 5.495 0
M  V30 4234 N 390.036 2.11832 6.5962 0
M  V30 4235 N 391.829 1.55198 5.4025 0
M  V30 4236 H 383.98 1.47972 1.52375 0
M  V30 4237 H 386.243 0.614147 0.722168 0
M  V30 4238 H 385.949 1.79534 3.02424 0
M  V30 4239 H 385.823 0.210137 3.76614 0
M  V30 4240 H 388.21 -0.327656 2.93275 0
M  V30 4241 H 388.291 1.28595 2.21127 0
M  V30 4242 H 387.935 2.3126 4.52196 0
M  V30 4243 H 387.865 0.676066 5.22242 0
M  V30 4244 H 390.356 0.882627 3.67448 0
M  V30 4245 H 390.669 2.40703 7.34358 0
M  V30 4246 H 389.014 2.1581 6.60644 0
M  V30 4247 H 392.205 1.17505 4.53112 0
M  V30 4248 H 392.378 1.86997 6.20432 0
M  V30 4249 N 385.784 -1.5574 0.241426 0
M  V30 4250 C 386.732 -2.22538 -0.676718 0
M  V30 4251 C 387.726 -1.21117 -1.18436 0
M  V30 4252 O 388.932 -1.39144 -1.14188 0
M  V30 4253 H 385.307 -0.713776 -0.236701 0
M  V30 4254 H 387.278 -2.98264 -0.0901187 0
M  V30 4255 C 386.027 -2.93439 -1.86518 0
M  V30 4256 H 385.35 -3.7125 -1.4837 0
M  V30 4257 H 386.79 -3.43549 -2.48495 0
M  V30 4258 C 385.249 -1.97008 -2.73294 0
M  V30 4259 O 385.779 -1.49965 -3.72657 0
M  V30 4260 N 383.985 -1.64227 -2.39745 0
M  V30 4261 H 383.532 -2.02677 -1.58996 0
M  V30 4262 H 383.49 -0.999708 -2.98083 0
M  V30 4263 N 387.262 0.0317525 -1.57568 0
M  V30 4264 C 388.225 1.01783 -2.0536 0
M  V30 4265 C 389.225 1.29203 -0.957253 0
M  V30 4266 O 390.415 1.24251 -1.22095 0
M  V30 4267 C 387.547 2.35137 -2.46827 0
M  V30 4268 H 388.74 0.605062 -2.93733 0
M  V30 4269 H 386.293 0.278514 -1.53799 0
M  V30 4270 H 387.028 2.81168 -1.61602 0
M  V30 4271 H 386.813 2.16566 -3.26866 0
M  V30 4272 H 388.303 3.05938 -2.84239 0
M  V30 4273 N 388.74 1.54641 0.303973 0
M  V30 4274 C 389.988 1.73437 1.0375 0
M  V30 4275 C 390.309 0.521449 1.87899 0
M  V30 4276 O 389.579 -0.46432 1.90318 0
M  V30 4277 H 388.159 0.639518 0.386039 0
M  V30 4278 H 390.821 1.91988 0.335675 0
M  V30 4279 H 389.917 2.62235 1.69231 0
M  V30 4280 N 390.218 -0.567019 1.47046 0
M  V30 4281 C 391.464 -1.32658 1.53394 0
M  V30 4282 C 391.797 -1.93254 0.19148 0
M  V30 4283 O 391.072 -1.77338 -0.798844 0
M  V30 4284 C 391.355 -2.44412 2.64452 0
M  V30 4285 C 391.208 -1.88749 4.08282 0
M  V30 4286 C 392.527 -3.46387 2.71485 0
M  V30 4287 H 389.646 -0.48098 0.558415 0
M  V30 4288 H 392.288 -0.635481 1.79058 0
M  V30 4289 H 390.438 -3.03363 2.427 0
M  V30 4290 H 392.11 -1.34134 4.41368 0
M  V30 4291 H 390.353 -1.19481 4.17021 0
M  V30 4292 H 391.024 -2.69491 4.81745 0
M  V30 4293 H 393.5 -2.9734 2.91081 0
M  V30 4294 H 392.376 -4.2202 3.50985 0
M  V30 4295 H 392.637 -4.04616 1.78153 0
M  V30 4296 N 391.696 -1.35014 -0.812953 0
M  V30 4297 C 392.945 -1.27269 -1.56479 0
M  V30 4298 C 393.258 0.152771 -1.95002 0
M  V30 4299 O 394.464 0.352451 -2.69203 0
M  V30 4300 C 392.92 -2.23159 -2.82362 0
M  V30 4301 C 392.528 -3.71016 -2.511 0
M  V30 4302 C 394.272 -2.24342 -3.60376 0
M  V30 4303 C 392.179 -4.58746 -3.73237 0
M  V30 4304 H 391.109 -0.472829 -0.587324 0
M  V30 4305 H 393.76 -1.6024 -0.894171 0
M  V30 4306 H 392.142 -1.83151 -3.51101 0
M  V30 4307 H 393.316 -4.1962 -1.90409 0
M  V30 4308 H 391.631 -3.72378 -1.86343 0
M  V30 4309 H 394.228 -2.87107 -4.51081 0
M  V30 4310 H 394.571 -1.24542 -3.97234 0
M  V30 4311 H 395.104 -2.62846 -2.98591 0
M  V30 4312 H 391.843 -5.59521 -3.41492 0
M  V30 4313 H 391.363 -4.14871 -4.33176 0
M  V30 4314 H 393.042 -4.73852 -4.40537 0
M  V30 4315 N 393.175 1.03435 -1.18907 0
M  V30 4316 C 394.105 2.13503 -0.945448 0
M  V30 4317 C 395.086 1.69682 0.119189 0
M  V30 4318 O 396.271 1.94169 -0.034707 0
M  V30 4319 C 393.401 3.44004 -0.477316 0
M  V30 4320 C 392.355 4.0148 -1.48316 0
M  V30 4321 C 391.681 5.27537 -0.872311 0
M  V30 4322 C 392.981 4.36921 -2.86177 0
M  V30 4323 H 394.675 2.34141 -1.86597 0
M  V30 4324 H 392.221 1.12523 -0.898584 0
M  V30 4325 H 394.174 4.20372 -0.294204 0
M  V30 4326 H 392.898 3.23072 0.478786 0
M  V30 4327 H 391.557 3.27201 -1.65332 0
M  V30 4328 H 391.205 5.02917 0.0911752 0
M  V30 4329 H 390.905 5.66954 -1.54393 0
M  V30 4330 H 392.429 6.06576 -0.699871 0
M  V30 4331 H 393.843 5.04248 -2.72776 0
M  V30 4332 H 392.24 4.87405 -3.50081 0
M  V30 4333 H 393.31 3.46466 -3.39248 0
M  V30 4334 N 394.653 0.992116 1.22453 0
M  V30 4335 C 395.616 0.546883 2.2258 0
M  V30 4336 C 396.616 -0.369829 1.56489 0
M  V30 4337 O 397.806 -0.161896 1.73446 0
M  V30 4338 C 394.938 -0.204659 3.40285 0
M  V30 4339 H 396.131 1.43234 2.63484 0
M  V30 4340 H 393.684 0.779239 1.3549 0
M  V30 4341 H 394.419 -1.10614 3.04853 0
M  V30 4342 H 394.204 0.45354 3.89468 0
M  V30 4343 H 395.694 -0.504358 4.14543 0
M  V30 4344 N 396.131 -1.37776 0.765217 0
M  V30 4345 C 397.542 -1.82521 0.392819 0
M  V30 4346 C 397.893 -1.63789 -1.08017 0
M  V30 4347 O 397.018 -1.14542 -1.83601 0
M  V30 4348 C 397.613 -3.31358 0.706214 0
M  V30 4349 C 396.172 -3.74406 0.386952 0
M  V30 4350 C 395.319 -2.60394 0.953422 0
M  V30 4351 H 398.27 -1.2634 0.960412 0
M  V30 4352 H 398.291 -3.80498 -0.0114706 0
M  V30 4353 H 397.803 -3.44959 1.77833 0
M  V30 4354 H 395.904 -3.66377 -0.678112 0
M  V30 4355 H 396.017 -4.70749 0.890636 0
M  V30 4356 H 394.381 -2.51878 0.378064 0
M  V30 4357 H 395.164 -2.76791 2.03081 0
M  V30 4358 N 397.609 -0.515225 -1.4894 0
M  V30 4359 C 398.539 0.244628 -2.32215 0
M  V30 4360 C 399.52 0.949136 -1.41157 0
M  V30 4361 O 400.705 0.937783 -1.70057 0
M  V30 4362 C 397.835 1.30096 -3.22013 0
M  V30 4363 C 396.789 0.715486 -4.21977 0
M  V30 4364 C 396.115 1.87339 -5.00808 0
M  V30 4365 C 397.415 -0.302982 -5.2142 0
M  V30 4366 H 399.109 -0.450501 -2.95991 0
M  V30 4367 H 396.655 -0.218098 -1.42339 0
M  V30 4368 H 398.608 1.84037 -3.79089 0
M  V30 4369 H 397.332 2.02547 -2.56207 0
M  V30 4370 H 395.991 0.197715 -3.66066 0
M  V30 4371 H 395.639 2.58592 -4.31438 0
M  V30 4372 H 395.339 1.48764 -5.68457 0
M  V30 4373 H 396.863 2.41686 -5.60732 0
M  V30 4374 H 398.277 0.148802 -5.73107 0
M  V30 4375 H 396.674 -0.60532 -5.97039 0
M  V30 4376 H 397.744 -1.21395 -4.69459 0
M  V30 4377 N 399.087 1.5561 -0.249682 0
M  V30 4378 C 400.019 2.18834 0.681496 0
M  V30 4379 C 401.032 1.16546 1.1367 0
M  V30 4380 O 402.221 1.43397 1.06299 0
M  V30 4381 C 399.321 2.77992 1.9384 0
M  V30 4382 C 398.494 4.05725 1.63419 0
M  V30 4383 C 397.553 4.49174 2.74096 0
M  V30 4384 O 396.579 5.15492 2.41364 0
M  V30 4385 N 397.781 4.17191 4.03649 0
M  V30 4386 H 400.546 2.9937 0.140514 0
M  V30 4387 H 398.107 1.6175 -0.0697541 0
M  V30 4388 H 400.099 3.04015 2.67127 0
M  V30 4389 H 398.669 2.01596 2.38909 0
M  V30 4390 H 397.889 3.87261 0.736358 0
M  V30 4391 H 399.177 4.88999 1.40562 0
M  V30 4392 H 398.575 3.63955 4.33074 0
M  V30 4393 H 397.132 4.48043 4.73393 0
M  V30 4394 N 400.565 -0.0233959 1.57583 0
M  V30 4395 C 401.981 -0.379134 1.55031 0
M  V30 4396 C 402.181 -1.76255 0.976548 0
M  V30 4397 O 401.237 -2.45266 0.600078 0
M  V30 4398 C 402.55 -0.275792 2.99433 0
M  V30 4399 C 404.098 -0.352458 3.11009 0
M  V30 4400 C 404.573 -0.278501 4.57152 0
M  V30 4401 N 406.064 -0.337123 4.61972 0
M  V30 4402 C 406.799 -0.302876 5.726 0
M  V30 4403 N 406.295 -0.220589 6.92449 0
M  V30 4404 N 408.088 -0.353023 5.6099 0
M  V30 4405 H 400.239 0.881869 1.93227 0
M  V30 4406 H 402.502 0.335867 0.886509 0
M  V30 4407 H 402.208 0.675108 3.4516 0
M  V30 4408 H 402.082 -1.06721 3.61788 0
M  V30 4409 H 404.469 -1.29379 2.65226 0
M  V30 4410 H 404.55 0.468409 2.51475 0
M  V30 4411 H 404.194 0.659189 5.03604 0
M  V30 4412 H 404.124 -1.11755 5.14605 0
M  V30 4413 H 406.615 -0.403002 3.75745 0
M  V30 4414 H 406.928 -0.199713 7.72542 0
M  V30 4415 H 405.273 -0.186555 6.9475 0
M  V30 4416 H 408.464 -0.415339 4.66254 0
M  V30 4417 H 408.637 -0.322866 6.47195 0
M  V30 4418 N 402.043 -1.548 -0.295768 0
M  V30 4419 C 402.991 -1.86874 -1.38495 0
M  V30 4420 C 403.985 -0.742938 -1.52239 0
M  V30 4421 O 405.191 -0.926999 -1.54294 0
M  V30 4422 H 401.566 -0.592786 -0.462719 0
M  V30 4423 H 403.537 -2.77904 -1.08682 0
M  V30 4424 C 402.286 -2.13732 -2.74252 0
M  V30 4425 H 401.609 -2.99835 -2.64459 0
M  V30 4426 H 403.049 -2.4011 -3.49461 0
M  V30 4427 C 401.508 -0.937539 -3.23592 0
M  V30 4428 O 402.038 -0.160665 -4.01379 0
M  V30 4429 N 400.244 -0.741478 -2.80981 0
M  V30 4430 H 399.791 -1.37489 -2.1784 0
M  V30 4431 H 399.749 0.0597103 -3.14343 0
M  V30 4432 N 403.521 0.559213 -1.47345 0
M  V30 4433 C 404.749 1.34194 -1.57479 0
M  V30 4434 C 405.164 1.87463 -0.224261 0
M  V30 4435 O 404.521 1.64888 0.782185 0
M  V30 4436 C 404.572 2.51324 -2.59843 0
M  V30 4437 O 404.293 2.00256 -3.89653 0
M  V30 4438 C 405.794 3.43563 -2.80142 0
M  V30 4439 H 403.014 0.409136 -0.531835 0
M  V30 4440 H 405.558 0.677609 -1.92947 0
M  V30 4441 H 403.713 3.13699 -2.27314 0
M  V30 4442 H 404.127 2.76708 -4.4557 0
M  V30 4443 H 405.601 4.2217 -3.55635 0
M  V30 4444 H 406.078 3.9698 -1.87892 0
M  V30 4445 H 406.684 2.87005 -3.1386 0
M  V30 4446 N 404.999 1.35443 0.805782 0
M  V30 4447 C 405.962 1.28301 1.89925 0
M  V30 4448 C 406.962 0.194285 1.59622 0
M  V30 4449 O 408.152 0.448036 1.6834 0
M  V30 4450 C 405.284 0.984997 3.2636 0
M  V30 4451 H 406.477 2.2553 1.97677 0
M  V30 4452 H 404.03 1.19979 1.00173 0
M  V30 4453 H 404.765 0.016603 3.24296 0
M  V30 4454 H 404.55 1.77269 3.4974 0
M  V30 4455 H 406.04 0.960651 4.064 0
M  V30 4456 N 406.477 -1.02803 1.19454 0
M  V30 4457 C 407.387 -2.14575 0.948408 0
M  V30 4458 C 408.403 -1.73757 -0.091871 0
M  V30 4459 O 409.579 -2.01185 0.0929654 0
M  V30 4460 C 406.644 -3.43202 0.491265 0
M  V30 4461 C 405.705 -3.98328 1.60103 0
M  V30 4462 C 404.938 -5.20816 1.16561 0
M  V30 4463 O 405.161 -5.70392 0.0295238 0
M  V30 4464 O 404.095 -5.68801 1.96849 0
M  V30 4465 H 407.921 -2.38202 1.88397 0
M  V30 4466 H 405.506 -1.12989 0.977433 0
M  V30 4467 H 407.388 -4.20687 0.245015 0
M  V30 4468 H 406.063 -3.21018 -0.415851 0
M  V30 4469 H 404.97 -3.22174 1.90144 0
M  V30 4470 H 406.303 -4.24879 2.48473 0
M  V30 4471 N 407.956 -0.998596 -1.21925 0
M  V30 4472 C 408.919 -0.558679 -2.22287 0
M  V30 4473 C 409.919 0.361525 -1.56683 0
M  V30 4474 O 411.109 0.152695 -1.73529 0
M  V30 4475 C 408.241 0.18661 -3.40389 0
M  V30 4476 H 409.434 -1.4463 -2.62721 0
M  V30 4477 H 406.987 -0.786413 -1.35075 0
M  V30 4478 H 407.722 1.08996 -3.05435 0
M  V30 4479 H 407.507 -0.474188 -3.89222 0
M  V30 4480 H 408.997 0.482367 -4.14805 0
M  V30 4481 N 409.434 1.37368 -0.772513 0
M  V30 4482 C 410.381 2.30262 -0.157488 0
M  V30 4483 C 411.351 1.51137 0.688965 0
M  V30 4484 O 412.536 1.79704 0.641168 0
M  V30 4485 C 409.676 3.37611 0.715045 0
M  V30 4486 C 408.789 4.31746 -0.148098 0
M  V30 4487 C 407.924 5.26171 0.729213 0
M  V30 4488 C 406.963 6.11948 -0.136418 0
M  V30 4489 N 406.1 6.98613 0.698914 0
M  V30 4490 H 410.94 2.82277 -0.955179 0
M  V30 4491 H 408.477 1.38957 -0.482631 0
M  V30 4492 H 410.435 3.98479 1.23575 0
M  V30 4493 H 409.065 2.86959 1.47833 0
M  V30 4494 H 408.117 3.72178 -0.786613 0
M  V30 4495 H 409.429 4.92084 -0.81579 0
M  V30 4496 H 408.583 5.92247 1.31637 0
M  V30 4497 H 407.322 4.66246 1.43059 0
M  V30 4498 H 406.327 5.4485 -0.736102 0
M  V30 4499 H 407.552 6.73945 -0.835134 0
M  V30 4500 H 405.498 6.41215 1.38489 0
M  V30 4501 H 405.415 7.55948 0.0885358 0
M  V30 4502 H 406.683 7.69077 1.27044 0
M  V30 4503 N 410.912 0.523116 1.48665 0
M  V30 4504 C 412.14 -0.0096312 2.06898 0
M  V30 4505 C 412.555 -1.28784 1.38059 0
M  V30 4506 O 411.912 -1.76453 0.465893 0
M  V30 4507 C 411.963 -0.244386 3.60673 0
M  V30 4508 O 411.684 0.983172 4.26925 0
M  V30 4509 C 413.185 -0.818289 4.35682 0
M  V30 4510 H 410.405 0.0304161 0.67031 0
M  V30 4511 H 412.949 0.726799 1.91149 0
M  V30 4512 H 411.104 -0.930847 3.76051 0
M  V30 4513 H 411.518 0.759653 5.1897 0
M  V30 4514 H 412.992 -0.93201 5.44075 0
M  V30 4515 H 413.469 -1.82153 3.99646 0
M  V30 4516 H 414.075 -0.168609 4.24966 0
M  V30 4517 O 412.429 -1.56474 0.399779 0
M  V30 4518 H 413.12 -1.93172 -0.142934 0
M  V30 END ATOM
M  V30 BEGIN BOND
M  V30 END BOND
M  V30 END CTAB
M  END
$$$$
